drugbank_target|P15880 40S ribosomal protein S2 (DB09130)
 OpenBabel12092121053D

  0  0  0     0  0            999 V3000
M  V30 BEGIN CTAB
M  V30 COUNTS 4483 4526 0 0 0
M  V30 BEGIN ATOM
M  V30 1 H -0.908 1.98254 -0.117106 0
M  V30 2 N 0 1.576 0 0
M  V30 3 C 0.933 2.03868 1.02534 0
M  V30 4 C 1.911 0.928543 1.3348 0
M  V30 5 O 3.095 1.19667 1.45644 0
M  V30 6 C 0.222 2.43627 2.35294 0
M  V30 7 C -0.732 3.65373 2.2001 0
M  V30 8 S 0.101 5.13292 1.52614 0
M  V30 9 C 1.257 5.56322 2.86805 0
M  V30 10 H 1.49 2.90518 0.631377 0
M  V30 11 H -0.977 1.52953 0.210867 0
M  V30 12 H 0.981 2.67203 3.11629 0
M  V30 13 H -0.358 1.57376 2.7183 0
M  V30 14 H -1.165 3.90944 3.18086 0
M  V30 15 H -1.563 3.418 1.51819 0
M  V30 16 H 0.729 5.58782 3.83104 0
M  V30 17 H 1.672 6.56266 2.65933 0
M  V30 18 H 2.08 4.83886 2.90714 0
M  V30 19 N 1.4781 -0.272755 1.55222 0
M  V30 20 C 2.4411 -1.32041 1.87344 0
M  V30 21 C 3.4411 -1.42342 0.74803 0
M  V30 22 O 4.6311 -1.41488 1.0162 0
M  V30 23 C 1.7631 -2.70173 2.07893 0
M  V30 24 H 2.9561 -1.04789 2.80997 0
M  V30 25 H 0.5091 -0.51083 1.47717 0
M  V30 26 H 1.2441 -3.02605 1.16622 0
M  V30 27 H 1.0291 -2.64082 2.89833 0
M  V30 28 H 2.5191 -3.45869 2.34017 0
M  V30 29 N 2.9562 -1.48159 -0.537278 0
M  V30 30 C 4.2332 -1.46291 -1.29839 0
M  V30 31 C 4.6132 -0.170613 -2.10409 0
M  V30 32 O 3.9612 0.847746 -2.12192 0
M  V30 33 C 4.1712 -2.72055 -2.18603 0
M  V30 34 C 5.5192 -3.20087 -2.7898 0
M  V30 35 O 6.5432 -2.72921 -2.28894 0
M  V30 36 O 5.4022 -4.02138 -3.70064 0
M  V30 37 H 2.4962 -0.583906 -0.585647 0
M  V30 38 H 5.0422 -1.60384 -0.554534 0
M  V30 39 H 3.8142 -3.57628 -1.58801 0
M  V30 40 H 3.4372 -2.60646 -3.00249 0
M  V30 41 N 4.4343 0.785586 -1.36625 0
M  V30 42 C 5.7113 1.53198 -1.21613 0
M  V30 43 C 6.0913 2.10187 0.196113 0
M  V30 44 O 5.4393 1.94318 1.20219 0
M  V30 45 C 5.6493 2.62388 -2.30116 0
M  V30 46 C 6.9973 3.30167 -2.66974 0
M  V30 47 O 8.0213 2.72674 -2.29188 0
M  V30 48 O 6.8803 4.34077 -3.32023 0
M  V30 49 H 3.9743 0.677865 -0.473738 0
M  V30 50 H 6.5203 0.823739 -1.48367 0
M  V30 51 H 5.2923 2.18299 -3.24748 0
M  V30 52 H 4.9153 3.40827 -2.0475 0
M  V30 53 N 5.9124 1.20967 1.01018 0
M  V30 54 C 6.8754 0.965918 2.07853 0
M  V30 55 C 7.8754 -0.0610545 1.60684 0
M  V30 56 O 9.0654 0.175681 1.73312 0
M  V30 57 C 6.1974 0.455513 3.37843 0
M  V30 58 H 7.3904 1.91365 2.3091 0
M  V30 59 H 4.9434 1.02594 1.17916 0
M  V30 60 H 5.6784 -0.497381 3.20463 0
M  V30 61 H 5.4634 1.19622 3.73407 0
M  V30 62 H 6.9534 0.304667 4.16487 0
M  V30 63 N 7.3905 -1.2043 1.01659 0
M  V30 64 C 8.6385 -1.89423 0.704522 0
M  V30 65 C 8.9595 -1.79231 -0.768197 0
M  V30 66 O 8.2295 -1.1947 -1.55254 0
M  V30 67 H 6.8095 -0.701178 0.257602 0
M  V30 68 H 9.4715 -1.4626 1.28818 0
M  V30 69 H 8.5675 -2.96052 0.987916 0
M  V30 70 N 8.8686 -0.792821 -1.36206 0
M  V30 71 C 9.8316 -0.199459 -2.2833 0
M  V30 72 C 10.8316 0.605189 -1.48977 0
M  V30 73 O 12.0216 0.425685 -1.68919 0
M  V30 74 C 9.1536 0.723523 -3.33134 0
M  V30 75 H 10.3466 -1.01181 -2.82316 0
M  V30 76 H 7.8996 -0.562485 -1.45828 0
M  V30 77 H 8.6346 1.56008 -2.84309 0
M  V30 78 H 8.4196 0.148436 -3.91819 0
M  V30 79 H 9.9096 1.13344 -4.01924 0
M  V30 80 N 10.3467 1.47872 -0.545128 0
M  V30 81 C 11.3097 2.28337 0.198717 0
M  V30 82 C 12.3097 1.36255 0.853888 0
M  V30 83 O 13.4997 1.59003 0.711606 0
M  V30 84 C 10.6317 3.15585 1.28915 0
M  V30 85 H 11.8247 2.95567 -0.507941 0
M  V30 86 H 9.3777 1.53362 -0.301616 0
M  V30 87 H 10.1127 2.53019 2.02859 0
M  V30 88 H 9.8977 3.83337 0.824309 0
M  V30 89 H 11.3877 3.76243 1.81194 0
M  V30 90 N 11.8248 0.280983 1.55075 0
M  V30 91 C 13.0728 -0.333455 1.9933 0
M  V30 92 C 13.3938 -1.55937 1.17085 0
M  V30 93 O 12.6638 -1.94143 0.261805 0
M  V30 94 H 11.2438 -0.126197 0.736263 0
M  V30 95 H 13.9058 0.387678 1.91005 0
M  V30 96 H 13.0018 -0.619292 3.05894 0
M  V30 97 N 13.3029 -1.57598 0.00835791 0
M  V30 98 C 14.5509 -1.90551 -0.6734 0
M  V30 99 C 14.8719 -0.883301 -1.73847 0
M  V30 100 O 14.1419 0.0781442 -1.95744 0
M  V30 101 H 12.7219 -0.703312 -0.251717 0
M  V30 102 H 15.3839 -1.94833 0.0512592 0
M  V30 103 H 14.4799 -2.9056 -1.13935 0
M  V30 104 N 14.781 0.264519 -1.55364 0
M  V30 105 C 16.192 0.834936 -1.6699 0
M  V30 106 C 16.543 1.86718 -0.602552 0
M  V30 107 O 15.668 2.14899 0.254425 0
M  V30 108 C 16.263 1.5212 -3.02729 0
M  V30 109 C 14.822 2.03954 -3.16354 0
M  V30 110 C 13.969 0.884498 -2.62815 0
M  V30 111 H 16.92 0.0406869 -1.58648 0
M  V30 112 H 16.941 2.38853 -2.96191 0
M  V30 113 H 16.453 0.769668 -3.80392 0
M  V30 114 H 14.554 2.82041 -2.43482 0
M  V30 115 H 14.667 2.24902 -4.23032 0
M  V30 116 H 13.031 1.2802 -2.20188 0
M  V30 117 H 13.814 0.14634 -3.42988 0
M  V30 118 N 16.2591 1.48442 0.529413 0
M  V30 119 C 17.5071 1.56179 1.28267 0
M  V30 120 C 17.8281 0.237721 1.93546 0
M  V30 121 O 17.0981 -0.740779 1.81354 0
M  V30 122 H 15.6781 0.575367 0.476405 0
M  V30 123 H 18.3401 1.84909 0.61602 0
M  V30 124 H 17.4361 2.34312 2.06165 0
M  V30 125 N 17.7372 -0.778329 1.37039 0
M  V30 126 C 18.9852 -1.53361 1.31623 0
M  V30 127 C 19.3062 -1.94739 -0.100831 0
M  V30 128 O 18.5762 -1.65797 -1.04347 0
M  V30 129 H 17.1562 -0.568794 0.484234 0
M  V30 130 H 19.8182 -0.926742 1.71457 0
M  V30 131 H 18.9142 -2.43606 1.95096 0
M  V30 132 N 19.2153 -1.21501 -1.00376 0
M  V30 133 C 20.6263 -1.03146 -1.55621 0
M  V30 134 C 20.9773 0.408375 -1.91903 0
M  V30 135 O 20.1023 1.29177 -1.73616 0
M  V30 136 C 20.6973 -1.86612 -2.82775 0
M  V30 137 C 19.2563 -1.72586 -3.34501 0
M  V30 138 C 18.4033 -1.83747 -2.07683 0
M  V30 139 H 21.3543 -1.35505 -0.826081 0
M  V30 140 H 21.3753 -1.3771 -3.54706 0
M  V30 141 H 20.8873 -2.91399 -2.56336 0
M  V30 142 H 18.9883 -0.704877 -3.65872 0
M  V30 143 H 19.1013 -2.54623 -4.05837 0
M  V30 144 H 17.4653 -1.27069 -2.20739 0
M  V30 145 H 18.2483 -2.90044 -1.83655 0
M  V30 146 N 20.6934 1.19889 -1.02296 0
M  V30 147 C 21.9414 1.89046 -0.714558 0
M  V30 148 C 22.2624 1.79636 0.758681 0
M  V30 149 O 21.5324 1.20292 1.54618 0
M  V30 150 H 20.1124 0.699802 -0.261317 0
M  V30 151 H 22.7744 1.45574 -1.29592 0
M  V30 152 H 21.8704 2.95524 -1.0036 0
M  V30 153 N 22.1715 0.800033 1.35784 0
M  V30 154 C 23.4195 0.376597 1.9856 0
M  V30 155 C 23.7405 -1.05812 1.63795 0
M  V30 156 O 23.0105 -1.73103 0.917171 0
M  V30 157 H 21.5905 0.136261 0.734467 0
M  V30 158 H 24.2525 1.02442 1.65806 0
M  V30 159 H 23.3485 0.477002 3.08433 0
M  V30 160 N 23.6496 -1.47581 0.552962 0
M  V30 161 C 25.0606 -1.86324 0.118463 0
M  V30 162 C 25.4116 -1.46006 -1.3106 0
M  V30 163 O 24.5366 -0.861182 -1.98526 0
M  V30 164 C 25.1316 -3.3816 0.20821 0
M  V30 165 C 23.6906 -3.7601 -0.171226 0
M  V30 166 C 22.8376 -2.71634 0.557686 0
M  V30 167 H 25.7886 -1.39159 0.762928 0
M  V30 168 H 25.8096 -3.76141 -0.574278 0
M  V30 169 H 25.3216 -3.67473 1.24841 0
M  V30 170 H 23.4226 -3.52313 -1.21269 0
M  V30 171 H 23.5356 -4.78745 0.184379 0
M  V30 172 H 21.8996 -2.547 0.00125792 0
M  V30 173 H 22.6826 -3.0379 1.59896 0
M  V30 174 N 25.1277 -0.289203 -1.54924 0
M  V30 175 C 26.3757 0.322879 -1.99504 0
M  V30 176 C 26.6967 1.55313 -1.1791 0
M  V30 177 O 25.9667 1.94001 -0.272097 0
M  V30 178 H 24.5467 0.122291 -0.736922 0
M  V30 179 H 27.2087 -0.397802 -1.90797 0
M  V30 180 H 26.3047 0.603061 -3.06218 0
M  V30 181 N 26.6058 1.57591 -0.0167156 0
M  V30 182 C 27.5388 2.04944 1.00366 0
M  V30 183 C 28.5168 0.942648 1.32487 0
M  V30 184 O 29.7008 1.21205 1.44367 0
M  V30 185 C 26.8278 2.46109 2.32697 0
M  V30 186 C 25.8738 3.67686 2.16123 0
M  V30 187 S 26.7068 5.14882 1.47161 0
M  V30 188 C 27.8628 5.59332 2.80888 0
M  V30 189 H 28.0958 2.91172 0.600528 0
M  V30 190 H 25.6288 1.53168 0.194632 0
M  V30 191 H 27.5868 2.70493 3.08778 0
M  V30 192 H 26.2478 1.6025 2.70146 0
M  V30 193 H 25.4408 3.94296 3.13922 0
M  V30 194 H 25.0428 3.43391 1.48185 0
M  V30 195 H 27.3348 5.62814 3.77156 0
M  V30 196 H 28.2778 6.5905 2.58958 0
M  V30 197 H 28.6858 4.86942 2.85565 0
M  V30 198 N 28.0839 -0.256276 1.55502 0
M  V30 199 C 29.3319 -0.983672 1.76545 0
M  V30 200 C 29.6529 -1.86206 0.578982 0
M  V30 201 O 28.9229 -1.91656 -0.405577 0
M  V30 202 H 27.5029 -0.366191 0.651086 0
M  V30 203 H 30.1649 -0.276479 1.92929 0
M  V30 204 H 29.2609 -1.61087 2.67315 0
M  V30 205 N 29.562 -1.4872 -0.521534 0
M  V30 206 C 30.51 -1.64328 -1.64618 0
M  V30 207 C 31.504 -0.50953 -1.61555 0
M  V30 208 O 32.71 -0.688525 -1.66311 0
M  V30 209 H 29.085 -0.517805 -0.545328 0
M  V30 210 H 31.056 -2.58767 -1.48601 0
M  V30 211 C 29.805 -1.70805 -3.02855 0
M  V30 212 H 29.128 -2.5741 -3.05909 0
M  V30 213 H 30.568 -1.85766 -3.81139 0
M  V30 214 C 29.027 -0.448479 -3.33902 0
M  V30 215 O 29.557 0.434928 -3.99339 0
M  V30 216 N 27.763 -0.317616 -2.88859 0
M  V30 217 H 27.31 -1.03748 -2.35784 0
M  V30 218 H 27.268 0.524113 -3.10001 0
M  V30 219 N 31.0401 0.771051 -1.3745 0
M  V30 220 C 32.4561 1.07171 -1.18265 0
M  V30 221 C 32.6561 2.01491 -0.019287 0
M  V30 222 O 31.7121 2.44244 0.640408 0
M  V30 223 C 33.0251 1.66854 -2.50161 0
M  V30 224 C 34.5731 1.79109 -2.56689 0
M  V30 225 C 35.0481 2.42205 -3.88717 0
M  V30 226 N 36.5391 2.49655 -3.90162 0
M  V30 227 C 37.2741 2.9933 -4.8907 0
M  V30 228 N 36.7701 3.49172 -5.98374 0
M  V30 229 N 38.5631 2.9821 -4.76474 0
M  V30 230 H 30.7141 0.144796 -2.11906 0
M  V30 231 H 32.9771 0.126863 -0.939473 0
M  V30 232 H 32.6831 1.05017 -3.35655 0
M  V30 233 H 32.5571 2.6614 -2.673 0
M  V30 234 H 34.9441 2.40077 -1.71601 0
M  V30 235 H 35.0251 0.785757 -2.43433 0
M  V30 236 H 34.6691 1.81875 -4.74219 0
M  V30 237 H 34.5991 3.43345 -3.99276 0
M  V30 238 H 37.0901 2.14383 -3.11205 0
M  V30 239 H 37.4031 3.8548 -6.69795 0
M  V30 240 H 35.7481 3.47275 -6.02018 0
M  V30 241 H 38.9391 2.58572 -3.90203 0
M  V30 242 H 39.1121 3.36613 -5.53711 0
M  V30 243 N 32.5182 1.22032 0.997298 0
M  V30 244 C 33.7662 1.04016 1.73278 0
M  V30 245 C 34.0872 -0.426255 1.90284 0
M  V30 246 O 33.3572 -1.30694 1.45931 0
M  V30 247 H 31.9372 0.381897 0.642 0
M  V30 248 H 34.5992 1.5347 1.20137 0
M  V30 249 H 33.6952 1.51441 2.72896 0
M  V30 250 N 33.9963 -1.19345 1.0293 0
M  V30 251 C 35.2443 -1.88665 0.724574 0
M  V30 252 C 35.5653 -1.80036 -0.749144 0
M  V30 253 O 34.8353 -1.2111 -1.53978 0
M  V30 254 H 33.4153 -0.698406 0.265025 0
M  V30 255 H 36.0773 -1.44885 1.30362 0
M  V30 256 H 35.1733 -2.94987 1.01926 0
M  V30 257 N 35.4744 -0.807222 -1.35358 0
M  V30 258 C 36.7214 -0.387888 -1.9875 0
M  V30 259 C 37.0494 1.04509 -1.64037 0
M  V30 260 O 36.3044 1.73986 -0.895946 0
M  V30 261 C 36.6034 -0.519036 -3.53611 0
M  V30 262 C 36.2694 -1.91542 -4.08194 0
M  V30 263 C 34.9314 -2.29745 -4.22813 0
M  V30 264 C 37.2834 -2.82896 -4.37744 0
M  V30 265 C 34.6114 -3.58668 -4.643 0
M  V30 266 C 36.9634 -4.11265 -4.8067 0
M  V30 267 C 35.6274 -4.49466 -4.93494 0
M  V30 268 H 34.8974 -0.141938 -0.727279 0
M  V30 269 H 37.5444 -1.02814 -1.6156 0
M  V30 270 H 35.8494 0.204658 -3.91265 0
M  V30 271 H 37.5464 -0.175345 -4.00616 0
M  V30 272 H 34.1364 -1.60862 -3.97268 0
M  V30 273 H 38.3204 -2.54629 -4.26002 0
M  V30 274 H 33.5764 -3.88113 -4.72418 0
M  V30 275 H 37.7504 -4.82153 -5.02496 0
M  V30 276 H 35.3774 -5.49418 -5.25399 0
M  V30 277 N 36.9525 1.47285 -0.560781 0
M  V30 278 C 38.3685 1.58065 -0.22081 0
M  V30 279 C 38.5685 1.55892 1.27671 0
M  V30 280 O 37.6245 1.46422 2.0571 0
M  V30 281 C 38.9375 2.88418 -0.850625 0
M  V30 282 C 40.4855 3.02009 -0.822184 0
M  V30 283 C 40.9605 4.35066 -1.43113 0
M  V30 284 N 42.4515 4.41711 -1.39448 0
M  V30 285 C 43.1865 5.43237 -1.83525 0
M  V30 286 N 42.6825 6.51555 -2.35474 0
M  V30 287 N 44.4755 5.34304 -1.74574 0
M  V30 288 H 36.6265 1.46941 -1.53369 0
M  V30 289 H 38.8895 0.699558 -0.639783 0
M  V30 290 H 38.5955 2.95755 -1.9032 0
M  V30 291 H 38.4695 3.75612 -0.345773 0
M  V30 292 H 40.8565 2.94266 0.221714 0
M  V30 293 H 40.9375 2.16347 -1.36483 0
M  V30 294 H 40.5815 4.43565 -2.47412 0
M  V30 295 H 40.5115 5.19465 -0.863899 0
M  V30 296 H 43.0025 3.64027 -1.01452 0
M  V30 297 H 43.3155 7.25203 -2.67021 0
M  V30 298 H 41.6605 6.52435 -2.39487 0
M  V30 299 H 44.8515 4.48581 -1.33763 0
M  V30 300 H 45.0245 6.13288 -2.09242 0
M  V30 301 N 38.4306 0.297415 1.54768 0
M  V30 302 C 39.6786 -0.312295 1.99673 0
M  V30 303 C 39.9996 -1.54686 1.18732 0
M  V30 304 O 39.2696 -1.93854 0.282382 0
M  V30 305 H 37.8496 -0.118381 0.73756 0
M  V30 306 H 40.5116 0.407915 1.90583 0
M  V30 307 H 39.6076 -0.586813 3.06534 0
M  V30 308 N 39.9087 -1.5758 0.0250728 0
M  V30 309 C 41.1567 -1.91255 -0.653151 0
M  V30 310 C 41.4777 -0.901691 -1.729 0
M  V30 311 O 40.7477 0.0573785 -1.95816 0
M  V30 312 H 39.3277 -0.705942 -0.244243 0
M  V30 313 H 41.9897 -1.94767 0.0719209 0
M  V30 314 H 41.0857 -2.91752 -1.10847 0
M  V30 315 N 41.3868 0.248026 -1.55636 0
M  V30 316 C 42.6338 0.976224 -1.77415 0
M  V30 317 C 42.9618 1.85361 -0.589193 0
M  V30 318 O 42.2168 1.90973 0.427529 0
M  V30 319 C 42.5158 1.86819 -3.04686 0
M  V30 320 C 42.1818 1.14625 -4.36087 0
M  V30 321 C 40.8438 0.946723 -4.71795 0
M  V30 322 C 43.1958 0.634463 -5.17324 0
M  V30 323 C 40.5238 0.223091 -5.86276 0
M  V30 324 C 42.8758 -0.0756959 -6.32555 0
M  V30 325 C 41.5398 -0.286711 -6.66884 0
M  V30 326 H 40.8098 0.357226 -0.649208 0
M  V30 327 H 43.4568 0.246415 -1.89908 0
M  V30 328 H 41.7618 2.66502 -2.872 0
M  V30 329 H 43.4588 2.43329 -3.18735 0
M  V30 330 H 40.0488 1.3117 -4.08035 0
M  V30 331 H 44.2328 0.77616 -4.90193 0
M  V30 332 H 39.4888 0.0491185 -6.1138 0
M  V30 333 H 43.6628 -0.479899 -6.94745 0
M  V30 334 H 41.2898 -0.849389 -7.5544 0
M  V30 335 N 42.8649 1.48995 0.513639 0
M  V30 336 C 44.1129 1.57531 1.26604 0
M  V30 337 C 44.4339 0.258236 1.93283 0
M  V30 338 O 43.7039 -0.721502 1.8213 0
M  V30 339 H 42.2839 0.580387 0.470276 0
M  V30 340 H 44.9459 1.85552 0.596373 0
M  V30 341 H 44.0419 2.36486 2.03669 0
M  V30 342 N 44.343 -0.763751 1.37857 0
M  V30 343 C 45.568 -1.55805 1.36893 0
M  V30 344 C 45.993 -1.88054 -0.0416135 0
M  V30 345 O 45.351 -1.49825 -1.02089 0
M  V30 346 C 45.399 -2.84012 2.22192 0
M  V30 347 O 44.503 -3.78732 1.63204 0
M  V30 348 H 43.844 -0.471638 0.46739 0
M  V30 349 H 46.374 -0.944657 1.81487 0
M  V30 350 H 46.384 -3.33037 2.35691 0
M  V30 351 H 45.059 -2.59869 3.24716 0
M  V30 352 H 43.636 -3.37402 1.58791 0
M  V30 353 N 45.8211 -1.22559 -0.990812 0
M  V30 354 C 47.0691 -1.04933 -1.72724 0
M  V30 355 C 47.3901 0.416158 -1.90508 0
M  V30 356 O 46.6601 1.29918 -1.46622 0
M  V30 357 H 45.2401 -0.385296 -0.639965 0
M  V30 358 H 47.9021 -1.54105 -1.19322 0
M  V30 359 H 46.9981 -1.52886 -2.72089 0
M  V30 360 N 47.2992 1.18797 -1.03562 0
M  V30 361 C 48.5482 1.87978 -0.731235 0
M  V30 362 C 48.8612 1.80911 0.743671 0
M  V30 363 O 50.0672 2.45407 1.16137 0
M  V30 364 C 48.5232 3.3721 -1.25768 0
M  V30 365 C 48.1312 3.52818 -2.76085 0
M  V30 366 C 49.8752 4.11825 -1.0296 0
M  V30 367 C 47.7822 4.9598 -3.22114 0
M  V30 368 H 46.7122 0.704063 -0.269835 0
M  V30 369 H 49.3632 1.34266 -1.25079 0
M  V30 370 H 47.7452 3.90359 -0.666011 0
M  V30 371 H 48.9192 3.09965 -3.40966 0
M  V30 372 H 47.2342 2.91602 -2.97249 0
M  V30 373 H 49.8312 5.17411 -1.34869 0
M  V30 374 H 50.1742 4.16287 0.0333546 0
M  V30 375 H 50.7072 3.64833 -1.58562 0
M  V30 376 H 47.4462 4.96684 -4.27768 0
M  V30 377 H 46.9662 5.39569 -2.61965 0
M  V30 378 H 48.6452 5.6467 -3.15844 0
M  V30 379 N 48.7773 0.814389 1.34928 0
M  V30 380 C 50.1933 0.499084 1.51596 0
M  V30 381 C 50.3933 -0.978319 1.76157 0
M  V30 382 O 49.4493 -1.76309 1.80752 0
M  V30 383 C 50.7623 1.35121 2.68631 0
M  V30 384 C 52.3103 1.34746 2.82511 0
M  V30 385 C 52.7853 2.18388 4.0258 0
M  V30 386 N 54.2763 2.15966 4.09772 0
M  V30 387 C 55.0113 2.77437 5.01813 0
M  V30 388 N 54.5073 3.47866 5.99134 0
M  V30 389 N 56.3003 2.67037 4.94619 0
M  V30 390 H 48.4513 1.7711 1.17243 0
M  V30 391 H 50.7143 0.754256 0.574284 0
M  V30 392 H 50.4203 2.40001 2.57085 0
M  V30 393 H 50.2943 1.00991 3.63429 0
M  V30 394 H 52.6813 0.30648 2.93504 0
M  V30 395 H 52.7623 1.72869 1.88547 0
M  V30 396 H 52.4063 3.2253 3.92347 0
M  V30 397 H 52.3363 1.77621 4.9574 0
M  V30 398 H 54.8273 1.64729 3.40107 0
M  V30 399 H 55.1403 3.92038 6.65977 0
M  V30 400 H 53.4853 3.51972 5.99284 0
M  V30 401 H 56.6763 2.11597 4.17546 0
M  V30 402 H 56.8493 3.15232 5.66156 0
M  V30 403 N 50.2554 -1.46986 0.568584 0
M  V30 404 C 51.5034 -2.02041 0.0487022 0
M  V30 405 C 51.8244 -1.44408 -1.31039 0
M  V30 406 O 51.0944 -0.623477 -1.85714 0
M  V30 407 H 49.6744 -0.746849 0.015014 0
M  V30 408 H 52.3364 -1.80257 0.741168 0
M  V30 409 H 51.4324 -3.12085 -0.0308961 0
M  V30 410 N 51.7335 -0.305618 -1.54608 0
M  V30 411 C 53.1495 0.0476228 -1.59529 0
M  V30 412 C 53.3495 1.52025 -1.32252 0
M  V30 413 O 52.4055 2.27368 -1.09818 0
M  V30 414 C 53.7185 -0.354471 -2.98603 0
M  V30 415 C 55.2665 -0.303622 -3.11524 0
M  V30 416 C 55.7415 -0.680608 -4.52915 0
M  V30 417 N 57.2325 -0.63332 -4.5885 0
M  V30 418 C 57.9675 -0.897432 -5.66334 0
M  V30 419 N 57.4635 -1.22775 -6.81834 0
M  V30 420 N 59.2565 -0.824186 -5.56025 0
M  V30 421 H 51.4075 -1.2653 -1.70599 0
M  V30 422 H 53.6705 -0.513291 -0.797017 0
M  V30 423 H 53.3765 -1.3798 -3.23503 0
M  V30 424 H 53.2505 0.289568 -3.76087 0
M  V30 425 H 55.6375 0.712472 -2.8637 0
M  V30 426 H 55.7185 -0.982348 -2.36185 0
M  V30 427 H 55.3625 -1.69453 -4.78799 0
M  V30 428 H 55.2925 0.0202385 -5.26596 0
M  V30 429 H 57.7835 -0.389138 -3.75891 0
M  V30 430 H 58.0965 -1.41513 -7.59733 0
M  V30 431 H 56.4415 -1.26583 -6.83375 0
M  V30 432 H 59.6325 -0.565748 -4.64669 0
M  V30 433 H 59.8055 -1.03338 -6.39707 0
M  V30 434 N 53.2116 1.57565 -0.0334293 0
M  V30 435 C 54.4596 1.91598 0.642999 0
M  V30 436 C 54.7806 0.910847 1.7242 0
M  V30 437 O 54.0506 -0.0469931 1.95844 0
M  V30 438 H 52.6306 0.707228 0.240496 0
M  V30 439 H 55.2926 1.94726 -0.0822488 0
M  V30 440 H 54.3886 2.92336 1.09298 0
M  V30 441 N 54.6897 -0.239769 1.55765 0
M  V30 442 C 56.1057 -0.588624 1.48349 0
M  V30 443 C 56.3057 -1.88005 0.72502 0
M  V30 444 O 55.3617 -2.51186 0.257269 0
M  V30 445 C 56.6747 -0.68474 2.928 0
M  V30 446 C 58.2227 -0.77659 3.03213 0
M  V30 447 C 58.6977 -0.904207 4.48986 0
M  V30 448 N 60.1887 -0.968896 4.52953 0
M  V30 449 C 60.9237 -1.08703 5.63002 0
M  V30 450 N 60.4197 -1.17026 6.82845 0
M  V30 451 N 62.2127 -1.12074 5.50814 0
M  V30 452 H 54.3637 0.607911 2.03515 0
M  V30 453 H 56.6267 0.21083 0.924259 0
M  V30 454 H 56.3327 0.194284 3.51163 0
M  V30 455 H 56.2067 -1.55435 3.43686 0
M  V30 456 H 58.5937 -1.64606 2.44926 0
M  V30 457 H 58.6747 0.118315 2.55526 0
M  V30 458 H 58.3187 -0.0392633 5.07885 0
M  V30 459 H 58.2487 -1.81426 4.9436 0
M  V30 460 H 60.7397 -0.915633 3.6664 0
M  V30 461 H 61.0527 -1.25966 7.62465 0
M  V30 462 H 59.3977 -1.13971 6.85591 0
M  V30 463 H 62.5887 -1.05226 4.5612 0
M  V30 464 H 62.7617 -1.20936 6.36615 0
M  V30 465 N 56.1678 -1.49265 -0.50573 0
M  V30 466 C 57.4158 -1.582 -1.25766 0
M  V30 467 C 57.7368 -0.268482 -1.93143 0
M  V30 468 O 57.0068 0.711833 -1.8251 0
M  V30 469 H 55.5868 -0.582873 -0.467191 0
M  V30 470 H 58.2488 -1.85865 -0.586525 0
M  V30 471 H 57.3448 -2.37563 -2.02412 0
M  V30 472 N 57.6459 0.756429 -1.3826 0
M  V30 473 C 59.0619 1.0591 -1.19395 0
M  V30 474 C 59.2619 2.01459 -0.0406567 0
M  V30 475 O 58.3179 2.44909 0.614467 0
M  V30 476 C 59.6309 1.64191 -2.51916 0
M  V30 477 C 61.1789 1.76376 -2.58574 0
M  V30 478 C 61.6539 2.38069 -3.91264 0
M  V30 479 N 63.1449 2.45503 -3.92788 0
M  V30 480 C 63.8799 2.94126 -4.92217 0
M  V30 481 N 63.3759 3.42805 -6.02043 0
M  V30 482 N 65.1689 2.9314 -4.7961 0
M  V30 483 H 57.3199 0.122313 -2.12048 0
M  V30 484 H 59.5829 0.116892 -0.940766 0
M  V30 485 H 59.2889 1.01451 -3.3675 0
M  V30 486 H 59.1629 2.6329 -2.70108 0
M  V30 487 H 61.5499 2.38244 -1.74137 0
M  V30 488 H 61.6309 0.759894 -2.44252 0
M  V30 489 H 61.2749 1.76835 -4.76121 0
M  V30 490 H 61.2049 3.39091 -4.02895 0
M  V30 491 H 63.6959 2.1107 -3.13461 0
M  V30 492 H 64.0089 3.78354 -6.73846 0
M  V30 493 H 62.3539 3.4087 -6.05667 0
M  V30 494 H 65.5449 2.54419 -3.92923 0
M  V30 495 H 65.7179 3.30721 -5.5725 0
M  V30 496 N 59.124 1.23083 0.984299 0
M  V30 497 C 60.372 1.05848 1.72165 0
M  V30 498 C 60.693 -0.406049 1.90726 0
M  V30 499 O 59.963 -1.29139 1.47309 0
M  V30 500 H 58.543 0.388685 0.637913 0
M  V30 501 H 61.205 1.54736 1.18503 0
M  V30 502 H 60.301 1.54327 2.71274 0
M  V30 503 N 60.6021 -1.18246 1.0419 0
M  V30 504 C 62.0181 -1.40269 0.761366 0
M  V30 505 C 62.2181 -1.90777 -0.648578 0
M  V30 506 O 61.2741 -2.0929 -1.41258 0
M  V30 507 C 62.5871 -2.40237 1.8085 0
M  V30 508 C 64.1351 -2.53961 1.82955 0
M  V30 509 C 64.6101 -3.57194 2.86664 0
M  V30 510 N 66.1011 -3.64702 2.85563 0
M  V30 511 C 66.8361 -4.44309 3.6246 0
M  V30 512 N 66.3321 -5.27514 4.49111 0
M  V30 513 N 68.1251 -4.39084 3.50944 0
M  V30 514 H 60.2761 -0.837882 1.95175 0
M  V30 515 H 62.5391 -0.430608 0.84456 0
M  V30 516 H 62.2451 -2.10176 2.81991 0
M  V30 517 H 62.1191 -3.39601 1.64168 0
M  V30 518 H 64.5061 -2.83338 0.824855 0
M  V30 519 H 64.5871 -1.54706 2.03715 0
M  V30 520 H 64.2311 -3.28558 3.87314 0
M  V30 521 H 64.1611 -4.5613 2.6316 0
M  V30 522 H 66.6521 -3.05289 2.22727 0
M  V30 523 H 66.9651 -5.85411 5.04493 0
M  V30 524 H 65.3101 -5.2693 4.53178 0
M  V30 525 H 68.5011 -3.7313 2.82651 0
M  V30 526 H 68.6741 -5.00883 4.11121 0
M  V30 527 N 62.0802 -0.821533 -1.34494 0
M  V30 528 C 63.3282 -0.408139 -1.97936 0
M  V30 529 C 63.6492 1.03193 -1.65457 0
M  V30 530 O 62.9192 1.71622 -0.944595 0
M  V30 531 H 61.4992 -0.147928 -0.732206 0
M  V30 532 H 64.1612 -1.05067 -1.64155 0
M  V30 533 H 63.2572 -0.52601 -3.07635 0
M  V30 534 N 63.5583 1.46682 -0.576371 0
M  V30 535 C 64.9743 1.57822 -0.237562 0
M  V30 536 C 65.1743 1.57237 1.26011 0
M  V30 537 O 64.2303 1.48596 2.04146 0
M  V30 538 C 65.5433 2.87499 -0.881168 0
M  V30 539 C 67.0913 3.01119 -0.85417 0
M  V30 540 C 67.5663 4.33524 -1.4772 0
M  V30 541 N 69.0573 4.40207 -1.44125 0
M  V30 542 C 69.7923 5.4126 -1.89276 0
M  V30 543 N 69.2883 6.49021 -2.42371 0
M  V30 544 N 71.0813 5.32422 -1.80231 0
M  V30 545 H 63.2323 1.45306 -1.54919 0
M  V30 546 H 65.4953 0.692733 -0.647167 0
M  V30 547 H 65.2013 2.9372 -1.93447 0
M  V30 548 H 65.0753 3.75224 -0.385592 0
M  V30 549 H 67.4623 2.94485 0.190491 0
M  V30 550 H 67.5433 2.14887 -1.3877 0
M  V30 551 H 67.1873 4.40916 -2.52103 0
M  V30 552 H 67.1173 5.1852 -0.918947 0
M  V30 553 H 69.6083 3.62931 -1.05307 0
M  V30 554 H 69.9213 7.2233 -2.74698 0
M  V30 555 H 68.2663 6.49858 -2.46393 0
M  V30 556 H 71.4573 4.47137 -1.38514 0
M  V30 557 H 71.6303 6.11034 -2.15735 0
M  V30 558 N 65.0364 0.313813 1.54444 0
M  V30 559 C 66.2844 -0.291099 1.99993 0
M  V30 560 C 66.6054 -1.53418 1.20366 0
M  V30 561 O 65.8754 -1.93544 0.302927 0
M  V30 562 H 64.4554 -0.110552 0.738774 0
M  V30 563 H 67.1174 0.428106 1.9014 0
M  V30 564 H 66.2134 -0.554268 3.07139 0
M  V30 565 N 66.5145 -1.57545 0.0417849 0
M  V30 566 C 67.9305 -1.56467 -0.314704 0
M  V30 567 C 68.1305 -1.04859 -1.72066 0
M  V30 568 O 67.1865 -0.700983 -2.42575 0
M  V30 569 C 68.4995 -3.00317 -0.15174 0
M  V30 570 C 70.0475 -3.12201 -0.223553 0
M  V30 571 C 70.5225 -4.57913 -0.0892295 0
M  V30 572 N 72.0135 -4.6297 -0.145808 0
M  V30 573 C 72.7485 -5.73362 -0.0658459 0
M  V30 574 N 72.2445 -6.92769 0.0659282 0
M  V30 575 N 74.0375 -5.6197 -0.12075 0
M  V30 576 H 66.1885 -1.89416 0.961014 0
M  V30 577 H 68.4515 -0.871862 0.372237 0
M  V30 578 H 68.1575 -3.42073 0.817254 0
M  V30 579 H 68.0315 -3.65892 -0.916692 0
M  V30 580 H 70.4185 -2.70349 -1.18301 0
M  V30 581 H 70.4995 -2.49323 0.571994 0
M  V30 582 H 70.1435 -5.00448 0.866867 0
M  V30 583 H 70.0735 -5.18786 -0.903802 0
M  V30 584 H 72.5645 -3.7709 -0.247286 0
M  V30 585 H 72.8775 -7.72707 0.119905 0
M  V30 586 H 71.2225 -6.94927 0.100885 0
M  V30 587 H 74.4135 -4.67572 -0.222187 0
M  V30 588 H 74.5865 -6.47977 -0.0549735 0
M  V30 589 N 67.9926 0.231505 -1.5589 0
M  V30 590 C 69.2406 0.955461 -1.78088 0
M  V30 591 C 69.5616 1.85262 -0.608533 0
M  V30 592 O 68.8316 1.92277 0.375035 0
M  V30 593 H 67.4116 0.355787 -0.656829 0
M  V30 594 H 70.0736 0.245751 -1.93344 0
M  V30 595 H 69.1696 1.56814 -2.69844 0
M  V30 596 N 69.4707 1.49531 0.497807 0
M  V30 597 C 70.8867 1.36365 0.829266 0
M  V30 598 C 71.0867 0.399184 1.97506 0
M  V30 599 O 70.1427 -0.167977 2.51941 0
M  V30 600 C 71.4557 2.77153 1.16647 0
M  V30 601 C 73.0037 2.85877 1.27449 0
M  V30 602 C 73.4787 4.2744 1.64497 0
M  V30 603 N 74.9697 4.30265 1.7154 0
M  V30 604 C 75.7047 5.3677 2.01656 0
M  V30 605 N 75.2007 6.53516 2.29976 0
M  V30 606 N 76.9937 5.24189 2.02934 0
M  V30 607 H 69.1447 2.10831 -0.257703 0
M  V30 608 H 71.4077 0.946534 -0.0527091 0
M  V30 609 H 71.1137 3.49442 0.397872 0
M  V30 610 H 70.9877 3.12722 2.10915 0
M  V30 611 H 73.3747 2.13824 2.0338 0
M  V30 612 H 73.4557 2.53887 0.312244 0
M  V30 613 H 73.0997 5.00021 0.891151 0
M  V30 614 H 73.0297 4.56896 2.61827 0
M  V30 615 H 75.5207 3.4607 1.51802 0
M  V30 616 H 75.8337 7.30506 2.52153 0
M  V30 617 H 74.1787 6.56737 2.27425 0
M  V30 618 H 77.3697 4.31988 1.80289 0
M  V30 619 H 77.5427 6.07286 2.26071 0
M  V30 620 N 70.9488 -0.749086 1.3866 0
M  V30 621 C 72.1968 -1.50535 1.34847 0
M  V30 622 C 72.5178 -1.94909 -0.0595016 0
M  V30 623 O 71.7878 -1.67973 -1.00806 0
M  V30 624 H 70.3678 -0.558395 0.49619 0
M  V30 625 H 73.0298 -0.890165 1.73384 0
M  V30 626 H 72.1258 -2.39413 2.00219 0
M  V30 627 N 72.4269 -1.23603 -0.977757 0
M  V30 628 C 73.3899 -1.02069 -2.05218 0
M  V30 629 C 74.3899 0.0184305 -1.60789 0
M  V30 630 O 75.5799 -0.221569 -1.72785 0
M  V30 631 C 72.7119 -0.544926 -3.36517 0
M  V30 632 H 73.9049 -1.9742 -2.25755 0
M  V30 633 H 71.4579 -1.05684 -1.15155 0
M  V30 634 H 72.1929 0.412241 -3.21669 0
M  V30 635 H 71.9779 -1.2948 -3.70105 0
M  V30 636 H 73.4679 -0.414985 -4.15533 0
M  V30 637 N 73.905 1.17692 -1.04816 0
M  V30 638 C 75.321 1.39863 -0.768794 0
M  V30 639 C 75.521 1.91118 0.638451 0
M  V30 640 O 74.577 2.10036 1.40146 0
M  V30 641 C 75.89 2.39274 -1.82122 0
M  V30 642 C 77.438 2.52987 -1.843 0
M  V30 643 C 77.913 3.55669 -2.88555 0
M  V30 644 N 79.404 3.63183 -2.87493 0
M  V30 645 C 80.139 4.42381 -3.64811 0
M  V30 646 N 79.635 5.25125 -4.51903 0
M  V30 647 N 81.428 4.37217 -3.53267 0
M  V30 648 H 73.579 0.82752 -1.95617 0
M  V30 649 H 75.842 0.426123 -0.846831 0
M  V30 650 H 75.548 2.08678 -2.83102 0
M  V30 651 H 75.422 3.38725 -1.65967 0
M  V30 652 H 77.809 2.82896 -0.839869 0
M  V30 653 H 77.89 1.53623 -2.04532 0
M  V30 654 H 77.534 3.26499 -3.89051 0
M  V30 655 H 77.464 4.54728 -2.65575 0
M  V30 656 H 79.955 3.04103 -2.24343 0
M  V30 657 H 80.268 5.82728 -5.07591 0
M  V30 658 H 78.613 5.24519 -4.55966 0
M  V30 659 H 81.804 3.71626 -2.84625 0
M  V30 660 H 81.977 4.98696 -4.13771 0
M  V30 661 N 75.3831 0.828654 1.34056 0
M  V30 662 C 76.6311 0.41863 1.97717 0
M  V30 663 C 76.9521 -1.02314 1.66002 0
M  V30 664 O 76.2221 -1.71119 0.953683 0
M  V30 665 H 74.8021 0.151809 0.731412 0
M  V30 666 H 77.4641 1.05936 1.63596 0
M  V30 667 H 76.5601 0.542318 3.07352 0
M  V30 668 N 76.8612 -1.46375 0.584142 0
M  V30 669 C 78.1092 -2.01978 0.0701287 0
M  V30 670 C 78.4302 -1.4579 -1.295 0
M  V30 671 O 77.7002 -0.64314 -1.85042 0
M  V30 672 H 76.2802 -0.746648 0.0229345 0
M  V30 673 H 78.9422 -1.79461 0.760245 0
M  V30 674 H 78.0382 -3.121 0.0022064 0
M  V30 675 N 78.3393 -0.321999 -1.54275 0
M  V30 676 C 79.2863 0.544664 -2.24281 0
M  V30 677 C 80.2563 1.1129 -1.23303 0
M  V30 678 O 81.4413 1.15354 -1.51981 0
M  V30 679 C 78.5813 1.70045 -3.00298 0
M  V30 680 C 77.6943 1.16159 -4.1609 0
M  V30 681 C 76.8293 2.28293 -4.79641 0
M  V30 682 C 75.8683 1.71648 -5.8754 0
M  V30 683 N 75.0053 2.77438 -6.44959 0
M  V30 684 H 79.8453 -0.0588907 -2.97942 0
M  V30 685 H 77.3823 -0.0408345 -1.47043 0
M  V30 686 H 79.3403 2.38054 -3.42616 0
M  V30 687 H 77.9703 2.27531 -2.28975 0
M  V30 688 H 77.0223 0.373092 -3.78566 0
M  V30 689 H 78.3343 0.707087 -4.93763 0
M  V30 690 H 77.4883 3.0421 -5.2492 0
M  V30 691 H 76.2273 2.77079 -4.01346 0
M  V30 692 H 75.2323 0.942282 -5.41665 0
M  V30 693 H 76.4573 1.23741 -6.67731 0
M  V30 694 H 74.4033 3.25519 -5.69538 0
M  V30 695 H 74.3203 2.36547 -7.1804 0
M  V30 696 H 75.5883 3.53189 -6.94894 0
M  V30 697 N 79.8174 1.5752 -0.0501392 0
M  V30 698 C 80.7804 2.1037 0.909786 0
M  V30 699 C 81.7804 1.02308 1.24056 0
M  V30 700 O 82.9704 1.28385 1.17741 0
M  V30 701 C 80.1024 2.58708 2.21998 0
M  V30 702 H 81.2954 2.96479 0.451665 0
M  V30 703 H 78.8484 1.55038 0.198248 0
M  V30 704 H 79.5834 1.75989 2.72394 0
M  V30 705 H 79.3684 3.37675 1.99295 0
M  V30 706 H 80.8584 2.99747 2.9076 0
M  V30 707 N 81.2955 -0.223234 1.56011 0
M  V30 708 C 82.2055 -1.29766 1.95443 0
M  V30 709 C 83.2215 -1.51373 0.858028 0
M  V30 710 O 84.3975 -1.64536 1.16146 0
M  V30 711 C 81.4625 -2.62772 2.26167 0
M  V30 712 C 80.5235 -2.49482 3.49367 0
M  V30 713 C 79.7565 -3.76145 3.78616 0
M  V30 714 O 79.9795 -4.79087 3.09568 0
M  V30 715 O 78.9135 -3.73358 4.72109 0
M  V30 716 H 82.7395 -0.99309 2.87004 0
M  V30 717 H 80.3245 -0.425958 1.43199 0
M  V30 718 H 82.2065 -3.41327 2.47131 0
M  V30 719 H 80.8815 -2.92913 1.37781 0
M  V30 720 H 79.7885 -1.69133 3.33684 0
M  V30 721 H 81.1215 -2.2428 4.38131 0
M  V30 722 N 82.7736 -1.49793 -0.48987 0
M  V30 723 C 84.0506 -1.50348 -1.25119 0
M  V30 724 C 84.4306 -0.237466 -2.0976 0
M  V30 725 O 83.7786 0.77981 -2.14782 0
M  V30 726 C 83.9886 -2.78872 -2.09837 0
M  V30 727 C 85.3366 -3.288 -2.68655 0
M  V30 728 O 86.3606 -2.80065 -2.20096 0
M  V30 729 O 85.2196 -4.13707 -3.57083 0
M  V30 730 H 82.3136 -0.602242 -0.566775 0
M  V30 731 H 84.8596 -1.62067 -0.503229 0
M  V30 732 H 83.6316 -3.62499 -1.47343 0
M  V30 733 H 83.2546 -2.70066 -2.91805 0
M  V30 734 N 84.2517 0.741722 -1.39055 0
M  V30 735 C 85.1987 1.85566 -1.37237 0
M  V30 736 C 86.1687 1.64457 -0.233072 0
M  V30 737 O 87.3537 1.85957 -0.427147 0
M  V30 738 C 84.4937 3.23004 -1.215 0
M  V30 739 C 83.6067 3.55864 -2.44918 0
M  V30 740 C 82.7417 4.82669 -2.21821 0
M  V30 741 C 81.7807 5.08351 -3.40948 0
M  V30 742 N 80.9177 6.26356 -3.17211 0
M  V30 743 H 85.7577 1.86455 -2.32462 0
M  V30 744 H 83.2947 0.911176 -1.15482 0
M  V30 745 H 85.2527 4.02331 -1.10389 0
M  V30 746 H 83.8827 3.21411 -0.29908 0
M  V30 747 H 82.9347 2.7129 -2.66657 0
M  V30 748 H 84.2467 3.70765 -3.33668 0
M  V30 749 H 83.4007 5.69962 -2.07914 0
M  V30 750 H 82.1397 4.69929 -1.30454 0
M  V30 751 H 81.1447 4.19522 -3.55361 0
M  V30 752 H 82.3697 5.22981 -4.33207 0
M  V30 753 H 80.3157 6.14917 -2.28502 0
M  V30 754 H 80.2327 6.41813 -3.99515 0
M  V30 755 H 81.5007 7.16506 -3.06984 0
M  V30 756 N 85.7298 1.2412 0.971189 0
M  V30 757 C 86.6398 1.04747 2.09917 0
M  V30 758 C 87.6558 -0.0107162 1.73997 0
M  V30 759 O 88.8318 0.186714 2.00533 0
M  V30 760 C 85.8968 0.650828 3.40537 0
M  V30 761 C 84.9578 1.7851 3.90426 0
M  V30 762 C 84.1908 1.40729 5.14812 0
M  V30 763 O 84.4138 0.29557 5.69634 0
M  V30 764 O 83.3478 2.23168 5.58999 0
M  V30 765 H 87.1738 1.99304 2.29154 0
M  V30 766 H 84.7588 1.02908 1.08307 0
M  V30 767 H 86.6408 0.440992 4.19086 0
M  V30 768 H 85.3158 -0.265649 3.22608 0
M  V30 769 H 84.2228 2.04966 3.12953 0
M  V30 770 H 85.5558 2.68023 4.12825 0
M  V30 771 N 87.2079 -1.17134 1.05439 0
M  V30 772 C 88.4539 -1.87979 0.776872 0
M  V30 773 C 88.8089 -1.7965 -0.688751 0
M  V30 774 O 88.1019 -1.19535 -1.4974 0
M  V30 775 C 88.2959 -3.36833 1.19491 0
M  V30 776 C 88.1249 -3.59653 2.69963 0
M  V30 777 C 86.8949 -3.76234 3.37307 0
M  V30 778 C 89.0929 -3.59091 3.68182 0
M  V30 779 N 87.0749 -3.86922 4.76618 0
M  V30 780 C 88.4459 -3.75659 4.93235 0
M  V30 781 C 90.5009 -3.42255 3.61616 0
M  V30 782 C 89.2039 -3.77133 6.12506 0
M  V30 783 C 91.2299 -3.45018 4.8033 0
M  V30 784 C 90.5919 -3.62096 6.04207 0
M  V30 785 H 86.6909 -0.705876 0.336546 0
M  V30 786 H 89.2749 -1.40602 1.34682 0
M  V30 787 H 87.4459 -3.82873 0.652884 0
M  V30 788 H 89.1779 -3.95305 0.866966 0
M  V30 789 H 85.9329 -3.76193 2.87708 0
M  V30 790 H 86.3569 -3.96055 5.49062 0
M  V30 791 H 90.9989 -3.27986 2.66805 0
M  V30 792 H 88.7169 -3.90186 7.07659 0
M  V30 793 H 92.3029 -3.33246 4.76905 0
M  V30 794 H 91.1829 -3.64142 6.94529 0
M  V30 795 N 88.686 -0.835752 -1.33615 0
M  V30 796 C 89.619 -0.211815 -2.27215 0
M  V30 797 C 90.597 0.639249 -1.49507 0
M  V30 798 O 91.781 0.600193 -1.78689 0
M  V30 799 C 88.908 0.702893 -3.31326 0
M  V30 800 C 87.954 -0.0723049 -4.26439 0
M  V30 801 S 88.787 -1.42811 -5.16106 0
M  V30 802 C 89.943 -0.518613 -6.23748 0
M  V30 803 H 90.176 -1.00533 -2.79786 0
M  V30 804 H 87.709 -0.632336 -1.40858 0
M  V30 805 H 89.667 1.22505 -3.91794 0
M  V30 806 H 88.328 1.47004 -2.77576 0
M  V30 807 H 87.521 0.62359 -5.00127 0
M  V30 808 H 87.123 -0.525424 -3.70291 0
M  V30 809 H 89.415 0.284778 -6.76901 0
M  V30 810 H 90.358 -1.22556 -6.97413 0
M  V30 811 H 90.766 -0.101344 -5.64409 0
M  V30 812 N 90.1641 1.46063 -0.591896 0
M  V30 813 C 91.5751 1.85944 -0.167822 0
M  V30 814 C 91.9261 1.49429 1.27143 0
M  V30 815 O 91.0511 0.913515 1.96173 0
M  V30 816 C 91.6461 3.37489 -0.297794 0
M  V30 817 C 90.2051 3.76332 0.0714732 0
M  V30 818 C 89.3521 2.7006 -0.629509 0
M  V30 819 H 92.3031 1.37087 -0.799555 0
M  V30 820 H 92.3241 3.77532 0.474349 0
M  V30 821 H 91.8361 3.64034 -1.3454 0
M  V30 822 H 89.9371 3.55405 1.11886 0
M  V30 823 H 90.0501 4.78088 -0.311245 0
M  V30 824 H 88.4141 2.54607 -0.0687867 0
M  V30 825 H 89.1971 2.99444 -1.67894 0
M  V30 826 N 91.6422 0.330177 1.54103 0
M  V30 827 C 92.8882 -0.270806 2.00984 0
M  V30 828 C 93.2212 -1.51265 1.21789 0
M  V30 829 O 92.4962 -1.92142 0.301927 0
M  V30 830 C 92.7792 -0.598339 3.55094 0
M  V30 831 C 92.6322 0.654674 4.4501 0
M  V30 832 C 93.9512 -1.41334 4.16789 0
M  V30 833 H 91.0702 -0.0969531 0.730595 0
M  V30 834 H 93.7122 0.448066 1.84641 0
M  V30 835 H 91.8622 -1.21078 3.69151 0
M  V30 836 H 93.5342 1.29285 4.42813 0
M  V30 837 H 91.7772 1.28224 4.14416 0
M  V30 838 H 92.4482 0.380944 5.50684 0
M  V30 839 H 94.9242 -0.895597 4.06347 0
M  V30 840 H 93.8002 -1.61127 5.24718 0
M  V30 841 H 94.0612 -2.41146 3.70541 0
M  V30 842 N 93.1203 -1.57491 0.0584922 0
M  V30 843 C 94.3483 -1.97296 -0.623037 0
M  V30 844 C 94.7633 -0.936338 -1.63946 0
M  V30 845 O 94.1203 0.0785981 -1.82331 0
M  V30 846 C 94.1713 -3.37183 -1.30345 0
M  V30 847 O 93.8923 -4.36872 -0.32773 0
M  V30 848 C 95.3933 -3.91788 -2.07406 0
M  V30 849 H 92.6133 -0.649153 -0.169826 0
M  V30 850 H 95.1573 -2.04106 0.12696 0
M  V30 851 H 93.3123 -3.31502 -2.00463 0
M  V30 852 H 93.7263 -5.18141 -0.814269 0
M  V30 853 H 95.2003 -4.91926 -2.50425 0
M  V30 854 H 95.6773 -3.27609 -2.92521 0
M  V30 855 H 96.2833 -4.00829 -1.42184 0
M  V30 856 N 94.5984 0.214957 -1.56127 0
M  V30 857 C 95.5454 1.26642 -1.92952 0
M  V30 858 C 96.5154 1.46244 -0.78753 0
M  V30 859 O 97.7004 1.59704 -1.04399 0
M  V30 860 C 94.8404 2.6104 -2.25726 0
M  V30 861 C 93.9534 2.49183 -3.52891 0
M  V30 862 C 93.0884 3.76149 -3.7508 0
M  V30 863 C 92.1274 3.59041 -4.95738 0
M  V30 864 N 91.2644 4.77972 -5.14283 0
M  V30 865 H 96.1044 0.945384 -2.82607 0
M  V30 866 H 93.6414 0.455489 -1.3987 0
M  V30 867 H 95.5994 3.39313 -2.42739 0
M  V30 868 H 94.2294 2.91227 -1.39236 0
M  V30 869 H 93.2814 1.6231 -3.44034 0
M  V30 870 H 94.5934 2.32466 -4.41318 0
M  V30 871 H 93.7474 4.62865 -3.92226 0
M  V30 872 H 92.4864 3.95799 -2.84947 0
M  V30 873 H 91.4914 2.7071 -4.78535 0
M  V30 874 H 92.7164 3.40856 -5.87362 0
M  V30 875 H 90.6624 4.97923 -4.27093 0
M  V30 876 H 90.5794 4.64006 -5.96853 0
M  V30 877 H 91.8474 5.66096 -5.35869 0
M  V30 878 N 96.0765 1.50051 0.48192 0
M  V30 879 C 97.0065 1.71046 1.58951 0
M  V30 880 C 97.9875 0.559288 1.60642 0
M  V30 881 O 99.1725 0.797243 1.77081 0
M  V30 882 C 96.3025 1.79462 2.97339 0
M  V30 883 C 95.2565 2.94558 3.10515 0
M  V30 884 C 94.5825 2.88105 4.50444 0
M  V30 885 C 95.8825 4.35227 2.88747 0
M  V30 886 H 97.5765 2.6378 1.41635 0
M  V30 887 H 95.1225 1.26936 0.679942 0
M  V30 888 H 97.0755 1.92734 3.74742 0
M  V30 889 H 95.7995 0.833412 3.15788 0
M  V30 890 H 94.4585 2.80918 2.35543 0
M  V30 891 H 94.1065 1.89853 4.65795 0
M  V30 892 H 93.8065 3.65366 4.60197 0
M  V30 893 H 95.3305 3.03412 5.29881 0
M  V30 894 H 96.7445 4.49449 3.55905 0
M  V30 895 H 95.1415 5.13856 3.09955 0
M  V30 896 H 96.2115 4.48347 1.84696 0
M  V30 897 N 97.5546 -0.734337 1.39446 0
M  V30 898 C 98.8026 -1.49096 1.36436 0
M  V30 899 C 99.1236 -1.94961 -0.0388255 0
M  V30 900 O 98.3936 -1.69033 -0.990191 0
M  V30 901 H 96.9736 -0.5531 0.502085 0
M  V30 902 H 99.6356 -0.871725 1.74319 0
M  V30 903 H 98.7316 -2.37276 2.02747 0
M  V30 904 N 99.0327 -1.24633 -0.964593 0
M  V30 905 C 100.449 -1.01239 -1.2338 0
M  V30 906 C 100.649 0.2769 -1.99588 0
M  V30 907 O 99.7047 0.992241 -2.32187 0
M  V30 908 C 101.018 -2.22937 -2.01791 0
M  V30 909 C 102.566 -2.27594 -2.14872 0
M  V30 910 C 103.041 -3.48921 -2.96678 0
M  V30 911 N 104.532 -3.49257 -3.04259 0
M  V30 912 C 105.267 -4.39795 -3.67924 0
M  V30 913 N 104.763 -5.40591 -4.33281 0
M  V30 914 N 106.556 -4.275 -3.64966 0
M  V30 915 H 98.7067 -2.0748 -0.454502 0
M  V30 916 H 100.97 -0.910647 -0.26349 0
M  V30 917 H 100.676 -3.16587 -1.53184 0
M  V30 918 H 100.55 -2.25306 -3.02518 0
M  V30 919 H 102.937 -1.34473 -2.6268 0
M  V30 920 H 103.018 -2.2925 -1.13482 0
M  V30 921 H 102.662 -4.42359 -2.49562 0
M  V30 922 H 102.592 -3.4451 -3.98272 0
M  V30 923 H 105.083 -2.76337 -2.57771 0
M  V30 924 H 105.396 -6.05904 -4.79687 0
M  V30 925 H 103.741 -5.44475 -4.3194 0
M  V30 926 H 106.932 -3.47987 -3.13086 0
M  V30 927 H 107.105 -4.98258 -4.14298 0
M  V30 928 N 100.511 1.16574 -1.06058 0
M  V30 929 C 101.441 2.23057 -0.690488 0
M  V30 930 C 102.422 1.67141 0.315901 0
M  V30 931 O 103.607 1.93253 0.191556 0
M  V30 932 C 100.737 3.47222 -0.073625 0
M  V30 933 C 99.6908 4.16016 -1.00573 0
M  V30 934 C 99.0168 5.34104 -0.252289 0
M  V30 935 C 100.317 4.67264 -2.33371 0
M  V30 936 H 102.011 2.54271 -1.58072 0
M  V30 937 H 99.5568 1.22218 -0.76149 0
M  V30 938 H 101.51 4.20939 0.19714 0
M  V30 939 H 100.234 3.15302 0.85161 0
M  V30 940 H 98.8928 3.44223 -1.2612 0
M  V30 941 H 98.5408 4.98437 0.675988 0
M  V30 942 H 98.2408 5.81072 -0.873455 0
M  V30 943 H 99.7648 6.10599 0.0109857 0
M  V30 944 H 101.179 5.32573 -2.12223 0
M  V30 945 H 99.5758 5.24843 -2.90963 0
M  V30 946 H 100.646 3.83602 -2.96611 0
M  V30 947 N 101.989 0.842826 1.3317 0
M  V30 948 C 103.235 0.441099 1.97945 0
M  V30 949 C 103.568 -0.998024 1.66593 0
M  V30 950 O 102.843 -1.69839 0.947898 0
M  V30 951 C 103.126 0.666841 3.53872 0
M  V30 952 C 102.979 2.15352 3.94897 0
M  V30 953 C 104.298 0.115544 4.39948 0
M  V30 954 H 101.417 0.161739 0.719034 0
M  V30 955 H 104.059 1.05907 1.57746 0
M  V30 956 H 102.209 0.140828 3.88245 0
M  V30 957 H 103.881 2.7447 3.70761 0
M  V30 958 H 102.124 2.63653 3.44484 0
M  V30 959 H 102.795 2.26221 5.03516 0
M  V30 960 H 105.271 0.565213 4.12243 0
M  V30 961 H 104.147 0.303152 5.48062 0
M  V30 962 H 104.408 -0.980935 4.3108 0
M  V30 963 N 103.467 -1.45747 0.599634 0
M  V30 964 C 104.414 -2.30467 -0.123849 0
M  V30 965 C 105.384 -1.41632 -0.86774 0
M  V30 966 O 106.569 -1.70568 -0.855056 0
M  V30 967 C 103.709 -3.26402 -1.12051 0
M  V30 968 C 102.822 -4.3034 -0.37832 0
M  V30 969 C 101.957 -5.13389 -1.364 0
M  V30 970 C 100.996 -6.09061 -0.609171 0
M  V30 971 N 100.133 -6.84918 -1.54374 0
M  V30 972 H 104.973 -2.91802 0.604627 0
M  V30 973 H 102.51 -1.43797 0.309972 0
M  V30 974 H 104.468 -3.80482 -1.7114 0
M  V30 975 H 103.098 -2.66839 -1.8165 0
M  V30 976 H 102.15 -3.78984 0.327929 0
M  V30 977 H 103.462 -4.98354 0.210997 0
M  V30 978 H 102.616 -5.7183 -2.02719 0
M  V30 979 H 101.355 -4.45376 -1.98725 0
M  V30 980 H 100.36 -5.49758 0.0676979 0
M  V30 981 H 101.585 -6.79099 0.00891991 0
M  V30 982 H 99.531 -6.19601 -2.15478 0
M  V30 983 H 99.448 -7.49254 -1.00766 0
M  V30 984 H 100.716 -7.47906 -2.19676 0
M  V30 985 N 104.945 -0.338344 -1.53925 0
M  V30 986 C 106.222 0.314774 -1.93051 0
M  V30 987 C 106.602 1.68669 -1.26941 0
M  V30 988 O 105.95 2.24636 -0.418445 0
M  V30 989 C 106.16 0.392249 -3.46789 0
M  V30 990 C 107.508 0.645554 -4.19664 0
M  V30 991 O 108.532 0.474575 -3.53024 0
M  V30 992 O 107.391 0.976408 -5.37707 0
M  V30 993 H 104.485 0.182598 -0.80659 0
M  V30 994 H 107.031 -0.389141 -1.65178 0
M  V30 995 H 105.803 -0.570702 -3.87116 0
M  V30 996 H 105.426 1.14316 -3.80812 0
M  V30 997 N 106.423 1.57458 -0.0668435 0
M  V30 998 C 107.356 2.08033 0.93795 0
M  V30 999 C 108.334 0.984321 1.29421 0
M  V30 1000 O 109.518 1.25736 1.40437 0
M  V30 1001 C 106.645 2.53388 2.24749 0
M  V30 1002 C 105.691 3.74376 2.04315 0
M  V30 1003 S 106.524 5.19303 1.30706 0
M  V30 1004 C 107.68 5.67986 2.62951 0
M  V30 1005 H 107.913 2.92935 0.50759 0
M  V30 1006 H 105.446 1.5371 0.145804 0
M  V30 1007 H 107.404 2.8018 3.00016 0
M  V30 1008 H 106.065 1.68763 2.64911 0
M  V30 1009 H 105.258 4.04083 3.01218 0
M  V30 1010 H 104.86 3.47931 1.37186 0
M  V30 1011 H 107.152 5.74528 3.5906 0
M  V30 1012 H 108.095 6.66955 2.3786 0
M  V30 1013 H 108.503 4.95781 2.69929 0
M  V30 1014 N 107.901 -0.206675 1.56239 0
M  V30 1015 C 108.848 -1.25617 1.93621 0
M  V30 1016 C 109.818 -1.45824 0.795274 0
M  V30 1017 O 111.003 -1.59148 1.05245 0
M  V30 1018 C 108.143 -2.59839 2.27107 0
M  V30 1019 C 107.256 -2.47308 3.54207 0
M  V30 1020 C 106.391 -3.74155 3.7707 0
M  V30 1021 C 105.43 -3.56407 4.97635 0
M  V30 1022 N 104.567 -4.75238 5.1681 0
M  V30 1023 H 109.407 -0.930383 2.83104 0
M  V30 1024 H 106.944 -0.448065 1.4011 0
M  V30 1025 H 108.902 -3.38021 2.44535 0
M  V30 1026 H 107.532 -2.90485 1.40778 0
M  V30 1027 H 106.584 -1.60483 3.4489 0
M  V30 1028 H 107.896 -2.30122 4.42544 0
M  V30 1029 H 107.05 -4.60778 3.94675 0
M  V30 1030 H 105.789 -3.94282 2.87042 0
M  V30 1031 H 104.794 -2.68168 4.79964 0
M  V30 1032 H 106.019 -3.37736 5.89161 0
M  V30 1033 H 103.965 -4.95651 4.29728 0
M  V30 1034 H 103.882 -4.60835 5.99306 0
M  V30 1035 H 105.15 -5.63246 5.38864 0
M  V30 1036 N 109.379 -1.50304 -0.473955 0
M  V30 1037 C 110.628 -1.60392 -1.22301 0
M  V30 1038 C 110.941 -0.308411 -1.93153 0
M  V30 1039 O 112.147 -0.288156 -2.69966 0
M  V30 1040 C 110.603 -2.83109 -2.2221 0
M  V30 1041 C 110.211 -4.19524 -1.57173 0
M  V30 1042 C 111.955 -3.0254 -2.97775 0
M  V30 1043 C 109.862 -5.33431 -2.55353 0
M  V30 1044 H 108.792 -0.597286 -0.460179 0
M  V30 1045 H 111.443 -1.76731 -0.493803 0
M  V30 1046 H 109.825 -2.60322 -2.9841 0
M  V30 1047 H 110.999 -4.52554 -0.867824 0
M  V30 1048 H 109.314 -4.05674 -0.939002 0
M  V30 1049 H 111.911 -3.84811 -3.71248 0
M  V30 1050 H 112.254 -2.14154 -3.56992 0
M  V30 1051 H 112.787 -3.25494 -2.28688 0
M  V30 1052 H 109.526 -6.23962 -2.00878 0
M  V30 1053 H 109.046 -5.04823 -3.23904 0
M  V30 1054 H 110.725 -5.63887 -3.17239 0
M  V30 1055 N 110.857 0.726932 -1.39834 0
M  V30 1056 C 111.804 1.841 -1.39197 0
M  V30 1057 C 112.774 1.642 -0.250502 0
M  V30 1058 O 113.959 1.85494 -0.446846 0
M  V30 1059 C 111.099 3.21697 -1.24919 0
M  V30 1060 C 110.212 3.53247 -2.48678 0
M  V30 1061 C 109.347 4.80289 -2.26928 0
M  V30 1062 C 108.386 5.04707 -3.4632 0
M  V30 1063 N 107.523 6.22956 -3.23836 0
M  V30 1064 H 112.363 1.83979 -2.34427 0
M  V30 1065 H 109.9 0.898876 -1.16442 0
M  V30 1066 H 111.858 4.01137 -1.1465 0
M  V30 1067 H 110.488 3.21076 -0.333153 0
M  V30 1068 H 109.54 2.68447 -2.69519 0
M  V30 1069 H 110.852 3.67205 -3.37582 0
M  V30 1070 H 110.006 5.67725 -2.13947 0
M  V30 1071 H 108.745 4.68519 -1.35431 0
M  V30 1072 H 107.75 4.1573 -3.5979 0
M  V30 1073 H 108.975 5.18357 -4.38729 0
M  V30 1074 H 106.921 6.12459 -2.35011 0
M  V30 1075 H 106.838 6.37539 -4.063 0
M  V30 1076 H 108.106 7.1321 -3.14566 0
M  V30 1077 N 112.336 1.25143 0.95797 0
M  V30 1078 C 113.561 1.12521 1.74223 0
M  V30 1079 C 113.986 -0.317402 1.85403 0
M  V30 1080 O 113.344 -1.2299 1.33204 0
M  V30 1081 C 113.392 1.78062 3.1357 0
M  V30 1082 O 112.496 1.058 3.98598 0
M  V30 1083 H 111.837 0.39304 0.535178 0
M  V30 1084 H 114.367 1.65641 1.201 0
M  V30 1085 H 114.377 1.84213 3.64046 0
M  V30 1086 H 113.052 2.83021 3.04749 0
M  V30 1087 H 111.629 1.07506 3.57067 0
M  V30 1088 N 113.814 -1.1601 1.06675 0
M  V30 1089 C 114.744 -2.22688 0.702307 0
M  V30 1090 C 115.725 -1.67306 -0.307032 0
M  V30 1091 O 116.91 -1.93352 -0.181305 0
M  V30 1092 C 114.04 -3.47178 0.092038 0
M  V30 1093 C 112.994 -4.15477 1.02777 0
M  V30 1094 C 112.32 -5.33963 0.28061 0
M  V30 1095 C 113.62 -4.66019 2.35846 0
M  V30 1096 H 115.314 -2.53429 1.59419 0
M  V30 1097 H 112.86 -1.21813 0.767961 0
M  V30 1098 H 114.813 -4.21037 -0.174814 0
M  V30 1099 H 113.537 -3.15749 -0.834877 0
M  V30 1100 H 112.196 -3.43549 1.27944 0
M  V30 1101 H 111.844 -4.98788 -0.649545 0
M  V30 1102 H 111.544 -5.806 0.904258 0
M  V30 1103 H 113.068 -6.10596 0.021396 0
M  V30 1104 H 114.482 -5.3144 2.15045 0
M  V30 1105 H 112.879 -5.23293 2.93743 0
M  V30 1106 H 113.949 -3.82023 2.98641 0
M  V30 1107 N 115.292 -0.849877 -1.32721 0
M  V30 1108 C 116.202 -0.293791 -2.32753 0
M  V30 1109 C 117.218 0.585906 -1.63839 0
M  V30 1110 O 118.394 0.487413 -1.95413 0
M  V30 1111 C 115.459 0.512752 -3.42887 0
M  V30 1112 C 114.52 -0.39252 -4.27502 0
M  V30 1113 C 113.753 0.375625 -5.32377 0
M  V30 1114 O 113.976 1.60613 -5.4732 0
M  V30 1115 O 112.91 -0.256094 -6.01355 0
M  V30 1116 H 116.736 -1.12242 -2.82197 0
M  V30 1117 H 114.321 -0.612685 -1.36259 0
M  V30 1118 H 116.203 0.970704 -4.10067 0
M  V30 1119 H 114.878 1.31826 -2.95641 0
M  V30 1120 H 113.785 -0.898547 -3.63149 0
M  V30 1121 H 115.118 -1.16309 -4.7826 0
M  V30 1122 N 116.77 1.45427 -0.607355 0
M  V30 1123 C 117.68 2.34325 0.113463 0
M  V30 1124 C 118.696 1.51226 0.860617 0
M  V30 1125 O 119.872 1.84029 0.818255 0
M  V30 1126 C 116.937 3.28839 1.09844 0
M  V30 1127 C 115.998 4.27844 0.353271 0
M  V30 1128 C 115.231 5.17842 1.29133 0
M  V30 1129 O 115.454 5.11264 2.52913 0
M  V30 1130 O 114.388 5.96713 0.788523 0
M  V30 1131 H 118.214 2.97364 -0.617094 0
M  V30 1132 H 115.799 1.44807 -0.367619 0
M  V30 1133 H 117.681 3.8708 1.66575 0
M  V30 1134 H 116.356 2.68365 1.81003 0
M  V30 1135 H 115.263 3.7322 -0.256494 0
M  V30 1136 H 116.596 4.91173 -0.317822 0
M  V30 1137 N 118.248 0.346503 1.53744 0
M  V30 1138 C 119.497 -0.250122 2.00143 0
M  V30 1139 C 119.81 -1.51418 1.23822 0
M  V30 1140 O 121.016 -2.18823 1.60713 0
M  V30 1141 C 119.472 -0.496252 3.56462 0
M  V30 1142 C 119.08 0.752077 4.41642 0
M  V30 1143 C 120.824 -1.05157 4.11269 0
M  V30 1144 C 118.731 0.476583 5.89477 0
M  V30 1145 H 117.661 -0.0972409 0.747703 0
M  V30 1146 H 120.312 0.46229 1.77581 0
M  V30 1147 H 118.694 -1.26944 3.75102 0
M  V30 1148 H 119.868 1.5266 4.34778 0
M  V30 1149 H 118.183 1.22925 3.97842 0
M  V30 1150 H 120.78 -1.27269 5.19333 0
M  V30 1151 H 121.123 -2.00799 3.64672 0
M  V30 1152 H 121.656 -0.339019 3.96353 0
M  V30 1153 H 118.395 1.4028 6.40314 0
M  V30 1154 H 117.915 -0.259794 5.99237 0
M  V30 1155 H 119.594 0.0949315 6.4693 0
M  V30 1156 N 119.726 -1.57421 0.075193 0
M  V30 1157 C 120.956 -1.97659 -0.601203 0
M  V30 1158 C 121.364 -0.952427 -1.63479 0
M  V30 1159 O 120.707 0.0688241 -1.83571 0
M  V30 1160 C 120.769 -3.34218 -1.32434 0
M  V30 1161 C 120.433 -4.5484 -0.443826 0
M  V30 1162 C 121.43 -5.19034 0.299969 0
M  V30 1163 C 119.115 -5.00952 -0.367709 0
M  V30 1164 C 121.109 -6.27695 1.10807 0
M  V30 1165 C 118.796 -6.09484 0.444058 0
M  V30 1166 C 119.794 -6.72719 1.18061 0
M  V30 1167 O 119.482 -7.79161 1.97898 0
M  V30 1168 H 119.214 -0.65494 -0.167422 0
M  V30 1169 H 121.768 -2.04886 0.145157 0
M  V30 1170 H 119.998 -3.23615 -2.11685 0
M  V30 1171 H 121.687 -3.59038 -1.89331 0
M  V30 1172 H 122.453 -4.84351 0.250776 0
M  V30 1173 H 118.332 -4.51509 -0.930638 0
M  V30 1174 H 121.876 -6.76982 1.68347 0
M  V30 1175 H 117.773 -6.43601 0.494803 0
M  V30 1176 H 118.541 -7.96055 1.90367 0
M  V30 1177 N 121.204 0.198386 -1.56346 0
M  V30 1178 C 122.134 1.24865 -1.9731 0
M  V30 1179 C 123.115 1.47651 -0.844576 0
M  V30 1180 O 124.3 1.59444 -1.10866 0
M  V30 1181 C 121.43 2.59358 -2.30977 0
M  V30 1182 C 120.384 2.5119 -3.46537 0
M  V30 1183 C 119.71 3.89926 -3.65871 0
M  V30 1184 C 121.01 2.03977 -4.80823 0
M  V30 1185 H 122.704 0.908252 -2.85291 0
M  V30 1186 H 120.25 0.435462 -1.37258 0
M  V30 1187 H 122.203 3.33011 -2.58228 0
M  V30 1188 H 120.927 2.95132 -1.39874 0
M  V30 1189 H 119.586 1.79993 -3.19371 0
M  V30 1190 H 119.234 4.23046 -2.72105 0
M  V30 1191 H 118.934 3.85336 -4.4361 0
M  V30 1192 H 120.458 4.65205 -3.95495 0
M  V30 1193 H 121.872 2.67386 -5.07127 0
M  V30 1194 H 120.269 2.10397 -5.62008 0
M  V30 1195 H 121.339 0.992861 -4.74626 0
M  V30 1196 N 122.682 1.50554 0.465978 0
M  V30 1197 C 123.929 1.61798 1.21768 0
M  V30 1198 C 124.257 0.320696 1.91838 0
M  V30 1199 O 123.512 -0.693724 1.82992 0
M  V30 1200 C 123.811 2.75152 2.28093 0
M  V30 1201 C 123.477 4.15454 1.75239 0
M  V30 1202 C 122.139 4.53628 1.60546 0
M  V30 1203 C 124.491 5.03121 1.36083 0
M  V30 1204 C 121.819 5.77204 1.05128 0
M  V30 1205 C 124.171 6.27249 0.821056 0
M  V30 1206 C 122.835 6.64221 0.660795 0
M  V30 1207 H 122.105 0.592063 0.445582 0
M  V30 1208 H 124.752 1.84503 0.512927 0
M  V30 1209 H 123.057 2.46556 3.04496 0
M  V30 1210 H 124.754 2.81055 2.86023 0
M  V30 1211 H 121.344 3.85341 1.87644 0
M  V30 1212 H 125.528 4.74257 1.46267 0
M  V30 1213 H 120.784 6.0452 0.91462 0
M  V30 1214 H 124.958 6.94537 0.509018 0
M  V30 1215 H 122.585 7.59854 0.229226 0
M  V30 1216 N 124.16 -0.719506 1.40217 0
M  V30 1217 C 125.385 -1.51371 1.4178 0
M  V30 1218 C 125.81 -1.88091 0.0182355 0
M  V30 1219 O 125.168 -1.52997 -0.972707 0
M  V30 1220 C 125.216 -2.768 2.31115 0
M  V30 1221 O 124.32 -3.73349 1.7517 0
M  V30 1222 H 123.661 -0.456529 0.482159 0
M  V30 1223 H 126.191 -0.88644 1.844 0
M  V30 1224 H 126.201 -3.25371 2.46167 0
M  V30 1225 H 124.876 -2.49407 3.3282 0
M  V30 1226 H 123.453 -3.32179 1.69444 0
M  V30 1227 N 125.638 -1.25649 -0.95132 0
M  V30 1228 C 126.568 -1.08808 -2.06599 0
M  V30 1229 C 127.549 0.00382547 -1.701 0
M  V30 1230 O 128.734 -0.166325 -1.93486 0
M  V30 1231 C 125.864 -0.709542 -3.39975 0
M  V30 1232 C 124.818 -1.75206 -3.90496 0
M  V30 1233 C 124.144 -1.22811 -5.20405 0
M  V30 1234 C 125.444 -3.15153 -4.16504 0
M  V30 1235 H 127.138 -2.02048 -2.20946 0
M  V30 1236 H 124.684 -0.972835 -1.06169 0
M  V30 1237 H 126.637 -0.578649 -4.17408 0
M  V30 1238 H 125.361 0.258556 -3.25575 0
M  V30 1239 H 124.02 -1.87145 -3.15234 0
M  V30 1240 H 123.668 -0.250145 -5.02378 0
M  V30 1241 H 123.368 -1.92492 -5.55176 0
M  V30 1242 H 124.892 -1.10968 -6.00432 0
M  V30 1243 H 126.306 -3.06349 -4.84586 0
M  V30 1244 H 124.703 -3.82333 -4.62538 0
M  V30 1245 H 125.773 -3.61966 -3.22658 0
M  V30 1246 N 127.117 1.15442 -1.07289 0
M  V30 1247 C 128.528 1.67803 -0.818475 0
M  V30 1248 C 128.879 1.8489 0.656507 0
M  V30 1249 O 128.004 1.55176 1.50829 0
M  V30 1250 C 128.599 3.04805 -1.47917 0
M  V30 1251 C 127.158 3.54245 -1.27229 0
M  V30 1252 C 126.305 2.29986 -1.54925 0
M  V30 1253 H 129.256 0.996646 -1.23502 0
M  V30 1254 H 129.277 3.69702 -0.90005 0
M  V30 1255 H 128.789 2.92336 -2.55267 0
M  V30 1256 H 126.89 3.71956 -0.21899 0
M  V30 1257 H 127.003 4.35723 -1.99203 0
M  V30 1258 H 125.367 2.35496 -0.970242 0
M  V30 1259 H 126.15 2.20105 -2.63455 0
M  V30 1260 N 128.595 0.856903 1.32268 0
M  V30 1261 C 129.844 0.457599 1.96441 0
M  V30 1262 C 130.157 -0.992426 1.68553 0
M  V30 1263 O 131.363 -1.49727 2.26482 0
M  V30 1264 C 129.819 0.767358 3.51624 0
M  V30 1265 C 129.427 2.23326 3.88367 0
M  V30 1266 C 131.171 0.435887 4.22256 0
M  V30 1267 C 129.078 2.48613 5.36606 0
M  V30 1268 H 128.008 0.167387 0.735185 0
M  V30 1269 H 130.659 1.048 1.5063 0
M  V30 1270 H 129.041 0.106367 3.95857 0
M  V30 1271 H 130.215 2.93623 3.55137 0
M  V30 1272 H 128.53 2.52948 3.30766 0
M  V30 1273 H 131.127 0.602202 5.31298 0
M  V30 1274 H 131.47 -0.622672 4.11617 0
M  V30 1275 H 132.003 1.05286 3.83614 0
M  V30 1276 H 128.742 3.53101 5.52268 0
M  V30 1277 H 128.262 1.82896 5.71235 0
M  V30 1278 H 129.941 2.32676 6.03714 0
M  V30 1279 N 130.073 -1.45103 0.615059 0
M  V30 1280 C 131.02 -2.30586 -0.0993978 0
M  V30 1281 C 131.99 -1.42544 -0.852669 0
M  V30 1282 O 133.175 -1.71465 -0.836917 0
M  V30 1283 C 130.315 -3.27572 -1.08583 0
M  V30 1284 C 129.428 -4.30717 -0.332656 0
M  V30 1285 C 128.563 -5.14807 -1.30947 0
M  V30 1286 C 127.602 -6.09673 -0.544538 0
M  V30 1287 N 126.739 -6.86517 -1.47101 0
M  V30 1288 H 131.579 -2.91144 0.635542 0
M  V30 1289 H 129.116 -1.4346 0.325206 0
M  V30 1290 H 131.074 -3.82276 -1.67095 0
M  V30 1291 H 129.704 -2.68751 -1.78809 0
M  V30 1292 H 128.756 -3.78615 0.368107 0
M  V30 1293 H 130.068 -4.98102 0.263842 0
M  V30 1294 H 129.222 -5.73948 -1.96643 0
M  V30 1295 H 127.961 -4.47458 -1.9399 0
M  V30 1296 H 126.966 -5.49656 0.126003 0
M  V30 1297 H 128.191 -6.79052 0.080947 0
M  V30 1298 H 126.137 -6.21851 -2.08895 0
M  V30 1299 H 126.054 -7.50281 -0.928137 0
M  V30 1300 H 127.322 -7.50194 -2.11731 0
M  V30 1301 N 131.551 -0.354651 -1.53558 0
M  V30 1302 C 132.461 0.50515 -2.29097 0
M  V30 1303 C 133.477 1.10223 -1.34636 0
M  V30 1304 O 134.653 1.11553 -1.67684 0
M  V30 1305 C 131.718 1.63479 -3.05738 0
M  V30 1306 C 130.779 1.06636 -4.15845 0
M  V30 1307 C 130.012 2.14217 -4.88822 0
M  V30 1308 O 130.235 3.35137 -4.61562 0
M  V30 1309 O 129.169 1.77887 -5.75013 0
M  V30 1310 H 132.995 -0.109237 -3.03503 0
M  V30 1311 H 130.58 -0.119357 -1.48922 0
M  V30 1312 H 132.462 2.2918 -3.5363 0
M  V30 1313 H 131.137 2.23478 -2.34178 0
M  V30 1314 H 130.044 0.373565 -3.7223 0
M  V30 1315 H 131.377 0.511081 -4.89539 0
M  V30 1316 N 133.029 1.57378 -0.0835403 0
M  V30 1317 C 134.254 1.98682 0.594987 0
M  V30 1318 C 134.679 0.961969 1.61641 0
M  V30 1319 O 134.037 -0.0709989 1.81161 0
M  V30 1320 C 134.085 3.38988 1.2296 0
M  V30 1321 O 133.189 3.39208 2.34546 0
M  V30 1322 H 132.53 0.646368 0.152002 0
M  V30 1323 H 135.06 2.03961 -0.161533 0
M  V30 1324 H 135.07 3.76431 1.57366 0
M  V30 1325 H 133.745 4.13107 0.481228 0
M  V30 1326 H 132.322 3.13548 2.01846 0
M  V30 1327 N 134.507 -0.190092 1.56449 0
M  V30 1328 C 135.417 -1.25591 1.98152 0
M  V30 1329 C 136.433 -1.49519 0.889944 0
M  V30 1330 O 137.609 -1.62036 1.19609 0
M  V30 1331 C 134.674 -2.57916 2.3169 0
M  V30 1332 C 133.735 -2.42015 3.5458 0
M  V30 1333 C 132.968 -3.6803 3.8651 0
M  V30 1334 O 133.191 -4.72413 3.1966 0
M  V30 1335 O 132.125 -3.6326 4.79923 0
M  V30 1336 H 135.951 -0.931988 2.89046 0
M  V30 1337 H 133.536 -0.395488 1.4407 0
M  V30 1338 H 135.418 -3.36008 2.54316 0
M  V30 1339 H 134.093 -2.89925 1.43963 0
M  V30 1340 H 133 -1.62017 3.37196 0
M  V30 1341 H 134.333 -2.14937 4.4279 0
M  V30 1342 N 135.985 -1.50799 -0.457987 0
M  V30 1343 C 137.234 -1.6168 -1.20593 0
M  V30 1344 C 137.547 -0.32888 -1.92815 0
M  V30 1345 O 138.753 -0.316773 -2.69646 0
M  V30 1346 C 137.209 -2.8545 -2.19195 0
M  V30 1347 C 136.817 -4.21168 -1.52715 0
M  V30 1348 C 138.561 -3.05681 -2.94549 0
M  V30 1349 C 136.468 -5.3611 -2.4968 0
M  V30 1350 H 135.398 -0.602134 -0.453818 0
M  V30 1351 H 138.049 -1.77245 -0.475031 0
M  V30 1352 H 136.431 -2.63472 -2.95632 0
M  V30 1353 H 137.605 -4.53449 -0.819775 0
M  V30 1354 H 135.92 -4.06648 -0.895922 0
M  V30 1355 H 138.517 -3.88727 -3.67145 0
M  V30 1356 H 138.86 -2.17929 -3.54701 0
M  V30 1357 H 139.393 -3.27901 -2.25223 0
M  V30 1358 H 136.132 -6.26057 -1.94249 0
M  V30 1359 H 135.652 -5.0823 -3.18532 0
M  V30 1360 H 137.331 -5.6722 -3.11241 0
M  V30 1361 N 137.463 0.71206 -1.40597 0
M  V30 1362 C 138.712 1.46754 -1.38369 0
M  V30 1363 C 139.025 1.95598 0.0097839 0
M  V30 1364 O 140.231 2.71059 0.154677 0
M  V30 1365 C 138.687 2.65289 -2.43207 0
M  V30 1366 C 138.295 2.23301 -3.88382 0
M  V30 1367 C 140.039 3.43008 -2.50091 0
M  V30 1368 C 137.946 3.38696 -4.84808 0
M  V30 1369 H 136.876 0.55118 -0.514506 0
M  V30 1370 H 139.527 0.774616 -1.66349 0
M  V30 1371 H 137.909 3.36769 -2.08332 0
M  V30 1372 H 139.083 1.59218 -4.32419 0
M  V30 1373 H 137.398 1.58618 -3.85006 0
M  V30 1374 H 139.995 4.28881 -3.1932 0
M  V30 1375 H 140.338 3.87065 -1.53253 0
M  V30 1376 H 140.871 2.78574 -2.83974 0
M  V30 1377 H 137.61 2.99668 -5.82992 0
M  V30 1378 H 137.13 4.01683 -4.45433 0
M  V30 1379 H 138.809 4.04712 -5.04794 0
M  V30 1380 N 138.941 1.26152 0.944643 0
M  V30 1381 C 140.218 1.02247 1.66748 0
M  V30 1382 C 140.598 -0.448202 2.06287 0
M  V30 1383 O 139.946 -1.42779 1.78399 0
M  V30 1384 C 140.156 1.96788 2.88228 0
M  V30 1385 C 141.504 2.25201 3.59958 0
M  V30 1386 O 142.528 1.94626 2.98327 0
M  V30 1387 O 141.387 2.77242 4.70956 0
M  V30 1388 H 138.481 0.388517 0.730057 0
M  V30 1389 H 141.027 1.37348 0.99668 0
M  V30 1390 H 139.799 2.96047 2.55875 0
M  V30 1391 H 139.422 1.62145 3.63035 0
M  V30 1392 N 140.419 -1.14872 1.07899 0
M  V30 1393 C 141.666 -1.85789 0.805532 0
M  V30 1394 C 141.994 -1.82649 -0.668561 0
M  V30 1395 O 141.249 -1.24858 -1.50695 0
M  V30 1396 C 141.548 -3.34223 1.26609 0
M  V30 1397 C 141.214 -3.57555 2.74709 0
M  V30 1398 C 139.876 -3.63631 3.1516 0
M  V30 1399 C 142.228 -3.66803 3.70277 0
M  V30 1400 C 139.556 -3.76473 4.49983 0
M  V30 1401 C 141.908 -3.8117 5.04869 0
M  V30 1402 C 140.572 -3.85494 5.44932 0
M  V30 1403 H 139.842 -0.679849 0.294765 0
M  V30 1404 H 142.489 -1.3572 1.35101 0
M  V30 1405 H 140.794 -3.86536 0.640103 0
M  V30 1406 H 142.491 -3.87511 1.03132 0
M  V30 1407 H 139.081 -3.5347 2.42398 0
M  V30 1408 H 143.265 -3.61404 3.40149 0
M  V30 1409 H 138.521 -3.7808 4.80484 0
M  V30 1410 H 142.695 -3.87268 5.78789 0
M  V30 1411 H 140.322 -3.95197 6.49403 0
M  V30 1412 N 141.898 -0.863906 -1.31812 0
M  V30 1413 C 143.145 -0.471836 -1.96926 0
M  V30 1414 C 143.473 0.974578 -1.68322 0
M  V30 1415 O 142.728 1.7003 -0.968933 0
M  V30 1416 C 143.027 -0.668547 -3.51091 0
M  V30 1417 C 142.693 -2.08683 -3.99703 0
M  V30 1418 C 141.355 -2.47471 -4.12688 0
M  V30 1419 C 143.707 -3.01207 -4.25351 0
M  V30 1420 C 141.035 -3.78037 -4.4867 0
M  V30 1421 C 143.387 -4.31282 -4.62794 0
M  V30 1422 C 142.051 -4.69992 -4.73987 0
M  V30 1423 H 141.321 -0.172657 -0.720604 0
M  V30 1424 H 143.968 -1.09573 -1.57054 0
M  V30 1425 H 142.273 0.0385252 -3.91781 0
M  V30 1426 H 143.97 -0.345102 -3.99512 0
M  V30 1427 H 140.56 -1.77566 -3.90087 0
M  V30 1428 H 144.744 -2.72469 -4.14819 0
M  V30 1429 H 140 -4.078 -4.55532 0
M  V30 1430 H 144.174 -5.03031 -4.81594 0
M  V30 1431 H 141.801 -5.71207 -5.01624 0
M  V30 1432 N 143.376 1.44774 -0.622745 0
M  V30 1433 C 144.306 2.33382 0.0741861 0
M  V30 1434 C 145.287 1.47719 0.843387 0
M  V30 1435 O 146.472 1.76458 0.810934 0
M  V30 1436 C 143.602 3.30663 1.06204 0
M  V30 1437 C 142.556 4.26079 0.405037 0
M  V30 1438 C 141.882 5.13165 1.5022 0
M  V30 1439 C 143.182 5.1781 -0.683414 0
M  V30 1440 H 144.876 2.91905 -0.665713 0
M  V30 1441 H 142.422 1.40363 -0.321587 0
M  V30 1442 H 144.375 3.9153 1.55827 0
M  V30 1443 H 143.099 2.70331 1.83272 0
M  V30 1444 H 141.758 3.66532 -0.0704683 0
M  V30 1445 H 141.406 4.49191 2.26355 0
M  V30 1446 H 141.106 5.77812 1.06803 0
M  V30 1447 H 142.63 5.76902 2.00041 0
M  V30 1448 H 144.044 5.72661 -0.270631 0
M  V30 1449 H 142.441 5.91015 -1.04023 0
M  V30 1450 H 143.511 4.59326 -1.55395 0
M  V30 1451 N 144.854 0.36279 1.53368 0
M  V30 1452 C 146.102 -0.227326 2.00817 0
M  V30 1453 C 146.423 -1.49511 1.25186 0
M  V30 1454 O 145.693 -1.92482 0.364348 0
M  V30 1455 H 144.273 -0.0869923 0.741917 0
M  V30 1456 H 146.935 0.488381 1.88682 0
M  V30 1457 H 146.031 -0.456273 3.08747 0
M  V30 1458 N 146.332 -1.57332 0.0918853 0
M  V30 1459 C 147.295 -2.12708 -0.85369 0
M  V30 1460 C 148.295 -1.05561 -1.213 0
M  V30 1461 O 149.485 -1.31461 -1.14296 0
M  V30 1462 C 146.617 -2.64503 -2.15061 0
M  V30 1463 H 147.81 -2.97573 -0.3729 0
M  V30 1464 H 145.363 -1.55509 -0.157072 0
M  V30 1465 H 146.098 -1.83149 -2.67632 0
M  V30 1466 H 145.883 -3.4284 -1.90272 0
M  V30 1467 H 147.373 -3.07351 -2.82711 0
M  V30 1468 N 147.81 0.181792 -1.56548 0
M  V30 1469 C 149.035 0.920019 -1.85877 0
M  V30 1470 C 149.46 1.75494 -0.677021 0
M  V30 1471 O 148.818 1.77399 0.374056 0
M  V30 1472 C 148.866 1.78112 -3.13542 0
M  V30 1473 O 147.97 2.88152 -2.95029 0
M  V30 1474 H 147.311 0.258334 -0.611686 0
M  V30 1475 H 149.841 0.183092 -2.03779 0
M  V30 1476 H 149.851 2.18314 -3.44678 0
M  V30 1477 H 148.526 1.16777 -3.99169 0
M  V30 1478 H 147.103 2.51609 -2.75222 0
M  V30 1479 N 149.288 1.51039 0.449983 0
M  V30 1480 C 150.218 1.74379 1.55288 0
M  V30 1481 C 151.199 0.593236 1.5942 0
M  V30 1482 O 152.384 0.834625 1.7535 0
M  V30 1483 C 149.514 1.85728 2.93466 0
M  V30 1484 C 148.468 3.01078 3.04197 0
M  V30 1485 C 147.794 2.97595 4.44231 0
M  V30 1486 C 149.094 4.41254 2.7945 0
M  V30 1487 H 150.788 2.66725 1.36008 0
M  V30 1488 H 148.334 1.2835 0.652864 0
M  V30 1489 H 150.287 2.0064 3.70569 0
M  V30 1490 H 149.011 0.900207 3.13949 0
M  V30 1491 H 147.67 2.85851 2.29531 0
M  V30 1492 H 147.318 1.99691 4.61663 0
M  V30 1493 H 147.018 3.75046 4.52343 0
M  V30 1494 H 148.542 3.14583 5.23326 0
M  V30 1495 H 149.956 4.56897 3.46292 0
M  V30 1496 H 148.353 5.20315 2.98985 0
M  V30 1497 H 149.423 4.52164 1.75144 0
M  V30 1498 N 150.766 -0.704594 1.40972 0
M  V30 1499 C 151.713 -1.81862 1.42109 0
M  V30 1500 C 152.683 -1.63781 0.276593 0
M  V30 1501 O 153.868 -1.84759 0.4763 0
M  V30 1502 C 151.008 -3.19669 1.30022 0
M  V30 1503 C 150.121 -3.49246 2.54267 0
M  V30 1504 C 149.256 -4.76618 2.3454 0
M  V30 1505 C 148.295 -4.99133 3.54306 0
M  V30 1506 N 147.432 -6.17726 3.33706 0
M  V30 1507 H 152.272 -1.80226 2.37324 0
M  V30 1508 H 149.809 -0.880238 1.17857 0
M  V30 1509 H 151.767 -3.99263 1.21018 0
M  V30 1510 H 150.397 -3.20506 0.384192 0
M  V30 1511 H 149.449 -2.64125 2.73756 0
M  V30 1512 H 150.761 -3.61788 3.43381 0
M  V30 1513 H 149.915 -5.64249 2.22952 0
M  V30 1514 H 148.654 -4.66305 1.42867 0
M  V30 1515 H 147.659 -4.09953 3.66359 0
M  V30 1516 H 148.884 -5.11311 4.4692 0
M  V30 1517 H 146.83 -6.08642 2.44725 0
M  V30 1518 H 146.747 -6.30995 4.16391 0
M  V30 1519 H 148.015 -7.08115 3.25873 0
M  V30 1520 N 152.244 -1.26651 -0.937939 0
M  V30 1521 C 153.521 -1.0313 -1.66204 0
M  V30 1522 C 153.901 0.437256 -2.06522 0
M  V30 1523 O 153.249 1.41831 -1.79154 0
M  V30 1524 C 153.459 -1.98314 -2.87181 0
M  V30 1525 C 154.807 -2.27107 -3.58758 0
M  V30 1526 O 155.831 -1.96205 -2.97291 0
M  V30 1527 O 154.69 -2.79736 -4.69479 0
M  V30 1528 H 151.784 -0.392384 -0.727986 0
M  V30 1529 H 154.33 -1.37874 -0.989382 0
M  V30 1530 H 153.102 -2.97399 -2.54302 0
M  V30 1531 H 152.725 -1.64068 -3.6217 0
M  V30 1532 N 153.722 1.14298 -1.08507 0
M  V30 1533 C 154.632 2.23027 -0.727753 0
M  V30 1534 C 155.648 1.71952 0.26619 0
M  V30 1535 O 156.824 2.011 0.109882 0
M  V30 1536 C 153.889 3.46403 -0.143541 0
M  V30 1537 C 152.95 4.12413 -1.19223 0
M  V30 1538 C 152.183 5.29899 -0.635798 0
M  V30 1539 O 152.406 5.67796 0.544393 0
M  V30 1540 O 151.34 5.85717 -1.38634 0
M  V30 1541 H 155.166 2.55945 -1.63481 0
M  V30 1542 H 152.751 1.22248 -0.858817 0
M  V30 1543 H 154.633 4.21018 0.179404 0
M  V30 1544 H 153.308 3.15206 0.736659 0
M  V30 1545 H 152.215 3.39667 -1.56772 0
M  V30 1546 H 153.548 4.47718 -2.04474 0
M  V30 1547 N 155.201 0.870884 1.31352 0
M  V30 1548 C 156.447 0.482987 1.96965 0
M  V30 1549 C 156.78 -0.962462 1.68672 0
M  V30 1550 O 156.055 -1.6779 0.98371 0
M  V30 1551 C 156.338 0.741752 3.52378 0
M  V30 1552 C 156.191 2.2368 3.9024 0
M  V30 1553 C 157.51 0.208838 4.39604 0
M  V30 1554 H 154.629 0.176955 0.715441 0
M  V30 1555 H 157.271 1.09229 1.55464 0
M  V30 1556 H 155.421 0.223149 3.87859 0
M  V30 1557 H 157.093 2.82273 3.64856 0
M  V30 1558 H 155.336 2.70901 3.38814 0
M  V30 1559 H 156.007 2.3685 4.98604 0
M  V30 1560 H 158.483 0.652529 4.10952 0
M  V30 1561 H 157.359 0.419336 5.47296 0
M  V30 1562 H 157.62 -0.889275 4.33064 0
M  V30 1563 N 156.679 -1.44442 0.630414 0
M  V30 1564 C 157.609 -2.33418 -0.0618083 0
M  V30 1565 C 158.59 -1.48165 -0.835541 0
M  V30 1566 O 159.775 -1.76886 -0.801564 0
M  V30 1567 C 156.905 -3.31222 -1.04449 0
M  V30 1568 C 155.859 -4.26288 -0.382436 0
M  V30 1569 C 155.185 -5.13954 -1.47497 0
M  V30 1570 C 156.485 -5.1744 0.710865 0
M  V30 1571 H 158.179 -2.91548 0.681184 0
M  V30 1572 H 155.725 -1.40191 0.329026 0
M  V30 1573 H 157.678 -3.92351 -1.53748 0
M  V30 1574 H 156.402 -2.71299 -1.81836 0
M  V30 1575 H 155.061 -3.6649 0.0899054 0
M  V30 1576 H 154.709 -4.50385 -2.2397 0
M  V30 1577 H 154.409 -5.7837 -1.03737 0
M  V30 1578 H 155.933 -5.77955 -1.96979 0
M  V30 1579 H 157.347 -5.72509 0.300996 0
M  V30 1580 H 155.744 -5.90455 1.07156 0
M  V30 1581 H 156.814 -4.58496 1.57829 0
M  V30 1582 N 158.157 -0.370918 -1.53173 0
M  V30 1583 C 159.104 0.473035 -2.259 0
M  V30 1584 C 160.074 1.07311 -1.26781 0
M  V30 1585 O 161.259 1.1046 -1.55574 0
M  V30 1586 C 158.399 1.60405 -3.05556 0
M  V30 1587 C 157.512 1.02863 -4.19575 0
M  V30 1588 C 156.647 2.12918 -4.86661 0
M  V30 1589 C 155.686 1.52869 -5.92704 0
M  V30 1590 N 154.823 2.56779 -6.53459 0
M  V30 1591 H 159.663 -0.153649 -2.97604 0
M  V30 1592 H 157.2 -0.0875946 -1.46839 0
M  V30 1593 H 159.158 2.27034 -3.50016 0
M  V30 1594 H 157.788 2.20131 -2.36097 0
M  V30 1595 H 156.84 0.252465 -3.79561 0
M  V30 1596 H 158.152 0.549642 -4.95762 0
M  V30 1597 H 157.306 2.87356 -5.34333 0
M  V30 1598 H 156.045 2.6417 -4.09958 0
M  V30 1599 H 155.05 0.769479 -5.44389 0
M  V30 1600 H 156.275 1.02435 -6.7133 0
M  V30 1601 H 154.221 3.07235 -5.79606 0
M  V30 1602 H 154.138 2.13583 -7.25202 0
M  V30 1603 H 155.406 3.30903 -7.05779 0
M  V30 1604 N 159.635 1.57281 -0.100228 0
M  V30 1605 C 160.884 1.93713 0.561984 0
M  V30 1606 C 161.197 0.984492 1.69018 0
M  V30 1607 O 162.403 1.24273 2.41389 0
M  V30 1608 C 160.859 3.4421 1.05106 0
M  V30 1609 C 160.467 4.47975 -0.0476628 0
M  V30 1610 C 162.211 3.89595 1.68571 0
M  V30 1611 C 160.118 5.89631 0.457055 0
M  V30 1612 H 159.048 0.723082 0.2137 0
M  V30 1613 H 161.699 1.82644 -0.177057 0
M  V30 1614 H 160.081 3.50449 1.84395 0
M  V30 1615 H 161.255 4.53385 -0.823333 0
M  V30 1616 H 159.57 4.1223 -0.587816 0
M  V30 1617 H 162.167 4.92832 2.07414 0
M  V30 1618 H 162.51 3.28526 2.55688 0
M  V30 1619 H 163.043 3.86078 0.958562 0
M  V30 1620 H 159.782 6.54411 -0.377616 0
M  V30 1621 H 159.302 5.87681 1.19962 0
M  V30 1622 H 160.981 6.40363 0.92437 0
M  V30 1623 N 161.113 -0.173488 1.56642 0
M  V30 1624 C 162.046 -1.24353 1.91342 0
M  V30 1625 C 163.024 -1.4289 0.775965 0
M  V30 1626 O 164.208 -1.57932 1.02907 0
M  V30 1627 C 161.335 -2.60683 2.16245 0
M  V30 1628 C 160.381 -2.58894 3.38934 0
M  V30 1629 S 161.214 -2.0819 4.93373 0
M  V30 1630 C 162.37 -3.46302 5.21369 0
M  V30 1631 H 162.603 -0.947345 2.81803 0
M  V30 1632 H 160.136 -0.377958 1.49703 0
M  V30 1633 H 162.094 -3.39149 2.31275 0
M  V30 1634 H 160.755 -2.87502 1.26496 0
M  V30 1635 H 159.948 -3.59188 3.53553 0
M  V30 1636 H 159.55 -1.88522 3.2301 0
M  V30 1637 H 161.842 -4.42287 5.13214 0
M  V30 1638 H 162.785 -3.3656 6.23003 0
M  V30 1639 H 163.193 -3.42214 4.48943 0
M  V30 1640 N 162.591 -1.51276 -0.441967 0
M  V30 1641 C 164.002 -1.56244 -1.02199 0
M  V30 1642 C 164.353 -0.383149 -1.92422 0
M  V30 1643 O 163.478 0.500613 -2.1053 0
M  V30 1644 C 164.073 -2.83162 -1.86024 0
M  V30 1645 C 162.632 -2.90716 -2.39084 0
M  V30 1646 C 161.779 -2.50858 -1.18175 0
M  V30 1647 H 164.73 -1.5712 -0.223416 0
M  V30 1648 H 164.751 -2.66663 -2.71425 0
M  V30 1649 H 164.263 -3.68974 -1.20331 0
M  V30 1650 H 162.364 -2.09323 -3.08244 0
M  V30 1651 H 162.477 -3.94266 -2.72198 0
M  V30 1652 H 160.841 -2.03951 -1.52565 0
M  V30 1653 H 161.624 -3.3901 -0.541001 0
M  V30 1654 N 164.069 0.697108 -1.41344 0
M  V30 1655 C 165.315 1.4593 -1.40827 0
M  V30 1656 C 165.648 1.94193 -0.0167098 0
M  V30 1657 O 164.923 1.69425 0.955263 0
M  V30 1658 C 165.206 2.67229 -2.41373 0
M  V30 1659 C 165.059 2.24741 -3.8963 0
M  V30 1660 C 166.378 3.69423 -2.39196 0
M  V30 1661 H 163.497 0.529303 -0.512842 0
M  V30 1662 H 166.139 0.794112 -1.72609 0
M  V30 1663 H 164.289 3.23982 -2.14401 0
M  V30 1664 H 165.961 1.73327 -4.27499 0
M  V30 1665 H 164.204 1.56542 -4.0457 0
M  V30 1666 H 164.875 3.1177 -4.55525 0
M  V30 1667 H 167.351 3.2234 -2.63128 0
M  V30 1668 H 166.227 4.51907 -3.11563 0
M  V30 1669 H 166.488 4.19012 -1.41001 0
M  V30 1670 N 165.547 1.27147 0.931209 0
M  V30 1671 C 166.479 1.05364 2.03546 0
M  V30 1672 C 167.492 0.0108438 1.62796 0
M  V30 1673 O 168.681 0.25202 1.76712 0
M  V30 1674 C 165.781 0.575566 3.33977 0
M  V30 1675 C 164.954 1.68985 4.03439 0
M  V30 1676 C 164.013 1.20813 5.12143 0
M  V30 1677 O 163.039 1.90712 5.363 0
M  V30 1678 N 164.241 0.0618851 5.80467 0
M  V30 1679 H 167.006 2.00454 2.22796 0
M  V30 1680 H 164.567 1.18666 1.10136 0
M  V30 1681 H 166.559 0.237264 4.04004 0
M  V30 1682 H 165.129 -0.282016 3.11325 0
M  V30 1683 H 164.349 2.19861 3.27192 0
M  V30 1684 H 165.637 2.4378 4.46597 0
M  V30 1685 H 165.035 -0.521621 5.6329 0
M  V30 1686 H 163.592 -0.217264 6.51438 0
M  V30 1687 N 167.025 -1.13721 1.09112 0
M  V30 1688 C 167.972 -2.19031 0.727591 0
M  V30 1689 C 168.942 -1.63555 -0.289656 0
M  V30 1690 O 170.127 -1.90023 -0.172026 0
M  V30 1691 C 167.267 -3.4477 0.15082 0
M  V30 1692 C 166.38 -4.14365 1.22172 0
M  V30 1693 C 165.515 -5.27709 0.608042 0
M  V30 1694 C 164.554 -5.89147 1.66047 0
M  V30 1695 N 163.691 -6.93929 1.06806 0
M  V30 1696 H 168.531 -2.49475 1.62991 0
M  V30 1697 H 166.068 -1.22499 0.81439 0
M  V30 1698 H 168.026 -4.16714 -0.201358 0
M  V30 1699 H 166.656 -3.14787 -0.714783 0
M  V30 1700 H 165.708 -3.40737 1.69122 0
M  V30 1701 H 167.02 -4.56114 2.01895 0
M  V30 1702 H 166.174 -6.06355 0.204523 0
M  V30 1703 H 164.913 -4.872 -0.220769 0
M  V30 1704 H 163.918 -5.09198 2.07357 0
M  V30 1705 H 165.143 -6.31729 2.49189 0
M  V30 1706 H 163.089 -6.55483 0.260476 0
M  V30 1707 H 163.006 -7.34202 1.8023 0
M  V30 1708 H 164.274 -7.76434 0.690644 0
M  V30 1709 N 168.503 -0.877838 -1.30888 0
M  V30 1710 C 169.435 -0.296607 -2.27273 0
M  V30 1711 C 170.448 0.544799 -1.53414 0
M  V30 1712 O 171.637 0.365511 -1.74718 0
M  V30 1713 C 168.737 0.597481 -3.33592 0
M  V30 1714 C 167.91 -0.213251 -4.3688 0
M  V30 1715 C 166.969 0.610208 -5.2265 0
M  V30 1716 O 165.995 0.035441 -5.69189 0
M  V30 1717 N 167.197 1.92071 -5.47804 0
M  V30 1718 H 169.962 -1.12492 -2.77787 0
M  V30 1719 H 167.523 -0.740105 -1.43993 0
M  V30 1720 H 169.515 1.15425 -3.87891 0
M  V30 1721 H 168.085 1.32647 -2.83061 0
M  V30 1722 H 167.305 -0.951466 -3.82545 0
M  V30 1723 H 168.593 -0.769262 -5.02951 0
M  V30 1724 H 167.991 2.4107 -5.11763 0
M  V30 1725 H 166.548 2.42508 -6.05007 0
M  V30 1726 N 169.982 1.44106 -0.638065 0
M  V30 1727 C 171.21 2.06336 -0.152615 0
M  V30 1728 C 171.625 1.47731 1.17563 0
M  V30 1729 O 170.982 0.602806 1.72257 0
M  V30 1730 C 171.033 3.61479 -0.0391491 0
M  V30 1731 O 170.754 4.17903 -1.31487 0
M  V30 1732 C 172.255 4.40757 0.474176 0
M  V30 1733 H 169.475 0.665862 -0.0828776 0
M  V30 1734 H 172.019 1.84862 -0.87443 0
M  V30 1735 H 170.174 3.82191 0.633142 0
M  V30 1736 H 170.588 5.11416 -1.16421 0
M  V30 1737 H 172.062 5.49707 0.502562 0
M  V30 1738 H 172.539 4.12697 1.50258 0
M  V30 1739 H 173.145 4.24979 -0.165102 0
M  V30 1740 N 171.46 0.379036 1.52974 0
M  V30 1741 C 172.876 0.0285448 1.59574 0
M  V30 1742 C 173.076 -1.45542 1.39355 0
M  V30 1743 O 172.132 -2.2187 1.20541 0
M  V30 1744 C 173.445 0.496535 2.96572 0
M  V30 1745 C 174.993 0.451909 3.0972 0
M  V30 1746 C 175.468 0.895924 4.49152 0
M  V30 1747 N 176.959 0.851522 4.55306 0
M  V30 1748 C 177.694 1.16661 5.61407 0
M  V30 1749 N 177.19 1.55166 6.752 0
M  V30 1750 N 178.983 1.08853 5.51459 0
M  V30 1751 H 171.134 1.34525 1.64367 0
M  V30 1752 H 173.397 0.550733 0.771619 0
M  V30 1753 H 173.103 1.53258 3.16552 0
M  V30 1754 H 172.977 -0.109802 3.7704 0
M  V30 1755 H 175.364 -0.575029 2.89443 0
M  V30 1756 H 175.445 1.09392 2.3123 0
M  V30 1757 H 175.089 1.92104 4.70168 0
M  V30 1758 H 175.019 0.23103 5.26093 0
M  V30 1759 H 177.51 0.568038 3.73606 0
M  V30 1760 H 177.823 1.776 7.52116 0
M  V30 1761 H 176.168 1.59044 6.76557 0
M  V30 1762 H 179.359 0.786803 4.6144 0
M  V30 1763 H 179.532 1.33742 6.34048 0
M  V30 1764 N 172.938 -1.57226 0.108567 0
M  V30 1765 C 173.901 -2.13602 -0.831082 0
M  V30 1766 C 174.901 -1.06841 -1.20173 0
M  V30 1767 O 176.091 -1.32666 -1.12895 0
M  V30 1768 C 173.223 -2.66769 -2.12243 0
M  V30 1769 H 174.416 -2.97951 -0.341317 0
M  V30 1770 H 171.969 -1.55667 -0.14057 0
M  V30 1771 H 172.704 -1.85977 -2.65675 0
M  V30 1772 H 172.489 -3.44839 -1.86625 0
M  V30 1773 H 173.979 -3.10332 -2.79435 0
M  V30 1774 N 174.416 0.165178 -1.56732 0
M  V30 1775 C 175.664 0.879068 -1.8198 0
M  V30 1776 C 175.985 1.82514 -0.686561 0
M  V30 1777 O 175.255 1.93694 0.293146 0
M  V30 1778 H 173.835 0.327608 -0.671329 0
M  V30 1779 H 176.497 0.163526 -1.94213 0
M  V30 1780 H 175.593 1.45228 -2.76252 0
M  V30 1781 N 175.894 1.51508 0.433938 0
M  V30 1782 C 176.826 1.69266 1.54537 0
M  V30 1783 C 177.839 0.573276 1.52373 0
M  V30 1784 O 179.028 0.847698 1.57087 0
M  V30 1785 C 176.128 1.69524 2.93453 0
M  V30 1786 C 175.301 2.98101 3.20085 0
M  V30 1787 C 174.36 2.90502 4.38742 0
M  V30 1788 O 173.386 3.64442 4.3723 0
M  V30 1789 N 174.588 2.06586 5.42496 0
M  V30 1790 H 177.353 2.65145 1.39708 0
M  V30 1791 H 174.914 1.49437 0.622922 0
M  V30 1792 H 176.906 1.62004 3.70859 0
M  V30 1793 H 175.476 0.812245 3.01863 0
M  V30 1794 H 174.696 3.19464 2.30947 0
M  V30 1795 H 175.984 3.83207 3.34708 0
M  V30 1796 H 175.382 1.45896 5.46563 0
M  V30 1797 H 173.939 2.04943 6.18742 0
M  V30 1798 N 177.372 -0.689602 1.41712 0
M  V30 1799 C 178.788 -1.00093 1.24312 0
M  V30 1800 C 178.988 -2.01036 0.136729 0
M  V30 1801 O 178.044 -2.47562 -0.496918 0
M  V30 1802 C 179.357 -1.51985 2.59463 0
M  V30 1803 C 180.905 -1.63838 2.66695 0
M  V30 1804 C 181.38 -2.1913 4.02177 0
M  V30 1805 N 182.871 -2.26483 4.04054 0
M  V30 1806 C 183.606 -2.70306 5.0569 0
M  V30 1807 N 183.102 -3.13691 6.17713 0
M  V30 1808 N 184.895 -2.69923 4.9305 0
M  V30 1809 H 177.046 -0.0210029 2.1239 0
M  V30 1810 H 179.309 -0.0718733 0.945272 0
M  V30 1811 H 179.015 -0.85269 3.41207 0
M  V30 1812 H 178.889 -2.50103 2.82362 0
M  V30 1813 H 181.276 -2.29664 1.85306 0
M  V30 1814 H 181.357 -0.642492 2.476 0
M  V30 1815 H 181.001 -1.53918 4.84016 0
M  V30 1816 H 180.931 -3.19482 4.18615 0
M  V30 1817 H 183.422 -1.95874 3.23174 0
M  V30 1818 H 183.735 -3.45773 6.9113 0
M  V30 1819 H 182.08 -3.11585 6.21241 0
M  V30 1820 H 185.271 -2.35382 4.04614 0
M  V30 1821 H 185.444 -3.03758 5.72394 0
M  V30 1822 N 178.85 -1.27639 -0.924453 0
M  V30 1823 C 180.078 -1.16989 -1.70649 0
M  V30 1824 C 180.493 0.272869 -1.86818 0
M  V30 1825 O 179.85 1.18549 -1.38753 0
M  V30 1826 C 179.901 -1.85229 -3.10439 0
M  V30 1827 O 179.622 -3.23868 -2.95028 0
M  V30 1828 C 181.123 -1.80746 -4.04779 0
M  V30 1829 H 178.343 -0.406595 -0.53378 0
M  V30 1830 H 180.887 -1.68569 -1.15778 0
M  V30 1831 H 179.042 -1.37545 -3.6216 0
M  V30 1832 H 179.456 -3.57889 -3.83426 0
M  V30 1833 H 180.93 -2.33101 -5.00368 0
M  V30 1834 H 181.407 -0.777499 -4.32263 0
M  V30 1835 H 182.013 -2.28059 -3.58984 0
M  V30 1836 N 180.328 1.1314 -1.09713 0
M  V30 1837 C 181.744 1.36477 -0.827423 0
M  V30 1838 C 181.944 1.93654 0.556817 0
M  V30 1839 O 181 2.15791 1.31112 0
M  V30 1840 C 182.313 2.31334 -1.92106 0
M  V30 1841 C 183.861 2.44943 -1.94864 0
M  V30 1842 C 184.336 3.4311 -3.0338 0
M  V30 1843 N 185.827 3.50662 -3.02639 0
M  V30 1844 C 186.562 4.2651 -3.83246 0
M  V30 1845 N 186.058 5.05485 -4.73768 0
M  V30 1846 N 187.851 4.2184 -3.71493 0
M  V30 1847 H 180.002 0.743807 -1.9895 0
M  V30 1848 H 182.265 0.389823 -0.864143 0
M  V30 1849 H 181.971 1.96483 -2.91698 0
M  V30 1850 H 181.845 3.31381 -1.80184 0
M  V30 1851 H 184.232 2.79079 -0.959099 0
M  V30 1852 H 184.313 1.4481 -2.10864 0
M  V30 1853 H 183.957 3.09704 -4.02549 0
M  V30 1854 H 183.887 4.43055 -2.84622 0
M  V30 1855 H 186.378 2.94315 -2.37039 0
M  V30 1856 H 186.691 5.60675 -5.3185 0
M  V30 1857 H 185.036 5.04708 -4.77802 0
M  V30 1858 H 188.227 3.5922 -3.00131 0
M  V30 1859 H 188.4 4.80697 -4.3455 0
M  V30 1860 N 181.806 0.884767 1.30421 0
M  V30 1861 C 183.053 0.503105 1.96151 0
M  V30 1862 C 183.381 -0.947676 1.69851 0
M  V30 1863 O 182.636 -1.68467 0.995861 0
M  V30 1864 C 182.935 0.724318 3.49983 0
M  V30 1865 C 182.601 2.15015 3.96332 0
M  V30 1866 C 181.263 2.54005 4.08699 0
M  V30 1867 C 183.615 3.07936 4.20505 0
M  V30 1868 C 180.943 3.85128 4.42599 0
M  V30 1869 C 183.295 4.3859 4.55874 0
M  V30 1870 C 181.959 4.77474 4.66449 0
M  V30 1871 H 181.229 0.184099 0.717766 0
M  V30 1872 H 183.876 1.12058 1.55291 0
M  V30 1873 H 182.181 0.0238086 3.91793 0
M  V30 1874 H 183.878 0.408617 3.98913 0
M  V30 1875 H 180.468 1.8375 3.87213 0
M  V30 1876 H 184.652 2.79033 4.10431 0
M  V30 1877 H 179.908 4.14996 4.48986 0
M  V30 1878 H 184.082 5.10629 4.7353 0
M  V30 1879 H 181.709 5.79115 4.92473 0
M  V30 1880 N 183.284 -1.43765 0.645699 0
M  V30 1881 C 184.231 -2.30745 -0.0504648 0
M  V30 1882 C 185.201 -1.4432 -0.822241 0
M  V30 1883 O 186.386 -1.73202 -0.800358 0
M  V30 1884 C 183.526 -3.29802 -1.0161 0
M  V30 1885 C 182.639 -4.31326 -0.241219 0
M  V30 1886 C 181.774 -5.17469 -1.19998 0
M  V30 1887 C 180.813 -6.10691 -0.415094 0
M  V30 1888 N 179.95 -6.89483 -1.32506 0
M  V30 1889 H 184.79 -2.8973 0.697155 0
M  V30 1890 H 182.327 -1.42738 0.355563 0
M  V30 1891 H 184.285 -3.85734 -1.58949 0
M  V30 1892 H 182.915 -2.72483 -1.73069 0
M  V30 1893 H 181.967 -3.77749 0.448334 0
M  V30 1894 H 183.279 -4.9743 0.369437 0
M  V30 1895 H 182.433 -5.7799 -1.84424 0
M  V30 1896 H 181.172 -4.51473 -1.84455 0
M  V30 1897 H 180.177 -5.49265 0.242565 0
M  V30 1898 H 181.402 -6.78727 0.224966 0
M  V30 1899 H 179.348 -6.26142 -1.95657 0
M  V30 1900 H 179.265 -7.52081 -0.768783 0
M  V30 1901 H 180.533 -7.54516 -1.9577 0
M  V30 1902 N 184.763 -0.387143 -1.52771 0
M  V30 1903 C 185.726 0.436939 -2.24997 0
M  V30 1904 C 186.726 0.991991 -1.26555 0
M  V30 1905 O 187.916 0.874335 -1.50669 0
M  V30 1906 C 185.048 1.61281 -3.00335 0
M  V30 1907 H 186.241 -0.195365 -2.99263 0
M  V30 1908 H 183.794 -0.139218 -1.55679 0
M  V30 1909 H 184.529 2.2826 -2.30364 0
M  V30 1910 H 184.314 1.22154 -3.72587 0
M  V30 1911 H 185.804 2.19629 -3.5518 0
M  V30 1912 N 186.241 1.57166 -0.116904 0
M  V30 1913 C 187.488 1.95123 0.541603 0
M  V30 1914 C 187.816 1.00006 1.6682 0
M  V30 1915 O 187.071 0.0235658 1.95686 0
M  V30 1916 C 187.37 3.39508 1.11664 0
M  V30 1917 C 187.036 4.50762 0.111606 0
M  V30 1918 C 185.698 4.80918 -0.164758 0
M  V30 1919 C 188.05 5.18036 -0.573438 0
M  V30 1920 C 185.378 5.75666 -1.13249 0
M  V30 1921 C 187.73 6.13824 -1.52978 0
M  V30 1922 C 186.394 6.42374 -1.81415 0
M  V30 1923 H 185.664 0.714005 0.198187 0
M  V30 1924 H 188.311 1.9048 -0.197365 0
M  V30 1925 H 186.616 3.40835 1.93232 0
M  V30 1926 H 188.313 3.66189 1.63422 0
M  V30 1927 H 184.903 4.27272 0.337192 0
M  V30 1928 H 189.087 4.94896 -0.373092 0
M  V30 1929 H 184.343 5.96092 -1.35958 0
M  V30 1930 H 188.517 6.65039 -2.06629 0
M  V30 1931 H 186.144 7.15599 -2.56557 0
M  V30 1932 N 187.719 -0.156864 1.56817 0
M  V30 1933 C 188.965 -0.872416 1.83076 0
M  V30 1934 C 189.298 -1.81261 0.697001 0
M  V30 1935 O 188.573 -1.92171 -0.30008 0
M  V30 1936 C 188.856 -1.65551 3.19789 0
M  V30 1937 C 188.709 -0.737467 4.43713 0
M  V30 1938 C 190.028 -2.62012 3.53606 0
M  V30 1939 H 187.147 -0.315715 0.665953 0
M  V30 1940 H 189.789 -0.138004 1.89498 0
M  V30 1941 H 187.939 -2.28159 3.14445 0
M  V30 1942 H 189.611 -0.123143 4.61136 0
M  V30 1943 H 187.854 -0.0464067 4.33775 0
M  V30 1944 H 188.525 -1.32122 5.35955 0
M  V30 1945 H 191.001 -2.09525 3.59497 0
M  V30 1946 H 189.877 -3.13861 4.50314 0
M  V30 1947 H 190.138 -3.42902 2.79053 0
M  V30 1948 N 189.197 -1.51736 -0.425897 0
M  V30 1949 C 190.16 -1.73271 -1.50032 0
M  V30 1950 C 191.16 -0.602639 -1.4908 0
M  V30 1951 O 192.35 -0.87033 -1.509 0
M  V30 1952 C 189.482 -1.79969 -2.89523 0
M  V30 1953 H 190.675 -2.69172 -1.32237 0
M  V30 1954 H 188.228 -1.41899 -0.65532 0
M  V30 1955 H 188.963 -0.859241 -3.1271 0
M  V30 1956 H 188.748 -2.62109 -2.91619 0
M  V30 1957 H 190.238 -1.9843 -3.67444 0
M  V30 1958 N 190.675 0.682077 -1.42076 0
M  V30 1959 C 191.924 1.43786 -1.41451 0
M  V30 1960 C 192.237 1.95574 -0.0317074 0
M  V30 1961 O 193.443 2.71326 0.0971462 0
M  V30 1962 C 191.899 2.60071 -2.48779 0
M  V30 1963 C 191.507 2.15013 -3.93031 0
M  V30 1964 C 193.251 3.37626 -2.57311 0
M  V30 1965 C 191.158 3.28336 -4.91883 0
M  V30 1966 H 190.088 0.540143 -0.526082 0
M  V30 1967 H 192.739 0.739157 -1.67955 0
M  V30 1968 H 191.121 3.32275 -2.15429 0
M  V30 1969 H 192.295 1.5001 -4.35699 0
M  V30 1970 H 190.61 1.50416 -3.88284 0
M  V30 1971 H 193.207 4.22012 -3.28345 0
M  V30 1972 H 193.55 3.83727 -1.61429 0
M  V30 1973 H 194.083 2.72488 -2.89819 0
M  V30 1974 H 190.822 2.87234 -5.89217 0
M  V30 1975 H 190.342 3.92145 -4.53853 0
M  V30 1976 H 192.021 3.93913 -5.13265 0
M  V30 1977 N 192.153 1.28127 0.917671 0
M  V30 1978 C 193.401 1.14825 1.66312 0
M  V30 1979 C 193.722 -0.304379 1.9261 0
M  V30 1980 O 192.992 -1.21149 1.53947 0
M  V30 1981 H 191.572 0.421953 0.616413 0
M  V30 1982 H 194.234 1.608 1.10134 0
M  V30 1983 H 193.33 1.68489 2.62712 0
M  V30 1984 N 193.631 -1.12557 1.10312 0
M  V30 1985 C 194.908 -1.80363 0.756878 0
M  V30 1986 C 195.288 -1.97067 -0.756824 0
M  V30 1987 O 194.636 -1.54601 -1.68259 0
M  V30 1988 C 194.846 -3.14812 1.50647 0
M  V30 1989 C 196.194 -3.90029 1.67817 0
M  V30 1990 O 197.218 -3.24464 1.46974 0
M  V30 1991 O 196.077 -5.07652 2.02365 0
M  V30 1992 H 193.171 -0.780667 0.272926 0
M  V30 1993 H 195.717 -1.19404 1.20586 0
M  V30 1994 H 194.489 -2.97936 2.53672 0
M  V30 1995 H 194.112 -3.83478 1.05026 0
M  V30 1996 N 195.109 -0.891671 -1.2995 0
M  V30 1997 C 196.339 -0.527893 -1.99742 0
M  V30 1998 C 196.747 0.88979 -1.66971 0
M  V30 1999 O 196.09 1.59766 -0.906667 0
M  V30 2000 C 196.152 -0.630804 -3.53922 0
M  V30 2001 C 195.816 -2.01401 -4.10228 0
M  V30 2002 C 196.813 -2.98422 -4.25724 0
M  V30 2003 C 194.498 -2.32121 -4.45449 0
M  V30 2004 C 196.492 -4.24293 -4.75662 0
M  V30 2005 C 194.179 -3.58237 -4.95086 0
M  V30 2006 C 195.177 -4.54137 -5.10146 0
M  V30 2007 O 194.865 -5.78014 -5.58708 0
M  V30 2008 H 194.597 -0.201953 -0.645129 0
M  V30 2009 H 197.151 -1.20076 -1.66646 0
M  V30 2010 H 195.381 0.0990616 -3.86573 0
M  V30 2011 H 197.07 -0.277338 -4.04951 0
M  V30 2012 H 197.836 -2.76001 -3.98809 0
M  V30 2013 H 193.715 -1.5824 -4.32991 0
M  V30 2014 H 197.259 -4.99153 -4.87332 0
M  V30 2015 H 193.156 -3.80491 -5.21437 0
M  V30 2016 H 193.924 -5.8049 -5.77039 0
M  V30 2017 N 196.587 1.43421 -0.653314 0
M  V30 2018 C 197.535 2.32546 0.0501531 0
M  V30 2019 C 198.529 1.48617 0.812985 0
M  V30 2020 O 199.735 1.64825 0.723375 0
M  V30 2021 H 196.11 0.751185 0.0350032 0
M  V30 2022 H 198.081 2.89602 -0.719261 0
M  V30 2023 C 196.83 3.32925 1.00279 0
M  V30 2024 H 196.153 3.97532 0.425236 0
M  V30 2025 H 197.593 3.9792 1.46409 0
M  V30 2026 C 196.052 2.63532 2.09886 0
M  V30 2027 O 196.582 2.45092 3.18265 0
M  V30 2028 N 194.788 2.22905 1.86445 0
M  V30 2029 H 194.335 2.38103 0.98309 0
M  V30 2030 H 194.293 1.76805 2.59976 0
M  V30 2031 N 198.065 0.39524 1.52563 0
M  V30 2032 C 199.313 -0.184678 2.01254 0
M  V30 2033 C 199.634 -1.46822 1.28329 0
M  V30 2034 O 198.904 -1.91666 0.405094 0
M  V30 2035 H 197.484 -0.0712355 0.743596 0
M  V30 2036 H 200.146 0.528293 1.87603 0
M  V30 2037 H 199.242 -0.390681 3.09645 0
M  V30 2038 N 199.544 -1.57102 0.125237 0
M  V30 2039 C 200.494 -2.12202 -0.833936 0
M  V30 2040 C 201.478 -1.04433 -1.22403 0
M  V30 2041 O 202.67 -1.30655 -1.19408 0
M  V30 2042 C 199.799 -2.72994 -2.08157 0
M  V30 2043 C 198.885 -3.87852 -1.71556 0
M  V30 2044 N 199.276 -4.9464 -1.05662 0
M  V30 2045 C 197.574 -3.98153 -2.00973 0
M  V30 2046 C 198.275 -5.74953 -0.883376 0
M  V30 2047 N 197.251 -5.24985 -1.41036 0
M  V30 2048 H 201.053 -2.92141 -0.321035 0
M  V30 2049 H 198.567 -1.62217 -0.0770315 0
M  V30 2050 H 200.564 -3.10816 -2.77847 0
M  V30 2051 H 199.224 -1.9452 -2.59985 0
M  V30 2052 H 200.235 -5.12872 -0.719878 0
M  V30 2053 H 196.912 -3.30728 -2.54804 0
M  V30 2054 H 198.302 -6.70904 -0.365675 0
M  V30 2055 N 201.022 0.148545 -1.56898 0
M  V30 2056 C 202.268 0.862694 -1.83536 0
M  V30 2057 C 202.601 1.80889 -0.706604 0
M  V30 2058 O 201.876 1.92328 0.289885 0
M  V30 2059 C 202.159 1.63853 -3.20662 0
M  V30 2060 C 202.012 0.713925 -4.44098 0
M  V30 2061 C 203.331 2.60133 -3.54991 0
M  V30 2062 H 200.45 0.312179 -0.667618 0
M  V30 2063 H 203.092 0.127953 -1.89569 0
M  V30 2064 H 201.242 2.26489 -3.1565 0
M  V30 2065 H 202.914 0.098686 -4.61194 0
M  V30 2066 H 201.157 0.0234019 -4.33794 0
M  V30 2067 H 201.828 1.29278 -5.36648 0
M  V30 2068 H 204.304 2.07616 -3.60603 0
M  V30 2069 H 203.18 3.11468 -4.51972 0
M  V30 2070 H 203.441 3.41417 -2.80868 0
M  V30 2071 N 202.5 1.5196 0.417844 0
M  V30 2072 C 203.748 1.65263 1.16329 0
M  V30 2073 C 204.069 0.380634 1.91249 0
M  V30 2074 O 203.339 -0.604214 1.86349 0
M  V30 2075 H 201.919 0.60912 0.432414 0
M  V30 2076 H 204.581 1.88969 0.477162 0
M  V30 2077 H 203.677 2.4896 1.88217 0
M  V30 2078 N 203.978 -0.674533 1.42435 0
M  V30 2079 C 204.908 -1.80009 1.48724 0
M  V30 2080 C 205.889 -1.6659 0.343793 0
M  V30 2081 O 207.074 -1.86007 0.558137 0
M  V30 2082 C 204.204 -3.18306 1.38919 0
M  V30 2083 C 203.158 -3.46461 2.51294 0
M  V30 2084 C 202.484 -4.84335 2.26547 0
M  V30 2085 C 203.784 -3.43328 3.93603 0
M  V30 2086 H 205.478 -1.75004 2.42928 0
M  V30 2087 H 203.024 -0.840533 1.16923 0
M  V30 2088 H 204.977 -3.9678 1.41927 0
M  V30 2089 H 203.701 -3.2399 0.412094 0
M  V30 2090 H 202.36 -2.70348 2.47604 0
M  V30 2091 H 202.008 -4.86669 1.2713 0
M  V30 2092 H 201.708 -5.04136 3.01861 0
M  V30 2093 H 203.232 -5.65094 2.31304 0
M  V30 2094 H 204.646 -4.11772 3.98894 0
M  V30 2095 H 203.043 -3.74664 4.68771 0
M  V30 2096 H 204.113 -2.41897 4.20255 0
M  V30 2097 N 205.456 -1.28612 -0.910864 0
M  V30 2098 C 206.704 -1.15705 -1.65701 0
M  V30 2099 C 207.025 0.29416 -1.92769 0
M  V30 2100 O 206.295 1.20331 -1.54588 0
M  V30 2101 H 204.875 -0.425216 -0.614167 0
M  V30 2102 H 207.537 -1.61381 -1.0928 0
M  V30 2103 H 206.633 -1.6988 -2.61815 0
M  V30 2104 N 206.934 1.1197 -1.10907 0
M  V30 2105 C 208.18 1.8386 -0.855773 0
M  V30 2106 C 208.513 1.84134 0.617103 0
M  V30 2107 O 207.788 1.29041 1.45529 0
M  V30 2108 C 208.071 3.31305 -1.411 0
M  V30 2109 C 207.924 3.39456 -2.9511 0
M  V30 2110 C 209.243 4.2721 -1.05736 0
M  V30 2111 H 206.362 0.667545 -0.312334 0
M  V30 2112 H 209.004 1.31331 -1.37303 0
M  V30 2113 H 207.154 3.76169 -0.97105 0
M  V30 2114 H 208.826 3.03191 -3.47668 0
M  V30 2115 H 207.069 2.79849 -3.31462 0
M  V30 2116 H 207.74 4.43209 -3.29044 0
M  V30 2117 H 210.216 3.90497 -1.43706 0
M  V30 2118 H 209.092 5.28775 -1.47269 0
M  V30 2119 H 209.353 4.42088 0.0325958 0
M  V30 2120 N 208.412 0.89855 1.29475 0
M  V30 2121 C 209.359 0.373819 2.27753 0
M  V30 2122 C 210.329 -0.543444 1.56958 0
M  V30 2123 O 211.514 -0.468934 1.84948 0
M  V30 2124 C 208.654 -0.393648 3.42848 0
M  V30 2125 C 207.767 0.554379 4.28428 0
M  V30 2126 C 206.902 -0.230026 5.30702 0
M  V30 2127 C 205.941 0.712599 6.07938 0
M  V30 2128 N 205.078 -0.0373283 7.0209 0
M  V30 2129 H 209.918 1.21699 2.72017 0
M  V30 2130 H 207.455 0.611456 1.33789 0
M  V30 2131 H 209.413 -0.85466 4.08352 0
M  V30 2132 H 208.043 -1.20128 2.99615 0
M  V30 2133 H 207.095 1.13391 3.63107 0
M  V30 2134 H 208.407 1.27597 4.82204 0
M  V30 2135 H 207.561 -0.752288 6.02018 0
M  V30 2136 H 206.3 -0.984758 4.77654 0
M  V30 2137 H 205.305 1.24637 5.35486 0
M  V30 2138 H 206.53 1.46664 6.63074 0
M  V30 2139 H 204.476 -0.774348 6.51414 0
M  V30 2140 H 204.393 0.624374 7.53417 0
M  V30 2141 H 205.661 -0.539891 7.77628 0
M  V30 2142 N 209.89 -1.43072 0.660911 0
M  V30 2143 C 211.13 -2.03596 0.181146 0
M  V30 2144 C 211.494 -1.51057 -1.18515 0
M  V30 2145 O 212.695 -2.03275 -1.75877 0
M  V30 2146 C 210.966 -3.56845 0.19911 0
M  V30 2147 S 212.525 -4.38289 -0.211684 0
M  V30 2148 H 209.343 -0.706954 0.0757479 0
M  V30 2149 H 211.945 -1.75027 0.870965 0
M  V30 2150 H 210.649 -3.92583 1.1961 0
M  V30 2151 H 210.18 -3.90067 -0.510996 0
M  V30 2152 H 212.195 -4.74583 -1.44863 0
M  V30 2153 N 211.368 -0.403325 -1.52352 0
M  V30 2154 C 212.593 0.176499 -2.06648 0
M  V30 2155 C 213.018 1.38577 -1.27193 0
M  V30 2156 O 212.376 1.7879 -0.300637 0
M  V30 2157 C 212.424 0.511061 -3.5696 0
M  V30 2158 O 211.528 1.60294 -3.79973 0
M  V30 2159 H 210.869 0.0167337 -0.663789 0
M  V30 2160 H 213.399 -0.574848 -1.96359 0
M  V30 2161 H 213.409 0.771362 -4.00642 0
M  V30 2162 H 212.084 -0.37296 -4.14224 0
M  V30 2163 H 210.661 1.33526 -3.48174 0
M  V30 2164 N 212.846 1.57033 -0.133567 0
M  V30 2165 C 213.793 2.16074 0.811208 0
M  V30 2166 C 214.763 1.08979 1.2535 0
M  V30 2167 O 215.948 1.36958 1.32843 0
M  V30 2168 C 213.088 2.77595 2.05024 0
M  V30 2169 C 212.201 3.99042 1.65498 0
M  V30 2170 C 211.336 4.48603 2.84479 0
M  V30 2171 C 210.375 5.62547 2.41262 0
M  V30 2172 N 209.512 6.06787 3.53206 0
M  V30 2173 H 214.352 2.96477 0.300906 0
M  V30 2174 H 211.889 1.46462 0.136822 0
M  V30 2175 H 213.847 3.11402 2.77642 0
M  V30 2176 H 212.477 1.99859 2.53488 0
M  V30 2177 H 211.529 3.71302 0.826981 0
M  V30 2178 H 212.841 4.81629 1.29748 0
M  V30 2179 H 211.995 4.84395 3.65303 0
M  V30 2180 H 210.734 3.64995 3.23465 0
M  V30 2181 H 209.739 5.26345 1.58874 0
M  V30 2182 H 210.964 6.47931 2.03377 0
M  V30 2183 H 208.91 5.26117 3.91838 0
M  V30 2184 H 208.827 6.84266 3.21427 0
M  V30 2185 H 210.095 6.4722 4.34427 0
M  V30 2186 N 214.325 -0.140222 1.56975 0
M  V30 2187 C 215.235 -1.19223 2.02047 0
M  V30 2188 C 216.251 -1.46612 0.937062 0
M  V30 2189 O 217.427 -1.58148 1.24704 0
M  V30 2190 C 214.492 -2.50414 2.39778 0
M  V30 2191 C 213.553 -2.30612 3.621 0
M  V30 2192 C 212.786 -3.55547 3.98023 0
M  V30 2193 O 213.009 -4.62004 3.34528 0
M  V30 2194 O 211.943 -3.47808 4.91237 0
M  V30 2195 H 215.769 -0.839559 2.91865 0
M  V30 2196 H 213.354 -0.349453 1.45256 0
M  V30 2197 H 215.236 -3.27747 2.64877 0
M  V30 2198 H 213.911 -2.85198 1.53114 0
M  V30 2199 H 212.818 -1.51207 3.4218 0
M  V30 2200 H 214.151 -2.00741 4.49404 0
M  V30 2201 N 215.803 -1.52179 -0.40978 0
M  V30 2202 C 217.049 -1.66453 -1.15851 0
M  V30 2203 C 217.382 -0.392972 -1.90182 0
M  V30 2204 O 216.657 0.608579 -1.84734 0
M  V30 2205 C 216.94 -2.88612 -2.15349 0
M  V30 2206 C 216.793 -4.25815 -1.44918 0
M  V30 2207 C 218.112 -3.06294 -3.16026 0
M  V30 2208 H 215.231 -0.60575 -0.419805 0
M  V30 2209 H 217.873 -1.84732 -0.444314 0
M  V30 2210 H 216.023 -2.73158 -2.76255 0
M  V30 2211 H 217.695 -4.52995 -0.871365 0
M  V30 2212 H 215.938 -4.27247 -0.751159 0
M  V30 2213 H 216.609 -5.07337 -2.17516 0
M  V30 2214 H 219.085 -3.20641 -2.65195 0
M  V30 2215 H 217.961 -3.93283 -3.8291 0
M  V30 2216 H 218.222 -2.19579 -3.83715 0
M  V30 2217 N 217.281 0.66697 -1.42791 0
M  V30 2218 C 218.244 1.76211 -1.46568 0
M  V30 2219 C 219.244 1.56896 -0.352196 0
M  V30 2220 O 220.434 1.63044 -0.613364 0
M  V30 2221 C 217.566 3.14935 -1.30494 0
M  V30 2222 H 218.759 1.74247 -2.44086 0
M  V30 2223 H 216.312 0.877342 -1.29354 0
M  V30 2224 H 217.047 3.2252 -0.339301 0
M  V30 2225 H 216.832 3.30359 -2.11199 0
M  V30 2226 H 218.322 3.94821 -1.36038 0
M  V30 2227 N 218.759 1.29093 0.90403 0
M  V30 2228 C 219.987 1.19689 1.68766 0
M  V30 2229 C 220.402 -0.243113 1.87228 0
M  V30 2230 O 219.759 -1.16326 1.40621 0
M  V30 2231 C 219.81 1.90144 3.07453 0
M  V30 2232 O 219.531 3.2852 2.89838 0
M  V30 2233 C 221.032 1.87162 4.01852 0
M  V30 2234 H 218.252 0.415035 0.527244 0
M  V30 2235 H 220.796 1.7039 1.13082 0
M  V30 2236 H 218.951 1.43289 3.59926 0
M  V30 2237 H 219.365 3.63944 3.77684 0
M  V30 2238 H 220.839 2.41032 4.96596 0
M  V30 2239 H 221.316 0.84617 4.30972 0
M  V30 2240 H 221.922 2.33741 3.5531 0
M  V30 2241 N 220.237 -1.11381 1.11499 0
M  V30 2242 C 221.2 -2.15622 0.777153 0
M  V30 2243 C 222.2 -1.59504 -0.203779 0
M  V30 2244 O 223.39 -1.74188 0.020782 0
M  V30 2245 C 220.522 -3.40556 0.153116 0
M  V30 2246 H 221.715 -2.47021 1.70061 0
M  V30 2247 H 219.268 -1.26577 0.916952 0
M  V30 2248 H 220.003 -3.14767 -0.780536 0
M  V30 2249 H 219.788 -3.8257 0.859238 0
M  V30 2250 H 221.278 -4.17546 -0.0671044 0
M  V30 2251 N 221.715 -0.905404 -1.28997 0
M  V30 2252 C 222.964 -0.530191 -1.94607 0
M  V30 2253 C 223.277 0.929185 -1.72121 0
M  V30 2254 O 224.483 1.41218 -2.31883 0
M  V30 2255 C 222.939 -0.897333 -3.48534 0
M  V30 2256 C 222.547 -2.37587 -3.79811 0
M  V30 2257 C 224.291 -0.592304 -4.20347 0
M  V30 2258 C 222.198 -2.68357 -5.27009 0
M  V30 2259 H 221.128 -0.194558 -0.728466 0
M  V30 2260 H 223.779 -1.10318 -1.46636 0
M  V30 2261 H 222.161 -0.253214 -3.9519 0
M  V30 2262 H 223.335 -3.06602 -3.43994 0
M  V30 2263 H 221.65 -2.6505 -3.2115 0
M  V30 2264 H 224.247 -0.798975 -5.28697 0
M  V30 2265 H 224.59 0.469474 -4.13644 0
M  V30 2266 H 225.123 -1.19452 -3.79442 0
M  V30 2267 H 221.862 -3.73355 -5.38782 0
M  V30 2268 H 221.382 -2.03971 -5.64053 0
M  V30 2269 H 223.061 -2.54922 -5.94663 0
M  V30 2270 N 223.193 1.4272 -0.668489 0
M  V30 2271 C 224.609 1.55992 -0.33745 0
M  V30 2272 C 224.809 1.64933 1.15756 0
M  V30 2273 O 223.865 1.61278 1.94282 0
M  V30 2274 C 225.178 2.81314 -1.06222 0
M  V30 2275 C 226.726 2.95078 -1.04394 0
M  V30 2276 C 227.201 4.23252 -1.74991 0
M  V30 2277 N 228.692 4.3015 -1.71829 0
M  V30 2278 C 229.427 5.28127 -2.23315 0
M  V30 2279 N 228.923 6.32293 -2.83156 0
M  V30 2280 N 230.716 5.19882 -2.13726 0
M  V30 2281 H 222.867 1.3516 -1.63846 0
M  V30 2282 H 225.13 0.650174 -0.689912 0
M  V30 2283 H 224.836 2.80823 -2.11734 0
M  V30 2284 H 224.71 3.72012 -0.62344 0
M  V30 2285 H 227.097 2.951 0.0028244 0
M  V30 2286 H 227.178 2.05627 -1.52155 0
M  V30 2287 H 226.822 4.2399 -2.79633 0
M  V30 2288 H 226.752 5.11626 -1.24685 0
M  V30 2289 H 229.243 3.55499 -1.28175 0
M  V30 2290 H 229.556 7.03398 -3.20079 0
M  V30 2291 H 227.901 6.32873 -2.87223 0
M  V30 2292 H 231.092 4.37423 -1.66669 0
M  V30 2293 H 231.265 5.96077 -2.54158 0
M  V30 2294 N 224.671 0.411399 1.52136 0
M  V30 2295 C 225.919 -0.163322 2.01439 0
M  V30 2296 C 226.24 -1.45453 1.29879 0
M  V30 2297 O 225.51 -1.91225 0.4254 0
M  V30 2298 H 224.09 -0.0633447 0.744309 0
M  V30 2299 H 226.752 0.548161 1.87033 0
M  V30 2300 H 225.848 -0.357817 3.10042 0
M  V30 2301 N 226.149 -1.5696 0.141893 0
M  V30 2302 C 227.112 -2.15316 -0.785587 0
M  V30 2303 C 228.112 -1.09366 -1.1788 0
M  V30 2304 O 229.302 -1.35031 -1.10056 0
M  V30 2305 C 226.434 -2.71211 -2.06537 0
M  V30 2306 H 227.627 -2.98608 -0.278041 0
M  V30 2307 H 225.18 -1.5593 -0.107519 0
M  V30 2308 H 225.915 -1.91571 -2.6167 0
M  V30 2309 H 225.7 -3.4872 -1.79268 0
M  V30 2310 H 227.19 -3.16189 -2.72789 0
M  V30 2311 N 227.627 0.131896 -1.57047 0
M  V30 2312 C 228.876 0.84044 -1.83356 0
M  V30 2313 C 229.189 1.81646 -0.725535 0
M  V30 2314 O 230.395 2.57025 -0.874659 0
M  V30 2315 C 228.851 1.54528 -3.25037 0
M  V30 2316 C 228.459 0.610902 -4.43815 0
M  V30 2317 C 230.203 2.23972 -3.60606 0
M  V30 2318 C 228.11 1.31823 -5.76521 0
M  V30 2319 H 227.04 0.317599 -0.683847 0
M  V30 2320 H 229.691 0.0931561 -1.83263 0
M  V30 2321 H 228.073 2.33873 -3.19561 0
M  V30 2322 H 229.247 -0.148407 -4.60561 0
M  V30 2323 H 227.562 0.0241016 -4.16393 0
M  V30 2324 H 230.159 2.77558 -4.57018 0
M  V30 2325 H 230.502 3.01173 -2.87403 0
M  V30 2326 H 231.035 1.51529 -3.6781 0
M  V30 2327 H 227.774 0.587771 -6.52859 0
M  V30 2328 H 227.294 2.04987 -5.63685 0
M  V30 2329 H 228.973 1.855 -6.19838 0
M  V30 2330 N 229.106 1.52395 0.401703 0
M  V30 2331 C 230.355 1.66044 1.14509 0
M  V30 2332 C 230.668 0.400216 1.91462 0
M  V30 2333 O 231.874 0.416632 2.68284 0
M  V30 2334 C 230.33 2.93388 2.0845 0
M  V30 2335 C 229.938 4.26545 1.36978 0
M  V30 2336 C 231.682 3.16402 2.83001 0
M  V30 2337 C 229.589 5.45007 2.29611 0
M  V30 2338 H 228.519 0.618562 0.431158 0
M  V30 2339 H 231.17 1.78886 0.40892 0
M  V30 2340 H 229.552 2.74263 2.8565 0
M  V30 2341 H 230.726 4.56179 0.650916 0
M  V30 2342 H 229.041 4.09692 0.74438 0
M  V30 2343 H 231.638 4.02085 3.52465 0
M  V30 2344 H 231.981 2.30943 3.46368 0
M  V30 2345 H 232.514 3.36034 2.12898 0
M  V30 2346 H 229.253 6.32835 1.70879 0
M  V30 2347 H 228.773 5.19702 2.9945 0
M  V30 2348 H 230.452 5.7838 2.89974 0
M  V30 2349 N 230.584 -0.659388 1.43143 0
M  V30 2350 C 231.514 -1.78422 1.50625 0
M  V30 2351 C 232.495 -1.66216 0.361443 0
M  V30 2352 O 233.68 -1.85404 0.577834 0
M  V30 2353 C 230.81 -3.16815 1.42287 0
M  V30 2354 C 229.764 -3.43777 2.54954 0
M  V30 2355 C 229.09 -4.81905 2.31671 0
M  V30 2356 C 230.39 -3.39134 3.97222 0
M  V30 2357 H 232.084 -1.72417 2.44771 0
M  V30 2358 H 229.63 -0.828084 1.17808 0
M  V30 2359 H 231.583 -3.95253 1.46127 0
M  V30 2360 H 230.307 -3.23534 0.446435 0
M  V30 2361 H 228.966 -2.67707 2.50457 0
M  V30 2362 H 228.614 -4.85294 1.32284 0
M  V30 2363 H 228.314 -5.00906 3.07192 0
M  V30 2364 H 229.838 -5.62609 2.37284 0
M  V30 2365 H 231.252 -4.07518 4.03239 0
M  V30 2366 H 229.649 -3.69671 4.72719 0
M  V30 2367 H 230.719 -2.37426 4.22797 0
M  V30 2368 N 232.062 -1.29571 -0.897171 0
M  V30 2369 C 233.025 -1.14913 -1.98312 0
M  V30 2370 C 234.025 -0.0838629 -1.60581 0
M  V30 2371 O 235.215 -0.331006 -1.71026 0
M  V30 2372 C 232.347 -0.757835 -3.3237 0
M  V30 2373 H 233.54 -2.11377 -2.12743 0
M  V30 2374 H 231.093 -1.12793 -1.08201 0
M  V30 2375 H 231.828 0.206837 -3.2364 0
M  V30 2376 H 231.613 -1.52755 -3.61121 0
M  V30 2377 H 233.103 -0.678408 -4.12053 0
M  V30 2378 N 233.54 1.10788 -1.12088 0
M  V30 2379 C 234.487 2.17025 -0.785407 0
M  V30 2380 C 235.457 1.64265 0.246191 0
M  V30 2381 O 236.642 1.90412 0.121584 0
M  V30 2382 C 233.782 3.44249 -0.242177 0
M  V30 2383 C 232.895 4.1098 -1.33115 0
M  V30 2384 C 232.03 5.25911 -0.747741 0
M  V30 2385 C 231.069 5.84538 -1.81609 0
M  V30 2386 N 230.206 6.90853 -1.25167 0
M  V30 2387 H 235.046 2.45066 -1.69548 0
M  V30 2388 H 232.583 1.20297 -0.846582 0
M  V30 2389 H 234.541 4.17101 0.0908026 0
M  V30 2390 H 233.171 3.16571 0.631072 0
M  V30 2391 H 232.223 3.36133 -1.78097 0
M  V30 2392 H 233.535 4.50601 -2.13917 0
M  V30 2393 H 232.689 6.056 -0.365216 0
M  V30 2394 H 231.428 4.87614 0.0915188 0
M  V30 2395 H 230.433 5.03522 -2.20785 0
M  V30 2396 H 231.658 6.249 -2.6585 0
M  V30 2397 H 229.604 6.54562 -0.434174 0
M  V30 2398 H 229.521 7.29166 -1.99633 0
M  V30 2399 H 230.789 7.7433 -0.896259 0
M  V30 2400 N 235.018 0.912232 1.28515 0
M  V30 2401 C 235.948 0.416403 2.29757 0
M  V30 2402 C 236.929 -0.515194 1.6211 0
M  V30 2403 O 238.114 -0.423253 1.89532 0
M  V30 2404 C 235.244 -0.34572 3.45575 0
M  V30 2405 C 234.198 0.496599 4.25109 0
M  V30 2406 C 233.524 -0.393771 5.33248 0
M  V30 2407 C 234.824 1.75307 4.92001 0
M  V30 2408 H 236.518 1.26249 2.7148 0
M  V30 2409 H 234.064 0.608515 1.30511 0
M  V30 2410 H 236.017 -0.703422 4.15488 0
M  V30 2411 H 234.741 -1.2257 3.02728 0
M  V30 2412 H 233.4 0.8368 3.56922 0
M  V30 2413 H 233.048 -1.27225 4.86644 0
M  V30 2414 H 232.748 0.166209 5.87365 0
M  V30 2415 H 234.272 -0.747389 6.06009 0
M  V30 2416 H 235.686 1.46437 5.54283 0
M  V30 2417 H 234.083 2.25534 5.56106 0
M  V30 2418 H 235.153 2.48176 4.16577 0
M  V30 2419 N 236.496 -1.42363 0.676048 0
M  V30 2420 C 237.721 -2.06377 0.205705 0
M  V30 2421 C 238.146 -1.50463 -1.12883 0
M  V30 2422 O 237.504 -0.623619 -1.70237 0
M  V30 2423 C 237.552 -3.60277 0.152655 0
M  V30 2424 O 236.656 -4.02935 -0.87845 0
M  V30 2425 H 235.997 -0.655588 0.105359 0
M  V30 2426 H 238.527 -1.82475 0.925412 0
M  V30 2427 H 238.537 -4.07993 -0.0230675 0
M  V30 2428 H 237.212 -4.00346 1.12675 0
M  V30 2429 H 235.789 -3.66764 -0.673668 0
M  V30 2430 N 237.974 -0.419461 -1.51915 0
M  V30 2431 C 239.223 0.154346 -2.01109 0
M  V30 2432 C 239.536 1.45338 -1.30905 0
M  V30 2433 O 240.742 2.10906 -1.7097 0
M  V30 2434 C 239.198 0.325615 -3.58424 0
M  V30 2435 C 238.806 -0.961934 -4.37551 0
M  V30 2436 C 240.55 0.854155 -4.15818 0
M  V30 2437 C 238.457 -0.757287 -5.86531 0
M  V30 2438 H 237.387 0.0614563 -0.751491 0
M  V30 2439 H 240.038 -0.54649 -1.75173 0
M  V30 2440 H 238.42 1.08903 -3.80731 0
M  V30 2441 H 239.594 -1.7323 -4.26999 0
M  V30 2442 H 237.909 -1.41766 -3.91524 0
M  V30 2443 H 240.506 1.02346 -5.24814 0
M  V30 2444 H 240.849 1.83172 -3.73837 0
M  V30 2445 H 241.382 0.149528 -3.97519 0
M  V30 2446 H 238.121 -1.70671 -6.32892 0
M  V30 2447 H 237.641 -0.0264061 -5.99794 0
M  V30 2448 H 239.32 -0.403482 -6.45741 0
M  V30 2449 N 239.452 1.56882 -0.150215 0
M  V30 2450 C 240.698 1.96518 0.500834 0
M  V30 2451 C 241.031 1.03527 1.64304 0
M  V30 2452 O 240.306 0.0782751 1.94342 0
M  V30 2453 C 240.589 3.45822 1.00395 0
M  V30 2454 C 240.442 4.49591 -0.136983 0
M  V30 2455 C 241.761 3.97704 1.88467 0
M  V30 2456 H 238.88 0.714535 0.18058 0
M  V30 2457 H 241.522 1.88577 -0.232091 0
M  V30 2458 H 239.672 3.5272 1.62851 0
M  V30 2459 H 241.344 4.5477 -0.77343 0
M  V30 2460 H 239.587 4.26441 -0.795652 0
M  V30 2461 H 240.258 5.51402 0.256815 0
M  V30 2462 H 242.734 3.93304 1.35834 0
M  V30 2463 H 241.61 5.0263 2.20578 0
M  V30 2464 H 241.871 3.40252 2.82279 0
M  V30 2465 N 240.93 -0.123565 1.57115 0
M  V30 2466 C 242.341 -0.681198 1.73829 0
M  V30 2467 C 242.692 -1.80535 0.768214 0
M  V30 2468 O 241.817 -2.16317 -0.0599103 0
M  V30 2469 C 242.412 -1.24246 3.15196 0
M  V30 2470 C 240.971 -1.74643 3.33432 0
M  V30 2471 C 240.118 -0.644284 2.69711 0
M  V30 2472 H 243.069 0.102315 1.5837 0
M  V30 2473 H 243.09 -2.11216 3.16493 0
M  V30 2474 H 242.602 -0.424062 3.85776 0
M  V30 2475 H 240.703 -2.58974 2.67886 0
M  V30 2476 H 240.816 -1.85902 4.41562 0
M  V30 2477 H 239.18 -1.07676 2.3082 0
M  V30 2478 H 239.963 0.163058 3.42913 0
M  V30 2479 N 242.408 -1.52605 -0.393616 0
M  V30 2480 C 243.654 -1.67672 -1.14079 0
M  V30 2481 C 243.987 -0.413121 -1.89755 0
M  V30 2482 O 243.262 0.588952 -1.85369 0
M  V30 2483 C 243.545 -2.9088 -2.12276 0
M  V30 2484 C 243.398 -4.27329 -1.40394 0
M  V30 2485 C 244.717 -3.09628 -3.12759 0
M  V30 2486 H 241.836 -0.610168 -0.413356 0
M  V30 2487 H 244.478 -1.85193 -0.424696 0
M  V30 2488 H 242.628 -2.76073 -2.73342 0
M  V30 2489 H 244.3 -4.53894 -0.82327 0
M  V30 2490 H 242.543 -4.2802 -0.705801 0
M  V30 2491 H 243.214 -5.09615 -2.12123 0
M  V30 2492 H 245.69 -3.23436 -2.61779 0
M  V30 2493 H 244.566 -3.97322 -3.78717 0
M  V30 2494 H 244.827 -2.23637 -3.81365 0
M  V30 2495 N 243.887 0.651787 -1.4349 0
M  V30 2496 C 245.303 0.96762 -1.26922 0
M  V30 2497 C 245.503 2.00602 -0.189982 0
M  V30 2498 O 244.559 2.48793 0.431107 0
M  V30 2499 C 245.872 1.45052 -2.63401 0
M  V30 2500 C 247.42 1.5671 -2.70945 0
M  V30 2501 C 247.895 2.0839 -4.07845 0
M  V30 2502 N 249.386 2.1569 -4.09917 0
M  V30 2503 C 250.121 2.56804 -5.12679 0
M  V30 2504 N 249.617 2.97203 -6.25813 0
M  V30 2505 N 251.41 2.56756 -5.00033 0
M  V30 2506 H 243.561 -0.0353158 -2.12371 0
M  V30 2507 H 245.824 0.0467858 -0.946845 0
M  V30 2508 H 245.53 0.761926 -3.43348 0
M  V30 2509 H 245.404 2.42529 -2.88894 0
M  V30 2510 H 247.791 2.2467 -1.9133 0
M  V30 2511 H 247.872 0.57662 -2.49216 0
M  V30 2512 H 247.516 1.41031 -4.87927 0
M  V30 2513 H 247.446 3.08271 -4.26938 0
M  V30 2514 H 249.937 1.87237 -3.28254 0
M  V30 2515 H 250.25 3.27328 -7.00055 0
M  V30 2516 H 248.595 2.95004 -6.29283 0
M  V30 2517 H 251.786 2.24572 -4.10713 0
M  V30 2518 H 251.959 2.88475 -5.80247 0
M  V30 2519 N 245.365 1.30045 0.890287 0
M  V30 2520 C 246.781 1.08261 1.17268 0
M  V30 2521 C 246.981 -0.160063 2.00863 0
M  V30 2522 O 246.037 -0.855181 2.37577 0
M  V30 2523 C 247.35 2.34323 1.8845 0
M  V30 2524 C 248.898 2.39735 2.01237 0
M  V30 2525 C 249.373 3.65625 2.7583 0
M  V30 2526 N 250.864 3.66402 2.83379 0
M  V30 2527 C 251.599 4.60498 3.41657 0
M  V30 2528 N 251.095 5.64933 4.01026 0
M  V30 2529 N 252.888 4.48051 3.39421 0
M  V30 2530 H 245.039 2.09777 0.332762 0
M  V30 2531 H 247.302 0.92446 0.209948 0
M  V30 2532 H 247.008 3.2498 1.34465 0
M  V30 2533 H 246.882 2.4256 2.88867 0
M  V30 2534 H 249.269 1.4956 2.54393 0
M  V30 2535 H 249.35 2.35476 0.999232 0
M  V30 2536 H 248.994 4.56156 2.23347 0
M  V30 2537 H 248.924 3.67144 3.77509 0
M  V30 2538 H 251.415 2.90896 2.41222 0
M  V30 2539 H 251.728 6.32841 4.43545 0
M  V30 2540 H 250.073 5.68732 3.99461 0
M  V30 2541 H 253.264 3.65649 2.92264 0
M  V30 2542 H 253.437 5.21565 3.84544 0
M  V30 2543 N 246.843 -1.10192 1.12674 0
M  V30 2544 C 248.091 -1.81845 0.881861 0
M  V30 2545 C 248.412 -1.85737 -0.593867 0
M  V30 2546 O 247.682 -1.33724 -1.4316 0
M  V30 2547 H 246.262 -0.673432 0.323261 0
M  V30 2548 H 248.924 -1.33316 1.42172 0
M  V30 2549 H 248.02 -2.85288 1.2656 0
M  V30 2550 N 248.321 -0.919034 -1.28029 0
M  V30 2551 C 249.551 -0.570143 -1.98577 0
M  V30 2552 C 249.959 0.854172 -1.68821 0
M  V30 2553 O 249.302 1.57807 -0.940351 0
M  V30 2554 C 249.364 -0.705734 -3.52505 0
M  V30 2555 C 249.028 -2.10057 -4.05863 0
M  V30 2556 C 250.025 -3.07385 -4.19298 0
M  V30 2557 C 247.71 -2.41517 -4.40426 0
M  V30 2558 C 249.704 -4.34287 -4.66555 0
M  V30 2559 C 247.391 -3.68657 -4.87376 0
M  V30 2560 C 248.389 -4.64856 -5.00398 0
M  V30 2561 O 248.077 -5.89735 -5.46322 0
M  V30 2562 H 247.809 -0.215592 -0.6407 0
M  V30 2563 H 250.363 -1.23583 -1.64062 0
M  V30 2564 H 248.593 0.0170414 -3.86696 0
M  V30 2565 H 250.282 -0.363172 -4.04272 0
M  V30 2566 H 251.048 -2.84398 -3.92865 0
M  V30 2567 H 246.927 -1.67389 -4.29537 0
M  V30 2568 H 250.471 -5.09377 -4.76635 0
M  V30 2569 H 246.368 -3.91466 -5.13249 0
M  V30 2570 H 247.136 -5.92599 -5.64596 0
M  V30 2571 N 249.799 1.42003 -0.683588 0
M  V30 2572 C 251.045 2.02223 -0.218536 0
M  V30 2573 C 251.4 1.53126 1.16492 0
M  V30 2574 O 250.693 0.727459 1.77253 0
M  V30 2575 C 250.887 3.56827 -0.202357 0
M  V30 2576 C 250.716 4.20928 -1.5827 0
M  V30 2577 C 249.486 4.5573 -2.18262 0
M  V30 2578 C 251.684 4.47933 -2.52706 0
M  V30 2579 N 249.666 5.05056 -3.48986 0
M  V30 2580 C 251.037 4.98906 -3.68094 0
M  V30 2581 C 253.092 4.29931 -2.51125 0
M  V30 2582 C 251.795 5.33768 -4.82166 0
M  V30 2583 C 253.821 4.65875 -3.643 0
M  V30 2584 C 253.183 5.17008 -4.78417 0
M  V30 2585 H 249.282 0.771931 -0.125088 0
M  V30 2586 H 251.866 1.72729 -0.898479 0
M  V30 2587 H 250.037 3.85819 0.447029 0
M  V30 2588 H 251.769 4.03755 0.276399 0
M  V30 2589 H 248.524 4.41781 -1.70665 0
M  V30 2590 H 248.948 5.34139 -4.15962 0
M  V30 2591 H 253.59 3.89647 -1.6412 0
M  V30 2592 H 251.308 5.72981 -5.6984 0
M  V30 2593 H 254.894 4.53615 -3.64314 0
M  V30 2594 H 253.774 5.44301 -5.64541 0
M  V30 2595 N 251.277 0.427512 1.51691 0
M  V30 2596 C 252.525 -0.141948 2.01601 0
M  V30 2597 C 252.846 -1.44067 1.31414 0
M  V30 2598 O 252.116 -1.90763 0.445658 0
M  V30 2599 H 250.696 -0.0554468 0.744939 0
M  V30 2600 H 253.358 0.567968 1.86441 0
M  V30 2601 H 252.454 -0.324913 3.10404 0
M  V30 2602 N 252.755 -1.56801 0.158532 0
M  V30 2603 C 253.703 -2.18638 -0.793729 0
M  V30 2604 C 254.697 -1.14669 -1.24689 0
M  V30 2605 O 255.903 -1.32895 -1.21403 0
M  V30 2606 H 252.278 -0.700226 -0.274204 0
M  V30 2607 H 254.249 -2.97367 -0.248095 0
M  V30 2608 C 252.998 -2.83139 -2.0181 0
M  V30 2609 H 252.321 -3.62863 -1.67841 0
M  V30 2610 H 253.761 -3.29894 -2.66357 0
M  V30 2611 C 252.22 -1.82244 -2.83353 0
M  V30 2612 O 252.75 -1.3 -3.80083 0
M  V30 2613 N 250.956 -1.51288 -2.48114 0
M  V30 2614 H 250.503 -1.93964 -1.69516 0
M  V30 2615 H 250.461 -0.840296 -3.02963 0
M  V30 2616 N 254.233 0.115231 -1.57178 0
M  V30 2617 C 255.18 1.14115 -2.00615 0
M  V30 2618 C 256.15 1.40939 -0.878941 0
M  V30 2619 O 257.335 1.52741 -1.14345 0
M  V30 2620 C 254.475 2.46156 -2.4187 0
M  V30 2621 C 253.588 2.26236 -3.68024 0
M  V30 2622 C 252.723 3.51534 -3.98243 0
M  V30 2623 C 251.762 3.26787 -5.17568 0
M  V30 2624 N 250.899 4.44298 -5.43639 0
M  V30 2625 H 255.739 0.763743 -2.88047 0
M  V30 2626 H 253.276 0.365615 -1.42484 0
M  V30 2627 H 255.234 3.23189 -2.63827 0
M  V30 2628 H 253.864 2.81783 -1.57475 0
M  V30 2629 H 252.916 1.40102 -3.5366 0
M  V30 2630 H 254.228 2.03929 -4.55208 0
M  V30 2631 H 253.382 4.36984 -4.20868 0
M  V30 2632 H 252.121 3.76876 -3.09541 0
M  V30 2633 H 251.126 2.39729 -4.94783 0
M  V30 2634 H 252.351 3.02812 -6.0785 0
M  V30 2635 H 250.297 4.69754 -4.57895 0
M  V30 2636 H 250.214 4.25109 -6.25154 0
M  V30 2637 H 251.482 5.3087 -5.70786 0
M  V30 2638 N 255.711 1.52812 0.385517 0
M  V30 2639 C 256.96 1.67249 1.12741 0
M  V30 2640 C 257.273 0.4205 1.91027 0
M  V30 2641 O 258.479 0.445064 2.67827 0
M  V30 2642 C 256.935 2.95583 2.05326 0
M  V30 2643 C 256.543 4.27974 1.32447 0
M  V30 2644 C 258.287 3.19386 2.7963 0
M  V30 2645 C 256.194 5.47412 2.23818 0
M  V30 2646 H 255.124 0.6231 0.424573 0
M  V30 2647 H 257.775 1.79309 0.389924 0
M  V30 2648 H 256.157 2.77277 2.82725 0
M  V30 2649 H 257.331 4.56844 0.602495 0
M  V30 2650 H 255.646 4.10459 0.700885 0
M  V30 2651 H 258.243 4.05801 3.48181 0
M  V30 2652 H 258.586 2.34604 3.43899 0
M  V30 2653 H 259.119 3.38274 2.09322 0
M  V30 2654 H 255.858 6.34612 1.64157 0
M  V30 2655 H 255.378 5.22849 2.93921 0
M  V30 2656 H 257.057 5.81423 2.83824 0
M  V30 2657 N 257.189 -0.644168 1.43834 0
M  V30 2658 C 258.437 -1.40117 1.45642 0
M  V30 2659 C 258.758 -1.94814 0.0852413 0
M  V30 2660 O 258.028 -1.74988 -0.880688 0
M  V30 2661 H 256.608 -0.52005 0.536243 0
M  V30 2662 H 259.27 -0.7591 1.7951 0
M  V30 2663 H 258.366 -2.23902 2.17427 0
M  V30 2664 N 258.668 -1.30515 -0.883378 0
M  V30 2665 C 259.615 -1.17032 -1.98927 0
M  V30 2666 C 260.585 -0.0594241 -1.65994 0
M  V30 2667 O 261.77 -0.229895 -1.8941 0
M  V30 2668 C 258.91 -0.869777 -3.33959 0
M  V30 2669 C 258.023 -2.06271 -3.79574 0
M  V30 2670 C 257.158 -1.70011 -5.03259 0
M  V30 2671 C 256.197 -2.8579 -5.41286 0
M  V30 2672 N 255.334 -2.49816 -6.56153 0
M  V30 2673 H 260.174 -2.1164 -2.09792 0
M  V30 2674 H 257.711 -1.05296 -1.02719 0
M  V30 2675 H 259.669 -0.676138 -4.11685 0
M  V30 2676 H 258.299 0.0394332 -3.22776 0
M  V30 2677 H 257.351 -2.36755 -2.97744 0
M  V30 2678 H 258.663 -2.92971 -4.03694 0
M  V30 2679 H 257.817 -1.47032 -5.88614 0
M  V30 2680 H 256.556 -0.804829 -4.81013 0
M  V30 2681 H 255.561 -3.09434 -4.54456 0
M  V30 2682 H 256.786 -3.76008 -5.65504 0
M  V30 2683 H 254.732 -1.62795 -6.35479 0
M  V30 2684 H 254.649 -3.30048 -6.8015 0
M  V30 2685 H 255.917 -2.30197 -7.44735 0
M  V30 2686 N 260.146 1.09593 -1.13257 0
M  V30 2687 C 261.557 1.63229 -0.906274 0
M  V30 2688 C 261.908 1.8811 0.557578 0
M  V30 2689 O 261.033 1.62953 1.42391 0
M  V30 2690 C 261.628 2.96535 -1.63867 0
M  V30 2691 C 260.187 3.47003 -1.45828 0
M  V30 2692 C 259.334 2.2145 -1.66898 0
M  V30 2693 H 262.285 0.92978 -1.28611 0
M  V30 2694 H 262.306 3.64411 -1.09476 0
M  V30 2695 H 261.818 2.78394 -2.70404 0
M  V30 2696 H 259.919 3.70272 -0.415848 0
M  V30 2697 H 260.032 4.24551 -2.2202 0
M  V30 2698 H 258.396 2.30022 -1.09371 0
M  V30 2699 H 259.179 2.0583 -2.74752 0
M  V30 2700 N 261.624 0.925811 1.2754 0
M  V30 2701 C 262.574 0.394488 2.24561 0
M  V30 2702 C 263.558 -0.500183 1.52928 0
M  V30 2703 O 264.75 -0.337936 1.73744 0
M  V30 2704 C 261.879 -0.353328 3.41477 0
M  V30 2705 C 260.965 0.557752 4.20416 0
M  V30 2706 N 261.356 1.67674 4.77199 0
M  V30 2707 C 259.654 0.360404 4.44541 0
M  V30 2708 C 260.355 2.24324 5.36706 0
M  V30 2709 N 259.331 1.53305 5.21535 0
M  V30 2710 H 263.133 1.2489 2.66045 0
M  V30 2711 H 260.647 0.779864 1.4245 0
M  V30 2712 H 262.644 -0.7509 4.10082 0
M  V30 2713 H 261.304 -1.20469 3.01525 0
M  V30 2714 H 262.315 2.05915 4.75204 0
M  V30 2715 H 258.992 -0.450454 4.15063 0
M  V30 2716 H 260.382 3.18521 5.91603 0
M  V30 2717 N 263.102 -1.41638 0.69111 0
M  V30 2718 C 264.33 -2.05628 0.22909 0
M  V30 2719 C 264.745 -1.51992 -1.11999 0
M  V30 2720 O 264.102 -0.666322 -1.69901 0
M  V30 2721 C 264.153 -3.61084 0.173283 0
M  V30 2722 O 263.874 -4.12735 1.46907 0
M  V30 2723 C 265.375 -4.42213 -0.310266 0
M  V30 2724 H 262.595 -0.662327 0.107534 0
M  V30 2725 H 265.139 -1.81489 0.942438 0
M  V30 2726 H 263.294 -3.84278 -0.490858 0
M  V30 2727 H 263.708 -5.06743 1.35322 0
M  V30 2728 H 265.182 -5.51194 -0.298196 0
M  V30 2729 H 265.659 -4.1799 -1.34838 0
M  V30 2730 H 266.265 -4.24074 0.322716 0
M  V30 2731 N 264.58 -0.43555 -1.51462 0
M  V30 2732 C 265.826 0.131709 -2.02372 0
M  V30 2733 C 266.159 1.42516 -1.3192 0
M  V30 2734 O 265.434 1.89606 -0.433573 0
M  V30 2735 C 265.717 0.352301 -3.58373 0
M  V30 2736 C 265.57 -0.959676 -4.39443 0
M  V30 2737 C 266.889 1.12286 -4.25535 0
M  V30 2738 H 264.008 0.0463936 -0.735538 0
M  V30 2739 H 266.65 -0.574197 -1.81116 0
M  V30 2740 H 264.8 0.9536 -3.76615 0
M  V30 2741 H 266.472 -1.59482 -4.32855 0
M  V30 2742 H 264.715 -1.56468 -4.04599 0
M  V30 2743 H 265.386 -0.759394 -5.46752 0
M  V30 2744 H 267.862 0.613545 -4.11552 0
M  V30 2745 H 266.738 1.24598 -5.34571 0
M  V30 2746 H 266.999 2.15048 -3.86273 0
M  V30 2747 N 266.058 1.56714 -0.166846 0
M  V30 2748 C 267.469 1.83378 0.350646 0
M  V30 2749 C 267.82 1.08646 1.63372 0
M  V30 2750 O 266.945 0.338058 2.13743 0
M  V30 2751 C 267.54 3.32643 0.642963 0
M  V30 2752 C 266.099 3.59818 1.10491 0
M  V30 2753 C 265.246 2.76954 0.138411 0
M  V30 2754 H 268.197 1.53803 -0.391193 0
M  V30 2755 H 268.218 3.49878 1.49551 0
M  V30 2756 H 267.73 3.87007 -0.291055 0
M  V30 2757 H 265.831 3.1086 2.05418 0
M  V30 2758 H 265.944 4.68178 1.01716 0
M  V30 2759 H 264.308 2.4666 0.634911 0
M  V30 2760 H 265.091 3.34097 -0.789549 0
M  V30 2761 N 267.536 -0.106894 1.57237 0
M  V30 2762 C 268.776 -0.818277 1.87306 0
M  V30 2763 C 269.14 -1.76474 0.756371 0
M  V30 2764 O 270.341 -2.5186 0.939155 0
M  V30 2765 C 268.612 -1.53806 3.22612 0
M  V30 2766 S 270.171 -2.28935 3.74345 0
M  V30 2767 H 266.989 -0.272862 0.656557 0
M  V30 2768 H 269.591 -0.075988 1.95352 0
M  V30 2769 H 268.295 -0.834951 4.01817 0
M  V30 2770 H 267.826 -2.32049 3.17674 0
M  V30 2771 H 269.841 -3.54871 3.46815 0
M  V30 2772 N 269.014 -1.53014 -0.377408 0
M  V30 2773 C 269.961 -1.78616 -1.46168 0
M  V30 2774 C 270.931 -0.629917 -1.53692 0
M  V30 2775 O 272.116 -0.870861 -1.69766 0
M  V30 2776 C 269.256 -1.97123 -2.8326 0
M  V30 2777 C 268.369 -3.24831 -2.84796 0
M  V30 2778 C 267.504 -3.33591 -4.13389 0
M  V30 2779 C 266.543 -4.55377 -4.09021 0
M  V30 2780 N 265.68 -4.61355 -5.29241 0
M  V30 2781 H 270.52 -2.71142 -1.23637 0
M  V30 2782 H 268.057 -1.34326 -0.599577 0
M  V30 2783 H 270.015 -2.05839 -3.62886 0
M  V30 2784 H 268.645 -1.07946 -3.04216 0
M  V30 2785 H 267.697 -3.25128 -1.97474 0
M  V30 2786 H 269.009 -4.14523 -2.77439 0
M  V30 2787 H 268.163 -3.41554 -5.01424 0
M  V30 2788 H 266.902 -2.41894 -4.23484 0
M  V30 2789 H 265.907 -4.47527 -3.19373 0
M  V30 2790 H 267.132 -5.48402 -4.00539 0
M  V30 2791 H 265.078 -3.72554 -5.39944 0
M  V30 2792 H 264.995 -5.44935 -5.24006 0
M  V30 2793 H 266.263 -4.73586 -6.19141 0
M  V30 2794 N 270.492 0.636531 -1.44174 0
M  V30 2795 C 271.738 1.39826 -1.4689 0
M  V30 2796 C 272.071 1.93947 -0.0990585 0
M  V30 2797 O 271.346 1.73325 0.882544 0
M  V30 2798 C 271.629 2.56751 -2.5249 0
M  V30 2799 C 271.482 2.08014 -3.98811 0
M  V30 2800 C 272.801 3.58946 -2.54649 0
M  V30 2801 H 269.92 0.507075 -0.53483 0
M  V30 2802 H 272.562 0.720188 -1.75822 0
M  V30 2803 H 270.712 3.14597 -2.2795 0
M  V30 2804 H 272.384 1.5504 -4.34466 0
M  V30 2805 H 270.627 1.39242 -4.10846 0
M  V30 2806 H 271.298 2.92169 -4.68339 0
M  V30 2807 H 273.774 3.1089 -2.76563 0
M  V30 2808 H 272.65 4.38286 -3.3045 0
M  V30 2809 H 272.911 4.12655 -1.58646 0
M  V30 2810 N 271.97 1.30982 0.876444 0
M  V30 2811 C 273.198 1.23242 1.6619 0
M  V30 2812 C 273.613 -0.203345 1.87702 0
M  V30 2813 O 272.97 -1.13317 1.43057 0
M  V30 2814 C 273.021 1.96623 3.03351 0
M  V30 2815 O 272.742 3.34594 2.82804 0
M  V30 2816 C 274.243 1.95644 3.97792 0
M  V30 2817 H 271.463 0.426126 0.518322 0
M  V30 2818 H 274.007 1.7275 1.09442 0
M  V30 2819 H 272.162 1.50892 3.56806 0
M  V30 2820 H 272.576 3.71873 3.69879 0
M  V30 2821 H 274.05 2.51511 4.91372 0
M  V30 2822 H 274.527 0.937395 4.2908 0
M  V30 2823 H 275.133 2.41225 3.50272 0
M  V30 2824 N 273.449 -1.08991 1.13837 0
M  V30 2825 C 274.697 -1.80899 0.901098 0
M  V30 2826 C 275.018 -1.86356 -0.574134 0
M  V30 2827 O 274.288 -1.35235 -1.41733 0
M  V30 2828 H 272.868 -0.669966 0.330386 0
M  V30 2829 H 275.53 -1.318 1.43578 0
M  V30 2830 H 274.626 -2.83929 1.29578 0
M  V30 2831 N 274.927 -0.932562 -1.27047 0
M  V30 2832 C 276.343 -0.633544 -1.46487 0
M  V30 2833 C 276.543 0.815746 -1.84249 0
M  V30 2834 O 275.599 1.59319 -1.95892 0
M  V30 2835 C 276.912 -1.58758 -2.55375 0
M  V30 2836 C 278.46 -1.59634 -2.69232 0
M  V30 2837 C 278.935 -2.53747 -3.81283 0
M  V30 2838 N 280.426 -2.51982 -3.88664 0
M  V30 2839 C 281.161 -3.21491 -4.74796 0
M  V30 2840 N 280.657 -4.00395 -5.65381 0
M  V30 2841 N 282.45 -3.10485 -4.68568 0
M  V30 2842 H 274.601 -1.86946 -1.00821 0
M  V30 2843 H 276.864 -0.802897 -0.504044 0
M  V30 2844 H 276.57 -2.62172 -2.34432 0
M  V30 2845 H 276.444 -1.33301 -3.52861 0
M  V30 2846 H 278.831 -0.569488 -2.89553 0
M  V30 2847 H 278.912 -1.89142 -1.72218 0
M  V30 2848 H 278.556 -3.56545 -3.61715 0
M  V30 2849 H 278.486 -2.21532 -4.77735 0
M  V30 2850 H 280.977 -1.94681 -3.23895 0
M  V30 2851 H 281.29 -4.50406 -6.27976 0
M  V30 2852 H 279.635 -4.04498 -5.65161 0
M  V30 2853 H 282.826 -2.48331 -3.96799 0
M  V30 2854 H 282.999 -3.64925 -5.35475 0
M  V30 2855 N 276.405 1.4127 -0.698611 0
M  V30 2856 C 277.645 2.03044 -0.235062 0
M  V30 2857 C 278.009 1.54146 1.14468 0
M  V30 2858 O 279.21 2.07867 1.70425 0
M  V30 2859 C 277.481 3.56192 -0.293651 0
M  V30 2860 S 279.04 4.38696 0.0954053 0
M  V30 2861 H 275.858 0.704697 -0.0944648 0
M  V30 2862 H 278.46 1.72656 -0.917064 0
M  V30 2863 H 277.164 3.89274 -1.29977 0
M  V30 2864 H 276.695 3.91285 0.407397 0
M  V30 2865 H 278.71 4.78257 1.3223 0
M  V30 2866 N 277.883 0.443576 1.51229 0
M  V30 2867 C 279.131 -0.120557 2.0174 0
M  V30 2868 C 279.452 -1.42665 1.32935 0
M  V30 2869 O 278.722 -1.9028 0.465866 0
M  V30 2870 H 277.302 -0.0475426 0.745486 0
M  V30 2871 H 279.964 0.587711 1.85828 0
M  V30 2872 H 279.06 -0.291972 3.10731 0
M  V30 2873 N 279.361 -1.56624 0.175154 0
M  V30 2874 C 280.586 -2.01813 -0.478137 0
M  V30 2875 C 281.011 -1.05457 -1.55757 0
M  V30 2876 O 280.369 -0.0347439 -1.81267 0
M  V30 2877 C 280.417 -3.45581 -1.02987 0
M  V30 2878 O 279.521 -3.52305 -2.14371 0
M  V30 2879 H 278.862 -0.65413 -0.114059 0
M  V30 2880 H 281.392 -2.02673 0.280173 0
M  V30 2881 H 281.402 -3.84965 -1.35151 0
M  V30 2882 H 280.077 -4.1521 -0.239556 0
M  V30 2883 H 278.654 -3.24783 -1.83222 0
M  V30 2884 N 280.839 0.0985539 -1.57292 0
M  V30 2885 C 282.085 0.803867 -1.86188 0
M  V30 2886 C 282.418 1.78549 -0.763794 0
M  V30 2887 O 281.693 1.93153 0.22855 0
M  V30 2888 C 281.976 1.53568 -3.25713 0
M  V30 2889 C 281.829 0.572277 -4.46145 0
M  V30 2890 C 283.148 2.48708 -3.63087 0
M  V30 2891 H 280.267 0.290781 -0.677211 0
M  V30 2892 H 282.909 0.0675783 -1.8988 0
M  V30 2893 H 281.059 2.16332 -3.22696 0
M  V30 2894 H 282.731 -0.0480894 -4.61275 0
M  V30 2895 H 280.974 -0.114618 -4.33649 0
M  V30 2896 H 281.645 1.12139 -5.40489 0
M  V30 2897 H 284.121 1.96039 -3.67026 0
M  V30 2898 H 282.997 2.96932 -4.61652 0
M  V30 2899 H 283.258 3.32309 -2.91588 0
M  V30 2900 N 282.317 1.53212 0.369288 0
M  V30 2901 C 283.247 1.82365 1.45826 0
M  V30 2902 C 284.228 0.676907 1.56051 0
M  V30 2903 O 285.413 0.926401 1.70679 0
M  V30 2904 C 282.543 2.01023 2.83208 0
M  V30 2905 C 281.497 3.1678 2.8781 0
M  V30 2906 C 280.823 3.20724 4.27832 0
M  V30 2907 C 282.123 4.55447 2.55667 0
M  V30 2908 H 283.817 2.73559 1.21678 0
M  V30 2909 H 281.363 1.3163 0.583911 0
M  V30 2910 H 283.316 2.20001 3.59413 0
M  V30 2911 H 282.04 1.06536 3.08736 0
M  V30 2912 H 280.699 2.97616 2.14056 0
M  V30 2913 H 280.347 2.23882 4.50429 0
M  V30 2914 H 280.047 3.98496 4.31827 0
M  V30 2915 H 281.571 3.41881 5.05915 0
M  V30 2916 H 282.985 4.74611 3.21586 0
M  V30 2917 H 281.382 5.35432 2.70984 0
M  V30 2918 H 282.452 4.60812 1.5093 0
M  V30 2919 N 283.795 -0.628877 1.44509 0
M  V30 2920 C 285.041 -1.39045 1.47629 0
M  V30 2921 C 285.374 -1.93892 0.109343 0
M  V30 2922 O 284.649 -1.7379 -0.87334 0
M  V30 2923 C 284.932 -2.55408 2.53848 0
M  V30 2924 C 284.785 -2.05896 3.99909 0
M  V30 2925 C 286.104 -3.5759 2.56549 0
M  V30 2926 H 283.223 -0.504232 0.537512 0
M  V30 2927 H 285.865 -0.710854 1.76201 0
M  V30 2928 H 284.015 -3.13384 2.29615 0
M  V30 2929 H 285.687 -1.52734 4.35282 0
M  V30 2930 H 283.93 -1.37061 4.11578 0
M  V30 2931 H 284.601 -2.89681 4.69882 0
M  V30 2932 H 287.077 -3.09419 2.78207 0
M  V30 2933 H 285.953 -4.36527 3.32769 0
M  V30 2934 H 286.214 -4.11808 1.60832 0
M  V30 2935 N 285.273 -1.31445 -0.869486 0
M  V30 2936 C 286.689 -1.10113 -1.15531 0
M  V30 2937 C 286.889 0.128087 -2.01092 0
M  V30 2938 O 285.945 0.817276 -2.38908 0
M  V30 2939 C 287.258 -2.37291 -1.84698 0
M  V30 2940 C 288.806 -2.42906 -1.97397 0
M  V30 2941 C 289.281 -3.69967 -2.69979 0
M  V30 2942 N 290.772 -3.70864 -2.77514 0
M  V30 2943 C 291.507 -4.65875 -3.34287 0
M  V30 2944 N 291.003 -5.71242 -3.91988 0
M  V30 2945 N 292.796 -4.53394 -3.3225 0
M  V30 2946 H 284.947 -2.1028 -0.299347 0
M  V30 2947 H 287.21 -0.927683 -0.195214 0
M  V30 2948 H 286.916 -3.27078 -1.29278 0
M  V30 2949 H 286.79 -2.47125 -2.84972 0
M  V30 2950 H 289.177 -1.53588 -2.51982 0
M  V30 2951 H 289.258 -2.37036 -0.961643 0
M  V30 2952 H 288.902 -4.59652 -2.16062 0
M  V30 2953 H 288.832 -3.73103 -3.7162 0
M  V30 2954 H 291.323 -2.94697 -2.36563 0
M  V30 2955 H 291.636 -6.39817 -4.33421 0
M  V30 2956 H 289.981 -5.75015 -3.90362 0
M  V30 2957 H 293.172 -3.70252 -2.8641 0
M  V30 2958 H 293.345 -5.27617 -3.76197 0
M  V30 2959 N 286.751 1.08385 -1.14413 0
M  V30 2960 C 287.681 2.17321 -0.854044 0
M  V30 2961 C 288.662 1.69024 0.191049 0
M  V30 2962 O 289.847 1.94141 0.0476779 0
M  V30 2963 C 286.977 3.45719 -0.330983 0
M  V30 2964 C 285.931 4.07409 -1.31155 0
M  V30 2965 C 285.257 5.30762 -0.64778 0
M  V30 2966 C 286.557 4.48665 -2.67388 0
M  V30 2967 H 288.251 2.41845 -1.76498 0
M  V30 2968 H 285.797 1.16233 -0.850051 0
M  V30 2969 H 287.75 4.21241 -0.115645 0
M  V30 2970 H 286.474 3.2075 0.615381 0
M  V30 2971 H 285.133 3.33919 -1.51306 0
M  V30 2972 H 284.781 5.02078 0.304398 0
M  V30 2973 H 284.481 5.72992 -1.30207 0
M  V30 2974 H 286.005 6.08998 -0.441972 0
M  V30 2975 H 287.419 5.15364 -2.51143 0
M  V30 2976 H 285.816 5.01814 -3.29093 0
M  V30 2977 H 286.886 3.60543 -3.24248 0
M  V30 2978 N 288.23 0.939286 1.26551 0
M  V30 2979 C 289.479 0.581601 1.93133 0
M  V30 2980 C 289.792 -0.883224 1.74524 0
M  V30 2981 O 290.998 -1.3502 2.35546 0
M  V30 2982 C 289.454 0.989425 3.46032 0
M  V30 2983 C 289.062 2.47573 3.73379 0
M  V30 2984 C 290.806 0.703544 4.18629 0
M  V30 2985 C 288.713 2.82235 5.19709 0
M  V30 2986 H 287.643 0.213803 0.723052 0
M  V30 2987 H 290.294 1.14167 1.4366 0
M  V30 2988 H 288.676 0.357902 3.94379 0
M  V30 2989 H 289.85 3.15614 3.35744 0
M  V30 2990 H 288.165 2.73471 3.1401 0
M  V30 2991 H 290.762 0.938869 5.26393 0
M  V30 2992 H 291.105 -0.359639 4.14744 0
M  V30 2993 H 291.638 1.2947 3.76141 0
M  V30 2994 H 288.377 3.87509 5.28694 0
M  V30 2995 H 287.897 2.18854 5.58447 0
M  V30 2996 H 289.576 2.70599 5.87695 0
M  V30 2997 N 289.708 -1.40897 0.706093 0
M  V30 2998 C 291.119 -1.84023 0.315052 0
M  V30 2999 C 291.47 -1.5906 -1.14866 0
M  V30 3000 O 290.595 -1.06651 -1.88293 0
M  V30 3001 C 291.19 -3.34055 0.565038 0
M  V30 3002 C 289.749 -3.7571 0.227806 0
M  V30 3003 C 288.896 -2.64204 0.842122 0
M  V30 3004 H 291.847 -1.303 0.905963 0
M  V30 3005 H 291.868 -3.80107 -0.172843 0
M  V30 3006 H 291.38 -3.52192 1.63042 0
M  V30 3007 H 289.481 -3.63172 -0.832895 0
M  V30 3008 H 289.594 -4.74103 0.690174 0
M  V30 3009 H 287.958 -2.53255 0.270893 0
M  V30 3010 H 288.741 -2.85155 1.91158 0
M  V30 3011 N 291.186 -0.45159 -1.50991 0
M  V30 3012 C 292.149 0.341117 -2.26647 0
M  V30 3013 C 293.149 0.937422 -1.30649 0
M  V30 3014 O 294.339 0.809644 -1.54241 0
M  V30 3015 C 291.471 1.48398 -3.06905 0
M  V30 3016 H 292.664 -0.322117 -2.98165 0
M  V30 3017 H 290.217 -0.205122 -1.54948 0
M  V30 3018 H 290.952 2.18284 -2.39838 0
M  V30 3019 H 290.737 1.06241 -3.77432 0
M  V30 3020 H 292.227 2.04367 -3.64176 0
M  V30 3021 N 292.664 1.56529 -0.183458 0
M  V30 3022 C 294.075 1.83739 0.331177 0
M  V30 3023 C 294.426 1.10373 1.62211 0
M  V30 3024 O 293.551 0.36071 2.13373 0
M  V30 3025 C 294.146 3.33306 0.607646 0
M  V30 3026 C 292.705 3.60969 1.06668 0
M  V30 3027 C 291.852 2.77086 0.109029 0
M  V30 3028 H 294.803 1.53379 -0.407484 0
M  V30 3029 H 294.824 3.51444 1.45832 0
M  V30 3030 H 294.336 3.86677 -0.332086 0
M  V30 3031 H 292.437 3.13021 2.0211 0
M  V30 3032 H 292.55 4.69231 0.967447 0
M  V30 3033 H 290.914 2.47319 0.608714 0
M  V30 3034 H 291.697 3.33241 -0.82494 0
M  V30 3035 N 294.142 -0.090211 1.57342 0
M  V30 3036 C 295.558 -0.444547 1.53284 0
M  V30 3037 C 295.758 -1.80238 0.900914 0
M  V30 3038 O 294.814 -2.4759 0.495513 0
M  V30 3039 C 296.127 -0.402543 2.97993 0
M  V30 3040 C 297.675 -0.48405 3.09234 0
M  V30 3041 C 298.15 -0.472144 4.5556 0
M  V30 3042 N 299.641 -0.532757 4.60126 0
M  V30 3043 C 300.376 -0.545462 5.708 0
M  V30 3044 N 299.872 -0.514082 6.9089 0
M  V30 3045 N 301.665 -0.59064 5.58988 0
M  V30 3046 H 293.816 0.799121 1.96794 0
M  V30 3047 H 296.079 0.297965 0.899956 0
M  V30 3048 H 295.785 0.528106 3.47712 0
M  V30 3049 H 295.659 -1.21969 3.56936 0
M  V30 3050 H 298.046 -1.40512 2.595 0
M  V30 3051 H 298.127 0.361328 2.53235 0
M  V30 3052 H 297.771 0.445 5.05947 0
M  V30 3053 H 297.701 -1.3348 5.09402 0
M  V30 3054 H 300.192 -0.562006 3.73698 0
M  V30 3055 H 300.505 -0.527195 7.71 0
M  V30 3056 H 298.85 -0.481054 6.93333 0
M  V30 3057 H 302.041 -0.61272 4.64073 0
M  V30 3058 H 302.214 -0.597073 6.45243 0
M  V30 3059 N 295.62 -1.53406 -0.361157 0
M  V30 3060 C 296.868 -1.69467 -1.10115 0
M  V30 3061 C 297.189 -0.451352 -1.89705 0
M  V30 3062 O 296.459 0.534636 -1.88463 0
M  V30 3063 H 295.039 -0.624749 -0.409508 0
M  V30 3064 H 297.701 -1.90609 -0.406699 0
M  V30 3065 H 296.797 -2.55774 -1.78847 0
M  V30 3066 N 297.098 0.621204 -1.44841 0
M  V30 3067 C 298.326 1.40752 -1.51646 0
M  V30 3068 C 298.741 1.88246 -0.144549 0
M  V30 3069 O 298.098 1.61422 0.851416 0
M  V30 3070 C 298.149 2.62119 -2.4895 0
M  V30 3071 O 297.87 2.16602 -3.80808 0
M  V30 3072 C 299.371 3.55135 -2.65319 0
M  V30 3073 H 296.591 0.431325 -0.514004 0
M  V30 3074 H 299.135 0.758835 -1.899 0
M  V30 3075 H 297.29 3.23058 -2.13805 0
M  V30 3076 H 297.704 2.95358 -4.33433 0
M  V30 3077 H 299.178 4.36874 -3.37409 0
M  V30 3078 H 299.655 4.04592 -1.70886 0
M  V30 3079 H 300.261 3.00058 -3.01405 0
M  V30 3080 N 298.576 1.31904 0.862503 0
M  V30 3081 C 299.824 1.21776 1.61292 0
M  V30 3082 C 300.145 -0.222413 1.93727 0
M  V30 3083 O 299.415 -1.1451 1.58947 0
M  V30 3084 H 297.995 0.447717 0.597962 0
M  V30 3085 H 300.657 1.65326 1.03215 0
M  V30 3086 H 299.753 1.7948 2.5533 0
M  V30 3087 N 300.054 -1.07777 1.14986 0
M  V30 3088 C 301.303 -1.79669 0.916617 0
M  V30 3089 C 301.616 -1.87474 -0.557917 0
M  V30 3090 O 302.822 -2.55845 -0.908617 0
M  V30 3091 C 301.278 -3.22848 1.59051 0
M  V30 3092 C 300.886 -3.23257 3.10176 0
M  V30 3093 C 302.63 -3.99379 1.43864 0
M  V30 3094 C 300.537 -4.61063 3.70372 0
M  V30 3095 H 299.467 -0.673349 0.33929 0
M  V30 3096 H 302.118 -1.21003 1.37951 0
M  V30 3097 H 300.5 -3.8168 1.0553 0
M  V30 3098 H 301.674 -2.74095 3.70417 0
M  V30 3099 H 299.989 -2.60222 3.25074 0
M  V30 3100 H 302.586 -5.0122 1.86232 0
M  V30 3101 H 302.929 -4.14511 0.385564 0
M  V30 3102 H 303.462 -3.47032 1.94457 0
M  V30 3103 H 300.201 -4.51135 4.7556 0
M  V30 3104 H 299.721 -5.1048 3.14913 0
M  V30 3105 H 301.4 -5.30034 3.71043 0
M  V30 3106 N 301.532 -0.945985 -1.26051 0
M  V30 3107 C 302.778 -0.597002 -1.93814 0
M  V30 3108 C 303.111 0.862484 -1.73997 0
M  V30 3109 O 302.386 1.61769 -1.07986 0
M  V30 3110 C 302.669 -0.945937 -3.47454 0
M  V30 3111 C 302.522 -2.46052 -3.76535 0
M  V30 3112 C 303.841 -0.464785 -4.37639 0
M  V30 3113 H 300.96 -0.218366 -0.703907 0
M  V30 3114 H 303.602 -1.18107 -1.48831 0
M  V30 3115 H 301.752 -0.448902 -3.85898 0
M  V30 3116 H 303.424 -3.03065 -3.47778 0
M  V30 3117 H 301.667 -2.90194 -3.22444 0
M  V30 3118 H 302.338 -2.65517 -4.83947 0
M  V30 3119 H 304.814 -0.891016 -4.06448 0
M  V30 3120 H 303.69 -0.737712 -5.4392 0
M  V30 3121 H 303.951 0.635274 -4.37512 0
M  V30 3122 N 303.011 1.40521 -0.713556 0
M  V30 3123 C 304.236 2.05759 -0.26035 0
M  V30 3124 C 304.661 1.53403 1.08854 0
M  V30 3125 O 304.019 0.668535 1.68524 0
M  V30 3126 C 304.067 3.59745 -0.248122 0
M  V30 3127 O 303.171 4.05123 0.77131 0
M  V30 3128 H 302.512 0.652564 -0.122703 0
M  V30 3129 H 305.042 1.79958 -0.973467 0
M  V30 3130 H 305.052 4.07911 -0.0851129 0
M  V30 3131 H 303.727 3.97218 -1.2325 0
M  V30 3132 H 302.304 3.68422 0.57619 0
M  V30 3133 N 304.489 0.459591 1.5075 0
M  V30 3134 C 305.452 -0.329093 2.26825 0
M  V30 3135 C 306.452 -0.930481 1.31144 0
M  V30 3136 O 307.642 -0.801453 1.54669 0
M  V30 3137 C 304.774 -1.46768 3.07688 0
M  V30 3138 H 305.967 0.337924 2.9799 0
M  V30 3139 H 303.52 0.213336 1.54837 0
M  V30 3140 H 304.255 -2.17009 2.40993 0
M  V30 3141 H 304.04 -1.04238 3.77991 0
M  V30 3142 H 305.53 -2.02433 3.65254 0
M  V30 3143 N 305.967 -1.56429 0.191757 0
M  V30 3144 C 307.378 -1.83912 -0.321428 0
M  V30 3145 C 307.729 -1.11231 -1.61623 0
M  V30 3146 O 306.854 -0.37202 -2.13178 0
M  V30 3147 C 307.449 -3.33624 -0.589961 0
M  V30 3148 C 306.008 -3.6153 -1.04753 0
M  V30 3149 C 305.155 -2.7714 -0.0943327 0
M  V30 3150 H 308.106 -1.53161 0.415612 0
M  V30 3151 H 308.127 -3.52213 -1.43966 0
M  V30 3152 H 307.639 -3.86495 0.352588 0
M  V30 3153 H 305.74 -3.14089 -2.00447 0
M  V30 3154 H 305.853 -4.69737 -0.942549 0
M  V30 3155 H 304.217 -2.47638 -0.595589 0
M  V30 3156 H 305 -3.32799 0.842601 0
M  V30 3157 N 307.445 0.0818655 -1.57387 0
M  V30 3158 C 308.691 0.784074 -1.8703 0
M  V30 3159 C 309.024 1.77729 -0.782689 0
M  V30 3160 O 308.299 1.93384 0.208051 0
M  V30 3161 C 308.582 1.50105 -3.27323 0
M  V30 3162 C 308.435 0.524925 -4.46727 0
M  V30 3163 C 309.754 2.44843 -3.65705 0
M  V30 3164 H 306.873 0.283582 -0.680257 0
M  V30 3165 H 309.515 0.0474352 -1.89941 0
M  V30 3166 H 307.665 2.12897 -3.24972 0
M  V30 3167 H 309.337 -0.0970111 -4.61198 0
M  V30 3168 H 307.58 -0.160606 -4.33503 0
M  V30 3169 H 308.251 1.064 -5.41648 0
M  V30 3170 H 310.727 1.92135 -3.69085 0
M  V30 3171 H 309.603 2.92018 -4.64776 0
M  V30 3172 H 309.864 3.29197 -2.95096 0
M  V30 3173 N 308.923 1.53595 0.353017 0
M  V30 3174 C 310.334 1.61937 0.929153 0
M  V30 3175 C 310.685 0.494686 1.89861 0
M  V30 3176 O 309.81 -0.377017 2.1309 0
M  V30 3177 C 310.405 2.93526 1.69199 0
M  V30 3178 C 308.964 3.04161 2.21727 0
M  V30 3179 C 308.111 2.57322 1.03348 0
M  V30 3180 H 311.062 1.58155 0.131431 0
M  V30 3181 H 311.083 2.82034 2.55416 0
M  V30 3182 H 310.595 3.75362 0.986144 0
M  V30 3183 H 308.696 2.26938 2.95516 0
M  V30 3184 H 308.809 4.09465 2.48748 0
M  V30 3185 H 307.173 2.12499 1.40414 0
M  V30 3186 H 307.956 3.41588 0.342428 0
M  V30 3187 N 310.401 -0.613514 1.45168 0
M  V30 3188 C 311.348 -1.72456 1.53387 0
M  V30 3189 C 312.318 -1.6169 0.380191 0
M  V30 3190 O 313.503 -1.81356 0.592836 0
M  V30 3191 C 310.643 -3.10753 1.50088 0
M  V30 3192 C 309.756 -3.32368 2.75963 0
M  V30 3193 C 308.891 -4.60737 2.64376 0
M  V30 3194 C 307.93 -4.7559 3.85332 0
M  V30 3195 N 307.067 -5.95253 3.72315 0
M  V30 3196 H 311.907 -1.64768 2.48305 0
M  V30 3197 H 309.444 -0.803503 1.23216 0
M  V30 3198 H 311.402 -3.90758 1.46164 0
M  V30 3199 H 310.032 -3.17413 0.587243 0
M  V30 3200 H 309.084 -2.4618 2.89999 0
M  V30 3201 H 310.396 -3.39218 3.65695 0
M  V30 3202 H 309.55 -5.48928 2.58385 0
M  V30 3203 H 308.289 -4.56275 1.72233 0
M  V30 3204 H 307.294 -3.85824 3.91688 0
M  V30 3205 H 308.519 -4.81854 4.78533 0
M  V30 3206 H 306.465 -5.91847 2.82937 0
M  V30 3207 H 306.382 -6.03236 4.55677 0
M  V30 3208 H 307.65 -6.85958 3.70246 0
M  V30 3209 N 311.879 -1.3236 -0.855495 0
M  V30 3210 C 312.826 -1.21225 -1.964 0
M  V30 3211 C 313.796 -0.0946204 -1.6583 0
M  V30 3212 O 314.981 -0.27002 -1.8888 0
M  V30 3213 C 312.121 -0.940419 -3.32039 0
M  V30 3214 C 311.234 -2.14276 -3.75113 0
M  V30 3215 C 310.369 -1.80648 -4.9954 0
M  V30 3216 C 309.408 -2.97208 -5.35102 0
M  V30 3217 N 308.545 -2.63678 -6.50706 0
M  V30 3218 H 313.385 -2.16042 -2.05255 0
M  V30 3219 H 310.922 -1.07451 -1.00463 0
M  V30 3220 H 312.88 -0.763311 -4.10158 0
M  V30 3221 H 311.51 -0.0290413 -3.22787 0
M  V30 3222 H 310.562 -2.43017 -2.92655 0
M  V30 3223 H 311.874 -3.01468 -3.97389 0
M  V30 3224 H 311.028 -1.59484 -5.85363 0
M  V30 3225 H 309.767 -0.906678 -4.79198 0
M  V30 3226 H 308.772 -3.19004 -4.47791 0
M  V30 3227 H 309.997 -3.87918 -5.57401 0
M  V30 3228 H 307.943 -1.76238 -6.31883 0
M  V30 3229 H 307.86 -3.444 -6.72997 0
M  V30 3230 H 309.128 -2.45942 -7.39684 0
M  V30 3231 N 313.357 1.07166 -1.15556 0
M  V30 3232 C 314.287 2.16403 -0.877046 0
M  V30 3233 C 315.268 1.69217 0.173111 0
M  V30 3234 O 316.453 1.94181 0.027084 0
M  V30 3235 C 313.583 3.45349 -0.367632 0
M  V30 3236 C 312.537 4.05995 -1.35468 0
M  V30 3237 C 311.863 5.30045 -0.704038 0
M  V30 3238 C 313.163 4.45804 -2.72132 0
M  V30 3239 H 314.857 2.39959 -1.79053 0
M  V30 3240 H 312.403 1.15325 -0.862331 0
M  V30 3241 H 314.356 4.21095 -0.160317 0
M  V30 3242 H 313.08 3.21385 0.581326 0
M  V30 3243 H 311.739 3.32296 -1.54839 0
M  V30 3244 H 311.387 5.02373 0.251128 0
M  V30 3245 H 311.087 5.71579 -1.36277 0
M  V30 3246 H 312.611 6.08495 -0.50654 0
M  V30 3247 H 314.025 5.12671 -2.56595 0
M  V30 3248 H 312.422 4.98296 -3.34397 0
M  V30 3249 H 313.492 3.57083 -3.28054 0
M  V30 3250 N 314.835 0.952656 1.25548 0
M  V30 3251 C 315.765 0.489287 2.28316 0
M  V30 3252 C 316.746 -0.463359 1.63667 0
M  V30 3253 O 317.931 -0.36274 1.90782 0
M  V30 3254 C 315.061 -0.235603 3.465 0
M  V30 3255 C 314.015 0.631593 4.23314 0
M  V30 3256 C 313.341 -0.223923 5.34231 0
M  V30 3257 C 314.641 1.90871 4.86174 0
M  V30 3258 H 316.335 1.34822 2.67326 0
M  V30 3259 H 313.881 0.649728 1.28509 0
M  V30 3260 H 315.834 -0.570882 4.17515 0
M  V30 3261 H 314.558 -1.12877 3.06474 0
M  V30 3262 H 313.217 0.949929 3.54079 0
M  V30 3263 H 312.865 -1.11678 4.90446 0
M  V30 3264 H 312.565 0.35299 5.86539 0
M  V30 3265 H 314.089 -0.554214 6.0808 0
M  V30 3266 H 315.503 1.63997 5.49343 0
M  V30 3267 H 313.9 2.43112 5.4865 0
M  V30 3268 H 314.97 2.61304 4.08471 0
M  V30 3269 N 316.313 -1.40141 0.720998 0
M  V30 3270 C 317.246 -2.2819 0.020916 0
M  V30 3271 C 318.224 -1.43633 -0.762129 0
M  V30 3272 O 319.408 -1.7304 -0.747633 0
M  V30 3273 C 316.535 -3.24281 -0.977715 0
M  V30 3274 C 315.581 -4.25548 -0.284836 0
M  V30 3275 S 316.414 -5.26247 0.991169 0
M  V30 3276 C 317.57 -6.259 -0.0052214 0
M  V30 3277 H 317.803 -2.87218 0.767649 0
M  V30 3278 H 315.336 -1.45656 0.512233 0
M  V30 3279 H 317.294 -3.80167 -1.54865 0
M  V30 3280 H 315.955 -2.643 -1.69719 0
M  V30 3281 H 315.148 -4.93154 -1.03996 0
M  V30 3282 H 314.75 -3.73389 0.213684 0
M  V30 3283 H 317.042 -6.72143 -0.850279 0
M  V30 3284 H 317.985 -7.05224 0.637599 0
M  V30 3285 H 318.393 -5.63277 -0.371366 0
M  V30 3286 N 317.792 -0.46758 -1.50504 0
M  V30 3287 C 318.725 0.374324 -2.25109 0
M  V30 3288 C 319.703 0.99921 -1.28275 0
M  V30 3289 O 320.887 1.03583 -1.57489 0
M  V30 3290 C 318.014 1.52419 -3.02467 0
M  V30 3291 C 317.06 1.01702 -4.14197 0
M  V30 3292 S 317.893 -0.0654477 -5.3546 0
M  V30 3293 C 319.049 1.08837 -6.16365 0
M  V30 3294 H 319.282 -0.258983 -2.9617 0
M  V30 3295 H 316.815 -0.252421 -1.52323 0
M  V30 3296 H 318.773 2.18322 -3.47628 0
M  V30 3297 H 317.434 2.129 -2.30938 0
M  V30 3298 H 316.627 1.87776 -4.67714 0
M  V30 3299 H 316.229 0.435757 -3.71453 0
M  V30 3300 H 318.521 2.00071 -6.47285 0
M  V30 3301 H 319.464 0.592538 -7.05616 0
M  V30 3302 H 319.872 1.34061 -5.4835 0
M  V30 3303 N 319.27 1.56325 -0.20005 0
M  V30 3304 C 320.233 2.18084 0.705132 0
M  V30 3305 C 321.233 1.13666 1.1374 0
M  V30 3306 O 322.423 1.39023 1.04968 0
M  V30 3307 C 319.555 2.78689 1.96329 0
M  V30 3308 H 320.748 2.99435 0.167023 0
M  V30 3309 H 318.301 1.56221 0.0495725 0
M  V30 3310 H 319.036 2.0115 2.5438 0
M  V30 3311 H 318.821 3.55133 1.66202 0
M  V30 3312 H 320.311 3.26096 2.60866 0
M  V30 3313 N 320.748 -0.0735177 1.57428 0
M  V30 3314 C 321.996 -0.771472 1.86796 0
M  V30 3315 C 322.317 -1.78201 0.791804 0
M  V30 3316 O 321.587 -1.95074 -0.179718 0
M  V30 3317 H 320.167 -0.28791 0.689287 0
M  V30 3318 H 322.829 -0.0500161 1.94836 0
M  V30 3319 H 321.925 -1.28874 2.8425 0
M  V30 3320 N 322.226 -1.5378 -0.344866 0
M  V30 3321 C 323.475 -1.7018 -1.08267 0
M  V30 3322 C 323.788 -0.471 -1.89845 0
M  V30 3323 O 324.994 -0.515917 -2.66553 0
M  V30 3324 C 323.45 -3.00923 -1.97417 0
M  V30 3325 C 323.058 -4.31335 -1.21053 0
M  V30 3326 C 324.802 -3.26688 -2.71063 0
M  V30 3327 C 322.709 -5.53153 -2.09225 0
M  V30 3328 H 321.639 -0.634138 -0.407903 0
M  V30 3329 H 324.29 -1.8028 -0.342246 0
M  V30 3330 H 322.672 -2.84676 -2.75274 0
M  V30 3331 H 323.846 -4.58281 -0.481159 0
M  V30 3332 H 322.161 -4.12173 -0.591813 0
M  V30 3333 H 324.758 -4.1489 -3.37299 0
M  V30 3334 H 325.101 -2.43639 -3.37558 0
M  V30 3335 H 325.634 -3.43705 -2.0028 0
M  V30 3336 H 322.373 -6.38741 -1.47274 0
M  V30 3337 H 321.893 -5.30458 -2.79955 0
M  V30 3338 H 323.572 -5.88744 -2.68308 0
M  V30 3339 N 323.704 0.605807 -1.45491 0
M  V30 3340 C 324.981 1.36522 -1.40075 0
M  V30 3341 C 325.361 2.10976 -0.0722744 0
M  V30 3342 O 324.709 2.08007 0.945808 0
M  V30 3343 C 324.919 2.31056 -2.61561 0
M  V30 3344 C 326.267 2.93608 -3.06724 0
M  V30 3345 O 327.291 2.41376 -2.61946 0
M  V30 3346 O 326.15 3.88421 -3.84437 0
M  V30 3347 H 323.244 0.612248 -0.555951 0
M  V30 3348 H 325.79 0.628747 -1.57623 0
M  V30 3349 H 324.562 1.75311 -3.49831 0
M  V30 3350 H 324.185 3.12081 -2.46356 0
M  V30 3351 N 325.182 1.32811 0.848464 0
M  V30 3352 C 326.459 1.14334 1.58704 0
M  V30 3353 C 326.839 -0.293948 2.09043 0
M  V30 3354 O 326.187 -1.29153 1.88499 0
M  V30 3355 C 326.397 2.17626 2.72837 0
M  V30 3356 C 327.745 2.51282 3.42261 0
M  V30 3357 O 328.769 2.16219 2.83068 0
M  V30 3358 O 327.628 3.11413 4.49093 0
M  V30 3359 H 324.722 0.441601 0.699226 0
M  V30 3360 H 327.268 1.44362 0.892053 0
M  V30 3361 H 326.04 3.14211 2.3321 0
M  V30 3362 H 325.663 1.88628 3.50008 0
M  V30 3363 N 326.66 -1.06551 1.16123 0
M  V30 3364 C 327.9 -1.80889 0.951766 0
M  V30 3365 C 328.264 -1.85062 -0.511465 0
M  V30 3366 O 329.465 -2.55353 -0.83954 0
M  V30 3367 C 327.736 -3.21609 1.55893 0
M  V30 3368 S 329.295 -4.12593 1.49373 0
M  V30 3369 H 326.113 -0.623156 0.342341 0
M  V30 3370 H 328.715 -1.27943 1.47821 0
M  V30 3371 H 327.419 -3.16165 2.61664 0
M  V30 3372 H 326.95 -3.79631 1.0317 0
M  V30 3373 H 328.965 -4.93753 0.492196 0
M  V30 3374 N 328.138 -0.959301 -1.25041 0
M  V30 3375 C 329.368 -0.63303 -1.96663 0
M  V30 3376 C 329.776 0.800031 -1.71453 0
M  V30 3377 O 329.119 1.54736 -0.99008 0
M  V30 3378 C 329.181 -0.817523 -3.50081 0
M  V30 3379 C 328.845 -2.22863 -3.98975 0
M  V30 3380 C 329.842 -3.20569 -4.09306 0
M  V30 3381 C 327.527 -2.55407 -4.32519 0
M  V30 3382 C 329.521 -4.4891 -4.52503 0
M  V30 3383 C 327.208 -3.83976 -4.754 0
M  V30 3384 C 328.206 -4.8054 -4.85356 0
M  V30 3385 O 327.894 -6.06817 -5.27284 0
M  V30 3386 H 327.626 -0.235866 -0.633516 0
M  V30 3387 H 330.18 -1.2874 -1.60047 0
M  V30 3388 H 328.41 -0.105992 -3.86555 0
M  V30 3389 H 330.099 -0.491604 -4.02912 0
M  V30 3390 H 330.865 -2.96753 -3.83618 0
M  V30 3391 H 326.744 -1.8097 -4.23994 0
M  V30 3392 H 330.288 -5.24283 -4.60188 0
M  V30 3393 H 326.185 -4.07596 -5.00535 0
M  V30 3394 H 326.953 -6.10262 -5.45457 0
M  V30 3395 N 329.616 1.39756 -0.72842 0
M  V30 3396 C 330.844 2.04948 -0.283528 0
M  V30 3397 C 331.259 1.54908 1.0793 0
M  V30 3398 O 330.616 0.711135 1.68075 0
M  V30 3399 C 330.667 3.60498 -0.268957 0
M  V30 3400 O 330.388 4.08695 -1.57798 0
M  V30 3401 C 331.889 4.4288 0.192912 0
M  V30 3402 H 329.109 0.659243 -0.125056 0
M  V30 3403 H 331.653 1.78927 -0.990226 0
M  V30 3404 H 329.808 3.85444 0.388801 0
M  V30 3405 H 330.222 5.02977 -1.48709 0
M  V30 3406 H 331.696 5.51791 0.151952 0
M  V30 3407 H 332.173 4.21418 1.23708 0
M  V30 3408 H 332.779 4.23069 -0.435039 0
M  V30 3409 N 331.094 0.475555 1.50254 0
M  V30 3410 C 332.319 -0.0777042 2.07254 0
M  V30 3411 C 332.744 -1.3235 1.3366 0
M  V30 3412 O 332.102 -1.77152 0.385597 0
M  V30 3413 C 332.15 -0.340169 3.58992 0
M  V30 3414 O 331.254 -1.41982 3.87188 0
M  V30 3415 H 330.595 0.0149556 0.663832 0
M  V30 3416 H 333.125 0.667878 1.93392 0
M  V30 3417 H 333.135 -0.579332 4.03866 0
M  V30 3418 H 331.81 0.570167 4.11973 0
M  V30 3419 H 330.387 -1.16762 3.54148 0
M  V30 3420 N 332.573 -1.56217 0.208337 0
M  V30 3421 C 333.536 -2.18455 -0.693557 0
M  V30 3422 C 334.536 -1.14268 -1.13135 0
M  V30 3423 O 335.726 -1.39577 -1.0423 0
M  V30 3424 C 332.858 -2.79727 -1.94848 0
M  V30 3425 H 334.051 -2.99519 -0.15114 0
M  V30 3426 H 331.604 -1.56245 -0.041287 0
M  V30 3427 H 332.339 -2.02497 -2.53309 0
M  V30 3428 H 332.124 -3.56009 -1.64316 0
M  V30 3429 H 333.614 -3.27475 -2.59133 0
M  V30 3430 N 334.051 0.0651679 -1.57465 0
M  V30 3431 C 335.467 0.420105 -1.53972 0
M  V30 3432 C 335.667 1.78782 -0.929474 0
M  V30 3433 O 334.723 2.46771 -0.534839 0
M  V30 3434 C 336.036 0.355084 -2.98596 0
M  V30 3435 C 337.584 0.434792 -3.09965 0
M  V30 3436 C 338.059 0.399609 -4.56253 0
M  V30 3437 N 339.55 0.459488 -4.60915 0
M  V30 3438 C 340.285 0.454584 -5.71595 0
M  V30 3439 N 339.781 0.404102 -6.9162 0
M  V30 3440 N 341.574 0.501635 -5.59857 0
M  V30 3441 H 333.725 -0.830328 -1.95498 0
M  V30 3442 H 335.988 -0.312244 -0.895102 0
M  V30 3443 H 335.694 -0.583357 -3.46828 0
M  V30 3444 H 335.568 1.16275 -3.58831 0
M  V30 3445 H 337.955 1.36366 -2.61703 0
M  V30 3446 H 338.036 -0.40157 -2.52628 0
M  V30 3447 H 337.68 -0.525436 -5.05175 0
M  V30 3448 H 337.61 1.25359 -5.11461 0
M  V30 3449 H 340.101 0.502482 -3.74544 0
M  V30 3450 H 340.414 0.404468 -7.71741 0
M  V30 3451 H 338.759 0.37069 -6.94011 0
M  V30 3452 H 341.95 0.538812 -4.64989 0
M  V30 3453 H 342.123 0.494345 -6.46112 0
M  V30 3454 N 335.529 1.53961 0.336706 0
M  V30 3455 C 336.777 1.71197 1.07405 0
M  V30 3456 C 337.098 0.481475 1.88962 0
M  V30 3457 O 336.368 -0.504585 1.8929 0
M  V30 3458 H 334.948 0.631185 0.399517 0
M  V30 3459 H 337.61 1.91232 0.376323 0
M  V30 3460 H 336.706 2.58587 1.74755 0
M  V30 3461 N 337.007 -0.598083 1.45811 0
M  V30 3462 C 338.247 -1.36802 1.5187 0
M  V30 3463 C 338.611 -1.9133 0.160224 0
M  V30 3464 O 339.812 -2.6863 0.0955302 0
M  V30 3465 C 338.083 -2.47835 2.57513 0
M  V30 3466 S 339.642 -3.35458 2.82866 0
M  V30 3467 H 336.46 -0.466278 0.536755 0
M  V30 3468 H 339.062 -0.689152 1.82951 0
M  V30 3469 H 337.766 -2.06141 3.54872 0
M  V30 3470 H 337.297 -3.20512 2.28114 0
M  V30 3471 H 339.312 -4.46251 2.16967 0
M  V30 3472 N 338.485 -1.33259 -0.841409 0
M  V30 3473 C 339.713 -1.27605 -1.62864 0
M  V30 3474 C 340.128 0.153507 -1.88175 0
M  V30 3475 O 339.485 1.09485 -1.46011 0
M  V30 3476 C 339.536 -2.04596 -2.98031 0
M  V30 3477 O 339.257 -3.41975 -2.73834 0
M  V30 3478 C 340.758 -2.06122 -3.92465 0
M  V30 3479 H 337.978 -0.439718 -0.506842 0
M  V30 3480 H 340.522 -1.75591 -1.04824 0
M  V30 3481 H 338.677 -1.60299 -3.5268 0
M  V30 3482 H 339.091 -3.81549 -3.59889 0
M  V30 3483 H 340.565 -2.64451 -4.84531 0
M  V30 3484 H 341.042 -1.05083 -4.26444 0
M  V30 3485 H 341.648 -2.50427 -3.43753 0
M  V30 3486 N 339.963 1.05934 -1.16686 0
M  V30 3487 C 340.926 2.11669 -0.879144 0
M  V30 3488 C 341.926 1.60294 0.127445 0
M  V30 3489 O 343.116 1.7389 -0.103865 0
M  V30 3490 C 340.248 3.39438 -0.315425 0
M  V30 3491 H 341.441 2.38626 -1.81653 0
M  V30 3492 H 338.994 1.22058 -0.976299 0
M  V30 3493 H 339.729 3.18132 0.629468 0
M  V30 3494 H 339.514 3.78034 -1.04079 0
M  V30 3495 H 341.004 4.17391 -0.132189 0
M  V30 3496 N 341.441 0.965919 1.2453 0
M  V30 3497 C 342.669 0.644385 1.96609 0
M  V30 3498 C 343.084 -0.785823 1.71669 0
M  V30 3499 O 342.441 -1.52703 0.999399 0
M  V30 3500 C 342.492 0.907375 3.49927 0
M  V30 3501 O 342.213 2.28136 3.74013 0
M  V30 3502 C 343.714 0.599784 4.39224 0
M  V30 3503 H 340.934 0.240588 0.626385 0
M  V30 3504 H 343.478 1.29337 1.58405 0
M  V30 3505 H 341.633 0.304631 3.862 0
M  V30 3506 H 342.047 2.36002 4.68405 0
M  V30 3507 H 343.521 0.834263 5.45659 0
M  V30 3508 H 343.998 -0.465921 4.36722 0
M  V30 3509 H 344.604 1.18235 4.08535 0
M  V30 3510 N 342.919 -1.39368 0.735821 0
M  V30 3511 C 343.849 -2.33234 0.111506 0
M  V30 3512 C 344.83 -1.53954 -0.723334 0
M  V30 3513 O 346.015 -1.82344 -0.668147 0
M  V30 3514 C 343.145 -3.38057 -0.795917 0
M  V30 3515 C 342.099 -4.2795 -0.065172 0
M  V30 3516 C 341.425 -5.23479 -1.08967 0
M  V30 3517 C 342.725 -5.10741 1.09273 0
M  V30 3518 H 344.419 -2.85692 0.895571 0
M  V30 3519 H 341.965 -1.37364 0.432109 0
M  V30 3520 H 343.918 -4.02675 -1.24221 0
M  V30 3521 H 342.642 -2.8404 -1.61211 0
M  V30 3522 H 341.301 -3.64813 0.361511 0
M  V30 3523 H 340.949 -4.65758 -1.89944 0
M  V30 3524 H 340.649 -5.84472 -0.605489 0
M  V30 3525 H 342.173 -5.90974 -1.53565 0
M  V30 3526 H 343.587 -5.68699 0.724841 0
M  V30 3527 H 341.984 -5.8088 1.50659 0
M  V30 3528 H 343.054 -4.45525 1.91404 0
M  V30 3529 N 344.397 -0.483516 -1.5 0
M  V30 3530 C 345.645 0.067027 -2.01989 0
M  V30 3531 C 345.966 1.3909 -1.36671 0
M  V30 3532 O 345.236 1.88978 -0.516152 0
M  V30 3533 H 343.816 0.0277606 -0.746484 0
M  V30 3534 H 346.478 -0.636773 -1.84204 0
M  V30 3535 H 345.574 0.209484 -3.11396 0
M  V30 3536 N 345.875 1.56104 -0.216619 0
M  V30 3537 C 346.823 2.21434 0.712036 0
M  V30 3538 C 347.817 1.19218 1.20348 0
M  V30 3539 O 349.023 1.3731 1.16387 0
M  V30 3540 H 345.398 0.70992 0.248026 0
M  V30 3541 H 347.369 2.98083 0.137558 0
M  V30 3542 C 346.118 2.90434 1.91163 0
M  V30 3543 H 345.441 3.68842 1.54258 0
M  V30 3544 H 346.881 3.39552 2.5393 0
M  V30 3545 C 345.34 1.92635 2.76394 0
M  V30 3546 O 345.87 1.44017 3.74996 0
M  V30 3547 N 344.076 1.60392 2.42328 0
M  V30 3548 H 343.623 2.00122 1.622 0
M  V30 3549 H 343.581 0.952159 2.99635 0
M  V30 3550 N 347.353 -0.0568162 1.57498 0
M  V30 3551 C 348.6 -0.753104 1.87975 0
M  V30 3552 C 348.928 -1.76815 0.81035 0
M  V30 3553 O 348.183 -1.94756 -0.19199 0
M  V30 3554 C 348.482 -1.48359 3.25153 0
M  V30 3555 C 348.148 -0.60713 4.46794 0
M  V30 3556 C 346.81 -0.365642 4.79809 0
M  V30 3557 C 349.162 -0.000305978 5.212 0
M  V30 3558 C 346.49 0.491905 5.84634 0
M  V30 3559 C 348.842 0.844781 6.26934 0
M  V30 3560 C 347.506 1.096 6.58441 0
M  V30 3561 H 346.776 -0.27558 0.687849 0
M  V30 3562 H 349.423 -0.0135173 1.91495 0
M  V30 3563 H 347.728 -2.29577 3.17492 0
M  V30 3564 H 349.425 -2.02739 3.45974 0
M  V30 3565 H 346.015 -0.805487 4.20963 0
M  V30 3566 H 350.199 -0.173961 4.95995 0
M  V30 3567 H 345.455 0.695131 6.07436 0
M  V30 3568 H 349.629 1.32165 6.83744 0
M  V30 3569 H 347.256 1.76224 7.39492 0
M  V30 3570 N 348.832 -1.54138 -0.328536 0
M  V30 3571 C 349.795 -1.82462 -1.38709 0
M  V30 3572 C 350.795 -0.696229 -1.44946 0
M  V30 3573 O 351.985 -0.964535 -1.4506 0
M  V30 3574 C 349.117 -1.98018 -2.77492 0
M  V30 3575 H 350.31 -2.77037 -1.14851 0
M  V30 3576 H 347.863 -1.45779 -0.563751 0
M  V30 3577 H 348.598 -1.05637 -3.06613 0
M  V30 3578 H 348.383 -2.80124 -2.74359 0
M  V30 3579 H 349.873 -2.21396 -3.54081 0
M  V30 3580 N 350.31 0.590341 -1.46126 0
M  V30 3581 C 351.257 1.69994 -1.56111 0
M  V30 3582 C 352.227 1.61065 -0.405867 0
M  V30 3583 O 353.412 1.8039 -0.621613 0
M  V30 3584 C 350.552 3.08326 -1.55013 0
M  V30 3585 C 349.665 3.27936 -2.81215 0
M  V30 3586 C 348.8 4.56473 -2.71673 0
M  V30 3587 C 347.839 4.694 -3.92849 0
M  V30 3588 N 346.976 5.89254 -3.81738 0
M  V30 3589 H 351.816 1.60797 -2.50895 0
M  V30 3590 H 349.353 0.783799 -1.24479 0
M  V30 3591 H 351.311 3.88383 -1.52362 0
M  V30 3592 H 349.941 3.16439 -0.637667 0
M  V30 3593 H 348.993 2.41536 -2.93879 0
M  V30 3594 H 350.305 3.33357 -3.71045 0
M  V30 3595 H 349.459 5.44748 -2.67085 0
M  V30 3596 H 348.198 4.53477 -1.7947 0
M  V30 3597 H 347.203 3.79544 -3.97777 0
M  V30 3598 H 348.428 4.7418 -4.86138 0
M  V30 3599 H 346.374 5.87271 -2.92317 0
M  V30 3600 H 346.291 5.95911 -4.65217 0
M  V30 3601 H 347.559 6.79981 -3.81112 0
M  V30 3602 N 351.788 1.33704 0.83433 0
M  V30 3603 C 352.751 1.24244 1.92603 0
M  V30 3604 C 353.751 0.160383 1.59998 0
M  V30 3605 O 354.941 0.412228 1.69252 0
M  V30 3606 C 352.073 0.91555 3.28376 0
M  V30 3607 H 353.266 2.21287 2.02416 0
M  V30 3608 H 350.819 1.17827 1.02696 0
M  V30 3609 H 351.554 -0.0521886 3.24258 0
M  V30 3610 H 351.339 1.69811 3.53422 0
M  V30 3611 H 352.829 0.874231 4.08347 0
M  V30 3612 N 353.266 -1.05314 1.17247 0
M  V30 3613 C 354.494 -1.81971 0.984593 0
M  V30 3614 C 354.909 -1.82929 -0.467166 0
M  V30 3615 O 354.266 -1.25564 -1.32438 0
M  V30 3616 C 354.317 -3.28143 1.51672 0
M  V30 3617 O 354.038 -3.27347 2.91163 0
M  V30 3618 C 355.539 -4.21493 1.37326 0
M  V30 3619 H 352.759 -0.573455 0.348411 0
M  V30 3620 H 355.303 -1.32808 1.55506 0
M  V30 3621 H 353.458 -3.74582 0.988302 0
M  V30 3622 H 353.872 -4.18824 3.15732 0
M  V30 3623 H 355.346 -5.22043 1.79375 0
M  V30 3624 H 355.823 -4.38031 0.320169 0
M  V30 3625 H 356.429 -3.80909 1.89178 0
M  V30 3626 N 354.744 -0.972509 -1.24016 0
M  V30 3627 C 355.991 -0.637034 -1.92219 0
M  V30 3628 C 356.319 0.828418 -1.75976 0
M  V30 3629 O 355.574 1.61206 -1.10955 0
M  V30 3630 C 355.873 -0.963694 -3.44162 0
M  V30 3631 C 355.539 -2.41807 -3.80579 0
M  V30 3632 C 354.201 -2.81556 -3.9023 0
M  V30 3633 C 356.553 -3.36172 -3.98293 0
M  V30 3634 C 353.881 -4.14702 -4.15017 0
M  V30 3635 C 356.233 -4.68952 -4.24578 0
M  V30 3636 C 354.897 -5.08472 -4.32449 0
M  V30 3637 H 354.167 -0.233107 -0.703379 0
M  V30 3638 H 356.814 -1.2249 -1.47202 0
M  V30 3639 H 355.119 -0.29365 -3.90698 0
M  V30 3640 H 356.816 -0.682449 -3.9515 0
M  V30 3641 H 353.406 -2.09988 -3.73635 0
M  V30 3642 H 357.59 -3.06644 -3.90234 0
M  V30 3643 H 352.846 -4.4494 -4.19331 0
M  V30 3644 H 357.02 -5.42037 -4.37229 0
M  V30 3645 H 354.647 -6.11665 -4.51409 0
M  V30 3646 N 356.222 1.38976 -0.743202 0
M  V30 3647 C 357.499 1.94351 -0.220705 0
M  V30 3648 C 357.879 1.67935 1.2791 0
M  V30 3649 O 357.227 1.01211 2.04862 0
M  V30 3650 C 357.437 3.44426 -0.563171 0
M  V30 3651 C 358.785 4.2144 -0.517046 0
M  V30 3652 O 359.809 3.52661 -0.500846 0
M  V30 3653 O 358.668 5.44032 -0.518806 0
M  V30 3654 H 355.762 0.825879 -0.043047 0
M  V30 3655 H 358.308 1.48429 -0.822618 0
M  V30 3656 H 357.08 3.5712 -1.59941 0
M  V30 3657 H 356.703 3.97543 0.0672883 0
M  V30 3658 N 357.7 0.491464 1.49741 0
M  V30 3659 C 358.663 -0.280906 2.27472 0
M  V30 3660 C 359.663 -0.902454 1.33088 0
M  V30 3661 O 360.853 -0.768465 1.56334 0
M  V30 3662 C 357.985 -1.40209 3.10732 0
M  V30 3663 H 359.178 0.401056 2.97206 0
M  V30 3664 H 356.731 0.246131 1.5435 0
M  V30 3665 H 357.466 -2.11849 2.45541 0
M  V30 3666 H 357.251 -0.961969 3.80117 0
M  V30 3667 H 358.741 -1.9464 3.69466 0
M  V30 3668 N 359.178 -1.55987 0.224894 0
M  V30 3669 C 360.427 -1.97566 -0.406273 0
M  V30 3670 C 360.74 -1.11569 -1.6066 0
M  V30 3671 O 361.946 -1.43062 -2.3075 0
M  V30 3672 C 360.402 -3.51474 -0.774207 0
M  V30 3673 C 360.01 -4.46179 0.403496 0
M  V30 3674 C 361.754 -4.01758 -1.37079 0
M  V30 3675 C 359.661 -5.91399 0.0129412 0
M  V30 3676 H 358.591 -0.737777 -0.155565 0
M  V30 3677 H 361.242 -1.80659 0.321635 0
M  V30 3678 H 359.624 -3.63994 -1.55963 0
M  V30 3679 H 360.798 -4.45409 1.18101 0
M  V30 3680 H 359.113 -4.06255 0.913536 0
M  V30 3681 H 361.71 -5.07756 -1.67596 0
M  V30 3682 H 362.053 -3.47805 -2.28773 0
M  V30 3683 H 362.586 -3.92475 -0.648733 0
M  V30 3684 H 359.325 -6.49341 0.896451 0
M  V30 3685 H 358.845 -5.95356 -0.728821 0
M  V30 3686 H 360.524 -6.45683 -0.412582 0
M  V30 3687 N 360.656 0.0484629 -1.57525 0
M  V30 3688 C 361.881 0.759177 -1.93006 0
M  V30 3689 C 362.306 1.69125 -0.823317 0
M  V30 3690 O 361.664 1.79931 0.222364 0
M  V30 3691 C 361.712 1.50899 -3.27509 0
M  V30 3692 O 360.816 2.62112 -3.18388 0
M  V30 3693 H 360.157 0.205564 -0.631379 0
M  V30 3694 H 362.687 0.00972959 -2.04598 0
M  V30 3695 H 362.697 1.88317 -3.6194 0
M  V30 3696 H 361.372 0.825269 -4.0763 0
M  V30 3697 H 359.949 2.27379 -2.95556 0
M  V30 3698 N 362.134 1.5431 0.320358 0
M  V30 3699 C 363.081 1.83918 1.39438 0
M  V30 3700 C 364.051 0.686525 1.51248 0
M  V30 3701 O 365.236 0.933269 1.66417 0
M  V30 3702 C 362.376 2.075 2.75749 0
M  V30 3703 C 361.489 3.35177 2.72544 0
M  V30 3704 C 360.624 3.48704 4.00723 0
M  V30 3705 C 359.663 4.70244 3.91838 0
M  V30 3706 N 358.8 4.80679 5.11754 0
M  V30 3707 H 363.64 2.75544 1.13489 0
M  V30 3708 H 361.177 1.36459 0.549309 0
M  V30 3709 H 363.135 2.19166 3.54996 0
M  V30 3710 H 361.765 1.19163 3 0
M  V30 3711 H 360.817 3.32233 1.85271 0
M  V30 3712 H 362.129 4.24534 2.61863 0
M  V30 3713 H 361.283 3.59928 4.88402 0
M  V30 3714 H 360.022 2.57445 4.14214 0
M  V30 3715 H 359.027 4.59072 3.02544 0
M  V30 3716 H 360.252 5.6289 3.7991 0
M  V30 3717 H 358.198 3.92337 5.25745 0
M  V30 3718 H 358.115 5.64007 5.0342 0
M  V30 3719 H 359.383 4.96239 6.01138 0
M  V30 3720 N 363.613 -0.582584 1.46437 0
M  V30 3721 C 364.841 -1.36682 1.55324 0
M  V30 3722 C 365.256 -1.87796 0.194409 0
M  V30 3723 O 364.613 -1.63623 -0.808318 0
M  V30 3724 C 364.664 -2.55426 2.55812 0
M  V30 3725 O 364.385 -2.0643 3.86417 0
M  V30 3726 C 365.886 -3.47976 2.74641 0
M  V30 3727 H 363.106 -0.417545 0.525259 0
M  V30 3728 H 365.65 -0.708219 1.91845 0
M  V30 3729 H 363.805 -3.17275 2.22295 0
M  V30 3730 H 364.219 -2.83762 4.41111 0
M  V30 3731 H 365.693 -4.27775 3.48874 0
M  V30 3732 H 366.17 -3.99919 1.81553 0
M  V30 3733 H 366.776 -2.91962 3.09255 0
M  V30 3734 N 365.091 -1.34144 -0.827227 0
M  V30 3735 C 366.321 -1.29138 -1.61267 0
M  V30 3736 C 366.729 0.137597 -1.88699 0
M  V30 3737 O 366.072 1.09379 -1.47587 0
M  V30 3738 C 366.134 -2.0097 -2.9808 0
M  V30 3739 C 365.798 -3.50242 -2.93563 0
M  V30 3740 C 366.795 -4.4523 -2.68452 0
M  V30 3741 C 364.48 -3.92592 -3.13331 0
M  V30 3742 C 366.474 -5.80542 -2.63154 0
M  V30 3743 C 364.161 -5.28005 -3.07658 0
M  V30 3744 C 365.159 -6.21792 -2.82602 0
M  V30 3745 O 364.847 -7.54723 -2.76853 0
M  V30 3746 H 364.579 -0.445851 -0.508127 0
M  V30 3747 H 367.133 -1.77263 -1.03763 0
M  V30 3748 H 365.363 -1.47451 -3.57484 0
M  V30 3749 H 367.052 -1.89309 -3.5905 0
M  V30 3750 H 367.818 -4.13832 -2.52919 0
M  V30 3751 H 363.697 -3.19994 -3.31851 0
M  V30 3752 H 367.241 -6.53717 -2.43516 0
M  V30 3753 H 363.138 -5.59023 -3.22743 0
M  V30 3754 H 363.906 -7.64409 -2.92611 0
M  V30 3755 N 366.569 1.04691 -1.17803 0
M  V30 3756 C 367.794 1.81984 -0.994813 0
M  V30 3757 C 368.219 1.82586 0.452112 0
M  V30 3758 O 367.577 1.23854 1.324 0
M  V30 3759 C 367.625 3.2575 -1.54659 0
M  V30 3760 O 366.729 4.05267 -0.763728 0
M  V30 3761 H 366.07 0.562483 -0.352857 0
M  V30 3762 H 368.6 1.3189 -1.56417 0
M  V30 3763 H 368.61 3.76541 -1.57102 0
M  V30 3764 H 367.285 3.24627 -2.59981 0
M  V30 3765 H 365.862 3.63972 -0.811108 0
M  V30 3766 N 368.047 0.979072 1.23499 0
M  V30 3767 C 369.277 0.664237 1.95631 0
M  V30 3768 C 369.685 -0.772653 1.72704 0
M  V30 3769 O 369.028 -1.53141 1.01457 0
M  V30 3770 C 369.09 0.873115 3.48736 0
M  V30 3771 C 368.754 2.29182 3.95379 0
M  V30 3772 C 369.751 3.2704 4.04155 0
M  V30 3773 C 367.436 2.62256 4.28401 0
M  V30 3774 C 369.43 4.56052 4.45304 0
M  V30 3775 C 367.117 3.91491 4.69231 0
M  V30 3776 C 368.115 4.88201 4.77649 0
M  V30 3777 O 367.803 6.15129 5.17563 0
M  V30 3778 H 367.535 0.245915 0.629684 0
M  V30 3779 H 370.089 1.3127 1.57979 0
M  V30 3780 H 368.319 0.167476 3.86337 0
M  V30 3781 H 370.008 0.555642 4.02079 0
M  V30 3782 H 370.774 3.02819 3.78848 0
M  V30 3783 H 366.653 1.87692 4.21061 0
M  V30 3784 H 370.197 5.31538 4.51789 0
M  V30 3785 H 366.094 4.15508 4.93987 0
M  V30 3786 H 366.862 6.18862 5.35679 0
M  V30 3787 N 369.525 -1.3858 0.750561 0
M  V30 3788 C 370.455 -2.33102 0.136237 0
M  V30 3789 C 371.436 -1.54713 -0.706965 0
M  V30 3790 O 372.621 -1.83043 -0.648769 0
M  V30 3791 C 369.751 -3.38882 -0.760017 0
M  V30 3792 C 368.705 -4.27995 -0.0197785 0
M  V30 3793 C 368.031 -5.24605 -1.03408 0
M  V30 3794 C 369.331 -5.09554 1.14684 0
M  V30 3795 H 371.025 -2.84726 0.925822 0
M  V30 3796 H 368.571 -1.36898 0.446654 0
M  V30 3797 H 370.524 -4.0397 -1.19943 0
M  V30 3798 H 369.248 -2.85734 -1.58189 0
M  V30 3799 H 367.907 -3.64409 0.400184 0
M  V30 3800 H 367.555 -4.67746 -1.84994 0
M  V30 3801 H 367.255 -5.85081 -0.543464 0
M  V30 3802 H 368.779 -5.9257 -1.47288 0
M  V30 3803 H 370.193 -5.67899 0.785118 0
M  V30 3804 H 368.59 -5.7925 1.56812 0
M  V30 3805 H 369.66 -4.4347 1.96118 0
M  V30 3806 N 371.003 -0.499398 -1.49478 0
M  V30 3807 C 372.231 0.0425456 -2.06856 0
M  V30 3808 C 372.646 1.30964 -1.35992 0
M  V30 3809 O 372.003 1.77172 -0.437762 0
M  V30 3810 C 372.054 0.301735 -3.60239 0
M  V30 3811 O 371.775 -0.915127 -4.28436 0
M  V30 3812 C 373.276 0.887499 -4.34325 0
M  V30 3813 H 370.496 -0.0197482 -0.670709 0
M  V30 3814 H 373.04 -0.696297 -1.92281 0
M  V30 3815 H 371.195 0.990556 -3.74522 0
M  V30 3816 H 371.609 -0.676993 -5.20113 0
M  V30 3817 H 373.083 1.01845 -5.42523 0
M  V30 3818 H 373.56 1.88488 -3.96698 0
M  V30 3819 H 374.166 0.236196 -4.24644 0
M  V30 3820 N 372.481 1.55866 -0.233164 0
M  V30 3821 C 373.892 1.847 0.272554 0
M  V30 3822 C 374.243 1.15477 1.58617 0
M  V30 3823 O 373.368 0.42841 2.12117 0
M  V30 3824 C 373.963 3.35071 0.501299 0
M  V30 3825 C 372.522 3.6418 0.951304 0
M  V30 3826 C 371.669 2.77292 0.0208209 0
M  V30 3827 H 374.62 1.52005 -0.456074 0
M  V30 3828 H 374.641 3.55906 1.34577 0
M  V30 3829 H 374.153 3.85424 -0.454936 0
M  V30 3830 H 372.254 3.19293 1.92049 0
M  V30 3831 H 372.367 4.72071 0.817675 0
M  V30 3832 H 370.731 2.49131 0.529723 0
M  V30 3833 H 371.514 3.30448 -0.93054 0
M  V30 3834 N 373.959 -0.0401083 1.57549 0
M  V30 3835 C 375.236 -0.767917 1.79896 0
M  V30 3836 C 375.616 -1.9416 0.82856 0
M  V30 3837 O 374.964 -2.2812 -0.131671 0
M  V30 3838 C 375.174 -1.2113 3.27305 0
M  V30 3839 C 376.522 -1.63175 3.91994 0
M  V30 3840 O 377.546 -1.30616 3.31388 0
M  V30 3841 O 376.405 -2.23565 4.98679 0
M  V30 3842 H 373.499 -0.370441 0.739393 0
M  V30 3843 H 376.045 -0.017737 1.69691 0
M  V30 3844 H 374.817 -0.372937 3.89519 0
M  V30 3845 H 374.44 -2.02183 3.42356 0
M  V30 3846 N 375.437 -1.54477 -0.31217 0
M  V30 3847 C 376.367 -1.87652 -1.38957 0
M  V30 3848 C 377.348 -0.734358 -1.53431 0
M  V30 3849 O 378.533 -0.98911 -1.67123 0
M  V30 3850 C 375.663 -2.11396 -2.75552 0
M  V30 3851 C 374.617 -3.27243 -2.75855 0
M  V30 3852 C 373.943 -3.36382 -4.15633 0
M  V30 3853 C 375.243 -4.64622 -2.38587 0
M  V30 3854 H 376.937 -2.77887 -1.11442 0
M  V30 3855 H 374.483 -1.33707 -0.534655 0
M  V30 3856 H 376.436 -2.33189 -3.51 0
M  V30 3857 H 375.16 -1.17921 -3.04569 0
M  V30 3858 H 373.819 -3.05356 -2.02863 0
M  V30 3859 H 373.467 -2.40445 -4.41809 0
M  V30 3860 H 373.167 -4.14249 -4.1674 0
M  V30 3861 H 374.691 -3.60422 -4.92877 0
M  V30 3862 H 376.105 -4.86219 -3.03749 0
M  V30 3863 H 374.502 -5.45121 -2.50925 0
M  V30 3864 H 375.572 -4.66097 -1.33723 0
M  V30 3865 N 376.915 0.57481 -1.46744 0
M  V30 3866 C 378.161 1.33251 -1.53674 0
M  V30 3867 C 378.516 1.91468 -0.189125 0
M  V30 3868 O 377.809 1.73954 0.803151 0
M  V30 3869 C 378.003 2.476 -2.57738 0
M  V30 3870 C 377.832 2.00586 -4.02487 0
M  V30 3871 C 376.602 1.85237 -4.70123 0
M  V30 3872 C 378.8 1.56078 -4.90045 0
M  V30 3873 N 376.782 1.32377 -5.99458 0
M  V30 3874 C 378.153 1.14863 -6.09267 0
M  V30 3875 C 380.208 1.43968 -4.76632 0
M  V30 3876 C 378.911 0.627435 -7.16558 0
M  V30 3877 C 380.937 0.932512 -5.84002 0
M  V30 3878 C 380.299 0.53019 -7.02402 0
M  V30 3879 H 376.398 0.480284 -0.617131 0
M  V30 3880 H 378.982 0.653592 -1.83402 0
M  V30 3881 H 377.153 3.13045 -2.29907 0
M  V30 3882 H 378.885 3.14567 -2.54616 0
M  V30 3883 H 375.64 2.07423 -4.25761 0
M  V30 3884 H 376.064 1.08085 -6.68316 0
M  V30 3885 H 380.706 1.73689 -3.85476 0
M  V30 3886 H 378.424 0.317821 -8.07475 0
M  V30 3887 H 382.01 0.842611 -5.75666 0
M  V30 3888 H 380.89 0.14381 -7.84068 0
M  V30 3889 N 378.394 1.34581 0.820102 0
M  V30 3890 C 379.341 1.2639 1.93117 0
M  V30 3891 C 380.311 0.138554 1.65521 0
M  V30 3892 O 381.496 0.320004 1.88097 0
M  V30 3893 C 378.636 1.02812 3.29429 0
M  V30 3894 C 377.749 2.24146 3.693 0
M  V30 3895 C 376.884 1.93829 4.94574 0
M  V30 3896 C 375.923 3.1129 5.27034 0
M  V30 3897 N 375.06 2.80838 6.43486 0
M  V30 3898 H 379.9 2.21408 1.99455 0
M  V30 3899 H 377.437 1.10077 0.975784 0
M  V30 3900 H 379.395 0.871788 4.0799 0
M  V30 3901 H 378.025 0.114612 3.22596 0
M  V30 3902 H 377.077 2.50691 2.86109 0
M  V30 3903 H 378.389 3.11899 3.89257 0
M  V30 3904 H 377.543 1.74948 5.80929 0
M  V30 3905 H 376.282 1.03341 4.76626 0
M  V30 3906 H 375.287 3.30764 4.39175 0
M  V30 3907 H 376.512 4.02561 5.4692 0
M  V30 3908 H 374.458 1.92929 6.26988 0
M  V30 3909 H 374.375 3.62123 6.63629 0
M  V30 3910 H 375.643 2.65467 7.32903 0
M  V30 3911 N 379.872 -1.04064 1.18357 0
M  V30 3912 C 380.782 -2.15569 0.925596 0
M  V30 3913 C 381.798 -1.7365 -0.110295 0
M  V30 3914 O 382.974 -2.01273 0.0716218 0
M  V30 3915 C 380.039 -3.43704 0.454836 0
M  V30 3916 C 379.1 -4.00004 1.55869 0
M  V30 3917 C 378.333 -5.22023 1.1103 0
M  V30 3918 O 378.556 -5.70392 -0.0309756 0
M  V30 3919 O 377.49 -5.70856 1.90805 0
M  V30 3920 H 381.316 -2.40187 1.8586 0
M  V30 3921 H 378.901 -1.1402 0.965394 0
M  V30 3922 H 380.783 -4.20923 0.200382 0
M  V30 3923 H 379.458 -3.20559 -0.449876 0
M  V30 3924 H 378.365 -3.24172 1.86716 0
M  V30 3925 H 379.698 -4.2749 2.43953 0
M  V30 3926 N 381.35 -0.985608 -1.22978 0
M  V30 3927 C 382.578 -0.675582 -1.95559 0
M  V30 3928 C 382.993 0.758413 -1.72897 0
M  V30 3929 O 382.35 1.51094 -1.02357 0
M  V30 3930 C 382.401 -0.96293 -3.48439 0
M  V30 3931 O 382.122 -2.34057 -3.70336 0
M  V30 3932 C 383.623 -0.669585 -4.38214 0
M  V30 3933 H 380.843 -0.250523 -0.622478 0
M  V30 3934 H 383.387 -1.3184 -1.56328 0
M  V30 3935 H 381.542 -0.366033 -3.85667 0
M  V30 3936 H 381.956 -2.43424 -4.64591 0
M  V30 3937 H 383.43 -0.920967 -5.44263 0
M  V30 3938 H 383.907 0.396383 -4.37408 0
M  V30 3939 H 384.513 -1.2472 -4.06602 0
M  V30 3940 N 382.828 1.3818 -0.7579 0
M  V30 3941 C 384.074 2.00316 -0.316453 0
M  V30 3942 C 384.407 1.60026 1.10025 0
M  V30 3943 O 383.682 0.839835 1.75434 0
M  V30 3944 C 383.965 3.57349 -0.444245 0
M  V30 3945 C 383.818 4.07591 -1.90236 0
M  V30 3946 C 385.137 4.3981 0.1598 0
M  V30 3947 H 382.256 0.727741 -0.116459 0
M  V30 3948 H 384.898 1.6406 -0.958352 0
M  V30 3949 H 383.048 3.88365 0.102233 0
M  V30 3950 H 384.72 3.87199 -2.50748 0
M  V30 3951 H 382.963 3.60297 -2.41595 0
M  V30 3952 H 383.634 5.16677 -1.94291 0
M  V30 3953 H 386.11 4.14971 -0.306314 0
M  V30 3954 H 384.986 5.48885 0.0401675 0
M  V30 3955 H 385.247 4.24102 1.24859 0
M  V30 3956 N 384.306 0.507319 1.49211 0
M  V30 3957 C 385.553 -0.0349529 2.0247 0
M  V30 3958 C 385.881 -1.36409 1.38647 0
M  V30 3959 O 385.136 -1.88841 0.513566 0
M  V30 3960 C 385.435 -0.229513 3.56662 0
M  V30 3961 C 385.101 1.02241 4.39156 0
M  V30 3962 C 383.763 1.36557 4.61417 0
M  V30 3963 C 386.115 1.85428 4.871 0
M  V30 3964 C 383.443 2.53999 5.28868 0
M  V30 3965 C 385.795 3.02028 5.55843 0
M  V30 3966 C 384.459 3.36717 5.76349 0
M  V30 3967 H 383.729 -0.0127902 0.74089 0
M  V30 3968 H 386.376 0.668756 1.79443 0
M  V30 3969 H 384.681 -1.0158 3.78403 0
M  V30 3970 H 386.378 -0.663641 3.9547 0
M  V30 3971 H 382.968 0.745124 4.22073 0
M  V30 3972 H 387.152 1.6023 4.69723 0
M  V30 3973 H 382.408 2.81105 5.42946 0
M  V30 3974 H 386.582 3.66808 5.91967 0
M  V30 3975 H 384.209 4.27821 6.28389 0
M  V30 3976 N 385.784 -1.5574 0.241426 0
M  V30 3977 C 387.012 -2.03208 -0.389134 0
M  V30 3978 C 387.427 -1.12082 -1.51931 0
M  V30 3979 O 386.784 -0.134183 -1.82006 0
M  V30 3980 C 386.835 -3.50064 -0.902087 0
M  V30 3981 O 386.556 -4.37717 0.18305 0
M  V30 3982 C 388.057 -4.13268 -1.60389 0
M  V30 3983 H 385.277 -0.664509 -0.0931053 0
M  V30 3984 H 387.821 -2.0124 0.36369 0
M  V30 3985 H 385.976 -3.52583 -1.60511 0
M  V30 3986 H 386.39 -5.24097 -0.205579 0
M  V30 3987 H 387.864 -5.17733 -1.91458 0
M  V30 3988 H 388.341 -3.59434 -2.52397 0
M  V30 3989 H 388.947 -4.14655 -0.945576 0
M  V30 3990 N 387.262 0.0317525 -1.57568 0
M  V30 3991 C 388.209 1.0332 -2.06382 0
M  V30 3992 C 389.179 1.36082 -0.952414 0
M  V30 3993 O 390.364 1.46466 -1.2228 0
M  V30 3994 C 387.504 2.32989 -2.54578 0
M  V30 3995 C 386.617 2.0641 -3.79498 0
M  V30 3996 C 385.752 3.2993 -4.16317 0
M  V30 3997 C 384.791 2.98893 -5.34162 0
M  V30 3998 N 383.928 4.14857 -5.66426 0
M  V30 3999 H 388.768 0.609982 -2.9169 0
M  V30 4000 H 386.305 0.289573 -1.44222 0
M  V30 4001 H 388.263 3.0875 -2.80587 0
M  V30 4002 H 386.893 2.73039 -1.7219 0
M  V30 4003 H 385.945 1.21158 -3.6059 0
M  V30 4004 H 387.257 1.79513 -4.65378 0
M  V30 4005 H 386.411 4.1406 -4.4344 0
M  V30 4006 H 385.15 3.59938 -3.29083 0
M  V30 4007 H 384.155 2.13164 -5.06795 0
M  V30 4008 H 385.38 2.70165 -6.23047 0
M  V30 4009 H 383.326 4.44821 -4.82151 0
M  V30 4010 H 383.243 3.91374 -6.4681 0
M  V30 4011 H 384.511 4.99868 -5.98124 0
M  V30 4012 N 388.74 1.54641 0.303973 0
M  V30 4013 C 389.965 1.78092 1.06292 0
M  V30 4014 C 390.39 0.537342 1.80262 0
M  V30 4015 O 389.748 -0.511993 1.7392 0
M  V30 4016 C 389.796 2.98612 2.02147 0
M  V30 4017 O 388.9 2.71528 3.10397 0
M  V30 4018 H 388.241 0.589548 0.305497 0
M  V30 4019 H 390.771 2.01716 0.3423 0
M  V30 4020 H 390.781 3.265 2.44667 0
M  V30 4021 H 389.456 3.88785 1.47714 0
M  V30 4022 H 388.033 2.54648 2.72413 0
M  V30 4023 N 390.218 -0.567019 1.47046 0
M  V30 4024 C 391.629 -1.14916 1.47143 0
M  V30 4025 C 391.98 -1.94954 0.220767 0
M  V30 4026 O 391.105 -2.05602 -0.67505 0
M  V30 4027 C 391.7 -2.09069 2.666 0
M  V30 4028 C 390.259 -2.62575 2.69687 0
M  V30 4029 C 389.406 -1.38755 2.40088 0
M  V30 4030 H 392.357 -0.354126 1.54699 0
M  V30 4031 H 392.378 -2.92789 2.43011 0
M  V30 4032 H 391.89 -1.50789 3.57609 0
M  V30 4033 H 389.991 -3.24681 1.82792 0
M  V30 4034 H 390.104 -3.04239 3.70102 0
M  V30 4035 H 388.468 -1.69098 1.90468 0
M  V30 4036 H 389.251 -0.822822 3.33293 0
M  V30 4037 N 391.696 -1.35014 -0.812953 0
M  V30 4038 C 392.926 -1.30841 -1.59888 0
M  V30 4039 C 393.334 0.117576 -1.88834 0
M  V30 4040 O 392.677 1.07807 -1.48739 0
M  V30 4041 C 392.739 -2.0412 -2.95931 0
M  V30 4042 C 392.403 -3.53336 -2.89832 0
M  V30 4043 C 393.4 -4.48052 -2.63714 0
M  V30 4044 C 391.085 -3.95894 -3.0915 0
M  V30 4045 C 393.079 -5.833 -2.56982 0
M  V30 4046 C 390.766 -5.31239 -3.0204 0
M  V30 4047 C 391.764 -6.24754 -2.75991 0
M  V30 4048 O 391.452 -7.57617 -2.68833 0
M  V30 4049 H 391.184 -0.451215 -0.50337 0
M  V30 4050 H 393.738 -1.78354 -1.01877 0
M  V30 4051 H 391.968 -1.51235 -3.559 0
M  V30 4052 H 393.657 -1.93107 -3.57022 0
M  V30 4053 H 394.423 -4.16492 -2.48515 0
M  V30 4054 H 390.302 -3.23495 -3.28438 0
M  V30 4055 H 393.846 -6.56263 -2.36569 0
M  V30 4056 H 389.743 -5.62415 -3.16796 0
M  V30 4057 H 390.511 -7.67469 -2.84487 0
M  V30 4058 N 393.175 1.03435 -1.18907 0
M  V30 4059 C 394.107 2.1165 -0.879595 0
M  V30 4060 C 395.12 1.62316 0.125439 0
M  V30 4061 O 396.309 1.78201 -0.103245 0
M  V30 4062 C 393.409 3.37622 -0.294042 0
M  V30 4063 C 392.582 4.16166 -1.34629 0
M  V30 4064 C 391.641 5.20457 -0.775274 0
M  V30 4065 O 390.667 5.50379 -1.4516 0
M  V30 4066 N 391.869 5.78949 0.424126 0
M  V30 4067 H 394.634 2.38791 -1.81105 0
M  V30 4068 H 392.195 1.19681 -1.09032 0
M  V30 4069 H 394.187 4.04572 0.101679 0
M  V30 4070 H 392.757 3.07873 0.541575 0
M  V30 4071 H 391.977 3.44444 -1.91707 0
M  V30 4072 H 393.265 4.65432 -2.05549 0
M  V30 4073 H 392.663 5.56948 0.991209 0
M  V30 4074 H 391.22 6.47334 0.761691 0
M  V30 4075 N 394.653 0.992116 1.22453 0
M  V30 4076 C 395.563 0.55065 2.28046 0
M  V30 4077 C 396.579 -0.400189 1.69335 0
M  V30 4078 O 397.755 -0.267215 1.99619 0
M  V30 4079 C 394.82 -0.128496 3.46462 0
M  V30 4080 C 393.881 0.865208 4.20491 0
M  V30 4081 C 393.114 0.218377 5.33253 0
M  V30 4082 O 393.337 -0.987894 5.6178 0
M  V30 4083 O 392.271 0.922845 5.94783 0
M  V30 4084 H 396.097 1.4291 2.67975 0
M  V30 4085 H 393.682 0.760326 1.28606 0
M  V30 4086 H 395.564 -0.508947 4.18315 0
M  V30 4087 H 394.239 -0.981526 3.0846 0
M  V30 4088 H 393.146 1.29658 3.50913 0
M  V30 4089 H 394.479 1.68741 4.62371 0
M  V30 4090 N 396.131 -1.37776 0.765217 0
M  V30 4091 C 397.378 -1.99849 0.326588 0
M  V30 4092 C 397.706 -1.60746 -1.09504 0
M  V30 4093 O 396.961 -0.84202 -1.76659 0
M  V30 4094 C 397.26 -3.5504 0.410053 0
M  V30 4095 C 396.926 -4.13891 1.78899 0
M  V30 4096 C 395.588 -4.29678 2.16635 0
M  V30 4097 C 397.94 -4.46236 2.69301 0
M  V30 4098 C 395.268 -4.7511 3.44221 0
M  V30 4099 C 397.62 -4.93089 3.9629 0
M  V30 4100 C 396.284 -5.07082 4.34078 0
M  V30 4101 H 395.554 -0.7313 0.119507 0
M  V30 4102 H 398.201 -1.64645 0.977968 0
M  V30 4103 H 396.506 -3.90451 -0.324878 0
M  V30 4104 H 398.203 -4.00966 0.0520699 0
M  V30 4105 H 394.793 -4.02026 1.48569 0
M  V30 4106 H 398.977 -4.3363 2.41409 0
M  V30 4107 H 394.233 -4.84129 3.73402 0
M  V30 4108 H 398.407 -5.17084 4.66472 0
M  V30 4109 H 396.034 -5.42046 5.33001 0
M  V30 4110 N 397.609 -0.515225 -1.4894 0
M  V30 4111 C 398.837 0.0206034 -2.0689 0
M  V30 4112 C 399.252 1.29514 -1.37374 0
M  V30 4113 O 398.609 1.76698 -0.456529 0
M  V30 4114 C 398.66 0.26351 -3.60538 0
M  V30 4115 O 398.381 -0.960517 -4.27441 0
M  V30 4116 C 399.882 0.841383 -4.35242 0
M  V30 4117 H 397.102 -0.0268608 -0.670462 0
M  V30 4118 H 399.646 -0.716651 -1.91532 0
M  V30 4119 H 397.801 0.950777 -3.75552 0
M  V30 4120 H 398.215 -0.73212 -5.19365 0
M  V30 4121 H 399.689 0.96085 -5.43573 0
M  V30 4122 H 400.166 1.8427 -3.98674 0
M  V30 4123 H 400.772 0.191143 -4.2487 0
M  V30 4124 N 399.087 1.5561 -0.249682 0
M  V30 4125 C 400.364 1.90932 0.424761 0
M  V30 4126 C 400.744 1.17078 1.75658 0
M  V30 4127 O 400.092 0.289176 2.26663 0
M  V30 4128 C 400.302 3.43975 0.590109 0
M  V30 4129 C 401.65 4.15281 0.884714 0
M  V30 4130 O 402.674 3.49729 0.67587 0
M  V30 4131 O 401.533 5.31236 1.28259 0
M  V30 4132 H 398.627 0.794815 0.228468 0
M  V30 4133 H 401.173 1.67135 -0.293954 0
M  V30 4134 H 399.945 3.89748 -0.34818 0
M  V30 4135 H 399.568 3.73644 1.35926 0
M  V30 4136 N 400.565 -0.0233959 1.57583 0
M  V30 4137 C 401.515 -1.03023 2.03397 0
M  V30 4138 C 402.499 -1.31701 0.924315 0
M  V30 4139 O 403.691 -1.31191 1.18819 0
M  V30 4140 C 400.82 -2.32961 2.52159 0
M  V30 4141 C 399.906 -2.07349 3.69956 0
M  V30 4142 N 400.297 -1.51814 4.82479 0
M  V30 4143 C 398.595 -2.37606 3.77438 0
M  V30 4144 C 399.296 -1.42136 5.64068 0
M  V30 4145 N 398.272 -1.89891 5.09355 0
M  V30 4146 H 402.074 -0.594962 2.87815 0
M  V30 4147 H 399.588 -0.229586 1.60769 0
M  V30 4148 H 401.585 -3.05906 2.83244 0
M  V30 4149 H 400.245 -2.77162 1.69149 0
M  V30 4150 H 401.256 -1.20008 5.03804 0
M  V30 4151 H 397.933 -2.84842 3.05239 0
M  V30 4152 H 399.323 -0.996405 6.64471 0
M  V30 4153 N 402.043 -1.548 -0.295768 0
M  V30 4154 C 402.973 -1.89115 -1.36959 0
M  V30 4155 C 403.954 -0.75059 -1.52644 0
M  V30 4156 O 405.139 -1.00678 -1.66065 0
M  V30 4157 C 402.269 -2.14307 -2.73295 0
M  V30 4158 C 401.223 -3.30151 -2.72368 0
M  V30 4159 C 400.549 -3.40772 -4.12042 0
M  V30 4160 C 401.849 -4.67126 -2.33646 0
M  V30 4161 H 403.543 -2.79053 -1.08488 0
M  V30 4162 H 401.089 -1.34266 -0.520443 0
M  V30 4163 H 403.042 -2.36898 -3.48507 0
M  V30 4164 H 401.766 -1.21145 -3.03301 0
M  V30 4165 H 400.425 -3.0749 -1.99613 0
M  V30 4166 H 400.073 -2.45117 -4.39234 0
M  V30 4167 H 399.773 -4.18645 -4.12322 0
M  V30 4168 H 401.297 -3.6563 -4.89027 0
M  V30 4169 H 402.711 -4.89414 -2.98575 0
M  V30 4170 H 401.108 -5.47751 -2.45129 0
M  V30 4171 H 402.178 -4.67489 -1.28772 0
M  V30 4172 N 403.521 0.559213 -1.47345 0
M  V30 4173 C 404.767 1.31843 -1.54095 0
M  V30 4174 C 405.1 1.93149 -0.201726 0
M  V30 4175 O 404.375 1.77759 0.789428 0
M  V30 4176 C 404.658 2.43006 -2.65744 0
M  V30 4177 C 404.511 1.86581 -4.09277 0
M  V30 4178 C 405.83 3.44943 -2.73318 0
M  V30 4179 H 402.949 0.478012 -0.560957 0
M  V30 4180 H 405.591 0.625977 -1.79392 0
M  V30 4181 H 403.741 3.02072 -2.44305 0
M  V30 4182 H 405.413 1.31792 -4.42073 0
M  V30 4183 H 403.656 1.17268 -4.17649 0
M  V30 4184 H 404.327 2.66933 -4.83168 0
M  V30 4185 H 406.803 2.95793 -2.92653 0
M  V30 4186 H 405.679 4.20153 -3.53218 0
M  V30 4187 H 405.94 4.03665 -1.80296 0
M  V30 4188 N 404.999 1.35443 0.805782 0
M  V30 4189 C 405.946 1.28431 1.91766 0
M  V30 4190 C 406.916 0.156102 1.65365 0
M  V30 4191 O 408.101 0.339936 1.87747 0
M  V30 4192 C 405.241 1.06301 3.2832 0
M  V30 4193 C 404.354 2.2805 3.66902 0
M  V30 4194 C 403.489 1.99064 4.92491 0
M  V30 4195 C 402.528 3.16863 5.23703 0
M  V30 4196 N 401.665 2.87647 6.40471 0
M  V30 4197 H 406.505 2.23511 1.97096 0
M  V30 4198 H 404.042 1.11105 0.964054 0
M  V30 4199 H 406 0.915012 4.07042 0
M  V30 4200 H 404.63 0.148822 3.22457 0
M  V30 4201 H 403.682 2.53711 2.83434 0
M  V30 4202 H 404.994 3.1601 3.85927 0
M  V30 4203 H 404.148 1.81099 5.7904 0
M  V30 4204 H 402.887 1.0839 4.75503 0
M  V30 4205 H 401.892 3.35404 4.35642 0
M  V30 4206 H 403.117 4.08339 5.4262 0
M  V30 4207 H 401.063 1.99568 6.24907 0
M  V30 4208 H 400.98 3.69141 6.59751 0
M  V30 4209 H 402.248 2.73226 7.30047 0
M  V30 4210 N 406.477 -1.02803 1.19454 0
M  V30 4211 C 407.705 -1.79841 1.02297 0
M  V30 4212 C 408.12 -1.83879 -0.428259 0
M  V30 4213 O 407.477 -1.28345 -1.29745 0
M  V30 4214 C 407.528 -3.24852 1.58598 0
M  V30 4215 O 407.249 -3.21097 2.98041 0
M  V30 4216 C 408.75 -4.18485 1.46236 0
M  V30 4217 H 405.97 -0.565936 0.360496 0
M  V30 4218 H 408.514 -1.2948 1.58288 0
M  V30 4219 H 406.669 -3.72401 1.06753 0
M  V30 4220 H 407.083 -4.12033 3.24545 0
M  V30 4221 H 408.557 -5.18121 1.90407 0
M  V30 4222 H 409.034 -4.37254 0.41301 0
M  V30 4223 H 409.64 -3.76811 1.97215 0
M  V30 4224 N 407.956 -0.998596 -1.21925 0
M  V30 4225 C 408.906 -0.524743 -2.21879 0
M  V30 4226 C 409.89 0.41017 -1.55584 0
M  V30 4227 O 411.082 0.236063 -1.75419 0
M  V30 4228 C 408.211 0.153636 -3.42956 0
M  V30 4229 C 407.297 -0.801918 -4.16449 0
M  V30 4230 N 407.688 -1.95211 -4.66611 0
M  V30 4231 C 405.986 -0.618972 -4.41684 0
M  V30 4232 C 406.687 -2.55234 -5.22715 0
M  V30 4233 N 405.663 -1.83451 -5.1171 0
M  V30 4234 H 409.465 -1.40189 -2.58311 0
M  V30 4235 H 406.979 -0.86159 -1.3766 0
M  V30 4236 H 408.976 0.510534 -4.13762 0
M  V30 4237 H 407.636 1.02684 -3.08036 0
M  V30 4238 H 408.647 -2.33271 -4.62391 0
M  V30 4239 H 405.324 0.207694 -4.16983 0
M  V30 4240 H 406.714 -3.52471 -5.72026 0
M  V30 4241 N 409.434 1.37368 -0.772513 0
M  V30 4242 C 410.662 2.03942 -0.348588 0
M  V30 4243 C 411.077 1.58264 1.02947 0
M  V30 4244 O 410.434 0.764246 1.65727 0
M  V30 4245 C 410.485 3.5946 -0.38351 0
M  V30 4246 O 410.206 4.03468 -1.70721 0
M  V30 4247 C 411.707 4.4327 0.0519152 0
M  V30 4248 H 408.927 0.654931 -0.145966 0
M  V30 4249 H 411.471 1.75686 -1.04665 0
M  V30 4250 H 409.626 3.86486 0.265978 0
M  V30 4251 H 410.04 4.97991 -1.64636 0
M  V30 4252 H 411.514 5.51995 -0.0236733 0
M  V30 4253 H 411.991 4.2514 1.10238 0
M  V30 4254 H 412.597 4.21471 -0.569415 0
M  V30 4255 N 410.912 0.523116 1.48665 0
M  V30 4256 C 412.328 0.180511 1.58576 0
M  V30 4257 C 412.528 -1.31597 1.52592 0
M  V30 4258 O 411.584 -2.0937 1.4114 0
M  V30 4259 C 412.897 0.776949 2.90489 0
M  V30 4260 C 414.445 0.745058 3.04003 0
M  V30 4261 C 414.92 1.31995 4.38567 0
M  V30 4262 N 416.411 1.28162 4.45117 0
M  V30 4263 C 417.146 1.6964 5.47731 0
M  V30 4264 N 416.642 2.18816 6.57337 0
M  V30 4265 N 418.435 1.6092 5.38573 0
M  V30 4266 H 410.586 1.4958 1.50797 0
M  V30 4267 H 412.849 0.621772 0.715614 0
M  V30 4268 H 412.555 1.82732 3.00503 0
M  V30 4269 H 412.429 0.25007 3.7637 0
M  V30 4270 H 414.816 -0.296532 2.93606 0
M  V30 4271 H 414.897 1.30933 2.1975 0
M  V30 4272 H 414.541 2.36043 4.49718 0
M  V30 4273 H 414.471 0.731418 5.21496 0
M  V30 4274 H 416.962 0.92155 3.66491 0
M  V30 4275 H 417.275 2.48478 7.31764 0
M  V30 4276 H 415.62 2.22805 6.58318 0
M  V30 4277 H 418.811 1.22304 4.5184 0
M  V30 4278 H 418.984 1.93567 6.18414 0
M  V30 4279 N 412.39 -1.55475 0.257931 0
M  V30 4280 C 413.636 -1.99502 -0.364266 0
M  V30 4281 C 413.969 -1.146 -1.56782 0
M  V30 4282 O 413.244 -0.211968 -1.93342 0
M  V30 4283 C 413.527 -3.51917 -0.763333 0
M  V30 4284 C 413.38 -4.4758 0.446371 0
M  V30 4285 C 414.699 -4.09742 -1.60623 0
M  V30 4286 H 411.818 -0.725277 -0.130929 0
M  V30 4287 H 414.46 -1.8653 0.361446 0
M  V30 4288 H 412.61 -3.63101 -1.38166 0
M  V30 4289 H 414.282 -4.48362 1.08487 0
M  V30 4290 H 412.525 -4.19947 1.08753 0
M  V30 4291 H 413.196 -5.51862 0.123645 0
M  V30 4292 H 415.672 -4.01727 -1.08418 0
M  V30 4293 H 414.548 -5.16631 -1.85429 0
M  V30 4294 H 414.809 -3.58889 -2.58169 0
M  V30 4295 N 413.868 0.0150385 -1.57593 0
M  V30 4296 C 415.093 0.718067 -1.94573 0
M  V30 4297 C 415.518 1.6734 -0.859005 0
M  V30 4298 O 414.876 1.80362 0.184147 0
M  V30 4299 C 414.924 1.43918 -3.30636 0
M  V30 4300 O 414.028 2.55299 -3.23876 0
M  V30 4301 H 413.369 0.192125 -0.635597 0
M  V30 4302 H 415.899 -0.0336708 -2.04572 0
M  V30 4303 H 415.909 1.80598 -3.65853 0
M  V30 4304 H 414.584 0.738619 -4.09289 0
M  V30 4305 H 413.161 2.21058 -3.00312 0
M  V30 4306 N 415.346 1.54954 0.287554 0
M  V30 4307 C 416.592 1.75132 1.02257 0
M  V30 4308 C 416.925 0.542858 1.86458 0
M  V30 4309 O 416.2 -0.459856 1.88986 0
M  V30 4310 C 416.483 3.04812 1.91733 0
M  V30 4311 C 416.336 4.35985 1.10622 0
M  V30 4312 C 417.655 3.30438 2.90687 0
M  V30 4313 H 414.774 0.637194 0.370341 0
M  V30 4314 H 417.416 1.87678 0.296111 0
M  V30 4315 H 415.566 2.94247 2.53675 0
M  V30 4316 H 417.238 4.58487 0.508636 0
M  V30 4317 H 415.481 4.31865 0.409271 0
M  V30 4318 H 416.152 5.23017 1.76513 0
M  V30 4319 H 418.628 3.40701 2.38877 0
M  V30 4320 H 417.504 4.22467 3.50447 0
M  V30 4321 H 417.765 2.49377 3.65053 0
M  V30 4322 N 416.824 -0.551391 1.4764 0
M  V30 4323 C 417.756 -1.67333 1.56628 0
M  V30 4324 C 418.769 -1.56398 0.452045 0
M  V30 4325 O 419.958 -1.6325 0.721926 0
M  V30 4326 C 417.058 -3.05841 1.45994 0
M  V30 4327 C 416.231 -3.42472 2.72088 0
M  V30 4328 C 415.29 -4.60168 2.55209 0
M  V30 4329 O 414.316 -4.64458 3.2904 0
M  V30 4330 N 415.518 -5.57024 1.63416 0
M  V30 4331 H 418.283 -1.60066 2.53375 0
M  V30 4332 H 415.844 -0.738169 1.44093 0
M  V30 4333 H 417.836 -3.8242 1.32428 0
M  V30 4334 H 416.406 -3.07302 0.573071 0
M  V30 4335 H 415.626 -2.55284 3.00373 0
M  V30 4336 H 416.914 -3.63723 3.55785 0
M  V30 4337 H 416.312 -5.56319 1.02594 0
M  V30 4338 H 414.869 -6.32906 1.558 0
M  V30 4339 N 418.302 -1.35869 -0.798587 0
M  V30 4340 C 419.718 -1.16082 -1.09532 0
M  V30 4341 C 419.918 0.0213124 -2.01489 0
M  V30 4342 O 418.974 0.689488 -2.42904 0
M  V30 4343 C 420.287 -2.46748 -1.7186 0
M  V30 4344 C 421.835 -2.53028 -1.84244 0
M  V30 4345 C 422.31 -3.83758 -2.49988 0
M  V30 4346 N 423.801 -3.85053 -2.57465 0
M  V30 4347 C 424.536 -4.8294 -3.09122 0
M  V30 4348 N 424.032 -5.91217 -3.61157 0
M  V30 4349 N 425.825 -4.70369 -3.0775 0
M  V30 4350 H 417.976 -2.11571 -0.187461 0
M  V30 4351 H 420.239 -0.936726 -0.145765 0
M  V30 4352 H 419.945 -3.33471 -1.11759 0
M  V30 4353 H 419.819 -2.61883 -2.71472 0
M  V30 4354 H 422.206 -1.66729 -2.43486 0
M  V30 4355 H 422.287 -2.418 -0.834643 0
M  V30 4356 H 421.931 -4.70459 -1.91393 0
M  V30 4357 H 421.861 -3.92278 -3.5132 0
M  V30 4358 H 424.352 -3.06822 -2.20609 0
M  V30 4359 H 424.665 -6.61892 -3.98896 0
M  V30 4360 H 423.01 -5.94899 -3.59333 0
M  V30 4361 H 426.201 -3.84914 -2.66381 0
M  V30 4362 H 426.374 -5.46816 -3.47701 0
M  V30 4363 N 419.78 1.02168 -1.19998 0
M  V30 4364 C 421.008 1.79296 -1.03249 0
M  V30 4365 C 421.423 1.84103 0.418502 0
M  V30 4366 O 420.78 1.29031 1.29063 0
M  V30 4367 C 420.831 3.24007 -1.60319 0
M  V30 4368 O 420.552 3.19512 -2.99739 0
M  V30 4369 C 422.053 4.17704 -1.48453 0
M  V30 4370 H 419.273 0.564016 -0.363493 0
M  V30 4371 H 421.817 1.28639 -1.58973 0
M  V30 4372 H 419.972 3.7183 -1.08727 0
M  V30 4373 H 420.386 4.10306 -3.26725 0
M  V30 4374 H 421.86 5.17104 -1.93153 0
M  V30 4375 H 422.337 4.37029 -0.436193 0
M  V30 4376 H 422.943 3.7576 -1.99211 0
M  V30 4377 N 421.258 1.00505 1.21394 0
M  V30 4378 C 422.19 0.52372 2.23136 0
M  V30 4379 C 423.203 -0.387714 1.58116 0
M  V30 4380 O 424.392 -0.187905 1.77508 0
M  V30 4381 C 421.492 -0.258885 3.3791 0
M  V30 4382 C 420.665 0.651634 4.32519 0
M  V30 4383 C 419.724 -0.0813705 5.26137 0
M  V30 4384 O 418.75 0.537295 5.66658 0
M  V30 4385 N 419.952 -1.35992 5.64346 0
M  V30 4386 H 422.717 1.39865 2.65062 0
M  V30 4387 H 420.278 0.881196 1.35818 0
M  V30 4388 H 422.27 -0.758208 3.97534 0
M  V30 4389 H 420.84 -1.035 2.94968 0
M  V30 4390 H 420.06 1.33145 3.71034 0
M  V30 4391 H 421.348 1.27129 4.92662 0
M  V30 4392 H 420.746 -1.88368 5.33417 0
M  V30 4393 H 419.303 -1.8042 6.26332 0
M  V30 4394 N 422.737 -1.36956 0.779787 0
M  V30 4395 C 423.7 -2.2851 0.177662 0
M  V30 4396 C 424.7 -1.48393 -0.619377 0
M  V30 4397 O 425.89 -1.68505 -0.441785 0
M  V30 4398 C 423.022 -3.32428 -0.755279 0
M  V30 4399 H 424.215 -2.83269 0.984823 0
M  V30 4400 H 421.768 -1.46358 0.548544 0
M  V30 4401 H 422.503 -2.82808 -1.58714 0
M  V30 4402 H 422.288 -3.91659 -0.185817 0
M  V30 4403 H 423.778 -4.00824 -1.17174 0
M  V30 4404 N 424.215 -0.530993 -1.48385 0
M  V30 4405 C 425.626 -0.0907905 -1.86479 0
M  V30 4406 C 425.977 1.33213 -1.44044 0
M  V30 4407 O 425.102 1.99783 -0.831615 0
M  V30 4408 C 425.697 -0.157987 -3.38431 0
M  V30 4409 C 424.256 0.227026 -3.75715 0
M  V30 4410 C 423.403 -0.5173 -2.72432 0
M  V30 4411 H 426.354 -0.742186 -1.40276 0
M  V30 4412 H 426.375 0.630053 -3.75247 0
M  V30 4413 H 425.887 -1.19372 -3.69286 0
M  V30 4414 H 423.988 1.26486 -3.50474 0
M  V30 4415 H 424.101 -0.113288 -4.78966 0
M  V30 4416 H 422.465 0.0365527 -2.54674 0
M  V30 4417 H 423.248 -1.55368 -3.0613 0
M  V30 4418 N 425.693 1.55336 -0.266172 0
M  V30 4419 C 426.656 2.20878 0.612001 0
M  V30 4420 C 427.656 1.18388 1.08816 0
M  V30 4421 O 428.846 1.4335 0.989774 0
M  V30 4422 C 425.978 2.86765 1.84332 0
M  V30 4423 H 427.171 2.99873 0.0398718 0
M  V30 4424 H 424.724 1.56291 -0.0167309 0
M  V30 4425 H 425.459 2.11759 2.45619 0
M  V30 4426 H 425.244 3.61862 1.5099 0
M  V30 4427 H 426.734 3.36867 2.46801 0
M  V30 4428 N 427.171 -0.0066808 1.57599 0
M  V30 4429 C 428.417 -0.693947 1.90558 0
M  V30 4430 C 428.75 -1.73792 0.866594 0
M  V30 4431 O 428.025 -1.94156 -0.115548 0
M  V30 4432 C 428.308 -1.34317 3.34112 0
M  V30 4433 C 428.161 -0.311189 4.48722 0
M  V30 4434 C 429.48 -2.27116 3.7697 0
M  V30 4435 H 426.599 -0.250803 0.693013 0
M  V30 4436 H 429.241 0.043242 1.89951 0
M  V30 4437 H 427.391 -1.9715 3.3476 0
M  V30 4438 H 429.063 0.316944 4.6021 0
M  V30 4439 H 427.306 0.367253 4.32243 0
M  V30 4440 H 427.977 -0.804366 5.46108 0
M  V30 4441 H 430.453 -1.74306 3.77831 0
M  V30 4442 H 429.329 -2.69511 4.78179 0
M  V30 4443 H 429.59 -3.14743 3.10466 0
M  V30 4444 N 428.649 -1.55105 -0.279332 0
M  V30 4445 C 429.612 -1.86783 -1.32834 0
M  V30 4446 C 430.612 -0.74199 -1.42657 0
M  V30 4447 O 431.802 -1.0102 -1.41918 0
M  V30 4448 C 428.934 -2.06746 -2.71052 0
M  V30 4449 H 430.127 -2.8055 -1.05979 0
M  V30 4450 H 427.68 -1.47499 -0.517087 0
M  V30 4451 H 428.415 -1.15339 -3.03097 0
M  V30 4452 H 428.2 -2.88711 -2.65309 0
M  V30 4453 H 429.69 -2.32549 -3.46858 0
M  V30 4454 N 430.127 0.543554 -1.4793 0
M  V30 4455 C 431.355 1.32516 -1.58894 0
M  V30 4456 C 431.77 1.87215 -0.244131 0
M  V30 4457 O 431.127 1.65709 0.764652 0
M  V30 4458 C 431.178 2.48554 -2.62494 0
M  V30 4459 O 430.899 1.96112 -3.91755 0
M  V30 4460 C 432.4 3.40572 -2.8377 0
M  V30 4461 H 429.62 0.403472 -0.536145 0
M  V30 4462 H 432.164 0.657106 -1.93655 0
M  V30 4463 H 430.319 3.1127 -2.30629 0
M  V30 4464 H 430.733 2.71967 -4.4848 0
M  V30 4465 H 432.207 4.18375 -3.60093 0
M  V30 4466 H 432.684 3.94965 -1.92092 0
M  V30 4467 H 433.29 2.8366 -3.16887 0
M  V30 4468 N 431.605 1.3629 0.791371 0
M  V30 4469 C 432.833 1.33562 1.58016 0
M  V30 4470 C 433.248 -0.0835616 1.88615 0
M  V30 4471 O 432.605 -1.0399 1.49974 0
M  V30 4472 C 432.656 2.15517 2.90232 0
M  V30 4473 O 432.377 3.51902 2.60953 0
M  V30 4474 C 433.878 2.20546 3.84544 0
M  V30 4475 H 431.098 0.458226 0.490173 0
M  V30 4476 H 433.642 1.79361 0.982345 0
M  V30 4477 H 431.797 1.73278 3.46487 0
M  V30 4478 H 432.211 3.94644 3.4548 0
M  V30 4479 H 433.685 2.82252 4.74382 0
M  V30 4480 H 434.162 1.20838 4.2225 0
M  V30 4481 H 434.768 2.63013 3.34222 0
M  V30 4482 O 433.122 -0.93083 1.31977 0
M  V30 4483 H 433.813 -1.56227 1.14512 0
M  V30 END ATOM
M  V30 BEGIN BOND
M  V30 END BOND
M  V30 END CTAB
M  END
$$$$
