drugbank_target|P15879 Mono-ADP-ribosyltransferase C3 (DB02147)
 OpenBabel12092119543D

  0  0  0     0  0            999 V3000
M  V30 BEGIN CTAB
M  V30 COUNTS 3961 3995 0 0 0
M  V30 BEGIN ATOM
M  V30 1 H -0.908 1.98254 -0.117106 0
M  V30 2 N 0 1.576 0 0
M  V30 3 C 0.933 2.03868 1.02534 0
M  V30 4 C 1.911 0.928543 1.3348 0
M  V30 5 O 3.095 1.19667 1.45644 0
M  V30 6 C 0.222 2.43627 2.35294 0
M  V30 7 C -0.732 3.65373 2.2001 0
M  V30 8 S 0.101 5.13292 1.52614 0
M  V30 9 C 1.257 5.56322 2.86805 0
M  V30 10 H 1.49 2.90518 0.631377 0
M  V30 11 H -0.977 1.52953 0.210867 0
M  V30 12 H 0.981 2.67203 3.11629 0
M  V30 13 H -0.358 1.57376 2.7183 0
M  V30 14 H -1.165 3.90944 3.18086 0
M  V30 15 H -1.563 3.418 1.51819 0
M  V30 16 H 0.729 5.58782 3.83104 0
M  V30 17 H 1.672 6.56266 2.65933 0
M  V30 18 H 2.08 4.83886 2.90714 0
M  V30 19 N 1.4781 -0.272755 1.55222 0
M  V30 20 C 2.4251 -1.33716 1.88119 0
M  V30 21 C 3.3951 -1.49066 0.73271 0
M  V30 22 O 4.5801 -1.63469 0.984002 0
M  V30 23 C 1.7201 -2.69238 2.15882 0
M  V30 24 C 0.8331 -2.62108 3.43399 0
M  V30 25 C -0.0319 -3.89811 3.60861 0
M  V30 26 C -0.9929 -3.77193 4.8207 0
M  V30 27 N -1.8559 -4.9673 4.96189 0
M  V30 28 H 2.9841 -1.04962 2.78903 0
M  V30 29 H 0.5211 -0.507088 1.38083 0
M  V30 30 H 2.4791 -3.48089 2.29978 0
M  V30 31 H 1.1091 -2.96194 1.28331 0
M  V30 32 H 0.1611 -1.74967 3.37773 0
M  V30 33 H 1.4731 -2.48685 4.32386 0
M  V30 34 H 0.6271 -4.77103 3.74777 0
M  V30 35 H -0.6339 -4.06102 2.7006 0
M  V30 36 H -1.6289 -2.88284 4.68159 0
M  V30 37 H -0.4039 -3.62421 5.74307 0
M  V30 38 H -2.4579 -5.13431 4.08319 0
M  V30 39 H -2.5409 -4.85839 5.79221 0
M  V30 40 H -1.2729 -5.85594 5.1449 0
M  V30 41 N 2.9562 -1.48159 -0.537278 0
M  V30 42 C 4.2042 -1.55497 -1.29094 0
M  V30 43 C 4.5252 -0.227454 -1.93669 0
M  V30 44 O 3.7952 0.750386 -1.80959 0
M  V30 45 H 2.3752 -0.572832 -0.47945 0
M  V30 46 H 5.0372 -1.84579 -0.625818 0
M  V30 47 H 4.1332 -2.33216 -2.07405 0
M  V30 48 N 4.4343 0.785586 -1.36625 0
M  V30 49 C 5.3643 1.91259 -1.33949 0
M  V30 50 C 6.3453 1.68795 -0.210325 0
M  V30 51 O 7.5303 1.89854 -0.408561 0
M  V30 52 C 4.6603 3.28339 -1.13186 0
M  V30 53 C 3.6143 3.65335 -2.22967 0
M  V30 54 C 2.9403 5.00806 -1.87342 0
M  V30 55 C 4.2403 3.7352 -3.65075 0
M  V30 56 H 5.9343 1.93755 -2.28253 0
M  V30 57 H 3.4803 0.930788 -1.09874 0
M  V30 58 H 5.4333 4.06804 -1.09948 0
M  V30 59 H 4.1573 3.2624 -0.153332 0
M  V30 60 H 2.8163 2.89169 -2.25337 0
M  V30 61 H 2.4643 4.95233 -0.880545 0
M  V30 62 H 2.1643 5.26529 -2.60846 0
M  V30 63 H 3.6883 5.81687 -1.85667 0
M  V30 64 H 5.1023 4.42168 -3.64911 0
M  V30 65 H 3.4993 4.10731 -4.37516 0
M  V30 66 H 4.5693 2.74527 -3.99703 0
M  V30 67 N 5.9124 1.20967 1.01018 0
M  V30 68 C 7.3284 0.965905 1.27053 0
M  V30 69 C 7.5284 -0.350785 1.98423 0
M  V30 70 O 6.5844 -1.07773 2.28344 0
M  V30 71 C 7.8974 2.15294 2.09926 0
M  V30 72 C 9.4454 2.19463 2.23171 0
M  V30 73 C 9.9204 3.3767 3.09424 0
M  V30 74 N 11.4114 3.37724 3.17012 0
M  V30 75 C 12.1464 4.25837 3.83993 0
M  V30 76 N 11.6424 5.24138 4.53047 0
M  V30 77 N 13.4354 4.1366 3.80581 0
M  V30 78 H 5.5864 2.0565 0.531194 0
M  V30 79 H 7.8494 0.90024 0.297106 0
M  V30 80 H 7.5554 3.10684 1.64828 0
M  V30 81 H 7.4294 2.13923 3.10672 0
M  V30 82 H 9.8164 1.24632 2.6749 0
M  V30 83 H 9.8974 2.2488 1.21912 0
M  V30 84 H 9.5414 4.32791 2.65808 0
M  V30 85 H 9.4714 3.29491 4.10784 0
M  V30 86 H 11.9624 2.6658 2.6785 0
M  V30 87 H 12.2754 5.87684 5.01844 0
M  V30 88 H 10.6204 5.28068 4.5185 0
M  V30 89 H 13.8114 3.36127 3.25785 0
M  V30 90 H 13.9844 4.82538 4.32505 0
M  V30 91 N 7.3905 -1.2043 1.01659 0
M  V30 92 C 8.3375 -2.23215 0.586822 0
M  V30 93 C 9.3075 -1.61382 -0.393085 0
M  V30 94 O 10.4925 -1.88544 -0.292525 0
M  V30 95 C 7.6325 -3.45032 -0.0687464 0
M  V30 96 C 6.7455 -4.21296 0.955724 0
M  V30 97 C 5.8805 -5.30507 0.271208 0
M  V30 98 C 4.9195 -5.98515 1.28244 0
M  V30 99 N 4.0565 -6.99316 0.62459 0
M  V30 100 H 8.8965 -2.59336 1.46796 0
M  V30 101 H 6.4335 -1.27431 0.734836 0
M  V30 102 H 8.3915 -4.1459 -0.465965 0
M  V30 103 H 7.0215 -3.09604 -0.913529 0
M  V30 104 H 6.0735 -3.50803 1.4711 0
M  V30 105 H 7.3855 -4.6803 1.72479 0
M  V30 106 H 6.5395 -6.06428 -0.18151 0
M  V30 107 H 5.2785 -4.8481 -0.530163 0
M  V30 108 H 4.2835 -5.21355 1.74554 0
M  V30 109 H 5.5085 -6.46298 2.08509 0
M  V30 110 H 3.4545 -6.55812 -0.156914 0
M  V30 111 H 3.3715 -7.44178 1.33172 0
M  V30 112 H 4.6395 -7.79255 0.195462 0
M  V30 113 N 8.8686 -0.792821 -1.36206 0
M  V30 114 C 10.0936 -0.377701 -2.03932 0
M  V30 115 C 10.5186 0.998947 -1.59382 0
M  V30 116 O 9.8766 1.64421 -0.763903 0
M  V30 117 C 9.9246 -0.453635 -3.57735 0
M  V30 118 O 9.0286 0.538151 -4.08874 0
M  V30 119 H 8.3696 -0.159855 -0.644471 0
M  V30 120 H 10.8996 -1.07488 -1.7409 0
M  V30 121 H 10.9096 -0.318464 -4.06755 0
M  V30 122 H 9.5846 -1.45784 -3.89512 0
M  V30 123 H 8.1616 0.364359 -3.71116 0
M  V30 124 N 10.3467 1.47872 -0.545128 0
M  V30 125 C 11.5957 2.01695 -0.0145033 0
M  V30 126 C 11.9087 1.42609 1.33873 0
M  V30 127 O 13.1147 1.88021 1.95858 0
M  V30 128 C 11.5707 3.59892 0.0245068 0
M  V30 129 C 11.1787 4.27966 -1.32475 0
M  V30 130 C 12.9227 4.21507 0.50316 0
M  V30 131 C 10.8297 5.78136 -1.2455 0
M  V30 132 H 9.7597 0.753998 -0.00165172 0
M  V30 133 H 12.4107 1.69985 -0.691175 0
M  V30 134 H 10.7927 3.88509 0.766575 0
M  V30 135 H 11.9667 4.11003 -2.08357 0
M  V30 136 H 10.2817 3.78286 -1.74036 0
M  V30 137 H 12.8787 5.31538 0.580656 0
M  V30 138 H 13.2217 3.87855 1.51243 0
M  V30 139 H 13.7547 3.97376 -0.183681 0
M  V30 140 H 10.4937 6.16388 -2.23039 0
M  V30 141 H 10.0137 5.97469 -0.528282 0
M  V30 142 H 11.6927 6.40099 -0.942488 0
M  V30 143 N 11.8248 0.280983 1.55075 0
M  V30 144 C 12.7548 -0.597469 2.25727 0
M  V30 145 C 13.7358 -1.15417 1.24952 0
M  V30 146 O 14.9208 -1.18722 1.53684 0
M  V30 147 C 12.0508 -1.7789 2.98283 0
M  V30 148 C 11.0048 -1.35347 4.06036 0
M  V30 149 C 10.3308 -2.61846 4.66198 0
M  V30 150 C 11.6308 -0.499354 5.19907 0
M  V30 151 H 13.3248 -0.00824265 2.99399 0
M  V30 152 H 10.8708 -0.0025244 1.44 0
M  V30 153 H 12.8238 -2.39937 3.46422 0
M  V30 154 H 11.5478 -2.39405 2.22155 0
M  V30 155 H 10.2068 -0.756156 3.58717 0
M  V30 156 H 9.8548 -3.21632 3.86732 0
M  V30 157 H 9.5548 -2.3409 5.38958 0
M  V30 158 H 11.0788 -3.24732 5.1709 0
M  V30 159 H 12.4928 -1.02498 5.64063 0
M  V30 160 H 10.8898 -0.316424 5.99265 0
M  V30 161 H 11.9598 0.480459 4.82514 0
M  V30 162 N 13.3029 -1.57598 0.00835791 0
M  V30 163 C 14.5429 -1.92788 -0.679136 0
M  V30 164 C 14.9069 -0.883378 -1.70471 0
M  V30 165 O 16.1079 -1.12079 -2.44319 0
M  V30 166 C 14.3789 -3.32994 -1.29807 0
M  V30 167 S 15.9379 -3.90082 -2.00952 0
M  V30 168 H 12.7559 -0.67475 -0.224127 0
M  V30 169 H 15.3579 -1.95385 0.0670497 0
M  V30 170 H 14.0619 -4.06846 -0.538922 0
M  V30 171 H 13.5929 -3.33791 -2.082 0
M  V30 172 H 15.6079 -3.71834 -3.28563 0
M  V30 173 N 14.781 0.264519 -1.55364 0
M  V30 174 C 15.711 1.33121 -1.91836 0
M  V30 175 C 16.692 1.51101 -0.781192 0
M  V30 176 O 17.877 1.64003 -1.04003 0
M  V30 177 C 15.007 2.68921 -2.19769 0
M  V30 178 C 13.961 2.65661 -3.35571 0
M  V30 179 C 13.287 4.05093 -3.49004 0
M  V30 180 C 14.587 2.24187 -4.71739 0
M  V30 181 H 16.281 1.02844 -2.81182 0
M  V30 182 H 13.827 0.493286 -1.35287 0
M  V30 183 H 15.78 3.43663 -2.43872 0
M  V30 184 H 14.504 3.00799 -1.27231 0
M  V30 185 H 13.163 1.93377 -3.1145 0
M  V30 186 H 12.811 4.34206 -2.53917 0
M  V30 187 H 12.511 4.03804 -4.26868 0
M  V30 188 H 14.035 4.81561 -3.75408 0
M  V30 189 H 15.449 2.88654 -4.9533 0
M  V30 190 H 13.846 2.34044 -5.52579 0
M  V30 191 H 14.916 1.19327 -4.69988 0
M  V30 192 N 16.2591 1.48442 0.529413 0
M  V30 193 C 17.5051 1.5672 1.28711 0
M  V30 194 C 17.8381 0.2406 1.92704 0
M  V30 195 O 17.1131 -0.753454 1.79313 0
M  V30 196 C 17.3961 2.70587 2.37603 0
M  V30 197 C 17.2491 4.12953 1.78297 0
M  V30 198 C 18.5681 2.80212 3.39366 0
M  V30 199 H 15.6871 0.570474 0.466613 0
M  V30 200 H 18.3291 1.80617 0.589706 0
M  V30 201 H 16.4791 2.50342 2.97088 0
M  V30 202 H 18.1511 4.44639 1.22858 0
M  V30 203 H 16.3941 4.19927 1.0883 0
M  V30 204 H 17.0651 4.88448 2.57144 0
M  V30 205 H 19.5411 2.98553 2.89836 0
M  V30 206 H 18.4171 3.61611 4.12951 0
M  V30 207 H 18.6781 1.88393 3.99951 0
M  V30 208 N 17.7372 -0.778329 1.37039 0
M  V30 209 C 18.6672 -1.90546 1.34962 0
M  V30 210 C 19.6482 -1.68681 0.219274 0
M  V30 211 O 20.8332 -1.89634 0.418624 0
M  V30 212 C 17.9632 -3.27734 1.14925 0
M  V30 213 C 16.9172 -3.64147 2.24902 0
M  V30 214 C 16.2432 -4.99806 1.89996 0
M  V30 215 C 17.5432 -3.71579 3.67051 0
M  V30 216 H 19.2372 -1.92541 2.29277 0
M  V30 217 H 16.7832 -0.924948 1.10366 0
M  V30 218 H 18.7362 -4.06215 1.12104 0
M  V30 219 H 17.4602 -3.26154 0.170631 0
M  V30 220 H 16.1192 -2.8797 2.26868 0
M  V30 221 H 15.7672 -4.94759 0.906796 0
M  V30 222 H 15.4672 -5.25139 2.63634 0
M  V30 223 H 16.9912 -5.80694 1.88749 0
M  V30 224 H 18.4052 -4.40227 3.67251 0
M  V30 225 H 16.8022 -4.08405 4.39688 0
M  V30 226 H 17.8722 -2.72404 4.01154 0
M  V30 227 N 19.2153 -1.21501 -1.00376 0
M  V30 228 C 20.4403 -1.05977 -1.78279 0
M  V30 229 C 20.8653 0.385994 -1.84097 0
M  V30 230 O 20.2233 1.27849 -1.28547 0
M  V30 231 C 20.2713 -1.66302 -3.19963 0
M  V30 232 O 19.3753 -0.909333 -4.0225 0
M  V30 233 H 18.7163 -0.372906 -0.549397 0
M  V30 234 H 21.2463 -1.6107 -1.26165 0
M  V30 235 H 21.2563 -1.70574 -3.70632 0
M  V30 236 H 19.9313 -2.71515 -3.15043 0
M  V30 237 H 18.5083 -0.941795 -3.60811 0
M  V30 238 N 20.6934 1.19889 -1.02296 0
M  V30 239 C 21.6564 2.21116 -0.603351 0
M  V30 240 C 22.6564 1.5738 0.329884 0
M  V30 241 O 23.8464 1.73802 0.117702 0
M  V30 242 C 20.9784 3.40696 0.117992 0
M  V30 243 H 22.1714 2.59754 -1.49893 0
M  V30 244 H 19.7244 1.33463 -0.813468 0
M  V30 245 H 20.4594 3.07569 1.0282 0
M  V30 246 H 20.2444 3.88188 -0.552511 0
M  V30 247 H 21.7344 4.15692 0.398696 0
M  V30 248 N 22.1715 0.800033 1.35784 0
M  V30 249 C 23.4195 0.376597 1.9856 0
M  V30 250 C 23.7405 -1.05812 1.63795 0
M  V30 251 O 23.0105 -1.73103 0.917171 0
M  V30 252 H 21.5905 0.136261 0.734467 0
M  V30 253 H 24.2525 1.02442 1.65806 0
M  V30 254 H 23.3485 0.477002 3.08433 0
M  V30 255 N 23.6496 -1.47581 0.552962 0
M  V30 256 C 24.8956 -2.02782 0.0273648 0
M  V30 257 C 25.2286 -1.42687 -1.31734 0
M  V30 258 O 24.5036 -0.580897 -1.85623 0
M  V30 259 C 24.7866 -3.60031 -0.0702371 0
M  V30 260 C 24.6396 -4.30566 1.30126 0
M  V30 261 C 25.9586 -4.33028 -0.785771 0
M  V30 262 H 23.0776 -0.736912 0.0114185 0
M  V30 263 H 25.7196 -1.76056 0.714432 0
M  V30 264 H 23.8696 -3.82932 -0.655382 0
M  V30 265 H 25.5416 -4.19018 1.92929 0
M  V30 266 H 23.7846 -3.91086 1.87709 0
M  V30 267 H 24.4556 -5.39114 1.18573 0
M  V30 268 H 26.9316 -4.15095 -0.288982 0
M  V30 269 H 25.8076 -5.42695 -0.823013 0
M  V30 270 H 26.0686 -4.01945 -1.841 0
M  V30 271 N 25.1277 -0.289203 -1.54924 0
M  V30 272 C 26.3767 0.324231 -1.99077 0
M  V30 273 C 26.6897 1.5591 -1.18117 0
M  V30 274 O 27.8957 2.24637 -1.52481 0
M  V30 275 C 26.3517 0.628209 -3.54375 0
M  V30 276 C 25.9597 -0.587647 -4.44129 0
M  V30 277 C 27.7037 1.20349 -4.07083 0
M  V30 278 C 25.6107 -0.257475 -5.90839 0
M  V30 279 H 24.5407 0.124924 -0.743579 0
M  V30 280 H 27.1917 -0.396063 -1.79175 0
M  V30 281 H 25.5737 1.40778 -3.70132 0
M  V30 282 H 26.7477 -1.36418 -4.40144 0
M  V30 283 H 25.0627 -1.08074 -4.0213 0
M  V30 284 H 27.6597 1.46456 -5.14252 0
M  V30 285 H 28.0027 2.14195 -3.56968 0
M  V30 286 H 28.5357 0.485889 -3.94821 0
M  V30 287 H 25.2747 -1.16419 -6.45079 0
M  V30 288 H 24.7947 0.482018 -5.9786 0
M  V30 289 H 26.4737 0.145238 -6.46837 0
M  V30 290 N 26.6058 1.57591 -0.0167156 0
M  V30 291 C 27.5688 2.08393 0.954204 0
M  V30 292 C 28.5688 0.996531 1.26198 0
M  V30 293 O 29.7588 1.25858 1.20438 0
M  V30 294 C 26.8908 2.5394 2.27436 0
M  V30 295 H 28.0838 2.95455 0.514451 0
M  V30 296 H 25.6368 1.54582 0.231089 0
M  V30 297 H 26.3718 1.70171 2.76066 0
M  V30 298 H 26.1568 3.33371 2.06412 0
M  V30 299 H 27.6468 2.93512 2.97053 0
M  V30 300 N 28.0839 -0.256276 1.55502 0
M  V30 301 C 29.4949 -0.826068 1.67431 0
M  V30 302 C 29.8459 -1.86396 0.612446 0
M  V30 303 O 28.9709 -2.15031 -0.243025 0
M  V30 304 C 29.5659 -1.50512 3.03532 0
M  V30 305 C 28.1249 -2.02273 3.17431 0
M  V30 306 C 27.2719 -0.870548 2.63281 0
M  V30 307 H 30.2229 -0.0322728 1.58667 0
M  V30 308 H 30.2439 -2.37279 2.97454 0
M  V30 309 H 29.7559 -0.749484 3.80794 0
M  V30 310 H 27.8569 -2.80746 2.44974 0
M  V30 311 H 27.9699 -2.22655 4.24219 0
M  V30 312 H 26.3339 -1.26851 2.20864 0
M  V30 313 H 27.1169 -0.128149 3.43061 0
M  V30 314 N 29.562 -1.4872 -0.521534 0
M  V30 315 C 30.808 -1.574 -1.27879 0
M  V30 316 C 31.141 -0.250817 -1.92573 0
M  V30 317 O 30.416 0.743934 -1.79711 0
M  V30 318 C 30.699 -2.71843 -2.36164 0
M  V30 319 C 30.552 -4.13893 -1.76105 0
M  V30 320 C 31.871 -2.82008 -3.37875 0
M  V30 321 H 28.99 -0.572941 -0.463581 0
M  V30 322 H 31.632 -1.80927 -0.580119 0
M  V30 323 H 29.782 -2.51914 -2.95756 0
M  V30 324 H 31.454 -4.45284 -1.20499 0
M  V30 325 H 29.697 -4.20498 -1.06601 0
M  V30 326 H 30.368 -4.89804 -2.5455 0
M  V30 327 H 32.844 -3.00086 -2.88249 0
M  V30 328 H 31.72 -3.63796 -4.11028 0
M  V30 329 H 31.981 -1.90511 -3.98946 0
M  V30 330 N 31.0401 0.771051 -1.3745 0
M  V30 331 C 32.2681 1.56015 -1.35893 0
M  V30 332 C 32.6831 1.88718 0.0555523 0
M  V30 333 O 32.0401 1.51502 1.01752 0
M  V30 334 C 32.0911 2.87001 -2.19801 0
M  V30 335 O 31.8121 2.557 -3.55738 0
M  V30 336 C 33.3131 3.81228 -2.26231 0
M  V30 337 H 30.5331 0.483317 -0.465453 0
M  V30 338 H 33.0771 0.955611 -1.80799 0
M  V30 339 H 31.2321 3.43877 -1.78402 0
M  V30 340 H 31.6461 3.39584 -3.99729 0
M  V30 341 H 33.1201 4.70139 -2.89263 0
M  V30 342 H 33.5971 4.20409 -1.27093 0
M  V30 343 H 34.2031 3.30281 -2.67945 0
M  V30 344 N 32.5182 1.22032 0.997298 0
M  V30 345 C 33.7432 1.06921 1.77715 0
M  V30 346 C 34.1682 -0.376226 1.84299 0
M  V30 347 O 33.5262 -1.27165 1.29223 0
M  V30 348 C 33.5742 1.67996 3.19076 0
M  V30 349 O 32.6782 0.930653 4.01762 0
M  V30 350 H 32.0192 0.375814 0.547412 0
M  V30 351 H 34.5492 1.61737 1.25309 0
M  V30 352 H 34.5592 1.72538 3.69723 0
M  V30 353 H 33.2342 2.73182 3.13599 0
M  V30 354 H 31.8112 0.960917 3.60307 0
M  V30 355 N 33.9963 -1.19345 1.0293 0
M  V30 356 C 35.2443 -1.88665 0.724574 0
M  V30 357 C 35.5653 -1.80036 -0.749144 0
M  V30 358 O 34.8353 -1.2111 -1.53978 0
M  V30 359 H 33.4153 -0.698406 0.265025 0
M  V30 360 H 36.0773 -1.44885 1.30362 0
M  V30 361 H 35.1733 -2.94987 1.01926 0
M  V30 362 N 35.4744 -0.807222 -1.35358 0
M  V30 363 C 36.4074 -0.163572 -2.27613 0
M  V30 364 C 37.3854 0.670817 -1.48118 0
M  V30 365 O 38.5694 0.63796 -1.77376 0
M  V30 366 C 35.6964 0.773015 -3.29761 0
M  V30 367 C 34.7424 0.0181653 -4.26496 0
M  V30 368 S 35.5754 -1.31831 -5.19019 0
M  V30 369 C 36.7314 -0.38619 -6.24707 0
M  V30 370 H 36.9644 -0.945757 -2.81856 0
M  V30 371 H 34.4974 -0.602315 -1.42167 0
M  V30 372 H 36.4554 1.30788 -3.89108 0
M  V30 373 H 35.1164 1.52859 -2.74396 0
M  V30 374 H 34.3094 0.729534 -4.98692 0
M  V30 375 H 33.9114 -0.446761 -3.71322 0
M  V30 376 H 36.2034 0.428295 -6.76145 0
M  V30 377 H 37.1464 -1.07736 -6.99856 0
M  V30 378 H 37.5544 0.018398 -5.64497 0
M  V30 379 N 36.9525 1.47285 -0.560781 0
M  V30 380 C 38.2015 2.01668 -0.035895 0
M  V30 381 C 38.5145 1.44021 1.32353 0
M  V30 382 O 39.7205 1.90088 1.93853 0
M  V30 383 C 38.1765 3.59897 -0.0136659 0
M  V30 384 C 37.7845 4.26536 -1.37006 0
M  V30 385 C 39.5285 4.22017 0.458425 0
M  V30 386 C 37.4355 5.76782 -1.30675 0
M  V30 387 H 36.3655 0.753938 -0.00964879 0
M  V30 388 H 39.0165 1.69243 -0.709166 0
M  V30 389 H 37.3985 3.89301 0.725325 0
M  V30 390 H 38.5725 4.0877 -2.12705 0
M  V30 391 H 36.8875 3.76419 -1.78038 0
M  V30 392 H 39.4845 5.32124 0.524247 0
M  V30 393 H 39.8275 3.89437 1.4712 0
M  V30 394 H 40.3605 3.97159 -0.225818 0
M  V30 395 H 37.0995 6.13988 -2.29564 0
M  V30 396 H 36.6195 5.96875 -0.591622 0
M  V30 397 H 38.2985 6.39063 -1.01033 0
M  V30 398 N 38.4306 0.297415 1.54768 0
M  V30 399 C 39.3626 -0.613881 2.20826 0
M  V30 400 C 40.3756 -1.10032 1.19987 0
M  V30 401 O 41.5646 -1.01839 1.46598 0
M  V30 402 C 38.6646 -1.852 2.83821 0
M  V30 403 C 37.8376 -1.50865 4.10559 0
M  V30 404 C 36.8966 -2.60154 4.57391 0
M  V30 405 O 35.9226 -2.25398 5.2267 0
M  V30 406 N 37.1246 -3.90629 4.29406 0
M  V30 407 H 39.8896 -0.048389 2.99661 0
M  V30 408 H 37.4506 0.11946 1.61459 0
M  V30 409 H 39.4426 -2.57652 3.12086 0
M  V30 410 H 38.0126 -2.32597 2.08847 0
M  V30 411 H 37.2326 -0.616925 3.89343 0
M  V30 412 H 38.5206 -1.25458 4.9309 0
M  V30 413 H 37.9186 -4.21677 3.77101 0
M  V30 414 H 36.4756 -4.59391 4.62388 0
M  V30 415 N 39.9087 -1.5758 0.0250728 0
M  V30 416 C 41.1337 -1.96337 -0.668317 0
M  V30 417 C 41.5587 -0.901314 -1.651 0
M  V30 418 O 40.9167 0.138187 -1.80773 0
M  V30 419 C 40.9647 -3.34191 -1.35457 0
M  V30 420 O 40.0687 -3.30269 -2.46974 0
M  V30 421 H 39.4097 -0.640281 -0.175887 0
M  V30 422 H 41.9397 -2.0442 0.0857224 0
M  V30 423 H 41.9497 -3.70331 -1.71228 0
M  V30 424 H 40.6247 -4.11036 -0.634218 0
M  V30 425 H 39.2017 -3.05841 -2.13344 0
M  V30 426 N 41.3868 0.248026 -1.55636 0
M  V30 427 C 42.7978 0.817177 -1.67866 0
M  V30 428 C 43.1488 1.86069 -0.622322 0
M  V30 429 O 42.2738 2.15157 0.231618 0
M  V30 430 C 42.8688 1.489 -3.04326 0
M  V30 431 C 41.4278 2.00587 -3.185 0
M  V30 432 C 40.5748 0.856573 -2.63739 0
M  V30 433 H 43.5258 0.0238579 -1.58682 0
M  V30 434 H 43.5468 2.35698 -2.98708 0
M  V30 435 H 43.0588 0.729279 -3.81186 0
M  V30 436 H 41.1598 2.79443 -2.4646 0
M  V30 437 H 41.2728 2.20402 -4.25393 0
M  V30 438 H 39.6368 1.25678 -2.21534 0
M  V30 439 H 40.4198 0.109953 -3.43124 0
M  V30 440 N 42.8649 1.48995 0.513639 0
M  V30 441 C 43.7969 1.60836 1.63293 0
M  V30 442 C 44.8099 0.491701 1.55197 0
M  V30 443 O 45.9989 0.763238 1.6136 0
M  V30 444 C 43.0989 1.53731 3.02027 0
M  V30 445 C 42.2719 2.80715 3.35437 0
M  V30 446 C 41.3309 2.66837 4.53525 0
M  V30 447 O 40.3569 3.40753 4.55934 0
M  V30 448 N 41.5589 1.77539 5.52684 0
M  V30 449 H 44.3239 2.57366 1.53566 0
M  V30 450 H 41.8849 1.45925 0.701259 0
M  V30 451 H 43.8769 1.42118 3.78926 0
M  V30 452 H 42.4469 0.651092 3.05744 0
M  V30 453 H 41.6669 3.06772 2.47557 0
M  V30 454 H 42.9549 3.64927 3.54551 0
M  V30 455 H 42.3529 1.16719 5.53528 0
M  V30 456 H 40.9099 1.71856 6.28736 0
M  V30 457 N 44.343 -0.763751 1.37857 0
M  V30 458 C 45.29 -1.87726 1.34267 0
M  V30 459 C 46.26 -1.64807 0.206879 0
M  V30 460 O 47.445 -1.86613 0.397508 0
M  V30 461 C 44.585 -3.24896 1.16346 0
M  V30 462 C 43.698 -3.59716 2.39225 0
M  V30 463 C 42.833 -4.86137 2.14114 0
M  V30 464 C 41.872 -5.13711 3.32817 0
M  V30 465 N 41.009 -6.31323 3.07206 0
M  V30 466 H 45.849 -1.90129 2.29466 0
M  V30 467 H 43.386 -0.929433 1.14017 0
M  V30 468 H 45.344 -4.04036 1.03975 0
M  V30 469 H 43.974 -3.21847 0.247909 0
M  V30 470 H 43.026 -2.75498 2.62307 0
M  V30 471 H 44.338 -3.76027 3.27728 0
M  V30 472 H 43.492 -5.73198 1.9882 0
M  V30 473 H 42.231 -4.71945 1.22961 0
M  V30 474 H 41.236 -4.25123 3.48641 0
M  V30 475 H 42.461 -5.29807 4.24832 0
M  V30 476 H 40.407 -6.18474 2.1869 0
M  V30 477 H 40.324 -6.48087 3.89254 0
M  V30 478 H 41.592 -7.213 2.95546 0
M  V30 479 N 45.8211 -1.22559 -0.990812 0
M  V30 480 C 47.0611 -1.06302 -1.74583 0
M  V30 481 C 47.4251 0.394737 -1.87898 0
M  V30 482 O 48.6261 0.678214 -2.60103 0
M  V30 483 C 46.8971 -1.75699 -3.11231 0
M  V30 484 S 48.4561 -1.74882 -4.02445 0
M  V30 485 H 45.2741 -0.380639 -0.600529 0
M  V30 486 H 47.8761 -1.55532 -1.18449 0
M  V30 487 H 46.5801 -2.80923 -2.99183 0
M  V30 488 H 46.1111 -1.26708 -3.72436 0
M  V30 489 H 48.1261 -0.799997 -4.89709 0
M  V30 490 N 47.2992 1.18797 -1.03562 0
M  V30 491 C 48.5292 1.92319 -0.754773 0
M  V30 492 C 48.9372 1.7612 0.691248 0
M  V30 493 O 48.2802 1.08491 1.48241 0
M  V30 494 C 48.3422 3.44284 -1.03484 0
M  V30 495 C 48.0062 3.84258 -2.47376 0
M  V30 496 C 49.0032 3.88459 -3.45537 0
M  V30 497 C 46.6882 4.15701 -2.81954 0
M  V30 498 C 48.6822 4.23545 -4.76328 0
M  V30 499 C 46.3692 4.50458 -4.12954 0
M  V30 500 C 47.3672 4.54356 -5.09951 0
M  V30 501 O 47.0552 4.88305 -6.38603 0
M  V30 502 H 46.7872 0.617527 -0.275021 0
M  V30 503 H 49.3412 1.51683 -1.38497 0
M  V30 504 H 47.5712 3.85135 -0.347513 0
M  V30 505 H 49.2602 3.99049 -0.7426 0
M  V30 506 H 50.0262 3.6431 -3.20162 0
M  V30 507 H 45.9052 4.11847 -2.0713 0
M  V30 508 H 49.4492 4.26502 -5.52035 0
M  V30 509 H 45.3462 4.74067 -4.38099 0
M  V30 510 H 46.1142 5.06227 -6.43177 0
M  V30 511 N 48.7773 0.814389 1.34928 0
M  V30 512 C 49.7403 0.235759 2.27984 0
M  V30 513 C 50.7403 -0.581412 1.49921 0
M  V30 514 O 51.9303 -0.398758 1.69575 0
M  V30 515 C 49.0623 -0.670433 3.34242 0
M  V30 516 H 50.2553 1.05659 2.80671 0
M  V30 517 H 47.8083 0.585614 1.44915 0
M  V30 518 H 48.5433 -1.51466 2.86755 0
M  V30 519 H 48.3283 -0.0860822 3.92005 0
M  V30 520 H 49.8183 -1.06935 4.03676 0
M  V30 521 N 50.2554 -1.46986 0.568584 0
M  V30 522 C 51.4854 -2.0653 0.0539173 0
M  V30 523 C 51.8934 -1.42004 -1.25026 0
M  V30 524 O 51.2364 -0.514541 -1.76347 0
M  V30 525 C 51.2984 -3.58938 -0.200854 0
M  V30 526 C 50.9624 -4.45572 1.01559 0
M  V30 527 C 51.9594 -4.82986 1.92407 0
M  V30 528 C 49.6444 -4.8692 1.23346 0
M  V30 529 C 51.6384 -5.60559 3.03402 0
M  V30 530 C 49.3254 -5.64255 2.34649 0
M  V30 531 C 50.3234 -6.00986 3.24507 0
M  V30 532 O 50.0114 -6.76761 4.33878 0
M  V30 533 H 49.7434 -0.674292 0.0480234 0
M  V30 534 H 52.2974 -1.89812 0.784896 0
M  V30 535 H 50.5274 -3.73911 -0.986279 0
M  V30 536 H 52.2164 -4.0046 -0.662294 0
M  V30 537 H 52.9824 -4.51633 1.76785 0
M  V30 538 H 48.8614 -4.57789 0.543178 0
M  V30 539 H 52.4054 -5.89147 3.73565 0
M  V30 540 H 48.3024 -5.95021 2.5024 0
M  V30 541 H 49.0704 -6.95168 4.32068 0
M  V30 542 N 51.7335 -0.305618 -1.54608 0
M  V30 543 C 52.9585 0.307562 -2.05107 0
M  V30 544 C 53.3835 1.46385 -1.18123 0
M  V30 545 O 52.7415 1.8034 -0.186324 0
M  V30 546 C 52.7895 0.73704 -3.52987 0
M  V30 547 O 51.8935 1.84134 -3.6901 0
M  V30 548 H 51.2345 0.0589143 -0.661381 0
M  V30 549 H 53.7645 -0.448807 -1.99617 0
M  V30 550 H 53.7745 1.02459 -3.94925 0
M  V30 551 H 52.4495 -0.108773 -4.15758 0
M  V30 552 H 51.0265 1.55398 -3.38978 0
M  V30 553 N 53.2116 1.57565 -0.0334293 0
M  V30 554 C 54.4606 1.91155 0.643639 0
M  V30 555 C 54.7736 0.91192 1.73042 0
M  V30 556 O 55.9796 1.13923 2.46442 0
M  V30 557 C 54.4356 3.39443 1.1961 0
M  V30 558 C 54.0436 4.47774 0.142381 0
M  V30 559 C 55.7876 3.82094 1.84944 0
M  V30 560 C 53.6946 5.87162 0.706727 0
M  V30 561 H 52.6246 0.713368 0.244176 0
M  V30 562 H 55.2756 1.8323 -0.0994323 0
M  V30 563 H 53.6576 3.42313 1.99092 0
M  V30 564 H 54.8316 4.56469 -0.630296 0
M  V30 565 H 53.1466 4.14352 -0.412446 0
M  V30 566 H 55.7436 4.83591 2.2813 0
M  V30 567 H 56.0866 3.17386 2.69392 0
M  V30 568 H 56.6196 3.81665 1.12145 0
M  V30 569 H 53.3586 6.55424 -0.0997178 0
M  V30 570 H 52.8786 5.82064 1.44779 0
M  V30 571 H 54.5576 6.35866 1.19514 0
M  V30 572 N 54.6897 -0.239769 1.55765 0
M  V30 573 C 55.6377 -1.31668 1.91745 0
M  V30 574 C 56.6317 -1.49462 0.797338 0
M  V30 575 O 57.8377 -1.50852 0.982021 0
M  V30 576 H 54.2127 -0.441048 0.609082 0
M  V30 577 H 56.1837 -0.985923 2.81642 0
M  V30 578 C 54.9327 -2.66368 2.2348 0
M  V30 579 H 54.2557 -2.53478 3.09175 0
M  V30 580 H 55.6957 -3.40578 2.52553 0
M  V30 581 C 54.1547 -3.20002 1.05359 0
M  V30 582 O 54.6847 -4.00538 0.305261 0
M  V30 583 N 52.8907 -2.78126 0.842292 0
M  V30 584 H 52.4377 -2.12742 1.45253 0
M  V30 585 H 52.3957 -3.14354 0.053652 0
M  V30 586 N 56.1678 -1.49265 -0.50573 0
M  V30 587 C 57.0998 -1.617 -1.62437 0
M  V30 588 C 58.1128 -0.499924 -1.54934 0
M  V30 589 O 59.3018 -0.771785 -1.60953 0
M  V30 590 C 56.4018 -1.5533 -3.01207 0
M  V30 591 C 55.5748 -2.8249 -3.33943 0
M  V30 592 C 54.6338 -2.69238 -4.52103 0
M  V30 593 O 53.6598 -3.43167 -4.5412 0
M  V30 594 N 54.8618 -1.80468 -5.51735 0
M  V30 595 H 57.6268 -2.58177 -1.52199 0
M  V30 596 H 55.1878 -1.46294 -0.693511 0
M  V30 597 H 57.1798 -1.44125 -3.78167 0
M  V30 598 H 55.7498 -0.667297 -3.05395 0
M  V30 599 H 54.9698 -3.08081 -2.45926 0
M  V30 600 H 56.2578 -3.66802 -3.5261 0
M  V30 601 H 55.6558 -1.19653 -5.52901 0
M  V30 602 H 54.2128 -1.75188 -6.27816 0
M  V30 603 N 57.6459 0.756429 -1.3826 0
M  V30 604 C 58.5929 1.87011 -1.35261 0
M  V30 605 C 59.5629 1.64695 -0.215616 0
M  V30 606 O 60.7479 1.864 -0.407399 0
M  V30 607 C 57.8879 3.24275 -1.18068 0
M  V30 608 C 57.0009 3.58442 -2.41129 0
M  V30 609 C 56.1359 4.84994 -2.16689 0
M  V30 610 C 55.1749 5.11939 -3.35537 0
M  V30 611 N 54.3119 6.29685 -3.10549 0
M  V30 612 H 59.1519 1.8891 -2.30472 0
M  V30 613 H 56.6889 0.923373 -1.14509 0
M  V30 614 H 58.6469 4.03479 -1.06116 0
M  V30 615 H 57.2769 3.21711 -0.264973 0
M  V30 616 H 56.3289 2.74103 -2.63764 0
M  V30 617 H 57.6409 3.74283 -3.29717 0
M  V30 618 H 56.7949 5.72135 -2.01857 0
M  V30 619 H 55.5339 4.71286 -1.25462 0
M  V30 620 H 54.5389 4.23268 -3.50891 0
M  V30 621 H 55.7639 5.27546 -4.27635 0
M  V30 622 H 53.7099 6.17306 -2.21967 0
M  V30 623 H 53.6269 6.46014 -3.92686 0
M  V30 624 H 54.8949 7.19722 -2.99367 0
M  V30 625 N 59.124 1.23083 0.984299 0
M  V30 626 C 60.087 1.00979 2.05757 0
M  V30 627 C 61.087 -0.0269573 1.60777 0
M  V30 628 O 62.277 0.212403 1.729 0
M  V30 629 C 59.409 0.527072 3.36801 0
M  V30 630 H 60.602 1.9622 2.26799 0
M  V30 631 H 58.155 1.05072 1.15714 0
M  V30 632 H 58.89 -0.429294 3.21446 0
M  V30 633 H 58.675 1.27515 3.70786 0
M  V30 634 H 60.165 0.392942 4.15747 0
M  V30 635 N 60.6021 -1.18246 1.0419 0
M  V30 636 C 61.8321 -1.91916 0.764961 0
M  V30 637 C 62.2401 -1.76485 -0.681898 0
M  V30 638 O 61.5831 -1.09275 -1.47664 0
M  V30 639 C 61.6451 -3.4373 1.05309 0
M  V30 640 C 61.3091 -3.8294 2.4941 0
M  V30 641 C 62.3061 -3.86621 3.47592 0
M  V30 642 C 59.9911 -4.142 2.84155 0
M  V30 643 C 61.9851 -4.21013 4.78568 0
M  V30 644 C 59.6721 -4.48262 4.15337 0
M  V30 645 C 60.6701 -4.51645 5.12353 0
M  V30 646 O 60.3581 -4.84911 6.41183 0
M  V30 647 H 60.0901 -0.61606 0.278292 0
M  V30 648 H 62.6441 -1.50947 1.39299 0
M  V30 649 H 60.8741 -3.84946 0.367933 0
M  V30 650 H 62.5631 -3.9865 0.763752 0
M  V30 651 H 63.3291 -3.62607 3.22089 0
M  V30 652 H 59.2081 -4.10743 2.09311 0
M  V30 653 H 62.7521 -4.23568 5.54289 0
M  V30 654 H 58.6491 -4.71737 4.40607 0
M  V30 655 H 59.4171 -5.02809 6.45852 0
M  V30 656 N 62.0802 -0.821533 -1.34494 0
M  V30 657 C 63.3052 -0.420873 -2.03085 0
M  V30 658 C 63.7302 0.964915 -1.61465 0
M  V30 659 O 63.0882 1.62763 -0.798607 0
M  V30 660 C 63.1362 -0.529414 -3.56693 0
M  V30 661 O 62.2402 0.451302 -4.09923 0
M  V30 662 H 61.5812 -0.173489 -0.640935 0
M  V30 663 H 64.1112 -1.11157 -1.71771 0
M  V30 664 H 64.1212 -0.404671 -4.05988 0
M  V30 665 H 62.7962 -1.54014 -3.86332 0
M  V30 666 H 61.3732 0.285558 -3.71805 0
M  V30 667 N 63.5583 1.46682 -0.576371 0
M  V30 668 C 64.5063 2.31953 0.17335 0
M  V30 669 C 65.5003 1.44098 0.89062 0
M  V30 670 O 66.7063 1.60759 0.809728 0
M  V30 671 H 63.0813 0.748273 0.0747727 0
M  V30 672 H 65.0523 2.93007 -0.564738 0
M  V30 673 C 63.8013 3.27142 1.17786 0
M  V30 674 H 63.1243 3.94719 0.635361 0
M  V30 675 H 64.5643 3.896 1.67296 0
M  V30 676 C 63.0233 2.52036 2.23561 0
M  V30 677 O 63.5533 2.27877 3.3081 0
M  V30 678 N 61.7593 2.12709 1.97998 0
M  V30 679 H 61.3063 2.32557 1.10792 0
M  V30 680 H 61.2643 1.62776 2.68982 0
M  V30 681 N 65.0364 0.313813 1.54444 0
M  V30 682 C 66.2644 -0.293918 2.04802 0
M  V30 683 C 66.6794 -1.46537 1.19047 0
M  V30 684 O 66.0364 -1.81182 0.218939 0
M  V30 685 C 66.0874 -0.737806 3.53891 0
M  V30 686 O 65.8084 0.387038 4.36387 0
M  V30 687 C 67.3094 -1.40936 4.203 0
M  V30 688 H 64.5294 -0.0620057 0.668129 0
M  V30 689 H 67.0734 0.457169 1.99324 0
M  V30 690 H 65.2284 -1.43889 3.59687 0
M  V30 691 H 65.6424 0.0391274 5.24485 0
M  V30 692 H 67.1164 -1.67099 5.26101 0
M  V30 693 H 67.5934 -2.35355 3.70816 0
M  V30 694 H 68.1994 -0.751117 4.18615 0
M  V30 695 N 66.5145 -1.57545 0.0417849 0
M  V30 696 C 67.7445 -1.96339 -0.642995 0
M  V30 697 C 68.1525 -0.917536 -1.65463 0
M  V30 698 O 67.4955 0.107747 -1.83384 0
M  V30 699 C 67.5575 -3.31333 -1.39494 0
M  V30 700 C 67.2215 -4.53796 -0.540204 0
M  V30 701 C 68.2185 -5.19553 0.189806 0
M  V30 702 C 65.9035 -5.0006 -0.473886 0
M  V30 703 C 67.8975 -6.29904 0.974674 0
M  V30 704 C 65.5845 -6.10289 0.314677 0
M  V30 705 C 66.5825 -6.75072 1.03765 0
M  V30 706 O 66.2705 -7.83183 1.81327 0
M  V30 707 H 66.0025 -0.651241 -0.181277 0
M  V30 708 H 68.5565 -2.05148 0.101665 0
M  V30 709 H 66.7865 -3.19052 -2.18502 0
M  V30 710 H 68.4755 -3.54942 -1.96904 0
M  V30 711 H 69.2415 -4.84774 0.147981 0
M  V30 712 H 65.1205 -4.49433 -1.0262 0
M  V30 713 H 68.6645 -6.80401 1.5395 0
M  V30 714 H 64.5615 -6.44506 0.358174 0
M  V30 715 H 65.3295 -7.99913 1.73438 0
M  V30 716 N 67.9926 0.231505 -1.5589 0
M  V30 717 C 68.9246 1.31006 -1.8807 0
M  V30 718 C 69.9376 1.43539 -0.768145 0
M  V30 719 O 71.1266 1.44614 -1.04638 0
M  V30 720 C 68.2266 2.68688 -2.06543 0
M  V30 721 C 67.3996 2.78228 -3.37502 0
M  V30 722 C 66.4586 3.96857 -3.4553 0
M  V30 723 O 65.4846 3.85662 -4.18633 0
M  V30 724 N 66.6866 5.1072 -2.75944 0
M  V30 725 H 69.4516 1.03731 -2.81176 0
M  V30 726 H 67.0126 0.421573 -1.56315 0
M  V30 727 H 69.0046 3.46412 -2.09239 0
M  V30 728 H 67.5746 2.88605 -1.20109 0
M  V30 729 H 66.7946 1.87059 -3.46991 0
M  V30 730 H 68.0826 2.81564 -4.23791 0
M  V30 731 H 67.4806 5.2271 -2.16311 0
M  V30 732 H 66.0376 5.86523 -2.84314 0
M  V30 733 N 69.4707 1.49531 0.497807 0
M  V30 734 C 70.3807 1.69176 1.62532 0
M  V30 735 C 71.3967 0.5744 1.64246 0
M  V30 736 O 72.5727 0.849497 1.82608 0
M  V30 737 C 69.6377 1.75695 2.98885 0
M  V30 738 C 68.6987 2.9929 3.07773 0
M  V30 739 C 67.9317 3.05488 4.37622 0
M  V30 740 O 68.1547 2.19192 5.26603 0
M  V30 741 O 67.0887 3.9798 4.51548 0
M  V30 742 H 70.9147 2.647 1.48887 0
M  V30 743 H 68.4997 1.3331 0.674441 0
M  V30 744 H 70.3817 1.82317 3.79919 0
M  V30 745 H 69.0567 0.8335 3.12785 0
M  V30 746 H 67.9637 2.98183 2.25915 0
M  V30 747 H 69.2967 3.91125 2.98801 0
M  V30 748 N 70.9488 -0.749086 1.3866 0
M  V30 749 C 72.1958 -1.50833 1.35114 0
M  V30 750 C 72.5238 -1.94415 -0.0574049 0
M  V30 751 O 71.7788 -1.66065 -1.03541 0
M  V30 752 C 72.0778 -2.7712 2.25697 0
M  V30 753 C 71.7438 -2.52477 3.73585 0
M  V30 754 C 70.4058 -2.45466 4.13884 0
M  V30 755 C 72.7578 -2.31066 4.67181 0
M  V30 756 C 70.0858 -2.15064 5.45861 0
M  V30 757 C 72.4378 -2.02183 5.9942 0
M  V30 758 C 71.1018 -1.93631 6.38798 0
M  V30 759 H 70.3718 -0.551936 0.494416 0
M  V30 760 H 73.0188 -0.860979 1.71054 0
M  V30 761 H 71.3238 -3.46528 1.82827 0
M  V30 762 H 73.0208 -3.35096 2.20254 0
M  V30 763 H 69.6108 -2.58807 3.41638 0
M  V30 764 H 73.7948 -2.35459 4.3689 0
M  V30 765 H 69.0508 -2.06954 5.75308 0
M  V30 766 H 73.2248 -1.8462 6.71482 0
M  V30 767 H 70.8518 -1.69839 7.40985 0
M  V30 768 N 72.4269 -1.23603 -0.977757 0
M  V30 769 C 73.6549 -1.09646 -1.75458 0
M  V30 770 C 74.0699 0.351859 -1.85492 0
M  V30 771 O 73.4269 1.24327 -1.336 0
M  V30 772 C 73.4779 -1.71895 -3.18016 0
M  V30 773 O 73.1989 -3.11063 -3.08498 0
M  V30 774 C 74.6999 -1.63415 -4.12081 0
M  V30 775 H 71.9199 -0.38359 -0.550545 0
M  V30 776 H 74.4639 -1.63507 -1.22824 0
M  V30 777 H 72.6189 -1.22061 -3.67668 0
M  V30 778 H 73.0329 -3.41305 -3.9826 0
M  V30 779 H 74.5069 -2.11669 -5.09804 0
M  V30 780 H 74.9839 -0.593462 -4.35172 0
M  V30 781 H 75.5899 -2.12628 -3.68334 0
M  V30 782 N 73.905 1.17692 -1.04816 0
M  V30 783 C 74.853 2.23632 -0.63966 0
M  V30 784 C 75.847 1.6601 0.337219 0
M  V30 785 O 77.053 1.78844 0.203693 0
M  V30 786 H 73.428 0.727949 -0.188665 0
M  V30 787 H 75.399 2.55387 -1.54337 0
M  V30 788 C 74.148 3.4769 -0.0264051 0
M  V30 789 H 73.471 3.92331 -0.769164 0
M  V30 790 H 74.911 4.23418 0.222098 0
M  V30 791 C 73.37 3.13807 1.22584 0
M  V30 792 O 73.9 3.28236 2.31569 0
M  V30 793 N 72.106 2.68065 1.12202 0
M  V30 794 H 71.653 2.56525 0.235133 0
M  V30 795 H 71.611 2.45767 1.96076 0
M  V30 796 N 75.3831 0.828654 1.34056 0
M  V30 797 C 76.6321 0.415828 1.97367 0
M  V30 798 C 76.9451 -1.02796 1.6641 0
M  V30 799 O 78.1511 -1.54497 2.23255 0
M  V30 800 C 76.6071 0.692601 3.53173 0
M  V30 801 C 76.2151 2.15038 3.93017 0
M  V30 802 C 77.9591 0.346222 4.23086 0
M  V30 803 C 75.8661 2.37174 5.41758 0
M  V30 804 H 74.7961 0.151755 0.738571 0
M  V30 805 H 77.4471 1.01581 1.52819 0
M  V30 806 H 75.8291 0.0223764 3.95994 0
M  V30 807 H 77.0031 2.86024 3.61285 0
M  V30 808 H 75.3181 2.45875 3.36057 0
M  V30 809 H 77.9151 0.48937 5.32456 0
M  V30 810 H 78.2581 -0.709842 4.10204 0
M  V30 811 H 78.7911 0.971258 3.85761 0
M  V30 812 H 75.5301 3.41308 5.59633 0
M  V30 813 H 75.0501 1.70738 5.74986 0
M  V30 814 H 76.7291 2.19818 6.08514 0
M  V30 815 N 76.8612 -1.46375 0.584142 0
M  V30 816 C 78.1382 -1.956 0.0033388 0
M  V30 817 C 78.5182 -1.52679 -1.45782 0
M  V30 818 O 77.8662 -0.77816 -2.14842 0
M  V30 819 C 78.0762 -3.48551 0.176891 0
M  V30 820 C 79.4242 -4.24576 0.0454609 0
M  V30 821 O 80.4482 -3.56043 0.105801 0
M  V30 822 O 79.3072 -5.46427 -0.0890376 0
M  V30 823 H 76.4012 -0.825547 -0.0490066 0
M  V30 824 H 78.9472 -1.56652 0.65256 0
M  V30 825 H 77.7192 -3.72683 1.1926 0
M  V30 826 H 77.3422 -3.94332 -0.508695 0
M  V30 827 N 78.3393 -0.321999 -1.54275 0
M  V30 828 C 79.2713 0.578671 -2.21775 0
M  V30 829 C 80.2843 1.08109 -1.21722 0
M  V30 830 O 81.4733 0.994938 -1.482 0
M  V30 831 C 78.5733 1.80661 -2.86731 0
M  V30 832 C 77.7463 1.44314 -4.12907 0
M  V30 833 C 76.8053 2.52845 -4.61472 0
M  V30 834 O 75.8313 2.17054 -5.2619 0
M  V30 835 N 77.0333 3.83748 -4.35566 0
M  V30 836 H 79.7983 0.000709447 -2.997 0
M  V30 837 H 77.3593 -0.145132 -1.61248 0
M  V30 838 H 79.3513 2.52655 -3.16145 0
M  V30 839 H 77.9213 2.29245 -2.12521 0
M  V30 840 H 77.1413 0.554906 -3.90275 0
M  V30 841 H 78.4293 1.17598 -4.95023 0
M  V30 842 H 77.8273 4.15625 -3.83761 0
M  V30 843 H 76.3843 4.51977 -4.69638 0
M  V30 844 N 79.8174 1.5752 -0.0501392 0
M  V30 845 C 80.7804 2.1037 0.909786 0
M  V30 846 C 81.7804 1.02308 1.24056 0
M  V30 847 O 82.9704 1.28385 1.17741 0
M  V30 848 C 80.1024 2.58708 2.21998 0
M  V30 849 H 81.2954 2.96479 0.451665 0
M  V30 850 H 78.8484 1.55038 0.198248 0
M  V30 851 H 79.5834 1.75989 2.72394 0
M  V30 852 H 79.3684 3.37675 1.99295 0
M  V30 853 H 80.8584 2.99747 2.9076 0
M  V30 854 N 81.2955 -0.223234 1.56011 0
M  V30 855 C 82.2425 -1.27664 1.92277 0
M  V30 856 C 83.2125 -1.46659 0.779763 0
M  V30 857 O 84.3975 -1.60256 1.03551 0
M  V30 858 C 81.5375 -2.62234 2.24338 0
M  V30 859 C 80.6505 -2.51051 3.51564 0
M  V30 860 C 79.7855 -3.78133 3.7308 0
M  V30 861 C 78.8245 -3.61665 4.93827 0
M  V30 862 N 77.9615 -4.80693 5.11741 0
M  V30 863 H 82.8015 -0.960358 2.82101 0
M  V30 864 H 80.3385 -0.462901 1.39627 0
M  V30 865 H 82.2965 -3.40596 2.40936 0
M  V30 866 H 80.9265 -2.91961 1.3769 0
M  V30 867 H 79.9785 -1.64132 3.43169 0
M  V30 868 H 81.2905 -2.34803 4.40079 0
M  V30 869 H 80.4445 -4.64938 3.89766 0
M  V30 870 H 79.1835 -3.97304 2.82844 0
M  V30 871 H 78.1885 -2.73244 4.77093 0
M  V30 872 H 79.4135 -3.43966 5.85546 0
M  V30 873 H 77.3595 -5.00181 4.24446 0
M  V30 874 H 77.2765 -4.67165 5.94384 0
M  V30 875 H 78.5445 -5.6893 5.3286 0
M  V30 876 N 82.7736 -1.49793 -0.48987 0
M  V30 877 C 83.7366 -1.66752 -1.57246 0
M  V30 878 C 84.7366 -0.538867 -1.51502 0
M  V30 879 O 85.9266 -0.805545 -1.54456 0
M  V30 880 C 83.0586 -1.67528 -2.96896 0
M  V30 881 H 84.2516 -2.63321 -1.43534 0
M  V30 882 H 81.8046 -1.38992 -0.714914 0
M  V30 883 H 82.5396 -0.725837 -3.16073 0
M  V30 884 H 82.3246 -2.49504 -3.02473 0
M  V30 885 H 83.8146 -1.82667 -3.7553 0
M  V30 886 N 84.2517 0.741722 -1.39055 0
M  V30 887 C 85.4977 1.50234 -1.37118 0
M  V30 888 C 85.8527 1.92368 0.0350439 0
M  V30 889 O 85.1457 1.63422 1.00019 0
M  V30 890 C 85.3397 2.7592 -2.27163 0
M  V30 891 C 85.1687 2.46074 -3.76401 0
M  V30 892 C 83.9387 2.38704 -4.45364 0
M  V30 893 C 86.1367 2.12062 -4.68545 0
M  V30 894 N 84.1187 2.01258 -5.79973 0
M  V30 895 C 85.4897 1.85005 -5.91754 0
M  V30 896 C 87.5447 1.98473 -4.56632 0
M  V30 897 C 86.2477 1.4573 -7.04383 0
M  V30 898 C 88.2737 1.60599 -5.69176 0
M  V30 899 C 87.6357 1.34423 -6.91455 0
M  V30 900 H 83.7347 0.548858 -0.557027 0
M  V30 901 H 86.3187 0.862642 -1.74547 0
M  V30 902 H 84.4897 3.3768 -1.91904 0
M  V30 903 H 86.2217 3.42068 -2.16267 0
M  V30 904 H 82.9767 2.55574 -3.98721 0
M  V30 905 H 83.4007 1.85147 -6.51191 0
M  V30 906 H 88.0427 2.17381 -3.62637 0
M  V30 907 H 85.7607 1.25562 -7.98286 0
M  V30 908 H 89.3467 1.507 -5.61944 0
M  V30 909 H 88.2267 1.05555 -7.77064 0
M  V30 910 N 85.7298 1.2412 0.971189 0
M  V30 911 C 86.9778 1.07668 1.71032 0
M  V30 912 C 87.2988 -0.385797 1.91146 0
M  V30 913 O 86.5688 -1.27569 1.4867 0
M  V30 914 H 85.1488 0.395429 0.633755 0
M  V30 915 H 87.8108 1.55984 1.16855 0
M  V30 916 H 86.9068 1.57195 2.69622 0
M  V30 917 N 87.2079 -1.17134 1.05439 0
M  V30 918 C 88.1559 -2.23289 0.651511 0
M  V30 919 C 89.1499 -1.66186 -0.328411 0
M  V30 920 O 90.3559 -1.78949 -0.194206 0
M  V30 921 H 86.7309 -0.726938 0.192523 0
M  V30 922 H 88.7019 -2.54565 1.55689 0
M  V30 923 C 87.4509 -3.47671 0.0448436 0
M  V30 924 H 86.7739 -3.91918 0.78996 0
M  V30 925 H 88.2139 -4.2353 -0.19964 0
M  V30 926 C 86.6729 -3.14453 -1.20918 0
M  V30 927 O 87.2029 -3.29459 -2.29825 0
M  V30 928 N 85.4089 -2.68657 -1.10779 0
M  V30 929 H 84.9559 -2.56646 -0.221526 0
M  V30 930 H 84.9139 -2.46804 -1.9477 0
M  V30 931 N 88.686 -0.835752 -1.33615 0
M  V30 932 C 89.649 -0.272 -2.2758 0
M  V30 933 C 90.649 0.557487 -1.50827 0
M  V30 934 O 91.839 0.37173 -1.70188 0
M  V30 935 C 88.971 0.617173 -3.35267 0
M  V30 936 H 90.164 -1.10111 -2.78954 0
M  V30 937 H 87.717 -0.608594 -1.43965 0
M  V30 938 H 88.452 1.46884 -2.89129 0
M  V30 939 H 88.237 0.0237066 -3.92093 0
M  V30 940 H 89.727 1.005 -4.05326 0
M  V30 941 N 90.1641 1.46063 -0.591896 0
M  V30 942 C 91.0961 2.28539 0.174001 0
M  V30 943 C 92.1091 1.39047 0.846753 0
M  V30 944 O 93.2981 1.63564 0.714774 0
M  V30 945 C 90.3981 3.14347 1.26645 0
M  V30 946 C 89.5711 4.32021 0.683856 0
M  V30 947 C 88.6301 4.99157 1.66518 0
M  V30 948 O 87.6561 5.56458 1.19763 0
M  V30 949 N 88.8581 4.97005 2.99943 0
M  V30 950 H 91.6231 2.94911 -0.533633 0
M  V30 951 H 89.1841 1.56077 -0.430294 0
M  V30 952 H 91.1761 3.56125 1.92242 0
M  V30 953 H 89.7461 2.49988 1.87682 0
M  V30 954 H 88.9661 3.93915 -0.1498 0
M  V30 955 H 90.2541 5.08059 0.274567 0
M  V30 956 H 89.6521 4.51714 3.40545 0
M  V30 957 H 88.2091 5.42696 3.61004 0
M  V30 958 N 91.6422 0.330177 1.54103 0
M  V30 959 C 92.8722 -0.271784 2.04805 0
M  V30 960 C 93.2802 -1.45816 1.20559 0
M  V30 961 O 92.6232 -1.82247 0.2306 0
M  V30 962 C 92.6852 -0.763238 3.51305 0
M  V30 963 C 92.3492 0.301705 4.56003 0
M  V30 964 C 93.3462 1.13999 5.07248 0
M  V30 965 C 91.0312 0.451793 5.00264 0
M  V30 966 C 93.0252 2.11402 6.01322 0
M  V30 967 C 90.7122 1.42924 5.94151 0
M  V30 968 C 91.7102 2.25882 6.44567 0
M  V30 969 O 91.3982 3.21965 7.3661 0
M  V30 970 H 91.1302 -0.058693 0.673447 0
M  V30 971 H 93.6842 0.476395 1.99799 0
M  V30 972 H 91.9142 -1.56244 3.5373 0
M  V30 973 H 93.6032 -1.28427 3.85047 0
M  V30 974 H 94.3692 1.03505 4.73827 0
M  V30 975 H 90.2482 -0.184044 4.60632 0
M  V30 976 H 93.7922 2.76192 6.40596 0
M  V30 977 H 89.6892 1.53479 6.26988 0
M  V30 978 H 90.4572 3.17281 7.54503 0
M  V30 979 N 93.1203 -1.57491 0.0584922 0
M  V30 980 C 94.0673 -2.11958 -0.913376 0
M  V30 981 C 95.0373 -1.02875 -1.30407 0
M  V30 982 O 96.2223 -1.30464 -1.39226 0
M  V30 983 C 93.3623 -2.67497 -2.18035 0
M  V30 984 C 92.4753 -3.90691 -1.84349 0
M  V30 985 C 91.6103 -4.3452 -3.05559 0
M  V30 986 C 90.6493 -5.50395 -2.67827 0
M  V30 987 N 89.7863 -5.89244 -3.81754 0
M  V30 988 H 94.6263 -2.94704 -0.442017 0
M  V30 989 H 92.1633 -1.45643 -0.206545 0
M  V30 990 H 94.1213 -2.978 -2.92183 0
M  V30 991 H 92.7513 -1.87537 -2.62735 0
M  V30 992 H 91.8033 -3.66934 -1.00319 0
M  V30 993 H 93.1153 -4.7489 -1.5258 0
M  V30 994 H 92.2693 -4.66414 -3.87998 0
M  V30 995 H 91.0083 -3.49147 -3.40511 0
M  V30 996 H 90.0133 -5.18165 -1.83806 0
M  V30 997 H 91.2383 -6.3749 -2.34059 0
M  V30 998 H 89.1843 -5.06823 -4.16493 0
M  V30 999 H 89.1013 -6.68151 -3.53708 0
M  V30 1000 H 90.3693 -6.25756 -4.64811 0
M  V30 1001 N 94.5984 0.214957 -1.56127 0
M  V30 1002 C 95.5454 1.26642 -1.92952 0
M  V30 1003 C 96.5154 1.46244 -0.78753 0
M  V30 1004 O 97.7004 1.59704 -1.04399 0
M  V30 1005 C 94.8404 2.6104 -2.25726 0
M  V30 1006 C 93.9534 2.49183 -3.52891 0
M  V30 1007 C 93.0884 3.76149 -3.7508 0
M  V30 1008 C 92.1274 3.59041 -4.95738 0
M  V30 1009 N 91.2644 4.77972 -5.14283 0
M  V30 1010 H 96.1044 0.945384 -2.82607 0
M  V30 1011 H 93.6414 0.455489 -1.3987 0
M  V30 1012 H 95.5994 3.39313 -2.42739 0
M  V30 1013 H 94.2294 2.91227 -1.39236 0
M  V30 1014 H 93.2814 1.6231 -3.44034 0
M  V30 1015 H 94.5934 2.32466 -4.41318 0
M  V30 1016 H 93.7474 4.62865 -3.92226 0
M  V30 1017 H 92.4864 3.95799 -2.84947 0
M  V30 1018 H 91.4914 2.7071 -4.78535 0
M  V30 1019 H 92.7164 3.40856 -5.87362 0
M  V30 1020 H 90.6624 4.97923 -4.27093 0
M  V30 1021 H 90.5794 4.64006 -5.96853 0
M  V30 1022 H 91.8474 5.66096 -5.35869 0
M  V30 1023 N 96.0765 1.50051 0.48192 0
M  V30 1024 C 97.3065 1.63999 1.2565 0
M  V30 1025 C 97.7145 0.318288 1.86504 0
M  V30 1026 O 97.0575 -0.708534 1.69486 0
M  V30 1027 C 97.1195 2.66504 2.4128 0
M  V30 1028 C 96.7835 4.10352 2.01148 0
M  V30 1029 C 97.7805 4.96562 1.54021 0
M  V30 1030 C 95.4655 4.56203 2.10199 0
M  V30 1031 C 97.4595 6.26668 1.16473 0
M  V30 1032 C 95.1465 5.86318 1.72264 0
M  V30 1033 C 96.1445 6.71375 1.25477 0
M  V30 1034 O 95.8325 7.99062 0.880626 0
M  V30 1035 H 95.5645 0.55456 0.386574 0
M  V30 1036 H 98.1185 1.96954 0.582944 0
M  V30 1037 H 96.3485 2.28769 3.11772 0
M  V30 1038 H 98.0375 2.69783 3.03268 0
M  V30 1039 H 98.8035 4.62358 1.46458 0
M  V30 1040 H 94.6825 3.90152 2.45566 0
M  V30 1041 H 98.2265 6.93011 0.798841 0
M  V30 1042 H 94.1235 6.20046 1.79482 0
M  V30 1043 H 94.8915 8.12239 1.01043 0
M  V30 1044 N 97.5546 -0.734337 1.39446 0
M  V30 1045 C 98.8026 -1.49096 1.36436 0
M  V30 1046 C 99.1236 -1.94961 -0.0388255 0
M  V30 1047 O 98.3936 -1.69033 -0.990191 0
M  V30 1048 H 96.9736 -0.5531 0.502085 0
M  V30 1049 H 99.6356 -0.871725 1.74319 0
M  V30 1050 H 98.7316 -2.37276 2.02747 0
M  V30 1051 N 99.0327 -1.24633 -0.964593 0
M  V30 1052 C 99.9627 -1.06611 -2.07741 0
M  V30 1053 C 100.944 0.0218666 -1.70086 0
M  V30 1054 O 102.129 -0.145793 -1.93652 0
M  V30 1055 C 99.2587 -0.673444 -3.40708 0
M  V30 1056 C 98.2127 -1.71054 -3.92332 0
M  V30 1057 C 97.5387 -1.17285 -5.21678 0
M  V30 1058 C 98.8387 -3.10718 -4.19824 0
M  V30 1059 H 100.533 -1.99693 -2.23076 0
M  V30 1060 H 98.0787 -0.96152 -1.07195 0
M  V30 1061 H 100.032 -0.534345 -4.17998 0
M  V30 1062 H 98.7557 0.293073 -3.25282 0
M  V30 1063 H 97.4147 -1.83791 -3.17201 0
M  V30 1064 H 97.0627 -0.196847 -5.02615 0
M  V30 1065 H 96.7627 -1.86592 -5.57187 0
M  V30 1066 H 98.2867 -1.04593 -6.01575 0
M  V30 1067 H 99.7007 -3.01192 -4.87808 0
M  V30 1068 H 98.0977 -3.77406 -4.66567 0
M  V30 1069 H 99.1677 -3.58524 -3.26479 0
M  V30 1070 N 100.511 1.16574 -1.06058 0
M  V30 1071 C 101.736 1.91493 -0.796562 0
M  V30 1072 C 102.161 1.76773 0.642868 0
M  V30 1073 O 101.519 1.09142 1.44768 0
M  V30 1074 C 101.567 3.40293 -1.19303 0
M  V30 1075 O 100.671 4.11074 -0.330394 0
M  V30 1076 H 100.012 0.596678 -0.291326 0
M  V30 1077 H 102.542 1.47708 -1.41575 0
M  V30 1078 H 102.552 3.91057 -1.16356 0
M  V30 1079 H 101.227 3.50326 -2.24153 0
M  V30 1080 H 99.8038 3.70513 -0.421225 0
M  V30 1081 N 101.989 0.842826 1.3317 0
M  V30 1082 C 102.936 0.276885 2.29133 0
M  V30 1083 C 103.906 -0.609527 1.54512 0
M  V30 1084 O 105.091 -0.546955 1.82792 0
M  V30 1085 C 102.231 -0.538707 3.40869 0
M  V30 1086 C 101.344 0.372169 4.30394 0
M  V30 1087 C 100.479 -0.454908 5.29249 0
M  V30 1088 C 99.5179 0.45411 6.10413 0
M  V30 1089 N 98.6549 -0.335075 7.013 0
M  V30 1090 H 103.495 1.10052 2.76934 0
M  V30 1091 H 101.032 0.554161 1.36262 0
M  V30 1092 H 102.99 -1.02709 4.0436 0
M  V30 1093 H 101.62 -1.32727 2.9425 0
M  V30 1094 H 100.672 0.97888 3.6759 0
M  V30 1095 H 101.984 1.0703 4.87182 0
M  V30 1096 H 101.138 -1.00695 5.98285 0
M  V30 1097 H 99.8769 -1.18646 4.73048 0
M  V30 1098 H 98.8819 1.01813 5.40291 0
M  V30 1099 H 100.107 1.18409 6.68697 0
M  V30 1100 H 98.0529 -1.04994 6.47543 0
M  V30 1101 H 97.9699 0.304262 7.55387 0
M  V30 1102 H 99.2379 -0.869224 7.74638 0
M  V30 1103 N 103.467 -1.45747 0.599634 0
M  V30 1104 C 104.692 -2.07178 0.0960198 0
M  V30 1105 C 105.117 -1.44268 -1.207 0
M  V30 1106 O 104.475 -0.532503 -1.73303 0
M  V30 1107 C 104.523 -3.60579 -0.0385348 0
M  V30 1108 O 103.627 -3.97713 -1.0908 0
M  V30 1109 H 102.968 -0.660251 0.0704593 0
M  V30 1110 H 105.498 -1.87124 0.827385 0
M  V30 1111 H 105.508 -4.07298 -0.239304 0
M  V30 1112 H 104.183 -4.05756 0.912947 0
M  V30 1113 H 102.76 -3.62678 -0.867135 0
M  V30 1114 N 104.945 -0.338344 -1.53925 0
M  V30 1115 C 105.855 0.529421 -2.28548 0
M  V30 1116 C 106.871 1.11645 -1.3346 0
M  V30 1117 O 108.047 1.13325 -1.66492 0
M  V30 1118 C 105.112 1.66713 -3.03987 0
M  V30 1119 C 104.173 1.11041 -4.14691 0
M  V30 1120 C 103.406 2.19389 -4.86522 0
M  V30 1121 O 103.629 3.40013 -4.57982 0
M  V30 1122 O 102.563 1.83976 -5.73094 0
M  V30 1123 H 106.389 -0.0770399 -3.03602 0
M  V30 1124 H 103.974 -0.103555 -1.49041 0
M  V30 1125 H 105.856 2.32918 -3.5118 0
M  V30 1126 H 104.531 2.25949 -2.31794 0
M  V30 1127 H 103.438 0.413024 -3.71813 0
M  V30 1128 H 104.771 0.562975 -4.8897 0
M  V30 1129 N 106.423 1.57458 -0.0668435 0
M  V30 1130 C 107.37 2.12439 0.902122 0
M  V30 1131 C 108.34 1.03565 1.2986 0
M  V30 1132 O 109.525 1.312 1.38532 0
M  V30 1133 C 106.665 2.6865 2.16614 0
M  V30 1134 C 105.778 3.91663 1.82274 0
M  V30 1135 C 104.913 4.36134 3.0325 0
M  V30 1136 C 103.952 5.51808 2.64904 0
M  V30 1137 N 103.089 5.9126 3.78624 0
M  V30 1138 H 107.929 2.94934 0.426382 0
M  V30 1139 H 105.466 1.4575 0.198819 0
M  V30 1140 H 107.424 2.99346 2.90599 0
M  V30 1141 H 106.054 1.88928 2.61737 0
M  V30 1142 H 105.106 3.6746 0.983719 0
M  V30 1143 H 106.418 4.75693 1.50059 0
M  V30 1144 H 105.572 4.68465 3.85519 0
M  V30 1145 H 104.311 3.50948 3.38655 0
M  V30 1146 H 103.316 5.19133 1.81055 0
M  V30 1147 H 104.541 6.38722 2.30675 0
M  V30 1148 H 102.487 5.09024 4.138 0
M  V30 1149 H 102.404 6.70018 3.5016 0
M  V30 1150 H 103.672 6.28212 4.61486 0
M  V30 1151 N 107.901 -0.206675 1.56239 0
M  V30 1152 C 108.811 -1.27686 1.96808 0
M  V30 1153 C 109.827 -1.50455 0.874035 0
M  V30 1154 O 111.003 -1.63295 1.17884 0
M  V30 1155 C 108.068 -2.60358 2.28942 0
M  V30 1156 C 107.129 -2.45762 3.51994 0
M  V30 1157 C 106.362 -3.72108 3.82585 0
M  V30 1158 O 106.585 -4.75776 3.14631 0
M  V30 1159 O 105.519 -3.6833 4.76043 0
M  V30 1160 H 109.345 -0.962593 2.88041 0
M  V30 1161 H 106.93 -0.410746 1.43643 0
M  V30 1162 H 108.812 -3.38687 2.50737 0
M  V30 1163 H 107.487 -2.91435 1.4088 0
M  V30 1164 H 106.394 -1.65584 3.35459 0
M  V30 1165 H 107.727 -2.19621 4.40486 0
M  V30 1166 N 109.379 -1.50304 -0.473955 0
M  V30 1167 C 110.342 -1.6841 -1.55469 0
M  V30 1168 C 111.342 -0.554905 -1.50922 0
M  V30 1169 O 112.532 -0.821882 -1.53593 0
M  V30 1170 C 109.664 -1.70667 -2.95102 0
M  V30 1171 H 110.857 -2.64828 -1.40733 0
M  V30 1172 H 108.41 -1.39742 -0.700132 0
M  V30 1173 H 109.145 -0.75932 -3.15285 0
M  V30 1174 H 108.93 -2.52698 -2.9981 0
M  V30 1175 H 110.42 -1.8664 -3.73571 0
M  V30 1176 N 110.857 0.726932 -1.39834 0
M  V30 1177 C 112.106 1.48214 -1.36805 0
M  V30 1178 C 112.419 1.95576 0.0305291 0
M  V30 1179 O 113.625 2.7088 0.183417 0
M  V30 1180 C 112.081 2.67854 -2.40379 0
M  V30 1181 C 111.689 2.27408 -3.85992 0
M  V30 1182 C 113.433 3.45641 -2.46439 0
M  V30 1183 C 111.34 3.43819 -4.81189 0
M  V30 1184 H 110.27 0.556606 -0.508631 0
M  V30 1185 H 112.921 0.792216 -1.65518 0
M  V30 1186 H 111.303 3.3896 -2.04749 0
M  V30 1187 H 112.477 1.63795 -4.30706 0
M  V30 1188 H 110.792 1.62692 -3.83302 0
M  V30 1189 H 113.389 4.32244 -3.14753 0
M  V30 1190 H 113.732 3.88669 -1.49139 0
M  V30 1191 H 114.265 2.8157 -2.81004 0
M  V30 1192 H 111.004 3.05834 -5.79781 0
M  V30 1193 H 110.524 4.06385 -4.41148 0
M  V30 1194 H 112.203 4.10043 -5.00474 0
M  V30 1195 N 112.336 1.25143 0.95797 0
M  V30 1196 C 113.582 1.09855 1.70469 0
M  V30 1197 C 113.915 -0.360187 1.90831 0
M  V30 1198 O 113.19 -1.26568 1.47685 0
M  V30 1199 C 113.473 1.8497 3.08963 0
M  V30 1200 C 113.326 3.38652 2.96032 0
M  V30 1201 C 114.645 1.63016 4.08795 0
M  V30 1202 H 111.764 0.400465 0.618706 0
M  V30 1203 H 114.406 1.53933 1.11376 0
M  V30 1204 H 112.556 1.47505 3.59409 0
M  V30 1205 H 114.228 3.85772 2.52938 0
M  V30 1206 H 112.471 3.66534 2.32025 0
M  V30 1207 H 113.142 3.8642 3.94187 0
M  V30 1208 H 115.618 1.95625 3.67247 0
M  V30 1209 H 114.494 2.18015 5.03747 0
M  V30 1210 H 114.755 0.570692 4.38401 0
M  V30 1211 N 113.814 -1.1601 1.06675 0
M  V30 1212 C 115.039 -1.91068 0.806706 0
M  V30 1213 C 115.464 -1.77112 -0.633485 0
M  V30 1214 O 114.822 -1.09908 -1.44187 0
M  V30 1215 C 114.87 -3.39655 1.21106 0
M  V30 1216 O 113.974 -4.10893 0.352189 0
M  V30 1217 H 113.315 -0.595125 0.294486 0
M  V30 1218 H 115.845 -1.46955 1.42356 0
M  V30 1219 H 115.855 -3.90434 1.18428 0
M  V30 1220 H 114.53 -3.49132 2.26008 0
M  V30 1221 H 113.107 -3.70285 0.440868 0
M  V30 1222 N 115.292 -0.849877 -1.32721 0
M  V30 1223 C 116.522 -0.46408 -2.0132 0
M  V30 1224 C 116.93 0.94246 -1.64056 0
M  V30 1225 O 116.273 1.6257 -0.855379 0
M  V30 1226 C 116.335 -0.517887 -3.5575 0
M  V30 1227 C 115.999 -1.88248 -4.16427 0
M  V30 1228 C 116.996 -2.84726 -4.35002 0
M  V30 1229 C 114.681 -2.17832 -4.52609 0
M  V30 1230 C 116.675 -4.08945 -4.8892 0
M  V30 1231 C 114.362 -3.42304 -5.06232 0
M  V30 1232 C 115.36 -4.37677 -5.24335 0
M  V30 1233 O 115.048 -5.59946 -5.76815 0
M  V30 1234 H 114.78 -0.181327 -0.651227 0
M  V30 1235 H 117.334 -1.14713 -1.70382 0
M  V30 1236 H 115.564 0.221997 -3.86062 0
M  V30 1237 H 117.253 -0.148366 -4.05629 0
M  V30 1238 H 118.019 -2.63174 -4.07388 0
M  V30 1239 H 113.898 -1.44385 -4.37806 0
M  V30 1240 H 117.442 -4.83396 -5.02966 0
M  V30 1241 H 113.339 -3.63709 -5.33278 0
M  V30 1242 H 114.107 -5.61838 -5.95214 0
M  V30 1243 N 116.77 1.45427 -0.607355 0
M  V30 1244 C 117.998 2.06614 -0.108814 0
M  V30 1245 C 118.413 1.45204 1.2067 0
M  V30 1246 O 117.77 0.566132 1.73497 0
M  V30 1247 C 117.821 3.61481 0.0375347 0
M  V30 1248 O 117.542 4.20598 -1.22593 0
M  V30 1249 C 119.043 4.39652 0.567561 0
M  V30 1250 H 116.263 0.66747 -0.0687351 0
M  V30 1251 H 118.807 1.86675 -0.835022 0
M  V30 1252 H 116.962 3.80762 0.714068 0
M  V30 1253 H 117.376 5.1377 -1.05547 0
M  V30 1254 H 118.85 5.48518 0.61905 0
M  V30 1255 H 119.327 4.09417 1.58978 0
M  V30 1256 H 119.933 4.25234 -0.0749202 0
M  V30 1257 N 118.248 0.346503 1.53744 0
M  V30 1258 C 119.195 -0.508914 2.25119 0
M  V30 1259 C 120.165 -1.09315 1.25058 0
M  V30 1260 O 121.35 -1.12921 1.53797 0
M  V30 1261 C 118.49 -1.65246 3.02965 0
M  V30 1262 C 117.603 -1.09525 4.17886 0
M  V30 1263 C 116.738 -2.20634 4.83212 0
M  V30 1264 C 115.777 -1.62279 5.90196 0
M  V30 1265 N 114.914 -2.67143 6.49291 0
M  V30 1266 H 119.754 0.106283 2.9781 0
M  V30 1267 H 117.291 0.0642227 1.4696 0
M  V30 1268 H 119.249 -2.32574 3.4636 0
M  V30 1269 H 117.879 -2.2386 2.32565 0
M  V30 1270 H 116.931 -0.312818 3.79112 0
M  V30 1271 H 118.243 -0.628444 4.94825 0
M  V30 1272 H 117.397 -2.95821 5.29693 0
M  V30 1273 H 116.136 -2.70659 4.05703 0
M  V30 1274 H 115.141 -0.855989 5.43096 0
M  V30 1275 H 116.366 -1.13102 6.69615 0
M  V30 1276 H 114.312 -3.16417 5.74645 0
M  V30 1277 H 114.229 -2.25093 7.21713 0
M  V30 1278 H 115.497 -3.4209 7.00425 0
M  V30 1279 N 119.726 -1.57421 0.075193 0
M  V30 1280 C 120.951 -1.98364 -0.605515 0
M  V30 1281 C 121.376 -0.953383 -1.62149 0
M  V30 1282 O 120.734 0.0806053 -1.81121 0
M  V30 1283 C 120.782 -3.38332 -1.24756 0
M  V30 1284 O 119.886 -3.37959 -2.36342 0
M  V30 1285 H 119.227 -0.645553 -0.155428 0
M  V30 1286 H 121.757 -2.04044 0.150714 0
M  V30 1287 H 121.767 -3.75591 -1.5936 0
M  V30 1288 H 120.442 -4.12846 -0.503129 0
M  V30 1289 H 119.019 -3.12474 -2.03506 0
M  V30 1290 N 121.204 0.198386 -1.56346 0
M  V30 1291 C 122.167 1.22952 -1.93431 0
M  V30 1292 C 123.167 1.38611 -0.815092 0
M  V30 1293 O 124.357 1.36479 -1.08255 0
M  V30 1294 C 121.489 2.59946 -2.20546 0
M  V30 1295 H 122.682 0.912626 -2.85677 0
M  V30 1296 H 120.235 0.43977 -1.49986 0
M  V30 1297 H 120.97 2.96696 -1.30927 0
M  V30 1298 H 120.755 2.49953 -3.02102 0
M  V30 1299 H 122.245 3.3431 -2.50253 0
M  V30 1300 N 122.682 1.50554 0.465978 0
M  V30 1301 C 123.907 1.65838 1.24549 0
M  V30 1302 C 124.332 0.343486 1.84937 0
M  V30 1303 O 123.69 -0.69324 1.67523 0
M  V30 1304 C 123.738 2.75533 2.32624 0
M  V30 1305 O 122.842 2.37142 3.37398 0
M  V30 1306 H 122.183 0.553893 0.366194 0
M  V30 1307 H 124.713 1.96959 0.553927 0
M  V30 1308 H 124.723 2.98763 2.77857 0
M  V30 1309 H 123.398 3.70962 1.88043 0
M  V30 1310 H 121.975 2.24377 2.97841 0
M  V30 1311 N 124.16 -0.719506 1.40217 0
M  V30 1312 C 125.07 -1.86378 1.42479 0
M  V30 1313 C 126.086 -1.71073 0.317834 0
M  V30 1314 O 127.262 -1.93406 0.561794 0
M  V30 1315 C 124.327 -3.22136 1.28178 0
M  V30 1316 C 123.388 -3.49723 2.48982 0
M  V30 1317 C 122.621 -4.79004 2.35353 0
M  V30 1318 O 122.844 -5.53821 1.36524 0
M  V30 1319 O 121.778 -5.06839 3.2465 0
M  V30 1320 H 125.604 -1.87425 2.38968 0
M  V30 1321 H 123.189 -0.869405 1.21498 0
M  V30 1322 H 125.071 -4.03234 1.22395 0
M  V30 1323 H 123.746 -3.21825 0.347934 0
M  V30 1324 H 122.653 -2.6865 2.60342 0
M  V30 1325 H 123.986 -3.54828 3.41113 0
M  V30 1326 N 125.638 -1.25649 -0.95132 0
M  V30 1327 C 126.887 -1.09988 -1.69073 0
M  V30 1328 C 127.2 0.358355 -1.92289 0
M  V30 1329 O 128.406 0.635466 -2.63958 0
M  V30 1330 C 126.862 -1.92012 -3.044 0
M  V30 1331 C 126.47 -3.42347 -2.88968 0
M  V30 1332 C 128.214 -1.8493 -3.82101 0
M  V30 1333 C 126.121 -4.16655 -4.19705 0
M  V30 1334 H 125.051 -0.407993 -0.63408 0
M  V30 1335 H 127.702 -1.49873 -1.05879 0
M  V30 1336 H 126.084 -1.44952 -3.68517 0
M  V30 1337 H 127.258 -3.97104 -2.33762 0
M  V30 1338 H 125.573 -3.50557 -2.24719 0
M  V30 1339 H 128.17 -2.37739 -4.78941 0
M  V30 1340 H 128.513 -0.817883 -4.08187 0
M  V30 1341 H 129.046 -2.29758 -3.2474 0
M  V30 1342 H 125.785 -5.20224 -3.98807 0
M  V30 1343 H 125.305 -3.66681 -4.74663 0
M  V30 1344 H 126.984 -4.24551 -4.88227 0
M  V30 1345 N 127.117 1.15442 -1.07289 0
M  V30 1346 C 128.065 2.22225 -0.686952 0
M  V30 1347 C 129.059 1.66688 0.30193 0
M  V30 1348 O 130.265 1.79236 0.165712 0
M  V30 1349 H 126.64 0.723783 -0.204064 0
M  V30 1350 H 128.611 2.52056 -1.5972 0
M  V30 1351 C 127.36 3.47556 -0.100149 0
M  V30 1352 H 126.683 3.90612 -0.852211 0
M  V30 1353 H 128.123 4.23794 0.132235 0
M  V30 1354 C 126.582 3.16337 1.159 0
M  V30 1355 O 127.112 3.33074 2.24555 0
M  V30 1356 N 125.318 2.70385 1.06491 0
M  V30 1357 H 124.865 2.56966 0.180668 0
M  V30 1358 H 124.823 2.49871 1.90819 0
M  V30 1359 N 128.595 0.856903 1.32268 0
M  V30 1360 C 129.843 0.460474 1.96784 0
M  V30 1361 C 130.164 -0.987701 1.68135 0
M  V30 1362 O 129.434 -1.69058 0.989765 0
M  V30 1363 H 128.014 0.167289 0.728027 0
M  V30 1364 H 130.676 1.09383 1.61312 0
M  V30 1365 H 129.772 0.60739 3.06133 0
M  V30 1366 N 130.073 -1.45103 0.615059 0
M  V30 1367 C 131.02 -2.30586 -0.0993978 0
M  V30 1368 C 131.99 -1.42544 -0.852669 0
M  V30 1369 O 133.175 -1.71465 -0.836917 0
M  V30 1370 C 130.315 -3.27572 -1.08583 0
M  V30 1371 C 129.428 -4.30717 -0.332656 0
M  V30 1372 C 128.563 -5.14807 -1.30947 0
M  V30 1373 C 127.602 -6.09673 -0.544538 0
M  V30 1374 N 126.739 -6.86517 -1.47101 0
M  V30 1375 H 131.579 -2.91144 0.635542 0
M  V30 1376 H 129.116 -1.4346 0.325206 0
M  V30 1377 H 131.074 -3.82276 -1.67095 0
M  V30 1378 H 129.704 -2.68751 -1.78809 0
M  V30 1379 H 128.756 -3.78615 0.368107 0
M  V30 1380 H 130.068 -4.98102 0.263842 0
M  V30 1381 H 129.222 -5.73948 -1.96643 0
M  V30 1382 H 127.961 -4.47458 -1.9399 0
M  V30 1383 H 126.966 -5.49656 0.126003 0
M  V30 1384 H 128.191 -6.79052 0.080947 0
M  V30 1385 H 126.137 -6.21851 -2.08895 0
M  V30 1386 H 126.054 -7.50281 -0.928137 0
M  V30 1387 H 127.322 -7.50194 -2.11731 0
M  V30 1388 N 131.551 -0.354651 -1.53558 0
M  V30 1389 C 132.481 0.489091 -2.2832 0
M  V30 1390 C 133.462 1.09324 -1.30316 0
M  V30 1391 O 134.647 1.11255 -1.59173 0
M  V30 1392 C 131.777 1.63456 -3.0643 0
M  V30 1393 C 130.731 1.1582 -4.12031 0
M  V30 1394 C 130.057 2.39305 -4.7816 0
M  V30 1395 C 131.357 0.250731 -5.21698 0
M  V30 1396 H 133.051 -0.134614 -2.99097 0
M  V30 1397 H 130.597 -0.0661826 -1.43848 0
M  V30 1398 H 132.55 2.23136 -3.57475 0
M  V30 1399 H 131.274 2.28533 -2.33325 0
M  V30 1400 H 129.933 0.584146 -3.61916 0
M  V30 1401 H 129.581 3.02814 -4.01637 0
M  V30 1402 H 129.281 2.08109 -5.49513 0
M  V30 1403 H 130.805 2.99691 -5.31994 0
M  V30 1404 H 132.219 0.754695 -5.68311 0
M  V30 1405 H 130.616 0.0301468 -6.00092 0
M  V30 1406 H 131.686 -0.710125 -4.79672 0
M  V30 1407 N 133.029 1.57378 -0.0835403 0
M  V30 1408 C 134.445 1.57246 0.273109 0
M  V30 1409 C 134.645 1.09385 1.69225 0
M  V30 1410 O 133.701 0.765051 2.40631 0
M  V30 1411 C 135.014 3.00614 0.0720628 0
M  V30 1412 C 136.562 3.12684 0.1407 0
M  V30 1413 C 137.037 4.57989 -0.0322094 0
M  V30 1414 N 138.528 4.63194 0.0230085 0
M  V30 1415 C 139.263 5.73335 -0.0861941 0
M  V30 1416 N 138.759 6.9235 -0.24958 0
M  V30 1417 N 140.552 5.62093 -0.0282886 0
M  V30 1418 H 132.703 1.86801 -1.0109 0
M  V30 1419 H 134.966 0.861687 -0.395222 0
M  V30 1420 H 134.672 3.39786 -0.907662 0
M  V30 1421 H 134.546 3.68193 0.81936 0
M  V30 1422 H 136.933 2.73391 1.11092 0
M  V30 1423 H 137.014 2.47719 -0.637896 0
M  V30 1424 H 136.658 4.97973 -0.999247 0
M  V30 1425 H 136.588 5.21 0.765937 0
M  V30 1426 H 139.079 3.77613 0.14722 0
M  V30 1427 H 139.392 7.72117 -0.324733 0
M  V30 1428 H 137.737 6.94415 -0.285097 0
M  V30 1429 H 140.928 4.67997 0.0981408 0
M  V30 1430 H 141.101 6.47895 -0.116845 0
M  V30 1431 N 134.507 -0.190092 1.56449 0
M  V30 1432 C 135.439 -1.25973 1.91477 0
M  V30 1433 C 136.452 -1.41452 0.805931 0
M  V30 1434 O 137.641 -1.41789 1.08435 0
M  V30 1435 C 134.741 -2.63117 2.13594 0
M  V30 1436 C 133.914 -2.69182 3.4476 0
M  V30 1437 C 132.973 -3.87557 3.5593 0
M  V30 1438 O 131.999 -3.74427 4.28711 0
M  V30 1439 N 133.201 -5.03224 2.89388 0
M  V30 1440 H 135.966 -0.962394 2.83828 0
M  V30 1441 H 133.527 -0.379981 1.57378 0
M  V30 1442 H 135.519 -3.40742 2.1835 0
M  V30 1443 H 134.089 -2.85319 1.27719 0
M  V30 1444 H 133.309 -1.77793 3.51828 0
M  V30 1445 H 134.597 -2.70229 4.31107 0
M  V30 1446 H 133.995 -5.16791 2.30094 0
M  V30 1447 H 132.552 -5.78778 2.99764 0
M  V30 1448 N 135.985 -1.50799 -0.457987 0
M  V30 1449 C 136.933 -1.71162 -1.575 0
M  V30 1450 C 137.927 -0.577592 -1.59249 0
M  V30 1451 O 139.133 -0.758443 -1.63241 0
M  V30 1452 H 135.508 -0.540468 -0.522875 0
M  V30 1453 H 137.479 -2.64837 -1.37492 0
M  V30 1454 C 136.228 -1.83496 -2.95338 0
M  V30 1455 H 135.551 -2.70153 -2.94716 0
M  V30 1456 H 136.991 -2.01765 -3.72917 0
M  V30 1457 C 135.45 -0.589694 -3.31699 0
M  V30 1458 O 135.98 0.265163 -4.00824 0
M  V30 1459 N 134.186 -0.439845 -2.87252 0
M  V30 1460 H 133.733 -1.13655 -2.31172 0
M  V30 1461 H 133.691 0.392159 -3.11945 0
M  V30 1462 N 137.463 0.71206 -1.40597 0
M  V30 1463 C 138.41 1.82613 -1.41142 0
M  V30 1464 C 139.38 1.63925 -0.267903 0
M  V30 1465 O 140.565 1.85009 -0.466495 0
M  V30 1466 C 137.705 3.20354 -1.28324 0
M  V30 1467 C 136.818 3.50589 -2.52411 0
M  V30 1468 C 135.953 4.77855 -2.32009 0
M  V30 1469 C 134.992 5.01005 -3.51654 0
M  V30 1470 N 134.129 6.19487 -3.30425 0
M  V30 1471 H 138.969 1.81482 -2.36365 0
M  V30 1472 H 136.506 0.886475 -1.17388 0
M  V30 1473 H 138.464 3.99899 -1.18899 0
M  V30 1474 H 137.094 3.20705 -0.367189 0
M  V30 1475 H 136.146 2.65573 -2.72351 0
M  V30 1476 H 137.458 3.63604 -3.41458 0
M  V30 1477 H 136.612 5.65424 -2.19956 0
M  V30 1478 H 135.351 4.67056 -1.40392 0
M  V30 1479 H 134.356 4.1189 -3.64179 0
M  V30 1480 H 135.581 5.13674 -4.44202 0
M  V30 1481 H 133.527 6.09932 -2.41494 0
M  V30 1482 H 133.444 6.33194 -4.13039 0
M  V30 1483 H 134.712 7.09834 -3.22113 0
M  V30 1484 N 138.941 1.26152 0.944643 0
M  V30 1485 C 140.189 1.11271 1.6871 0
M  V30 1486 C 140.51 -0.345166 1.91921 0
M  V30 1487 O 139.78 -1.24387 1.51343 0
M  V30 1488 H 138.36 0.408783 0.625224 0
M  V30 1489 H 141.022 1.58427 1.1352 0
M  V30 1490 H 140.118 1.62879 2.66227 0
M  V30 1491 N 140.419 -1.14872 1.07899 0
M  V30 1492 C 141.665 -1.86064 0.806725 0
M  V30 1493 C 141.998 -1.82434 -0.665706 0
M  V30 1494 O 141.273 -1.25138 -1.48899 0
M  V30 1495 C 141.556 -3.34929 1.32267 0
M  V30 1496 C 141.409 -3.47161 2.86006 0
M  V30 1497 C 142.728 -4.29863 0.943717 0
M  V30 1498 H 139.847 -0.675591 0.294526 0
M  V30 1499 H 142.489 -1.34925 1.33773 0
M  V30 1500 H 140.639 -3.78611 0.870974 0
M  V30 1501 H 142.311 -3.12302 3.39507 0
M  V30 1502 H 140.554 -2.88539 3.23925 0
M  V30 1503 H 141.225 -4.51777 3.17177 0
M  V30 1504 H 143.701 -3.9417 1.33302 0
M  V30 1505 H 142.577 -5.32494 1.33198 0
M  V30 1506 H 142.838 -4.41846 -0.149796 0
M  V30 1507 N 141.898 -0.863906 -1.31812 0
M  V30 1508 C 143.147 -0.46801 -1.96195 0
M  V30 1509 C 143.46 0.983474 -1.69077 0
M  V30 1510 O 144.666 1.48523 -2.27273 0
M  V30 1511 C 143.122 -0.785995 -3.51212 0
M  V30 1512 C 142.73 -2.25383 -3.87178 0
M  V30 1513 C 144.474 -0.458274 -4.22019 0
M  V30 1514 C 142.381 -2.51455 -5.3528 0
M  V30 1515 H 141.311 -0.171283 -0.734287 0
M  V30 1516 H 143.962 -1.05597 -1.50072 0
M  V30 1517 H 142.344 -0.127359 -3.95795 0
M  V30 1518 H 143.518 -2.95502 -3.53575 0
M  V30 1519 H 141.833 -2.54698 -3.2942 0
M  V30 1520 H 144.43 -0.630369 -5.30971 0
M  V30 1521 H 144.773 0.600834 -4.11941 0
M  V30 1522 H 145.306 -1.07319 -3.8305 0
M  V30 1523 H 142.045 -3.56025 -5.50387 0
M  V30 1524 H 141.565 -1.85923 -5.70257 0
M  V30 1525 H 143.244 -2.35874 -6.02472 0
M  V30 1526 N 143.376 1.44774 -0.622745 0
M  V30 1527 C 144.324 2.32387 0.0994683 0
M  V30 1528 C 145.318 1.46859 0.844326 0
M  V30 1529 O 146.524 1.63254 0.758174 0
M  V30 1530 H 142.899 0.750273 0.0509291 0
M  V30 1531 H 144.87 2.91062 -0.65767 0
M  V30 1532 C 143.619 3.30723 1.07319 0
M  V30 1533 H 142.942 3.96541 0.509462 0
M  V30 1534 H 144.382 3.94725 1.54817 0
M  V30 1535 C 142.841 2.59021 2.15429 0
M  V30 1536 O 143.371 2.38286 3.23393 0
M  V30 1537 N 141.577 2.189 1.91131 0
M  V30 1538 H 141.124 2.35964 1.03337 0
M  V30 1539 H 141.082 1.71251 2.63668 0
M  V30 1540 N 144.854 0.36279 1.53368 0
M  V30 1541 C 146.102 -0.227326 2.00817 0
M  V30 1542 C 146.423 -1.49511 1.25186 0
M  V30 1543 O 145.693 -1.92482 0.364348 0
M  V30 1544 H 144.273 -0.0869923 0.741917 0
M  V30 1545 H 146.935 0.488381 1.88682 0
M  V30 1546 H 146.031 -0.456273 3.08747 0
M  V30 1547 N 146.332 -1.57332 0.0918853 0
M  V30 1548 C 147.579 -1.94236 -0.572577 0
M  V30 1549 C 147.907 -0.973398 -1.6839 0
M  V30 1550 O 147.162 0.00756912 -1.95699 0
M  V30 1551 C 147.461 -3.37689 -1.17051 0
M  V30 1552 C 147.127 -4.50527 -0.183304 0
M  V30 1553 C 145.789 -4.81119 0.0882276 0
M  V30 1554 C 148.141 -5.18883 0.49095 0
M  V30 1555 C 145.469 -5.77395 1.04076 0
M  V30 1556 C 147.821 -6.1618 1.43193 0
M  V30 1557 C 146.485 -6.45179 1.71173 0
M  V30 1558 H 145.755 -0.710762 -0.209521 0
M  V30 1559 H 148.402 -1.9077 0.167036 0
M  V30 1560 H 146.707 -3.37718 -1.9863 0
M  V30 1561 H 148.404 -3.63543 -1.69227 0
M  V30 1562 H 144.994 -4.26681 -0.405124 0
M  V30 1563 H 149.178 -4.95427 0.294312 0
M  V30 1564 H 144.434 -5.98179 1.26457 0
M  V30 1565 H 148.608 -6.68243 1.96023 0
M  V30 1566 H 146.235 -7.1959 2.4514 0
M  V30 1567 N 147.81 0.181792 -1.56548 0
M  V30 1568 C 149.221 0.745244 -1.71181 0
M  V30 1569 C 149.572 1.83262 -0.70068 0
M  V30 1570 O 148.697 2.15946 0.140154 0
M  V30 1571 C 149.292 1.35859 -3.10367 0
M  V30 1572 C 147.851 1.86898 -3.2672 0
M  V30 1573 C 146.998 0.743942 -2.67134 0
M  V30 1574 H 149.949 -0.0434661 -1.5864 0
M  V30 1575 H 149.97 2.22817 -3.08436 0
M  V30 1576 H 149.482 0.566948 -3.83937 0
M  V30 1577 H 147.583 2.68738 -2.5809 0
M  V30 1578 H 147.696 2.02162 -4.34359 0
M  V30 1579 H 146.06 1.16169 -2.26665 0
M  V30 1580 H 146.843 -0.035676 -3.43281 0
M  V30 1581 N 149.288 1.51039 0.449983 0
M  V30 1582 C 150.513 1.6715 1.22783 0
M  V30 1583 C 150.938 0.363081 1.84563 0
M  V30 1584 O 150.296 -0.675433 1.68249 0
M  V30 1585 C 150.344 2.77985 2.29689 0
M  V30 1586 O 149.448 2.40707 3.34864 0
M  V30 1587 H 148.789 0.557746 0.360299 0
M  V30 1588 H 151.319 1.97535 0.533005 0
M  V30 1589 H 151.329 3.01693 2.74673 0
M  V30 1590 H 150.004 3.72935 1.84098 0
M  V30 1591 H 148.581 2.27523 2.95445 0
M  V30 1592 N 150.766 -0.704594 1.40972 0
M  V30 1593 C 151.714 -1.83994 1.42299 0
M  V30 1594 C 152.708 -1.66684 0.302111 0
M  V30 1595 O 153.914 -1.73655 0.473697 0
M  V30 1596 H 150.289 -0.606171 0.44504 0
M  V30 1597 H 152.26 -1.79992 2.38003 0
M  V30 1598 C 151.009 -3.21946 1.31323 0
M  V30 1599 H 150.332 -3.35878 2.16855 0
M  V30 1600 H 151.772 -4.01491 1.36311 0
M  V30 1601 C 150.231 -3.36891 0.0245977 0
M  V30 1602 O 150.761 -3.90687 -0.934153 0
M  V30 1603 N 148.967 -2.90559 -0.0485243 0
M  V30 1604 H 148.514 -2.46968 0.732419 0
M  V30 1605 H 148.472 -3.00937 -0.910171 0
M  V30 1606 N 152.244 -1.26651 -0.937939 0
M  V30 1607 C 153.174 -1.10993 -2.05433 0
M  V30 1608 C 154.155 -0.0142161 -1.70094 0
M  V30 1609 O 155.34 -0.186837 -1.93299 0
M  V30 1610 C 152.47 -0.745561 -3.39203 0
M  V30 1611 C 151.424 -1.79337 -3.88616 0
M  V30 1612 C 150.75 -1.28324 -5.19073 0
M  V30 1613 C 152.05 -3.19553 -4.13138 0
M  V30 1614 H 153.744 -2.0438 -2.1879 0
M  V30 1615 H 151.29 -0.984041 -1.05131 0
M  V30 1616 H 153.243 -0.622888 -4.16771 0
M  V30 1617 H 151.967 0.22401 -3.25831 0
M  V30 1618 H 150.626 -1.90477 -3.13231 0
M  V30 1619 H 150.274 -0.303414 -5.02084 0
M  V30 1620 H 149.974 -1.98369 -5.53103 0
M  V30 1621 H 151.498 -1.1733 -5.99221 0
M  V30 1622 H 152.912 -3.11471 -4.81309 0
M  V30 1623 H 151.309 -3.87218 -4.58457 0
M  V30 1624 H 152.379 -3.65368 -3.18801 0
M  V30 1625 N 153.722 1.14298 -1.08507 0
M  V30 1626 C 154.971 1.84708 -0.810305 0
M  V30 1627 C 155.284 1.83903 0.666271 0
M  V30 1628 O 156.49 2.50112 1.05624 0
M  V30 1629 C 154.946 3.31572 -1.39957 0
M  V30 1630 C 154.554 3.40791 -2.90801 0
M  V30 1631 C 156.298 4.07087 -1.20334 0
M  V30 1632 C 154.205 4.81872 -3.4286 0
M  V30 1633 H 153.135 0.691985 -0.299454 0
M  V30 1634 H 155.786 1.28841 -1.30661 0
M  V30 1635 H 154.168 3.87183 -0.830976 0
M  V30 1636 H 155.342 2.95225 -3.53806 0
M  V30 1637 H 153.657 2.78732 -3.0935 0
M  V30 1638 H 156.254 5.11225 -1.56693 0
M  V30 1639 H 156.597 4.16054 -0.143237 0
M  V30 1640 H 157.13 3.57779 -1.73893 0
M  V30 1641 H 153.869 4.78094 -4.48449 0
M  V30 1642 H 153.389 5.27972 -2.84615 0
M  V30 1643 H 155.068 5.50765 -3.39509 0
M  V30 1644 N 155.201 0.870884 1.31352 0
M  V30 1645 C 156.148 0.325425 2.28494 0
M  V30 1646 C 157.118 -0.576615 1.5577 0
M  V30 1647 O 158.303 -0.508059 1.83911 0
M  V30 1648 C 155.443 -0.466283 3.41935 0
M  V30 1649 C 154.556 0.463378 4.29508 0
M  V30 1650 C 153.691 -0.342544 5.30094 0
M  V30 1651 C 152.73 0.583486 6.09313 0
M  V30 1652 N 151.867 -0.186244 7.01853 0
M  V30 1653 H 156.707 1.15901 2.74538 0
M  V30 1654 H 154.244 0.58294 1.35056 0
M  V30 1655 H 156.202 -0.941085 4.06447 0
M  V30 1656 H 154.832 -1.26456 2.97 0
M  V30 1657 H 153.884 1.05663 3.65431 0
M  V30 1658 H 155.196 1.1734 4.84802 0
M  V30 1659 H 154.35 -0.879816 6.00287 0
M  V30 1660 H 153.089 -1.08585 4.75458 0
M  V30 1661 H 152.094 1.13251 5.3801 0
M  V30 1662 H 153.319 1.32566 6.66035 0
M  V30 1663 H 151.265 -0.912348 6.49625 0
M  V30 1664 H 151.182 0.464422 7.54572 0
M  V30 1665 H 152.45 -0.704716 7.76308 0
M  V30 1666 N 156.679 -1.44442 0.630414 0
M  V30 1667 C 157.611 -2.2892 -0.113347 0
M  V30 1668 C 158.624 -1.41243 -0.80959 0
M  V30 1669 O 159.813 -1.65402 -0.671156 0
M  V30 1670 C 156.913 -3.17594 -1.18266 0
M  V30 1671 C 156.086 -4.33682 -0.569073 0
M  V30 1672 C 155.145 -5.03397 -1.53226 0
M  V30 1673 O 154.171 -5.59438 -1.04967 0
M  V30 1674 N 155.373 -5.04783 -2.86661 0
M  V30 1675 H 158.138 -2.93392 0.611636 0
M  V30 1676 H 155.699 -1.54881 0.471523 0
M  V30 1677 H 157.691 -3.61097 -1.82732 0
M  V30 1678 H 156.261 -2.54876 -1.80988 0
M  V30 1679 H 155.481 -3.9338 0.254187 0
M  V30 1680 H 156.769 -5.08608 -0.139767 0
M  V30 1681 H 156.167 -4.60584 -3.28449 0
M  V30 1682 H 154.724 -5.52077 -3.46489 0
M  V30 1683 N 158.157 -0.370918 -1.53173 0
M  V30 1684 C 159.403 0.217423 -2.01631 0
M  V30 1685 C 159.736 1.47983 -1.25756 0
M  V30 1686 O 159.011 1.91274 -0.352764 0
M  V30 1687 C 159.294 0.503982 -3.56556 0
M  V30 1688 C 159.147 -0.77243 -4.43118 0
M  V30 1689 C 160.466 1.30234 -4.20389 0
M  V30 1690 H 157.585 0.0775486 -0.732909 0
M  V30 1691 H 160.227 -0.496863 -1.83388 0
M  V30 1692 H 158.377 1.11248 -3.72231 0
M  V30 1693 H 160.049 -1.4098 -4.39229 0
M  V30 1694 H 158.292 -1.39167 -4.10871 0
M  V30 1695 H 158.963 -0.526815 -5.4948 0
M  V30 1696 H 161.439 0.787546 -4.08579 0
M  V30 1697 H 160.315 1.47158 -5.28806 0
M  V30 1698 H 160.576 2.31237 -3.76805 0
M  V30 1699 N 159.635 1.57281 -0.100228 0
M  V30 1700 C 160.545 2.17833 0.870965 0
M  V30 1701 C 161.561 1.14921 1.30649 0
M  V30 1702 O 162.737 1.47313 1.37335 0
M  V30 1703 C 159.802 2.75085 2.1102 0
M  V30 1704 C 158.863 3.9297 1.72838 0
M  V30 1705 C 158.096 4.47482 2.90854 0
M  V30 1706 O 158.319 4.00922 4.05731 0
M  V30 1707 O 157.253 5.38433 2.69023 0
M  V30 1708 H 161.079 3.0124 0.38575 0
M  V30 1709 H 158.664 1.48881 0.124397 0
M  V30 1710 H 160.546 3.11656 2.83634 0
M  V30 1711 H 159.221 1.94721 2.58584 0
M  V30 1712 H 158.128 3.61201 0.973883 0
M  V30 1713 H 159.461 4.74713 1.30033 0
M  V30 1714 N 161.113 -0.173488 1.56642 0
M  V30 1715 C 162.043 -1.2171 1.99271 0
M  V30 1716 C 163.024 -1.46289 0.867959 0
M  V30 1717 O 164.209 -1.5766 1.13388 0
M  V30 1718 C 161.339 -2.55651 2.35074 0
M  V30 1719 C 160.293 -2.45645 3.50489 0
M  V30 1720 C 159.619 -3.84056 3.72028 0
M  V30 1721 C 160.919 -1.96302 4.84007 0
M  V30 1722 H 162.613 -0.86275 2.867 0
M  V30 1723 H 160.159 -0.413571 1.37933 0
M  V30 1724 H 162.112 -3.2886 2.63494 0
M  V30 1725 H 160.836 -2.92869 1.44552 0
M  V30 1726 H 159.495 -1.7489 3.22194 0
M  V30 1727 H 159.143 -4.18664 2.788 0
M  V30 1728 H 158.843 -3.7823 4.49684 0
M  V30 1729 H 160.367 -4.58854 4.02846 0
M  V30 1730 H 161.781 -2.59284 5.11317 0
M  V30 1731 H 160.178 -2.01429 5.65284 0
M  V30 1732 H 161.248 -0.917226 4.76146 0
M  V30 1733 N 162.591 -1.51276 -0.441967 0
M  V30 1734 C 163.521 -1.752 -1.54361 0
M  V30 1735 C 164.502 -0.601682 -1.59103 0
M  V30 1736 O 165.687 -0.843913 -1.74905 0
M  V30 1737 C 162.817 -1.87282 -2.92477 0
M  V30 1738 C 161.771 -3.02687 -3.02596 0
M  V30 1739 C 161.097 -2.99947 -4.42647 0
M  V30 1740 C 162.397 -4.4273 -2.77106 0
M  V30 1741 H 164.091 -2.67442 -1.34592 0
M  V30 1742 H 161.637 -1.28694 -0.646048 0
M  V30 1743 H 163.59 -2.02602 -3.695 0
M  V30 1744 H 162.314 -0.916844 -3.13467 0
M  V30 1745 H 160.973 -2.87065 -2.28012 0
M  V30 1746 H 160.621 -2.02136 -4.60597 0
M  V30 1747 H 160.321 -3.77439 -4.50348 0
M  V30 1748 H 161.845 -3.17354 -5.2165 0
M  V30 1749 H 163.259 -4.58727 -3.43864 0
M  V30 1750 H 161.656 -5.21893 -2.96222 0
M  V30 1751 H 162.726 -4.53087 -1.72744 0
M  V30 1752 N 164.069 0.697108 -1.41344 0
M  V30 1753 C 165.346 1.45154 -1.31109 0
M  V30 1754 C 165.726 2.11009 0.0620449 0
M  V30 1755 O 165.074 2.01571 1.07618 0
M  V30 1756 C 165.284 2.47223 -2.46337 0
M  V30 1757 C 166.632 3.1252 -2.87431 0
M  V30 1758 O 167.656 2.57547 -2.46065 0
M  V30 1759 O 166.515 4.12083 -3.58957 0
M  V30 1760 H 163.609 0.646365 -0.515889 0
M  V30 1761 H 166.155 0.727716 -1.53305 0
M  V30 1762 H 164.927 1.97204 -3.37974 0
M  V30 1763 H 164.55 3.27116 -2.2601 0
M  V30 1764 N 165.547 1.27147 0.931209 0
M  V30 1765 C 166.494 1.09568 2.03134 0
M  V30 1766 C 167.464 -0.00222433 1.661 0
M  V30 1767 O 168.649 0.159439 1.90133 0
M  V30 1768 C 165.789 0.745231 3.36957 0
M  V30 1769 C 164.902 1.92041 3.86968 0
M  V30 1770 C 164.037 1.51216 5.09222 0
M  V30 1771 C 163.076 2.65504 5.5152 0
M  V30 1772 N 162.213 2.25291 6.64972 0
M  V30 1773 H 167.053 2.03708 2.17502 0
M  V30 1774 H 164.59 1.01411 1.06556 0
M  V30 1775 H 166.548 0.522878 4.1391 0
M  V30 1776 H 165.178 -0.159202 3.22407 0
M  V30 1777 H 164.23 2.25541 3.06326 0
M  V30 1778 H 165.542 2.77787 4.1429 0
M  V30 1779 H 164.696 1.25084 5.93666 0
M  V30 1780 H 163.435 0.625749 4.83669 0
M  V30 1781 H 162.44 2.92354 4.65628 0
M  V30 1782 H 163.665 3.54761 5.7907 0
M  V30 1783 H 161.611 1.39098 6.41083 0
M  V30 1784 H 161.528 3.04577 6.91931 0
M  V30 1785 H 162.796 2.02398 7.52765 0
M  V30 1786 N 167.025 -1.13721 1.09112 0
M  V30 1787 C 168.25 -1.89314 0.847053 0
M  V30 1788 C 168.675 -1.78416 -0.595774 0
M  V30 1789 O 168.033 -1.12942 -1.41823 0
M  V30 1790 C 168.081 -3.3701 1.28284 0
M  V30 1791 O 167.185 -4.10054 0.439267 0
M  V30 1792 H 166.526 -0.588745 0.307044 0
M  V30 1793 H 169.056 -1.43902 1.45442 0
M  V30 1794 H 169.066 -3.87834 1.26683 0
M  V30 1795 H 167.741 -3.4426 2.33363 0
M  V30 1796 H 166.318 -3.69266 0.519312 0
M  V30 1797 N 168.503 -0.877838 -1.30888 0
M  V30 1798 C 169.75 -0.492696 -1.96415 0
M  V30 1799 C 170.078 0.956671 -1.69346 0
M  V30 1800 O 169.333 1.68993 -0.986913 0
M  V30 1801 C 169.632 -0.705748 -3.50363 0
M  V30 1802 C 169.298 -2.1291 -3.97467 0
M  V30 1803 C 167.96 -2.51834 -4.1004 0
M  V30 1804 C 170.312 -3.05702 -4.22132 0
M  V30 1805 C 167.64 -3.82775 -4.44635 0
M  V30 1806 C 169.992 -4.36166 -4.58194 0
M  V30 1807 C 168.656 -4.74993 -4.68975 0
M  V30 1808 H 167.926 -0.18029 -0.718733 0
M  V30 1809 H 170.573 -1.11233 -1.55883 0
M  V30 1810 H 168.878 -0.00303058 -3.918 0
M  V30 1811 H 170.575 -0.387456 -3.99124 0
M  V30 1812 H 167.165 -1.81694 -3.88182 0
M  V30 1813 H 171.349 -2.76853 -4.11906 0
M  V30 1814 H 166.605 -4.12609 -4.51181 0
M  V30 1815 H 170.779 -5.08111 -4.76231 0
M  V30 1816 H 168.406 -5.76495 -4.95537 0
M  V30 1817 N 169.982 1.44106 -0.638065 0
M  V30 1818 C 170.93 2.3248 0.0748149 0
M  V30 1819 C 171.924 1.47746 0.828702 0
M  V30 1820 O 173.13 1.64049 0.740816 0
M  V30 1821 H 169.505 0.750771 0.0429686 0
M  V30 1822 H 171.476 2.90348 -0.688504 0
M  V30 1823 C 170.225 3.31843 1.03805 0
M  V30 1824 H 169.548 3.97059 0.467375 0
M  V30 1825 H 170.988 3.96345 1.50622 0
M  V30 1826 C 169.447 2.61291 2.1267 0
M  V30 1827 O 169.977 2.41702 3.20847 0
M  V30 1828 N 168.183 2.20915 1.88798 0
M  V30 1829 H 167.73 2.37047 1.00829 0
M  V30 1830 H 167.688 1.74038 2.61836 0
M  V30 1831 N 171.46 0.379036 1.52974 0
M  V30 1832 C 172.407 -0.461048 2.26148 0
M  V30 1833 C 173.377 -1.06637 1.27349 0
M  V30 1834 O 174.562 -1.09633 1.56157 0
M  V30 1835 C 171.702 -1.58782 3.06402 0
M  V30 1836 C 170.815 -1.00636 4.20115 0
M  V30 1837 C 169.95 -2.10334 4.87784 0
M  V30 1838 C 168.989 -1.49724 5.93506 0
M  V30 1839 N 168.126 -2.5331 6.54812 0
M  V30 1840 H 172.966 0.169429 2.97518 0
M  V30 1841 H 170.503 0.0953806 1.4679 0
M  V30 1842 H 172.461 -2.25174 3.51215 0
M  V30 1843 H 171.091 -2.18876 2.37261 0
M  V30 1844 H 170.143 -0.232332 3.7969 0
M  V30 1845 H 171.455 -0.523343 4.96047 0
M  V30 1846 H 170.609 -2.84519 5.35849 0
M  V30 1847 H 169.348 -2.61992 4.11353 0
M  V30 1848 H 168.353 -0.740598 5.44789 0
M  V30 1849 H 169.578 -0.988732 6.71864 0
M  V30 1850 H 167.524 -3.04156 5.81227 0
M  V30 1851 H 167.441 -2.09734 7.26325 0
M  V30 1852 H 168.709 -3.27155 7.07524 0
M  V30 1853 N 172.938 -1.57226 0.108567 0
M  V30 1854 C 173.871 -2.10447 -0.882464 0
M  V30 1855 C 174.849 -1.01829 -1.26766 0
M  V30 1856 O 176.033 -1.29415 -1.37054 0
M  V30 1857 C 173.16 -2.59258 -2.17952 0
M  V30 1858 C 172.206 -3.79662 -1.94318 0
M  V30 1859 S 173.039 -5.22586 -1.16892 0
M  V30 1860 C 174.195 -5.74758 -2.47799 0
M  V30 1861 H 174.428 -2.94178 -0.429745 0
M  V30 1862 H 171.961 -1.54043 -0.105 0
M  V30 1863 H 173.919 -2.88036 -2.92482 0
M  V30 1864 H 172.58 -1.75728 -2.60343 0
M  V30 1865 H 171.773 -4.11928 -2.90399 0
M  V30 1866 H 171.375 -3.51446 -1.27913 0
M  V30 1867 H 173.667 -5.83846 -3.43701 0
M  V30 1868 H 174.61 -6.73027 -2.20093 0
M  V30 1869 H 175.018 -5.02763 -2.56689 0
M  V30 1870 N 174.416 0.165178 -1.56732 0
M  V30 1871 C 175.363 1.2044 -1.96883 0
M  V30 1872 C 176.333 1.43664 -0.833657 0
M  V30 1873 O 177.518 1.56302 -1.09427 0
M  V30 1874 C 174.658 2.53727 -2.33916 0
M  V30 1875 C 173.771 2.3783 -3.6064 0
M  V30 1876 C 172.906 3.64026 -3.86857 0
M  V30 1877 C 171.945 3.43088 -5.06909 0
M  V30 1878 N 171.082 4.61369 -5.29229 0
M  V30 1879 H 175.922 0.854996 -2.85471 0
M  V30 1880 H 173.459 0.41076 -1.41249 0
M  V30 1881 H 175.417 3.31419 -2.53411 0
M  V30 1882 H 174.047 2.8665 -1.48431 0
M  V30 1883 H 173.099 1.51282 -3.49024 0
M  V30 1884 H 174.411 2.18308 -4.4849 0
M  V30 1885 H 173.565 4.50152 -4.06753 0
M  V30 1886 H 172.304 3.86533 -2.97394 0
M  V30 1887 H 171.309 2.55349 -4.86906 0
M  V30 1888 H 172.534 3.21997 -5.97909 0
M  V30 1889 H 170.48 4.84084 -4.42718 0
M  V30 1890 H 170.397 4.44783 -6.11313 0
M  V30 1891 H 171.665 5.48761 -5.53608 0
M  V30 1892 N 175.894 1.51508 0.433938 0
M  V30 1893 C 177.122 1.68157 1.20543 0
M  V30 1894 C 177.537 0.380362 1.84929 0
M  V30 1895 O 176.894 -0.641446 1.70856 0
M  V30 1896 C 176.945 2.79965 2.28696 0
M  V30 1897 O 176.666 4.05045 1.66943 0
M  V30 1898 C 178.167 3.07912 3.18912 0
M  V30 1899 H 175.387 0.56421 0.363191 0
M  V30 1900 H 177.931 1.97941 0.513754 0
M  V30 1901 H 176.086 2.5277 2.93574 0
M  V30 1902 H 176.5 4.67165 2.38448 0
M  V30 1903 H 177.974 3.89719 3.90926 0
M  V30 1904 H 178.451 2.20456 3.79863 0
M  V30 1905 H 179.057 3.36779 2.59731 0
M  V30 1906 N 177.372 -0.689602 1.41712 0
M  V30 1907 C 178.783 -1.26973 1.36875 0
M  V30 1908 C 179.134 -1.96124 0.054748 0
M  V30 1909 O 178.259 -1.99141 -0.84687 0
M  V30 1910 C 178.854 -2.30912 2.47922 0
M  V30 1911 C 177.413 -2.84486 2.46464 0
M  V30 1912 C 176.56 -1.58603 2.27465 0
M  V30 1913 H 179.511 -0.48396 1.51141 0
M  V30 1914 H 179.532 -3.12331 2.17323 0
M  V30 1915 H 179.044 -1.80554 3.43543 0
M  V30 1916 H 177.145 -3.39005 1.54617 0
M  V30 1917 H 177.258 -3.34511 3.42986 0
M  V30 1918 H 175.622 -1.84632 1.75451 0
M  V30 1919 H 176.405 -1.10233 3.25121 0
M  V30 1920 N 178.85 -1.27639 -0.924453 0
M  V30 1921 C 179.76 -1.12466 -2.05885 0
M  V30 1922 C 180.776 -0.053869 -1.73917 0
M  V30 1923 O 181.952 -0.261012 -1.99702 0
M  V30 1924 C 179.017 -0.776768 -3.37886 0
M  V30 1925 C 178.078 -1.92878 -3.83532 0
M  V30 1926 C 177.311 -1.59739 -5.09234 0
M  V30 1927 O 177.534 -0.506782 -5.68144 0
M  V30 1928 O 176.468 -2.43761 -5.50331 0
M  V30 1929 H 180.294 -2.07671 -2.21599 0
M  V30 1930 H 177.879 -1.06857 -1.04413 0
M  V30 1931 H 179.761 -0.596229 -4.17161 0
M  V30 1932 H 178.436 0.145732 -3.23372 0
M  V30 1933 H 177.343 -2.1644 -3.0513 0
M  V30 1934 H 178.676 -2.8316 -4.02593 0
M  V30 1935 N 180.328 1.1314 -1.09713 0
M  V30 1936 C 181.276 2.20717 -0.733934 0
M  V30 1937 C 182.27 1.6729 0.266506 0
M  V30 1938 O 183.476 1.79547 0.127656 0
M  V30 1939 H 179.851 0.719292 -0.21937 0
M  V30 1940 H 181.822 2.48611 -1.6503 0
M  V30 1941 C 180.571 3.47265 -0.173849 0
M  V30 1942 H 179.894 3.88716 -0.934873 0
M  V30 1943 H 181.334 4.23979 0.0423126 0
M  V30 1944 C 179.793 3.18724 1.09164 0
M  V30 1945 O 180.323 3.37762 2.17439 0
M  V30 1946 N 178.529 2.72583 1.00732 0
M  V30 1947 H 178.076 2.57291 0.126121 0
M  V30 1948 H 178.034 2.53862 1.85476 0
M  V30 1949 N 181.806 0.884767 1.30421 0
M  V30 1950 C 183.055 0.499164 1.95426 0
M  V30 1951 C 183.368 -0.95645 1.70621 0
M  V30 1952 O 184.574 -1.44889 2.29607 0
M  V30 1953 C 183.03 0.84177 3.49917 0
M  V30 1954 C 182.638 2.31514 3.83543 0
M  V30 1955 C 184.382 0.525355 4.21237 0
M  V30 1956 C 182.289 2.59939 5.31212 0
M  V30 1957 H 181.219 0.182944 0.73147 0
M  V30 1958 H 183.87 1.07971 1.48373 0
M  V30 1959 H 182.252 0.190311 3.95542 0
M  V30 1960 H 183.426 3.0109 3.48829 0
M  V30 1961 H 181.741 2.59907 3.25326 0
M  V30 1962 H 184.338 0.714762 5.29901 0
M  V30 1963 H 184.681 -0.535222 4.12845 0
M  V30 1964 H 185.214 1.134 3.81294 0
M  V30 1965 H 181.953 3.64736 5.44654 0
M  V30 1966 H 181.473 1.94972 5.67227 0
M  V30 1967 H 183.152 2.45429 5.98643 0
M  V30 1968 N 183.284 -1.43765 0.645699 0
M  V30 1969 C 184.217 -2.2798 -0.100072 0
M  V30 1970 C 185.195 -1.39391 -0.837194 0
M  V30 1971 O 186.379 -1.68833 -0.838306 0
M  V30 1972 C 183.506 -3.18643 -1.14823 0
M  V30 1973 C 182.552 -4.2344 -0.510009 0
M  V30 1974 S 183.385 -5.30761 0.710824 0
M  V30 1975 C 184.541 -6.24992 -0.33699 0
M  V30 1976 H 184.774 -2.90884 0.614322 0
M  V30 1977 H 182.307 -1.48166 0.434304 0
M  V30 1978 H 184.265 -3.71424 -1.74799 0
M  V30 1979 H 182.926 -2.54932 -1.8349 0
M  V30 1980 H 182.119 -4.86948 -1.29991 0
M  V30 1981 H 181.721 -3.73997 0.0154577 0
M  V30 1982 H 184.013 -6.66691 -1.20537 0
M  V30 1983 H 184.956 -7.07612 0.262879 0
M  V30 1984 H 185.364 -5.60517 -0.669425 0
M  V30 1985 N 184.763 -0.387143 -1.52771 0
M  V30 1986 C 185.693 0.440551 -2.29306 0
M  V30 1987 C 186.674 1.06535 -1.32606 0
M  V30 1988 O 187.859 1.07853 -1.61497 0
M  V30 1989 C 184.989 1.56919 -3.09829 0
M  V30 1990 C 183.943 1.07054 -4.14395 0
M  V30 1991 C 183.269 2.29109 -4.83129 0
M  V30 1992 C 184.569 0.140015 -5.22112 0
M  V30 1993 H 186.263 -0.198026 -2.98744 0
M  V30 1994 H 183.809 -0.09668 -1.43675 0
M  V30 1995 H 185.762 2.15503 -3.62128 0
M  V30 1996 H 184.486 2.23532 -2.3812 0
M  V30 1997 H 183.145 0.507247 -3.63074 0
M  V30 1998 H 182.793 2.94227 -4.0797 0
M  V30 1999 H 182.493 1.96406 -5.53804 0
M  V30 2000 H 184.017 2.88339 -5.38231 0
M  V30 2001 H 185.431 0.633978 -5.69784 0
M  V30 2002 H 183.828 -0.0971485 -6.00021 0
M  V30 2003 H 184.898 -0.811711 -4.78058 0
M  V30 2004 N 186.241 1.57166 -0.116904 0
M  V30 2005 C 187.488 1.95123 0.541603 0
M  V30 2006 C 187.816 1.00006 1.6682 0
M  V30 2007 O 187.071 0.0235658 1.95686 0
M  V30 2008 C 187.37 3.39508 1.11664 0
M  V30 2009 C 187.036 4.50762 0.111606 0
M  V30 2010 C 185.698 4.80918 -0.164758 0
M  V30 2011 C 188.05 5.18036 -0.573438 0
M  V30 2012 C 185.378 5.75666 -1.13249 0
M  V30 2013 C 187.73 6.13824 -1.52978 0
M  V30 2014 C 186.394 6.42374 -1.81415 0
M  V30 2015 H 185.664 0.714005 0.198187 0
M  V30 2016 H 188.311 1.9048 -0.197365 0
M  V30 2017 H 186.616 3.40835 1.93232 0
M  V30 2018 H 188.313 3.66189 1.63422 0
M  V30 2019 H 184.903 4.27272 0.337192 0
M  V30 2020 H 189.087 4.94896 -0.373092 0
M  V30 2021 H 184.343 5.96092 -1.35958 0
M  V30 2022 H 188.517 6.65039 -2.06629 0
M  V30 2023 H 186.144 7.15599 -2.56557 0
M  V30 2024 N 187.719 -0.156864 1.56817 0
M  V30 2025 C 189.135 -0.50916 1.5126 0
M  V30 2026 C 189.335 -1.83897 0.823658 0
M  V30 2027 O 188.391 -2.49469 0.390055 0
M  V30 2028 C 189.704 -0.52857 2.96018 0
M  V30 2029 C 191.252 -0.614771 3.06903 0
M  V30 2030 C 191.727 -0.664938 4.53147 0
M  V30 2031 N 193.218 -0.727433 4.57452 0
M  V30 2032 C 193.953 -0.787067 5.67973 0
M  V30 2033 N 193.449 -0.806649 6.88088 0
M  V30 2034 N 195.242 -0.827195 5.5598 0
M  V30 2035 H 187.393 0.714935 2.00006 0
M  V30 2036 H 189.656 0.259526 0.911784 0
M  V30 2037 H 189.362 0.380154 3.49639 0
M  V30 2038 H 189.236 -1.36998 3.51442 0
M  V30 2039 H 191.623 -1.51392 2.53307 0
M  V30 2040 H 191.704 0.253597 2.5454 0
M  V30 2041 H 191.348 0.230011 5.07379 0
M  V30 2042 H 191.278 -1.54966 5.03282 0
M  V30 2043 H 193.769 -0.719998 3.70978 0
M  V30 2044 H 194.082 -0.853727 7.6807 0
M  V30 2045 H 192.427 -0.774687 6.90669 0
M  V30 2046 H 195.618 -0.808998 4.61056 0
M  V30 2047 H 195.791 -0.870206 6.4213 0
M  V30 2048 N 189.197 -1.51736 -0.425897 0
M  V30 2049 C 190.445 -1.64644 -1.17204 0
M  V30 2050 C 190.766 -0.370486 -1.91448 0
M  V30 2051 O 190.036 0.614088 -1.86026 0
M  V30 2052 H 188.616 -0.606819 -0.435638 0
M  V30 2053 H 191.278 -1.88713 -0.487177 0
M  V30 2054 H 190.374 -2.47958 -1.89534 0
M  V30 2055 N 190.675 0.682077 -1.42076 0
M  V30 2056 C 191.952 1.43755 -1.32642 0
M  V30 2057 C 192.332 2.11063 0.0396611 0
M  V30 2058 O 191.68 2.02701 1.05474 0
M  V30 2059 C 191.89 2.44596 -2.48946 0
M  V30 2060 C 193.238 3.09454 -2.9073 0
M  V30 2061 O 194.262 2.54922 -2.48783 0
M  V30 2062 O 193.121 4.08253 -3.63307 0
M  V30 2063 H 190.215 0.640857 -0.522715 0
M  V30 2064 H 192.761 0.711415 -1.54068 0
M  V30 2065 H 191.533 1.93609 -3.40046 0
M  V30 2066 H 191.156 3.24701 -2.29467 0
M  V30 2067 N 192.153 1.28127 0.917671 0
M  V30 2068 C 193.43 1.05761 1.64542 0
M  V30 2069 C 193.81 -0.404344 2.07191 0
M  V30 2070 O 193.158 -1.38963 1.81388 0
M  V30 2071 C 193.368 2.02857 2.83989 0
M  V30 2072 C 194.716 2.32786 3.551 0
M  V30 2073 O 195.74 2.0091 2.94132 0
M  V30 2074 O 194.599 2.87169 4.64969 0
M  V30 2075 H 191.693 0.403916 0.721652 0
M  V30 2076 H 194.239 1.39431 0.967322 0
M  V30 2077 H 193.011 3.01407 2.49538 0
M  V30 2078 H 192.634 1.69809 3.59514 0
M  V30 2079 N 193.631 -1.12557 1.10312 0
M  V30 2080 C 195.042 -1.65574 0.862678 0
M  V30 2081 C 195.393 -1.86566 -0.607256 0
M  V30 2082 O 194.518 -1.59121 -1.46662 0
M  V30 2083 C 195.113 -3.00776 1.55947 0
M  V30 2084 C 193.672 -3.50748 1.36576 0
M  V30 2085 C 192.819 -2.25797 1.60968 0
M  V30 2086 H 195.77 -0.963552 1.26101 0
M  V30 2087 H 195.791 -3.67185 0.997753 0
M  V30 2088 H 195.303 -2.85465 2.62928 0
M  V30 2089 H 193.404 -3.71245 0.317531 0
M  V30 2090 H 193.517 -4.30289 2.10686 0
M  V30 2091 H 191.881 -2.32841 1.03234 0
M  V30 2092 H 192.664 -2.13043 2.69198 0
M  V30 2093 N 195.109 -0.891671 -1.2995 0
M  V30 2094 C 196.072 -0.36828 -2.26222 0
M  V30 2095 C 197.072 0.493014 -1.53056 0
M  V30 2096 O 198.262 0.299213 -1.71611 0
M  V30 2097 C 195.394 0.47442 -3.37583 0
M  V30 2098 H 196.587 -1.21844 -2.74033 0
M  V30 2099 H 194.14 -0.669107 -1.41254 0
M  V30 2100 H 194.875 1.34489 -2.95099 0
M  V30 2101 H 194.66 -0.142615 -3.91841 0
M  V30 2102 H 196.15 0.83218 -4.09224 0
M  V30 2103 N 196.587 1.43421 -0.653314 0
M  V30 2104 C 197.817 2.05864 -0.174238 0
M  V30 2105 C 198.225 1.49052 1.16534 0
M  V30 2106 O 197.568 0.616481 1.73047 0
M  V30 2107 C 197.63 3.59499 -0.00875873 0
M  V30 2108 C 197.294 4.38893 -1.27364 0
M  V30 2109 C 198.291 4.70947 -2.20239 0
M  V30 2110 C 195.976 4.789 -1.51525 0
M  V30 2111 C 197.97 5.41916 -3.35568 0
M  V30 2112 C 195.657 5.49614 -2.67147 0
M  V30 2113 C 196.655 5.81044 -3.58994 0
M  V30 2114 O 196.343 6.50313 -4.72597 0
M  V30 2115 H 196.075 0.670345 -0.0872549 0
M  V30 2116 H 198.629 1.84913 -0.894226 0
M  V30 2117 H 196.859 3.79025 0.7666 0
M  V30 2118 H 198.548 4.0364 0.427687 0
M  V30 2119 H 199.314 4.40558 -2.02815 0
M  V30 2120 H 195.193 4.53843 -0.809158 0
M  V30 2121 H 198.737 5.66365 -4.07279 0
M  V30 2122 H 194.634 5.79419 -2.84505 0
M  V30 2123 H 195.402 6.68795 -4.71864 0
M  V30 2124 N 198.065 0.39524 1.52563 0
M  V30 2125 C 198.995 -0.428384 2.29537 0
M  V30 2126 C 199.976 -1.05831 1.33169 0
M  V30 2127 O 201.161 -1.06995 1.62067 0
M  V30 2128 C 198.291 -1.55274 3.10656 0
M  V30 2129 C 197.245 -1.04855 4.14957 0
M  V30 2130 C 196.571 -2.26543 4.84337 0
M  V30 2131 C 197.871 -0.112324 5.22179 0
M  V30 2132 H 199.565 0.213867 2.98635 0
M  V30 2133 H 197.111 0.104298 1.43622 0
M  V30 2134 H 199.064 -2.1358 3.63265 0
M  V30 2135 H 197.788 -2.22266 2.39302 0
M  V30 2136 H 196.447 -0.487985 3.63338 0
M  V30 2137 H 196.095 -2.92059 4.09525 0
M  V30 2138 H 195.795 -1.93466 5.54837 0
M  V30 2139 H 197.319 -2.85481 5.39753 0
M  V30 2140 H 198.733 -0.603752 5.70112 0
M  V30 2141 H 197.13 0.128968 5.99961 0
M  V30 2142 H 198.2 0.837052 4.77621 0
M  V30 2143 N 199.544 -1.57102 0.125237 0
M  V30 2144 C 200.792 -1.95021 -0.530198 0
M  V30 2145 C 201.113 -1.00982 -1.66816 0
M  V30 2146 O 200.383 -0.0672693 -1.95784 0
M  V30 2147 H 198.963 -0.720046 -0.198853 0
M  V30 2148 H 201.625 -1.93916 0.19564 0
M  V30 2149 H 200.721 -2.98211 -0.920681 0
M  V30 2150 N 201.022 0.148545 -1.56898 0
M  V30 2151 C 202.25 0.876389 -1.87422 0
M  V30 2152 C 202.665 1.74809 -0.713256 0
M  V30 2153 O 202.022 1.79725 0.317025 0
M  V30 2154 C 202.073 1.73438 -3.17178 0
M  V30 2155 O 201.794 0.897809 -4.28802 0
M  V30 2156 C 203.295 2.56993 -3.61205 0
M  V30 2157 H 200.515 0.253489 -0.621277 0
M  V30 2158 H 203.059 0.141798 -2.04008 0
M  V30 2159 H 201.214 2.42205 -3.0235 0
M  V30 2160 H 201.628 1.48672 -5.02988 0
M  V30 2161 H 203.102 3.12773 -4.54838 0
M  V30 2162 H 203.579 3.32958 -2.86419 0
M  V30 2163 H 204.185 1.9352 -3.78722 0
M  V30 2164 N 202.5 1.5196 0.417844 0
M  V30 2165 C 203.41 1.77554 1.53336 0
M  V30 2166 C 204.426 0.660655 1.6097 0
M  V30 2167 O 205.602 0.945099 1.77848 0
M  V30 2168 C 202.667 1.91291 2.89152 0
M  V30 2169 C 201.728 3.15183 2.91475 0
M  V30 2170 C 200.961 3.28256 4.20813 0
M  V30 2171 O 201.184 2.46798 5.14244 0
M  V30 2172 O 200.118 4.21356 4.29817 0
M  V30 2173 H 203.944 2.7222 1.34647 0
M  V30 2174 H 201.529 1.36698 0.602828 0
M  V30 2175 H 203.411 2.02199 3.69721 0
M  V30 2176 H 202.086 0.998129 3.07927 0
M  V30 2177 H 200.993 3.09739 2.09791 0
M  V30 2178 H 202.326 4.06414 2.77648 0
M  V30 2179 N 203.978 -0.674533 1.42435 0
M  V30 2180 C 205.225 -1.43459 1.42919 0
M  V30 2181 C 205.553 -1.94446 0.0457312 0
M  V30 2182 O 204.808 -1.7132 -0.94593 0
M  V30 2183 C 205.107 -2.64767 2.40069 0
M  V30 2184 C 204.773 -2.3232 3.86443 0
M  V30 2185 C 203.435 -2.23182 4.26314 0
M  V30 2186 C 205.787 -2.05977 4.78773 0
M  V30 2187 C 203.115 -1.85827 5.56494 0
M  V30 2188 C 205.467 -1.70125 6.09295 0
M  V30 2189 C 204.131 -1.59498 6.48164 0
M  V30 2190 H 203.401 -0.524952 0.522978 0
M  V30 2191 H 206.048 -0.769097 1.75377 0
M  V30 2192 H 204.353 -3.36349 2.00939 0
M  V30 2193 H 206.05 -3.22949 2.37707 0
M  V30 2194 H 202.64 -2.40334 3.54877 0
M  V30 2195 H 206.824 -2.11969 4.48757 0
M  V30 2196 H 202.08 -1.76168 5.8547 0
M  V30 2197 H 206.254 -1.48767 6.80324 0
M  V30 2198 H 203.881 -1.30322 7.48946 0
M  V30 2199 N 205.456 -1.28612 -0.910864 0
M  V30 2200 C 206.388 -1.08589 -2.01844 0
M  V30 2201 C 207.401 -0.0367419 -1.62759 0
M  V30 2202 O 208.59 -0.280101 -1.76289 0
M  V30 2203 C 205.69 -0.628626 -3.33019 0
M  V30 2204 C 204.863 -1.75382 -4.00699 0
M  V30 2205 C 203.922 -1.28945 -5.10156 0
M  V30 2206 O 202.948 -1.9922 -5.33198 0
M  V30 2207 N 204.15 -0.154224 -5.80295 0
M  V30 2208 H 206.915 -2.03973 -2.19579 0
M  V30 2209 H 204.476 -1.20403 -1.08234 0
M  V30 2210 H 206.468 -0.301508 -4.03575 0
M  V30 2211 H 205.038 0.232451 -3.11735 0
M  V30 2212 H 204.258 -2.25039 -3.23653 0
M  V30 2213 H 205.546 -2.50854 -4.42662 0
M  V30 2214 H 204.944 0.43194 -5.64049 0
M  V30 2215 H 203.501 0.113599 -6.51701 0
M  V30 2216 N 206.934 1.1197 -1.10907 0
M  V30 2217 C 207.882 2.19927 -0.757303 0
M  V30 2218 C 208.876 1.67564 0.248747 0
M  V30 2219 O 210.082 1.79672 0.108605 0
M  V30 2220 H 206.457 0.716925 -0.226987 0
M  V30 2221 H 208.428 2.46847 -1.67658 0
M  V30 2222 C 207.177 3.47061 -0.210671 0
M  V30 2223 H 206.5 3.87703 -0.976049 0
M  V30 2224 H 207.94 4.24 -0.0026584 0
M  V30 2225 C 206.399 3.19864 1.05777 0
M  V30 2226 O 206.929 3.40049 2.13845 0
M  V30 2227 N 205.135 2.73636 0.978349 0
M  V30 2228 H 204.682 2.5741 0.0988246 0
M  V30 2229 H 204.64 2.55815 1.82773 0
M  V30 2230 N 208.412 0.89855 1.29475 0
M  V30 2231 C 209.64 0.539261 1.99749 0
M  V30 2232 C 210.055 -0.875716 1.67262 0
M  V30 2233 O 209.412 -1.57786 0.917049 0
M  V30 2234 C 209.463 0.72061 3.54245 0
M  V30 2235 O 209.184 2.07989 3.8558 0
M  V30 2236 C 210.685 0.366118 4.41786 0
M  V30 2237 H 207.905 0.207047 0.638258 0
M  V30 2238 H 210.449 1.20758 1.65039 0
M  V30 2239 H 208.604 0.0994862 3.87272 0
M  V30 2240 H 209.018 2.10841 4.80257 0
M  V30 2241 H 210.492 0.543848 5.49314 0
M  V30 2242 H 210.969 -0.696763 4.33638 0
M  V30 2243 H 211.575 0.964135 4.14228 0
M  V30 2244 N 209.89 -1.43072 0.660911 0
M  V30 2245 C 210.82 -2.33497 -0.0122829 0
M  V30 2246 C 211.801 -1.49903 -0.803925 0
M  V30 2247 O 212.986 -1.78546 -0.763864 0
M  V30 2248 C 210.116 -3.33363 -0.973994 0
M  V30 2249 C 209.07 -4.27003 -0.291928 0
M  V30 2250 C 208.396 -5.16967 -1.36562 0
M  V30 2251 C 209.696 -5.15816 0.820462 0
M  V30 2252 H 211.39 -2.90038 0.742873 0
M  V30 2253 H 208.936 -1.39461 0.358688 0
M  V30 2254 H 210.889 -3.95524 -1.45392 0
M  V30 2255 H 209.613 -2.75095 -1.7604 0
M  V30 2256 H 208.272 -3.66217 0.167623 0
M  V30 2257 H 207.92 -4.55034 -2.14366 0
M  V30 2258 H 207.62 -5.80441 -0.914454 0
M  V30 2259 H 209.144 -5.82003 -1.84675 0
M  V30 2260 H 210.558 -5.71742 0.422366 0
M  V30 2261 H 208.955 -5.8805 1.19656 0
M  V30 2262 H 210.025 -4.55045 1.67518 0
M  V30 2263 N 211.368 -0.403325 -1.52352 0
M  V30 2264 C 212.298 0.416205 -2.29761 0
M  V30 2265 C 213.279 1.05123 -1.33728 0
M  V30 2266 O 214.464 1.06134 -1.62632 0
M  V30 2267 C 211.594 1.53624 -3.11475 0
M  V30 2268 C 210.548 1.02653 -4.15507 0
M  V30 2269 C 209.874 2.23971 -4.85532 0
M  V30 2270 C 211.174 0.08463 -5.22231 0
M  V30 2271 H 212.868 -0.229701 -2.98518 0
M  V30 2272 H 210.414 -0.111913 -1.43564 0
M  V30 2273 H 212.367 2.1165 -3.64393 0
M  V30 2274 H 211.091 2.20994 -2.40477 0
M  V30 2275 H 209.75 0.46871 -3.63591 0
M  V30 2276 H 209.398 2.89883 -4.11068 0
M  V30 2277 H 209.098 1.90521 -5.55856 0
M  V30 2278 H 210.622 2.82614 -5.41259 0
M  V30 2279 H 212.036 0.573509 -5.70424 0
M  V30 2280 H 210.433 -0.160783 -5.99885 0
M  V30 2281 H 211.503 -0.86237 -4.7717 0
M  V30 2282 N 212.846 1.57033 -0.133567 0
M  V30 2283 C 213.794 2.17348 0.828412 0
M  V30 2284 C 214.788 1.12671 1.26498 0
M  V30 2285 O 215.994 1.30947 1.23502 0
M  V30 2286 H 212.369 0.695775 0.285309 0
M  V30 2287 H 214.34 2.96935 0.295372 0
M  V30 2288 C 213.089 2.79893 2.06289 0
M  V30 2289 H 212.412 3.60147 1.73592 0
M  V30 2290 H 213.852 3.25615 2.71572 0
M  V30 2291 C 212.311 1.77713 2.86216 0
M  V30 2292 O 212.841 1.23937 3.82103 0
M  V30 2293 N 211.047 1.47321 2.50489 0
M  V30 2294 H 210.594 1.91243 1.7258 0
M  V30 2295 H 210.552 0.79199 3.04261 0
M  V30 2296 N 214.325 -0.140222 1.56975 0
M  V30 2297 C 215.55 -0.870414 1.88251 0
M  V30 2298 C 215.975 -1.73637 0.723312 0
M  V30 2299 O 215.333 -1.78329 -0.32689 0
M  V30 2300 C 215.381 -1.69737 3.18154 0
M  V30 2301 O 214.485 -2.80229 3.02565 0
M  V30 2302 H 213.826 -0.242025 0.61832 0
M  V30 2303 H 216.356 -0.128999 2.04193 0
M  V30 2304 H 216.366 -2.09099 3.50345 0
M  V30 2305 H 215.041 -1.06152 4.02125 0
M  V30 2306 H 213.618 -2.44224 2.81796 0
M  V30 2307 N 215.803 -1.52179 -0.40978 0
M  V30 2308 C 216.751 -1.76086 -1.51975 0
M  V30 2309 C 217.745 -0.627964 -1.57331 0
M  V30 2310 O 218.951 -0.809993 -1.60745 0
M  V30 2311 H 215.326 -0.556829 -0.505416 0
M  V30 2312 H 217.297 -2.69077 -1.28996 0
M  V30 2313 C 216.046 -1.92799 -2.8935 0
M  V30 2314 H 215.369 -2.79392 -2.85972 0
M  V30 2315 H 216.809 -2.13527 -3.66309 0
M  V30 2316 C 215.268 -0.694923 -3.29655 0
M  V30 2317 O 215.798 0.13751 -4.01465 0
M  V30 2318 N 214.004 -0.53101 -2.85707 0
M  V30 2319 H 213.551 -1.20952 -2.27439 0
M  V30 2320 H 213.509 0.292718 -3.13034 0
M  V30 2321 N 217.281 0.66697 -1.42791 0
M  V30 2322 C 218.529 1.42417 -1.43394 0
M  V30 2323 C 218.85 1.94925 -0.0542373 0
M  V30 2324 O 218.12 1.73564 0.908415 0
M  V30 2325 H 216.7 0.528515 -0.527902 0
M  V30 2326 H 219.362 0.787562 -1.78279 0
M  V30 2327 H 218.458 2.27333 -2.13837 0
M  V30 2328 N 218.759 1.29093 0.90403 0
M  V30 2329 C 219.987 1.19689 1.68766 0
M  V30 2330 C 220.402 -0.243113 1.87228 0
M  V30 2331 O 219.759 -1.16326 1.40621 0
M  V30 2332 C 219.81 1.90144 3.07453 0
M  V30 2333 O 219.531 3.2852 2.89838 0
M  V30 2334 C 221.032 1.87162 4.01852 0
M  V30 2335 H 218.252 0.415035 0.527244 0
M  V30 2336 H 220.796 1.7039 1.13082 0
M  V30 2337 H 218.951 1.43289 3.59926 0
M  V30 2338 H 219.365 3.63944 3.77684 0
M  V30 2339 H 220.839 2.41032 4.96596 0
M  V30 2340 H 221.316 0.84617 4.30972 0
M  V30 2341 H 221.922 2.33741 3.5531 0
M  V30 2342 N 220.237 -1.11381 1.11499 0
M  V30 2343 C 221.486 -1.82494 0.858993 0
M  V30 2344 C 221.799 -1.85605 -0.617278 0
M  V30 2345 O 223.005 -2.52824 -0.989552 0
M  V30 2346 C 221.461 -3.27745 1.48699 0
M  V30 2347 C 221.069 -3.32961 2.99735 0
M  V30 2348 C 222.813 -4.03754 1.31085 0
M  V30 2349 C 220.72 -4.72612 3.55516 0
M  V30 2350 H 219.65 -0.683802 0.317696 0
M  V30 2351 H 222.301 -1.25331 1.34031 0
M  V30 2352 H 220.683 -3.84844 0.933339 0
M  V30 2353 H 221.857 -2.85741 3.61509 0
M  V30 2354 H 220.172 -2.70433 3.16631 0
M  V30 2355 H 222.769 -5.06891 1.70192 0
M  V30 2356 H 223.112 -4.15527 0.253496 0
M  V30 2357 H 223.645 -3.53043 1.83318 0
M  V30 2358 H 220.384 -4.66036 4.60967 0
M  V30 2359 H 219.904 -5.2024 2.98513 0
M  V30 2360 H 221.583 -5.4157 3.53992 0
M  V30 2361 N 221.715 -0.905404 -1.28997 0
M  V30 2362 C 222.663 -0.377431 -2.29517 0
M  V30 2363 C 223.657 0.526461 -1.61012 0
M  V30 2364 O 224.863 0.40863 -1.753 0
M  V30 2365 H 221.238 -0.103437 -0.744852 0
M  V30 2366 H 223.209 -1.23848 -2.71485 0
M  V30 2367 C 221.958 0.374833 -3.45674 0
M  V30 2368 H 221.281 -0.311474 -3.98585 0
M  V30 2369 H 222.721 0.70903 -4.1803 0
M  V30 2370 C 221.18 1.57963 -2.97572 0
M  V30 2371 O 221.71 2.67886 -2.99333 0
M  V30 2372 N 219.916 1.42375 -2.53333 0
M  V30 2373 H 219.463 0.529466 -2.521 0
M  V30 2374 H 219.421 2.23117 -2.21509 0
M  V30 2375 N 223.193 1.4272 -0.668489 0
M  V30 2376 C 224.14 2.30796 0.0137489 0
M  V30 2377 C 225.11 1.4561 0.799177 0
M  V30 2378 O 226.295 1.74453 0.772702 0
M  V30 2379 C 223.435 3.31377 0.963507 0
M  V30 2380 C 222.548 4.31655 0.172569 0
M  V30 2381 C 221.683 5.19312 1.1175 0
M  V30 2382 C 220.722 6.11274 0.317886 0
M  V30 2383 N 219.859 6.91504 1.2152 0
M  V30 2384 H 224.699 2.88585 -0.743161 0
M  V30 2385 H 222.236 1.42154 -0.378226 0
M  V30 2386 H 224.194 3.88214 1.52792 0
M  V30 2387 H 222.824 2.75202 1.68712 0
M  V30 2388 H 221.876 3.76988 -0.508374 0
M  V30 2389 H 223.188 4.96779 -0.448527 0
M  V30 2390 H 222.342 5.80851 1.75206 0
M  V30 2391 H 221.081 4.5435 1.77249 0
M  V30 2392 H 220.086 5.48809 -0.329918 0
M  V30 2393 H 221.311 6.78283 -0.332917 0
M  V30 2394 H 219.257 6.29176 1.85671 0
M  V30 2395 H 219.174 7.53209 0.649036 0
M  V30 2396 H 220.442 7.57535 1.83742 0
M  V30 2397 N 224.671 0.411399 1.52136 0
M  V30 2398 C 225.899 -0.163076 2.06256 0
M  V30 2399 C 226.314 -1.3867 1.28125 0
M  V30 2400 O 225.671 -1.79423 0.333721 0
M  V30 2401 C 225.722 -0.511252 3.57867 0
M  V30 2402 O 225.443 0.66378 4.33042 0
M  V30 2403 C 226.944 -1.13921 4.28412 0
M  V30 2404 H 224.164 -0.0193897 0.67072 0
M  V30 2405 H 226.708 0.583007 1.96013 0
M  V30 2406 H 224.863 -1.20723 3.6811 0
M  V30 2407 H 225.277 0.372601 5.23175 0
M  V30 2408 H 226.751 -1.33302 5.35663 0
M  V30 2409 H 227.228 -2.11296 3.85033 0
M  V30 2410 H 227.834 -0.483373 4.22544 0
M  V30 2411 N 226.149 -1.5696 0.141893 0
M  V30 2412 C 227.112 -2.15316 -0.785587 0
M  V30 2413 C 228.112 -1.09366 -1.1788 0
M  V30 2414 O 229.302 -1.35031 -1.10056 0
M  V30 2415 C 226.434 -2.71211 -2.06537 0
M  V30 2416 H 227.627 -2.98608 -0.278041 0
M  V30 2417 H 225.18 -1.5593 -0.107519 0
M  V30 2418 H 225.915 -1.91571 -2.6167 0
M  V30 2419 H 225.7 -3.4872 -1.79268 0
M  V30 2420 H 227.19 -3.16189 -2.72789 0
M  V30 2421 N 227.627 0.131896 -1.57047 0
M  V30 2422 C 228.874 0.841932 -1.84168 0
M  V30 2423 C 229.202 1.8048 -0.725066 0
M  V30 2424 O 228.457 1.93618 0.284692 0
M  V30 2425 C 228.756 1.63703 -3.17704 0
M  V30 2426 C 228.422 0.81961 -4.43388 0
M  V30 2427 C 227.084 0.594148 -4.77518 0
M  V30 2428 C 229.436 0.248977 -5.20605 0
M  V30 2429 C 226.764 -0.212409 -5.86315 0
M  V30 2430 C 229.116 -0.544701 -6.30251 0
M  V30 2431 C 227.78 -0.780599 -6.6292 0
M  V30 2432 H 227.05 0.308085 -0.673917 0
M  V30 2433 H 229.697 0.104867 -1.91213 0
M  V30 2434 H 228.002 2.44464 -3.06177 0
M  V30 2435 H 229.699 2.19015 -3.35907 0
M  V30 2436 H 226.289 1.00542 -4.16641 0
M  V30 2437 H 230.473 0.410408 -4.946 0
M  V30 2438 H 225.729 -0.404524 -6.1006 0
M  V30 2439 H 229.903 -0.993922 -6.89271 0
M  V30 2440 H 227.53 -1.40742 -7.47058 0
M  V30 2441 N 229.106 1.52395 0.401703 0
M  V30 2442 C 230.016 1.7917 1.51444 0
M  V30 2443 C 231.032 0.677691 1.6026 0
M  V30 2444 O 232.208 0.963909 1.76835 0
M  V30 2445 C 229.273 1.94347 2.87107 0
M  V30 2446 C 228.334 3.18257 2.88116 0
M  V30 2447 C 227.567 3.32701 4.17308 0
M  V30 2448 O 227.79 2.52238 5.11598 0
M  V30 2449 O 226.724 4.25891 4.25324 0
M  V30 2450 H 230.55 2.73633 1.31752 0
M  V30 2451 H 228.135 1.3733 0.588296 0
M  V30 2452 H 230.017 2.06109 3.67555 0
M  V30 2453 H 228.692 1.03073 3.06851 0
M  V30 2454 H 227.599 3.11947 2.06494 0
M  V30 2455 H 228.932 4.09336 2.73322 0
M  V30 2456 N 230.584 -0.659388 1.43143 0
M  V30 2457 C 231.531 -1.77249 1.47822 0
M  V30 2458 C 232.501 -1.62818 0.328558 0
M  V30 2459 O 233.686 -1.83151 0.534838 0
M  V30 2460 C 230.826 -3.15371 1.40126 0
M  V30 2461 C 229.939 -3.4098 2.65249 0
M  V30 2462 C 229.074 -4.68915 2.49584 0
M  V30 2463 C 228.113 -4.87608 3.70006 0
M  V30 2464 N 227.25 -6.06796 3.53189 0
M  V30 2465 H 232.09 -1.72584 2.42938 0
M  V30 2466 H 229.627 -0.842297 1.20598 0
M  V30 2467 H 231.585 -3.9521 1.33659 0
M  V30 2468 H 230.215 -3.19121 0.485964 0
M  V30 2469 H 229.267 -2.55282 2.8202 0
M  V30 2470 H 230.579 -3.50681 3.54717 0
M  V30 2471 H 229.733 -5.56871 2.4079 0
M  V30 2472 H 228.472 -4.61524 1.5763 0
M  V30 2473 H 227.477 -3.9809 3.79215 0
M  V30 2474 H 228.702 -4.96834 4.62961 0
M  V30 2475 H 226.648 -6.00549 2.63965 0
M  V30 2476 H 226.565 -6.17428 4.36255 0
M  V30 2477 H 227.833 -6.9739 3.48236 0
M  V30 2478 N 232.062 -1.29571 -0.897171 0
M  V30 2479 C 233.025 -1.14913 -1.98312 0
M  V30 2480 C 234.025 -0.0838629 -1.60581 0
M  V30 2481 O 235.215 -0.331006 -1.71026 0
M  V30 2482 C 232.347 -0.757835 -3.3237 0
M  V30 2483 H 233.54 -2.11377 -2.12743 0
M  V30 2484 H 231.093 -1.12793 -1.08201 0
M  V30 2485 H 231.828 0.206837 -3.2364 0
M  V30 2486 H 231.613 -1.52755 -3.61121 0
M  V30 2487 H 233.103 -0.678408 -4.12053 0
M  V30 2488 N 233.54 1.10788 -1.12088 0
M  V30 2489 C 234.487 2.17025 -0.785407 0
M  V30 2490 C 235.457 1.64265 0.246191 0
M  V30 2491 O 236.642 1.90412 0.121584 0
M  V30 2492 C 233.782 3.44249 -0.242177 0
M  V30 2493 C 232.895 4.1098 -1.33115 0
M  V30 2494 C 232.03 5.25911 -0.747741 0
M  V30 2495 C 231.069 5.84538 -1.81609 0
M  V30 2496 N 230.206 6.90853 -1.25167 0
M  V30 2497 H 235.046 2.45066 -1.69548 0
M  V30 2498 H 232.583 1.20297 -0.846582 0
M  V30 2499 H 234.541 4.17101 0.0908026 0
M  V30 2500 H 233.171 3.16571 0.631072 0
M  V30 2501 H 232.223 3.36133 -1.78097 0
M  V30 2502 H 233.535 4.50601 -2.13917 0
M  V30 2503 H 232.689 6.056 -0.365216 0
M  V30 2504 H 231.428 4.87614 0.0915188 0
M  V30 2505 H 230.433 5.03522 -2.20785 0
M  V30 2506 H 231.658 6.249 -2.6585 0
M  V30 2507 H 229.604 6.54562 -0.434174 0
M  V30 2508 H 229.521 7.29166 -1.99633 0
M  V30 2509 H 230.789 7.7433 -0.896259 0
M  V30 2510 N 235.018 0.912232 1.28515 0
M  V30 2511 C 235.981 0.404223 2.25607 0
M  V30 2512 C 236.981 -0.468602 1.53821 0
M  V30 2513 O 238.171 -0.271873 1.72065 0
M  V30 2514 C 235.303 -0.420653 3.38295 0
M  V30 2515 H 236.496 1.26188 2.7206 0
M  V30 2516 H 234.049 0.691495 1.40171 0
M  V30 2517 H 234.784 -1.29777 2.97201 0
M  V30 2518 H 234.569 0.204935 3.91564 0
M  V30 2519 H 236.059 -0.766971 4.10496 0
M  V30 2520 N 236.496 -1.42363 0.676048 0
M  V30 2521 C 237.443 -2.308 -0.00150904 0
M  V30 2522 C 238.413 -1.46032 -0.791444 0
M  V30 2523 O 239.598 -1.74861 -0.76344 0
M  V30 2524 C 236.738 -3.31883 -0.945919 0
M  V30 2525 C 235.851 -4.31741 -0.149675 0
M  V30 2526 C 234.986 -5.19898 -1.08995 0
M  V30 2527 C 234.025 -6.11434 -0.285465 0
M  V30 2528 N 233.162 -6.92138 -1.17851 0
M  V30 2529 H 238.002 -2.88187 0.758455 0
M  V30 2530 H 235.539 -1.41952 0.38576 0
M  V30 2531 H 237.497 -3.89019 -1.50731 0
M  V30 2532 H 236.127 -2.76093 -1.6725 0
M  V30 2533 H 235.179 -3.76713 0.528359 0
M  V30 2534 H 236.491 -4.96534 0.474866 0
M  V30 2535 H 235.645 -5.81772 -1.72123 0
M  V30 2536 H 234.384 -4.55284 -1.74837 0
M  V30 2537 H 233.389 -5.48627 0.359018 0
M  V30 2538 H 234.614 -6.78097 0.368883 0
M  V30 2539 H 232.56 -6.30152 -1.82332 0
M  V30 2540 H 232.477 -7.53542 -0.609082 0
M  V30 2541 H 233.745 -7.58499 -1.79722 0
M  V30 2542 N 237.974 -0.419461 -1.51915 0
M  V30 2543 C 239.221 0.152939 -2.01922 0
M  V30 2544 C 239.549 1.4426 -1.30458 0
M  V30 2545 O 238.804 1.91514 -0.402593 0
M  V30 2546 C 239.103 0.437067 -3.54717 0
M  V30 2547 C 238.769 -0.764632 -4.44369 0
M  V30 2548 C 237.431 -1.09423 -4.68594 0
M  V30 2549 C 239.783 -1.56713 -4.97082 0
M  V30 2550 C 237.111 -2.22732 -5.42777 0
M  V30 2551 C 239.463 -2.69107 -5.72507 0
M  V30 2552 C 238.127 -3.02541 -5.95 0
M  V30 2553 H 237.397 0.0559644 -0.738884 0
M  V30 2554 H 240.044 -0.562998 -1.83037 0
M  V30 2555 H 238.349 1.23469 -3.71837 0
M  V30 2556 H 240.046 0.893083 -3.90928 0
M  V30 2557 H 236.636 -0.497775 -4.257 0
M  V30 2558 H 240.82 -1.32571 -4.78266 0
M  V30 2559 H 236.076 -2.48971 -5.58411 0
M  V30 2560 H 240.25 -3.31671 -6.12346 0
M  V30 2561 H 237.877 -3.90457 -6.52264 0
M  V30 2562 N 239.452 1.56882 -0.150215 0
M  V30 2563 C 240.382 2.19935 0.784284 0
M  V30 2564 C 241.363 1.14854 1.25469 0
M  V30 2565 O 242.548 1.43209 1.31168 0
M  V30 2566 C 239.678 2.82349 2.02229 0
M  V30 2567 C 238.632 3.93285 1.68853 0
M  V30 2568 C 237.958 4.42649 2.99944 0
M  V30 2569 C 239.258 5.13904 0.932714 0
M  V30 2570 H 240.952 2.9828 0.258781 0
M  V30 2571 H 238.498 1.43473 0.123029 0
M  V30 2572 H 240.451 3.25126 2.68088 0
M  V30 2573 H 239.175 2.0134 2.57157 0
M  V30 2574 H 237.834 3.5113 1.05371 0
M  V30 2575 H 237.482 3.58458 3.52869 0
M  V30 2576 H 237.182 5.17476 2.78374 0
M  V30 2577 H 238.706 4.88099 3.66868 0
M  V30 2578 H 240.12 5.53506 1.49345 0
M  V30 2579 H 238.517 5.94515 0.81684 0
M  V30 2580 H 239.587 4.84842 -0.0749568 0
M  V30 2581 N 240.93 -0.123565 1.57115 0
M  V30 2582 C 241.878 -1.17082 2.00984 0
M  V30 2583 C 242.872 -1.43136 0.906009 0
M  V30 2584 O 244.078 -1.43152 1.09121 0
M  V30 2585 H 240.453 -0.394653 0.64012 0
M  V30 2586 H 242.424 -0.774292 2.88179 0
M  V30 2587 C 241.173 -2.49057 2.42623 0
M  V30 2588 H 240.496 -2.29846 3.27125 0
M  V30 2589 H 241.936 -3.20906 2.7712 0
M  V30 2590 C 240.395 -3.11305 1.28805 0
M  V30 2591 O 240.925 -3.97171 0.60153 0
M  V30 2592 N 239.131 -2.71111 1.04628 0
M  V30 2593 H 238.678 -2.01382 1.60634 0
M  V30 2594 H 238.636 -3.1309 0.286685 0
M  V30 2595 N 242.408 -1.52605 -0.393616 0
M  V30 2596 C 243.355 -1.77055 -1.48054 0
M  V30 2597 C 244.325 -0.61358 -1.54352 0
M  V30 2598 O 245.51 -0.852806 -1.70681 0
M  V30 2599 C 242.65 -1.94108 -2.85335 0
M  V30 2600 C 241.763 -3.21792 -2.88226 0
M  V30 2601 C 240.898 -3.29188 -4.16904 0
M  V30 2602 C 239.937 -4.51013 -4.13828 0
M  V30 2603 N 239.074 -4.55716 -5.34105 0
M  V30 2604 H 243.914 -2.69815 -1.26506 0
M  V30 2605 H 241.451 -1.33683 -0.61379 0
M  V30 2606 H 243.409 -2.01979 -3.65049 0
M  V30 2607 H 242.039 -1.04713 -3.05344 0
M  V30 2608 H 241.091 -3.23015 -2.00911 0
M  V30 2609 H 242.403 -4.11557 -2.8182 0
M  V30 2610 H 241.557 -3.36216 -5.05018 0
M  V30 2611 H 240.296 -2.37389 -4.26026 0
M  V30 2612 H 239.301 -4.44115 -3.24102 0
M  V30 2613 H 240.526 -5.44123 -4.06333 0
M  V30 2614 H 238.472 -3.66807 -5.43865 0
M  V30 2615 H 238.389 -5.39346 -5.29756 0
M  V30 2616 H 239.657 -4.66993 -6.2413 0
M  V30 2617 N 243.887 0.651787 -1.4349 0
M  V30 2618 C 245.164 1.40909 -1.35661 0
M  V30 2619 C 245.544 2.11099 -0.00511733 0
M  V30 2620 O 244.892 2.04892 1.0115 0
M  V30 2621 C 245.102 2.3926 -2.54078 0
M  V30 2622 C 246.45 3.03217 -2.97228 0
M  V30 2623 O 247.474 2.49588 -2.54135 0
M  V30 2624 O 246.333 4.00455 -3.71885 0
M  V30 2625 H 243.427 0.629625 -0.536191 0
M  V30 2626 H 245.973 0.678575 -1.55542 0
M  V30 2627 H 244.745 1.86352 -3.44076 0
M  V30 2628 H 244.368 3.1976 -2.36303 0
M  V30 2629 N 245.365 1.30045 0.890287 0
M  V30 2630 C 246.781 1.08261 1.17268 0
M  V30 2631 C 246.981 -0.160063 2.00863 0
M  V30 2632 O 246.037 -0.855181 2.37577 0
M  V30 2633 C 247.35 2.34323 1.8845 0
M  V30 2634 C 248.898 2.39735 2.01237 0
M  V30 2635 C 249.373 3.65625 2.7583 0
M  V30 2636 N 250.864 3.66402 2.83379 0
M  V30 2637 C 251.599 4.60498 3.41657 0
M  V30 2638 N 251.095 5.64933 4.01026 0
M  V30 2639 N 252.888 4.48051 3.39421 0
M  V30 2640 H 245.039 2.09777 0.332762 0
M  V30 2641 H 247.302 0.92446 0.209948 0
M  V30 2642 H 247.008 3.2498 1.34465 0
M  V30 2643 H 246.882 2.4256 2.88867 0
M  V30 2644 H 249.269 1.4956 2.54393 0
M  V30 2645 H 249.35 2.35476 0.999232 0
M  V30 2646 H 248.994 4.56156 2.23347 0
M  V30 2647 H 248.924 3.67144 3.77509 0
M  V30 2648 H 251.415 2.90896 2.41222 0
M  V30 2649 H 251.728 6.32841 4.43545 0
M  V30 2650 H 250.073 5.68732 3.99461 0
M  V30 2651 H 253.264 3.65649 2.92264 0
M  V30 2652 H 253.437 5.21565 3.84544 0
M  V30 2653 N 246.843 -1.10192 1.12674 0
M  V30 2654 C 247.773 -2.18652 0.819362 0
M  V30 2655 C 248.754 -1.68698 -0.217915 0
M  V30 2656 O 249.939 -1.94041 -0.0785581 0
M  V30 2657 C 247.069 -3.46202 0.27594 0
M  V30 2658 C 246.023 -4.09444 1.24656 0
M  V30 2659 C 245.349 -5.31725 0.563258 0
M  V30 2660 C 246.649 -4.52863 2.60217 0
M  V30 2661 H 248.343 -2.44622 1.72628 0
M  V30 2662 H 245.889 -1.17571 0.831451 0
M  V30 2663 H 247.842 -4.21372 0.0486149 0
M  V30 2664 H 246.566 -3.1973 -0.666331 0
M  V30 2665 H 245.225 -3.36284 1.45974 0
M  V30 2666 H 244.873 -5.0153 -0.384235 0
M  V30 2667 H 244.573 -5.74991 1.21075 0
M  V30 2668 H 246.097 -6.09624 0.34503 0
M  V30 2669 H 247.511 -5.19294 2.42913 0
M  V30 2670 H 245.908 -5.06986 3.21068 0
M  V30 2671 H 246.978 -3.65656 3.18471 0
M  V30 2672 N 248.321 -0.919034 -1.28029 0
M  V30 2673 C 249.231 -0.416756 -2.30869 0
M  V30 2674 C 250.247 0.498235 -1.66714 0
M  V30 2675 O 251.423 0.383144 -1.97722 0
M  V30 2676 C 248.488 0.330274 -3.45123 0
M  V30 2677 C 247.549 -0.618578 -4.2482 0
M  V30 2678 C 246.782 0.0928959 -5.33619 0
M  V30 2679 O 247.005 1.31375 -5.55065 0
M  V30 2680 O 245.939 -0.574499 -5.99152 0
M  V30 2681 H 249.765 -1.27043 -2.75851 0
M  V30 2682 H 247.35 -0.684052 -1.3282 0
M  V30 2683 H 249.232 0.751972 -4.14636 0
M  V30 2684 H 247.907 1.1597 -3.02213 0
M  V30 2685 H 246.814 -1.08978 -3.57875 0
M  V30 2686 H 248.147 -1.41497 -4.71423 0
M  V30 2687 N 249.799 1.42003 -0.683588 0
M  V30 2688 C 251.029 2.05448 -0.217866 0
M  V30 2689 C 251.437 1.51491 1.13346 0
M  V30 2690 O 250.78 0.653048 1.717 0
M  V30 2691 C 250.842 3.59399 -0.0850118 0
M  V30 2692 C 250.506 4.36093 -1.36645 0
M  V30 2693 C 251.503 4.66169 -2.30179 0
M  V30 2694 C 249.188 4.75578 -1.61649 0
M  V30 2695 C 251.182 5.34676 -3.46988 0
M  V30 2696 C 248.869 5.43824 -2.78745 0
M  V30 2697 C 249.867 5.73299 -3.71238 0
M  V30 2698 O 249.555 6.40142 -4.86285 0
M  V30 2699 H 249.287 0.668344 -0.101454 0
M  V30 2700 H 251.841 1.82974 -0.933248 0
M  V30 2701 H 250.071 3.80566 0.686031 0
M  V30 2702 H 251.76 4.04457 0.341973 0
M  V30 2703 H 252.526 4.36156 -2.12115 0
M  V30 2704 H 248.405 4.52025 -0.905243 0
M  V30 2705 H 251.949 5.57599 -4.19201 0
M  V30 2706 H 247.846 5.73254 -2.96732 0
M  V30 2707 H 248.614 6.58636 -4.85944 0
M  V30 2708 N 251.277 0.427512 1.51691 0
M  V30 2709 C 252.525 -0.141948 2.01601 0
M  V30 2710 C 252.846 -1.44067 1.31414 0
M  V30 2711 O 252.116 -1.90763 0.445658 0
M  V30 2712 H 250.696 -0.0554468 0.744939 0
M  V30 2713 H 253.358 0.567968 1.86441 0
M  V30 2714 H 252.454 -0.324913 3.10404 0
M  V30 2715 N 252.755 -1.56801 0.158532 0
M  V30 2716 C 253.985 -2.00568 -0.495583 0
M  V30 2717 C 254.393 -1.03774 -1.58201 0
M  V30 2718 O 253.736 -0.0285797 -1.83678 0
M  V30 2719 C 253.798 -3.40768 -1.14532 0
M  V30 2720 C 253.462 -4.56553 -0.202101 0
M  V30 2721 C 254.459 -5.16714 0.574675 0
M  V30 2722 C 252.144 -5.02197 -0.101648 0
M  V30 2723 C 254.138 -6.20939 1.43924 0
M  V30 2724 C 251.825 -6.06274 0.766508 0
M  V30 2725 C 252.823 -6.65515 1.53555 0
M  V30 2726 O 252.511 -7.67575 2.38922 0
M  V30 2727 H 252.243 -0.662893 -0.13247 0
M  V30 2728 H 254.797 -2.03829 0.253559 0
M  V30 2729 H 253.027 -3.34381 -1.94233 0
M  V30 2730 H 254.716 -3.6857 -1.70033 0
M  V30 2731 H 255.482 -4.82341 0.507167 0
M  V30 2732 H 251.361 -4.55807 -0.689994 0
M  V30 2733 H 254.905 -6.67107 2.03996 0
M  V30 2734 H 250.802 -6.40073 0.835266 0
M  V30 2735 H 251.57 -7.84844 2.32296 0
M  V30 2736 N 254.233 0.115231 -1.57178 0
M  V30 2737 C 255.482 0.820945 -1.84237 0
M  V30 2738 C 255.795 1.80866 -0.744761 0
M  V30 2739 O 257.001 2.56083 -0.901871 0
M  V30 2740 C 255.457 1.51072 -3.26658 0
M  V30 2741 C 255.065 0.563795 -4.44438 0
M  V30 2742 C 256.809 2.20134 -3.62962 0
M  V30 2743 C 254.716 1.25701 -5.77887 0
M  V30 2744 H 253.646 0.310328 -0.687177 0
M  V30 2745 H 256.297 0.0737134 -1.83352 0
M  V30 2746 H 254.679 2.30471 -3.22024 0
M  V30 2747 H 255.853 -0.197247 -4.60378 0
M  V30 2748 H 254.168 -0.0200638 -4.16395 0
M  V30 2749 H 256.765 2.72696 -4.59936 0
M  V30 2750 H 257.108 2.98107 -2.90582 0
M  V30 2751 H 257.641 1.47619 -3.69396 0
M  V30 2752 H 254.38 0.518493 -6.53446 0
M  V30 2753 H 253.9 1.98997 -5.65827 0
M  V30 2754 H 255.579 1.78915 -6.2177 0
M  V30 2755 N 255.711 1.52812 0.385517 0
M  V30 2756 C 256.936 1.72207 1.15583 0
M  V30 2757 C 257.361 0.441034 1.82857 0
M  V30 2758 O 256.719 -0.603465 1.70962 0
M  V30 2759 C 256.767 2.87476 2.17692 0
M  V30 2760 O 255.871 2.54693 3.24354 0
M  V30 2761 H 255.212 0.572526 0.336319 0
M  V30 2762 H 257.742 1.99618 0.448744 0
M  V30 2763 H 257.752 3.13072 2.6163 0
M  V30 2764 H 256.427 3.80408 1.68115 0
M  V30 2765 H 255.004 2.3985 2.85529 0
M  V30 2766 N 257.189 -0.644168 1.43834 0
M  V30 2767 C 258.417 -1.43147 1.49387 0
M  V30 2768 C 258.832 -1.88452 0.114583 0
M  V30 2769 O 258.189 -1.60047 -0.876989 0
M  V30 2770 C 258.24 -2.66046 2.44748 0
M  V30 2771 O 257.961 -2.22633 3.77314 0
M  V30 2772 C 259.462 -3.59311 2.59635 0
M  V30 2773 H 256.682 -0.439447 0.507077 0
M  V30 2774 H 259.226 -0.78895 1.88669 0
M  V30 2775 H 257.381 -3.26418 2.08638 0
M  V30 2776 H 257.795 -3.02216 4.28679 0
M  V30 2777 H 259.269 -4.42187 3.30416 0
M  V30 2778 H 259.746 -4.07259 1.64427 0
M  V30 2779 H 260.352 -3.04816 2.96593 0
M  V30 2780 N 258.668 -1.30515 -0.883378 0
M  V30 2781 C 259.893 -1.22487 -1.67367 0
M  V30 2782 C 260.318 0.208767 -1.86938 0
M  V30 2783 O 259.676 1.15015 -1.40148 0
M  V30 2784 C 259.724 -1.96041 -3.02655 0
M  V30 2785 O 258.828 -1.28859 -3.91751 0
M  V30 2786 H 258.169 -0.423573 -0.511353 0
M  V30 2787 H 260.699 -1.72362 -1.10239 0
M  V30 2788 H 260.709 -2.05124 -3.52687 0
M  V30 2789 H 259.384 -3.00307 -2.8773 0
M  V30 2790 H 257.961 -1.28141 -3.50192 0
M  V30 2791 N 260.146 1.09593 -1.13257 0
M  V30 2792 C 261.076 2.18214 -0.830946 0
M  V30 2793 C 262.057 1.68812 0.208966 0
M  V30 2794 O 263.242 1.9408 0.0682666 0
M  V30 2795 C 260.372 3.46051 -0.294296 0
M  V30 2796 C 259.326 4.08778 -1.26826 0
M  V30 2797 C 258.652 5.31419 -0.591449 0
M  V30 2798 C 259.952 4.51476 -2.62615 0
M  V30 2799 H 261.646 2.43703 -1.73923 0
M  V30 2800 H 259.192 1.17128 -0.837675 0
M  V30 2801 H 261.145 4.2134 -0.0709606 0
M  V30 2802 H 259.869 3.20079 0.649366 0
M  V30 2803 H 258.528 3.35505 -1.47756 0
M  V30 2804 H 258.176 5.01727 0.357633 0
M  V30 2805 H 257.876 5.74341 -1.24123 0
M  V30 2806 H 259.4 6.09433 -0.377355 0
M  V30 2807 H 260.814 5.17999 -2.45663 0
M  V30 2808 H 259.211 5.05277 -3.23752 0
M  V30 2809 H 260.281 3.63962 -3.20406 0
M  V30 2810 N 261.624 0.925811 1.2754 0
M  V30 2811 C 262.557 0.367836 2.25216 0
M  V30 2812 C 263.535 -0.534738 1.53556 0
M  V30 2813 O 264.719 -0.475672 1.824 0
M  V30 2814 C 261.846 -0.47298 3.35381 0
M  V30 2815 C 260.892 0.365898 4.24928 0
M  V30 2816 S 261.725 1.78025 5.05042 0
M  V30 2817 C 262.881 0.947068 6.18693 0
M  V30 2818 H 263.114 1.19568 2.72196 0
M  V30 2819 H 260.647 0.727867 1.36167 0
M  V30 2820 H 262.605 -0.952242 3.99303 0
M  V30 2821 H 261.266 -1.27533 2.87044 0
M  V30 2822 H 260.459 -0.277582 5.03235 0
M  V30 2823 H 260.061 0.779261 3.65792 0
M  V30 2824 H 262.353 0.182201 6.77255 0
M  V30 2825 H 263.296 1.70309 6.87314 0
M  V30 2826 H 263.704 0.489913 5.6237 0
M  V30 2827 N 263.102 -1.41638 0.69111 0
M  V30 2828 C 264.05 -2.32597 0.0115199 0
M  V30 2829 C 265.044 -1.5072 -0.773296 0
M  V30 2830 O 266.25 -1.66685 -0.67942 0
M  V30 2831 H 262.625 -0.751849 -0.0150746 0
M  V30 2832 H 264.596 -2.87593 0.795791 0
M  V30 2833 C 263.345 -3.35467 -0.914172 0
M  V30 2834 H 262.668 -3.9852 -0.319687 0
M  V30 2835 H 264.108 -4.01662 -1.35808 0
M  V30 2836 C 262.567 -2.69004 -2.02826 0
M  V30 2837 O 263.097 -2.53444 -3.11655 0
M  V30 2838 N 261.303 -2.2777 -1.80469 0
M  V30 2839 H 260.85 -2.40626 -0.919615 0
M  V30 2840 H 260.808 -1.83635 -2.55197 0
M  V30 2841 N 264.58 -0.43555 -1.51462 0
M  V30 2842 C 265.826 0.131709 -2.02372 0
M  V30 2843 C 266.159 1.42516 -1.3192 0
M  V30 2844 O 265.434 1.89606 -0.433573 0
M  V30 2845 C 265.717 0.352301 -3.58373 0
M  V30 2846 C 265.57 -0.959676 -4.39443 0
M  V30 2847 C 266.889 1.12286 -4.25535 0
M  V30 2848 H 264.008 0.0463936 -0.735538 0
M  V30 2849 H 266.65 -0.574197 -1.81116 0
M  V30 2850 H 264.8 0.9536 -3.76615 0
M  V30 2851 H 266.472 -1.59482 -4.32855 0
M  V30 2852 H 264.715 -1.56468 -4.04599 0
M  V30 2853 H 265.386 -0.759394 -5.46752 0
M  V30 2854 H 267.862 0.613545 -4.11552 0
M  V30 2855 H 266.738 1.24598 -5.34571 0
M  V30 2856 H 266.999 2.15048 -3.86273 0
M  V30 2857 N 266.058 1.56714 -0.166846 0
M  V30 2858 C 267.283 2.01557 0.488833 0
M  V30 2859 C 267.708 1.0463 1.56314 0
M  V30 2860 O 267.066 0.0251304 1.81283 0
M  V30 2861 C 267.114 3.4503 1.04818 0
M  V30 2862 O 266.218 3.51163 2.16236 0
M  V30 2863 H 265.559 0.653516 0.117526 0
M  V30 2864 H 268.089 2.02818 -0.269421 0
M  V30 2865 H 268.099 3.84243 1.37191 0
M  V30 2866 H 266.774 4.15077 0.261572 0
M  V30 2867 H 265.351 3.23807 1.84942 0
M  V30 2868 N 267.536 -0.106894 1.57237 0
M  V30 2869 C 268.468 -1.15646 1.97885 0
M  V30 2870 C 269.481 -1.36981 0.879779 0
M  V30 2871 O 270.67 -1.35841 1.15799 0
M  V30 2872 C 267.77 -2.51425 2.27241 0
M  V30 2873 C 266.943 -2.50529 3.58545 0
M  V30 2874 C 266.002 -3.68145 3.75973 0
M  V30 2875 O 265.028 -3.51176 4.47956 0
M  V30 2876 N 266.23 -4.87177 3.15656 0
M  V30 2877 H 268.995 -0.81059 2.8853 0
M  V30 2878 H 266.556 -0.296024 1.59171 0
M  V30 2879 H 268.548 -3.28689 2.36105 0
M  V30 2880 H 267.118 -2.78147 1.42663 0
M  V30 2881 H 266.338 -1.58894 3.60758 0
M  V30 2882 H 267.626 -2.46997 4.44826 0
M  V30 2883 H 267.024 -5.03868 2.57165 0
M  V30 2884 H 265.581 -5.62075 3.30023 0
M  V30 2885 N 269.014 -1.53014 -0.377408 0
M  V30 2886 C 270.261 -1.68623 -1.12128 0
M  V30 2887 C 270.589 -0.431997 -1.89642 0
M  V30 2888 O 269.844 0.585855 -1.86725 0
M  V30 2889 C 270.143 -2.87982 -2.11663 0
M  V30 2890 C 269.809 -4.24964 -1.50719 0
M  V30 2891 C 268.471 -4.62217 -1.33825 0
M  V30 2892 C 270.823 -5.10199 -1.06519 0
M  V30 2893 C 268.151 -5.82352 -0.712963 0
M  V30 2894 C 270.503 -6.30969 -0.453955 0
M  V30 2895 C 269.167 -6.66944 -0.272411 0
M  V30 2896 H 268.437 -0.617034 -0.410305 0
M  V30 2897 H 271.084 -1.8718 -0.404484 0
M  V30 2898 H 269.389 -2.63889 -2.89603 0
M  V30 2899 H 271.086 -2.97253 -2.6915 0
M  V30 2900 H 267.676 -3.95626 -1.64858 0
M  V30 2901 H 271.86 -4.81978 -1.18368 0
M  V30 2902 H 267.116 -6.08824 -0.560611 0
M  V30 2903 H 271.29 -6.96324 -0.103217 0
M  V30 2904 H 268.917 -7.59898 0.214181 0
M  V30 2905 N 270.492 0.636531 -1.44174 0
M  V30 2906 C 271.455 1.73063 -1.50273 0
M  V30 2907 C 272.455 1.56113 -0.385397 0
M  V30 2908 O 273.645 1.61707 -0.64781 0
M  V30 2909 C 270.777 3.12096 -1.37145 0
M  V30 2910 H 271.97 1.69031 -2.47727 0
M  V30 2911 H 269.523 0.849706 -1.31186 0
M  V30 2912 H 270.258 3.21728 -0.407636 0
M  V30 2913 H 270.043 3.25805 -2.18159 0
M  V30 2914 H 271.533 3.91846 -1.44382 0
M  V30 2915 N 271.97 1.30982 0.876444 0
M  V30 2916 C 273.218 1.20058 1.62575 0
M  V30 2917 C 273.539 -0.242947 1.93481 0
M  V30 2918 O 272.809 -1.1619 1.57724 0
M  V30 2919 H 271.389 0.44135 0.602677 0
M  V30 2920 H 274.051 1.64222 1.04962 0
M  V30 2921 H 273.147 1.76762 2.57219 0
M  V30 2922 N 273.449 -1.08991 1.13837 0
M  V30 2923 C 274.865 -1.33312 0.877506 0
M  V30 2924 C 275.065 -1.95587 -0.48456 0
M  V30 2925 O 274.121 -2.20509 -1.23013 0
M  V30 2926 C 275.434 -2.24045 2.0056 0
M  V30 2927 C 276.982 -2.37542 2.03821 0
M  V30 2928 C 277.457 -3.31614 3.15905 0
M  V30 2929 N 278.948 -3.39189 3.15445 0
M  V30 2930 C 279.683 -4.11992 3.98811 0
M  V30 2931 N 279.179 -4.87553 4.92203 0
M  V30 2932 N 280.972 -4.07762 3.86894 0
M  V30 2933 H 273.123 -0.669456 2.01574 0
M  V30 2934 H 275.386 -0.357482 0.878015 0
M  V30 2935 H 275.092 -1.85521 2.98789 0
M  V30 2936 H 274.966 -3.24466 1.92359 0
M  V30 2937 H 277.353 -2.75327 1.06202 0
M  V30 2938 H 277.434 -1.36884 2.16093 0
M  V30 2939 H 277.078 -2.94551 4.13766 0
M  V30 2940 H 277.008 -4.32186 3.0087 0
M  V30 2941 H 279.499 -2.85314 2.47799 0
M  V30 2942 H 279.812 -5.40549 5.52292 0
M  V30 2943 H 278.157 -4.86627 4.96205 0
M  V30 2944 H 281.348 -3.47833 3.13257 0
M  V30 2945 H 281.521 -4.64238 4.52092 0
M  V30 2946 N 274.927 -0.932562 -1.27047 0
M  V30 2947 C 276.338 -0.619451 -1.76124 0
M  V30 2948 C 276.689 0.865397 -1.76083 0
M  V30 2949 O 275.814 1.67722 -1.36742 0
M  V30 2950 C 276.409 -1.11771 -3.19832 0
M  V30 2951 C 274.968 -0.855174 -3.66557 0
M  V30 2952 C 274.115 -1.27362 -2.46321 0
M  V30 2953 H 277.066 -1.11181 -1.13245 0
M  V30 2954 H 277.087 -0.46759 -3.77616 0
M  V30 2955 H 276.599 -2.19842 -3.1983 0
M  V30 2956 H 274.7 0.211524 -3.71999 0
M  V30 2957 H 274.813 -1.47613 -4.55793 0
M  V30 2958 H 273.177 -0.692119 -2.45116 0
M  V30 2959 H 273.96 -2.36307 -2.49025 0
M  V30 2960 N 276.405 1.4127 -0.698611 0
M  V30 2961 C 277.654 2.00408 -0.227949 0
M  V30 2962 C 277.967 1.55981 1.18023 0
M  V30 2963 O 279.173 2.07699 1.74852 0
M  V30 2964 C 277.629 3.58129 -0.356636 0
M  V30 2965 C 277.237 4.11536 -1.77037 0
M  V30 2966 C 278.981 4.24466 0.0540969 0
M  V30 2967 C 276.888 5.61701 -1.85055 0
M  V30 2968 H 275.818 0.749586 -0.0814657 0
M  V30 2969 H 278.469 1.61713 -0.867249 0
M  V30 2970 H 276.851 3.94442 0.350965 0
M  V30 2971 H 278.025 3.86636 -2.50698 0
M  V30 2972 H 276.34 3.57736 -2.13105 0
M  V30 2973 H 278.937 5.34698 0.0146723 0
M  V30 2974 H 279.28 4.01687 1.09332 0
M  V30 2975 H 279.813 3.93198 -0.603337 0
M  V30 2976 H 276.552 5.89312 -2.8704 0
M  V30 2977 H 276.072 5.88519 -1.15783 0
M  V30 2978 H 277.751 6.26524 -1.61484 0
M  V30 2979 N 277.883 0.443576 1.51229 0
M  V30 2980 C 279.132 -0.122332 2.01329 0
M  V30 2981 C 279.445 -1.43237 1.33201 0
M  V30 2982 O 280.651 -2.0816 1.74304 0
M  V30 2983 C 279.107 -0.268551 3.58897 0
M  V30 2984 C 278.715 1.03142 4.35965 0
M  V30 2985 C 280.459 -0.787894 4.17124 0
M  V30 2986 C 278.366 0.850504 5.85252 0
M  V30 2987 H 277.296 -0.0494929 0.752374 0
M  V30 2988 H 279.947 0.574289 1.74282 0
M  V30 2989 H 278.329 -1.02832 3.82415 0
M  V30 2990 H 279.503 1.80001 4.24189 0
M  V30 2991 H 277.818 1.47977 3.89219 0
M  V30 2992 H 280.415 -0.939841 5.26375 0
M  V30 2993 H 280.758 -1.77201 3.76703 0
M  V30 2994 H 281.291 -0.0862669 3.97706 0
M  V30 2995 H 278.03 1.80718 6.30096 0
M  V30 2996 H 277.55 0.121825 5.99676 0
M  V30 2997 H 279.229 0.506163 6.45017 0
M  V30 2998 N 279.361 -1.56624 0.175154 0
M  V30 2999 C 280.589 -2.01374 -0.474971 0
M  V30 3000 C 281.004 -1.05537 -1.56548 0
M  V30 3001 O 280.361 -0.0568668 -1.82411 0
M  V30 3002 C 280.412 -3.45923 -1.04975 0
M  V30 3003 O 280.133 -4.381 -0.00276605 0
M  V30 3004 C 281.634 -4.06093 -1.77773 0
M  V30 3005 H 278.854 -0.659962 -0.121206 0
M  V30 3006 H 281.398 -2.02601 0.27801 0
M  V30 3007 H 279.553 -3.45458 -1.75321 0
M  V30 3008 H 279.967 -5.22753 -0.427681 0
M  V30 3009 H 281.441 -5.09147 -2.13245 0
M  V30 3010 H 281.918 -3.48405 -2.67414 0
M  V30 3011 H 282.524 -4.10272 -1.12059 0
M  V30 3012 N 280.839 0.0985539 -1.57292 0
M  V30 3013 C 281.786 1.11981 -2.01814 0
M  V30 3014 C 282.756 1.39999 -0.89384 0
M  V30 3015 O 283.941 1.5152 -1.15958 0
M  V30 3016 C 281.081 2.43577 -2.44467 0
M  V30 3017 C 280.194 2.2232 -3.70402 0
M  V30 3018 C 279.329 3.4729 -4.01949 0
M  V30 3019 C 278.368 3.2128 -5.21005 0
M  V30 3020 N 277.505 4.38507 -5.48321 0
M  V30 3021 H 282.345 0.733149 -2.88841 0
M  V30 3022 H 279.882 0.350482 -1.42864 0
M  V30 3023 H 281.84 3.20373 -2.6724 0
M  V30 3024 H 280.47 2.80097 -1.60455 0
M  V30 3025 H 279.522 1.36343 -3.55126 0
M  V30 3026 H 280.834 1.99089 -4.57345 0
M  V30 3027 H 279.988 4.32495 -4.25479 0
M  V30 3028 H 278.727 3.73572 -3.13521 0
M  V30 3029 H 277.732 2.34468 -4.97298 0
M  V30 3030 H 278.957 2.96348 -6.11028 0
M  V30 3031 H 276.903 4.64871 -4.62851 0
M  V30 3032 H 276.82 4.18455 -6.29628 0
M  V30 3033 H 278.088 5.24787 -5.76385 0
M  V30 3034 N 282.317 1.53212 0.369288 0
M  V30 3035 C 283.564 1.69215 1.11232 0
M  V30 3036 C 283.892 0.442048 1.8941 0
M  V30 3037 O 283.147 -0.575944 1.87033 0
M  V30 3038 C 283.446 2.89101 2.10132 0
M  V30 3039 C 283.112 4.25758 1.48463 0
M  V30 3040 C 281.774 4.6292 1.31372 0
M  V30 3041 C 284.126 5.10757 1.03811 0
M  V30 3042 C 281.454 5.82722 0.68207 0
M  V30 3043 C 283.806 6.31201 0.420487 0
M  V30 3044 C 282.47 6.67079 0.237038 0
M  V30 3045 H 281.74 0.619201 0.407027 0
M  V30 3046 H 284.387 1.87391 0.394552 0
M  V30 3047 H 282.692 2.65421 2.88199 0
M  V30 3048 H 284.389 2.98676 2.6757 0
M  V30 3049 H 280.979 3.96494 1.62758 0
M  V30 3050 H 285.163 4.82599 1.1581 0
M  V30 3051 H 280.419 6.09113 0.528316 0
M  V30 3052 H 284.593 6.96368 0.0662874 0
M  V30 3053 H 282.22 7.59774 -0.254477 0
M  V30 3054 N 283.795 -0.628877 1.44509 0
M  V30 3055 C 284.742 -1.74074 1.51549 0
M  V30 3056 C 285.712 -1.62084 0.363021 0
M  V30 3057 O 286.897 -1.81975 0.573567 0
M  V30 3058 C 284.037 -3.12328 1.46784 0
M  V30 3059 C 283.15 -3.35277 2.72422 0
M  V30 3060 C 282.285 -4.63515 2.59475 0
M  V30 3061 C 281.324 -4.7965 3.80266 0
M  V30 3062 N 280.461 -5.99168 3.65981 0
M  V30 3063 H 285.301 -1.67392 2.46544 0
M  V30 3064 H 282.838 -0.816527 1.22357 0
M  V30 3065 H 284.796 -3.92286 1.42012 0
M  V30 3066 H 283.426 -3.18018 0.553544 0
M  V30 3067 H 282.478 -2.49242 2.87372 0
M  V30 3068 H 283.79 -3.43078 3.62076 0
M  V30 3069 H 282.944 -5.51638 2.52548 0
M  V30 3070 H 281.683 -4.58076 1.67384 0
M  V30 3071 H 280.688 -3.89957 3.87574 0
M  V30 3072 H 281.913 -4.86902 4.73395 0
M  V30 3073 H 279.859 -5.94814 2.76644 0
M  V30 3074 H 279.776 -6.08035 4.49254 0
M  V30 3075 H 281.044 -6.89846 3.6295 0
M  V30 3076 N 285.273 -1.31445 -0.869486 0
M  V30 3077 C 286.519 -1.21337 -1.62496 0
M  V30 3078 C 286.852 0.227872 -1.92858 0
M  V30 3079 O 286.127 1.16094 -1.56053 0
M  V30 3080 C 286.41 -2.05814 -2.95487 0
M  V30 3081 C 286.263 -3.5824 -2.72 0
M  V30 3082 C 287.582 -1.9079 -3.96594 0
M  V30 3083 H 284.701 -0.442135 -0.589649 0
M  V30 3084 H 287.343 -1.6124 -1.00507 0
M  V30 3085 H 285.493 -1.71913 -3.48394 0
M  V30 3086 H 287.165 -4.0228 -2.25762 0
M  V30 3087 H 285.408 -3.81647 -2.06224 0
M  V30 3088 H 286.079 -4.12657 -3.66631 0
M  V30 3089 H 288.555 -2.20459 -3.52898 0
M  V30 3090 H 287.431 -2.52199 -4.87531 0
M  V30 3091 H 287.692 -0.871341 -4.33428 0
M  V30 3092 N 286.751 1.08385 -1.14413 0
M  V30 3093 C 287.714 2.13486 -0.834048 0
M  V30 3094 C 288.714 1.59988 0.161418 0
M  V30 3095 O 289.904 1.74071 -0.0669575 0
M  V30 3096 C 287.036 3.4003 -0.243354 0
M  V30 3097 H 288.229 2.42425 -1.7655 0
M  V30 3098 H 285.782 1.24101 -0.950189 0
M  V30 3099 H 286.517 3.16726 0.696807 0
M  V30 3100 H 286.302 3.80157 -0.960367 0
M  V30 3101 H 287.792 4.17577 -0.0436242 0
M  V30 3102 N 288.23 0.939286 1.26551 0
M  V30 3103 C 289.177 0.446088 2.26448 0
M  V30 3104 C 290.147 -0.493234 1.58608 0
M  V30 3105 O 291.332 -0.409857 1.86346 0
M  V30 3106 C 288.472 -0.284375 3.43926 0
M  V30 3107 C 287.585 0.690399 4.26448 0
M  V30 3108 C 286.72 -0.0610712 5.31165 0
M  V30 3109 C 285.759 0.905649 6.05363 0
M  V30 3110 N 284.896 0.186055 7.01853 0
M  V30 3111 H 289.736 1.30291 2.68008 0
M  V30 3112 H 287.273 0.65371 1.31776 0
M  V30 3113 H 289.231 -0.724313 4.10864 0
M  V30 3114 H 287.861 -1.10535 3.03285 0
M  V30 3115 H 286.913 1.24885 3.59316 0
M  V30 3116 H 288.225 1.42873 4.779 0
M  V30 3117 H 287.379 -0.56038 6.04106 0
M  V30 3118 H 286.118 -0.832297 4.80546 0
M  V30 3119 H 285.123 1.4161 5.3125 0
M  V30 3120 H 286.348 1.67685 6.58072 0
M  V30 3121 H 284.294 -0.566714 6.53548 0
M  V30 3122 H 284.211 0.863752 7.51049 0
M  V30 3123 H 285.479 -0.292221 7.78952 0
M  V30 3124 N 289.708 -1.40897 0.706093 0
M  V30 3125 C 290.956 -2.00657 0.241054 0
M  V30 3126 C 291.277 -1.56241 -1.16678 0
M  V30 3127 O 290.547 -0.79765 -1.78926 0
M  V30 3128 H 289.127 -0.742018 0.0861308 0
M  V30 3129 H 291.789 -1.72372 0.909604 0
M  V30 3130 H 290.885 -3.10958 0.266705 0
M  V30 3131 N 291.186 -0.45159 -1.50991 0
M  V30 3132 C 292.411 0.110667 -2.07105 0
M  V30 3133 C 292.836 1.3446 -1.31538 0
M  V30 3134 O 292.194 1.77743 -0.357365 0
M  V30 3135 C 292.242 0.397238 -3.58405 0
M  V30 3136 O 291.346 1.48124 -3.84881 0
M  V30 3137 H 290.687 -0.00439271 -0.663985 0
M  V30 3138 H 293.217 -0.637026 -1.9443 0
M  V30 3139 H 293.227 0.64351 -4.02893 0
M  V30 3140 H 291.902 -0.504553 -4.12828 0
M  V30 3141 H 290.479 1.22381 -3.52246 0
M  V30 3142 N 292.664 1.56529 -0.183458 0
M  V30 3143 C 293.611 2.18546 0.742055 0
M  V30 3144 C 294.581 1.12912 1.2182 0
M  V30 3145 O 295.766 1.41115 1.28418 0
M  V30 3146 C 292.906 2.83977 1.96089 0
M  V30 3147 C 292.019 4.04105 1.52719 0
M  V30 3148 C 291.154 4.57427 2.70063 0
M  V30 3149 C 290.193 5.69938 2.23243 0
M  V30 3150 N 289.33 6.17717 3.33722 0
M  V30 3151 H 294.17 2.97284 0.206432 0
M  V30 3152 H 291.707 1.46823 0.0901571 0
M  V30 3153 H 293.665 3.20077 2.67594 0
M  V30 3154 H 292.295 2.07822 2.47002 0
M  V30 3155 H 291.347 3.73745 0.708436 0
M  V30 3156 H 292.659 4.85513 1.1436 0
M  V30 3157 H 291.813 4.95772 3.49708 0
M  V30 3158 H 290.552 3.75101 3.11689 0
M  V30 3159 H 289.557 5.31133 1.42048 0
M  V30 3160 H 290.782 6.54073 1.82661 0
M  V30 3161 H 288.728 5.38317 3.74902 0
M  V30 3162 H 288.645 6.94146 2.99495 0
M  V30 3163 H 289.913 6.60713 4.13616 0
M  V30 3164 N 294.142 -0.090211 1.57342 0
M  V30 3165 C 295.105 -1.09335 2.01441 0
M  V30 3166 C 296.105 -1.32666 0.908641 0
M  V30 3167 O 297.295 -1.28697 1.174 0
M  V30 3168 C 294.427 -2.44136 2.3793 0
M  V30 3169 H 295.62 -0.713662 2.91285 0
M  V30 3170 H 293.173 -0.335404 1.52659 0
M  V30 3171 H 293.908 -2.86972 1.51055 0
M  V30 3172 H 293.693 -2.28548 3.18603 0
M  V30 3173 H 295.183 -3.16277 2.72688 0
M  V30 3174 N 295.62 -1.53406 -0.361157 0
M  V30 3175 C 296.868 -1.69467 -1.10115 0
M  V30 3176 C 297.189 -0.451352 -1.89705 0
M  V30 3177 O 296.459 0.534636 -1.88463 0
M  V30 3178 H 295.039 -0.624749 -0.409508 0
M  V30 3179 H 297.701 -1.90609 -0.406699 0
M  V30 3180 H 296.797 -2.55774 -1.78847 0
M  V30 3181 N 297.098 0.621204 -1.44841 0
M  V30 3182 C 298.328 1.40548 -1.51426 0
M  V30 3183 C 298.736 1.88673 -0.141083 0
M  V30 3184 O 298.079 1.62053 0.865128 0
M  V30 3185 C 298.141 2.65325 -2.42576 0
M  V30 3186 C 297.805 2.3893 -3.89566 0
M  V30 3187 C 298.802 2.00138 -4.79834 0
M  V30 3188 C 296.487 2.52263 -4.3436 0
M  V30 3189 C 298.481 1.75021 -6.129 0
M  V30 3190 C 296.168 2.2676 -5.67471 0
M  V30 3191 C 297.166 1.88199 -6.56559 0
M  V30 3192 O 296.854 1.62986 -7.87204 0
M  V30 3193 H 296.586 0.437122 -0.515655 0
M  V30 3194 H 299.14 0.765987 -1.90583 0
M  V30 3195 H 297.37 3.31947 -1.98364 0
M  V30 3196 H 299.059 3.27347 -2.39998 0
M  V30 3197 H 299.825 1.89386 -4.46495 0
M  V30 3198 H 295.704 2.81246 -3.65269 0
M  V30 3199 H 299.248 1.44848 -6.82396 0
M  V30 3200 H 295.145 2.37125 -6.00368 0
M  V30 3201 H 295.913 1.7715 -7.991 0
M  V30 3202 N 298.576 1.31904 0.862503 0
M  V30 3203 C 299.825 1.21373 1.61094 0
M  V30 3204 C 300.138 -0.22504 1.94301 0
M  V30 3205 O 301.344 -0.452121 2.67709 0
M  V30 3206 C 299.8 2.12525 2.9045 0
M  V30 3207 C 299.408 3.61441 2.64697 0
M  V30 3208 C 301.152 2.10813 3.68454 0
M  V30 3209 C 299.059 4.44578 3.90006 0
M  V30 3210 H 297.989 0.450705 0.604468 0
M  V30 3211 H 300.64 1.56811 0.953027 0
M  V30 3212 H 299.022 1.69994 3.57656 0
M  V30 3213 H 300.196 4.12264 2.05851 0
M  V30 3214 H 298.511 3.65205 2.00036 0
M  V30 3215 H 301.108 2.70167 4.61426 0
M  V30 3216 H 301.451 1.09713 4.01583 0
M  V30 3217 H 301.984 2.51583 3.08141 0
M  V30 3218 H 298.723 5.46461 3.62023 0
M  V30 3219 H 298.243 3.98508 4.48276 0
M  V30 3220 H 299.922 4.57176 4.5782 0
M  V30 3221 N 300.054 -1.07777 1.14986 0
M  V30 3222 C 301.331 -1.7699 0.832695 0
M  V30 3223 C 301.711 -2.001 -0.672561 0
M  V30 3224 O 301.059 -1.61598 -1.6155 0
M  V30 3225 C 301.269 -3.08139 1.63863 0
M  V30 3226 C 302.617 -3.8256 1.84208 0
M  V30 3227 O 303.641 -3.17939 1.60603 0
M  V30 3228 O 302.5 -4.98612 2.23714 0
M  V30 3229 H 299.594 -0.768389 0.305791 0
M  V30 3230 H 302.14 -1.14182 1.25541 0
M  V30 3231 H 300.912 -2.86909 2.6608 0
M  V30 3232 H 300.535 -3.78678 1.21197 0
M  V30 3233 N 301.532 -0.945985 -1.26051 0
M  V30 3234 C 302.943 -0.638096 -1.75457 0
M  V30 3235 C 303.294 0.846672 -1.76991 0
M  V30 3236 O 302.419 1.66262 -1.38513 0
M  V30 3237 C 303.014 -1.15157 -3.18629 0
M  V30 3238 C 301.573 -0.894004 -3.65629 0
M  V30 3239 C 300.72 -1.29967 -2.44957 0
M  V30 3240 H 303.671 -1.12376 -1.1206 0
M  V30 3241 H 303.692 -0.507615 -3.77099 0
M  V30 3242 H 303.204 -2.23222 -3.1748 0
M  V30 3243 H 301.305 0.172057 -3.72203 0
M  V30 3244 H 301.418 -1.52439 -4.54202 0
M  V30 3245 H 299.782 -0.718078 -2.44368 0
M  V30 3246 H 300.565 -2.38935 -2.46505 0
M  V30 3247 N 303.011 1.40521 -0.713556 0
M  V30 3248 C 304.26 2.00155 -0.249192 0
M  V30 3249 C 304.573 1.57224 1.16362 0
M  V30 3250 O 305.779 2.09542 1.72639 0
M  V30 3251 C 304.235 3.5773 -0.3946 0
M  V30 3252 C 303.843 4.09635 -1.81392 0
M  V30 3253 C 305.587 4.24499 0.00907364 0
M  V30 3254 C 303.494 5.59707 -1.91003 0
M  V30 3255 H 302.424 0.74868 -0.0894114 0
M  V30 3256 H 305.075 1.60784 -0.884352 0
M  V30 3257 H 303.457 3.94792 0.30911 0
M  V30 3258 H 304.631 3.83955 -2.54785 0
M  V30 3259 H 302.946 3.55456 -2.16888 0
M  V30 3260 H 305.543 5.34683 -0.0420404 0
M  V30 3261 H 305.886 4.02824 1.05065 0
M  V30 3262 H 306.419 3.92536 -0.645007 0
M  V30 3263 H 303.158 5.86234 -2.93275 0
M  V30 3264 H 302.678 5.87258 -1.22019 0
M  V30 3265 H 304.357 6.24776 -1.6812 0
M  V30 3266 N 304.489 0.459591 1.5075 0
M  V30 3267 C 305.714 -0.0996819 2.0716 0
M  V30 3268 C 306.139 -1.33761 1.32249 0
M  V30 3269 O 305.497 -1.77551 0.366786 0
M  V30 3270 C 305.545 -0.378226 3.58611 0
M  V30 3271 O 304.649 -1.46081 3.85661 0
M  V30 3272 H 303.99 0.00791392 0.663953 0
M  V30 3273 H 306.52 0.647329 1.9409 0
M  V30 3274 H 306.53 -0.622135 4.03229 0
M  V30 3275 H 305.205 0.526439 4.12555 0
M  V30 3276 H 303.782 -1.20511 3.5289 0
M  V30 3277 N 305.967 -1.56429 0.191757 0
M  V30 3278 C 306.93 -2.17707 -0.716688 0
M  V30 3279 C 307.93 -1.13061 -1.14341 0
M  V30 3280 O 309.12 -1.38464 -1.05704 0
M  V30 3281 C 306.252 -2.77644 -1.97804 0
M  V30 3282 H 307.445 -2.99342 -0.1829 0
M  V30 3283 H 304.998 -1.56193 -0.0578566 0
M  V30 3284 H 305.733 -1.99799 -2.55443 0
M  V30 3285 H 305.518 -3.54246 -1.68083 0
M  V30 3286 H 307.008 -3.24708 -2.62592 0
M  V30 3287 N 307.445 0.0818655 -1.57387 0
M  V30 3288 C 308.692 0.782914 -1.86753 0
M  V30 3289 C 309.02 1.78082 -0.782118 0
M  V30 3290 O 308.275 1.94426 0.22295 0
M  V30 3291 C 308.574 1.53513 -3.22752 0
M  V30 3292 C 308.24 0.678134 -4.45771 0
M  V30 3293 C 306.902 0.441929 -4.79166 0
M  V30 3294 C 309.254 0.0832243 -5.21134 0
M  V30 3295 C 306.582 -0.398833 -5.85343 0
M  V30 3296 C 308.934 -0.744935 -6.28199 0
M  V30 3297 C 307.598 -0.991107 -6.60101 0
M  V30 3298 H 306.868 0.286489 -0.683378 0
M  V30 3299 H 309.515 0.0439808 -1.91449 0
M  V30 3300 H 307.82 2.34599 -3.138 0
M  V30 3301 H 309.517 2.08218 -3.42705 0
M  V30 3302 H 306.107 0.872357 -4.19628 0
M  V30 3303 H 310.291 0.252847 -4.95655 0
M  V30 3304 H 305.547 -0.598405 -6.08465 0
M  V30 3305 H 309.721 -1.21271 -6.8576 0
M  V30 3306 H 307.348 -1.64437 -7.42202 0
M  V30 3307 N 308.923 1.53595 0.353017 0
M  V30 3308 C 309.886 1.80232 1.41594 0
M  V30 3309 C 310.886 0.673081 1.46035 0
M  V30 3310 O 312.076 0.941335 1.46576 0
M  V30 3311 C 309.208 1.93578 2.80607 0
M  V30 3312 H 310.401 2.75174 1.19244 0
M  V30 3313 H 307.954 1.44864 0.586872 0
M  V30 3314 H 308.689 1.00746 3.08254 0
M  V30 3315 H 308.474 2.75724 2.78781 0
M  V30 3316 H 309.964 2.15735 3.57558 0
M  V30 3317 N 310.401 -0.613514 1.45168 0
M  V30 3318 C 311.649 -1.36997 1.48581 0
M  V30 3319 C 311.97 -1.94589 0.126545 0
M  V30 3320 O 311.24 -1.76816 -0.843372 0
M  V30 3321 H 309.82 -0.508558 0.547154 0
M  V30 3322 H 312.482 -0.720853 1.81079 0
M  V30 3323 H 311.578 -2.1924 2.22127 0
M  V30 3324 N 311.879 -1.3236 -0.855495 0
M  V30 3325 C 312.811 -1.17052 -1.97057 0
M  V30 3326 C 313.824 -0.10574 -1.62456 0
M  V30 3327 O 315.013 -0.354619 -1.74942 0
M  V30 3328 C 312.113 -0.769305 -3.30053 0
M  V30 3329 C 311.286 -1.9222 -3.929 0
M  V30 3330 C 310.345 -1.50466 -5.04228 0
M  V30 3331 O 309.371 -2.21655 -5.24269 0
M  V30 3332 N 310.573 -0.400209 -5.79119 0
M  V30 3333 H 313.338 -2.13103 -2.1073 0
M  V30 3334 H 310.899 -1.24885 -1.0303 0
M  V30 3335 H 312.891 -0.472407 -4.01933 0
M  V30 3336 H 311.461 0.100025 -3.1244 0
M  V30 3337 H 310.681 -2.38563 -3.13817 0
M  V30 3338 H 311.969 -2.69403 -4.31624 0
M  V30 3339 H 311.367 0.192319 -5.65373 0
M  V30 3340 H 309.924 -0.162912 -6.51596 0
M  V30 3341 N 313.357 1.07166 -1.15556 0
M  V30 3342 C 314.287 2.16403 -0.877046 0
M  V30 3343 C 315.268 1.69217 0.173111 0
M  V30 3344 O 316.453 1.94181 0.027084 0
M  V30 3345 C 313.583 3.45349 -0.367632 0
M  V30 3346 C 312.537 4.05995 -1.35468 0
M  V30 3347 C 311.863 5.30045 -0.704038 0
M  V30 3348 C 313.163 4.45804 -2.72132 0
M  V30 3349 H 314.857 2.39959 -1.79053 0
M  V30 3350 H 312.403 1.15325 -0.862331 0
M  V30 3351 H 314.356 4.21095 -0.160317 0
M  V30 3352 H 313.08 3.21385 0.581326 0
M  V30 3353 H 311.739 3.32296 -1.54839 0
M  V30 3354 H 311.387 5.02373 0.251128 0
M  V30 3355 H 311.087 5.71579 -1.36277 0
M  V30 3356 H 312.611 6.08495 -0.50654 0
M  V30 3357 H 314.025 5.12671 -2.56595 0
M  V30 3358 H 312.422 4.98296 -3.34397 0
M  V30 3359 H 313.492 3.57083 -3.28054 0
M  V30 3360 N 314.835 0.952656 1.25548 0
M  V30 3361 C 315.745 0.47782 2.29682 0
M  V30 3362 C 316.761 -0.453859 1.67977 0
M  V30 3363 O 317.937 -0.330587 1.98668 0
M  V30 3364 C 315.002 -0.238655 3.45878 0
M  V30 3365 C 314.063 0.730994 4.23031 0
M  V30 3366 C 313.296 0.0486165 5.33678 0
M  V30 3367 O 313.519 -1.16612 5.58353 0
M  V30 3368 O 312.453 0.733152 5.97418 0
M  V30 3369 H 316.279 1.34312 2.72386 0
M  V30 3370 H 313.864 0.719026 1.30959 0
M  V30 3371 H 315.746 -0.641774 4.16484 0
M  V30 3372 H 314.421 -1.07916 3.05181 0
M  V30 3373 H 313.328 1.18428 3.5486 0
M  V30 3374 H 314.661 1.53946 4.67506 0
M  V30 3375 N 316.313 -1.40141 0.720998 0
M  V30 3376 C 317.246 -2.2819 0.020916 0
M  V30 3377 C 318.224 -1.43633 -0.762129 0
M  V30 3378 O 319.408 -1.7304 -0.747633 0
M  V30 3379 C 316.535 -3.24281 -0.977715 0
M  V30 3380 C 315.581 -4.25548 -0.284836 0
M  V30 3381 S 316.414 -5.26247 0.991169 0
M  V30 3382 C 317.57 -6.259 -0.0052214 0
M  V30 3383 H 317.803 -2.87218 0.767649 0
M  V30 3384 H 315.336 -1.45656 0.512233 0
M  V30 3385 H 317.294 -3.80167 -1.54865 0
M  V30 3386 H 315.955 -2.643 -1.69719 0
M  V30 3387 H 315.148 -4.93154 -1.03996 0
M  V30 3388 H 314.75 -3.73389 0.213684 0
M  V30 3389 H 317.042 -6.72143 -0.850279 0
M  V30 3390 H 317.985 -7.05224 0.637599 0
M  V30 3391 H 318.393 -5.63277 -0.371366 0
M  V30 3392 N 317.792 -0.46758 -1.50504 0
M  V30 3393 C 318.722 0.318381 -2.31319 0
M  V30 3394 C 319.703 0.993564 -1.38066 0
M  V30 3395 O 320.888 0.991411 -1.66987 0
M  V30 3396 C 318.018 1.40275 -3.17711 0
M  V30 3397 C 316.972 0.849373 -4.19487 0
M  V30 3398 C 316.298 2.03177 -4.94594 0
M  V30 3399 C 317.598 -0.136942 -5.2212 0
M  V30 3400 H 319.292 -0.356106 -2.97275 0
M  V30 3401 H 316.838 -0.172703 -1.42961 0
M  V30 3402 H 318.791 1.96004 -3.73042 0
M  V30 3403 H 317.515 2.10596 -2.49634 0
M  V30 3404 H 316.174 0.314076 -3.65252 0
M  V30 3405 H 315.822 2.72187 -4.22993 0
M  V30 3406 H 315.522 1.66774 -5.63436 0
M  V30 3407 H 317.046 2.59403 -5.52759 0
M  V30 3408 H 318.46 0.331056 -5.72343 0
M  V30 3409 H 316.857 -0.41507 -5.98663 0
M  V30 3410 H 317.927 -1.06398 -4.73083 0
M  V30 3411 N 319.27 1.56325 -0.20005 0
M  V30 3412 C 320.2 2.22318 0.713916 0
M  V30 3413 C 321.181 1.18788 1.21752 0
M  V30 3414 O 322.366 1.47309 1.26545 0
M  V30 3415 C 319.496 2.88639 1.93144 0
M  V30 3416 C 318.45 3.98457 1.56255 0
M  V30 3417 C 317.776 4.51967 2.85709 0
M  V30 3418 C 319.076 5.16612 0.768747 0
M  V30 3419 H 320.77 2.98952 0.163755 0
M  V30 3420 H 318.316 1.43792 0.0773219 0
M  V30 3421 H 320.269 3.33491 2.57608 0
M  V30 3422 H 318.993 2.09419 2.50621 0
M  V30 3423 H 317.652 3.54305 0.941471 0
M  V30 3424 H 317.3 3.69503 3.41287 0
M  V30 3425 H 317 5.26071 2.6177 0
M  V30 3426 H 318.524 4.99523 3.51154 0
M  V30 3427 H 319.938 5.57977 1.3166 0
M  V30 3428 H 318.335 5.96812 0.627286 0
M  V30 3429 H 319.405 4.84358 -0.229168 0
M  V30 3430 N 320.748 -0.0735177 1.57428 0
M  V30 3431 C 322.159 -0.625551 1.75908 0
M  V30 3432 C 322.51 -1.78 0.825261 0
M  V30 3433 O 321.635 -2.16398 0.00893964 0
M  V30 3434 C 322.23 -1.14155 3.18989 0
M  V30 3435 C 320.789 -1.63946 3.38819 0
M  V30 3436 C 319.936 -0.558151 2.71625 0
M  V30 3437 H 322.887 0.152647 1.57964 0
M  V30 3438 H 322.908 -2.0104 3.23053 0
M  V30 3439 H 322.42 -0.301116 3.8693 0
M  V30 3440 H 320.521 -2.50321 2.7599 0
M  V30 3441 H 320.634 -1.71759 4.47253 0
M  V30 3442 H 318.998 -1.00278 2.34129 0
M  V30 3443 H 319.781 0.272071 3.4222 0
M  V30 3444 N 322.226 -1.5378 -0.344866 0
M  V30 3445 C 323.642 -1.44015 -0.687888 0
M  V30 3446 C 323.842 -0.595834 -1.92489 0
M  V30 3447 O 322.898 -0.0863064 -2.52352 0
M  V30 3448 C 324.211 -2.87481 -0.881758 0
M  V30 3449 C 325.759 -2.97247 -0.980459 0
M  V30 3450 C 326.234 -4.41819 -1.20665 0
M  V30 3451 N 327.725 -4.45339 -1.27389 0
M  V30 3452 C 328.46 -5.54333 -1.46639 0
M  V30 3453 N 327.956 -6.73335 -1.63071 0
M  V30 3454 N 329.749 -5.41944 -1.49176 0
M  V30 3455 H 321.9 -2.07169 0.468475 0
M  V30 3456 H 324.163 -0.93643 0.147655 0
M  V30 3457 H 323.869 -3.51672 -0.0443444 0
M  V30 3458 H 323.743 -3.32352 -1.78388 0
M  V30 3459 H 326.13 -2.33197 -1.8084 0
M  V30 3460 H 326.211 -2.5574 -0.0552713 0
M  V30 3461 H 325.855 -5.06449 -0.383652 0
M  V30 3462 H 325.785 -4.80917 -2.14539 0
M  V30 3463 H 328.276 -3.59585 -1.1622 0
M  V30 3464 H 328.589 -7.52165 -1.77391 0
M  V30 3465 H 326.934 -6.76282 -1.60209 0
M  V30 3466 H 330.125 -4.47932 -1.3592 0
M  V30 3467 H 330.298 -6.26946 -1.63837 0
M  V30 3468 N 323.704 0.605807 -1.45491 0
M  V30 3469 C 324.654 1.71074 -1.50724 0
M  V30 3470 C 325.638 1.5658 -0.37033 0
M  V30 3471 O 326.83 1.65887 -0.617299 0
M  V30 3472 C 323.959 3.0983 -1.47852 0
M  V30 3473 C 323.045 3.29704 -2.66751 0
M  V30 3474 N 323.436 3.19831 -3.91844 0
M  V30 3475 C 321.734 3.60579 -2.62486 0
M  V30 3476 C 322.435 3.41083 -4.71208 0
M  V30 3477 N 321.411 3.65157 -4.02693 0
M  V30 3478 H 325.213 1.61937 -2.45263 0
M  V30 3479 H 322.727 0.80912 -1.40808 0
M  V30 3480 H 324.724 3.89101 -1.49686 0
M  V30 3481 H 323.384 3.20115 -0.543714 0
M  V30 3482 H 324.395 2.98194 -4.23439 0
M  V30 3483 H 321.072 3.7769 -1.77922 0
M  V30 3484 H 322.462 3.38828 -5.80211 0
M  V30 3485 N 325.182 1.32811 0.848464 0
M  V30 3486 C 326.407 1.26882 1.6406 0
M  V30 3487 C 326.832 -0.15913 1.87426 0
M  V30 3488 O 326.19 -1.11258 1.43148 0
M  V30 3489 C 326.238 2.03997 2.97351 0
M  V30 3490 O 325.342 1.39201 3.88197 0
M  V30 3491 H 324.683 0.436982 0.499943 0
M  V30 3492 H 327.213 1.75224 1.0563 0
M  V30 3493 H 327.223 2.14403 3.47124 0
M  V30 3494 H 325.898 3.0783 2.79666 0
M  V30 3495 H 324.475 1.37381 3.46671 0
M  V30 3496 N 326.66 -1.06551 1.16123 0
M  V30 3497 C 327.888 -1.83005 0.965237 0
M  V30 3498 C 328.303 -1.82423 -0.486542 0
M  V30 3499 O 327.66 -1.24152 -1.33763 0
M  V30 3500 C 327.711 -3.29733 1.48183 0
M  V30 3501 O 327.432 -3.30416 2.87674 0
M  V30 3502 C 328.933 -4.22926 1.32848 0
M  V30 3503 H 326.153 -0.577118 0.342309 0
M  V30 3504 H 328.697 -1.3445 1.54089 0
M  V30 3505 H 326.852 -3.75609 0.948517 0
M  V30 3506 H 327.266 -4.22149 3.11272 0
M  V30 3507 H 328.74 -5.23916 1.73827 0
M  V30 3508 H 329.217 -4.38346 0.273692 0
M  V30 3509 H 329.823 -3.82894 1.85127 0
M  V30 3510 N 328.138 -0.959301 -1.25041 0
M  V30 3511 C 329.368 -0.63303 -1.96663 0
M  V30 3512 C 329.776 0.800031 -1.71453 0
M  V30 3513 O 329.119 1.54736 -0.99008 0
M  V30 3514 C 329.181 -0.817523 -3.50081 0
M  V30 3515 C 328.845 -2.22863 -3.98975 0
M  V30 3516 C 329.842 -3.20569 -4.09306 0
M  V30 3517 C 327.527 -2.55407 -4.32519 0
M  V30 3518 C 329.521 -4.4891 -4.52503 0
M  V30 3519 C 327.208 -3.83976 -4.754 0
M  V30 3520 C 328.206 -4.8054 -4.85356 0
M  V30 3521 O 327.894 -6.06817 -5.27284 0
M  V30 3522 H 327.626 -0.235866 -0.633516 0
M  V30 3523 H 330.18 -1.2874 -1.60047 0
M  V30 3524 H 328.41 -0.105992 -3.86555 0
M  V30 3525 H 330.099 -0.491604 -4.02912 0
M  V30 3526 H 330.865 -2.96753 -3.83618 0
M  V30 3527 H 326.744 -1.8097 -4.23994 0
M  V30 3528 H 330.288 -5.24283 -4.60188 0
M  V30 3529 H 326.185 -4.07596 -5.00535 0
M  V30 3530 H 326.953 -6.10262 -5.45457 0
M  V30 3531 N 329.616 1.39756 -0.72842 0
M  V30 3532 C 330.566 2.2792 -0.0603424 0
M  V30 3533 C 331.55 1.43922 0.719399 0
M  V30 3534 O 332.742 1.66895 0.589489 0
M  V30 3535 C 329.871 3.32582 0.851104 0
M  V30 3536 C 328.957 4.24049 0.0658641 0
M  V30 3537 N 329.348 4.96653 -0.957578 0
M  V30 3538 C 327.646 4.45013 0.296509 0
M  V30 3539 C 328.347 5.63836 -1.43052 0
M  V30 3540 N 327.323 5.38397 -0.750315 0
M  V30 3541 H 331.125 2.81504 -0.84455 0
M  V30 3542 H 328.639 1.5236 -0.562155 0
M  V30 3543 H 330.636 3.94603 1.34514 0
M  V30 3544 H 329.296 2.80558 1.63454 0
M  V30 3545 H 330.307 5.00297 -1.33877 0
M  V30 3546 H 326.984 4.03943 1.05527 0
M  V30 3547 H 328.374 6.31974 -2.28163 0
M  V30 3548 N 331.094 0.475555 1.50254 0
M  V30 3549 C 332.343 -0.0795996 2.01543 0
M  V30 3550 C 332.656 -1.4038 1.36209 0
M  V30 3551 O 333.862 -2.04415 1.7868 0
M  V30 3552 C 332.318 -0.192363 3.59386 0
M  V30 3553 C 331.926 1.12367 4.33679 0
M  V30 3554 C 333.67 -0.699238 4.18701 0
M  V30 3555 C 331.577 0.974453 5.83317 0
M  V30 3556 H 330.507 -0.0335228 0.753254 0
M  V30 3557 H 333.158 0.611128 1.73025 0
M  V30 3558 H 331.54 -0.946974 3.84511 0
M  V30 3559 H 332.714 1.88958 4.20276 0
M  V30 3560 H 331.029 1.562 3.85993 0
M  V30 3561 H 333.626 -0.827978 5.28251 0
M  V30 3562 H 333.969 -1.69171 3.80377 0
M  V30 3563 H 334.502 -0.00188807 3.978 0
M  V30 3564 H 331.241 1.94042 6.26121 0
M  V30 3565 H 330.761 0.248998 5.99283 0
M  V30 3566 H 332.44 0.642867 6.43798 0
M  V30 3567 N 332.573 -1.56217 0.208337 0
M  V30 3568 C 333.85 -1.89739 -0.475234 0
M  V30 3569 C 334.23 -1.1238 -1.78701 0
M  V30 3570 O 333.578 -0.228979 -2.2735 0
M  V30 3571 C 333.788 -3.42289 -0.681101 0
M  V30 3572 C 335.136 -4.12789 -0.994507 0
M  V30 3573 O 336.16 -3.47814 -0.768357 0
M  V30 3574 O 335.019 -5.27649 -1.42299 0
M  V30 3575 H 332.113 -0.788478 -0.249461 0
M  V30 3576 H 334.659 -1.67855 0.249538 0
M  V30 3577 H 333.431 -3.90534 0.244722 0
M  V30 3578 H 333.054 -3.69909 -1.45785 0
M  V30 3579 N 334.051 0.0651679 -1.57465 0
M  V30 3580 C 335.328 0.79644 -1.78651 0
M  V30 3581 C 335.708 1.95454 -0.797566 0
M  V30 3582 O 335.056 2.27882 0.167946 0
M  V30 3583 C 335.266 1.26322 -3.25337 0
M  V30 3584 C 336.614 1.6939 -3.89348 0
M  V30 3585 O 337.638 1.35872 -3.29268 0
M  V30 3586 O 336.497 2.31471 -4.95059 0
M  V30 3587 H 333.591 0.382157 -0.733407 0
M  V30 3588 H 336.137 0.0447311 -1.69641 0
M  V30 3589 H 334.909 0.434859 -3.88876 0
M  V30 3590 H 334.532 2.07604 -3.39096 0
M  V30 3591 N 335.529 1.53961 0.336706 0
M  V30 3592 C 336.462 1.77255 1.43722 0
M  V30 3593 C 337.44 0.62193 1.50236 0
M  V30 3594 O 338.624 0.857874 1.67847 0
M  V30 3595 C 335.751 1.87733 2.81912 0
M  V30 3596 C 334.797 3.09933 2.92991 0
M  V30 3597 S 335.63 4.68836 2.58753 0
M  V30 3598 C 336.786 4.82202 3.99039 0
M  V30 3599 H 337.019 2.70322 1.23748 0
M  V30 3600 H 334.552 1.44917 0.532777 0
M  V30 3601 H 336.51 1.94455 3.61521 0
M  V30 3602 H 335.171 0.956666 2.99177 0
M  V30 3603 H 334.364 3.1396 3.94265 0
M  V30 3604 H 333.966 3.01472 2.21338 0
M  V30 3605 H 336.258 4.64032 4.9364 0
M  V30 3606 H 337.201 5.84298 4.00002 0
M  V30 3607 H 337.609 4.10604 3.87382 0
M  V30 3608 N 337.007 -0.598083 1.45811 0
M  V30 3609 C 338.423 -0.919847 1.30426 0
M  V30 3610 C 338.623 -1.99759 0.264303 0
M  V30 3611 O 337.679 -2.50221 -0.338472 0
M  V30 3612 C 338.992 -1.35176 2.68603 0
M  V30 3613 C 340.54 -1.46546 2.76574 0
M  V30 3614 C 341.015 -1.9311 4.15298 0
M  V30 3615 N 342.506 -2.00328 4.1764 0
M  V30 3616 C 343.241 -2.37599 5.21856 0
M  V30 3617 N 342.737 -2.73771 6.36413 0
M  V30 3618 N 344.53 -2.38021 5.09218 0
M  V30 3619 H 336.681 0.114111 2.12093 0
M  V30 3620 H 338.944 -0.0116121 0.947929 0
M  V30 3621 H 338.65 -0.633969 3.45939 0
M  V30 3622 H 338.524 -2.3164 2.97696 0
M  V30 3623 H 340.911 -2.17415 1.99537 0
M  V30 3624 H 340.992 -0.483727 2.51185 0
M  V30 3625 H 340.636 -1.22824 4.92825 0
M  V30 3626 H 340.566 -2.92213 4.38086 0
M  V30 3627 H 343.057 -1.74925 3.34977 0
M  V30 3628 H 343.37 -3.0112 7.11721 0
M  V30 3629 H 341.715 -2.71445 6.39799 0
M  V30 3630 H 344.906 -2.09174 4.18765 0
M  V30 3631 H 345.079 -2.66741 5.90554 0
M  V30 3632 N 338.485 -1.33259 -0.841409 0
M  V30 3633 C 339.415 -1.25926 -1.96634 0
M  V30 3634 C 340.396 -0.140349 -1.6952 0
M  V30 3635 O 341.581 -0.329707 -1.91381 0
M  V30 3636 C 338.711 -0.99512 -3.32738 0
M  V30 3637 C 337.665 -2.0767 -3.74242 0
M  V30 3638 C 336.991 -1.66474 -5.08125 0
M  V30 3639 C 338.291 -3.49318 -3.88297 0
M  V30 3640 H 339.985 -2.20046 -2.03027 0
M  V30 3641 H 337.531 -1.05931 -0.975425 0
M  V30 3642 H 339.484 -0.930323 -4.11002 0
M  V30 3643 H 338.208 -0.0183004 -3.26595 0
M  V30 3644 H 336.867 -2.13187 -2.98239 0
M  V30 3645 H 336.515 -0.675012 -4.9845 0
M  V30 3646 H 336.215 -2.3885 -5.36865 0
M  V30 3647 H 337.739 -1.61455 -5.88867 0
M  V30 3648 H 339.153 -3.46316 -4.56879 0
M  V30 3649 H 337.55 -4.20158 -4.28471 0
M  V30 3650 H 338.62 -3.8801 -2.9082 0
M  V30 3651 N 339.963 1.05934 -1.16686 0
M  V30 3652 C 341.188 1.83029 -0.975455 0
M  V30 3653 C 341.613 1.82096 0.471452 0
M  V30 3654 O 340.971 1.22443 1.33706 0
M  V30 3655 C 341.019 3.27372 -1.51195 0
M  V30 3656 O 340.123 4.06054 -0.720701 0
M  V30 3657 H 339.464 0.566194 -0.346872 0
M  V30 3658 H 341.994 1.33541 -1.55009 0
M  V30 3659 H 342.004 3.78186 -1.53099 0
M  V30 3660 H 340.679 3.27366 -2.56523 0
M  V30 3661 H 339.256 3.64812 -0.772458 0
M  V30 3662 N 341.441 0.965919 1.2453 0
M  V30 3663 C 342.666 0.643971 1.97149 0
M  V30 3664 C 343.091 -0.779487 1.71189 0
M  V30 3665 O 342.449 -1.5288 0.974553 0
M  V30 3666 C 342.497 0.922557 3.48599 0
M  V30 3667 O 341.601 0.00707672 4.12399 0
M  V30 3668 H 340.942 0.243647 0.617683 0
M  V30 3669 H 343.472 1.29558 1.58353 0
M  V30 3670 H 343.482 0.853373 3.98976 0
M  V30 3671 H 342.157 1.95996 3.66822 0
M  V30 3672 H 340.734 0.12943 3.72675 0
M  V30 3673 N 342.919 -1.39368 0.735821 0
M  V30 3674 C 344.196 -1.94465 0.210395 0
M  V30 3675 C 344.576 -1.67254 -1.28799 0
M  V30 3676 O 343.924 -1.00123 -2.05396 0
M  V30 3677 C 344.134 -3.4472 0.544897 0
M  V30 3678 C 345.482 -4.21708 0.494689 0
M  V30 3679 O 346.506 -3.52922 0.482136 0
M  V30 3680 O 345.365 -5.44299 0.489947 0
M  V30 3681 H 342.459 -0.826096 0.0386666 0
M  V30 3682 H 345.005 -1.48863 0.814735 0
M  V30 3683 H 343.777 -3.57963 1.58045 0
M  V30 3684 H 343.4 -3.97502 -0.08837 0
M  V30 3685 N 344.397 -0.483516 -1.5 0
M  V30 3686 C 345.645 0.067027 -2.01989 0
M  V30 3687 C 345.966 1.3909 -1.36671 0
M  V30 3688 O 345.236 1.88978 -0.516152 0
M  V30 3689 H 343.816 0.0277606 -0.746484 0
M  V30 3690 H 346.478 -0.636773 -1.84204 0
M  V30 3691 H 345.574 0.209484 -3.11396 0
M  V30 3692 N 345.875 1.56104 -0.216619 0
M  V30 3693 C 346.822 2.2007 0.695531 0
M  V30 3694 C 347.792 1.15471 1.19397 0
M  V30 3695 O 348.977 1.43807 1.25396 0
M  V30 3696 C 346.117 2.88073 1.90021 0
M  V30 3697 C 345.23 4.07253 1.44113 0
M  V30 3698 C 344.365 4.63052 2.603 0
M  V30 3699 C 343.404 5.74545 2.11103 0
M  V30 3700 N 342.541 6.24656 3.20545 0
M  V30 3701 H 347.381 2.97655 0.143327 0
M  V30 3702 H 344.918 1.46982 0.0589934 0
M  V30 3703 H 346.876 3.25681 2.60745 0
M  V30 3704 H 345.506 2.13015 2.42538 0
M  V30 3705 H 344.558 3.75164 0.628999 0
M  V30 3706 H 345.87 4.8783 1.04036 0
M  V30 3707 H 345.024 5.03078 3.39113 0
M  V30 3708 H 343.763 3.81628 3.03663 0
M  V30 3709 H 342.768 5.34027 1.3075 0
M  V30 3710 H 343.993 6.57801 1.68746 0
M  V30 3711 H 341.939 5.46148 3.63399 0
M  V30 3712 H 341.856 7.00343 2.84704 0
M  V30 3713 H 343.124 6.69338 3.99508 0
M  V30 3714 N 347.353 -0.0568162 1.57498 0
M  V30 3715 C 348.285 -1.09292 2.01464 0
M  V30 3716 C 349.298 -1.34112 0.922913 0
M  V30 3717 O 350.487 -1.32089 1.20062 0
M  V30 3718 C 347.587 -2.44068 2.35125 0
M  V30 3719 C 346.76 -2.38995 3.66333 0
M  V30 3720 C 345.819 -3.55997 3.87495 0
M  V30 3721 O 344.845 -3.36746 4.58901 0
M  V30 3722 N 346.047 -4.76888 3.30996 0
M  V30 3723 H 348.812 -0.718386 2.90963 0
M  V30 3724 H 346.373 -0.245235 1.60032 0
M  V30 3725 H 348.365 -3.21011 2.46443 0
M  V30 3726 H 346.935 -2.73468 1.5144 0
M  V30 3727 H 346.155 -1.47336 3.65631 0
M  V30 3728 H 347.443 -2.3272 4.52458 0
M  V30 3729 H 346.841 -4.95431 2.73065 0
M  V30 3730 H 345.398 -5.51291 3.47738 0
M  V30 3731 N 348.832 -1.54138 -0.328536 0
M  V30 3732 C 350.081 -1.71318 -1.06456 0
M  V30 3733 C 350.394 -0.491109 -1.89334 0
M  V30 3734 O 351.6 -0.54416 -2.65991 0
M  V30 3735 C 350.056 -3.03 -1.94214 0
M  V30 3736 C 349.664 -4.32595 -1.16471 0
M  V30 3737 C 351.408 -3.29544 -2.67583 0
M  V30 3738 C 349.315 -5.55341 -2.03347 0
M  V30 3739 H 348.245 -0.638429 -0.401155 0
M  V30 3740 H 350.896 -1.80633 -0.323106 0
M  V30 3741 H 349.278 -2.87579 -2.72239 0
M  V30 3742 H 350.452 -4.58766 -0.432525 0
M  V30 3743 H 348.767 -4.12777 -0.548063 0
M  V30 3744 H 351.364 -4.18444 -3.3288 0
M  V30 3745 H 351.707 -2.47206 -3.34955 0
M  V30 3746 H 352.24 -3.45809 -1.96623 0
M  V30 3747 H 348.979 -6.40268 -1.40491 0
M  V30 3748 H 348.499 -5.33397 -2.74313 0
M  V30 3749 H 350.178 -5.91557 -2.62049 0
M  V30 3750 N 350.31 0.590341 -1.46126 0
M  V30 3751 C 351.559 1.34499 -1.50309 0
M  V30 3752 C 351.872 1.94977 -0.156021 0
M  V30 3753 O 353.078 2.71395 -0.0756037 0
M  V30 3754 C 351.534 2.43723 -2.64815 0
M  V30 3755 C 351.142 1.89582 -4.0591 0
M  V30 3756 C 352.886 3.20579 -2.78262 0
M  V30 3757 C 350.793 2.9639 -5.11769 0
M  V30 3758 H 349.723 0.505593 -0.559368 0
M  V30 3759 H 352.374 0.630848 -1.72315 0
M  V30 3760 H 350.756 3.17902 -2.36124 0
M  V30 3761 H 351.93 1.21997 -4.44357 0
M  V30 3762 H 350.245 1.25418 -3.97063 0
M  V30 3763 H 352.842 4.00276 -3.54519 0
M  V30 3764 H 353.185 3.72684 -1.85505 0
M  V30 3765 H 353.718 2.53505 -3.06562 0
M  V30 3766 H 350.457 2.49181 -6.06291 0
M  V30 3767 H 349.977 3.62487 -4.77873 0
M  V30 3768 H 351.656 3.60474 -5.37278 0
M  V30 3769 N 351.788 1.33704 0.83433 0
M  V30 3770 C 353.037 1.24763 1.58484 0
M  V30 3771 C 353.35 -0.183775 1.94735 0
M  V30 3772 O 354.556 -0.395234 2.68608 0
M  V30 3773 C 353.012 2.18638 2.85876 0
M  V30 3774 C 352.62 3.66974 2.56971 0
M  V30 3775 C 354.364 2.18581 3.63899 0
M  V30 3776 C 352.271 4.5275 3.80488 0
M  V30 3777 H 351.201 0.463425 0.594772 0
M  V30 3778 H 353.852 1.58797 0.919551 0
M  V30 3779 H 352.234 1.77542 3.5397 0
M  V30 3780 H 353.408 4.16538 1.9706 0
M  V30 3781 H 351.723 3.69366 1.92244 0
M  V30 3782 H 354.32 2.79894 4.55591 0
M  V30 3783 H 354.663 1.18207 3.99165 0
M  V30 3784 H 355.196 2.58062 3.02735 0
M  V30 3785 H 351.935 5.54017 3.5035 0
M  V30 3786 H 351.455 4.07927 4.39722 0
M  V30 3787 H 353.134 4.66784 4.4802 0
M  V30 3788 N 353.266 -1.05314 1.17247 0
M  V30 3789 C 354.494 -1.81971 0.984593 0
M  V30 3790 C 354.909 -1.82929 -0.467166 0
M  V30 3791 O 354.266 -1.25564 -1.32438 0
M  V30 3792 C 354.317 -3.28143 1.51672 0
M  V30 3793 O 354.038 -3.27347 2.91163 0
M  V30 3794 C 355.539 -4.21493 1.37326 0
M  V30 3795 H 352.759 -0.573455 0.348411 0
M  V30 3796 H 355.303 -1.32808 1.55506 0
M  V30 3797 H 353.458 -3.74582 0.988302 0
M  V30 3798 H 353.872 -4.18824 3.15732 0
M  V30 3799 H 355.346 -5.22043 1.79375 0
M  V30 3800 H 355.823 -4.38031 0.320169 0
M  V30 3801 H 356.429 -3.80909 1.89178 0
M  V30 3802 N 354.744 -0.972509 -1.24016 0
M  V30 3803 C 355.707 -0.511403 -2.23422 0
M  V30 3804 C 356.707 0.394679 -1.55881 0
M  V30 3805 O 357.897 0.189469 -1.73167 0
M  V30 3806 C 355.029 0.258769 -3.39916 0
M  V30 3807 H 356.222 -1.39024 -2.6573 0
M  V30 3808 H 353.775 -0.757585 -1.36713 0
M  V30 3809 H 354.51 1.1545 -3.03054 0
M  V30 3810 H 354.295 -0.391522 -3.9014 0
M  V30 3811 H 355.785 0.570244 -4.13688 0
M  V30 3812 N 356.222 1.38976 -0.743202 0
M  V30 3813 C 357.45 2.04636 -0.30525 0
M  V30 3814 C 357.865 1.56044 1.06281 0
M  V30 3815 O 357.222 0.728921 1.67311 0
M  V30 3816 C 357.273 3.60193 -0.307177 0
M  V30 3817 O 356.994 4.06998 -1.62124 0
M  V30 3818 C 358.495 4.4306 0.145928 0
M  V30 3819 H 355.715 0.65788 -0.132041 0
M  V30 3820 H 358.259 1.77866 -1.00915 0
M  V30 3821 H 356.414 3.85835 0.347898 0
M  V30 3822 H 356.828 5.01371 -1.54036 0
M  V30 3823 H 358.302 5.51921 0.0934183 0
M  V30 3824 H 358.779 4.22706 1.19231 0
M  V30 3825 H 359.385 4.22584 -0.479886 0
M  V30 3826 N 357.7 0.491464 1.49741 0
M  V30 3827 C 358.633 -0.338464 2.25676 0
M  V30 3828 C 359.611 -0.978676 1.29849 0
M  V30 3829 O 360.795 -1.01064 1.59117 0
M  V30 3830 C 357.922 -1.47588 3.04853 0
M  V30 3831 C 356.968 -0.951 4.15762 0
M  V30 3832 S 357.801 0.150626 5.35288 0
M  V30 3833 C 358.957 -0.990178 6.18018 0
M  V30 3834 H 359.19 0.306068 2.9572 0
M  V30 3835 H 356.723 0.276622 1.51902 0
M  V30 3836 H 358.681 -2.12764 3.51058 0
M  V30 3837 H 357.342 -2.09199 2.34296 0
M  V30 3838 H 356.535 -1.80311 4.70642 0
M  V30 3839 H 356.137 -0.376607 3.72099 0
M  V30 3840 H 358.429 -1.89748 6.50386 0
M  V30 3841 H 359.372 -0.480205 7.0647 0
M  V30 3842 H 359.78 -1.25321 5.50413 0
M  V30 3843 N 359.178 -1.55987 0.224894 0
M  V30 3844 C 360.111 -2.16413 -0.723929 0
M  V30 3845 C 361.089 -1.10952 -1.18863 0
M  V30 3846 O 362.273 -1.39225 -1.27077 0
M  V30 3847 C 359.4 -2.74711 -1.98121 0
M  V30 3848 C 358.446 -3.9303 -1.6562 0
M  V30 3849 S 359.279 -5.29817 -0.778058 0
M  V30 3850 C 360.435 -5.91555 -2.04483 0
M  V30 3851 H 360.668 -2.96555 -0.210347 0
M  V30 3852 H 358.201 -1.54397 0.00955457 0
M  V30 3853 H 360.159 -3.08938 -2.70311 0
M  V30 3854 H 358.82 -1.94555 -2.46591 0
M  V30 3855 H 358.013 -4.32334 -2.59043 0
M  V30 3856 H 357.615 -3.59966 -1.01491 0
M  V30 3857 H 359.907 -6.07732 -2.99446 0
M  V30 3858 H 360.85 -6.87498 -1.69563 0
M  V30 3859 H 361.258 -5.20419 -2.18688 0
M  V30 3860 N 360.656 0.0484629 -1.57525 0
M  V30 3861 C 361.904 0.741657 -1.88 0
M  V30 3862 C 362.225 1.76918 -0.820054 0
M  V30 3863 O 361.495 1.95335 0.148661 0
M  V30 3864 H 360.075 0.276908 -0.69378 0
M  V30 3865 H 362.737 0.019013 -1.94891 0
M  V30 3866 H 361.833 1.24336 -2.86264 0
M  V30 3867 N 362.134 1.5431 0.320358 0
M  V30 3868 C 363.362 1.76636 1.07738 0
M  V30 3869 C 363.777 0.51649 1.81598 0
M  V30 3870 O 363.134 -0.512942 1.75143 0
M  V30 3871 C 363.185 2.96158 2.07299 0
M  V30 3872 O 362.906 4.16313 1.36438 0
M  V30 3873 C 364.407 3.3072 2.95193 0
M  V30 3874 H 361.627 0.589597 0.320339 0
M  V30 3875 H 364.171 2.01207 0.36551 0
M  V30 3876 H 362.326 2.73851 2.74016 0
M  V30 3877 H 362.74 4.83565 2.03138 0
M  V30 3878 H 364.214 4.17643 3.60941 0
M  V30 3879 H 364.691 2.48026 3.62463 0
M  V30 3880 H 365.297 3.55117 2.34034 0
M  V30 3881 N 363.613 -0.582584 1.46437 0
M  V30 3882 C 364.576 -1.67366 1.56592 0
M  V30 3883 C 365.576 -1.54575 0.443072 0
M  V30 3884 O 366.766 -1.59191 0.707381 0
M  V30 3885 C 363.898 -3.06791 1.48634 0
M  V30 3886 H 365.091 -1.5972 2.5383 0
M  V30 3887 H 362.644 -0.800432 1.34249 0
M  V30 3888 H 363.379 -3.19993 0.526763 0
M  V30 3889 H 363.164 -3.17484 2.30101 0
M  V30 3890 H 364.654 -3.86218 1.58826 0
M  V30 3891 N 365.091 -1.34144 -0.827227 0
M  V30 3892 C 366.34 -1.25602 -1.5782 0
M  V30 3893 C 366.653 0.173445 -1.94829 0
M  V30 3894 O 367.859 0.380984 -2.68814 0
M  V30 3895 C 366.315 -2.20151 -2.84713 0
M  V30 3896 C 365.923 -3.68331 -2.55021 0
M  V30 3897 C 367.667 -2.20508 -3.62735 0
M  V30 3898 C 365.574 -4.54762 -3.78082 0
M  V30 3899 H 364.504 -0.466573 -0.592306 0
M  V30 3900 H 367.155 -1.59283 -0.911116 0
M  V30 3901 H 365.537 -1.79417 -3.53023 0
M  V30 3902 H 366.711 -4.17577 -1.94849 0
M  V30 3903 H 365.026 -3.7038 -1.90283 0
M  V30 3904 H 367.623 -2.82306 -4.54101 0
M  V30 3905 H 367.966 -1.20322 -3.98533 0
M  V30 3906 H 368.499 -2.59664 -3.01362 0
M  V30 3907 H 365.238 -5.55867 -3.47407 0
M  V30 3908 H 364.758 -4.10254 -4.37552 0
M  V30 3909 H 366.437 -4.69153 -4.45538 0
M  V30 3910 N 366.569 1.04691 -1.17803 0
M  V30 3911 C 367.517 2.14665 -0.895635 0
M  V30 3912 C 368.511 1.68806 0.141679 0
M  V30 3913 O 369.717 1.79999 -0.00587914 0
M  V30 3914 H 366.092 0.701038 -0.272121 0
M  V30 3915 H 368.063 2.35685 -1.83017 0
M  V30 3916 C 366.812 3.45019 -0.430962 0
M  V30 3917 H 366.135 3.8071 -1.22064 0
M  V30 3918 H 367.575 4.23125 -0.272301 0
M  V30 3919 C 366.034 3.25943 0.852207 0
M  V30 3920 O 366.564 3.5296 1.91786 0
M  V30 3921 N 364.77 2.79304 0.802346 0
M  V30 3922 H 364.317 2.57518 -0.0650788 0
M  V30 3923 H 364.275 2.66921 1.66134 0
M  V30 3924 N 368.047 0.979072 1.23499 0
M  V30 3925 C 369.458 0.684391 1.73704 0
M  V30 3926 C 369.809 -0.799448 1.79174 0
M  V30 3927 O 368.934 -1.62531 1.42873 0
M  V30 3928 C 369.529 1.23564 3.15464 0
M  V30 3929 C 368.088 0.99063 3.6313 0
M  V30 3930 C 367.235 1.36416 2.41425 0
M  V30 3931 H 370.186 1.15307 1.09041 0
M  V30 3932 H 370.207 0.607417 3.7562 0
M  V30 3933 H 369.719 2.31561 3.1145 0
M  V30 3934 H 367.82 -0.0733136 3.72528 0
M  V30 3935 H 367.933 1.64427 4.5 0
M  V30 3936 H 366.297 0.782616 2.42378 0
M  V30 3937 H 367.08 2.45387 2.40083 0
M  V30 3938 N 369.525 -1.3858 0.750561 0
M  V30 3939 C 370.472 -2.30483 0.120835 0
M  V30 3940 C 371.442 -1.50022 -0.712923 0
M  V30 3941 O 372.627 -1.78662 -0.669676 0
M  V30 3942 C 369.767 -3.36431 -0.768666 0
M  V30 3943 C 368.88 -4.31927 0.0793922 0
M  V30 3944 C 368.015 -5.24944 -0.81283 0
M  V30 3945 C 367.054 -6.12088 0.0390447 0
M  V30 3946 N 366.191 -6.97412 -0.809969 0
M  V30 3947 H 371.031 -2.83761 0.91015 0
M  V30 3948 H 368.568 -1.39707 0.460463 0
M  V30 3949 H 370.526 -3.96462 -1.29898 0
M  V30 3950 H 369.156 -2.8457 -1.5238 0
M  V30 3951 H 368.208 -3.73382 0.727303 0
M  V30 3952 H 369.52 -4.93319 0.737401 0
M  V30 3953 H 368.674 -5.90078 -1.41042 0
M  V30 3954 H 367.413 -4.63911 -1.50458 0
M  V30 3955 H 366.418 -5.45952 0.649328 0
M  V30 3956 H 367.643 -6.75189 0.727809 0
M  V30 3957 H 365.589 -6.38931 -1.48672 0
M  V30 3958 H 365.506 -7.55712 -0.208789 0
M  V30 3959 H 366.774 -7.66959 -1.39263 0
M  V30 3960 O 371.042 -0.64105 -1.48232 0
M  V30 3961 H 371.733 -0.162855 -1.93014 0
M  V30 END ATOM
M  V30 BEGIN BOND
M  V30 END BOND
M  V30 END CTAB
M  END
$$$$
