drugbank_target|P15813 Antigen-presenting glycoprotein CD1d (DB04661)
 OpenBabel12092120543D

  0  0  0     0  0            999 V3000
M  V30 BEGIN CTAB
M  V30 COUNTS 5299 5375 0 0 0
M  V30 BEGIN ATOM
M  V30 1 H -0.908 1.98254 -0.117106 0
M  V30 2 N 0 1.576 0 0
M  V30 3 C 0.933 2.03868 1.02534 0
M  V30 4 C 1.911 0.928543 1.3348 0
M  V30 5 O 3.095 1.19667 1.45644 0
M  V30 6 C 0.222 2.43627 2.35294 0
M  V30 7 C -0.732 3.65373 2.2001 0
M  V30 8 S 0.101 5.13292 1.52614 0
M  V30 9 C 1.257 5.56322 2.86805 0
M  V30 10 H 1.49 2.90518 0.631377 0
M  V30 11 H -0.977 1.52953 0.210867 0
M  V30 12 H 0.981 2.67203 3.11629 0
M  V30 13 H -0.358 1.57376 2.7183 0
M  V30 14 H -1.165 3.90944 3.18086 0
M  V30 15 H -1.563 3.418 1.51819 0
M  V30 16 H 0.729 5.58782 3.83104 0
M  V30 17 H 1.672 6.56266 2.65933 0
M  V30 18 H 2.08 4.83886 2.90714 0
M  V30 19 N 1.4781 -0.272755 1.55222 0
M  V30 20 C 2.7261 -1.00234 1.75492 0
M  V30 21 C 3.0471 -1.8681 0.5592 0
M  V30 22 O 2.3171 -1.91215 -0.425882 0
M  V30 23 H 0.8971 -0.373076 0.647166 0
M  V30 24 H 3.5591 -0.296926 1.92625 0
M  V30 25 H 2.6551 -1.63913 2.65592 0
M  V30 26 N 2.9562 -1.48159 -0.537278 0
M  V30 27 C 4.1962 -1.57397 -1.30405 0
M  V30 28 C 4.5602 -0.239202 -1.90504 0
M  V30 29 O 5.7612 -0.206528 -2.68005 0
M  V30 30 C 4.0322 -2.6754 -2.36974 0
M  V30 31 S 5.5912 -2.96496 -3.23475 0
M  V30 32 H 2.4092 -0.555577 -0.443684 0
M  V30 33 H 5.0112 -1.85644 -0.612912 0
M  V30 34 H 3.7152 -3.63092 -1.91291 0
M  V30 35 H 3.2462 -2.41172 -3.10805 0
M  V30 36 H 5.2612 -2.35234 -4.36897 0
M  V30 37 N 4.4343 0.785586 -1.36625 0
M  V30 38 C 5.3643 1.91259 -1.33949 0
M  V30 39 C 6.3453 1.68795 -0.210325 0
M  V30 40 O 7.5303 1.89854 -0.408561 0
M  V30 41 C 4.6603 3.28339 -1.13186 0
M  V30 42 C 3.6143 3.65335 -2.22967 0
M  V30 43 C 2.9403 5.00806 -1.87342 0
M  V30 44 C 4.2403 3.7352 -3.65075 0
M  V30 45 H 5.9343 1.93755 -2.28253 0
M  V30 46 H 3.4803 0.930788 -1.09874 0
M  V30 47 H 5.4333 4.06804 -1.09948 0
M  V30 48 H 4.1573 3.2624 -0.153332 0
M  V30 49 H 2.8163 2.89169 -2.25337 0
M  V30 50 H 2.4643 4.95233 -0.880545 0
M  V30 51 H 2.1643 5.26529 -2.60846 0
M  V30 52 H 3.6883 5.81687 -1.85667 0
M  V30 53 H 5.1023 4.42168 -3.64911 0
M  V30 54 H 3.4993 4.10731 -4.37516 0
M  V30 55 H 4.5693 2.74527 -3.99703 0
M  V30 56 N 5.9124 1.20967 1.01018 0
M  V30 57 C 6.8424 0.988272 2.11555 0
M  V30 58 C 7.8234 -0.0849778 1.69888 0
M  V30 59 O 9.0084 0.0738202 1.9406 0
M  V30 60 C 6.1384 0.546528 3.42973 0
M  V30 61 C 5.0924 1.56375 3.9841 0
M  V30 62 C 4.4184 0.97842 5.25672 0
M  V30 63 C 5.7184 2.94922 4.31066 0
M  V30 64 H 7.4124 1.91276 2.30334 0
M  V30 65 H 4.9584 0.921073 1.1069 0
M  V30 66 H 6.9114 0.378839 4.19694 0
M  V30 67 H 5.6354 -0.413598 3.23971 0
M  V30 68 H 4.2944 1.71891 3.23804 0
M  V30 69 H 3.9424 0.0101688 5.02999 0
M  V30 70 H 3.6424 1.65784 5.63728 0
M  V30 71 H 5.1664 0.821939 6.05043 0
M  V30 72 H 6.5804 2.8288 4.9865 0
M  V30 73 H 4.9774 3.5983 4.80253 0
M  V30 74 H 6.0474 3.4616 3.39561 0
M  V30 75 N 7.3905 -1.2043 1.01659 0
M  V30 76 C 8.6375 -1.89797 0.705917 0
M  V30 77 C 8.9655 -1.78848 -0.764439 0
M  V30 78 O 8.2205 -1.16694 -1.57102 0
M  V30 79 C 8.5195 -3.40464 1.08714 0
M  V30 80 C 8.1855 -3.71614 2.5537 0
M  V30 81 C 6.8475 -3.79826 2.95441 0
M  V30 82 C 9.1995 -3.85915 3.50313 0
M  V30 83 C 6.5275 -3.99797 4.29394 0
M  V30 84 C 8.8795 -4.07396 4.83954 0
M  V30 85 C 7.5435 -4.13837 5.23732 0
M  V30 86 H 6.8135 -0.694518 0.258313 0
M  V30 87 H 9.4605 -1.42691 1.27717 0
M  V30 88 H 7.7655 -3.89385 0.434309 0
M  V30 89 H 9.4625 -3.92433 0.824461 0
M  V30 90 H 6.0525 -3.65822 2.23321 0
M  V30 91 H 10.2365 -3.78926 3.20513 0
M  V30 92 H 5.4925 -4.03018 4.59768 0
M  V30 93 H 9.6665 -4.17404 5.57447 0
M  V30 94 H 7.2935 -4.29064 6.27541 0
M  V30 95 N 8.8686 -0.792821 -1.36206 0
M  V30 96 C 9.7986 -0.207853 -2.32573 0
M  V30 97 C 10.7796 0.659055 -1.56813 0
M  V30 98 O 11.9646 0.592176 -1.84951 0
M  V30 99 C 9.0946 0.655449 -3.41059 0
M  V30 100 C 8.0486 -0.111842 -4.27854 0
M  V30 101 C 7.3746 0.872274 -5.27537 0
M  V30 102 C 8.6746 -1.30299 -5.05786 0
M  V30 103 H 10.3686 -1.01294 -2.81744 0
M  V30 104 H 7.9146 -0.48854 -1.3546 0
M  V30 105 H 9.8676 1.07464 -4.07467 0
M  V30 106 H 8.5916 1.49328 -2.90463 0
M  V30 107 H 7.2506 -0.512053 -3.63006 0
M  V30 108 H 6.8986 1.70523 -4.73214 0
M  V30 109 H 6.5986 0.363291 -5.86476 0
M  V30 110 H 8.1226 1.28996 -5.96818 0
M  V30 111 H 9.5366 -0.959379 -5.65216 0
M  V30 112 H 7.9336 -1.7455 -5.74154 0
M  V30 113 H 9.0036 -2.09663 -4.37229 0
M  V30 114 N 10.3467 1.47872 -0.545128 0
M  V30 115 C 11.2767 2.32661 0.197793 0
M  V30 116 C 12.2577 1.43041 0.920504 0
M  V30 117 O 13.4427 1.71912 0.90333 0
M  V30 118 C 10.5727 3.24569 1.23582 0
M  V30 119 C 9.5267 4.23333 0.630323 0
M  V30 120 C 8.8527 5.0448 1.77211 0
M  V30 121 C 10.1527 5.20704 -0.407974 0
M  V30 122 H 11.8467 2.95024 -0.510045 0
M  V30 123 H 9.3927 1.4187 -0.246731 0
M  V30 124 H 11.3457 3.8272 1.76362 0
M  V30 125 H 10.0697 2.60236 1.97344 0
M  V30 126 H 8.7287 3.6639 0.123922 0
M  V30 127 H 8.3767 4.36561 2.49847 0
M  V30 128 H 8.0767 5.71339 1.37281 0
M  V30 129 H 9.6007 5.65487 2.3034 0
M  V30 130 H 11.0147 5.7329 0.033305 0
M  V30 131 H 9.4117 5.95699 -0.725486 0
M  V30 132 H 10.4817 4.66917 -1.30828 0
M  V30 133 N 11.8248 0.280983 1.55075 0
M  V30 134 C 12.7548 -0.597469 2.25727 0
M  V30 135 C 13.7358 -1.15417 1.24952 0
M  V30 136 O 14.9208 -1.18722 1.53684 0
M  V30 137 C 12.0508 -1.7789 2.98283 0
M  V30 138 C 11.0048 -1.35347 4.06036 0
M  V30 139 C 10.3308 -2.61846 4.66198 0
M  V30 140 C 11.6308 -0.499354 5.19907 0
M  V30 141 H 13.3248 -0.00824265 2.99399 0
M  V30 142 H 10.8708 -0.0025244 1.44 0
M  V30 143 H 12.8238 -2.39937 3.46422 0
M  V30 144 H 11.5478 -2.39405 2.22155 0
M  V30 145 H 10.2068 -0.756156 3.58717 0
M  V30 146 H 9.8548 -3.21632 3.86732 0
M  V30 147 H 9.5548 -2.3409 5.38958 0
M  V30 148 H 11.0788 -3.24732 5.1709 0
M  V30 149 H 12.4928 -1.02498 5.64063 0
M  V30 150 H 10.8898 -0.316424 5.99265 0
M  V30 151 H 11.9598 0.480459 4.82514 0
M  V30 152 N 13.3029 -1.57598 0.00835791 0
M  V30 153 C 14.5489 -1.92046 -0.670055 0
M  V30 154 C 14.9039 -0.88351 -1.70915 0
M  V30 155 O 14.1969 0.103223 -1.91322 0
M  V30 156 C 14.3909 -3.3101 -1.34787 0
M  V30 157 C 14.2199 -4.48126 -0.375945 0
M  V30 158 C 12.9899 -5.05297 0.0166914 0
M  V30 159 C 15.1879 -5.1303 0.361272 0
M  V30 160 N 13.1699 -6.05931 0.985952 0
M  V30 161 C 14.5409 -6.08571 1.18495 0
M  V30 162 C 16.5959 -4.9609 0.42421 0
M  V30 163 C 15.2989 -6.88996 2.06584 0
M  V30 164 C 17.3249 -5.77107 1.29236 0
M  V30 165 C 16.6869 -6.72248 2.10386 0
M  V30 166 H 12.7859 -0.75096 -0.218136 0
M  V30 167 H 15.3699 -1.94572 0.0706669 0
M  V30 168 H 13.5409 -3.29342 -2.05884 0
M  V30 169 H 15.2729 -3.52864 -1.98164 0
M  V30 170 H 12.0279 -4.72279 -0.353435 0
M  V30 171 H 12.4519 -6.60932 1.4662 0
M  V30 172 H 17.0939 -4.22378 -0.188915 0
M  V30 173 H 14.8119 -7.62028 2.6896 0
M  V30 174 H 18.3979 -5.66038 1.34508 0
M  V30 175 H 17.2779 -7.33846 2.76476 0
M  V30 176 N 14.781 0.264519 -1.55364 0
M  V30 177 C 15.744 1.31046 -1.88042 0
M  V30 178 C 16.744 1.41943 -0.755569 0
M  V30 179 O 17.934 1.40947 -1.02369 0
M  V30 180 C 15.066 2.69067 -2.09323 0
M  V30 181 H 16.259 1.03297 -2.81549 0
M  V30 182 H 13.812 0.502989 -1.47986 0
M  V30 183 H 14.547 3.01982 -1.18226 0
M  V30 184 H 14.332 2.62542 -2.91229 0
M  V30 185 H 15.822 3.44623 -2.35848 0
M  V30 186 N 16.2591 1.48442 0.529413 0
M  V30 187 C 17.1891 1.65902 1.64313 0
M  V30 188 C 18.1701 0.507897 1.6234 0
M  V30 189 O 19.3551 0.740503 1.79528 0
M  V30 190 C 16.4851 1.69911 3.02898 0
M  V30 191 C 15.4391 2.8453 3.19729 0
M  V30 192 C 14.7651 2.73629 4.59381 0
M  V30 193 C 16.0651 4.25821 3.02447 0
M  V30 194 H 17.7591 2.5914 1.49955 0
M  V30 195 H 15.3051 1.24709 0.719982 0
M  V30 196 H 17.2581 1.80715 3.80684 0
M  V30 197 H 15.9821 0.732524 3.18279 0
M  V30 198 H 14.6411 2.73283 2.44361 0
M  V30 199 H 14.2891 1.74938 4.71599 0
M  V30 200 H 13.9891 3.50541 4.71588 0
M  V30 201 H 15.5131 2.86401 5.39265 0
M  V30 202 H 16.9271 4.37898 3.70024 0
M  V30 203 H 15.3241 5.03735 3.26146 0
M  V30 204 H 16.3941 4.42244 1.98867 0
M  V30 205 N 17.7372 -0.778329 1.37039 0
M  V30 206 C 18.6672 -1.90546 1.34962 0
M  V30 207 C 19.6482 -1.68681 0.219274 0
M  V30 208 O 20.8332 -1.89634 0.418624 0
M  V30 209 C 17.9632 -3.27734 1.14925 0
M  V30 210 C 16.9172 -3.64147 2.24902 0
M  V30 211 C 16.2432 -4.99806 1.89996 0
M  V30 212 C 17.5432 -3.71579 3.67051 0
M  V30 213 H 19.2372 -1.92541 2.29277 0
M  V30 214 H 16.7832 -0.924948 1.10366 0
M  V30 215 H 18.7362 -4.06215 1.12104 0
M  V30 216 H 17.4602 -3.26154 0.170631 0
M  V30 217 H 16.1192 -2.8797 2.26868 0
M  V30 218 H 15.7672 -4.94759 0.906796 0
M  V30 219 H 15.4672 -5.25139 2.63634 0
M  V30 220 H 16.9912 -5.80694 1.88749 0
M  V30 221 H 18.4052 -4.40227 3.67251 0
M  V30 222 H 16.8022 -4.08405 4.39688 0
M  V30 223 H 17.8722 -2.72404 4.01154 0
M  V30 224 N 19.2153 -1.21501 -1.00376 0
M  V30 225 C 20.1473 -0.933174 -2.09343 0
M  V30 226 C 21.1603 0.0840896 -1.62583 0
M  V30 227 O 22.3493 -0.148563 -1.77881 0
M  V30 228 C 19.4493 -0.379869 -3.36764 0
M  V30 229 C 18.6223 -1.45176 -4.12605 0
M  V30 230 C 17.6813 -0.907476 -5.18316 0
M  V30 231 O 16.7073 -1.5912 -5.46507 0
M  V30 232 N 17.9093 0.276649 -5.7984 0
M  V30 233 H 20.6743 -1.87124 -2.34104 0
M  V30 234 H 18.2353 -1.12043 -1.16867 0
M  V30 235 H 20.2273 -0.00131488 -4.047 0
M  V30 236 H 18.7973 0.463048 -3.09151 0
M  V30 237 H 18.0173 -2.00411 -3.39454 0
M  V30 238 H 19.3053 -2.17328 -4.6005 0
M  V30 239 H 18.7033 0.849147 -5.59291 0
M  V30 240 H 17.2603 0.596702 -6.49063 0
M  V30 241 N 20.6934 1.19889 -1.02296 0
M  V30 242 C 21.6564 2.21116 -0.603351 0
M  V30 243 C 22.6564 1.5738 0.329884 0
M  V30 244 O 23.8464 1.73802 0.117702 0
M  V30 245 C 20.9784 3.40696 0.117992 0
M  V30 246 H 22.1714 2.59754 -1.49893 0
M  V30 247 H 19.7244 1.33463 -0.813468 0
M  V30 248 H 20.4594 3.07569 1.0282 0
M  V30 249 H 20.2444 3.88188 -0.552511 0
M  V30 250 H 21.7344 4.15692 0.398696 0
M  V30 251 N 22.1715 0.800033 1.35784 0
M  V30 252 C 23.4175 0.38701 1.99684 0
M  V30 253 C 23.7725 -1.03268 1.62338 0
M  V30 254 O 23.0655 -1.70543 0.87325 0
M  V30 255 C 23.2595 0.500276 3.53881 0
M  V30 256 C 23.0885 1.92942 4.06206 0
M  V30 257 C 21.8585 2.55637 4.35865 0
M  V30 258 C 24.0565 2.89307 4.25213 0
M  V30 259 N 22.0385 3.9003 4.74078 0
M  V30 260 C 23.4095 4.08556 4.66349 0
M  V30 261 C 25.4645 2.86225 4.07406 0
M  V30 262 C 24.1675 5.25146 4.91543 0
M  V30 263 C 26.1935 4.02011 4.33752 0
M  V30 264 C 25.5555 5.20007 4.75155 0
M  V30 265 H 21.6545 0.189252 0.758754 0
M  V30 266 H 24.2385 1.03988 1.64604 0
M  V30 267 H 22.4095 -0.122568 3.88207 0
M  V30 268 H 24.1415 0.0624733 4.04652 0
M  V30 269 H 20.8965 2.07039 4.25948 0
M  V30 270 H 21.3205 4.59205 4.97454 0
M  V30 271 H 25.9625 1.96154 3.74544 0
M  V30 272 H 23.6805 6.15794 5.23281 0
M  V30 273 H 27.2665 4.00999 4.21534 0
M  V30 274 H 26.1465 6.08113 4.95145 0
M  V30 275 N 23.6496 -1.47581 0.552962 0
M  V30 276 C 24.8976 -2.02082 0.0272703 0
M  V30 277 C 25.2186 -1.4301 -1.32563 0
M  V30 278 O 24.4886 -0.603745 -1.86365 0
M  V30 279 H 23.0686 -0.746966 0.00709182 0
M  V30 280 H 25.7306 -1.81033 0.722008 0
M  V30 281 H 24.8266 -3.12034 -0.0639951 0
M  V30 282 N 25.1277 -0.289203 -1.54924 0
M  V30 283 C 26.3527 0.329299 -2.04769 0
M  V30 284 C 26.7777 1.4763 -1.16564 0
M  V30 285 O 26.1357 1.80527 -0.167186 0
M  V30 286 C 26.1837 0.774438 -3.52186 0
M  V30 287 O 25.2877 1.88038 -3.67036 0
M  V30 288 H 24.6287 0.0659259 -0.660719 0
M  V30 289 H 27.1587 -0.42761 -2.00082 0
M  V30 290 H 27.1687 1.06642 -3.93816 0
M  V30 291 H 25.8437 -0.0646707 -4.1585 0
M  V30 292 H 24.4207 1.58985 -3.3731 0
M  V30 293 N 26.6058 1.57591 -0.0167156 0
M  V30 294 C 27.5688 2.08393 0.954204 0
M  V30 295 C 28.5688 0.996531 1.26198 0
M  V30 296 O 29.7588 1.25858 1.20438 0
M  V30 297 C 26.8908 2.5394 2.27436 0
M  V30 298 H 28.0838 2.95455 0.514451 0
M  V30 299 H 25.6368 1.54582 0.231089 0
M  V30 300 H 26.3718 1.70171 2.76066 0
M  V30 301 H 26.1568 3.33371 2.06412 0
M  V30 302 H 27.6468 2.93512 2.97053 0
M  V30 303 N 28.0839 -0.256276 1.55502 0
M  V30 304 C 28.9939 -1.33882 1.92647 0
M  V30 305 C 30.0099 -1.53159 0.825727 0
M  V30 306 O 31.1859 -1.66963 1.12629 0
M  V30 307 C 28.2509 -2.6751 2.20543 0
M  V30 308 C 27.3119 -2.56836 3.43997 0
M  V30 309 C 26.5449 -3.84092 3.70553 0
M  V30 310 O 26.7679 -4.85545 2.99336 0
M  V30 311 O 25.7019 -3.83288 4.64084 0
M  V30 312 H 29.5279 -1.05374 2.84833 0
M  V30 313 H 27.1129 -0.456237 1.42263 0
M  V30 314 H 28.9949 -3.46492 2.39835 0
M  V30 315 H 27.6699 -2.9577 1.31536 0
M  V30 316 H 26.5769 -1.76172 3.30021 0
M  V30 317 H 27.9099 -2.33523 4.33275 0
M  V30 318 N 29.562 -1.4872 -0.521534 0
M  V30 319 C 30.808 -1.574 -1.27879 0
M  V30 320 C 31.141 -0.250817 -1.92573 0
M  V30 321 O 30.416 0.743934 -1.79711 0
M  V30 322 C 30.699 -2.71843 -2.36164 0
M  V30 323 C 30.552 -4.13893 -1.76105 0
M  V30 324 C 31.871 -2.82008 -3.37875 0
M  V30 325 H 28.99 -0.572941 -0.463581 0
M  V30 326 H 31.632 -1.80927 -0.580119 0
M  V30 327 H 29.782 -2.51914 -2.95756 0
M  V30 328 H 31.454 -4.45284 -1.20499 0
M  V30 329 H 29.697 -4.20498 -1.06601 0
M  V30 330 H 30.368 -4.89804 -2.5455 0
M  V30 331 H 32.844 -3.00086 -2.88249 0
M  V30 332 H 31.72 -3.63796 -4.11028 0
M  V30 333 H 31.981 -1.90511 -3.98946 0
M  V30 334 N 31.0401 0.771051 -1.3745 0
M  V30 335 C 32.4511 1.34737 -1.29239 0
M  V30 336 C 32.8021 1.96109 0.0596908 0
M  V30 337 O 31.9271 1.93865 0.961534 0
M  V30 338 C 32.5221 2.44973 -2.34037 0
M  V30 339 C 31.0811 2.98372 -2.29458 0
M  V30 340 C 30.2281 1.71595 -2.17831 0
M  V30 341 H 33.1791 0.571256 -1.48062 0
M  V30 342 H 33.2001 3.24471 -1.98744 0
M  V30 343 H 32.7121 2.00276 -3.32432 0
M  V30 344 H 30.8131 3.47443 -1.34589 0
M  V30 345 H 30.9261 3.53939 -3.229 0
M  V30 346 H 29.2901 1.94547 -1.64388 0
M  V30 347 H 30.0731 1.29001 -3.18141 0
M  V30 348 N 32.5182 1.22032 0.997298 0
M  V30 349 C 33.4502 0.944263 2.08845 0
M  V30 350 C 34.4632 -0.0754663 1.62625 0
M  V30 351 O 35.6522 0.157994 1.77799 0
M  V30 352 C 32.7522 0.397723 3.36558 0
M  V30 353 C 31.9252 1.47362 4.11829 0
M  V30 354 C 30.9842 0.934951 5.17827 0
M  V30 355 O 30.0102 1.62016 5.45655 0
M  V30 356 N 31.2122 -0.245895 5.79979 0
M  V30 357 H 33.9772 1.88363 2.33109 0
M  V30 358 H 31.5382 1.12661 1.16272 0
M  V30 359 H 33.5302 0.0227771 4.04694 0
M  V30 360 H 32.1002 -0.446646 3.09393 0
M  V30 361 H 31.3202 2.02208 3.38386 0
M  V30 362 H 32.6082 2.19764 4.58891 0
M  V30 363 H 32.0062 -0.819475 5.59733 0
M  V30 364 H 30.5632 -0.562272 6.4937 0
M  V30 365 N 33.9963 -1.19345 1.0293 0
M  V30 366 C 35.4123 -1.41069 0.746446 0
M  V30 367 C 35.6123 -1.90078 -0.668776 0
M  V30 368 O 34.6683 -2.0778 -1.4347 0
M  V30 369 C 35.9813 -2.42141 1.78292 0
M  V30 370 C 37.5293 -2.55887 1.80252 0
M  V30 371 C 38.0043 -3.60214 2.8286 0
M  V30 372 N 39.4953 -3.67711 2.81679 0
M  V30 373 C 40.2303 -4.48128 3.57727 0
M  V30 374 N 39.7263 -5.32248 4.43491 0
M  V30 375 N 41.5193 -4.42782 3.46267 0
M  V30 376 H 33.6703 -0.858536 1.94275 0
M  V30 377 H 35.9333 -0.439541 0.839945 0
M  V30 378 H 35.6393 -2.13155 2.79746 0
M  V30 379 H 35.5133 -3.41323 1.60557 0
M  V30 380 H 37.9003 -2.84196 0.794757 0
M  V30 381 H 37.9813 -1.56858 2.02062 0
M  V30 382 H 37.6253 -3.32647 3.83807 0
M  V30 383 H 37.5553 -4.58895 2.58307 0
M  V30 384 H 40.0463 -3.07634 2.19476 0
M  V30 385 H 40.3593 -5.90729 4.98256 0
M  V30 386 H 38.7043 -5.31707 4.47564 0
M  V30 387 H 41.8953 -3.76107 2.78677 0
M  V30 388 H 42.0683 -5.05215 4.05785 0
M  V30 389 N 35.4744 -0.807222 -1.35358 0
M  V30 390 C 36.4044 -0.232509 -2.3234 0
M  V30 391 C 37.3854 0.642386 -1.57504 0
M  V30 392 O 38.5704 0.572526 -1.85569 0
M  V30 393 C 35.7004 0.619238 -3.41735 0
M  V30 394 C 34.6544 -0.157215 -4.27711 0
M  V30 395 C 33.9804 0.816273 -5.28433 0
M  V30 396 C 35.2804 -1.35656 -5.04376 0
M  V30 397 H 36.9744 -1.04276 -2.80654 0
M  V30 398 H 34.5204 -0.50288 -1.34934 0
M  V30 399 H 36.4734 1.03137 -4.08584 0
M  V30 400 H 35.1974 1.46239 -2.92031 0
M  V30 401 H 33.8564 -0.550525 -3.62443 0
M  V30 402 H 33.5044 1.65494 -4.74996 0
M  V30 403 H 33.2044 0.301067 -5.86828 0
M  V30 404 H 34.7284 1.22659 -5.98153 0
M  V30 405 H 36.1424 -1.01927 -5.64166 0
M  V30 406 H 34.5394 -1.8063 -5.7227 0
M  V30 407 H 35.6094 -2.14288 -4.34981 0
M  V30 408 N 36.9525 1.47285 -0.560781 0
M  V30 409 C 38.1995 2.02464 -0.038062 0
M  V30 410 C 38.5275 1.43474 1.31322 0
M  V30 411 O 37.7825 0.581311 1.86867 0
M  V30 412 C 38.0815 3.57258 0.100784 0
M  V30 413 C 37.7475 4.35184 -1.18007 0
M  V30 414 C 36.4095 4.56194 -1.53103 0
M  V30 415 C 38.7615 4.80098 -2.02867 0
M  V30 416 C 36.0895 5.19367 -2.729 0
M  V30 417 C 38.4415 5.44593 -3.21871 0
M  V30 418 C 37.1055 5.63835 -3.57276 0
M  V30 419 H 36.3755 0.740869 -0.0139279 0
M  V30 420 H 39.0225 1.76916 -0.733012 0
M  V30 421 H 37.3275 3.81819 0.878724 0
M  V30 422 H 39.0245 3.97606 0.520639 0
M  V30 423 H 35.6145 4.19113 -0.8968 0
M  V30 424 H 39.7985 4.63642 -1.7706 0
M  V30 425 H 35.0545 5.32459 -3.00496 0
M  V30 426 H 39.2285 5.78358 -3.87911 0
M  V30 427 H 36.8555 6.12557 -4.50197 0
M  V30 428 N 38.4306 0.297415 1.54768 0
M  V30 429 C 39.8416 -0.195947 1.85669 0
M  V30 430 C 40.1926 -1.53707 1.21937 0
M  V30 431 O 39.3176 -2.10164 0.515754 0
M  V30 432 C 39.9126 -0.362318 3.36857 0
M  V30 433 C 38.4716 -0.799901 3.67802 0
M  V30 434 C 37.6186 0.0938578 2.77141 0
M  V30 435 H 40.5696 0.518538 1.4999 0
M  V30 436 H 40.5906 -1.19745 3.61167 0
M  V30 437 H 40.1026 0.613921 3.83214 0
M  V30 438 H 38.2036 -1.78682 3.26961 0
M  V30 439 H 38.3166 -0.621773 4.75048 0
M  V30 440 H 36.6806 -0.426254 2.51108 0
M  V30 441 H 37.4636 1.06639 3.26318 0
M  V30 442 N 39.9087 -1.5758 0.0250728 0
M  V30 443 C 40.8387 -2.13007 -0.956575 0
M  V30 444 C 41.8197 -1.0452 -1.342 0
M  V30 445 O 43.0047 -1.32332 -1.42133 0
M  V30 446 C 40.1347 -2.65386 -2.24026 0
M  V30 447 C 39.0887 -3.78623 -1.99571 0
M  V30 448 C 38.4147 -4.17414 -3.3417 0
M  V30 449 C 39.7147 -5.04867 -1.33814 0
M  V30 450 H 41.4087 -2.9528 -0.494991 0
M  V30 451 H 38.9547 -1.42042 -0.236651 0
M  V30 452 H 40.9077 -3.02794 -2.93076 0
M  V30 453 H 39.6317 -1.80268 -2.72343 0
M  V30 454 H 38.2907 -3.41646 -1.32941 0
M  V30 455 H 37.9387 -3.29284 -3.80238 0
M  V30 456 H 37.6387 -4.93719 -3.18615 0
M  V30 457 H 39.1627 -4.57402 -4.04495 0
M  V30 458 H 40.5767 -5.39888 -1.92857 0
M  V30 459 H 38.9737 -5.86144 -1.28669 0
M  V30 460 H 40.0437 -4.83904 -0.310561 0
M  V30 461 N 41.3868 0.248026 -1.55636 0
M  V30 462 C 42.8028 0.596483 -1.48035 0
M  V30 463 C 43.0028 1.88386 -0.715039 0
M  V30 464 O 42.0588 2.51319 -0.243944 0
M  V30 465 C 43.3718 0.700258 -2.92433 0
M  V30 466 C 44.9198 0.792659 -3.02797 0
M  V30 467 C 45.3948 0.928005 -4.485 0
M  V30 468 N 46.8858 0.992903 -4.52433 0
M  V30 469 C 47.6208 1.11687 -5.62418 0
M  V30 470 N 47.1168 1.20645 -6.82214 0
M  V30 471 N 48.9098 1.14994 -5.50212 0
M  V30 472 H 41.0608 -0.597109 -2.03834 0
M  V30 473 H 43.3238 -0.205925 -0.925364 0
M  V30 474 H 43.0298 -0.175658 -3.51261 0
M  V30 475 H 42.9038 1.57255 -3.42857 0
M  V30 476 H 45.2908 1.65903 -2.4405 0
M  V30 477 H 45.3718 -0.104762 -2.55585 0
M  V30 478 H 45.0158 0.0661971 -5.07857 0
M  V30 479 H 44.9458 1.84045 -4.93391 0
M  V30 480 H 47.4368 0.935064 -3.66149 0
M  V30 481 H 47.7498 1.30008 -7.61786 0
M  V30 482 H 46.0948 1.17605 -6.84977 0
M  V30 483 H 49.2858 1.07643 -4.55555 0
M  V30 484 H 49.4588 1.24311 -6.35965 0
M  V30 485 N 42.8649 1.48995 0.513639 0
M  V30 486 C 44.1049 1.59452 1.27885 0
M  V30 487 C 44.4689 0.269479 1.90099 0
M  V30 488 O 45.6699 0.249139 2.67643 0
M  V30 489 C 43.9409 2.71277 2.32688 0
M  V30 490 S 45.4999 3.01604 3.18717 0
M  V30 491 H 42.3179 0.562565 0.434789 0
M  V30 492 H 44.9199 1.86595 0.583301 0
M  V30 493 H 43.6239 3.66089 1.8549 0
M  V30 494 H 43.1549 2.46086 3.06929 0
M  V30 495 H 45.1699 2.42155 4.331 0
M  V30 496 N 44.343 -0.763751 1.37857 0
M  V30 497 C 45.273 -1.89103 1.36975 0
M  V30 498 C 46.254 -1.68439 0.237152 0
M  V30 499 O 47.439 -1.8918 0.438713 0
M  V30 500 C 44.569 -3.26496 1.18395 0
M  V30 501 C 43.523 -3.61741 2.28751 0
M  V30 502 C 42.849 -4.97762 1.95286 0
M  V30 503 C 44.149 -3.67665 3.70972 0
M  V30 504 H 45.843 -1.90099 2.31307 0
M  V30 505 H 43.389 -0.91319 1.11341 0
M  V30 506 H 45.342 -4.05003 1.16406 0
M  V30 507 H 44.066 -3.25955 0.205215 0
M  V30 508 H 42.725 -2.85547 2.29909 0
M  V30 509 H 42.373 -4.93769 0.959221 0
M  V30 510 H 42.073 -5.22313 2.69189 0
M  V30 511 H 43.597 -5.7866 1.94898 0
M  V30 512 H 45.011 -4.36307 3.719 0
M  V30 513 H 43.408 -4.03718 4.43995 0
M  V30 514 H 44.478 -2.68134 4.0402 0
M  V30 515 N 45.8211 -1.22559 -0.990812 0
M  V30 516 C 46.7531 -0.955325 -2.08342 0
M  V30 517 C 47.7661 0.0668408 -1.62663 0
M  V30 518 O 48.9551 -0.167421 -1.77713 0
M  V30 519 C 46.0551 -0.415566 -3.36342 0
M  V30 520 C 45.2281 -1.49544 -4.11042 0
M  V30 521 C 44.2871 -0.962399 -5.17324 0
M  V30 522 O 43.3131 -1.64907 -5.44788 0
M  V30 523 N 44.5151 0.215134 -5.80101 0
M  V30 524 H 47.2801 -1.89596 -2.32106 0
M  V30 525 H 44.8411 -1.13276 -1.15673 0
M  V30 526 H 46.8331 -0.0442386 -4.04676 0
M  V30 527 H 45.4031 0.430232 -3.09625 0
M  V30 528 H 44.6231 -2.04 -3.37309 0
M  V30 529 H 45.9111 -2.22195 -4.57719 0
M  V30 530 H 45.3091 0.789779 -5.6016 0
M  V30 531 H 43.8661 0.527826 -6.49659 0
M  V30 532 N 47.2992 1.18797 -1.03562 0
M  V30 533 C 48.5482 1.87978 -0.731235 0
M  V30 534 C 48.8612 1.80911 0.743671 0
M  V30 535 O 50.0672 2.45407 1.16137 0
M  V30 536 C 48.5232 3.3721 -1.25768 0
M  V30 537 C 48.1312 3.52818 -2.76085 0
M  V30 538 C 49.8752 4.11825 -1.0296 0
M  V30 539 C 47.7822 4.9598 -3.22114 0
M  V30 540 H 46.7122 0.704063 -0.269835 0
M  V30 541 H 49.3632 1.34266 -1.25079 0
M  V30 542 H 47.7452 3.90359 -0.666011 0
M  V30 543 H 48.9192 3.09965 -3.40966 0
M  V30 544 H 47.2342 2.91602 -2.97249 0
M  V30 545 H 49.8312 5.17411 -1.34869 0
M  V30 546 H 50.1742 4.16287 0.0333546 0
M  V30 547 H 50.7072 3.64833 -1.58562 0
M  V30 548 H 47.4462 4.96684 -4.27768 0
M  V30 549 H 46.9662 5.39569 -2.61965 0
M  V30 550 H 48.6452 5.6467 -3.15844 0
M  V30 551 N 48.7773 0.814389 1.34928 0
M  V30 552 C 50.0023 0.410097 2.03305 0
M  V30 553 C 50.4273 -0.973464 1.60951 0
M  V30 554 O 49.7853 -1.63185 0.789964 0
M  V30 555 C 49.8333 0.51049 3.56968 0
M  V30 556 O 48.9373 -0.473035 4.09678 0
M  V30 557 H 48.2783 0.170088 0.641846 0
M  V30 558 H 50.8083 1.10244 1.72358 0
M  V30 559 H 50.8183 0.383135 4.06197 0
M  V30 560 H 49.4933 1.51963 3.87144 0
M  V30 561 H 48.0703 -0.305272 3.71648 0
M  V30 562 N 50.2554 -1.46986 0.568584 0
M  V30 563 C 51.4804 -2.07335 0.0520528 0
M  V30 564 C 51.9054 -1.41675 -1.23733 0
M  V30 565 O 51.2634 -0.495623 -1.74394 0
M  V30 566 C 51.3114 -3.60417 -0.11501 0
M  V30 567 O 50.4154 -3.95309 -1.17492 0
M  V30 568 H 49.7564 -0.661597 0.0564385 0
M  V30 569 H 52.2864 -1.88837 0.787507 0
M  V30 570 H 52.2964 -4.06698 -0.325644 0
M  V30 571 H 50.9714 -4.07601 0.826675 0
M  V30 572 H 49.5484 -3.60757 -0.943869 0
M  V30 573 N 51.7335 -0.305618 -1.54608 0
M  V30 574 C 52.9805 0.302298 -2.00231 0
M  V30 575 C 53.3085 1.5354 -1.19398 0
M  V30 576 O 52.5635 1.93973 -0.259423 0
M  V30 577 C 52.8625 0.698983 -3.50498 0
M  V30 578 C 52.5285 -0.432903 -4.48817 0
M  V30 579 C 51.1905 -0.743622 -4.75419 0
M  V30 580 C 53.5425 -1.19409 -5.07337 0
M  V30 581 C 50.8705 -1.81857 -5.57804 0
M  V30 582 C 53.2225 -2.25899 -5.90891 0
M  V30 583 C 51.8865 -2.57572 -6.15803 0
M  V30 584 H 51.1565 0.110619 -0.732697 0
M  V30 585 H 53.8035 -0.425674 -1.86709 0
M  V30 586 H 52.1085 1.50711 -3.61654 0
M  V30 587 H 53.8055 1.1806 -3.83227 0
M  V30 588 H 50.3955 -0.18063 -4.28219 0
M  V30 589 H 54.5795 -0.967295 -4.86782 0
M  V30 590 H 49.8355 -2.06864 -5.75341 0
M  V30 591 H 54.0095 -2.85335 -6.35261 0
M  V30 592 H 51.6365 -3.40998 -6.7943 0
M  V30 593 N 53.2116 1.57565 -0.0334293 0
M  V30 594 C 54.1746 2.09393 0.932048 0
M  V30 595 C 55.1746 1.00986 1.25134 0
M  V30 596 O 56.3646 1.27129 1.19096 0
M  V30 597 C 53.4966 2.56338 2.2473 0
M  V30 598 H 54.6896 2.95984 0.483085 0
M  V30 599 H 52.2426 1.54819 0.21468 0
M  V30 600 H 52.9776 1.7309 2.74245 0
M  V30 601 H 52.7626 3.35542 2.02865 0
M  V30 602 H 54.2526 2.96646 2.93923 0
M  V30 603 N 54.6897 -0.239769 1.55765 0
M  V30 604 C 55.6377 -1.31668 1.91745 0
M  V30 605 C 56.6317 -1.49462 0.797338 0
M  V30 606 O 57.8377 -1.50852 0.982021 0
M  V30 607 H 54.2127 -0.441048 0.609082 0
M  V30 608 H 56.1837 -0.985923 2.81642 0
M  V30 609 C 54.9327 -2.66368 2.2348 0
M  V30 610 H 54.2557 -2.53478 3.09175 0
M  V30 611 H 55.6957 -3.40578 2.52553 0
M  V30 612 C 54.1547 -3.20002 1.05359 0
M  V30 613 O 54.6847 -4.00538 0.305261 0
M  V30 614 N 52.8907 -2.78126 0.842292 0
M  V30 615 H 52.4377 -2.12742 1.45253 0
M  V30 616 H 52.3957 -3.14354 0.053652 0
M  V30 617 N 56.1678 -1.49265 -0.50573 0
M  V30 618 C 57.3928 -1.62478 -1.28902 0
M  V30 619 C 57.8178 -0.294332 -1.85783 0
M  V30 620 O 57.1758 0.737412 -1.65626 0
M  V30 621 C 57.2238 -2.69268 -2.39848 0
M  V30 622 O 56.3278 -2.28113 -3.43567 0
M  V30 623 H 55.6688 -0.54399 -0.380751 0
M  V30 624 H 58.1988 -1.95421 -0.605952 0
M  V30 625 H 58.2088 -2.91291 -2.85681 0
M  V30 626 H 56.8838 -3.65846 -1.97812 0
M  V30 627 H 55.4608 -2.16401 -3.03685 0
M  V30 628 N 57.6459 0.756429 -1.3826 0
M  V30 629 C 58.8709 1.55077 -1.37717 0
M  V30 630 C 59.2959 1.88073 0.03164 0
M  V30 631 O 58.6539 1.50364 1.01293 0
M  V30 632 C 58.7019 2.8283 -2.23695 0
M  V30 633 O 57.8059 3.77862 -1.6521 0
M  V30 634 H 57.1469 0.469152 -0.469885 0
M  V30 635 H 59.6769 0.935019 -1.81985 0
M  V30 636 H 59.6869 3.31783 -2.37453 0
M  V30 637 H 58.3619 2.58144 -3.2609 0
M  V30 638 H 56.9389 3.36555 -1.60578 0
M  V30 639 N 59.124 1.23083 0.984299 0
M  V30 640 C 60.37 1.07221 1.72845 0
M  V30 641 C 60.725 -0.387453 1.88458 0
M  V30 642 O 60.018 -1.28309 1.42293 0
M  V30 643 C 60.212 1.72673 3.1292 0
M  V30 644 C 60.041 3.24853 3.10967 0
M  V30 645 C 58.811 3.93998 3.16376 0
M  V30 646 C 61.009 4.21674 2.94441 0
M  V30 647 N 58.991 5.33192 3.04268 0
M  V30 648 C 60.362 5.47756 2.90453 0
M  V30 649 C 62.417 4.12457 2.78897 0
M  V30 650 C 61.12 6.6568 2.72512 0
M  V30 651 C 63.146 5.3004 2.62319 0
M  V30 652 C 62.508 6.55046 2.59026 0
M  V30 653 H 58.607 0.44685 0.641755 0
M  V30 654 H 61.191 1.55753 1.16829 0
M  V30 655 H 59.362 1.26679 3.67161 0
M  V30 656 H 61.094 1.49824 3.75945 0
M  V30 657 H 57.849 3.45052 3.24401 0
M  V30 658 H 58.273 6.06157 3.015 0
M  V30 659 H 62.915 3.16588 2.80235 0
M  V30 660 H 60.633 7.61689 2.69919 0
M  V30 661 H 64.219 5.24747 2.5126 0
M  V30 662 H 63.099 7.44498 2.46357 0
M  V30 663 N 60.6021 -1.18246 1.0419 0
M  V30 664 C 61.8301 -1.92195 0.766072 0
M  V30 665 C 62.2451 -1.76247 -0.676933 0
M  V30 666 O 61.6021 -1.09293 -1.46155 0
M  V30 667 C 61.6531 -3.43568 1.12442 0
M  V30 668 O 61.3741 -3.59015 2.51078 0
M  V30 669 C 62.8751 -4.34613 0.873275 0
M  V30 670 H 60.0951 -0.610114 0.279288 0
M  V30 671 H 62.6391 -1.50007 1.38989 0
M  V30 672 H 60.7941 -3.8354 0.545542 0
M  V30 673 H 61.2081 -4.5273 2.64831 0
M  V30 674 H 62.6821 -5.39374 1.17385 0
M  V30 675 H 63.1591 -4.38781 -0.191909 0
M  V30 676 H 63.7651 -4.00341 1.43551 0
M  V30 677 N 62.0802 -0.821533 -1.34494 0
M  V30 678 C 63.4962 -0.507117 -1.51329 0
M  V30 679 C 63.6962 0.968964 -1.76673 0
M  V30 680 O 62.7522 1.75348 -1.81685 0
M  V30 681 C 64.0652 -1.36544 -2.67911 0
M  V30 682 C 65.6132 -1.36242 -2.81793 0
M  V30 683 C 66.0882 -2.2052 -4.01416 0
M  V30 684 N 67.5792 -2.18136 -4.08621 0
M  V30 685 C 68.3142 -2.80095 -5.00334 0
M  V30 686 N 67.8102 -3.51039 -5.9728 0
M  V30 687 N 69.6032 -2.69656 -4.93196 0
M  V30 688 H 61.7542 -1.77729 -1.16302 0
M  V30 689 H 64.0172 -0.757291 -0.570276 0
M  V30 690 H 63.7232 -2.41361 -2.55808 0
M  V30 691 H 63.5972 -1.02917 -3.62888 0
M  V30 692 H 65.9842 -0.322041 -2.93338 0
M  V30 693 H 66.0652 -1.73866 -1.87628 0
M  V30 694 H 65.7092 -3.24607 -3.90631 0
M  V30 695 H 65.6392 -1.80247 -4.94791 0
M  V30 696 H 68.1302 -1.6653 -3.39229 0
M  V30 697 H 68.4432 -3.95565 -6.63889 0
M  V30 698 H 66.7882 -3.55145 -5.97409 0
M  V30 699 H 69.9792 -2.13808 -4.16418 0
M  V30 700 H 70.1522 -3.1823 -5.64476 0
M  V30 701 N 63.5583 1.46682 -0.576371 0
M  V30 702 C 64.7863 2.06798 -0.0649635 0
M  V30 703 C 65.2013 1.42612 1.23723 0
M  V30 704 O 64.5583 0.529203 1.74659 0
M  V30 705 C 64.6093 3.6132 0.114202 0
M  V30 706 O 64.3303 4.23104 -1.13644 0
M  V30 707 C 65.8313 4.38349 0.66069 0
M  V30 708 H 63.0513 0.668778 -0.0545616 0
M  V30 709 H 65.5953 1.88404 -0.795237 0
M  V30 710 H 63.7503 3.79162 0.794673 0
M  V30 711 H 64.1643 5.15894 -0.946253 0
M  V30 712 H 65.6383 5.47081 0.73526 0
M  V30 713 H 66.1153 4.05953 1.67627 0
M  V30 714 H 66.7213 4.25297 0.0152951 0
M  V30 715 N 65.0364 0.313813 1.54444 0
M  V30 716 C 66.3134 -0.345447 1.92525 0
M  V30 717 C 66.6934 -1.70667 1.24242 0
M  V30 718 O 66.0414 -2.25273 0.382654 0
M  V30 719 C 66.2514 -0.44737 3.46121 0
M  V30 720 C 67.5994 -0.712238 4.18584 0
M  V30 721 O 68.6234 -0.530678 3.52225 0
M  V30 722 O 67.4824 -1.06183 5.36085 0
M  V30 723 H 64.5764 -0.195407 0.803583 0
M  V30 724 H 67.1224 0.362813 1.65776 0
M  V30 725 H 65.8944 0.509043 3.87975 0
M  V30 726 H 65.5174 -1.20359 3.78945 0
M  V30 727 N 66.5145 -1.57545 0.0417849 0
M  V30 728 C 67.7625 -1.91937 -0.632829 0
M  V30 729 C 68.0835 -0.919978 -1.71934 0
M  V30 730 O 67.3535 0.0366064 -1.95866 0
M  V30 731 H 65.9335 -0.708493 -0.236742 0
M  V30 732 H 68.5955 -1.9468 0.0925745 0
M  V30 733 H 67.6915 -2.92912 -1.07746 0
M  V30 734 N 67.9926 0.231505 -1.5589 0
M  V30 735 C 68.9226 1.29022 -1.94617 0
M  V30 736 C 69.9036 1.4941 -0.813067 0
M  V30 737 O 71.0886 1.6176 -1.07459 0
M  V30 738 C 68.2186 2.64199 -2.25424 0
M  V30 739 C 67.1726 2.58484 -3.41131 0
M  V30 740 C 66.4986 3.97599 -3.57518 0
M  V30 741 C 67.7986 2.1413 -4.76388 0
M  V30 742 H 69.4926 0.968563 -2.83301 0
M  V30 743 H 67.0386 0.464479 -1.36303 0
M  V30 744 H 68.9916 3.38413 -2.51107 0
M  V30 745 H 67.7156 2.98032 -1.33583 0
M  V30 746 H 66.3746 1.86727 -3.15481 0
M  V30 747 H 66.0226 4.28723 -2.6307 0
M  V30 748 H 65.7226 3.94659 -4.35337 0
M  V30 749 H 67.2466 4.7349 -3.85538 0
M  V30 750 H 68.6606 2.78083 -5.01341 0
M  V30 751 H 67.0576 2.2227 -5.57419 0
M  V30 752 H 68.1276 1.09331 -4.72414 0
M  V30 753 N 69.4707 1.49531 0.497807 0
M  V30 754 C 70.4337 1.65916 1.58128 0
M  V30 755 C 71.4337 0.530825 1.51786 0
M  V30 756 O 72.6237 0.797342 1.54881 0
M  V30 757 C 69.7557 1.65951 2.9778 0
M  V30 758 H 70.9487 2.62556 1.44929 0
M  V30 759 H 68.5017 1.38611 0.722275 0
M  V30 760 H 69.2367 0.709065 3.16453 0
M  V30 761 H 69.0217 2.47897 3.03792 0
M  V30 762 H 70.5117 1.80673 3.76493 0
M  V30 763 N 70.9488 -0.749086 1.3866 0
M  V30 764 C 72.1948 -1.50959 1.36319 0
M  V30 765 C 72.5498 -1.92347 -0.0452451 0
M  V30 766 O 71.8428 -1.6289 -1.00884 0
M  V30 767 C 72.0368 -2.7712 2.25697 0
M  V30 768 C 71.8658 -2.48067 3.7509 0
M  V30 769 C 70.6358 -2.41062 4.44091 0
M  V30 770 C 72.8338 -2.14544 4.67414 0
M  V30 771 N 70.8158 -2.04331 5.78897 0
M  V30 772 C 72.1868 -1.88141 5.90765 0
M  V30 773 C 74.2418 -2.00892 4.55573 0
M  V30 774 C 72.9448 -1.49463 7.036 0
M  V30 775 C 74.9708 -1.63616 5.68317 0
M  V30 776 C 74.3328 -1.38088 6.90732 0
M  V30 777 H 70.4318 -0.551804 0.554108 0
M  V30 778 H 73.0158 -0.871886 1.74087 0
M  V30 779 H 71.1868 -3.38693 1.9011 0
M  V30 780 H 72.9188 -3.4321 2.1445 0
M  V30 781 H 69.6738 -2.57685 3.9736 0
M  V30 782 H 70.0978 -1.88598 6.502 0
M  V30 783 H 74.7398 -2.19301 3.61479 0
M  V30 784 H 72.4578 -1.29794 7.97608 0
M  V30 785 H 76.0438 -1.53678 5.61137 0
M  V30 786 H 74.9238 -1.09674 7.76493 0
M  V30 787 N 72.4269 -1.23603 -0.977757 0
M  V30 788 C 73.3569 -1.04401 -2.0886 0
M  V30 789 C 74.3379 0.0399052 -1.70053 0
M  V30 790 O 75.5229 -0.125246 -1.93796 0
M  V30 791 C 72.6529 -0.637269 -3.41403 0
M  V30 792 C 71.6069 -1.66883 -3.94124 0
M  V30 793 C 70.9329 -1.11745 -5.22893 0
M  V30 794 C 72.2329 -3.06247 -4.23096 0
M  V30 795 H 73.9269 -1.97316 -2.25182 0
M  V30 796 H 71.4729 -0.950096 -1.08209 0
M  V30 797 H 73.4259 -0.48998 -4.18542 0
M  V30 798 H 72.1499 0.327557 -3.24953 0
M  V30 799 H 70.8089 -1.80416 -3.19133 0
M  V30 800 H 70.4569 -0.143527 -5.02795 0
M  V30 801 H 70.1569 -1.80672 -5.59134 0
M  V30 802 H 71.6809 -0.982067 -6.02651 0
M  V30 803 H 73.0949 -2.96001 -4.90975 0
M  V30 804 H 71.4919 -3.72436 -4.70544 0
M  V30 805 H 72.5619 -3.55041 -3.30263 0
M  V30 806 N 73.905 1.17692 -1.04816 0
M  V30 807 C 75.153 1.87488 -0.754497 0
M  V30 808 C 75.474 1.81205 0.720407 0
M  V30 809 O 74.744 1.23544 1.52032 0
M  V30 810 H 73.324 0.694101 -0.276102 0
M  V30 811 H 75.986 1.42793 -1.32651 0
M  V30 812 H 75.082 2.93328 -1.06606 0
M  V30 813 N 75.3831 0.828654 1.34056 0
M  V30 814 C 76.2931 0.256725 2.33191 0
M  V30 815 C 77.3091 -0.611898 1.62886 0
M  V30 816 O 78.4851 -0.51844 1.94613 0
M  V30 817 C 75.5501 -0.567238 3.42028 0
M  V30 818 C 74.6111 0.324458 4.28072 0
M  V30 819 C 73.8441 -0.460274 5.31712 0
M  V30 820 O 74.0671 -1.693 5.44696 0
M  V30 821 O 73.0011 0.160391 6.01686 0
M  V30 822 H 76.8271 1.07739 2.83947 0
M  V30 823 H 74.4121 0.59093 1.37217 0
M  V30 824 H 76.2941 -1.03582 4.08471 0
M  V30 825 H 74.9691 -1.36513 2.93506 0
M  V30 826 H 73.8761 0.840659 3.64532 0
M  V30 827 H 75.2091 1.08685 4.8005 0
M  V30 828 N 76.8612 -1.46375 0.584142 0
M  V30 829 C 77.7912 -2.33103 -0.136037 0
M  V30 830 C 78.7722 -1.45431 -0.882255 0
M  V30 831 O 79.9572 -1.74246 -0.857434 0
M  V30 832 C 77.0872 -3.27731 -1.14933 0
M  V30 833 C 76.0412 -4.24855 -0.517862 0
M  V30 834 C 75.3672 -5.09001 -1.63773 0
M  V30 835 C 76.6672 -5.19439 0.545886 0
M  V30 836 H 78.3612 -2.93568 0.588086 0
M  V30 837 H 75.9072 -1.41166 0.284259 0
M  V30 838 H 77.8602 -3.87261 -1.66153 0
M  V30 839 H 76.5842 -2.65377 -1.90375 0
M  V30 840 H 75.2432 -3.6659 -0.0267361 0
M  V30 841 H 74.8912 -4.43031 -2.38185 0
M  V30 842 H 74.5912 -5.74777 -1.22085 0
M  V30 843 H 76.1152 -5.71396 -2.15266 0
M  V30 844 H 77.5292 -5.73177 0.118704 0
M  V30 845 H 75.9262 -5.93566 0.88317 0
M  V30 846 H 76.9962 -4.63285 1.43162 0
M  V30 847 N 78.3393 -0.321999 -1.54275 0
M  V30 848 C 79.2713 0.578671 -2.21775 0
M  V30 849 C 80.2843 1.08109 -1.21722 0
M  V30 850 O 81.4733 0.994938 -1.482 0
M  V30 851 C 78.5733 1.80661 -2.86731 0
M  V30 852 C 77.7463 1.44314 -4.12907 0
M  V30 853 C 76.8053 2.52845 -4.61472 0
M  V30 854 O 75.8313 2.17054 -5.2619 0
M  V30 855 N 77.0333 3.83748 -4.35566 0
M  V30 856 H 79.7983 0.000709447 -2.997 0
M  V30 857 H 77.3593 -0.145132 -1.61248 0
M  V30 858 H 79.3513 2.52655 -3.16145 0
M  V30 859 H 77.9213 2.29245 -2.12521 0
M  V30 860 H 77.1413 0.554906 -3.90275 0
M  V30 861 H 78.4293 1.17598 -4.95023 0
M  V30 862 H 77.8273 4.15625 -3.83761 0
M  V30 863 H 76.3843 4.51977 -4.69638 0
M  V30 864 N 79.8174 1.5752 -0.0501392 0
M  V30 865 C 81.0454 1.96963 0.633492 0
M  V30 866 C 81.4604 0.927631 1.6444 0
M  V30 867 O 80.8174 -0.0882665 1.82286 0
M  V30 868 C 80.8684 3.36487 1.32132 0
M  V30 869 O 80.5894 4.36693 0.350894 0
M  V30 870 C 82.0904 3.90682 2.09481 0
M  V30 871 H 79.3104 0.648244 0.173266 0
M  V30 872 H 81.8544 2.0417 -0.116134 0
M  V30 873 H 80.0094 3.30434 2.02218 0
M  V30 874 H 80.4234 5.17702 0.841735 0
M  V30 875 H 81.8974 4.90591 2.5303 0
M  V30 876 H 82.3744 3.26053 2.94255 0
M  V30 877 H 82.9804 4.00069 1.44307 0
M  V30 878 N 81.2955 -0.223234 1.56011 0
M  V30 879 C 82.2455 -1.28008 1.88674 0
M  V30 880 C 83.2295 -1.42369 0.749663 0
M  V30 881 O 84.4215 -1.45212 1.01205 0
M  V30 882 C 81.5505 -2.63084 2.20548 0
M  V30 883 C 80.6365 -2.52632 3.40643 0
M  V30 884 N 81.0275 -2.11829 4.59306 0
M  V30 885 C 79.3255 -2.83594 3.44224 0
M  V30 886 C 80.0265 -2.12587 5.41463 0
M  V30 887 N 79.0025 -2.5301 4.81131 0
M  V30 888 H 82.8045 -0.955487 2.77935 0
M  V30 889 H 80.3185 -0.431801 1.56554 0
M  V30 890 H 82.3155 -3.39385 2.42122 0
M  V30 891 H 80.9755 -2.96391 1.32599 0
M  V30 892 H 81.9865 -1.82988 4.84496 0
M  V30 893 H 78.6635 -3.21284 2.66614 0
M  V30 894 H 80.0535 -1.83179 6.46448 0
M  V30 895 N 82.7736 -1.49793 -0.48987 0
M  V30 896 C 83.9986 -1.63836 -1.27172 0
M  V30 897 C 84.4236 -0.31402 -1.8546 0
M  V30 898 O 83.7816 0.719803 -1.66399 0
M  V30 899 C 83.8296 -2.71797 -2.36978 0
M  V30 900 O 82.9336 -2.31744 -3.41128 0
M  V30 901 H 82.2746 -0.547997 -0.37496 0
M  V30 902 H 84.8046 -1.96053 -0.585191 0
M  V30 903 H 84.8146 -2.94305 -2.82575 0
M  V30 904 H 83.4896 -3.67923 -1.93921 0
M  V30 905 H 82.0666 -2.1961 -3.01373 0
M  V30 906 N 84.2517 0.741722 -1.39055 0
M  V30 907 C 85.4977 1.50234 -1.37118 0
M  V30 908 C 85.8527 1.92368 0.0350439 0
M  V30 909 O 85.1457 1.63422 1.00019 0
M  V30 910 C 85.3397 2.7592 -2.27163 0
M  V30 911 C 85.1687 2.46074 -3.76401 0
M  V30 912 C 83.9387 2.38704 -4.45364 0
M  V30 913 C 86.1367 2.12062 -4.68545 0
M  V30 914 N 84.1187 2.01258 -5.79973 0
M  V30 915 C 85.4897 1.85005 -5.91754 0
M  V30 916 C 87.5447 1.98473 -4.56632 0
M  V30 917 C 86.2477 1.4573 -7.04383 0
M  V30 918 C 88.2737 1.60599 -5.69176 0
M  V30 919 C 87.6357 1.34423 -6.91455 0
M  V30 920 H 83.7347 0.548858 -0.557027 0
M  V30 921 H 86.3187 0.862642 -1.74547 0
M  V30 922 H 84.4897 3.3768 -1.91904 0
M  V30 923 H 86.2217 3.42068 -2.16267 0
M  V30 924 H 82.9767 2.55574 -3.98721 0
M  V30 925 H 83.4007 1.85147 -6.51191 0
M  V30 926 H 88.0427 2.17381 -3.62637 0
M  V30 927 H 85.7607 1.25562 -7.98286 0
M  V30 928 H 89.3467 1.507 -5.61944 0
M  V30 929 H 88.2267 1.05555 -7.77064 0
M  V30 930 N 85.7298 1.2412 0.971189 0
M  V30 931 C 86.9548 1.10667 1.75407 0
M  V30 932 C 87.3798 -0.337048 1.85056 0
M  V30 933 O 86.7378 -1.24396 1.31892 0
M  V30 934 C 86.7858 1.74726 3.15441 0
M  V30 935 O 85.8898 1.01566 3.99697 0
M  V30 936 H 85.2308 0.387341 0.539317 0
M  V30 937 H 87.7608 1.64358 1.2185 0
M  V30 938 H 87.7708 1.80341 3.6598 0
M  V30 939 H 86.4458 2.79773 3.07734 0
M  V30 940 H 85.0228 1.03713 3.58187 0
M  V30 941 N 87.2079 -1.17134 1.05439 0
M  V30 942 C 88.1559 -2.23289 0.651511 0
M  V30 943 C 89.1499 -1.66186 -0.328411 0
M  V30 944 O 90.3559 -1.78949 -0.194206 0
M  V30 945 H 86.7309 -0.726938 0.192523 0
M  V30 946 H 88.7019 -2.54565 1.55689 0
M  V30 947 C 87.4509 -3.47671 0.0448436 0
M  V30 948 H 86.7739 -3.91918 0.78996 0
M  V30 949 H 88.2139 -4.2353 -0.19964 0
M  V30 950 C 86.6729 -3.14453 -1.20918 0
M  V30 951 O 87.2029 -3.29459 -2.29825 0
M  V30 952 N 85.4089 -2.68657 -1.10779 0
M  V30 953 H 84.9559 -2.56646 -0.221526 0
M  V30 954 H 84.9139 -2.46804 -1.9477 0
M  V30 955 N 88.686 -0.835752 -1.33615 0
M  V30 956 C 89.963 -0.352017 -1.92406 0
M  V30 957 C 90.343 1.16225 -1.76224 0
M  V30 958 O 89.691 1.97526 -1.14873 0
M  V30 959 C 89.901 -0.795485 -3.39813 0
M  V30 960 C 91.249 -0.801703 -4.16963 0
M  V30 961 O 92.273 -0.738889 -3.48452 0
M  V30 962 O 91.132 -0.886607 -5.3926 0
M  V30 963 H 88.226 -0.0989641 -0.821057 0
M  V30 964 H 90.772 -0.921397 -1.42507 0
M  V30 965 H 89.544 -1.83795 -3.45449 0
M  V30 966 H 89.167 -0.202505 -3.97084 0
M  V30 967 N 90.1641 1.46063 -0.591896 0
M  V30 968 C 91.3891 2.07226 -0.0850314 0
M  V30 969 C 91.8141 1.43625 1.21463 0
M  V30 970 O 91.1721 0.523305 1.73583 0
M  V30 971 C 91.2201 3.60554 0.0576567 0
M  V30 972 O 90.3241 3.97128 1.11188 0
M  V30 973 H 89.6651 0.660615 -0.0669568 0
M  V30 974 H 92.1951 1.8756 -0.81745 0
M  V30 975 H 92.2051 4.07165 0.2609 0
M  V30 976 H 90.8801 4.06235 -0.891416 0
M  V30 977 H 89.4571 3.62213 0.886356 0
M  V30 978 N 91.6422 0.330177 1.54103 0
M  V30 979 C 92.9192 -0.325007 1.92881 0
M  V30 980 C 93.2992 -1.6934 1.26045 0
M  V30 981 O 92.6472 -2.24855 0.406526 0
M  V30 982 C 92.8572 -0.410634 3.46576 0
M  V30 983 C 94.2052 -0.667801 4.19316 0
M  V30 984 O 95.2292 -0.49329 3.52768 0
M  V30 985 O 94.0882 -1.00491 5.37181 0
M  V30 986 H 91.1822 -0.186873 0.80561 0
M  V30 987 H 93.7282 0.380376 1.65382 0
M  V30 988 H 92.5002 0.550164 3.87413 0
M  V30 989 H 92.1232 -1.16333 3.802 0
M  V30 990 N 93.1203 -1.57491 0.0584922 0
M  V30 991 C 94.3483 -1.97296 -0.623037 0
M  V30 992 C 94.7633 -0.936338 -1.63946 0
M  V30 993 O 94.1203 0.0785981 -1.82331 0
M  V30 994 C 94.1713 -3.37183 -1.30345 0
M  V30 995 O 93.8923 -4.36872 -0.32773 0
M  V30 996 C 95.3933 -3.91788 -2.07406 0
M  V30 997 H 92.6133 -0.649153 -0.169826 0
M  V30 998 H 95.1573 -2.04106 0.12696 0
M  V30 999 H 93.3123 -3.31502 -2.00463 0
M  V30 1000 H 93.7263 -5.18141 -0.814269 0
M  V30 1001 H 95.2003 -4.91926 -2.50425 0
M  V30 1002 H 95.6773 -3.27609 -2.92521 0
M  V30 1003 H 96.2833 -4.00829 -1.42184 0
M  V30 1004 N 94.5984 0.214957 -1.56127 0
M  V30 1005 C 95.8444 0.939762 -1.79712 0
M  V30 1006 C 96.1774 1.83723 -0.629247 0
M  V30 1007 O 95.4524 1.90925 0.371197 0
M  V30 1008 C 95.7354 1.77306 -3.13424 0
M  V30 1009 C 95.5884 0.90164 -4.40671 0
M  V30 1010 C 96.9074 2.74956 -3.43638 0
M  V30 1011 H 94.0264 0.340214 -0.653776 0
M  V30 1012 H 96.6684 0.20824 -1.88855 0
M  V30 1013 H 94.8184 2.39673 -3.0576 0
M  V30 1014 H 96.4904 0.294206 -4.60361 0
M  V30 1015 H 94.7334 0.207368 -4.33304 0
M  V30 1016 H 95.4044 1.51923 -5.30682 0
M  V30 1017 H 97.8804 2.22724 -3.51473 0
M  V30 1018 H 96.7564 3.30358 -4.38355 0
M  V30 1019 H 97.0174 3.53023 -2.66134 0
M  V30 1020 N 96.0765 1.50051 0.48192 0
M  V30 1021 C 97.4925 1.37237 0.814756 0
M  V30 1022 C 97.6925 0.420109 1.97072 0
M  V30 1023 O 96.7485 -0.141246 2.52105 0
M  V30 1024 C 98.0615 2.78375 1.13701 0
M  V30 1025 C 99.6095 2.87213 1.2441 0
M  V30 1026 C 100.084 4.29161 1.59954 0
M  V30 1027 N 101.575 4.32061 1.66967 0
M  V30 1028 C 102.31 5.38879 1.95952 0
M  V30 1029 N 101.806 6.55918 2.23031 0
M  V30 1030 N 103.599 5.26312 1.97363 0
M  V30 1031 H 95.7505 2.10546 -0.28005 0
M  V30 1032 H 98.0135 0.945921 -0.0627454 0
M  V30 1033 H 97.7195 3.49845 0.360787 0
M  V30 1034 H 97.5935 3.14941 2.07586 0
M  V30 1035 H 99.9805 2.15969 2.01101 0
M  V30 1036 H 100.061 2.54204 0.285299 0
M  V30 1037 H 99.7055 5.00938 0.838067 0
M  V30 1038 H 99.6355 4.59648 2.56966 0
M  V30 1039 H 102.126 3.47661 1.48123 0
M  V30 1040 H 102.439 7.33139 2.44391 0
M  V30 1041 H 100.784 6.59112 2.20447 0
M  V30 1042 H 103.975 4.33876 1.75697 0
M  V30 1043 H 104.148 6.09649 2.19618 0
M  V30 1044 N 97.5546 -0.734337 1.39446 0
M  V30 1045 C 98.7796 -1.52866 1.40167 0
M  V30 1046 C 99.2046 -1.881 -0.00171513 0
M  V30 1047 O 98.5626 -1.51957 -0.988879 0
M  V30 1048 C 98.6106 -2.79235 2.28167 0
M  V30 1049 O 97.7146 -3.75185 1.71201 0
M  V30 1050 H 97.0556 -0.461618 0.477289 0
M  V30 1051 H 99.5856 -0.905949 1.8345 0
M  V30 1052 H 99.5956 -3.27963 2.42702 0
M  V30 1053 H 98.2706 -2.52923 3.30156 0
M  V30 1054 H 96.8476 -3.33958 1.65912 0
M  V30 1055 N 99.0327 -1.24633 -0.964593 0
M  V30 1056 C 99.9627 -1.06611 -2.07741 0
M  V30 1057 C 100.944 0.0218666 -1.70086 0
M  V30 1058 O 102.129 -0.145793 -1.93652 0
M  V30 1059 C 99.2587 -0.673444 -3.40708 0
M  V30 1060 C 98.2127 -1.71054 -3.92332 0
M  V30 1061 C 97.5387 -1.17285 -5.21678 0
M  V30 1062 C 98.8387 -3.10718 -4.19824 0
M  V30 1063 H 100.533 -1.99693 -2.23076 0
M  V30 1064 H 98.0787 -0.96152 -1.07195 0
M  V30 1065 H 100.032 -0.534345 -4.17998 0
M  V30 1066 H 98.7557 0.293073 -3.25282 0
M  V30 1067 H 97.4147 -1.83791 -3.17201 0
M  V30 1068 H 97.0627 -0.196847 -5.02615 0
M  V30 1069 H 96.7627 -1.86592 -5.57187 0
M  V30 1070 H 98.2867 -1.04593 -6.01575 0
M  V30 1071 H 99.7007 -3.01192 -4.87808 0
M  V30 1072 H 98.0977 -3.77406 -4.66567 0
M  V30 1073 H 99.1677 -3.58524 -3.26479 0
M  V30 1074 N 100.511 1.16574 -1.06058 0
M  V30 1075 C 101.458 2.20883 -0.669263 0
M  V30 1076 C 102.428 1.62729 0.332918 0
M  V30 1077 O 103.613 1.895 0.222346 0
M  V30 1078 C 100.753 3.45049 -0.0593572 0
M  V30 1079 C 99.8658 4.17458 -1.11143 0
M  V30 1080 C 99.0008 5.29135 -0.467916 0
M  V30 1081 C 98.0398 5.93343 -1.50369 0
M  V30 1082 N 97.1768 6.96516 -0.883706 0
M  V30 1083 H 102.017 2.53709 -1.5632 0
M  V30 1084 H 99.5538 1.24616 -0.781625 0
M  V30 1085 H 101.512 4.16033 0.311771 0
M  V30 1086 H 100.142 3.12781 0.797992 0
M  V30 1087 H 99.1938 3.45101 -1.60029 0
M  V30 1088 H 100.506 4.61307 -1.89731 0
M  V30 1089 H 99.6598 6.06684 -0.0436871 0
M  V30 1090 H 98.3988 4.86443 0.349864 0
M  V30 1091 H 97.4038 5.14517 -1.93784 0
M  V30 1092 H 98.6288 6.38114 -2.32352 0
M  V30 1093 H 96.5748 6.55943 -0.086595 0
M  V30 1094 H 96.4918 7.38723 -1.607 0
M  V30 1095 H 97.7598 7.77993 -0.484543 0
M  V30 1096 N 101.989 0.842826 1.3317 0
M  V30 1097 C 103.4 0.496651 1.79973 0
M  V30 1098 C 103.751 -0.984641 1.69703 0
M  V30 1099 O 102.876 -1.76743 1.24863 0
M  V30 1100 C 103.471 0.894727 3.26772 0
M  V30 1101 C 102.03 0.600629 3.71577 0
M  V30 1102 C 101.177 1.10091 2.5451 0
M  V30 1103 H 104.128 1.03116 1.20635 0
M  V30 1104 H 104.149 0.206347 3.7994 0
M  V30 1105 H 103.661 1.97287 3.34215 0
M  V30 1106 H 101.762 -0.467284 3.69658 0
M  V30 1107 H 101.875 1.15863 4.64879 0
M  V30 1108 H 100.239 0.52162 2.49301 0
M  V30 1109 H 101.022 2.18591 2.64713 0
M  V30 1110 N 103.467 -1.45747 0.599634 0
M  V30 1111 C 104.713 -2.03153 0.100263 0
M  V30 1112 C 105.068 -1.46073 -1.25221 0
M  V30 1113 O 104.361 -0.622878 -1.81193 0
M  V30 1114 C 104.555 -3.57399 -0.00602758 0
M  V30 1115 C 104.384 -4.2944 1.3346 0
M  V30 1116 C 103.154 -4.6768 1.91321 0
M  V30 1117 C 105.352 -4.61905 2.2616 0
M  V30 1118 N 103.334 -5.24544 3.18946 0
M  V30 1119 C 104.705 -5.19518 3.3838 0
M  V30 1120 C 106.76 -4.43841 2.25631 0
M  V30 1121 C 105.463 -5.60972 4.50226 0
M  V30 1122 C 107.489 -4.86322 3.36518 0
M  V30 1123 C 106.851 -5.44021 4.4746 0
M  V30 1124 H 102.95 -0.777911 0.0798696 0
M  V30 1125 H 105.534 -1.77674 0.796244 0
M  V30 1126 H 103.705 -3.82556 -0.671212 0
M  V30 1127 H 105.437 -4.01457 -0.51133 0
M  V30 1128 H 102.192 -4.5098 1.44617 0
M  V30 1129 H 102.616 -5.57483 3.84112 0
M  V30 1130 H 107.258 -3.98552 1.41123 0
M  V30 1131 H 104.976 -6.0523 5.35464 0
M  V30 1132 H 108.562 -4.74084 3.37247 0
M  V30 1133 H 107.442 -5.76289 5.31846 0
M  V30 1134 N 104.945 -0.338344 -1.53925 0
M  V30 1135 C 106.17 0.263987 -2.05713 0
M  V30 1136 C 106.595 1.43847 -1.21201 0
M  V30 1137 O 105.953 1.79904 -0.224535 0
M  V30 1138 C 106.001 0.662 -3.54471 0
M  V30 1139 O 105.105 1.76265 -3.72833 0
M  V30 1140 H 104.446 0.0448722 -0.662482 0
M  V30 1141 H 106.976 -0.491048 -1.9862 0
M  V30 1142 H 106.986 0.940594 -3.9701 0
M  V30 1143 H 105.661 -0.196937 -4.15433 0
M  V30 1144 H 104.238 1.48173 -3.42198 0
M  V30 1145 N 106.423 1.57458 -0.0668435 0
M  V30 1146 C 107.355 2.09413 0.931601 0
M  V30 1147 C 108.368 1.02522 1.26464 0
M  V30 1148 O 109.557 1.30049 1.22269 0
M  V30 1149 C 106.657 2.53537 2.24882 0
M  V30 1150 C 105.83 3.83944 2.09537 0
M  V30 1151 C 104.889 4.14214 3.2452 0
M  V30 1152 O 103.915 4.83891 2.9973 0
M  V30 1153 N 105.117 3.67367 4.49469 0
M  V30 1154 H 107.882 2.95699 0.488048 0
M  V30 1155 H 105.443 1.61462 0.119009 0
M  V30 1156 H 107.435 2.70853 3.00701 0
M  V30 1157 H 106.005 1.72415 2.60753 0
M  V30 1158 H 105.225 3.76057 1.18215 0
M  V30 1159 H 106.513 4.69312 1.96529 0
M  V30 1160 H 105.911 3.11068 4.72497 0
M  V30 1161 H 104.468 3.89891 5.2233 0
M  V30 1162 N 107.901 -0.206675 1.56239 0
M  V30 1163 C 109.149 -0.927007 1.79586 0
M  V30 1164 C 109.47 -1.8427 0.637929 0
M  V30 1165 O 108.74 -1.92849 -0.344398 0
M  V30 1166 H 107.32 -0.345292 0.662407 0
M  V30 1167 H 109.982 -0.21496 1.93711 0
M  V30 1168 H 109.078 -1.52501 2.72305 0
M  V30 1169 N 109.379 -1.50304 -0.473955 0
M  V30 1170 C 110.607 -1.64902 -1.24959 0
M  V30 1171 C 111.022 -0.331198 -1.85872 0
M  V30 1172 O 110.379 0.68652 -1.69095 0
M  V30 1173 C 110.43 -2.73803 -2.36038 0
M  V30 1174 O 110.151 -4.00477 -1.77624 0
M  V30 1175 C 111.652 -2.99349 -3.26964 0
M  V30 1176 H 108.872 -0.554383 -0.378022 0
M  V30 1177 H 111.416 -1.9651 -0.566054 0
M  V30 1178 H 109.571 -2.44898 -3.00173 0
M  V30 1179 H 109.985 -4.60678 -2.5075 0
M  V30 1180 H 111.459 -3.79217 -4.01121 0
M  V30 1181 H 111.936 -2.10307 -3.85574 0
M  V30 1182 H 112.542 -3.29774 -2.68569 0
M  V30 1183 N 110.857 0.726932 -1.39834 0
M  V30 1184 C 112.104 1.48664 -1.37496 0
M  V30 1185 C 112.432 1.94482 0.0264678 0
M  V30 1186 O 111.687 1.67692 1.00886 0
M  V30 1187 C 111.986 2.73495 -2.30077 0
M  V30 1188 C 111.652 2.46502 -3.77555 0
M  V30 1189 C 110.314 2.3885 -4.17737 0
M  V30 1190 C 112.666 2.23604 -4.70798 0
M  V30 1191 C 109.994 2.06352 -5.49214 0
M  V30 1192 C 112.346 1.92622 -6.02561 0
M  V30 1193 C 111.01 1.83444 -6.41798 0
M  V30 1194 H 110.28 0.544001 -0.503135 0
M  V30 1195 H 112.927 0.833657 -1.72402 0
M  V30 1196 H 111.232 3.43575 -1.88317 0
M  V30 1197 H 112.929 3.31549 -2.25558 0
M  V30 1198 H 109.519 2.5334 -3.45712 0
M  V30 1199 H 113.703 2.28479 -4.40581 0
M  V30 1200 H 108.959 1.97776 -5.78528 0
M  V30 1201 H 113.133 1.73914 -6.74334 0
M  V30 1202 H 110.76 1.58029 -7.43593 0
M  V30 1203 N 112.336 1.25143 0.95797 0
M  V30 1204 C 113.561 1.12521 1.74223 0
M  V30 1205 C 113.986 -0.317402 1.85403 0
M  V30 1206 O 113.344 -1.2299 1.33204 0
M  V30 1207 C 113.392 1.78062 3.1357 0
M  V30 1208 O 112.496 1.058 3.98598 0
M  V30 1209 H 111.837 0.39304 0.535178 0
M  V30 1210 H 114.367 1.65641 1.201 0
M  V30 1211 H 114.377 1.84213 3.64046 0
M  V30 1212 H 113.052 2.83021 3.04749 0
M  V30 1213 H 111.629 1.07506 3.57067 0
M  V30 1214 N 113.814 -1.1601 1.06675 0
M  V30 1215 C 115.091 -1.82679 0.699114 0
M  V30 1216 C 115.471 -1.94559 -0.819137 0
M  V30 1217 O 114.819 -1.49169 -1.73092 0
M  V30 1218 C 115.029 -3.19445 1.40555 0
M  V30 1219 C 116.377 -3.95171 1.55323 0
M  V30 1220 O 117.401 -3.28976 1.36577 0
M  V30 1221 O 116.26 -5.13833 1.86112 0
M  V30 1222 H 113.354 -0.788954 0.247951 0
M  V30 1223 H 115.9 -1.23179 1.16726 0
M  V30 1224 H 114.672 -3.05856 2.44065 0
M  V30 1225 H 114.295 -3.86625 0.927733 0
M  V30 1226 N 115.292 -0.849877 -1.32721 0
M  V30 1227 C 116.224 -0.248332 -2.27851 0
M  V30 1228 C 117.237 0.577218 -1.52224 0
M  V30 1229 O 118.426 0.402489 -1.73903 0
M  V30 1230 C 115.526 0.668107 -3.32249 0
M  V30 1231 C 114.699 -0.120534 -4.37234 0
M  V30 1232 C 113.758 0.720932 -5.21238 0
M  V30 1233 O 112.784 0.156166 -5.68986 0
M  V30 1234 N 113.986 2.03647 -5.43607 0
M  V30 1235 H 116.751 -1.06575 -2.80111 0
M  V30 1236 H 114.312 -0.709395 -1.45531 0
M  V30 1237 H 116.304 1.23627 -3.85355 0
M  V30 1238 H 114.874 1.38621 -2.80184 0
M  V30 1239 H 114.094 -0.870108 -3.84477 0
M  V30 1240 H 115.382 -0.662406 -5.0447 0
M  V30 1241 H 114.78 2.51871 -5.06535 0
M  V30 1242 H 113.337 2.55287 -5.99727 0
M  V30 1243 N 116.77 1.45427 -0.607355 0
M  V30 1244 C 117.702 2.2871 0.149752 0
M  V30 1245 C 118.715 1.39937 0.831958 0
M  V30 1246 O 119.904 1.64313 0.697385 0
M  V30 1247 C 117.004 3.15673 1.23304 0
M  V30 1248 C 116.177 4.32722 0.637996 0
M  V30 1249 C 115.236 5.00895 1.61215 0
M  V30 1250 O 114.262 5.57697 1.13854 0
M  V30 1251 N 115.464 5.00159 2.94655 0
M  V30 1252 H 118.229 2.94328 -0.564882 0
M  V30 1253 H 115.79 1.55612 -0.446823 0
M  V30 1254 H 117.782 3.58144 1.88454 0
M  V30 1255 H 116.352 2.51965 1.8502 0
M  V30 1256 H 115.572 3.93734 -0.191572 0
M  V30 1257 H 116.86 5.08321 0.220665 0
M  V30 1258 H 116.258 4.553 3.35735 0
M  V30 1259 H 114.815 5.46495 3.55228 0
M  V30 1260 N 118.248 0.346503 1.53744 0
M  V30 1261 C 119.494 -0.242135 2.01954 0
M  V30 1262 C 119.849 -1.47962 1.22984 0
M  V30 1263 O 119.142 -1.89077 0.309924 0
M  V30 1264 C 119.336 -0.605809 3.52228 0
M  V30 1265 C 119.165 0.594882 4.45748 0
M  V30 1266 C 117.935 1.1011 4.93157 0
M  V30 1267 C 120.133 1.45425 4.93311 0
M  V30 1268 N 118.115 2.26381 5.70636 0
M  V30 1269 C 119.486 2.46383 5.68942 0
M  V30 1270 C 121.541 1.47935 4.75415 0
M  V30 1271 C 120.244 3.49684 6.28581 0
M  V30 1272 C 122.27 2.50119 5.35905 0
M  V30 1273 C 121.632 3.49803 6.11406 0
M  V30 1274 H 117.731 -0.0518296 0.780281 0
M  V30 1275 H 120.315 0.486736 1.88518 0
M  V30 1276 H 118.486 -1.30378 3.65864 0
M  V30 1277 H 120.218 -1.17789 3.87179 0
M  V30 1278 H 116.973 0.668721 4.68855 0
M  V30 1279 H 117.397 2.85094 6.14044 0
M  V30 1280 H 122.039 0.722274 4.16585 0
M  V30 1281 H 119.757 4.26285 6.86518 0
M  V30 1282 H 123.343 2.52892 5.23963 0
M  V30 1283 H 122.223 4.27576 6.5738 0
M  V30 1284 N 119.726 -1.57421 0.075193 0
M  V30 1285 C 120.636 -2.1642 -0.905511 0
M  V30 1286 C 121.652 -1.12828 -1.32461 0
M  V30 1287 O 122.828 -1.45109 -1.39661 0
M  V30 1288 C 119.893 -2.71693 -2.15369 0
M  V30 1289 C 118.954 -3.90171 -1.79068 0
M  V30 1290 C 118.187 -4.42798 -2.97936 0
M  V30 1291 O 118.41 -3.94416 -4.12058 0
M  V30 1292 O 117.344 -5.34085 -2.77555 0
M  V30 1293 H 121.17 -3.00588 -0.433626 0
M  V30 1294 H 118.755 -1.48664 -0.148067 0
M  V30 1295 H 120.637 -3.07104 -2.88557 0
M  V30 1296 H 119.312 -1.90582 -2.61649 0
M  V30 1297 H 118.219 -3.59606 -1.03122 0
M  V30 1298 H 119.552 -4.72584 -1.37569 0
M  V30 1299 N 121.204 0.198386 -1.56346 0
M  V30 1300 C 122.432 0.935572 -1.84539 0
M  V30 1301 C 122.847 1.76989 -0.657281 0
M  V30 1302 O 122.204 1.78626 0.374043 0
M  V30 1303 C 122.255 1.8344 -3.11499 0
M  V30 1304 O 121.976 1.03377 -4.25728 0
M  V30 1305 C 123.477 2.68355 -3.52846 0
M  V30 1306 H 120.697 0.273126 -0.612897 0
M  V30 1307 H 123.241 0.20663 -2.03453 0
M  V30 1308 H 121.396 2.51701 -2.94492 0
M  V30 1309 H 121.81 1.64599 -4.98003 0
M  V30 1310 H 123.284 3.27085 -4.44657 0
M  V30 1311 H 123.761 3.41901 -2.75681 0
M  V30 1312 H 124.367 2.05471 -3.72373 0
M  V30 1313 N 122.682 1.50554 0.465978 0
M  V30 1314 C 123.612 1.72722 1.57128 0
M  V30 1315 C 124.593 0.576294 1.6004 0
M  V30 1316 O 125.778 0.81598 1.76225 0
M  V30 1317 C 122.908 1.82605 2.95419 0
M  V30 1318 C 121.862 2.97835 3.07373 0
M  V30 1319 C 121.188 2.92867 4.47363 0
M  V30 1320 C 122.488 4.38265 2.84114 0
M  V30 1321 H 124.182 2.65267 1.38829 0
M  V30 1322 H 121.728 1.2765 0.666441 0
M  V30 1323 H 123.681 1.96698 3.72677 0
M  V30 1324 H 122.405 0.866858 3.14886 0
M  V30 1325 H 121.064 2.83401 2.3255 0
M  V30 1326 H 120.712 1.94783 4.63755 0
M  V30 1327 H 120.412 3.70227 4.56296 0
M  V30 1328 H 121.936 3.09015 5.26633 0
M  V30 1329 H 123.35 4.53198 3.51118 0
M  V30 1330 H 121.747 5.17115 3.04487 0
M  V30 1331 H 122.817 4.50281 1.7993 0
M  V30 1332 N 124.16 -0.719506 1.40217 0
M  V30 1333 C 125.092 -1.84428 1.36084 0
M  V30 1334 C 126.105 -1.60597 0.266913 0
M  V30 1335 O 127.294 -1.70544 0.526983 0
M  V30 1336 C 124.394 -3.20757 1.094 0
M  V30 1337 C 123.567 -3.71817 2.30372 0
M  V30 1338 C 122.626 -4.86748 1.99907 0
M  V30 1339 O 121.652 -4.99603 2.72737 0
M  V30 1340 N 122.854 -5.7226 0.974635 0
M  V30 1341 H 125.619 -1.88473 2.33019 0
M  V30 1342 H 123.18 -0.900885 1.3452 0
M  V30 1343 H 125.172 -3.95235 0.870116 0
M  V30 1344 H 123.742 -3.11884 0.211452 0
M  V30 1345 H 122.962 -2.88514 2.68614 0
M  V30 1346 H 124.25 -4.02666 3.11026 0
M  V30 1347 H 123.648 -5.6448 0.371368 0
M  V30 1348 H 122.205 -6.46739 0.810656 0
M  V30 1349 N 125.638 -1.25649 -0.95132 0
M  V30 1350 C 126.588 -1.03004 -2.03406 0
M  V30 1351 C 127.572 0.034187 -1.60864 0
M  V30 1352 O 128.764 -0.181549 -1.76066 0
M  V30 1353 C 125.893 -0.654255 -3.37008 0
M  V30 1354 C 124.979 -1.75542 -3.86065 0
M  V30 1355 N 125.37 -2.99113 -4.07879 0
M  V30 1356 C 123.668 -1.63669 -4.14884 0
M  V30 1357 C 124.369 -3.70611 -4.48356 0
M  V30 1358 N 123.345 -2.98247 -4.54477 0
M  V30 1359 H 127.147 -1.96813 -2.1827 0
M  V30 1360 H 124.661 -1.16017 -1.13639 0
M  V30 1361 H 126.658 -0.473206 -4.14206 0
M  V30 1362 H 125.318 0.276468 -3.23521 0
M  V30 1363 H 126.329 -3.35124 -3.94857 0
M  V30 1364 H 123.006 -0.775161 -4.10241 0
M  V30 1365 H 124.396 -4.76695 -4.73509 0
M  V30 1366 N 127.117 1.15442 -1.07289 0
M  V30 1367 C 128.366 1.85557 -0.790669 0
M  V30 1368 C 128.679 1.83186 0.685739 0
M  V30 1369 O 129.885 2.48977 1.0827 0
M  V30 1370 C 128.341 3.33038 -1.36433 0
M  V30 1371 C 127.949 3.43856 -2.8717 0
M  V30 1372 C 129.693 4.0834 -1.1601 0
M  V30 1373 C 127.6 4.85482 -3.3773 0
M  V30 1374 H 126.53 0.695122 -0.292098 0
M  V30 1375 H 129.181 1.30219 -1.29287 0
M  V30 1376 H 127.563 3.88043 -0.789864 0
M  V30 1377 H 128.737 2.98961 -3.50655 0
M  V30 1378 H 127.052 2.81998 -3.06376 0
M  V30 1379 H 129.649 5.12859 -1.51262 0
M  V30 1380 H 129.992 4.16182 -0.0991007 0
M  V30 1381 H 130.525 3.59603 -1.70089 0
M  V30 1382 H 127.264 4.82823 -4.43353 0
M  V30 1383 H 126.784 5.30961 -2.78999 0
M  V30 1384 H 128.463 5.54335 -3.33648 0
M  V30 1385 N 128.595 0.856903 1.32268 0
M  V30 1386 C 129.842 0.461386 1.97174 0
M  V30 1387 C 130.17 -0.983491 1.67803 0
M  V30 1388 O 129.425 -1.70541 0.959903 0
M  V30 1389 C 129.724 0.649919 3.51441 0
M  V30 1390 C 129.39 2.0656 4.00804 0
M  V30 1391 C 128.052 2.45279 4.13995 0
M  V30 1392 C 130.404 2.98947 4.26943 0
M  V30 1393 C 127.732 3.75653 4.50668 0
M  V30 1394 C 130.084 4.28822 4.65075 0
M  V30 1395 C 128.748 4.67472 4.76472 0
M  V30 1396 H 128.018 0.168833 0.72151 0
M  V30 1397 H 130.665 1.08739 1.57633 0
M  V30 1398 H 128.97 -0.0593018 3.91755 0
M  V30 1399 H 130.667 0.32391 3.9969 0
M  V30 1400 H 127.257 1.75495 3.91024 0
M  V30 1401 H 131.441 2.70265 4.16258 0
M  V30 1402 H 126.697 4.05379 4.57688 0
M  V30 1403 H 130.871 5.0047 4.84255 0
M  V30 1404 H 128.498 5.68539 5.04646 0
M  V30 1405 N 130.073 -1.45103 0.615059 0
M  V30 1406 C 131.489 -1.57137 0.279322 0
M  V30 1407 C 131.689 -1.60523 -1.21797 0
M  V30 1408 O 130.745 -1.53956 -2.00134 0
M  V30 1409 C 132.058 -2.85062 0.957083 0
M  V30 1410 C 133.606 -2.98749 0.933706 0
M  V30 1411 C 134.081 -4.29455 1.59162 0
M  V30 1412 N 135.572 -4.36231 1.55746 0
M  V30 1413 C 136.307 -5.36051 2.0356 0
M  V30 1414 N 135.803 -6.42367 2.59494 0
M  V30 1415 N 137.596 -5.27456 1.94284 0
M  V30 1416 H 129.747 -1.41148 1.58717 0
M  V30 1417 H 132.01 -0.675331 0.665306 0
M  V30 1418 H 131.716 -2.88488 2.01166 0
M  V30 1419 H 131.59 -3.7407 0.48494 0
M  V30 1420 H 133.977 -2.94886 -0.112347 0
M  V30 1421 H 134.058 -2.11132 1.44419 0
M  V30 1422 H 133.702 -4.34077 2.63704 0
M  V30 1423 H 133.632 -5.15901 1.0561 0
M  V30 1424 H 136.123 -3.60011 1.14893 0
M  V30 1425 H 136.436 -7.14793 2.93752 0
M  V30 1426 H 134.781 -6.43097 2.63537 0
M  V30 1427 H 137.972 -4.43308 1.5032 0
M  V30 1428 H 138.145 -6.05099 2.3186 0
M  V30 1429 N 131.551 -0.354651 -1.53558 0
M  V30 1430 C 132.797 0.238797 -2.01389 0
M  V30 1431 C 133.13 1.49309 -1.2418 0
M  V30 1432 O 132.405 1.91638 -0.332457 0
M  V30 1433 C 132.688 0.541771 -3.56001 0
M  V30 1434 C 132.541 -0.725388 -4.43912 0
M  V30 1435 C 133.86 1.34685 -4.18984 0
M  V30 1436 H 130.979 0.0853177 -0.732045 0
M  V30 1437 H 133.621 -0.477384 -1.83905 0
M  V30 1438 H 131.771 1.15189 -3.71031 0
M  V30 1439 H 133.443 -1.36313 -4.407 0
M  V30 1440 H 131.686 -1.34801 -4.12324 0
M  V30 1441 H 132.357 -0.468505 -5.50008 0
M  V30 1442 H 134.833 0.830837 -4.07721 0
M  V30 1443 H 133.709 1.52759 -5.27215 0
M  V30 1444 H 133.97 2.35221 -3.74331 0
M  V30 1445 N 133.029 1.57378 -0.0835403 0
M  V30 1446 C 134.259 1.97975 0.590713 0
M  V30 1447 C 134.667 0.961083 1.62972 0
M  V30 1448 O 134.01 -0.0590879 1.83605 0
M  V30 1449 C 134.072 3.34915 1.3066 0
M  V30 1450 C 133.736 4.55069 0.419698 0
M  V30 1451 C 134.733 5.18868 -0.32749 0
M  V30 1452 C 132.418 5.0114 0.341137 0
M  V30 1453 C 134.412 6.27098 -1.14134 0
M  V30 1454 C 132.099 6.0924 -0.476374 0
M  V30 1455 C 133.097 6.72083 -1.21627 0
M  V30 1456 O 132.785 7.781 -2.02028 0
M  V30 1457 H 132.517 0.655818 0.163947 0
M  V30 1458 H 135.071 2.04807 -0.156021 0
M  V30 1459 H 133.301 3.24733 2.09966 0
M  V30 1460 H 134.99 3.60037 1.87424 0
M  V30 1461 H 135.756 4.84211 -0.276459 0
M  V30 1462 H 131.635 4.51996 0.90668 0
M  V30 1463 H 135.179 6.7608 -1.71935 0
M  V30 1464 H 131.076 6.43329 -0.528927 0
M  V30 1465 H 131.844 7.95034 -1.94586 0
M  V30 1466 N 134.507 -0.190092 1.56449 0
M  V30 1467 C 135.923 -0.54113 1.50146 0
M  V30 1468 C 136.123 -1.85603 0.784465 0
M  V30 1469 O 135.179 -2.5024 0.337051 0
M  V30 1470 C 136.492 -0.591241 2.9483 0
M  V30 1471 C 138.04 -0.679732 3.0553 0
M  V30 1472 C 138.515 -0.760908 4.51635 0
M  V30 1473 N 140.006 -0.824302 4.55806 0
M  V30 1474 C 140.741 -0.907365 5.66175 0
M  V30 1475 N 140.237 -0.952422 6.86222 0
M  V30 1476 N 142.03 -0.94494 5.541 0
M  V30 1477 H 134.181 0.67235 2.01478 0
M  V30 1478 H 136.444 0.240127 0.917084 0
M  V30 1479 H 136.15 0.305905 3.50367 0
M  V30 1480 H 136.024 -1.44422 3.48457 0
M  V30 1481 H 138.411 -1.56731 2.50039 0
M  V30 1482 H 138.492 0.199549 2.5502 0
M  V30 1483 H 138.136 0.122336 5.07753 0
M  V30 1484 H 138.066 -1.65606 4.99882 0
M  V30 1485 H 140.557 -0.798526 3.69367 0
M  V30 1486 H 140.87 -1.01645 7.66086 0
M  V30 1487 H 139.215 -0.921014 6.8887 0
M  V30 1488 H 142.406 -0.906612 4.59236 0
M  V30 1489 H 142.579 -1.00622 6.4014 0
M  V30 1490 N 135.985 -1.50799 -0.457987 0
M  V30 1491 C 137.21 -1.66496 -1.23668 0
M  V30 1492 C 137.635 -0.353288 -1.84752 0
M  V30 1493 O 136.993 0.684346 -1.67888 0
M  V30 1494 C 137.041 -2.76763 -2.3116 0
M  V30 1495 O 136.145 -2.38928 -3.36136 0
M  V30 1496 H 135.486 -0.555828 -0.363252 0
M  V30 1497 H 138.016 -1.9725 -0.543474 0
M  V30 1498 H 138.026 -3.00232 -2.76269 0
M  V30 1499 H 136.701 -3.71954 -1.86073 0
M  V30 1500 H 135.278 -2.25953 -2.96647 0
M  V30 1501 N 137.463 0.71206 -1.40597 0
M  V30 1502 C 138.688 1.50617 -1.42581 0
M  V30 1503 C 139.113 1.88079 -0.0282102 0
M  V30 1504 O 138.471 1.53511 0.964579 0
M  V30 1505 C 138.519 2.7557 -2.3258 0
M  V30 1506 O 137.623 3.72414 -1.77148 0
M  V30 1507 H 136.964 0.453966 -0.484573 0
M  V30 1508 H 139.494 0.876649 -1.84868 0
M  V30 1509 H 139.504 3.2406 -2.47889 0
M  V30 1510 H 138.179 2.47639 -3.34138 0
M  V30 1511 H 136.756 3.31276 -1.71204 0
M  V30 1512 N 138.941 1.26152 0.944643 0
M  V30 1513 C 140.188 1.11492 1.69044 0
M  V30 1514 C 140.516 -0.342366 1.91463 0
M  V30 1515 O 139.771 -1.26812 1.49054 0
M  V30 1516 C 140.07 1.82541 3.07268 0
M  V30 1517 C 139.736 3.32445 3.04616 0
M  V30 1518 C 138.398 3.73337 3.036 0
M  V30 1519 C 140.75 4.28171 2.97185 0
M  V30 1520 C 138.078 5.08348 2.92915 0
M  V30 1521 C 140.43 5.63218 2.88041 0
M  V30 1522 C 139.094 6.03426 2.85366 0
M  V30 1523 H 138.364 0.407977 0.618576 0
M  V30 1524 H 141.011 1.56551 1.10291 0
M  V30 1525 H 139.316 1.29941 3.69625 0
M  V30 1526 H 141.013 1.68642 3.63815 0
M  V30 1527 H 137.603 2.99915 3.06185 0
M  V30 1528 H 141.787 3.97563 2.97081 0
M  V30 1529 H 137.043 5.38667 2.89219 0
M  V30 1530 H 141.217 6.37078 2.81254 0
M  V30 1531 H 138.844 7.07999 2.76842 0
M  V30 1532 N 140.419 -1.14872 1.07899 0
M  V30 1533 C 141.647 -1.89661 0.82683 0
M  V30 1534 C 142.062 -1.78312 -0.620519 0
M  V30 1535 O 141.419 -1.13888 -1.42604 0
M  V30 1536 C 141.47 -3.39817 1.23316 0
M  V30 1537 O 141.191 -3.50845 2.62372 0
M  V30 1538 C 142.692 -4.31615 1.0111 0
M  V30 1539 H 139.912 -0.60092 0.298557 0
M  V30 1540 H 142.456 -1.4551 1.43691 0
M  V30 1541 H 140.611 -3.8161 0.667286 0
M  V30 1542 H 141.025 -4.44076 2.79101 0
M  V30 1543 H 142.499 -5.35367 1.34486 0
M  V30 1544 H 142.976 -4.39169 -0.0522168 0
M  V30 1545 H 143.582 -3.95572 1.56215 0
M  V30 1546 N 141.898 -0.863906 -1.31812 0
M  V30 1547 C 143.314 -0.555004 -1.49639 0
M  V30 1548 C 143.514 0.912266 -1.79666 0
M  V30 1549 O 142.57 1.69479 -1.87171 0
M  V30 1550 C 143.883 -1.44998 -2.63431 0
M  V30 1551 C 145.431 -1.45138 -2.77316 0
M  V30 1552 C 145.906 -2.33179 -3.94197 0
M  V30 1553 N 147.397 -2.31025 -4.01474 0
M  V30 1554 C 148.132 -2.95871 -4.9117 0
M  V30 1555 N 147.628 -3.69863 -5.8581 0
M  V30 1556 N 149.421 -2.85211 -4.84367 0
M  V30 1557 H 141.572 -1.81339 -1.10589 0
M  V30 1558 H 143.835 -0.77505 -0.545895 0
M  V30 1559 H 143.541 -2.49377 -2.48 0
M  V30 1560 H 143.415 -1.14409 -3.59431 0
M  V30 1561 H 145.802 -0.415201 -2.92164 0
M  V30 1562 H 145.883 -1.79747 -1.82001 0
M  V30 1563 H 145.527 -3.3687 -3.80107 0
M  V30 1564 H 145.457 -1.95897 -4.88807 0
M  V30 1565 H 147.948 -1.77238 -3.33759 0
M  V30 1566 H 148.261 -4.16486 -6.50968 0
M  V30 1567 H 146.606 -3.73971 -5.85808 0
M  V30 1568 H 149.797 -2.26948 -4.09405 0
M  V30 1569 H 149.97 -3.36027 -5.54066 0
M  V30 1570 N 143.376 1.44774 -0.622745 0
M  V30 1571 C 144.653 1.95522 -0.0551974 0
M  V30 1572 C 145.033 1.5649 1.41683 0
M  V30 1573 O 144.381 0.834848 2.12703 0
M  V30 1574 C 144.591 3.4796 -0.269242 0
M  V30 1575 C 145.939 4.24306 -0.158014 0
M  V30 1576 O 146.963 3.55637 -0.200162 0
M  V30 1577 O 145.822 5.46471 -0.0558693 0
M  V30 1578 H 142.916 0.826556 0.0271015 0
M  V30 1579 H 145.462 1.54866 -0.693864 0
M  V30 1580 H 144.234 3.6939 -1.29099 0
M  V30 1581 H 143.857 3.95543 0.403966 0
M  V30 1582 N 144.854 0.36279 1.53368 0
M  V30 1583 C 146.1 -0.228113 2.01513 0
M  V30 1584 C 146.433 -1.48648 1.2497 0
M  V30 1585 O 145.708 -1.91459 0.342616 0
M  V30 1586 C 145.991 -0.522884 3.56284 0
M  V30 1587 C 145.844 0.74892 4.43521 0
M  V30 1588 C 147.163 -1.32461 4.19693 0
M  V30 1589 H 144.282 -0.0814343 0.732487 0
M  V30 1590 H 146.924 0.48713 1.83649 0
M  V30 1591 H 145.074 -1.1322 3.71636 0
M  V30 1592 H 146.746 1.38648 4.39971 0
M  V30 1593 H 144.989 1.36986 4.11603 0
M  V30 1594 H 145.66 0.497667 5.49752 0
M  V30 1595 H 148.136 -0.809203 4.08156 0
M  V30 1596 H 147.012 -1.49961 5.28018 0
M  V30 1597 H 147.273 -2.33232 3.75573 0
M  V30 1598 N 146.332 -1.57332 0.0918853 0
M  V30 1599 C 147.279 -2.13847 -0.868211 0
M  V30 1600 C 148.249 -1.05618 -1.28196 0
M  V30 1601 O 149.434 -1.33387 -1.36427 0
M  V30 1602 C 146.574 -2.72062 -2.12312 0
M  V30 1603 C 145.687 -3.94514 -1.7602 0
M  V30 1604 C 144.822 -4.40903 -2.96273 0
M  V30 1605 C 143.861 -5.55953 -2.56092 0
M  V30 1606 N 142.998 -5.97209 -3.69169 0
M  V30 1607 H 147.838 -2.95575 -0.379406 0
M  V30 1608 H 145.375 -1.46048 -0.175606 0
M  V30 1609 H 147.333 -3.03931 -2.858 0
M  V30 1610 H 145.963 -1.93068 -2.58698 0
M  V30 1611 H 145.015 -3.68979 -0.925135 0
M  V30 1612 H 146.327 -4.7802 -1.42472 0
M  V30 1613 H 145.481 -4.74539 -3.78018 0
M  V30 1614 H 144.22 -3.56291 -3.33029 0
M  V30 1615 H 143.225 -5.21948 -1.72773 0
M  V30 1616 H 144.45 -6.42311 -2.20484 0
M  V30 1617 H 142.396 -5.15543 -4.05649 0
M  V30 1618 H 142.313 -6.75504 -3.39456 0
M  V30 1619 H 143.581 -6.35475 -4.51434 0
M  V30 1620 N 147.81 0.181792 -1.56548 0
M  V30 1621 C 148.72 1.24538 -1.98815 0
M  V30 1622 C 149.736 1.49045 -0.897861 0
M  V30 1623 O 150.912 1.61399 -1.20467 0
M  V30 1624 C 147.977 2.56683 -2.33055 0
M  V30 1625 C 147.038 2.40131 -3.55859 0
M  V30 1626 C 146.271 3.65975 -3.88456 0
M  V30 1627 O 146.494 4.70711 -3.22161 0
M  V30 1628 O 145.428 3.6071 -4.81842 0
M  V30 1629 H 149.254 0.916647 -2.89536 0
M  V30 1630 H 146.839 0.387842 -1.44278 0
M  V30 1631 H 148.721 3.34655 -2.56094 0
M  V30 1632 H 147.396 2.89157 -1.45498 0
M  V30 1633 H 146.303 1.60226 -3.38051 0
M  V30 1634 H 147.636 2.12585 -4.43924 0
M  V30 1635 N 149.288 1.51039 0.449983 0
M  V30 1636 C 150.535 1.63081 1.20045 0
M  V30 1637 C 150.863 0.341024 1.91487 0
M  V30 1638 O 150.118 -0.674276 1.83717 0
M  V30 1639 C 150.417 2.77556 2.25161 0
M  V30 1640 C 150.083 4.17289 1.70823 0
M  V30 1641 C 148.745 4.55305 1.55725 0
M  V30 1642 C 151.097 5.04536 1.3074 0
M  V30 1643 C 148.425 5.78287 0.989999 0
M  V30 1644 C 150.777 6.28085 0.754482 0
M  V30 1645 C 149.441 6.64885 0.590308 0
M  V30 1646 H 148.711 0.596755 0.439277 0
M  V30 1647 H 151.358 1.85037 0.49333 0
M  V30 1648 H 149.663 2.49771 3.01863 0
M  V30 1649 H 151.36 2.84073 2.83026 0
M  V30 1650 H 147.95 3.8731 1.83546 0
M  V30 1651 H 152.134 4.75782 1.41229 0
M  V30 1652 H 147.39 6.05456 0.850451 0
M  V30 1653 H 151.564 6.95038 0.435324 0
M  V30 1654 H 149.191 7.60055 0.14862 0
M  V30 1655 N 150.766 -0.704594 1.40972 0
M  V30 1656 C 151.729 -1.80035 1.41845 0
M  V30 1657 C 152.729 -1.57774 0.310474 0
M  V30 1658 O 153.919 -1.64613 0.56992 0
M  V30 1659 C 151.051 -3.18284 1.22098 0
M  V30 1660 H 152.244 -1.80658 2.3938 0
M  V30 1661 H 149.797 -0.911329 1.26982 0
M  V30 1662 H 150.532 -3.23306 0.253672 0
M  V30 1663 H 150.317 -3.35843 2.02366 0
M  V30 1664 H 151.807 -3.98289 1.25522 0
M  V30 1665 N 152.244 -1.26651 -0.937939 0
M  V30 1666 C 153.191 -1.0849 -2.03712 0
M  V30 1667 C 154.161 0.011033 -1.66096 0
M  V30 1668 O 155.346 -0.149353 -1.90215 0
M  V30 1669 C 152.486 -0.72735 -3.37348 0
M  V30 1670 C 151.599 -1.89986 -3.87981 0
M  V30 1671 C 150.734 -1.48513 -5.10017 0
M  V30 1672 C 149.773 -2.62575 -5.5292 0
M  V30 1673 N 148.91 -2.21762 -6.66158 0
M  V30 1674 H 153.75 -2.02551 -2.18579 0
M  V30 1675 H 151.287 -1.00844 -1.07093 0
M  V30 1676 H 153.245 -0.50092 -4.14182 0
M  V30 1677 H 151.875 0.176298 -3.22318 0
M  V30 1678 H 150.927 -2.23913 -3.07518 0
M  V30 1679 H 152.239 -2.75586 -4.15757 0
M  V30 1680 H 151.393 -1.21934 -5.94321 0
M  V30 1681 H 150.132 -0.60009 -4.83994 0
M  V30 1682 H 149.137 -2.8988 -4.67172 0
M  V30 1683 H 150.362 -3.51685 -5.80943 0
M  V30 1684 H 148.308 -1.35696 -6.41812 0
M  V30 1685 H 148.225 -3.00903 -6.93537 0
M  V30 1686 H 149.493 -1.98403 -7.53828 0
M  V30 1687 N 153.722 1.14298 -1.08507 0
M  V30 1688 C 154.655 2.18447 -0.660004 0
M  V30 1689 C 155.633 1.59242 0.328749 0
M  V30 1690 O 156.817 1.87062 0.232367 0
M  V30 1691 C 153.944 3.38688 0.0290807 0
M  V30 1692 C 152.99 4.1646 -0.919982 0
M  V30 1693 S 153.823 4.77334 -2.42718 0
M  V30 1694 C 154.979 6.00931 -1.75024 0
M  V30 1695 H 155.212 2.54166 -1.54231 0
M  V30 1696 H 152.745 1.25446 -0.900149 0
M  V30 1697 H 154.703 4.08342 0.420378 0
M  V30 1698 H 153.364 3.01289 0.887895 0
M  V30 1699 H 152.557 5.02529 -0.384751 0
M  V30 1700 H 152.159 3.52414 -1.25223 0
M  V30 1701 H 154.451 6.69017 -1.06877 0
M  V30 1702 H 155.394 6.59044 -2.58971 0
M  V30 1703 H 155.802 5.51089 -1.22317 0
M  V30 1704 N 155.201 0.870884 1.31352 0
M  V30 1705 C 156.131 0.343096 2.30966 0
M  V30 1706 C 157.112 -0.566507 1.60389 0
M  V30 1707 O 158.297 -0.483336 1.88089 0
M  V30 1708 C 155.427 -0.455487 3.443 0
M  V30 1709 C 154.381 0.361103 4.26474 0
M  V30 1710 C 153.707 -0.563221 5.31725 0
M  V30 1711 C 155.007 1.59566 4.97329 0
M  V30 1712 H 156.701 1.17548 2.75359 0
M  V30 1713 H 154.247 0.566686 1.32381 0
M  V30 1714 H 156.2 -0.83525 4.13039 0
M  V30 1715 H 154.924 -1.32139 2.98675 0
M  V30 1716 H 153.583 0.722825 3.59403 0
M  V30 1717 H 153.231 -1.42643 4.82351 0
M  V30 1718 H 152.931 -0.0207409 5.87596 0
M  V30 1719 H 154.455 -0.939808 6.03324 0
M  V30 1720 H 155.869 1.28728 5.58661 0
M  V30 1721 H 154.266 2.07728 5.63 0
M  V30 1722 H 155.336 2.34798 4.24262 0
M  V30 1723 N 156.679 -1.44442 0.630414 0
M  V30 1724 C 158.095 -1.56832 0.295973 0
M  V30 1725 C 158.295 -1.61806 -1.20088 0
M  V30 1726 O 157.351 -1.5607 -1.9849 0
M  V30 1727 C 158.664 -2.84031 0.987264 0
M  V30 1728 C 160.212 -2.97742 0.96534 0
M  V30 1729 C 160.687 -4.27743 1.63708 0
M  V30 1730 N 162.178 -4.34555 1.60364 0
M  V30 1731 C 162.913 -5.33862 2.09234 0
M  V30 1732 N 162.409 -6.39578 2.66292 0
M  V30 1733 N 164.202 -5.25366 1.99867 0
M  V30 1734 H 156.353 -1.39457 1.60205 0
M  V30 1735 H 158.616 -0.668237 0.672431 0
M  V30 1736 H 158.322 -2.86338 2.04215 0
M  V30 1737 H 158.196 -3.73534 0.524588 0
M  V30 1738 H 160.583 -2.94989 -0.0810639 0
M  V30 1739 H 160.664 -2.09589 1.4665 0
M  V30 1740 H 160.308 -4.31255 2.68293 0
M  V30 1741 H 160.238 -5.14752 1.11076 0
M  V30 1742 H 162.729 -3.58772 1.18705 0
M  V30 1743 H 163.042 -7.11637 3.01317 0
M  V30 1744 H 161.387 -6.40265 2.70343 0
M  V30 1745 H 164.578 -4.41688 1.55013 0
M  V30 1746 H 164.751 -6.02606 2.38265 0
M  V30 1747 N 158.157 -0.370918 -1.53173 0
M  V30 1748 C 159.087 0.464847 -2.28826 0
M  V30 1749 C 160.068 1.07936 -1.31468 0
M  V30 1750 O 161.253 1.0956 -1.60344 0
M  V30 1751 C 158.383 1.60196 -3.08147 0
M  V30 1752 C 157.337 1.11443 -4.13237 0
M  V30 1753 C 156.663 2.3422 -4.80672 0
M  V30 1754 C 157.963 0.195384 -5.21934 0
M  V30 1755 H 159.657 -0.166329 -2.98938 0
M  V30 1756 H 157.203 -0.0814359 -1.4377 0
M  V30 1757 H 159.156 2.19332 -3.59822 0
M  V30 1758 H 157.88 2.26045 -2.35735 0
M  V30 1759 H 156.539 0.545727 -3.62515 0
M  V30 1760 H 156.187 2.98537 -4.04827 0
M  V30 1761 H 155.887 2.02269 -5.51689 0
M  V30 1762 H 157.411 2.94032 -5.35143 0
M  V30 1763 H 158.825 0.694375 -5.69079 0
M  V30 1764 H 157.222 -0.0335027 -6.00091 0
M  V30 1765 H 158.292 -0.760961 -4.78892 0
M  V30 1766 N 159.635 1.57281 -0.100228 0
M  V30 1767 C 160.86 1.99302 0.573881 0
M  V30 1768 C 161.285 0.979059 1.60611 0
M  V30 1769 O 160.643 -0.0517803 1.81226 0
M  V30 1770 C 160.691 3.40274 1.19358 0
M  V30 1771 O 159.795 3.41676 2.30935 0
M  V30 1772 H 159.136 0.647944 0.145138 0
M  V30 1773 H 161.666 2.03779 -0.183156 0
M  V30 1774 H 161.676 3.78078 1.53365 0
M  V30 1775 H 160.351 4.13594 0.437385 0
M  V30 1776 H 158.928 3.15672 1.98509 0
M  V30 1777 N 161.113 -0.173488 1.56642 0
M  V30 1778 C 162.343 -0.904781 1.85734 0
M  V30 1779 C 162.751 -1.76431 0.68328 0
M  V30 1780 O 162.094 -1.802 -0.356865 0
M  V30 1781 C 162.156 -1.83382 3.09211 0
M  V30 1782 C 161.82 -1.15411 4.42187 0
M  V30 1783 C 162.817 -0.520609 5.17287 0
M  V30 1784 C 160.502 -1.15151 4.88923 0
M  V30 1785 C 162.496 0.106412 6.37311 0
M  V30 1786 C 160.183 -0.520664 6.08878 0
M  V30 1787 C 161.181 0.107196 6.82916 0
M  V30 1788 O 160.869 0.728102 8.00596 0
M  V30 1789 H 160.601 -0.268408 0.62043 0
M  V30 1790 H 163.155 -0.179096 2.04618 0
M  V30 1791 H 161.385 -2.59976 2.86268 0
M  V30 1792 H 163.074 -2.43476 3.24768 0
M  V30 1793 H 163.84 -0.514606 4.82262 0
M  V30 1794 H 159.719 -1.62961 4.31236 0
M  V30 1795 H 163.263 0.597081 6.9504 0
M  V30 1796 H 159.16 -0.524242 6.43368 0
M  V30 1797 H 159.928 0.627138 8.16094 0
M  V30 1798 N 162.591 -1.51276 -0.441967 0
M  V30 1799 C 164.002 -1.56244 -1.02199 0
M  V30 1800 C 164.353 -0.383149 -1.92422 0
M  V30 1801 O 163.478 0.500613 -2.1053 0
M  V30 1802 C 164.073 -2.83162 -1.86024 0
M  V30 1803 C 162.632 -2.90716 -2.39084 0
M  V30 1804 C 161.779 -2.50858 -1.18175 0
M  V30 1805 H 164.73 -1.5712 -0.223416 0
M  V30 1806 H 164.751 -2.66663 -2.71425 0
M  V30 1807 H 164.263 -3.68974 -1.20331 0
M  V30 1808 H 162.364 -2.09323 -3.08244 0
M  V30 1809 H 162.477 -3.94266 -2.72198 0
M  V30 1810 H 160.841 -2.03951 -1.52565 0
M  V30 1811 H 161.624 -3.3901 -0.541001 0
M  V30 1812 N 164.069 0.697108 -1.41344 0
M  V30 1813 C 164.999 1.82353 -1.45841 0
M  V30 1814 C 165.98 1.67115 -0.317247 0
M  V30 1815 O 167.165 1.86871 -0.528474 0
M  V30 1816 C 164.295 3.20476 -1.33838 0
M  V30 1817 C 163.249 3.50415 -2.4575 0
M  V30 1818 C 162.575 4.87878 -2.18813 0
M  V30 1819 C 163.875 3.49546 -3.88091 0
M  V30 1820 H 165.569 1.78846 -2.40113 0
M  V30 1821 H 163.115 0.859028 -1.15571 0
M  V30 1822 H 165.068 3.98988 -1.35596 0
M  V30 1823 H 163.792 3.24604 -0.360498 0
M  V30 1824 H 162.451 2.74253 -2.43271 0
M  V30 1825 H 162.099 4.8863 -1.19371 0
M  V30 1826 H 161.799 5.08875 -2.93803 0
M  V30 1827 H 163.323 5.68702 -2.22284 0
M  V30 1828 H 164.737 4.18066 -3.92293 0
M  V30 1829 H 163.134 3.82075 -4.62751 0
M  V30 1830 H 164.204 2.48552 -4.16353 0
M  V30 1831 N 165.547 1.27147 0.931209 0
M  V30 1832 C 166.457 1.11372 2.06478 0
M  V30 1833 C 167.473 0.044645 1.73943 0
M  V30 1834 O 168.649 0.250417 1.99837 0
M  V30 1835 C 165.714 0.758838 3.38294 0
M  V30 1836 C 164.775 1.90841 3.84549 0
M  V30 1837 C 164.008 1.57036 5.10074 0
M  V30 1838 O 164.231 0.476645 5.68405 0
M  V30 1839 O 163.165 2.40839 5.51616 0
M  V30 1840 H 166.991 2.06493 2.22698 0
M  V30 1841 H 164.576 1.06301 1.04978 0
M  V30 1842 H 166.458 0.574098 4.17471 0
M  V30 1843 H 165.133 -0.162879 3.2329 0
M  V30 1844 H 164.04 2.14819 3.06274 0
M  V30 1845 H 165.373 2.81021 4.04089 0
M  V30 1846 N 167.025 -1.13721 1.09112 0
M  V30 1847 C 167.955 -2.21148 0.749385 0
M  V30 1848 C 168.936 -1.6792 -0.271475 0
M  V30 1849 O 170.121 -1.93693 -0.140251 0
M  V30 1850 C 167.251 -3.46905 0.165659 0
M  V30 1851 C 166.205 -4.13203 1.11567 0
M  V30 1852 C 165.531 -5.33248 0.393809 0
M  V30 1853 C 166.831 -4.60912 2.45678 0
M  V30 1854 H 168.525 -2.4999 1.64758 0
M  V30 1855 H 166.071 -1.20156 0.793626 0
M  V30 1856 H 168.024 -4.21313 -0.085466 0
M  V30 1857 H 166.748 -3.17449 -0.767714 0
M  V30 1858 H 165.407 -3.40758 1.35202 0
M  V30 1859 H 165.055 -5.00054 -0.543599 0
M  V30 1860 H 164.755 -5.78552 1.02721 0
M  V30 1861 H 166.279 -6.10413 0.150908 0
M  V30 1862 H 167.693 -5.26759 2.26269 0
M  V30 1863 H 166.09 -5.16944 3.04776 0
M  V30 1864 H 167.16 -3.75603 3.06677 0
M  V30 1865 N 168.503 -0.877838 -1.30888 0
M  V30 1866 C 169.435 -0.296607 -2.27273 0
M  V30 1867 C 170.448 0.544799 -1.53414 0
M  V30 1868 O 171.637 0.365511 -1.74718 0
M  V30 1869 C 168.737 0.597481 -3.33592 0
M  V30 1870 C 167.91 -0.213251 -4.3688 0
M  V30 1871 C 166.969 0.610208 -5.2265 0
M  V30 1872 O 165.995 0.035441 -5.69189 0
M  V30 1873 N 167.197 1.92071 -5.47804 0
M  V30 1874 H 169.962 -1.12492 -2.77787 0
M  V30 1875 H 167.523 -0.740105 -1.43993 0
M  V30 1876 H 169.515 1.15425 -3.87891 0
M  V30 1877 H 168.085 1.32647 -2.83061 0
M  V30 1878 H 167.305 -0.951466 -3.82545 0
M  V30 1879 H 168.593 -0.769262 -5.02951 0
M  V30 1880 H 167.991 2.4107 -5.11763 0
M  V30 1881 H 166.548 2.42508 -6.05007 0
M  V30 1882 N 169.982 1.44106 -0.638065 0
M  V30 1883 C 171.228 2.02277 -0.145546 0
M  V30 1884 C 171.561 1.50125 1.23191 0
M  V30 1885 O 170.836 0.688133 1.8192 0
M  V30 1886 C 171.119 3.59829 -0.139791 0
M  V30 1887 C 170.972 4.22247 -1.55008 0
M  V30 1888 C 172.291 4.36873 0.531966 0
M  V30 1889 H 169.41 0.734992 -0.0543632 0
M  V30 1890 H 172.052 1.71592 -0.815863 0
M  V30 1891 H 170.202 3.86102 0.431007 0
M  V30 1892 H 171.874 4.07057 -2.1703 0
M  V30 1893 H 170.117 3.79476 -2.10191 0
M  V30 1894 H 170.788 5.31284 -1.49804 0
M  V30 1895 H 173.264 4.16074 0.0464781 0
M  V30 1896 H 172.14 5.4657 0.505206 0
M  V30 1897 H 172.401 4.11995 1.60352 0
M  V30 1898 N 171.46 0.379036 1.52974 0
M  V30 1899 C 172.685 -0.209353 2.06341 0
M  V30 1900 C 173.11 -1.40583 1.24972 0
M  V30 1901 O 172.468 -1.79246 0.272155 0
M  V30 1902 C 172.516 -0.567786 3.56102 0
M  V30 1903 O 171.62 -1.66318 3.77375 0
M  V30 1904 H 170.961 -0.0272919 0.663439 0
M  V30 1905 H 173.491 0.543536 1.97248 0
M  V30 1906 H 173.501 -0.835003 3.99364 0
M  V30 1907 H 172.176 0.307013 4.14765 0
M  V30 1908 H 170.753 -1.39048 3.46006 0
M  V30 1909 N 172.938 -1.57226 0.108567 0
M  V30 1910 C 173.901 -2.13602 -0.831082 0
M  V30 1911 C 174.901 -1.06841 -1.20173 0
M  V30 1912 O 176.091 -1.32666 -1.12895 0
M  V30 1913 C 173.223 -2.66769 -2.12243 0
M  V30 1914 H 174.416 -2.97951 -0.341317 0
M  V30 1915 H 171.969 -1.55667 -0.14057 0
M  V30 1916 H 172.704 -1.85977 -2.65675 0
M  V30 1917 H 172.489 -3.44839 -1.86625 0
M  V30 1918 H 173.979 -3.10332 -2.79435 0
M  V30 1919 N 174.416 0.165178 -1.56732 0
M  V30 1920 C 175.664 0.879068 -1.8198 0
M  V30 1921 C 175.985 1.82514 -0.686561 0
M  V30 1922 O 175.255 1.93694 0.293146 0
M  V30 1923 H 173.835 0.327608 -0.671329 0
M  V30 1924 H 176.497 0.163526 -1.94213 0
M  V30 1925 H 175.593 1.45228 -2.76252 0
M  V30 1926 N 175.894 1.51508 0.433938 0
M  V30 1927 C 177.134 1.66006 1.19253 0
M  V30 1928 C 177.498 0.369868 1.88404 0
M  V30 1929 O 178.699 0.39066 2.65946 0
M  V30 1930 C 176.97 2.83229 2.17981 0
M  V30 1931 S 178.529 3.18075 3.02281 0
M  V30 1932 H 175.347 0.584821 0.404358 0
M  V30 1933 H 177.949 1.89425 0.48357 0
M  V30 1934 H 176.653 3.75407 1.65824 0
M  V30 1935 H 176.184 2.6201 2.93453 0
M  V30 1936 H 178.199 2.64772 4.19655 0
M  V30 1937 N 177.372 -0.689602 1.41712 0
M  V30 1938 C 178.282 -1.83314 1.46401 0
M  V30 1939 C 179.298 -1.7036 0.35405 0
M  V30 1940 O 180.474 -1.92171 0.602692 0
M  V30 1941 C 177.539 -3.19344 1.34982 0
M  V30 1942 C 176.6 -3.44363 2.56344 0
M  V30 1943 C 175.833 -4.73904 2.45461 0
M  V30 1944 O 176.056 -5.508 1.48241 0
M  V30 1945 O 174.99 -4.99839 3.35328 0
M  V30 1946 H 178.816 -1.82314 2.42889 0
M  V30 1947 H 176.401 -0.843438 1.23315 0
M  V30 1948 H 178.283 -4.00547 1.3092 0
M  V30 1949 H 176.958 -3.21014 0.41612 0
M  V30 1950 H 175.865 -2.63067 2.65982 0
M  V30 1951 H 177.198 -3.47512 3.48563 0
M  V30 1952 N 178.85 -1.27639 -0.924453 0
M  V30 1953 C 180.096 -1.14336 -1.67497 0
M  V30 1954 C 180.429 0.309465 -1.91718 0
M  V30 1955 O 179.704 1.22608 -1.50989 0
M  V30 1956 C 179.987 -1.93096 -3.0395 0
M  V30 1957 C 179.84 -3.46381 -2.8695 0
M  V30 1958 C 181.159 -1.73798 -4.0433 0
M  V30 1959 H 178.278 -0.416728 -0.607871 0
M  V30 1960 H 180.92 -1.56832 -1.07256 0
M  V30 1961 H 179.07 -1.56982 -3.55372 0
M  V30 1962 H 180.742 -3.92343 -2.42621 0
M  V30 1963 H 178.985 -3.72557 -2.22225 0
M  V30 1964 H 179.656 -3.96735 -3.83804 0
M  V30 1965 H 182.132 -2.05293 -3.61931 0
M  V30 1966 H 181.008 -2.31294 -4.97789 0
M  V30 1967 H 181.269 -0.686725 -4.36734 0
M  V30 1968 N 180.328 1.1314 -1.09713 0
M  V30 1969 C 181.278 2.16709 -0.708593 0
M  V30 1970 C 182.262 1.58471 0.278523 0
M  V30 1971 O 183.454 1.76779 0.088427 0
M  V30 1972 C 180.583 3.43039 -0.133923 0
M  V30 1973 C 179.669 4.08277 -1.14763 0
M  V30 1974 N 180.06 4.48637 -2.33577 0
M  V30 1975 C 178.358 4.34954 -0.986446 0
M  V30 1976 C 179.059 4.9952 -2.98085 0
M  V30 1977 N 178.035 4.94561 -2.25632 0
M  V30 1978 H 181.837 2.45672 -1.61315 0
M  V30 1979 H 179.351 1.29967 -0.973775 0
M  V30 1980 H 181.348 4.16583 0.162465 0
M  V30 1981 H 180.008 3.15549 0.765447 0
M  V30 1982 H 181.019 4.41246 -2.7115 0
M  V30 1983 H 177.696 4.17258 -0.142008 0
M  V30 1984 H 179.086 5.40521 -3.99108 0
M  V30 1985 N 181.806 0.884767 1.30421 0
M  V30 1986 C 183.217 0.553656 1.78302 0
M  V30 1987 C 183.568 -0.930153 1.7275 0
M  V30 1988 O 182.693 -1.72681 1.30423 0
M  V30 1989 C 183.288 0.998234 3.2376 0
M  V30 1990 C 181.847 0.71854 3.69478 0
M  V30 1991 C 180.994 1.18132 2.50879 0
M  V30 1992 H 183.945 1.06901 1.17294 0
M  V30 1993 H 183.966 0.327118 3.79091 0
M  V30 1994 H 183.478 2.0782 3.27769 0
M  V30 1995 H 181.579 -0.349444 3.70958 0
M  V30 1996 H 181.692 1.30595 4.60958 0
M  V30 1997 H 180.056 0.600669 2.47516 0
M  V30 1998 H 180.839 2.26902 2.57624 0
M  V30 1999 N 183.284 -1.43765 0.645699 0
M  V30 2000 C 184.532 -2.01499 0.155731 0
M  V30 2001 C 184.853 -1.51151 -1.232 0
M  V30 2002 O 184.123 -0.721044 -1.82148 0
M  V30 2003 H 182.703 -0.745003 0.0545817 0
M  V30 2004 H 185.365 -1.76075 0.835677 0
M  V30 2005 H 184.461 -3.1181 0.134577 0
M  V30 2006 N 184.763 -0.387143 -1.52771 0
M  V30 2007 C 185.711 0.463953 -2.27926 0
M  V30 2008 C 186.705 1.06493 -1.31741 0
M  V30 2009 O 187.911 1.00565 -1.49287 0
M  V30 2010 H 184.286 0.16837 -0.732909 0
M  V30 2011 H 186.257 -0.19141 -2.97785 0
M  V30 2012 C 185.006 1.5803 -3.09713 0
M  V30 2013 H 184.329 1.12718 -3.83581 0
M  V30 2014 H 185.769 2.15008 -3.65442 0
M  V30 2015 C 184.228 2.53509 -2.2189 0
M  V30 2016 O 184.758 3.56863 -1.84422 0
M  V30 2017 N 182.964 2.23199 -1.86093 0
M  V30 2018 H 182.511 1.39185 -2.16761 0
M  V30 2019 H 182.469 2.87333 -1.27621 0
M  V30 2020 N 186.241 1.57166 -0.116904 0
M  V30 2021 C 187.204 2.14039 0.819742 0
M  V30 2022 C 188.204 1.07477 1.19605 0
M  V30 2023 O 189.394 1.33263 1.1219 0
M  V30 2024 C 186.526 2.67891 2.10826 0
M  V30 2025 H 187.719 2.98128 0.325511 0
M  V30 2026 H 185.272 1.55739 0.132312 0
M  V30 2027 H 186.007 1.87384 2.64685 0
M  V30 2028 H 185.792 3.45823 1.84793 0
M  V30 2029 H 187.282 3.11809 2.77785 0
M  V30 2030 N 187.719 -0.156864 1.56817 0
M  V30 2031 C 188.944 -0.890331 1.87318 0
M  V30 2032 C 189.369 -1.74394 0.704855 0
M  V30 2033 O 188.727 -1.77972 -0.345786 0
M  V30 2034 C 188.775 -1.73102 3.16336 0
M  V30 2035 O 187.879 -2.83422 2.99576 0
M  V30 2036 H 187.22 -0.24857 0.615718 0
M  V30 2037 H 189.75 -0.150649 2.04045 0
M  V30 2038 H 189.76 -2.12803 3.48107 0
M  V30 2039 H 188.435 -1.10412 4.00976 0
M  V30 2040 H 187.012 -2.47199 2.7919 0
M  V30 2041 N 189.197 -1.51736 -0.425897 0
M  V30 2042 C 190.145 -1.74464 -1.53834 0
M  V30 2043 C 191.139 -0.611241 -1.57988 0
M  V30 2044 O 192.345 -0.792899 -1.61596 0
M  V30 2045 H 188.72 -0.551437 -0.511293 0
M  V30 2046 H 190.691 -2.67694 -1.31843 0
M  V30 2047 C 189.44 -1.8972 -2.91379 0
M  V30 2048 H 188.763 -2.76344 -2.88919 0
M  V30 2049 H 190.203 -2.09629 -3.68553 0
M  V30 2050 C 188.662 -0.65992 -3.30374 0
M  V30 2051 O 189.192 0.180083 -4.01296 0
M  V30 2052 N 187.398 -0.500677 -2.86254 0
M  V30 2053 H 186.945 -1.18532 -2.28709 0
M  V30 2054 H 186.903 0.325903 -3.12706 0
M  V30 2055 N 190.675 0.682077 -1.42076 0
M  V30 2056 C 191.623 1.81707 -1.45208 0
M  V30 2057 C 192.617 1.66183 -0.328591 0
M  V30 2058 O 193.823 1.7288 -0.501264 0
M  V30 2059 H 190.198 0.599014 -0.454628 0
M  V30 2060 H 192.169 1.76183 -2.40836 0
M  V30 2061 C 190.918 3.19816 -1.36428 0
M  V30 2062 H 190.241 3.32385 -2.22171 0
M  V30 2063 H 191.681 3.99272 -1.42681 0
M  V30 2064 C 190.14 3.36809 -0.078191 0
M  V30 2065 O 190.67 3.92124 0.87188 0
M  V30 2066 N 188.876 2.906 0.00229266 0
M  V30 2067 H 188.423 2.45772 -0.771616 0
M  V30 2068 H 188.381 3.02347 0.862179 0
M  V30 2069 N 192.153 1.28127 0.917671 0
M  V30 2070 C 193.4 1.15052 1.66641 0
M  V30 2071 C 193.728 -0.301677 1.92146 0
M  V30 2072 O 192.983 -1.23622 1.51711 0
M  V30 2073 C 193.282 1.89018 3.03327 0
M  V30 2074 C 192.948 3.38832 2.97496 0
M  V30 2075 C 191.61 3.79693 2.95613 0
M  V30 2076 C 193.962 4.34378 2.88036 0
M  V30 2077 C 191.29 5.14447 2.82066 0
M  V30 2078 C 193.642 5.69201 2.7603 0
M  V30 2079 C 192.306 6.09343 2.72502 0
M  V30 2080 H 191.576 0.421006 0.609783 0
M  V30 2081 H 194.223 1.58855 1.06945 0
M  V30 2082 H 192.528 1.37752 3.66785 0
M  V30 2083 H 194.225 1.76321 3.60156 0
M  V30 2084 H 190.815 3.06342 2.99754 0
M  V30 2085 H 194.999 4.03775 2.88581 0
M  V30 2086 H 190.255 5.44681 2.77728 0
M  V30 2087 H 194.429 6.42901 2.67678 0
M  V30 2088 H 192.056 7.13712 2.61762 0
M  V30 2089 N 193.631 -1.12557 1.10312 0
M  V30 2090 C 194.878 -1.84038 0.844759 0
M  V30 2091 C 195.206 -1.84026 -0.629668 0
M  V30 2092 O 194.461 -1.28026 -1.48013 0
M  V30 2093 C 194.76 -3.31462 1.33669 0
M  V30 2094 C 194.426 -3.51647 2.82232 0
M  V30 2095 C 193.088 -3.56864 3.22802 0
M  V30 2096 C 195.44 -3.58867 3.77974 0
M  V30 2097 C 192.768 -3.66844 4.57867 0
M  V30 2098 C 195.12 -3.70375 5.1284 0
M  V30 2099 C 193.784 -3.73848 5.52986 0
M  V30 2100 H 193.054 -0.673444 0.309119 0
M  V30 2101 H 195.701 -1.32824 1.37949 0
M  V30 2102 H 194.006 -3.85091 0.721949 0
M  V30 2103 H 195.703 -3.85236 1.11329 0
M  V30 2104 H 192.293 -3.48249 2.49842 0
M  V30 2105 H 196.477 -3.54107 3.47738 0
M  V30 2106 H 191.733 -3.67804 4.88396 0
M  V30 2107 H 195.907 -3.74904 5.86873 0
M  V30 2108 H 193.534 -3.81333 6.57639 0
M  V30 2109 N 195.109 -0.891671 -1.2995 0
M  V30 2110 C 196.059 -0.334811 -2.25528 0
M  V30 2111 C 197.043 0.540553 -1.51548 0
M  V30 2112 O 198.235 0.383882 -1.72787 0
M  V30 2113 C 195.364 0.44374 -3.4042 0
M  V30 2114 C 194.45 -0.44609 -4.21747 0
M  V30 2115 N 194.841 -1.54963 -4.81477 0
M  V30 2116 C 193.139 -0.242415 -4.45341 0
M  V30 2117 C 193.84 -2.10015 -5.42465 0
M  V30 2118 N 192.816 -1.39423 -5.25416 0
M  V30 2119 H 196.618 -1.17792 -2.69262 0
M  V30 2120 H 194.132 -0.741822 -1.44467 0
M  V30 2121 H 196.129 0.859362 -4.07947 0
M  V30 2122 H 194.789 1.28421 -2.98225 0
M  V30 2123 H 195.8 -1.93244 -4.80497 0
M  V30 2124 H 192.477 0.560342 -4.13723 0
M  V30 2125 H 193.867 -3.02724 -5.9984 0
M  V30 2126 N 196.587 1.43421 -0.653314 0
M  V30 2127 C 197.833 2.02111 -0.166992 0
M  V30 2128 C 198.166 1.51423 1.21592 0
M  V30 2129 O 197.441 0.707389 1.8118 0
M  V30 2130 C 197.724 3.5966 -0.177948 0
M  V30 2131 C 197.577 4.20579 -1.59478 0
M  V30 2132 C 198.896 4.37413 0.4856 0
M  V30 2133 H 196.015 0.734374 -0.0621557 0
M  V30 2134 H 198.657 1.70717 -0.834016 0
M  V30 2135 H 196.807 3.86537 0.390032 0
M  V30 2136 H 198.479 4.04732 -2.21336 0
M  V30 2137 H 196.722 3.77226 -2.14204 0
M  V30 2138 H 197.393 5.29665 -1.5543 0
M  V30 2139 H 199.869 4.161 0.00234528 0
M  V30 2140 H 198.745 5.47075 0.447207 0
M  V30 2141 H 199.006 4.13672 1.55974 0
M  V30 2142 N 198.065 0.39524 1.52563 0
M  V30 2143 C 199.028 -0.425001 2.25225 0
M  V30 2144 C 200.028 -0.985266 1.27079 0
M  V30 2145 O 201.218 -0.866332 1.5113 0
M  V30 2146 C 198.35 -1.59686 3.01186 0
M  V30 2147 H 199.543 0.211233 2.99155 0
M  V30 2148 H 197.096 0.147472 1.55603 0
M  V30 2149 H 197.831 -2.27035 2.31572 0
M  V30 2150 H 197.616 -1.20176 3.73229 0
M  V30 2151 H 199.106 -2.17743 3.5634 0
M  V30 2152 N 199.544 -1.57102 0.125237 0
M  V30 2153 C 200.791 -1.95407 -0.531248 0
M  V30 2154 C 201.119 -1.0089 -1.66287 0
M  V30 2155 O 200.374 -0.0339431 -1.95671 0
M  V30 2156 C 200.673 -3.40096 -1.09862 0
M  V30 2157 C 200.339 -4.50815 -0.0876989 0
M  V30 2158 C 199.001 -4.80824 0.19026 0
M  V30 2159 C 201.353 -5.17724 0.600902 0
M  V30 2160 C 198.681 -5.75058 1.163 0
M  V30 2161 C 201.033 -6.13005 1.56231 0
M  V30 2162 C 199.697 -6.41403 1.8482 0
M  V30 2163 H 198.967 -0.715046 -0.194397 0
M  V30 2164 H 201.614 -1.90373 0.207463 0
M  V30 2165 H 199.919 -3.41855 -1.91422 0
M  V30 2166 H 201.616 -3.6705 -1.61478 0
M  V30 2167 H 198.206 -4.27444 -0.314528 0
M  V30 2168 H 202.39 -4.94691 0.399333 0
M  V30 2169 H 197.646 -5.95362 1.39117 0
M  V30 2170 H 201.82 -6.63934 2.10153 0
M  V30 2171 H 199.447 -7.14229 2.60349 0
M  V30 2172 N 201.022 0.148545 -1.56898 0
M  V30 2173 C 201.954 1.20852 -1.9475 0
M  V30 2174 C 202.967 1.39265 -0.843152 0
M  V30 2175 O 204.156 1.38864 -1.12156 0
M  V30 2176 C 201.256 2.57362 -2.20495 0
M  V30 2177 C 200.429 2.59947 -3.51776 0
M  V30 2178 C 199.488 3.77984 -3.6608 0
M  V30 2179 O 198.514 3.62929 -4.38487 0
M  V30 2180 N 199.716 4.95375 -3.02629 0
M  V30 2181 H 202.481 0.886804 -2.86279 0
M  V30 2182 H 200.042 0.338121 -1.5833 0
M  V30 2183 H 202.034 3.34833 -2.27307 0
M  V30 2184 H 200.604 2.81832 -1.35238 0
M  V30 2185 H 199.824 1.68403 -3.56419 0
M  V30 2186 H 201.112 2.58704 -4.38121 0
M  V30 2187 H 200.51 5.10509 -2.43715 0
M  V30 2188 H 199.067 5.70627 -3.15004 0
M  V30 2189 N 202.5 1.5196 0.417844 0
M  V30 2190 C 203.748 1.65263 1.16329 0
M  V30 2191 C 204.069 0.380634 1.91249 0
M  V30 2192 O 203.339 -0.604214 1.86349 0
M  V30 2193 H 201.919 0.60912 0.432414 0
M  V30 2194 H 204.581 1.88969 0.477162 0
M  V30 2195 H 203.677 2.4896 1.88217 0
M  V30 2196 N 203.978 -0.674533 1.42435 0
M  V30 2197 C 204.925 -1.78807 1.45934 0
M  V30 2198 C 205.895 -1.63157 0.311271 0
M  V30 2199 O 207.08 -1.83707 0.515383 0
M  V30 2200 C 204.22 -3.16839 1.36773 0
M  V30 2201 C 203.333 -3.43774 2.61617 0
M  V30 2202 C 202.468 -4.71536 2.44597 0
M  V30 2203 C 201.507 -4.91505 3.64814 0
M  V30 2204 N 200.644 -6.10508 3.46734 0
M  V30 2205 H 205.484 -1.75151 2.41093 0
M  V30 2206 H 203.021 -0.85504 1.19697 0
M  V30 2207 H 204.979 -3.96606 1.29459 0
M  V30 2208 H 203.609 -3.19619 0.452089 0
M  V30 2209 H 202.661 -2.58259 2.79297 0
M  V30 2210 H 203.973 -3.54423 3.50978 0
M  V30 2211 H 203.127 -5.59393 2.3487 0
M  V30 2212 H 201.866 -4.6317 1.52726 0
M  V30 2213 H 200.871 -4.0209 3.74972 0
M  V30 2214 H 202.096 -5.01716 4.57665 0
M  V30 2215 H 200.042 -6.03315 2.5758 0
M  V30 2216 H 199.959 -6.2202 4.29682 0
M  V30 2217 H 201.227 -7.01044 3.40819 0
M  V30 2218 N 205.456 -1.28612 -0.910864 0
M  V30 2219 C 206.733 -1.06632 -1.63979 0
M  V30 2220 C 207.113 0.393351 -2.07403 0
M  V30 2221 O 206.461 1.37999 -1.82122 0
M  V30 2222 C 206.671 -2.0436 -2.8291 0
M  V30 2223 C 208.019 -2.34666 -3.5386 0
M  V30 2224 O 209.043 -2.02467 -2.93062 0
M  V30 2225 O 207.902 -2.89631 -4.63439 0
M  V30 2226 H 204.996 -0.407737 -0.7195 0
M  V30 2227 H 207.542 -1.39942 -0.959914 0
M  V30 2228 H 206.314 -3.02727 -2.47936 0
M  V30 2229 H 205.937 -1.71714 -3.58609 0
M  V30 2230 N 206.934 1.1197 -1.10907 0
M  V30 2231 C 208.183 1.82947 -0.849302 0
M  V30 2232 C 208.496 1.85275 0.627112 0
M  V30 2233 O 209.702 2.52296 1.00295 0
M  V30 2234 C 208.158 3.28529 -1.46959 0
M  V30 2235 C 207.766 3.34546 -2.97965 0
M  V30 2236 C 209.51 4.04443 -1.28942 0
M  V30 2237 C 207.417 4.74491 -3.53004 0
M  V30 2238 H 206.347 0.685477 -0.314065 0
M  V30 2239 H 208.998 1.2604 -1.33365 0
M  V30 2240 H 207.38 3.85333 -0.912917 0
M  V30 2241 H 208.554 2.87654 -3.59989 0
M  V30 2242 H 206.869 2.72108 -3.15192 0
M  V30 2243 H 209.466 5.07787 -1.67502 0
M  V30 2244 H 209.809 4.15656 -0.231456 0
M  V30 2245 H 210.342 3.5401 -1.81443 0
M  V30 2246 H 207.081 4.68474 -4.58489 0
M  V30 2247 H 206.601 5.21816 -2.9575 0
M  V30 2248 H 208.28 5.4344 -3.51115 0
M  V30 2249 N 208.412 0.89855 1.29475 0
M  V30 2250 C 209.342 0.39201 2.30186 0
M  V30 2251 C 210.323 -0.532359 1.61555 0
M  V30 2252 O 211.508 -0.443331 1.89072 0
M  V30 2253 C 208.638 -0.382353 3.45189 0
M  V30 2254 C 207.592 0.451483 4.25612 0
M  V30 2255 C 206.918 -0.450307 5.328 0
M  V30 2256 C 208.218 1.70079 4.93832 0
M  V30 2257 H 209.912 1.23362 2.72804 0
M  V30 2258 H 207.458 0.594638 1.31149 0
M  V30 2259 H 209.411 -0.747451 4.14718 0
M  V30 2260 H 208.135 -1.25774 3.01411 0
M  V30 2261 H 206.794 0.798897 3.57789 0
M  V30 2262 H 206.442 -1.32379 4.85268 0
M  V30 2263 H 206.142 0.103902 5.87508 0
M  V30 2264 H 207.666 -0.811623 6.05182 0
M  V30 2265 H 209.08 1.40549 5.55805 0
M  V30 2266 H 207.477 2.19623 5.58467 0
M  V30 2267 H 208.547 2.43744 4.19186 0
M  V30 2268 N 209.89 -1.43072 0.660911 0
M  V30 2269 C 211.115 -2.06584 0.183805 0
M  V30 2270 C 211.54 -1.49257 -1.14472 0
M  V30 2271 O 210.898 -0.605528 -1.70889 0
M  V30 2272 C 210.946 -3.60418 0.114434 0
M  V30 2273 O 210.05 -4.01981 -0.921137 0
M  V30 2274 H 209.391 -0.656669 0.0983994 0
M  V30 2275 H 211.921 -1.83447 0.906006 0
M  V30 2276 H 211.931 -4.07946 -0.0663394 0
M  V30 2277 H 210.606 -4.01519 1.08422 0
M  V30 2278 H 209.183 -3.66029 -0.71253 0
M  V30 2279 N 211.368 -0.403325 -1.52352 0
M  V30 2280 C 212.615 0.174347 -2.01748 0
M  V30 2281 C 212.943 1.45636 -1.2892 0
M  V30 2282 O 212.198 1.9193 -0.382258 0
M  V30 2283 C 212.497 0.474665 -3.54234 0
M  V30 2284 C 212.163 -0.717458 -4.45155 0
M  V30 2285 C 210.825 -1.04447 -4.69728 0
M  V30 2286 C 213.177 -1.51432 -4.98716 0
M  V30 2287 C 210.505 -2.16963 -5.45109 0
M  V30 2288 C 212.857 -2.6302 -5.75329 0
M  V30 2289 C 211.521 -2.96213 -5.98175 0
M  V30 2290 H 210.791 0.0637981 -0.738248 0
M  V30 2291 H 213.438 -0.543553 -1.83624 0
M  V30 2292 H 211.743 1.27406 -3.70506 0
M  V30 2293 H 213.44 0.934496 -3.89959 0
M  V30 2294 H 210.03 -0.452596 -4.26204 0
M  V30 2295 H 214.214 -1.27491 -4.79645 0
M  V30 2296 H 209.47 -2.43034 -5.61021 0
M  V30 2297 H 213.644 -3.25158 -6.15829 0
M  V30 2298 H 211.271 -3.83516 -6.56368 0
M  V30 2299 N 212.846 1.57033 -0.133567 0
M  V30 2300 C 213.778 2.13176 0.841944 0
M  V30 2301 C 214.791 1.07794 1.22001 0
M  V30 2302 O 215.98 1.35117 1.16643 0
M  V30 2303 C 213.08 2.62847 2.13926 0
M  V30 2304 C 212.253 3.92486 1.93064 0
M  V30 2305 C 211.312 4.27605 3.0666 0
M  V30 2306 O 210.338 4.96168 2.78937 0
M  V30 2307 N 211.54 3.861 4.33483 0
M  V30 2308 H 214.305 2.97503 0.362192 0
M  V30 2309 H 211.866 1.61821 0.05042 0
M  V30 2310 H 213.858 2.83363 2.88942 0
M  V30 2311 H 212.428 1.83319 2.53205 0
M  V30 2312 H 211.648 3.80732 1.02159 0
M  V30 2313 H 212.936 4.77225 1.76447 0
M  V30 2314 H 212.334 3.30828 4.58878 0
M  V30 2315 H 210.891 4.11694 5.05323 0
M  V30 2316 N 214.325 -0.140222 1.56975 0
M  V30 2317 C 215.573 -0.850005 1.83356 0
M  V30 2318 C 215.894 -1.81399 0.71551 0
M  V30 2319 O 215.164 -1.94136 -0.262294 0
M  V30 2320 H 213.744 -0.316886 0.676456 0
M  V30 2321 H 216.406 -0.132608 1.94448 0
M  V30 2322 H 215.502 -1.40814 2.78528 0
M  V30 2323 N 215.803 -1.52179 -0.40978 0
M  V30 2324 C 217.031 -1.70054 -1.17853 0
M  V30 2325 C 217.446 -0.409735 -1.843 0
M  V30 2326 O 216.803 0.614183 -1.71855 0
M  V30 2327 C 216.854 -2.83568 -2.24213 0
M  V30 2328 O 216.575 -4.0765 -1.60478 0
M  V30 2329 C 218.076 -3.12947 -3.13973 0
M  V30 2330 H 215.296 -0.569917 -0.354169 0
M  V30 2331 H 217.84 -1.98734 -0.482198 0
M  V30 2332 H 215.995 -2.57409 -2.89516 0
M  V30 2333 H 216.409 -4.70899 -2.30986 0
M  V30 2334 H 217.883 -3.95889 -3.84677 0
M  V30 2335 H 218.36 -2.26472 -3.76307 0
M  V30 2336 H 218.966 -3.40868 -2.5434 0
M  V30 2337 N 217.281 0.66697 -1.42791 0
M  V30 2338 C 218.506 1.46004 -1.47301 0
M  V30 2339 C 218.931 1.87894 -0.0880317 0
M  V30 2340 O 218.289 1.56502 0.915253 0
M  V30 2341 C 218.337 2.68031 -2.41229 0
M  V30 2342 O 217.441 3.6659 -1.88906 0
M  V30 2343 H 216.782 0.43832 -0.49877 0
M  V30 2344 H 219.312 0.817391 -1.87563 0
M  V30 2345 H 219.322 3.1601 -2.58073 0
M  V30 2346 H 217.997 2.36883 -3.41847 0
M  V30 2347 H 216.574 3.25661 -1.81656 0
M  V30 2348 N 218.759 1.29093 0.90403 0
M  V30 2349 C 220.005 1.17996 1.65676 0
M  V30 2350 C 220.36 -0.266816 1.90541 0
M  V30 2351 O 219.653 -1.19 1.50165 0
M  V30 2352 C 219.847 1.92224 3.01305 0
M  V30 2353 C 219.676 3.43972 2.89678 0
M  V30 2354 C 218.446 4.1332 2.90679 0
M  V30 2355 C 220.644 4.39546 2.67028 0
M  V30 2356 N 218.626 5.51463 2.69743 0
M  V30 2357 C 219.997 5.65119 2.5503 0
M  V30 2358 C 222.052 4.29359 2.52101 0
M  V30 2359 C 220.755 6.81663 2.29626 0
M  V30 2360 C 222.781 5.4565 2.28079 0
M  V30 2361 C 222.143 6.70193 2.16843 0
M  V30 2362 H 218.242 0.486759 0.612037 0
M  V30 2363 H 220.826 1.62868 1.06688 0
M  V30 2364 H 218.997 1.49773 3.58361 0
M  V30 2365 H 220.729 1.73429 3.65656 0
M  V30 2366 H 217.484 3.64984 3.01801 0
M  V30 2367 H 217.908 6.24105 2.6234 0
M  V30 2368 H 222.55 3.33769 2.59534 0
M  V30 2369 H 220.268 7.77313 2.20932 0
M  V30 2370 H 223.854 5.39664 2.1738 0
M  V30 2371 H 222.734 7.58659 1.98511 0
M  V30 2372 N 220.237 -1.11381 1.11499 0
M  V30 2373 C 221.147 -2.21019 0.786628 0
M  V30 2374 C 222.163 -1.72597 -0.220507 0
M  V30 2375 O 223.339 -2.01321 -0.0565251 0
M  V30 2376 C 220.404 -3.459 0.235333 0
M  V30 2377 C 219.465 -4.09107 1.30115 0
M  V30 2378 C 218.698 -5.28027 0.776068 0
M  V30 2379 O 218.921 -5.6904 -0.393661 0
M  V30 2380 O 217.855 -5.81835 1.54114 0
M  V30 2381 H 221.681 -2.51521 1.70209 0
M  V30 2382 H 219.266 -1.19928 0.890928 0
M  V30 2383 H 221.148 -4.21346 -0.067715 0
M  V30 2384 H 219.823 -3.17049 -0.652828 0
M  V30 2385 H 218.73 -3.35391 1.65722 0
M  V30 2386 H 220.063 -4.42139 2.16273 0
M  V30 2387 N 221.715 -0.905404 -1.28997 0
M  V30 2388 C 223.126 -0.581953 -1.77398 0
M  V30 2389 C 223.477 0.902552 -1.74208 0
M  V30 2390 O 222.602 1.70584 -1.33154 0
M  V30 2391 C 223.197 -1.04961 -3.22131 0
M  V30 2392 C 221.756 -0.777229 -3.68288 0
M  V30 2393 C 220.903 -1.22109 -2.48967 0
M  V30 2394 H 223.854 -1.08754 -1.15578 0
M  V30 2395 H 223.875 -0.387387 -3.78523 0
M  V30 2396 H 223.387 -2.13008 -3.24421 0
M  V30 2397 H 221.488 0.290383 -3.71467 0
M  V30 2398 H 221.601 -1.37911 -4.58822 0
M  V30 2399 H 219.965 -0.639971 -2.46529 0
M  V30 2400 H 220.748 -2.30972 -2.53982 0
M  V30 2401 N 223.193 1.4272 -0.668489 0
M  V30 2402 C 224.421 2.05966 -0.196348 0
M  V30 2403 C 224.836 1.50191 1.14403 0
M  V30 2404 O 224.193 0.639208 1.7094 0
M  V30 2405 C 224.244 3.61314 -0.115815 0
M  V30 2406 O 223.965 4.1502 -1.40322 0
M  V30 2407 C 225.466 4.41663 0.380579 0
M  V30 2408 H 222.686 0.663954 -0.0969829 0
M  V30 2409 H 225.23 1.82966 -0.913446 0
M  V30 2410 H 223.385 3.83448 0.551931 0
M  V30 2411 H 223.799 5.08832 -1.27243 0
M  V30 2412 H 225.273 5.5065 0.385848 0
M  V30 2413 H 225.75 4.15792 1.41471 0
M  V30 2414 H 226.356 4.24534 -0.255209 0
M  V30 2415 N 224.671 0.411399 1.52136 0
M  V30 2416 C 225.603 -0.448386 2.24771 0
M  V30 2417 C 226.616 -1.00828 1.27818 0
M  V30 2418 O 227.805 -0.906841 1.53749 0
M  V30 2419 C 224.905 -1.63636 2.96777 0
M  V30 2420 C 224.078 -1.19995 4.20618 0
M  V30 2421 C 223.137 -2.25509 4.75428 0
M  V30 2422 O 222.163 -1.86007 5.3795 0
M  V30 2423 N 223.365 -3.577 4.57199 0
M  V30 2424 H 226.13 0.174025 2.99194 0
M  V30 2425 H 223.691 0.238897 1.60128 0
M  V30 2426 H 225.683 -2.33793 3.30338 0
M  V30 2427 H 224.253 -2.16465 2.25526 0
M  V30 2428 H 223.473 -0.326421 3.92846 0
M  V30 2429 H 224.761 -0.885365 5.01038 0
M  V30 2430 H 224.159 -3.92543 4.07341 0
M  V30 2431 H 222.716 -4.23827 4.95191 0
M  V30 2432 N 226.149 -1.5696 0.141893 0
M  V30 2433 C 227.059 -2.20066 -0.812905 0
M  V30 2434 C 228.075 -1.18344 -1.27557 0
M  V30 2435 O 229.251 -1.50902 -1.33381 0
M  V30 2436 C 226.316 -2.80583 -2.03652 0
M  V30 2437 C 225.377 -3.97414 -1.62359 0
M  V30 2438 C 224.61 -4.55036 -2.78887 0
M  V30 2439 O 224.833 -4.11538 -3.94959 0
M  V30 2440 O 223.767 -5.45376 -2.54653 0
M  V30 2441 H 227.593 -3.02157 -0.305746 0
M  V30 2442 H 225.178 -1.49159 -0.0848799 0
M  V30 2443 H 227.06 -3.19067 -2.75272 0
M  V30 2444 H 225.735 -2.01508 -2.5333 0
M  V30 2445 H 224.642 -3.63656 -0.877775 0
M  V30 2446 H 225.975 -4.77994 -1.17401 0
M  V30 2447 N 227.627 0.131896 -1.57047 0
M  V30 2448 C 228.59 1.14638 -1.98471 0
M  V30 2449 C 229.59 1.35029 -0.873148 0
M  V30 2450 O 230.78 1.31764 -1.13946 0
M  V30 2451 C 227.912 2.50358 -2.31373 0
M  V30 2452 H 229.105 0.79064 -2.8929 0
M  V30 2453 H 226.658 0.375761 -1.51716 0
M  V30 2454 H 227.393 2.90876 -1.43393 0
M  V30 2455 H 227.178 2.36915 -3.12432 0
M  V30 2456 H 228.668 3.23395 -2.64207 0
M  V30 2457 N 229.106 1.52395 0.401703 0
M  V30 2458 C 230.517 1.58899 0.980202 0
M  V30 2459 C 230.868 0.434032 1.91339 0
M  V30 2460 O 229.993 -0.444619 2.11783 0
M  V30 2461 C 230.588 2.87994 1.78451 0
M  V30 2462 C 229.147 2.96953 2.31292 0
M  V30 2463 C 228.294 2.53903 1.11483 0
M  V30 2464 H 231.245 1.57657 0.18168 0
M  V30 2465 H 231.266 2.73765 2.64259 0
M  V30 2466 H 230.778 3.72035 1.10506 0
M  V30 2467 H 228.879 2.17422 3.02586 0
M  V30 2468 H 228.992 4.01344 2.61649 0
M  V30 2469 H 227.356 2.07925 1.47104 0
M  V30 2470 H 228.139 3.40326 0.450928 0
M  V30 2471 N 230.584 -0.659388 1.43143 0
M  V30 2472 C 231.514 -1.78422 1.50625 0
M  V30 2473 C 232.495 -1.66216 0.361443 0
M  V30 2474 O 233.68 -1.85404 0.577834 0
M  V30 2475 C 230.81 -3.16815 1.42287 0
M  V30 2476 C 229.764 -3.43777 2.54954 0
M  V30 2477 C 229.09 -4.81905 2.31671 0
M  V30 2478 C 230.39 -3.39134 3.97222 0
M  V30 2479 H 232.084 -1.72417 2.44771 0
M  V30 2480 H 229.63 -0.828084 1.17808 0
M  V30 2481 H 231.583 -3.95253 1.46127 0
M  V30 2482 H 230.307 -3.23534 0.446435 0
M  V30 2483 H 228.966 -2.67707 2.50457 0
M  V30 2484 H 228.614 -4.85294 1.32284 0
M  V30 2485 H 228.314 -5.00906 3.07192 0
M  V30 2486 H 229.838 -5.62609 2.37284 0
M  V30 2487 H 231.252 -4.07518 4.03239 0
M  V30 2488 H 229.649 -3.69671 4.72719 0
M  V30 2489 H 230.719 -2.37426 4.22797 0
M  V30 2490 N 232.062 -1.29571 -0.897171 0
M  V30 2491 C 233.308 -1.18873 -1.65048 0
M  V30 2492 C 233.663 0.256707 -1.9068 0
M  V30 2493 O 232.956 1.18202 -1.50794 0
M  V30 2494 C 233.15 -1.9382 -3.00281 0
M  V30 2495 C 232.979 -3.45503 -2.8785 0
M  V30 2496 C 231.749 -4.14856 -2.88483 0
M  V30 2497 C 233.947 -4.40956 -2.64693 0
M  V30 2498 N 231.929 -5.52886 -2.66815 0
M  V30 2499 C 233.3 -5.66464 -2.5203 0
M  V30 2500 C 235.355 -4.3069 -2.49821 0
M  V30 2501 C 234.058 -6.82871 -2.26008 0
M  V30 2502 C 236.084 -5.46852 -2.25182 0
M  V30 2503 C 235.446 -6.71333 -2.13286 0
M  V30 2504 H 231.545 -0.489998 -0.609447 0
M  V30 2505 H 234.129 -1.63431 -1.05822 0
M  V30 2506 H 232.3 -1.51671 -3.57562 0
M  V30 2507 H 234.032 -1.75366 -3.64731 0
M  V30 2508 H 230.787 -3.66579 -2.99861 0
M  V30 2509 H 231.211 -6.25487 -2.59027 0
M  V30 2510 H 235.853 -3.35141 -2.5776 0
M  V30 2511 H 233.571 -7.78473 -2.16806 0
M  V30 2512 H 237.157 -5.40809 -2.14515 0
M  V30 2513 H 236.037 -7.59701 -1.94485 0
M  V30 2514 N 233.54 1.10788 -1.12088 0
M  V30 2515 C 234.786 1.82942 -0.875226 0
M  V30 2516 C 235.119 1.84779 0.597538 0
M  V30 2517 O 234.394 1.30578 1.44152 0
M  V30 2518 C 234.677 3.29789 -1.44606 0
M  V30 2519 C 234.53 3.36307 -2.98693 0
M  V30 2520 C 235.849 4.26064 -1.10261 0
M  V30 2521 H 232.968 0.664195 -0.319397 0
M  V30 2522 H 235.61 1.29867 -1.38689 0
M  V30 2523 H 233.76 3.75118 -1.01089 0
M  V30 2524 H 235.432 2.99487 -3.50864 0
M  V30 2525 H 233.675 2.76318 -3.34411 0
M  V30 2526 H 234.346 4.39694 -3.33726 0
M  V30 2527 H 236.822 3.88951 -1.4784 0
M  V30 2528 H 235.698 5.27183 -1.52869 0
M  V30 2529 H 235.959 4.42098 -0.0142953 0
M  V30 2530 N 235.018 0.912232 1.28515 0
M  V30 2531 C 235.966 0.389597 2.29314 0
M  V30 2532 C 236.96 -0.517915 1.61289 0
M  V30 2533 O 238.166 -0.399328 1.75515 0
M  V30 2534 H 234.541 0.107386 0.744293 0
M  V30 2535 H 236.512 1.25286 2.70825 0
M  V30 2536 C 235.261 -0.356496 3.45868 0
M  V30 2537 H 234.584 0.332608 3.98414 0
M  V30 2538 H 236.024 -0.686851 4.184 0
M  V30 2539 C 234.483 -1.56383 2.98406 0
M  V30 2540 O 235.013 -2.66294 3.00749 0
M  V30 2541 N 233.219 -1.41029 2.54085 0
M  V30 2542 H 232.766 -0.516089 2.52377 0
M  V30 2543 H 232.724 -2.21939 2.22689 0
M  V30 2544 N 236.496 -1.42363 0.676048 0
M  V30 2545 C 237.426 -2.33497 0.0124832 0
M  V30 2546 C 238.407 -1.50748 -0.787981 0
M  V30 2547 O 239.592 -1.79346 -0.744884 0
M  V30 2548 C 236.722 -3.34377 -0.938582 0
M  V30 2549 C 235.676 -4.27289 -0.246622 0
M  V30 2550 C 235.002 -5.18386 -1.31071 0
M  V30 2551 C 236.302 -5.14916 0.875125 0
M  V30 2552 H 237.996 -2.89233 0.773593 0
M  V30 2553 H 235.542 -1.39073 0.37346 0
M  V30 2554 H 237.495 -3.97044 -1.41188 0
M  V30 2555 H 236.219 -2.76947 -1.73113 0
M  V30 2556 H 234.878 -3.66018 0.206456 0
M  V30 2557 H 234.526 -4.57282 -2.09528 0
M  V30 2558 H 234.226 -5.81378 -0.852839 0
M  V30 2559 H 235.75 -5.83929 -1.78492 0
M  V30 2560 H 237.164 -5.71262 0.482983 0
M  V30 2561 H 235.561 -5.86747 1.25887 0
M  V30 2562 H 236.631 -4.53242 1.72335 0
M  V30 2563 N 237.974 -0.419461 -1.51915 0
M  V30 2564 C 238.937 0.389116 -2.25873 0
M  V30 2565 C 239.937 0.964924 -1.28631 0
M  V30 2566 O 241.127 0.842179 -1.52489 0
M  V30 2567 C 238.259 1.54874 -3.03689 0
M  V30 2568 H 239.452 -0.258799 -2.98781 0
M  V30 2569 H 237.005 -0.172209 -1.55348 0
M  V30 2570 H 237.74 2.23323 -2.35154 0
M  V30 2571 H 237.525 1.14223 -3.75094 0
M  V30 2572 H 239.015 2.12046 -3.59759 0
M  V30 2573 N 239.452 1.56882 -0.150215 0
M  V30 2574 C 240.701 1.95403 0.500071 0
M  V30 2575 C 241.014 1.03777 1.658 0
M  V30 2576 O 242.22 1.31889 2.37313 0
M  V30 2577 C 240.676 3.4738 0.941018 0
M  V30 2578 C 240.284 4.47596 -0.190158 0
M  V30 2579 C 242.028 3.9476 1.56091 0
M  V30 2580 C 239.935 5.90787 0.269237 0
M  V30 2581 H 238.865 0.729515 0.190588 0
M  V30 2582 H 241.516 1.81988 -0.235074 0
M  V30 2583 H 239.898 3.56138 1.73152 0
M  V30 2584 H 241.072 4.50536 -0.967157 0
M  V30 2585 H 239.387 4.10151 -0.718666 0
M  V30 2586 H 241.984 4.99181 1.9163 0
M  V30 2587 H 242.327 3.36494 2.45107 0
M  V30 2588 H 242.86 3.88932 0.835249 0
M  V30 2589 H 239.599 6.52879 -0.585621 0
M  V30 2590 H 239.119 5.912 1.01204 0
M  V30 2591 H 240.798 6.42979 0.720176 0
M  V30 2592 N 240.93 -0.123565 1.57115 0
M  V30 2593 C 241.862 -1.17739 1.96648 0
M  V30 2594 C 242.875 -1.37906 0.865201 0
M  V30 2595 O 244.064 -1.37062 1.14351 0
M  V30 2596 C 241.164 -2.53821 2.24562 0
M  V30 2597 C 240.337 -2.54317 3.55867 0
M  V30 2598 C 239.396 -3.72112 3.72047 0
M  V30 2599 O 238.422 -3.55907 4.44206 0
M  V30 2600 N 239.624 -4.90498 3.10471 0
M  V30 2601 H 242.389 -0.841147 2.87654 0
M  V30 2602 H 239.95 -0.31289 1.58848 0
M  V30 2603 H 241.942 -3.31175 2.32606 0
M  V30 2604 H 240.512 -2.79645 1.39705 0
M  V30 2605 H 239.732 -1.62711 3.59053 0
M  V30 2606 H 241.02 -2.51701 4.42181 0
M  V30 2607 H 240.418 -5.06567 2.51806 0
M  V30 2608 H 238.975 -5.65544 3.24043 0
M  V30 2609 N 242.408 -1.52605 -0.393616 0
M  V30 2610 C 243.654 -1.67672 -1.14079 0
M  V30 2611 C 243.987 -0.413121 -1.89755 0
M  V30 2612 O 243.262 0.588952 -1.85369 0
M  V30 2613 C 243.545 -2.9088 -2.12276 0
M  V30 2614 C 243.398 -4.27329 -1.40394 0
M  V30 2615 C 244.717 -3.09628 -3.12759 0
M  V30 2616 H 241.836 -0.610168 -0.413356 0
M  V30 2617 H 244.478 -1.85193 -0.424696 0
M  V30 2618 H 242.628 -2.76073 -2.73342 0
M  V30 2619 H 244.3 -4.53894 -0.82327 0
M  V30 2620 H 242.543 -4.2802 -0.705801 0
M  V30 2621 H 243.214 -5.09615 -2.12123 0
M  V30 2622 H 245.69 -3.23436 -2.61779 0
M  V30 2623 H 244.566 -3.97322 -3.78717 0
M  V30 2624 H 244.827 -2.23637 -3.81365 0
M  V30 2625 N 243.887 0.651787 -1.4349 0
M  V30 2626 C 244.817 1.77621 -1.51569 0
M  V30 2627 C 245.798 1.66022 -0.370253 0
M  V30 2628 O 246.983 1.85095 -0.587658 0
M  V30 2629 C 244.113 3.16056 -1.43966 0
M  V30 2630 C 243.067 3.4242 -2.56774 0
M  V30 2631 C 242.393 4.8067 -2.34223 0
M  V30 2632 C 243.693 3.37023 -3.99015 0
M  V30 2633 H 245.387 1.71117 -2.45681 0
M  V30 2634 H 242.933 0.821825 -1.18246 0
M  V30 2635 H 244.886 3.94472 -1.48221 0
M  V30 2636 H 243.61 3.23293 -0.463586 0
M  V30 2637 H 242.269 2.66375 -2.51873 0
M  V30 2638 H 241.917 4.84585 -1.34856 0
M  V30 2639 H 241.617 4.9927 -3.09844 0
M  V30 2640 H 243.141 5.61342 -2.40265 0
M  V30 2641 H 244.555 4.05374 -4.05395 0
M  V30 2642 H 242.952 3.67159 -4.74673 0
M  V30 2643 H 244.022 2.3518 -4.2405 0
M  V30 2644 N 245.365 1.30045 0.890287 0
M  V30 2645 C 246.313 1.15873 2.01683 0
M  V30 2646 C 247.307 0.0719403 1.69247 0
M  V30 2647 O 248.513 0.232414 1.78493 0
M  V30 2648 H 244.888 0.358203 0.661207 0
M  V30 2649 H 246.859 2.11229 2.10772 0
M  V30 2650 C 245.608 0.861842 3.36849 0
M  V30 2651 H 244.931 1.69016 3.62317 0
M  V30 2652 H 246.371 0.802762 4.16331 0
M  V30 2653 C 244.83 -0.435132 3.34078 0
M  V30 2654 O 245.36 -1.4583 3.74295 0
M  V30 2655 N 243.566 -0.444377 2.87182 0
M  V30 2656 H 243.113 0.388723 2.5465 0
M  V30 2657 H 243.071 -1.31213 2.85711 0
M  V30 2658 N 246.843 -1.10192 1.12674 0
M  V30 2659 C 247.775 -2.16418 0.754701 0
M  V30 2660 C 248.788 -1.61309 -0.21986 0
M  V30 2661 O 249.977 -1.785 -0.000826841 0
M  V30 2662 C 247.077 -3.38762 0.096698 0
M  V30 2663 C 246.25 -4.23307 1.10136 0
M  V30 2664 C 245.309 -5.24092 0.470513 0
M  V30 2665 O 244.335 -5.57906 1.12824 0
M  V30 2666 N 245.537 -5.75491 -0.760948 0
M  V30 2667 H 248.302 -2.48943 1.66875 0
M  V30 2668 H 245.863 -1.25834 1.01869 0
M  V30 2669 H 247.855 -4.03291 -0.337384 0
M  V30 2670 H 246.425 -3.04192 -0.720153 0
M  V30 2671 H 245.645 -3.55036 1.71299 0
M  V30 2672 H 246.933 -4.76624 1.78064 0
M  V30 2673 H 246.331 -5.50222 -1.31424 0
M  V30 2674 H 244.888 -6.41792 -1.13781 0
M  V30 2675 N 248.321 -0.919034 -1.28029 0
M  V30 2676 C 249.598 -0.473668 -1.89778 0
M  V30 2677 C 249.978 1.04783 -1.83259 0
M  V30 2678 O 249.326 1.8982 -1.27202 0
M  V30 2679 C 249.536 -1.00998 -3.34066 0
M  V30 2680 C 250.884 -1.06525 -4.1102 0
M  V30 2681 O 251.908 -0.958996 -3.43048 0
M  V30 2682 O 250.767 -1.22776 -5.3253 0
M  V30 2683 H 247.861 -0.15098 -0.813101 0
M  V30 2684 H 250.407 -1.01016 -1.36359 0
M  V30 2685 H 249.179 -2.05392 -3.33061 0
M  V30 2686 H 248.802 -0.454626 -3.94992 0
M  V30 2687 N 249.799 1.42003 -0.683588 0
M  V30 2688 C 250.746 2.30798 -0.0107309 0
M  V30 2689 C 251.716 1.4645 0.783688 0
M  V30 2690 O 252.901 1.75263 0.754156 0
M  V30 2691 C 250.041 3.3238 0.928306 0
M  V30 2692 C 249.154 4.31814 0.126776 0
M  V30 2693 C 248.289 5.20468 1.06236 0
M  V30 2694 C 247.328 6.11577 0.253035 0
M  V30 2695 N 246.465 6.92754 1.14179 0
M  V30 2696 H 251.305 2.8778 -0.773727 0
M  V30 2697 H 248.842 1.41745 -0.393283 0
M  V30 2698 H 250.8 3.89813 1.48666 0
M  V30 2699 H 249.43 2.76976 1.65783 0
M  V30 2700 H 248.482 3.76427 -0.54833 0
M  V30 2701 H 249.794 4.96276 -0.501192 0
M  V30 2702 H 248.948 5.82677 1.69035 0
M  V30 2703 H 247.687 4.56204 1.7242 0
M  V30 2704 H 246.692 5.48428 -0.388108 0
M  V30 2705 H 247.917 6.77892 -0.404839 0
M  V30 2706 H 245.863 6.3111 1.78987 0
M  V30 2707 H 245.78 7.53855 0.569111 0
M  V30 2708 H 247.048 7.59441 1.75697 0
M  V30 2709 N 251.277 0.427512 1.51691 0
M  V30 2710 C 252.523 -0.134744 2.02953 0
M  V30 2711 C 252.878 -1.41235 1.30654 0
M  V30 2712 O 252.171 -1.87168 0.409713 0
M  V30 2713 C 252.365 -0.418249 3.54944 0
M  V30 2714 C 252.194 0.830327 4.41968 0
M  V30 2715 C 250.964 1.36097 4.86627 0
M  V30 2716 C 253.162 1.7137 4.84909 0
M  V30 2717 N 251.144 2.56311 5.57833 0
M  V30 2718 C 252.515 2.76195 5.55082 0
M  V30 2719 C 254.57 1.72928 4.66905 0
M  V30 2720 C 253.273 3.82512 6.09161 0
M  V30 2721 C 255.299 2.78175 5.21894 0
M  V30 2722 C 254.661 3.8172 5.92004 0
M  V30 2723 H 250.76 -0.0103958 0.781931 0
M  V30 2724 H 253.344 0.585981 1.85673 0
M  V30 2725 H 251.515 -1.10801 3.7226 0
M  V30 2726 H 253.247 -0.970999 3.92879 0
M  V30 2727 H 250.002 0.916311 4.64651 0
M  V30 2728 H 250.426 3.17242 5.98069 0
M  V30 2729 H 255.068 0.942081 4.12171 0
M  V30 2730 H 252.786 4.62077 6.62956 0
M  V30 2731 H 256.372 2.8031 5.09821 0
M  V30 2732 H 255.252 4.61821 6.33791 0
M  V30 2733 N 252.755 -1.56801 0.158532 0
M  V30 2734 C 253.983 -2.00859 -0.496303 0
M  V30 2735 C 254.398 -1.03871 -1.57659 0
M  V30 2736 O 253.755 -0.0375165 -1.82461 0
M  V30 2737 C 253.806 -3.4479 -1.08638 0
M  V30 2738 O 253.527 -4.38072 -0.0492322 0
M  V30 2739 C 255.028 -4.04185 -1.8207 0
M  V30 2740 H 252.248 -0.65864 -0.128199 0
M  V30 2741 H 254.792 -2.02885 0.256506 0
M  V30 2742 H 252.947 -3.43579 -1.78975 0
M  V30 2743 H 253.361 -5.2227 -0.483102 0
M  V30 2744 H 254.835 -5.06857 -2.18633 0
M  V30 2745 H 255.312 -3.45549 -2.71095 0
M  V30 2746 H 255.918 -4.0906 -1.16405 0
M  V30 2747 N 254.233 0.115231 -1.57178 0
M  V30 2748 C 255.649 0.468877 -1.52557 0
M  V30 2749 C 255.849 1.81649 -0.872125 0
M  V30 2750 O 254.905 2.48347 -0.45606 0
M  V30 2751 C 256.218 0.4499 -2.97315 0
M  V30 2752 C 257.766 0.533185 -3.08425 0
M  V30 2753 C 258.241 0.54456 -4.54751 0
M  V30 2754 N 259.732 0.605892 -4.5922 0
M  V30 2755 C 260.467 0.636203 -5.6986 0
M  V30 2756 N 259.963 0.623931 -6.89985 0
M  V30 2757 N 261.756 0.679496 -5.57978 0
M  V30 2758 H 253.907 -0.767712 -1.9804 0
M  V30 2759 H 256.17 -0.283609 -0.904583 0
M  V30 2760 H 255.876 -0.472721 -3.48509 0
M  V30 2761 H 255.75 1.27632 -3.5495 0
M  V30 2762 H 258.137 1.44623 -2.57232 0
M  V30 2763 H 258.218 -0.320995 -2.53778 0
M  V30 2764 H 257.862 -0.364452 -5.06591 0
M  V30 2765 H 257.792 1.41568 -5.07214 0
M  V30 2766 H 260.283 0.621386 -3.72756 0
M  V30 2767 H 260.596 0.649787 -7.70063 0
M  V30 2768 H 258.941 0.591296 -6.9248 0
M  V30 2769 H 262.132 0.686472 -4.63039 0
M  V30 2770 H 262.305 0.69965 -6.44212 0
M  V30 2771 N 255.711 1.52812 0.385517 0
M  V30 2772 C 256.621 1.80766 1.49535 0
M  V30 2773 C 257.637 0.694651 1.59532 0
M  V30 2774 O 258.813 0.982611 1.75803 0
M  V30 2775 C 255.878 1.97381 2.85029 0
M  V30 2776 C 254.939 3.21295 2.84724 0
M  V30 2777 C 254.172 3.37108 4.13756 0
M  V30 2778 O 254.395 2.5765 5.08893 0
M  V30 2779 O 253.329 4.30378 4.20783 0
M  V30 2780 H 257.155 2.75015 1.28842 0
M  V30 2781 H 254.74 1.37946 0.573697 0
M  V30 2782 H 256.622 2.09996 3.65349 0
M  V30 2783 H 255.297 1.06322 3.05741 0
M  V30 2784 H 254.204 3.1412 2.03174 0
M  V30 2785 H 255.537 4.12212 2.68965 0
M  V30 2786 N 257.189 -0.644168 1.43834 0
M  V30 2787 C 258.417 -1.43147 1.49387 0
M  V30 2788 C 258.832 -1.88452 0.114583 0
M  V30 2789 O 258.189 -1.60047 -0.876989 0
M  V30 2790 C 258.24 -2.66046 2.44748 0
M  V30 2791 O 257.961 -2.22633 3.77314 0
M  V30 2792 C 259.462 -3.59311 2.59635 0
M  V30 2793 H 256.682 -0.439447 0.507077 0
M  V30 2794 H 259.226 -0.78895 1.88669 0
M  V30 2795 H 257.381 -3.26418 2.08638 0
M  V30 2796 H 257.795 -3.02216 4.28679 0
M  V30 2797 H 259.269 -4.42187 3.30416 0
M  V30 2798 H 259.746 -4.07259 1.64427 0
M  V30 2799 H 260.352 -3.04816 2.96593 0
M  V30 2800 N 258.668 -1.30515 -0.883378 0
M  V30 2801 C 259.914 -1.19607 -1.63774 0
M  V30 2802 C 260.247 0.248314 -1.92606 0
M  V30 2803 O 259.522 1.17742 -1.54813 0
M  V30 2804 C 259.805 -2.02669 -2.97653 0
M  V30 2805 C 259.658 -3.55335 -2.75784 0
M  V30 2806 C 260.977 -1.86573 -3.98596 0
M  V30 2807 H 258.096 -0.435856 -0.594305 0
M  V30 2808 H 260.738 -1.60165 -1.02212 0
M  V30 2809 H 258.888 -1.68208 -3.50197 0
M  V30 2810 H 260.56 -3.99863 -2.30016 0
M  V30 2811 H 258.803 -3.79438 -2.1026 0
M  V30 2812 H 259.474 -4.08745 -3.70988 0
M  V30 2813 H 261.95 -2.16703 -3.55217 0
M  V30 2814 H 260.826 -2.47014 -4.90179 0
M  V30 2815 H 261.087 -0.825321 -4.34328 0
M  V30 2816 N 260.146 1.09593 -1.13257 0
M  V30 2817 C 261.078 2.16015 -0.766167 0
M  V30 2818 C 262.091 1.61423 0.211303 0
M  V30 2819 O 263.28 1.78498 -0.00863946 0
M  V30 2820 C 260.38 3.38706 -0.114662 0
M  V30 2821 C 259.553 4.22717 -1.12379 0
M  V30 2822 C 258.612 5.23835 -0.498301 0
M  V30 2823 O 257.638 5.573 -1.15781 0
M  V30 2824 N 258.84 5.75886 0.730417 0
M  V30 2825 H 261.605 2.48055 -1.68193 0
M  V30 2826 H 259.166 1.25292 -1.02535 0
M  V30 2827 H 261.158 4.03464 0.315991 0
M  V30 2828 H 259.728 3.04569 0.704011 0
M  V30 2829 H 258.948 3.54122 -1.73179 0
M  V30 2830 H 260.236 4.75673 -1.80589 0
M  V30 2831 H 259.634 5.50911 1.28504 0
M  V30 2832 H 258.191 6.42387 1.10376 0
M  V30 2833 N 261.624 0.925811 1.2754 0
M  V30 2834 C 262.87 0.575575 1.95086 0
M  V30 2835 C 263.225 -0.873246 1.71441 0
M  V30 2836 O 262.518 -1.61443 1.03183 0
M  V30 2837 C 262.712 0.835296 3.47502 0
M  V30 2838 C 262.541 2.30781 3.85967 0
M  V30 2839 C 261.311 2.96017 4.09514 0
M  V30 2840 C 263.509 3.28519 3.95702 0
M  V30 2841 N 261.491 4.3344 4.34744 0
M  V30 2842 C 262.862 4.51146 4.25285 0
M  V30 2843 C 264.917 3.23753 3.7827 0
M  V30 2844 C 263.62 5.69606 4.39251 0
M  V30 2845 C 265.646 4.41523 3.9346 0
M  V30 2846 C 265.008 5.62928 4.23428 0
M  V30 2847 H 261.107 0.260711 0.737261 0
M  V30 2848 H 263.691 1.19204 1.53943 0
M  V30 2849 H 261.862 0.248005 3.87607 0
M  V30 2850 H 263.594 0.447878 4.02214 0
M  V30 2851 H 260.349 2.46695 4.04275 0
M  V30 2852 H 260.773 5.04528 4.5142 0
M  V30 2853 H 265.415 2.3096 3.54143 0
M  V30 2854 H 263.133 6.62866 4.62205 0
M  V30 2855 H 266.719 4.39351 3.81394 0
M  V30 2856 H 265.599 6.52538 4.34929 0
M  V30 2857 N 263.102 -1.41638 0.69111 0
M  V30 2858 C 264.032 -2.3347 0.037248 0
M  V30 2859 C 265.013 -1.51575 -0.771947 0
M  V30 2860 O 266.198 -1.80126 -0.72582 0
M  V30 2861 C 263.328 -3.35354 -0.903064 0
M  V30 2862 C 262.282 -4.27526 -0.201288 0
M  V30 2863 C 261.608 -5.19747 -1.25565 0
M  V30 2864 C 262.908 -5.13959 0.929689 0
M  V30 2865 H 264.602 -2.88397 0.804227 0
M  V30 2866 H 262.148 -1.38669 0.388189 0
M  V30 2867 H 264.101 -3.98519 -1.36969 0
M  V30 2868 H 262.825 -2.78767 -1.70166 0
M  V30 2869 H 261.484 -3.65779 0.245265 0
M  V30 2870 H 261.132 -4.59479 -2.04666 0
M  V30 2871 H 260.832 -5.8225 -0.791128 0
M  V30 2872 H 262.356 -5.85789 -1.72288 0
M  V30 2873 H 263.77 -5.70718 0.543546 0
M  V30 2874 H 262.167 -5.85379 1.32103 0
M  V30 2875 H 263.237 -4.51389 1.77133 0
M  V30 2876 N 264.58 -0.43555 -1.51462 0
M  V30 2877 C 265.51 0.367376 -2.30592 0
M  V30 2878 C 266.491 1.02263 -1.35928 0
M  V30 2879 O 267.676 1.02661 -1.64847 0
M  V30 2880 C 264.806 1.46983 -3.14664 0
M  V30 2881 C 263.76 0.938161 -4.17591 0
M  V30 2882 C 263.086 2.13622 -4.90173 0
M  V30 2883 C 264.386 -0.0261621 -5.22293 0
M  V30 2884 H 266.08 -0.292969 -2.97963 0
M  V30 2885 H 263.626 -0.14234 -1.43295 0
M  V30 2886 H 265.579 2.03873 -3.688 0
M  V30 2887 H 264.303 2.15843 -2.4511 0
M  V30 2888 H 262.962 0.391481 -3.64504 0
M  V30 2889 H 262.61 2.81098 -4.17124 0
M  V30 2890 H 262.31 1.78688 -5.59772 0
M  V30 2891 H 263.834 2.7107 -5.47132 0
M  V30 2892 H 265.248 0.452384 -5.71512 0
M  V30 2893 H 263.645 -0.287992 -5.99409 0
M  V30 2894 H 264.715 -0.963391 -4.75233 0
M  V30 2895 N 266.058 1.56714 -0.166846 0
M  V30 2896 C 267.006 2.19056 0.782123 0
M  V30 2897 C 268 1.15328 1.24079 0
M  V30 2898 O 269.206 1.33537 1.20697 0
M  V30 2899 H 265.581 0.70167 0.270486 0
M  V30 2900 H 267.552 2.97494 0.232322 0
M  V30 2901 C 266.301 2.84206 2.00306 0
M  V30 2902 H 265.624 3.63748 1.65914 0
M  V30 2903 H 267.064 3.31302 2.64604 0
M  V30 2904 C 265.523 1.83744 2.82382 0
M  V30 2905 O 266.053 1.32014 3.79388 0
M  V30 2906 N 264.259 1.52601 2.47308 0
M  V30 2907 H 263.806 1.9486 1.68485 0
M  V30 2908 H 263.764 0.856351 3.02513 0
M  V30 2909 N 267.536 -0.106894 1.57237 0
M  V30 2910 C 268.784 -0.810921 1.85117 0
M  V30 2911 C 269.105 -1.7984 0.753827 0
M  V30 2912 O 268.375 -1.94649 -0.221056 0
M  V30 2913 H 266.955 -0.302466 0.683025 0
M  V30 2914 H 269.617 -0.0913324 1.94686 0
M  V30 2915 H 268.713 -1.34875 2.81452 0
M  V30 2916 N 269.014 -1.53014 -0.377408 0
M  V30 2917 C 270.242 -1.72515 -1.14219 0
M  V30 2918 C 270.657 -0.448735 -1.8339 0
M  V30 2919 O 270.014 0.577592 -1.73119 0
M  V30 2920 C 270.065 -2.8826 -2.18148 0
M  V30 2921 O 269.786 -4.10962 -1.51795 0
M  V30 2922 C 271.287 -3.19536 -3.07264 0
M  V30 2923 H 268.507 -0.577301 -0.342001 0
M  V30 2924 H 271.051 -1.99712 -0.439935 0
M  V30 2925 H 269.206 -2.63492 -2.83991 0
M  V30 2926 H 269.62 -4.75693 -2.20945 0
M  V30 2927 H 271.094 -4.03959 -3.76193 0
M  V30 2928 H 271.571 -2.34403 -3.71419 0
M  V30 2929 H 272.177 -3.46186 -2.47053 0
M  V30 2930 N 270.492 0.636531 -1.44174 0
M  V30 2931 C 271.732 1.40781 -1.48189 0
M  V30 2932 C 272.096 1.91688 -0.10944 0
M  V30 2933 O 273.297 2.68789 -0.0242741 0
M  V30 2934 C 271.568 2.54575 -2.50851 0
M  V30 2935 S 273.127 3.4284 -2.73873 0
M  V30 2936 H 269.945 0.480345 -0.524204 0
M  V30 2937 H 272.547 0.737416 -1.81059 0
M  V30 2938 H 271.251 2.15478 -3.49281 0
M  V30 2939 H 270.782 3.26447 -2.19536 0
M  V30 2940 H 272.797 4.51846 -2.05059 0
M  V30 2941 N 271.97 1.30982 0.876444 0
M  V30 2942 C 273.381 1.18277 1.44456 0
M  V30 2943 C 273.732 -0.213265 1.95037 0
M  V30 2944 O 272.857 -1.11057 1.85729 0
M  V30 2945 C 273.452 2.1411 2.62569 0
M  V30 2946 C 272.011 2.05358 3.15444 0
M  V30 2947 C 271.158 2.03706 1.88146 0
M  V30 2948 H 274.109 1.43127 0.685584 0
M  V30 2949 H 274.13 1.72692 3.39054 0
M  V30 2950 H 273.642 3.15706 2.25724 0
M  V30 2951 H 271.743 1.06934 3.56926 0
M  V30 2952 H 271.856 2.94156 3.78166 0
M  V30 2953 H 270.22 1.48629 2.06837 0
M  V30 2954 H 271.003 3.07047 1.53547 0
M  V30 2955 N 273.449 -1.08991 1.13837 0
M  V30 2956 C 274.381 -2.15606 0.777612 0
M  V30 2957 C 275.394 -1.61533 -0.202739 0
M  V30 2958 O 276.583 -1.78491 0.0181055 0
M  V30 2959 C 273.683 -3.3864 0.132623 0
M  V30 2960 C 272.856 -4.22115 1.1462 0
M  V30 2961 C 271.915 -5.23564 0.526074 0
M  V30 2962 O 270.941 -5.56678 1.18735 0
M  V30 2963 N 272.143 -5.76266 -0.699866 0
M  V30 2964 H 274.908 -2.47159 1.69506 0
M  V30 2965 H 272.469 -1.24747 1.03198 0
M  V30 2966 H 274.461 -4.03626 -0.29459 0
M  V30 2967 H 273.031 -3.04938 -0.687849 0
M  V30 2968 H 272.251 -3.53199 1.75055 0
M  V30 2969 H 273.539 -4.74709 1.83109 0
M  V30 2970 H 272.937 -5.51585 -1.25581 0
M  V30 2971 H 271.494 -6.42963 -1.06968 0
M  V30 2972 N 274.927 -0.932562 -1.27047 0
M  V30 2973 C 276.174 -0.575559 -1.94148 0
M  V30 2974 C 276.502 0.883984 -1.73251 0
M  V30 2975 O 275.757 1.64655 -1.0577 0
M  V30 2976 C 276.056 -0.853713 -3.47054 0
M  V30 2977 C 275.722 -2.29577 -3.88079 0
M  V30 2978 C 274.384 -2.68999 -3.9899 0
M  V30 2979 C 276.736 -3.23331 -4.08787 0
M  V30 2980 C 274.064 -4.01289 -4.28 0
M  V30 2981 C 276.416 -4.55207 -4.39282 0
M  V30 2982 C 275.08 -4.94457 -4.48407 0
M  V30 2983 H 274.35 -0.210612 -0.710439 0
M  V30 2984 H 276.997 -1.17744 -1.51025 0
M  V30 2985 H 275.302 -0.169204 -3.91434 0
M  V30 2986 H 276.999 -0.55639 -3.97121 0
M  V30 2987 H 273.589 -1.97994 -3.80127 0
M  V30 2988 H 277.773 -2.94074 -3.99793 0
M  V30 2989 H 273.029 -4.31374 -4.33275 0
M  V30 2990 H 277.203 -5.27852 -4.54252 0
M  V30 2991 H 274.83 -5.96994 -4.7064 0
M  V30 2992 N 276.405 1.4127 -0.698611 0
M  V30 2993 C 277.651 2.01478 -0.231207 0
M  V30 2994 C 277.984 1.55215 1.16713 0
M  V30 2995 O 277.259 0.764672 1.78838 0
M  V30 2996 C 277.542 3.58912 -0.292281 0
M  V30 2997 C 277.395 4.15293 -1.72778 0
M  V30 2998 C 278.714 4.38736 0.346194 0
M  V30 2999 H 275.833 0.732025 -0.0854878 0
M  V30 3000 H 278.475 1.67977 -0.887906 0
M  V30 3001 H 276.625 3.87582 0.26686 0
M  V30 3002 H 278.297 3.97486 -2.341 0
M  V30 3003 H 276.54 3.7022 -2.26096 0
M  V30 3004 H 277.211 5.24452 -1.72202 0
M  V30 3005 H 279.687 4.15897 -0.130035 0
M  V30 3006 H 278.563 5.48221 0.272932 0
M  V30 3007 H 278.824 4.18425 1.42734 0
M  V30 3008 N 277.883 0.443576 1.51229 0
M  V30 3009 C 279.108 -0.121648 2.07043 0
M  V30 3010 C 279.533 -1.35156 1.30823 0
M  V30 3011 O 278.891 -1.7793 0.347934 0
M  V30 3012 C 278.939 -0.41624 3.5819 0
M  V30 3013 O 278.043 -1.50163 3.8409 0
M  V30 3014 H 277.384 0.000871367 0.663999 0
M  V30 3015 H 279.914 0.626706 1.94765 0
M  V30 3016 H 279.924 -0.664867 4.02546 0
M  V30 3017 H 278.599 0.482653 4.1309 0
M  V30 3018 H 277.176 -1.24248 3.51592 0
M  V30 3019 N 279.361 -1.56624 0.175154 0
M  V30 3020 C 280.609 -1.96609 -0.467885 0
M  V30 3021 C 280.93 -1.06238 -1.63519 0
M  V30 3022 O 280.2 -0.129523 -1.95471 0
M  V30 3023 H 278.78 -0.726008 -0.175845 0
M  V30 3024 H 281.442 -1.93195 0.257234 0
M  V30 3025 H 280.538 -3.00989 -0.825342 0
M  V30 3026 N 280.839 0.0985539 -1.57292 0
M  V30 3027 C 281.769 1.12064 -2.04851 0
M  V30 3028 C 282.75 1.41981 -0.936767 0
M  V30 3029 O 283.935 1.52071 -1.20781 0
M  V30 3030 C 281.065 2.44144 -2.47004 0
M  V30 3031 C 280.019 2.28643 -3.6181 0
M  V30 3032 C 279.345 3.65869 -3.89929 0
M  V30 3033 C 280.645 1.72986 -4.92822 0
M  V30 3034 H 282.339 0.724979 -2.9049 0
M  V30 3035 H 279.885 0.34729 -1.39749 0
M  V30 3036 H 281.838 3.15914 -2.78884 0
M  V30 3037 H 280.562 2.85639 -1.5836 0
M  V30 3038 H 279.221 1.59318 -3.30172 0
M  V30 3039 H 278.869 4.04885 -2.98458 0
M  V30 3040 H 278.569 3.56344 -4.67218 0
M  V30 3041 H 280.093 4.39112 -4.2428 0
M  V30 3042 H 281.507 2.34593 -5.23105 0
M  V30 3043 H 279.904 1.74229 -5.74251 0
M  V30 3044 H 280.974 0.689007 -4.7998 0
M  V30 3045 N 282.317 1.53212 0.369288 0
M  V30 3046 C 283.247 1.82365 1.45826 0
M  V30 3047 C 284.228 0.676907 1.56051 0
M  V30 3048 O 285.413 0.926401 1.70679 0
M  V30 3049 C 282.543 2.01023 2.83208 0
M  V30 3050 C 281.497 3.1678 2.8781 0
M  V30 3051 C 280.823 3.20724 4.27832 0
M  V30 3052 C 282.123 4.55447 2.55667 0
M  V30 3053 H 283.817 2.73559 1.21678 0
M  V30 3054 H 281.363 1.3163 0.583911 0
M  V30 3055 H 283.316 2.20001 3.59413 0
M  V30 3056 H 282.04 1.06536 3.08736 0
M  V30 3057 H 280.699 2.97616 2.14056 0
M  V30 3058 H 280.347 2.23882 4.50429 0
M  V30 3059 H 280.047 3.98496 4.31827 0
M  V30 3060 H 281.571 3.41881 5.05915 0
M  V30 3061 H 282.985 4.74611 3.21586 0
M  V30 3062 H 281.382 5.35432 2.70984 0
M  V30 3063 H 282.452 4.60812 1.5093 0
M  V30 3064 N 283.795 -0.628877 1.44509 0
M  V30 3065 C 284.705 -1.7694 1.54044 0
M  V30 3066 C 285.721 -1.68705 0.425987 0
M  V30 3067 O 286.897 -1.89442 0.683656 0
M  V30 3068 C 283.962 -3.13332 1.48405 0
M  V30 3069 C 283.023 -3.33181 2.70719 0
M  V30 3070 C 282.256 -4.63067 2.6534 0
M  V30 3071 O 282.479 -5.44017 1.71469 0
M  V30 3072 O 281.413 -4.85167 3.56226 0
M  V30 3073 H 285.239 -1.71848 2.50403 0
M  V30 3074 H 282.824 -0.790378 1.26781 0
M  V30 3075 H 284.706 -3.94634 1.47791 0
M  V30 3076 H 283.381 -3.1896 0.551898 0
M  V30 3077 H 282.288 -2.51549 2.769 0
M  V30 3078 H 283.621 -3.32416 3.62988 0
M  V30 3079 N 285.273 -1.31445 -0.869486 0
M  V30 3080 C 286.498 -1.24256 -1.66058 0
M  V30 3081 C 286.923 0.188928 -1.87149 0
M  V30 3082 O 286.281 1.13522 -1.4136 0
M  V30 3083 C 286.329 -1.9924 -3.00559 0
M  V30 3084 O 285.433 -1.33007 -3.90362 0
M  V30 3085 H 284.774 -0.428973 -0.506831 0
M  V30 3086 H 287.304 -1.73521 -1.08404 0
M  V30 3087 H 287.314 -2.08854 -3.50491 0
M  V30 3088 H 285.989 -3.03342 -2.84528 0
M  V30 3089 H 284.566 -1.31848 -3.48813 0
M  V30 3090 N 286.751 1.08385 -1.14413 0
M  V30 3091 C 287.999 1.80419 -0.910679 0
M  V30 3092 C 288.32 1.86658 0.564243 0
M  V30 3093 O 287.59 1.35985 1.41014 0
M  V30 3094 H 286.17 0.668204 -0.333934 0
M  V30 3095 H 288.832 1.31037 -1.44275 0
M  V30 3096 H 287.928 2.83238 -1.31082 0
M  V30 3097 N 288.23 0.939286 1.26551 0
M  V30 3098 C 289.177 0.446088 2.26448 0
M  V30 3099 C 290.147 -0.493234 1.58608 0
M  V30 3100 O 291.332 -0.409857 1.86346 0
M  V30 3101 C 288.472 -0.284375 3.43926 0
M  V30 3102 C 287.585 0.690399 4.26448 0
M  V30 3103 C 286.72 -0.0610712 5.31165 0
M  V30 3104 C 285.759 0.905649 6.05363 0
M  V30 3105 N 284.896 0.186055 7.01853 0
M  V30 3106 H 289.736 1.30291 2.68008 0
M  V30 3107 H 287.273 0.65371 1.31776 0
M  V30 3108 H 289.231 -0.724313 4.10864 0
M  V30 3109 H 287.861 -1.10535 3.03285 0
M  V30 3110 H 286.913 1.24885 3.59316 0
M  V30 3111 H 288.225 1.42873 4.779 0
M  V30 3112 H 287.379 -0.56038 6.04106 0
M  V30 3113 H 286.118 -0.832297 4.80546 0
M  V30 3114 H 285.123 1.4161 5.3125 0
M  V30 3115 H 286.348 1.67685 6.58072 0
M  V30 3116 H 284.294 -0.566714 6.53548 0
M  V30 3117 H 284.211 0.863752 7.51049 0
M  V30 3118 H 285.479 -0.292221 7.78952 0
M  V30 3119 N 289.708 -1.40897 0.706093 0
M  V30 3120 C 290.933 -2.05895 0.249435 0
M  V30 3121 C 291.358 -1.52823 -1.09666 0
M  V30 3122 O 290.716 -0.659589 -1.68876 0
M  V30 3123 C 290.764 -3.59872 0.22904 0
M  V30 3124 O 289.868 -4.04708 -0.792784 0
M  V30 3125 H 289.209 -0.653206 0.119241 0
M  V30 3126 H 291.739 -1.80471 0.96391 0
M  V30 3127 H 291.749 -4.07951 0.0634791 0
M  V30 3128 H 290.424 -3.97866 1.21141 0
M  V30 3129 H 289.001 -3.68111 -0.59572 0
M  V30 3130 N 291.186 -0.45159 -1.50991 0
M  V30 3131 C 292.096 0.358431 -2.31846 0
M  V30 3132 C 293.112 1.01438 -1.41373 0
M  V30 3133 O 294.288 1.00663 -1.74439 0
M  V30 3134 C 291.353 1.43704 -3.15515 0
M  V30 3135 C 290.414 0.799742 -4.21785 0
M  V30 3136 C 289.647 1.82696 -5.01456 0
M  V30 3137 O 289.87 3.05105 -4.81941 0
M  V30 3138 O 288.804 1.40958 -5.85162 0
M  V30 3139 H 292.63 -0.302032 -3.02194 0
M  V30 3140 H 290.215 -0.213825 -1.47862 0
M  V30 3141 H 292.097 2.06227 -3.67489 0
M  V30 3142 H 290.772 2.08133 -2.47916 0
M  V30 3143 H 289.679 0.136084 -3.73852 0
M  V30 3144 H 291.012 0.198718 -4.91799 0
M  V30 3145 N 292.664 1.56529 -0.183458 0
M  V30 3146 C 293.594 2.21549 0.737456 0
M  V30 3147 C 294.575 1.17489 1.23005 0
M  V30 3148 O 295.76 1.45959 1.281 0
M  V30 3149 C 292.89 2.86575 1.96194 0
M  V30 3150 C 291.844 3.96778 1.60473 0
M  V30 3151 C 291.17 4.48911 2.90487 0
M  V30 3152 C 292.47 5.15767 0.823497 0
M  V30 3153 H 294.164 2.98761 0.195453 0
M  V30 3154 H 291.71 1.43702 0.0925686 0
M  V30 3155 H 293.663 3.30739 2.61131 0
M  V30 3156 H 292.387 2.06749 2.52828 0
M  V30 3157 H 291.046 3.53286 0.978997 0
M  V30 3158 H 290.694 3.65862 3.45186 0
M  V30 3159 H 290.394 5.23265 2.67335 0
M  V30 3160 H 291.918 4.95771 3.56432 0
M  V30 3161 H 293.332 5.56549 1.37571 0
M  V30 3162 H 291.729 5.96114 0.690551 0
M  V30 3163 H 292.799 4.84574 -0.177782 0
M  V30 3164 N 294.142 -0.090211 1.57342 0
M  V30 3165 C 295.089 -1.10909 2.02405 0
M  V30 3166 C 296.059 -1.39523 0.901252 0
M  V30 3167 O 297.244 -1.50903 1.1676 0
M  V30 3168 C 294.384 -2.42277 2.45755 0
M  V30 3169 C 293.497 -2.20352 3.71576 0
M  V30 3170 C 292.632 -3.45154 4.03785 0
M  V30 3171 C 291.671 -3.18512 5.22701 0
M  V30 3172 N 290.808 -4.35593 5.50639 0
M  V30 3173 H 295.648 -0.71782 2.89225 0
M  V30 3174 H 293.185 -0.342901 1.43048 0
M  V30 3175 H 295.143 -3.18951 2.68935 0
M  V30 3176 H 293.773 -2.79242 1.61938 0
M  V30 3177 H 292.825 -1.34458 3.55844 0
M  V30 3178 H 294.137 -1.96661 4.58395 0
M  V30 3179 H 293.291 -4.30233 4.27767 0
M  V30 3180 H 292.03 -3.71904 3.15498 0
M  V30 3181 H 291.035 -2.31827 4.98534 0
M  V30 3182 H 292.26 -2.93103 6.12591 0
M  V30 3183 H 290.206 -4.6241 4.6531 0
M  V30 3184 H 290.123 -4.1511 6.31838 0
M  V30 3185 H 291.391 -5.21723 5.7916 0
M  V30 3186 N 295.62 -1.53406 -0.361157 0
M  V30 3187 C 296.567 -1.80156 -1.44265 0
M  V30 3188 C 297.537 -0.646183 -1.53015 0
M  V30 3189 O 298.722 -0.888818 -1.68833 0
M  V30 3190 C 295.862 -2.00116 -2.81154 0
M  V30 3191 C 294.975 -3.27833 -2.81335 0
M  V30 3192 C 294.11 -3.37957 -4.09828 0
M  V30 3193 C 293.149 -4.59689 -4.04168 0
M  V30 3194 N 292.286 -4.66942 -5.24318 0
M  V30 3195 H 297.126 -2.72438 -1.20754 0
M  V30 3196 H 294.663 -1.34954 -0.585296 0
M  V30 3197 H 296.621 -2.09677 -3.60682 0
M  V30 3198 H 295.251 -1.11167 -3.03054 0
M  V30 3199 H 294.303 -3.27204 -1.94014 0
M  V30 3200 H 295.615 -4.17442 -2.73027 0
M  V30 3201 H 294.769 -3.46853 -4.97773 0
M  V30 3202 H 293.508 -2.46372 -4.20894 0
M  V30 3203 H 292.513 -4.50889 -3.14609 0
M  V30 3204 H 293.738 -5.5262 -3.947 0
M  V30 3205 H 291.684 -3.7826 -5.35962 0
M  V30 3206 H 291.601 -5.50462 -5.18197 0
M  V30 3207 H 292.869 -4.80127 -6.14084 0
M  V30 3208 N 297.098 0.621204 -1.44841 0
M  V30 3209 C 298.03 1.74615 -1.48466 0
M  V30 3210 C 299.043 1.58377 -0.37691 0
M  V30 3211 O 300.232 1.66508 -0.643215 0
M  V30 3212 C 297.332 3.12459 -1.31236 0
M  V30 3213 C 296.505 3.55064 -2.55438 0
M  V30 3214 C 295.564 4.71821 -2.32963 0
M  V30 3215 O 294.59 4.79628 -3.06505 0
M  V30 3216 N 295.792 5.64186 -1.36654 0
M  V30 3217 H 298.557 1.71973 -2.45449 0
M  V30 3218 H 296.118 0.806077 -1.40407 0
M  V30 3219 H 298.11 3.88302 -1.14032 0
M  V30 3220 H 296.68 3.09686 -0.4258 0
M  V30 3221 H 295.9 2.69324 -2.87851 0
M  V30 3222 H 297.188 3.80284 -3.38026 0
M  V30 3223 H 296.586 5.6058 -0.759344 0
M  V30 3224 H 295.143 6.39618 -1.25425 0
M  V30 3225 N 298.576 1.31904 0.862503 0
M  V30 3226 C 299.822 1.22197 1.61851 0
M  V30 3227 C 300.155 -0.217641 1.92977 0
M  V30 3228 O 299.43 -1.15264 1.56666 0
M  V30 3229 C 299.713 2.07378 2.94391 0
M  V30 3230 C 299.566 3.59678 2.70096 0
M  V30 3231 C 300.885 1.92891 3.95577 0
M  V30 3232 H 298.004 0.445255 0.587296 0
M  V30 3233 H 300.646 1.6177 0.99651 0
M  V30 3234 H 298.796 1.73758 3.47477 0
M  V30 3235 H 300.468 4.03472 2.23625 0
M  V30 3236 H 298.711 3.82735 2.04197 0
M  V30 3237 H 299.382 4.14595 3.64438 0
M  V30 3238 H 301.858 2.22327 3.51724 0
M  V30 3239 H 300.734 2.54781 4.86187 0
M  V30 3240 H 300.995 0.894315 4.3296 0
M  V30 3241 N 300.054 -1.07777 1.14986 0
M  V30 3242 C 301.001 -2.14867 0.842672 0
M  V30 3243 C 301.971 -1.6486 -0.202552 0
M  V30 3244 O 303.156 -1.90668 -0.0710568 0
M  V30 3245 C 300.296 -3.43486 0.333363 0
M  V30 3246 C 299.409 -4.07306 1.43965 0
M  V30 3247 C 298.544 -5.23744 0.886914 0
M  V30 3248 C 297.583 -5.79517 1.97043 0
M  V30 3249 N 296.72 -6.87291 1.4344 0
M  V30 3250 H 301.56 -2.40485 1.75986 0
M  V30 3251 H 299.097 -1.1801 0.878179 0
M  V30 3252 H 301.055 -4.17195 0.0198163 0
M  V30 3253 H 299.685 -3.18133 -0.546916 0
M  V30 3254 H 298.737 -3.31293 1.86946 0
M  V30 3255 H 300.049 -4.44771 2.25788 0
M  V30 3256 H 299.203 -6.04419 0.525651 0
M  V30 3257 H 297.942 -4.87685 0.0377957 0
M  V30 3258 H 296.947 -4.97491 2.34057 0
M  V30 3259 H 298.172 -6.17632 2.82325 0
M  V30 3260 H 296.118 -6.5318 0.607567 0
M  V30 3261 H 296.035 -7.23617 2.18895 0
M  V30 3262 H 297.303 -7.71682 1.10124 0
M  V30 3263 N 301.532 -0.945985 -1.26051 0
M  V30 3264 C 302.943 -0.638096 -1.75457 0
M  V30 3265 C 303.294 0.846672 -1.76991 0
M  V30 3266 O 302.419 1.66262 -1.38513 0
M  V30 3267 C 303.014 -1.15157 -3.18629 0
M  V30 3268 C 301.573 -0.894004 -3.65629 0
M  V30 3269 C 300.72 -1.29967 -2.44957 0
M  V30 3270 H 303.671 -1.12376 -1.1206 0
M  V30 3271 H 303.692 -0.507615 -3.77099 0
M  V30 3272 H 303.204 -2.23222 -3.1748 0
M  V30 3273 H 301.305 0.172057 -3.72203 0
M  V30 3274 H 301.418 -1.52439 -4.54202 0
M  V30 3275 H 299.782 -0.718078 -2.44368 0
M  V30 3276 H 300.565 -2.38935 -2.46505 0
M  V30 3277 N 303.011 1.40521 -0.713556 0
M  V30 3278 C 303.958 2.30723 -0.059684 0
M  V30 3279 C 304.928 1.48079 0.752448 0
M  V30 3280 O 306.113 1.76823 0.71681 0
M  V30 3281 C 303.253 3.34274 0.857594 0
M  V30 3282 C 302.366 4.31986 0.0351536 0
M  V30 3283 C 301.501 5.22605 0.951724 0
M  V30 3284 C 300.54 6.11976 0.123253 0
M  V30 3285 N 299.677 6.9502 0.99459 0
M  V30 3286 H 304.517 2.86074 -0.834596 0
M  V30 3287 H 302.054 1.40879 -0.42326 0
M  V30 3288 H 304.012 3.92879 1.40364 0
M  V30 3289 H 302.642 2.8043 1.59871 0
M  V30 3290 H 301.694 3.7518 -0.628052 0
M  V30 3291 H 303.006 4.95101 -0.606347 0
M  V30 3292 H 302.16 5.86131 1.56638 0
M  V30 3293 H 300.899 4.59759 1.62705 0
M  V30 3294 H 299.904 5.47482 -0.50435 0
M  V30 3295 H 301.129 6.76881 -0.548539 0
M  V30 3296 H 299.075 6.34764 1.6556 0
M  V30 3297 H 298.992 7.54892 0.40908 0
M  V30 3298 H 300.26 7.62997 1.59549 0
M  V30 3299 N 304.489 0.459591 1.5075 0
M  V30 3300 C 305.452 -0.329093 2.26825 0
M  V30 3301 C 306.452 -0.930481 1.31144 0
M  V30 3302 O 307.642 -0.801453 1.54669 0
M  V30 3303 C 304.774 -1.46768 3.07688 0
M  V30 3304 H 305.967 0.337924 2.9799 0
M  V30 3305 H 303.52 0.213336 1.54837 0
M  V30 3306 H 304.255 -2.17009 2.40993 0
M  V30 3307 H 304.04 -1.04238 3.77991 0
M  V30 3308 H 305.53 -2.02433 3.65254 0
M  V30 3309 N 305.967 -1.56429 0.191757 0
M  V30 3310 C 307.213 -1.98541 -0.441943 0
M  V30 3311 C 307.568 -1.07646 -1.59468 0
M  V30 3312 O 306.861 -0.120191 -1.91223 0
M  V30 3313 C 307.055 -3.44449 -0.953384 0
M  V30 3314 C 306.884 -4.49456 0.148262 0
M  V30 3315 C 305.654 -5.01668 0.604781 0
M  V30 3316 C 307.852 -5.05336 0.95602 0
M  V30 3317 N 305.834 -5.90334 1.6846 0
M  V30 3318 C 307.205 -5.9064 1.88531 0
M  V30 3319 C 309.26 -4.87779 0.998811 0
M  V30 3320 C 307.963 -6.60264 2.85383 0
M  V30 3321 C 309.989 -5.58139 1.95537 0
M  V30 3322 C 309.351 -6.43187 2.8721 0
M  V30 3323 H 305.45 -0.771247 -0.129236 0
M  V30 3324 H 308.034 -1.92426 0.296682 0
M  V30 3325 H 306.205 -3.5107 -1.66146 0
M  V30 3326 H 307.937 -3.73533 -1.55741 0
M  V30 3327 H 304.692 -4.73183 0.198736 0
M  V30 3328 H 305.116 -6.39371 2.22561 0
M  V30 3329 H 309.758 -4.21705 0.304048 0
M  V30 3330 H 307.476 -7.25538 3.55837 0
M  V30 3331 H 311.062 -5.46532 1.99484 0
M  V30 3332 H 309.942 -6.96674 3.60022 0
M  V30 3333 N 307.445 0.0818655 -1.57387 0
M  V30 3334 C 308.375 1.09885 -2.06028 0
M  V30 3335 C 309.356 1.4098 -0.951774 0
M  V30 3336 O 310.541 1.50781 -1.22387 0
M  V30 3337 C 307.671 2.4151 -2.4958 0
M  V30 3338 C 306.625 2.24792 -3.64215 0
M  V30 3339 C 305.951 3.61712 -3.93787 0
M  V30 3340 C 307.251 1.67749 -4.94629 0
M  V30 3341 H 308.945 0.694128 -2.91243 0
M  V30 3342 H 306.491 0.332448 -1.4011 0
M  V30 3343 H 308.444 3.12939 -2.82219 0
M  V30 3344 H 307.168 2.83943 -1.61381 0
M  V30 3345 H 305.827 1.55807 -3.31843 0
M  V30 3346 H 305.475 4.01697 -3.02735 0
M  V30 3347 H 305.175 3.51368 -4.70971 0
M  V30 3348 H 306.699 4.34587 -4.28913 0
M  V30 3349 H 308.113 2.29032 -5.25564 0
M  V30 3350 H 306.51 1.68128 -5.76067 0
M  V30 3351 H 307.58 0.638059 -4.80684 0
M  V30 3352 N 308.923 1.53595 0.353017 0
M  V30 3353 C 310.148 1.7462 1.11904 0
M  V30 3354 C 310.573 0.479721 1.8188 0
M  V30 3355 O 309.931 -0.567066 1.72204 0
M  V30 3356 C 309.979 2.92029 2.11545 0
M  V30 3357 O 309.083 2.61516 3.18878 0
M  V30 3358 H 308.424 0.579531 0.324099 0
M  V30 3359 H 310.954 2.00525 0.406301 0
M  V30 3360 H 310.964 3.18551 2.5493 0
M  V30 3361 H 309.639 3.83888 1.60008 0
M  V30 3362 H 308.216 2.45852 2.80377 0
M  V30 3363 N 310.401 -0.613514 1.45168 0
M  V30 3364 C 311.817 -0.933629 1.29443 0
M  V30 3365 C 312.017 -2.00028 0.243101 0
M  V30 3366 O 311.073 -2.49848 -0.364992 0
M  V30 3367 C 312.386 -1.38018 2.67155 0
M  V30 3368 C 313.934 -1.49471 2.75004 0
M  V30 3369 C 314.409 -1.97503 4.13227 0
M  V30 3370 N 315.9 -2.04746 4.15491 0
M  V30 3371 C 316.635 -2.43121 5.19307 0
M  V30 3372 N 316.131 -2.80506 6.33473 0
M  V30 3373 N 317.924 -2.43408 5.06664 0
M  V30 3374 H 310.075 0.0916097 2.12202 0
M  V30 3375 H 312.338 -0.0216655 0.947752 0
M  V30 3376 H 312.044 -0.670625 3.45247 0
M  V30 3377 H 311.918 -2.34784 2.95222 0
M  V30 3378 H 314.305 -2.19519 1.9722 0
M  V30 3379 H 314.386 -0.510342 2.50657 0
M  V30 3380 H 314.03 -1.28045 4.91495 0
M  V30 3381 H 313.96 -2.96843 4.34962 0
M  V30 3382 H 316.451 -1.78468 3.33103 0
M  V30 3383 H 316.764 -3.08652 7.08487 0
M  V30 3384 H 315.109 -2.78216 6.36884 0
M  V30 3385 H 318.3 -2.13604 4.16523 0
M  V30 3386 H 318.473 -2.72989 5.87691 0
M  V30 3387 N 311.879 -1.3236 -0.855495 0
M  V30 3388 C 313.127 -1.22629 -1.60644 0
M  V30 3389 C 313.448 0.212136 -1.93843 0
M  V30 3390 O 312.718 1.13666 -1.59552 0
M  V30 3391 H 311.298 -0.450882 -0.595579 0
M  V30 3392 H 313.96 -1.65871 -1.02337 0
M  V30 3393 H 313.056 -1.80832 -2.54374 0
M  V30 3394 N 313.357 1.07166 -1.15556 0
M  V30 3395 C 314.768 1.6127 -0.940693 0
M  V30 3396 C 315.119 1.89251 0.517551 0
M  V30 3397 O 314.244 1.65937 1.38903 0
M  V30 3398 C 314.839 2.92993 -1.7012 0
M  V30 3399 C 313.398 3.43832 -1.53156 0
M  V30 3400 C 312.545 2.1786 -1.71558 0
M  V30 3401 H 315.496 0.90229 -1.30554 0
M  V30 3402 H 315.517 3.62007 -1.17181 0
M  V30 3403 H 315.029 2.72596 -2.76248 0
M  V30 3404 H 313.13 3.69307 -0.494294 0
M  V30 3405 H 313.243 4.19747 -2.30975 0
M  V30 3406 H 311.607 2.2765 -1.14225 0
M  V30 3407 H 312.39 1.99956 -2.79056 0
M  V30 3408 N 314.835 0.952656 1.25548 0
M  V30 3409 C 316.06 0.623025 1.97821 0
M  V30 3410 C 316.485 -0.7976 1.70352 0
M  V30 3411 O 315.843 -1.53905 0.958283 0
M  V30 3412 C 315.891 0.885532 3.49558 0
M  V30 3413 O 314.995 -0.0366641 4.12384 0
M  V30 3414 H 314.336 0.237082 0.620232 0
M  V30 3415 H 316.866 1.27871 1.59719 0
M  V30 3416 H 316.876 0.811009 3.99858 0
M  V30 3417 H 315.551 1.92094 3.6888 0
M  V30 3418 H 314.128 0.0898954 3.72792 0
M  V30 3419 N 316.313 -1.40141 0.720998 0
M  V30 3420 C 317.724 -1.83678 0.334553 0
M  V30 3421 C 318.075 -1.6027 -1.13173 0
M  V30 3422 O 317.2 -1.08643 -1.87152 0
M  V30 3423 C 317.795 -3.33437 0.600437 0
M  V30 3424 C 316.354 -3.75447 0.267642 0
M  V30 3425 C 315.501 -2.63296 0.870097 0
M  V30 3426 H 318.452 -1.29331 0.919732 0
M  V30 3427 H 318.473 -3.80269 -0.132517 0
M  V30 3428 H 317.985 -3.50442 1.66768 0
M  V30 3429 H 316.086 -3.64035 -0.794329 0
M  V30 3430 H 316.199 -4.73344 0.74042 0
M  V30 3431 H 314.563 -2.52954 0.297739 0
M  V30 3432 H 315.346 -2.83112 1.94172 0
M  V30 3433 N 317.792 -0.46758 -1.50504 0
M  V30 3434 C 319.04 0.0884469 -2.01906 0
M  V30 3435 C 319.361 1.40532 -1.35188 0
M  V30 3436 O 318.631 1.89515 -0.496079 0
M  V30 3437 H 317.211 0.0356765 -0.746148 0
M  V30 3438 H 319.873 -0.6172 -1.84869 0
M  V30 3439 H 318.969 0.2425 -3.11156 0
M  V30 3440 N 319.27 1.56325 -0.20005 0
M  V30 3441 C 320.681 1.8408 0.31167 0
M  V30 3442 C 321.032 1.12087 1.61031 0
M  V30 3443 O 320.157 0.38332 2.12978 0
M  V30 3444 C 320.752 3.33932 0.57226 0
M  V30 3445 C 319.311 3.6208 1.02834 0
M  V30 3446 C 318.458 2.77186 0.079634 0
M  V30 3447 H 321.409 1.52939 -0.423729 0
M  V30 3448 H 321.43 3.52971 1.42096 0
M  V30 3449 H 320.942 3.86303 -0.37308 0
M  V30 3450 H 319.043 3.15147 1.98778 0
M  V30 3451 H 319.156 4.7023 0.917624 0
M  V30 3452 H 317.52 2.47951 0.582448 0
M  V30 3453 H 318.303 3.32347 -0.860238 0
M  V30 3454 N 320.748 -0.0735177 1.57428 0
M  V30 3455 C 321.996 -0.771472 1.86796 0
M  V30 3456 C 322.317 -1.78201 0.791804 0
M  V30 3457 O 321.587 -1.95074 -0.179718 0
M  V30 3458 H 320.167 -0.28791 0.689287 0
M  V30 3459 H 322.829 -0.0500161 1.94836 0
M  V30 3460 H 321.925 -1.28874 2.8425 0
M  V30 3461 N 322.226 -1.5378 -0.344866 0
M  V30 3462 C 323.642 -1.44015 -0.687888 0
M  V30 3463 C 323.842 -0.595834 -1.92489 0
M  V30 3464 O 322.898 -0.0863064 -2.52352 0
M  V30 3465 C 324.211 -2.87481 -0.881758 0
M  V30 3466 C 325.759 -2.97247 -0.980459 0
M  V30 3467 C 326.234 -4.41819 -1.20665 0
M  V30 3468 N 327.725 -4.45339 -1.27389 0
M  V30 3469 C 328.46 -5.54333 -1.46639 0
M  V30 3470 N 327.956 -6.73335 -1.63071 0
M  V30 3471 N 329.749 -5.41944 -1.49176 0
M  V30 3472 H 321.9 -2.07169 0.468475 0
M  V30 3473 H 324.163 -0.93643 0.147655 0
M  V30 3474 H 323.869 -3.51672 -0.0443444 0
M  V30 3475 H 323.743 -3.32352 -1.78388 0
M  V30 3476 H 326.13 -2.33197 -1.8084 0
M  V30 3477 H 326.211 -2.5574 -0.0552713 0
M  V30 3478 H 325.855 -5.06449 -0.383652 0
M  V30 3479 H 325.785 -4.80917 -2.14539 0
M  V30 3480 H 328.276 -3.59585 -1.1622 0
M  V30 3481 H 328.589 -7.52165 -1.77391 0
M  V30 3482 H 326.934 -6.76282 -1.60209 0
M  V30 3483 H 330.125 -4.47932 -1.3592 0
M  V30 3484 H 330.298 -6.26946 -1.63837 0
M  V30 3485 N 323.704 0.605807 -1.45491 0
M  V30 3486 C 324.634 1.72709 -1.57143 0
M  V30 3487 C 325.615 1.6476 -0.422884 0
M  V30 3488 O 326.8 1.83132 -0.646247 0
M  V30 3489 C 323.93 3.11316 -1.53948 0
M  V30 3490 C 322.884 3.34077 -2.67537 0
M  V30 3491 C 322.21 4.72975 -2.49397 0
M  V30 3492 C 323.51 3.24158 -4.09535 0
M  V30 3493 H 325.204 1.63214 -2.51001 0
M  V30 3494 H 322.75 0.78379 -1.208 0
M  V30 3495 H 324.703 3.89557 -1.60696 0
M  V30 3496 H 323.427 3.21655 -0.566205 0
M  V30 3497 H 322.086 2.58227 -2.6022 0
M  V30 3498 H 321.734 4.8005 -1.50205 0
M  V30 3499 H 321.434 4.8916 -3.25571 0
M  V30 3500 H 322.958 5.53414 -2.58002 0
M  V30 3501 H 324.372 3.92271 -4.18086 0
M  V30 3502 H 322.769 3.51872 -4.86113 0
M  V30 3503 H 323.839 2.2157 -4.31317 0
M  V30 3504 N 325.182 1.32811 0.848464 0
M  V30 3505 C 326.112 1.24882 1.97299 0
M  V30 3506 C 327.093 0.131357 1.69592 0
M  V30 3507 O 328.278 0.319553 1.91553 0
M  V30 3508 C 325.408 0.97746 3.33261 0
M  V30 3509 C 324.362 2.05682 3.75338 0
M  V30 3510 C 323.688 1.63777 5.09 0
M  V30 3511 C 324.988 3.47254 3.90144 0
M  V30 3512 H 326.682 2.18966 2.04191 0
M  V30 3513 H 324.228 1.05413 0.981029 0
M  V30 3514 H 326.181 0.908513 4.1149 0
M  V30 3515 H 324.905 0.000980011 3.266 0
M  V30 3516 H 323.564 2.11603 2.99366 0
M  V30 3517 H 323.212 0.648569 4.98801 0
M  V30 3518 H 322.912 2.36 5.38124 0
M  V30 3519 H 324.436 1.5833 5.89715 0
M  V30 3520 H 325.85 3.43888 4.58709 0
M  V30 3521 H 324.247 4.1788 4.30693 0
M  V30 3522 H 325.317 3.86462 2.92874 0
M  V30 3523 N 326.66 -1.06551 1.16123 0
M  V30 3524 C 327.59 -2.15935 0.88851 0
M  V30 3525 C 328.571 -1.69306 -0.164135 0
M  V30 3526 O 329.756 -1.94193 -0.0167857 0
M  V30 3527 C 326.886 -3.45149 0.385942 0
M  V30 3528 C 325.84 -4.05271 1.3762 0
M  V30 3529 C 325.166 -5.29664 0.732137 0
M  V30 3530 C 326.466 -4.44355 2.74493 0
M  V30 3531 H 328.16 -2.39006 1.80323 0
M  V30 3532 H 325.706 -1.14866 0.868435 0
M  V30 3533 H 327.659 -4.21004 0.182647 0
M  V30 3534 H 326.383 -3.21689 -0.564274 0
M  V30 3535 H 325.042 -3.3147 1.56599 0
M  V30 3536 H 324.69 -5.02499 -0.224483 0
M  V30 3537 H 324.39 -5.70848 1.39307 0
M  V30 3538 H 325.914 -6.08218 0.538802 0
M  V30 3539 H 327.328 -5.11303 2.59311 0
M  V30 3540 H 325.725 -4.96515 3.37035 0
M  V30 3541 H 326.795 -3.55339 3.29943 0
M  V30 3542 N 328.138 -0.959301 -1.25041 0
M  V30 3543 C 329.384 -0.617525 -1.9317 0
M  V30 3544 C 329.717 0.843981 -1.74902 0
M  V30 3545 O 328.992 1.60615 -1.09696 0
M  V30 3546 C 329.275 -0.982736 -3.46431 0
M  V30 3547 C 329.128 -2.50032 -3.73904 0
M  V30 3548 C 330.447 -0.511176 -4.37121 0
M  V30 3549 H 327.566 -0.22582 -0.701552 0
M  V30 3550 H 330.208 -1.19679 -1.4757 0
M  V30 3551 H 328.358 -0.489806 -3.854 0
M  V30 3552 H 330.03 -3.06737 -3.44544 0
M  V30 3553 H 328.273 -2.93598 -3.19348 0
M  V30 3554 H 328.944 -2.70635 -4.81103 0
M  V30 3555 H 331.42 -0.934075 -4.0548 0
M  V30 3556 H 330.296 -0.795361 -5.43107 0
M  V30 3557 H 330.557 0.588834 -4.38161 0
M  V30 3558 N 329.616 1.39756 -0.72842 0
M  V30 3559 C 330.856 2.025 -0.278078 0
M  V30 3560 C 331.22 1.5654 1.11173 0
M  V30 3561 O 332.421 2.11435 1.65978 0
M  V30 3562 C 330.692 3.55489 -0.369139 0
M  V30 3563 S 332.251 4.388 0.00232983 0
M  V30 3564 H 329.069 0.702534 -0.109391 0
M  V30 3565 H 331.671 1.70672 -0.95348 0
M  V30 3566 H 330.375 3.86429 -1.38204 0
M  V30 3567 H 329.906 3.92061 0.324308 0
M  V30 3568 H 331.921 4.80954 1.22055 0
M  V30 3569 N 331.094 0.475555 1.50254 0
M  V30 3570 C 332.044 -0.335025 2.25525 0
M  V30 3571 C 333.028 -0.957625 1.29299 0
M  V30 3572 O 334.22 -0.869436 1.54175 0
M  V30 3573 C 331.349 -1.41385 3.12834 0
M  V30 3574 C 330.435 -0.798762 4.1651 0
M  V30 3575 N 330.826 0.0835815 5.05731 0
M  V30 3576 C 329.124 -1.06221 4.33166 0
M  V30 3577 C 329.825 0.433113 5.80085 0
M  V30 3578 N 328.801 -0.1928 5.43258 0
M  V30 3579 H 332.603 0.344612 2.91873 0
M  V30 3580 H 330.117 0.289986 1.5979 0
M  V30 3581 H 332.114 -2.00777 3.65368 0
M  V30 3582 H 330.774 -2.09543 2.48036 0
M  V30 3583 H 331.785 0.452715 5.15918 0
M  V30 3584 H 328.462 -1.73844 3.79585 0
M  V30 3585 H 329.852 1.15346 6.61925 0
M  V30 3586 N 332.573 -1.56217 0.208337 0
M  V30 3587 C 333.819 -1.98242 -0.427552 0
M  V30 3588 C 334.152 -1.09554 -1.60348 0
M  V30 3589 O 333.427 -0.15035 -1.93918 0
M  V30 3590 C 333.71 -3.4931 -0.874907 0
M  V30 3591 C 333.563 -4.48773 0.303751 0
M  V30 3592 C 334.882 -4.04424 -1.73577 0
M  V30 3593 H 332.001 -0.720744 -0.153936 0
M  V30 3594 H 334.643 -1.87586 0.30192 0
M  V30 3595 H 332.793 -3.58522 -1.49648 0
M  V30 3596 H 334.465 -4.51586 0.941682 0
M  V30 3597 H 332.708 -4.23194 0.953375 0
M  V30 3598 H 333.379 -5.51976 -0.0519883 0
M  V30 3599 H 335.855 -3.98075 -1.21143 0
M  V30 3600 H 334.731 -5.1047 -2.01771 0
M  V30 3601 H 334.992 -3.50494 -2.69456 0
M  V30 3602 N 334.051 0.0651679 -1.57465 0
M  V30 3603 C 335.276 0.779605 -1.9219 0
M  V30 3604 C 335.701 1.69988 -0.805333 0
M  V30 3605 O 335.059 1.79685 0.241435 0
M  V30 3606 C 335.107 1.54364 -3.2589 0
M  V30 3607 O 334.211 2.65474 -3.1559 0
M  V30 3608 H 333.552 0.212249 -0.629163 0
M  V30 3609 H 336.082 0.0314294 -2.04576 0
M  V30 3610 H 336.092 1.92146 -3.59922 0
M  V30 3611 H 334.767 0.868457 -4.06732 0
M  V30 3612 H 333.344 2.30501 -2.93128 0
M  V30 3613 N 335.529 1.53961 0.336706 0
M  V30 3614 C 336.777 1.71197 1.07405 0
M  V30 3615 C 337.098 0.481475 1.88962 0
M  V30 3616 O 336.368 -0.504585 1.8929 0
M  V30 3617 H 334.948 0.631185 0.399517 0
M  V30 3618 H 337.61 1.91232 0.376323 0
M  V30 3619 H 336.706 2.58587 1.74755 0
M  V30 3620 N 337.007 -0.598083 1.45811 0
M  V30 3621 C 338.254 -1.35681 1.50323 0
M  V30 3622 C 338.582 -1.9393 0.148739 0
M  V30 3623 O 337.837 -1.76094 -0.853787 0
M  V30 3624 C 338.136 -2.51669 2.53766 0
M  V30 3625 C 337.802 -2.11508 3.98215 0
M  V30 3626 C 336.464 -2.0027 4.37545 0
M  V30 3627 C 338.816 -1.80308 4.89018 0
M  V30 3628 C 336.144 -1.56067 5.65562 0
M  V30 3629 C 338.496 -1.37589 6.17456 0
M  V30 3630 C 337.16 -1.24916 6.55708 0
M  V30 3631 H 336.43 -0.496492 0.550069 0
M  V30 3632 H 339.077 -0.675052 1.79207 0
M  V30 3633 H 337.382 -3.25225 2.18486 0
M  V30 3634 H 339.079 -3.09895 2.54492 0
M  V30 3635 H 335.669 -2.21185 3.67117 0
M  V30 3636 H 339.853 -1.87884 4.59362 0
M  V30 3637 H 335.109 -1.44886 5.93985 0
M  V30 3638 H 339.283 -1.12495 6.87254 0
M  V30 3639 H 336.91 -0.904386 7.54801 0
M  V30 3640 N 338.485 -1.33259 -0.841409 0
M  V30 3641 C 339.715 -1.2742 -1.62628 0
M  V30 3642 C 340.123 0.157604 -1.88542 0
M  V30 3643 O 339.466 1.10938 -1.46419 0
M  V30 3644 C 339.528 -1.97797 -3.00194 0
M  V30 3645 C 339.192 -3.47109 -2.97261 0
M  V30 3646 C 340.189 -4.42358 -2.73159 0
M  V30 3647 C 337.874 -3.89247 -3.17478 0
M  V30 3648 C 339.868 -5.77718 -2.69296 0
M  V30 3649 C 337.555 -5.24713 -3.13241 0
M  V30 3650 C 338.553 -6.1876 -2.89181 0
M  V30 3651 O 338.241 -7.51745 -2.84843 0
M  V30 3652 H 337.973 -0.440436 -0.512827 0
M  V30 3653 H 340.527 -1.76153 -1.05638 0
M  V30 3654 H 338.757 -1.43652 -3.59028 0
M  V30 3655 H 340.446 -1.8549 -3.61038 0
M  V30 3656 H 341.212 -4.11127 -2.57294 0
M  V30 3657 H 337.091 -3.16456 -3.35226 0
M  V30 3658 H 340.635 -6.51097 -2.50436 0
M  V30 3659 H 336.532 -5.55569 -3.28654 0
M  V30 3660 H 337.3 -7.61262 -3.00702 0
M  V30 3661 N 339.963 1.05934 -1.16686 0
M  V30 3662 C 341.374 1.60263 -0.957745 0
M  V30 3663 C 341.725 1.89789 0.49745 0
M  V30 3664 O 340.85 1.67401 1.37135 0
M  V30 3665 C 341.445 2.91172 -1.73218 0
M  V30 3666 C 340.004 3.42188 -1.56794 0
M  V30 3667 C 339.151 2.16028 -1.73859 0
M  V30 3668 H 342.102 0.888392 -1.31504 0
M  V30 3669 H 342.123 3.60744 -1.21014 0
M  V30 3670 H 341.635 2.6965 -2.79124 0
M  V30 3671 H 339.736 3.68762 -0.533437 0
M  V30 3672 H 339.849 4.17273 -2.35414 0
M  V30 3673 H 338.213 2.26426 -1.16633 0
M  V30 3674 H 338.996 1.96985 -2.81161 0
M  V30 3675 N 341.441 0.965919 1.2453 0
M  V30 3676 C 342.388 0.49402 2.25451 0
M  V30 3677 C 343.358 -0.45948 1.59618 0
M  V30 3678 O 344.543 -0.370238 1.87173 0
M  V30 3679 C 341.683 -0.211359 3.44452 0
M  V30 3680 C 340.796 0.7807 4.24887 0
M  V30 3681 C 339.931 0.0516105 5.31175 0
M  V30 3682 C 338.97 1.03385 6.03306 0
M  V30 3683 N 338.107 0.334887 7.01301 0
M  V30 3684 H 342.947 1.35946 2.65184 0
M  V30 3685 H 340.484 0.681515 1.3036 0
M  V30 3686 H 342.442 -0.637 4.12308 0
M  V30 3687 H 341.072 -1.04077 3.05562 0
M  V30 3688 H 340.124 1.32479 3.56586 0
M  V30 3689 H 341.436 1.52978 4.74762 0
M  V30 3690 H 340.59 -0.432114 6.05159 0
M  V30 3691 H 339.329 -0.730179 4.82203 0
M  V30 3692 H 338.334 1.52847 5.28127 0
M  V30 3693 H 339.559 1.81606 6.54367 0
M  V30 3694 H 337.505 -0.427959 6.54603 0
M  V30 3695 H 337.422 1.02287 7.49048 0
M  V30 3696 H 338.69 -0.126928 7.79397 0
M  V30 3697 N 342.919 -1.39368 0.735821 0
M  V30 3698 C 344.33 -1.83313 0.354015 0
M  V30 3699 C 344.681 -1.61461 -1.11466 0
M  V30 3700 O 343.806 -1.10621 -1.85989 0
M  V30 3701 C 344.401 -3.32781 0.635769 0
M  V30 3702 C 342.96 -3.75142 0.307448 0
M  V30 3703 C 342.107 -2.62358 0.897974 0
M  V30 3704 H 345.058 -1.28349 0.933398 0
M  V30 3705 H 345.079 -3.80388 -0.0921773 0
M  V30 3706 H 344.591 -3.48654 1.70476 0
M  V30 3707 H 342.692 -3.64857 -0.755674 0
M  V30 3708 H 342.805 -4.72532 0.790583 0
M  V30 3709 H 341.169 -2.52624 0.324551 0
M  V30 3710 H 341.952 -2.81036 1.97164 0
M  V30 3711 N 344.397 -0.483516 -1.5 0
M  V30 3712 C 345.643 0.0672592 -2.02688 0
M  V30 3713 C 345.976 1.38247 -1.36387 0
M  V30 3714 O 345.251 1.88131 -0.493675 0
M  V30 3715 C 345.534 0.238109 -3.59312 0
M  V30 3716 C 345.387 -1.099 -4.36168 0
M  V30 3717 C 346.706 0.986916 -4.28892 0
M  V30 3718 H 343.825 0.0229696 -0.736642 0
M  V30 3719 H 346.467 -0.631527 -1.79197 0
M  V30 3720 H 344.617 0.8333 -3.79458 0
M  V30 3721 H 346.289 -1.73172 -4.27562 0
M  V30 3722 H 344.532 -1.69261 -3.99416 0
M  V30 3723 H 345.203 -0.932954 -5.44059 0
M  V30 3724 H 347.679 0.482302 -4.13295 0
M  V30 3725 H 346.555 1.07527 -5.38265 0
M  V30 3726 H 346.816 2.0265 -3.92919 0
M  V30 3727 N 345.875 1.56104 -0.216619 0
M  V30 3728 C 347.121 1.99219 0.410301 0
M  V30 3729 C 347.476 1.10169 1.57735 0
M  V30 3730 O 346.769 0.150598 1.91007 0
M  V30 3731 C 346.963 3.45923 0.898464 0
M  V30 3732 C 346.792 4.49163 -0.219748 0
M  V30 3733 C 345.562 5.00642 -0.684516 0
M  V30 3734 C 347.76 5.03751 -1.03629 0
M  V30 3735 N 345.742 5.87579 -1.7783 0
M  V30 3736 C 347.113 5.87566 -1.97904 0
M  V30 3737 C 349.168 4.86128 -1.07629 0
M  V30 3738 C 347.871 6.5564 -2.95851 0
M  V30 3739 C 349.897 5.54958 -2.04392 0
M  V30 3740 C 349.259 6.38536 -2.97407 0
M  V30 3741 H 345.358 0.773206 0.11695 0
M  V30 3742 H 347.942 1.9193 -0.327258 0
M  V30 3743 H 346.113 3.53669 1.6054 0
M  V30 3744 H 347.845 3.75963 1.49779 0
M  V30 3745 H 344.6 4.72807 -0.27399 0
M  V30 3746 H 345.024 6.3575 -2.32705 0
M  V30 3747 H 349.666 4.21168 -0.371099 0
M  V30 3748 H 347.384 7.19785 -3.67335 0
M  V30 3749 H 350.97 5.43289 -2.08154 0
M  V30 3750 H 349.85 6.90858 -3.71059 0
M  V30 3751 N 347.353 -0.0568162 1.57498 0
M  V30 3752 C 348.599 -0.75422 1.88253 0
M  V30 3753 C 348.932 -1.76461 0.810865 0
M  V30 3754 O 348.207 -1.93691 -0.177259 0
M  V30 3755 C 348.49 -1.44878 3.2967 0
M  V30 3756 C 348.343 -0.453789 4.47505 0
M  V30 3757 C 349.662 -2.38994 3.69554 0
M  V30 3758 H 346.781 -0.272724 0.684683 0
M  V30 3759 H 349.423 -0.0172113 1.89992 0
M  V30 3760 H 347.573 -2.077 3.28318 0
M  V30 3761 H 349.245 0.170371 4.60985 0
M  V30 3762 H 347.488 0.229552 4.33192 0
M  V30 3763 H 348.159 -0.977699 5.43273 0
M  V30 3764 H 350.635 -1.86239 3.72095 0
M  V30 3765 H 349.511 -2.84587 4.69363 0
M  V30 3766 H 349.772 -3.24461 3.00296 0
M  V30 3767 N 348.832 -1.54138 -0.328536 0
M  V30 3768 C 349.779 -1.83176 -1.40411 0
M  V30 3769 C 350.749 -0.678494 -1.5161 0
M  V30 3770 O 351.934 -0.92443 -1.6691 0
M  V30 3771 C 349.074 -2.06035 -2.76846 0
M  V30 3772 C 348.187 -3.33727 -2.74318 0
M  V30 3773 C 347.322 -3.46574 -4.02567 0
M  V30 3774 C 346.361 -4.68159 -3.94327 0
M  V30 3775 N 345.498 -4.77959 -5.14296 0
M  V30 3776 H 350.338 -2.74938 -1.14948 0
M  V30 3777 H 347.875 -1.36166 -0.556538 0
M  V30 3778 H 349.833 -2.1728 -3.56153 0
M  V30 3779 H 348.463 -1.1757 -3.00628 0
M  V30 3780 H 347.515 -3.31246 -1.8703 0
M  V30 3781 H 348.827 -4.23139 -2.64111 0
M  V30 3782 H 347.981 -3.57333 -4.90304 0
M  V30 3783 H 346.72 -2.55245 -4.15574 0
M  V30 3784 H 345.725 -4.57461 -3.04974 0
M  V30 3785 H 346.95 -5.60868 -3.82889 0
M  V30 3786 H 344.896 -3.89544 -5.27818 0
M  V30 3787 H 344.813 -5.6133 -5.06404 0
M  V30 3788 H 346.081 -4.93044 -6.03761 0
M  V30 3789 N 350.31 0.590341 -1.46126 0
M  V30 3790 C 351.556 1.34874 -1.52252 0
M  V30 3791 C 351.911 1.91658 -0.168807 0
M  V30 3792 O 351.204 1.73093 0.821556 0
M  V30 3793 C 351.398 2.5032 -2.55097 0
M  V30 3794 C 351.227 2.04843 -4.00337 0
M  V30 3795 C 349.997 1.90213 -4.68132 0
M  V30 3796 C 352.195 1.61267 -4.88362 0
M  V30 3797 N 350.177 1.38727 -5.9802 0
M  V30 3798 C 351.548 1.21319 -6.08015 0
M  V30 3799 C 353.603 1.49015 -4.75078 0
M  V30 3800 C 352.306 0.7034 -7.15852 0
M  V30 3801 C 354.332 0.994401 -5.8298 0
M  V30 3802 C 353.694 0.604659 -7.018 0
M  V30 3803 H 349.793 0.486803 -0.612002 0
M  V30 3804 H 352.377 0.673007 -1.82698 0
M  V30 3805 H 350.548 3.15466 -2.26574 0
M  V30 3806 H 352.28 3.1725 -2.51266 0
M  V30 3807 H 349.035 2.11927 -4.23537 0
M  V30 3808 H 349.459 1.15168 -6.67132 0
M  V30 3809 H 354.101 1.77768 -3.83612 0
M  V30 3810 H 351.819 0.403446 -8.07092 0
M  V30 3811 H 355.405 0.903621 -5.7474 0
M  V30 3812 H 354.285 0.226963 -7.83871 0
M  V30 3813 N 351.788 1.33704 0.83433 0
M  V30 3814 C 352.721 1.18675 1.94914 0
M  V30 3815 C 353.699 0.0811145 1.62398 0
M  V30 3816 O 354.883 0.244186 1.86912 0
M  V30 3817 C 352.01 0.821231 3.28593 0
M  V30 3818 C 351.056 1.93501 3.80079 0
M  V30 3819 S 351.889 3.54671 4.01209 0
M  V30 3820 C 353.045 3.20136 5.37833 0
M  V30 3821 H 353.278 2.13043 2.07364 0
M  V30 3822 H 350.811 1.18598 0.988624 0
M  V30 3823 H 352.769 0.617123 4.05835 0
M  V30 3824 H 351.43 -0.103927 3.13928 0
M  V30 3825 H 350.623 1.63273 4.76821 0
M  V30 3826 H 350.225 2.09601 3.09747 0
M  V30 3827 H 352.517 2.71242 6.20833 0
M  V30 3828 H 353.46 4.15975 5.73036 0
M  V30 3829 H 353.868 2.56613 5.02802 0
M  V30 3830 N 353.266 -1.05314 1.17247 0
M  V30 3831 C 354.682 -1.30452 0.919473 0
M  V30 3832 C 354.882 -1.9703 -0.42209 0
M  V30 3833 O 353.938 -2.24311 -1.15935 0
M  V30 3834 C 355.251 -2.17551 2.07586 0
M  V30 3835 C 356.799 -2.30937 2.11275 0
M  V30 3836 C 357.274 -3.21396 3.26296 0
M  V30 3837 N 358.765 -3.28981 3.26076 0
M  V30 3838 C 359.5 -3.99095 4.11716 0
M  V30 3839 N 358.996 -4.71648 5.07465 0
M  V30 3840 N 360.789 -3.95247 3.9967 0
M  V30 3841 H 352.94 -0.604988 2.03602 0
M  V30 3842 H 355.203 -0.329368 0.888944 0
M  V30 3843 H 354.909 -1.75921 3.0454 0
M  V30 3844 H 354.783 -3.18182 2.02584 0
M  V30 3845 H 357.17 -2.71809 1.14907 0
M  V30 3846 H 357.251 -1.2994 2.20339 0
M  V30 3847 H 356.895 -2.81238 4.22927 0
M  V30 3848 H 356.825 -4.22395 3.14467 0
M  V30 3849 H 359.316 -2.77286 2.5675 0
M  V30 3850 H 359.629 -5.22705 5.6921 0
M  V30 3851 H 357.974 -4.70594 5.11435 0
M  V30 3852 H 361.165 -3.37691 3.24164 0
M  V30 3853 H 361.338 -4.4962 4.66632 0
M  V30 3854 N 354.744 -0.972509 -1.24016 0
M  V30 3855 C 355.992 -0.635776 -1.91839 0
M  V30 3856 C 356.313 0.832312 -1.76345 0
M  V30 3857 O 355.583 1.5946 -1.13795 0
M  V30 3858 H 354.163 -0.232157 -0.710009 0
M  V30 3859 H 356.825 -1.23462 -1.50809 0
M  V30 3860 H 355.921 -0.880545 -2.99421 0
M  V30 3861 N 356.222 1.38976 -0.743202 0
M  V30 3862 C 357.132 2.3434 -0.110399 0
M  V30 3863 C 358.148 1.58741 0.712559 0
M  V30 3864 O 359.324 1.9099 0.639125 0
M  V30 3865 C 356.389 3.37812 0.780012 0
M  V30 3866 C 355.45 4.29263 -0.0561319 0
M  V30 3867 C 354.683 5.27793 0.791875 0
M  V30 3868 O 354.906 5.33043 2.03031 0
M  V30 3869 O 353.84 6.01512 0.216183 0
M  V30 3870 H 357.666 2.90129 -0.897714 0
M  V30 3871 H 355.251 1.40643 -0.503966 0
M  V30 3872 H 357.133 4.01194 1.28923 0
M  V30 3873 H 355.808 2.84395 1.546 0
M  V30 3874 H 354.715 3.69076 -0.611056 0
M  V30 3875 H 356.048 4.85907 -0.784531 0
M  V30 3876 N 357.7 0.491464 1.49741 0
M  V30 3877 C 358.632 -0.328609 2.26832 0
M  V30 3878 C 359.645 -0.939113 1.32983 0
M  V30 3879 O 360.834 -0.824067 1.58339 0
M  V30 3880 C 357.934 -1.47675 3.05033 0
M  V30 3881 C 357.107 -0.975305 4.26388 0
M  V30 3882 C 356.166 -1.99991 4.86714 0
M  V30 3883 O 355.192 -1.57229 5.47054 0
M  V30 3884 N 356.394 -3.32962 4.75517 0
M  V30 3885 H 359.159 0.332377 2.97851 0
M  V30 3886 H 356.72 0.323441 1.58636 0
M  V30 3887 H 358.712 -2.15954 3.42266 0
M  V30 3888 H 357.282 -2.04206 2.36683 0
M  V30 3889 H 356.502 -0.117723 3.94024 0
M  V30 3890 H 357.79 -0.618531 5.05026 0
M  V30 3891 H 357.188 -3.70399 4.27576 0
M  V30 3892 H 355.745 -3.96982 5.16961 0
M  V30 3893 N 359.178 -1.55987 0.224894 0
M  V30 3894 C 360.088 -2.24066 -0.69511 0
M  V30 3895 C 361.104 -1.24939 -1.21104 0
M  V30 3896 O 362.28 -1.5776 -1.25195 0
M  V30 3897 C 359.345 -2.90983 -1.88493 0
M  V30 3898 C 358.406 -4.05462 -1.41064 0
M  V30 3899 C 357.639 -4.69179 -2.54375 0
M  V30 3900 O 357.862 -4.31895 -3.72589 0
M  V30 3901 O 356.796 -5.58108 -2.25386 0
M  V30 3902 H 360.622 -3.03353 -0.145149 0
M  V30 3903 H 358.207 -1.49399 -0.00569476 0
M  V30 3904 H 360.089 -3.33209 -2.57972 0
M  V30 3905 H 358.764 -2.14653 -2.42293 0
M  V30 3906 H 357.671 -3.67798 -0.683774 0
M  V30 3907 H 359.004 -4.83545 -0.918985 0
M  V30 3908 N 360.656 0.0484629 -1.57525 0
M  V30 3909 C 361.588 1.08222 -2.02041 0
M  V30 3910 C 362.601 1.33621 -0.930012 0
M  V30 3911 O 363.79 1.3145 -1.20761 0
M  V30 3912 C 360.89 2.42818 -2.36416 0
M  V30 3913 C 360.063 2.37049 -3.67596 0
M  V30 3914 C 359.122 3.53937 -3.89378 0
M  V30 3915 O 358.148 3.34308 -4.60681 0
M  V30 3916 N 359.35 4.75126 -3.3352 0
M  V30 3917 H 362.115 0.702946 -2.9134 0
M  V30 3918 H 359.676 0.236745 -1.6016 0
M  V30 3919 H 361.668 3.197 -2.48141 0
M  V30 3920 H 360.238 2.72661 -1.52888 0
M  V30 3921 H 359.458 1.45395 -3.66407 0
M  V30 3922 H 360.746 2.30318 -4.53686 0
M  V30 3923 H 360.144 4.93976 -2.75688 0
M  V30 3924 H 358.701 5.49439 -3.50656 0
M  V30 3925 N 362.134 1.5431 0.320358 0
M  V30 3926 C 363.066 1.80262 1.41556 0
M  V30 3927 C 364.079 0.684723 1.477 0
M  V30 3928 O 365.268 0.961886 1.50366 0
M  V30 3929 C 362.368 1.90825 2.8007 0
M  V30 3930 C 361.541 3.21023 2.97091 0
M  V30 3931 C 360.6 3.22247 4.15985 0
M  V30 3932 O 359.626 3.95871 4.08992 0
M  V30 3933 N 360.828 2.46258 5.25678 0
M  V30 3934 H 363.593 2.74778 1.19655 0
M  V30 3935 H 361.154 1.53646 0.510358 0
M  V30 3936 H 363.146 1.89067 3.57821 0
M  V30 3937 H 361.716 1.03392 2.95006 0
M  V30 3938 H 360.936 3.35715 2.06614 0
M  V30 3939 H 362.224 4.0698 3.05361 0
M  V30 3940 H 361.622 1.86037 5.34235 0
M  V30 3941 H 360.179 2.50275 6.01835 0
M  V30 3942 N 363.613 -0.582584 1.46437 0
M  V30 3943 C 364.861 -1.33814 1.51453 0
M  V30 3944 C 365.182 -1.94277 0.167792 0
M  V30 3945 O 364.452 -1.78566 -0.805677 0
M  V30 3946 H 363.032 -0.496838 0.557818 0
M  V30 3947 H 365.694 -0.682281 1.82568 0
M  V30 3948 H 364.79 -2.14479 2.26728 0
M  V30 3949 N 365.091 -1.34144 -0.827227 0
M  V30 3950 C 366.319 -1.29325 -1.61501 0
M  V30 3951 C 366.734 0.13354 -1.88327 0
M  V30 3952 O 366.091 1.0793 -1.47164 0
M  V30 3953 C 366.142 -2.07746 -2.95844 0
M  V30 3954 O 365.863 -3.4486 -2.70191 0
M  V30 3955 C 367.364 -2.10273 -3.90256 0
M  V30 3956 H 364.584 -0.445069 -0.50215 0
M  V30 3957 H 367.128 -1.76693 -1.02955 0
M  V30 3958 H 365.283 -1.6403 -3.5096 0
M  V30 3959 H 365.697 -3.85345 -3.55822 0
M  V30 3960 H 367.171 -2.69575 -4.81698 0
M  V30 3961 H 367.648 -1.096 -4.25305 0
M  V30 3962 H 368.254 -2.54059 -3.41078 0
M  V30 3963 N 366.569 1.04691 -1.17803 0
M  V30 3964 C 367.501 2.12571 -0.857097 0
M  V30 3965 C 368.514 1.62174 0.142647 0
M  V30 3966 O 369.703 1.78301 -0.0843387 0
M  V30 3967 C 366.803 3.37915 -0.258216 0
M  V30 3968 C 365.976 4.1757 -1.30207 0
M  V30 3969 C 365.035 5.2125 -0.720029 0
M  V30 3970 O 364.061 5.51888 -1.39314 0
M  V30 3971 N 365.263 5.78466 0.485507 0
M  V30 3972 H 368.028 2.40698 -1.78562 0
M  V30 3973 H 365.589 1.20831 -1.07757 0
M  V30 3974 H 367.581 4.04442 0.144584 0
M  V30 3975 H 366.151 3.07281 0.574199 0
M  V30 3976 H 365.371 3.46458 -1.88043 0
M  V30 3977 H 366.659 4.67586 -2.00601 0
M  V30 3978 H 366.057 5.55866 1.05022 0
M  V30 3979 H 364.614 6.4649 0.830307 0
M  V30 3980 N 368.047 0.979072 1.23499 0
M  V30 3981 C 369.458 0.684391 1.73704 0
M  V30 3982 C 369.809 -0.799448 1.79174 0
M  V30 3983 O 368.934 -1.62531 1.42873 0
M  V30 3984 C 369.529 1.23564 3.15464 0
M  V30 3985 C 368.088 0.99063 3.6313 0
M  V30 3986 C 367.235 1.36416 2.41425 0
M  V30 3987 H 370.186 1.15307 1.09041 0
M  V30 3988 H 370.207 0.607417 3.7562 0
M  V30 3989 H 369.719 2.31561 3.1145 0
M  V30 3990 H 367.82 -0.0733136 3.72528 0
M  V30 3991 H 367.933 1.64427 4.5 0
M  V30 3992 H 366.297 0.782616 2.42378 0
M  V30 3993 H 367.08 2.45387 2.40083 0
M  V30 3994 N 369.525 -1.3858 0.750561 0
M  V30 3995 C 370.773 -1.99789 0.30477 0
M  V30 3996 C 371.094 -1.59874 -1.11649 0
M  V30 3997 O 370.364 -0.85417 -1.76297 0
M  V30 3998 H 368.944 -0.738902 0.109694 0
M  V30 3999 H 371.606 -1.69391 0.963983 0
M  V30 4000 H 370.702 -3.09952 0.365499 0
M  V30 4001 N 371.003 -0.499398 -1.49478 0
M  V30 4002 C 372.28 0.108629 -1.95298 0
M  V30 4003 C 372.66 1.54282 -1.44084 0
M  V30 4004 O 372.008 2.18944 -0.653908 0
M  V30 4005 C 372.218 0.0229111 -3.48992 0
M  V30 4006 C 373.566 0.197643 -4.2414 0
M  V30 4007 O 374.59 0.0981735 -3.56065 0
M  V30 4008 O 373.449 0.401669 -5.45022 0
M  V30 4009 H 370.543 0.096181 -0.821388 0
M  V30 4010 H 373.089 -0.561822 -1.6013 0
M  V30 4011 H 371.861 -0.977321 -3.78899 0
M  V30 4012 H 371.484 0.733579 -3.90774 0
M  V30 4013 N 372.481 1.55866 -0.233164 0
M  V30 4014 C 373.73 1.97779 0.39579 0
M  V30 4015 C 374.043 1.12419 1.60066 0
M  V30 4016 O 375.249 1.44283 2.29988 0
M  V30 4017 C 373.705 3.5188 0.755556 0
M  V30 4018 C 373.313 4.45959 -0.427152 0
M  V30 4019 C 375.057 4.02479 1.34946 0
M  V30 4020 C 372.964 5.91383 -0.0443043 0
M  V30 4021 H 371.894 0.738592 0.15165 0
M  V30 4022 H 374.545 1.80486 -0.331212 0
M  V30 4023 H 372.927 3.64816 1.5403 0
M  V30 4024 H 374.101 4.44776 -1.20462 0
M  V30 4025 H 372.416 4.05765 -0.935068 0
M  V30 4026 H 375.013 5.08637 1.649 0
M  V30 4027 H 375.356 3.49014 2.26925 0
M  V30 4028 H 375.889 3.92813 0.62791 0
M  V30 4029 H 372.628 6.48857 -0.930874 0
M  V30 4030 H 372.148 5.95734 0.697238 0
M  V30 4031 H 373.827 6.45893 0.378334 0
M  V30 4032 N 373.959 -0.0401083 1.57549 0
M  V30 4033 C 374.889 -1.04384 2.08869 0
M  V30 4034 C 375.87 -1.38407 0.988817 0
M  V30 4035 O 377.055 -1.47483 1.26342 0
M  V30 4036 C 374.185 -2.34808 2.55895 0
M  V30 4037 C 373.139 -2.15057 3.70047 0
M  V30 4038 C 372.465 -3.51145 4.03239 0
M  V30 4039 C 373.765 -1.54576 4.98902 0
M  V30 4040 H 375.459 -0.616666 2.92981 0
M  V30 4041 H 373.005 -0.295184 1.40942 0
M  V30 4042 H 374.958 -3.05346 2.90417 0
M  V30 4043 H 373.682 -2.79565 1.68853 0
M  V30 4044 H 372.341 -1.46954 3.35857 0
M  V30 4045 H 371.989 -3.93529 3.13279 0
M  V30 4046 H 371.689 -3.38758 4.80122 0
M  V30 4047 H 373.213 -4.23062 4.40285 0
M  V30 4048 H 374.627 -2.15017 5.31451 0
M  V30 4049 H 373.024 -1.52796 5.80322 0
M  V30 4050 H 374.094 -0.51039 4.82206 0
M  V30 4051 N 375.437 -1.54477 -0.31217 0
M  V30 4052 C 376.848 -1.64344 -0.885891 0
M  V30 4053 C 377.199 -0.54485 -1.88483 0
M  V30 4054 O 376.324 0.320387 -2.14015 0
M  V30 4055 C 376.919 -2.97908 -1.61357 0
M  V30 4056 C 375.478 -3.09933 -2.13585 0
M  V30 4057 C 374.625 -2.59971 -0.964897 0
M  V30 4058 H 377.576 -1.58448 -0.0894528 0
M  V30 4059 H 377.597 -2.88706 -2.47848 0
M  V30 4060 H 377.109 -3.77845 -0.886277 0
M  V30 4061 H 375.21 -2.34694 -2.89395 0
M  V30 4062 H 375.323 -4.15916 -2.37804 0
M  V30 4063 H 373.687 -2.16147 -1.34731 0
M  V30 4064 H 374.47 -3.42376 -0.251742 0
M  V30 4065 N 376.915 0.57481 -1.46744 0
M  V30 4066 C 377.863 1.70435 -1.58286 0
M  V30 4067 C 378.857 1.63287 -0.450956 0
M  V30 4068 O 380.063 1.68685 -0.628121 0
M  V30 4069 H 376.438 0.56364 -0.497809 0
M  V30 4070 H 378.409 1.57833 -2.53242 0
M  V30 4071 C 377.158 3.08815 -1.59776 0
M  V30 4072 H 376.481 3.1499 -2.46214 0
M  V30 4073 H 377.921 3.87588 -1.71905 0
M  V30 4074 C 376.38 3.35301 -0.327812 0
M  V30 4075 O 376.91 3.97511 0.57861 0
M  V30 4076 N 375.116 2.89816 -0.213274 0
M  V30 4077 H 374.663 2.39371 -0.951798 0
M  V30 4078 H 374.621 3.0791 0.63553 0
M  V30 4079 N 378.394 1.34581 0.820102 0
M  V30 4080 C 379.357 1.2628 1.91275 0
M  V30 4081 C 380.357 0.177344 1.59819 0
M  V30 4082 O 381.547 0.430156 1.68806 0
M  V30 4083 C 378.679 0.950327 3.27386 0
M  V30 4084 H 379.872 2.23421 2.00057 0
M  V30 4085 H 377.425 1.1891 1.0144 0
M  V30 4086 H 378.16 -0.0177938 3.24295 0
M  V30 4087 H 377.945 1.73549 3.51601 0
M  V30 4088 H 379.435 0.917492 4.07396 0
M  V30 4089 N 379.872 -1.04064 1.18357 0
M  V30 4090 C 381.149 -1.74252 0.888581 0
M  V30 4091 C 381.529 -2.02138 -0.60856 0
M  V30 4092 O 380.877 -1.66656 -1.56327 0
M  V30 4093 C 381.087 -3.0277 1.73584 0
M  V30 4094 C 382.435 -3.76506 1.96286 0
M  V30 4095 O 383.459 -3.12668 1.70637 0
M  V30 4096 O 382.318 -4.91243 2.39464 0
M  V30 4097 H 379.412 -0.758271 0.330082 0
M  V30 4098 H 381.958 -1.1013 1.2911 0
M  V30 4099 H 380.73 -2.78299 2.75073 0
M  V30 4100 H 380.353 -3.74631 1.33183 0
M  V30 4101 N 381.35 -0.985608 -1.22978 0
M  V30 4102 C 382.26 -0.538548 -2.28335 0
M  V30 4103 C 383.276 0.409163 -1.69121 0
M  V30 4104 O 384.452 0.277797 -1.99475 0
M  V30 4105 C 381.517 0.146867 -3.46389 0
M  V30 4106 C 380.578 -0.842896 -4.20944 0
M  V30 4107 C 379.811 -0.190095 -5.33361 0
M  V30 4108 O 380.034 1.01767 -5.61248 0
M  V30 4109 O 378.968 -0.891289 -5.95264 0
M  V30 4110 H 382.794 -1.41487 -2.68729 0
M  V30 4111 H 380.379 -0.753495 -1.29007 0
M  V30 4112 H 382.261 0.531125 -4.1804 0
M  V30 4113 H 380.936 0.997871 -3.07935 0
M  V30 4114 H 379.843 -1.27795 -3.51595 0
M  V30 4115 H 381.176 -1.66287 -4.6326 0
M  V30 4116 N 382.828 1.3818 -0.7579 0
M  V30 4117 C 384.056 2.04301 -0.326937 0
M  V30 4118 C 384.471 1.57163 1.0462 0
M  V30 4119 O 383.828 0.746626 1.66529 0
M  V30 4120 C 383.879 3.59846 -0.345363 0
M  V30 4121 O 383.6 4.05256 -1.66432 0
M  V30 4122 C 385.101 4.4319 0.098927 0
M  V30 4123 H 382.321 0.656443 -0.139012 0
M  V30 4124 H 384.865 1.76786 -1.02796 0
M  V30 4125 H 383.02 3.86182 0.306955 0
M  V30 4126 H 383.434 4.99709 -1.59345 0
M  V30 4127 H 384.908 5.51989 0.0348745 0
M  V30 4128 H 385.385 4.23947 1.14741 0
M  V30 4129 H 385.991 4.22051 -0.52468 0
M  V30 4130 N 384.306 0.507319 1.49211 0
M  V30 4131 C 385.552 -0.0269732 2.03382 0
M  V30 4132 C 385.907 -1.34111 1.37957 0
M  V30 4133 O 385.2 -1.84733 0.508351 0
M  V30 4134 C 385.394 -0.229513 3.56662 0
M  V30 4135 C 385.223 1.06344 4.36945 0
M  V30 4136 C 383.993 1.617 4.78729 0
M  V30 4137 C 386.191 1.96833 4.75143 0
M  V30 4138 N 384.173 2.8552 5.43463 0
M  V30 4139 C 385.544 3.0523 5.39661 0
M  V30 4140 C 387.599 1.97434 4.57082 0
M  V30 4141 C 386.302 4.14265 5.88028 0
M  V30 4142 C 388.328 3.05448 5.06414 0
M  V30 4143 C 387.69 4.12564 5.70938 0
M  V30 4144 H 383.789 0.0310673 0.781383 0
M  V30 4145 H 386.373 0.683579 1.82305 0
M  V30 4146 H 384.544 -0.909127 3.7761 0
M  V30 4147 H 386.276 -0.761377 3.97473 0
M  V30 4148 H 383.031 1.16132 4.59141 0
M  V30 4149 H 383.455 3.48499 5.80412 0
M  V30 4150 H 388.097 1.15924 4.06597 0
M  V30 4151 H 385.815 4.96569 6.3753 0
M  V30 4152 H 389.401 3.06941 4.94246 0
M  V30 4153 H 388.281 4.94767 6.0842 0
M  V30 4154 N 385.784 -1.5574 0.241426 0
M  V30 4155 C 387.014 -2.02913 -0.38857 0
M  V30 4156 C 387.422 -1.12014 -1.52478 0
M  V30 4157 O 386.765 -0.125903 -1.83268 0
M  V30 4158 C 386.827 -3.4636 -0.963075 0
M  V30 4159 C 386.491 -4.56982 0.0401916 0
M  V30 4160 C 387.488 -5.12941 0.847766 0
M  V30 4161 C 385.173 -5.0203 0.164699 0
M  V30 4162 C 387.167 -6.12437 1.76636 0
M  V30 4163 C 384.854 -6.01358 1.0868 0
M  V30 4164 C 385.852 -6.5644 1.88616 0
M  V30 4165 O 385.54 -7.53831 2.79273 0
M  V30 4166 H 385.272 -0.668983 -0.0971452 0
M  V30 4167 H 387.826 -2.02198 0.361248 0
M  V30 4168 H 386.056 -3.44206 -1.76235 0
M  V30 4169 H 387.745 -3.77065 -1.50257 0
M  V30 4170 H 388.511 -4.78974 0.762133 0
M  V30 4171 H 384.39 -4.58824 -0.447411 0
M  V30 4172 H 387.934 -6.55355 2.39071 0
M  V30 4173 H 383.831 -6.34746 1.17338 0
M  V30 4174 H 384.599 -7.71428 2.73572 0
M  V30 4175 N 387.262 0.0317525 -1.57568 0
M  V30 4176 C 388.192 1.03274 -2.0942 0
M  V30 4177 C 389.173 1.3788 -0.996143 0
M  V30 4178 O 390.358 1.46811 -1.27122 0
M  V30 4179 C 387.488 2.33448 -2.57137 0
M  V30 4180 C 386.442 2.13091 -3.71182 0
M  V30 4181 C 385.768 3.49001 -4.05095 0
M  V30 4182 C 387.068 1.51928 -4.99715 0
M  V30 4183 H 388.762 0.60112 -2.93303 0
M  V30 4184 H 386.308 0.287705 -1.41097 0
M  V30 4185 H 388.261 3.03802 -2.92032 0
M  V30 4186 H 386.985 2.78665 -1.70333 0
M  V30 4187 H 385.644 1.45171 -3.36632 0
M  V30 4188 H 385.292 3.91862 -3.15362 0
M  V30 4189 H 384.992 3.36207 -4.81911 0
M  V30 4190 H 386.516 4.20721 -4.42522 0
M  V30 4191 H 387.93 2.12196 -5.32584 0
M  V30 4192 H 386.327 1.49716 -5.81124 0
M  V30 4193 H 387.397 0.484811 -4.8247 0
M  V30 4194 N 388.74 1.54641 0.303973 0
M  V30 4195 C 390.156 1.45788 0.649463 0
M  V30 4196 C 390.356 0.64666 1.90842 0
M  V30 4197 O 389.412 0.153183 2.52035 0
M  V30 4198 C 390.725 2.89718 0.805227 0
M  V30 4199 C 392.273 2.99742 0.901305 0
M  V30 4200 C 392.748 4.44863 1.08909 0
M  V30 4201 N 394.239 4.48559 1.15536 0
M  V30 4202 C 394.974 5.58026 1.3189 0
M  V30 4203 N 394.47 6.77422 1.45161 0
M  V30 4204 N 396.263 5.45708 1.34755 0
M  V30 4205 H 388.414 2.05854 -0.523237 0
M  V30 4206 H 390.677 0.932186 -0.172431 0
M  V30 4207 H 390.383 3.51666 -0.0489108 0
M  V30 4208 H 390.257 3.36964 1.69513 0
M  V30 4209 H 392.644 2.3791 1.74593 0
M  V30 4210 H 392.725 2.55797 -0.0125531 0
M  V30 4211 H 392.369 5.07288 0.249241 0
M  V30 4212 H 392.299 4.86436 2.01713 0
M  V30 4213 H 394.79 3.6254 1.06646 0
M  V30 4214 H 395.103 7.56604 1.57387 0
M  V30 4215 H 393.448 6.80292 1.42223 0
M  V30 4216 H 396.639 4.51378 1.23996 0
M  V30 4217 H 396.812 6.3107 1.47157 0
M  V30 4218 N 390.218 -0.567019 1.47046 0
M  V30 4219 C 391.181 -1.65696 1.58359 0
M  V30 4220 C 392.181 -1.54097 0.459441 0
M  V30 4221 O 393.371 -1.58432 0.724225 0
M  V30 4222 C 390.503 -3.05197 1.51879 0
M  V30 4223 H 391.696 -1.57019 2.5551 0
M  V30 4224 H 389.249 -0.786148 1.3509 0
M  V30 4225 H 389.984 -3.19417 0.560673 0
M  V30 4226 H 389.769 -3.15025 2.33455 0
M  V30 4227 H 391.259 -3.84511 1.62913 0
M  V30 4228 N 391.696 -1.35014 -0.812953 0
M  V30 4229 C 392.924 -1.31031 -1.6012 0
M  V30 4230 C 393.339 0.113558 -1.88458 0
M  V30 4231 O 392.696 1.06363 -1.48301 0
M  V30 4232 C 392.747 -2.10872 -2.93624 0
M  V30 4233 O 392.468 -3.47706 -2.66518 0
M  V30 4234 C 393.969 -2.14401 -3.88004 0
M  V30 4235 H 391.189 -0.45037 -0.497401 0
M  V30 4236 H 393.733 -1.77775 -1.01076 0
M  V30 4237 H 391.888 -1.67744 -3.492 0
M  V30 4238 H 392.302 -3.89097 -3.51715 0
M  V30 4239 H 393.776 -2.74669 -4.78812 0
M  V30 4240 H 394.253 -1.14105 -4.24119 0
M  V30 4241 H 394.859 -2.57662 -3.38364 0
M  V30 4242 N 393.175 1.03435 -1.18907 0
M  V30 4243 C 394.105 2.13503 -0.945448 0
M  V30 4244 C 395.086 1.69682 0.119189 0
M  V30 4245 O 396.271 1.94169 -0.034707 0
M  V30 4246 C 393.401 3.44004 -0.477316 0
M  V30 4247 C 392.355 4.0148 -1.48316 0
M  V30 4248 C 391.681 5.27537 -0.872311 0
M  V30 4249 C 392.981 4.36921 -2.86177 0
M  V30 4250 H 394.675 2.34141 -1.86597 0
M  V30 4251 H 392.221 1.12523 -0.898584 0
M  V30 4252 H 394.174 4.20372 -0.294204 0
M  V30 4253 H 392.898 3.23072 0.478786 0
M  V30 4254 H 391.557 3.27201 -1.65332 0
M  V30 4255 H 391.205 5.02917 0.0911752 0
M  V30 4256 H 390.905 5.66954 -1.54393 0
M  V30 4257 H 392.429 6.06576 -0.699871 0
M  V30 4258 H 393.843 5.04248 -2.72776 0
M  V30 4259 H 392.24 4.87405 -3.50081 0
M  V30 4260 H 393.31 3.46466 -3.39248 0
M  V30 4261 N 394.653 0.992116 1.22453 0
M  V30 4262 C 395.93 0.583508 1.86694 0
M  V30 4263 C 396.31 -0.9392 1.89056 0
M  V30 4264 O 395.658 -1.82081 1.38053 0
M  V30 4265 C 395.868 1.20304 3.2761 0
M  V30 4266 C 397.216 1.30308 4.0411 0
M  V30 4267 O 398.24 1.15737 3.36873 0
M  V30 4268 O 397.099 1.53615 5.24466 0
M  V30 4269 H 394.193 0.198129 0.802916 0
M  V30 4270 H 396.739 1.08794 1.30238 0
M  V30 4271 H 395.511 2.24461 3.2052 0
M  V30 4272 H 395.134 0.684144 3.9167 0
M  V30 4273 N 396.131 -1.37776 0.765217 0
M  V30 4274 C 397.377 -2.00145 0.327072 0
M  V30 4275 C 397.71 -1.60607 -1.09175 0
M  V30 4276 O 396.985 -0.849127 -1.74986 0
M  V30 4277 C 397.268 -3.57109 0.46319 0
M  V30 4278 C 397.121 -4.06576 1.92395 0
M  V30 4279 C 398.44 -4.39888 -0.136473 0
M  V30 4280 H 395.559 -0.727113 0.120316 0
M  V30 4281 H 398.201 -1.63549 0.967039 0
M  V30 4282 H 396.351 -3.88414 -0.0816358 0
M  V30 4283 H 398.023 -3.85864 2.52798 0
M  V30 4284 H 396.266 -3.59011 2.43503 0
M  V30 4285 H 396.937 -5.15639 1.97028 0
M  V30 4286 H 399.413 -4.14803 0.328317 0
M  V30 4287 H 398.289 -5.48899 -0.0110582 0
M  V30 4288 H 398.55 -4.24758 -1.22608 0
M  V30 4289 N 397.609 -0.515225 -1.4894 0
M  V30 4290 C 398.855 0.0242508 -2.02785 0
M  V30 4291 C 399.188 1.35323 -1.39289 0
M  V30 4292 O 398.463 1.87041 -0.533469 0
M  V30 4293 C 398.746 0.16184 -3.59736 0
M  V30 4294 C 398.599 -1.19127 -4.33738 0
M  V30 4295 C 399.918 0.895719 -4.30888 0
M  V30 4296 H 397.037 0.00733914 -0.736963 0
M  V30 4297 H 399.679 -0.669395 -1.77818 0
M  V30 4298 H 397.829 0.752624 -3.8114 0
M  V30 4299 H 399.501 -1.82202 -4.23792 0
M  V30 4300 H 397.744 -1.77695 -3.95736 0
M  V30 4301 H 398.415 -1.04815 -5.41957 0
M  V30 4302 H 400.891 0.394528 -4.14225 0
M  V30 4303 H 399.767 0.960859 -5.40425 0
M  V30 4304 H 400.028 1.9427 -3.97129 0
M  V30 4305 N 399.087 1.5561 -0.249682 0
M  V30 4306 C 400.05 2.20217 0.635394 0
M  V30 4307 C 401.05 1.17227 1.10066 0
M  V30 4308 O 402.24 1.42292 1.00492 0
M  V30 4309 C 399.372 2.84794 1.87363 0
M  V30 4310 H 400.565 2.99814 0.0716752 0
M  V30 4311 H 398.118 1.563 -0.000153234 0
M  V30 4312 H 398.853 2.09142 2.47851 0
M  V30 4313 H 398.638 3.60241 1.5482 0
M  V30 4314 H 400.128 3.3423 2.5036 0
M  V30 4315 N 400.565 -0.0233959 1.57583 0
M  V30 4316 C 401.813 -0.711654 1.89156 0
M  V30 4317 C 402.134 -1.75591 0.848096 0
M  V30 4318 O 401.404 -1.95547 -0.117566 0
M  V30 4319 H 399.984 -0.265835 0.698098 0
M  V30 4320 H 402.646 0.0119948 1.94896 0
M  V30 4321 H 401.742 -1.19766 2.88206 0
M  V30 4322 N 402.043 -1.548 -0.295768 0
M  V30 4323 C 402.953 -1.89177 -1.38742 0
M  V30 4324 C 403.969 -0.786481 -1.55211 0
M  V30 4325 O 405.145 -1.08344 -1.69775 0
M  V30 4326 C 402.21 -2.13663 -2.73036 0
M  V30 4327 C 401.271 -3.37349 -2.65508 0
M  V30 4328 C 400.504 -3.60658 -3.93398 0
M  V30 4329 O 400.727 -2.86882 -4.93006 0
M  V30 4330 O 399.661 -4.54179 -3.94975 0
M  V30 4331 H 403.487 -2.82059 -1.12589 0
M  V30 4332 H 401.072 -1.41056 -0.492295 0
M  V30 4333 H 402.954 -2.3094 -3.52484 0
M  V30 4334 H 401.629 -1.23967 -2.99022 0
M  V30 4335 H 400.536 -3.25431 -1.84514 0
M  V30 4336 H 401.869 -4.27192 -2.44474 0
M  V30 4337 N 403.521 0.559213 -1.47345 0
M  V30 4338 C 404.484 1.64854 -1.59235 0
M  V30 4339 C 405.484 1.53851 -0.467607 0
M  V30 4340 O 406.674 1.58045 -0.732617 0
M  V30 4341 C 403.806 3.04388 -1.53496 0
M  V30 4342 H 404.999 1.55662 -2.56339 0
M  V30 4343 H 402.552 0.778973 -1.35505 0
M  V30 4344 H 403.287 3.19115 -0.577604 0
M  V30 4345 H 403.072 3.13783 -2.35123 0
M  V30 4346 H 404.562 3.83642 -1.6495 0
M  V30 4347 N 404.999 1.35443 0.805782 0
M  V30 4348 C 405.962 1.28301 1.89925 0
M  V30 4349 C 406.962 0.194285 1.59622 0
M  V30 4350 O 408.152 0.448036 1.6834 0
M  V30 4351 C 405.284 0.984997 3.2636 0
M  V30 4352 H 406.477 2.2553 1.97677 0
M  V30 4353 H 404.03 1.19979 1.00173 0
M  V30 4354 H 404.765 0.016603 3.24296 0
M  V30 4355 H 404.55 1.77269 3.4974 0
M  V30 4356 H 406.04 0.960651 4.064 0
M  V30 4357 N 406.477 -1.02803 1.19454 0
M  V30 4358 C 407.725 -1.75869 0.995722 0
M  V30 4359 C 408.046 -1.89138 -0.474543 0
M  V30 4360 O 407.316 -1.42558 -1.34366 0
M  V30 4361 H 405.896 -0.651511 0.365435 0
M  V30 4362 H 408.558 -1.24004 1.50363 0
M  V30 4363 H 407.654 -2.76661 1.44447 0
M  V30 4364 N 407.956 -0.998596 -1.21925 0
M  V30 4365 C 408.886 -0.573688 -2.26343 0
M  V30 4366 C 409.867 0.402296 -1.65274 0
M  V30 4367 O 411.052 0.291683 -1.91997 0
M  V30 4368 C 408.182 0.106839 -3.47136 0
M  V30 4369 C 407.136 -0.788269 -4.20678 0
M  V30 4370 C 406.462 0.0254927 -5.34694 0
M  V30 4371 C 407.762 -2.08784 -4.78755 0
M  V30 4372 H 409.456 -1.44651 -2.62138 0
M  V30 4373 H 407.002 -0.696975 -1.26009 0
M  V30 4374 H 408.955 0.415531 -4.19346 0
M  V30 4375 H 407.679 1.01424 -3.10452 0
M  V30 4376 H 406.338 -1.08069 -3.50309 0
M  V30 4377 H 405.986 0.933989 -4.94253 0
M  V30 4378 H 405.686 -0.570437 -5.84825 0
M  V30 4379 H 407.21 0.328147 -6.09718 0
M  V30 4380 H 408.624 -1.84272 -5.42878 0
M  V30 4381 H 407.021 -2.63307 -5.39249 0
M  V30 4382 H 408.091 -2.76284 -3.98491 0
M  V30 4383 N 409.434 1.37368 -0.772513 0
M  V30 4384 C 410.659 2.0447 -0.347386 0
M  V30 4385 C 411.084 1.57882 1.0225 0
M  V30 4386 O 410.442 0.73941 1.65537 0
M  V30 4387 C 410.49 3.58369 -0.400479 0
M  V30 4388 O 409.594 4.0803 0.598789 0
M  V30 4389 H 408.935 0.646773 -0.15027 0
M  V30 4390 H 411.465 1.75667 -1.04892 0
M  V30 4391 H 411.475 4.07183 -0.258045 0
M  V30 4392 H 410.15 3.91633 -1.39986 0
M  V30 4393 H 408.727 3.70534 0.419411 0
M  V30 4394 N 410.912 0.523116 1.48665 0
M  V30 4395 C 412.152 -0.0115588 2.04397 0
M  V30 4396 C 412.516 -1.32225 1.39214 0
M  V30 4397 O 413.717 -1.94253 1.85793 0
M  V30 4398 C 411.988 -0.138119 3.57133 0
M  V30 4399 S 413.547 -0.623849 4.34343 0
M  V30 4400 H 410.365 0.00877706 0.710946 0
M  V30 4401 H 412.967 0.702116 1.82457 0
M  V30 4402 H 411.671 0.820748 4.02109 0
M  V30 4403 H 411.202 -0.876377 3.83514 0
M  V30 4404 H 413.217 -1.8895 4.58816 0
M  V30 4405 N 412.39 -1.55475 0.257931 0
M  V30 4406 C 413.806 -1.59307 -0.0966563 0
M  V30 4407 C 414.006 -1.27514 -1.5602 0
M  V30 4408 O 413.062 -1.02774 -2.30637 0
M  V30 4409 C 414.375 -2.99552 0.262481 0
M  V30 4410 C 415.923 -3.1231 0.207683 0
M  V30 4411 C 416.398 -4.54793 0.541012 0
M  V30 4412 N 417.889 -4.6058 0.491921 0
M  V30 4413 C 418.624 -5.68825 0.722857 0
M  V30 4414 N 418.12 -6.85287 1.0175 0
M  V30 4415 N 419.913 -5.58296 0.652815 0
M  V30 4416 H 412.064 -1.74409 1.21224 0
M  V30 4417 H 414.327 -0.812424 0.48854 0
M  V30 4418 H 414.033 -3.27593 1.27967 0
M  V30 4419 H 413.907 -3.75019 -0.40508 0
M  V30 4420 H 416.294 -2.84044 -0.800195 0
M  V30 4421 H 416.375 -2.39095 0.909255 0
M  V30 4422 H 416.019 -4.83783 1.5465 0
M  V30 4423 H 415.949 -5.26285 -0.18216 0
M  V30 4424 H 418.44 -3.7691 0.273366 0
M  V30 4425 H 418.753 -7.63725 1.18084 0
M  V30 4426 H 417.098 -6.86945 1.05509 0
M  V30 4427 H 420.289 -4.66189 0.422592 0
M  V30 4428 H 420.462 -6.42582 0.836182 0
M  V30 4429 N 413.868 0.0150385 -1.57593 0
M  V30 4430 C 415.114 0.704043 -1.90187 0
M  V30 4431 C 415.447 1.74249 -0.857366 0
M  V30 4432 O 414.722 1.94092 0.125843 0
M  V30 4433 C 415.005 1.36087 -3.33395 0
M  V30 4434 C 414.858 0.334981 -4.48551 0
M  V30 4435 C 416.177 2.29112 -3.7576 0
M  V30 4436 H 413.296 0.254475 -0.691673 0
M  V30 4437 H 415.938 -0.0331678 -1.89971 0
M  V30 4438 H 414.088 1.98922 -3.3371 0
M  V30 4439 H 415.76 -0.292534 -4.60372 0
M  V30 4440 H 414.003 -0.344325 -4.32431 0
M  V30 4441 H 414.674 0.833316 -5.45674 0
M  V30 4442 H 417.15 1.76308 -3.76902 0
M  V30 4443 H 416.026 2.72043 -4.76743 0
M  V30 4444 H 416.287 3.16385 -3.08793 0
M  V30 4445 N 415.346 1.54954 0.287554 0
M  V30 4446 C 416.293 1.86834 1.35505 0
M  V30 4447 C 417.263 0.718452 1.49758 0
M  V30 4448 O 418.448 0.968358 1.644 0
M  V30 4449 C 415.588 2.13303 2.71286 0
M  V30 4450 C 414.701 3.40883 2.65373 0
M  V30 4451 C 413.836 3.57125 3.93236 0
M  V30 4452 C 412.875 4.78449 3.81776 0
M  V30 4453 N 412.012 4.91426 5.01443 0
M  V30 4454 H 416.852 2.77889 1.07619 0
M  V30 4455 H 414.389 1.37593 0.520241 0
M  V30 4456 H 416.347 2.26646 3.50267 0
M  V30 4457 H 414.977 1.25499 2.97405 0
M  V30 4458 H 414.029 3.36088 1.78182 0
M  V30 4459 H 415.341 4.29993 2.52799 0
M  V30 4460 H 414.495 3.70207 4.80658 0
M  V30 4461 H 413.234 2.66173 4.0866 0
M  V30 4462 H 412.239 4.65386 2.92738 0
M  V30 4463 H 413.464 5.70822 3.67884 0
M  V30 4464 H 411.41 4.03401 5.17304 0
M  V30 4465 H 411.327 5.74559 4.91343 0
M  V30 4466 H 412.595 5.08879 5.90477 0
M  V30 4467 N 416.824 -0.551391 1.4764 0
M  V30 4468 C 417.774 -1.65362 1.56969 0
M  V30 4469 C 418.758 -1.55098 0.428189 0
M  V30 4470 O 419.95 -1.63481 0.678441 0
M  V30 4471 C 417.079 -3.04129 1.59249 0
M  V30 4472 C 416.165 -3.19576 2.78804 0
M  V30 4473 N 416.556 -3.05067 4.03445 0
M  V30 4474 C 414.854 -3.50588 2.75688 0
M  V30 4475 C 415.555 -3.2336 4.83543 0
M  V30 4476 N 414.531 -3.4996 4.15968 0
M  V30 4477 H 418.333 -1.52722 2.51104 0
M  V30 4478 H 415.847 -0.756303 1.43714 0
M  V30 4479 H 417.844 -3.83278 1.64024 0
M  V30 4480 H 416.504 -3.17877 0.662148 0
M  V30 4481 H 417.515 -2.82273 4.34215 0
M  V30 4482 H 414.192 -3.70827 1.91817 0
M  V30 4483 H 415.582 -3.17061 5.92387 0
M  V30 4484 N 418.302 -1.35869 -0.798587 0
M  V30 4485 C 419.527 -1.32883 -1.59238 0
M  V30 4486 C 419.952 0.0894587 -1.87887 0
M  V30 4487 O 419.31 1.05869 -1.47178 0
M  V30 4488 C 419.358 -2.14892 -2.89575 0
M  V30 4489 O 418.462 -1.53512 -3.82763 0
M  V30 4490 H 417.803 -0.455236 -0.48338 0
M  V30 4491 H 420.333 -1.79024 -0.990539 0
M  V30 4492 H 420.343 -2.27139 -3.38928 0
M  V30 4493 H 419.018 -3.17998 -2.68049 0
M  V30 4494 H 417.595 -1.50153 -3.41334 0
M  V30 4495 N 419.78 1.02168 -1.19998 0
M  V30 4496 C 421.005 1.79833 -1.03319 0
M  V30 4497 C 421.43 1.83504 0.413281 0
M  V30 4498 O 420.788 1.26635 1.29743 0
M  V30 4499 C 420.836 3.22396 -1.61533 0
M  V30 4500 O 419.94 4.03555 -0.849519 0
M  V30 4501 H 419.281 0.554872 -0.364709 0
M  V30 4502 H 421.811 1.28542 -1.59179 0
M  V30 4503 H 421.821 3.73124 -1.65054 0
M  V30 4504 H 420.496 3.19039 -2.66809 0
M  V30 4505 H 419.073 3.62169 -0.888129 0
M  V30 4506 N 421.258 1.00505 1.21394 0
M  V30 4507 C 422.188 0.585684 2.26035 0
M  V30 4508 C 423.169 -0.393525 1.65485 0
M  V30 4509 O 424.354 -0.281497 1.92149 0
M  V30 4510 C 421.484 -0.0884283 3.47187 0
M  V30 4511 C 420.438 0.810567 4.20254 0
M  V30 4512 C 419.764 0.00286382 5.347 0
M  V30 4513 C 421.064 2.1132 4.77641 0
M  V30 4514 H 422.758 1.46039 2.61368 0
M  V30 4515 H 420.304 0.703648 1.25638 0
M  V30 4516 H 422.257 -0.393286 4.19561 0
M  V30 4517 H 420.981 -0.997766 3.10986 0
M  V30 4518 H 419.64 1.09925 3.49731 0
M  V30 4519 H 419.288 -0.907765 4.94741 0
M  V30 4520 H 418.988 0.601444 5.84514 0
M  V30 4521 H 420.512 -0.295808 6.09883 0
M  V30 4522 H 421.926 1.87148 5.41893 0
M  V30 4523 H 420.323 2.66164 5.37845 0
M  V30 4524 H 421.393 2.78393 3.9702 0
M  V30 4525 N 422.737 -1.36956 0.779787 0
M  V30 4526 C 423.647 -2.33965 0.172491 0
M  V30 4527 C 424.663 -1.60574 -0.670222 0
M  V30 4528 O 425.839 -1.92617 -0.588263 0
M  V30 4529 C 422.904 -3.39761 -0.690173 0
M  V30 4530 C 421.965 -4.28964 0.169924 0
M  V30 4531 C 421.198 -5.29707 -0.651662 0
M  V30 4532 O 421.421 -5.38238 -1.88827 0
M  V30 4533 O 420.355 -6.01873 -0.0566264 0
M  V30 4534 H 424.181 -2.87647 0.974321 0
M  V30 4535 H 421.766 -1.39258 0.541078 0
M  V30 4536 H 423.648 -4.04471 -1.1824 0
M  V30 4537 H 422.323 -2.88394 -1.47006 0
M  V30 4538 H 421.23 -3.67326 0.708696 0
M  V30 4539 H 422.563 -4.83656 0.913085 0
M  V30 4540 N 424.215 -0.530993 -1.48385 0
M  V30 4541 C 425.463 0.00273189 -2.021 0
M  V30 4542 C 425.784 1.34672 -1.41027 0
M  V30 4543 O 425.054 1.8724 -0.576012 0
M  V30 4544 H 423.634 0.00399774 -0.746989 0
M  V30 4545 H 426.296 -0.695054 -1.82085 0
M  V30 4546 H 425.392 0.11031 -3.11905 0
M  V30 4547 N 425.693 1.55336 -0.266172 0
M  V30 4548 C 426.625 2.19544 0.658247 0
M  V30 4549 C 427.638 1.17746 1.12427 0
M  V30 4550 O 428.827 1.44517 1.04772 0
M  V30 4551 C 425.927 2.80032 1.9088 0
M  V30 4552 C 425.1 4.07436 1.59106 0
M  V30 4553 C 424.159 4.52056 2.69317 0
M  V30 4554 O 423.185 5.18023 2.35883 0
M  V30 4555 N 424.387 4.21448 3.99201 0
M  V30 4556 H 427.152 2.99503 0.108754 0
M  V30 4557 H 424.713 1.61667 -0.0869059 0
M  V30 4558 H 426.705 3.06831 2.63888 0
M  V30 4559 H 425.275 2.04119 2.36758 0
M  V30 4560 H 424.495 3.88021 0.695243 0
M  V30 4561 H 425.783 4.90462 1.35367 0
M  V30 4562 H 425.181 3.68528 4.29189 0
M  V30 4563 H 423.738 4.53039 4.68614 0
M  V30 4564 N 427.171 -0.0066808 1.57599 0
M  V30 4565 C 428.448 -0.729586 1.81484 0
M  V30 4566 C 428.828 -1.92359 0.869558 0
M  V30 4567 O 428.176 -2.28348 -0.0832533 0
M  V30 4568 C 428.386 -1.1416 3.29801 0
M  V30 4569 C 429.734 -1.54823 3.95367 0
M  V30 4570 O 430.758 -1.23558 3.34084 0
M  V30 4571 O 429.617 -2.12937 5.03309 0
M  V30 4572 H 426.711 -0.354674 0.747085 0
M  V30 4573 H 429.257 0.0182609 1.6969 0
M  V30 4574 H 428.029 -0.290231 3.90222 0
M  V30 4575 H 427.652 -1.94876 3.46568 0
M  V30 4576 N 428.649 -1.55105 -0.279332 0
M  V30 4577 C 429.898 -1.74618 -1.00952 0
M  V30 4578 C 430.211 -0.551096 -1.87676 0
M  V30 4579 O 431.417 -0.628507 -2.64125 0
M  V30 4580 C 429.873 -3.09025 -1.84476 0
M  V30 4581 C 429.481 -4.36081 -1.0265 0
M  V30 4582 C 431.225 -3.37891 -2.56963 0
M  V30 4583 C 429.132 -5.6153 -1.85576 0
M  V30 4584 H 428.062 -0.650868 -0.38064 0
M  V30 4585 H 430.713 -1.81569 -0.265475 0
M  V30 4586 H 429.095 -2.96095 -2.62952 0
M  V30 4587 H 430.269 -4.59909 -0.286354 0
M  V30 4588 H 428.584 -4.14312 -0.416464 0
M  V30 4589 H 431.181 -4.28822 -3.19399 0
M  V30 4590 H 431.524 -2.57737 -3.26921 0
M  V30 4591 H 432.057 -3.5189 -1.85522 0
M  V30 4592 H 428.796 -6.44413 -1.2005 0
M  V30 4593 H 428.316 -5.41854 -2.57204 0
M  V30 4594 H 429.995 -5.99594 -2.43096 0
M  V30 4595 N 430.127 0.543554 -1.4793 0
M  V30 4596 C 431.373 1.30201 -1.55485 0
M  V30 4597 C 431.706 1.92925 -0.222201 0
M  V30 4598 O 430.981 1.78586 0.77053 0
M  V30 4599 C 431.264 2.40174 -2.68307 0
M  V30 4600 C 431.117 1.8223 -4.11233 0
M  V30 4601 C 432.436 3.42024 -2.76961 0
M  V30 4602 H 429.555 0.472036 -0.565996 0
M  V30 4603 H 432.197 0.606914 -1.80046 0
M  V30 4604 H 430.347 2.99463 -2.47495 0
M  V30 4605 H 432.019 1.27096 -4.43446 0
M  V30 4606 H 430.262 1.12832 -4.18869 0
M  V30 4607 H 430.933 2.61793 -4.85972 0
M  V30 4608 H 433.409 2.92672 -2.95774 0
M  V30 4609 H 432.285 4.16383 -3.57654 0
M  V30 4610 H 432.546 4.0173 -1.84568 0
M  V30 4611 N 431.605 1.3629 0.791371 0
M  V30 4612 C 432.535 1.33137 1.91825 0
M  V30 4613 C 433.516 0.203168 1.68882 0
M  V30 4614 O 434.701 0.400509 1.90025 0
M  V30 4615 C 431.831 1.11793 3.28816 0
M  V30 4616 C 430.785 2.21417 3.66277 0
M  V30 4617 C 430.111 1.85218 5.01596 0
M  V30 4618 C 431.411 3.63489 3.75064 0
M  V30 4619 H 433.105 2.2743 1.9472 0
M  V30 4620 H 430.651 1.09479 0.935437 0
M  V30 4621 H 432.604 1.08222 4.07266 0
M  V30 4622 H 431.328 0.139501 3.26302 0
M  V30 4623 H 429.987 2.2411 2.90121 0
M  V30 4624 H 429.635 0.859544 4.95602 0
M  V30 4625 H 429.335 2.58611 5.27631 0
M  V30 4626 H 430.859 1.832 5.82469 0
M  V30 4627 H 432.273 3.63034 4.43711 0
M  V30 4628 H 430.67 4.35771 4.12582 0
M  V30 4629 H 431.74 3.98536 2.76219 0
M  V30 4630 N 433.083 -1.0153 1.20538 0
M  V30 4631 C 434.313 -1.78487 1.04048 0
M  V30 4632 C 434.721 -1.84631 -0.413292 0
M  V30 4633 O 434.064 -1.29919 -1.29872 0
M  V30 4634 C 434.126 -3.24367 1.55003 0
M  V30 4635 C 433.79 -3.41827 3.0332 0
M  V30 4636 C 434.787 -3.30941 4.00966 0
M  V30 4637 C 432.472 -3.67602 3.42307 0
M  V30 4638 C 434.466 -3.45577 5.35589 0
M  V30 4639 C 432.153 -3.81881 4.77085 0
M  V30 4640 C 433.151 -3.70874 5.73534 0
M  V30 4641 O 432.839 -3.84714 7.05868 0
M  V30 4642 H 432.571 -0.568108 0.366373 0
M  V30 4643 H 435.125 -1.28677 1.60098 0
M  V30 4644 H 433.355 -3.75266 0.933397 0
M  V30 4645 H 435.044 -3.82963 1.34514 0
M  V30 4646 H 435.81 -3.10964 3.72191 0
M  V30 4647 H 431.689 -3.75256 2.67776 0
M  V30 4648 H 435.233 -3.36902 6.10854 0
M  V30 4649 H 431.13 -4.01359 5.0555 0
M  V30 4650 H 431.898 -4.01724 7.13134 0
M  V30 4651 N 434.561 -1.01147 -1.20859 0
M  V30 4652 C 435.807 -0.708598 -1.90658 0
M  V30 4653 C 436.162 0.753069 -1.7705 0
M  V30 4654 O 435.455 1.53952 -1.14059 0
M  V30 4655 C 435.649 -1.0727 -3.40922 0
M  V30 4656 C 435.478 -2.56821 -3.69152 0
M  V30 4657 C 434.248 -3.23524 -3.8815 0
M  V30 4658 C 436.446 -3.54997 -3.72131 0
M  V30 4659 N 434.428 -4.62359 -4.03853 0
M  V30 4660 C 435.799 -4.79371 -3.93196 0
M  V30 4661 C 437.854 -3.49042 -3.55069 0
M  V30 4662 C 436.557 -5.98512 -3.98969 0
M  V30 4663 C 438.583 -4.67579 -3.6211 0
M  V30 4664 C 437.945 -5.9076 -3.83643 0
M  V30 4665 H 434.044 -0.31088 -0.71755 0
M  V30 4666 H 436.628 -1.29526 -1.45366 0
M  V30 4667 H 434.799 -0.51443 -3.84978 0
M  V30 4668 H 436.531 -0.723891 -3.98173 0
M  V30 4669 H 433.286 -2.73958 -3.86321 0
M  V30 4670 H 433.71 -5.34427 -4.15592 0
M  V30 4671 H 438.352 -2.54808 -3.37391 0
M  V30 4672 H 436.07 -6.93132 -4.15444 0
M  V30 4673 H 439.656 -4.64581 -3.50222 0
M  V30 4674 H 438.536 -6.8095 -3.88944 0
M  V30 4675 N 436.039 1.36541 -0.78704 0
M  V30 4676 C 437.287 1.98911 -0.357633 0
M  V30 4677 C 437.608 1.62778 1.07371 0
M  V30 4678 O 436.878 0.900612 1.73971 0
M  V30 4679 H 435.458 0.735734 -0.129246 0
M  V30 4680 H 438.12 1.66776 -1.00855 0
M  V30 4681 H 437.216 3.08874 -0.447549 0
M  V30 4682 N 437.518 0.538854 1.48102 0
M  V30 4683 C 438.766 0.00798599 2.02098 0
M  V30 4684 C 439.087 -1.33922 1.41739 0
M  V30 4685 O 438.357 -1.86932 0.585934 0
M  V30 4686 H 436.937 -3.62179e-05 0.747 0
M  V30 4687 H 439.599 0.7047 1.81714 0
M  V30 4688 H 438.695 -0.0937672 3.11959 0
M  V30 4689 N 438.996 -1.55193 0.274407 0
M  V30 4690 C 440.221 -2.04446 -0.348824 0
M  V30 4691 C 440.646 -1.15149 -1.48735 0
M  V30 4692 O 440.004 -0.149952 -1.80679 0
M  V30 4693 C 440.052 -3.51431 -0.808009 0
M  V30 4694 O 439.156 -3.65225 -1.91531 0
M  V30 4695 H 438.497 -0.66006 -0.0722276 0
M  V30 4696 H 441.027 -2.00481 0.408498 0
M  V30 4697 H 441.037 -3.92781 -1.10395 0
M  V30 4698 H 439.712 -4.15892 0.0249865 0
M  V30 4699 H 438.289 -3.35778 -1.62196 0
M  V30 4700 N 440.474 -0.00167713 -1.576 0
M  V30 4701 C 441.704 0.692754 -1.94639 0
M  V30 4702 C 442.112 1.67744 -0.87513 0
M  V30 4703 O 441.455 1.8305 0.154382 0
M  V30 4704 C 441.517 1.47881 -3.27676 0
M  V30 4705 C 441.181 0.655518 -4.52274 0
M  V30 4706 C 442.178 -0.0575214 -5.19868 0
M  V30 4707 C 439.863 0.600994 -4.98692 0
M  V30 4708 C 441.857 -0.814052 -6.3218 0
M  V30 4709 C 439.544 -0.15926 -6.10892 0
M  V30 4710 C 440.542 -0.865515 -6.77494 0
M  V30 4711 O 440.23 -1.61336 -7.87544 0
M  V30 4712 H 439.962 0.197792 -0.646417 0
M  V30 4713 H 442.516 -0.049423 -2.05341 0
M  V30 4714 H 440.746 2.2655 -3.13388 0
M  V30 4715 H 442.435 2.05874 -3.49816 0
M  V30 4716 H 443.201 -0.0245611 -4.84994 0
M  V30 4717 H 439.08 1.14025 -4.46676 0
M  V30 4718 H 442.624 -1.36584 -6.84098 0
M  V30 4719 H 438.521 -0.194035 -6.45208 0
M  V30 4720 H 439.289 -1.53025 -8.04068 0
M  V30 4721 N 441.952 1.55251 0.271103 0
M  V30 4722 C 443.18 1.79974 1.02064 0
M  V30 4723 C 443.595 0.574003 1.79863 0
M  V30 4724 O 442.952 -0.456962 1.76686 0
M  V30 4725 C 443.003 3.02603 1.97772 0
M  V30 4726 O 442.724 4.20443 1.23124 0
M  V30 4727 C 444.225 3.39944 2.84522 0
M  V30 4728 H 441.445 0.599489 0.301419 0
M  V30 4729 H 443.989 2.02268 0.301313 0
M  V30 4730 H 442.144 2.8243 2.65165 0
M  V30 4731 H 442.558 4.89783 1.87651 0
M  V30 4732 H 444.032 4.28915 3.47471 0
M  V30 4733 H 444.509 2.59432 3.54389 0
M  V30 4734 H 445.115 3.62383 2.22618 0
M  V30 4735 N 443.43 -0.535701 1.48216 0
M  V30 4736 C 444.655 -1.32149 1.59848 0
M  V30 4737 C 445.08 -1.86338 0.256842 0
M  V30 4738 O 444.438 -1.64107 -0.770632 0
M  V30 4739 C 444.486 -2.45224 2.64381 0
M  V30 4740 O 443.59 -3.48093 2.21144 0
M  V30 4741 H 442.931 -0.391634 0.536208 0
M  V30 4742 H 445.461 -0.645202 1.94161 0
M  V30 4743 H 445.471 -2.91491 2.85476 0
M  V30 4744 H 444.146 -2.05143 3.61786 0
M  V30 4745 H 442.723 -3.07984 2.10239 0
M  V30 4746 N 444.908 -1.36708 -0.784132 0
M  V30 4747 C 445.841 -1.25827 -1.90375 0
M  V30 4748 C 446.819 -0.141331 -1.61985 0
M  V30 4749 O 448.003 -0.313389 -1.85877 0
M  V30 4750 C 445.13 -0.942621 -3.25319 0
M  V30 4751 C 444.176 -2.07474 -3.72635 0
M  V30 4752 S 445.009 -3.69317 -3.8777 0
M  V30 4753 C 446.165 -3.39876 -5.25581 0
M  V30 4754 H 446.398 -2.20593 -1.99314 0
M  V30 4755 H 443.931 -1.22186 -0.943926 0
M  V30 4756 H 445.889 -0.767321 -4.03265 0
M  V30 4757 H 444.55 -0.0126566 -3.14097 0
M  V30 4758 H 443.743 -1.80858 -4.70432 0
M  V30 4759 H 443.345 -2.20953 -3.01754 0
M  V30 4760 H 445.637 -2.94097 -6.10339 0
M  V30 4761 H 446.58 -4.36956 -5.57203 0
M  V30 4762 H 446.988 -2.75098 -4.92931 0
M  V30 4763 N 446.386 1.0089 -1.21074 0
M  V30 4764 C 447.634 1.74262 -1.02358 0
M  V30 4765 C 447.955 1.89869 0.444393 0
M  V30 4766 O 447.225 1.44677 1.32081 0
M  V30 4767 H 445.805 0.645615 -0.375754 0
M  V30 4768 H 448.467 1.21596 -1.52317 0
M  V30 4769 H 447.563 2.74328 -1.4883 0
M  V30 4770 N 447.864 1.01787 1.20321 0
M  V30 4771 C 448.794 0.609625 2.25401 0
M  V30 4772 C 449.775 -0.375951 1.65893 0
M  V30 4773 O 450.96 -0.261101 1.92437 0
M  V30 4774 C 448.09 -0.0515995 3.47262 0
M  V30 4775 C 447.044 0.855095 4.19371 0
M  V30 4776 C 446.37 0.0595757 5.34667 0
M  V30 4777 C 447.67 2.16374 4.75373 0
M  V30 4778 H 449.364 1.48803 2.59804 0
M  V30 4779 H 446.91 0.716934 1.24884 0
M  V30 4780 H 448.863 -0.348764 4.19954 0
M  V30 4781 H 447.587 -0.964726 3.12027 0
M  V30 4782 H 446.246 1.13628 3.48546 0
M  V30 4783 H 445.894 -0.85524 4.95676 0
M  V30 4784 H 445.594 0.663406 5.83843 0
M  V30 4785 H 447.118 -0.231105 6.10162 0
M  V30 4786 H 448.532 1.92885 5.39878 0
M  V30 4787 H 446.929 2.71853 5.34991 0
M  V30 4788 H 447.999 2.82589 3.94045 0
M  V30 4789 N 449.342 -1.36122 0.79427 0
M  V30 4790 C 450.591 -1.98361 0.365464 0
M  V30 4791 C 450.904 -1.6374 -1.06997 0
M  V30 4792 O 452.11 -2.19251 -1.60129 0
M  V30 4793 C 450.566 -3.54821 0.602496 0
M  V30 4794 C 450.174 -3.98362 2.04967 0
M  V30 4795 C 451.918 -4.2383 0.238437 0
M  V30 4796 C 449.825 -5.47619 2.2331 0
M  V30 4797 H 448.755 -0.742193 0.13291 0
M  V30 4798 H 451.406 -1.55354 0.976589 0
M  V30 4799 H 449.788 -3.95922 -0.078409 0
M  V30 4800 H 450.962 -3.68447 2.76737 0
M  V30 4801 H 449.277 -3.42206 2.37243 0
M  V30 4802 H 451.874 -5.33529 0.353705 0
M  V30 4803 H 452.217 -4.08264 -0.814006 0
M  V30 4804 H 452.75 -3.88108 0.872769 0
M  V30 4805 H 449.489 -5.68138 3.26955 0
M  V30 4806 H 449.009 -5.79145 1.5605 0
M  V30 4807 H 450.688 -6.13911 2.0426 0
M  V30 4808 N 450.82 -0.546701 -1.47814 0
M  V30 4809 C 451.783 0.196287 -2.28358 0
M  V30 4810 C 452.783 0.852437 -1.36346 0
M  V30 4811 O 453.973 0.709913 -1.59078 0
M  V30 4812 C 451.105 1.28579 -3.15722 0
M  V30 4813 H 452.298 -0.511086 -2.95513 0
M  V30 4814 H 449.851 -0.303248 -1.5333 0
M  V30 4815 H 450.586 2.0259 -2.53235 0
M  V30 4816 H 450.371 0.820229 -3.83425 0
M  V30 4817 H 451.861 1.80793 -3.76435 0
M  V30 4818 N 452.299 1.55045 -0.282633 0
M  V30 4819 C 453.229 2.2579 0.595066 0
M  V30 4820 C 454.21 1.25074 1.15284 0
M  V30 4821 O 455.395 1.5381 1.18559 0
M  V30 4822 C 452.525 2.98472 1.77572 0
M  V30 4823 C 451.479 4.0618 1.34914 0
M  V30 4824 C 450.805 4.66477 2.6135 0
M  V30 4825 C 452.105 5.1996 0.493821 0
M  V30 4826 H 453.799 2.994 0.00505653 0
M  V30 4827 H 451.345 1.44 0.000992001 0
M  V30 4828 H 453.298 3.46677 2.39568 0
M  V30 4829 H 452.022 2.2241 2.39168 0
M  V30 4830 H 450.681 3.58797 0.752338 0
M  V30 4831 H 450.329 3.87074 3.2122 0
M  V30 4832 H 450.029 5.39207 2.33516 0
M  V30 4833 H 451.553 5.17435 3.24181 0
M  V30 4834 H 452.967 5.64172 1.01898 0
M  V30 4835 H 451.364 5.99299 0.310047 0
M  V30 4836 H 452.434 4.82462 -0.485593 0
M  V30 4837 N 453.777 0.010035 1.57597 0
M  V30 4838 C 454.74 -0.963029 2.07986 0
M  V30 4839 C 455.74 -1.26619 0.991173 0
M  V30 4840 O 456.93 -1.2097 1.25347 0
M  V30 4841 C 454.062 -2.2851 2.52974 0
M  V30 4842 H 455.255 -0.526971 2.95234 0
M  V30 4843 H 452.808 -0.237639 1.54483 0
M  V30 4844 H 453.543 -2.76784 1.69 0
M  V30 4845 H 453.328 -2.07824 3.32493 0
M  V30 4846 H 454.818 -2.98294 2.9225 0
M  V30 4847 N 455.255 -1.55392 -0.262866 0
M  V30 4848 C 456.501 -1.76737 -0.99458 0
M  V30 4849 C 456.834 -0.572453 -1.85571 0
M  V30 4850 O 456.109 0.429732 -1.89693 0
M  V30 4851 C 456.392 -3.07824 -1.8686 0
M  V30 4852 C 456.245 -4.3769 -1.03672 0
M  V30 4853 C 457.564 -3.35021 -2.85393 0
M  V30 4854 H 454.683 -0.643005 -0.360157 0
M  V30 4855 H 457.325 -1.88126 -0.266216 0
M  V30 4856 H 455.475 -2.98245 -2.48962 0
M  V30 4857 H 457.147 -4.59238 -0.43563 0
M  V30 4858 H 455.39 -4.32461 -0.340513 0
M  V30 4859 H 456.061 -5.25759 -1.6817 0
M  V30 4860 H 458.537 -3.44458 -2.33426 0
M  V30 4861 H 457.413 -4.27989 -3.43681 0
M  V30 4862 H 457.674 -2.55153 -3.61039 0
M  V30 4863 N 456.733 0.527833 -1.48498 0
M  V30 4864 C 457.663 1.64136 -1.66077 0
M  V30 4865 C 458.644 1.62286 -0.509625 0
M  V30 4866 O 459.829 1.79449 -0.742413 0
M  V30 4867 C 456.959 3.02717 -1.70234 0
M  V30 4868 C 455.913 3.19426 -2.8487 0
M  V30 4869 C 455.239 4.5909 -2.74118 0
M  V30 4870 C 456.539 3.01993 -4.26142 0
M  V30 4871 H 458.233 1.4968 -2.593 0
M  V30 4872 H 455.779 0.718654 -1.24785 0
M  V30 4873 H 457.732 3.80491 -1.8112 0
M  V30 4874 H 456.456 3.18201 -0.735911 0
M  V30 4875 H 455.115 2.4407 -2.73542 0
M  V30 4876 H 454.763 4.71413 -1.7544 0
M  V30 4877 H 454.463 4.71214 -3.51042 0
M  V30 4878 H 455.987 5.3896 -2.86974 0
M  V30 4879 H 457.401 3.69558 -4.38292 0
M  V30 4880 H 455.798 3.2561 -5.04082 0
M  V30 4881 H 456.868 1.98396 -4.42456 0
M  V30 4882 N 458.211 1.37122 0.776871 0
M  V30 4883 C 459.174 1.32301 1.8716 0
M  V30 4884 C 460.174 0.228099 1.59174 0
M  V30 4885 O 461.364 0.483642 1.67352 0
M  V30 4886 C 458.496 1.054 3.24197 0
M  V30 4887 H 459.689 2.29673 1.92848 0
M  V30 4888 H 457.242 1.22077 0.97606 0
M  V30 4889 H 457.977 0.0853872 3.24188 0
M  V30 4890 H 457.762 1.84648 3.45901 0
M  V30 4891 H 459.252 1.04664 4.04271 0
M  V30 4892 N 459.689 -1.00246 1.21608 0
M  V30 4893 C 460.929 -1.75589 1.04631 0
M  V30 4894 C 461.293 -1.87513 -0.412648 0
M  V30 4895 O 462.494 -2.59444 -0.703003 0
M  V30 4896 C 460.765 -3.12893 1.72722 0
M  V30 4897 S 462.324 -4.04095 1.71034 0
M  V30 4898 H 459.142 -0.604133 0.374892 0
M  V30 4899 H 461.744 -1.19927 1.54395 0
M  V30 4900 H 460.448 -3.0185 2.78055 0
M  V30 4901 H 459.979 -3.73628 1.23149 0
M  V30 4902 H 461.994 -4.9045 0.753231 0
M  V30 4903 N 461.167 -1.02423 -1.1978 0
M  V30 4904 C 462.097 -0.62157 -2.25075 0
M  V30 4905 C 463.078 0.367148 -1.6609 0
M  V30 4906 O 464.263 0.250892 -1.92573 0
M  V30 4907 C 461.393 0.0331826 -3.47284 0
M  V30 4908 C 460.347 -0.877323 -4.18912 0
M  V30 4909 C 459.673 -0.0879296 -5.34628 0
M  V30 4910 C 460.973 -2.18892 -4.74219 0
M  V30 4911 H 462.667 -1.50179 -2.59011 0
M  V30 4912 H 460.213 -0.723547 -1.24502 0
M  V30 4913 H 462.166 0.326488 -4.20133 0
M  V30 4914 H 460.89 0.948164 -3.12534 0
M  V30 4915 H 459.549 -1.15475 -3.47938 0
M  V30 4916 H 459.197 0.828941 -4.96123 0
M  V30 4917 H 458.897 -0.694359 -5.83483 0
M  V30 4918 H 460.421 0.198743 -6.10276 0
M  V30 4919 H 461.835 -1.95746 -5.38847 0
M  V30 4920 H 460.232 -2.74686 -5.33542 0
M  V30 4921 H 461.302 -2.84674 -3.92541 0
M  V30 4922 N 462.645 1.35699 -0.801477 0
M  V30 4923 C 463.575 2.32436 -0.222658 0
M  V30 4924 C 464.556 1.5723 0.649057 0
M  V30 4925 O 465.741 1.85324 0.580387 0
M  V30 4926 C 462.871 3.41469 0.633719 0
M  V30 4927 C 461.825 4.27774 -0.139083 0
M  V30 4928 C 461.151 5.28082 0.838666 0
M  V30 4929 C 462.451 5.04946 -1.33517 0
M  V30 4930 H 464.145 2.81094 -1.03086 0
M  V30 4931 H 461.691 1.35146 -0.497155 0
M  V30 4932 H 463.644 4.08143 1.04868 0
M  V30 4933 H 462.368 2.91408 1.47475 0
M  V30 4934 H 461.027 3.62673 -0.535156 0
M  V30 4935 H 460.675 4.7429 1.67506 0
M  V30 4936 H 460.375 5.86695 0.32594 0
M  V30 4937 H 461.899 5.97628 1.25194 0
M  V30 4938 H 463.313 5.64593 -0.995349 0
M  V30 4939 H 461.71 5.7303 -1.78202 0
M  V30 4940 H 462.78 4.35886 -2.12442 0
M  V30 4941 N 464.123 0.554532 1.47522 0
M  V30 4942 C 465.37 0.029479 2.02479 0
M  V30 4943 C 465.698 -1.31929 1.42916 0
M  V30 4944 O 464.953 -1.87112 0.573385 0
M  V30 4945 C 465.252 -0.115927 3.57212 0
M  V30 4946 C 464.918 1.16161 4.3568 0
M  V30 4947 C 463.58 1.51168 4.56839 0
M  V30 4948 C 465.932 2.0083 4.80954 0
M  V30 4949 C 463.26 2.70696 5.2052 0
M  V30 4950 C 465.612 3.19559 5.45953 0
M  V30 4951 C 464.276 3.54882 5.65345 0
M  V30 4952 H 463.546 0.0107871 0.740921 0
M  V30 4953 H 466.193 0.725506 1.77225 0
M  V30 4954 H 464.498 -0.894902 3.81443 0
M  V30 4955 H 466.195 -0.53749 3.97381 0
M  V30 4956 H 462.785 0.879026 4.19489 0
M  V30 4957 H 466.969 1.75093 4.64388 0
M  V30 4958 H 462.225 2.98236 5.33728 0
M  V30 4959 H 466.399 3.85456 5.79997 0
M  V30 4960 H 464.026 4.47596 6.1446 0
M  V30 4961 N 465.601 -1.54893 0.290851 0
M  V30 4962 C 466.531 -2.26103 -0.583084 0
M  V30 4963 C 467.512 -1.25684 -1.14619 0
M  V30 4964 O 468.697 -1.54436 -1.17741 0
M  V30 4965 C 465.827 -2.99409 -1.75987 0
M  V30 4966 C 464.781 -4.0689 -1.32758 0
M  V30 4967 C 464.107 -4.67856 -2.58872 0
M  V30 4968 C 465.407 -5.20215 -0.46624 0
M  V30 4969 H 467.101 -2.99398 0.0108214 0
M  V30 4970 H 464.647 -1.43998 0.00664468 0
M  V30 4971 H 466.6 -3.47943 -2.37727 0
M  V30 4972 H 465.324 -2.23675 -2.37985 0
M  V30 4973 H 463.983 -3.59191 -0.733299 0
M  V30 4974 H 463.631 -3.88772 -3.19163 0
M  V30 4975 H 463.331 -5.40438 -2.30653 0
M  V30 4976 H 464.855 -5.19147 -3.21433 0
M  V30 4977 H 466.269 -5.64704 -0.989047 0
M  V30 4978 H 464.666 -5.99455 -0.27826 0
M  V30 4979 H 465.736 -4.82198 0.511173 0
M  V30 4980 N 467.08 -0.0183926 -1.57589 0
M  V30 4981 C 468.01 0.965596 -2.12599 0
M  V30 4982 C 468.991 1.34641 -1.0395 0
M  V30 4983 O 470.176 1.42693 -1.31729 0
M  V30 4984 C 467.306 2.25149 -2.64434 0
M  V30 4985 C 466.26 2.01175 -3.77773 0
M  V30 4986 C 465.586 3.35937 -4.15994 0
M  V30 4987 C 466.886 1.35953 -5.04296 0
M  V30 4988 H 468.58 0.507504 -2.95067 0
M  V30 4989 H 466.126 0.242671 -1.41941 0
M  V30 4990 H 468.079 2.94357 -3.01549 0
M  V30 4991 H 466.803 2.73105 -1.79112 0
M  V30 4992 H 465.462 1.34388 -3.4108 0
M  V30 4993 H 465.11 3.81631 -3.27669 0
M  V30 4994 H 464.81 3.20705 -4.92364 0
M  V30 4995 H 466.334 4.0643 -4.55683 0
M  V30 4996 H 467.748 1.95144 -5.39065 0
M  V30 4997 H 466.145 1.31152 -5.85593 0
M  V30 4998 H 467.215 0.331071 -4.83768 0
M  V30 4999 N 468.558 1.5553 0.254621 0
M  V30 5000 C 469.807 1.76202 0.981612 0
M  V30 5001 C 470.12 0.580883 1.86776 0
M  V30 5002 O 471.326 0.670448 2.63092 0
M  V30 5003 C 469.782 3.11921 1.79537 0
M  V30 5004 C 469.39 4.37659 0.956991 0
M  V30 5005 C 471.134 3.41936 2.51555 0
M  V30 5006 C 469.041 5.64411 1.76619 0
M  V30 5007 H 467.971 0.656841 0.370237 0
M  V30 5008 H 470.622 1.81969 0.236556 0
M  V30 5009 H 469.004 3.00241 2.58208 0
M  V30 5010 H 470.178 4.60307 0.21315 0
M  V30 5011 H 468.493 4.14922 0.350497 0
M  V30 5012 H 471.09 4.33849 3.12536 0
M  V30 5013 H 471.433 2.62905 3.22779 0
M  V30 5014 H 471.966 3.54797 1.799 0
M  V30 5015 H 468.705 6.46241 1.09783 0
M  V30 5016 H 468.225 5.45877 2.48551 0
M  V30 5017 H 469.904 6.03386 2.33527 0
M  V30 5018 N 470.036 -0.519951 1.48776 0
M  V30 5019 C 471.282 -1.27711 1.57536 0
M  V30 5020 C 471.615 -1.92547 0.252866 0
M  V30 5021 O 470.89 -1.7979 -0.742021 0
M  V30 5022 C 471.173 -2.35875 2.72094 0
M  V30 5023 C 471.026 -1.75664 4.1408 0
M  V30 5024 C 472.345 -3.37575 2.82367 0
M  V30 5025 H 469.464 -0.462971 0.573434 0
M  V30 5026 H 472.106 -0.578194 1.80989 0
M  V30 5027 H 470.256 -2.95488 2.52228 0
M  V30 5028 H 471.928 -1.20025 4.45412 0
M  V30 5029 H 470.171 -1.06154 4.20611 0
M  V30 5030 H 470.842 -2.54029 4.90075 0
M  V30 5031 H 473.318 -2.87929 3.00393 0
M  V30 5032 H 472.194 -4.1064 3.64233 0
M  V30 5033 H 472.455 -3.98743 1.90936 0
M  V30 5034 N 471.514 -1.37532 -0.769588 0
M  V30 5035 C 472.762 -1.32597 -1.5252 0
M  V30 5036 C 473.083 0.0884294 -1.94799 0
M  V30 5037 O 472.353 1.03289 -1.66458 0
M  V30 5038 H 470.933 -0.487846 -0.565699 0
M  V30 5039 H 473.595 -1.72044 -0.915806 0
M  V30 5040 H 472.691 -1.96643 -2.42359 0
M  V30 5041 N 472.992 0.995999 -1.22138 0
M  V30 5042 C 474.239 1.7351 -1.04406 0
M  V30 5043 C 474.567 1.89884 0.421244 0
M  V30 5044 O 473.822 1.43683 1.32867 0
M  V30 5045 C 474.121 3.14553 -1.6968 0
M  V30 5046 C 473.787 3.18102 -3.19565 0
M  V30 5047 C 472.449 3.18778 -3.60464 0
M  V30 5048 C 474.801 3.14636 -4.15516 0
M  V30 5049 C 472.129 3.13684 -4.95801 0
M  V30 5050 C 474.481 3.11084 -5.50826 0
M  V30 5051 C 473.145 3.10074 -5.91109 0
M  V30 5052 H 472.415 0.634916 -0.38205 0
M  V30 5053 H 475.062 1.1667 -1.51857 0
M  V30 5054 H 473.367 3.74682 -1.14546 0
M  V30 5055 H 475.064 3.70477 -1.53454 0
M  V30 5056 H 471.654 3.18324 -2.86998 0
M  V30 5057 H 475.838 3.13266 -3.84939 0
M  V30 5058 H 471.094 3.11245 -5.26247 0
M  V30 5059 H 475.268 3.07357 -6.24904 0
M  V30 5060 H 472.895 3.05882 -6.95946 0
M  V30 5061 N 474.47 1.03057 1.19235 0
M  V30 5062 C 475.698 0.747697 1.92917 0
M  V30 5063 C 476.113 -0.69372 1.75593 0
M  V30 5064 O 475.47 -1.47191 1.07894 0
M  V30 5065 C 475.521 1.09159 3.44625 0
M  V30 5066 O 475.242 2.47641 3.61394 0
M  V30 5067 C 476.743 0.831763 4.35427 0
M  V30 5068 H 473.963 0.273453 0.612751 0
M  V30 5069 H 476.507 1.37552 1.51327 0
M  V30 5070 H 474.662 0.508919 3.84043 0
M  V30 5071 H 475.076 2.60499 4.55237 0
M  V30 5072 H 476.55 1.12233 5.4047 0
M  V30 5073 H 477.027 -0.233769 4.38577 0
M  V30 5074 H 477.633 1.39725 4.01693 0
M  V30 5075 N 475.948 -1.35272 0.808662 0
M  V30 5076 C 477.173 -2.03477 0.401475 0
M  V30 5077 C 477.598 -1.60537 -0.980279 0
M  V30 5078 O 476.956 -0.78304 -1.63518 0
M  V30 5079 C 477.004 -3.57181 0.495354 0
M  V30 5080 O 476.108 -4.09474 -0.490397 0
M  V30 5081 H 475.449 -0.642561 0.167366 0
M  V30 5082 H 477.979 -1.72824 1.09512 0
M  V30 5083 H 477.989 -4.06356 0.365912 0
M  V30 5084 H 476.664 -3.87784 1.5032 0
M  V30 5085 H 475.241 -3.71516 -0.321023 0
M  V30 5086 N 477.426 -0.562348 -1.47226 0
M  V30 5087 C 478.842 -0.222492 -1.58042 0
M  V30 5088 C 479.042 1.27505 -1.56028 0
M  V30 5089 O 478.098 2.05555 -1.46641 0
M  V30 5090 C 479.411 -0.853694 -2.88327 0
M  V30 5091 C 480.959 -0.825397 -3.01921 0
M  V30 5092 C 481.434 -1.43576 -4.34914 0
M  V30 5093 N 482.925 -1.39918 -4.41562 0
M  V30 5094 C 483.66 -1.84103 -5.43041 0
M  V30 5095 N 483.156 -2.36167 -6.51304 0
M  V30 5096 N 484.949 -1.75142 -5.34118 0
M  V30 5097 H 477.1 -1.53525 -1.46778 0
M  V30 5098 H 479.363 -0.640527 -0.698877 0
M  V30 5099 H 479.069 -1.90635 -2.95552 0
M  V30 5100 H 478.943 -0.34977 -3.75575 0
M  V30 5101 H 481.33 0.218583 -2.94289 0
M  V30 5102 H 481.411 -1.36713 -2.16202 0
M  V30 5103 H 481.055 -2.47884 -4.43301 0
M  V30 5104 H 480.985 -0.869427 -5.19373 0
M  V30 5105 H 483.476 -1.0184 -3.63919 0
M  V30 5106 H 483.789 -2.67793 -7.24919 0
M  V30 5107 H 482.134 -2.40181 -6.52179 0
M  V30 5108 H 485.325 -1.34241 -4.48439 0
M  V30 5109 H 485.498 -2.09895 -6.13065 0
M  V30 5110 N 478.904 1.54736 -0.299062 0
M  V30 5111 C 480.151 2.00101 0.310784 0
M  V30 5112 C 480.479 1.18746 1.54045 0
M  V30 5113 O 479.734 0.251198 1.94081 0
M  V30 5114 C 480.033 3.50199 0.713835 0
M  V30 5115 C 479.699 4.48997 -0.413873 0
M  V30 5116 C 478.361 4.7573 -0.723462 0
M  V30 5117 C 480.713 5.07839 -1.17257 0
M  V30 5118 C 478.041 5.5857 -1.79491 0
M  V30 5119 C 480.393 5.91844 -2.23392 0
M  V30 5120 C 479.057 6.16889 -2.54959 0
M  V30 5121 H 478.327 0.732221 0.113724 0
M  V30 5122 H 480.974 1.86888 -0.417756 0
M  V30 5123 H 479.279 3.61012 1.52243 0
M  V30 5124 H 480.976 3.82723 1.19684 0
M  V30 5125 H 477.566 4.28292 -0.162476 0
M  V30 5126 H 481.75 4.87188 -0.946651 0
M  V30 5127 H 477.006 5.76213 -2.04423 0
M  V30 5128 H 481.18 6.36465 -2.8264 0
M  V30 5129 H 478.807 6.80869 -3.38114 0
M  V30 5130 N 480.382 0.0267497 1.57577 0
M  V30 5131 C 481.329 -0.955894 2.10075 0
M  V30 5132 C 482.299 -1.32453 1.00226 0
M  V30 5133 O 483.484 -1.41826 1.27632 0
M  V30 5134 C 480.624 -2.2338 2.6305 0
M  V30 5135 C 479.737 -1.92183 3.86898 0
M  V30 5136 C 478.872 -3.14251 4.28275 0
M  V30 5137 C 477.911 -2.78862 5.44888 0
M  V30 5138 N 477.048 -3.93548 5.81433 0
M  V30 5139 H 481.888 -0.501303 2.93753 0
M  V30 5140 H 479.425 -0.235847 1.45197 0
M  V30 5141 H 481.383 -2.98124 2.91853 0
M  V30 5142 H 480.013 -2.6646 1.82205 0
M  V30 5143 H 479.065 -1.07692 3.64838 0
M  V30 5144 H 480.377 -1.62117 4.7172 0
M  V30 5145 H 479.531 -3.97317 4.58502 0
M  V30 5146 H 478.27 -3.47476 3.42215 0
M  V30 5147 H 477.275 -1.94208 5.14357 0
M  V30 5148 H 478.5 -2.46855 6.32645 0
M  V30 5149 H 476.446 -4.2662 4.98328 0
M  V30 5150 H 476.363 -3.67098 6.6089 0
M  V30 5151 H 477.631 -4.77325 6.16264 0
M  V30 5152 N 481.861 -1.55662 -0.24637 0
M  V30 5153 C 483.277 -1.48098 -0.594907 0
M  V30 5154 C 483.477 -0.717044 -1.8831 0
M  V30 5155 O 482.533 -0.246618 -2.51293 0
M  V30 5156 C 483.846 -2.92507 -0.697146 0
M  V30 5157 C 485.394 -3.02881 -0.789436 0
M  V30 5158 C 485.869 -4.48598 -0.923232 0
M  V30 5159 N 487.36 -4.52538 -0.988088 0
M  V30 5160 C 488.095 -5.62536 -1.11089 0
M  V30 5161 N 487.591 -6.82342 -1.19919 0
M  V30 5162 N 489.384 -5.50334 -1.14408 0
M  V30 5163 H 481.535 -2.0377 0.599278 0
M  V30 5164 H 483.798 -0.925145 0.20691 0
M  V30 5165 H 483.504 -3.51242 0.179396 0
M  V30 5166 H 483.378 -3.43024 -1.5689 0
M  V30 5167 H 485.765 -2.44226 -1.65643 0
M  V30 5168 H 485.846 -2.55574 0.107482 0
M  V30 5169 H 485.49 -5.07864 -0.0607927 0
M  V30 5170 H 485.42 -4.93587 -1.8352 0
M  V30 5171 H 487.911 -3.66248 -0.931167 0
M  V30 5172 H 488.224 -7.61924 -1.29197 0
M  V30 5173 H 486.569 -6.85102 -1.16876 0
M  V30 5174 H 489.76 -4.5567 -1.07158 0
M  V30 5175 H 489.933 -6.36096 -1.23634 0
M  V30 5176 N 483.339 0.512053 -1.4905 0
M  V30 5177 C 484.271 1.63121 -1.6101 0
M  V30 5178 C 485.284 1.55145 -0.493352 0
M  V30 5179 O 486.473 1.61278 -0.764955 0
M  V30 5180 C 483.573 3.01863 -1.54052 0
M  V30 5181 C 482.746 3.35138 -2.81072 0
M  V30 5182 C 481.805 4.5324 -2.67319 0
M  V30 5183 O 480.831 4.55571 -3.41238 0
M  V30 5184 N 482.033 5.52495 -1.78127 0
M  V30 5185 H 484.798 1.53292 -2.5753 0
M  V30 5186 H 482.359 0.699706 -1.45999 0
M  V30 5187 H 484.351 3.78774 -1.42521 0
M  V30 5188 H 482.921 3.05675 -0.654345 0
M  V30 5189 H 482.141 2.4723 -3.07036 0
M  V30 5190 H 483.429 3.54162 -3.65304 0
M  V30 5191 H 482.827 5.53403 -1.17308 0
M  V30 5192 H 481.384 6.28553 -1.72525 0
M  V30 5193 N 484.817 1.37938 0.762283 0
M  V30 5194 C 486.045 1.36883 1.55147 0
M  V30 5195 C 486.46 -0.0435348 1.8875 0
M  V30 5196 O 485.817 -1.00786 1.52146 0
M  V30 5197 C 485.868 2.21624 2.85596 0
M  V30 5198 O 485.589 3.57358 2.5343 0
M  V30 5199 C 487.09 2.28653 3.7978 0
M  V30 5200 H 484.31 0.468521 0.480343 0
M  V30 5201 H 486.854 1.81404 0.944079 0
M  V30 5202 H 485.009 1.80588 3.42734 0
M  V30 5203 H 485.423 4.01883 3.37032 0
M  V30 5204 H 486.897 2.9225 4.68288 0
M  V30 5205 H 487.374 1.29767 4.19592 0
M  V30 5206 H 487.98 2.70043 3.28568 0
M  V30 5207 N 486.295 -0.989507 1.22664 0
M  V30 5208 C 487.52 -1.77031 1.08051 0
M  V30 5209 C 487.945 -1.84535 -0.364483 0
M  V30 5210 O 487.303 -1.3003 -1.2634 0
M  V30 5211 C 487.351 -3.18 1.70024 0
M  V30 5212 O 486.455 -4.01161 0.956216 0
M  V30 5213 H 485.796 -0.545008 0.379292 0
M  V30 5214 H 488.326 -1.24277 1.62531 0
M  V30 5215 H 488.336 -3.68616 1.74888 0
M  V30 5216 H 487.011 -3.11853 2.75174 0
M  V30 5217 H 485.588 -3.59687 0.98384 0
M  V30 5218 N 487.773 -1.03688 -1.18687 0
M  V30 5219 C 489.003 -0.756819 -1.92239 0
M  V30 5220 C 489.411 0.689374 -1.76194 0
M  V30 5221 O 488.754 1.48126 -1.08648 0
M  V30 5222 C 488.816 -1.03851 -3.44173 0
M  V30 5223 C 488.48 -2.47785 -3.83994 0
M  V30 5224 C 489.477 -3.4595 -3.88091 0
M  V30 5225 C 487.162 -2.82397 -4.154 0
M  V30 5226 C 489.156 -4.76779 -4.23038 0
M  V30 5227 C 486.843 -4.13433 -4.50018 0
M  V30 5228 C 487.841 -5.10434 -4.53813 0
M  V30 5229 O 487.529 -6.39122 -4.87625 0
M  V30 5230 H 487.261 -0.275678 -0.617234 0
M  V30 5231 H 489.815 -1.38658 -1.51536 0
M  V30 5232 H 488.045 -0.351612 -3.85098 0
M  V30 5233 H 489.734 -0.746846 -3.9897 0
M  V30 5234 H 490.5 -3.20549 -3.63969 0
M  V30 5235 H 486.379 -2.07568 -4.11627 0
M  V30 5236 H 489.923 -5.52488 -4.25914 0
M  V30 5237 H 485.82 -4.38604 -4.736 0
M  V30 5238 H 486.588 -6.43715 -5.05542 0
M  V30 5239 N 489.251 1.34841 -0.815825 0
M  V30 5240 C 490.183 2.28409 -0.190265 0
M  V30 5241 C 491.196 1.50705 0.615771 0
M  V30 5242 O 492.385 1.72822 0.446616 0
M  V30 5243 C 489.485 3.30441 0.752446 0
M  V30 5244 C 488.658 4.37399 -0.00922152 0
M  V30 5245 C 487.717 5.19234 0.853351 0
M  V30 5246 O 486.743 5.68404 0.300919 0
M  V30 5247 N 487.945 5.38248 2.17416 0
M  V30 5248 H 490.71 2.82732 -0.994114 0
M  V30 5249 H 488.271 1.47289 -0.672129 0
M  V30 5250 H 490.263 3.82084 1.33394 0
M  V30 5251 H 488.833 2.76565 1.45707 0
M  V30 5252 H 488.053 3.86567 -0.771979 0
M  V30 5253 H 489.341 5.05992 -0.533807 0
M  V30 5254 H 488.739 4.99961 2.6468 0
M  V30 5255 H 487.296 5.93035 2.70467 0
M  V30 5256 N 490.729 0.570148 1.46925 0
M  V30 5257 C 491.977 0.0508523 2.02036 0
M  V30 5258 C 492.298 -1.30885 1.44548 0
M  V30 5259 O 491.568 -1.85647 0.625453 0
M  V30 5260 H 490.148 0.0158088 0.746833 0
M  V30 5261 H 492.81 0.743086 1.80178 0
M  V30 5262 H 491.906 -0.027575 3.12088 0
M  V30 5263 N 492.207 -1.54576 0.307264 0
M  V30 5264 C 493.453 -2.0056 -0.300612 0
M  V30 5265 C 493.786 -1.1953 -1.53057 0
M  V30 5266 O 493.061 -0.27337 -1.92569 0
M  V30 5267 C 493.344 -3.54167 -0.650987 0
M  V30 5268 C 493.197 -4.45933 0.588539 0
M  V30 5269 C 494.516 -4.14645 -1.47506 0
M  V30 5270 H 491.635 -0.729075 -0.107788 0
M  V30 5271 H 494.277 -1.85286 0.420606 0
M  V30 5272 H 492.427 -3.67313 -1.26544 0
M  V30 5273 H 494.099 -4.44683 1.22697 0
M  V30 5274 H 492.342 -4.16274 1.22058 0
M  V30 5275 H 493.013 -5.51189 0.299153 0
M  V30 5276 H 495.489 -4.04973 -0.955821 0
M  V30 5277 H 494.365 -5.22269 -1.68899 0
M  V30 5278 H 494.626 -3.66921 -2.4662 0
M  V30 5279 N 493.685 -0.035106 -1.57561 0
M  V30 5280 C 494.615 0.942993 -2.13612 0
M  V30 5281 C 495.596 1.33531 -1.05373 0
M  V30 5282 O 496.781 1.41287 -1.33235 0
M  V30 5283 C 493.911 2.22332 -2.66807 0
M  V30 5284 C 492.865 1.97156 -3.79886 0
M  V30 5285 C 492.191 3.31506 -4.19533 0
M  V30 5286 C 493.491 1.30596 -5.05709 0
M  V30 5287 H 495.185 0.476179 -2.95589 0
M  V30 5288 H 492.731 0.227602 -1.4219 0
M  V30 5289 H 494.684 2.91142 -3.04654 0
M  V30 5290 H 493.408 2.7119 -1.81999 0
M  V30 5291 H 492.067 1.30763 -3.42486 0
M  V30 5292 H 491.715 3.78134 -3.31698 0
M  V30 5293 H 491.415 3.15465 -4.95738 0
M  V30 5294 H 492.939 4.01574 -4.59968 0
M  V30 5295 H 494.353 1.89416 -5.41105 0
M  V30 5296 H 492.75 1.24934 -5.86951 0
M  V30 5297 H 493.82 0.279742 -4.84092 0
M  V30 5298 O 495.202 1.61149 0.106394 0
M  V30 5299 H 495.893 1.7916 0.736293 0
M  V30 END ATOM
M  V30 BEGIN BOND
M  V30 END BOND
M  V30 END CTAB
M  END
$$$$
