drugbank_target|P15941 Mucin-1 (DB06584)
 OpenBabel12092120333D

  0  0  0     0  0            999 V3000
M  V30 BEGIN CTAB
M  V30 COUNTS 16843 17171 0 0 0
M  V30 BEGIN ATOM
M  V30 1 H -0.908 1.98254 -0.117106 0
M  V30 2 N 0 1.576 0 0
M  V30 3 C 0.933 2.03868 1.02534 0
M  V30 4 C 1.911 0.928543 1.3348 0
M  V30 5 O 3.095 1.19667 1.45644 0
M  V30 6 C 0.222 2.43627 2.35294 0
M  V30 7 C -0.732 3.65373 2.2001 0
M  V30 8 S 0.101 5.13292 1.52614 0
M  V30 9 C 1.257 5.56322 2.86805 0
M  V30 10 H 1.49 2.90518 0.631377 0
M  V30 11 H -0.977 1.52953 0.210867 0
M  V30 12 H 0.981 2.67203 3.11629 0
M  V30 13 H -0.358 1.57376 2.7183 0
M  V30 14 H -1.165 3.90944 3.18086 0
M  V30 15 H -1.563 3.418 1.51819 0
M  V30 16 H 0.729 5.58782 3.83104 0
M  V30 17 H 1.672 6.56266 2.65933 0
M  V30 18 H 2.08 4.83886 2.90714 0
M  V30 19 N 1.4781 -0.272755 1.55222 0
M  V30 20 C 2.7061 -1.02255 1.79865 0
M  V30 21 C 3.1211 -1.79924 0.572088 0
M  V30 22 O 2.4781 -1.76638 -0.458842 0
M  V30 23 C 2.5291 -1.98094 3.02392 0
M  V30 24 O 2.2501 -1.23572 4.20311 0
M  V30 25 C 3.7511 -2.84884 3.39641 0
M  V30 26 H 0.9711 -0.302057 0.599168 0
M  V30 27 H 3.5151 -0.303465 2.02236 0
M  V30 28 H 1.6701 -2.65465 2.82147 0
M  V30 29 H 2.0841 -1.88172 4.89583 0
M  V30 30 H 3.5581 -3.47927 4.28545 0
M  V30 31 H 4.0351 -3.54665 2.59055 0
M  V30 32 H 4.6411 -2.23003 3.62146 0
M  V30 33 N 2.9562 -1.48159 -0.537278 0
M  V30 34 C 4.3672 -1.49429 -1.11928 0
M  V30 35 C 4.7182 -0.26 -1.9447 0
M  V30 36 O 3.8432 0.633489 -2.0692 0
M  V30 37 C 4.4382 -2.70758 -2.03656 0
M  V30 38 C 2.9972 -2.74923 -2.57088 0
M  V30 39 C 2.1442 -2.42835 -1.3389 0
M  V30 40 H 5.0952 -1.55381 -0.322886 0
M  V30 41 H 5.1162 -2.48861 -2.87834 0
M  V30 42 H 4.6282 -3.60575 -1.43553 0
M  V30 43 H 2.7292 -1.89296 -3.20933 0
M  V30 44 H 2.8422 -3.76157 -2.9672 0
M  V30 45 H 1.2062 -1.93836 -1.65226 0
M  V30 46 H 1.9892 -3.34884 -0.755504 0
M  V30 47 N 4.4343 0.785586 -1.36625 0
M  V30 48 C 5.6823 1.54057 -1.30808 0
M  V30 49 C 6.0033 1.94683 0.111157 0
M  V30 50 O 5.2733 1.65241 1.05224 0
M  V30 51 H 3.8533 0.571354 -0.481211 0
M  V30 52 H 6.5153 0.935821 -1.70963 0
M  V30 53 H 5.6113 2.44637 -1.93801 0
M  V30 54 N 5.9124 1.20967 1.01018 0
M  V30 55 C 7.1404 1.04956 1.78303 0
M  V30 56 C 7.5554 -0.400915 1.84494 0
M  V30 57 O 6.9124 -1.27826 1.30257 0
M  V30 58 C 6.9634 1.63403 3.22462 0
M  V30 59 O 6.6844 3.02775 3.16637 0
M  V30 60 C 8.1854 1.52432 4.16268 0
M  V30 61 H 5.4054 0.368858 0.560522 0
M  V30 62 H 7.9494 1.60193 1.27116 0
M  V30 63 H 6.1044 1.1227 3.70775 0
M  V30 64 H 6.5184 3.30626 4.07169 0
M  V30 65 H 7.9924 1.98078 5.15237 0
M  V30 66 H 8.4694 0.477875 4.36592 0
M  V30 67 H 9.0754 2.02787 3.73841 0
M  V30 68 N 7.3905 -1.2043 1.01659 0
M  V30 69 C 8.3225 -2.22626 0.544988 0
M  V30 70 C 9.3355 -1.58479 -0.372609 0
M  V30 71 O 10.5245 -1.77679 -0.170958 0
M  V30 72 C 7.6245 -3.38141 -0.22663 0
M  V30 73 C 6.7975 -4.31877 0.692876 0
M  V30 74 C 5.8565 -5.26191 -0.0311616 0
M  V30 75 O 4.8825 -5.6612 0.591343 0
M  V30 76 N 6.0845 -5.65618 -1.30601 0
M  V30 77 H 8.8495 -2.63716 1.42388 0
M  V30 78 H 6.4105 -1.34971 0.894116 0
M  V30 79 H 8.4025 -3.98239 -0.72024 0
M  V30 80 H 6.9725 -2.95943 -1.00681 0
M  V30 81 H 6.1925 -3.69746 1.36679 0
M  V30 82 H 7.4805 -4.91426 1.31824 0
M  V30 83 H 6.8785 -5.3519 -1.83269 0
M  V30 84 H 5.4355 -6.28025 -1.74435 0
M  V30 85 N 8.8686 -0.792821 -1.36206 0
M  V30 86 C 10.0936 -0.377701 -2.03932 0
M  V30 87 C 10.5186 0.998947 -1.59382 0
M  V30 88 O 9.8766 1.64421 -0.763903 0
M  V30 89 C 9.9246 -0.453635 -3.57735 0
M  V30 90 O 9.0286 0.538151 -4.08874 0
M  V30 91 H 8.3696 -0.159855 -0.644471 0
M  V30 92 H 10.8996 -1.07488 -1.7409 0
M  V30 93 H 10.9096 -0.318464 -4.06755 0
M  V30 94 H 9.5846 -1.45784 -3.89512 0
M  V30 95 H 8.1616 0.364359 -3.71116 0
M  V30 96 N 10.3467 1.47872 -0.545128 0
M  V30 97 C 11.7577 1.86384 -0.108581 0
M  V30 98 C 12.1087 1.45309 1.31832 0
M  V30 99 O 11.2337 0.850641 1.9898 0
M  V30 100 C 11.8287 3.38265 -0.190274 0
M  V30 101 C 10.3877 3.75914 0.191164 0
M  V30 102 C 9.5347 2.71926 -0.543273 0
M  V30 103 H 12.4857 1.39561 -0.755537 0
M  V30 104 H 12.5067 3.75831 0.594217 0
M  V30 105 H 12.0187 3.6813 -1.2289 0
M  V30 106 H 10.1197 3.51665 1.23136 0
M  V30 107 H 10.2327 4.78836 -0.158987 0
M  V30 108 H 8.5967 2.54697 0.0122495 0
M  V30 109 H 9.3797 3.04634 -1.58282 0
M  V30 110 N 11.8248 0.280983 1.55075 0
M  V30 111 C 13.0718 -0.334115 1.99725 0
M  V30 112 C 13.3998 -1.5542 1.1694 0
M  V30 113 O 12.6548 -1.94361 0.228531 0
M  V30 114 C 12.9538 -0.754656 3.49342 0
M  V30 115 C 12.6198 0.361445 4.49449 0
M  V30 116 C 11.2818 0.667893 4.76542 0
M  V30 117 C 13.6338 1.11322 5.09173 0
M  V30 118 C 10.9618 1.7296 5.60626 0
M  V30 119 C 13.3138 2.1647 5.9441 0
M  V30 120 C 11.9778 2.47742 6.19822 0
M  V30 121 H 11.2478 -0.122261 0.730844 0
M  V30 122 H 13.8948 0.395917 1.87363 0
M  V30 123 H 12.1998 -1.56446 3.5921 0
M  V30 124 H 13.8968 -1.24142 3.813 0
M  V30 125 H 10.4868 0.112481 4.28452 0
M  V30 126 H 14.6708 0.88973 4.8826 0
M  V30 127 H 9.9268 1.97684 5.78559 0
M  V30 128 H 14.1008 2.75193 6.3972 0
M  V30 129 H 11.7278 3.30145 6.84769 0
M  V30 130 N 13.3029 -1.57598 0.00835791 0
M  V30 131 C 14.5499 -1.90928 -0.674732 0
M  V30 132 C 14.8779 -0.88277 -1.73313 0
M  V30 133 O 14.1329 0.111294 -1.95383 0
M  V30 134 C 14.4319 -3.3101 -1.34787 0
M  V30 135 C 14.0979 -4.48922 -0.421861 0
M  V30 136 C 12.7599 -4.8091 -0.166927 0
M  V30 137 C 15.1119 -5.20755 0.215211 0
M  V30 138 C 12.4399 -5.821 0.733232 0
M  V30 139 C 14.7919 -6.22905 1.1033 0
M  V30 140 C 13.4559 -6.53346 1.36733 0
M  V30 141 H 12.7259 -0.698656 -0.246902 0
M  V30 142 H 15.3729 -1.91387 0.0656779 0
M  V30 143 H 13.6779 -3.26714 -2.16253 0
M  V30 144 H 15.3749 -3.54061 -1.8826 0
M  V30 145 H 11.9649 -4.23934 -0.630729 0
M  V30 146 H 16.1489 -4.9629 0.0312829 0
M  V30 147 H 11.4049 -6.04042 0.945712 0
M  V30 148 H 15.5789 -6.77694 1.60325 0
M  V30 149 H 13.2059 -7.31573 2.06652 0
M  V30 150 N 14.781 0.264519 -1.55364 0
M  V30 151 C 15.711 1.33121 -1.91836 0
M  V30 152 C 16.692 1.51101 -0.781192 0
M  V30 153 O 17.877 1.64003 -1.04003 0
M  V30 154 C 15.007 2.68921 -2.19769 0
M  V30 155 C 13.961 2.65661 -3.35571 0
M  V30 156 C 13.287 4.05093 -3.49004 0
M  V30 157 C 14.587 2.24187 -4.71739 0
M  V30 158 H 16.281 1.02844 -2.81182 0
M  V30 159 H 13.827 0.493286 -1.35287 0
M  V30 160 H 15.78 3.43663 -2.43872 0
M  V30 161 H 14.504 3.00799 -1.27231 0
M  V30 162 H 13.163 1.93377 -3.1145 0
M  V30 163 H 12.811 4.34206 -2.53917 0
M  V30 164 H 12.511 4.03804 -4.26868 0
M  V30 165 H 14.035 4.81561 -3.75408 0
M  V30 166 H 15.449 2.88654 -4.9533 0
M  V30 167 H 13.846 2.34044 -5.52579 0
M  V30 168 H 14.916 1.19327 -4.69988 0
M  V30 169 N 16.2591 1.48442 0.529413 0
M  V30 170 C 17.1891 1.65902 1.64313 0
M  V30 171 C 18.1701 0.507897 1.6234 0
M  V30 172 O 19.3551 0.740503 1.79528 0
M  V30 173 C 16.4851 1.69911 3.02898 0
M  V30 174 C 15.4391 2.8453 3.19729 0
M  V30 175 C 14.7651 2.73629 4.59381 0
M  V30 176 C 16.0651 4.25821 3.02447 0
M  V30 177 H 17.7591 2.5914 1.49955 0
M  V30 178 H 15.3051 1.24709 0.719982 0
M  V30 179 H 17.2581 1.80715 3.80684 0
M  V30 180 H 15.9821 0.732524 3.18279 0
M  V30 181 H 14.6411 2.73283 2.44361 0
M  V30 182 H 14.2891 1.74938 4.71599 0
M  V30 183 H 13.9891 3.50541 4.71588 0
M  V30 184 H 15.5131 2.86401 5.39265 0
M  V30 185 H 16.9271 4.37898 3.70024 0
M  V30 186 H 15.3241 5.03735 3.26146 0
M  V30 187 H 16.3941 4.42244 1.98867 0
M  V30 188 N 17.7372 -0.778329 1.37039 0
M  V30 189 C 18.6672 -1.90546 1.34962 0
M  V30 190 C 19.6482 -1.68681 0.219274 0
M  V30 191 O 20.8332 -1.89634 0.418624 0
M  V30 192 C 17.9632 -3.27734 1.14925 0
M  V30 193 C 16.9172 -3.64147 2.24902 0
M  V30 194 C 16.2432 -4.99806 1.89996 0
M  V30 195 C 17.5432 -3.71579 3.67051 0
M  V30 196 H 19.2372 -1.92541 2.29277 0
M  V30 197 H 16.7832 -0.924948 1.10366 0
M  V30 198 H 18.7362 -4.06215 1.12104 0
M  V30 199 H 17.4602 -3.26154 0.170631 0
M  V30 200 H 16.1192 -2.8797 2.26868 0
M  V30 201 H 15.7672 -4.94759 0.906796 0
M  V30 202 H 15.4672 -5.25139 2.63634 0
M  V30 203 H 16.9912 -5.80694 1.88749 0
M  V30 204 H 18.4052 -4.40227 3.67251 0
M  V30 205 H 16.8022 -4.08405 4.39688 0
M  V30 206 H 17.8722 -2.72404 4.01154 0
M  V30 207 N 19.2153 -1.21501 -1.00376 0
M  V30 208 C 20.1453 -0.999478 -2.11028 0
M  V30 209 C 21.1263 0.0759671 -1.6993 0
M  V30 210 O 22.3113 -0.0841106 -1.94018 0
M  V30 211 C 19.4413 -0.564709 -3.42678 0
M  V30 212 C 18.3953 -1.58486 -3.97576 0
M  V30 213 C 17.7213 -1.00628 -5.25146 0
M  V30 214 C 19.0213 -2.97204 -4.29496 0
M  V30 215 H 20.7153 -1.92495 -2.29317 0
M  V30 216 H 18.2613 -0.92693 -1.102 0
M  V30 217 H 20.2143 -0.401091 -4.19487 0
M  V30 218 H 18.9383 0.396411 -3.24185 0
M  V30 219 H 17.5973 -1.73606 -3.22888 0
M  V30 220 H 17.2453 -0.0368439 -5.02987 0
M  V30 221 H 16.9453 -1.68771 -5.62841 0
M  V30 222 H 18.4693 -0.854015 -6.04598 0
M  V30 223 H 19.8833 -2.8552 -4.97143 0
M  V30 224 H 18.2803 -3.62372 -4.78338 0
M  V30 225 H 19.3503 -3.47956 -3.3772 0
M  V30 226 N 20.6934 1.19889 -1.02296 0
M  V30 227 C 21.6234 2.25141 -0.619174 0
M  V30 228 C 22.6044 1.66051 0.368915 0
M  V30 229 O 23.7894 1.92546 0.252941 0
M  V30 230 C 20.9194 3.4728 0.0368783 0
M  V30 231 C 19.8734 4.19005 -0.872865 0
M  V30 232 C 19.1994 5.34637 -0.0822402 0
M  V30 233 C 20.4994 4.74452 -2.18387 0
M  V30 234 H 22.1934 2.59171 -1.49903 0
M  V30 235 H 19.7394 1.24579 -0.722222 0
M  V30 236 H 21.6924 4.20098 0.330958 0
M  V30 237 H 20.4164 3.12433 0.95149 0
M  V30 238 H 19.0754 3.48061 -1.15105 0
M  V30 239 H 18.7234 4.96034 0.83422 0
M  V30 240 H 18.4234 5.83557 -0.688149 0
M  V30 241 H 19.9474 6.10255 0.205238 0
M  V30 242 H 21.3614 5.39055 -1.95172 0
M  V30 243 H 19.7584 5.33834 -2.74119 0
M  V30 244 H 20.8284 3.92844 -2.84257 0
M  V30 245 N 22.1715 0.800033 1.35784 0
M  V30 246 C 23.3995 0.389606 2.03199 0
M  V30 247 C 23.8145 -0.997375 1.60306 0
M  V30 248 O 23.1715 -1.64154 0.797481 0
M  V30 249 C 23.2225 0.455855 3.58614 0
M  V30 250 O 22.9435 1.78815 3.99946 0
M  V30 251 C 24.4445 0.0374032 4.43284 0
M  V30 252 H 21.6645 0.159132 0.651857 0
M  V30 253 H 24.2085 1.08183 1.73541 0
M  V30 254 H 22.3635 -0.188057 3.86943 0
M  V30 255 H 22.7775 1.74636 4.94573 0
M  V30 256 H 24.2515 0.134882 5.51835 0
M  V30 257 H 24.7285 -1.01651 4.27275 0
M  V30 258 H 25.3345 0.654215 4.20238 0
M  V30 259 N 23.6496 -1.47581 0.552962 0
M  V30 260 C 24.8956 -2.02782 0.0273648 0
M  V30 261 C 25.2286 -1.42687 -1.31734 0
M  V30 262 O 24.5036 -0.580897 -1.85623 0
M  V30 263 C 24.7866 -3.60031 -0.0702371 0
M  V30 264 C 24.6396 -4.30566 1.30126 0
M  V30 265 C 25.9586 -4.33028 -0.785771 0
M  V30 266 H 23.0776 -0.736912 0.0114185 0
M  V30 267 H 25.7196 -1.76056 0.714432 0
M  V30 268 H 23.8696 -3.82932 -0.655382 0
M  V30 269 H 25.5416 -4.19018 1.92929 0
M  V30 270 H 23.7846 -3.91086 1.87709 0
M  V30 271 H 24.4556 -5.39114 1.18573 0
M  V30 272 H 26.9316 -4.15095 -0.288982 0
M  V30 273 H 25.8076 -5.42695 -0.823013 0
M  V30 274 H 26.0686 -4.01945 -1.841 0
M  V30 275 N 25.1277 -0.289203 -1.54924 0
M  V30 276 C 26.0577 0.58549 -2.2604 0
M  V30 277 C 27.0387 1.14753 -1.25562 0
M  V30 278 O 28.2237 1.17906 -1.54311 0
M  V30 279 C 25.3537 1.76305 -2.99222 0
M  V30 280 C 24.3077 1.33191 -4.06748 0
M  V30 281 C 23.6337 2.5937 -4.6758 0
M  V30 282 C 24.9337 0.471775 -5.20165 0
M  V30 283 H 26.6277 -0.00763532 -2.99399 0
M  V30 284 H 24.1737 -0.00511229 -1.43999 0
M  V30 285 H 26.1267 2.38097 -3.47689 0
M  V30 286 H 24.8507 2.38223 -2.23422 0
M  V30 287 H 23.5097 0.737121 -3.59113 0
M  V30 288 H 23.1577 3.19576 -3.88433 0
M  V30 289 H 22.8577 2.31228 -5.40192 0
M  V30 290 H 24.3817 3.21985 -5.18804 0
M  V30 291 H 25.7957 0.995056 -5.64599 0
M  V30 292 H 24.1927 0.284639 -5.99425 0
M  V30 293 H 25.2627 -0.506041 -4.82252 0
M  V30 294 N 26.6058 1.57591 -0.0167156 0
M  V30 295 C 27.8338 1.95575 0.675128 0
M  V30 296 C 28.2488 0.892542 1.6637 0
M  V30 297 O 27.6058 -0.126912 1.82058 0
M  V30 298 C 27.6568 3.33608 1.39239 0
M  V30 299 O 27.3778 4.3585 0.443444 0
M  V30 300 C 28.8788 3.86151 2.17721 0
M  V30 301 H 26.0988 0.644423 0.186978 0
M  V30 302 H 28.6428 2.0437 -0.0728 0
M  V30 303 H 26.7978 3.2607 2.09182 0
M  V30 304 H 27.2118 5.158 0.951358 0
M  V30 305 H 28.6858 4.85114 2.63379 0
M  V30 306 H 29.1628 3.19738 3.01105 0
M  V30 307 H 29.7688 3.96918 1.52761 0
M  V30 308 N 28.0839 -0.256276 1.55502 0
M  V30 309 C 29.3299 -0.987079 1.77157 0
M  V30 310 C 29.6629 -1.85327 0.580315 0
M  V30 311 O 28.9379 -1.89874 -0.421686 0
M  V30 312 C 29.2209 -1.85553 3.08613 0
M  V30 313 C 29.0739 -1.01816 4.38125 0
M  V30 314 C 30.3929 -2.8397 3.36228 0
M  V30 315 H 27.5119 -0.357428 0.644526 0
M  V30 316 H 30.1539 -0.258239 1.88237 0
M  V30 317 H 28.3039 -2.47695 2.99298 0
M  V30 318 H 29.9759 -0.416159 4.59419 0
M  V30 319 H 28.2189 -0.322178 4.32602 0
M  V30 320 H 28.8899 -1.65939 5.26468 0
M  V30 321 H 31.3659 -2.31964 3.45445 0
M  V30 322 H 30.2419 -3.41864 4.29442 0
M  V30 323 H 30.5029 -3.59955 2.56681 0
M  V30 324 N 29.562 -1.4872 -0.521534 0
M  V30 325 C 30.808 -1.574 -1.27879 0
M  V30 326 C 31.141 -0.250817 -1.92573 0
M  V30 327 O 30.416 0.743934 -1.79711 0
M  V30 328 C 30.699 -2.71843 -2.36164 0
M  V30 329 C 30.552 -4.13893 -1.76105 0
M  V30 330 C 31.871 -2.82008 -3.37875 0
M  V30 331 H 28.99 -0.572941 -0.463581 0
M  V30 332 H 31.632 -1.80927 -0.580119 0
M  V30 333 H 29.782 -2.51914 -2.95756 0
M  V30 334 H 31.454 -4.45284 -1.20499 0
M  V30 335 H 29.697 -4.20498 -1.06601 0
M  V30 336 H 30.368 -4.89804 -2.5455 0
M  V30 337 H 32.844 -3.00086 -2.88249 0
M  V30 338 H 31.72 -3.63796 -4.11028 0
M  V30 339 H 31.981 -1.90511 -3.98946 0
M  V30 340 N 31.0401 0.771051 -1.3745 0
M  V30 341 C 32.2681 1.56015 -1.35893 0
M  V30 342 C 32.6831 1.88718 0.0555523 0
M  V30 343 O 32.0401 1.51502 1.01752 0
M  V30 344 C 32.0911 2.87001 -2.19801 0
M  V30 345 O 31.8121 2.557 -3.55738 0
M  V30 346 C 33.3131 3.81228 -2.26231 0
M  V30 347 H 30.5331 0.483317 -0.465453 0
M  V30 348 H 33.0771 0.955611 -1.80799 0
M  V30 349 H 31.2321 3.43877 -1.78402 0
M  V30 350 H 31.6461 3.39584 -3.99729 0
M  V30 351 H 33.1201 4.70139 -2.89263 0
M  V30 352 H 33.5971 4.20409 -1.27093 0
M  V30 353 H 34.2031 3.30281 -2.67945 0
M  V30 354 N 32.5182 1.22032 0.997298 0
M  V30 355 C 33.7662 1.04016 1.73278 0
M  V30 356 C 34.0872 -0.426255 1.90284 0
M  V30 357 O 33.3572 -1.30694 1.45931 0
M  V30 358 H 31.9372 0.381897 0.642 0
M  V30 359 H 34.5992 1.5347 1.20137 0
M  V30 360 H 33.6952 1.51441 2.72896 0
M  V30 361 N 33.9963 -1.19345 1.0293 0
M  V30 362 C 35.2213 -1.93538 0.745511 0
M  V30 363 C 35.6463 -1.75007 -0.689511 0
M  V30 364 O 35.0043 -1.05265 -1.47611 0
M  V30 365 C 35.0523 -3.43336 1.10239 0
M  V30 366 O 34.1563 -4.11806 0.221289 0
M  V30 367 H 33.4973 -0.604193 0.275404 0
M  V30 368 H 36.0273 -1.5141 1.37609 0
M  V30 369 H 36.0373 -3.94004 1.05947 0
M  V30 370 H 34.7123 -3.56146 2.14786 0
M  V30 371 H 33.2893 -3.715 0.322842 0
M  V30 372 N 35.4744 -0.807222 -1.35358 0
M  V30 373 C 36.7224 -0.387122 -1.98358 0
M  V30 374 C 37.0434 1.04942 -1.64354 0
M  V30 375 O 36.3134 1.72615 -0.926339 0
M  V30 376 H 34.8934 -0.140154 -0.733734 0
M  V30 377 H 37.5554 -1.0332 -1.6526 0
M  V30 378 H 36.6514 -0.493352 -3.08176 0
M  V30 379 N 36.9525 1.47285 -0.560781 0
M  V30 380 C 37.9025 2.27073 0.205384 0
M  V30 381 C 38.8865 1.34569 0.882044 0
M  V30 382 O 40.0785 1.58899 0.77976 0
M  V30 383 C 37.2075 3.20414 1.23247 0
M  V30 384 C 36.2935 4.20399 0.559041 0
M  V30 385 N 36.6845 5.04423 -0.372927 0
M  V30 386 C 34.9825 4.38536 0.812522 0
M  V30 387 C 35.6835 5.76655 -0.764446 0
M  V30 388 N 34.6595 5.43471 -0.11848 0
M  V30 389 H 38.4615 2.89422 -0.511117 0
M  V30 390 H 35.9755 1.57868 -0.380975 0
M  V30 391 H 37.9725 3.76262 1.79534 0
M  V30 392 H 36.6325 2.59623 1.95002 0
M  V30 393 H 37.6435 5.1248 -0.747287 0
M  V30 394 H 34.3205 3.88913 1.51832 0
M  V30 395 H 35.7105 6.54238 -1.53045 0
M  V30 396 N 38.4306 0.297415 1.54768 0
M  V30 397 C 39.3936 -0.567375 2.22066 0
M  V30 398 C 40.3936 -1.06409 1.20556 0
M  V30 399 O 41.5836 -0.960691 1.45315 0
M  V30 400 C 38.7156 -1.78517 2.90421 0
M  V30 401 H 39.9086 0.0205534 2.99893 0
M  V30 402 H 37.4616 0.0482163 1.56226 0
M  V30 403 H 38.1966 -2.41303 2.16664 0
M  V30 404 H 37.9816 -1.43669 3.64831 0
M  V30 405 H 39.4716 -2.39964 3.41771 0
M  V30 406 N 39.9087 -1.5758 0.0250728 0
M  V30 407 C 41.1337 -1.96337 -0.668317 0
M  V30 408 C 41.5587 -0.901314 -1.651 0
M  V30 409 O 40.9167 0.138187 -1.80773 0
M  V30 410 C 40.9647 -3.34191 -1.35457 0
M  V30 411 O 40.0687 -3.30269 -2.46974 0
M  V30 412 H 39.4097 -0.640281 -0.175887 0
M  V30 413 H 41.9397 -2.0442 0.0857224 0
M  V30 414 H 41.9497 -3.70331 -1.71228 0
M  V30 415 H 40.6247 -4.11036 -0.634218 0
M  V30 416 H 39.2017 -3.05841 -2.13344 0
M  V30 417 N 41.3868 0.248026 -1.55636 0
M  V30 418 C 42.6118 0.998028 -1.81808 0
M  V30 419 C 43.0368 1.78207 -0.601979 0
M  V30 420 O 42.3948 1.75653 0.448961 0
M  V30 421 C 42.4428 1.9125 -3.05705 0
M  V30 422 O 41.5468 3.00406 -2.82542 0
M  V30 423 H 40.8878 0.284045 -0.600179 0
M  V30 424 H 43.4178 0.269357 -2.02819 0
M  V30 425 H 43.4278 2.32737 -3.35108 0
M  V30 426 H 42.1028 1.33602 -3.93857 0
M  V30 427 H 40.6798 2.63056 -2.64303 0
M  V30 428 N 42.8649 1.48995 0.513639 0
M  V30 429 C 44.0929 1.61531 1.29288 0
M  V30 430 C 44.5079 0.281801 1.86685 0
M  V30 431 O 43.8649 -0.731111 1.67215 0
M  V30 432 C 43.9159 2.67449 2.43215 0
M  V30 433 O 43.6369 3.95626 1.88179 0
M  V30 434 C 45.1379 2.90575 3.34785 0
M  V30 435 H 42.3579 0.544165 0.392588 0
M  V30 436 H 44.9019 1.9494 0.617956 0
M  V30 437 H 43.0569 2.36853 3.0656 0
M  V30 438 H 43.4709 4.53868 2.62876 0
M  V30 439 H 44.9449 3.68449 4.11035 0
M  V30 440 H 45.4219 2.00011 3.91015 0
M  V30 441 H 46.0279 3.22538 2.77218 0
M  V30 442 N 44.343 -0.763751 1.37857 0
M  V30 443 C 45.754 -1.3405 1.29952 0
M  V30 444 C 46.105 -1.96138 -0.0492898 0
M  V30 445 O 45.23 -1.94372 -0.951239 0
M  V30 446 C 45.825 -2.43729 2.35333 0
M  V30 447 C 44.384 -2.97151 2.31037 0
M  V30 448 C 43.531 -1.70438 2.18738 0
M  V30 449 H 46.482 -0.563396 1.48363 0
M  V30 450 H 46.503 -3.23412 2.00462 0
M  V30 451 H 46.015 -1.9851 3.33489 0
M  V30 452 H 44.116 -3.46724 1.3643 0
M  V30 453 H 44.229 -3.52221 3.24772 0
M  V30 454 H 42.593 -1.93673 1.65418 0
M  V30 455 H 43.376 -1.27312 3.18821 0
M  V30 456 N 45.8211 -1.22559 -0.990812 0
M  V30 457 C 47.0691 -1.04933 -1.72724 0
M  V30 458 C 47.3901 0.416158 -1.90508 0
M  V30 459 O 46.6601 1.29918 -1.46622 0
M  V30 460 H 45.2401 -0.385296 -0.639965 0
M  V30 461 H 47.9021 -1.54105 -1.19322 0
M  V30 462 H 46.9981 -1.52886 -2.72089 0
M  V30 463 N 47.2992 1.18797 -1.03562 0
M  V30 464 C 48.5472 1.88278 -0.734569 0
M  V30 465 C 48.8682 1.8043 0.739586 0
M  V30 466 O 48.1382 1.21925 1.53333 0
M  V30 467 H 46.7182 0.696991 -0.268725 0
M  V30 468 H 49.3802 1.44192 -1.31129 0
M  V30 469 H 48.4762 2.94443 -1.03489 0
M  V30 470 N 48.7773 0.814389 1.34928 0
M  V30 471 C 49.6873 0.231978 2.3345 0
M  V30 472 C 50.7033 -0.629139 1.62228 0
M  V30 473 O 51.8793 -0.539052 1.94052 0
M  V30 474 C 48.9443 -0.603482 3.41407 0
M  V30 475 C 48.0053 0.279037 4.28392 0
M  V30 476 C 47.2383 -0.516643 5.31193 0
M  V30 477 O 47.4613 -1.75068 5.4287 0
M  V30 478 O 46.3953 0.0965652 6.01823 0
M  V30 479 H 50.2213 1.04721 2.85074 0
M  V30 480 H 47.8063 0.576343 1.37836 0
M  V30 481 H 49.6883 -1.07908 4.0735 0
M  V30 482 H 48.3633 -1.39618 2.92042 0
M  V30 483 H 47.2703 0.801948 3.65403 0
M  V30 484 H 48.6033 1.03588 4.81176 0
M  V30 485 N 50.2554 -1.46986 0.568584 0
M  V30 486 C 51.2024 -2.30153 -0.172707 0
M  V30 487 C 52.1724 -1.39759 -0.897586 0
M  V30 488 O 53.3574 -1.68716 -0.891044 0
M  V30 489 C 50.4974 -3.23952 -1.1895 0
M  V30 490 C 49.6104 -4.29441 -0.469517 0
M  V30 491 C 48.7454 -5.1038 -1.47259 0
M  V30 492 C 47.7844 -6.07632 -0.738225 0
M  V30 493 N 46.9214 -6.8149 -1.68868 0
M  V30 494 H 51.7614 -2.93019 0.542596 0
M  V30 495 H 49.2984 -1.44422 0.279401 0
M  V30 496 H 51.2564 -3.76767 -1.79173 0
M  V30 497 H 49.8864 -2.62926 -1.87269 0
M  V30 498 H 48.9384 -3.79594 0.247467 0
M  V30 499 H 50.2504 -4.98689 0.105241 0
M  V30 500 H 49.4044 -5.67402 -2.14803 0
M  V30 501 H 48.1434 -4.4106 -2.08128 0
M  V30 502 H 47.1484 -5.49778 -0.0489293 0
M  V30 503 H 48.3734 -6.78966 -0.135129 0
M  V30 504 H 46.3194 -6.14891 -2.28573 0
M  V30 505 H 46.2364 -7.46948 -1.16636 0
M  V30 506 H 47.5044 -7.43078 -2.3549 0
M  V30 507 N 51.7335 -0.305618 -1.54608 0
M  V30 508 C 52.6435 0.57778 -2.27374 0
M  V30 509 C 53.6595 1.14451 -1.31061 0
M  V30 510 O 54.8355 1.16831 -1.6405 0
M  V30 511 C 51.9005 1.73123 -3.00382 0
M  V30 512 C 50.9615 1.19812 -4.12242 0
M  V30 513 C 50.1945 2.2966 -4.81759 0
M  V30 514 O 50.4175 3.49651 -4.50666 0
M  V30 515 O 49.3515 1.96091 -5.69062 0
M  V30 516 H 53.1775 -0.012624 -3.03697 0
M  V30 517 H 50.7625 -0.0719184 -1.49227 0
M  V30 518 H 52.6445 2.40315 -3.4616 0
M  V30 519 H 51.3195 2.30815 -2.26949 0
M  V30 520 H 50.2265 0.491798 -3.70853 0
M  V30 521 H 51.5595 0.666566 -4.87666 0
M  V30 522 N 53.2116 1.57565 -0.0334293 0
M  V30 523 C 54.4396 1.9628 0.654347 0
M  V30 524 C 54.8546 0.910138 1.65414 0
M  V30 525 O 54.2116 -0.107595 1.82183 0
M  V30 526 C 54.2626 3.35067 1.35693 0
M  V30 527 O 53.9836 4.36296 0.397191 0
M  V30 528 C 55.4846 3.88439 2.13613 0
M  V30 529 H 52.7046 0.646369 0.180132 0
M  V30 530 H 55.2486 2.04282 -0.0944721 0
M  V30 531 H 53.4036 3.2827 2.05712 0
M  V30 532 H 53.8176 5.1678 0.896597 0
M  V30 533 H 55.2916 4.8788 2.58219 0
M  V30 534 H 55.7686 3.22914 2.97696 0
M  V30 535 H 56.3746 3.98516 1.48543 0
M  V30 536 N 54.6897 -0.239769 1.55765 0
M  V30 537 C 55.9147 -0.988373 1.82335 0
M  V30 538 C 56.3397 -1.77886 0.611421 0
M  V30 539 O 55.6977 -1.75889 -0.439639 0
M  V30 540 C 55.7457 -1.89627 3.06715 0
M  V30 541 O 54.8497 -2.98904 2.84131 0
M  V30 542 H 54.1907 -0.280858 0.601677 0
M  V30 543 H 56.7207 -0.258597 2.02959 0
M  V30 544 H 56.7307 -2.30957 3.36338 0
M  V30 545 H 55.4057 -1.31511 3.9456 0
M  V30 546 H 53.9827 -2.61651 2.65694 0
M  V30 547 N 56.1678 -1.49265 -0.50573 0
M  V30 548 C 57.1308 -1.65075 -1.59006 0
M  V30 549 C 58.1308 -0.522768 -1.52065 0
M  V30 550 O 59.3208 -0.789117 -1.55302 0
M  V30 551 C 56.4528 -1.64369 -2.98656 0
M  V30 552 H 57.6458 -2.61784 -1.46319 0
M  V30 553 H 55.1988 -1.38226 -0.729616 0
M  V30 554 H 55.9338 -0.692272 -3.16825 0
M  V30 555 H 55.7188 -2.46282 -3.05103 0
M  V30 556 H 57.2088 -1.78674 -3.77446 0
M  V30 557 N 57.6459 0.756429 -1.3826 0
M  V30 558 C 58.8739 1.54565 -1.3754 0
M  V30 559 C 59.2889 1.88767 0.0355331 0
M  V30 560 O 58.6459 1.52572 1.0014 0
M  V30 561 C 58.6969 2.84654 -2.22833 0
M  V30 562 O 58.4179 2.51912 -3.5843 0
M  V30 563 C 59.9189 3.78807 -2.30261 0
M  V30 564 H 57.1389 0.478353 -0.470553 0
M  V30 565 H 59.6829 0.936381 -1.81803 0
M  V30 566 H 57.8379 3.41965 -1.8204 0
M  V30 567 H 58.2519 3.35325 -4.03308 0
M  V30 568 H 59.7259 4.67045 -2.94233 0
M  V30 569 H 60.2029 4.19038 -1.31545 0
M  V30 570 H 60.8089 3.2742 -2.71433 0
M  V30 571 N 59.124 1.23083 0.984299 0
M  V30 572 C 60.056 0.96636 2.07832 0
M  V30 573 C 61.069 -0.0582135 1.62696 0
M  V30 574 O 62.258 0.176843 1.77622 0
M  V30 575 C 59.358 0.433397 3.36117 0
M  V30 576 C 58.531 1.51722 4.10243 0
M  V30 577 C 57.59 0.989821 5.16807 0
M  V30 578 O 56.616 1.67794 5.43906 0
M  V30 579 N 57.818 -0.184367 5.80207 0
M  V30 580 H 60.583 1.90824 2.31098 0
M  V30 581 H 58.144 1.13888 1.1507 0
M  V30 582 H 60.136 0.065699 4.04647 0
M  V30 583 H 58.706 -0.413806 3.09849 0
M  V30 584 H 57.926 2.05786 3.36223 0
M  V30 585 H 59.214 2.24619 4.56534 0
M  V30 586 H 58.612 -0.760062 5.60571 0
M  V30 587 H 57.169 -0.493366 6.4993 0
M  V30 588 N 60.6021 -1.18246 1.0419 0
M  V30 589 C 62.0181 -1.40269 0.761366 0
M  V30 590 C 62.2181 -1.90777 -0.648578 0
M  V30 591 O 61.2741 -2.0929 -1.41258 0
M  V30 592 C 62.5871 -2.40237 1.8085 0
M  V30 593 C 64.1351 -2.53961 1.82955 0
M  V30 594 C 64.6101 -3.57194 2.86664 0
M  V30 595 N 66.1011 -3.64702 2.85563 0
M  V30 596 C 66.8361 -4.44309 3.6246 0
M  V30 597 N 66.3321 -5.27514 4.49111 0
M  V30 598 N 68.1251 -4.39084 3.50944 0
M  V30 599 H 60.2761 -0.837882 1.95175 0
M  V30 600 H 62.5391 -0.430608 0.84456 0
M  V30 601 H 62.2451 -2.10176 2.81991 0
M  V30 602 H 62.1191 -3.39601 1.64168 0
M  V30 603 H 64.5061 -2.83338 0.824855 0
M  V30 604 H 64.5871 -1.54706 2.03715 0
M  V30 605 H 64.2311 -3.28558 3.87314 0
M  V30 606 H 64.1611 -4.5613 2.6316 0
M  V30 607 H 66.6521 -3.05289 2.22727 0
M  V30 608 H 66.9651 -5.85411 5.04493 0
M  V30 609 H 65.3101 -5.2693 4.53178 0
M  V30 610 H 68.5011 -3.7313 2.82651 0
M  V30 611 H 68.6741 -5.00883 4.11121 0
M  V30 612 N 62.0802 -0.821533 -1.34494 0
M  V30 613 C 63.3052 -0.420873 -2.03085 0
M  V30 614 C 63.7302 0.964915 -1.61465 0
M  V30 615 O 63.0882 1.62763 -0.798607 0
M  V30 616 C 63.1362 -0.529414 -3.56693 0
M  V30 617 O 62.2402 0.451302 -4.09923 0
M  V30 618 H 61.5812 -0.173489 -0.640935 0
M  V30 619 H 64.1112 -1.11157 -1.71771 0
M  V30 620 H 64.1212 -0.404671 -4.05988 0
M  V30 621 H 62.7962 -1.54014 -3.86332 0
M  V30 622 H 61.3732 0.285558 -3.71805 0
M  V30 623 N 63.5583 1.46682 -0.576371 0
M  V30 624 C 64.7833 2.07304 -0.0630475 0
M  V30 625 C 65.2083 1.42329 1.2298 0
M  V30 626 O 64.5663 0.504865 1.74129 0
M  V30 627 C 64.6143 3.60472 0.095895 0
M  V30 628 O 63.7183 3.95927 1.15394 0
M  V30 629 H 63.0593 0.661288 -0.0599463 0
M  V30 630 H 65.5893 1.88417 -0.797511 0
M  V30 631 H 65.5993 4.06865 0.304071 0
M  V30 632 H 64.2743 4.07157 -0.84828 0
M  V30 633 H 62.8513 3.61252 0.924724 0
M  V30 634 N 65.0364 0.313813 1.54444 0
M  V30 635 C 66.2824 -0.292108 2.00685 0
M  V30 636 C 66.6154 -1.52548 1.20177 0
M  V30 637 O 65.8904 -1.92452 0.281531 0
M  V30 638 C 66.1734 -0.635968 3.5444 0
M  V30 639 C 66.0264 0.607437 4.4568 0
M  V30 640 C 67.3454 -1.45747 4.15266 0
M  V30 641 H 64.4644 -0.104697 0.729526 0
M  V30 642 H 67.1064 0.428457 1.85106 0
M  V30 643 H 65.2564 -1.24986 3.67846 0
M  V30 644 H 66.9284 1.24581 4.44159 0
M  V30 645 H 65.1714 1.23822 4.15753 0
M  V30 646 H 65.8424 0.322515 5.51057 0
M  V30 647 H 68.3184 -0.938645 4.05375 0
M  V30 648 H 67.1944 -1.66683 5.2298 0
M  V30 649 H 67.4554 -2.45063 3.67963 0
M  V30 650 N 66.5145 -1.57545 0.0417849 0
M  V30 651 C 67.9255 -1.80011 -0.495259 0
M  V30 652 C 68.2765 -0.953199 -1.71489 0
M  V30 653 O 67.4015 -0.167138 -2.15754 0
M  V30 654 C 67.9965 -3.26482 -0.905265 0
M  V30 655 C 66.5555 -3.499 -1.38734 0
M  V30 656 C 65.7025 -2.74979 -0.358056 0
M  V30 657 H 68.6535 -1.56425 0.267736 0
M  V30 658 H 68.6745 -3.36887 -1.76882 0
M  V30 659 H 68.1865 -3.88096 -0.017401 0
M  V30 660 H 66.2875 -2.93553 -2.29471 0
M  V30 661 H 66.4005 -4.58615 -1.38598 0
M  V30 662 H 64.7645 -2.40834 -0.828912 0
M  V30 663 H 65.5475 -3.39315 0.521561 0
M  V30 664 N 67.9926 0.231505 -1.5589 0
M  V30 665 C 69.2176 0.978689 -1.82856 0
M  V30 666 C 69.6426 1.77559 -0.620846 0
M  V30 667 O 69.0006 1.76119 0.430305 0
M  V30 668 C 69.0486 1.87997 -3.07716 0
M  V30 669 O 68.1526 2.97393 -2.85712 0
M  V30 670 H 67.4936 0.277663 -0.603158 0
M  V30 671 H 70.0236 0.24783 -2.03093 0
M  V30 672 H 70.0336 2.2917 -3.37558 0
M  V30 673 H 68.7086 1.29417 -3.95252 0
M  V30 674 H 67.2856 2.60238 -2.67078 0
M  V30 675 N 69.4707 1.49531 0.497807 0
M  V30 676 C 70.6957 1.63159 1.28039 0
M  V30 677 C 71.1207 0.30418 1.85624 0
M  V30 678 O 70.4787 -0.728618 1.66015 0
M  V30 679 C 70.5267 2.70537 2.38416 0
M  V30 680 O 69.6307 2.29931 3.42353 0
M  V30 681 H 68.9717 0.546001 0.377861 0
M  V30 682 H 71.5017 1.9574 0.59558 0
M  V30 683 H 71.5117 2.92802 2.84132 0
M  V30 684 H 70.1867 3.6689 1.95869 0
M  V30 685 H 68.7637 2.18009 3.02533 0
M  V30 686 N 70.9488 -0.749086 1.3866 0
M  V30 687 C 72.1768 -1.53834 1.38358 0
M  V30 688 C 72.5918 -1.88783 -0.0255219 0
M  V30 689 O 71.9488 -1.53101 -0.993292 0
M  V30 690 C 71.9998 -2.83468 2.2434 0
M  V30 691 O 71.7208 -2.50008 3.5976 0
M  V30 692 C 73.2218 -3.7758 2.32267 0
M  V30 693 H 70.4418 -0.47585 0.473083 0
M  V30 694 H 72.9858 -0.926726 1.82297 0
M  V30 695 H 71.1408 -3.40995 1.83851 0
M  V30 696 H 71.5548 -3.33182 4.05081 0
M  V30 697 H 73.0288 -4.65478 2.96706 0
M  V30 698 H 73.5058 -4.18334 1.33765 0
M  V30 699 H 74.1118 -3.25976 2.73166 0
M  V30 700 N 72.4269 -1.23603 -0.977757 0
M  V30 701 C 73.3369 -1.03632 -2.1047 0
M  V30 702 C 74.3529 0.0199435 -1.73989 0
M  V30 703 O 75.5289 -0.176076 -2.00629 0
M  V30 704 C 72.5939 -0.63276 -3.40877 0
M  V30 705 C 71.6549 -1.76437 -3.91367 0
M  V30 706 C 70.8879 -1.37997 -5.15551 0
M  V30 707 O 71.1109 -0.265357 -5.69782 0
M  V30 708 O 70.0449 -2.20201 -5.60174 0
M  V30 709 H 73.8709 -1.98086 -2.30208 0
M  V30 710 H 71.4559 -1.02332 -1.08851 0
M  V30 711 H 73.3379 -0.418761 -4.19314 0
M  V30 712 H 72.0129 0.282754 -3.22463 0
M  V30 713 H 70.9199 -2.03304 -3.14036 0
M  V30 714 H 72.2529 -2.6583 -4.14241 0
M  V30 715 N 73.905 1.17692 -1.04816 0
M  V30 716 C 74.852 2.21581 -0.645797 0
M  V30 717 C 75.822 1.62367 0.350159 0
M  V30 718 O 77.007 1.89254 0.242433 0
M  V30 719 C 74.147 3.45092 -0.0227568 0
M  V30 720 C 73.26 4.18613 -1.06709 0
M  V30 721 C 72.395 5.29602 -0.411767 0
M  V30 722 C 71.434 5.94904 -1.44067 0
M  V30 723 N 70.571 6.97414 -0.809781 0
M  V30 724 H 75.411 2.55353 -1.5362 0
M  V30 725 H 72.948 1.25438 -0.768364 0
M  V30 726 H 74.906 4.15679 0.35588 0
M  V30 727 H 73.536 3.11917 0.831122 0
M  V30 728 H 72.588 3.46779 -1.5636 0
M  V30 729 H 73.9 4.63293 -1.84827 0
M  V30 730 H 73.054 6.06696 0.0206623 0
M  V30 731 H 71.793 4.86045 0.401438 0
M  V30 732 H 70.798 5.16544 -1.88316 0
M  V30 733 H 72.023 6.40542 -2.25571 0
M  V30 734 H 69.969 6.55998 -0.0170186 0
M  V30 735 H 69.886 7.40386 -1.52856 0
M  V30 736 H 71.154 7.78463 -0.401999 0
M  V30 737 N 75.3831 0.828654 1.34056 0
M  V30 738 C 76.3311 0.242973 2.31327 0
M  V30 739 C 77.3251 -0.61944 1.57668 0
M  V30 740 O 78.5311 -0.51014 1.7262 0
M  V30 741 H 74.9061 0.059834 0.749616 0
M  V30 742 H 76.8771 1.07809 2.78244 0
M  V30 743 C 75.6261 -0.575733 3.429 0
M  V30 744 H 74.9491 0.0785582 3.99723 0
M  V30 745 H 76.3891 -0.951547 4.13185 0
M  V30 746 C 74.8481 -1.75044 2.87856 0
M  V30 747 O 75.3781 -2.84882 2.83205 0
M  V30 748 N 73.5841 -1.56903 2.44602 0
M  V30 749 H 73.1311 -0.675547 2.48584 0
M  V30 750 H 73.0891 -2.35652 2.08124 0
M  V30 751 N 76.8612 -1.46375 0.584142 0
M  V30 752 C 77.8242 -2.28784 -0.138108 0
M  V30 753 C 78.8242 -1.38471 -0.817462 0
M  V30 754 O 80.0142 -1.60833 -0.669199 0
M  V30 755 C 77.1462 -3.18892 -1.20503 0
M  V30 756 H 78.3392 -2.94117 0.586127 0
M  V30 757 H 75.8922 -1.52509 0.342171 0
M  V30 758 H 76.6272 -2.58309 -1.96079 0
M  V30 759 H 76.4122 -3.85388 -0.722384 0
M  V30 760 H 77.9022 -3.80914 -1.71155 0
M  V30 761 N 78.3393 -0.321999 -1.54275 0
M  V30 762 C 79.5853 0.281461 -2.00837 0
M  V30 763 C 79.9183 1.51909 -1.20985 0
M  V30 764 O 79.1933 1.923 -0.291733 0
M  V30 765 C 79.4763 0.617162 -3.54772 0
M  V30 766 C 79.3293 -0.631064 -4.45351 0
M  V30 767 C 80.6483 1.43542 -4.16033 0
M  V30 768 H 77.7673 0.100826 -0.730071 0
M  V30 769 H 80.4093 -0.438268 -1.84876 0
M  V30 770 H 78.5593 1.23034 -3.68504 0
M  V30 771 H 80.2313 -1.26934 -4.43492 0
M  V30 772 H 78.4743 -1.26025 -4.15091 0
M  V30 773 H 79.1453 -0.351735 -5.50878 0
M  V30 774 H 81.6213 0.917134 -4.05867 0
M  V30 775 H 80.4973 1.63907 -5.23856 0
M  V30 776 H 80.7583 2.43108 -3.69257 0
M  V30 777 N 79.8174 1.5752 -0.0501392 0
M  V30 778 C 81.0424 1.97376 0.636997 0
M  V30 779 C 81.4674 0.927466 1.63645 0
M  V30 780 O 80.8254 -0.10941 1.8097 0
M  V30 781 C 80.8734 3.36304 1.30123 0
M  V30 782 O 79.9774 3.34156 2.41689 0
M  V30 783 H 79.3184 0.642998 0.165679 0
M  V30 784 H 81.8484 2.04258 -0.118233 0
M  V30 785 H 81.8584 3.73008 1.65315 0
M  V30 786 H 80.5334 4.11993 0.568746 0
M  V30 787 H 79.1104 3.09196 2.08451 0
M  V30 788 N 81.2955 -0.223234 1.56011 0
M  V30 789 C 82.2285 -1.30377 1.87289 0
M  V30 790 C 83.2065 -1.45286 0.730112 0
M  V30 791 O 84.3905 -1.61126 0.978302 0
M  V30 792 C 81.5175 -2.67431 2.07843 0
M  V30 793 C 80.5635 -2.69546 3.30526 0
M  V30 794 S 81.3965 -2.23781 4.865 0
M  V30 795 C 82.5525 -3.62714 5.10088 0
M  V30 796 H 82.7855 -1.03652 2.78646 0
M  V30 797 H 80.3185 -0.425393 1.48424 0
M  V30 798 H 82.2765 -3.46336 2.20368 0
M  V30 799 H 80.9375 -2.91381 1.17285 0
M  V30 800 H 80.1305 -3.70255 3.41947 0
M  V30 801 H 79.7325 -1.98703 3.16849 0
M  V30 802 H 82.0245 -4.58391 4.98883 0
M  V30 803 H 82.9675 -3.5621 6.11981 0
M  V30 804 H 83.3755 -3.56323 4.37829 0
M  V30 805 N 82.7736 -1.49793 -0.48987 0
M  V30 806 C 84.0016 -1.63568 -1.26701 0
M  V30 807 C 84.4166 -0.311465 -1.86213 0
M  V30 808 O 83.7736 0.704416 -1.68357 0
M  V30 809 C 83.8246 -2.71284 -2.38929 0
M  V30 810 O 83.5456 -3.9857 -1.81861 0
M  V30 811 C 85.0466 -2.95864 -3.3012 0
M  V30 812 H 82.2666 -0.550342 -0.383881 0
M  V30 813 H 84.8106 -1.95898 -0.586864 0
M  V30 814 H 82.9656 -2.417 -3.02753 0
M  V30 815 H 83.3796 -4.57993 -2.55622 0
M  V30 816 H 84.8536 -3.74941 -4.05121 0
M  V30 817 H 85.3306 -2.06206 -3.87783 0
M  V30 818 H 85.9366 -3.26907 -2.72051 0
M  V30 819 N 84.2517 0.741722 -1.39055 0
M  V30 820 C 85.4767 1.53607 -1.39354 0
M  V30 821 C 85.9017 1.88096 0.0116905 0
M  V30 822 O 85.2597 1.5143 0.996924 0
M  V30 823 C 85.3077 2.80441 -2.26682 0
M  V30 824 O 84.4117 3.76088 -1.69208 0
M  V30 825 H 83.7527 0.464142 -0.474835 0
M  V30 826 H 86.2827 0.915665 -1.82967 0
M  V30 827 H 86.2927 3.29246 -2.40959 0
M  V30 828 H 84.9677 2.5467 -3.2881 0
M  V30 829 H 83.5447 3.34833 -1.64138 0
M  V30 830 N 85.7298 1.2412 0.971189 0
M  V30 831 C 86.9548 1.10667 1.75407 0
M  V30 832 C 87.3798 -0.337048 1.85056 0
M  V30 833 O 86.7378 -1.24396 1.31892 0
M  V30 834 C 86.7858 1.74726 3.15441 0
M  V30 835 O 85.8898 1.01566 3.99697 0
M  V30 836 H 85.2308 0.387341 0.539317 0
M  V30 837 H 87.7608 1.64358 1.2185 0
M  V30 838 H 87.7708 1.80341 3.6598 0
M  V30 839 H 86.4458 2.79773 3.07734 0
M  V30 840 H 85.0228 1.03713 3.58187 0
M  V30 841 N 87.2079 -1.17134 1.05439 0
M  V30 842 C 88.4539 -1.87733 0.767077 0
M  V30 843 C 88.7869 -1.8098 -0.704253 0
M  V30 844 O 88.0619 -1.21951 -1.5152 0
M  V30 845 C 88.3449 -3.37659 1.25133 0
M  V30 846 C 88.1979 -3.53149 2.78578 0
M  V30 847 C 89.5169 -4.31768 0.852324 0
M  V30 848 H 86.6359 -0.681687 0.280129 0
M  V30 849 H 89.2779 -1.37732 1.30881 0
M  V30 850 H 87.4279 -3.80373 0.790469 0
M  V30 851 H 89.0999 -3.19434 3.32806 0
M  V30 852 H 87.3429 -2.95345 3.17732 0
M  V30 853 H 88.0139 -4.58403 3.07523 0
M  V30 854 H 90.4899 -3.96909 1.24911 0
M  V30 855 H 89.3659 -5.35199 1.21873 0
M  V30 856 H 89.6269 -4.41429 -0.243485 0
M  V30 857 N 88.686 -0.835752 -1.33615 0
M  V30 858 C 89.616 -0.281739 -2.31794 0
M  V30 859 C 90.597 0.608833 -1.58831 0
M  V30 860 O 91.782 0.533035 -1.86741 0
M  V30 861 C 88.912 0.546612 -3.42971 0
M  V30 862 C 87.866 -0.247904 -4.27281 0
M  V30 863 C 87.192 0.704001 -5.30045 0
M  V30 864 C 88.492 -1.46324 -5.01385 0
M  V30 865 H 90.186 -1.10206 -2.78379 0
M  V30 866 H 87.732 -0.531388 -1.33837 0
M  V30 867 H 89.685 0.944467 -4.1068 0
M  V30 868 H 88.409 1.40011 -2.95067 0
M  V30 869 H 87.068 -0.627281 -3.61194 0
M  V30 870 H 86.716 1.55381 -4.78399 0
M  V30 871 H 86.416 0.176524 -5.87335 0
M  V30 872 H 87.94 1.09944 -6.0062 0
M  V30 873 H 89.354 -1.13871 -5.61877 0
M  V30 874 H 87.751 -1.92728 -5.6831 0
M  V30 875 H 88.821 -2.23467 -4.30338 0
M  V30 876 N 90.1641 1.46063 -0.591896 0
M  V30 877 C 91.3891 2.07226 -0.0850314 0
M  V30 878 C 91.8141 1.43625 1.21463 0
M  V30 879 O 91.1721 0.523305 1.73583 0
M  V30 880 C 91.2201 3.60554 0.0576567 0
M  V30 881 O 90.3241 3.97128 1.11188 0
M  V30 882 H 89.6651 0.660615 -0.0669568 0
M  V30 883 H 92.1951 1.8756 -0.81745 0
M  V30 884 H 92.2051 4.07165 0.2609 0
M  V30 885 H 90.8801 4.06235 -0.891416 0
M  V30 886 H 89.4571 3.62213 0.886356 0
M  V30 887 N 91.6422 0.330177 1.54103 0
M  V30 888 C 92.8672 -0.274893 2.0557 0
M  V30 889 C 93.2922 -1.44487 1.20437 0
M  V30 890 O 92.6502 -1.80021 0.214991 0
M  V30 891 C 92.6982 -0.68079 3.54115 0
M  V30 892 O 91.8022 -1.7824 3.71893 0
M  V30 893 H 91.1432 -0.0483849 0.662235 0
M  V30 894 H 93.6732 0.480508 1.98878 0
M  V30 895 H 93.6832 -0.961635 3.96505 0
M  V30 896 H 92.3582 0.174903 4.15532 0
M  V30 897 H 90.9352 -1.49985 3.41407 0
M  V30 898 N 93.1203 -1.57491 0.0584922 0
M  V30 899 C 94.0703 -2.08474 -0.923188 0
M  V30 900 C 95.0543 -0.991479 -1.26722 0
M  V30 901 O 96.2463 -1.25473 -1.24842 0
M  V30 902 C 93.3753 -2.6392 -2.19548 0
M  V30 903 C 92.4613 -3.80227 -1.87852 0
M  V30 904 N 92.8523 -4.89714 -1.26546 0
M  V30 905 C 91.1503 -3.89271 -2.17679 0
M  V30 906 C 91.8513 -5.70689 -1.12644 0
M  V30 907 N 90.8273 -5.18531 -1.63176 0
M  V30 908 H 94.6293 -2.90517 -0.444653 0
M  V30 909 H 92.1433 -1.61745 -0.145764 0
M  V30 910 H 94.1403 -2.98752 -2.9078 0
M  V30 911 H 92.8003 -1.83318 -2.68001 0
M  V30 912 H 93.8113 -5.09358 -0.936757 0
M  V30 913 H 90.4883 -3.19623 -2.68602 0
M  V30 914 H 91.8783 -6.6875 -0.6499 0
M  V30 915 N 94.5984 0.214957 -1.56127 0
M  V30 916 C 95.8234 0.95924 -1.83884 0
M  V30 917 C 96.2484 1.7689 -0.639644 0
M  V30 918 O 95.6064 1.76566 0.411601 0
M  V30 919 C 95.6544 1.84723 -3.09693 0
M  V30 920 O 94.7584 2.94346 -2.8885 0
M  V30 921 H 94.0994 0.27125 -0.606069 0
M  V30 922 H 96.6294 0.226276 -2.03345 0
M  V30 923 H 96.6394 2.25576 -3.39969 0
M  V30 924 H 95.3144 1.25218 -3.96602 0
M  V30 925 H 93.8914 2.57391 -2.69823 0
M  V30 926 N 96.0765 1.50051 0.48192 0
M  V30 927 C 97.4875 1.5348 1.06305 0
M  V30 928 C 97.8385 0.331997 1.93371 0
M  V30 929 O 96.9635 -0.556256 2.09129 0
M  V30 930 C 97.5585 2.7813 1.93466 0
M  V30 931 C 96.1175 2.84275 2.46707 0
M  V30 932 C 95.2645 2.47637 1.24785 0
M  V30 933 H 98.2155 1.56472 0.264995 0
M  V30 934 H 98.2365 2.59372 2.78399 0
M  V30 935 H 97.7485 3.65654 1.30072 0
M  V30 936 H 95.8495 2.01077 3.13686 0
M  V30 937 H 95.9625 3.8691 2.82555 0
M  V30 938 H 94.3265 1.99835 1.57918 0
M  V30 939 H 95.1095 3.37457 0.630694 0
M  V30 940 N 97.5546 -0.734337 1.39446 0
M  V30 941 C 98.8026 -1.49096 1.36436 0
M  V30 942 C 99.1236 -1.94961 -0.0388255 0
M  V30 943 O 98.3936 -1.69033 -0.990191 0
M  V30 944 H 96.9736 -0.5531 0.502085 0
M  V30 945 H 99.6356 -0.871725 1.74319 0
M  V30 946 H 98.7316 -2.37276 2.02747 0
M  V30 947 N 99.0327 -1.24633 -0.964593 0
M  V30 948 C 100.258 -1.11596 -1.74818 0
M  V30 949 C 100.683 0.32723 -1.85232 0
M  V30 950 O 100.041 1.23695 -1.32549 0
M  V30 951 C 100.089 -1.76397 -3.1451 0
M  V30 952 O 99.1927 -1.03685 -3.99153 0
M  V30 953 H 98.5337 -0.390196 -0.537255 0
M  V30 954 H 101.064 -1.65002 -1.20977 0
M  V30 955 H 101.074 -1.8228 -3.65018 0
M  V30 956 H 99.7487 -2.81401 -3.06246 0
M  V30 957 H 98.3257 -1.05611 -3.57632 0
M  V30 958 N 100.511 1.16574 -1.06058 0
M  V30 959 C 101.759 1.86677 -0.77434 0
M  V30 960 C 102.08 1.81959 0.701147 0
M  V30 961 O 101.35 1.2515 1.50713 0
M  V30 962 H 99.9298 0.691134 -0.283449 0
M  V30 963 H 102.592 1.41378 -1.34158 0
M  V30 964 H 101.688 2.92181 -1.09711 0
M  V30 965 N 101.989 0.842826 1.3317 0
M  V30 966 C 103.214 0.453129 2.02389 0
M  V30 967 C 103.639 -0.939105 1.6298 0
M  V30 968 O 102.997 -1.61472 0.8244 0
M  V30 969 C 103.045 0.586094 3.55805 0
M  V30 970 O 102.149 -0.386029 4.10589 0
M  V30 971 H 101.49 0.183664 0.638094 0
M  V30 972 H 104.02 1.13875 1.69981 0
M  V30 973 H 104.03 0.469209 4.05293 0
M  V30 974 H 102.705 1.6014 3.83833 0
M  V30 975 H 101.282 -0.226371 3.72212 0
M  V30 976 N 103.467 -1.45747 0.599634 0
M  V30 977 C 104.692 -2.07178 0.0960198 0
M  V30 978 C 105.117 -1.44268 -1.207 0
M  V30 979 O 104.475 -0.532503 -1.73303 0
M  V30 980 C 104.523 -3.60579 -0.0385348 0
M  V30 981 O 103.627 -3.97713 -1.0908 0
M  V30 982 H 102.968 -0.660251 0.0704593 0
M  V30 983 H 105.498 -1.87124 0.827385 0
M  V30 984 H 105.508 -4.07298 -0.239304 0
M  V30 985 H 104.183 -4.05756 0.912947 0
M  V30 986 H 102.76 -3.62678 -0.867135 0
M  V30 987 N 104.945 -0.338344 -1.53925 0
M  V30 988 C 106.173 0.261298 -2.05243 0
M  V30 989 C 106.588 1.44625 -1.21363 0
M  V30 990 O 105.945 1.80811 -0.247736 0
M  V30 991 C 105.996 0.681412 -3.5502 0
M  V30 992 O 105.717 -0.456414 -4.35716 0
M  V30 993 C 107.218 1.34232 -4.22489 0
M  V30 994 H 104.438 0.0513685 -0.669031 0
M  V30 995 H 106.982 -0.488822 -1.98572 0
M  V30 996 H 105.137 1.38148 -3.61931 0
M  V30 997 H 105.551 -0.122564 -5.24357 0
M  V30 998 H 107.025 1.58708 -5.28693 0
M  V30 999 H 107.502 2.29426 -3.74514 0
M  V30 1000 H 108.108 0.684424 -4.19757 0
M  V30 1001 N 106.423 1.57458 -0.0668435 0
M  V30 1002 C 107.651 1.97624 0.612565 0
M  V30 1003 C 108.066 0.94502 1.63447 0
M  V30 1004 O 107.423 -0.0689276 1.8237 0
M  V30 1005 C 107.474 3.37869 1.28555 0
M  V30 1006 O 107.195 4.3704 0.304557 0
M  V30 1007 C 108.696 3.92882 2.05325 0
M  V30 1008 H 105.916 0.650045 0.166381 0
M  V30 1009 H 108.46 2.04035 -0.137782 0
M  V30 1010 H 106.615 3.3256 1.98702 0
M  V30 1011 H 107.029 5.18565 0.786779 0
M  V30 1012 H 108.503 4.93247 2.47812 0
M  V30 1013 H 108.98 3.29156 2.9078 0
M  V30 1014 H 109.586 4.01577 1.40056 0
M  V30 1015 N 107.901 -0.206675 1.56239 0
M  V30 1016 C 108.833 -1.27997 1.9013 0
M  V30 1017 C 109.846 -1.42299 0.790883 0
M  V30 1018 O 111.035 -1.42931 1.06925 0
M  V30 1019 C 108.135 -2.65368 2.10792 0
M  V30 1020 C 107.308 -2.72824 3.41886 0
M  V30 1021 C 106.367 -3.9131 3.51799 0
M  V30 1022 O 105.393 -3.78953 4.24716 0
M  V30 1023 N 106.595 -5.06265 2.84035 0
M  V30 1024 H 109.36 -0.992444 2.82791 0
M  V30 1025 H 106.921 -0.396652 1.56966 0
M  V30 1026 H 108.913 -3.43039 2.14724 0
M  V30 1027 H 107.483 -2.86657 1.24685 0
M  V30 1028 H 106.703 -1.81515 3.49923 0
M  V30 1029 H 107.991 -2.74786 4.28217 0
M  V30 1030 H 107.389 -5.19203 2.246 0
M  V30 1031 H 105.946 -5.81925 2.93609 0
M  V30 1032 N 109.379 -1.50304 -0.473955 0
M  V30 1033 C 110.627 -1.60832 -1.22382 0
M  V30 1034 C 110.948 -0.30939 -1.9253 0
M  V30 1035 O 110.218 0.67296 -1.83978 0
M  V30 1036 H 108.798 -0.592652 -0.454723 0
M  V30 1037 H 111.46 -1.87068 -0.546968 0
M  V30 1038 H 110.556 -2.41803 -1.97327 0
M  V30 1039 N 110.857 0.726932 -1.39834 0
M  V30 1040 C 111.789 1.85147 -1.35104 0
M  V30 1041 C 112.802 1.60736 -0.258392 0
M  V30 1042 O 113.991 1.70821 -0.517931 0
M  V30 1043 C 111.091 3.21332 -1.07697 0
M  V30 1044 C 110.264 3.73033 -2.28396 0
M  V30 1045 C 109.323 4.87802 -1.97322 0
M  V30 1046 O 108.349 5.01043 -2.70083 0
M  V30 1047 N 109.551 5.72768 -0.944273 0
M  V30 1048 H 112.316 1.89706 -2.32017 0
M  V30 1049 H 109.877 0.908006 -1.3404 0
M  V30 1050 H 111.869 3.95691 -0.849144 0
M  V30 1051 H 110.439 3.11992 -0.194909 0
M  V30 1052 H 109.659 2.89934 -2.6708 0
M  V30 1053 H 110.947 4.0431 -3.08887 0
M  V30 1054 H 110.345 5.64669 -0.341427 0
M  V30 1055 H 108.902 6.4716 -0.776346 0
M  V30 1056 N 112.336 1.25143 0.95797 0
M  V30 1057 C 113.613 1.00472 1.67823 0
M  V30 1058 C 113.993 -0.470056 2.058 0
M  V30 1059 O 113.341 -1.44663 1.76875 0
M  V30 1060 C 113.551 1.9372 2.90299 0
M  V30 1061 C 114.899 2.21371 3.62326 0
M  V30 1062 O 115.923 1.91451 3.00375 0
M  V30 1063 O 114.782 2.72231 4.7387 0
M  V30 1064 H 111.876 0.380752 0.734137 0
M  V30 1065 H 114.422 1.36283 1.01119 0
M  V30 1066 H 113.194 2.93316 2.59001 0
M  V30 1067 H 112.817 1.58286 3.64735 0
M  V30 1068 N 113.814 -1.1601 1.06675 0
M  V30 1069 C 115.06 -1.86909 0.786945 0
M  V30 1070 C 115.393 -1.81717 -0.685018 0
M  V30 1071 O 114.668 -1.23551 -1.50218 0
M  V30 1072 C 114.951 -3.36313 1.28707 0
M  V30 1073 C 114.804 -3.50175 2.82308 0
M  V30 1074 C 116.123 -4.3084 0.898071 0
M  V30 1075 H 113.242 -0.678677 0.287343 0
M  V30 1076 H 115.884 -1.36336 1.32334 0
M  V30 1077 H 114.034 -3.79513 0.830768 0
M  V30 1078 H 115.706 -3.15886 3.36175 0
M  V30 1079 H 113.949 -2.91959 3.20847 0
M  V30 1080 H 114.62 -4.55116 3.12368 0
M  V30 1081 H 117.096 -3.95561 1.29114 0
M  V30 1082 H 115.972 -5.33876 1.27543 0
M  V30 1083 H 116.233 -4.41662 -0.196651 0
M  V30 1084 N 115.292 -0.849877 -1.32721 0
M  V30 1085 C 116.52 -0.464754 -2.01613 0
M  V30 1086 C 116.935 0.937191 -1.63897 0
M  V30 1087 O 116.292 1.61081 -0.857856 0
M  V30 1088 C 116.343 -0.588638 -3.56675 0
M  V30 1089 O 116.064 -1.93535 -3.93034 0
M  V30 1090 C 117.565 -0.2019 -4.4284 0
M  V30 1091 H 114.785 -0.183215 -0.645502 0
M  V30 1092 H 117.329 -1.1455 -1.69407 0
M  V30 1093 H 115.484 0.0443159 -3.87375 0
M  V30 1094 H 115.898 -1.92871 -4.87751 0
M  V30 1095 H 117.372 -0.339599 -5.50954 0
M  V30 1096 H 117.849 0.857224 -4.30753 0
M  V30 1097 H 118.455 -0.809733 -4.17521 0
M  V30 1098 N 116.77 1.45427 -0.607355 0
M  V30 1099 C 117.7 2.3329 0.0989352 0
M  V30 1100 C 118.681 1.46816 0.859007 0
M  V30 1101 O 119.866 1.75588 0.829604 0
M  V30 1102 C 116.996 3.29518 1.09705 0
M  V30 1103 C 115.95 4.25626 0.450206 0
M  V30 1104 C 115.276 5.11542 1.55655 0
M  V30 1105 C 116.576 5.18505 -0.628455 0
M  V30 1106 H 118.27 2.92595 -0.634716 0
M  V30 1107 H 115.816 1.40696 -0.306681 0
M  V30 1108 H 117.769 3.89855 1.59971 0
M  V30 1109 H 116.493 2.68372 1.86129 0
M  V30 1110 H 115.152 3.66586 -0.0315886 0
M  V30 1111 H 114.8 4.46765 2.31107 0
M  V30 1112 H 114.5 5.76647 1.12925 0
M  V30 1113 H 116.024 5.74748 2.06148 0
M  V30 1114 H 117.438 5.72916 -0.209877 0
M  V30 1115 H 115.835 5.92085 -0.977489 0
M  V30 1116 H 116.905 4.60948 -1.50514 0
M  V30 1117 N 118.248 0.346503 1.53744 0
M  V30 1118 C 119.211 -0.496439 2.23759 0
M  V30 1119 C 120.211 -1.0252 1.2388 0
M  V30 1120 O 121.401 -0.913974 1.48297 0
M  V30 1121 C 118.533 -1.69187 2.95954 0
M  V30 1122 H 119.726 0.115952 2.99676 0
M  V30 1123 H 117.279 0.0978939 1.55993 0
M  V30 1124 H 118.014 -2.34288 2.24231 0
M  V30 1125 H 117.799 -1.31989 3.69217 0
M  V30 1126 H 119.289 -2.28969 3.49232 0
M  V30 1127 N 119.726 -1.57421 0.075193 0
M  V30 1128 C 121.137 -1.81021 -0.456964 0
M  V30 1129 C 121.488 -0.98936 -1.69429 0
M  V30 1130 O 120.613 -0.212865 -2.15351 0
M  V30 1131 C 121.208 -3.28329 -0.83581 0
M  V30 1132 C 119.767 -3.52764 -1.31281 0
M  V30 1133 C 118.914 -2.75676 -0.299648 0
M  V30 1134 H 121.865 -1.55822 0.300856 0
M  V30 1135 H 121.886 -3.40564 -1.69696 0
M  V30 1136 H 121.398 -3.88046 0.0649238 0
M  V30 1137 H 119.499 -2.98355 -2.23193 0
M  V30 1138 H 119.612 -4.61451 -1.28839 0
M  V30 1139 H 117.976 -2.42538 -0.777641 0
M  V30 1140 H 118.759 -3.38132 0.593417 0
M  V30 1141 N 121.204 0.198386 -1.56346 0
M  V30 1142 C 122.167 1.22952 -1.93431 0
M  V30 1143 C 123.167 1.38611 -0.815092 0
M  V30 1144 O 124.357 1.36479 -1.08255 0
M  V30 1145 C 121.489 2.59946 -2.20546 0
M  V30 1146 H 122.682 0.912626 -2.85677 0
M  V30 1147 H 120.235 0.43977 -1.49986 0
M  V30 1148 H 120.97 2.96696 -1.30927 0
M  V30 1149 H 120.755 2.49953 -3.02102 0
M  V30 1150 H 122.245 3.3431 -2.50253 0
M  V30 1151 N 122.682 1.50554 0.465978 0
M  V30 1152 C 123.91 1.65563 1.24083 0
M  V30 1153 C 124.325 0.341051 1.85694 0
M  V30 1154 O 123.682 -0.677543 1.69457 0
M  V30 1155 C 123.733 2.75051 2.34583 0
M  V30 1156 O 123.454 4.01413 1.75497 0
M  V30 1157 C 124.955 3.01078 3.25372 0
M  V30 1158 H 122.175 0.55638 0.375077 0
M  V30 1159 H 124.719 1.96807 0.555624 0
M  V30 1160 H 122.874 2.46486 2.9887 0
M  V30 1161 H 123.288 4.62002 2.48303 0
M  V30 1162 H 124.762 3.81339 3.99105 0
M  V30 1163 H 125.239 2.12349 3.84453 0
M  V30 1164 H 125.845 3.31194 2.66816 0
M  V30 1165 N 124.16 -0.719506 1.40217 0
M  V30 1166 C 125.07 -1.86378 1.42479 0
M  V30 1167 C 126.086 -1.71073 0.317834 0
M  V30 1168 O 127.262 -1.93406 0.561794 0
M  V30 1169 C 124.327 -3.22136 1.28178 0
M  V30 1170 C 123.388 -3.49723 2.48982 0
M  V30 1171 C 122.621 -4.79004 2.35353 0
M  V30 1172 O 122.844 -5.53821 1.36524 0
M  V30 1173 O 121.778 -5.06839 3.2465 0
M  V30 1174 H 125.604 -1.87425 2.38968 0
M  V30 1175 H 123.189 -0.869405 1.21498 0
M  V30 1176 H 125.071 -4.03234 1.22395 0
M  V30 1177 H 123.746 -3.21825 0.347934 0
M  V30 1178 H 122.653 -2.6865 2.60342 0
M  V30 1179 H 123.986 -3.54828 3.41113 0
M  V30 1180 N 125.638 -1.25649 -0.95132 0
M  V30 1181 C 127.049 -1.09654 -1.51106 0
M  V30 1182 C 127.4 0.326615 -1.93462 0
M  V30 1183 O 126.525 1.21697 -1.78938 0
M  V30 1184 C 127.12 -1.98437 -2.74605 0
M  V30 1185 C 125.679 -1.86618 -3.2688 0
M  V30 1186 C 124.826 -1.9239 -1.99703 0
M  V30 1187 H 127.777 -1.38887 -0.767865 0
M  V30 1188 H 127.798 -1.5263 -3.48546 0
M  V30 1189 H 127.31 -3.02009 -2.43746 0
M  V30 1190 H 125.411 -0.859421 -3.62553 0
M  V30 1191 H 125.524 -2.71607 -3.94673 0
M  V30 1192 H 123.888 -1.36317 -2.15151 0
M  V30 1193 H 124.671 -2.97573 -1.71188 0
M  V30 1194 N 127.117 1.15442 -1.07289 0
M  V30 1195 C 128.08 2.18358 -0.696591 0
M  V30 1196 C 129.08 1.58637 0.262837 0
M  V30 1197 O 130.27 1.74145 0.0438809 0
M  V30 1198 C 127.402 3.4089 -0.0266151 0
M  V30 1199 H 128.595 2.53162 -1.60776 0
M  V30 1200 H 126.148 1.29893 -0.869342 0
M  V30 1201 H 126.883 3.11653 0.896822 0
M  V30 1202 H 126.668 3.85495 -0.716657 0
M  V30 1203 H 128.158 4.17009 0.222028 0
M  V30 1204 N 128.595 0.856903 1.32268 0
M  V30 1205 C 129.82 0.474569 2.01897 0
M  V30 1206 C 130.245 -0.921766 1.63967 0
M  V30 1207 O 129.603 -1.60589 0.84148 0
M  V30 1208 C 129.651 0.623799 3.55164 0
M  V30 1209 O 128.755 -0.342459 4.10976 0
M  V30 1210 H 128.096 0.190422 0.63611 0
M  V30 1211 H 130.626 1.15672 1.68764 0
M  V30 1212 H 130.636 0.512169 4.04773 0
M  V30 1213 H 129.311 1.64202 3.82113 0
M  V30 1214 H 127.888 -0.18688 3.72431 0
M  V30 1215 N 130.073 -1.45103 0.615059 0
M  V30 1216 C 131.321 -2.01784 0.112955 0
M  V30 1217 C 131.642 -1.48504 -1.26378 0
M  V30 1218 O 130.912 -0.682245 -1.83636 0
M  V30 1219 H 129.492 -0.745993 0.0387668 0
M  V30 1220 H 132.154 -1.77808 0.798141 0
M  V30 1221 H 131.25 -3.12025 0.0684069 0
M  V30 1222 N 131.551 -0.354651 -1.53558 0
M  V30 1223 C 132.776 0.242153 -2.05981 0
M  V30 1224 C 133.201 1.42553 -1.2272 0
M  V30 1225 O 132.559 1.79656 -0.243604 0
M  V30 1226 C 132.607 0.624367 -3.55154 0
M  V30 1227 O 131.711 1.72301 -3.74681 0
M  V30 1228 H 131.052 0.0378432 -0.662921 0
M  V30 1229 H 133.582 -0.512087 -1.98088 0
M  V30 1230 H 133.592 0.898433 -3.97985 0
M  V30 1231 H 132.267 -0.240989 -4.15201 0
M  V30 1232 H 130.844 1.44535 -3.4375 0
M  V30 1233 N 133.029 1.57378 -0.0835403 0
M  V30 1234 C 133.992 2.12252 0.864959 0
M  V30 1235 C 134.992 1.04916 1.21858 0
M  V30 1236 O 136.182 1.30853 1.14991 0
M  V30 1237 C 133.314 2.63358 2.16461 0
M  V30 1238 H 134.507 2.97371 0.388676 0
M  V30 1239 H 132.06 1.55423 0.165317 0
M  V30 1240 H 132.795 1.81727 2.686 0
M  V30 1241 H 132.58 3.41826 1.92087 0
M  V30 1242 H 134.07 3.05847 2.84337 0
M  V30 1243 N 134.507 -0.190092 1.56449 0
M  V30 1244 C 135.47 -1.21925 1.9408 0
M  V30 1245 C 136.47 -1.38176 0.822431 0
M  V30 1246 O 137.66 -1.35903 1.08977 0
M  V30 1247 C 134.792 -2.58773 2.21922 0
M  V30 1248 H 135.985 -0.897464 2.86157 0
M  V30 1249 H 133.538 -0.43181 1.50217 0
M  V30 1250 H 134.273 -2.95998 1.32499 0
M  V30 1251 H 134.058 -2.48348 3.03424 0
M  V30 1252 H 135.548 -3.32978 2.52022 0
M  V30 1253 N 135.985 -1.50799 -0.457987 0
M  V30 1254 C 137.213 -1.66218 -1.23203 0
M  V30 1255 C 137.628 -0.350894 -1.85511 0
M  V30 1256 O 136.985 0.668546 -1.69814 0
M  V30 1257 C 137.036 -2.76291 -2.33121 0
M  V30 1258 O 136.757 -4.02338 -1.73366 0
M  V30 1259 C 138.258 -3.028 -3.2377 0
M  V30 1260 H 135.478 -0.558361 -0.372121 0
M  V30 1261 H 138.022 -1.97099 -0.545179 0
M  V30 1262 H 136.177 -2.48068 -2.97558 0
M  V30 1263 H 136.591 -4.63312 -2.4585 0
M  V30 1264 H 138.065 -3.8345 -3.97077 0
M  V30 1265 H 138.542 -2.14385 -3.83322 0
M  V30 1266 H 139.148 -3.32604 -2.65056 0
M  V30 1267 N 137.463 0.71206 -1.40597 0
M  V30 1268 C 138.709 1.47292 -1.40274 0
M  V30 1269 C 139.064 1.92399 -0.00576812 0
M  V30 1270 O 138.357 1.65507 0.965297 0
M  V30 1271 C 138.551 2.71039 -2.32965 0
M  V30 1272 C 138.38 2.38035 -3.81536 0
M  V30 1273 C 137.15 2.29203 -4.50327 0
M  V30 1274 C 139.348 2.02076 -4.72938 0
M  V30 1275 N 137.33 1.88911 -5.84111 0
M  V30 1276 C 138.701 1.72412 -5.95545 0
M  V30 1277 C 140.756 1.88742 -4.60739 0
M  V30 1278 C 139.459 1.30756 -7.07316 0
M  V30 1279 C 141.485 1.4849 -5.72455 0
M  V30 1280 C 140.847 1.19726 -6.94151 0
M  V30 1281 H 136.946 0.536919 -0.568544 0
M  V30 1282 H 139.53 0.825424 -1.76337 0
M  V30 1283 H 137.701 3.33533 -1.99023 0
M  V30 1284 H 139.433 3.37404 -2.23474 0
M  V30 1285 H 136.188 2.47059 -4.04053 0
M  V30 1286 H 136.612 1.71293 -6.54972 0
M  V30 1287 H 141.254 2.0964 -3.67166 0
M  V30 1288 H 138.972 1.08601 -8.00769 0
M  V30 1289 H 142.558 1.38747 -5.65014 0
M  V30 1290 H 141.438 0.890482 -7.79128 0
M  V30 1291 N 138.941 1.26152 0.944643 0
M  V30 1292 C 140.189 1.11271 1.6871 0
M  V30 1293 C 140.51 -0.345166 1.91921 0
M  V30 1294 O 139.78 -1.24387 1.51343 0
M  V30 1295 H 138.36 0.408783 0.625224 0
M  V30 1296 H 141.022 1.58427 1.1352 0
M  V30 1297 H 140.118 1.62879 2.66227 0
M  V30 1298 N 140.419 -1.14872 1.07899 0
M  V30 1299 C 141.351 -2.19425 0.662231 0
M  V30 1300 C 142.364 -1.60231 -0.288079 0
M  V30 1301 O 143.553 -1.78336 -0.076534 0
M  V30 1302 C 140.653 -3.38867 -0.0470695 0
M  V30 1303 C 139.826 -4.27597 0.920831 0
M  V30 1304 C 138.885 -5.25616 0.247805 0
M  V30 1305 O 137.911 -5.62189 0.890599 0
M  V30 1306 N 139.113 -5.71746 -1.00435 0
M  V30 1307 H 141.878 -2.55797 1.56166 0
M  V30 1308 H 139.439 -1.30042 0.964404 0
M  V30 1309 H 141.431 -4.01497 -0.50813 0
M  V30 1310 H 140.001 -3.00864 -0.848523 0
M  V30 1311 H 139.221 -3.61982 1.56087 0
M  V30 1312 H 140.509 -4.83748 1.57688 0
M  V30 1313 H 139.907 -5.44153 -1.54642 0
M  V30 1314 H 138.464 -6.36389 -1.40899 0
M  V30 1315 N 141.898 -0.863906 -1.31812 0
M  V30 1316 C 143.175 -0.39275 -1.91616 0
M  V30 1317 C 143.555 1.12461 -1.7865 0
M  V30 1318 O 142.903 1.95045 -1.19037 0
M  V30 1319 C 143.113 -0.867385 -3.38049 0
M  V30 1320 C 144.461 -0.889966 -4.15168 0
M  V30 1321 O 145.485 -0.812635 -3.46806 0
M  V30 1322 O 144.344 -1.00079 -5.37258 0
M  V30 1323 H 141.438 -0.116358 -0.818773 0
M  V30 1324 H 143.984 -0.951418 -1.40521 0
M  V30 1325 H 142.756 -1.91081 -3.41473 0
M  V30 1326 H 142.379 -0.286687 -3.96565 0
M  V30 1327 N 143.376 1.44774 -0.622745 0
M  V30 1328 C 144.622 2.0242 -0.124083 0
M  V30 1329 C 144.955 1.4881 1.24777 0
M  V30 1330 O 144.23 0.668799 1.8264 0
M  V30 1331 C 144.513 3.59957 -0.101619 0
M  V30 1332 C 144.366 4.23867 -1.50521 0
M  V30 1333 C 145.685 4.36284 0.578272 0
M  V30 1334 H 142.804 0.735528 -0.0465645 0
M  V30 1335 H 145.446 1.72447 -0.797617 0
M  V30 1336 H 143.596 3.85623 0.471934 0
M  V30 1337 H 145.268 4.09336 -2.12701 0
M  V30 1338 H 143.511 3.81684 -2.06154 0
M  V30 1339 H 144.182 5.32843 -1.4416 0
M  V30 1340 H 146.658 4.16001 0.0906057 0
M  V30 1341 H 145.534 5.46004 0.563149 0
M  V30 1342 H 145.795 4.10271 1.64713 0
M  V30 1343 N 144.854 0.36279 1.53368 0
M  V30 1344 C 146.082 -0.228613 2.05633 0
M  V30 1345 C 146.497 -1.42676 1.23649 0
M  V30 1346 O 145.854 -1.80394 0.27647 0
M  V30 1347 C 145.905 -0.624845 3.56059 0
M  V30 1348 O 145.626 0.525675 4.34935 0
M  V30 1349 C 147.127 -1.27493 4.24571 0
M  V30 1350 H 144.347 -0.0407183 0.669763 0
M  V30 1351 H 146.891 0.520352 1.97769 0
M  V30 1352 H 145.046 -1.32373 3.64083 0
M  V30 1353 H 145.46 0.205969 5.24095 0
M  V30 1354 H 146.934 -1.50277 5.31151 0
M  V30 1355 H 147.411 -2.23439 3.78116 0
M  V30 1356 H 148.017 -0.617558 4.20792 0
M  V30 1357 N 146.332 -1.57332 0.0918853 0
M  V30 1358 C 147.557 -1.98995 -0.584442 0
M  V30 1359 C 147.982 -0.970528 -1.61128 0
M  V30 1360 O 147.34 0.0613904 -1.81196 0
M  V30 1361 C 147.388 -3.39636 -1.21161 0
M  V30 1362 O 146.492 -3.40447 -2.32744 0
M  V30 1363 H 145.833 -0.647165 -0.148572 0
M  V30 1364 H 148.363 -2.03873 0.172347 0
M  V30 1365 H 148.373 -3.7726 -1.55367 0
M  V30 1366 H 147.048 -4.13356 -0.459313 0
M  V30 1367 H 145.625 -3.14614 -2.0018 0
M  V30 1368 N 147.81 0.181792 -1.56548 0
M  V30 1369 C 149.056 0.901431 -1.81665 0
M  V30 1370 C 149.389 1.82347 -0.668075 0
M  V30 1371 O 148.664 1.91669 0.330615 0
M  V30 1372 C 148.947 1.70618 -3.17115 0
M  V30 1373 C 148.8 0.807964 -4.42484 0
M  V30 1374 C 150.119 2.67605 -3.49393 0
M  V30 1375 H 147.238 0.32627 -0.660846 0
M  V30 1376 H 149.88 0.168134 -1.89255 0
M  V30 1377 H 148.03 2.33133 -3.10775 0
M  V30 1378 H 149.702 0.19649 -4.60881 0
M  V30 1379 H 147.945 0.115411 -4.33646 0
M  V30 1380 H 148.616 1.40632 -5.33785 0
M  V30 1381 H 151.092 2.15218 -3.56118 0
M  V30 1382 H 149.968 3.20985 -4.45264 0
M  V30 1383 H 150.229 3.47298 -2.73563 0
M  V30 1384 N 149.288 1.51039 0.449983 0
M  V30 1385 C 150.699 1.557 1.03026 0
M  V30 1386 C 151.05 0.372939 1.92623 0
M  V30 1387 O 150.175 -0.511771 2.10261 0
M  V30 1388 C 150.77 2.82171 1.87523 0
M  V30 1389 C 149.329 2.89444 2.40622 0
M  V30 1390 C 148.476 2.50228 1.19504 0
M  V30 1391 H 151.427 1.56999 0.231745 0
M  V30 1392 H 151.448 2.65219 2.72835 0
M  V30 1393 H 150.96 3.68331 1.22286 0
M  V30 1394 H 149.061 2.07685 3.0935 0
M  V30 1395 H 149.174 3.92816 2.74285 0
M  V30 1396 H 147.538 2.03139 1.53644 0
M  V30 1397 H 148.321 3.38719 0.558972 0
M  V30 1398 N 150.766 -0.704594 1.40972 0
M  V30 1399 C 152.012 -1.46675 1.40051 0
M  V30 1400 C 152.345 -1.94199 0.00641102 0
M  V30 1401 O 151.62 -1.68916 -0.964235 0
M  V30 1402 C 151.903 -2.68505 2.39952 0
M  V30 1403 C 151.756 -2.26805 3.88432 0
M  V30 1404 C 153.075 -3.70686 2.37233 0
M  V30 1405 H 150.194 -0.532015 0.510028 0
M  V30 1406 H 152.836 -0.803255 1.72185 0
M  V30 1407 H 150.986 -3.25114 2.1268 0
M  V30 1408 H 152.658 -1.75592 4.26574 0
M  V30 1409 H 150.901 -1.58685 4.03734 0
M  V30 1410 H 151.572 -3.14181 4.53866 0
M  V30 1411 H 154.048 -3.23731 2.61415 0
M  V30 1412 H 152.924 -4.53553 3.09162 0
M  V30 1413 H 153.185 -4.19754 1.38777 0
M  V30 1414 N 152.244 -1.26651 -0.937939 0
M  V30 1415 C 153.472 -1.15173 -1.7188 0
M  V30 1416 C 153.887 0.292668 -1.86518 0
M  V30 1417 O 153.244 1.20014 -1.37488 0
M  V30 1418 C 153.295 -1.81925 -3.12387 0
M  V30 1419 O 153.016 -3.2072 -2.98446 0
M  V30 1420 C 154.517 -1.76442 -4.06673 0
M  V30 1421 H 151.737 -0.400911 -0.538063 0
M  V30 1422 H 154.281 -1.67332 -1.1756 0
M  V30 1423 H 152.436 -1.33696 -3.63599 0
M  V30 1424 H 152.85 -3.53802 -3.872 0
M  V30 1425 H 154.324 -2.27781 -5.02812 0
M  V30 1426 H 154.801 -0.731608 -4.33064 0
M  V30 1427 H 155.407 -2.24238 -3.61382 0
M  V30 1428 N 153.722 1.14298 -1.08507 0
M  V30 1429 C 155.138 1.37347 -0.812901 0
M  V30 1430 C 155.338 1.93052 0.577325 0
M  V30 1431 O 154.394 2.14389 1.33393 0
M  V30 1432 C 155.707 2.33359 -1.89642 0
M  V30 1433 C 157.255 2.46996 -1.92255 0
M  V30 1434 C 157.73 3.46309 -2.99724 0
M  V30 1435 N 159.221 3.53853 -2.98902 0
M  V30 1436 C 159.956 4.3055 -3.787 0
M  V30 1437 N 159.452 5.10482 -4.6838 0
M  V30 1438 N 161.245 4.25757 -3.66998 0
M  V30 1439 H 153.396 0.764867 -1.9815 0
M  V30 1440 H 155.659 0.398966 -0.859959 0
M  V30 1441 H 155.365 1.99565 -2.89597 0
M  V30 1442 H 155.239 3.33274 -1.76659 0
M  V30 1443 H 157.626 2.80081 -0.929445 0
M  V30 1444 H 157.707 1.47039 -2.09316 0
M  V30 1445 H 157.351 3.13957 -3.99241 0
M  V30 1446 H 157.281 4.46049 -2.79907 0
M  V30 1447 H 159.772 2.96812 -2.33904 0
M  V30 1448 H 160.085 5.66284 -5.25873 0
M  V30 1449 H 158.43 5.09747 -4.72422 0
M  V30 1450 H 161.621 3.62383 -2.96304 0
M  V30 1451 H 161.794 4.85279 -4.29427 0
M  V30 1452 N 155.201 0.870884 1.31352 0
M  V30 1453 C 156.612 0.534714 1.78879 0
M  V30 1454 C 156.963 -0.948423 1.71754 0
M  V30 1455 O 156.088 -1.74055 1.28584 0
M  V30 1456 C 156.683 0.963839 3.24801 0
M  V30 1457 C 155.242 0.679311 3.70219 0
M  V30 1458 C 154.389 1.15465 2.52117 0
M  V30 1459 H 157.34 1.05651 1.18421 0
M  V30 1460 H 157.361 0.286892 3.79417 0
M  V30 1461 H 156.873 2.04332 3.29955 0
M  V30 1462 H 154.974 -0.388769 3.70566 0
M  V30 1463 H 155.087 1.25698 4.62317 0
M  V30 1464 H 153.451 0.574383 2.48139 0
M  V30 1465 H 154.234 2.24157 2.60016 0
M  V30 1466 N 156.679 -1.44442 0.630414 0
M  V30 1467 C 157.642 -2.29107 -0.0652523 0
M  V30 1468 C 158.642 -1.41002 -0.772995 0
M  V30 1469 O 159.832 -1.62881 -0.617692 0
M  V30 1470 C 156.964 -3.22564 -1.10296 0
M  V30 1471 H 158.157 -2.92103 0.679401 0
M  V30 1472 H 155.71 -1.51343 0.390517 0
M  V30 1473 H 156.445 -2.64416 -1.87762 0
M  V30 1474 H 156.23 -3.87491 -0.59941 0
M  V30 1475 H 157.72 -3.86167 -1.5895 0
M  V30 1476 N 158.157 -0.370918 -1.53173 0
M  V30 1477 C 159.087 0.464847 -2.28826 0
M  V30 1478 C 160.068 1.07936 -1.31468 0
M  V30 1479 O 161.253 1.0956 -1.60344 0
M  V30 1480 C 158.383 1.60196 -3.08147 0
M  V30 1481 C 157.337 1.11443 -4.13237 0
M  V30 1482 C 156.663 2.3422 -4.80672 0
M  V30 1483 C 157.963 0.195384 -5.21934 0
M  V30 1484 H 159.657 -0.166329 -2.98938 0
M  V30 1485 H 157.203 -0.0814359 -1.4377 0
M  V30 1486 H 159.156 2.19332 -3.59822 0
M  V30 1487 H 157.88 2.26045 -2.35735 0
M  V30 1488 H 156.539 0.545727 -3.62515 0
M  V30 1489 H 156.187 2.98537 -4.04827 0
M  V30 1490 H 155.887 2.02269 -5.51689 0
M  V30 1491 H 157.411 2.94032 -5.35143 0
M  V30 1492 H 158.825 0.694375 -5.69079 0
M  V30 1493 H 157.222 -0.0335027 -6.00091 0
M  V30 1494 H 158.292 -0.760961 -4.78892 0
M  V30 1495 N 159.635 1.57281 -0.100228 0
M  V30 1496 C 160.883 1.94153 0.561157 0
M  V30 1497 C 161.204 0.983157 1.68401 0
M  V30 1498 O 160.474 0.0361132 1.95867 0
M  V30 1499 H 159.054 0.716791 0.210283 0
M  V30 1500 H 161.716 1.94202 -0.164765 0
M  V30 1501 H 160.812 2.96709 0.968008 0
M  V30 1502 N 161.113 -0.173488 1.56642 0
M  V30 1503 C 162.338 -0.910149 1.86363 0
M  V30 1504 C 162.763 -1.75132 0.686318 0
M  V30 1505 O 162.121 -1.77595 -0.364643 0
M  V30 1506 C 162.169 -1.76447 3.14482 0
M  V30 1507 O 161.273 -2.86584 2.96553 0
M  V30 1508 H 160.614 -0.255086 0.613047 0
M  V30 1509 H 163.144 -0.172283 2.03873 0
M  V30 1510 H 163.154 -2.16483 3.45831 0
M  V30 1511 H 161.829 -1.14658 3.99783 0
M  V30 1512 H 160.406 -2.50146 2.76553 0
M  V30 1513 N 162.591 -1.51276 -0.441967 0
M  V30 1514 C 163.819 -1.67516 -1.21434 0
M  V30 1515 C 164.234 -0.37055 -1.85128 0
M  V30 1516 O 163.591 0.650498 -1.70513 0
M  V30 1517 C 163.642 -2.78748 -2.30177 0
M  V30 1518 O 163.363 -4.04154 -1.69089 0
M  V30 1519 C 164.864 -3.06217 -3.20541 0
M  V30 1520 H 162.084 -0.562276 -0.366178 0
M  V30 1521 H 164.628 -1.97666 -0.524244 0
M  V30 1522 H 162.783 -2.5121 -2.94911 0
M  V30 1523 H 163.197 -4.65894 -2.40922 0
M  V30 1524 H 164.671 -3.8764 -3.92987 0
M  V30 1525 H 165.148 -2.18439 -3.81026 0
M  V30 1526 H 165.754 -3.35397 -2.61513 0
M  V30 1527 N 164.069 0.697108 -1.41344 0
M  V30 1528 C 165.297 1.48593 -1.43972 0
M  V30 1529 C 165.712 1.88747 -0.0445612 0
M  V30 1530 O 165.069 1.56682 0.935785 0
M  V30 1531 C 165.12 2.74946 -2.34706 0
M  V30 1532 O 164.841 2.36484 -3.68791 0
M  V30 1533 C 166.342 3.687 -2.46121 0
M  V30 1534 H 163.562 0.457964 -0.490418 0
M  V30 1535 H 166.106 0.858429 -1.8561 0
M  V30 1536 H 164.261 3.33937 -1.9638 0
M  V30 1537 H 164.675 3.17918 -4.17167 0
M  V30 1538 H 166.149 4.54145 -3.13777 0
M  V30 1539 H 166.626 4.13081 -1.49199 0
M  V30 1540 H 167.232 3.15613 -2.85076 0
M  V30 1541 N 165.547 1.27147 0.931209 0
M  V30 1542 C 166.958 1.12044 1.49342 0
M  V30 1543 C 167.309 -0.295795 1.93957 0
M  V30 1544 O 166.434 -1.18835 1.80852 0
M  V30 1545 C 167.029 2.02781 2.71414 0
M  V30 1546 C 165.588 1.91794 3.2387 0
M  V30 1547 C 164.735 1.95543 1.96617 0
M  V30 1548 H 167.686 1.40091 0.745672 0
M  V30 1549 H 167.707 1.58156 3.46074 0
M  V30 1550 H 167.219 3.05848 2.38911 0
M  V30 1551 H 165.32 0.916992 3.6114 0
M  V30 1552 H 165.433 2.77852 3.90302 0
M  V30 1553 H 163.797 1.39722 2.12955 0
M  V30 1554 H 164.58 3.00259 1.66432 0
M  V30 1555 N 167.025 -1.13721 1.09112 0
M  V30 1556 C 168.436 -1.6648 0.845068 0
M  V30 1557 C 168.787 -1.85911 -0.62701 0
M  V30 1558 O 167.912 -1.57556 -1.48341 0
M  V30 1559 C 168.507 -3.02413 1.52748 0
M  V30 1560 C 167.066 -3.52176 1.32849 0
M  V30 1561 C 166.213 -2.27492 1.58564 0
M  V30 1562 H 169.164 -0.976872 1.25072 0
M  V30 1563 H 169.185 -3.68223 0.958752 0
M  V30 1564 H 168.697 -2.88238 2.59885 0
M  V30 1565 H 166.798 -3.7156 0.278137 0
M  V30 1566 H 166.911 -4.32499 2.0611 0
M  V30 1567 H 165.275 -2.33923 1.00758 0
M  V30 1568 H 166.058 -2.15886 2.66924 0
M  V30 1569 N 168.503 -0.877838 -1.30888 0
M  V30 1570 C 169.466 -0.344265 -2.266 0
M  V30 1571 C 170.466 0.50922 -1.52524 0
M  V30 1572 O 171.656 0.317398 -1.71284 0
M  V30 1573 C 168.788 0.510198 -3.37061 0
M  V30 1574 H 169.981 -1.1893 -2.7531 0
M  V30 1575 H 167.534 -0.654088 -1.41956 0
M  V30 1576 H 168.269 1.37612 -2.93655 0
M  V30 1577 H 168.054 -0.101047 -3.9197 0
M  V30 1578 H 169.544 0.875537 -4.08319 0
M  V30 1579 N 169.982 1.44106 -0.638065 0
M  V30 1580 C 170.932 2.27843 0.0847285 0
M  V30 1581 C 171.916 1.39055 0.809471 0
M  V30 1582 O 173.108 1.62808 0.694435 0
M  V30 1583 C 170.237 3.26497 1.06089 0
M  V30 1584 C 169.323 4.22772 0.33541 0
M  V30 1585 N 169.714 5.01737 -0.639787 0
M  V30 1586 C 168.012 4.42227 0.578921 0
M  V30 1587 C 168.713 5.71792 -1.06904 0
M  V30 1588 N 167.689 5.42079 -0.406395 0
M  V30 1589 H 171.491 2.86305 -0.663814 0
M  V30 1590 H 169.005 1.55627 -0.464122 0
M  V30 1591 H 171.002 3.8525 1.59337 0
M  V30 1592 H 169.662 2.69595 1.80966 0
M  V30 1593 H 170.673 5.07799 -1.01789 0
M  V30 1594 H 167.35 3.96415 1.31003 0
M  V30 1595 H 168.74 6.45205 -1.8751 0
M  V30 1596 N 171.46 0.379036 1.52974 0
M  V30 1597 C 172.737 -0.263479 1.93817 0
M  V30 1598 C 173.117 -1.65244 1.31368 0
M  V30 1599 O 172.465 -2.23448 0.477856 0
M  V30 1600 C 172.675 -0.300166 3.47707 0
M  V30 1601 C 174.023 -0.534061 4.21228 0
M  V30 1602 O 175.047 -0.38081 3.54159 0
M  V30 1603 O 173.906 -0.833501 5.40106 0
M  V30 1604 H 171 -0.161149 0.811147 0
M  V30 1605 H 173.546 0.432798 1.64088 0
M  V30 1606 H 172.318 0.673138 3.85467 0
M  V30 1607 H 171.941 -1.04179 3.83709 0
M  V30 1608 N 172.938 -1.57226 0.108567 0
M  V30 1609 C 174.184 -1.95121 -0.552761 0
M  V30 1610 C 174.517 -0.991345 -1.66991 0
M  V30 1611 O 173.792 -0.0267211 -1.94482 0
M  V30 1612 C 174.075 -3.43039 -1.09528 0
M  V30 1613 C 173.928 -4.49797 0.0177332 0
M  V30 1614 C 175.247 -3.92567 -1.98945 0
M  V30 1615 H 172.366 -0.709496 -0.199461 0
M  V30 1616 H 175.008 -1.89126 0.182011 0
M  V30 1617 H 173.158 -3.48279 -1.72146 0
M  V30 1618 H 174.83 -4.56661 0.652584 0
M  V30 1619 H 173.073 -4.284 0.682309 0
M  V30 1620 H 173.744 -5.50528 -0.402919 0
M  V30 1621 H 176.22 -3.89565 -1.46214 0
M  V30 1622 H 175.096 -4.96605 -2.33827 0
M  V30 1623 H 175.357 -3.32648 -2.91201 0
M  V30 1624 N 174.416 0.165178 -1.56732 0
M  V30 1625 C 175.644 0.896218 -1.86482 0
M  V30 1626 C 176.059 1.75555 -0.694675 0
M  V30 1627 O 175.416 1.79379 0.33607 0
M  V30 1628 C 175.467 1.76792 -3.1532 0
M  V30 1629 O 175.188 0.943239 -4.27825 0
M  V30 1630 C 176.689 2.6081 -3.58459 0
M  V30 1631 H 173.909 0.260064 -0.618553 0
M  V30 1632 H 176.453 0.163428 -2.03846 0
M  V30 1633 H 174.608 2.45398 -2.99764 0
M  V30 1634 H 175.022 1.53998 -5.01383 0
M  V30 1635 H 176.496 3.17579 -4.51495 0
M  V30 1636 H 176.973 3.35977 -2.82872 0
M  V30 1637 H 177.579 1.97526 -3.76648 0
M  V30 1638 N 175.894 1.51508 0.433938 0
M  V30 1639 C 177.119 1.68443 1.21003 0
M  V30 1640 C 177.544 0.382636 1.84167 0
M  V30 1641 O 176.902 -0.65755 1.68956 0
M  V30 1642 C 176.95 2.80405 2.26727 0
M  V30 1643 O 176.054 2.44245 3.32292 0
M  V30 1644 H 175.395 0.561536 0.354363 0
M  V30 1645 H 177.925 1.9809 0.512024 0
M  V30 1646 H 177.935 3.0459 2.71457 0
M  V30 1647 H 176.61 3.74867 1.80132 0
M  V30 1648 H 175.187 2.30644 2.93015 0
M  V30 1649 N 177.372 -0.689602 1.41712 0
M  V30 1650 C 178.335 -1.78521 1.43746 0
M  V30 1651 C 179.335 -1.57436 0.327191 0
M  V30 1652 O 180.525 -1.64 0.587348 0
M  V30 1653 C 177.657 -3.16971 1.25467 0
M  V30 1654 H 178.85 -1.78108 2.41283 0
M  V30 1655 H 176.403 -0.89781 1.27942 0
M  V30 1656 H 177.138 -3.23019 0.287948 0
M  V30 1657 H 176.923 -3.33678 2.05917 0
M  V30 1658 H 178.413 -3.96935 1.2974 0
M  V30 1659 N 178.85 -1.27639 -0.924453 0
M  V30 1660 C 180.261 -1.12834 -1.48746 0
M  V30 1661 C 180.612 0.285505 -1.94112 0
M  V30 1662 O 179.737 1.17874 -1.81479 0
M  V30 1663 C 180.332 -2.04217 -2.70334 0
M  V30 1664 C 178.891 -1.93509 -3.22848 0
M  V30 1665 C 178.038 -1.96583 -1.95577 0
M  V30 1666 H 180.989 -1.40484 -0.738233 0
M  V30 1667 H 181.01 -1.59989 -3.4523 0
M  V30 1668 H 180.522 -3.07111 -2.37285 0
M  V30 1669 H 178.623 -0.936131 -3.60649 0
M  V30 1670 H 178.736 -2.79917 -3.88823 0
M  V30 1671 H 177.1 -1.4085 -2.12211 0
M  V30 1672 H 177.883 -3.01137 -1.64837 0
M  V30 1673 N 180.328 1.1314 -1.09713 0
M  V30 1674 C 181.605 1.80762 -0.747302 0
M  V30 1675 C 181.985 1.96663 0.767265 0
M  V30 1676 O 181.333 1.53706 1.69076 0
M  V30 1677 C 181.543 3.15606 -1.48975 0
M  V30 1678 C 182.891 3.90914 -1.65746 0
M  V30 1679 O 183.915 3.25239 -1.45251 0
M  V30 1680 O 182.774 5.08718 -1.9967 0
M  V30 1681 H 179.868 0.782103 -0.268782 0
M  V30 1682 H 182.414 1.20041 -1.19951 0
M  V30 1683 H 181.186 2.99278 -2.52088 0
M  V30 1684 H 180.809 3.84029 -1.02991 0
M  V30 1685 N 181.806 0.884767 1.30421 0
M  V30 1686 C 182.754 0.340869 2.30089 0
M  V30 1687 C 183.748 -0.55201 1.60154 0
M  V30 1688 O 184.954 -0.436467 1.74628 0
M  V30 1689 H 181.329 0.0915739 0.746404 0
M  V30 1690 H 183.3 1.19513 2.73421 0
M  V30 1691 C 182.049 -0.429779 3.45034 0
M  V30 1692 H 181.372 0.248024 3.9903 0
M  V30 1693 H 182.812 -0.775445 4.16849 0
M  V30 1694 C 181.271 -1.62677 2.95022 0
M  V30 1695 O 181.801 -2.72614 2.95033 0
M  V30 1696 N 180.007 -1.46387 2.51036 0
M  V30 1697 H 179.554 -0.569506 2.51226 0
M  V30 1698 H 179.512 -2.26612 2.17932 0
M  V30 1699 N 183.284 -1.43765 0.645699 0
M  V30 1700 C 184.231 -2.30745 -0.0504648 0
M  V30 1701 C 185.201 -1.4432 -0.822241 0
M  V30 1702 O 186.386 -1.73202 -0.800358 0
M  V30 1703 C 183.526 -3.29802 -1.0161 0
M  V30 1704 C 182.639 -4.31326 -0.241219 0
M  V30 1705 C 181.774 -5.17469 -1.19998 0
M  V30 1706 C 180.813 -6.10691 -0.415094 0
M  V30 1707 N 179.95 -6.89483 -1.32506 0
M  V30 1708 H 184.79 -2.8973 0.697155 0
M  V30 1709 H 182.327 -1.42738 0.355563 0
M  V30 1710 H 184.285 -3.85734 -1.58949 0
M  V30 1711 H 182.915 -2.72483 -1.73069 0
M  V30 1712 H 181.967 -3.77749 0.448334 0
M  V30 1713 H 183.279 -4.9743 0.369437 0
M  V30 1714 H 182.433 -5.7799 -1.84424 0
M  V30 1715 H 181.172 -4.51473 -1.84455 0
M  V30 1716 H 180.177 -5.49265 0.242565 0
M  V30 1717 H 181.402 -6.78727 0.224966 0
M  V30 1718 H 179.348 -6.26142 -1.95657 0
M  V30 1719 H 179.265 -7.52081 -0.768783 0
M  V30 1720 H 180.533 -7.54516 -1.9577 0
M  V30 1721 N 184.763 -0.387143 -1.52771 0
M  V30 1722 C 186.174 0.0873634 -1.86495 0
M  V30 1723 C 186.525 1.46336 -1.30691 0
M  V30 1724 O 185.65 2.068 -0.637409 0
M  V30 1725 C 186.245 0.165305 -3.38396 0
M  V30 1726 C 184.804 0.584101 -3.7184 0
M  V30 1727 C 183.951 -0.255279 -2.76122 0
M  V30 1728 H 186.902 -0.605104 -1.46711 0
M  V30 1729 H 186.923 0.984848 -3.67534 0
M  V30 1730 H 186.435 -0.836301 -3.78982 0
M  V30 1731 H 184.536 1.59315 -3.36823 0
M  V30 1732 H 184.649 0.343749 -4.77865 0
M  V30 1733 H 183.013 0.279126 -2.53166 0
M  V30 1734 H 183.796 -1.25482 -3.19545 0
M  V30 1735 N 186.241 1.57166 -0.116904 0
M  V30 1736 C 187.204 2.14039 0.819742 0
M  V30 1737 C 188.204 1.07477 1.19605 0
M  V30 1738 O 189.394 1.33263 1.1219 0
M  V30 1739 C 186.526 2.67891 2.10826 0
M  V30 1740 H 187.719 2.98128 0.325511 0
M  V30 1741 H 185.272 1.55739 0.132312 0
M  V30 1742 H 186.007 1.87384 2.64685 0
M  V30 1743 H 185.792 3.45823 1.84793 0
M  V30 1744 H 187.282 3.11809 2.77785 0
M  V30 1745 N 187.719 -0.156864 1.56817 0
M  V30 1746 C 189.13 -0.717916 1.72345 0
M  V30 1747 C 189.481 -1.82124 0.729747 0
M  V30 1748 O 188.606 -2.16141 -0.105781 0
M  V30 1749 C 189.201 -1.30904 3.12489 0
M  V30 1750 C 187.76 -1.81676 3.29653 0
M  V30 1751 C 186.907 -0.701349 2.68284 0
M  V30 1752 H 189.858 0.0686989 1.58551 0
M  V30 1753 H 189.879 -2.17882 3.11942 0
M  V30 1754 H 189.391 -0.505796 3.8479 0
M  V30 1755 H 187.492 -2.64598 2.62333 0
M  V30 1756 H 187.605 -1.95226 4.3752 0
M  V30 1757 H 185.969 -1.12548 2.28484 0
M  V30 1758 H 186.752 0.0902846 3.43181 0
M  V30 1759 N 189.197 -1.51736 -0.425897 0
M  V30 1760 C 190.445 -1.64644 -1.17204 0
M  V30 1761 C 190.766 -0.370486 -1.91448 0
M  V30 1762 O 190.036 0.614088 -1.86026 0
M  V30 1763 H 188.616 -0.606819 -0.435638 0
M  V30 1764 H 191.278 -1.88713 -0.487177 0
M  V30 1765 H 190.374 -2.47958 -1.89534 0
M  V30 1766 N 190.675 0.682077 -1.42076 0
M  V30 1767 C 191.9 1.47558 -1.45744 0
M  V30 1768 C 192.325 1.87977 -0.0680981 0
M  V30 1769 O 191.683 1.55522 0.9318 0
M  V30 1770 C 191.731 2.70575 -2.38373 0
M  V30 1771 O 190.835 3.68573 -1.85007 0
M  V30 1772 H 190.176 0.443585 -0.494093 0
M  V30 1773 H 192.706 0.837238 -1.86686 0
M  V30 1774 H 192.716 3.18729 -2.54707 0
M  V30 1775 H 191.391 2.40495 -3.39315 0
M  V30 1776 H 189.968 3.2757 -1.78192 0
M  V30 1777 N 192.153 1.28127 0.917671 0
M  V30 1778 C 193.381 1.17892 1.70026 0
M  V30 1779 C 193.796 -0.262958 1.8696 0
M  V30 1780 O 193.153 -1.17811 1.3938 0
M  V30 1781 C 193.204 1.86872 3.09453 0
M  V30 1782 O 192.925 3.25428 2.93306 0
M  V30 1783 C 194.426 1.8289 4.03815 0
M  V30 1784 H 191.646 0.40942 0.531617 0
M  V30 1785 H 194.19 1.69181 1.14883 0
M  V30 1786 H 192.345 1.39464 3.61426 0
M  V30 1787 H 192.759 3.59918 3.81523 0
M  V30 1788 H 194.233 2.35751 4.99125 0
M  V30 1789 H 194.71 0.800412 4.31845 0
M  V30 1790 H 195.316 2.29959 3.57769 0
M  V30 1791 N 193.631 -1.12557 1.10312 0
M  V30 1792 C 194.594 -2.16434 0.75424 0
M  V30 1793 C 195.594 -1.59278 -0.220685 0
M  V30 1794 O 196.784 -1.742 0.00230591 0
M  V30 1795 C 193.916 -3.40699 0.116987 0
M  V30 1796 H 195.109 -2.48811 1.67431 0
M  V30 1797 H 192.662 -1.27542 0.903475 0
M  V30 1798 H 193.397 -3.13921 -0.813877 0
M  V30 1799 H 193.182 -3.83459 0.818613 0
M  V30 1800 H 194.672 -4.17451 -0.111387 0
M  V30 1801 N 195.109 -0.891671 -1.2995 0
M  V30 1802 C 196.52 -0.563104 -1.78006 0
M  V30 1803 C 196.871 0.920978 -1.73241 0
M  V30 1804 O 195.996 1.71987 -1.31337 0
M  V30 1805 C 196.591 -1.01539 -3.23226 0
M  V30 1806 C 195.15 -0.738124 -3.69092 0
M  V30 1807 C 194.297 -1.19461 -2.50249 0
M  V30 1808 H 197.248 -1.07522 -1.16725 0
M  V30 1809 H 197.269 -0.347217 -3.78912 0
M  V30 1810 H 196.781 -2.09555 -3.26662 0
M  V30 1811 H 194.882 0.329766 -3.71138 0
M  V30 1812 H 194.995 -1.33037 -4.60259 0
M  V30 1813 H 193.359 -0.613787 -2.47194 0
M  V30 1814 H 194.142 -2.28265 -2.56417 0
M  V30 1815 N 196.587 1.43421 -0.653314 0
M  V30 1816 C 197.998 1.85065 -0.246537 0
M  V30 1817 C 198.349 1.54688 1.2069 0
M  V30 1818 O 197.474 0.995896 1.92122 0
M  V30 1819 C 198.069 3.35922 -0.440666 0
M  V30 1820 C 196.628 3.76297 -0.0882064 0
M  V30 1821 C 195.775 2.67147 -0.743484 0
M  V30 1822 H 198.726 1.33572 -0.856979 0
M  V30 1823 H 198.747 3.79204 0.313798 0
M  V30 1824 H 198.259 3.58 -1.49858 0
M  V30 1825 H 196.36 3.5983 0.96711 0
M  V30 1826 H 196.473 4.76338 -0.513738 0
M  V30 1827 H 194.837 2.54086 -0.176712 0
M  V30 1828 H 195.62 2.92053 -1.80443 0
M  V30 1829 N 198.065 0.39524 1.52563 0
M  V30 1830 C 199.028 -0.425001 2.25225 0
M  V30 1831 C 200.028 -0.985266 1.27079 0
M  V30 1832 O 201.218 -0.866332 1.5113 0
M  V30 1833 C 198.35 -1.59686 3.01186 0
M  V30 1834 H 199.543 0.211233 2.99155 0
M  V30 1835 H 197.096 0.147472 1.55603 0
M  V30 1836 H 197.831 -2.27035 2.31572 0
M  V30 1837 H 197.616 -1.20176 3.73229 0
M  V30 1838 H 199.106 -2.17743 3.5634 0
M  V30 1839 N 199.544 -1.57102 0.125237 0
M  V30 1840 C 200.494 -2.12202 -0.833936 0
M  V30 1841 C 201.478 -1.04433 -1.22403 0
M  V30 1842 O 202.67 -1.30655 -1.19408 0
M  V30 1843 C 199.799 -2.72994 -2.08157 0
M  V30 1844 C 198.885 -3.87852 -1.71556 0
M  V30 1845 N 199.276 -4.9464 -1.05662 0
M  V30 1846 C 197.574 -3.98153 -2.00973 0
M  V30 1847 C 198.275 -5.74953 -0.883376 0
M  V30 1848 N 197.251 -5.24985 -1.41036 0
M  V30 1849 H 201.053 -2.92141 -0.321035 0
M  V30 1850 H 198.567 -1.62217 -0.0770315 0
M  V30 1851 H 200.564 -3.10816 -2.77847 0
M  V30 1852 H 199.224 -1.9452 -2.59985 0
M  V30 1853 H 200.235 -5.12872 -0.719878 0
M  V30 1854 H 196.912 -3.30728 -2.54804 0
M  V30 1855 H 198.302 -6.70904 -0.365675 0
M  V30 1856 N 201.022 0.148545 -1.56898 0
M  V30 1857 C 202.27 0.859717 -1.82902 0
M  V30 1858 C 202.591 1.81775 -0.70588 0
M  V30 1859 O 201.861 1.93994 0.272586 0
M  V30 1860 H 200.441 0.320469 -0.674766 0
M  V30 1861 H 203.103 0.142918 -1.94375 0
M  V30 1862 H 202.199 1.4229 -2.77777 0
M  V30 1863 N 202.5 1.5196 0.417844 0
M  V30 1864 C 203.746 1.65836 1.16732 0
M  V30 1865 C 204.079 0.382881 1.90388 0
M  V30 1866 O 203.354 -0.618368 1.84408 0
M  V30 1867 C 203.637 2.87466 2.16876 0
M  V30 1868 C 203.49 4.25041 1.47174 0
M  V30 1869 C 204.809 3.04613 3.17646 0
M  V30 1870 H 201.928 0.603515 0.423011 0
M  V30 1871 H 204.57 1.84494 0.454105 0
M  V30 1872 H 202.72 2.71689 2.777 0
M  V30 1873 H 204.392 4.52527 0.895376 0
M  V30 1874 H 202.635 4.26843 0.773806 0
M  V30 1875 H 203.306 5.06176 2.20204 0
M  V30 1876 H 205.782 3.1923 2.66892 0
M  V30 1877 H 204.658 3.91247 3.8499 0
M  V30 1878 H 204.919 2.17541 3.84874 0
M  V30 1879 N 203.978 -0.674533 1.42435 0
M  V30 1880 C 205.206 -1.46283 1.46317 0
M  V30 1881 C 205.621 -1.88653 0.0745836 0
M  V30 1882 O 204.978 -1.58151 -0.91074 0
M  V30 1883 C 205.029 -2.71178 2.3905 0
M  V30 1884 O 204.75 -2.30586 3.72507 0
M  V30 1885 C 206.251 -3.64738 2.51955 0
M  V30 1886 H 203.471 -0.450104 0.497642 0
M  V30 1887 H 206.015 -0.828792 1.86953 0
M  V30 1888 H 204.17 -3.3077 2.01667 0
M  V30 1889 H 204.584 -3.11241 4.22172 0
M  V30 1890 H 206.058 -4.49096 3.20962 0
M  V30 1891 H 206.535 -4.10656 1.55752 0
M  V30 1892 H 207.141 -3.11038 2.90061 0
M  V30 1893 N 205.456 -1.28612 -0.910864 0
M  V30 1894 C 206.681 -1.1891 -1.69927 0
M  V30 1895 C 207.106 0.248372 -1.86453 0
M  V30 1896 O 206.464 1.17961 -1.37676 0
M  V30 1897 C 206.512 -1.89578 -3.06745 0
M  V30 1898 O 205.616 -1.20521 -3.94396 0
M  V30 1899 H 204.957 -0.412632 -0.520222 0
M  V30 1900 H 207.487 -1.69985 -1.1387 0
M  V30 1901 H 207.497 -1.97597 -3.56958 0
M  V30 1902 H 206.172 -2.94136 -2.94035 0
M  V30 1903 H 204.749 -1.20684 -3.52831 0
M  V30 1904 N 206.934 1.1197 -1.10907 0
M  V30 1905 C 207.897 2.16031 -0.765707 0
M  V30 1906 C 208.897 1.59393 0.212235 0
M  V30 1907 O 210.087 1.74196 -0.0115441 0
M  V30 1908 C 207.219 3.40632 -0.135053 0
M  V30 1909 H 208.412 2.47919 -1.68748 0
M  V30 1910 H 205.965 1.27061 -0.910226 0
M  V30 1911 H 206.7 3.14348 0.797218 0
M  V30 1912 H 206.485 3.8302 -0.838937 0
M  V30 1913 H 207.975 4.17505 0.0892469 0
M  V30 1914 N 208.412 0.89855 1.29475 0
M  V30 1915 C 209.823 0.572537 1.77705 0
M  V30 1916 C 210.174 -0.911778 1.73727 0
M  V30 1917 O 209.299 -1.71288 1.32247 0
M  V30 1918 C 209.894 1.03252 3.22683 0
M  V30 1919 C 208.453 0.757687 3.68695 0
M  V30 1920 C 207.6 1.20787 2.49612 0
M  V30 1921 H 210.551 1.08139 1.16153 0
M  V30 1922 H 210.572 0.367307 3.78723 0
M  V30 1923 H 210.084 2.11285 3.25546 0
M  V30 1924 H 208.185 -0.310079 3.71308 0
M  V30 1925 H 208.298 1.35476 4.59547 0
M  V30 1926 H 206.662 0.626888 2.46865 0
M  V30 1927 H 207.445 2.29622 2.55203 0
M  V30 1928 N 209.89 -1.43072 0.660911 0
M  V30 1929 C 211.167 -1.95307 0.107017 0
M  V30 1930 C 211.547 -1.60192 -1.37484 0
M  V30 1931 O 210.895 -0.890949 -2.10415 0
M  V30 1932 C 211.105 -3.47124 0.361402 0
M  V30 1933 C 212.453 -4.23738 0.270455 0
M  V30 1934 O 213.477 -3.54981 0.294382 0
M  V30 1935 O 212.336 -5.46131 0.200737 0
M  V30 1936 H 209.43 -0.826984 -0.00517729 0
M  V30 1937 H 211.976 -1.52972 0.734681 0
M  V30 1938 H 210.748 -3.65837 1.38848 0
M  V30 1939 H 210.371 -3.96475 -0.298953 0
M  V30 1940 N 211.368 -0.403325 -1.52352 0
M  V30 1941 C 212.596 0.174012 -2.06167 0
M  V30 1942 C 213.011 1.39347 -1.27388 0
M  V30 1943 O 212.368 1.79597 -0.324201 0
M  V30 1944 C 212.419 0.530223 -3.5759 0
M  V30 1945 O 212.14 -0.640806 -4.33388 0
M  V30 1946 C 213.641 1.16192 -4.27802 0
M  V30 1947 H 210.861 0.0229464 -0.670608 0
M  V30 1948 H 213.405 -0.572604 -1.9632 0
M  V30 1949 H 211.56 1.22673 -3.67464 0
M  V30 1950 H 211.974 -0.344851 -5.23365 0
M  V30 1951 H 213.448 1.36141 -5.34948 0
M  V30 1952 H 213.925 2.13335 -3.83907 0
M  V30 1953 H 214.531 0.505775 -4.22282 0
M  V30 1954 N 212.846 1.57033 -0.133567 0
M  V30 1955 C 214.262 1.58035 0.222944 0
M  V30 1956 C 214.462 1.14713 1.6566 0
M  V30 1957 O 213.518 0.841218 2.38075 0
M  V30 1958 C 214.831 3.00691 -0.0236116 0
M  V30 1959 C 216.379 3.12973 0.0411512 0
M  V30 1960 C 216.854 4.57654 -0.177899 0
M  V30 1961 N 218.345 4.63033 -0.124365 0
M  V30 1962 C 219.08 5.72771 -0.268553 0
M  V30 1963 N 218.576 6.91206 -0.46972 0
M  V30 1964 N 220.369 5.61718 -0.2071 0
M  V30 1965 H 212.52 1.8349 -1.06981 0
M  V30 1966 H 214.783 0.848677 -0.422436 0
M  V30 1967 H 214.489 3.36726 -1.0153 0
M  V30 1968 H 214.363 3.70614 0.701808 0
M  V30 1969 H 216.75 2.76787 1.02338 0
M  V30 1970 H 216.831 2.45564 -0.716383 0
M  V30 1971 H 216.475 4.94542 -1.15717 0
M  V30 1972 H 216.405 5.23173 0.599797 0
M  V30 1973 H 218.896 3.7789 0.027011 0
M  V30 1974 H 219.209 7.70693 -0.570212 0
M  V30 1975 H 217.554 6.93156 -0.505876 0
M  V30 1976 H 220.745 4.68072 -0.0507986 0
M  V30 1977 H 220.918 6.47195 -0.322909 0
M  V30 1978 N 214.325 -0.140222 1.56975 0
M  V30 1979 C 215.736 -0.699596 1.73097 0
M  V30 1980 C 216.087 -1.8134 0.749022 0
M  V30 1981 O 215.212 -2.16241 -0.0828503 0
M  V30 1982 C 215.807 -1.27582 3.1386 0
M  V30 1983 C 214.366 -1.78169 3.31561 0
M  V30 1984 C 213.513 -0.672855 2.69013 0
M  V30 1985 H 216.464 0.0855115 1.58469 0
M  V30 1986 H 216.485 -2.14561 3.14235 0
M  V30 1987 H 215.997 -0.464955 3.85305 0
M  V30 1988 H 214.098 -2.61801 2.65124 0
M  V30 1989 H 214.211 -1.90574 4.39566 0
M  V30 1990 H 212.575 -1.10118 2.29665 0
M  V30 1991 H 213.358 0.126679 3.43066 0
M  V30 1992 N 215.803 -1.52179 -0.40978 0
M  V30 1993 C 216.766 -1.74853 -1.48186 0
M  V30 1994 C 217.766 -0.618417 -1.48433 0
M  V30 1995 O 218.956 -0.886286 -1.49969 0
M  V30 1996 C 216.088 -1.8303 -2.87598 0
M  V30 1997 H 217.281 -2.70559 -1.29374 0
M  V30 1998 H 214.834 -1.42586 -0.640233 0
M  V30 1999 H 215.569 -0.89236 -3.11781 0
M  V30 2000 H 215.354 -2.65187 -2.88822 0
M  V30 2001 H 216.844 -2.02316 -3.65319 0
M  V30 2002 N 217.281 0.66697 -1.42791 0
M  V30 2003 C 218.692 1.2478 -1.38877 0
M  V30 2004 C 219.043 1.96012 -0.0859426 0
M  V30 2005 O 218.168 2.00463 0.815081 0
M  V30 2006 C 218.763 2.26938 -2.51564 0
M  V30 2007 C 217.322 2.80529 -2.50959 0
M  V30 2008 C 216.469 1.54965 -2.29959 0
M  V30 2009 H 219.42 0.459853 -1.51892 0
M  V30 2010 H 219.441 3.08834 -2.22265 0
M  V30 2011 H 218.953 1.75065 -3.46372 0
M  V30 2012 H 217.054 3.36502 -1.59991 0
M  V30 2013 H 217.167 3.29012 -3.48265 0
M  V30 2014 H 215.531 1.81817 -1.78366 0
M  V30 2015 H 216.314 1.05047 -3.26833 0
M  V30 2016 N 218.759 1.29093 0.90403 0
M  V30 2017 C 220.007 1.16583 1.65085 0
M  V30 2018 C 220.328 -0.283933 1.92922 0
M  V30 2019 O 219.598 -1.19509 1.55224 0
M  V30 2020 H 218.178 0.428467 0.611903 0
M  V30 2021 H 220.84 1.61959 1.08422 0
M  V30 2022 H 219.936 1.71266 2.6091 0
M  V30 2023 N 220.237 -1.11381 1.11499 0
M  V30 2024 C 221.462 -1.87475 0.887019 0
M  V30 2025 C 221.887 -1.79639 -0.557796 0
M  V30 2026 O 221.245 -1.15924 -1.39396 0
M  V30 2027 C 221.293 -3.34213 1.35403 0
M  V30 2028 O 220.397 -4.0903 0.526146 0
M  V30 2029 H 219.738 -0.582099 0.319463 0
M  V30 2030 H 222.268 -1.40785 1.48461 0
M  V30 2031 H 222.278 -3.8506 1.34881 0
M  V30 2032 H 220.953 -3.39232 2.40612 0
M  V30 2033 H 219.53 -3.68082 0.597522 0
M  V30 2034 N 221.715 -0.905404 -1.28997 0
M  V30 2035 C 222.943 -0.549846 -1.9946 0
M  V30 2036 C 223.358 0.866834 -1.67724 0
M  V30 2037 O 222.715 1.57298 -0.925404 0
M  V30 2038 C 222.766 -0.739387 -3.53858 0
M  V30 2039 O 222.487 -2.10031 -3.84472 0
M  V30 2040 C 223.988 -0.389541 -4.41585 0
M  V30 2041 H 221.208 -0.210429 -0.637151 0
M  V30 2042 H 223.752 -1.21632 -1.64396 0
M  V30 2043 H 221.907 -0.120023 -3.87214 0
M  V30 2044 H 222.321 -2.13385 -4.79132 0
M  V30 2045 H 223.795 -0.572972 -5.49018 0
M  V30 2046 H 224.272 0.673756 -4.34001 0
M  V30 2047 H 224.878 -0.986089 -4.1371 0
M  V30 2048 N 223.193 1.4272 -0.668489 0
M  V30 2049 C 224.156 2.292 0.00448567 0
M  V30 2050 C 225.156 1.43001 0.735339 0
M  V30 2051 O 226.346 1.64461 0.57429 0
M  V30 2052 C 223.478 3.25375 1.01705 0
M  V30 2053 H 224.671 2.90199 -0.756608 0
M  V30 2054 H 222.224 1.50254 -0.430506 0
M  V30 2055 H 222.959 2.69301 1.80686 0
M  V30 2056 H 222.744 3.88944 0.496463 0
M  V30 2057 H 224.234 3.90245 1.48655 0
M  V30 2058 N 224.671 0.411399 1.52136 0
M  V30 2059 C 226.082 -0.0576826 1.86611 0
M  V30 2060 C 226.433 -1.44238 1.33003 0
M  V30 2061 O 225.558 -2.05759 0.670228 0
M  V30 2062 C 226.153 -0.111448 3.38617 0
M  V30 2063 C 224.712 -0.52487 3.72723 0
M  V30 2064 C 223.859 0.299176 2.75681 0
M  V30 2065 H 226.81 0.628368 1.4573 0
M  V30 2066 H 226.831 -0.926252 3.69054 0
M  V30 2067 H 226.343 0.896488 3.77604 0
M  V30 2068 H 224.444 -1.53936 3.39315 0
M  V30 2069 H 224.557 -0.267681 4.78352 0
M  V30 2070 H 222.921 -0.238814 2.53578 0
M  V30 2071 H 223.704 1.3055 3.17508 0
M  V30 2072 N 226.149 -1.5696 0.141893 0
M  V30 2073 C 227.56 -1.82797 -0.379776 0
M  V30 2074 C 227.911 -1.06033 -1.6508 0
M  V30 2075 O 227.036 -0.304011 -2.14254 0
M  V30 2076 C 227.631 -3.31578 -0.695802 0
M  V30 2077 C 226.19 -3.58014 -1.16201 0
M  V30 2078 C 225.337 -2.76699 -0.182455 0
M  V30 2079 H 228.288 -1.54406 0.366675 0
M  V30 2080 H 228.309 -3.47454 -1.55099 0
M  V30 2081 H 227.821 -3.87421 0.229449 0
M  V30 2082 H 225.922 -3.07553 -2.10338 0
M  V30 2083 H 226.035 -4.66501 -1.09151 0
M  V30 2084 H 224.399 -2.45618 -0.674072 0
M  V30 2085 H 225.182 -3.35311 0.736297 0
M  V30 2086 N 227.627 0.131896 -1.57047 0
M  V30 2087 C 228.59 1.14638 -1.98471 0
M  V30 2088 C 229.59 1.35029 -0.873148 0
M  V30 2089 O 230.78 1.31764 -1.13946 0
M  V30 2090 C 227.912 2.50358 -2.31373 0
M  V30 2091 H 229.105 0.79064 -2.8929 0
M  V30 2092 H 226.658 0.375761 -1.51716 0
M  V30 2093 H 227.393 2.90876 -1.43393 0
M  V30 2094 H 227.178 2.36915 -3.12432 0
M  V30 2095 H 228.668 3.23395 -2.64207 0
M  V30 2096 N 229.106 1.52395 0.401703 0
M  V30 2097 C 230.056 1.72649 1.48917 0
M  V30 2098 C 231.04 0.580436 1.50066 0
M  V30 2099 O 232.232 0.83779 1.55917 0
M  V30 2100 C 229.361 1.88729 2.86769 0
M  V30 2101 C 228.447 3.09228 2.90239 0
M  V30 2102 N 228.838 4.31805 2.63396 0
M  V30 2103 C 227.136 3.09214 3.21408 0
M  V30 2104 C 227.837 5.13326 2.73625 0
M  V30 2105 N 226.813 4.48735 3.06819 0
M  V30 2106 H 230.615 2.65058 1.26971 0
M  V30 2107 H 228.129 1.50528 0.609504 0
M  V30 2108 H 230.126 2.01358 3.65049 0
M  V30 2109 H 228.786 0.975252 3.09708 0
M  V30 2110 H 229.797 4.60154 2.37653 0
M  V30 2111 H 226.474 2.27774 3.49893 0
M  V30 2112 H 227.864 6.21003 2.56524 0
M  V30 2113 N 230.584 -0.659388 1.43143 0
M  V30 2114 C 231.832 -1.41654 1.44147 0
M  V30 2115 C 232.153 -1.94893 0.0645739 0
M  V30 2116 O 231.423 -1.74044 -0.899198 0
M  V30 2117 H 230.003 -0.525708 0.530697 0
M  V30 2118 H 232.665 -0.778097 1.78694 0
M  V30 2119 H 231.761 -2.26195 2.1504 0
M  V30 2120 N 232.062 -1.29571 -0.897171 0
M  V30 2121 C 233.308 -1.17863 -1.65034 0
M  V30 2122 C 233.641 0.268729 -1.92332 0
M  V30 2123 O 232.916 1.19378 -1.53555 0
M  V30 2124 C 233.199 -1.995 -2.99786 0
M  V30 2125 C 233.052 -3.5239 -2.79538 0
M  V30 2126 C 234.371 -1.82335 -4.00552 0
M  V30 2127 H 231.49 -0.429528 -0.598895 0
M  V30 2128 H 234.132 -1.59072 -1.03905 0
M  V30 2129 H 232.282 -1.64485 -3.51962 0
M  V30 2130 H 233.954 -3.97401 -2.34244 0
M  V30 2131 H 232.197 -3.77187 -2.14273 0
M  V30 2132 H 232.868 -4.04787 -3.75302 0
M  V30 2133 H 235.344 -2.12924 -3.57495 0
M  V30 2134 H 234.22 -2.41801 -4.92771 0
M  V30 2135 H 234.481 -0.779209 -4.35179 0
M  V30 2136 N 233.54 1.10788 -1.12088 0
M  V30 2137 C 234.768 1.86461 -0.896651 0
M  V30 2138 C 235.183 1.80492 0.553912 0
M  V30 2139 O 234.54 1.19102 1.38278 0
M  V30 2140 C 234.591 3.35006 -1.35843 0
M  V30 2141 O 234.312 3.40866 -2.75213 0
M  V30 2142 C 235.813 4.27565 -1.1706 0
M  V30 2143 H 233.033 0.589425 -0.320654 0
M  V30 2144 H 235.577 1.40076 -1.48993 0
M  V30 2145 H 233.732 3.7887 -0.808458 0
M  V30 2146 H 234.146 4.33411 -2.9539 0
M  V30 2147 H 235.62 5.30007 -1.54263 0
M  V30 2148 H 236.097 4.3906 -0.110814 0
M  V30 2149 H 236.703 3.89501 -1.70789 0
M  V30 2150 N 235.018 0.912232 1.28515 0
M  V30 2151 C 236.243 0.559774 1.99703 0
M  V30 2152 C 236.668 -0.851393 1.67729 0
M  V30 2153 O 236.026 -1.56875 0.908834 0
M  V30 2154 C 236.074 0.773874 3.52198 0
M  V30 2155 O 235.178 -0.167842 4.12058 0
M  V30 2156 H 234.519 0.21723 0.627461 0
M  V30 2157 H 237.049 1.22725 1.63706 0
M  V30 2158 H 237.059 0.683386 4.02236 0
M  V30 2159 H 235.734 1.80261 3.74805 0
M  V30 2160 H 234.311 -0.0287509 3.72889 0
M  V30 2161 N 236.496 -1.42363 0.676048 0
M  V30 2162 C 237.459 -2.29199 0.00766941 0
M  V30 2163 C 238.459 -1.43389 -0.727745 0
M  V30 2164 O 239.649 -1.64764 -0.56556 0
M  V30 2165 C 236.781 -3.2591 -0.999785 0
M  V30 2166 H 237.974 -2.89794 0.771988 0
M  V30 2167 H 235.527 -1.50024 0.438468 0
M  V30 2168 H 236.262 -2.70256 -1.79255 0
M  V30 2169 H 236.047 -3.89202 -0.475829 0
M  V30 2170 H 237.537 -3.91028 -1.46583 0
M  V30 2171 N 237.974 -0.419461 -1.51915 0
M  V30 2172 C 239.385 0.0477853 -1.86639 0
M  V30 2173 C 239.736 1.43531 -1.33766 0
M  V30 2174 O 238.861 2.05401 -0.68113 0
M  V30 2175 C 239.456 0.0934885 -3.38671 0
M  V30 2176 C 238.015 0.505097 -3.72996 0
M  V30 2177 C 237.162 -0.313792 -2.75519 0
M  V30 2178 H 240.113 -0.636088 -1.45395 0
M  V30 2179 H 240.134 0.906667 -3.6954 0
M  V30 2180 H 239.646 -0.916501 -3.77123 0
M  V30 2181 H 237.747 1.52135 -3.40126 0
M  V30 2182 H 237.86 0.242309 -4.78487 0
M  V30 2183 H 236.224 0.225363 -2.53701 0
M  V30 2184 H 237.007 -1.32232 -3.16812 0
M  V30 2185 N 239.452 1.56882 -0.150215 0
M  V30 2186 C 240.729 1.87844 0.545327 0
M  V30 2187 C 241.109 1.0567 1.82749 0
M  V30 2188 O 240.457 0.144442 2.28043 0
M  V30 2189 C 240.667 3.39526 0.80767 0
M  V30 2190 C 242.015 4.08814 1.14703 0
M  V30 2191 O 243.039 3.44723 0.896917 0
M  V30 2192 O 241.898 5.22004 1.61784 0
M  V30 2193 H 238.992 0.778677 0.278553 0
M  V30 2194 H 241.538 1.68666 -0.187068 0
M  V30 2195 H 240.31 3.91173 -0.0996096 0
M  V30 2196 H 239.933 3.64243 1.59413 0
M  V30 2197 N 240.93 -0.123565 1.57115 0
M  V30 2198 C 242.158 -0.846461 1.88793 0
M  V30 2199 C 242.573 -1.73652 0.740976 0
M  V30 2200 O 241.93 -1.80207 -0.288393 0
M  V30 2201 C 241.981 -1.6837 3.19897 0
M  V30 2202 O 241.702 -0.829477 4.30176 0
M  V30 2203 C 243.203 -2.51214 3.65248 0
M  V30 2204 H 240.423 -0.243573 0.625231 0
M  V30 2205 H 242.967 -0.109324 2.04208 0
M  V30 2206 H 241.122 -2.37364 3.06165 0
M  V30 2207 H 241.536 -1.40651 5.0529 0
M  V30 2208 H 243.01 -3.05497 4.59756 0
M  V30 2209 H 243.487 -3.28359 2.9168 0
M  V30 2210 H 244.093 -1.8747 3.81752 0
M  V30 2211 N 242.408 -1.52605 -0.393616 0
M  V30 2212 C 243.824 -1.41753 -0.733357 0
M  V30 2213 C 244.024 -0.534293 -1.94287 0
M  V30 2214 O 243.08 -0.0059787 -2.52499 0
M  V30 2215 C 244.393 -2.84531 -0.972772 0
M  V30 2216 C 245.941 -2.93978 -1.07453 0
M  V30 2217 C 246.416 -4.37756 -1.3466 0
M  V30 2218 N 247.907 -4.4106 -1.41492 0
M  V30 2219 C 248.642 -5.49387 -1.642 0
M  V30 2220 N 248.138 -6.67806 -1.8441 0
M  V30 2221 N 249.931 -5.36923 -1.66342 0
M  V30 2222 H 242.082 -2.08555 0.402328 0
M  V30 2223 H 244.345 -0.940654 0.117789 0
M  V30 2224 H 244.051 -3.51353 -0.156204 0
M  V30 2225 H 243.925 -3.26508 -1.88871 0
M  V30 2226 H 246.312 -2.27326 -1.88167 0
M  V30 2227 H 246.393 -2.55435 -0.136605 0
M  V30 2228 H 246.037 -5.04972 -0.544581 0
M  V30 2229 H 245.967 -4.73848 -2.2973 0
M  V30 2230 H 248.458 -3.55705 -1.27601 0
M  V30 2231 H 248.771 -7.46141 -2.01231 0
M  V30 2232 H 247.116 -6.70843 -1.81644 0
M  V30 2233 H 250.307 -4.43381 -1.50102 0
M  V30 2234 H 250.48 -6.21416 -1.837 0
M  V30 2235 N 243.887 0.651787 -1.4349 0
M  V30 2236 C 245.298 1.233 -1.40193 0
M  V30 2237 C 245.649 1.9591 -0.106727 0
M  V30 2238 O 244.774 2.01316 0.793773 0
M  V30 2239 C 245.369 2.24257 -2.53957 0
M  V30 2240 C 243.928 2.77852 -2.5392 0
M  V30 2241 C 243.075 1.52517 -2.3159 0
M  V30 2242 H 246.026 0.443717 -1.52371 0
M  V30 2243 H 246.047 3.0646 -2.25528 0
M  V30 2244 H 245.559 1.71382 -3.4821 0
M  V30 2245 H 243.66 3.34786 -1.63551 0
M  V30 2246 H 243.773 3.25299 -3.51735 0
M  V30 2247 H 242.137 1.79915 -1.80285 0
M  V30 2248 H 242.92 1.01574 -3.27929 0
M  V30 2249 N 245.365 1.30045 0.890287 0
M  V30 2250 C 246.328 1.15963 1.977 0
M  V30 2251 C 247.328 0.0923777 1.60534 0
M  V30 2252 O 248.518 0.340071 1.70848 0
M  V30 2253 C 245.65 0.775451 3.31963 0
M  V30 2254 H 246.843 2.12502 2.11619 0
M  V30 2255 H 244.396 1.13366 1.07601 0
M  V30 2256 H 245.131 -0.189671 3.23745 0
M  V30 2257 H 244.916 1.54668 3.60306 0
M  V30 2258 H 246.406 0.700251 4.11687 0
M  V30 2259 N 246.843 -1.10192 1.12674 0
M  V30 2260 C 248.254 -1.63707 0.897604 0
M  V30 2261 C 248.605 -1.87812 -0.567546 0
M  V30 2262 O 247.73 -1.62196 -1.43253 0
M  V30 2263 C 248.325 -2.974 1.62292 0
M  V30 2264 C 246.884 -3.47772 1.43986 0
M  V30 2265 C 246.031 -2.22332 1.65722 0
M  V30 2266 H 248.982 -0.936587 1.28116 0
M  V30 2267 H 249.003 -3.64986 1.07541 0
M  V30 2268 H 248.515 -2.79824 2.68924 0
M  V30 2269 H 246.616 -3.70487 0.396206 0
M  V30 2270 H 246.729 -4.25723 2.19765 0
M  V30 2271 H 245.093 -2.30599 1.08149 0
M  V30 2272 H 245.876 -2.07285 2.73657 0
M  V30 2273 N 248.321 -0.919034 -1.28029 0
M  V30 2274 C 249.569 -0.553838 -1.94363 0
M  V30 2275 C 249.89 0.906357 -1.72656 0
M  V30 2276 O 249.16 1.64143 -1.0693 0
M  V30 2277 H 247.74 -0.201834 -0.719216 0
M  V30 2278 H 250.402 -1.16954 -1.55909 0
M  V30 2279 H 249.498 -0.752758 -3.02886 0
M  V30 2280 N 249.799 1.42003 -0.683588 0
M  V30 2281 C 251.024 2.06265 -0.216647 0
M  V30 2282 C 251.449 1.51059 1.12083 0
M  V30 2283 O 250.807 0.632638 1.69904 0
M  V30 2284 C 250.855 3.60191 -0.171759 0
M  V30 2285 O 249.959 4.03396 0.857069 0
M  V30 2286 H 249.3 0.65502 -0.108834 0
M  V30 2287 H 251.83 1.81982 -0.935077 0
M  V30 2288 H 251.84 4.08 0.0014303 0
M  V30 2289 H 250.515 3.99743 -1.14796 0
M  V30 2290 H 249.092 3.67117 0.654208 0
M  V30 2291 N 251.277 0.427512 1.51691 0
M  V30 2292 C 252.505 -0.141191 2.06418 0
M  V30 2293 C 252.92 -1.37303 1.29589 0
M  V30 2294 O 252.277 -1.79059 0.352732 0
M  V30 2295 C 252.328 -0.473266 3.58389 0
M  V30 2296 O 252.049 0.709673 4.32314 0
M  V30 2297 C 253.55 -1.09371 4.29596 0
M  V30 2298 H 250.77 -0.0122747 0.670888 0
M  V30 2299 H 253.314 0.603764 1.95384 0
M  V30 2300 H 251.469 -1.16812 3.69369 0
M  V30 2301 H 251.883 0.42807 5.2275 0
M  V30 2302 H 253.357 -1.27613 5.37046 0
M  V30 2303 H 253.834 -2.072 3.87253 0
M  V30 2304 H 254.44 -0.43853 4.23033 0
M  V30 2305 N 252.755 -1.56801 0.158532 0
M  V30 2306 C 253.718 -2.16138 -0.762705 0
M  V30 2307 C 254.718 -1.1061 -1.16713 0
M  V30 2308 O 255.908 -1.36191 -1.08617 0
M  V30 2309 C 253.04 -2.73386 -2.03649 0
M  V30 2310 H 254.233 -2.98886 -0.246354 0
M  V30 2311 H 251.786 -1.56035 -0.0909744 0
M  V30 2312 H 252.521 -1.94335 -2.59623 0
M  V30 2313 H 252.306 -3.50601 -1.75559 0
M  V30 2314 H 253.796 -3.19065 -2.6942 0
M  V30 2315 N 254.233 0.115231 -1.57178 0
M  V30 2316 C 255.644 0.67197 -1.74188 0
M  V30 2317 C 255.995 1.80125 -0.777777 0
M  V30 2318 O 255.12 2.16346 0.0484376 0
M  V30 2319 C 255.715 1.22573 -3.1585 0
M  V30 2320 C 254.274 1.72872 -3.34353 0
M  V30 2321 C 253.421 0.629972 -2.70049 0
M  V30 2322 H 256.372 -0.110712 -1.58313 0
M  V30 2323 H 256.393 2.09535 -3.17609 0
M  V30 2324 H 255.905 0.403598 -3.85996 0
M  V30 2325 H 254.006 2.5755 -2.69256 0
M  V30 2326 H 254.119 1.83557 -4.42542 0
M  V30 2327 H 252.483 1.0645 -2.31388 0
M  V30 2328 H 253.266 -0.181241 -3.42821 0
M  V30 2329 N 255.711 1.52812 0.385517 0
M  V30 2330 C 257.122 1.5993 0.963293 0
M  V30 2331 C 257.473 0.454302 1.90868 0
M  V30 2332 O 256.598 -0.422132 2.12243 0
M  V30 2333 C 257.193 2.89871 1.75387 0
M  V30 2334 C 255.752 2.99389 2.28129 0
M  V30 2335 C 254.899 2.55071 1.08783 0
M  V30 2336 H 257.85 1.5784 0.164948 0
M  V30 2337 H 257.871 2.76553 2.61341 0
M  V30 2338 H 257.383 3.73186 1.06554 0
M  V30 2339 H 255.484 2.20619 3.00263 0
M  V30 2340 H 255.597 4.04096 2.57377 0
M  V30 2341 H 253.961 2.09473 1.4489 0
M  V30 2342 H 254.744 3.40785 0.414807 0
M  V30 2343 N 257.189 -0.644168 1.43834 0
M  V30 2344 C 258.152 -1.73857 1.49353 0
M  V30 2345 C 259.152 -1.56315 0.377112 0
M  V30 2346 O 260.342 -1.62048 0.639226 0
M  V30 2347 C 257.474 -3.12819 1.35488 0
M  V30 2348 H 258.667 -1.70342 2.46827 0
M  V30 2349 H 256.22 -0.856652 1.30733 0
M  V30 2350 H 256.955 -3.2194 0.390569 0
M  V30 2351 H 256.74 -3.26958 2.16428 0
M  V30 2352 H 258.23 -3.92606 1.42302 0
M  V30 2353 N 258.668 -1.30515 -0.883378 0
M  V30 2354 C 259.618 -1.13641 -1.9766 0
M  V30 2355 C 260.602 -0.0511314 -1.60819 0
M  V30 2356 O 261.794 -0.274623 -1.74857 0
M  V30 2357 C 258.923 -0.831976 -3.33066 0
M  V30 2358 C 258.009 -1.95759 -3.76217 0
M  V30 2359 N 258.4 -3.20313 -3.9145 0
M  V30 2360 C 256.698 -1.85431 -4.05625 0
M  V30 2361 C 257.399 -3.93856 -4.2808 0
M  V30 2362 N 256.375 -3.21919 -4.38029 0
M  V30 2363 H 260.177 -2.08106 -2.07531 0
M  V30 2364 H 257.691 -1.21877 -1.0733 0
M  V30 2365 H 259.688 -0.692102 -4.11115 0
M  V30 2366 H 258.348 0.104588 -3.24532 0
M  V30 2367 H 259.359 -3.55583 -3.76538 0
M  V30 2368 H 256.036 -0.991531 -4.05555 0
M  V30 2369 H 257.426 -5.01125 -4.47575 0
M  V30 2370 N 260.146 1.09593 -1.13257 0
M  V30 2371 C 261.394 1.81375 -0.891492 0
M  V30 2372 C 261.715 1.86049 0.584009 0
M  V30 2373 O 260.985 1.34481 1.42449 0
M  V30 2374 H 259.565 0.671708 -0.326828 0
M  V30 2375 H 262.227 1.3256 -1.42877 0
M  V30 2376 H 261.323 2.84612 -1.28071 0
M  V30 2377 N 261.624 0.925811 1.2754 0
M  V30 2378 C 262.87 0.566092 1.94739 0
M  V30 2379 C 263.203 -0.890057 1.72603 0
M  V30 2380 O 262.478 -1.63467 1.05399 0
M  V30 2381 C 262.761 0.89054 3.48915 0
M  V30 2382 C 262.614 2.4003 3.80402 0
M  V30 2383 C 263.933 0.395101 4.38323 0
M  V30 2384 H 261.052 0.20714 0.707292 0
M  V30 2385 H 263.694 1.15725 1.50691 0
M  V30 2386 H 261.844 0.387452 3.86563 0
M  V30 2387 H 263.516 2.97494 3.52555 0
M  V30 2388 H 261.759 2.85028 3.2702 0
M  V30 2389 H 262.43 2.57785 4.8811 0
M  V30 2390 H 264.906 0.826241 4.07814 0
M  V30 2391 H 263.782 0.651086 5.45025 0
M  V30 2392 H 264.043 -0.704798 4.36446 0
M  V30 2393 N 263.102 -1.41638 0.69111 0
M  V30 2394 C 264.33 -2.05628 0.22909 0
M  V30 2395 C 264.745 -1.51992 -1.11999 0
M  V30 2396 O 264.102 -0.666322 -1.69901 0
M  V30 2397 C 264.153 -3.61084 0.173283 0
M  V30 2398 O 263.874 -4.12735 1.46907 0
M  V30 2399 C 265.375 -4.42213 -0.310266 0
M  V30 2400 H 262.595 -0.662327 0.107534 0
M  V30 2401 H 265.139 -1.81489 0.942438 0
M  V30 2402 H 263.294 -3.84278 -0.490858 0
M  V30 2403 H 263.708 -5.06743 1.35322 0
M  V30 2404 H 265.182 -5.51194 -0.298196 0
M  V30 2405 H 265.659 -4.1799 -1.34838 0
M  V30 2406 H 266.265 -4.24074 0.322716 0
M  V30 2407 N 264.58 -0.43555 -1.51462 0
M  V30 2408 C 265.805 0.132627 -2.06976 0
M  V30 2409 C 266.23 1.35848 -1.30104 0
M  V30 2410 O 265.588 1.78112 -0.338493 0
M  V30 2411 C 265.636 0.43523 -3.57964 0
M  V30 2412 O 264.74 1.52198 -3.83288 0
M  V30 2413 H 264.081 0.00265 -0.663995 0
M  V30 2414 H 266.611 -0.616369 -1.95095 0
M  V30 2415 H 266.621 0.686206 -4.02188 0
M  V30 2416 H 265.296 -0.460739 -4.1334 0
M  V30 2417 H 263.873 1.2611 -3.50928 0
M  V30 2418 N 266.058 1.56714 -0.166846 0
M  V30 2419 C 267.021 2.16539 0.751232 0
M  V30 2420 C 268.021 1.11228 1.16125 0
M  V30 2421 O 269.211 1.36765 1.07894 0
M  V30 2422 C 266.343 2.74462 2.02196 0
M  V30 2423 H 267.536 2.99013 0.230499 0
M  V30 2424 H 265.089 1.56081 0.0826982 0
M  V30 2425 H 265.824 1.95709 2.58589 0
M  V30 2426 H 265.609 3.51527 1.73698 0
M  V30 2427 H 267.099 3.20489 2.67725 0
M  V30 2428 N 267.536 -0.106894 1.57237 0
M  V30 2429 C 268.947 -0.662723 1.74542 0
M  V30 2430 C 269.298 -1.7971 0.787319 0
M  V30 2431 O 268.423 -2.16368 -0.0369636 0
M  V30 2432 C 269.018 -1.20896 3.16496 0
M  V30 2433 C 267.577 -1.71096 3.35266 0
M  V30 2434 C 266.724 -0.615642 2.7038 0
M  V30 2435 H 269.675 0.119106 1.58252 0
M  V30 2436 H 269.696 -2.07847 3.18716 0
M  V30 2437 H 269.208 -0.383122 3.86204 0
M  V30 2438 H 267.309 -2.56119 2.70618 0
M  V30 2439 H 267.422 -1.81208 4.43509 0
M  V30 2440 H 265.786 -1.05222 2.31949 0
M  V30 2441 H 266.569 0.199419 3.4272 0
M  V30 2442 N 269.014 -1.53014 -0.377408 0
M  V30 2443 C 270.291 -1.59215 -1.13622 0
M  V30 2444 C 270.671 -0.392407 -2.07421 0
M  V30 2445 O 270.019 0.618342 -2.19975 0
M  V30 2446 C 270.229 -2.93669 -1.88573 0
M  V30 2447 C 271.577 -3.47822 -2.43526 0
M  V30 2448 O 272.601 -2.9562 -1.98715 0
M  V30 2449 O 271.46 -4.39055 -3.25412 0
M  V30 2450 H 268.554 -0.642625 -0.52054 0
M  V30 2451 H 271.1 -1.65353 -0.381625 0
M  V30 2452 H 269.872 -3.7243 -1.20048 0
M  V30 2453 H 269.495 -2.90968 -2.70968 0
M  V30 2454 N 270.492 0.636531 -1.44174 0
M  V30 2455 C 271.72 1.42353 -1.50144 0
M  V30 2456 C 272.135 1.88389 -0.124575 0
M  V30 2457 O 271.492 1.6051 0.868489 0
M  V30 2458 C 271.543 2.64744 -2.46156 0
M  V30 2459 O 271.264 2.20629 -3.7849 0
M  V30 2460 C 272.765 3.57929 -2.61537 0
M  V30 2461 H 269.985 0.436752 -0.5094 0
M  V30 2462 H 272.529 0.778933 -1.89084 0
M  V30 2463 H 270.684 3.25307 -2.10366 0
M  V30 2464 H 271.098 2.99938 -4.30276 0
M  V30 2465 H 272.572 4.40428 -3.32757 0
M  V30 2466 H 273.049 4.06382 -1.66585 0
M  V30 2467 H 273.655 3.03238 -2.98206 0
M  V30 2468 N 271.97 1.30982 0.876444 0
M  V30 2469 C 273.386 1.09498 1.16113 0
M  V30 2470 C 273.586 -0.13875 2.01022 0
M  V30 2471 O 272.642 -0.829935 2.38471 0
M  V30 2472 C 273.955 2.36308 1.85954 0
M  V30 2473 C 275.503 2.41856 1.98683 0
M  V30 2474 C 275.978 3.6853 2.71937 0
M  V30 2475 N 277.469 3.69387 2.79477 0
M  V30 2476 C 278.204 4.64096 3.36753 0
M  V30 2477 N 277.7 5.69155 3.95012 0
M  V30 2478 N 279.493 4.51626 3.3465 0
M  V30 2479 H 271.644 2.10118 0.310494 0
M  V30 2480 H 273.907 0.926634 0.200131 0
M  V30 2481 H 273.613 3.26388 1.31011 0
M  V30 2482 H 273.487 2.4561 2.86278 0
M  V30 2483 H 275.874 1.52249 2.52793 0
M  V30 2484 H 275.955 2.36523 0.9742 0
M  V30 2485 H 275.599 4.58499 2.18496 0
M  V30 2486 H 275.529 3.71127 3.73593 0
M  V30 2487 H 278.02 2.93438 2.38123 0
M  V30 2488 H 278.333 6.3751 4.36808 0
M  V30 2489 H 276.678 5.72937 3.93406 0
M  V30 2490 H 279.869 3.68728 2.8837 0
M  V30 2491 H 280.042 5.25614 3.7899 0
M  V30 2492 N 273.449 -1.08991 1.13837 0
M  V30 2493 C 274.86 -1.62746 0.914917 0
M  V30 2494 C 275.211 -1.88403 -0.547594 0
M  V30 2495 O 274.336 -1.63706 -1.41525 0
M  V30 2496 C 274.931 -2.95662 1.65437 0
M  V30 2497 C 273.49 -3.46225 1.47666 0
M  V30 2498 C 272.637 -2.20562 1.6807 0
M  V30 2499 H 275.588 -0.922946 1.29102 0
M  V30 2500 H 275.609 -3.63825 1.11407 0
M  V30 2501 H 275.121 -2.76956 2.71877 0
M  V30 2502 H 273.222 -3.70046 0.435478 0
M  V30 2503 H 273.335 -4.23368 2.24268 0
M  V30 2504 H 271.699 -2.29439 1.10589 0
M  V30 2505 H 272.482 -2.0437 2.7584 0
M  V30 2506 N 274.927 -0.932562 -1.27047 0
M  V30 2507 C 275.89 -0.440064 -2.24936 0
M  V30 2508 C 276.89 0.444071 -1.54547 0
M  V30 2509 O 278.08 0.244465 -1.72476 0
M  V30 2510 C 275.212 0.36678 -3.38921 0
M  V30 2511 H 276.405 -1.305 -2.70018 0
M  V30 2512 H 273.958 -0.713707 -1.39054 0
M  V30 2513 H 274.693 1.25033 -2.99228 0
M  V30 2514 H 274.478 -0.267204 -3.91188 0
M  V30 2515 H 275.968 0.701567 -4.11665 0
M  V30 2516 N 276.405 1.4127 -0.698611 0
M  V30 2517 C 277.816 1.84187 -0.305289 0
M  V30 2518 C 278.167 1.58449 1.15708 0
M  V30 2519 O 277.292 1.05651 1.88856 0
M  V30 2520 C 277.887 3.3435 -0.547314 0
M  V30 2521 C 276.446 3.75826 -0.207878 0
M  V30 2522 C 275.593 2.64647 -0.828099 0
M  V30 2523 H 278.544 1.30778 -0.89904 0
M  V30 2524 H 278.565 3.8001 0.192998 0
M  V30 2525 H 278.077 3.53051 -1.61172 0
M  V30 2526 H 276.178 3.62725 0.852143 0
M  V30 2527 H 276.291 4.74462 -0.665021 0
M  V30 2528 H 274.655 2.53395 -0.257458 0
M  V30 2529 H 275.438 2.86165 -1.89643 0
M  V30 2530 N 277.883 0.443576 1.51229 0
M  V30 2531 C 279.131 -0.120557 2.0174 0
M  V30 2532 C 279.452 -1.42665 1.32935 0
M  V30 2533 O 278.722 -1.9028 0.465866 0
M  V30 2534 H 277.302 -0.0475426 0.745486 0
M  V30 2535 H 279.964 0.587711 1.85828 0
M  V30 2536 H 279.06 -0.291972 3.10731 0
M  V30 2537 N 279.361 -1.56624 0.175154 0
M  V30 2538 C 280.586 -2.01813 -0.478137 0
M  V30 2539 C 281.011 -1.05457 -1.55757 0
M  V30 2540 O 280.369 -0.0347439 -1.81267 0
M  V30 2541 C 280.417 -3.45581 -1.02987 0
M  V30 2542 O 279.521 -3.52305 -2.14371 0
M  V30 2543 H 278.862 -0.65413 -0.114059 0
M  V30 2544 H 281.392 -2.02673 0.280173 0
M  V30 2545 H 281.402 -3.84965 -1.35151 0
M  V30 2546 H 280.077 -4.1521 -0.239556 0
M  V30 2547 H 278.654 -3.24783 -1.83222 0
M  V30 2548 N 280.839 0.0985539 -1.57292 0
M  V30 2549 C 282.067 0.816318 -1.90115 0
M  V30 2550 C 282.482 1.72451 -0.768509 0
M  V30 2551 O 281.839 1.80643 0.259687 0
M  V30 2552 C 281.89 1.63259 -3.22535 0
M  V30 2553 O 281.611 0.760934 -4.31441 0
M  V30 2554 C 283.112 2.45372 -3.69199 0
M  V30 2555 H 280.332 0.233595 -0.629027 0
M  V30 2556 H 282.876 0.0768229 -2.04356 0
M  V30 2557 H 281.031 2.32463 -3.09903 0
M  V30 2558 H 281.445 1.32595 -5.07463 0
M  V30 2559 H 282.919 2.98144 -4.64558 0
M  V30 2560 H 283.396 3.23677 -2.96867 0
M  V30 2561 H 284.002 1.81373 -3.84687 0
M  V30 2562 N 282.317 1.53212 0.369288 0
M  V30 2563 C 283.28 1.7872 1.43498 0
M  V30 2564 C 284.28 0.657554 1.46741 0
M  V30 2565 O 285.47 0.925736 1.47566 0
M  V30 2566 C 282.602 1.90591 2.82645 0
M  V30 2567 H 283.795 2.73894 1.22156 0
M  V30 2568 H 281.348 1.44233 0.602203 0
M  V30 2569 H 282.083 0.974709 3.09306 0
M  V30 2570 H 281.868 2.72751 2.8169 0
M  V30 2571 H 283.358 2.11931 3.59826 0
M  V30 2572 N 283.795 -0.628877 1.44509 0
M  V30 2573 C 285.206 -1.21054 1.42137 0
M  V30 2574 C 285.557 -1.95715 0.137881 0
M  V30 2575 O 284.682 -2.02554 -0.761645 0
M  V30 2576 C 285.277 -2.20189 2.57493 0
M  V30 2577 C 283.836 -2.73777 2.58308 0
M  V30 2578 C 282.983 -1.48813 2.33987 0
M  V30 2579 H 285.934 -0.41942 1.53057 0
M  V30 2580 H 285.955 -3.02833 2.30375 0
M  V30 2581 H 285.467 -1.6582 3.50892 0
M  V30 2582 H 283.568 -3.32142 1.68856 0
M  V30 2583 H 283.681 -3.19662 3.56865 0
M  V30 2584 H 282.045 -1.77024 1.83124 0
M  V30 2585 H 282.828 -0.963442 3.29504 0
M  V30 2586 N 285.273 -1.31445 -0.869486 0
M  V30 2587 C 286.684 -1.19042 -1.43826 0
M  V30 2588 C 287.035 0.202919 -1.95148 0
M  V30 2589 O 286.16 1.10071 -1.86315 0
M  V30 2590 C 286.755 -2.15499 -2.6143 0
M  V30 2591 C 285.314 -2.07028 -3.14351 0
M  V30 2592 C 284.461 -2.04701 -1.87063 0
M  V30 2593 H 287.412 -1.43489 -0.677984 0
M  V30 2594 H 287.433 -1.74488 -3.38134 0
M  V30 2595 H 286.945 -3.16899 -2.24046 0
M  V30 2596 H 285.046 -1.08825 -3.56354 0
M  V30 2597 H 285.159 -2.96157 -3.766 0
M  V30 2598 H 283.523 -1.49724 -2.06046 0
M  V30 2599 H 284.306 -3.07857 -1.51917 0
M  V30 2600 N 286.751 1.08385 -1.14413 0
M  V30 2601 C 287.714 2.13486 -0.834048 0
M  V30 2602 C 288.714 1.59988 0.161418 0
M  V30 2603 O 289.904 1.74071 -0.0669575 0
M  V30 2604 C 287.036 3.4003 -0.243354 0
M  V30 2605 H 288.229 2.42425 -1.7655 0
M  V30 2606 H 285.782 1.24101 -0.950189 0
M  V30 2607 H 286.517 3.16726 0.696807 0
M  V30 2608 H 286.302 3.80157 -0.960367 0
M  V30 2609 H 287.792 4.17577 -0.0436242 0
M  V30 2610 N 288.23 0.939286 1.26551 0
M  V30 2611 C 289.18 0.418284 2.2413 0
M  V30 2612 C 290.164 -0.483935 1.5345 0
M  V30 2613 O 291.356 -0.319489 1.74093 0
M  V30 2614 C 288.485 -0.31709 3.41832 0
M  V30 2615 C 287.571 0.602311 4.19801 0
M  V30 2616 N 287.962 1.72726 4.75394 0
M  V30 2617 C 286.26 0.407534 4.44134 0
M  V30 2618 C 286.961 2.30004 5.34297 0
M  V30 2619 N 285.937 1.58828 5.1988 0
M  V30 2620 H 289.739 1.27705 2.64705 0
M  V30 2621 H 287.253 0.794929 1.41614 0
M  V30 2622 H 289.25 -0.707364 4.10855 0
M  V30 2623 H 287.91 -1.17264 3.02786 0
M  V30 2624 H 288.921 2.10944 4.72994 0
M  V30 2625 H 285.598 -0.406406 4.15517 0
M  V30 2626 H 286.988 3.24778 5.88191 0
M  V30 2627 N 289.708 -1.40897 0.706093 0
M  V30 2628 C 290.956 -2.00657 0.241054 0
M  V30 2629 C 291.277 -1.56241 -1.16678 0
M  V30 2630 O 290.547 -0.79765 -1.78926 0
M  V30 2631 H 289.127 -0.742018 0.0861308 0
M  V30 2632 H 291.789 -1.72372 0.909604 0
M  V30 2633 H 290.885 -3.10958 0.266705 0
M  V30 2634 N 291.186 -0.45159 -1.50991 0
M  V30 2635 C 292.432 0.110237 -2.025 0
M  V30 2636 C 292.765 1.41109 -1.33424 0
M  V30 2637 O 292.04 1.89135 -0.453659 0
M  V30 2638 C 292.323 0.314271 -3.58726 0
M  V30 2639 C 292.176 -1.00623 -4.38401 0
M  V30 2640 C 293.495 1.07767 -4.26702 0
M  V30 2641 H 290.614 0.0385897 -0.735989 0
M  V30 2642 H 293.256 -0.593374 -1.80497 0
M  V30 2643 H 291.406 0.913601 -3.77605 0
M  V30 2644 H 293.078 -1.64064 -4.31139 0
M  V30 2645 H 291.321 -1.6075 -4.02917 0
M  V30 2646 H 291.992 -0.817341 -5.45915 0
M  V30 2647 H 294.468 0.56986 -4.12179 0
M  V30 2648 H 293.344 1.18921 -5.35863 0
M  V30 2649 H 293.605 2.10939 -3.88532 0
M  V30 2650 N 292.664 1.56529 -0.183458 0
M  V30 2651 C 293.892 2.01623 0.464285 0
M  V30 2652 C 294.307 1.06366 1.55986 0
M  V30 2653 O 293.664 0.0665398 1.82379 0
M  V30 2654 C 293.715 3.46475 1.03139 0
M  V30 2655 O 293.436 4.38095 -0.0204675 0
M  V30 2656 C 294.937 4.0703 1.75617 0
M  V30 2657 H 292.157 0.660596 0.117704 0
M  V30 2658 H 294.701 2.02451 -0.288751 0
M  V30 2659 H 292.856 3.46383 1.73486 0
M  V30 2660 H 293.27 5.22973 0.399952 0
M  V30 2661 H 294.744 5.10271 2.10542 0
M  V30 2662 H 295.221 3.49819 2.65563 0
M  V30 2663 H 295.827 4.1086 1.09882 0
M  V30 2664 N 294.142 -0.090211 1.57342 0
M  V30 2665 C 295.367 -0.810082 1.90925 0
M  V30 2666 C 295.792 -1.71248 0.778187 0
M  V30 2667 O 295.15 -1.79278 -0.269991 0
M  V30 2668 C 295.198 -1.59529 3.23393 0
M  V30 2669 O 294.302 -2.70461 3.11327 0
M  V30 2670 H 293.643 -0.222231 0.625707 0
M  V30 2671 H 296.173 -0.0639716 2.045 0
M  V30 2672 H 296.183 -1.97847 3.5682 0
M  V30 2673 H 294.858 -0.933055 4.05299 0
M  V30 2674 H 293.435 -2.35135 2.89423 0
M  V30 2675 N 295.62 -1.53406 -0.361157 0
M  V30 2676 C 296.583 -1.79479 -1.42548 0
M  V30 2677 C 297.583 -0.665327 -1.4639 0
M  V30 2678 O 298.773 -0.933549 -1.47073 0
M  V30 2679 C 295.905 -1.92087 -2.8163 0
M  V30 2680 H 297.098 -2.74538 -1.20701 0
M  V30 2681 H 294.651 -1.4455 -0.594546 0
M  V30 2682 H 295.386 -0.991099 -3.08784 0
M  V30 2683 H 295.171 -2.74241 -2.80239 0
M  V30 2684 H 296.661 -2.13836 -3.58697 0
M  V30 2685 N 297.098 0.621204 -1.44841 0
M  V30 2686 C 298.509 1.20298 -1.42777 0
M  V30 2687 C 298.86 1.95639 -0.148259 0
M  V30 2688 O 297.985 2.02955 0.750892 0
M  V30 2689 C 298.58 2.1882 -2.58657 0
M  V30 2690 C 297.139 2.72403 -2.59756 0
M  V30 2691 C 296.286 1.4757 -2.34773 0
M  V30 2692 H 299.237 0.411297 -1.53278 0
M  V30 2693 H 299.258 3.01607 -2.31977 0
M  V30 2694 H 298.77 1.63957 -3.51766 0
M  V30 2695 H 296.871 3.31242 -1.70615 0
M  V30 2696 H 296.984 3.17765 -3.58556 0
M  V30 2697 H 295.348 1.76051 -1.8406 0
M  V30 2698 H 296.131 0.945954 -3.3001 0
M  V30 2699 N 298.576 1.31904 0.862503 0
M  V30 2700 C 299.853 1.12644 1.59908 0
M  V30 2701 C 300.233 -0.316104 2.0872 0
M  V30 2702 O 299.581 -1.31145 1.87118 0
M  V30 2703 C 299.791 2.1472 2.7513 0
M  V30 2704 C 301.139 2.47637 3.44907 0
M  V30 2705 O 302.163 2.13205 2.85346 0
M  V30 2706 O 301.022 3.06632 4.52371 0
M  V30 2707 H 298.116 0.43416 0.703871 0
M  V30 2708 H 300.662 1.43408 0.907314 0
M  V30 2709 H 299.434 3.1172 2.3653 0
M  V30 2710 H 299.057 1.84905 3.51989 0
M  V30 2711 N 300.054 -1.07777 1.14986 0
M  V30 2712 C 301.282 -1.84018 0.945773 0
M  V30 2713 C 301.697 -1.81897 -0.505863 0
M  V30 2714 O 301.054 -1.22726 -1.35072 0
M  V30 2715 C 301.105 -3.31287 1.44677 0
M  V30 2716 O 300.826 -3.33449 2.84154 0
M  V30 2717 C 302.327 -4.24311 1.28355 0
M  V30 2718 H 299.547 -0.580716 0.336169 0
M  V30 2719 H 302.091 -1.36077 1.52654 0
M  V30 2720 H 300.246 -3.76594 0.908625 0
M  V30 2721 H 300.66 -4.25427 3.06777 0
M  V30 2722 H 302.134 -5.2573 1.68261 0
M  V30 2723 H 302.611 -4.38612 0.227184 0
M  V30 2724 H 303.217 -3.84836 1.81056 0
M  V30 2725 N 301.532 -0.945985 -1.26051 0
M  V30 2726 C 302.948 -0.649045 -1.45807 0
M  V30 2727 C 303.148 0.796158 -1.85104 0
M  V30 2728 O 302.204 1.57233 -1.97571 0
M  V30 2729 C 303.517 -1.61458 -2.53677 0
M  V30 2730 C 305.065 -1.62481 -2.67524 0
M  V30 2731 C 305.54 -2.57776 -3.7857 0
M  V30 2732 N 307.031 -2.5609 -3.85969 0
M  V30 2733 C 307.766 -3.26508 -4.7136 0
M  V30 2734 N 307.262 -4.0637 -5.61102 0
M  V30 2735 N 309.055 -3.15437 -4.65248 0
M  V30 2736 H 301.206 -1.88005 -0.988328 0
M  V30 2737 H 303.469 -0.808198 -0.4955 0
M  V30 2738 H 303.175 -2.64644 -2.31638 0
M  V30 2739 H 303.049 -1.37036 -3.51427 0
M  V30 2740 H 305.436 -0.600167 -2.88933 0
M  V30 2741 H 305.517 -1.90958 -1.70202 0
M  V30 2742 H 305.161 -3.60361 -3.57913 0
M  V30 2743 H 305.091 -2.26587 -4.75359 0
M  V30 2744 H 307.582 -1.98105 -3.21812 0
M  V30 2745 H 307.895 -4.57042 -6.23164 0
M  V30 2746 H 306.24 -4.10469 -5.60839 0
M  V30 2747 H 309.431 -2.52525 -3.94143 0
M  V30 2748 H 309.604 -3.70584 -5.31575 0
M  V30 2749 N 303.011 1.40521 -0.713556 0
M  V30 2750 C 304.422 1.83853 -0.324807 0
M  V30 2751 C 304.773 1.59667 1.14021 0
M  V30 2752 O 303.898 1.07649 1.87725 0
M  V30 2753 C 304.493 3.33751 -0.582746 0
M  V30 2754 C 303.052 3.75584 -0.247727 0
M  V30 2755 C 302.199 2.63753 -0.856121 0
M  V30 2756 H 305.15 1.29817 -0.91286 0
M  V30 2757 H 305.171 3.80194 0.152682 0
M  V30 2758 H 304.683 3.51322 -1.64908 0
M  V30 2759 H 302.784 3.63608 0.813624 0
M  V30 2760 H 302.897 4.7373 -0.715307 0
M  V30 2761 H 301.261 2.53108 -0.28432 0
M  V30 2762 H 302.044 2.84137 -1.92668 0
M  V30 2763 N 304.489 0.459591 1.5075 0
M  V30 2764 C 305.452 -0.329093 2.26825 0
M  V30 2765 C 306.452 -0.930481 1.31144 0
M  V30 2766 O 307.642 -0.801453 1.54669 0
M  V30 2767 C 304.774 -1.46768 3.07688 0
M  V30 2768 H 305.967 0.337924 2.9799 0
M  V30 2769 H 303.52 0.213336 1.54837 0
M  V30 2770 H 304.255 -2.17009 2.40993 0
M  V30 2771 H 304.04 -1.04238 3.77991 0
M  V30 2772 H 305.53 -2.02433 3.65254 0
M  V30 2773 N 305.967 -1.56429 0.191757 0
M  V30 2774 C 307.378 -1.83912 -0.321428 0
M  V30 2775 C 307.729 -1.11231 -1.61623 0
M  V30 2776 O 306.854 -0.37202 -2.13178 0
M  V30 2777 C 307.449 -3.33624 -0.589961 0
M  V30 2778 C 306.008 -3.6153 -1.04753 0
M  V30 2779 C 305.155 -2.7714 -0.0943327 0
M  V30 2780 H 308.106 -1.53161 0.415612 0
M  V30 2781 H 308.127 -3.52213 -1.43966 0
M  V30 2782 H 307.639 -3.86495 0.352588 0
M  V30 2783 H 305.74 -3.14089 -2.00447 0
M  V30 2784 H 305.853 -4.69737 -0.942549 0
M  V30 2785 H 304.217 -2.47638 -0.595589 0
M  V30 2786 H 305 -3.32799 0.842601 0
M  V30 2787 N 307.445 0.0818655 -1.57387 0
M  V30 2788 C 308.693 0.781368 -1.86384 0
M  V30 2789 C 309.014 1.78618 -0.782342 0
M  V30 2790 O 308.284 1.94976 0.190061 0
M  V30 2791 H 306.864 0.291562 -0.687751 0
M  V30 2792 H 309.526 0.060348 -1.94807 0
M  V30 2793 H 308.622 1.3038 -2.83562 0
M  V30 2794 N 308.923 1.53595 0.353017 0
M  V30 2795 C 310.148 1.7462 1.11904 0
M  V30 2796 C 310.573 0.479721 1.8188 0
M  V30 2797 O 309.931 -0.567066 1.72204 0
M  V30 2798 C 309.979 2.92029 2.11545 0
M  V30 2799 O 309.083 2.61516 3.18878 0
M  V30 2800 H 308.424 0.579531 0.324099 0
M  V30 2801 H 310.954 2.00525 0.406301 0
M  V30 2802 H 310.964 3.18551 2.5493 0
M  V30 2803 H 309.639 3.83888 1.60008 0
M  V30 2804 H 308.216 2.45852 2.80377 0
M  V30 2805 N 310.401 -0.613514 1.45168 0
M  V30 2806 C 311.629 -1.39946 1.5239 0
M  V30 2807 C 312.044 -1.88167 0.154531 0
M  V30 2808 O 311.401 -1.61872 -0.842843 0
M  V30 2809 C 311.452 -2.60795 2.50337 0
M  V30 2810 O 311.173 -2.1458 3.81952 0
M  V30 2811 C 312.674 -3.53723 2.67198 0
M  V30 2812 H 309.894 -0.428593 0.516284 0
M  V30 2813 H 312.438 -0.748753 1.903 0
M  V30 2814 H 310.593 -3.21919 2.15515 0
M  V30 2815 H 311.007 -2.93055 4.34993 0
M  V30 2816 H 312.481 -4.35079 3.39721 0
M  V30 2817 H 312.958 -4.0368 1.73029 0
M  V30 2818 H 313.564 -2.98456 3.02992 0
M  V30 2819 N 311.879 -1.3236 -0.855495 0
M  V30 2820 C 312.842 -1.21164 -1.94556 0
M  V30 2821 C 313.842 -0.134908 -1.60233 0
M  V30 2822 O 315.032 -0.385249 -1.69887 0
M  V30 2823 C 312.164 -0.863192 -3.29791 0
M  V30 2824 H 313.357 -2.18038 -2.05911 0
M  V30 2825 H 310.91 -1.16179 -1.04557 0
M  V30 2826 H 311.645 0.103769 -3.24134 0
M  V30 2827 H 311.43 -1.64166 -3.56078 0
M  V30 2828 H 312.92 -0.809156 -4.09686 0
M  V30 2829 N 313.357 1.07166 -1.15556 0
M  V30 2830 C 314.768 1.6127 -0.940693 0
M  V30 2831 C 315.119 1.89251 0.517551 0
M  V30 2832 O 314.244 1.65937 1.38903 0
M  V30 2833 C 314.839 2.92993 -1.7012 0
M  V30 2834 C 313.398 3.43832 -1.53156 0
M  V30 2835 C 312.545 2.1786 -1.71558 0
M  V30 2836 H 315.496 0.90229 -1.30554 0
M  V30 2837 H 315.517 3.62007 -1.17181 0
M  V30 2838 H 315.029 2.72596 -2.76248 0
M  V30 2839 H 313.13 3.69307 -0.494294 0
M  V30 2840 H 313.243 4.19747 -2.30975 0
M  V30 2841 H 311.607 2.2765 -1.14225 0
M  V30 2842 H 312.39 1.99956 -2.79056 0
M  V30 2843 N 314.835 0.952656 1.25548 0
M  V30 2844 C 316.246 0.647392 1.75116 0
M  V30 2845 C 316.597 -0.837274 1.77438 0
M  V30 2846 O 315.722 -1.65525 1.39393 0
M  V30 2847 C 316.317 1.16845 3.18014 0
M  V30 2848 C 314.876 0.913382 3.6515 0
M  V30 2849 C 314.023 1.31265 2.44264 0
M  V30 2850 H 316.974 1.12968 1.11462 0
M  V30 2851 H 316.995 0.527606 3.76824 0
M  V30 2852 H 316.507 2.24902 3.16292 0
M  V30 2853 H 314.608 -0.152316 3.72289 0
M  V30 2854 H 314.721 1.54845 4.53387 0
M  V30 2855 H 313.085 0.731028 2.43984 0
M  V30 2856 H 313.868 2.40239 2.45234 0
M  V30 2857 N 316.313 -1.40141 0.720998 0
M  V30 2858 C 317.276 -2.29058 0.0805834 0
M  V30 2859 C 318.276 -1.45632 -0.681758 0
M  V30 2860 O 319.466 -1.6648 -0.512856 0
M  V30 2861 C 316.598 -3.28925 -0.895593 0
M  V30 2862 H 317.791 -2.87191 0.863793 0
M  V30 2863 H 315.344 -1.48553 0.485975 0
M  V30 2864 H 316.079 -2.75822 -1.70566 0
M  V30 2865 H 315.864 -3.90519 -0.351766 0
M  V30 2866 H 317.354 -3.95494 -1.34069 0
M  V30 2867 N 317.792 -0.46758 -1.50504 0
M  V30 2868 C 318.742 0.34698 -2.25344 0
M  V30 2869 C 319.726 0.964469 -1.2879 0
M  V30 2870 O 320.918 0.8776 -1.53711 0
M  V30 2871 C 318.047 1.43042 -3.1208 0
M  V30 2872 C 317.133 0.82084 -4.16081 0
M  V30 2873 N 317.524 -0.0567602 -5.05768 0
M  V30 2874 C 315.822 1.08517 -4.32597 0
M  V30 2875 C 316.523 -0.402343 -5.80307 0
M  V30 2876 N 315.499 0.221607 -5.43148 0
M  V30 2877 H 319.301 -0.329129 -2.92051 0
M  V30 2878 H 316.815 -0.281508 -1.59942 0
M  V30 2879 H 318.812 2.02712 -3.64299 0
M  V30 2880 H 317.472 2.10856 -2.46921 0
M  V30 2881 H 318.483 -0.425349 -5.1615 0
M  V30 2882 H 315.16 1.75855 -3.78657 0
M  V30 2883 H 316.55 -1.11834 -6.62528 0
M  V30 2884 N 319.27 1.56325 -0.20005 0
M  V30 2885 C 320.518 1.97329 0.436547 0
M  V30 2886 C 320.839 1.08826 1.61808 0
M  V30 2887 O 320.109 0.160604 1.95241 0
M  V30 2888 H 318.689 0.728714 0.164272 0
M  V30 2889 H 321.351 1.92761 -0.287937 0
M  V30 2890 H 320.447 3.02264 0.777353 0
M  V30 2891 N 320.748 -0.0735177 1.57428 0
M  V30 2892 C 321.994 -0.774145 1.87443 0
M  V30 2893 C 322.327 -1.77311 0.792103 0
M  V30 2894 O 321.602 -1.93492 -0.197793 0
M  V30 2895 C 321.885 -1.48367 3.28115 0
M  V30 2896 C 321.738 -0.501227 4.46999 0
M  V30 2897 C 323.057 -2.429 3.66998 0
M  V30 2898 H 320.176 -0.279971 0.681752 0
M  V30 2899 H 322.818 -0.0373616 1.89963 0
M  V30 2900 H 320.968 -2.11171 3.26097 0
M  V30 2901 H 322.64 0.121468 4.6114 0
M  V30 2902 H 320.883 0.183593 4.33411 0
M  V30 2903 H 321.554 -1.03526 5.42205 0
M  V30 2904 H 324.03 -1.90175 3.70098 0
M  V30 2905 H 322.906 -2.89549 4.66318 0
M  V30 2906 H 323.167 -3.27628 2.96837 0
M  V30 2907 N 322.226 -1.5378 -0.344866 0
M  V30 2908 C 323.454 -1.74899 -1.10534 0
M  V30 2909 C 323.869 -0.487534 -1.82397 0
M  V30 2910 O 323.226 0.540741 -1.74305 0
M  V30 2911 C 323.277 -2.92822 -2.11984 0
M  V30 2912 O 322.998 -4.14089 -1.43044 0
M  V30 2913 C 324.499 -3.25982 -3.00417 0
M  V30 2914 H 321.719 -0.584426 -0.329678 0
M  V30 2915 H 324.263 -2.006 -0.397474 0
M  V30 2916 H 322.418 -2.69457 -2.78338 0
M  V30 2917 H 322.832 -4.80272 -2.10805 0
M  V30 2918 H 324.306 -4.11848 -3.67539 0
M  V30 2919 H 324.783 -2.42228 -3.66363 0
M  V30 2920 H 325.389 -3.51349 -2.39654 0
M  V30 2921 N 323.704 0.605807 -1.45491 0
M  V30 2922 C 324.929 1.39625 -1.53361 0
M  V30 2923 C 325.354 1.87351 -0.167645 0
M  V30 2924 O 324.712 1.60243 0.848051 0
M  V30 2925 C 324.76 2.57559 -2.5238 0
M  V30 2926 O 323.864 3.58248 -2.04285 0
M  V30 2927 H 323.205 0.416771 -0.516912 0
M  V30 2928 H 325.735 0.737103 -1.90861 0
M  V30 2929 H 325.745 3.0478 -2.71244 0
M  V30 2930 H 324.42 2.22171 -3.51586 0
M  V30 2931 H 322.997 3.17664 -1.95305 0
M  V30 2932 N 325.182 1.32811 0.848464 0
M  V30 2933 C 326.145 1.22194 1.9391 0
M  V30 2934 C 327.145 0.143404 1.60159 0
M  V30 2935 O 328.335 0.394253 1.6968 0
M  V30 2936 C 325.467 0.88067 3.29328 0
M  V30 2937 H 326.66 2.19127 2.04752 0
M  V30 2938 H 324.213 1.16731 1.0394 0
M  V30 2939 H 324.948 -0.0865776 3.24184 0
M  V30 2940 H 324.733 1.66052 3.55203 0
M  V30 2941 H 326.223 0.830871 4.09251 0
M  V30 2942 N 326.66 -1.06551 1.16123 0
M  V30 2943 C 328.071 -1.60768 0.949232 0
M  V30 2944 C 328.422 -1.89523 -0.507508 0
M  V30 2945 O 327.547 -1.66671 -1.38021 0
M  V30 2946 C 328.142 -2.92086 1.71671 0
M  V30 2947 C 326.701 -3.43015 1.54977 0
M  V30 2948 C 325.848 -2.16947 1.72711 0
M  V30 2949 H 328.799 -0.895354 1.31031 0
M  V30 2950 H 328.82 -3.6138 1.19099 0
M  V30 2951 H 328.332 -2.71127 2.7769 0
M  V30 2952 H 326.433 -3.69039 0.513873 0
M  V30 2953 H 326.546 -4.18516 2.33198 0
M  V30 2954 H 324.91 -2.27041 1.15431 0
M  V30 2955 H 325.693 -1.98473 2.80113 0
M  V30 2956 N 328.138 -0.959301 -1.25041 0
M  V30 2957 C 329.415 -0.533805 -1.88175 0
M  V30 2958 C 329.795 0.988994 -1.865 0
M  V30 2959 O 329.143 1.85677 -1.33177 0
M  V30 2960 C 329.353 -1.11575 -3.30684 0
M  V30 2961 C 330.701 -1.19548 -4.07423 0
M  V30 2962 O 331.725 -1.06765 -3.39823 0
M  V30 2963 O 330.584 -1.39656 -5.28354 0
M  V30 2964 H 327.678 -0.176772 -0.807887 0
M  V30 2965 H 330.224 -1.05303 -1.33076 0
M  V30 2966 H 328.996 -2.15884 -3.26358 0
M  V30 2967 H 328.619 -0.580059 -3.93346 0
M  V30 2968 N 329.616 1.39756 -0.72842 0
M  V30 2969 C 330.844 2.04948 -0.283528 0
M  V30 2970 C 331.259 1.54908 1.0793 0
M  V30 2971 O 330.616 0.711135 1.68075 0
M  V30 2972 C 330.667 3.60498 -0.268957 0
M  V30 2973 O 330.388 4.08695 -1.57798 0
M  V30 2974 C 331.889 4.4288 0.192912 0
M  V30 2975 H 329.109 0.659243 -0.125056 0
M  V30 2976 H 331.653 1.78927 -0.990226 0
M  V30 2977 H 329.808 3.85444 0.388801 0
M  V30 2978 H 330.222 5.02977 -1.48709 0
M  V30 2979 H 331.696 5.51791 0.151952 0
M  V30 2980 H 332.173 4.21418 1.23708 0
M  V30 2981 H 332.779 4.23069 -0.435039 0
M  V30 2982 N 331.094 0.475555 1.50254 0
M  V30 2983 C 332.51 0.12997 1.5907 0
M  V30 2984 C 332.71 -1.36385 1.48328 0
M  V30 2985 O 331.766 -2.13754 1.34407 0
M  V30 2986 C 333.079 0.684139 2.92814 0
M  V30 2987 C 334.627 0.647965 3.0622 0
M  V30 2988 C 335.102 1.17975 4.42545 0
M  V30 2989 N 336.593 1.13936 4.48969 0
M  V30 2990 C 337.328 1.52129 5.52851 0
M  V30 2991 N 336.824 1.97793 6.63965 0
M  V30 2992 N 338.617 1.43704 5.4342 0
M  V30 2993 H 330.768 1.44706 1.55479 0
M  V30 2994 H 333.031 0.598691 0.735033 0
M  V30 2995 H 332.737 1.73079 3.06164 0
M  V30 2996 H 332.611 0.130204 3.76975 0
M  V30 2997 H 334.998 -0.38979 2.92514 0
M  V30 2998 H 335.079 1.23876 2.23805 0
M  V30 2999 H 334.723 2.21616 4.57 0
M  V30 3000 H 334.653 0.565138 5.23559 0
M  V30 3001 H 337.144 0.804488 3.69238 0
M  V30 3002 H 337.457 2.25072 7.39299 0
M  V30 3003 H 335.802 2.01749 6.65073 0
M  V30 3004 H 338.993 1.07867 4.55502 0
M  V30 3005 H 339.166 1.73794 6.24259 0
M  V30 3006 N 332.573 -1.56217 0.208337 0
M  V30 3007 C 333.984 -1.84243 -0.301904 0
M  V30 3008 C 334.335 -1.12939 -1.60434 0
M  V30 3009 O 333.46 -0.39461 -2.12772 0
M  V30 3010 C 334.055 -3.34231 -0.554543 0
M  V30 3011 C 332.614 -3.62621 -1.00912 0
M  V30 3012 C 331.761 -2.77224 -0.064933 0
M  V30 3013 H 334.712 -1.52712 0.431833 0
M  V30 3014 H 334.733 -3.5372 -1.40223 0
M  V30 3015 H 334.245 -3.86099 0.393561 0
M  V30 3016 H 332.346 -3.16197 -1.97104 0
M  V30 3017 H 332.459 -4.7071 -0.892674 0
M  V30 3018 H 330.823 -2.48256 -0.56929 0
M  V30 3019 H 331.606 -3.31887 0.877851 0
M  V30 3020 N 334.051 0.0651679 -1.57465 0
M  V30 3021 C 335.014 1.06117 -2.03155 0
M  V30 3022 C 336.014 1.31204 -0.929632 0
M  V30 3023 O 337.204 1.26813 -1.19432 0
M  V30 3024 C 334.336 2.4032 -2.41783 0
M  V30 3025 H 335.529 0.667231 -2.92383 0
M  V30 3026 H 333.082 0.311075 -1.53173 0
M  V30 3027 H 333.817 2.84532 -1.55601 0
M  V30 3028 H 333.602 2.23451 -3.22199 0
M  V30 3029 H 335.092 3.11898 -2.77685 0
M  V30 3030 N 335.529 1.53961 0.336706 0
M  V30 3031 C 336.94 1.62914 0.911925 0
M  V30 3032 C 337.291 0.514795 1.89326 0
M  V30 3033 O 336.416 -0.354395 2.13478 0
M  V30 3034 C 337.011 2.95304 1.66076 0
M  V30 3035 C 335.57 3.06496 2.18489 0
M  V30 3036 C 334.717 2.58403 1.00613 0
M  V30 3037 H 337.668 1.58285 0.114649 0
M  V30 3038 H 337.689 2.84727 2.5241 0
M  V30 3039 H 337.201 3.76387 0.946276 0
M  V30 3040 H 335.302 2.3006 2.93092 0
M  V30 3041 H 335.415 4.1208 2.44391 0
M  V30 3042 H 333.779 2.13977 1.38152 0
M  V30 3043 H 334.562 3.41932 0.306179 0
M  V30 3044 N 337.007 -0.598083 1.45811 0
M  V30 3045 C 338.255 -1.35413 1.50026 0
M  V30 3046 C 338.576 -1.94444 0.147177 0
M  V30 3047 O 337.846 -1.77701 -0.824571 0
M  V30 3048 H 336.426 -0.502727 0.552517 0
M  V30 3049 H 339.088 -0.701606 1.81834 0
M  V30 3050 H 338.184 -2.16871 2.2444 0
M  V30 3051 N 338.485 -1.33259 -0.841409 0
M  V30 3052 C 339.71 -1.2775 -1.63385 0
M  V30 3053 C 340.135 0.149188 -1.87507 0
M  V30 3054 O 339.493 1.10498 -1.43736 0
M  V30 3055 C 339.541 -2.05571 -2.96265 0
M  V30 3056 O 338.645 -1.41257 -3.87453 0
M  V30 3057 H 337.986 -0.439627 -0.497618 0
M  V30 3058 H 340.516 -1.75782 -1.04699 0
M  V30 3059 H 340.526 -2.16241 -3.45982 0
M  V30 3060 H 339.201 -3.09309 -2.7803 0
M  V30 3061 H 337.778 -1.39217 -3.45938 0
M  V30 3062 N 339.963 1.05934 -1.16686 0
M  V30 3063 C 341.191 1.8249 -0.974929 0
M  V30 3064 C 341.606 1.82679 0.476861 0
M  V30 3065 O 340.963 1.2486 1.33103 0
M  V30 3066 C 341.014 3.28943 -1.49929 0
M  V30 3067 O 340.735 3.28886 -2.89423 0
M  V30 3068 C 342.236 4.22215 -1.35089 0
M  V30 3069 H 339.456 0.575295 -0.345365 0
M  V30 3070 H 342 1.33631 -1.548 0
M  V30 3071 H 340.155 3.751 -0.968423 0
M  V30 3072 H 340.569 4.20493 -3.13506 0
M  V30 3073 H 342.043 5.22987 -1.76603 0
M  V30 3074 H 342.52 4.38195 -0.296935 0
M  V30 3075 H 343.126 3.81907 -1.87155 0
M  V30 3076 N 341.441 0.965919 1.2453 0
M  V30 3077 C 342.404 0.499547 2.2369 0
M  V30 3078 C 343.404 -0.40294 1.5567 0
M  V30 3079 O 344.594 -0.19865 1.73064 0
M  V30 3080 C 341.726 -0.276792 3.39774 0
M  V30 3081 H 342.919 1.37613 2.66463 0
M  V30 3082 H 340.472 0.750324 1.37112 0
M  V30 3083 H 341.207 -1.17055 3.02438 0
M  V30 3084 H 340.992 0.370826 3.90343 0
M  V30 3085 H 342.482 -0.592175 4.1338 0
M  V30 3086 N 342.919 -1.39368 0.735821 0
M  V30 3087 C 344.33 -1.83313 0.354015 0
M  V30 3088 C 344.681 -1.61461 -1.11466 0
M  V30 3089 O 343.806 -1.10621 -1.85989 0
M  V30 3090 C 344.401 -3.32781 0.635769 0
M  V30 3091 C 342.96 -3.75142 0.307448 0
M  V30 3092 C 342.107 -2.62358 0.897974 0
M  V30 3093 H 345.058 -1.28349 0.933398 0
M  V30 3094 H 345.079 -3.80388 -0.0921773 0
M  V30 3095 H 344.591 -3.48654 1.70476 0
M  V30 3096 H 342.692 -3.64857 -0.755674 0
M  V30 3097 H 342.805 -4.72532 0.790583 0
M  V30 3098 H 341.169 -2.52624 0.324551 0
M  V30 3099 H 341.952 -2.81036 1.97164 0
M  V30 3100 N 344.397 -0.483516 -1.5 0
M  V30 3101 C 345.808 -0.0314176 -1.86674 0
M  V30 3102 C 346.159 1.37728 -1.39733 0
M  V30 3103 O 345.284 2.02327 -0.767635 0
M  V30 3104 C 345.879 -0.0502376 -3.38763 0
M  V30 3105 C 344.438 0.346442 -3.74802 0
M  V30 3106 C 343.585 -0.430366 -2.7394 0
M  V30 3107 H 346.536 -0.697182 -1.42566 0
M  V30 3108 H 346.557 0.749116 -3.73053 0
M  V30 3109 H 346.069 -1.07563 -3.72897 0
M  V30 3110 H 344.17 1.37572 -3.46273 0
M  V30 3111 H 344.283 0.0391486 -4.79084 0
M  V30 3112 H 342.647 0.117557 -2.54429 0
M  V30 3113 H 343.43 -1.4555 -3.10918 0
M  V30 3114 N 345.875 1.56104 -0.216619 0
M  V30 3115 C 346.838 2.18819 0.681962 0
M  V30 3116 C 347.838 1.14866 1.12528 0
M  V30 3117 O 349.028 1.40128 1.03488 0
M  V30 3118 C 346.16 2.80756 1.93362 0
M  V30 3119 H 347.353 2.99595 0.135254 0
M  V30 3120 H 344.906 1.56265 0.0330003 0
M  V30 3121 H 345.641 2.03837 2.52232 0
M  V30 3122 H 345.426 3.56876 1.62426 0
M  V30 3123 H 346.916 3.28844 2.57393 0
M  V30 3124 N 347.353 -0.0568162 1.57498 0
M  V30 3125 C 348.303 -1.07315 2.01166 0
M  V30 3126 C 349.287 -1.33632 0.896171 0
M  V30 3127 O 350.479 -1.33682 1.16009 0
M  V30 3128 C 347.608 -2.38257 2.47161 0
M  V30 3129 C 346.694 -2.1515 3.65474 0
M  V30 3130 N 347.085 -1.62014 4.7915 0
M  V30 3131 C 345.383 -2.45559 3.72313 0
M  V30 3132 C 346.084 -1.54069 5.60926 0
M  V30 3133 N 345.06 -2.00652 5.05213 0
M  V30 3134 H 348.862 -0.655878 2.86488 0
M  V30 3135 H 346.376 -0.263635 1.60246 0
M  V30 3136 H 348.373 -3.11845 2.76691 0
M  V30 3137 H 347.033 -2.80687 1.63232 0
M  V30 3138 H 348.044 -1.30667 5.01145 0
M  V30 3139 H 344.721 -2.91253 2.99129 0
M  V30 3140 H 346.111 -1.13712 6.62208 0
M  V30 3141 N 348.832 -1.54138 -0.328536 0
M  V30 3142 C 350.08 -1.71765 -1.06496 0
M  V30 3143 C 350.401 -0.49149 -1.88704 0
M  V30 3144 O 349.671 0.494539 -1.89555 0
M  V30 3145 H 348.251 -0.633295 -0.396164 0
M  V30 3146 H 350.913 -1.91429 -0.366176 0
M  V30 3147 H 350.009 -2.5951 -1.73381 0
M  V30 3148 N 350.31 0.590341 -1.46126 0
M  V30 3149 C 351.556 1.35082 -1.51264 0
M  V30 3150 C 351.889 1.93534 -0.160711 0
M  V30 3151 O 351.164 1.76045 0.826956 0
M  V30 3152 C 351.447 2.48588 -2.6053 0
M  V30 3153 C 351.3 1.95221 -4.05227 0
M  V30 3154 C 352.619 3.50662 -2.6594 0
M  V30 3155 H 349.738 0.489803 -0.550692 0
M  V30 3156 H 352.38 0.663887 -1.78024 0
M  V30 3157 H 350.53 3.07186 -2.37843 0
M  V30 3158 H 352.202 1.41139 -4.39178 0
M  V30 3159 H 350.445 1.26101 -4.15068 0
M  V30 3160 H 351.116 2.77121 -4.77397 0
M  V30 3161 H 353.592 3.01934 -2.86313 0
M  V30 3162 H 352.468 4.27551 -3.44226 0
M  V30 3163 H 352.729 4.07399 -1.71694 0
M  V30 3164 N 351.788 1.33704 0.83433 0
M  V30 3165 C 353.016 1.28467 1.62185 0
M  V30 3166 C 353.431 -0.143526 1.88254 0
M  V30 3167 O 352.788 -1.08709 1.4659 0
M  V30 3168 C 352.839 2.06174 2.96942 0
M  V30 3169 O 352.56 3.43422 2.72016 0
M  V30 3170 C 354.061 2.08201 3.91366 0
M  V30 3171 H 351.281 0.4424 0.504503 0
M  V30 3172 H 353.825 1.76145 1.03891 0
M  V30 3173 H 351.98 1.62167 3.51825 0
M  V30 3174 H 352.394 3.83453 3.57861 0
M  V30 3175 H 353.868 2.67017 4.83121 0
M  V30 3176 H 354.345 1.07343 4.2588 0
M  V30 3177 H 354.951 2.52246 3.42421 0
M  V30 3178 N 353.266 -1.05314 1.17247 0
M  V30 3179 C 354.491 -1.82509 0.985148 0
M  V30 3180 C 354.916 -1.82343 -0.461788 0
M  V30 3181 O 354.274 -1.23151 -1.33055 0
M  V30 3182 C 354.322 -3.26566 1.52929 0
M  V30 3183 O 353.426 -4.05666 0.742225 0
M  V30 3184 H 352.767 -0.564347 0.349869 0
M  V30 3185 H 355.297 -1.32718 1.55715 0
M  V30 3186 H 355.307 -3.77369 1.55103 0
M  V30 3187 H 353.982 -3.26001 2.58256 0
M  V30 3188 H 352.559 -3.64397 0.791794 0
M  V30 3189 N 354.744 -0.972509 -1.24016 0
M  V30 3190 C 355.707 -0.511403 -2.23422 0
M  V30 3191 C 356.707 0.394679 -1.55881 0
M  V30 3192 O 357.897 0.189469 -1.73167 0
M  V30 3193 C 355.029 0.258769 -3.39916 0
M  V30 3194 H 356.222 -1.39024 -2.6573 0
M  V30 3195 H 353.775 -0.757585 -1.36713 0
M  V30 3196 H 354.51 1.1545 -3.03054 0
M  V30 3197 H 354.295 -0.391522 -3.9014 0
M  V30 3198 H 355.785 0.570244 -4.13688 0
M  V30 3199 N 356.222 1.38976 -0.743202 0
M  V30 3200 C 357.633 1.83123 -0.363732 0
M  V30 3201 C 357.984 1.6205 1.10609 0
M  V30 3202 O 357.109 1.11606 1.854 0
M  V30 3203 C 357.704 3.32439 -0.653408 0
M  V30 3204 C 356.263 3.74974 -0.327338 0
M  V30 3205 C 355.41 2.61878 -0.911875 0
M  V30 3206 H 358.361 1.27852 -0.940191 0
M  V30 3207 H 358.382 3.80432 0.0720031 0
M  V30 3208 H 357.894 3.47745 -1.72323 0
M  V30 3209 H 355.995 3.65252 0.736314 0
M  V30 3210 H 356.108 4.72106 -0.815631 0
M  V30 3211 H 354.472 2.52448 -0.337944 0
M  V30 3212 H 355.255 2.79987 -1.98651 0
M  V30 3213 N 357.7 0.491464 1.49741 0
M  V30 3214 C 358.977 -0.118984 1.95238 0
M  V30 3215 C 359.357 -1.55044 1.43264 0
M  V30 3216 O 358.705 -2.19287 0.642287 0
M  V30 3217 C 358.915 -0.0414187 3.48975 0
M  V30 3218 C 360.263 -0.220133 4.24029 0
M  V30 3219 O 361.287 -0.117055 3.56008 0
M  V30 3220 O 360.146 -0.430567 5.44801 0
M  V30 3221 H 357.24 -0.100536 0.820866 0
M  V30 3222 H 359.786 0.553322 1.60426 0
M  V30 3223 H 358.558 0.957214 3.79412 0
M  V30 3224 H 358.181 -0.754292 3.9038 0
M  V30 3225 N 359.178 -1.55987 0.224894 0
M  V30 3226 C 360.406 -2.02784 -0.410665 0
M  V30 3227 C 360.821 -1.10464 -1.53112 0
M  V30 3228 O 360.178 -0.114871 -1.82138 0
M  V30 3229 C 360.229 -3.49087 -0.939165 0
M  V30 3230 O 359.95 -4.37887 0.136614 0
M  V30 3231 C 361.451 -4.11543 -1.64763 0
M  V30 3232 H 358.671 -0.663484 -0.100148 0
M  V30 3233 H 361.215 -2.01614 0.342326 0
M  V30 3234 H 359.37 -3.50861 -1.64242 0
M  V30 3235 H 359.784 -5.23849 -0.261155 0
M  V30 3236 H 361.258 -5.15673 -1.96939 0
M  V30 3237 H 361.735 -3.56736 -2.56195 0
M  V30 3238 H 362.341 -4.13629 -0.989503 0
M  V30 3239 N 360.656 0.0484629 -1.57525 0
M  V30 3240 C 362.072 0.40375 -1.54409 0
M  V30 3241 C 362.272 1.77786 -0.948384 0
M  V30 3242 O 361.328 2.46189 -0.560983 0
M  V30 3243 C 362.641 0.323394 -2.98956 0
M  V30 3244 C 364.189 0.401892 -3.10409 0
M  V30 3245 C 364.664 0.351195 -4.56652 0
M  V30 3246 N 366.155 0.410576 -4.61377 0
M  V30 3247 C 366.89 0.393933 -5.72045 0
M  V30 3248 N 366.386 0.330724 -6.9201 0
M  V30 3249 N 368.179 0.442227 -5.60358 0
M  V30 3250 H 360.33 -0.851016 -1.94606 0
M  V30 3251 H 362.593 -0.321721 -0.89174 0
M  V30 3252 H 362.299 -0.62011 -3.4619 0
M  V30 3253 H 362.173 1.12463 -3.60044 0
M  V30 3254 H 364.56 1.33582 -2.63134 0
M  V30 3255 H 364.641 -0.428342 -2.52188 0
M  V30 3256 H 364.285 -0.578987 -5.04589 0
M  V30 3257 H 364.215 1.19928 -5.12762 0
M  V30 3258 H 366.706 0.462729 -3.75056 0
M  V30 3259 H 367.019 0.322592 -7.72126 0
M  V30 3260 H 365.364 0.29706 -6.94365 0
M  V30 3261 H 368.555 0.489464 -4.65534 0
M  V30 3262 H 368.728 0.425788 -6.466 0
M  V30 3263 N 362.134 1.5431 0.320358 0
M  V30 3264 C 363.545 1.63872 0.894594 0
M  V30 3265 C 363.896 0.534847 1.88769 0
M  V30 3266 O 363.021 -0.331732 2.13842 0
M  V30 3267 C 363.616 2.97049 1.62934 0
M  V30 3268 C 362.175 3.08796 2.15226 0
M  V30 3269 C 361.322 2.59456 0.978671 0
M  V30 3270 H 364.273 1.58398 0.0978544 0
M  V30 3271 H 364.294 2.87388 2.49376 0
M  V30 3272 H 363.806 3.7737 0.906302 0
M  V30 3273 H 361.907 2.33156 2.90636 0
M  V30 3274 H 362.02 4.14649 2.40006 0
M  V30 3275 H 360.384 2.1543 1.35875 0
M  V30 3276 H 361.167 3.42237 0.269895 0
M  V30 3277 N 363.613 -0.582584 1.46437 0
M  V30 3278 C 364.576 -1.67366 1.56592 0
M  V30 3279 C 365.576 -1.54575 0.443072 0
M  V30 3280 O 366.766 -1.59191 0.707381 0
M  V30 3281 C 363.898 -3.06791 1.48634 0
M  V30 3282 H 365.091 -1.5972 2.5383 0
M  V30 3283 H 362.644 -0.800432 1.34249 0
M  V30 3284 H 363.379 -3.19993 0.526763 0
M  V30 3285 H 363.164 -3.17484 2.30101 0
M  V30 3286 H 364.654 -3.86218 1.58826 0
M  V30 3287 N 365.091 -1.34144 -0.827227 0
M  V30 3288 C 366.502 -1.23557 -1.39966 0
M  V30 3289 C 366.853 0.140731 -1.95695 0
M  V30 3290 O 365.978 1.04087 -1.89723 0
M  V30 3291 C 366.573 -2.23708 -2.54441 0
M  V30 3292 C 365.132 -2.16924 -3.07605 0
M  V30 3293 C 364.279 -2.10549 -1.80456 0
M  V30 3294 H 367.23 -1.45573 -0.631991 0
M  V30 3295 H 367.251 -1.85157 -3.32411 0
M  V30 3296 H 366.763 -3.23866 -2.13851 0
M  V30 3297 H 364.864 -1.20107 -3.52711 0
M  V30 3298 H 364.977 -3.07988 -3.66988 0
M  V30 3299 H 363.341 -1.56203 -2.01178 0
M  V30 3300 H 364.124 -3.12535 -1.42046 0
M  V30 3301 N 366.569 1.04691 -1.17803 0
M  V30 3302 C 367.817 1.7743 -0.967617 0
M  V30 3303 C 368.138 1.88359 0.504574 0
M  V30 3304 O 367.408 1.40402 1.36617 0
M  V30 3305 H 365.988 0.657242 -0.355024 0
M  V30 3306 H 368.65 1.2638 -1.48371 0
M  V30 3307 H 367.746 2.78924 -1.40027 0
M  V30 3308 N 368.047 0.979072 1.23499 0
M  V30 3309 C 369.272 0.664845 1.96455 0
M  V30 3310 C 369.697 -0.761287 1.72006 0
M  V30 3311 O 369.055 -1.51837 0.990713 0
M  V30 3312 C 369.103 0.959479 3.47601 0
M  V30 3313 O 368.207 0.0508168 4.12369 0
M  V30 3314 H 367.548 0.250185 0.615064 0
M  V30 3315 H 370.078 1.31231 1.5697 0
M  V30 3316 H 370.088 0.895642 3.98048 0
M  V30 3317 H 368.763 1.99876 3.64723 0
M  V30 3318 H 367.34 0.16895 3.72517 0
M  V30 3319 N 369.525 -1.3858 0.750561 0
M  V30 3320 C 370.753 -2.04471 0.316098 0
M  V30 3321 C 371.168 -1.56606 -1.05452 0
M  V30 3322 O 370.525 -0.737784 -1.66922 0
M  V30 3323 C 370.576 -3.60025 0.326275 0
M  V30 3324 O 370.297 -4.06133 1.6428 0
M  V30 3325 C 371.798 -4.43131 -0.122429 0
M  V30 3326 H 369.018 -0.65717 0.135528 0
M  V30 3327 H 371.562 -1.77329 1.01857 0
M  V30 3328 H 369.717 -3.86014 -0.327431 0
M  V30 3329 H 370.131 -5.00547 1.56693 0
M  V30 3330 H 371.605 -5.51963 -0.0641473 0
M  V30 3331 H 372.082 -4.23333 -1.16988 0
M  V30 3332 H 372.688 -4.22323 0.50229 0
M  V30 3333 N 371.003 -0.499398 -1.49478 0
M  V30 3334 C 371.966 0.268838 -2.27618 0
M  V30 3335 C 372.966 0.895383 -1.33565 0
M  V30 3336 O 374.156 0.760164 -1.56739 0
M  V30 3337 C 371.288 1.38559 -3.11471 0
M  V30 3338 H 372.481 -0.416812 -2.96989 0
M  V30 3339 H 370.034 -0.254313 -1.54217 0
M  V30 3340 H 370.769 2.10544 -2.46661 0
M  V30 3341 H 370.554 0.941797 -3.80621 0
M  V30 3342 H 372.044 1.92678 -3.70493 0
M  V30 3343 N 372.481 1.55866 -0.233164 0
M  V30 3344 C 373.892 1.847 0.272554 0
M  V30 3345 C 374.243 1.15477 1.58617 0
M  V30 3346 O 373.368 0.42841 2.12117 0
M  V30 3347 C 373.963 3.35071 0.501299 0
M  V30 3348 C 372.522 3.6418 0.951304 0
M  V30 3349 C 371.669 2.77292 0.0208209 0
M  V30 3350 H 374.62 1.52005 -0.456074 0
M  V30 3351 H 374.641 3.55906 1.34577 0
M  V30 3352 H 374.153 3.85424 -0.454936 0
M  V30 3353 H 372.254 3.19293 1.92049 0
M  V30 3354 H 372.367 4.72071 0.817675 0
M  V30 3355 H 370.731 2.49131 0.529723 0
M  V30 3356 H 371.514 3.30448 -0.93054 0
M  V30 3357 N 373.959 -0.0401083 1.57549 0
M  V30 3358 C 375.37 -0.588097 1.77196 0
M  V30 3359 C 375.721 -1.76209 0.862832 0
M  V30 3360 O 374.846 -2.16331 0.0548389 0
M  V30 3361 C 375.441 -1.07363 3.21339 0
M  V30 3362 C 374 -1.56723 3.42221 0
M  V30 3363 C 373.147 -0.50041 2.72747 0
M  V30 3364 H 376.098 0.186119 1.57605 0
M  V30 3365 H 376.119 -1.94143 3.27244 0
M  V30 3366 H 375.631 -0.218975 3.87482 0
M  V30 3367 H 373.732 -2.4441 2.81237 0
M  V30 3368 H 373.845 -1.62234 4.50796 0
M  V30 3369 H 372.209 -0.952894 2.36203 0
M  V30 3370 H 372.992 0.344599 3.41566 0
M  V30 3371 N 375.437 -1.54477 -0.31217 0
M  V30 3372 C 376.4 -1.83923 -1.36766 0
M  V30 3373 C 377.4 -0.711563 -1.44199 0
M  V30 3374 O 378.59 -0.979866 -1.44029 0
M  V30 3375 C 375.722 -2.0095 -2.75376 0
M  V30 3376 H 376.915 -2.78239 -1.11906 0
M  V30 3377 H 374.468 -1.46369 -0.548257 0
M  V30 3378 H 375.203 -1.08883 -3.05475 0
M  V30 3379 H 374.988 -2.83018 -2.71373 0
M  V30 3380 H 376.478 -2.2514 -3.51713 0
M  V30 3381 N 376.915 0.57481 -1.46744 0
M  V30 3382 C 377.865 1.67838 -1.54319 0
M  V30 3383 C 378.849 1.55759 -0.40346 0
M  V30 3384 O 380.041 1.6454 -0.652347 0
M  V30 3385 C 377.17 3.06624 -1.5439 0
M  V30 3386 C 376.256 3.23971 -2.73685 0
M  V30 3387 N 376.647 3.11447 -3.9854 0
M  V30 3388 C 374.945 3.5493 -2.70075 0
M  V30 3389 C 375.646 3.31011 -4.78337 0
M  V30 3390 N 374.622 3.56533 -4.10348 0
M  V30 3391 H 378.424 1.56698 -2.48642 0
M  V30 3392 H 375.938 0.779071 -1.42493 0
M  V30 3393 H 377.935 3.85839 -1.57905 0
M  V30 3394 H 376.595 3.1889 -0.611493 0
M  V30 3395 H 377.606 2.89145 -4.29669 0
M  V30 3396 H 374.283 3.73832 -1.85893 0
M  V30 3397 H 375.673 3.26445 -5.87268 0
M  V30 3398 N 378.394 1.34581 0.820102 0
M  V30 3399 C 379.642 1.26845 1.57336 0
M  V30 3400 C 379.963 -0.160667 1.94337 0
M  V30 3401 O 379.233 -1.09396 1.6251 0
M  V30 3402 H 377.813 0.466514 0.583415 0
M  V30 3403 H 380.475 1.68526 0.979027 0
M  V30 3404 H 379.571 1.87513 2.4949 0
M  V30 3405 N 379.872 -1.04064 1.18357 0
M  V30 3406 C 381.118 -1.77528 0.980397 0
M  V30 3407 C 381.451 -1.87948 -0.48879 0
M  V30 3408 O 380.726 -1.3876 -1.36293 0
M  V30 3409 C 381.009 -3.20797 1.63588 0
M  V30 3410 C 380.862 -3.1832 3.17793 0
M  V30 3411 C 382.181 -4.18911 1.34914 0
M  V30 3412 H 379.3 -0.644443 0.357578 0
M  V30 3413 H 381.942 -1.2156 1.46024 0
M  V30 3414 H 380.092 -3.68586 1.22788 0
M  V30 3415 H 381.764 -2.78521 3.67728 0
M  V30 3416 H 380.007 -2.56351 3.49952 0
M  V30 3417 H 380.678 -4.19489 3.58794 0
M  V30 3418 H 383.154 -3.7967 1.70265 0
M  V30 3419 H 382.03 -5.17374 1.83346 0
M  V30 3420 H 382.291 -4.41262 0.272027 0
M  V30 3421 N 381.35 -0.985608 -1.22978 0
M  V30 3422 C 382.578 -0.675582 -1.95559 0
M  V30 3423 C 382.993 0.758413 -1.72897 0
M  V30 3424 O 382.35 1.51094 -1.02357 0
M  V30 3425 C 382.401 -0.96293 -3.48439 0
M  V30 3426 O 382.122 -2.34057 -3.70336 0
M  V30 3427 C 383.623 -0.669585 -4.38214 0
M  V30 3428 H 380.843 -0.250523 -0.622478 0
M  V30 3429 H 383.387 -1.3184 -1.56328 0
M  V30 3430 H 381.542 -0.366033 -3.85667 0
M  V30 3431 H 381.956 -2.43424 -4.64591 0
M  V30 3432 H 383.43 -0.920967 -5.44263 0
M  V30 3433 H 383.907 0.396383 -4.37408 0
M  V30 3434 H 384.513 -1.2472 -4.06602 0
M  V30 3435 N 382.828 1.3818 -0.7579 0
M  V30 3436 C 384.053 2.04827 -0.325679 0
M  V30 3437 C 384.478 1.56788 1.03919 0
M  V30 3438 O 383.836 0.721811 1.66312 0
M  V30 3439 C 383.884 3.58774 -0.362447 0
M  V30 3440 O 382.988 4.07372 0.642033 0
M  V30 3441 H 382.329 0.64833 -0.143402 0
M  V30 3442 H 384.859 1.7677 -1.03023 0
M  V30 3443 H 384.869 4.07434 -0.214844 0
M  V30 3444 H 383.544 3.93096 -1.35824 0
M  V30 3445 H 382.121 3.70068 0.458688 0
M  V30 3446 N 384.306 0.507319 1.49211 0
M  V30 3447 C 385.269 -0.256763 2.27757 0
M  V30 3448 C 386.269 -0.888287 1.34038 0
M  V30 3449 O 387.459 -0.751841 1.5714 0
M  V30 3450 C 384.591 -1.36905 3.12202 0
M  V30 3451 H 385.784 0.432557 2.96764 0
M  V30 3452 H 383.337 0.262488 1.5408 0
M  V30 3453 H 384.072 -2.09233 2.47775 0
M  V30 3454 H 383.857 -0.921599 3.81115 0
M  V30 3455 H 385.347 -1.9071 3.7151 0
M  V30 3456 N 385.784 -1.5574 0.241426 0
M  V30 3457 C 387.195 -1.84842 -0.262755 0
M  V30 3458 C 387.546 -1.16317 -1.58003 0
M  V30 3459 O 386.671 -0.439653 -2.11887 0
M  V30 3460 C 387.266 -3.35332 -0.483523 0
M  V30 3461 C 385.825 -3.6468 -0.931977 0
M  V30 3462 C 384.972 -2.77299 -0.0061151 0
M  V30 3463 H 387.923 -1.51761 0.464129 0
M  V30 3464 H 387.944 -3.56615 -1.32688 0
M  V30 3465 H 387.456 -3.85178 0.47537 0
M  V30 3466 H 385.557 -3.20307 -1.90353 0
M  V30 3467 H 385.67 -4.72498 -0.792628 0
M  V30 3468 H 384.034 -2.49408 -0.516503 0
M  V30 3469 H 384.817 -3.2995 0.948052 0
M  V30 3470 N 387.262 0.0317525 -1.57568 0
M  V30 3471 C 388.539 0.758366 -1.803 0
M  V30 3472 C 388.919 1.93718 -0.838845 0
M  V30 3473 O 388.267 2.28187 0.119571 0
M  V30 3474 C 388.477 1.19392 -3.27943 0
M  V30 3475 C 389.825 1.61094 -3.92854 0
M  V30 3476 O 390.849 1.28857 -3.32076 0
M  V30 3477 O 389.708 2.20918 -4.99858 0
M  V30 3478 H 386.802 0.366514 -0.741348 0
M  V30 3479 H 389.348 0.00873765 -1.69698 0
M  V30 3480 H 388.12 0.352275 -3.89711 0
M  V30 3481 H 387.743 2.00365 -3.43424 0
M  V30 3482 N 388.74 1.54641 0.303973 0
M  V30 3483 C 389.968 1.77768 1.05858 0
M  V30 3484 C 390.383 0.535722 1.8104 0
M  V30 3485 O 389.74 -0.494337 1.75677 0
M  V30 3486 C 389.791 2.9834 2.04146 0
M  V30 3487 O 389.512 4.17736 1.32015 0
M  V30 3488 C 391.013 3.33832 2.91669 0
M  V30 3489 H 388.233 0.592961 0.314067 0
M  V30 3490 H 390.777 2.01583 0.344149 0
M  V30 3491 H 388.932 2.76742 2.71096 0
M  V30 3492 H 389.346 4.85693 1.97998 0
M  V30 3493 H 390.82 4.21448 3.56491 0
M  V30 3494 H 391.297 2.51857 3.59812 0
M  V30 3495 H 391.903 3.57579 2.30254 0
M  V30 3496 N 390.218 -0.567019 1.47046 0
M  V30 3497 C 391.634 -0.891975 1.32348 0
M  V30 3498 C 391.834 -1.99154 0.306616 0
M  V30 3499 O 390.89 -2.50883 -0.28532 0
M  V30 3500 C 392.203 -1.29449 2.7141 0
M  V30 3501 C 393.751 -1.40646 2.79621 0
M  V30 3502 C 394.226 -1.84257 4.19301 0
M  V30 3503 N 395.717 -1.91424 4.21795 0
M  V30 3504 C 396.452 -2.26476 5.26779 0
M  V30 3505 N 395.948 -2.60211 6.42077 0
M  V30 3506 N 397.741 -2.27166 5.14152 0
M  V30 3507 H 389.892 0.159074 2.11803 0
M  V30 3508 H 392.155 0.00849752 0.947962 0
M  V30 3509 H 391.861 -0.560448 3.47206 0
M  V30 3510 H 391.735 -2.25273 3.02542 0
M  V30 3511 H 394.122 -2.13133 2.04104 0
M  V30 3512 H 394.203 -0.430339 2.52154 0
M  V30 3513 H 393.847 -1.12343 4.95319 0
M  V30 3514 H 393.777 -2.82855 4.44185 0
M  V30 3515 H 396.268 -1.6778 3.38612 0
M  V30 3516 H 396.581 -2.85956 7.17948 0
M  V30 3517 H 394.926 -2.57813 6.45413 0
M  V30 3518 H 398.117 -2.00244 4.23107 0
M  V30 3519 H 398.29 -2.54154 5.96079 0
M  V30 3520 N 391.696 -1.35014 -0.812953 0
M  V30 3521 C 393.107 -1.25035 -1.38648 0
M  V30 3522 C 393.458 0.119967 -1.95833 0
M  V30 3523 O 392.583 1.02069 -1.90816 0
M  V30 3524 C 393.178 -2.26394 -2.52054 0
M  V30 3525 C 391.737 -2.20175 -3.05287 0
M  V30 3526 C 390.884 -2.12451 -1.78213 0
M  V30 3527 H 393.835 -1.46235 -0.616516 0
M  V30 3528 H 393.856 -1.88672 -3.30429 0
M  V30 3529 H 393.368 -3.26116 -2.10404 0
M  V30 3530 H 391.469 -1.23841 -3.51417 0
M  V30 3531 H 391.582 -3.11863 -3.63701 0
M  V30 3532 H 389.946 -1.58328 -1.9951 0
M  V30 3533 H 390.729 -3.14024 -1.38723 0
M  V30 3534 N 393.175 1.03435 -1.18907 0
M  V30 3535 C 394.138 2.09756 -0.923844 0
M  V30 3536 C 395.138 1.60528 0.093416 0
M  V30 3537 O 396.328 1.73631 -0.140727 0
M  V30 3538 C 393.46 3.38692 -0.387354 0
M  V30 3539 H 394.653 2.34719 -1.86674 0
M  V30 3540 H 392.206 1.19959 -1.00197 0
M  V30 3541 H 392.941 3.19396 0.561845 0
M  V30 3542 H 392.726 3.75742 -1.12074 0
M  V30 3543 H 394.216 4.17016 -0.220694 0
M  V30 3544 N 394.653 0.992116 1.22453 0
M  V30 3545 C 396.064 0.702776 1.72968 0
M  V30 3546 C 396.415 -0.780399 1.80012 0
M  V30 3547 O 395.54 -1.61007 1.44589 0
M  V30 3548 C 396.135 1.26903 3.14135 0
M  V30 3549 C 394.694 1.02909 3.62059 0
M  V30 3550 C 393.841 1.38969 2.39964 0
M  V30 3551 H 396.792 1.16457 1.07812 0
M  V30 3552 H 396.813 0.647223 3.74955 0
M  V30 3553 H 396.325 2.34851 3.08977 0
M  V30 3554 H 394.426 -0.0337979 3.72585 0
M  V30 3555 H 394.539 1.69191 4.48231 0
M  V30 3556 H 392.903 0.808279 2.41535 0
M  V30 3557 H 393.686 2.4792 2.37467 0
M  V30 3558 N 396.131 -1.37776 0.765217 0
M  V30 3559 C 397.379 -1.99454 0.325943 0
M  V30 3560 C 397.7 -1.61049 -1.09947 0
M  V30 3561 O 396.97 -0.872821 -1.75381 0
M  V30 3562 H 395.55 -0.737697 0.117525 0
M  V30 3563 H 398.212 -1.68359 0.981895 0
M  V30 3564 H 397.308 -3.09547 0.398353 0
M  V30 3565 N 397.609 -0.515225 -1.4894 0
M  V30 3566 C 398.834 0.022727 -2.07388 0
M  V30 3567 C 399.259 1.2876 -1.37122 0
M  V30 3568 O 398.617 1.76067 -0.432431 0
M  V30 3569 C 398.665 0.244869 -3.59768 0
M  V30 3570 O 397.769 1.31667 -3.90817 0
M  V30 3571 H 397.11 -0.0325506 -0.663202 0
M  V30 3572 H 399.64 -0.718918 -1.91553 0
M  V30 3573 H 399.65 0.47205 -4.0526 0
M  V30 3574 H 398.325 -0.679194 -4.10317 0
M  V30 3575 H 396.902 1.07331 -3.5712 0
M  V30 3576 N 399.087 1.5561 -0.249682 0
M  V30 3577 C 400.315 2.03411 0.378352 0
M  V30 3578 C 400.73 1.12886 1.51335 0
M  V30 3579 O 400.087 0.143833 1.81932 0
M  V30 3580 C 400.138 3.50537 0.88351 0
M  V30 3581 O 399.859 4.37614 -0.20626 0
M  V30 3582 C 401.36 4.14113 1.58195 0
M  V30 3583 H 398.58 0.664994 0.08958 0
M  V30 3584 H 401.124 2.01044 -0.374357 0
M  V30 3585 H 399.279 3.5343 1.58639 0
M  V30 3586 H 399.693 5.24199 0.177782 0
M  V30 3587 H 401.167 5.18741 1.8871 0
M  V30 3588 H 401.644 3.60767 2.50487 0
M  V30 3589 H 402.25 4.15151 0.923573 0
M  V30 3590 N 400.565 -0.0233959 1.57583 0
M  V30 3591 C 401.528 -1.00693 2.05897 0
M  V30 3592 C 402.528 -1.28693 0.964092 0
M  V30 3593 O 403.718 -1.23602 1.22753 0
M  V30 3594 C 400.85 -2.33825 2.4807 0
M  V30 3595 H 402.043 -0.589476 2.9405 0
M  V30 3596 H 399.596 -0.270354 1.53944 0
M  V30 3597 H 400.331 -2.80307 1.6309 0
M  V30 3598 H 400.116 -2.1483 3.2801 0
M  V30 3599 H 401.606 -3.04426 2.85857 0
M  V30 3600 N 402.043 -1.548 -0.295768 0
M  V30 3601 C 403.454 -1.65274 -0.868411 0
M  V30 3602 C 403.805 -0.56481 -1.87894 0
M  V30 3603 O 402.93 0.29767 -2.14343 0
M  V30 3604 C 403.525 -2.99603 -1.58188 0
M  V30 3605 C 402.084 -3.12181 -2.10286 0
M  V30 3606 C 401.231 -2.6098 -0.93727 0
M  V30 3607 H 404.182 -1.58534 -0.0726422 0
M  V30 3608 H 404.203 -2.91319 -2.44772 0
M  V30 3609 H 403.715 -3.78764 -0.846151 0
M  V30 3610 H 401.816 -2.3775 -2.8689 0
M  V30 3611 H 401.929 -4.18415 -2.33379 0
M  V30 3612 H 400.293 -2.17564 -1.32431 0
M  V30 3613 H 401.076 -3.42623 -0.215414 0
M  V30 3614 N 403.521 0.559213 -1.47345 0
M  V30 3615 C 404.932 1.14134 -1.47751 0
M  V30 3616 C 405.283 1.94834 -0.231103 0
M  V30 3617 O 404.408 2.05957 0.664137 0
M  V30 3618 C 405.003 2.07653 -2.67705 0
M  V30 3619 C 403.562 2.61141 -2.71076 0
M  V30 3620 C 402.709 1.3748 -2.40821 0
M  V30 3621 H 405.66 0.345917 -1.54884 0
M  V30 3622 H 405.681 2.91497 -2.44561 0
M  V30 3623 H 405.193 1.4889 -3.58404 0
M  V30 3624 H 403.294 3.23707 -1.84511 0
M  V30 3625 H 403.407 3.02272 -3.7171 0
M  V30 3626 H 401.771 1.68086 -1.91362 0
M  V30 3627 H 402.554 0.805135 -3.33725 0
M  V30 3628 N 404.999 1.35443 0.805782 0
M  V30 3629 C 405.962 1.28301 1.89925 0
M  V30 3630 C 406.962 0.194285 1.59622 0
M  V30 3631 O 408.152 0.448036 1.6834 0
M  V30 3632 C 405.284 0.984997 3.2636 0
M  V30 3633 H 406.477 2.2553 1.97677 0
M  V30 3634 H 404.03 1.19979 1.00173 0
M  V30 3635 H 404.765 0.016603 3.24296 0
M  V30 3636 H 404.55 1.77269 3.4974 0
M  V30 3637 H 406.04 0.960651 4.064 0
M  V30 3638 N 406.477 -1.02803 1.19454 0
M  V30 3639 C 407.427 -2.0945 0.900827 0
M  V30 3640 C 408.411 -1.60335 -0.134715 0
M  V30 3641 O 409.603 -1.76857 0.0710924 0
M  V30 3642 C 406.732 -3.4044 0.442229 0
M  V30 3643 C 405.818 -3.96286 1.51056 0
M  V30 3644 N 406.209 -4.25785 2.73021 0
M  V30 3645 C 404.507 -4.24307 1.37404 0
M  V30 3646 C 405.208 -4.70654 3.41848 0
M  V30 3647 N 404.184 -4.72238 2.69243 0
M  V30 3648 H 407.986 -2.3015 1.82779 0
M  V30 3649 H 405.5 -1.20672 1.08683 0
M  V30 3650 H 407.497 -4.16354 0.21326 0
M  V30 3651 H 406.157 -3.21159 -0.478238 0
M  V30 3652 H 407.168 -4.15041 3.09776 0
M  V30 3653 H 403.845 -4.14285 0.517103 0
M  V30 3654 H 405.235 -5.02392 4.46152 0
M  V30 3655 N 407.956 -0.998596 -1.21925 0
M  V30 3656 C 409.204 -0.676325 -1.90448 0
M  V30 3657 C 409.525 0.794719 -1.78071 0
M  V30 3658 O 408.795 1.5701 -1.17152 0
M  V30 3659 H 407.375 -0.247165 -0.704925 0
M  V30 3660 H 410.037 -1.26633 -1.48156 0
M  V30 3661 H 409.133 -0.943858 -2.97486 0
M  V30 3662 N 409.434 1.37368 -0.772513 0
M  V30 3663 C 410.68 1.99969 -0.337681 0
M  V30 3664 C 411.013 1.61184 1.08321 0
M  V30 3665 O 410.288 0.858395 1.74533 0
M  V30 3666 C 410.571 3.56858 -0.482121 0
M  V30 3667 C 410.424 4.0555 -1.94549 0
M  V30 3668 C 411.743 4.39955 0.113143 0
M  V30 3669 H 408.862 0.726464 -0.124171 0
M  V30 3670 H 411.504 1.63034 -0.975699 0
M  V30 3671 H 409.654 3.88452 0.0610361 0
M  V30 3672 H 411.326 3.84518 -2.54841 0
M  V30 3673 H 409.569 3.57715 -2.45403 0
M  V30 3674 H 410.24 5.14587 -1.9976 0
M  V30 3675 H 412.716 4.14623 -0.35031 0
M  V30 3676 H 411.592 5.48897 -0.0180514 0
M  V30 3677 H 411.853 4.25403 1.20354 0
M  V30 3678 N 410.912 0.523116 1.48665 0
M  V30 3679 C 412.14 -0.0096312 2.06898 0
M  V30 3680 C 412.555 -1.28784 1.38059 0
M  V30 3681 O 411.912 -1.76453 0.465893 0
M  V30 3682 C 411.963 -0.244386 3.60673 0
M  V30 3683 O 411.684 0.983172 4.26925 0
M  V30 3684 C 413.185 -0.818289 4.35682 0
M  V30 3685 H 410.405 0.0304161 0.67031 0
M  V30 3686 H 412.949 0.726799 1.91149 0
M  V30 3687 H 411.104 -0.930847 3.76051 0
M  V30 3688 H 411.518 0.759653 5.1897 0
M  V30 3689 H 412.992 -0.93201 5.44075 0
M  V30 3690 H 413.469 -1.82153 3.99646 0
M  V30 3691 H 414.075 -0.168609 4.24966 0
M  V30 3692 N 412.39 -1.55475 0.257931 0
M  V30 3693 C 413.615 -2.04064 -0.370488 0
M  V30 3694 C 414.04 -1.13565 -1.49948 0
M  V30 3695 O 413.398 -0.130781 -1.80828 0
M  V30 3696 C 413.446 -3.50554 -0.845237 0
M  V30 3697 O 412.55 -3.63173 -1.95394 0
M  V30 3698 H 411.891 -0.659257 -0.0792243 0
M  V30 3699 H 414.421 -2.00903 0.387212 0
M  V30 3700 H 414.431 -3.91588 -1.14555 0
M  V30 3701 H 413.106 -4.15896 -0.0191259 0
M  V30 3702 H 411.683 -3.34039 -1.65748 0
M  V30 3703 N 413.868 0.0150385 -1.57593 0
M  V30 3704 C 414.831 0.995996 -2.06428 0
M  V30 3705 C 415.831 1.2818 -0.970903 0
M  V30 3706 O 417.021 1.22949 -1.23406 0
M  V30 3707 C 414.153 2.32506 -2.49307 0
M  V30 3708 H 415.346 0.573873 -2.94358 0
M  V30 3709 H 412.899 0.262186 -1.54085 0
M  V30 3710 H 413.634 2.79438 -1.64575 0
M  V30 3711 H 413.419 2.13087 -3.29145 0
M  V30 3712 H 414.909 3.02906 -2.87468 0
M  V30 3713 N 415.346 1.54954 0.287554 0
M  V30 3714 C 416.757 1.65732 0.859634 0
M  V30 3715 C 417.108 0.574767 1.87592 0
M  V30 3716 O 416.233 -0.286299 2.14498 0
M  V30 3717 C 416.828 3.00438 1.56597 0
M  V30 3718 C 415.387 3.13292 2.08627 0
M  V30 3719 C 414.534 2.61473 0.923416 0
M  V30 3720 H 417.485 1.5857 0.0642338 0
M  V30 3721 H 417.506 2.92613 2.43224 0
M  V30 3722 H 417.018 3.79207 0.826053 0
M  V30 3723 H 415.119 2.39268 2.85625 0
M  V30 3724 H 415.232 4.19647 2.31157 0
M  V30 3725 H 413.596 2.18264 1.31275 0
M  V30 3726 H 414.379 3.42733 0.197241 0
M  V30 3727 N 416.824 -0.551391 1.4764 0
M  V30 3728 C 418.101 -1.31229 1.45046 0
M  V30 3729 C 418.481 -2.10563 0.150527 0
M  V30 3730 O 417.829 -2.11374 -0.867956 0
M  V30 3731 C 418.039 -2.21189 2.69956 0
M  V30 3732 C 419.387 -2.82021 3.1741 0
M  V30 3733 O 420.411 -2.31488 2.70724 0
M  V30 3734 O 419.27 -3.73885 3.98588 0
M  V30 3735 H 416.364 -0.591193 0.578291 0
M  V30 3736 H 418.91 -0.569813 1.59847 0
M  V30 3737 H 417.682 -1.62207 3.56096 0
M  V30 3738 H 417.305 -3.02722 2.57769 0
M  V30 3739 N 418.302 -1.35869 -0.798587 0
M  V30 3740 C 419.53 -1.32722 -1.58722 0
M  V30 3741 C 419.945 0.0935631 -1.88568 0
M  V30 3742 O 419.302 1.04784 -1.49421 0
M  V30 3743 C 419.353 -2.13974 -2.91371 0
M  V30 3744 O 419.074 -3.50514 -2.62815 0
M  V30 3745 C 420.575 -2.18504 -3.85708 0
M  V30 3746 H 417.795 -0.45562 -0.492596 0
M  V30 3747 H 420.339 -1.78837 -0.991843 0
M  V30 3748 H 418.494 -1.71438 -3.47402 0
M  V30 3749 H 418.908 -3.92806 -3.47568 0
M  V30 3750 H 420.382 -2.79732 -4.75872 0
M  V30 3751 H 420.859 -1.18597 -4.22885 0
M  V30 3752 H 421.465 -2.61236 -3.35612 0
M  V30 3753 N 419.78 1.02168 -1.19998 0
M  V30 3754 C 421.196 1.27969 -0.953737 0
M  V30 3755 C 421.396 1.98079 0.369703 0
M  V30 3756 O 420.452 2.27306 1.09947 0
M  V30 3757 C 421.765 2.11971 -2.13281 0
M  V30 3758 C 423.313 2.25255 -2.17323 0
M  V30 3759 C 423.788 3.12632 -3.34702 0
M  V30 3760 N 425.279 3.2022 -3.34684 0
M  V30 3761 C 426.014 3.88039 -4.22153 0
M  V30 3762 N 425.51 4.58027 -5.19791 0
M  V30 3763 N 427.303 3.84511 -4.10009 0
M  V30 3764 H 419.454 0.550794 -2.05134 0
M  V30 3765 H 421.717 0.305683 -0.897364 0
M  V30 3766 H 421.423 1.67785 -3.09097 0
M  V30 3767 H 421.297 3.12699 -2.10949 0
M  V30 3768 H 423.684 2.68667 -1.22073 0
M  V30 3769 H 423.765 1.24053 -2.23706 0
M  V30 3770 H 423.409 2.69926 -4.30235 0
M  V30 3771 H 423.339 4.13909 -3.25556 0
M  V30 3772 H 425.83 2.70382 -2.64012 0
M  V30 3773 H 426.143 5.07429 -5.82868 0
M  V30 3774 H 424.488 4.56869 -5.23733 0
M  V30 3775 H 427.679 3.28978 -3.33003 0
M  V30 3776 H 427.852 4.3709 -4.78389 0
M  V30 3777 N 421.258 1.00505 1.21394 0
M  V30 3778 C 422.669 0.721082 1.72213 0
M  V30 3779 C 423.02 -0.761263 1.80829 0
M  V30 3780 O 422.145 -1.59464 1.46288 0
M  V30 3781 C 422.74 1.30228 3.12772 0
M  V30 3782 C 421.299 1.06743 3.60947 0
M  V30 3783 C 420.446 1.41507 2.38477 0
M  V30 3784 H 423.397 1.17594 1.06571 0
M  V30 3785 H 423.418 0.686955 3.74247 0
M  V30 3786 H 422.93 2.38115 3.06468 0
M  V30 3787 H 421.031 0.00572162 3.726 0
M  V30 3788 H 421.144 1.73936 4.46411 0
M  V30 3789 H 419.508 0.833852 2.40664 0
M  V30 3790 H 420.291 2.50424 2.34824 0
M  V30 3791 N 422.737 -1.36956 0.779787 0
M  V30 3792 C 423.7 -2.2851 0.177662 0
M  V30 3793 C 424.7 -1.48393 -0.619377 0
M  V30 3794 O 425.89 -1.68505 -0.441785 0
M  V30 3795 C 423.022 -3.32428 -0.755279 0
M  V30 3796 H 424.215 -2.83269 0.984823 0
M  V30 3797 H 421.768 -1.46358 0.548544 0
M  V30 3798 H 422.503 -2.82808 -1.58714 0
M  V30 3799 H 422.288 -3.91659 -0.185817 0
M  V30 3800 H 423.778 -4.00824 -1.17174 0
M  V30 3801 N 424.215 -0.530993 -1.48385 0
M  V30 3802 C 425.626 -0.0907905 -1.86479 0
M  V30 3803 C 425.977 1.33213 -1.44044 0
M  V30 3804 O 425.102 1.99783 -0.831615 0
M  V30 3805 C 425.697 -0.157987 -3.38431 0
M  V30 3806 C 424.256 0.227026 -3.75715 0
M  V30 3807 C 423.403 -0.5173 -2.72432 0
M  V30 3808 H 426.354 -0.742186 -1.40276 0
M  V30 3809 H 426.375 0.630053 -3.75247 0
M  V30 3810 H 425.887 -1.19372 -3.69286 0
M  V30 3811 H 423.988 1.26486 -3.50474 0
M  V30 3812 H 424.101 -0.113288 -4.78966 0
M  V30 3813 H 422.465 0.0365527 -2.54674 0
M  V30 3814 H 423.248 -1.55368 -3.0613 0
M  V30 3815 N 425.693 1.55336 -0.266172 0
M  V30 3816 C 426.941 1.99003 0.35246 0
M  V30 3817 C 427.262 1.15591 1.57047 0
M  V30 3818 O 426.532 0.243268 1.94384 0
M  V30 3819 H 425.112 0.735025 0.133217 0
M  V30 3820 H 427.774 1.91367 -0.369434 0
M  V30 3821 H 426.87 3.05289 0.648453 0
M  V30 3822 N 427.171 -0.0066808 1.57599 0
M  V30 3823 C 428.396 -0.707738 1.94951 0
M  V30 3824 C 428.821 -1.66882 0.867868 0
M  V30 3825 O 428.179 -1.80457 -0.17458 0
M  V30 3826 C 428.227 -1.42162 3.31394 0
M  V30 3827 O 427.331 -2.53578 3.25226 0
M  V30 3828 H 426.672 -0.188752 0.636607 0
M  V30 3829 H 429.202 0.0445193 2.04552 0
M  V30 3830 H 429.212 -1.78655 3.66806 0
M  V30 3831 H 427.887 -0.716903 4.09675 0
M  V30 3832 H 426.464 -2.19463 3.01481 0
M  V30 3833 N 428.649 -1.55105 -0.279332 0
M  V30 3834 C 429.877 -1.7943 -1.03017 0
M  V30 3835 C 430.292 -0.564456 -1.80165 0
M  V30 3836 O 429.649 0.466326 -1.76442 0
M  V30 3837 C 429.7 -3.0155 -1.99374 0
M  V30 3838 O 429.421 -4.19784 -1.25352 0
M  V30 3839 C 430.922 -3.3843 -2.86321 0
M  V30 3840 H 428.142 -0.597882 -0.304594 0
M  V30 3841 H 430.686 -2.02105 -0.312035 0
M  V30 3842 H 428.841 -2.81019 -2.66659 0
M  V30 3843 H 429.255 -4.88781 -1.90246 0
M  V30 3844 H 430.729 -4.27066 -3.49741 0
M  V30 3845 H 431.206 -2.57549 -3.5576 0
M  V30 3846 H 431.812 -3.61197 -2.24536 0
M  V30 3847 N 430.127 0.543554 -1.4793 0
M  V30 3848 C 431.09 1.63156 -1.60975 0
M  V30 3849 C 432.09 1.53346 -0.483899 0
M  V30 3850 O 433.28 1.5726 -0.749339 0
M  V30 3851 C 430.412 3.02743 -1.56716 0
M  V30 3852 H 431.605 1.52934 -2.57975 0
M  V30 3853 H 429.158 0.764557 -1.36324 0
M  V30 3854 H 429.893 3.18484 -0.611418 0
M  V30 3855 H 429.678 3.11272 -2.38438 0
M  V30 3856 H 431.168 3.81871 -1.6901 0
M  V30 3857 N 431.605 1.3629 0.791371 0
M  V30 3858 C 433.016 1.27225 1.36641 0
M  V30 3859 C 433.367 -0.0887968 1.95999 0
M  V30 3860 O 432.492 -0.990207 1.92416 0
M  V30 3861 C 433.087 2.30375 2.48421 0
M  V30 3862 C 431.646 2.25004 3.01746 0
M  V30 3863 C 430.793 2.15259 1.7481 0
M  V30 3864 H 433.744 1.47198 0.593173 0
M  V30 3865 H 433.765 1.93905 3.27385 0
M  V30 3866 H 433.277 3.29422 2.05189 0
M  V30 3867 H 431.378 1.29417 3.49403 0
M  V30 3868 H 431.491 3.1761 3.58693 0
M  V30 3869 H 429.855 1.61482 1.96966 0
M  V30 3870 H 430.638 3.16191 1.33709 0
M  V30 3871 N 433.083 -1.0153 1.20538 0
M  V30 3872 C 434.494 -1.56598 1.01657 0
M  V30 3873 C 434.845 -1.91505 -0.426668 0
M  V30 3874 O 433.97 -1.72375 -1.30827 0
M  V30 3875 C 434.565 -2.84542 1.83905 0
M  V30 3876 C 433.124 -3.36133 1.69386 0
M  V30 3877 C 432.271 -2.09427 1.81757 0
M  V30 3878 H 435.222 -0.838974 1.34711 0
M  V30 3879 H 435.243 -3.56004 1.34319 0
M  V30 3880 H 434.755 -2.59105 2.8894 0
M  V30 3881 H 432.856 -3.66528 0.669933 0
M  V30 3882 H 432.969 -4.08248 2.50739 0
M  V30 3883 H 431.333 -2.21941 1.24957 0
M  V30 3884 H 432.116 -1.86414 2.88279 0
M  V30 3885 N 434.561 -1.01147 -1.20859 0
M  V30 3886 C 435.524 -0.582224 -2.21682 0
M  V30 3887 C 436.524 0.344887 -1.57058 0
M  V30 3888 O 437.714 0.134281 -1.73682 0
M  V30 3889 C 434.846 0.150496 -3.40568 0
M  V30 3890 H 436.039 -1.47408 -2.61172 0
M  V30 3891 H 433.592 -0.800695 -1.34233 0
M  V30 3892 H 434.327 1.0575 -3.06574 0
M  V30 3893 H 434.112 -0.515444 -3.88697 0
M  V30 3894 H 435.602 0.438344 -4.15293 0
M  V30 3895 N 436.039 1.36541 -0.78704 0
M  V30 3896 C 436.989 2.27459 -0.156957 0
M  V30 3897 C 437.973 1.46843 0.657709 0
M  V30 3898 O 439.165 1.69245 0.518173 0
M  V30 3899 C 436.294 3.35893 0.709278 0
M  V30 3900 C 435.38 4.23947 -0.114049 0
M  V30 3901 N 435.771 4.92145 -1.16736 0
M  V30 3902 C 434.069 4.4587 0.107497 0
M  V30 3903 C 434.77 5.57261 -1.66837 0
M  V30 3904 N 433.746 5.3473 -0.977992 0
M  V30 3905 H 437.548 2.77669 -0.963185 0
M  V30 3906 H 435.062 1.49839 -0.62627 0
M  V30 3907 H 437.059 3.99953 1.17656 0
M  V30 3908 H 435.719 2.87238 1.51408 0
M  V30 3909 H 436.73 4.94169 -1.54976 0
M  V30 3910 H 433.407 4.08056 0.882994 0
M  V30 3911 H 434.797 6.21728 -2.54762 0
M  V30 3912 N 437.518 0.538854 1.48102 0
M  V30 3913 C 438.766 0.00798599 2.02098 0
M  V30 3914 C 439.087 -1.33922 1.41739 0
M  V30 3915 O 438.357 -1.86932 0.585934 0
M  V30 3916 H 436.937 -3.62179e-05 0.747 0
M  V30 3917 H 439.599 0.7047 1.81714 0
M  V30 3918 H 438.695 -0.0937672 3.11959 0
M  V30 3919 N 438.996 -1.55193 0.274407 0
M  V30 3920 C 440.242 -1.99877 -0.343086 0
M  V30 3921 C 440.575 -1.16256 -1.55558 0
M  V30 3922 O 439.85 -0.232462 -1.93106 0
M  V30 3923 C 440.133 -3.52706 -0.725965 0
M  V30 3924 C 439.986 -4.47081 0.493818 0
M  V30 3925 C 441.305 -4.11422 -1.56268 0
M  V30 3926 H 438.424 -0.726625 -0.123229 0
M  V30 3927 H 441.066 -1.86136 0.38121 0
M  V30 3928 H 439.216 -3.64546 -1.34307 0
M  V30 3929 H 440.888 -4.47186 1.13237 0
M  V30 3930 H 439.131 -4.1877 1.13201 0
M  V30 3931 H 439.802 -5.51699 0.18217 0
M  V30 3932 H 442.278 -4.02855 -1.04151 0
M  V30 3933 H 441.154 -5.18568 -1.79939 0
M  V30 3934 H 441.415 -3.61607 -2.54348 0
M  V30 3935 N 440.474 -0.00167713 -1.576 0
M  V30 3936 C 441.702 0.693759 -1.94922 0
M  V30 3937 C 442.117 1.67215 -0.876626 0
M  V30 3938 O 441.474 1.81929 0.144279 0
M  V30 3939 C 441.525 1.42416 -3.32265 0
M  V30 3940 O 441.246 0.485014 -4.35407 0
M  V30 3941 C 442.747 2.21395 -3.84056 0
M  V30 3942 H 439.967 0.193118 -0.642609 0
M  V30 3943 H 442.511 -0.0532952 -2.04431 0
M  V30 3944 H 440.666 2.12284 -3.24059 0
M  V30 3945 H 441.08 1.00053 -5.14868 0
M  V30 3946 H 442.554 2.67996 -4.82578 0
M  V30 3947 H 443.031 3.04142 -3.16851 0
M  V30 3948 H 443.637 1.56542 -3.95443 0
M  V30 3949 N 441.952 1.55251 0.271103 0
M  V30 3950 C 443.177 1.80306 1.02491 0
M  V30 3951 C 443.602 0.575457 1.79081 0
M  V30 3952 O 442.96 -0.474987 1.74967 0
M  V30 3953 C 443.008 3.02832 1.95768 0
M  V30 3954 O 442.112 2.78051 3.04568 0
M  V30 3955 H 441.453 0.595896 0.292923 0
M  V30 3956 H 443.983 2.02397 0.299436 0
M  V30 3957 H 443.993 3.31616 2.37686 0
M  V30 3958 H 442.668 3.9183 1.39434 0
M  V30 3959 H 441.245 2.60369 2.66951 0
M  V30 3960 N 443.43 -0.535701 1.48216 0
M  V30 3961 C 444.393 -1.623 1.61838 0
M  V30 3962 C 445.393 -1.53087 0.492024 0
M  V30 3963 O 446.583 -1.5686 0.757668 0
M  V30 3964 C 443.715 -3.01907 1.58319 0
M  V30 3965 H 444.908 -1.51564 2.58783 0
M  V30 3966 H 442.461 -0.757317 1.36727 0
M  V30 3967 H 443.196 -3.18155 0.628299 0
M  V30 3968 H 442.981 -3.10003 2.40085 0
M  V30 3969 H 444.471 -3.80969 1.71033 0
M  V30 3970 N 444.908 -1.36708 -0.784132 0
M  V30 3971 C 446.319 -1.27947 -1.35965 0
M  V30 3972 C 446.67 0.0784013 -1.96043 0
M  V30 3973 O 445.795 0.979989 -1.92938 0
M  V30 3974 C 446.39 -2.31689 -2.47195 0
M  V30 3975 C 444.949 -2.26601 -3.00548 0
M  V30 3976 C 444.096 -2.16184 -1.73666 0
M  V30 3977 H 447.047 -1.4751 -0.585358 0
M  V30 3978 H 447.068 -1.95638 -3.26352 0
M  V30 3979 H 446.58 -3.30506 -2.03439 0
M  V30 3980 H 444.681 -1.31268 -3.48711 0
M  V30 3981 H 444.794 -3.19508 -3.57004 0
M  V30 3982 H 443.158 -1.62524 -1.96107 0
M  V30 3983 H 443.941 -3.16896 -1.32031 0
M  V30 3984 N 446.386 1.0089 -1.21074 0
M  V30 3985 C 447.663 1.71834 -0.934469 0
M  V30 3986 C 448.043 2.0368 0.554753 0
M  V30 3987 O 447.391 1.70742 1.51854 0
M  V30 3988 C 447.601 2.98061 -1.8155 0
M  V30 3989 C 448.949 3.7117 -2.06199 0
M  V30 3990 O 449.973 3.08034 -1.78867 0
M  V30 3991 O 448.832 4.84721 -2.52404 0
M  V30 3992 H 445.926 0.749253 -0.35007 0
M  V30 3993 H 448.472 1.06668 -1.31985 0
M  V30 3994 H 447.244 2.70908 -2.82355 0
M  V30 3995 H 446.867 3.70968 -1.43068 0
M  V30 3996 N 447.864 1.01787 1.20321 0
M  V30 3997 C 449.092 0.727194 1.937 0
M  V30 3998 C 449.507 -0.712305 1.74848 0
M  V30 3999 O 448.864 -1.48327 1.06327 0
M  V30 4000 C 448.915 1.05497 3.45764 0
M  V30 4001 O 448.636 2.43794 3.64 0
M  V30 4002 C 450.137 0.785534 4.36285 0
M  V30 4003 H 447.357 0.266939 0.615617 0
M  V30 4004 H 449.901 1.35939 1.52777 0
M  V30 4005 H 448.056 0.468158 3.84561 0
M  V30 4006 H 448.47 2.55656 4.57974 0
M  V30 4007 H 449.944 1.06495 5.4163 0
M  V30 4008 H 450.421 -0.280273 4.38305 0
M  V30 4009 H 451.027 1.35456 4.03152 0
M  V30 4010 N 449.342 -1.36122 0.79427 0
M  V30 4011 C 450.758 -1.5232 0.476525 0
M  V30 4012 C 450.958 -1.74685 -1.00436 0
M  V30 4013 O 450.014 -1.78115 -1.78973 0
M  V30 4014 C 451.327 -2.70607 1.31119 0
M  V30 4015 C 452.875 -2.8448 1.30537 0
M  V30 4016 C 453.35 -4.05778 2.12387 0
M  V30 4017 N 454.841 -4.12933 2.09859 0
M  V30 4018 C 455.576 -5.05876 2.69957 0
M  V30 4019 N 455.072 -6.04232 3.38934 0
M  V30 4020 N 456.865 -4.98528 2.59665 0
M  V30 4021 H 449.016 -1.1986 1.75349 0
M  V30 4022 H 451.279 -0.585418 0.745647 0
M  V30 4023 H 450.985 -2.60619 2.36158 0
M  V30 4024 H 450.859 -3.64888 0.955843 0
M  V30 4025 H 453.246 -2.93927 0.262876 0
M  V30 4026 H 453.327 -1.91093 1.70051 0
M  V30 4027 H 452.971 -3.97092 3.1667 0
M  V30 4028 H 452.901 -4.98323 1.70242 0
M  V30 4029 H 455.392 -3.42515 1.59662 0
M  V30 4030 H 455.705 -6.71724 3.82109 0
M  V30 4031 H 454.05 -6.04443 3.43036 0
M  V30 4032 H 457.241 -4.20641 2.05375 0
M  V30 4033 H 457.414 -5.70773 3.06793 0
M  V30 4034 N 450.82 -0.546701 -1.47814 0
M  V30 4035 C 452.231 -0.110564 -1.86372 0
M  V30 4036 C 452.582 1.31678 -1.45449 0
M  V30 4037 O 451.707 1.98889 -0.852758 0
M  V30 4038 C 452.302 -0.193873 -3.38245 0
M  V30 4039 C 450.861 0.187164 -3.75934 0
M  V30 4040 C 450.008 -0.546166 -2.71868 0
M  V30 4041 H 452.959 -0.757022 -1.39481 0
M  V30 4042 H 452.98 0.590218 -3.75895 0
M  V30 4043 H 452.492 -1.23282 -3.67999 0
M  V30 4044 H 450.593 1.22762 -3.51796 0
M  V30 4045 H 450.706 -0.164083 -4.78819 0
M  V30 4046 H 449.07 0.00953904 -2.54698 0
M  V30 4047 H 449.853 -1.58606 -3.04465 0
M  V30 4048 N 452.299 1.55045 -0.282633 0
M  V30 4049 C 453.262 2.21515 0.588539 0
M  V30 4050 C 454.262 1.19535 1.07554 0
M  V30 4051 O 455.452 1.44391 0.974514 0
M  V30 4052 C 452.584 2.88704 1.8128 0
M  V30 4053 H 453.777 2.99899 0.00806397 0
M  V30 4054 H 451.33 1.56265 -0.0333067 0
M  V30 4055 H 452.065 2.14352 2.43359 0
M  V30 4056 H 451.85 3.63443 1.47144 0
M  V30 4057 H 453.34 3.39465 2.43214 0
M  V30 4058 N 453.777 0.010035 1.57597 0
M  V30 4059 C 455.188 -0.531426 1.78977 0
M  V30 4060 C 455.539 -1.73375 0.918454 0
M  V30 4061 O 454.664 -2.16047 0.123635 0
M  V30 4062 C 455.259 -0.97086 3.24592 0
M  V30 4063 C 453.818 -1.45756 3.47033 0
M  V30 4064 C 452.965 -0.413384 2.74201 0
M  V30 4065 H 455.916 0.236166 1.56933 0
M  V30 4066 H 455.937 -1.83633 3.33255 0
M  V30 4067 H 455.449 -0.0955893 3.87982 0
M  V30 4068 H 453.55 -2.35339 2.88871 0
M  V30 4069 H 453.663 -1.4781 4.55729 0
M  V30 4070 H 452.027 -0.877266 2.39115 0
M  V30 4071 H 452.81 0.453092 3.40297 0
M  V30 4072 N 455.255 -1.55392 -0.262866 0
M  V30 4073 C 456.503 -1.76127 -0.991147 0
M  V30 4074 C 456.824 -0.571083 -1.8645 0
M  V30 4075 O 456.094 0.413698 -1.91482 0
M  V30 4076 H 454.674 -0.649528 -0.368948 0
M  V30 4077 H 457.336 -1.9281 -0.284655 0
M  V30 4078 H 456.432 -2.6663 -1.62219 0
M  V30 4079 N 456.733 0.527833 -1.48498 0
M  V30 4080 C 457.958 1.313 -1.60546 0
M  V30 4081 C 458.383 1.86199 -0.26672 0
M  V30 4082 O 457.741 1.64513 0.761918 0
M  V30 4083 C 457.789 2.43818 -2.65678 0
M  V30 4084 O 456.893 3.46916 -2.22987 0
M  V30 4085 H 456.234 0.388784 -0.538277 0
M  V30 4086 H 458.764 0.634896 -1.945 0
M  V30 4087 H 458.774 2.89973 -2.87018 0
M  V30 4088 H 457.449 2.03222 -3.62869 0
M  V30 4089 H 456.026 3.06864 -2.11869 0
M  V30 4090 N 458.211 1.37122 0.776871 0
M  V30 4091 C 459.439 1.3523 1.5659 0
M  V30 4092 C 459.854 -0.0635518 1.88693 0
M  V30 4093 O 459.211 -1.02394 1.51069 0
M  V30 4094 C 459.262 2.18583 2.8793 0
M  V30 4095 O 458.983 3.5465 2.57206 0
M  V30 4096 C 460.484 2.24612 3.82183 0
M  V30 4097 H 457.704 0.4634 0.485285 0
M  V30 4098 H 460.248 1.80392 0.963266 0
M  V30 4099 H 458.403 1.76943 3.4463 0
M  V30 4100 H 458.817 3.98286 3.41275 0
M  V30 4101 H 460.291 2.87267 4.71361 0
M  V30 4102 H 460.768 1.25309 4.20944 0
M  V30 4103 H 461.374 2.66543 3.31414 0
M  V30 4104 N 459.689 -1.00246 1.21608 0
M  V30 4105 C 460.652 -2.07233 0.979133 0
M  V30 4106 C 461.652 -1.6072 -0.0508219 0
M  V30 4107 O 462.842 -1.73196 0.186712 0
M  V30 4108 C 459.974 -3.37546 0.477016 0
M  V30 4109 H 461.167 -2.29687 1.92831 0
M  V30 4110 H 458.72 -1.17261 1.03342 0
M  V30 4111 H 459.455 -3.20773 -0.476966 0
M  V30 4112 H 459.24 -3.72638 1.21997 0
M  V30 4113 H 460.73 -4.16285 0.331181 0
M  V30 4114 N 461.167 -1.02423 -1.1978 0
M  V30 4115 C 462.578 -0.748389 -1.71044 0
M  V30 4116 C 462.929 0.732398 -1.82017 0
M  V30 4117 O 462.054 1.57116 -1.48807 0
M  V30 4118 C 462.649 -1.35187 -3.1066 0
M  V30 4119 C 461.208 -1.12472 -3.59203 0
M  V30 4120 C 460.355 -1.45283 -2.36195 0
M  V30 4121 H 463.306 -1.19275 -1.04686 0
M  V30 4122 H 463.327 -0.746408 -3.73107 0
M  V30 4123 H 462.839 -2.4296 -3.02642 0
M  V30 4124 H 460.94 -0.0649983 -3.72543 0
M  V30 4125 H 461.053 -1.81016 -4.43588 0
M  V30 4126 H 459.417 -0.872034 -2.39307 0
M  V30 4127 H 460.2 -2.54129 -2.30811 0
M  V30 4128 N 462.645 1.35699 -0.801477 0
M  V30 4129 C 464.056 1.81415 -0.441073 0
M  V30 4130 C 464.407 1.66595 1.03636 0
M  V30 4131 O 463.532 1.19369 1.80499 0
M  V30 4132 C 464.127 3.29369 -0.793819 0
M  V30 4133 C 462.686 3.73248 -0.486083 0
M  V30 4134 C 461.833 2.57775 -1.02213 0
M  V30 4135 H 464.784 1.23749 -0.993572 0
M  V30 4136 H 464.805 3.80395 -0.0894158 0
M  V30 4137 H 464.317 3.40123 -1.86917 0
M  V30 4138 H 462.418 3.68046 0.580735 0
M  V30 4139 H 462.531 4.68222 -1.01513 0
M  V30 4140 H 460.895 2.50788 -0.444712 0
M  V30 4141 H 461.678 2.71309 -2.10348 0
M  V30 4142 N 464.123 0.554532 1.47522 0
M  V30 4143 C 465.086 -0.184174 2.28459 0
M  V30 4144 C 466.086 -0.845195 1.36796 0
M  V30 4145 O 467.276 -0.701467 1.59452 0
M  V30 4146 C 464.408 -1.26903 3.16399 0
M  V30 4147 H 465.601 0.526751 2.95238 0
M  V30 4148 H 463.154 0.311375 1.53167 0
M  V30 4149 H 463.889 -2.01244 2.54306 0
M  V30 4150 H 463.674 -0.799883 3.83854 0
M  V30 4151 H 465.164 -1.78794 3.77389 0
M  V30 4152 N 465.601 -1.54893 0.290851 0
M  V30 4153 C 466.551 -2.19838 -0.604599 0
M  V30 4154 C 467.535 -1.16805 -1.10659 0
M  V30 4155 O 468.727 -1.42562 -1.04905 0
M  V30 4156 C 465.856 -2.93497 -1.78086 0
M  V30 4157 C 464.942 -4.03835 -1.29531 0
M  V30 4158 N 465.333 -5.03047 -0.527024 0
M  V30 4159 C 463.631 -4.17192 -1.57693 0
M  V30 4160 C 464.332 -5.81074 -0.269728 0
M  V30 4161 N 463.308 -5.36966 -0.846651 0
M  V30 4162 H 467.11 -2.93898 -0.00995032 0
M  V30 4163 H 464.624 -1.62121 0.0951353 0
M  V30 4164 H 466.621 -3.38484 -2.43381 0
M  V30 4165 H 465.281 -2.2095 -2.37931 0
M  V30 4166 H 466.292 -5.17611 -0.172872 0
M  V30 4167 H 462.969 -3.55845 -2.18359 0
M  V30 4168 H 464.359 -6.71005 0.346643 0
M  V30 4169 N 467.08 -0.0183926 -1.57589 0
M  V30 4170 C 468.328 0.661253 -1.90976 0
M  V30 4171 C 468.649 1.73281 -0.894353 0
M  V30 4172 O 467.919 1.9579 0.0656788 0
M  V30 4173 H 466.499 0.247233 -0.704901 0
M  V30 4174 H 469.161 -0.0636639 -1.94796 0
M  V30 4175 H 468.257 1.12083 -2.9128 0
M  V30 4176 N 468.558 1.5553 0.254621 0
M  V30 4177 C 469.804 1.77262 0.985193 0
M  V30 4178 C 470.137 0.582286 1.85265 0
M  V30 4179 O 469.412 -0.419666 1.89919 0
M  V30 4180 C 469.695 3.0881 1.85225 0
M  V30 4181 C 469.548 4.38233 1.0135 0
M  V30 4182 C 470.867 3.3653 2.83612 0
M  V30 4183 H 467.986 0.644906 0.356742 0
M  V30 4184 H 470.628 1.88264 0.256236 0
M  V30 4185 H 468.778 2.99562 2.47376 0
M  V30 4186 H 470.45 4.59463 0.411269 0
M  V30 4187 H 468.693 4.32636 0.317574 0
M  V30 4188 H 469.364 5.26644 1.65379 0
M  V30 4189 H 471.84 3.45691 2.31596 0
M  V30 4190 H 470.716 4.29805 3.41407 0
M  V30 4191 H 470.977 2.57064 3.59681 0
M  V30 4192 N 470.036 -0.519951 1.48776 0
M  V30 4193 C 471.264 -1.29971 1.60982 0
M  V30 4194 C 471.679 -1.86803 0.273885 0
M  V30 4195 O 471.036 -1.66904 -0.738193 0
M  V30 4196 C 471.087 -2.44346 2.66415 0
M  V30 4197 O 470.808 -1.89855 3.94825 0
M  V30 4198 C 472.309 -3.36014 2.89153 0
M  V30 4199 H 469.529 -0.394891 0.542496 0
M  V30 4200 H 472.073 -0.626214 1.94676 0
M  V30 4201 H 470.228 -3.07562 2.35552 0
M  V30 4202 H 470.642 -2.64798 4.5275 0
M  V30 4203 H 472.116 -4.12593 3.66703 0
M  V30 4204 H 472.593 -3.91859 1.98351 0
M  V30 4205 H 473.199 -2.78582 3.21359 0
M  V30 4206 N 471.514 -1.37532 -0.769588 0
M  V30 4207 C 472.739 -1.36231 -1.56384 0
M  V30 4208 C 473.164 0.0495849 -1.88035 0
M  V30 4209 O 472.522 1.02723 -1.49391 0
M  V30 4210 C 472.57 -2.20986 -2.84952 0
M  V30 4211 O 471.674 -1.61597 -3.79421 0
M  V30 4212 H 471.015 -0.465387 -0.473615 0
M  V30 4213 H 473.545 -1.81085 -0.952342 0
M  V30 4214 H 473.555 -2.34277 -3.34034 0
M  V30 4215 H 472.23 -3.23612 -2.61243 0
M  V30 4216 H 470.807 -1.57359 -3.38072 0
M  V30 4217 N 472.992 0.995999 -1.22138 0
M  V30 4218 C 473.955 2.06711 -0.990109 0
M  V30 4219 C 474.955 1.60744 0.0422978 0
M  V30 4220 O 476.145 1.73095 -0.195895 0
M  V30 4221 C 473.277 3.37288 -0.49491 0
M  V30 4222 H 474.47 2.28661 -1.94047 0
M  V30 4223 H 472.023 1.16711 -1.03963 0
M  V30 4224 H 472.758 3.21022 0.459948 0
M  V30 4225 H 472.543 3.71986 -1.23971 0
M  V30 4226 H 474.033 4.16103 -0.353253 0
M  V30 4227 N 474.47 1.03057 1.19235 0
M  V30 4228 C 475.881 0.757449 1.70645 0
M  V30 4229 C 476.232 -0.722735 1.82403 0
M  V30 4230 O 475.357 -1.56325 1.49638 0
M  V30 4231 C 475.952 1.36833 3.09939 0
M  V30 4232 C 474.511 1.14375 3.58602 0
M  V30 4233 C 473.658 1.46533 2.35422 0
M  V30 4234 H 476.609 1.19828 1.04052 0
M  V30 4235 H 476.63 0.766184 3.72706 0
M  V30 4236 H 476.142 2.44562 3.01349 0
M  V30 4237 H 474.243 0.0847542 3.72504 0
M  V30 4238 H 474.356 1.83366 4.42622 0
M  V30 4239 H 472.72 0.884712 2.38841 0
M  V30 4240 H 473.503 2.55349 2.2946 0
M  V30 4241 N 475.948 -1.35272 0.808662 0
M  V30 4242 C 477.225 -1.93077 0.313181 0
M  V30 4243 C 477.605 -1.73847 -1.19752 0
M  V30 4244 O 476.953 -1.1087 -1.998 0
M  V30 4245 C 477.163 -3.41347 0.726859 0
M  V30 4246 C 478.511 -4.18493 0.717532 0
M  V30 4247 O 479.535 -3.4987 0.668535 0
M  V30 4248 O 478.394 -5.40937 0.777779 0
M  V30 4249 H 475.488 -0.822885 0.0824018 0
M  V30 4250 H 478.034 -1.44335 0.892499 0
M  V30 4251 H 476.806 -3.49082 1.76797 0
M  V30 4252 H 476.429 -3.97411 0.122461 0
M  V30 4253 N 477.426 -0.562348 -1.47226 0
M  V30 4254 C 478.654 -0.0452275 -2.06851 0
M  V30 4255 C 479.069 1.25078 -1.41424 0
M  V30 4256 O 478.426 1.75156 -0.512513 0
M  V30 4257 C 478.477 0.148674 -3.61194 0
M  V30 4258 O 478.198 -1.09602 -4.24169 0
M  V30 4259 C 479.699 0.702488 -4.37699 0
M  V30 4260 H 476.919 -0.0481775 -0.669268 0
M  V30 4261 H 479.463 -0.777223 -1.89155 0
M  V30 4262 H 477.618 0.830817 -3.78386 0
M  V30 4263 H 478.032 -0.896982 -5.16773 0
M  V30 4264 H 479.506 0.78743 -5.46355 0
M  V30 4265 H 479.983 1.71493 -4.04335 0
M  V30 4266 H 480.589 0.0558772 -4.25263 0
M  V30 4267 N 478.904 1.54736 -0.299062 0
M  V30 4268 C 480.32 1.59507 0.0543849 0
M  V30 4269 C 480.52 1.31606 1.52585 0
M  V30 4270 O 479.576 1.08853 2.27832 0
M  V30 4271 C 480.889 2.98751 -0.34181 0
M  V30 4272 C 482.437 3.1165 -0.290414 0
M  V30 4273 C 482.912 4.53199 -0.661402 0
M  V30 4274 N 484.403 4.59114 -0.613863 0
M  V30 4275 C 485.138 5.66709 -0.873417 0
M  V30 4276 N 484.634 6.82349 -1.19884 0
M  V30 4277 N 486.427 5.56369 -0.800608 0
M  V30 4278 H 478.578 1.71133 -1.25806 0
M  V30 4279 H 480.841 0.799186 -0.509908 0
M  V30 4280 H 480.547 3.24085 -1.36608 0
M  V30 4281 H 480.421 3.75961 0.305508 0
M  V30 4282 H 482.808 2.86066 0.724605 0
M  V30 4283 H 482.889 2.366 -0.972327 0
M  V30 4284 H 482.533 4.79513 -1.67422 0
M  V30 4285 H 482.463 5.26583 0.0425612 0
M  V30 4286 H 484.954 3.76053 -0.3732 0
M  V30 4287 H 485.267 7.60326 -1.38291 0
M  V30 4288 H 483.612 6.83906 -1.23685 0
M  V30 4289 H 486.803 4.64904 -0.546045 0
M  V30 4290 H 486.976 6.40139 -1.00626 0
M  V30 4291 N 480.382 0.0267497 1.57577 0
M  V30 4292 C 481.793 -0.512413 1.79531 0
M  V30 4293 C 482.144 -1.72391 0.936791 0
M  V30 4294 O 481.269 -2.15903 0.146543 0
M  V30 4295 C 481.864 -0.936378 3.25603 0
M  V30 4296 C 480.423 -1.42067 3.4856 0
M  V30 4297 C 479.57 -0.384278 2.74624 0
M  V30 4298 H 482.521 0.252797 1.56674 0
M  V30 4299 H 482.542 -1.80088 3.35184 0
M  V30 4300 H 482.054 -0.0544332 3.88062 0
M  V30 4301 H 480.155 -2.32262 2.9135 0
M  V30 4302 H 480.268 -1.42968 4.57271 0
M  V30 4303 H 478.632 -0.851855 2.40032 0
M  V30 4304 H 479.415 0.489159 3.39797 0
M  V30 4305 N 481.861 -1.55662 -0.24637 0
M  V30 4306 C 482.824 -1.89558 -1.28842 0
M  V30 4307 C 483.824 -0.772082 -1.41052 0
M  V30 4308 O 485.014 -1.04007 -1.39743 0
M  V30 4309 C 482.146 -2.12449 -2.66605 0
M  V30 4310 H 483.339 -2.82735 -1.00004 0
M  V30 4311 H 480.892 -1.48562 -0.485684 0
M  V30 4312 H 481.627 -1.21742 -3.00582 0
M  V30 4313 H 481.412 -2.94273 -2.59125 0
M  V30 4314 H 482.902 -2.39854 -3.41847 0
M  V30 4315 N 483.339 0.512053 -1.4905 0
M  V30 4316 C 484.75 1.09376 -1.51307 0
M  V30 4317 C 485.101 1.94 -0.292971 0
M  V30 4318 O 484.226 2.07965 0.598277 0
M  V30 4319 C 484.821 1.99031 -2.74176 0
M  V30 4320 C 483.38 2.52385 -2.79247 0
M  V30 4321 C 482.527 1.29749 -2.45073 0
M  V30 4322 H 485.478 0.296467 -1.55906 0
M  V30 4323 H 485.499 2.83569 -2.53711 0
M  V30 4324 H 485.011 1.37412 -3.62959 0
M  V30 4325 H 483.112 3.17673 -1.94716 0
M  V30 4326 H 483.225 2.90293 -3.81139 0
M  V30 4327 H 481.589 1.61912 -1.96612 0
M  V30 4328 H 482.372 0.698555 -3.36118 0
M  V30 4329 N 484.817 1.37938 0.762283 0
M  V30 4330 C 486.065 1.33404 1.51815 0
M  V30 4331 C 486.386 -0.0780975 1.94844 0
M  V30 4332 O 485.656 -1.02405 1.67003 0
M  V30 4333 H 484.236 0.490839 0.563104 0
M  V30 4334 H 486.898 1.72527 0.906669 0
M  V30 4335 H 485.994 1.97926 2.41313 0
M  V30 4336 N 486.295 -0.989507 1.22664 0
M  V30 4337 C 487.52 -1.77031 1.08051 0
M  V30 4338 C 487.945 -1.84535 -0.364483 0
M  V30 4339 O 487.303 -1.3003 -1.2634 0
M  V30 4340 C 487.351 -3.18 1.70024 0
M  V30 4341 O 486.455 -4.01161 0.956216 0
M  V30 4342 H 485.796 -0.545008 0.379292 0
M  V30 4343 H 488.326 -1.24277 1.62531 0
M  V30 4344 H 488.336 -3.68616 1.74888 0
M  V30 4345 H 487.011 -3.11853 2.75174 0
M  V30 4346 H 485.588 -3.59687 0.98384 0
M  V30 4347 N 487.773 -1.03688 -1.18687 0
M  V30 4348 C 489.001 -0.757918 -1.92518 0
M  V30 4349 C 489.416 0.684398 -1.75959 0
M  V30 4350 O 488.773 1.46617 -1.08673 0
M  V30 4351 C 488.824 -1.10985 -3.44042 0
M  V30 4352 O 488.545 -2.49554 -3.60076 0
M  V30 4353 C 490.046 -0.854844 -4.3498 0
M  V30 4354 H 487.266 -0.276699 -0.611293 0
M  V30 4355 H 489.81 -1.38352 -1.50595 0
M  V30 4356 H 487.965 -0.529279 -3.83767 0
M  V30 4357 H 488.379 -2.6291 -4.53849 0
M  V30 4358 H 489.853 -1.15098 -5.39867 0
M  V30 4359 H 490.33 0.210507 -4.38695 0
M  V30 4360 H 490.936 -1.41853 -4.00946 0
M  V30 4361 N 489.251 1.34841 -0.815825 0
M  V30 4362 C 490.214 2.27959 -0.238185 0
M  V30 4363 C 491.214 1.49983 0.579816 0
M  V30 4364 O 492.404 1.69617 0.396953 0
M  V30 4365 C 489.536 3.34314 0.666876 0
M  V30 4366 H 490.729 2.80558 -1.05958 0
M  V30 4367 H 488.282 1.44852 -0.587156 0
M  V30 4368 H 489.017 2.86916 1.5116 0
M  V30 4369 H 488.802 3.92014 0.0819106 0
M  V30 4370 H 490.292 4.0379 1.06506 0
M  V30 4371 N 490.729 0.570148 1.46925 0
M  V30 4372 C 492.14 0.1402 1.86173 0
M  V30 4373 C 492.491 -1.29347 1.47526 0
M  V30 4374 O 491.616 -1.97508 0.884292 0
M  V30 4375 C 492.211 0.247661 3.37894 0
M  V30 4376 C 490.77 -0.127332 3.76185 0
M  V30 4377 C 489.917 0.589349 2.70965 0
M  V30 4378 H 492.868 0.779117 1.38259 0
M  V30 4379 H 492.889 -0.530341 3.76786 0
M  V30 4380 H 492.401 1.29121 3.65991 0
M  V30 4381 H 490.502 -1.17149 3.53704 0
M  V30 4382 H 490.615 0.240238 4.78497 0
M  V30 4383 H 488.979 0.0309824 2.54681 0
M  V30 4384 H 489.762 1.6343 3.01903 0
M  V30 4385 N 492.207 -1.54576 0.307264 0
M  V30 4386 C 493.618 -1.8579 -0.184121 0
M  V30 4387 C 493.969 -1.22914 -1.52927 0
M  V30 4388 O 493.094 -0.529126 -2.09831 0
M  V30 4389 C 493.689 -3.37081 -0.340862 0
M  V30 4390 C 492.248 -3.68304 -0.776465 0
M  V30 4391 C 491.395 -2.77076 0.111503 0
M  V30 4392 H 494.346 -1.49656 0.528078 0
M  V30 4393 H 494.367 -3.61922 -1.17443 0
M  V30 4394 H 493.879 -3.82815 0.638309 0
M  V30 4395 H 491.98 -3.28092 -1.76596 0
M  V30 4396 H 492.093 -4.75434 -0.591512 0
M  V30 4397 H 490.457 -2.51374 -0.410256 0
M  V30 4398 H 491.24 -3.25632 1.08714 0
M  V30 4399 N 493.685 -0.035106 -1.57561 0
M  V30 4400 C 494.648 0.929819 -2.09492 0
M  V30 4401 C 495.648 1.25026 -1.01119 0
M  V30 4402 O 496.838 1.18961 -1.27255 0
M  V30 4403 C 493.97 2.24457 -2.56577 0
M  V30 4404 H 495.163 0.479935 -2.96035 0
M  V30 4405 H 492.716 0.213033 -1.54841 0
M  V30 4406 H 493.451 2.74061 -1.73382 0
M  V30 4407 H 493.236 2.02508 -3.35757 0
M  V30 4408 H 494.726 2.93607 -2.96959 0
M  V30 4409 N 495.163 1.55791 0.238111 0
M  V30 4410 C 496.113 1.87444 1.29803 0
M  V30 4411 C 497.097 0.736043 1.43078 0
M  V30 4412 O 498.289 0.998146 1.46171 0
M  V30 4413 C 495.418 2.18028 2.65177 0
M  V30 4414 C 494.504 3.38217 2.55871 0
M  V30 4415 N 494.895 4.57264 2.16202 0
M  V30 4416 C 493.193 3.41502 2.86866 0
M  V30 4417 C 493.894 5.3941 2.17744 0
M  V30 4418 N 492.87 4.78695 2.57589 0
M  V30 4419 H 496.672 2.7701 0.981965 0
M  V30 4420 H 494.186 1.56135 0.44672 0
M  V30 4421 H 496.183 2.38873 3.4168 0
M  V30 4422 H 494.843 1.29765 2.97643 0
M  V30 4423 H 495.854 4.82727 1.87602 0
M  V30 4424 H 492.531 2.63536 3.23813 0
M  V30 4425 H 493.921 6.44671 1.89339 0
M  V30 4426 N 496.642 -0.504142 1.49319 0
M  V30 4427 C 497.89 -1.25598 1.58334 0
M  V30 4428 C 498.211 -1.93114 0.270538 0
M  V30 4429 O 497.481 -1.82585 -0.709891 0
M  V30 4430 H 496.061 -0.466571 0.58337 0
M  V30 4431 H 498.723 -0.584547 1.85928 0
M  V30 4432 H 497.819 -2.02159 2.37778 0
M  V30 4433 N 498.12 -1.38341 -0.754957 0
M  V30 4434 C 499.366 -1.34672 -1.51628 0
M  V30 4435 C 499.699 0.0636036 -1.94096 0
M  V30 4436 O 498.974 1.0245 -1.6533 0
M  V30 4437 C 499.257 -2.30116 -2.76981 0
M  V30 4438 C 499.11 -3.80003 -2.4066 0
M  V30 4439 C 500.429 -2.23715 -3.78998 0
M  V30 4440 H 497.548 -0.490517 -0.550056 0
M  V30 4441 H 500.19 -1.69178 -0.864807 0
M  V30 4442 H 498.34 -2.00821 -3.3257 0
M  V30 4443 H 500.012 -4.19966 -1.90856 0
M  V30 4444 H 498.255 -3.97751 -1.73137 0
M  V30 4445 H 498.926 -4.42244 -3.30339 0
M  V30 4446 H 501.402 -2.49574 -3.32945 0
M  V30 4447 H 500.278 -2.9261 -4.64403 0
M  V30 4448 H 500.539 -1.23554 -4.24484 0
M  V30 4449 N 499.598 0.982988 -1.23187 0
M  V30 4450 C 500.826 1.75921 -1.08901 0
M  V30 4451 C 501.241 1.85341 0.359719 0
M  V30 4452 O 500.598 1.33072 1.24892 0
M  V30 4453 C 500.649 3.18742 -1.70545 0
M  V30 4454 O 500.37 3.09814 -3.09753 0
M  V30 4455 C 501.871 4.1277 -1.61667 0
M  V30 4456 H 499.091 0.552166 -0.381252 0
M  V30 4457 H 501.635 1.23516 -1.62985 0
M  V30 4458 H 499.79 3.68182 -1.20501 0
M  V30 4459 H 500.204 3.99703 -3.39614 0
M  V30 4460 H 501.678 5.10697 -2.09506 0
M  V30 4461 H 502.155 4.3542 -0.575009 0
M  V30 4462 H 502.761 3.69232 -2.11064 0
M  V30 4463 N 501.076 1.04316 1.18135 0
M  V30 4464 C 502.301 0.768047 1.92655 0
M  V30 4465 C 502.726 -0.66904 1.758 0
M  V30 4466 O 502.084 -1.46372 1.06981 0
M  V30 4467 C 502.132 1.14239 3.42026 0
M  V30 4468 O 501.236 0.269333 4.1152 0
M  V30 4469 H 500.577 0.282436 0.600937 0
M  V30 4470 H 503.107 1.39367 1.49793 0
M  V30 4471 H 503.117 1.10538 3.92741 0
M  V30 4472 H 501.792 2.18928 3.53615 0
M  V30 4473 H 500.369 0.366175 3.71098 0
M  V30 4474 N 502.554 -1.34406 0.822964 0
M  V30 4475 C 503.517 -2.2783 0.250271 0
M  V30 4476 C 504.517 -1.50288 -0.571854 0
M  V30 4477 O 505.707 -1.69825 -0.387952 0
M  V30 4478 C 502.839 -3.34663 -0.649137 0
M  V30 4479 H 504.032 -2.79992 1.07444 0
M  V30 4480 H 501.585 -1.44539 0.594829 0
M  V30 4481 H 502.32 -2.87714 -1.49637 0
M  V30 4482 H 502.105 -3.92052 -0.0611199 0
M  V30 4483 H 503.595 -4.04349 -1.04363 0
M  V30 4484 N 504.032 -0.577932 -1.46621 0
M  V30 4485 C 505.443 -0.150071 -1.86096 0
M  V30 4486 C 505.794 1.28563 -1.48209 0
M  V30 4487 O 504.919 1.97036 -0.894754 0
M  V30 4488 C 505.514 -0.265576 -3.37758 0
M  V30 4489 C 504.073 0.10738 -3.76247 0
M  V30 4490 C 503.22 -0.603711 -2.70649 0
M  V30 4491 H 506.171 -0.786438 -1.37844 0
M  V30 4492 H 506.192 0.510352 -3.77062 0
M  V30 4493 H 505.704 -1.3106 -3.65301 0
M  V30 4494 H 503.805 1.15272 -3.54321 0
M  V30 4495 H 503.918 -0.26561 -4.78363 0
M  V30 4496 H 502.282 -0.0444884 -2.54661 0
M  V30 4497 H 503.065 -1.65029 -3.01032 0
M  V30 4498 N 505.51 1.54411 -0.315457 0
M  V30 4499 C 506.787 1.92562 0.343398 0
M  V30 4500 C 507.167 1.24423 1.70535 0
M  V30 4501 O 506.515 0.385051 2.25232 0
M  V30 4502 C 506.725 3.46168 0.443687 0
M  V30 4503 C 508.073 4.18659 0.707783 0
M  V30 4504 O 509.097 3.52281 0.52693 0
M  V30 4505 O 507.956 5.36198 1.05612 0
M  V30 4506 H 505.05 0.80379 0.194552 0
M  V30 4507 H 507.596 1.65738 -0.364577 0
M  V30 4508 H 506.368 3.8792 -0.513172 0
M  V30 4509 H 505.991 3.79073 1.19956 0
M  V30 4510 N 506.988 0.0434614 1.5754 0
M  V30 4511 C 508.216 -0.641835 1.96693 0
M  V30 4512 C 508.631 -1.64832 0.920652 0
M  V30 4513 O 507.988 -1.82247 -0.095993 0
M  V30 4514 C 508.039 -1.33557 3.35924 0
M  V30 4515 O 507.76 -0.369403 4.3654 0
M  V30 4516 C 509.261 -2.11135 3.89791 0
M  V30 4517 H 506.481 -0.176013 0.647503 0
M  V30 4518 H 509.025 0.107478 2.04217 0
M  V30 4519 H 507.18 -2.03617 3.29574 0
M  V30 4520 H 507.594 -0.863674 5.1734 0
M  V30 4521 H 509.068 -2.55107 4.89514 0
M  V30 4522 H 509.545 -2.95634 3.24803 0
M  V30 4523 H 510.151 -1.46002 3.99454 0
M  V30 4524 N 508.466 -1.55915 -0.229846 0
M  V30 4525 C 509.882 -1.48721 -0.579166 0
M  V30 4526 C 510.082 -0.736976 -1.87539 0
M  V30 4527 O 509.138 -0.273258 -2.51017 0
M  V30 4528 C 510.451 -2.9323 -0.666082 0
M  V30 4529 C 511.999 -3.03701 -0.757267 0
M  V30 4530 C 512.474 -4.49552 -0.8756 0
M  V30 4531 N 513.965 -4.53561 -0.940035 0
M  V30 4532 C 514.7 -5.63683 -1.05116 0
M  V30 4533 N 514.196 -6.83576 -1.12675 0
M  V30 4534 N 515.989 -5.51516 -1.08565 0
M  V30 4535 H 508.14 -2.03123 0.620857 0
M  V30 4536 H 510.403 -0.922898 0.21671 0
M  V30 4537 H 510.109 -3.51032 0.21664 0
M  V30 4538 H 509.983 -3.44668 -1.53243 0
M  V30 4539 H 512.37 -2.45969 -1.63043 0
M  V30 4540 H 512.451 -2.55446 0.134583 0
M  V30 4541 H 512.095 -5.079 -0.00692351 0
M  V30 4542 H 512.025 -4.95506 -1.78274 0
M  V30 4543 H 514.516 -3.67215 -0.892269 0
M  V30 4544 H 514.829 -7.63251 -1.21109 0
M  V30 4545 H 513.174 -6.86303 -1.09603 0
M  V30 4546 H 516.365 -4.5678 -1.02319 0
M  V30 4547 H 516.538 -6.37372 -1.1688 0
M  V30 4548 N 509.944 0.496216 -1.49584 0
M  V30 4549 C 511.355 1.07765 -1.52459 0
M  V30 4550 C 511.706 1.93679 -0.31353 0
M  V30 4551 O 510.831 2.08588 0.576186 0
M  V30 4552 C 511.426 1.96111 -2.76271 0
M  V30 4553 C 509.985 2.49409 -2.81908 0
M  V30 4554 C 509.132 1.27142 -2.46435 0
M  V30 4555 H 512.083 0.279914 -1.56212 0
M  V30 4556 H 512.104 2.80862 -2.56704 0
M  V30 4557 H 511.616 1.33555 -3.64396 0
M  V30 4558 H 509.717 3.1559 -1.98074 0
M  V30 4559 H 509.83 2.86234 -3.84196 0
M  V30 4560 H 508.194 1.59818 -1.98319 0
M  V30 4561 H 508.977 0.662866 -3.3684 0
M  V30 4562 N 511.423 1.38739 0.74761 0
M  V30 4563 C 512.386 1.36241 1.84312 0
M  V30 4564 C 513.386 0.261811 1.58654 0
M  V30 4565 O 514.576 0.519031 1.66288 0
M  V30 4566 C 511.708 1.12253 3.21888 0
M  V30 4567 H 512.901 2.33712 1.87933 0
M  V30 4568 H 510.454 1.2412 0.949946 0
M  V30 4569 H 511.189 0.154133 3.23934 0
M  V30 4570 H 510.974 1.91943 3.41907 0
M  V30 4571 H 512.464 1.13215 4.0196 0
M  V30 4572 N 512.901 -0.976442 1.23707 0
M  V30 4573 C 514.312 -1.53284 1.06587 0
M  V30 4574 C 514.663 -1.92765 -0.365526 0
M  V30 4575 O 513.788 -1.7645 -1.25277 0
M  V30 4576 C 514.383 -2.78548 1.92864 0
M  V30 4577 C 512.942 -3.30574 1.79994 0
M  V30 4578 C 512.089 -2.03538 1.88328 0
M  V30 4579 H 515.04 -0.795692 1.37311 0
M  V30 4580 H 515.061 -3.5155 1.45577 0
M  V30 4581 H 514.573 -2.49782 2.97037 0
M  V30 4582 H 512.674 -3.64211 0.786202 0
M  V30 4583 H 512.787 -4.00065 2.636 0
M  V30 4584 H 511.151 -2.17853 1.31954 0
M  V30 4585 H 511.934 -1.77149 2.94063 0
M  V30 4586 N 514.379 -1.04941 -1.1758 0
M  V30 4587 C 515.627 -0.756492 -1.87408 0
M  V30 4588 C 515.948 0.718478 -1.81281 0
M  V30 4589 O 515.218 1.519 -1.23706 0
M  V30 4590 H 513.798 -0.276841 -0.693807 0
M  V30 4591 H 516.46 -1.32803 -1.42652 0
M  V30 4592 H 515.556 -1.06918 -2.93215 0
M  V30 4593 N 515.857 1.33968 -0.830081 0
M  V30 4594 C 517.082 2.02813 -0.433796 0
M  V30 4595 C 517.507 1.62076 0.954614 0
M  V30 4596 O 516.865 0.808955 1.62252 0
M  V30 4597 C 516.913 3.56348 -0.552115 0
M  V30 4598 O 516.017 4.10202 0.425191 0
M  V30 4599 H 515.358 0.639817 -0.177567 0
M  V30 4600 H 517.888 1.7106 -1.12248 0
M  V30 4601 H 517.898 4.05722 -0.430513 0
M  V30 4602 H 516.573 3.85344 -1.56471 0
M  V30 4603 H 515.15 3.71979 0.261878 0
M  V30 4604 N 517.335 0.585699 1.46312 0
M  V30 4605 C 518.563 0.0781299 2.06752 0
M  V30 4606 C 518.978 -1.22812 1.43396 0
M  V30 4607 O 518.335 -1.74318 0.540314 0
M  V30 4608 C 518.386 -0.0911927 3.61385 0
M  V30 4609 O 518.107 1.16336 4.22371 0
M  V30 4610 C 519.608 -0.632765 4.38761 0
M  V30 4611 H 516.828 0.0588188 0.668417 0
M  V30 4612 H 519.372 0.807218 1.87894 0
M  V30 4613 H 517.527 -0.770514 3.7966 0
M  V30 4614 H 517.941 0.979082 5.15281 0
M  V30 4615 H 519.415 -0.70041 5.47538 0
M  V30 4616 H 519.892 -1.65039 4.07012 0
M  V30 4617 H 520.498 0.0117856 4.25298 0
M  V30 4618 N 518.813 -1.54241 0.323641 0
M  V30 4619 C 519.776 -2.22997 -0.529602 0
M  V30 4620 C 520.776 -1.22345 -1.04347 0
M  V30 4621 O 521.966 -1.46924 -0.935889 0
M  V30 4622 C 519.098 -2.93409 -1.73562 0
M  V30 4623 H 520.291 -2.99815 0.0714518 0
M  V30 4624 H 517.844 -1.56121 0.0747258 0
M  V30 4625 H 518.579 -2.20729 -2.37591 0
M  V30 4626 H 518.364 -3.67217 -1.37456 0
M  V30 4627 H 519.854 -3.45794 -2.34128 0
M  V30 4628 N 520.291 -0.0518155 -1.57515 0
M  V30 4629 C 521.702 0.483787 -1.80323 0
M  V30 4630 C 522.053 1.70879 -0.964099 0
M  V30 4631 O 521.178 2.15643 -0.180872 0
M  V30 4632 C 521.773 0.884459 -3.27052 0
M  V30 4633 C 520.332 1.36504 -3.50776 0
M  V30 4634 C 519.479 0.340539 -2.75201 0
M  V30 4635 H 522.43 -0.277691 -1.56252 0
M  V30 4636 H 522.451 1.74733 -3.38007 0
M  V30 4637 H 521.963 -0.00731093 -3.88099 0
M  V30 4638 H 520.064 2.27598 -2.95009 0
M  V30 4639 H 520.177 1.35675 -4.59488 0
M  V30 4640 H 518.541 0.81356 -2.41357 0
M  V30 4641 H 519.324 -0.543156 -3.38976 0
M  V30 4642 N 521.769 1.56035 0.221574 0
M  V30 4643 C 523.18 1.69229 0.788567 0
M  V30 4644 C 523.531 0.653814 1.84986 0
M  V30 4645 O 522.656 -0.195065 2.15519 0
M  V30 4646 C 523.251 3.06809 1.43713 0
M  V30 4647 C 521.81 3.21858 1.95152 0
M  V30 4648 C 520.957 2.65155 0.811685 0
M  V30 4649 H 523.908 1.587 -0.00307894 0
M  V30 4650 H 523.929 3.02666 2.30594 0
M  V30 4651 H 523.441 3.82369 0.664475 0
M  V30 4652 H 521.542 2.51167 2.7522 0
M  V30 4653 H 521.655 4.29073 2.1315 0
M  V30 4654 H 520.019 2.23635 1.21899 0
M  V30 4655 H 520.802 3.43261 0.0516987 0
M  V30 4656 N 523.247 -0.488276 1.49845 0
M  V30 4657 C 524.21 -1.57069 1.66919 0
M  V30 4658 C 525.21 -1.51445 0.540479 0
M  V30 4659 O 526.4 -1.5437 0.807188 0
M  V30 4660 C 523.532 -2.96718 1.67844 0
M  V30 4661 H 524.725 -1.43254 2.63474 0
M  V30 4662 H 522.278 -0.713435 1.39068 0
M  V30 4663 H 523.013 -3.15996 0.7292 0
M  V30 4664 H 522.798 -3.02208 2.49826 0
M  V30 4665 H 524.288 -3.75335 1.83066 0
M  V30 4666 N 524.725 -1.39134 -0.740242 0
M  V30 4667 C 525.675 -1.33928 -1.84519 0
M  V30 4668 C 526.659 -0.221097 -1.59374 0
M  V30 4669 O 527.851 -0.458195 -1.70967 0
M  V30 4670 C 524.98 -1.17991 -3.22387 0
M  V30 4671 C 524.066 -2.34488 -3.53378 0
M  V30 4672 N 524.457 -3.59954 -3.5534 0
M  V30 4673 C 522.755 -2.27331 -3.83714 0
M  V30 4674 C 523.456 -4.36962 -3.83978 0
M  V30 4675 N 522.432 -3.66482 -4.01487 0
M  V30 4676 H 526.234 -2.28907 -1.84333 0
M  V30 4677 H 523.748 -1.32555 -0.938237 0
M  V30 4678 H 525.745 -1.12345 -4.01478 0
M  V30 4679 H 524.405 -0.23957 -3.23815 0
M  V30 4680 H 525.416 -3.93448 -3.36778 0
M  V30 4681 H 522.093 -1.41531 -3.92779 0
M  V30 4682 H 523.483 -5.45692 -3.92008 0
M  V30 4683 N 526.204 0.969867 -1.24223 0
M  V30 4684 C 527.452 1.70918 -1.0785 0
M  V30 4685 C 527.773 1.91186 0.383763 0
M  V30 4686 O 527.043 1.48806 1.27411 0
M  V30 4687 H 525.623 0.633334 -0.396103 0
M  V30 4688 H 528.285 1.16689 -1.56108 0
M  V30 4689 H 527.381 2.69455 -1.57482 0
M  V30 4690 N 527.682 1.05563 1.17022 0
M  V30 4691 C 528.928 0.769074 1.87652 0
M  V30 4692 C 529.261 -0.702326 1.81055 0
M  V30 4693 O 528.536 -1.5139 1.22112 0
M  V30 4694 C 528.819 1.25492 3.37526 0
M  V30 4695 C 528.672 2.78953 3.52853 0
M  V30 4696 C 529.991 0.856919 4.31677 0
M  V30 4697 H 527.11 0.280854 0.681388 0
M  V30 4698 H 529.752 1.31027 1.37593 0
M  V30 4699 H 527.902 0.794516 3.80289 0
M  V30 4700 H 529.574 3.33146 3.19079 0
M  V30 4701 H 527.817 3.18046 2.95007 0
M  V30 4702 H 528.488 3.08011 4.58076 0
M  V30 4703 H 530.964 1.25334 3.96775 0
M  V30 4704 H 529.84 1.22443 5.35069 0
M  V30 4705 H 530.101 -0.238787 4.41455 0
M  V30 4706 N 529.16 -1.33526 0.837174 0
M  V30 4707 C 530.388 -2.02047 0.445494 0
M  V30 4708 C 530.803 -1.62995 -0.952788 0
M  V30 4709 O 530.16 -0.842447 -1.61892 0
M  V30 4710 C 530.211 -3.57221 0.554577 0
M  V30 4711 O 529.932 -3.94863 1.89776 0
M  V30 4712 C 531.433 -4.43012 0.159634 0
M  V30 4713 H 528.653 -0.647221 0.177048 0
M  V30 4714 H 531.197 -1.70492 1.12928 0
M  V30 4715 H 529.352 -3.87315 -0.0812781 0
M  V30 4716 H 529.766 -4.89569 1.88208 0
M  V30 4717 H 531.24 -5.51253 0.28701 0
M  V30 4718 H 531.717 -4.29916 -0.898289 0
M  V30 4719 H 532.323 -4.18274 0.769855 0
M  V30 4720 N 530.638 -0.59345 -1.46 0
M  V30 4721 C 531.863 -0.0872365 -2.07216 0
M  V30 4722 C 532.288 1.2131 -1.43755 0
M  V30 4723 O 531.646 1.73528 -0.525152 0
M  V30 4724 C 531.694 0.0538197 -3.6056 0
M  V30 4725 O 530.798 1.10765 -3.97247 0
M  V30 4726 H 530.139 -0.0676598 -0.660544 0
M  V30 4727 H 532.669 -0.819445 -1.87473 0
M  V30 4728 H 532.679 0.256567 -4.07193 0
M  V30 4729 H 531.354 -0.895739 -4.0614 0
M  V30 4730 H 529.931 0.882501 -3.62307 0
M  V30 4731 N 532.116 1.54067 -0.331816 0
M  V30 4732 C 533.079 2.23275 0.517768 0
M  V30 4733 C 534.079 1.22897 1.03697 0
M  V30 4734 O 535.269 1.47419 0.928084 0
M  V30 4735 C 532.401 2.94326 1.72004 0
M  V30 4736 H 533.594 2.99773 -0.0873507 0
M  V30 4737 H 531.147 1.56079 -0.0830042 0
M  V30 4738 H 531.882 2.21986 2.36417 0
M  V30 4739 H 531.667 3.67941 1.35507 0
M  V30 4740 H 533.157 3.47031 2.32291 0
M  V30 4741 N 533.594 0.0601682 1.57485 0
M  V30 4742 C 535.005 -0.474217 1.80577 0
M  V30 4743 C 535.356 -1.70365 0.973147 0
M  V30 4744 O 534.481 -2.15544 0.192306 0
M  V30 4745 C 535.076 -0.867102 3.27516 0
M  V30 4746 C 533.635 -1.34642 3.51495 0
M  V30 4747 C 532.782 -0.32594 2.75378 0
M  V30 4748 H 535.733 0.285973 1.56102 0
M  V30 4749 H 535.754 -1.72938 3.38929 0
M  V30 4750 H 535.266 0.0278927 3.8809 0
M  V30 4751 H 533.367 -2.2603 2.96212 0
M  V30 4752 H 533.48 -1.33237 4.60201 0
M  V30 4753 H 531.844 -0.800749 2.41785 0
M  V30 4754 H 532.627 0.561125 3.38683 0
M  V30 4755 N 535.072 -1.5615 -0.213296 0
M  V30 4756 C 536.349 -1.70349 -0.961281 0
M  V30 4757 C 536.729 -0.609791 -2.02101 0
M  V30 4758 O 536.077 0.381987 -2.25285 0
M  V30 4759 C 536.287 -3.11982 -1.56424 0
M  V30 4760 C 537.635 -3.71649 -2.05334 0
M  V30 4761 O 538.659 -3.14995 -1.66302 0
M  V30 4762 O 537.518 -4.71038 -2.77102 0
M  V30 4763 H 534.612 -0.694121 -0.449582 0
M  V30 4764 H 537.158 -1.68464 -0.204426 0
M  V30 4765 H 535.93 -3.83046 -0.799457 0
M  V30 4766 H 535.553 -3.18019 -2.38641 0
M  V30 4767 N 536.55 0.480323 -1.50102 0
M  V30 4768 C 537.778 1.25657 -1.64371 0
M  V30 4769 C 538.193 1.86011 -0.323316 0
M  V30 4770 O 537.55 1.68803 0.693682 0
M  V30 4771 C 537.601 2.37197 -2.728 0
M  V30 4772 O 537.322 1.7932 -3.9972 0
M  V30 4773 C 538.823 3.2823 -2.9796 0
M  V30 4774 H 536.043 0.380369 -0.552775 0
M  V30 4775 H 538.587 0.574379 -1.96268 0
M  V30 4776 H 536.742 3.01208 -2.43623 0
M  V30 4777 H 537.156 2.52701 -4.59611 0
M  V30 4778 H 538.63 4.02725 -3.77513 0
M  V30 4779 H 539.107 3.86462 -2.08671 0
M  V30 4780 H 539.713 2.69964 -3.28633 0
M  V30 4781 N 538.028 1.39524 0.732853 0
M  V30 4782 C 539.444 1.21176 1.03868 0
M  V30 4783 C 539.644 0.0748448 2.01361 0
M  V30 4784 O 538.7 -0.57281 2.45917 0
M  V30 4785 C 540.013 2.54667 1.59892 0
M  V30 4786 C 541.561 2.6153 1.71962 0
M  V30 4787 C 542.036 3.95248 2.31394 0
M  V30 4788 N 543.527 3.96899 2.38801 0
M  V30 4789 C 544.262 4.97138 2.85729 0
M  V30 4790 N 543.758 6.07775 3.32537 0
M  V30 4791 N 545.551 4.84516 2.84957 0
M  V30 4792 H 537.702 2.12225 0.086304 0
M  V30 4793 H 539.965 0.942614 0.100907 0
M  V30 4794 H 539.671 3.38423 0.95721 0
M  V30 4795 H 539.545 2.74538 2.58668 0
M  V30 4796 H 541.932 1.78156 2.35254 0
M  V30 4797 H 542.013 2.45507 0.718327 0
M  V30 4798 H 541.657 4.79054 1.68729 0
M  V30 4799 H 541.587 4.08593 3.32204 0
M  V30 4800 H 544.078 3.16998 2.05719 0
M  V30 4801 H 544.391 6.8017 3.66862 0
M  V30 4802 H 542.736 6.11366 3.30541 0
M  V30 4803 H 545.927 3.97185 2.47713 0
M  V30 4804 H 546.1 5.62783 3.21215 0
M  V30 4805 N 539.506 -0.963266 1.24736 0
M  V30 4806 C 540.917 -1.52145 1.08207 0
M  V30 4807 C 541.268 -1.93142 -0.345061 0
M  V30 4808 O 540.393 -1.77769 -1.23399 0
M  V30 4809 C 540.988 -2.76486 1.95808 0
M  V30 4810 C 539.547 -3.28646 1.8349 0
M  V30 4811 C 538.694 -2.01529 1.90476 0
M  V30 4812 H 541.645 -0.781083 1.38148 0
M  V30 4813 H 541.666 -3.49986 1.49297 0
M  V30 4814 H 541.178 -2.46617 2.99669 0
M  V30 4815 H 539.279 -3.63357 0.824787 0
M  V30 4816 H 539.392 -3.97246 2.67829 0
M  V30 4817 H 537.756 -2.16442 1.34258 0
M  V30 4818 H 538.539 -1.7402 2.95926 0
M  V30 4819 N 540.985 -1.06182 -1.16461 0
M  V30 4820 C 541.948 -0.675723 -2.19013 0
M  V30 4821 C 542.948 0.277963 -1.58379 0
M  V30 4822 O 544.138 0.0604962 -1.74095 0
M  V30 4823 C 541.27 0.00591459 -3.40899 0
M  V30 4824 H 542.463 -1.58353 -2.54685 0
M  V30 4825 H 540.016 -0.856908 -1.30716 0
M  V30 4826 H 540.751 0.92652 -3.10783 0
M  V30 4827 H 540.536 -0.67984 -3.86161 0
M  V30 4828 H 542.026 0.26181 -4.16778 0
M  V30 4829 N 542.463 1.3308 -0.844243 0
M  V30 4830 C 543.874 1.7992 -0.498566 0
M  V30 4831 C 544.225 1.69808 0.982834 0
M  V30 4832 O 543.35 1.25051 1.7661 0
M  V30 4833 C 543.945 3.26677 -0.898204 0
M  V30 4834 C 542.504 3.71513 -0.604583 0
M  V30 4835 C 541.651 2.54393 -1.10362 0
M  V30 4836 H 544.602 1.20526 -1.03244 0
M  V30 4837 H 544.623 3.79918 -0.21039 0
M  V30 4838 H 544.135 3.34004 -1.97643 0
M  V30 4839 H 542.236 3.69708 0.46335 0
M  V30 4840 H 542.349 4.64755 -1.16358 0
M  V30 4841 H 540.713 2.49246 -0.524273 0
M  V30 4842 H 541.496 2.6448 -2.18873 0
M  V30 4843 N 543.941 0.601185 1.45683 0
M  V30 4844 C 545.189 0.0936957 2.01883 0
M  V30 4845 C 545.51 -1.2779 1.47291 0
M  V30 4846 O 544.78 -1.84279 0.664691 0
M  V30 4847 H 543.36 0.0316466 0.746329 0
M  V30 4848 H 546.022 0.781137 1.78562 0
M  V30 4849 H 545.118 0.0386297 3.12076 0
M  V30 4850 N 545.419 -1.53889 0.339982 0
M  V30 4851 C 546.644 -2.05741 -0.261798 0
M  V30 4852 C 547.069 -1.21354 -1.43718 0
M  V30 4853 O 546.427 -0.22645 -1.7988 0
M  V30 4854 C 546.475 -3.54542 -0.658228 0
M  V30 4855 O 545.579 -3.7302 -1.75869 0
M  V30 4856 H 544.92 -0.662529 -0.0441672 0
M  V30 4857 H 547.45 -1.98568 0.493161 0
M  V30 4858 H 547.46 -3.9711 -0.936368 0
M  V30 4859 H 546.135 -4.15412 0.201358 0
M  V30 4860 H 544.712 -3.42355 -1.47809 0
M  V30 4861 N 546.897 -0.0685191 -1.57451 0
M  V30 4862 C 548.125 0.610462 -1.97689 0
M  V30 4863 C 548.54 1.63346 -0.946758 0
M  V30 4864 O 547.897 1.82377 0.0669868 0
M  V30 4865 C 547.948 1.28196 -3.38006 0
M  V30 4866 O 547.669 0.299906 -4.37072 0
M  V30 4867 C 549.17 2.04907 -3.931 0
M  V30 4868 H 546.39 0.165689 -0.650222 0
M  V30 4869 H 548.934 -0.139953 -2.04021 0
M  V30 4870 H 547.089 1.98348 -3.32771 0
M  V30 4871 H 547.503 0.78126 -5.18649 0
M  V30 4872 H 548.977 2.47287 -4.93511 0
M  V30 4873 H 549.454 2.9043 -3.29465 0
M  V30 4874 H 550.06 1.39629 -4.01726 0
M  V30 4875 N 548.375 1.56261 0.205012 0
M  V30 4876 C 549.338 1.92908 1.23771 0
M  V30 4877 C 550.338 0.809208 1.38955 0
M  V30 4878 O 551.528 1.07676 1.36936 0
M  V30 4879 C 548.66 2.19442 2.60879 0
M  V30 4880 H 549.853 2.85287 0.924728 0
M  V30 4881 H 547.406 1.49798 0.446125 0
M  V30 4882 H 548.141 1.29668 2.97248 0
M  V30 4883 H 547.926 3.0104 2.51232 0
M  V30 4884 H 549.416 2.48833 3.35368 0
M  V30 4885 N 549.853 -0.472356 1.50355 0
M  V30 4886 C 551.264 -1.05326 1.54154 0
M  V30 4887 C 551.615 -1.93155 0.344303 0
M  V30 4888 O 550.74 -2.09479 -0.542928 0
M  V30 4889 C 551.335 -1.91691 2.79356 0
M  V30 4890 C 549.894 -2.44892 2.8584 0
M  V30 4891 C 549.041 -1.23205 2.48426 0
M  V30 4892 H 551.992 -0.255027 1.56637 0
M  V30 4893 H 552.013 -2.76742 2.6114 0
M  V30 4894 H 551.525 -1.27741 3.66475 0
M  V30 4895 H 549.626 -3.12399 2.0307 0
M  V30 4896 H 549.739 -2.80086 3.88701 0
M  V30 4897 H 548.103 -1.56643 2.00836 0
M  V30 4898 H 548.886 -0.609194 3.37852 0
M  V30 4899 N 551.331 -1.39911 -0.725443 0
M  V30 4900 C 552.742 -1.33599 -1.30415 0
M  V30 4901 C 553.093 -0.00481792 -1.96199 0
M  V30 4902 O 552.218 0.897275 -1.96921 0
M  V30 4903 C 552.813 -2.41965 -2.37146 0
M  V30 4904 C 551.372 -2.39144 -2.90667 0
M  V30 4905 C 550.519 -2.23355 -1.64341 0
M  V30 4906 H 553.47 -1.4986 -0.522267 0
M  V30 4907 H 553.491 -2.09304 -3.17761 0
M  V30 4908 H 553.003 -3.38837 -1.89238 0
M  V30 4909 H 551.104 -1.4594 -3.4283 0
M  V30 4910 H 551.217 -3.34362 -3.43131 0
M  V30 4911 H 549.581 -1.70696 -1.89037 0
M  V30 4912 H 550.364 -3.2221 -1.18471 0
M  V30 4913 N 552.809 0.956637 -1.25245 0
M  V30 4914 C 553.772 2.03457 -1.05537 0
M  V30 4915 C 554.772 1.60798 -0.00886317 0
M  V30 4916 O 555.962 1.72384 -0.250865 0
M  V30 4917 C 553.094 3.35543 -0.601965 0
M  V30 4918 H 554.287 2.22372 -2.01223 0
M  V30 4919 H 551.84 1.13344 -1.07623 0
M  V30 4920 H 552.575 3.22323 0.357584 0
M  V30 4921 H 552.36 3.67854 -1.35743 0
M  V30 4922 H 553.85 4.14769 -0.485454 0
M  V30 4923 N 554.287 1.06798 1.15896 0
M  V30 4924 C 555.237 0.653213 2.18443 0
M  V30 4925 C 556.221 -0.318763 1.57711 0
M  V30 4926 O 557.413 -0.133388 1.76497 0
M  V30 4927 C 554.542 0.0465785 3.43268 0
M  V30 4928 C 553.628 1.04336 4.11066 0
M  V30 4929 N 554.019 2.22084 4.54436 0
M  V30 4930 C 552.317 0.875433 4.37324 0
M  V30 4931 C 553.018 2.85276 5.06944 0
M  V30 4932 N 551.994 2.12973 5.00143 0
M  V30 4933 H 555.796 1.55011 2.49698 0
M  V30 4934 H 553.31 0.940384 1.32403 0
M  V30 4935 H 555.307 -0.26843 4.16035 0
M  V30 4936 H 553.967 -0.845504 3.13499 0
M  V30 4937 H 554.978 2.59833 4.48004 0
M  V30 4938 H 551.655 0.0357721 4.17485 0
M  V30 4939 H 553.045 3.85223 5.50503 0
M  V30 4940 N 555.766 -1.3263 0.851289 0
M  V30 4941 C 557.014 -1.96978 0.452128 0
M  V30 4942 C 557.335 -1.67715 -0.99482 0
M  V30 4943 O 556.605 -0.98259 -1.69476 0
M  V30 4944 H 555.185 -0.72873 0.164202 0
M  V30 4945 H 557.847 -1.61774 1.08698 0
M  V30 4946 H 556.943 -3.06387 0.594407 0
M  V30 4947 N 557.244 -0.608902 -1.45362 0
M  V30 4948 C 558.49 -0.104762 -2.02529 0
M  V30 4949 C 558.823 1.26191 -1.47613 0
M  V30 4950 O 558.098 1.8327 -0.65134 0
M  V30 4951 C 558.381 -0.0672661 -3.60037 0
M  V30 4952 C 558.234 -1.4647 -4.25284 0
M  V30 4953 C 559.553 0.619877 -4.35713 0
M  V30 4954 H 556.672 -0.0395438 -0.735938 0
M  V30 4955 H 559.314 -0.781126 -1.73201 0
M  V30 4956 H 557.464 0.50871 -3.85155 0
M  V30 4957 H 559.136 -2.08785 -4.11347 0
M  V30 4958 H 557.379 -2.02502 -3.83634 0
M  V30 4959 H 558.05 -1.39069 -5.34195 0
M  V30 4960 H 560.526 0.130297 -4.15896 0
M  V30 4961 H 559.402 0.615224 -5.45441 0
M  V30 4962 H 559.663 1.68621 -4.0868 0
M  V30 4963 N 558.722 1.53707 -0.348139 0
M  V30 4964 C 559.95 2.05406 0.248224 0
M  V30 4965 C 560.365 1.22282 1.43849 0
M  V30 4966 O 559.722 0.259244 1.80649 0
M  V30 4967 C 559.773 3.55446 0.658793 0
M  V30 4968 O 559.494 4.35417 -0.484149 0
M  V30 4969 C 560.995 4.23335 1.31539 0
M  V30 4970 H 558.215 0.669344 0.0471075 0
M  V30 4971 H 560.759 1.98257 -0.501456 0
M  V30 4972 H 558.914 3.62803 1.35841 0
M  V30 4973 H 559.328 5.24268 -0.155949 0
M  V30 4974 H 560.802 5.29692 1.55338 0
M  V30 4975 H 561.279 3.75967 2.27036 0
M  V30 4976 H 561.885 4.20184 0.657683 0
M  V30 4977 N 560.2 0.0768682 1.57412 0
M  V30 4978 C 561.425 -0.603404 1.98428 0
M  V30 4979 C 561.85 -1.62047 0.955108 0
M  V30 4980 O 561.208 -1.81129 -0.0786778 0
M  V30 4981 C 561.256 -1.24396 3.38464 0
M  V30 4982 O 560.36 -2.35982 3.3821 0
M  V30 4983 H 559.701 -0.154741 0.645718 0
M  V30 4984 H 562.231 0.152885 2.04028 0
M  V30 4985 H 562.241 -1.5896 3.7576 0
M  V30 4986 H 560.916 -0.498735 4.12899 0
M  V30 4987 H 559.493 -2.03173 3.1269 0
M  V30 4988 N 561.678 -1.56367 -0.196722 0
M  V30 4989 C 562.641 -1.93561 -1.22746 0
M  V30 4990 C 563.641 -0.816566 -1.38524 0
M  V30 4991 O 564.831 -1.084 -1.36363 0
M  V30 4992 C 561.963 -2.20823 -2.59712 0
M  V30 4993 H 563.156 -2.85774 -0.909586 0
M  V30 4994 H 560.709 -1.50032 -0.438174 0
M  V30 4995 H 561.444 -1.31243 -2.96557 0
M  V30 4996 H 561.229 -3.02368 -2.49632 0
M  V30 4997 H 562.719 -2.50608 -3.34044 0
M  V30 4998 N 563.156 0.464375 -1.50603 0
M  V30 4999 C 564.567 1.04507 -1.5471 0
M  V30 5000 C 564.918 1.9297 -0.354542 0
M  V30 5001 O 564.043 2.09763 0.531812 0
M  V30 5002 C 564.638 1.90207 -2.80369 0
M  V30 5003 C 563.197 2.43373 -2.87135 0
M  V30 5004 C 562.344 1.21886 -2.49076 0
M  V30 5005 H 565.295 0.246716 -1.56771 0
M  V30 5006 H 565.316 2.75353 -2.62604 0
M  V30 5007 H 564.828 1.25796 -3.67147 0
M  V30 5008 H 562.929 3.11318 -2.04724 0
M  V30 5009 H 563.042 2.7802 -3.90181 0
M  V30 5010 H 561.406 1.55575 -2.01664 0
M  V30 5011 H 562.189 0.591268 -3.3817 0
M  V30 5012 N 564.634 1.40294 0.718013 0
M  V30 5013 C 565.911 1.2894 1.47084 0
M  V30 5014 C 566.291 -0.0933625 2.10893 0
M  V30 5015 O 565.639 -1.10598 1.99951 0
M  V30 5016 C 565.849 2.4264 2.50852 0
M  V30 5017 C 567.197 2.8276 3.16752 0
M  V30 5018 O 568.221 2.42215 2.61171 0
M  V30 5019 O 567.08 3.528 4.17366 0
M  V30 5020 H 564.174 0.506236 0.653952 0
M  V30 5021 H 566.72 1.52208 0.750394 0
M  V30 5022 H 565.492 3.35009 2.022 0
M  V30 5023 H 565.115 2.21129 3.30435 0
M  V30 5024 N 566.112 -0.949982 1.2575 0
M  V30 5025 C 567.34 -1.72972 1.13527 0
M  V30 5026 C 567.755 -1.8623 -0.310453 0
M  V30 5027 O 567.112 -1.36336 -1.2132 0
M  V30 5028 C 567.163 -3.14108 1.78936 0
M  V30 5029 O 566.884 -3.01493 3.17858 0
M  V30 5030 C 568.385 -4.08338 1.72554 0
M  V30 5031 H 565.605 -0.541864 0.395758 0
M  V30 5032 H 568.149 -1.19151 1.66202 0
M  V30 5033 H 566.304 -3.64858 1.30221 0
M  V30 5034 H 566.718 -3.90559 3.50092 0
M  V30 5035 H 568.192 -5.04963 2.22973 0
M  V30 5036 H 568.669 -4.33742 0.690251 0
M  V30 5037 H 569.275 -3.63506 2.2078 0
M  V30 5038 N 567.59 -1.07411 -1.15328 0
M  V30 5039 C 569.006 -0.799759 -1.38116 0
M  V30 5040 C 569.206 0.59572 -1.92493 0
M  V30 5041 O 568.262 1.35433 -2.13106 0
M  V30 5042 C 569.575 -1.87407 -2.35158 0
M  V30 5043 C 571.123 -1.89889 -2.48819 0
M  V30 5044 C 571.598 -2.96406 -3.49153 0
M  V30 5045 N 573.089 -2.95512 -3.56689 0
M  V30 5046 C 573.824 -3.74575 -4.34144 0
M  V30 5047 N 573.32 -4.63488 -5.14928 0
M  V30 5048 N 575.113 -3.62919 -4.29239 0
M  V30 5049 H 567.264 -1.97411 -0.78374 0
M  V30 5050 H 569.527 -0.856113 -0.407154 0
M  V30 5051 H 569.233 -2.8768 -2.0232 0
M  V30 5052 H 569.107 -1.73471 -3.34944 0
M  V30 5053 H 571.494 -0.902677 -2.80955 0
M  V30 5054 H 571.575 -2.07904 -1.49029 0
M  V30 5055 H 571.219 -3.96227 -3.17752 0
M  V30 5056 H 571.149 -2.75638 -4.48699 0
M  V30 5057 H 573.64 -2.31061 -2.99031 0
M  V30 5058 H 573.953 -5.20445 -5.71276 0
M  V30 5059 H 572.298 -4.67537 -5.14232 0
M  V30 5060 H 575.489 -2.92833 -3.65194 0
M  V30 5061 H 575.662 -4.24777 -4.89355 0
M  V30 5062 N 569.068 1.32177 -0.85831 0
M  V30 5063 C 570.479 1.79381 -0.517621 0
M  V30 5064 C 570.83 1.70841 0.964769 0
M  V30 5065 O 569.955 1.26917 1.75274 0
M  V30 5066 C 570.55 3.25706 -0.932801 0
M  V30 5067 C 569.109 3.70851 -0.643953 0
M  V30 5068 C 568.256 2.53208 -1.13054 0
M  V30 5069 H 571.207 1.19424 -1.04516 0
M  V30 5070 H 571.228 3.79673 -0.250674 0
M  V30 5071 H 570.74 3.31889 -2.01174 0
M  V30 5072 H 568.841 3.70178 0.424112 0
M  V30 5073 H 568.954 4.63495 -1.21281 0
M  V30 5074 H 567.318 2.48676 -0.550679 0
M  V30 5075 H 568.101 2.62143 -2.21666 0
M  V30 5076 N 570.547 0.616602 1.45037 0
M  V30 5077 C 571.51 -0.0871112 2.29034 0
M  V30 5078 C 572.51 -0.786414 1.40258 0
M  V30 5079 O 573.7 -0.633207 1.62284 0
M  V30 5080 C 570.832 -1.13369 3.21497 0
M  V30 5081 H 572.025 0.651497 2.92738 0
M  V30 5082 H 569.578 0.376058 1.51709 0
M  V30 5083 H 570.313 -1.90277 2.62612 0
M  V30 5084 H 570.098 -0.636358 3.86902 0
M  V30 5085 H 571.588 -1.62627 3.84633 0
M  V30 5086 N 572.025 -1.5352 0.356285 0
M  V30 5087 C 573.436 -1.86282 -0.12492 0
M  V30 5088 C 573.787 -1.27717 -1.48939 0
M  V30 5089 O 572.912 -0.595614 -2.08042 0
M  V30 5090 C 573.507 -3.37995 -0.23345 0
M  V30 5091 C 572.066 -3.70588 -0.658899 0
M  V30 5092 C 571.213 -2.76581 0.199596 0
M  V30 5093 H 574.164 -1.47901 0.575423 0
M  V30 5094 H 574.185 -3.65475 -1.0587 0
M  V30 5095 H 573.697 -3.8059 0.759776 0
M  V30 5096 H 571.798 -3.33544 -1.66069 0
M  V30 5097 H 571.911 -4.77076 -0.439957 0
M  V30 5098 H 570.275 -2.52552 -0.330076 0
M  V30 5099 H 571.058 -3.22008 1.19019 0
M  V30 5100 N 573.503 -0.0852151 -1.57369 0
M  V30 5101 C 574.751 0.579658 -1.93609 0
M  V30 5102 C 575.072 1.69332 -0.967043 0
M  V30 5103 O 574.342 1.95892 -0.0174215 0
M  V30 5104 H 572.922 0.217113 -0.714752 0
M  V30 5105 H 575.584 -0.146226 -1.94351 0
M  V30 5106 H 574.68 0.996276 -2.95771 0
M  V30 5107 N 574.981 1.5647 0.188427 0
M  V30 5108 C 576.206 1.85486 0.927891 0
M  V30 5109 C 576.631 0.669575 1.75779 0
M  V30 5110 O 575.989 -0.381573 1.77239 0
M  V30 5111 C 576.037 3.12784 1.7944 0
M  V30 5112 O 575.141 2.93805 2.894 0
M  V30 5113 H 574.482 0.610585 0.260925 0
M  V30 5114 H 577.012 2.037 0.191729 0
M  V30 5115 H 577.022 3.43749 2.19774 0
M  V30 5116 H 575.697 3.98671 1.18468 0
M  V30 5117 H 574.274 2.74153 2.52774 0
M  V30 5118 N 576.459 -0.456382 1.50847 0
M  V30 5119 C 577.687 -1.23026 1.66349 0
M  V30 5120 C 578.102 -1.85473 0.352868 0
M  V30 5121 O 577.459 -1.69885 -0.666739 0
M  V30 5122 C 577.51 -2.32827 2.76539 0
M  V30 5123 O 577.231 -1.72938 4.02522 0
M  V30 5124 C 578.732 -3.23448 3.03144 0
M  V30 5125 H 575.952 -0.371527 0.558756 0
M  V30 5126 H 578.496 -0.543082 1.97157 0
M  V30 5127 H 576.651 -2.97294 2.48384 0
M  V30 5128 H 577.065 -2.45357 4.63573 0
M  V30 5129 H 578.539 -3.96669 3.83872 0
M  V30 5130 H 579.016 -3.83094 2.14793 0
M  V30 5131 H 579.622 -2.64702 3.32886 0
M  V30 5132 N 577.937 -1.40673 -0.710563 0
M  V30 5133 C 578.9 -1.4108 -1.80635 0
M  V30 5134 C 579.9 -0.303783 -1.57904 0
M  V30 5135 O 581.09 -0.562937 -1.64853 0
M  V30 5136 C 578.222 -1.20748 -3.18799 0
M  V30 5137 H 579.415 -2.38612 -1.81671 0
M  V30 5138 H 576.968 -1.26595 -0.916704 0
M  V30 5139 H 577.703 -0.239964 -3.23411 0
M  V30 5140 H 577.488 -2.00941 -3.36698 0
M  V30 5141 H 578.978 -1.23833 -3.98817 0
M  V30 5142 N 579.415 0.9433 -1.26252 0
M  V30 5143 C 580.826 1.50404 -1.10614 0
M  V30 5144 C 581.177 1.93666 0.31429 0
M  V30 5145 O 580.302 1.79709 1.20555 0
M  V30 5146 C 580.897 2.73336 -2.00182 0
M  V30 5147 C 579.456 3.25686 -1.88695 0
M  V30 5148 C 578.603 1.98474 -1.93658 0
M  V30 5149 H 581.554 0.759006 -1.39373 0
M  V30 5150 H 581.575 3.47567 -1.54847 0
M  V30 5151 H 581.087 2.41818 -3.03555 0
M  V30 5152 H 579.188 3.61998 -0.882489 0
M  V30 5153 H 579.301 3.92935 -2.74115 0
M  V30 5154 H 577.665 2.14278 -1.37684 0
M  V30 5155 H 578.448 1.6929 -2.98657 0
M  V30 5156 N 580.893 1.08022 1.14757 0
M  V30 5157 C 582.304 0.829144 1.67279 0
M  V30 5158 C 582.655 -0.644721 1.85305 0
M  V30 5159 O 581.78 -1.49838 1.56133 0
M  V30 5160 C 582.375 1.49855 3.03857 0
M  V30 5161 C 580.934 1.29482 3.53428 0
M  V30 5162 C 580.081 1.56386 2.28995 0
M  V30 5163 H 583.032 1.24134 0.988762 0
M  V30 5164 H 583.053 0.923572 3.69121 0
M  V30 5165 H 582.565 2.57123 2.90705 0
M  V30 5166 H 580.666 0.242669 3.71809 0
M  V30 5167 H 580.779 2.01974 4.34446 0
M  V30 5168 H 579.143 0.985217 2.34874 0
M  V30 5169 H 579.926 2.64851 2.18423 0
M  V30 5170 N 582.371 -1.3172 0.865308 0
M  V30 5171 C 583.334 -2.26918 0.322627 0
M  V30 5172 C 584.334 -1.52031 -0.523751 0
M  V30 5173 O 585.524 -1.70973 -0.333727 0
M  V30 5174 C 582.656 -3.36558 -0.542338 0
M  V30 5175 H 583.849 -2.76432 1.16298 0
M  V30 5176 H 581.402 -1.42573 0.640512 0
M  V30 5177 H 582.137 -2.92329 -1.40407 0
M  V30 5178 H 581.922 -3.92048 0.0636395 0
M  V30 5179 H 583.412 -4.07465 -0.91446 0
M  V30 5180 N 583.85 -0.624285 -1.44708 0
M  V30 5181 C 584.8 0.106466 -2.27751 0
M  V30 5182 C 585.784 0.822703 -1.38277 0
M  V30 5183 O 586.976 0.709939 -1.62138 0
M  V30 5184 C 584.105 1.092 -3.25469 0
M  V30 5185 C 583.191 0.375737 -4.22432 0
M  V30 5186 N 583.582 -0.591881 -5.02325 0
M  V30 5187 C 581.88 0.621093 -4.41654 0
M  V30 5188 C 582.581 -1.01443 -5.72786 0
M  V30 5189 N 581.557 -0.354651 -5.42442 0
M  V30 5190 H 585.359 -0.636464 -2.86926 0
M  V30 5191 H 582.873 -0.44925 -1.56062 0
M  V30 5192 H 584.87 1.63006 -3.83712 0
M  V30 5193 H 583.529 1.8353 -2.67856 0
M  V30 5194 H 584.541 -0.969389 -5.08747 0
M  V30 5195 H 581.218 1.34779 -3.95147 0
M  V30 5196 H 582.608 -1.81345 -6.46965 0
M  V30 5197 N 585.328 1.53329 -0.364422 0
M  V30 5198 C 586.576 2.00842 0.225189 0
M  V30 5199 C 586.897 1.25345 1.49378 0
M  V30 5200 O 586.167 0.366396 1.92443 0
M  V30 5201 H 584.747 0.742009 0.0862027 0
M  V30 5202 H 587.409 1.8863 -0.490389 0
M  V30 5203 H 586.505 3.08795 0.452987 0
M  V30 5204 N 586.806 0.0935595 1.57322 0
M  V30 5205 C 588.052 -0.571355 1.94585 0
M  V30 5206 C 588.385 -1.67929 0.975366 0
M  V30 5207 O 587.66 -1.94498 0.00816206 0
M  V30 5208 C 587.943 -1.12797 3.41978 0
M  V30 5209 C 587.796 -0.0251881 4.49793 0
M  V30 5210 C 589.115 -2.02682 3.90651 0
M  V30 5211 H 586.234 -0.206223 0.70756 0
M  V30 5212 H 588.876 0.163956 1.89291 0
M  V30 5213 H 587.026 -1.75461 3.4662 0
M  V30 5214 H 588.698 0.608979 4.57263 0
M  V30 5215 H 586.941 0.641399 4.29032 0
M  V30 5216 H 587.612 -0.455433 5.50118 0
M  V30 5217 H 590.088 -1.49925 3.88152 0
M  V30 5218 H 588.964 -2.38555 4.94351 0
M  V30 5219 H 589.225 -2.94362 3.29854 0
M  V30 5220 N 588.284 -1.56567 -0.180126 0
M  V30 5221 C 589.512 -1.85618 -0.913972 0
M  V30 5222 C 589.927 -0.677892 -1.7621 0
M  V30 5223 O 589.284 0.353171 -1.7905 0
M  V30 5224 C 589.335 -3.13619 -1.79793 0
M  V30 5225 O 589.056 -4.26906 -0.98402 0
M  V30 5226 C 590.557 -3.55954 -2.64219 0
M  V30 5227 H 587.777 -0.616043 -0.265954 0
M  V30 5228 H 590.321 -2.03681 -0.182872 0
M  V30 5229 H 588.476 -2.97409 -2.48247 0
M  V30 5230 H 588.89 -4.9989 -1.58776 0
M  V30 5231 H 590.364 -4.48444 -3.21873 0
M  V30 5232 H 590.841 -2.79653 -3.38661 0
M  V30 5233 H 591.447 -3.74746 -2.01111 0
M  V30 5234 N 589.762 0.448376 -1.51087 0
M  V30 5235 C 590.987 1.22605 -1.6728 0
M  V30 5236 C 591.412 1.84524 -0.365045 0
M  V30 5237 O 590.77 1.6832 0.673642 0
M  V30 5238 C 590.818 2.29393 -2.78229 0
M  V30 5239 O 589.922 3.34608 -2.41063 0
M  V30 5240 H 589.263 0.359705 -0.558129 0
M  V30 5241 H 591.793 0.530903 -1.97592 0
M  V30 5242 H 591.803 2.74352 -3.01986 0
M  V30 5243 H 590.478 1.83701 -3.73131 0
M  V30 5244 H 589.055 2.95202 -2.27838 0
M  V30 5245 N 591.24 1.41047 0.703093 0
M  V30 5246 C 592.203 1.42036 1.79884 0
M  V30 5247 C 593.203 0.312153 1.57741 0
M  V30 5248 O 594.393 0.571672 1.64553 0
M  V30 5249 C 591.525 1.22437 3.18154 0
M  V30 5250 H 592.718 2.39572 1.80403 0
M  V30 5251 H 590.271 1.27079 0.909977 0
M  V30 5252 H 591.006 0.257112 3.23279 0
M  V30 5253 H 590.791 2.02723 3.35627 0
M  V30 5254 H 592.281 1.25946 3.98155 0
M  V30 5255 N 592.718 -0.936591 1.26751 0
M  V30 5256 C 594.129 -1.49816 1.1141 0
M  V30 5257 C 594.48 -1.9383 -0.304015 0
M  V30 5258 O 593.605 -1.80346 -1.196 0
M  V30 5259 C 594.2 -2.72271 2.01629 0
M  V30 5260 C 592.759 -3.2468 1.9042 0
M  V30 5261 C 591.906 -1.97444 1.94708 0
M  V30 5262 H 594.857 -0.751604 1.39773 0
M  V30 5263 H 594.878 -3.46741 1.56688 0
M  V30 5264 H 594.39 -2.40205 3.04833 0
M  V30 5265 H 592.491 -3.61525 0.901674 0
M  V30 5266 H 592.604 -3.91476 2.76195 0
M  V30 5267 H 590.968 -2.13545 1.38818 0
M  V30 5268 H 591.751 -1.67703 2.9955 0
M  V30 5269 N 594.196 -1.08629 -1.14182 0
M  V30 5270 C 595.473 -0.73002 -1.81466 0
M  V30 5271 C 595.853 0.785996 -1.95922 0
M  V30 5272 O 595.201 1.70535 -1.52086 0
M  V30 5273 C 595.411 -1.45957 -3.17014 0
M  V30 5274 C 596.759 -1.62008 -3.92477 0
M  V30 5275 O 597.783 -1.42141 -3.26611 0
M  V30 5276 O 596.642 -1.94806 -5.106 0
M  V30 5277 H 593.736 -0.261307 -0.784632 0
M  V30 5278 H 596.282 -1.188 -1.2118 0
M  V30 5279 H 595.054 -2.49221 -3.01669 0
M  V30 5280 H 594.677 -0.993222 -3.84995 0
M  V30 5281 N 595.674 1.31259 -0.872281 0
M  V30 5282 C 596.902 2.00795 -0.498907 0
M  V30 5283 C 597.317 1.65464 0.909238 0
M  V30 5284 O 596.674 0.885073 1.59602 0
M  V30 5285 C 596.725 3.55625 -0.649092 0
M  V30 5286 O 596.446 3.89692 -2.00179 0
M  V30 5287 C 597.947 4.42434 -0.277034 0
M  V30 5288 H 595.167 0.642299 -0.194145 0
M  V30 5289 H 597.711 1.67438 -1.17408 0
M  V30 5290 H 595.866 3.87394 -0.0214402 0
M  V30 5291 H 596.28 4.84407 -2.01122 0
M  V30 5292 H 597.754 5.50299 -0.433064 0
M  V30 5293 H 598.231 4.32146 0.783989 0
M  V30 5294 H 598.837 4.16086 -0.880483 0
M  V30 5295 N 597.152 0.631951 1.44375 0
M  V30 5296 C 598.568 0.297642 1.568 0
M  V30 5297 C 598.768 -1.19916 1.61934 0
M  V30 5298 O 597.824 -1.98324 1.56281 0
M  V30 5299 C 599.137 0.990286 2.83926 0
M  V30 5300 C 600.685 0.968507 2.97639 0
M  V30 5301 C 601.16 1.64163 4.27568 0
M  V30 5302 N 602.651 1.60826 4.34384 0
M  V30 5303 C 603.386 2.09802 5.33639 0
M  V30 5304 N 602.882 2.66973 6.39294 0
M  V30 5305 N 604.675 2.00426 5.25153 0
M  V30 5306 H 596.826 1.60353 1.39286 0
M  V30 5307 H 599.089 0.673142 0.667521 0
M  V30 5308 H 598.795 2.04519 2.8612 0
M  V30 5309 H 598.669 0.528563 3.73478 0
M  V30 5310 H 601.056 -0.0779247 2.94997 0
M  V30 5311 H 601.137 1.46873 2.09433 0
M  V30 5312 H 600.781 2.68752 4.3097 0
M  V30 5313 H 600.711 1.11624 5.14634 0
M  V30 5314 H 603.202 1.19087 3.58646 0
M  V30 5315 H 603.515 3.02074 7.11316 0
M  V30 5316 H 601.86 2.71024 6.39977 0
M  V30 5317 H 605.051 1.55483 4.41523 0
M  V30 5318 H 605.224 2.38906 6.02352 0
M  V30 5319 N 598.631 -1.53133 0.372548 0
M  V30 5320 C 600.042 -1.86404 -0.105155 0
M  V30 5321 C 600.393 -1.29289 -1.47576 0
M  V30 5322 O 599.518 -0.617646 -2.07398 0
M  V30 5323 C 600.113 -3.38223 -0.197588 0
M  V30 5324 C 598.672 -3.71266 -0.619556 0
M  V30 5325 C 597.819 -2.76353 0.228919 0
M  V30 5326 H 600.77 -1.47282 0.591077 0
M  V30 5327 H 600.791 -3.66577 -1.01987 0
M  V30 5328 H 600.303 -3.79763 0.800099 0
M  V30 5329 H 598.404 -3.35287 -1.62522 0
M  V30 5330 H 598.517 -4.77515 -0.389332 0
M  V30 5331 H 596.881 -2.52888 -0.303271 0
M  V30 5332 H 597.664 -3.20728 1.22428 0
M  V30 5333 N 600.109 -0.101901 -1.5727 0
M  V30 5334 C 601.072 0.840129 -2.13247 0
M  V30 5335 C 602.072 1.20625 -1.06331 0
M  V30 5336 O 603.262 1.13456 -1.32186 0
M  V30 5337 C 600.394 2.13372 -2.65867 0
M  V30 5338 H 601.587 0.353945 -2.97804 0
M  V30 5339 H 599.14 0.147167 -1.55606 0
M  V30 5340 H 599.875 2.66461 -1.84849 0
M  V30 5341 H 599.66 1.88085 -3.44044 0
M  V30 5342 H 601.15 2.80748 -3.09145 0
M  V30 5343 N 601.587 1.56661 0.17182 0
M  V30 5344 C 602.998 1.71652 0.734329 0
M  V30 5345 C 603.349 0.712335 1.82812 0
M  V30 5346 O 602.474 -0.126401 2.16031 0
M  V30 5347 C 603.069 3.11226 1.3388 0
M  V30 5348 C 601.628 3.27904 1.84813 0
M  V30 5349 C 600.775 2.67603 0.726917 0
M  V30 5350 H 603.726 1.5861 -0.0535665 0
M  V30 5351 H 603.747 3.09849 2.20849 0
M  V30 5352 H 603.259 3.8429 0.54249 0
M  V30 5353 H 601.36 2.59796 2.6709 0
M  V30 5354 H 601.473 4.35637 1.99392 0
M  V30 5355 H 599.837 2.274 1.14723 0
M  V30 5356 H 600.62 3.43252 -0.0575334 0
M  V30 5357 N 603.065 -0.440357 1.51323 0
M  V30 5358 C 604.313 -1.18769 1.63518 0
M  V30 5359 C 604.634 -1.91793 0.352201 0
M  V30 5360 O 603.904 -1.85432 -0.631811 0
M  V30 5361 H 602.484 -0.441408 0.602634 0
M  V30 5362 H 605.146 -0.505162 1.8824 0
M  V30 5363 H 604.242 -1.91892 2.46138 0
M  V30 5364 N 604.543 -1.41418 -0.695603 0
M  V30 5365 C 605.768 -1.44329 -1.48942 0
M  V30 5366 C 606.193 -0.0501579 -1.88033 0
M  V30 5367 O 605.551 0.946598 -1.54626 0
M  V30 5368 C 605.599 -2.3578 -2.72837 0
M  V30 5369 O 604.703 -1.81482 -3.70322 0
M  V30 5370 H 604.044 -0.489838 -0.44828 0
M  V30 5371 H 606.574 -1.85878 -0.855014 0
M  V30 5372 H 606.584 -2.51654 -3.21145 0
M  V30 5373 H 605.259 -3.37005 -2.43722 0
M  V30 5374 H 603.836 -1.75058 -3.29255 0
M  V30 5375 N 606.021 0.929856 -1.27246 0
M  V30 5376 C 607.249 1.71144 -1.16265 0
M  V30 5377 C 607.664 1.867 0.280786 0
M  V30 5378 O 607.021 1.38249 1.19136 0
M  V30 5379 C 607.072 3.11222 -1.83911 0
M  V30 5380 O 606.793 2.96398 -3.22614 0
M  V30 5381 C 608.294 4.05541 -1.79028 0
M  V30 5382 H 605.514 0.535499 -0.404328 0
M  V30 5383 H 608.058 1.16492 -1.68077 0
M  V30 5384 H 606.213 3.6274 -1.36009 0
M  V30 5385 H 606.627 3.8494 -3.56261 0
M  V30 5386 H 608.101 5.01351 -2.30978 0
M  V30 5387 H 608.578 4.32589 -0.759168 0
M  V30 5388 H 609.184 3.59947 -2.26535 0
M  V30 5389 N 607.499 1.09233 1.13605 0
M  V30 5390 C 608.462 0.733553 2.17144 0
M  V30 5391 C 609.462 -0.235873 1.59061 0
M  V30 5392 O 610.652 -0.0143167 1.74194 0
M  V30 5393 C 607.784 0.084471 3.40795 0
M  V30 5394 H 608.977 1.65049 2.50397 0
M  V30 5395 H 606.53 0.891264 1.28399 0
M  V30 5396 H 607.265 -0.843795 3.1313 0
M  V30 5397 H 607.05 0.781985 3.84223 0
M  V30 5398 H 608.54 -0.151216 4.17326 0
M  V30 5399 N 608.977 -1.30795 0.87923 0
M  V30 5400 C 610.388 -1.78535 0.546093 0
M  V30 5401 C 610.739 -1.72354 -0.937467 0
M  V30 5402 O 609.864 -1.2969 -1.73233 0
M  V30 5403 C 610.459 -3.24181 0.9845 0
M  V30 5404 C 609.018 -3.69779 0.702871 0
M  V30 5405 C 608.165 -2.51377 1.17068 0
M  V30 5406 H 611.116 -1.17746 1.06403 0
M  V30 5407 H 611.137 -3.79227 0.311045 0
M  V30 5408 H 610.649 -3.28647 2.06429 0
M  V30 5409 H 608.75 -3.70806 -0.365166 0
M  V30 5410 H 608.863 -4.61507 1.28639 0
M  V30 5411 H 607.227 -2.47768 0.590172 0
M  V30 5412 H 608.01 -2.58584 2.25808 0
M  V30 5413 N 610.455 -0.639598 -1.44038 0
M  V30 5414 C 611.866 -0.228866 -1.85292 0
M  V30 5415 C 612.217 1.22161 -1.53529 0
M  V30 5416 O 611.342 1.93064 -0.977518 0
M  V30 5417 C 611.937 -0.408592 -3.36327 0
M  V30 5418 C 610.496 -0.0522953 -3.76364 0
M  V30 5419 C 609.643 -0.717959 -2.67844 0
M  V30 5420 H 612.594 -0.844194 -1.34384 0
M  V30 5421 H 612.615 0.349968 -3.78887 0
M  V30 5422 H 612.127 -1.46435 -3.59414 0
M  V30 5423 H 610.228 1.0014 -3.58891 0
M  V30 5424 H 610.341 -0.468261 -4.76806 0
M  V30 5425 H 608.705 -0.152459 -2.54243 0
M  V30 5426 H 609.488 -1.77648 -2.93762 0
M  V30 5427 N 611.933 1.52934 -0.380664 0
M  V30 5428 C 612.896 2.24809 0.446473 0
M  V30 5429 C 613.896 1.26133 0.997347 0
M  V30 5430 O 615.086 1.50297 0.880714 0
M  V30 5431 C 612.218 2.99649 1.62553 0
M  V30 5432 H 613.411 2.99343 -0.182677 0
M  V30 5433 H 610.964 1.55736 -0.132618 0
M  V30 5434 H 611.699 2.29395 2.29235 0
M  V30 5435 H 611.484 3.72066 1.23732 0
M  V30 5436 H 612.974 3.54246 2.21133 0
M  V30 5437 N 613.412 0.11024 1.57214 0
M  V30 5438 C 614.362 -0.854147 2.11396 0
M  V30 5439 C 615.346 -1.23394 1.03261 0
M  V30 5440 O 616.538 -1.20649 1.2951 0
M  V30 5441 C 613.667 -2.10752 2.70995 0
M  V30 5442 C 612.753 -1.75249 3.86198 0
M  V30 5443 N 613.144 -1.10377 4.9361 0
M  V30 5444 C 611.442 -2.04763 3.96217 0
M  V30 5445 C 612.143 -0.938199 5.74084 0
M  V30 5446 N 611.119 -1.46039 5.23616 0
M  V30 5447 H 614.921 -0.348897 2.91822 0
M  V30 5448 H 612.435 -0.0925071 1.62136 0
M  V30 5449 H 614.432 -2.80801 3.0815 0
M  V30 5450 H 613.092 -2.61829 1.9203 0
M  V30 5451 H 614.103 -0.768785 5.12162 0
M  V30 5452 H 610.78 -2.57948 3.28282 0
M  V30 5453 H 612.17 -0.429678 6.70525 0
M  V30 5454 N 614.89 -1.56749 -0.16351 0
M  V30 5455 C 616.138 -1.82074 -0.87713 0
M  V30 5456 C 616.459 -0.688503 -1.82441 0
M  V30 5457 O 615.729 0.291085 -1.93725 0
M  V30 5458 H 614.309 -0.671677 -0.326893 0
M  V30 5459 H 616.971 -1.9423 -0.161459 0
M  V30 5460 H 616.067 -2.76407 -1.44934 0
M  V30 5461 N 616.368 0.432326 -1.51554 0
M  V30 5462 C 617.614 1.18309 -1.64714 0
M  V30 5463 C 617.947 1.90745 -0.364696 0
M  V30 5464 O 617.222 1.8381 0.635936 0
M  V30 5465 C 617.505 2.1961 -2.85383 0
M  V30 5466 C 617.358 1.51223 -4.23617 0
M  V30 5467 C 618.677 3.20538 -3.01569 0
M  V30 5468 H 615.796 0.428751 -0.599451 0
M  V30 5469 H 618.438 0.471689 -1.84052 0
M  V30 5470 H 616.588 2.8028 -2.69027 0
M  V30 5471 H 618.26 0.938516 -4.51652 0
M  V30 5472 H 616.503 0.814501 -4.26085 0
M  V30 5473 H 617.174 2.25024 -5.04052 0
M  V30 5474 H 619.65 2.69926 -3.16669 0
M  V30 5475 H 618.526 3.88706 -3.87555 0
M  V30 5476 H 618.787 3.86933 -2.13859 0
M  V30 5477 N 617.846 1.41785 0.688094 0
M  V30 5478 C 619.074 1.44915 1.47673 0
M  V30 5479 C 619.489 0.0565786 1.88715 0
M  V30 5480 O 618.846 -0.92579 1.57275 0
M  V30 5481 C 618.897 2.36452 2.73446 0
M  V30 5482 O 618.618 3.7029 2.34131 0
M  V30 5483 C 620.119 2.48463 3.67125 0
M  V30 5484 H 617.339 0.493324 0.454832 0
M  V30 5485 H 619.883 1.86153 0.846594 0
M  V30 5486 H 618.038 1.98502 3.3268 0
M  V30 5487 H 618.452 4.19183 3.15255 0
M  V30 5488 H 619.926 3.16662 4.52138 0
M  V30 5489 H 620.403 1.51826 4.12123 0
M  V30 5490 H 621.009 2.8708 3.13792 0
M  V30 5491 N 619.324 -0.923095 1.27737 0
M  V30 5492 C 620.549 -1.71054 1.17283 0
M  V30 5493 C 620.974 -1.86208 -0.266153 0
M  V30 5494 O 620.332 -1.36545 -1.1927 0
M  V30 5495 C 620.38 -3.0854 1.86642 0
M  V30 5496 O 619.484 -3.95528 1.16752 0
M  V30 5497 H 618.825 -0.524136 0.407649 0
M  V30 5498 H 621.355 -1.15487 1.6889 0
M  V30 5499 H 621.365 -3.58828 1.94182 0
M  V30 5500 H 620.04 -2.96828 2.91317 0
M  V30 5501 H 618.617 -3.53967 1.17312 0
M  V30 5502 N 620.802 -1.09834 -1.13024 0
M  V30 5503 C 621.765 -0.745058 -2.16752 0
M  V30 5504 C 622.765 0.227435 -1.59183 0
M  V30 5505 O 623.955 0.0050786 -1.74199 0
M  V30 5506 C 621.087 -0.102543 -3.40746 0
M  V30 5507 H 622.28 -1.66375 -2.49518 0
M  V30 5508 H 619.833 -0.898061 -1.27924 0
M  V30 5509 H 620.568 0.827177 -3.13573 0
M  V30 5510 H 620.353 -0.80235 -3.83803 0
M  V30 5511 H 621.843 0.129082 -4.174 0
M  V30 5512 N 622.28 1.30327 -0.886154 0
M  V30 5513 C 623.691 1.78243 -0.555554 0
M  V30 5514 C 624.042 1.72849 0.928314 0
M  V30 5515 O 623.167 1.30607 1.72542 0
M  V30 5516 C 623.762 3.23654 -1.00168 0
M  V30 5517 C 622.321 3.69401 -0.722471 0
M  V30 5518 C 621.468 2.50753 -1.18399 0
M  V30 5519 H 624.419 1.1718 -1.07026 0
M  V30 5520 H 624.44 3.79056 -0.331152 0
M  V30 5521 H 623.952 3.27548 -2.08169 0
M  V30 5522 H 622.053 3.70995 0.345496 0
M  V30 5523 H 622.166 4.60818 -1.31085 0
M  V30 5524 H 620.53 2.47452 -0.603303 0
M  V30 5525 H 621.313 2.57383 -2.27176 0
M  V30 5526 N 623.758 0.647228 1.43697 0
M  V30 5527 C 625.035 0.0883758 1.954 0
M  V30 5528 C 625.415 -1.39006 1.58873 0
M  V30 5529 O 624.763 -2.11255 0.87083 0
M  V30 5530 C 624.973 0.328263 3.47453 0
M  V30 5531 C 626.321 0.230009 4.23977 0
M  V30 5532 O 627.345 0.260496 3.55246 0
M  V30 5533 O 626.204 0.148615 5.46298 0
M  V30 5534 H 623.298 -0.0130683 0.826897 0
M  V30 5535 H 625.844 0.72005 1.53666 0
M  V30 5536 H 624.616 1.3535 3.67146 0
M  V30 5537 H 624.239 -0.336772 3.96171 0
M  V30 5538 N 625.236 -1.5273 0.388769 0
M  V30 5539 C 626.464 -2.05992 -0.193677 0
M  V30 5540 C 626.879 -1.26053 -1.40557 0
M  V30 5541 O 626.236 -0.307049 -1.79898 0
M  V30 5542 C 626.287 -3.57068 -0.564321 0
M  V30 5543 O 626.008 -4.3398 0.599422 0
M  V30 5544 C 627.509 -4.26674 -1.20269 0
M  V30 5545 H 624.729 -0.670358 -0.0293445 0
M  V30 5546 H 627.273 -1.96857 0.553844 0
M  V30 5547 H 625.428 -3.66277 -1.26174 0
M  V30 5548 H 625.842 -5.2367 0.294895 0
M  V30 5549 H 627.316 -5.33625 -1.4124 0
M  V30 5550 H 627.793 -3.81854 -2.16989 0
M  V30 5551 H 628.399 -4.2178 -0.546047 0
M  V30 5552 N 626.714 -0.118576 -1.57153 0
M  V30 5553 C 628.13 0.238014 -1.57815 0
M  V30 5554 C 628.33 1.66747 -1.13127 0
M  V30 5555 O 627.386 2.38867 -0.818462 0
M  V30 5556 C 628.699 0.00508207 -3.007 0
M  V30 5557 C 630.247 0.0710139 -3.12919 0
M  V30 5558 C 630.722 -0.13422 -4.57803 0
M  V30 5559 N 632.213 -0.0801755 -4.63131 0
M  V30 5560 C 632.948 -0.213885 -5.73001 0
M  V30 5561 N 632.444 -0.403742 -6.91623 0
M  V30 5562 N 634.237 -0.15349 -5.6189 0
M  V30 5563 H 626.388 -1.05226 -1.84503 0
M  V30 5564 H 628.651 -0.414318 -0.852669 0
M  V30 5565 H 628.357 -0.983125 -3.3768 0
M  V30 5566 H 628.231 0.73714 -3.69927 0
M  V30 5567 H 630.618 1.04975 -2.75798 0
M  V30 5568 H 630.699 -0.692918 -2.46236 0
M  V30 5569 H 630.343 -1.10992 -4.95624 0
M  V30 5570 H 630.273 0.649692 -5.22577 0
M  V30 5571 H 632.764 0.0630689 -3.77847 0
M  V30 5572 H 633.077 -0.496645 -7.71202 0
M  V30 5573 H 631.422 -0.43971 -6.93608 0
M  V30 5574 H 634.613 -0.00613174 -4.681 0
M  V30 5575 H 634.786 -0.261138 -6.47474 0
M  V30 5576 N 628.193 1.56834 0.155195 0
M  V30 5577 C 629.604 1.72421 0.716082 0
M  V30 5578 C 629.955 0.731685 1.82046 0
M  V30 5579 O 629.08 -0.103481 2.16152 0
M  V30 5580 C 629.675 3.12629 1.30571 0
M  V30 5581 C 628.234 3.29846 1.81325 0
M  V30 5582 C 627.381 2.68359 0.698494 0
M  V30 5583 H 630.332 1.58544 -0.0703861 0
M  V30 5584 H 630.353 3.12174 2.1755 0
M  V30 5585 H 629.865 3.84844 0.501701 0
M  V30 5586 H 627.966 2.62614 2.64319 0
M  V30 5587 H 628.079 4.37727 1.9476 0
M  V30 5588 H 626.443 2.28604 1.12305 0
M  V30 5589 H 627.226 3.43171 -0.0939366 0
M  V30 5590 N 629.671 -0.424282 1.51781 0
M  V30 5591 C 630.634 -1.49848 1.73431 0
M  V30 5592 C 631.634 -1.49016 0.604225 0
M  V30 5593 O 632.824 -1.50808 0.871935 0
M  V30 5594 C 629.956 -2.89332 1.80277 0
M  V30 5595 H 631.149 -1.3195 2.69312 0
M  V30 5596 H 628.702 -0.653809 1.41968 0
M  V30 5597 H 629.437 -3.12618 0.862568 0
M  V30 5598 H 629.222 -2.9134 2.62419 0
M  V30 5599 H 630.712 -3.67233 1.98821 0
M  V30 5600 N 631.149 -1.42148 -0.680565 0
M  V30 5601 C 632.56 -1.3768 -1.26099 0
M  V30 5602 C 632.911 -0.0672348 -1.96085 0
M  V30 5603 O 632.036 0.834172 -1.99676 0
M  V30 5604 C 632.631 -2.49387 -2.29328 0
M  V30 5605 C 631.19 -2.4827 -2.82911 0
M  V30 5606 C 630.337 -2.2847 -1.57152 0
M  V30 5607 H 633.288 -1.51446 -0.474326 0
M  V30 5608 H 633.309 -2.19307 -3.10941 0
M  V30 5609 H 632.821 -3.44686 -1.78363 0
M  V30 5610 H 630.922 -1.56773 -3.38013 0
M  V30 5611 H 631.035 -3.45109 -3.3232 0
M  V30 5612 H 629.399 -1.76623 -1.83511 0
M  V30 5613 H 630.182 -3.25816 -1.0816 0
M  V30 5614 N 632.627 0.916307 -1.28225 0
M  V30 5615 C 633.875 1.6619 -1.15002 0
M  V30 5616 C 634.196 1.92642 0.302329 0
M  V30 5617 O 633.466 1.54076 1.20985 0
M  V30 5618 H 632.046 0.615964 -0.422608 0
M  V30 5619 H 634.708 1.09963 -1.60917 0
M  V30 5620 H 633.804 2.62533 -1.68769 0
M  V30 5621 N 634.105 1.10431 1.1244 0
M  V30 5622 C 635.33 0.869089 1.88313 0
M  V30 5623 C 635.755 -0.574912 1.79099 0
M  V30 5624 O 635.113 -1.40496 1.14589 0
M  V30 5625 C 635.161 1.32208 3.3549 0
M  V30 5626 O 634.265 0.487092 4.09513 0
M  V30 5627 H 633.606 0.313894 0.585121 0
M  V30 5628 H 636.136 1.47111 1.42195 0
M  V30 5629 H 636.146 1.31201 3.86329 0
M  V30 5630 H 634.821 2.37364 3.41513 0
M  V30 5631 H 633.398 0.562372 3.68635 0
M  V30 5632 N 635.583 -1.29855 0.893053 0
M  V30 5633 C 636.811 -1.99976 0.530788 0
M  V30 5634 C 637.226 -1.66889 -0.882799 0
M  V30 5635 O 636.583 -0.910352 -1.58173 0
M  V30 5636 C 636.634 -3.54547 0.705587 0
M  V30 5637 O 636.355 -3.86458 2.06353 0
M  V30 5638 C 637.856 -4.41937 0.347387 0
M  V30 5639 H 635.076 -0.639129 0.204339 0
M  V30 5640 H 637.62 -1.65549 1.20057 0
M  V30 5641 H 635.775 -3.87311 0.0830685 0
M  V30 5642 H 636.189 -4.81146 2.08803 0
M  V30 5643 H 637.663 -5.4954 0.520557 0
M  V30 5644 H 638.14 -4.33339 -0.715139 0
M  V30 5645 H 638.746 -4.14633 0.946567 0
M  V30 5646 N 637.061 -0.65484 -1.43351 0
M  V30 5647 C 638.024 0.0263562 -2.29185 0
M  V30 5648 C 639.024 0.748951 -1.42293 0
M  V30 5649 O 640.214 0.589957 -1.63906 0
M  V30 5650 C 637.346 1.04806 -3.2439 0
M  V30 5651 H 638.539 -0.728883 -2.90908 0
M  V30 5652 H 636.092 -0.416149 -1.50658 0
M  V30 5653 H 636.827 1.83247 -2.67565 0
M  V30 5654 H 636.612 0.533554 -3.88453 0
M  V30 5655 H 638.102 1.52372 -3.88809 0
M  V30 5656 N 638.539 1.52521 -0.396863 0
M  V30 5657 C 639.95 1.86547 0.0754868 0
M  V30 5658 C 640.301 1.31621 1.45501 0
M  V30 5659 O 639.426 0.650563 2.0639 0
M  V30 5660 C 640.021 3.38495 0.143754 0
M  V30 5661 C 638.58 3.72205 0.560413 0
M  V30 5662 C 637.727 2.75954 -0.272856 0
M  V30 5663 H 640.678 1.46323 -0.614434 0
M  V30 5664 H 640.699 3.68153 0.961425 0
M  V30 5665 H 640.211 3.78442 -0.860415 0
M  V30 5666 H 638.312 3.3783 1.57167 0
M  V30 5667 H 638.425 4.78074 0.313314 0
M  V30 5668 H 636.789 2.53339 0.263 0
M  V30 5669 H 637.572 3.1874 -1.27515 0
M  V30 5670 N 640.017 0.126909 1.57088 0
M  V30 5671 C 641.428 -0.397201 1.82426 0
M  V30 5672 C 641.779 -1.66084 1.04453 0
M  V30 5673 O 640.904 -2.14534 0.283552 0
M  V30 5674 C 641.499 -0.727411 3.30899 0
M  V30 5675 C 640.058 -1.19612 3.56889 0
M  V30 5676 C 639.205 -0.20885 2.76512 0
M  V30 5677 H 642.156 0.351924 1.54749 0
M  V30 5678 H 642.177 -1.58407 3.45959 0
M  V30 5679 H 641.689 0.19247 3.87622 0
M  V30 5680 H 639.79 -2.13263 3.05532 0
M  V30 5681 H 639.903 -1.13598 4.65438 0
M  V30 5682 H 638.267 -0.697479 2.44964 0
M  V30 5683 H 639.05 0.704267 3.35998 0
M  V30 5684 N 641.495 -1.56914 -0.146875 0
M  V30 5685 C 642.458 -1.97368 -1.16526 0
M  V30 5686 C 643.458 -0.860223 -1.35856 0
M  V30 5687 O 644.648 -1.12684 -1.32846 0
M  V30 5688 C 641.78 -2.28974 -2.52555 0
M  V30 5689 H 642.973 -2.88523 -0.818209 0
M  V30 5690 H 640.526 -1.5135 -0.390221 0
M  V30 5691 H 641.261 -1.40611 -2.92231 0
M  V30 5692 H 641.046 -3.10157 -2.39886 0
M  V30 5693 H 642.536 -2.61109 -3.25902 0
M  V30 5694 N 642.974 0.416227 -1.52004 0
M  V30 5695 C 643.924 1.50558 -1.7122 0
M  V30 5696 C 644.908 1.50613 -0.56609 0
M  V30 5697 O 646.1 1.56709 -0.822874 0
M  V30 5698 C 643.229 2.88556 -1.85984 0
M  V30 5699 C 642.315 2.93177 -3.06445 0
M  V30 5700 N 642.706 2.67505 -4.29272 0
M  V30 5701 C 641.004 3.24343 -3.06133 0
M  V30 5702 C 641.705 2.78511 -5.10692 0
M  V30 5703 N 640.681 3.11087 -4.45787 0
M  V30 5704 H 644.483 1.29494 -2.63834 0
M  V30 5705 H 641.997 0.62384 -1.4994 0
M  V30 5706 H 643.994 3.66954 -1.97865 0
M  V30 5707 H 642.654 3.10624 -0.945654 0
M  V30 5708 H 643.665 2.42033 -4.57865 0
M  V30 5709 H 640.342 3.52051 -2.24425 0
M  V30 5710 H 641.732 2.62438 -6.18527 0
M  V30 5711 N 644.452 1.42507 0.673017 0
M  V30 5712 C 645.7 1.42789 1.43023 0
M  V30 5713 C 646.021 0.0459738 1.94946 0
M  V30 5714 O 645.291 -0.915765 1.73178 0
M  V30 5715 H 643.871 0.525657 0.530748 0
M  V30 5716 H 646.533 1.77944 0.795113 0
M  V30 5717 H 645.629 2.12872 2.28237 0
M  V30 5718 N 645.93 -0.909495 1.28709 0
M  V30 5719 C 647.176 -1.66151 1.16283 0
M  V30 5720 C 647.509 -1.92067 -0.287069 0
M  V30 5721 O 646.784 -1.52409 -1.20837 0
M  V30 5722 C 647.067 -3.01676 1.9663 0
M  V30 5723 C 646.92 -2.82888 3.49707 0
M  V30 5724 C 648.239 -4.02274 1.78504 0
M  V30 5725 H 645.358 -0.602966 0.423793 0
M  V30 5726 H 648 -1.05418 1.58073 0
M  V30 5727 H 646.15 -3.53515 1.61119 0
M  V30 5728 H 647.822 -2.38026 3.95147 0
M  V30 5729 H 646.065 -2.17862 3.75125 0
M  V30 5730 H 646.736 -3.79147 4.01187 0
M  V30 5731 H 649.212 -3.59511 2.09503 0
M  V30 5732 H 648.088 -4.95056 2.37088 0
M  V30 5733 H 648.349 -4.35903 0.737647 0
M  V30 5734 N 647.408 -1.11026 -1.11852 0
M  V30 5735 C 648.636 -0.878818 -1.87308 0
M  V30 5736 C 649.051 0.57111 -1.79955 0
M  V30 5737 O 648.408 1.39409 -1.17777 0
M  V30 5738 C 648.459 -1.3264 -3.36287 0
M  V30 5739 O 648.18 -2.71948 -3.43476 0
M  V30 5740 C 649.681 -1.12974 -4.28663 0
M  V30 5741 H 646.901 -0.315015 -0.592458 0
M  V30 5742 H 649.445 -1.47649 -1.41492 0
M  V30 5743 H 647.6 -0.772269 -3.79625 0
M  V30 5744 H 648.014 -2.91241 -4.3621 0
M  V30 5745 H 649.488 -1.49198 -5.31454 0
M  V30 5746 H 649.965 -0.0689127 -4.39146 0
M  V30 5747 H 650.571 -1.67064 -3.91113 0
M  V30 5748 N 648.886 1.2938 -0.899927 0
M  V30 5749 C 650.111 2.00228 -0.540692 0
M  V30 5750 C 650.536 1.66909 0.867359 0
M  V30 5751 O 649.894 0.893824 1.57735 0
M  V30 5752 C 649.942 3.52921 -0.740232 0
M  V30 5753 O 649.046 4.11879 0.207154 0
M  V30 5754 H 648.387 0.629505 -0.211233 0
M  V30 5755 H 650.917 1.6487 -1.21158 0
M  V30 5756 H 650.927 4.0287 -0.644973 0
M  V30 5757 H 649.602 3.76508 -1.76677 0
M  V30 5758 H 648.179 3.72845 0.0643315 0
M  V30 5759 N 650.364 0.662433 1.43002 0
M  V30 5760 C 651.327 -0.0142016 2.29196 0
M  V30 5761 C 652.327 -0.741394 1.42688 0
M  V30 5762 O 653.517 -0.581257 1.64216 0
M  V30 5763 C 650.649 -1.03084 3.24941 0
M  V30 5764 H 651.842 0.7443 2.90517 0
M  V30 5765 H 649.395 0.424133 1.50435 0
M  V30 5766 H 650.13 -1.81826 2.68533 0
M  V30 5767 H 649.915 -0.512946 3.8873 0
M  V30 5768 H 651.405 -1.50308 3.89612 0
M  V30 5769 N 651.842 -1.52309 0.404946 0
M  V30 5770 C 653.253 -1.86585 -0.0655926 0
M  V30 5771 C 653.604 -1.3239 -1.44801 0
M  V30 5772 O 652.729 -0.6615 -2.06042 0
M  V30 5773 C 653.324 -3.38566 -0.125801 0
M  V30 5774 C 651.883 -3.72497 -0.540666 0
M  V30 5775 C 651.03 -2.75806 0.287487 0
M  V30 5776 H 653.981 -1.45995 0.622185 0
M  V30 5777 H 654.002 -3.68658 -0.941888 0
M  V30 5778 H 653.514 -3.77981 0.880473 0
M  V30 5779 H 651.615 -3.38659 -1.55373 0
M  V30 5780 H 651.728 -4.78234 -0.287956 0
M  V30 5781 H 650.092 -2.53474 -0.249561 0
M  V30 5782 H 650.875 -3.18059 1.29203 0
M  V30 5783 N 653.32 -0.135238 -1.57019 0
M  V30 5784 C 654.597 0.563227 -1.87316 0
M  V30 5785 C 654.977 1.83749 -1.03921 0
M  V30 5786 O 654.325 2.2817 -0.122675 0
M  V30 5787 C 654.535 0.840031 -3.3874 0
M  V30 5788 C 655.883 1.18598 -4.077 0
M  V30 5789 O 656.907 0.92977 -3.43851 0
M  V30 5790 O 655.766 1.66758 -5.20436 0
M  V30 5791 H 652.86 0.285971 -0.775983 0
M  V30 5792 H 655.406 -0.170965 -1.68837 0
M  V30 5793 H 654.178 -0.0622785 -3.9125 0
M  V30 5794 H 653.801 1.62882 -3.62706 0
M  V30 5795 N 654.798 1.5699 0.138552 0
M  V30 5796 C 656.026 1.87976 0.864437 0
M  V30 5797 C 656.441 0.724372 1.74351 0
M  V30 5798 O 655.798 -0.305575 1.79924 0
M  V30 5799 C 655.849 3.18276 1.71414 0
M  V30 5800 O 655.57 4.29365 0.870487 0
M  V30 5801 C 657.071 3.62834 2.54688 0
M  V30 5802 H 654.291 0.622878 0.249528 0
M  V30 5803 H 656.835 2.04094 0.128805 0
M  V30 5804 H 654.99 3.03886 2.40274 0
M  V30 5805 H 655.404 5.03924 1.45466 0
M  V30 5806 H 656.878 4.5682 3.0987 0
M  V30 5807 H 657.355 2.88533 3.31127 0
M  V30 5808 H 657.961 3.79946 1.91105 0
M  V30 5809 N 656.276 -0.40816 1.52223 0
M  V30 5810 C 657.692 -0.74685 1.41047 0
M  V30 5811 C 657.892 -1.94788 0.51573 0
M  V30 5812 O 656.948 -2.52494 -0.0181156 0
M  V30 5813 C 658.261 -0.999878 2.83589 0
M  V30 5814 C 659.809 -1.10253 2.92939 0
M  V30 5815 C 660.284 -1.38832 4.36451 0
M  V30 5816 N 661.775 -1.45694 4.3969 0
M  V30 5817 C 662.51 -1.69435 5.47795 0
M  V30 5818 N 662.006 -1.90774 6.66016 0
M  V30 5819 N 663.799 -1.71458 5.35312 0
M  V30 5820 H 655.95 0.382409 2.08929 0
M  V30 5821 H 658.213 0.108807 0.941735 0
M  V30 5822 H 657.919 -0.189723 3.51188 0
M  V30 5823 H 657.793 -1.91978 3.24691 0
M  V30 5824 H 660.18 -1.90328 2.2552 0
M  V30 5825 H 660.261 -0.160973 2.55293 0
M  V30 5826 H 659.905 -0.592741 5.04429 0
M  V30 5827 H 659.835 -2.34241 4.71634 0
M  V30 5828 H 662.326 -1.3099 3.54472 0
M  V30 5829 H 662.639 -2.08342 7.44186 0
M  V30 5830 H 660.984 -1.88037 6.69079 0
M  V30 5831 H 664.175 -1.54326 4.41929 0
M  V30 5832 H 664.348 -1.89621 6.19635 0
M  V30 5833 N 657.755 -1.42862 -0.66545 0
M  V30 5834 C 659.166 -1.3901 -1.24632 0
M  V30 5835 C 659.517 -0.0880285 -1.96002 0
M  V30 5836 O 658.642 0.812947 -2.0055 0
M  V30 5837 C 659.237 -2.51806 -2.2667 0
M  V30 5838 C 657.796 -2.51257 -2.80262 0
M  V30 5839 C 656.943 -2.30124 -1.5472 0
M  V30 5840 H 659.894 -1.5194 -0.458237 0
M  V30 5841 H 659.915 -2.22593 -3.08598 0
M  V30 5842 H 659.427 -3.46558 -1.74697 0
M  V30 5843 H 657.528 -1.60349 -3.36332 0
M  V30 5844 H 657.641 -3.48614 -3.28641 0
M  V30 5845 H 656.005 -1.7856 -1.81627 0
M  V30 5846 H 656.788 -3.26945 -1.04699 0
M  V30 5847 N 659.233 0.902656 -1.29189 0
M  V30 5848 C 660.196 1.98797 -1.14071 0
M  V30 5849 C 661.196 1.60615 -0.0770549 0
M  V30 5850 O 662.386 1.71165 -0.323753 0
M  V30 5851 C 659.518 3.32688 -0.743739 0
M  V30 5852 H 660.711 2.13637 -2.10473 0
M  V30 5853 H 658.264 1.08678 -1.12334 0
M  V30 5854 H 658.999 3.23549 0.220554 0
M  V30 5855 H 658.784 3.61765 -1.51223 0
M  V30 5856 H 660.274 4.12337 -0.660935 0
M  V30 5857 N 660.711 1.11618 1.11262 0
M  V30 5858 C 662.122 0.881942 1.64556 0
M  V30 5859 C 662.473 -0.585442 1.87262 0
M  V30 5860 O 661.598 -1.44795 1.60821 0
M  V30 5861 C 662.193 1.59446 2.98935 0
M  V30 5862 C 660.752 1.40661 3.4913 0
M  V30 5863 C 659.899 1.63593 2.23903 0
M  V30 5864 H 662.85 1.27217 0.94877 0
M  V30 5865 H 662.871 1.04054 3.65996 0
M  V30 5866 H 662.383 2.66241 2.82378 0
M  V30 5867 H 660.484 0.360835 3.70849 0
M  V30 5868 H 660.597 2.15693 4.27801 0
M  V30 5869 H 658.961 1.05944 2.3162 0
M  V30 5870 H 659.744 2.71666 2.09886 0
M  V30 5871 N 662.189 -1.289 0.906776 0
M  V30 5872 C 663.437 -1.94883 0.535266 0
M  V30 5873 C 663.758 -1.71784 -0.922791 0
M  V30 5874 O 663.028 -1.05359 -1.65156 0
M  V30 5875 H 661.608 -0.721109 0.194962 0
M  V30 5876 H 664.27 -1.57018 1.15461 0
M  V30 5877 H 663.366 -3.03591 0.723821 0
M  V30 5878 N 663.667 -0.670007 -1.42649 0
M  V30 5879 C 664.892 -0.196955 -2.06463 0
M  V30 5880 C 665.317 1.1352 -1.49983 0
M  V30 5881 O 664.675 1.705 -0.616397 0
M  V30 5882 C 664.723 -0.137381 -3.60338 0
M  V30 5883 O 663.827 0.895523 -4.02559 0
M  V30 5884 H 663.168 -0.102579 -0.656029 0
M  V30 5885 H 665.698 -0.917669 -1.82866 0
M  V30 5886 H 665.708 0.0403625 -4.0798 0
M  V30 5887 H 664.383 -1.10977 -4.0082 0
M  V30 5888 H 662.96 0.689209 -3.66476 0
M  V30 5889 N 665.145 1.52092 -0.413018 0
M  V30 5890 C 666.373 2.06274 0.160881 0
M  V30 5891 C 666.788 1.28273 1.38533 0
M  V30 5892 O 666.145 0.33563 1.79387 0
M  V30 5893 C 666.196 3.57921 0.507443 0
M  V30 5894 O 665.917 4.32971 -0.668388 0
M  V30 5895 C 667.418 4.28533 1.13465 0
M  V30 5896 H 664.638 0.67074 0.0186759 0
M  V30 5897 H 667.182 1.95951 -0.585092 0
M  V30 5898 H 665.337 3.68238 1.20331 0
M  V30 5899 H 665.751 5.23135 -0.378169 0
M  V30 5900 H 667.225 5.35804 1.32732 0
M  V30 5901 H 667.702 3.85258 2.10886 0
M  V30 5902 H 668.308 4.22595 0.478876 0
M  V30 5903 N 666.623 0.143563 1.56945 0
M  V30 5904 C 667.586 -0.783295 2.154 0
M  V30 5905 C 668.586 -1.17763 1.09492 0
M  V30 5906 O 669.776 -1.09912 1.35148 0
M  V30 5907 C 666.908 -2.06248 2.7143 0
M  V30 5908 H 668.101 -0.274863 2.98638 0
M  V30 5909 H 665.654 -0.105859 1.55941 0
M  V30 5910 H 666.389 -2.61466 1.91849 0
M  V30 5911 H 666.174 -1.78897 3.4891 0
M  V30 5912 H 667.664 -2.72453 3.16479 0
M  V30 5913 N 668.101 -1.57061 -0.130224 0
M  V30 5914 C 669.512 -1.73539 -0.68856 0
M  V30 5915 C 669.863 -0.760554 -1.80859 0
M  V30 5916 O 668.988 0.0690796 -2.1629 0
M  V30 5917 C 669.583 -3.14666 -1.25581 0
M  V30 5918 C 668.142 -3.32689 -1.76055 0
M  V30 5919 C 667.289 -2.69436 -0.655712 0
M  V30 5920 H 670.24 -1.58412 0.0956002 0
M  V30 5921 H 670.261 -3.15595 -2.12556 0
M  V30 5922 H 669.773 -3.85593 -0.440412 0
M  V30 5923 H 667.874 -2.66786 -2.60108 0
M  V30 5924 H 667.987 -4.4077 -1.87772 0
M  V30 5925 H 666.351 -2.30362 -1.08654 0
M  V30 5926 H 667.134 -3.42979 0.14852 0
M  V30 5927 N 669.579 0.400081 -1.52437 0
M  V30 5928 C 670.99 0.97851 -1.59003 0
M  V30 5929 C 671.341 1.91293 -0.436068 0
M  V30 5930 O 670.466 2.1183 0.442365 0
M  V30 5931 C 671.061 1.78145 -2.88184 0
M  V30 5932 C 669.62 2.30976 -2.97199 0
M  V30 5933 C 668.767 1.11212 -2.54022 0
M  V30 5934 H 671.718 0.180002 -1.57676 0
M  V30 5935 H 671.739 2.63968 -2.74046 0
M  V30 5936 H 671.251 1.1011 -3.72152 0
M  V30 5937 H 669.352 3.02355 -2.17744 0
M  V30 5938 H 669.465 2.61221 -4.01622 0
M  V30 5939 H 667.829 1.46882 -2.08081 0
M  V30 5940 H 668.612 0.447307 -3.40373 0
M  V30 5941 N 671.057 1.43213 0.657864 0
M  V30 5942 C 672.02 1.47687 1.75275 0
M  V30 5943 C 673.02 0.362179 1.56668 0
M  V30 5944 O 674.21 0.623734 1.62651 0
M  V30 5945 C 671.342 1.32497 3.14098 0
M  V30 5946 H 672.535 2.4519 1.7269 0
M  V30 5947 H 670.088 1.2991 0.869087 0
M  V30 5948 H 670.823 0.359831 3.22298 0
M  V30 5949 H 670.608 2.13299 3.29008 0
M  V30 5950 H 672.098 1.38549 3.93946 0
M  V30 5951 N 672.536 -0.895792 1.29666 0
M  V30 5952 C 673.486 -1.98736 1.1175 0
M  V30 5953 C 674.47 -1.6086 0.0357834 0
M  V30 5954 O 675.662 -1.75111 0.257926 0
M  V30 5955 C 672.791 -3.33845 0.800156 0
M  V30 5956 C 671.877 -3.78068 1.9216 0
M  V30 5957 N 672.268 -3.94489 3.16563 0
M  V30 5958 C 670.566 -4.07376 1.81552 0
M  V30 5959 C 671.267 -4.31819 3.89753 0
M  V30 5960 N 670.243 -4.41081 3.17724 0
M  V30 5961 H 674.045 -2.09507 2.06117 0
M  V30 5962 H 671.559 -1.08488 1.20848 0
M  V30 5963 H 673.556 -4.11757 0.652841 0
M  V30 5964 H 672.216 -3.24417 -0.135551 0
M  V30 5965 H 673.227 -3.79914 3.51974 0
M  V30 5966 H 669.904 -4.06483 0.952787 0
M  V30 5967 H 671.294 -4.52337 4.96831 0
M  V30 5968 N 674.014 -1.12206 -1.10668 0
M  V30 5969 C 675.262 -0.874144 -1.82217 0
M  V30 5970 C 675.583 0.601736 -1.85484 0
M  V30 5971 O 674.853 1.43725 -1.33116 0
M  V30 5972 H 673.433 -0.320404 -0.674797 0
M  V30 5973 H 676.095 -1.41606 -1.33917 0
M  V30 5974 H 675.191 -1.25349 -2.85822 0
M  V30 5975 N 675.492 1.28418 -0.913599 0
M  V30 5976 C 676.738 1.9527 -0.547484 0
M  V30 5977 C 677.071 1.71745 0.906486 0
M  V30 5978 O 676.346 1.03834 1.64465 0
M  V30 5979 C 676.629 3.49748 -0.857205 0
M  V30 5980 C 676.482 3.82675 -2.3639 0
M  V30 5981 C 677.801 4.3868 -0.353258 0
M  V30 5982 H 674.92 0.709236 -0.200381 0
M  V30 5983 H 677.562 1.51789 -1.14281 0
M  V30 5984 H 675.712 3.86915 -0.350548 0
M  V30 5985 H 677.384 3.55378 -2.94116 0
M  V30 5986 H 675.627 3.29724 -2.81894 0
M  V30 5987 H 676.298 4.90547 -2.53115 0
M  V30 5988 H 678.774 4.08584 -0.787288 0
M  V30 5989 H 677.65 5.45621 -0.599049 0
M  V30 5990 H 677.911 4.35753 0.746413 0
M  V30 5991 N 676.97 0.677563 1.42291 0
M  V30 5992 C 678.198 0.209459 2.05837 0
M  V30 5993 C 678.613 -1.13444 1.50917 0
M  V30 5994 O 677.97 -1.70529 0.65008 0
M  V30 5995 C 678.021 0.138819 3.61233 0
M  V30 5996 O 677.742 1.42962 4.14118 0
M  V30 5997 C 679.243 -0.352449 4.41897 0
M  V30 5998 H 676.463 0.101209 0.663323 0
M  V30 5999 H 679.007 0.925077 1.8238 0
M  V30 6000 H 677.162 -0.527505 3.83792 0
M  V30 6001 H 677.576 1.3048 5.08011 0
M  V30 6002 H 679.05 -0.350778 5.50884 0
M  V30 6003 H 679.527 -1.3882 4.16684 0
M  V30 6004 H 680.133 0.282236 4.24362 0
M  V30 6005 N 678.448 -1.51871 0.421078 0
M  V30 6006 C 679.673 -2.0684 -0.152371 0
M  V30 6007 C 680.098 -1.28802 -1.37083 0
M  V30 6008 O 679.456 -0.321482 -1.78427 0
M  V30 6009 C 679.504 -3.57532 -0.469368 0
M  V30 6010 O 678.608 -3.81818 -1.55848 0
M  V30 6011 H 677.949 -0.663939 -0.00898586 0
M  V30 6012 H 680.479 -1.95674 0.597724 0
M  V30 6013 H 680.489 -4.01515 -0.724553 0
M  V30 6014 H 679.164 -4.13761 0.421276 0
M  V30 6015 H 677.741 -3.49709 -1.29453 0
M  V30 6016 N 679.926 -0.151884 -1.56866 0
M  V30 6017 C 680.889 0.771861 -2.15812 0
M  V30 6018 C 681.889 1.17181 -1.10115 0
M  V30 6019 O 683.079 1.09194 -1.35729 0
M  V30 6020 C 680.211 2.04806 -2.7252 0
M  V30 6021 H 681.404 0.259021 -2.98779 0
M  V30 6022 H 678.957 0.097588 -1.55995 0
M  V30 6023 H 679.692 2.60445 -1.93233 0
M  V30 6024 H 679.477 1.77044 -3.49854 0
M  V30 6025 H 680.967 2.70771 -3.1792 0
M  V30 6026 N 681.404 1.57128 0.121893 0
M  V30 6027 C 682.815 1.73902 0.679348 0
M  V30 6028 C 683.166 0.770135 1.80453 0
M  V30 6029 O 682.291 -0.0576083 2.16323 0
M  V30 6030 C 682.886 3.15328 1.2391 0
M  V30 6031 C 681.445 3.33618 1.74288 0
M  V30 6032 C 680.592 2.6978 0.641414 0
M  V30 6033 H 683.543 1.58359 -0.104 0
M  V30 6034 H 683.564 3.16718 2.10879 0
M  V30 6035 H 683.076 3.85821 0.419957 0
M  V30 6036 H 681.177 2.68162 2.58689 0
M  V30 6037 H 681.29 4.4176 1.85432 0
M  V30 6038 H 679.654 2.30935 1.0743 0
M  V30 6039 H 680.437 3.42895 -0.166707 0
M  V30 6040 N 682.882 -0.391992 1.52647 0
M  V30 6041 C 684.159 -1.15136 1.58123 0
M  V30 6042 C 684.539 -2.07786 0.372597 0
M  V30 6043 O 683.887 -2.19374 -0.639304 0
M  V30 6044 C 684.097 -1.91367 2.91856 0
M  V30 6045 C 685.445 -2.46833 3.45483 0
M  V30 6046 O 686.469 -2.01527 2.9371 0
M  V30 6047 O 685.328 -3.29587 4.3593 0
M  V30 6048 H 682.422 -0.526649 0.637629 0
M  V30 6049 H 684.968 -0.397386 1.64982 0
M  V30 6050 H 683.74 -1.23597 3.71268 0
M  V30 6051 H 683.363 -2.73732 2.88369 0
M  V30 6052 N 684.36 -1.4356 -0.65026 0
M  V30 6053 C 685.588 -1.48779 -1.43779 0
M  V30 6054 C 686.003 -0.106593 -1.88499 0
M  V30 6055 O 685.36 0.883766 -1.59674 0
M  V30 6056 C 685.411 -2.43618 -2.67081 0
M  V30 6057 O 685.132 -3.76367 -2.24231 0
M  V30 6058 C 686.633 -2.5811 -3.60409 0
M  V30 6059 H 683.853 -0.50521 -0.441593 0
M  V30 6060 H 686.397 -1.88332 -0.796941 0
M  V30 6061 H 684.552 -2.07253 -3.273 0
M  V30 6062 H 684.966 -4.27394 -3.0403 0
M  V30 6063 H 686.44 -3.28539 -4.43583 0
M  V30 6064 H 686.917 -1.627 -4.07953 0
M  V30 6065 H 687.523 -2.95298 -3.0607 0
M  V30 6066 N 685.838 0.888903 -1.30139 0
M  V30 6067 C 687.254 1.17153 -1.08385 0
M  V30 6068 C 687.454 2.0088 0.157925 0
M  V30 6069 O 686.51 2.37668 0.852652 0
M  V30 6070 C 687.823 1.882 -2.34523 0
M  V30 6071 C 689.371 2.00981 -2.39949 0
M  V30 6072 C 689.846 2.75441 -3.65918 0
M  V30 6073 N 691.337 2.82989 -3.66704 0
M  V30 6074 C 692.072 3.41167 -4.60861 0
M  V30 6075 N 691.568 4.00425 -5.6536 0
M  V30 6076 N 693.361 3.38944 -4.48412 0
M  V30 6077 H 685.512 0.33053 -2.09812 0
M  V30 6078 H 687.775 0.208964 -0.924683 0
M  V30 6079 H 687.481 1.34119 -3.25123 0
M  V30 6080 H 687.355 2.88609 -2.42868 0
M  V30 6081 H 689.742 2.54234 -1.4983 0
M  V30 6082 H 689.823 0.996725 -2.35582 0
M  V30 6083 H 689.467 2.22861 -4.56394 0
M  V30 6084 H 689.397 3.77118 -3.67546 0
M  V30 6085 H 691.888 2.40912 -2.91153 0
M  V30 6086 H 692.201 4.42871 -6.33313 0
M  V30 6087 H 690.546 3.98856 -5.69157 0
M  V30 6088 H 693.737 2.91875 -3.6596 0
M  V30 6089 H 693.91 3.83989 -5.21974 0
M  V30 6090 N 687.317 1.12792 1.10072 0
M  V30 6091 C 688.728 0.899346 1.63611 0
M  V30 6092 C 689.079 -0.565547 1.87872 0
M  V30 6093 O 688.204 -1.43081 1.62348 0
M  V30 6094 C 688.799 1.62608 2.97227 0
M  V30 6095 C 687.358 1.44356 3.47618 0
M  V30 6096 C 686.505 1.65958 2.22156 0
M  V30 6097 H 689.456 1.28216 0.935223 0
M  V30 6098 H 689.477 1.0793 3.64872 0
M  V30 6099 H 688.989 2.69221 2.79538 0
M  V30 6100 H 687.09 0.400148 3.70445 0
M  V30 6101 H 687.203 2.20218 4.25489 0
M  V30 6102 H 685.567 1.08395 2.30484 0
M  V30 6103 H 686.35 2.73877 2.06993 0
M  V30 6104 N 688.795 -1.27931 0.920396 0
M  V30 6105 C 689.758 -2.25345 0.41858 0
M  V30 6106 C 690.758 -1.54116 -0.458798 0
M  V30 6107 O 691.948 -1.72235 -0.260912 0
M  V30 6108 C 689.08 -3.38556 -0.399104 0
M  V30 6109 H 690.273 -2.71251 1.27918 0
M  V30 6110 H 687.826 -1.39728 0.700406 0
M  V30 6111 H 688.561 -2.98021 -1.27882 0
M  V30 6112 H 688.346 -3.91426 0.229863 0
M  V30 6113 H 689.836 -4.10976 -0.740817 0
M  V30 6114 N 690.273 -0.685099 -1.4193 0
M  V30 6115 C 691.684 -0.287699 -1.8447 0
M  V30 6116 C 692.035 1.17215 -1.57338 0
M  V30 6117 O 691.16 1.89856 -1.03845 0
M  V30 6118 C 691.755 -0.515385 -3.34857 0
M  V30 6119 C 690.314 -0.172006 -3.76007 0
M  V30 6120 C 689.461 -0.802808 -2.65425 0
M  V30 6121 H 692.412 -0.88652 -1.3163 0
M  V30 6122 H 692.433 0.229251 -3.79809 0
M  V30 6123 H 691.945 -1.57796 -3.54573 0
M  V30 6124 H 690.046 0.886716 -3.61895 0
M  V30 6125 H 690.159 -0.619717 -4.75075 0
M  V30 6126 H 688.523 -0.233267 -2.5363 0
M  V30 6127 H 689.306 -1.86904 -2.87961 0
M  V30 6128 N 691.751 1.51645 -0.429126 0
M  V30 6129 C 692.999 2.01616 0.139802 0
M  V30 6130 C 693.32 1.31568 1.43927 0
M  V30 6131 O 692.59 0.447688 1.90716 0
M  V30 6132 H 691.17 0.744998 0.054654 0
M  V30 6133 H 693.832 1.8638 -0.569952 0
M  V30 6134 H 692.928 3.10439 0.321609 0
M  V30 6135 N 693.229 0.160201 1.56784 0
M  V30 6136 C 694.454 -0.497373 2.01348 0
M  V30 6137 C 694.879 -1.56757 1.03966 0
M  V30 6138 O 694.237 -1.81292 0.0174455 0
M  V30 6139 C 694.285 -1.0628 3.44582 0
M  V30 6140 O 693.389 -2.17723 3.50244 0
M  V30 6141 H 692.73 -0.120295 0.653012 0
M  V30 6142 H 695.26 0.260821 2.02931 0
M  V30 6143 H 695.27 -1.38819 3.83658 0
M  V30 6144 H 693.945 -0.279166 4.14962 0
M  V30 6145 H 692.522 -1.86313 3.2302 0
M  V30 6146 N 694.707 -1.5719 -0.113559 0
M  V30 6147 C 695.935 -1.89328 -0.834422 0
M  V30 6148 C 696.35 -0.752018 -1.73177 0
M  V30 6149 O 695.707 0.276912 -1.80387 0
M  V30 6150 C 695.758 -3.20962 -1.66329 0
M  V30 6151 O 695.479 -4.30695 -0.802069 0
M  V30 6152 C 696.98 -3.6684 -2.48884 0
M  V30 6153 H 694.2 -0.626769 -0.239587 0
M  V30 6154 H 696.744 -2.04273 -0.0963195 0
M  V30 6155 H 694.899 -3.0767 -2.35409 0
M  V30 6156 H 695.313 -5.06175 -1.37431 0
M  V30 6157 H 696.787 -4.61692 -3.02563 0
M  V30 6158 H 697.264 -2.93765 -3.26495 0
M  V30 6159 H 697.87 -3.82938 -1.85036 0
M  V30 6160 N 696.185 0.383891 -1.52853 0
M  V30 6161 C 697.148 1.45197 -1.77343 0
M  V30 6162 C 698.148 1.47362 -0.643522 0
M  V30 6163 O 699.338 1.48443 -0.911613 0
M  V30 6164 C 696.47 2.8445 -1.87885 0
M  V30 6165 H 697.663 1.24764 -2.72716 0
M  V30 6166 H 695.216 0.615939 -1.43652 0
M  V30 6167 H 695.951 3.10222 -0.94515 0
M  V30 6168 H 695.736 2.8428 -2.70051 0
M  V30 6169 H 697.226 3.61832 -2.08488 0
M  V30 6170 N 697.663 1.43903 0.642637 0
M  V30 6171 C 699.074 1.40975 1.22404 0
M  V30 6172 C 699.425 0.1192 1.95838 0
M  V30 6173 O 698.55 -0.780939 2.01818 0
M  V30 6174 C 699.145 2.5538 2.22636 0
M  V30 6175 C 697.704 2.55684 2.76229 0
M  V30 6176 C 696.851 2.32556 1.51039 0
M  V30 6177 H 699.802 1.5265 0.434006 0
M  V30 6178 H 699.823 2.27474 3.05017 0
M  V30 6179 H 699.335 3.49294 1.69161 0
M  V30 6180 H 697.436 1.65679 3.33738 0
M  V30 6181 H 697.549 3.53799 3.23053 0
M  V30 6182 H 695.913 1.81427 1.78764 0
M  V30 6183 H 696.696 3.28569 0.99484 0
M  V30 6184 N 699.141 -0.881989 1.30609 0
M  V30 6185 C 700.552 -1.44956 1.17664 0
M  V30 6186 C 700.903 -1.94945 -0.221531 0
M  V30 6187 O 700.028 -1.85257 -1.11844 0
M  V30 6188 C 700.623 -2.63474 2.12995 0
M  V30 6189 C 699.182 -3.16312 2.04019 0
M  V30 6190 C 698.329 -1.89008 2.02907 0
M  V30 6191 H 701.28 -0.691645 1.42835 0
M  V30 6192 H 701.301 -3.39783 1.71253 0
M  V30 6193 H 700.813 -2.2706 3.14746 0
M  V30 6194 H 698.914 -3.57376 1.0542 0
M  V30 6195 H 699.027 -3.79409 2.9255 0
M  V30 6196 H 697.391 -2.07465 1.47751 0
M  V30 6197 H 698.174 -1.54848 3.06394 0
M  V30 6198 N 700.619 -1.13374 -1.09472 0
M  V30 6199 C 701.582 -0.813639 -2.14272 0
M  V30 6200 C 702.582 0.176677 -1.59826 0
M  V30 6201 O 703.772 -0.0503441 -1.74127 0
M  V30 6202 C 700.904 -0.210897 -3.40247 0
M  V30 6203 H 702.097 -1.74229 -2.44099 0
M  V30 6204 H 699.65 -0.938304 -1.25002 0
M  V30 6205 H 700.385 0.726998 -3.16046 0
M  V30 6206 H 700.17 -0.924048 -3.81056 0
M  V30 6207 H 701.66 -0.00377603 -4.176 0
M  V30 6208 N 702.098 1.27442 -0.927168 0
M  V30 6209 C 703.048 2.24519 -0.396878 0
M  V30 6210 C 704.032 1.52981 0.498555 0
M  V30 6211 O 705.224 1.7378 0.336087 0
M  V30 6212 C 702.353 3.41514 0.349694 0
M  V30 6213 C 701.439 4.20357 -0.562226 0
M  V30 6214 N 701.83 4.7702 -1.68182 0
M  V30 6215 C 700.128 4.44503 -0.365135 0
M  V30 6216 C 700.829 5.36467 -2.24895 0
M  V30 6217 N 699.805 5.21371 -1.5386 0
M  V30 6218 H 703.607 2.65911 -1.25173 0
M  V30 6219 H 701.121 1.42366 -0.78138 0
M  V30 6220 H 703.118 4.10161 0.746536 0
M  V30 6221 H 701.778 3.01653 1.20148 0
M  V30 6222 H 702.789 4.74985 -2.06421 0
M  V30 6223 H 699.466 4.15111 0.446037 0
M  V30 6224 H 700.856 5.91264 -3.1915 0
M  V30 6225 N 703.576 0.692616 1.41565 0
M  V30 6226 C 704.824 0.221896 2.00878 0
M  V30 6227 C 705.145 -1.18164 1.5512 0
M  V30 6228 O 704.415 -1.79679 0.78054 0
M  V30 6229 H 702.995 0.0790463 0.742806 0
M  V30 6230 H 705.657 0.893115 1.73232 0
M  V30 6231 H 704.753 0.23702 3.11199 0
M  V30 6232 N 705.054 -1.51416 0.437162 0
M  V30 6233 C 706.3 -2.02386 -0.129555 0
M  V30 6234 C 706.633 -1.32071 -1.42376 0
M  V30 6235 O 705.908 -0.43559 -1.8956 0
M  V30 6236 C 706.191 -3.5841 -0.348487 0
M  V30 6237 C 706.044 -4.39341 0.964352 0
M  V30 6238 C 707.363 -4.25654 -1.11834 0
M  V30 6239 H 704.482 -0.735587 -0.0456109 0
M  V30 6240 H 707.124 -1.81055 0.576124 0
M  V30 6241 H 705.274 -3.76716 -0.949592 0
M  V30 6242 H 706.946 -4.32685 1.59942 0
M  V30 6243 H 705.189 -4.04432 1.56898 0
M  V30 6244 H 705.86 -5.4667 0.765212 0
M  V30 6245 H 708.336 -4.11617 -0.609165 0
M  V30 6246 H 707.212 -5.34704 -1.24029 0
M  V30 6247 H 707.473 -3.86502 -2.14636 0
M  V30 6248 N 706.532 -0.168513 -1.56696 0
M  V30 6249 C 707.76 0.483503 -2.01171 0
M  V30 6250 C 708.175 1.56994 -1.04872 0
M  V30 6251 O 707.532 1.82434 -0.0491337 0
M  V30 6252 C 707.583 1.0644 -3.45475 0
M  V30 6253 O 707.304 0.0213375 -4.38095 0
M  V30 6254 C 708.805 1.79493 -4.05336 0
M  V30 6255 H 706.025 0.124002 -0.659443 0
M  V30 6256 H 708.569 -0.269419 -2.02717 0
M  V30 6257 H 706.724 1.76784 -3.44712 0
M  V30 6258 H 707.138 0.449837 -5.22567 0
M  V30 6259 H 708.612 2.15401 -5.08238 0
M  V30 6260 H 709.089 2.68889 -3.47269 0
M  V30 6261 H 709.695 1.13798 -4.09793 0
M  V30 6262 N 708.01 1.57248 0.105221 0
M  V30 6263 C 709.235 1.90143 0.828264 0
M  V30 6264 C 709.66 0.761811 1.71983 0
M  V30 6265 O 709.018 -0.287086 1.79013 0
M  V30 6266 C 709.066 3.21856 1.62608 0
M  V30 6267 O 708.17 3.08732 2.7342 0
M  V30 6268 H 707.511 0.623558 0.228192 0
M  V30 6269 H 710.041 2.0443 0.0834826 0
M  V30 6270 H 710.051 3.54916 2.01243 0
M  V30 6271 H 708.726 4.0439 0.971687 0
M  V30 6272 H 707.303 2.87167 2.37886 0
M  V30 6273 N 709.488 -0.375779 1.53054 0
M  V30 6274 C 710.451 -1.44254 1.7811 0
M  V30 6275 C 711.451 -1.47018 0.651328 0
M  V30 6276 O 712.641 -1.47957 0.919472 0
M  V30 6277 C 709.773 -2.8345 1.89391 0
M  V30 6278 H 710.966 -1.23316 2.73374 0
M  V30 6279 H 708.519 -0.608312 1.43977 0
M  V30 6280 H 709.254 -3.09716 0.961589 0
M  V30 6281 H 709.039 -2.82844 2.71555 0
M  V30 6282 H 710.529 -3.60722 2.10404 0
M  V30 6283 N 710.966 -1.44241 -0.634997 0
M  V30 6284 C 712.377 -1.41622 -1.21655 0
M  V30 6285 C 712.728 -0.129584 -1.95772 0
M  V30 6286 O 711.853 0.770225 -2.02229 0
M  V30 6287 C 712.448 -2.56557 -2.21278 0
M  V30 6288 C 711.007 -2.57145 -2.7487 0
M  V30 6289 C 710.154 -2.33354 -1.49804 0
M  V30 6290 H 713.105 -1.52878 -0.425905 0
M  V30 6291 H 713.126 -2.29089 -3.03807 0
M  V30 6292 H 712.638 -3.50186 -1.67306 0
M  V30 6293 H 710.739 -1.67447 -3.32855 0
M  V30 6294 H 710.852 -3.55507 -3.21172 0
M  V30 6295 H 709.216 -1.82372 -1.77799 0
M  V30 6296 H 709.999 -3.29092 -0.977402 0
M  V30 6297 N 712.444 0.87505 -1.31075 0
M  V30 6298 C 713.721 1.60976 -1.11113 0
M  V30 6299 C 714.101 2.08409 0.336006 0
M  V30 6300 O 713.449 1.85858 1.32924 0
M  V30 6301 C 713.659 2.77166 -2.12085 0
M  V30 6302 C 715.007 3.47254 -2.44335 0
M  V30 6303 O 716.031 2.87367 -2.10472 0
M  V30 6304 O 714.89 4.55276 -3.02301 0
M  V30 6305 H 711.984 0.707982 -0.427424 0
M  V30 6306 H 714.53 0.920957 -1.42536 0
M  V30 6307 H 713.302 2.39494 -3.09449 0
M  V30 6308 H 712.925 3.53737 -1.81538 0
M  V30 6309 N 713.922 1.13953 1.08869 0
M  V30 6310 C 715.15 0.92817 1.84912 0
M  V30 6311 C 715.565 -0.523197 1.81406 0
M  V30 6312 O 714.922 -1.36237 1.21432 0
M  V30 6313 C 714.973 1.41509 3.32652 0
M  V30 6314 O 714.694 2.80959 3.36145 0
M  V30 6315 C 716.195 1.243 4.25517 0
M  V30 6316 H 713.415 0.330612 0.583898 0
M  V30 6317 H 715.959 1.51349 1.37527 0
M  V30 6318 H 714.114 0.872648 3.77444 0
M  V30 6319 H 714.528 3.02704 4.28335 0
M  V30 6320 H 716.002 1.63237 5.27312 0
M  V30 6321 H 716.479 0.18532 4.38809 0
M  V30 6322 H 717.085 1.77375 3.86546 0
M  V30 6323 N 715.4 -1.26948 0.933913 0
M  V30 6324 C 716.816 -1.46419 0.635103 0
M  V30 6325 C 717.016 -1.84336 -0.813785 0
M  V30 6326 O 716.072 -1.96061 -1.59111 0
M  V30 6327 C 717.385 -2.55206 1.5903 0
M  V30 6328 C 718.933 -2.69062 1.5992 0
M  V30 6329 C 719.408 -3.81013 2.54152 0
M  V30 6330 N 720.899 -3.88395 2.52395 0
M  V30 6331 C 721.634 -4.74454 3.21996 0
M  V30 6332 N 721.13 -5.64954 4.00997 0
M  V30 6333 N 722.923 -4.68237 3.10983 0
M  V30 6334 H 715.074 -1.00622 1.87053 0
M  V30 6335 H 717.337 -0.503189 0.803433 0
M  V30 6336 H 717.043 -2.34153 2.62422 0
M  V30 6337 H 716.917 -3.52719 1.33677 0
M  V30 6338 H 719.304 -2.89492 0.572569 0
M  V30 6339 H 719.385 -1.72016 1.89325 0
M  V30 6340 H 719.029 -3.61336 3.5693 0
M  V30 6341 H 718.959 -4.77499 2.22041 0
M  V30 6342 H 721.45 -3.23687 1.95025 0
M  V30 6343 H 721.763 -6.27496 4.51074 0
M  V30 6344 H 720.108 -5.6473 4.05099 0
M  V30 6345 H 723.299 -3.96535 2.48753 0
M  V30 6346 H 723.472 -5.35087 3.65494 0
M  V30 6347 N 716.879 -0.700114 -1.41195 0
M  V30 6348 C 718.29 -0.307249 -1.84154 0
M  V30 6349 C 718.641 1.15539 -1.58572 0
M  V30 6350 O 717.766 1.88744 -1.05852 0
M  V30 6351 C 718.361 -0.550872 -3.34292 0
M  V30 6352 C 716.92 -0.211877 -3.75803 0
M  V30 6353 C 716.067 -0.830915 -2.64558 0
M  V30 6354 H 719.018 -0.900431 -1.30683 0
M  V30 6355 H 719.039 0.188954 -3.80031 0
M  V30 6356 H 718.551 -1.61548 -3.5288 0
M  V30 6357 H 716.652 0.848283 -3.62815 0
M  V30 6358 H 716.765 -0.67007 -4.74391 0
M  V30 6359 H 715.129 -0.260155 -2.53368 0
M  V30 6360 H 715.912 -1.89948 -2.85963 0
M  V30 6361 N 718.357 1.51182 -0.445186 0
M  V30 6362 C 719.32 2.26501 0.350722 0
M  V30 6363 C 720.32 1.3025 0.942952 0
M  V30 6364 O 721.51 1.53897 0.816175 0
M  V30 6365 C 718.642 3.06274 1.49697 0
M  V30 6366 H 719.835 2.98299 -0.309474 0
M  V30 6367 H 717.388 1.55034 -0.198551 0
M  V30 6368 H 718.123 2.38911 2.19299 0
M  V30 6369 H 717.908 3.76979 1.0784 0
M  V30 6370 H 719.398 3.63306 2.05909 0
M  V30 6371 N 719.835 0.176821 1.56605 0
M  V30 6372 C 721.246 -0.338963 1.83597 0
M  V30 6373 C 721.597 -1.62677 1.09684 0
M  V30 6374 O 720.722 -2.13524 0.351661 0
M  V30 6375 C 721.317 -0.62177 3.33046 0
M  V30 6376 C 719.876 -1.08198 3.60514 0
M  V30 6377 C 719.023 -0.120774 2.77037 0
M  V30 6378 H 721.974 0.400978 1.53551 0
M  V30 6379 H 721.995 -1.47321 3.50823 0
M  V30 6380 H 721.507 0.315692 3.86814 0
M  V30 6381 H 719.608 -2.03435 3.12162 0
M  V30 6382 H 719.721 -0.987329 4.68816 0
M  V30 6383 H 718.085 -0.619192 2.47059 0
M  V30 6384 H 718.868 0.810806 3.33588 0
M  V30 6385 N 721.313 -1.57302 -0.09688 0
M  V30 6386 C 722.561 -1.8563 -0.799117 0
M  V30 6387 C 722.882 -0.765263 -1.79356 0
M  V30 6388 O 722.152 0.208657 -1.94786 0
M  V30 6389 H 720.732 -0.684937 -0.298111 0
M  V30 6390 H 723.394 -1.9474 -0.0789341 0
M  V30 6391 H 722.49 -2.82305 -1.3308 0
M  V30 6392 N 722.791 0.367657 -1.53252 0
M  V30 6393 C 724.016 1.13566 -1.73544 0
M  V30 6394 C 724.441 1.82329 -0.462344 0
M  V30 6395 O 723.799 1.71655 0.583472 0
M  V30 6396 C 723.847 2.14322 -2.89997 0
M  V30 6397 O 722.951 3.21359 -2.58461 0
M  V30 6398 H 722.292 0.329614 -0.576412 0
M  V30 6399 H 724.822 0.425417 -2.00128 0
M  V30 6400 H 724.832 2.57958 -3.16104 0
M  V30 6401 H 723.507 1.63664 -3.82344 0
M  V30 6402 H 722.084 2.8271 -2.43165 0
M  V30 6403 N 724.269 1.44576 0.627338 0
M  V30 6404 C 725.497 1.51048 1.41394 0
M  V30 6405 C 725.912 0.136568 1.88305 0
M  V30 6406 O 725.269 -0.858251 1.6106 0
M  V30 6407 C 725.32 2.47837 2.63172 0
M  V30 6408 O 725.041 3.79887 2.18215 0
M  V30 6409 C 726.542 2.63811 3.56257 0
M  V30 6410 H 723.762 0.512171 0.4335 0
M  V30 6411 H 726.306 1.89576 0.766878 0
M  V30 6412 H 724.461 2.12433 3.23961 0
M  V30 6413 H 724.875 4.32177 2.97192 0
M  V30 6414 H 726.349 3.35554 4.38301 0
M  V30 6415 H 726.826 1.69169 4.05313 0
M  V30 6416 H 727.432 3.0013 3.01333 0
M  V30 6417 N 725.747 -0.868086 1.31537 0
M  V30 6418 C 726.71 -1.95703 1.19302 0
M  V30 6419 C 727.71 -1.60355 0.119612 0
M  V30 6420 O 728.9 -1.70247 0.36902 0
M  V30 6421 C 726.032 -3.30599 0.831684 0
M  V30 6422 H 727.225 -2.07982 2.16064 0
M  V30 6423 H 724.778 -1.05661 1.15176 0
M  V30 6424 H 725.513 -3.2402 -0.134694 0
M  V30 6425 H 725.298 -3.57629 1.60761 0
M  V30 6426 H 726.788 -4.10439 0.770026 0
M  V30 6427 N 727.225 -1.14528 -1.08264 0
M  V30 6428 C 728.636 -0.925261 -1.6216 0
M  V30 6429 C 728.987 0.535587 -1.88748 0
M  V30 6430 O 728.112 1.4048 -1.64604 0
M  V30 6431 C 728.707 -1.67316 -2.94603 0
M  V30 6432 C 727.266 -1.49868 -3.45278 0
M  V30 6433 C 726.413 -1.69471 -2.19487 0
M  V30 6434 H 729.364 -1.29687 -0.914707 0
M  V30 6435 H 729.385 -1.13721 -3.63109 0
M  V30 6436 H 728.897 -2.73635 -2.75219 0
M  V30 6437 H 726.998 -0.459032 -3.69762 0
M  V30 6438 H 727.111 -2.2696 -4.21931 0
M  V30 6439 H 725.475 -1.12048 -2.2873 0
M  V30 6440 H 726.258 -2.77136 -2.0261 0
M  V30 6441 N 728.703 1.26451 -0.940633 0
M  V30 6442 C 730.114 1.75726 -0.630653 0
M  V30 6443 C 730.465 1.76631 0.854167 0
M  V30 6444 O 729.59 1.37807 1.66848 0
M  V30 6445 C 730.185 3.19114 -1.13805 0
M  V30 6446 C 728.744 3.66005 -0.878497 0
M  V30 6447 C 727.891 2.45505 -1.28928 0
M  V30 6448 H 730.842 1.12535 -1.119 0
M  V30 6449 H 730.863 3.77311 -0.491625 0
M  V30 6450 H 730.375 3.18424 -2.21874 0
M  V30 6451 H 728.476 3.72126 0.187833 0
M  V30 6452 H 728.589 4.54844 -1.50512 0
M  V30 6453 H 726.953 2.4467 -0.707713 0
M  V30 6454 H 727.736 2.47516 -2.37888 0
M  V30 6455 N 730.181 0.707592 1.40822 0
M  V30 6456 C 731.144 0.0587224 2.29125 0
M  V30 6457 C 732.144 -0.695624 1.44975 0
M  V30 6458 O 733.334 -0.528718 1.65983 0
M  V30 6459 C 730.466 -0.926939 3.28056 0
M  V30 6460 H 731.659 0.836349 2.88002 0
M  V30 6461 H 729.212 0.471778 1.4901 0
M  V30 6462 H 729.947 -1.7319 2.74182 0
M  V30 6463 H 729.732 -0.389015 3.90165 0
M  V30 6464 H 731.222 -1.37837 3.94196 0
M  V30 6465 N 731.66 -1.50943 0.453197 0
M  V30 6466 C 732.61 -2.25003 -0.368467 0
M  V30 6467 C 733.594 -1.27864 -0.976714 0
M  V30 6468 O 734.786 -1.52867 -0.892228 0
M  V30 6469 C 731.915 -3.10701 -1.46014 0
M  V30 6470 C 731.001 -4.15278 -0.860506 0
M  V30 6471 N 731.392 -5.05799 0.00849611 0
M  V30 6472 C 729.69 -4.31542 -1.1264 0
M  V30 6473 C 730.391 -5.80664 0.346951 0
M  V30 6474 N 729.367 -5.42912 -0.273426 0
M  V30 6475 H 733.169 -2.92352 0.301246 0
M  V30 6476 H 730.683 -1.60203 0.266233 0
M  V30 6477 H 732.68 -3.62348 -2.06179 0
M  V30 6478 H 731.34 -2.44898 -2.13202 0
M  V30 6479 H 732.351 -5.16533 0.376077 0
M  V30 6480 H 729.028 -3.76962 -1.7946 0
M  V30 6481 H 730.418 -6.63565 1.05507 0
M  V30 6482 N 733.138 -0.185124 -1.56509 0
M  V30 6483 C 734.386 0.455357 -1.96903 0
M  V30 6484 C 734.707 1.62839 -1.07277 0
M  V30 6485 O 733.977 1.95385 -0.141966 0
M  V30 6486 H 732.557 0.171218 -0.727113 0
M  V30 6487 H 735.219 -0.26953 -1.93027 0
M  V30 6488 H 734.315 0.80616 -3.01509 0
M  V30 6489 N 734.616 1.57351 0.0885366 0
M  V30 6490 C 735.862 1.86696 0.791996 0
M  V30 6491 C 736.195 0.775148 1.78059 0
M  V30 6492 O 735.47 -0.216247 1.93294 0
M  V30 6493 C 735.753 3.26684 1.51491 0
M  V30 6494 C 735.606 4.465 0.543858 0
M  V30 6495 C 736.925 3.64664 2.46391 0
M  V30 6496 H 734.044 0.679049 0.286463 0
M  V30 6497 H 736.686 1.89919 0.0554866 0
M  V30 6498 H 734.836 3.24067 2.14273 0
M  V30 6499 H 736.508 4.61235 -0.0774597 0
M  V30 6500 H 734.751 4.33567 -0.142228 0
M  V30 6501 H 735.422 5.41192 1.08696 0
M  V30 6502 H 737.898 3.68267 1.93698 0
M  V30 6503 H 736.774 4.63534 2.93986 0
M  V30 6504 H 737.035 2.93698 3.30445 0
M  V30 6505 N 736.094 -0.359525 1.53444 0
M  V30 6506 C 737.322 -1.12198 1.73837 0
M  V30 6507 C 737.737 -1.82854 0.470107 0
M  V30 6508 O 737.094 -1.73781 -0.557349 0
M  V30 6509 C 737.145 -2.14769 2.90786 0
M  V30 6510 O 736.866 -1.46989 4.12706 0
M  V30 6511 C 738.367 -3.03514 3.231 0
M  V30 6512 H 735.587 -0.33524 0.581253 0
M  V30 6513 H 738.131 -0.416598 2.00212 0
M  V30 6514 H 736.286 -2.80896 2.66788 0
M  V30 6515 H 736.7 -2.15378 4.78239 0
M  V30 6516 H 738.174 -3.71453 4.08322 0
M  V30 6517 H 738.651 -3.68658 2.38721 0
M  V30 6518 H 739.257 -2.42996 3.49046 0
M  V30 6519 N 737.572 -1.44907 -0.619662 0
M  V30 6520 C 738.797 -1.52021 -1.41083 0
M  V30 6521 C 739.222 -0.14976 -1.87503 0
M  V30 6522 O 738.58 0.863303 -1.59426 0
M  V30 6523 C 738.628 -2.49911 -2.59955 0
M  V30 6524 O 737.732 -2.00857 -3.60181 0
M  V30 6525 H 737.073 -0.512912 -0.421684 0
M  V30 6526 H 739.603 -1.90149 -0.755282 0
M  V30 6527 H 739.613 -2.68323 -3.07354 0
M  V30 6528 H 738.288 -3.4945 -2.25516 0
M  V30 6529 H 736.865 -1.92265 -3.19513 0
M  V30 6530 N 739.05 0.861098 -1.31996 0
M  V30 6531 C 740.013 1.95068 -1.20338 0
M  V30 6532 C 741.013 1.60289 -0.128114 0
M  V30 6533 O 742.203 1.70048 -0.378044 0
M  V30 6534 C 739.335 3.30153 -0.849205 0
M  V30 6535 H 740.528 2.06833 -2.17164 0
M  V30 6536 H 738.081 1.05049 -1.15734 0
M  V30 6537 H 738.816 3.24087 0.117508 0
M  V30 6538 H 738.601 3.56771 -1.62655 0
M  V30 6539 H 740.091 4.10025 -0.791782 0
M  V30 6540 N 740.528 1.15101 1.07655 0
M  V30 6541 C 741.939 0.933848 1.61667 0
M  V30 6542 C 742.29 -0.525569 1.8903 0
M  V30 6543 O 741.415 -1.39605 1.65346 0
M  V30 6544 C 742.01 1.68876 2.93711 0
M  V30 6545 C 740.569 1.51697 3.44478 0
M  V30 6546 C 739.716 1.70633 2.18586 0
M  V30 6547 H 742.667 1.30171 0.907816 0
M  V30 6548 H 742.688 1.15645 3.625 0
M  V30 6549 H 742.2 2.7509 2.73764 0
M  V30 6550 H 740.301 0.478635 3.69513 0
M  V30 6551 H 740.414 2.29194 4.20722 0
M  V30 6552 H 738.778 1.13259 2.28132 0
M  V30 6553 H 739.561 2.78206 2.01137 0
M  V30 6554 N 742.006 -1.2595 0.947325 0
M  V30 6555 C 743.283 -1.88676 0.515824 0
M  V30 6556 C 743.663 -1.85547 -1.00675 0
M  V30 6557 O 743.011 -1.31399 -1.8694 0
M  V30 6558 C 743.221 -3.31734 1.08415 0
M  V30 6559 C 744.569 -4.08545 1.15654 0
M  V30 6560 O 745.593 -3.40826 1.03517 0
M  V30 6561 O 744.452 -5.29663 1.34608 0
M  V30 6562 H 741.546 -0.809537 0.169055 0
M  V30 6563 H 744.092 -1.34075 1.04029 0
M  V30 6564 H 742.864 -3.28404 2.1276 0
M  V30 6565 H 742.487 -3.93882 0.542499 0
M  V30 6566 N 743.484 -0.715051 -1.40445 0
M  V30 6567 C 744.712 -0.263959 -2.05209 0
M  V30 6568 C 745.127 1.09403 -1.53871 0
M  V30 6569 O 744.484 1.68746 -0.695064 0
M  V30 6570 C 744.535 -0.234545 -3.60738 0
M  V30 6571 O 744.256 -1.53891 -4.10182 0
M  V30 6572 C 745.757 0.235164 -4.42676 0
M  V30 6573 H 742.977 -0.11876 -0.660407 0
M  V30 6574 H 745.521 -0.973107 -1.79864 0
M  V30 6575 H 743.676 0.425563 -3.85055 0
M  V30 6576 H 744.09 -1.43903 -5.04373 0
M  V30 6577 H 745.564 0.204598 -5.51621 0
M  V30 6578 H 746.041 1.27724 -4.20218 0
M  V30 6579 H 746.647 -0.394649 -4.23465 0
M  V30 6580 N 744.962 1.50701 -0.461195 0
M  V30 6581 C 746.378 1.59187 -0.114786 0
M  V30 6582 C 746.578 1.4702 1.37794 0
M  V30 6583 O 745.634 1.32361 2.15027 0
M  V30 6584 C 746.947 2.93453 -0.656167 0
M  V30 6585 C 748.495 3.06824 -0.618715 0
M  V30 6586 C 748.97 4.4365 -1.13747 0
M  V30 6587 N 750.461 4.50035 -1.09646 0
M  V30 6588 C 751.196 5.54278 -1.46846 0
M  V30 6589 N 750.692 6.65822 -1.91448 0
M  V30 6590 N 752.485 5.44767 -1.38512 0
M  V30 6591 H 744.636 1.56853 -1.43216 0
M  V30 6592 H 746.899 0.740712 -0.59165 0
M  V30 6593 H 746.605 3.07802 -1.7015 0
M  V30 6594 H 746.479 3.77082 -0.0942261 0
M  V30 6595 H 748.866 2.92129 0.417685 0
M  V30 6596 H 748.947 2.24976 -1.21734 0
M  V30 6597 H 748.591 4.59093 -2.17245 0
M  V30 6598 H 748.521 5.24074 -0.515153 0
M  V30 6599 H 751.012 3.69988 -0.769217 0
M  V30 6600 H 751.325 7.41413 -2.18007 0
M  V30 6601 H 749.67 6.66968 -1.95393 0
M  V30 6602 H 752.861 4.56511 -1.03516 0
M  V30 6603 H 753.034 6.25889 -1.6783 0
M  V30 6604 N 746.441 0.193421 1.56409 0
M  V30 6605 C 747.852 -0.319471 1.83946 0
M  V30 6606 C 748.203 -1.61505 1.11403 0
M  V30 6607 O 747.328 -2.13139 0.374289 0
M  V30 6608 C 747.923 -0.586411 3.33686 0
M  V30 6609 C 746.482 -1.04368 3.61641 0
M  V30 6610 C 745.629 -0.0913834 2.77149 0
M  V30 6611 H 748.58 0.417242 1.53117 0
M  V30 6612 H 748.601 -1.43591 3.52366 0
M  V30 6613 H 748.113 0.356701 3.86457 0
M  V30 6614 H 746.214 -2.00113 3.14302 0
M  V30 6615 H 746.327 -0.937549 4.69837 0
M  V30 6616 H 744.691 -0.592954 2.47702 0
M  V30 6617 H 745.474 0.846142 3.32709 0
M  V30 6618 N 747.919 -1.57396 -0.0801906 0
M  V30 6619 C 748.882 -2.02133 -1.0805 0
M  V30 6620 C 749.882 -0.91707 -1.32085 0
M  V30 6621 O 751.072 -1.18217 -1.27947 0
M  V30 6622 C 748.204 -2.39479 -2.42616 0
M  V30 6623 H 749.397 -2.91733 -0.6951 0
M  V30 6624 H 746.95 -1.52869 -0.325677 0
M  V30 6625 H 747.685 -1.52879 -2.86004 0
M  V30 6626 H 747.47 -3.20052 -2.26515 0
M  V30 6627 H 748.96 -2.74697 -3.14534 0
M  V30 6628 N 749.397 0.351382 -1.53633 0
M  V30 6629 C 750.808 0.927429 -1.62036 0
M  V30 6630 C 751.159 1.89809 -0.496706 0
M  V30 6631 O 750.284 2.1313 0.374749 0
M  V30 6632 C 750.879 1.68886 -2.93706 0
M  V30 6633 C 749.438 2.21404 -3.04397 0
M  V30 6634 C 748.585 1.03075 -2.57431 0
M  V30 6635 H 751.536 0.129748 -1.58169 0
M  V30 6636 H 751.557 2.55116 -2.82305 0
M  V30 6637 H 751.069 0.982149 -3.75467 0
M  V30 6638 H 749.17 2.95274 -2.27253 0
M  V30 6639 H 749.283 2.48312 -4.09729 0
M  V30 6640 H 747.647 1.40188 -2.12649 0
M  V30 6641 H 748.43 0.338793 -3.41624 0
M  V30 6642 N 750.875 1.45233 0.611969 0
M  V30 6643 C 752.123 1.48727 1.36838 0
M  V30 6644 C 752.444 0.128616 1.94575 0
M  V30 6645 O 751.714 -0.84149 1.76906 0
M  V30 6646 H 750.294 0.547695 0.507976 0
M  V30 6647 H 752.956 1.81156 0.718925 0
M  V30 6648 H 752.052 2.2236 2.19003 0
M  V30 6649 N 752.353 -0.854086 1.3245 0
M  V30 6650 C 753.578 -1.64597 1.26185 0
M  V30 6651 C 754.003 -1.87357 -0.167074 0
M  V30 6652 O 753.361 -1.42675 -1.11864 0
M  V30 6653 C 753.409 -2.98213 2.02734 0
M  V30 6654 O 752.513 -3.88784 1.37554 0
M  V30 6655 H 751.854 -0.50179 0.434859 0
M  V30 6656 H 754.384 -1.06372 1.74775 0
M  V30 6657 H 754.394 -3.4803 2.1293 0
M  V30 6658 H 753.069 -2.80969 3.06642 0
M  V30 6659 H 751.646 -3.4725 1.3591 0
M  V30 6660 N 753.831 -1.1567 -1.07043 0
M  V30 6661 C 755.059 -0.957471 -1.83412 0
M  V30 6662 C 755.474 0.494271 -1.82215 0
M  V30 6663 O 754.831 1.34288 -1.23584 0
M  V30 6664 C 754.882 -1.46784 -3.30359 0
M  V30 6665 O 754.603 -2.86271 -3.31633 0
M  V30 6666 C 756.104 -1.31054 -4.23485 0
M  V30 6667 H 753.324 -0.33986 -0.578564 0
M  V30 6668 H 755.868 -1.53518 -1.35102 0
M  V30 6669 H 754.023 -0.932586 -3.76007 0
M  V30 6670 H 754.437 -3.0948 -4.23465 0
M  V30 6671 H 755.911 -1.71605 -5.24648 0
M  V30 6672 H 756.388 -0.255107 -4.38458 0
M  V30 6673 H 756.994 -1.83503 -3.83676 0
M  V30 6674 N 755.309 1.25446 -0.953992 0
M  V30 6675 C 756.272 2.24156 -0.478179 0
M  V30 6676 C 757.272 1.55278 0.417776 0
M  V30 6677 O 758.462 1.72866 0.215155 0
M  V30 6678 C 755.594 3.39495 0.309202 0
M  V30 6679 H 756.787 2.67764 -1.35064 0
M  V30 6680 H 754.34 1.37822 -0.737206 0
M  V30 6681 H 755.075 3.01307 1.19936 0
M  V30 6682 H 754.86 3.90679 -0.333562 0
M  V30 6683 H 756.35 4.12796 0.631594 0
M  V30 6684 N 756.787 0.722489 1.40064 0
M  V30 6685 C 758.198 0.336507 1.83642 0
M  V30 6686 C 758.549 -1.13002 1.6039 0
M  V30 6687 O 757.674 -1.87036 1.08842 0
M  V30 6688 C 758.269 0.603985 3.33373 0
M  V30 6689 C 756.828 0.271637 3.75419 0
M  V30 6690 C 755.975 0.872898 2.63203 0
M  V30 6691 H 758.926 0.921108 1.29233 0
M  V30 6692 H 758.947 -0.128471 3.80283 0
M  V30 6693 H 758.459 1.67141 3.50265 0
M  V30 6694 H 756.56 -0.790455 3.64119 0
M  V30 6695 H 756.673 0.745457 4.73265 0
M  V30 6696 H 755.037 0.300431 2.52922 0
M  V30 6697 H 755.82 1.94473 2.82905 0
M  V30 6698 N 758.265 -1.50454 0.469181 0
M  V30 6699 C 759.676 -1.86695 0.0136034 0
M  V30 6700 C 760.027 -1.38413 -1.39055 0
M  V30 6701 O 759.152 -0.748294 -2.03051 0
M  V30 6702 C 759.747 -3.38795 0.0179098 0
M  V30 6703 C 758.306 -3.74455 -0.382191 0
M  V30 6704 C 757.453 -2.74338 0.404207 0
M  V30 6705 H 760.404 -1.43225 0.683547 0
M  V30 6706 H 760.425 -3.72321 -0.78468 0
M  V30 6707 H 759.937 -3.73906 1.04 0
M  V30 6708 H 758.038 -3.44944 -1.4087 0
M  V30 6709 H 758.151 -4.79025 -0.084862 0
M  V30 6710 H 756.515 -2.54305 -0.141829 0
M  V30 6711 H 757.298 -3.12293 1.42577 0
M  V30 6712 N 759.743 -0.201713 -1.56304 0
M  V30 6713 C 760.706 0.702811 -2.18159 0
M  V30 6714 C 761.706 1.13619 -1.13787 0
M  V30 6715 O 762.896 1.0482 -1.39134 0
M  V30 6716 C 760.028 1.96032 -2.78898 0
M  V30 6717 H 761.221 0.163836 -2.99452 0
M  V30 6718 H 758.774 0.04791 -1.56227 0
M  V30 6719 H 759.509 2.54165 -2.01421 0
M  V30 6720 H 759.294 1.65824 -3.55309 0
M  V30 6721 H 760.784 2.60519 -3.26373 0
M  V30 6722 N 761.222 1.57436 0.0718424 0
M  V30 6723 C 762.172 2.00132 1.09229 0
M  V30 6724 C 763.156 0.883379 1.34481 0
M  V30 6725 O 764.348 1.14728 1.34783 0
M  V30 6726 C 761.477 2.44876 2.40605 0
M  V30 6727 C 760.563 3.63405 2.18627 0
M  V30 6728 N 760.954 4.77583 1.66579 0
M  V30 6729 C 759.252 3.69953 2.491 0
M  V30 6730 C 759.953 5.5943 1.59415 0
M  V30 6731 N 758.929 5.03275 2.05464 0
M  V30 6732 H 762.731 2.85849 0.683185 0
M  V30 6733 H 760.245 1.59987 0.278914 0
M  V30 6734 H 762.242 2.73703 3.14471 0
M  V30 6735 H 760.902 1.60546 2.82232 0
M  V30 6736 H 761.913 4.99875 1.35443 0
M  V30 6737 H 758.59 2.96336 2.94094 0
M  V30 6738 H 759.98 6.61093 1.20026 0
M  V30 6739 N 762.7 -0.34323 1.53817 0
M  V30 6740 C 763.948 -1.0813 1.70741 0
M  V30 6741 C 764.269 -1.89165 0.473461 0
M  V30 6742 O 763.539 -1.89075 -0.512605 0
M  V30 6743 H 762.119 -0.40219 0.629486 0
M  V30 6744 H 764.781 -0.384426 1.91071 0
M  V30 6745 H 763.877 -1.7585 2.57843 0
M  V30 6746 N 764.178 -1.45556 -0.604258 0
M  V30 6747 C 765.424 -1.49968 -1.36519 0
M  V30 6748 C 765.757 -0.142236 -1.93678 0
M  V30 6749 O 765.032 0.843717 -1.75247 0
M  V30 6750 C 765.315 -2.58146 -2.51063 0
M  V30 6751 C 765.168 -4.03346 -1.99078 0
M  V30 6752 C 766.487 -2.62581 -3.53184 0
M  V30 6753 H 763.606 -0.545993 -0.495036 0
M  V30 6754 H 766.248 -1.77382 -0.680845 0
M  V30 6755 H 764.398 -2.34901 -3.09441 0
M  V30 6756 H 766.07 -4.37811 -1.45323 0
M  V30 6757 H 764.313 -4.13845 -1.30055 0
M  V30 6758 H 764.984 -4.74731 -2.81664 0
M  V30 6759 H 767.46 -2.83419 -3.04652 0
M  V30 6760 H 766.336 -3.40131 -4.30816 0
M  V30 6761 H 766.597 -1.67798 -4.09019 0
M  V30 6762 N 765.656 0.84705 -1.32902 0
M  V30 6763 C 766.884 1.63403 -1.26913 0
M  V30 6764 C 767.299 1.88108 0.161483 0
M  V30 6765 O 766.656 1.45546 1.10103 0
M  V30 6766 C 766.707 2.98896 -2.03331 0
M  V30 6767 O 766.428 2.75281 -3.40811 0
M  V30 6768 C 767.929 3.93335 -2.04457 0
M  V30 6769 H 765.149 0.508701 -0.437566 0
M  V30 6770 H 767.693 1.05567 -1.75145 0
M  V30 6771 H 765.848 3.53356 -1.58802 0
M  V30 6772 H 766.262 3.61504 -3.8002 0
M  V30 6773 H 767.736 4.85647 -2.62394 0
M  V30 6774 H 768.213 4.26885 -1.03274 0
M  V30 6775 H 768.819 3.44812 -2.48967 0
M  V30 6776 N 767.134 1.16236 1.06428 0
M  V30 6777 C 768.359 0.967688 1.83441 0
M  V30 6778 C 768.784 -0.479167 1.81894 0
M  V30 6779 O 768.142 -1.34224 1.21875 0
M  V30 6780 C 768.19 1.49806 3.2801 0
M  V30 6781 O 767.294 0.703481 4.06356 0
M  V30 6782 H 766.635 0.344468 0.56766 0
M  V30 6783 H 769.165 1.54442 1.34197 0
M  V30 6784 H 769.175 1.51495 3.78831 0
M  V30 6785 H 767.85 2.55133 3.2845 0
M  V30 6786 H 766.427 0.756986 3.65136 0
M  V30 6787 N 768.612 -1.24939 0.960631 0
M  V30 6788 C 769.575 -2.239 0.49006 0
M  V30 6789 C 770.575 -1.55497 -0.409535 0
M  V30 6790 O 771.765 -1.72978 -0.205984 0
M  V30 6791 C 768.897 -3.39654 -0.291193 0
M  V30 6792 H 770.09 -2.67044 1.36482 0
M  V30 6793 H 767.643 -1.37429 0.744505 0
M  V30 6794 H 768.378 -3.01939 -1.18336 0
M  V30 6795 H 768.163 -3.90496 0.354276 0
M  V30 6796 H 769.653 -4.13125 -0.609693 0
M  V30 6797 N 770.09 -0.729906 -1.39679 0
M  V30 6798 C 771.501 -0.346241 -1.83461 0
M  V30 6799 C 771.852 1.1215 -1.60987 0
M  V30 6800 O 770.977 1.86456 -1.09832 0
M  V30 6801 C 771.572 -0.621656 -3.33048 0
M  V30 6802 C 770.131 -0.291543 -3.75269 0
M  V30 6803 C 769.278 -0.886844 -2.62736 0
M  V30 6804 H 772.229 -0.927949 -1.28743 0
M  V30 6805 H 772.25 0.108301 -3.80346 0
M  V30 6806 H 771.762 -1.68996 -3.49373 0
M  V30 6807 H 769.863 0.771133 -3.64533 0
M  V30 6808 H 769.976 -0.770544 -4.72863 0
M  V30 6809 H 768.34 -0.313839 -2.52759 0
M  V30 6810 H 769.123 -1.95971 -2.81869 0
M  V30 6811 N 771.568 1.50203 -0.477153 0
M  V30 6812 C 772.845 1.95115 0.137609 0
M  V30 6813 C 773.225 1.41778 1.56404 0
M  V30 6814 O 772.573 0.621333 2.1989 0
M  V30 6815 C 772.783 3.4892 0.0747168 0
M  V30 6816 C 774.131 4.238 0.260585 0
M  V30 6817 O 775.155 3.5588 0.151021 0
M  V30 6818 O 774.014 5.44366 0.482534 0
M  V30 6819 H 771.108 0.81987 0.108364 0
M  V30 6820 H 773.654 1.60946 -0.537989 0
M  V30 6821 H 772.426 3.80308 -0.920966 0
M  V30 6822 H 772.049 3.89642 0.791509 0
M  V30 6823 N 773.046 0.209999 1.56195 0
M  V30 6824 C 774.274 -0.429996 2.02382 0
M  V30 6825 C 774.689 -1.54159 1.08998 0
M  V30 6826 O 774.046 -1.82239 0.0974856 0
M  V30 6827 C 774.097 -0.972433 3.48175 0
M  V30 6828 O 773.818 0.0948231 4.37997 0
M  V30 6829 C 775.319 -1.68683 4.09952 0
M  V30 6830 H 772.539 -0.106475 0.662498 0
M  V30 6831 H 775.083 0.323072 2.01932 0
M  V30 6832 H 773.238 -1.67582 3.49278 0
M  V30 6833 H 773.652 -0.31113 5.23576 0
M  V30 6834 H 775.126 -2.01851 5.13771 0
M  V30 6835 H 775.603 -2.59587 3.54276 0
M  V30 6836 H 776.209 -1.02893 4.12666 0
M  V30 6837 N 774.524 -1.57472 -0.0634922 0
M  V30 6838 C 775.94 -1.54016 -0.418466 0
M  V30 6839 C 776.14 -0.931376 -1.78683 0
M  V30 6840 O 775.196 -0.537465 -2.46714 0
M  V30 6841 C 776.509 -2.98634 -0.351906 0
M  V30 6842 C 778.057 -3.10012 -0.431494 0
M  V30 6843 C 778.532 -4.56296 -0.394754 0
M  V30 6844 N 780.023 -4.60964 -0.454583 0
M  V30 6845 C 780.758 -5.71643 -0.448501 0
M  V30 6846 N 780.254 -6.91663 -0.396742 0
M  V30 6847 N 782.047 -5.5991 -0.495677 0
M  V30 6848 H 774.198 -1.95409 0.832408 0
M  V30 6849 H 776.461 -0.894769 0.313197 0
M  V30 6850 H 776.167 -3.46766 0.587048 0
M  V30 6851 H 776.041 -3.58955 -1.15893 0
M  V30 6852 H 778.428 -2.61848 -1.36087 0
M  V30 6853 H 778.509 -2.52585 0.404258 0
M  V30 6854 H 778.153 -5.05119 0.530811 0
M  V30 6855 H 778.083 -5.11594 -1.24815 0
M  V30 6856 H 780.574 -3.74598 -0.498496 0
M  V30 6857 H 780.887 -7.71783 -0.396256 0
M  V30 6858 H 779.232 -6.9405 -0.363304 0
M  V30 6859 H 782.423 -4.65046 -0.533864 0
M  V30 6860 H 782.596 -6.46164 -0.487469 0
M  V30 6861 N 776.003 0.335068 -1.53997 0
M  V30 6862 C 777.414 0.910191 -1.6301 0
M  V30 6863 C 777.765 1.89271 -0.516809 0
M  V30 6864 O 776.89 2.13516 0.352123 0
M  V30 6865 C 777.485 1.65761 -2.9548 0
M  V30 6866 C 776.044 2.18163 -3.06728 0
M  V30 6867 C 775.191 1.00338 -2.5851 0
M  V30 6868 H 778.142 0.112965 -1.58297 0
M  V30 6869 H 778.163 2.52107 -2.84995 0
M  V30 6870 H 777.675 0.94227 -3.76488 0
M  V30 6871 H 775.776 2.92847 -2.30372 0
M  V30 6872 H 775.889 2.43952 -4.1234 0
M  V30 6873 H 774.253 1.37925 -2.14124 0
M  V30 6874 H 775.036 0.30254 -3.41964 0
M  V30 6875 N 777.481 1.45874 0.596531 0
M  V30 6876 C 778.444 1.54988 1.68853 0
M  V30 6877 C 779.444 0.428302 1.54991 0
M  V30 6878 O 780.634 0.692158 1.59859 0
M  V30 6879 C 777.766 1.457 3.08195 0
M  V30 6880 H 778.959 2.52294 1.62135 0
M  V30 6881 H 776.512 1.33479 0.813206 0
M  V30 6882 H 777.247 0.496204 3.20481 0
M  V30 6883 H 777.032 2.27061 3.19665 0
M  V30 6884 H 778.522 1.55133 3.87716 0
M  V30 6885 N 778.959 -0.83999 1.33349 0
M  V30 6886 C 780.37 -1.41139 1.22216 0
M  V30 6887 C 780.721 -1.95551 -0.159398 0
M  V30 6888 O 779.846 -1.88721 -1.05893 0
M  V30 6889 C 780.441 -2.56564 2.21269 0
M  V30 6890 C 779 -3.09661 2.13979 0
M  V30 6891 C 778.147 -1.82457 2.08818 0
M  V30 6892 H 781.098 -0.645853 1.44964 0
M  V30 6893 H 781.119 -3.34163 1.81976 0
M  V30 6894 H 780.631 -2.16932 3.21811 0
M  V30 6895 H 778.732 -3.53841 1.16736 0
M  V30 6896 H 778.845 -3.6991 3.04472 0
M  V30 6897 H 777.209 -2.0266 1.54276 0
M  V30 6898 H 777.992 -1.45022 3.11165 0
M  V30 6899 N 780.437 -1.16799 -1.0581 0
M  V30 6900 C 781.685 -0.950642 -1.78346 0
M  V30 6901 C 782.006 0.522524 -1.87869 0
M  V30 6902 O 781.276 1.3795 -1.39092 0
M  V30 6903 H 779.856 -0.348736 -0.6606 0
M  V30 6904 H 782.518 -1.47158 -1.27791 0
M  V30 6905 H 781.614 -1.37359 -2.80248 0
M  V30 6906 N 781.915 1.24427 -0.967243 0
M  V30 6907 C 783.14 1.9708 -0.646069 0
M  V30 6908 C 783.565 1.71272 0.777665 0
M  V30 6909 O 782.923 0.976179 1.52776 0
M  V30 6910 C 782.971 3.48501 -0.926266 0
M  V30 6911 O 782.075 4.12398 -0.0114653 0
M  V30 6912 H 781.416 0.617423 -0.244304 0
M  V30 6913 H 783.946 1.58215 -1.29727 0
M  V30 6914 H 783.956 3.98885 -0.857619 0
M  V30 6915 H 782.631 3.66613 -1.96386 0
M  V30 6916 H 781.208 3.72661 -0.133396 0
M  V30 6917 N 783.393 0.737304 1.3929 0
M  V30 6918 C 784.621 0.296573 2.04763 0
M  V30 6919 C 785.036 -1.06941 1.55592 0
M  V30 6920 O 784.393 -1.67619 0.721822 0
M  V30 6921 C 784.444 0.291906 3.6032 0
M  V30 6922 O 784.165 1.60397 4.07682 0
M  V30 6923 C 785.666 -0.164708 4.42994 0
M  V30 6924 H 782.886 0.129251 0.658434 0
M  V30 6925 H 785.43 1.0016 1.78293 0
M  V30 6926 H 783.585 -0.364251 3.85684 0
M  V30 6927 H 783.999 1.51909 5.0202 0
M  V30 6928 H 785.473 -0.116814 5.51876 0
M  V30 6929 H 785.95 -1.21022 4.22197 0
M  V30 6930 H 786.556 0.461968 4.22784 0
M  V30 6931 N 784.871 -1.49948 0.485112 0
M  V30 6932 C 785.834 -2.27351 -0.290546 0
M  V30 6933 C 786.834 -1.32704 -0.908087 0
M  V30 6934 O 788.024 -1.56007 -0.775085 0
M  V30 6935 C 785.156 -3.10135 -1.41524 0
M  V30 6936 H 786.349 -2.97374 0.388454 0
M  V30 6937 H 783.902 -1.54453 0.239586 0
M  V30 6938 H 784.637 -2.44641 -2.12888 0
M  V30 6939 H 784.422 -3.79705 -0.978074 0
M  V30 6940 H 785.912 -3.68638 -1.96204 0
M  V30 6941 N 786.349 -0.21828 -1.56081 0
M  V30 6942 C 787.76 0.290166 -1.84431 0
M  V30 6943 C 788.111 1.59712 -1.13958 0
M  V30 6944 O 787.236 2.12516 -0.40815 0
M  V30 6945 C 787.831 0.53325 -3.34577 0
M  V30 6946 C 786.39 0.986011 -3.63256 0
M  V30 6947 C 785.537 0.0472798 -2.7726 0
M  V30 6948 H 788.488 -0.441548 -1.52434 0
M  V30 6949 H 788.509 1.37967 -3.54606 0
M  V30 6950 H 788.021 -0.418137 -3.85841 0
M  V30 6951 H 786.122 1.95087 -3.17446 0
M  V30 6952 H 786.235 0.862684 -4.71269 0
M  V30 6953 H 784.599 0.553471 -2.48614 0
M  V30 6954 H 785.382 -0.898966 -3.31321 0
M  V30 6955 N 787.827 1.57504 0.0551401 0
M  V30 6956 C 789.238 1.76626 0.604979 0
M  V30 6957 C 789.589 0.845978 1.77024 0
M  V30 6958 O 788.714 0.0341936 2.16373 0
M  V30 6959 C 789.309 3.203 1.10425 0
M  V30 6960 C 787.868 3.4071 1.59981 0
M  V30 6961 C 787.015 2.72258 0.526414 0
M  V30 6962 H 789.966 1.57775 -0.171072 0
M  V30 6963 H 789.987 3.25377 1.97256 0
M  V30 6964 H 789.499 3.87255 0.255939 0
M  V30 6965 H 787.6 2.78892 2.47083 0
M  V30 6966 H 787.713 4.49227 1.66528 0
M  V30 6967 H 786.077 2.35283 0.97539 0
M  V30 6968 H 786.86 3.41879 -0.311991 0
M  V30 6969 N 789.305 -0.326896 1.54172 0
M  V30 6970 C 790.268 -1.38515 1.8261 0
M  V30 6971 C 791.268 -1.44872 0.697771 0
M  V30 6972 O 792.458 -1.44957 0.966078 0
M  V30 6973 C 789.59 -2.77281 1.98313 0
M  V30 6974 H 790.783 -1.14556 2.77159 0
M  V30 6975 H 788.336 -0.562199 1.45839 0
M  V30 6976 H 789.071 -3.065 1.05964 0
M  V30 6977 H 788.856 -2.74061 2.80416 0
M  V30 6978 H 790.346 -3.53845 2.21773 0
M  V30 6979 N 790.784 -1.46188 -0.588786 0
M  V30 6980 C 791.734 -1.5271 -1.69303 0
M  V30 6981 C 792.718 -0.388578 -1.56137 0
M  V30 6982 O 793.91 -0.636616 -1.65155 0
M  V30 6983 C 791.039 -1.51457 -3.08084 0
M  V30 6984 C 790.125 -2.70581 -3.26568 0
M  V30 6985 N 790.516 -3.9555 -3.15236 0
M  V30 6986 C 788.814 -2.66676 -3.57491 0
M  V30 6987 C 789.515 -4.75157 -3.35561 0
M  V30 6988 N 788.491 -4.06927 -3.60432 0
M  V30 6989 H 792.293 -2.47136 -1.59063 0
M  V30 6990 H 789.807 -1.41743 -0.792632 0
M  V30 6991 H 791.804 -1.54216 -3.87328 0
M  V30 6992 H 790.464 -0.581036 -3.19459 0
M  V30 6993 H 791.475 -4.2689 -2.93232 0
M  V30 6994 H 788.152 -1.82317 -3.75588 0
M  V30 6995 H 789.542 -5.84126 -3.32034 0
M  V30 6996 N 792.262 0.832906 -1.33792 0
M  V30 6997 C 793.51 1.58539 -1.25338 0
M  V30 6998 C 793.831 1.94175 0.179204 0
M  V30 6999 O 793.101 1.61458 1.10941 0
M  V30 7000 H 791.681 0.58784 -0.460926 0
M  V30 7001 H 794.343 0.995064 -1.67584 0
M  V30 7002 H 793.439 2.51268 -1.85123 0
M  V30 7003 N 793.74 1.17359 1.05189 0
M  V30 7004 C 794.986 0.963413 1.78455 0
M  V30 7005 C 795.319 -0.506703 1.87473 0
M  V30 7006 O 794.594 -1.37611 1.37453 0
M  V30 7007 C 794.877 1.60519 3.22344 0
M  V30 7008 C 794.73 3.14741 3.21338 0
M  V30 7009 C 796.049 1.3091 4.20179 0
M  V30 7010 H 793.168 0.351412 0.647826 0
M  V30 7011 H 795.81 1.44858 1.22948 0
M  V30 7012 H 793.96 1.19265 3.69741 0
M  V30 7013 H 795.632 3.65053 2.82017 0
M  V30 7014 H 793.875 3.4749 2.59679 0
M  V30 7015 H 794.546 3.54775 4.22894 0
M  V30 7016 H 797.022 1.66635 3.81277 0
M  V30 7017 H 795.898 1.784 5.191 0
M  V30 7018 H 796.159 0.229908 4.41502 0
M  V30 7019 N 795.218 -1.23913 0.973828 0
M  V30 7020 C 796.446 -1.96195 0.656891 0
M  V30 7021 C 796.861 -1.72166 -0.774876 0
M  V30 7022 O 796.218 -1.0091 -1.52064 0
M  V30 7023 C 796.269 -3.49342 0.929638 0
M  V30 7024 O 795.99 -3.72553 2.30512 0
M  V30 7025 C 797.491 -4.38833 0.627739 0
M  V30 7026 H 794.711 -0.624841 0.244572 0
M  V30 7027 H 797.255 -1.57579 1.30343 0
M  V30 7028 H 795.41 -3.85999 0.329216 0
M  V30 7029 H 795.824 -4.66893 2.3898 0
M  V30 7030 H 797.298 -5.45117 0.868991 0
M  V30 7031 H 797.775 -4.37009 -0.438104 0
M  V30 7032 H 798.381 -4.07773 1.20834 0
M  V30 7033 N 796.696 -0.74468 -1.38897 0
M  V30 7034 C 797.921 -0.306119 -2.05128 0
M  V30 7035 C 798.346 1.0541 -1.55789 0
M  V30 7036 O 797.704 1.66993 -0.705909 0
M  V30 7037 C 797.752 -0.328195 -3.59103 0
M  V30 7038 O 796.856 0.680876 -4.06741 0
M  V30 7039 H 796.197 -0.137209 -0.649669 0
M  V30 7040 H 798.727 -1.01331 -1.77745 0
M  V30 7041 H 798.737 -0.175956 -4.0762 0
M  V30 7042 H 797.412 -1.32067 -3.94374 0
M  V30 7043 H 795.989 0.49398 -3.69614 0
M  V30 7044 N 798.174 1.49689 -0.493057 0
M  V30 7045 C 799.137 2.27502 0.278485 0
M  V30 7046 C 800.137 1.33184 0.901037 0
M  V30 7047 O 801.327 1.56415 0.766801 0
M  V30 7048 C 798.459 3.10881 1.39878 0
M  V30 7049 H 799.652 2.97163 -0.404219 0
M  V30 7050 H 797.205 1.54324 -0.247774 0
M  V30 7051 H 797.94 2.45767 2.11587 0
M  V30 7052 H 797.725 3.80219 0.957924 0
M  V30 7053 H 799.215 3.69673 1.94247 0
M  V30 7054 N 799.652 0.226554 1.55963 0
M  V30 7055 C 801.063 -0.280381 1.84583 0
M  V30 7056 C 801.414 -1.59105 1.14804 0
M  V30 7057 O 800.539 -2.12297 0.419414 0
M  V30 7058 C 801.134 -0.515499 3.34855 0
M  V30 7059 C 799.693 -0.966733 3.63774 0
M  V30 7060 C 798.84 -0.0325753 2.77281 0
M  V30 7061 H 801.791 0.449626 1.52197 0
M  V30 7062 H 801.812 -1.36085 3.55332 0
M  V30 7063 H 801.324 0.438594 3.85614 0
M  V30 7064 H 799.425 -1.93401 3.18476 0
M  V30 7065 H 799.538 -0.837679 4.7172 0
M  V30 7066 H 797.902 -0.540279 2.48904 0
M  V30 7067 H 798.685 0.916524 3.30839 0
M  V30 7068 N 801.13 -1.57531 -0.0467866 0
M  V30 7069 C 802.407 -1.79568 -0.775536 0
M  V30 7070 C 802.787 -0.820322 -1.94509 0
M  V30 7071 O 802.135 0.14134 -2.28062 0
M  V30 7072 C 802.345 -3.26789 -1.22516 0
M  V30 7073 C 803.693 -3.91299 -1.64835 0
M  V30 7074 O 804.717 -3.30831 -1.3202 0
M  V30 7075 O 803.576 -4.97727 -2.25677 0
M  V30 7076 H 800.67 -0.737817 -0.373572 0
M  V30 7077 H 803.216 -1.69682 -0.0249302 0
M  V30 7078 H 801.988 -3.89357 -0.389446 0
M  V30 7079 H 801.611 -3.41496 -2.03633 0
M  V30 7080 N 802.608 0.318715 -1.54344 0
M  V30 7081 C 803.836 1.0755 -1.7675 0
M  V30 7082 C 804.251 1.81543 -0.518422 0
M  V30 7083 O 803.608 1.75198 0.511078 0
M  V30 7084 C 803.659 2.06983 -2.96378 0
M  V30 7085 O 803.38 1.35995 -4.16458 0
M  V30 7086 C 804.881 2.94841 -3.31034 0
M  V30 7087 H 802.101 0.319711 -0.589937 0
M  V30 7088 H 804.645 0.363369 -2.01246 0
M  V30 7089 H 802.8 2.73724 -2.74142 0
M  V30 7090 H 803.214 2.02623 -4.83781 0
M  V30 7091 H 804.688 3.60496 -4.18027 0
M  V30 7092 H 805.165 3.62199 -2.48412 0
M  V30 7093 H 805.771 2.33656 -3.55366 0
M  V30 7094 N 804.086 1.46499 0.581025 0
M  V30 7095 C 805.502 1.31491 0.904563 0
M  V30 7096 C 805.702 0.287598 1.99437 0
M  V30 7097 O 804.758 -0.309247 2.50599 0
M  V30 7098 C 806.071 2.70163 1.32032 0
M  V30 7099 C 807.619 2.78266 1.43308 0
M  V30 7100 C 808.094 4.17524 1.8825 0
M  V30 7101 N 809.585 4.19949 1.9544 0
M  V30 7102 C 810.32 5.24594 2.31493 0
M  V30 7103 N 809.816 6.39564 2.66326 0
M  V30 7104 N 811.609 5.11961 2.32062 0
M  V30 7105 H 803.76 2.11946 -0.138856 0
M  V30 7106 H 806.023 0.948 0.000548528 0
M  V30 7107 H 805.729 3.46655 0.593554 0
M  V30 7108 H 805.603 3.00379 2.2815 0
M  V30 7109 H 807.99 2.02061 2.15071 0
M  V30 7110 H 808.071 2.51732 0.45438 0
M  V30 7111 H 807.715 4.94225 1.17065 0
M  V30 7112 H 807.645 4.41466 2.87081 0
M  V30 7113 H 810.136 3.36996 1.71004 0
M  V30 7114 H 810.449 7.15187 2.92793 0
M  V30 7115 H 808.794 6.42923 2.6396 0
M  V30 7116 H 811.985 4.21177 2.04272 0
M  V30 7117 H 812.158 5.93626 2.5983 0
M  V30 7118 N 805.565 -0.825799 1.34232 0
M  V30 7119 C 806.976 -1.39835 1.23706 0
M  V30 7120 C 807.327 -1.95709 -0.138649 0
M  V30 7121 O 806.452 -1.89833 -1.03886 0
M  V30 7122 C 807.047 -2.54203 2.23978 0
M  V30 7123 C 805.606 -3.07374 2.17251 0
M  V30 7124 C 804.753 -1.80232 2.10741 0
M  V30 7125 H 807.704 -0.630442 1.4564 0
M  V30 7126 H 807.725 -3.32214 1.8551 0
M  V30 7127 H 807.237 -2.13506 3.24094 0
M  V30 7128 H 805.338 -3.52583 1.20483 0
M  V30 7129 H 805.451 -3.6666 3.08379 0
M  V30 7130 H 803.815 -2.01012 1.56417 0
M  V30 7131 H 804.598 -1.41713 3.12686 0
M  V30 7132 N 807.043 -1.17915 -1.04565 0
M  V30 7133 C 808.006 -0.903787 -2.10628 0
M  V30 7134 C 809.006 0.10873 -1.60432 0
M  V30 7135 O 810.196 -0.124152 -1.73757 0
M  V30 7136 C 807.328 -0.355017 -3.39046 0
M  V30 7137 H 808.521 -1.84425 -2.3649 0
M  V30 7138 H 806.074 -0.990477 -1.2091 0
M  V30 7139 H 806.809 0.592297 -3.18845 0
M  V30 7140 H 806.594 -1.08484 -3.76794 0
M  V30 7141 H 808.084 -0.180891 -4.17208 0
M  V30 7142 N 808.521 1.23394 -0.980386 0
M  V30 7143 C 809.932 1.73631 -0.686239 0
M  V30 7144 C 810.283 1.79259 0.797541 0
M  V30 7145 O 809.408 1.43046 1.62379 0
M  V30 7146 C 810.003 3.15332 -1.239 0
M  V30 7147 C 808.562 3.63024 -0.994494 0
M  V30 7148 C 807.709 2.41279 -1.36673 0
M  V30 7149 H 810.66 1.08918 -1.15423 0
M  V30 7150 H 810.681 3.75556 -0.611414 0
M  V30 7151 H 810.193 3.11204 -2.31892 0
M  V30 7152 H 808.294 3.72535 0.0693492 0
M  V30 7153 H 808.407 4.49825 -1.64906 0
M  V30 7154 H 806.771 2.42295 -0.785195 0
M  V30 7155 H 807.554 2.39822 -2.45642 0
M  V30 7156 N 809.999 0.752036 1.385 0
M  V30 7157 C 811.247 0.306895 1.99756 0
M  V30 7158 C 811.568 -1.11478 1.59992 0
M  V30 7159 O 810.838 -1.76206 0.856045 0
M  V30 7160 H 809.418 0.11048 0.738785 0
M  V30 7161 H 812.08 0.965785 1.69289 0
M  V30 7162 H 811.176 0.368797 3.09913 0
M  V30 7163 N 811.477 -1.49425 0.500989 0
M  V30 7164 C 812.702 -2.07356 -0.0425154 0
M  V30 7165 C 813.127 -1.35887 -1.30063 0
M  V30 7166 O 812.485 -0.41561 -1.76472 0
M  V30 7167 C 812.533 -3.59518 -0.279188 0
M  V30 7168 O 811.637 -3.89542 -1.3539 0
M  V30 7169 H 810.978 -0.663482 0.0262207 0
M  V30 7170 H 813.508 -1.92231 0.700607 0
M  V30 7171 H 813.518 -4.04791 -0.5107 0
M  V30 7172 H 812.193 -4.10946 0.640009 0
M  V30 7173 H 810.77 -3.56079 -1.10734 0
M  V30 7174 N 812.955 -0.234822 -1.55841 0
M  V30 7175 C 814.183 0.397745 -2.03041 0
M  V30 7176 C 814.598 1.52405 -1.11437 0
M  V30 7177 O 813.955 1.82061 -0.126466 0
M  V30 7178 C 814.006 0.916919 -3.49678 0
M  V30 7179 O 813.727 -0.164493 -4.37791 0
M  V30 7180 C 815.228 1.62139 -4.12584 0
M  V30 7181 H 812.448 0.0959214 -0.664108 0
M  V30 7182 H 814.992 -0.355156 -2.01392 0
M  V30 7183 H 813.147 1.62004 -3.519 0
M  V30 7184 H 813.561 0.227794 -5.24005 0
M  V30 7185 H 815.035 1.93651 -5.16917 0
M  V30 7186 H 815.512 2.53918 -3.58361 0
M  V30 7187 H 816.118 0.963145 -4.14251 0
M  V30 7188 N 814.433 1.57553 0.0384317 0
M  V30 7189 C 815.396 2.04927 1.02653 0
M  V30 7190 C 816.396 0.951768 1.29607 0
M  V30 7191 O 817.586 1.21568 1.24768 0
M  V30 7192 C 814.718 2.45828 2.36181 0
M  V30 7193 H 815.911 2.93474 0.617508 0
M  V30 7194 H 813.464 1.53679 0.285031 0
M  V30 7195 H 814.199 1.60408 2.8185 0
M  V30 7196 H 813.984 3.25945 2.1795 0
M  V30 7197 H 815.474 2.82939 3.0714 0
M  V30 7198 N 815.911 -0.310526 1.54511 0
M  V30 7199 C 817.322 -0.884142 1.64438 0
M  V30 7200 C 817.673 -1.88425 0.546855 0
M  V30 7201 O 816.798 -2.14049 -0.31811 0
M  V30 7202 C 817.393 -1.6104 2.9808 0
M  V30 7203 C 815.952 -2.13255 3.1016 0
M  V30 7204 C 815.099 -0.96213 2.60074 0
M  V30 7205 H 818.05 -0.0877666 1.58457 0
M  V30 7206 H 818.071 -2.47541 2.8897 0
M  V30 7207 H 817.583 -0.882255 3.77939 0
M  V30 7208 H 815.684 -2.89145 2.35002 0
M  V30 7209 H 815.797 -2.37361 4.16169 0
M  V30 7210 H 814.161 -1.34501 2.16291 0
M  V30 7211 H 814.944 -0.248098 3.42402 0
M  V30 7212 N 817.389 -1.46805 -0.573248 0
M  V30 7213 C 818.8 -1.46655 -1.15539 0
M  V30 7214 C 819.151 -0.2125 -1.95046 0
M  V30 7215 O 818.276 0.683759 -2.05314 0
M  V30 7216 C 818.871 -2.65711 -2.10198 0
M  V30 7217 C 817.43 -2.68572 -2.63716 0
M  V30 7218 C 816.577 -2.39498 -1.39772 0
M  V30 7219 H 819.528 -1.54547 -0.36068 0
M  V30 7220 H 819.549 -2.41768 -2.93817 0
M  V30 7221 H 819.061 -3.56967 -1.52303 0
M  V30 7222 H 817.162 -1.81414 -3.25453 0
M  V30 7223 H 817.275 -3.68809 -3.05805 0
M  V30 7224 H 815.639 -1.89749 -1.69904 0
M  V30 7225 H 816.422 -3.32942 -0.836943 0
M  V30 7226 N 818.867 0.818669 -1.34668 0
M  V30 7227 C 819.83 1.9114 -1.26483 0
M  V30 7228 C 820.83 1.598 -0.179044 0
M  V30 7229 O 822.02 1.6876 -0.431952 0
M  V30 7230 C 819.152 3.27285 -0.95381 0
M  V30 7231 H 820.345 1.9982 -2.23634 0
M  V30 7232 H 817.898 1.01314 -1.19018 0
M  V30 7233 H 818.633 3.24297 0.0143428 0
M  V30 7234 H 818.418 3.51416 -1.73924 0
M  V30 7235 H 819.908 4.07299 -0.921827 0
M  V30 7236 N 820.346 1.18468 1.03938 0
M  V30 7237 C 821.296 0.880799 2.103 0
M  V30 7238 C 822.28 -0.150008 1.60199 0
M  V30 7239 O 823.472 0.054213 1.76917 0
M  V30 7240 C 820.601 0.409723 3.40846 0
M  V30 7241 C 819.687 1.47267 3.9771 0
M  V30 7242 N 820.078 2.68945 4.28371 0
M  V30 7243 C 818.376 1.33349 4.25598 0
M  V30 7244 C 819.077 3.37341 4.73894 0
M  V30 7245 N 818.053 2.64725 4.74786 0
M  V30 7246 H 821.855 1.80574 2.31884 0
M  V30 7247 H 819.369 1.07527 1.21703 0
M  V30 7248 H 821.366 0.17352 4.16539 0
M  V30 7249 H 820.026 -0.508862 3.20688 0
M  V30 7250 H 821.037 3.05801 4.17978 0
M  V30 7251 H 817.714 0.477548 4.1476 0
M  V30 7252 H 819.104 4.41338 5.06627 0
M  V30 7253 N 821.824 -1.22873 0.986916 0
M  V30 7254 C 823.072 -1.91084 0.658121 0
M  V30 7255 C 823.393 -1.77304 -0.811675 0
M  V30 7256 O 822.663 -1.15649 -1.58121 0
M  V30 7257 H 821.243 -0.707251 0.240427 0
M  V30 7258 H 823.905 -1.49357 1.25213 0
M  V30 7259 H 823.001 -2.98373 0.915428 0
M  V30 7260 N 823.302 -0.75937 -1.38099 0
M  V30 7261 C 824.548 -0.318584 -2.00282 0
M  V30 7262 C 824.881 1.09854 -1.60143 0
M  V30 7263 O 824.156 1.75344 -0.841702 0
M  V30 7264 C 824.439 -0.448047 -3.57302 0
M  V30 7265 C 824.292 -1.9067 -4.07388 0
M  V30 7266 C 825.611 0.155119 -4.39827 0
M  V30 7267 H 822.73 -0.117233 -0.727616 0
M  V30 7268 H 825.372 -0.960097 -1.63958 0
M  V30 7269 H 823.522 0.0981003 -3.88376 0
M  V30 7270 H 825.194 -2.5116 -3.86932 0
M  V30 7271 H 823.437 -2.41979 -3.6004 0
M  V30 7272 H 824.108 -1.94841 -5.1647 0
M  V30 7273 H 826.584 -0.31073 -4.14938 0
M  V30 7274 H 825.46 0.0343264 -5.48889 0
M  V30 7275 H 825.721 1.24407 -4.24235 0
M  V30 7276 N 824.78 1.49157 -0.508906 0
M  V30 7277 C 826.008 2.06879 0.0293734 0
M  V30 7278 C 826.423 1.36823 1.30095 0
M  V30 7279 O 825.78 0.449034 1.7689 0
M  V30 7280 C 825.831 3.60423 0.278791 0
M  V30 7281 O 825.552 4.27844 -0.942389 0
M  V30 7282 C 827.053 4.34881 0.859825 0
M  V30 7283 H 824.273 0.67057 -0.0240184 0
M  V30 7284 H 826.817 1.91834 -0.708526 0
M  V30 7285 H 824.972 3.75145 0.966689 0
M  V30 7286 H 825.386 5.19671 -0.710097 0
M  V30 7287 H 826.86 5.43161 0.983884 0
M  V30 7288 H 827.337 3.9789 1.85958 0
M  V30 7289 H 827.943 4.24785 0.209152 0
M  V30 7290 N 826.258 0.243083 1.55714 0
M  V30 7291 C 827.483 -0.389944 2.03701 0
M  V30 7292 C 827.908 -1.51025 1.12129 0
M  V30 7293 O 827.266 -1.80944 0.11352 0
M  V30 7294 C 827.314 -0.878649 3.49731 0
M  V30 7295 O 826.418 -1.98851 3.61292 0
M  V30 7296 H 825.759 -0.0855115 0.658471 0
M  V30 7297 H 828.289 0.368023 2.01263 0
M  V30 7298 H 828.299 -1.18287 3.90477 0
M  V30 7299 H 826.974 -0.0588107 4.15858 0
M  V30 7300 H 825.551 -1.68928 3.32442 0
M  V30 7301 N 827.736 -1.57571 -0.0300757 0
M  V30 7302 C 828.699 -2.05468 -1.01565 0
M  V30 7303 C 829.699 -0.958628 -1.29101 0
M  V30 7304 O 830.889 -1.22228 -1.24121 0
M  V30 7305 C 828.021 -2.47077 -2.34874 0
M  V30 7306 H 829.214 -2.93797 -0.601936 0
M  V30 7307 H 826.767 -1.53828 -0.276878 0
M  V30 7308 H 827.502 -1.61901 -2.80996 0
M  V30 7309 H 827.287 -3.27097 -2.16218 0
M  V30 7310 H 828.777 -2.84564 -3.05635 0
M  V30 7311 N 829.214 0.302327 -1.54673 0
M  V30 7312 C 830.625 0.875409 -1.64904 0
M  V30 7313 C 830.976 1.88132 -0.55684 0
M  V30 7314 O 830.101 2.14215 0.306754 0
M  V30 7315 C 830.696 1.59457 -2.9893 0
M  V30 7316 C 829.255 2.11607 -3.11287 0
M  V30 7317 C 828.402 0.948324 -2.6058 0
M  V30 7318 H 831.353 0.079362 -1.58501 0
M  V30 7319 H 831.374 2.46005 -2.90279 0
M  V30 7320 H 830.886 0.8622 -3.78402 0
M  V30 7321 H 828.987 2.87895 -2.36532 0
M  V30 7322 H 829.1 2.35151 -4.17422 0
M  V30 7323 H 827.464 1.33352 -2.17001 0
M  V30 7324 H 828.247 0.229936 -3.42529 0
M  V30 7325 N 830.692 1.47107 0.565454 0
M  V30 7326 C 831.969 1.43787 1.32607 0
M  V30 7327 C 832.349 0.130428 2.10697 0
M  V30 7328 O 831.697 -0.888086 2.10536 0
M  V30 7329 C 831.907 2.67833 2.23755 0
M  V30 7330 C 833.255 3.14704 2.85037 0
M  V30 7331 O 834.279 2.68503 2.34061 0
M  V30 7332 O 833.138 3.95002 3.77671 0
M  V30 7333 H 830.232 0.572623 0.596684 0
M  V30 7334 H 832.778 1.59296 0.58504 0
M  V30 7335 H 831.55 3.54532 1.65597 0
M  V30 7336 H 831.173 2.54869 3.05168 0
M  V30 7337 N 832.17 -0.811516 1.35101 0
M  V30 7338 C 833.398 -1.59981 1.31201 0
M  V30 7339 C 833.813 -1.8847 -0.111552 0
M  V30 7340 O 833.17 -1.48414 -1.06205 0
M  V30 7341 C 833.221 -2.934 2.11184 0
M  V30 7342 O 832.942 -2.66148 3.4799 0
M  V30 7343 C 834.443 -3.87776 2.14813 0
M  V30 7344 H 831.663 -0.496921 0.450899 0
M  V30 7345 H 834.207 -1.00886 1.77883 0
M  V30 7346 H 832.362 -3.49022 1.68115 0
M  V30 7347 H 832.776 -3.51301 3.89471 0
M  V30 7348 H 834.25 -4.7852 2.75178 0
M  V30 7349 H 834.727 -4.23997 1.14556 0
M  V30 7350 H 835.333 -3.3809 2.58022 0
M  V30 7351 N 833.648 -1.19017 -1.03309 0
M  V30 7352 C 835.064 -0.941483 -1.28873 0
M  V30 7353 C 835.264 0.388587 -1.97718 0
M  V30 7354 O 834.32 1.12111 -2.26246 0
M  V30 7355 C 835.633 -2.11249 -2.13996 0
M  V30 7356 C 837.181 -2.15164 -2.27318 0
M  V30 7357 C 837.656 -3.31704 -3.15811 0
M  V30 7358 N 839.147 -3.31613 -3.23399 0
M  V30 7359 C 839.882 -4.18431 -3.9205 0
M  V30 7360 N 839.378 -5.15397 -4.62966 0
M  V30 7361 N 841.171 -4.06321 -3.88406 0
M  V30 7362 H 833.322 -2.04599 -0.570343 0
M  V30 7363 H 835.585 -0.894406 -0.314232 0
M  V30 7364 H 835.291 -3.07482 -1.70727 0
M  V30 7365 H 835.165 -2.07955 -3.14697 0
M  V30 7366 H 837.552 -1.19504 -2.6982 0
M  V30 7367 H 837.633 -2.22513 -1.26182 0
M  V30 7368 H 837.277 -4.2764 -2.74019 0
M  V30 7369 H 837.207 -3.21592 -4.16997 0
M  V30 7370 H 839.698 -2.6142 -2.72888 0
M  V30 7371 H 840.011 -5.78 -5.12968 0
M  V30 7372 H 838.356 -5.19349 -4.61846 0
M  V30 7373 H 841.547 -3.29849 -3.3214 0
M  V30 7374 H 841.72 -4.74196 -4.41635 0
M  V30 7375 N 835.127 1.22348 -0.993418 0
M  V30 7376 C 836.538 1.72893 -0.704616 0
M  V30 7377 C 836.889 1.80095 0.778483 0
M  V30 7378 O 836.014 1.4476 1.60853 0
M  V30 7379 C 836.609 3.14 -1.27237 0
M  V30 7380 C 835.168 3.61949 -1.03294 0
M  V30 7381 C 834.315 2.39816 -1.39225 0
M  V30 7382 H 837.266 1.07688 -1.16572 0
M  V30 7383 H 837.287 3.74886 -0.651212 0
M  V30 7384 H 836.799 3.08727 -2.3518 0
M  V30 7385 H 834.9 3.72588 0.0298329 0
M  V30 7386 H 835.013 4.48051 -1.69668 0
M  V30 7387 H 833.377 2.41448 -0.810849 0
M  V30 7388 H 834.16 2.37203 -2.48172 0
M  V30 7389 N 836.605 0.766683 1.37694 0
M  V30 7390 C 837.568 0.155849 2.2867 0
M  V30 7391 C 838.568 -0.633509 1.47795 0
M  V30 7392 O 839.758 -0.457844 1.68076 0
M  V30 7393 C 836.89 -0.786965 3.31692 0
M  V30 7394 H 838.083 0.957748 2.84196 0
M  V30 7395 H 835.636 0.534554 1.46875 0
M  V30 7396 H 836.371 -1.61406 2.8128 0
M  V30 7397 H 836.156 -0.223182 3.91464 0
M  V30 7398 H 837.646 -1.20994 3.99688 0
M  V30 7399 N 838.083 -1.48885 0.516809 0
M  V30 7400 C 839.494 -1.86557 0.0729921 0
M  V30 7401 C 839.845 -1.42767 -1.34581 0
M  V30 7402 O 838.97 -0.812514 -2.00567 0
M  V30 7403 C 839.565 -3.38567 0.125686 0
M  V30 7404 C 838.124 -3.75481 -0.262867 0
M  V30 7405 C 837.271 -2.72913 0.491281 0
M  V30 7406 H 840.222 -1.40978 0.728767 0
M  V30 7407 H 840.243 -3.74629 -0.665831 0
M  V30 7408 H 839.755 -3.70408 1.15842 0
M  V30 7409 H 837.856 -3.49251 -1.29824 0
M  V30 7410 H 837.969 -4.79052 0.067579 0
M  V30 7411 H 836.333 -2.54627 -0.0608525 0
M  V30 7412 H 837.116 -3.07599 1.5244 0
M  V30 7413 N 839.561 -0.251338 -1.55583 0
M  V30 7414 C 840.809 0.371434 -1.98657 0
M  V30 7415 C 841.13 1.58143 -1.14087 0
M  V30 7416 O 840.4 1.94607 -0.224708 0
M  V30 7417 H 838.98 0.140225 -0.733721 0
M  V30 7418 H 841.642 -0.351157 -1.9171 0
M  V30 7419 H 840.738 0.677554 -3.04657 0
M  V30 7420 N 841.039 1.57585 0.0217189 0
M  V30 7421 C 842.264 1.94267 0.726309 0
M  V30 7422 C 842.689 0.851904 1.67703 0
M  V30 7423 O 842.047 -0.191792 1.80283 0
M  V30 7424 C 842.095 3.30023 1.45318 0
M  V30 7425 O 841.199 3.22791 2.5667 0
M  V30 7426 H 840.54 0.634777 0.194818 0
M  V30 7427 H 843.07 2.04585 -0.0249985 0
M  V30 7428 H 843.08 3.65084 1.82147 0
M  V30 7429 H 841.755 4.08972 0.755962 0
M  V30 7430 H 840.332 2.99373 2.2233 0
M  V30 7431 N 842.517 -0.29412 1.54831 0
M  V30 7432 C 843.745 -1.04724 1.78439 0
M  V30 7433 C 844.16 -1.80695 0.547239 0
M  V30 7434 O 843.517 -1.75989 -0.483141 0
M  V30 7435 C 843.568 -2.02242 2.99634 0
M  V30 7436 O 843.289 -1.29352 4.18568 0
M  V30 7437 C 844.79 -2.89537 3.35683 0
M  V30 7438 H 842.01 -0.310285 0.594949 0
M  V30 7439 H 844.554 -0.331306 2.01798 0
M  V30 7440 H 842.709 -2.69328 2.78462 0
M  V30 7441 H 843.123 -1.94901 4.86943 0
M  V30 7442 H 844.597 -3.538 4.23709 0
M  V30 7443 H 845.074 -3.58201 2.54143 0
M  V30 7444 H 845.68 -2.27973 3.59038 0
M  V30 7445 N 843.995 -1.47404 -0.557645 0
M  V30 7446 C 844.958 -1.59411 -1.64684 0
M  V30 7447 C 845.958 -0.469244 -1.53801 0
M  V30 7448 O 847.148 -0.734298 -1.57967 0
M  V30 7449 C 844.28 -1.5382 -3.04224 0
M  V30 7450 H 845.473 -2.56504 -1.55389 0
M  V30 7451 H 843.026 -1.35588 -0.777531 0
M  V30 7452 H 843.761 -0.581 -3.19053 0
M  V30 7453 H 843.546 -2.35456 -3.13533 0
M  V30 7454 H 845.036 -1.65358 -3.83466 0
M  V30 7455 N 845.473 0.80434 -1.35529 0
M  V30 7456 C 846.884 1.37849 -1.25915 0
M  V30 7457 C 847.235 1.95905 0.107495 0
M  V30 7458 O 846.36 1.91462 1.00852 0
M  V30 7459 C 846.955 2.50608 -2.27994 0
M  V30 7460 C 845.514 3.03879 -2.22114 0
M  V30 7461 C 844.661 1.76856 -2.13582 0
M  V30 7462 H 847.612 0.607192 -1.46625 0
M  V30 7463 H 847.633 3.29221 -1.90772 0
M  V30 7464 H 847.145 2.08323 -3.27449 0
M  V30 7465 H 845.246 3.50622 -1.26077 0
M  V30 7466 H 845.359 3.61707 -3.14173 0
M  V30 7467 H 843.723 1.98498 -1.59595 0
M  V30 7468 H 844.506 1.36721 -3.14901 0
M  V30 7469 N 846.951 1.19563 1.02676 0
M  V30 7470 C 848.362 1.00158 1.57561 0
M  V30 7471 C 848.713 -0.444922 1.91089 0
M  V30 7472 O 847.838 -1.32466 1.71119 0
M  V30 7473 C 848.433 1.81181 2.86284 0
M  V30 7474 C 846.992 1.66171 3.37734 0
M  V30 7475 C 846.139 1.7975 2.11152 0
M  V30 7476 H 849.09 1.33904 0.85179 0
M  V30 7477 H 849.111 1.30916 3.57269 0
M  V30 7478 H 848.623 2.86454 2.6185 0
M  V30 7479 H 846.724 0.634927 3.6715 0
M  V30 7480 H 846.837 2.46832 4.10622 0
M  V30 7481 H 845.201 1.22833 2.23123 0
M  V30 7482 H 845.984 2.86487 1.89157 0
M  V30 7483 N 848.429 -1.21819 0.999893 0
M  V30 7484 C 849.392 -2.22227 0.561044 0
M  V30 7485 C 850.392 -1.56722 -0.359858 0
M  V30 7486 O 851.582 -1.73546 -0.150848 0
M  V30 7487 C 848.714 -3.40409 -0.182987 0
M  V30 7488 H 849.907 -2.62567 1.44909 0
M  V30 7489 H 847.46 -1.34991 0.78785 0
M  V30 7490 H 848.195 -3.05551 -1.08671 0
M  V30 7491 H 847.98 -3.89171 0.47833 0
M  V30 7492 H 849.47 -4.14856 -0.477952 0
M  V30 7493 N 849.908 -0.773975 -1.37286 0
M  V30 7494 C 850.858 -0.135245 -2.27599 0
M  V30 7495 C 851.842 0.671691 -1.46209 0
M  V30 7496 O 853.034 0.534299 -1.68743 0
M  V30 7497 C 850.163 0.741298 -3.35201 0
M  V30 7498 C 849.249 -0.0735896 -4.24036 0
M  V30 7499 N 849.64 -1.12035 -4.93236 0
M  V30 7500 C 847.938 0.150038 -4.45748 0
M  V30 7501 C 848.639 -1.61512 -5.58828 0
M  V30 7502 N 847.615 -0.926922 -5.35639 0
M  V30 7503 H 851.417 -0.936646 -2.78575 0
M  V30 7504 H 848.931 -0.611944 -1.50429 0
M  V30 7505 H 850.928 1.21468 -3.98812 0
M  V30 7506 H 849.588 1.54142 -2.8578 0
M  V30 7507 H 850.599 -1.50253 -4.95625 0
M  V30 7508 H 847.276 0.921891 -4.07195 0
M  V30 7509 H 848.666 -2.48818 -6.24131 0
M  V30 7510 N 851.386 1.48609 -0.524698 0
M  V30 7511 C 852.634 2.02097 0.0112991 0
M  V30 7512 C 852.955 1.40455 1.35268 0
M  V30 7513 O 852.225 0.56807 1.87483 0
M  V30 7514 H 850.805 0.746966 0.00716426 0
M  V30 7515 H 853.467 1.82378 -0.687329 0
M  V30 7516 H 852.563 3.11855 0.123531 0
M  V30 7517 N 852.864 0.259585 1.55447 0
M  V30 7518 C 854.11 -0.362143 1.9954 0
M  V30 7519 C 854.443 -1.5666 1.14767 0
M  V30 7520 O 853.718 -1.93319 0.214025 0
M  V30 7521 C 854.001 -0.759588 3.51998 0
M  V30 7522 C 853.854 0.451134 4.47532 0
M  V30 7523 C 855.173 -1.60186 4.09913 0
M  V30 7524 H 852.292 -0.130157 0.725416 0
M  V30 7525 H 854.934 0.363431 1.86492 0
M  V30 7526 H 853.084 -1.3778 3.63248 0
M  V30 7527 H 854.756 1.08965 4.48246 0
M  V30 7528 H 852.999 1.092 4.19831 0
M  V30 7529 H 853.67 0.129518 5.51848 0
M  V30 7530 H 856.146 -1.0799 4.01842 0
M  V30 7531 H 855.022 -1.84879 5.16828 0
M  V30 7532 H 855.283 -2.57787 3.59163 0
M  V30 7533 N 854.342 -1.57594 -0.0133615 0
M  V30 7534 C 855.57 -1.94251 -0.712328 0
M  V30 7535 C 855.985 -0.86063 -1.68043 0
M  V30 7536 O 855.342 0.161632 -1.81783 0
M  V30 7537 C 855.393 -3.30891 -1.45581 0
M  V30 7538 O 855.114 -4.34924 -0.526539 0
M  V30 7539 C 856.615 -3.81926 -2.2505 0
M  V30 7540 H 853.835 -0.640737 -0.199241 0
M  V30 7541 H 856.379 -2.04472 0.0337855 0
M  V30 7542 H 854.534 -3.22019 -2.15366 0
M  V30 7543 H 854.948 -5.1389 -1.04962 0
M  V30 7544 H 856.422 -4.79999 -2.72589 0
M  V30 7545 H 856.899 -3.13934 -3.07152 0
M  V30 7546 H 857.505 -3.93931 -1.60308 0
M  V30 7547 N 855.82 0.285905 -1.54985 0
M  V30 7548 C 857.045 1.04207 -1.7932 0
M  V30 7549 C 857.47 1.79622 -0.558343 0
M  V30 7550 O 856.828 1.74506 0.491661 0
M  V30 7551 C 856.876 1.98648 -3.0095 0
M  V30 7552 O 855.98 3.07207 -2.75132 0
M  V30 7553 H 855.321 0.298596 -0.593074 0
M  V30 7554 H 857.851 0.318736 -2.02102 0
M  V30 7555 H 857.861 2.4084 -3.29333 0
M  V30 7556 H 856.536 1.43167 -3.90482 0
M  V30 7557 H 855.113 2.69423 -2.57809 0
M  V30 7558 N 857.298 1.47698 0.54982 0
M  V30 7559 C 858.261 1.60282 1.63837 0
M  V30 7560 C 859.261 0.477394 1.5355 0
M  V30 7561 O 860.451 0.742665 1.57576 0
M  V30 7562 C 857.583 1.55431 3.03404 0
M  V30 7563 H 858.776 2.57325 1.54026 0
M  V30 7564 H 856.329 1.35999 0.770329 0
M  V30 7565 H 857.064 0.597912 3.1874 0
M  V30 7566 H 856.849 2.37116 3.12279 0
M  V30 7567 H 858.339 1.6739 3.82584 0
M  V30 7568 N 858.776 -0.797141 1.35954 0
M  V30 7569 C 860.187 -1.37179 1.26644 0
M  V30 7570 C 860.538 -1.9596 -0.0971046 0
M  V30 7571 O 859.663 -1.91994 -0.998355 0
M  V30 7572 C 860.258 -2.49395 2.2932 0
M  V30 7573 C 858.817 -3.02697 2.23722 0
M  V30 7574 C 857.964 -1.75721 2.14517 0
M  V30 7575 H 860.915 -0.599407 1.46945 0
M  V30 7576 H 860.936 -3.28204 1.92515 0
M  V30 7577 H 860.448 -2.06584 3.2855 0
M  V30 7578 H 858.549 -3.49948 1.27934 0
M  V30 7579 H 858.662 -3.60036 3.16087 0
M  V30 7580 H 857.026 -1.97649 1.60646 0
M  V30 7581 H 857.809 -1.35049 3.15621 0
M  V30 7582 N 860.254 -1.20106 -1.0204 0
M  V30 7583 C 861.531 -0.918029 -1.72718 0
M  V30 7584 C 861.911 0.574163 -2.03142 0
M  V30 7585 O 861.259 1.53476 -1.69285 0
M  V30 7586 C 861.469 -1.78698 -2.9978 0
M  V30 7587 C 862.817 -2.02648 -3.7312 0
M  V30 7588 O 863.841 -1.75919 -3.09727 0
M  V30 7589 O 862.7 -2.47767 -4.87107 0
M  V30 7590 H 859.794 -0.342904 -0.752559 0
M  V30 7591 H 862.34 -1.30961 -1.07923 0
M  V30 7592 H 861.112 -2.79757 -2.7359 0
M  V30 7593 H 860.735 -1.39522 -3.72316 0
M  V30 7594 N 861.732 1.21287 -1.00634 0
M  V30 7595 C 862.96 1.94385 -0.708678 0
M  V30 7596 C 863.375 1.7416 0.728957 0
M  V30 7597 O 862.732 1.04906 1.49335 0
M  V30 7598 C 862.783 3.46755 -1.02193 0
M  V30 7599 O 862.504 3.6631 -2.40309 0
M  V30 7600 C 864.005 4.37014 -0.743867 0
M  V30 7601 H 861.225 0.618136 -0.261052 0
M  V30 7602 H 863.769 1.54067 -1.34475 0
M  V30 7603 H 861.924 3.8499 -0.431441 0
M  V30 7604 H 862.338 4.60393 -2.51274 0
M  V30 7605 H 863.812 5.42621 -1.01321 0
M  V30 7606 H 864.289 4.38017 0.322084 0
M  V30 7607 H 864.895 4.04426 -1.31603 0
M  V30 7608 N 863.21 0.781244 1.36873 0
M  V30 7609 C 864.626 0.461968 1.52768 0
M  V30 7610 C 864.826 -1.02099 1.73719 0
M  V30 7611 O 863.882 -1.80665 1.76399 0
M  V30 7612 C 865.195 1.2853 2.71846 0
M  V30 7613 C 866.743 1.27817 2.85713 0
M  V30 7614 C 867.218 2.08506 4.07786 0
M  V30 7615 N 868.709 2.05909 4.14917 0
M  V30 7616 C 869.444 2.65118 5.08429 0
M  V30 7617 N 868.94 3.33152 6.07438 0
M  V30 7618 N 870.733 2.54896 5.00983 0
M  V30 7619 H 862.884 1.74198 1.21527 0
M  V30 7620 H 865.147 0.740027 0.592506 0
M  V30 7621 H 864.853 2.3366 2.62861 0
M  V30 7622 H 864.727 0.920981 3.65784 0
M  V30 7623 H 867.114 0.234817 2.94164 0
M  V30 7624 H 867.195 1.68219 1.92707 0
M  V30 7625 H 866.839 3.12867 4.00096 0
M  V30 7626 H 866.769 1.65479 4.99924 0
M  V30 7627 H 869.26 1.56386 3.44023 0
M  V30 7628 H 869.573 3.75681 6.75339 0
M  V30 7629 H 867.918 3.37253 6.07689 0
M  V30 7630 H 871.109 2.01352 4.22581 0
M  V30 7631 H 871.282 3.01332 5.73675 0
M  V30 7632 N 864.689 -1.48329 0.532571 0
M  V30 7633 C 866.1 -1.86469 0.0927749 0
M  V30 7634 C 866.451 -1.44186 -1.3306 0
M  V30 7635 O 865.576 -0.833741 -1.99694 0
M  V30 7636 C 866.171 -3.38414 0.161588 0
M  V30 7637 C 864.73 -3.75739 -0.223028 0
M  V30 7638 C 863.877 -2.72377 0.520199 0
M  V30 7639 H 866.828 -1.40197 0.743678 0
M  V30 7640 H 866.849 -3.75314 -0.626059 0
M  V30 7641 H 866.361 -3.69159 1.19765 0
M  V30 7642 H 864.462 -3.50608 -1.26113 0
M  V30 7643 H 864.575 -4.78954 0.118385 0
M  V30 7644 H 862.939 -2.54678 -0.0338425 0
M  V30 7645 H 863.722 -3.05965 1.55694 0
M  V30 7646 N 866.167 -0.267825 -1.55308 0
M  V30 7647 C 867.13 0.60965 -2.20943 0
M  V30 7648 C 868.13 1.0869 -1.18504 0
M  V30 7649 O 869.32 0.988248 -1.43455 0
M  V30 7650 C 866.452 1.84027 -2.86961 0
M  V30 7651 H 867.645 0.0366806 -2.99878 0
M  V30 7652 H 865.198 -0.0183941 -1.56289 0
M  V30 7653 H 865.933 2.45394 -2.1202 0
M  V30 7654 H 865.718 1.50605 -3.62023 0
M  V30 7655 H 867.208 2.46442 -3.37129 0
M  V30 7656 N 867.645 1.57599 0.00500368 0
M  V30 7657 C 869.056 1.78462 0.54848 0
M  V30 7658 C 869.407 0.901869 1.74243 0
M  V30 7659 O 868.532 0.103014 2.16155 0
M  V30 7660 C 869.127 3.2365 1.00179 0
M  V30 7661 C 867.686 3.45627 1.49061 0
M  V30 7662 C 866.833 2.73794 0.439531 0
M  V30 7663 H 869.784 1.57151 -0.22118 0
M  V30 7664 H 869.805 3.31488 1.86805 0
M  V30 7665 H 869.317 3.87873 0.132607 0
M  V30 7666 H 867.418 2.86612 2.38085 0
M  V30 7667 H 867.531 4.54298 1.52152 0
M  V30 7668 H 865.895 2.38267 0.900043 0
M  V30 7669 H 866.678 3.40714 -0.420599 0
M  V30 7670 N 869.123 -0.277682 1.55134 0
M  V30 7671 C 870.371 -1.00791 1.75173 0
M  V30 7672 C 870.692 -1.86987 0.553266 0
M  V30 7673 O 869.962 -1.91079 -0.43195 0
M  V30 7674 H 868.542 -0.375129 0.645978 0
M  V30 7675 H 871.204 -0.303041 1.9253 0
M  V30 7676 H 870.3 -1.64756 2.6507 0
M  V30 7677 N 870.601 -1.47988 -0.541979 0
M  V30 7678 C 871.826 -1.59286 -1.32826 0
M  V30 7679 C 872.251 -0.24894 -1.86445 0
M  V30 7680 O 871.609 0.777581 -1.63778 0
M  V30 7681 C 871.657 -2.6334 -2.46343 0
M  V30 7682 O 870.761 -2.19667 -3.49028 0
M  V30 7683 H 870.102 -0.534543 -0.393903 0
M  V30 7684 H 872.632 -1.93885 -0.653427 0
M  V30 7685 H 872.642 -2.84238 -2.92699 0
M  V30 7686 H 871.317 -3.60913 -2.06675 0
M  V30 7687 H 869.894 -2.08932 -3.08872 0
M  V30 7688 N 872.079 0.78992 -1.36375 0
M  V30 7689 C 873.307 1.57873 -1.3373 0
M  V30 7690 C 873.722 1.88624 0.0815544 0
M  V30 7691 O 873.079 1.50085 1.03831 0
M  V30 7692 C 873.13 2.90003 -2.15825 0
M  V30 7693 O 872.851 2.60578 -3.5218 0
M  V30 7694 C 874.352 3.84309 -2.20955 0
M  V30 7695 H 871.572 0.489685 -0.458748 0
M  V30 7696 H 874.116 0.980436 -1.79465 0
M  V30 7697 H 872.271 3.46303 -1.73646 0
M  V30 7698 H 872.685 3.4506 -3.95011 0
M  V30 7699 H 874.159 4.74081 -2.82756 0
M  V30 7700 H 874.636 4.22121 -1.21287 0
M  V30 7701 H 875.242 3.33942 -2.63368 0
M  V30 7702 N 873.557 1.20646 1.01402 0
M  V30 7703 C 874.52 0.959314 2.08158 0
M  V30 7704 C 875.52 -0.0661558 1.60664 0
M  V30 7705 O 876.71 0.170177 1.73367 0
M  V30 7706 C 873.842 0.444785 3.37986 0
M  V30 7707 H 875.035 1.90631 2.31517 0
M  V30 7708 H 872.588 1.02219 1.18241 0
M  V30 7709 H 873.323 -0.507553 3.20304 0
M  V30 7710 H 873.108 1.18435 3.73785 0
M  V30 7711 H 874.598 0.291443 4.16582 0
M  V30 7712 N 875.035 -1.20752 1.01276 0
M  V30 7713 C 876.446 -1.7175 0.732033 0
M  V30 7714 C 876.797 -1.8131 -0.749733 0
M  V30 7715 O 875.922 -1.47301 -1.58529 0
M  V30 7716 C 876.517 -3.11936 1.32217 0
M  V30 7717 C 875.076 -3.6026 1.09039 0
M  V30 7718 C 874.223 -2.37571 1.43022 0
M  V30 7719 H 877.174 -1.0582 1.1827 0
M  V30 7720 H 877.195 -3.73802 0.710771 0
M  V30 7721 H 876.707 -3.04946 2.40061 0
M  V30 7722 H 874.808 -3.72588 0.0294464 0
M  V30 7723 H 874.921 -4.45295 1.76775 0
M  V30 7724 H 873.285 -2.40128 0.849159 0
M  V30 7725 H 874.068 -2.33225 2.51915 0
M  V30 7726 N 876.513 -0.788492 -1.36457 0
M  V30 7727 C 877.924 -0.423742 -1.81828 0
M  V30 7728 C 878.275 1.05221 -1.65599 0
M  V30 7729 O 877.4 1.8163 -1.17641 0
M  V30 7730 C 877.995 -0.762354 -3.30112 0
M  V30 7731 C 876.554 -0.450445 -3.73695 0
M  V30 7732 C 875.701 -0.997482 -2.58738 0
M  V30 7733 H 878.652 -0.981718 -1.24692 0
M  V30 7734 H 878.673 -0.0531136 -3.80463 0
M  V30 7735 H 878.185 -1.83662 -3.41891 0
M  V30 7736 H 876.286 0.615829 -3.67476 0
M  V30 7737 H 876.399 -0.970408 -4.69169 0
M  V30 7738 H 874.763 -0.420761 -2.51201 0
M  V30 7739 H 875.546 -2.07749 -2.73304 0
M  V30 7740 N 877.991 1.48044 -0.54043 0
M  V30 7741 C 878.954 2.28273 0.205966 0
M  V30 7742 C 879.954 1.35983 0.858209 0
M  V30 7743 O 881.144 1.58776 0.716651 0
M  V30 7744 C 878.276 3.15174 1.29917 0
M  V30 7745 H 879.469 2.95727 -0.498555 0
M  V30 7746 H 877.022 1.53457 -0.296745 0
M  V30 7747 H 877.757 2.52374 2.03661 0
M  V30 7748 H 877.542 3.83074 0.836475 0
M  V30 7749 H 879.032 3.75666 1.82387 0
M  V30 7750 N 879.47 0.276058 1.55163 0
M  V30 7751 C 880.42 -0.625549 2.19251 0
M  V30 7752 C 881.404 -1.11769 1.15744 0
M  V30 7753 O 882.596 -1.0626 1.41555 0
M  V30 7754 C 879.725 -1.80879 2.91784 0
M  V30 7755 C 878.811 -1.33379 4.0258 0
M  V30 7756 N 879.202 -0.575002 5.02521 0
M  V30 7757 C 877.5 -1.61666 4.15668 0
M  V30 7758 C 878.201 -0.325164 5.8079 0
M  V30 7759 N 877.177 -0.897851 5.36134 0
M  V30 7760 H 880.979 -0.0379943 2.93875 0
M  V30 7761 H 878.493 0.079661 1.62205 0
M  V30 7762 H 880.49 -2.466 3.36146 0
M  V30 7763 H 879.15 -2.40028 2.1867 0
M  V30 7764 H 880.161 -0.222256 5.17423 0
M  V30 7765 H 876.838 -2.21745 3.53745 0
M  V30 7766 H 878.228 0.282598 6.71305 0
M  V30 7767 N 880.948 -1.576 0.00335426 0
M  V30 7768 C 882.196 -1.90336 -0.679446 0
M  V30 7769 C 882.517 -0.877777 -1.74127 0
M  V30 7770 O 881.787 0.0843585 -1.95718 0
M  V30 7771 H 880.367 -0.702509 -0.253948 0
M  V30 7772 H 883.029 -1.94848 0.0450731 0
M  V30 7773 H 882.125 -2.90197 -1.14857 0
M  V30 7774 N 882.426 0.269451 -1.5528 0
M  V30 7775 C 883.672 1.00206 -1.76314 0
M  V30 7776 C 884.005 1.85812 -0.564581 0
M  V30 7777 O 883.28 1.89509 0.437769 0
M  V30 7778 C 883.563 1.88163 -3.07029 0
M  V30 7779 C 883.416 1.05527 -4.37246 0
M  V30 7780 C 884.735 2.8681 -3.33808 0
M  V30 7781 H 881.854 0.36288 -0.641473 0
M  V30 7782 H 884.496 0.274188 -1.88011 0
M  V30 7783 H 882.646 2.50224 -2.97187 0
M  V30 7784 H 884.318 0.455094 -4.5905 0
M  V30 7785 H 882.561 0.358842 -4.32313 0
M  V30 7786 H 883.232 1.70397 -5.25042 0
M  V30 7787 H 885.708 2.34884 -3.43466 0
M  V30 7788 H 884.584 3.45492 -4.26528 0
M  V30 7789 H 884.845 3.62118 -2.5362 0
M  V30 7790 N 883.904 1.48273 0.534124 0
M  V30 7791 C 885.132 1.59734 1.31501 0
M  V30 7792 C 885.547 0.256047 1.87056 0
M  V30 7793 O 884.904 -0.754086 1.66192 0
M  V30 7794 C 884.955 2.64072 2.46877 0
M  V30 7795 O 884.676 3.92995 1.93613 0
M  V30 7796 C 886.177 2.85933 3.38758 0
M  V30 7797 H 883.397 0.538703 0.40005 0
M  V30 7798 H 885.941 1.9407 0.644762 0
M  V30 7799 H 884.096 2.32606 3.09795 0
M  V30 7800 H 884.51 4.50203 2.69106 0
M  V30 7801 H 885.984 3.62749 4.16073 0
M  V30 7802 H 886.461 1.94603 3.93734 0
M  V30 7803 H 887.067 3.18687 2.81636 0
M  V30 7804 N 885.382 -0.782676 1.36792 0
M  V30 7805 C 886.607 -1.57676 1.34733 0
M  V30 7806 C 887.032 -1.87979 -0.0675253 0
M  V30 7807 O 886.39 -1.48404 -1.04144 0
M  V30 7808 C 886.438 -2.87047 2.18257 0
M  V30 7809 O 885.542 -3.80946 1.57969 0
M  V30 7810 H 884.883 -0.478034 0.460846 0
M  V30 7811 H 887.413 -0.969578 1.80168 0
M  V30 7812 H 887.423 -3.36254 2.31079 0
M  V30 7813 H 886.098 -2.64319 3.21104 0
M  V30 7814 H 884.675 -3.39558 1.54126 0
M  V30 7815 N 886.86 -1.21182 -1.00761 0
M  V30 7816 C 887.823 -0.970339 -2.07646 0
M  V30 7817 C 888.823 0.0576345 -1.60697 0
M  V30 7818 O 890.013 -0.179369 -1.73274 0
M  V30 7819 C 887.145 -0.462703 -3.37745 0
M  V30 7820 H 888.338 -1.91856 -2.30502 0
M  V30 7821 H 885.891 -1.02844 -1.17698 0
M  V30 7822 H 886.626 0.490559 -3.20568 0
M  V30 7823 H 886.411 -1.20416 -3.73152 0
M  V30 7824 H 887.901 -0.313531 -4.16421 0
M  V30 7825 N 888.338 1.20213 -1.01915 0
M  V30 7826 C 889.749 1.7136 -0.741131 0
M  V30 7827 C 890.1 1.81705 0.740107 0
M  V30 7828 O 889.225 1.48139 1.57746 0
M  V30 7829 C 889.82 3.11231 -1.33869 0
M  V30 7830 C 888.379 3.59677 -1.10948 0
M  V30 7831 C 887.526 2.36809 -1.4428 0
M  V30 7832 H 890.477 1.05191 -1.1883 0
M  V30 7833 H 890.498 3.7342 -0.730585 0
M  V30 7834 H 890.01 3.03669 -2.41675 0
M  V30 7835 H 888.111 3.72568 -0.0492052 0
M  V30 7836 H 888.224 4.44351 -1.79134 0
M  V30 7837 H 886.588 2.39674 -0.861881 0
M  V30 7838 H 887.371 2.31886 -2.53148 0
M  V30 7839 N 889.816 0.795718 1.36037 0
M  V30 7840 C 891.093 0.294743 1.93367 0
M  V30 7841 C 891.473 -1.21406 1.72696 0
M  V30 7842 O 890.821 -2.00849 1.08959 0
M  V30 7843 C 891.031 0.694254 3.42025 0
M  V30 7844 C 892.379 0.677566 4.19159 0
M  V30 7845 O 893.403 0.635119 3.50492 0
M  V30 7846 O 892.262 0.726127 5.41655 0
M  V30 7847 H 889.356 0.0745459 0.823633 0
M  V30 7848 H 891.902 0.878685 1.4518 0
M  V30 7849 H 890.674 1.73458 3.50753 0
M  V30 7850 H 890.297 0.0845338 3.9751 0
M  V30 7851 N 891.294 -1.47756 0.548274 0
M  V30 7852 C 892.522 -2.06884 0.0254873 0
M  V30 7853 C 892.937 -1.40225 -1.26422 0
M  V30 7854 O 892.294 -0.495776 -1.75637 0
M  V30 7855 C 892.345 -3.61036 -0.183134 0
M  V30 7856 O 892.066 -4.25195 1.05549 0
M  V30 7857 C 893.567 -4.37008 -0.744222 0
M  V30 7858 H 890.787 -0.669697 0.041789 0
M  V30 7859 H 893.331 -1.89888 0.759138 0
M  V30 7860 H 891.486 -3.77576 -0.866886 0
M  V30 7861 H 891.9 -5.17606 0.847629 0
M  V30 7862 H 893.374 -5.45579 -0.839529 0
M  V30 7863 H 893.851 -4.0268 -1.75344 0
M  V30 7864 H 894.457 -4.25191 -0.0964542 0
M  V30 7865 N 892.772 -0.284283 -1.55015 0
M  V30 7866 C 894.188 0.069603 -1.59448 0
M  V30 7867 C 894.388 1.53833 -1.30144 0
M  V30 7868 O 893.444 2.2886 -1.06674 0
M  V30 7869 C 894.757 -0.313287 -2.99064 0
M  V30 7870 C 896.305 -0.260662 -3.11913 0
M  V30 7871 C 896.78 -0.618127 -4.5381 0
M  V30 7872 N 898.271 -0.570026 -4.59679 0
M  V30 7873 C 899.006 -0.8193 -5.67517 0
M  V30 7874 N 898.502 -1.13367 -6.83462 0
M  V30 7875 N 900.295 -0.747482 -5.57108 0
M  V30 7876 H 892.446 -1.24167 -1.72326 0
M  V30 7877 H 894.709 -0.502259 -0.804015 0
M  V30 7878 H 894.415 -1.33509 -3.25374 0
M  V30 7879 H 894.289 0.341369 -3.75652 0
M  V30 7880 H 896.676 0.751869 -2.85361 0
M  V30 7881 H 896.757 -0.949706 -2.37517 0
M  V30 7882 H 896.401 -1.62839 -4.81088 0
M  V30 7883 H 896.331 0.092807 -5.26518 0
M  V30 7884 H 898.822 -0.3373 -3.76392 0
M  V30 7885 H 899.135 -1.3103 -7.61611 0
M  V30 7886 H 897.48 -1.17154 -6.85055 0
M  V30 7887 H 900.671 -0.501658 -4.65404 0
M  V30 7888 H 900.844 -0.945128 -6.4107 0
M  V30 7889 N 894.251 1.57596 -0.0117121 0
M  V30 7890 C 895.662 1.79033 0.529521 0
M  V30 7891 C 896.013 0.920299 1.73277 0
M  V30 7892 O 895.138 0.125934 2.16033 0
M  V30 7893 C 895.733 3.24695 0.967405 0
M  V30 7894 C 894.292 3.47188 1.45387 0
M  V30 7895 C 893.439 2.74245 0.410466 0
M  V30 7896 H 896.39 1.56908 -0.237836 0
M  V30 7897 H 896.411 3.33451 1.83278 0
M  V30 7898 H 895.923 3.87992 0.0914605 0
M  V30 7899 H 894.024 2.89121 2.35032 0
M  V30 7900 H 894.137 4.55886 1.47325 0
M  V30 7901 H 892.501 2.39209 0.874721 0
M  V30 7902 H 893.284 3.40248 -0.456713 0
M  V30 7903 N 895.729 -0.261212 1.5542 0
M  V30 7904 C 896.692 -1.30645 1.8832 0
M  V30 7905 C 897.692 -1.41782 0.758588 0
M  V30 7906 O 898.882 -1.40729 1.02669 0
M  V30 7907 C 896.014 -2.6862 2.09895 0
M  V30 7908 H 897.207 -1.02698 2.81768 0
M  V30 7909 H 894.76 -0.499838 1.48092 0
M  V30 7910 H 895.495 -3.0173 1.18868 0
M  V30 7911 H 895.28 -2.61921 2.91787 0
M  V30 7912 H 896.77 -3.44121 2.36581 0
M  V30 7913 N 897.207 -1.48554 -0.526253 0
M  V30 7914 C 898.618 -1.50256 -1.10815 0
M  V30 7915 C 898.969 -0.274445 -1.94271 0
M  V30 7916 O 898.094 0.618094 -2.07385 0
M  V30 7917 C 898.689 -2.72264 -2.01638 0
M  V30 7918 C 897.248 -2.76826 -2.55038 0
M  V30 7919 C 896.395 -2.43823 -1.32081 0
M  V30 7920 H 899.346 -1.55616 -0.31133 0
M  V30 7921 H 899.367 -2.50993 -2.85977 0
M  V30 7922 H 898.879 -3.61632 -1.4087 0
M  V30 7923 H 896.98 -1.91676 -3.19517 0
M  V30 7924 H 897.093 -3.78351 -2.93917 0
M  V30 7925 H 895.457 -1.95058 -1.63781 0
M  V30 7926 H 896.24 -3.35436 -0.730596 0
M  V30 7927 N 898.685 0.775411 -1.37205 0
M  V30 7928 C 899.933 1.53081 -1.3195 0
M  V30 7929 C 900.254 1.9476 0.0966864 0
M  V30 7930 O 899.524 1.66019 1.03993 0
M  V30 7931 H 898.104 0.567762 -0.485444 0
M  V30 7932 H 900.766 0.92309 -1.71654 0
M  V30 7933 H 899.862 2.4319 -1.95614 0
M  V30 7934 N 900.163 1.21714 1.00117 0
M  V30 7935 C 901.388 1.06357 1.78054 0
M  V30 7936 C 901.813 -0.382075 1.84179 0
M  V30 7937 O 901.171 -1.27575 1.28819 0
M  V30 7938 C 901.219 1.66982 3.19608 0
M  V30 7939 O 900.323 0.917892 4.02055 0
M  V30 7940 H 899.664 0.374074 0.548602 0
M  V30 7941 H 902.194 1.61338 1.25822 0
M  V30 7942 H 902.204 1.71363 3.70268 0
M  V30 7943 H 900.879 2.72185 3.14465 0
M  V30 7944 H 899.456 0.949473 3.6061 0
M  V30 7945 N 901.641 -1.19671 1.02551 0
M  V30 7946 C 902.869 -1.93233 0.739513 0
M  V30 7947 C 903.284 -1.75298 -0.701158 0
M  V30 7948 O 902.641 -1.07269 -1.47647 0
M  V30 7949 C 902.692 -3.45085 1.07697 0
M  V30 7950 O 902.413 -3.62441 2.46106 0
M  V30 7951 C 903.914 -4.35776 0.813298 0
M  V30 7952 H 901.134 -0.613905 0.270853 0
M  V30 7953 H 903.678 -1.51909 1.36909 0
M  V30 7954 H 901.833 -3.84255 0.492635 0
M  V30 7955 H 902.247 -4.56337 2.58567 0
M  V30 7956 H 903.721 -5.40941 1.09941 0
M  V30 7957 H 904.198 -4.38474 -0.252359 0
M  V30 7958 H 904.804 -4.02282 1.38021 0
M  V30 7959 N 903.119 -0.802921 -1.35613 0
M  V30 7960 C 904.082 -0.216422 -2.28176 0
M  V30 7961 C 905.082 0.594101 -1.49422 0
M  V30 7962 O 906.272 0.41312 -1.6923 0
M  V30 7963 C 903.404 0.698746 -3.33662 0
M  V30 7964 H 904.597 -1.03276 -2.81557 0
M  V30 7965 H 902.15 -0.573307 -1.45406 0
M  V30 7966 H 902.885 1.53891 -2.85461 0
M  V30 7967 H 902.67 0.119314 -3.91918 0
M  V30 7968 H 904.16 1.10354 -4.02755 0
M  V30 7969 N 904.597 1.47463 -0.556102 0
M  V30 7970 C 906.008 1.86298 -0.122429 0
M  V30 7971 C 906.359 1.46285 1.30749 0
M  V30 7972 O 905.484 0.865405 1.98342 0
M  V30 7973 C 906.079 3.38115 -0.215407 0
M  V30 7974 C 904.638 3.76046 0.163223 0
M  V30 7975 C 903.785 2.71515 -0.563466 0
M  V30 7976 H 906.736 1.38996 -0.765888 0
M  V30 7977 H 906.757 3.76263 0.566271 0
M  V30 7978 H 906.269 3.67207 -1.25622 0
M  V30 7979 H 904.37 3.5257 1.20519 0
M  V30 7980 H 904.483 4.78705 -0.194568 0
M  V30 7981 H 902.847 2.54699 -0.00667879 0
M  V30 7982 H 903.63 3.03449 -1.60542 0
M  V30 7983 N 906.075 0.2925 1.54862 0
M  V30 7984 C 907.486 -0.201841 1.85606 0
M  V30 7985 C 907.837 -1.54093 1.21449 0
M  V30 7986 O 906.962 -2.10327 0.509079 0
M  V30 7987 C 907.557 -0.373011 3.3674 0
M  V30 7988 C 906.116 -0.811574 3.67547 0
M  V30 7989 C 905.263 0.0850583 2.7717 0
M  V30 7990 H 908.214 0.513774 1.50153 0
M  V30 7991 H 908.235 -1.20892 3.60785 0
M  V30 7992 H 907.747 0.601751 3.83407 0
M  V30 7993 H 905.848 -1.79719 3.26392 0
M  V30 7994 H 905.961 -0.636853 4.74848 0
M  V30 7995 H 904.325 -0.434224 2.50971 0
M  V30 7996 H 905.108 1.05602 3.26654 0
M  V30 7997 N 907.553 -1.57587 0.0200696 0
M  V30 7998 C 908.516 -2.08595 -0.949767 0
M  V30 7999 C 909.516 -0.999215 -1.25985 0
M  V30 8000 O 910.706 -1.26115 -1.2017 0
M  V30 8001 C 907.838 -2.54424 -2.26895 0
M  V30 8002 H 909.031 -2.95563 -0.508161 0
M  V30 8003 H 906.584 -1.54631 -0.227798 0
M  V30 8004 H 907.319 -1.70758 -2.75703 0
M  V30 8005 H 907.104 -3.3381 -2.05702 0
M  V30 8006 H 908.594 -2.94144 -2.96427 0
M  V30 8007 N 909.032 0.252966 -1.55557 0
M  V30 8008 C 909.982 1.31585 -1.86197 0
M  V30 8009 C 910.966 1.43773 -0.722357 0
M  V30 8010 O 912.158 1.47117 -0.984152 0
M  V30 8011 C 909.287 2.67245 -2.15487 0
M  V30 8012 C 908.373 2.59087 -3.3576 0
M  V30 8013 N 908.764 2.20556 -4.5518 0
M  V30 8014 C 907.062 2.90112 -3.3875 0
M  V30 8015 C 907.763 2.22881 -5.37307 0
M  V30 8016 N 906.739 2.62145 -4.76215 0
M  V30 8017 H 910.541 1.00835 -2.76061 0
M  V30 8018 H 908.055 0.461598 -1.55702 0
M  V30 8019 H 910.052 3.43944 -2.35602 0
M  V30 8020 H 908.712 2.98867 -1.26919 0
M  V30 8021 H 909.723 1.922 -4.80915 0
M  V30 8022 H 906.4 3.26313 -2.60434 0
M  V30 8023 H 907.79 1.95482 -6.42835 0
M  V30 8024 N 910.51 1.48831 0.518367 0
M  V30 8025 C 911.758 1.57128 1.27103 0
M  V30 8026 C 912.079 0.252098 1.93364 0
M  V30 8027 O 911.349 -0.727281 1.819 0
M  V30 8028 H 909.929 0.578891 0.472116 0
M  V30 8029 H 912.591 1.85361 0.602262 0
M  V30 8030 H 911.687 2.35838 2.04418 0
M  V30 8031 N 911.988 -0.768124 1.37614 0
M  V30 8032 C 913.234 -1.52907 1.33219 0
M  V30 8033 C 913.567 -1.94026 -0.0821218 0
M  V30 8034 O 912.842 -1.64345 -1.04023 0
M  V30 8035 C 913.125 -2.79164 2.27463 0
M  V30 8036 C 912.978 -2.44276 3.7769 0
M  V30 8037 C 914.297 -3.81115 2.20089 0
M  V30 8038 H 911.416 -0.554712 0.485246 0
M  V30 8039 H 914.058 -0.880911 1.68345 0
M  V30 8040 H 912.208 -3.34472 1.97639 0
M  V30 8041 H 913.88 -1.94855 4.18126 0
M  V30 8042 H 912.123 -1.76925 3.96081 0
M  V30 8043 H 912.794 -3.34544 4.39072 0
M  V30 8044 H 915.27 -3.35311 2.46386 0
M  V30 8045 H 914.146 -4.67174 2.88166 0
M  V30 8046 H 914.407 -4.25644 1.19498 0
M  V30 8047 N 913.466 -1.22244 -0.994698 0
M  V30 8048 C 914.694 -1.07218 -1.76952 0
M  V30 8049 C 915.109 0.377388 -1.8499 0
M  V30 8050 O 914.466 1.26157 -1.31874 0
M  V30 8051 C 914.517 -1.67496 -3.20355 0
M  V30 8052 O 914.238 -3.06782 -3.12756 0
M  V30 8053 C 915.739 -1.57721 -4.14294 0
M  V30 8054 H 912.959 -0.375966 -0.555779 0
M  V30 8055 H 915.503 -1.61799 -1.25065 0
M  V30 8056 H 913.658 -1.16982 -3.69315 0
M  V30 8057 H 914.072 -3.35784 -4.02926 0
M  V30 8058 H 915.546 -2.04623 -5.12673 0
M  V30 8059 H 916.023 -0.533434 -4.35949 0
M  V30 8060 H 916.629 -2.07531 -3.71229 0
M  V30 8061 N 914.944 1.19125 -1.03184 0
M  V30 8062 C 916.169 1.93379 -0.749628 0
M  V30 8063 C 916.594 1.75153 0.685785 0
M  V30 8064 O 915.952 1.05579 1.47386 0
M  V30 8065 C 916 3.43101 -1.1097 0
M  V30 8066 O 915.104 4.11758 -0.230053 0
M  V30 8067 H 914.445 0.603605 -0.276689 0
M  V30 8068 H 916.975 1.51116 -1.37931 0
M  V30 8069 H 916.985 3.93778 -1.06785 0
M  V30 8070 H 915.66 3.55688 -2.15544 0
M  V30 8071 H 914.237 3.7143 -0.330748 0
M  V30 8072 N 916.422 0.810101 1.35185 0
M  V30 8073 C 917.385 0.22852 2.28058 0
M  V30 8074 C 918.385 -0.586168 1.49735 0
M  V30 8075 O 919.575 -0.40414 1.69447 0
M  V30 8076 C 916.707 -0.681041 3.34028 0
M  V30 8077 H 917.9 1.04768 2.81005 0
M  V30 8078 H 915.453 0.58101 1.451 0
M  V30 8079 H 916.188 -1.52375 2.86273 0
M  V30 8080 H 915.973 -0.0985276 3.91976 0
M  V30 8081 H 917.463 -1.08217 4.03335 0
M  V30 8082 N 917.9 -1.47166 0.563914 0
M  V30 8083 C 919.311 -1.86231 0.132307 0
M  V30 8084 C 919.662 -1.46976 -1.29971 0
M  V30 8085 O 918.787 -0.875911 -1.97881 0
M  V30 8086 C 919.382 -3.37996 0.233335 0
M  V30 8087 C 917.941 -3.76127 -0.143278 0
M  V30 8088 C 917.088 -2.71212 0.577857 0
M  V30 8089 H 920.039 -1.38588 0.773249 0
M  V30 8090 H 920.06 -3.76558 -0.546309 0
M  V30 8091 H 919.572 -3.66535 1.27568 0
M  V30 8092 H 917.673 -3.53205 -1.18648 0
M  V30 8093 H 917.786 -4.78595 0.219952 0
M  V30 8094 H 916.15 -2.54692 0.020186 0
M  V30 8095 H 916.933 -3.02593 1.62149 0
M  V30 8096 N 919.378 -0.300708 -1.54705 0
M  V30 8097 C 920.655 0.361757 -1.92226 0
M  V30 8098 C 921.035 1.71714 -1.2279 0
M  V30 8099 O 920.383 2.2559 -0.363542 0
M  V30 8100 C 920.593 0.476699 -3.45729 0
M  V30 8101 C 921.941 0.7477 -4.17965 0
M  V30 8102 O 922.965 0.560521 -3.51762 0
M  V30 8103 O 921.824 1.10724 -5.35166 0
M  V30 8104 H 918.918 0.202213 -0.801897 0
M  V30 8105 H 921.464 -0.348746 -1.66078 0
M  V30 8106 H 920.236 -0.476132 -3.88392 0
M  V30 8107 H 919.859 1.23568 -3.77911 0
M  V30 8108 N 920.856 1.57574 -0.0284266 0
M  V30 8109 C 922.084 1.96071 0.660575 0
M  V30 8110 C 922.499 0.904881 1.65703 0
M  V30 8111 O 921.856 -0.113379 1.82147 0
M  V30 8112 C 921.907 3.34634 1.36756 0
M  V30 8113 O 921.628 4.36167 0.411041 0
M  V30 8114 C 923.129 3.87758 2.14845 0
M  V30 8115 H 920.349 0.645794 0.182183 0
M  V30 8116 H 922.893 2.04311 -0.0879858 0
M  V30 8117 H 921.048 3.27616 2.06753 0
M  V30 8118 H 921.462 5.16493 0.913 0
M  V30 8119 H 922.936 4.87058 2.59767 0
M  V30 8120 H 923.413 3.21967 2.9872 0
M  V30 8121 H 924.019 3.98043 1.49807 0
M  V30 8122 N 922.334 -0.244713 1.55689 0
M  V30 8123 C 923.75 -0.593331 1.48161 0
M  V30 8124 C 923.95 -1.88234 0.719047 0
M  V30 8125 O 923.006 -2.51266 0.249292 0
M  V30 8126 C 924.319 -0.694032 2.92581 0
M  V30 8127 C 925.867 -0.786213 3.02965 0
M  V30 8128 C 926.342 -0.918457 4.48696 0
M  V30 8129 N 927.833 -0.983272 4.52643 0
M  V30 8130 C 928.568 -1.1049 5.62654 0
M  V30 8131 N 928.064 -1.19193 6.8247 0
M  V30 8132 N 929.857 -1.13823 5.50455 0
M  V30 8133 H 922.008 0.601446 2.03707 0
M  V30 8134 H 924.271 0.207894 0.924924 0
M  V30 8135 H 923.977 0.183133 3.51223 0
M  V30 8136 H 923.851 -1.56525 3.4319 0
M  V30 8137 H 926.238 -1.65383 2.44402 0
M  V30 8138 H 926.319 0.110202 2.55563 0
M  V30 8139 H 925.963 -0.0553881 5.0787 0
M  V30 8140 H 925.893 -1.82994 4.93782 0
M  V30 8141 H 928.384 -0.927269 3.66347 0
M  V30 8142 H 928.697 -1.28387 7.62061 0
M  V30 8143 H 927.042 -1.16147 6.85226 0
M  V30 8144 H 930.233 -1.06673 4.55783 0
M  V30 8145 H 930.406 -1.22957 6.36228 0
M  V30 8146 N 923.813 -1.49104 -0.510467 0
M  V30 8147 C 925.224 -1.51423 -1.09215 0
M  V30 8148 C 925.575 -0.295035 -1.93969 0
M  V30 8149 O 924.7 0.596064 -2.08029 0
M  V30 8150 C 925.295 -2.74387 -1.98739 0
M  V30 8151 C 923.854 -2.79515 -2.52088 0
M  V30 8152 C 923.001 -2.4521 -1.29488 0
M  V30 8153 H 925.952 -1.55938 -0.294807 0
M  V30 8154 H 925.973 -2.54012 -2.83298 0
M  V30 8155 H 925.485 -3.63105 -1.37026 0
M  V30 8156 H 923.586 -1.95054 -3.17466 0
M  V30 8157 H 923.699 -3.81447 -2.89887 0
M  V30 8158 H 922.063 -1.96785 -1.61703 0
M  V30 8159 H 922.846 -3.36192 -0.694978 0
M  V30 8160 N 925.291 0.760815 -1.38019 0
M  V30 8161 C 926.254 1.85604 -1.34476 0
M  V30 8162 C 927.254 1.58897 -0.24666 0
M  V30 8163 O 928.444 1.66776 -0.50314 0
M  V30 8164 C 925.576 3.22945 -1.09176 0
M  V30 8165 H 926.769 1.90155 -2.31908 0
M  V30 8166 H 924.322 0.961746 -1.23208 0
M  V30 8167 H 925.057 3.24066 -0.123216 0
M  V30 8168 H 924.842 3.43723 -1.88672 0
M  V30 8169 H 926.332 4.03022 -1.09375 0
M  V30 8170 N 926.769 1.22769 0.988202 0
M  V30 8171 C 928.18 1.0512 1.54294 0
M  V30 8172 C 928.531 -0.383904 1.92407 0
M  V30 8173 O 927.656 -1.26955 1.75246 0
M  V30 8174 C 928.251 1.90198 2.80375 0
M  V30 8175 C 926.81 1.76831 3.32276 0
M  V30 8176 C 925.957 1.86377 2.05326 0
M  V30 8177 H 928.908 1.36546 0.808758 0
M  V30 8178 H 928.929 1.42216 3.52923 0
M  V30 8179 H 928.441 2.9464 2.52605 0
M  V30 8180 H 926.542 0.751412 3.64945 0
M  V30 8181 H 926.655 2.59771 4.02562 0
M  V30 8182 H 925.019 1.2987 2.19103 0
M  V30 8183 H 925.802 2.9236 1.79946 0
M  V30 8184 N 928.247 -1.18576 1.03814 0
M  V30 8185 C 929.495 -1.88121 0.738574 0
M  V30 8186 C 929.816 -1.80587 -0.735744 0
M  V30 8187 O 929.086 -1.22251 -1.53074 0
M  V30 8188 H 927.666 -0.696417 0.270208 0
M  V30 8189 H 930.328 -1.43912 1.31435 0
M  V30 8190 H 929.424 -2.94222 1.04115 0
M  V30 8191 N 929.725 -0.817259 -1.34754 0
M  V30 8192 C 930.95 -0.414423 -2.03217 0
M  V30 8193 C 931.375 0.970037 -1.61158 0
M  V30 8194 O 930.733 1.63016 -0.793436 0
M  V30 8195 C 930.781 -0.518087 -3.56859 0
M  V30 8196 O 929.885 0.464314 -4.09778 0
M  V30 8197 H 929.226 -0.171454 -0.641482 0
M  V30 8198 H 931.756 -1.10611 -1.72123 0
M  V30 8199 H 931.766 -0.391779 -4.06115 0
M  V30 8200 H 930.441 -1.52786 -3.86819 0
M  V30 8201 H 929.018 0.297361 -3.71712 0
M  V30 8202 N 931.203 1.46865 -0.571711 0
M  V30 8203 C 932.431 2.06818 -0.0583975 0
M  V30 8204 C 932.846 1.42218 1.24175 0
M  V30 8205 O 932.203 0.523655 1.74826 0
M  V30 8206 C 932.254 3.61281 0.125673 0
M  V30 8207 O 931.975 4.23462 -1.123 0
M  V30 8208 C 933.476 4.38137 0.674604 0
M  V30 8209 H 930.696 0.668948 -0.052438 0
M  V30 8210 H 933.24 1.88656 -0.789251 0
M  V30 8211 H 931.395 3.78908 0.806707 0
M  V30 8212 H 931.809 5.16192 -0.929869 0
M  V30 8213 H 933.283 5.46845 0.752626 0
M  V30 8214 H 933.76 4.05419 1.68915 0
M  V30 8215 H 934.366 4.2529 0.0287979 0
M  V30 8216 N 932.681 0.308908 1.54543 0
M  V30 8217 C 933.644 -0.550857 2.22482 0
M  V30 8218 C 934.644 -1.0551 1.21344 0
M  V30 8219 O 935.834 -0.949866 1.46025 0
M  V30 8220 C 932.966 -1.76354 2.9174 0
M  V30 8221 H 934.159 0.0428395 2.99869 0
M  V30 8222 H 931.712 0.059825 1.56185 0
M  V30 8223 H 932.447 -2.39686 2.18451 0
M  V30 8224 H 932.232 -1.40954 3.65889 0
M  V30 8225 H 933.722 -2.37417 3.43545 0
M  V30 8226 N 934.159 -1.57557 0.0367827 0
M  V30 8227 C 935.57 -1.79853 -0.500971 0
M  V30 8228 C 935.921 -0.947749 -1.71791 0
M  V30 8229 O 935.046 -0.160287 -2.15806 0
M  V30 8230 C 935.641 -3.26193 -0.915626 0
M  V30 8231 C 934.2 -3.49457 -1.39845 0
M  V30 8232 C 933.347 -2.74864 -0.366784 0
M  V30 8233 H 936.298 -1.56509 0.262768 0
M  V30 8234 H 936.319 -3.36324 -1.7795 0
M  V30 8235 H 935.831 -3.88089 -0.0297227 0
M  V30 8236 H 933.932 -2.92823 -2.30402 0
M  V30 8237 H 934.045 -4.58172 -1.40054 0
M  V30 8238 H 932.409 -2.4057 -0.836554 0
M  V30 8239 H 933.192 -3.39479 0.510785 0
M  V30 8240 N 935.637 0.236453 -1.55816 0
M  V30 8241 C 937.048 0.80468 -1.68469 0
M  V30 8242 C 937.399 1.85601 -0.636133 0
M  V30 8243 O 936.524 2.15323 0.215622 0
M  V30 8244 C 937.119 1.46634 -3.05424 0
M  V30 8245 C 935.678 1.98214 -3.19981 0
M  V30 8246 C 934.825 0.83695 -2.64368 0
M  V30 8247 H 937.776 0.0120647 -1.58695 0
M  V30 8248 H 937.797 2.33472 -3.00451 0
M  V30 8249 H 937.309 0.700931 -3.81718 0
M  V30 8250 H 935.41 2.77604 -2.4853 0
M  V30 8251 H 935.523 2.17235 -4.2702 0
M  V30 8252 H 933.887 1.24028 -2.22462 0
M  V30 8253 H 934.67 0.084451 -3.43196 0
M  V30 8254 N 937.115 1.49373 0.502552 0
M  V30 8255 C 938.078 1.65413 1.58654 0
M  V30 8256 C 939.078 0.526003 1.51953 0
M  V30 8257 O 940.268 0.792421 1.55133 0
M  V30 8258 C 937.4 1.65005 2.98306 0
M  V30 8259 H 938.593 2.62095 1.45762 0
M  V30 8260 H 936.146 1.38381 0.726672 0
M  V30 8261 H 936.881 0.699014 3.16677 0
M  V30 8262 H 936.666 2.46931 3.04578 0
M  V30 8263 H 938.156 1.79477 3.77065 0
M  V30 8264 N 938.594 -0.753485 1.38421 0
M  V30 8265 C 939.544 -1.85788 1.32162 0
M  V30 8266 C 940.528 -1.59577 0.20588 0
M  V30 8267 O 941.72 -1.71396 0.44186 0
M  V30 8268 C 938.849 -3.23498 1.14909 0
M  V30 8269 C 937.935 -3.556 2.31105 0
M  V30 8270 N 938.326 -3.58759 3.56547 0
M  V30 8271 C 936.624 -3.85866 2.23659 0
M  V30 8272 C 937.325 -3.8813 4.33278 0
M  V30 8273 N 936.301 -4.04966 3.62635 0
M  V30 8274 H 940.103 -1.86509 2.27138 0
M  V30 8275 H 937.617 -0.950843 1.31654 0
M  V30 8276 H 939.614 -4.02531 1.08509 0
M  V30 8277 H 938.274 -3.24029 0.20866 0
M  V30 8278 H 939.285 -3.40517 3.90216 0
M  V30 8279 H 935.962 -3.94112 1.37776 0
M  V30 8280 H 937.352 -3.97197 5.41926 0
M  V30 8281 N 940.072 -1.23292 -0.981677 0
M  V30 8282 C 941.32 -1.06214 -1.71939 0
M  V30 8283 C 941.641 0.401989 -1.90812 0
M  V30 8284 O 940.911 1.28825 -1.47584 0
M  V30 8285 H 939.491 -0.390042 -0.637084 0
M  V30 8286 H 942.153 -1.54988 -1.18173 0
M  V30 8287 H 941.249 -1.54904 -2.70945 0
M  V30 8288 N 941.55 1.18024 -1.04442 0
M  V30 8289 C 942.796 1.88377 -0.751133 0
M  V30 8290 C 943.129 1.80377 0.719571 0
M  V30 8291 O 942.404 1.20662 1.52548 0
M  V30 8292 C 942.687 3.38708 -1.22265 0
M  V30 8293 C 942.54 3.55499 -2.75574 0
M  V30 8294 C 943.859 4.32475 -0.815688 0
M  V30 8295 H 940.978 0.684037 -0.27434 0
M  V30 8296 H 943.62 1.38837 -1.29709 0
M  V30 8297 H 941.77 3.8103 -0.758192 0
M  V30 8298 H 943.442 3.22244 -3.30086 0
M  V30 8299 H 941.685 2.98028 -3.15217 0
M  V30 8300 H 942.356 4.60994 -3.03625 0
M  V30 8301 H 944.832 3.97953 -1.21542 0
M  V30 8302 H 943.708 5.36213 -1.17331 0
M  V30 8303 H 943.969 4.41207 0.280901 0
M  V30 8304 N 943.028 0.824394 1.34319 0
M  V30 8305 C 944.256 0.426194 2.02463 0
M  V30 8306 C 944.671 -0.968298 1.62078 0
M  V30 8307 O 944.028 -1.62689 0.82696 0
M  V30 8308 C 944.079 0.520465 3.57734 0
M  V30 8309 O 943.8 1.86 3.96656 0
M  V30 8310 C 945.301 0.117353 4.43145 0
M  V30 8311 H 942.521 0.170864 0.648881 0
M  V30 8312 H 945.065 1.11296 1.71562 0
M  V30 8313 H 943.22 -0.118233 3.8722 0
M  V30 8314 H 943.634 1.83528 4.91343 0
M  V30 8315 H 945.108 0.234395 5.51502 0
M  V30 8316 H 945.585 -0.939271 4.29039 0
M  V30 8317 H 946.191 0.729908 4.1899 0
M  V30 8318 N 944.506 -1.46559 0.579492 0
M  V30 8319 C 945.731 -2.0729 0.0674595 0
M  V30 8320 C 946.156 -1.4259 -1.22677 0
M  V30 8321 O 945.514 -0.50857 -1.74021 0
M  V30 8322 C 945.562 -3.60492 -0.0882227 0
M  V30 8323 O 944.666 -3.96172 -1.14551 0
M  V30 8324 H 944.007 -0.661159 0.0613536 0
M  V30 8325 H 946.537 -1.88247 0.801519 0
M  V30 8326 H 946.547 -4.06929 -0.295411 0
M  V30 8327 H 945.222 -4.06976 0.856943 0
M  V30 8328 H 943.799 -3.61448 -0.917033 0
M  V30 8329 N 945.984 -0.3171 -1.54377 0
M  V30 8330 C 946.947 0.53905 -2.22771 0
M  V30 8331 C 947.947 1.04865 -1.21901 0
M  V30 8332 O 949.137 0.942108 -1.46526 0
M  V30 8333 C 946.269 1.74804 -2.92671 0
M  V30 8334 H 947.462 -0.0587417 -2.99842 0
M  V30 8335 H 945.015 -0.068107 -1.56152 0
M  V30 8336 H 945.75 2.38524 -2.1972 0
M  V30 8337 H 945.535 1.39011 -3.66631 0
M  V30 8338 H 947.025 2.35592 -3.44799 0
M  V30 8339 N 947.462 1.57535 -0.0451378 0
M  V30 8340 C 948.873 1.80116 0.491426 0
M  V30 8341 C 949.224 0.956846 1.71286 0
M  V30 8342 O 948.349 0.17173 2.15718 0
M  V30 8343 C 948.944 3.26674 0.898315 0
M  V30 8344 C 947.503 3.50194 1.37989 0
M  V30 8345 C 946.65 2.75054 0.352202 0
M  V30 8346 H 949.601 1.56368 -0.271065 0
M  V30 8347 H 949.622 3.37263 1.76164 0
M  V30 8348 H 949.134 3.88099 0.009141 0
M  V30 8349 H 947.235 2.94041 2.28846 0
M  V30 8350 H 947.348 4.58909 1.37622 0
M  V30 8351 H 945.712 2.4101 0.823784 0
M  V30 8352 H 946.495 3.39203 -0.528782 0
M  V30 8353 N 948.94 -0.228186 1.55939 0
M  V30 8354 C 950.217 -0.977492 1.69424 0
M  V30 8355 C 950.597 -2.02674 0.590479 0
M  V30 8356 O 949.945 -2.2491 -0.403467 0
M  V30 8357 C 950.155 -1.59394 3.10475 0
M  V30 8358 C 951.503 -2.08871 3.69673 0
M  V30 8359 O 952.527 -1.693 3.13394 0
M  V30 8360 O 951.386 -2.81584 4.68372 0
M  V30 8361 H 948.48 -0.456185 0.6898 0
M  V30 8362 H 951.026 -0.220492 1.68261 0
M  V30 8363 H 949.798 -0.835971 3.82266 0
M  V30 8364 H 949.421 -2.41665 3.15727 0
M  V30 8365 N 950.418 -1.49637 -0.494624 0
M  V30 8366 C 951.646 -1.63164 -1.2722 0
M  V30 8367 C 952.061 -0.305552 -1.86311 0
M  V30 8368 O 951.418 0.709758 -1.68133 0
M  V30 8369 C 951.469 -2.70524 -2.39789 0
M  V30 8370 O 951.19 -3.97991 -1.83126 0
M  V30 8371 C 952.691 -2.94814 -3.31058 0
M  V30 8372 H 949.911 -0.54912 -0.385627 0
M  V30 8373 H 952.455 -1.95711 -0.593081 0
M  V30 8374 H 950.61 -2.40738 -3.03519 0
M  V30 8375 H 951.024 -4.57179 -2.57075 0
M  V30 8376 H 952.498 -3.73653 -4.06309 0
M  V30 8377 H 952.975 -2.04974 -3.88436 0
M  V30 8378 H 953.581 -3.26042 -2.73088 0
M  V30 8379 N 951.896 0.746133 -1.38819 0
M  V30 8380 C 953.312 1.0502 -1.20179 0
M  V30 8381 C 953.512 2.01423 -0.0556271 0
M  V30 8382 O 952.568 2.45359 0.59625 0
M  V30 8383 C 953.881 1.62315 -2.53129 0
M  V30 8384 C 955.429 1.74449 -2.59878 0
M  V30 8385 C 955.904 2.35155 -3.93022 0
M  V30 8386 N 957.395 2.42577 -3.94602 0
M  V30 8387 C 958.13 2.9046 -4.94389 0
M  V30 8388 N 957.626 3.38322 -6.04574 0
M  V30 8389 N 959.419 2.89568 -4.81775 0
M  V30 8390 H 951.57 0.106551 -2.12133 0
M  V30 8391 H 953.833 0.109897 -0.941609 0
M  V30 8392 H 953.539 0.98946 -3.37495 0
M  V30 8393 H 953.413 2.61276 -2.72057 0
M  V30 8394 H 955.8 2.36943 -1.75903 0
M  V30 8395 H 955.881 0.741721 -2.4481 0
M  V30 8396 H 955.525 1.73292 -4.77422 0
M  V30 8397 H 955.455 3.36088 -4.05404 0
M  V30 8398 H 957.946 2.08735 -3.15021 0
M  V30 8399 H 958.259 3.73336 -6.76639 0
M  V30 8400 H 956.604 3.3636 -6.08184 0
M  V30 8401 H 959.795 2.51492 -3.94803 0
M  V30 8402 H 959.968 3.26571 -5.59692 0
M  V30 8403 N 953.375 1.23811 0.975125 0
M  V30 8404 C 954.786 1.0675 1.53171 0
M  V30 8405 C 955.137 -0.363475 1.92804 0
M  V30 8406 O 954.262 -1.25089 1.76583 0
M  V30 8407 C 954.857 1.93161 2.78342 0
M  V30 8408 C 953.416 1.80346 3.30382 0
M  V30 8409 C 952.563 1.88544 2.03338 0
M  V30 8410 H 955.514 1.37396 0.79423 0
M  V30 8411 H 955.535 1.45951 3.51395 0
M  V30 8412 H 955.047 2.97302 2.49465 0
M  V30 8413 H 953.148 0.790077 3.64127 0
M  V30 8414 H 953.261 2.64026 3.99784 0
M  V30 8415 H 951.625 1.32186 2.17713 0
M  V30 8416 H 952.408 2.94252 1.76836 0
M  V30 8417 N 954.853 -1.17469 1.05066 0
M  V30 8418 C 955.816 -2.19648 0.654793 0
M  V30 8419 C 956.816 -1.58107 -0.293063 0
M  V30 8420 O 958.006 -1.74029 -0.077106 0
M  V30 8421 C 955.138 -3.40878 -0.0384437 0
M  V30 8422 H 956.331 -2.56184 1.55915 0
M  V30 8423 H 953.884 -1.31528 0.844396 0
M  V30 8424 H 954.619 -3.09885 -0.956133 0
M  V30 8425 H 954.404 -3.86792 0.642961 0
M  V30 8426 H 955.894 -4.1651 -0.301568 0
M  V30 8427 N 956.331 -0.831506 -1.3388 0
M  V30 8428 C 957.742 -0.481375 -1.80388 0
M  V30 8429 C 958.093 0.998993 -1.68863 0
M  V30 8430 O 957.218 1.77795 -1.2336 0
M  V30 8431 C 957.813 -0.86699 -3.27519 0
M  V30 8432 C 956.372 -0.569105 -3.72073 0
M  V30 8433 C 955.519 -1.07929 -2.55434 0
M  V30 8434 H 958.47 -1.02089 -1.21505 0
M  V30 8435 H 958.491 -0.174128 -3.80101 0
M  V30 8436 H 958.003 -1.94447 -3.35875 0
M  V30 8437 H 956.104 0.498607 -3.69249 0
M  V30 8438 H 956.217 -1.11918 -4.65845 0
M  V30 8439 H 954.581 -0.500465 -2.49735 0
M  V30 8440 H 955.364 -2.16339 -2.66556 0
M  V30 8441 N 957.809 1.4625 -0.587256 0
M  V30 8442 C 959.057 2.01963 -0.0744273 0
M  V30 8443 C 959.378 1.46065 1.29189 0
M  V30 8444 O 958.648 0.647077 1.84905 0
M  V30 8445 H 957.228 0.746597 -0.0245236 0
M  V30 8446 H 959.89 1.79299 -0.764063 0
M  V30 8447 H 958.986 3.12099 -0.00884894 0
M  V30 8448 N 959.287 0.325282 1.54207 0
M  V30 8449 C 960.512 -0.281418 2.05482 0
M  V30 8450 C 960.937 -1.44869 1.19977 0
M  V30 8451 O 960.295 -1.80088 0.209275 0
M  V30 8452 C 960.343 -0.692029 3.53897 0
M  V30 8453 O 959.447 -1.7942 3.71325 0
M  V30 8454 H 958.788 -0.0504872 0.662078 0
M  V30 8455 H 961.318 0.474191 1.99029 0
M  V30 8456 H 961.328 -0.974219 3.96198 0
M  V30 8457 H 960.003 0.161709 4.15586 0
M  V30 8458 H 958.58 -1.51069 3.40929 0
M  V30 8459 N 960.765 -1.57509 0.0534917 0
M  V30 8460 C 961.993 -1.97098 -0.629298 0
M  V30 8461 C 962.408 -0.931128 -1.64242 0
M  V30 8462 O 961.765 0.0843866 -1.82305 0
M  V30 8463 C 961.816 -3.36767 -1.31415 0
M  V30 8464 O 961.537 -4.36766 -0.341599 0
M  V30 8465 C 963.038 -3.91127 -2.08649 0
M  V30 8466 H 960.258 -0.648611 -0.171886 0
M  V30 8467 H 962.802 -2.04145 0.120479 0
M  V30 8468 H 960.957 -3.30863 -2.01515 0
M  V30 8469 H 961.371 -5.1788 -0.830715 0
M  V30 8470 H 962.845 -4.91129 -2.51985 0
M  V30 8471 H 963.322 -3.26679 -2.9356 0
M  V30 8472 H 963.928 -4.00376 -1.43456 0
M  V30 8473 N 962.243 0.219913 -1.56058 0
M  V30 8474 C 963.206 1.25606 -1.91718 0
M  V30 8475 C 964.206 1.39721 -0.795912 0
M  V30 8476 O 965.396 1.37958 -1.06364 0
M  V30 8477 C 962.528 2.62961 -2.16943 0
M  V30 8478 H 963.721 0.951909 -2.84392 0
M  V30 8479 H 961.274 0.460398 -1.49365 0
M  V30 8480 H 962.009 2.98472 -1.26826 0
M  V30 8481 H 961.794 2.54093 -2.98629 0
M  V30 8482 H 963.284 3.37727 -2.45622 0
M  V30 8483 N 963.721 1.49897 0.486681 0
M  V30 8484 C 965.132 1.53142 1.06792 0
M  V30 8485 C 965.483 0.325856 1.93475 0
M  V30 8486 O 964.608 -0.562893 2.08951 0
M  V30 8487 C 965.203 2.77514 1.94348 0
M  V30 8488 C 963.762 2.83491 2.47609 0
M  V30 8489 C 962.909 2.47239 1.2557 0
M  V30 8490 H 965.86 1.56387 0.269962 0
M  V30 8491 H 965.881 2.58487 2.79221 0
M  V30 8492 H 965.393 3.65239 1.31232 0
M  V30 8493 H 963.494 2.0008 3.14323 0
M  V30 8494 H 963.607 3.86011 2.83782 0
M  V30 8495 H 961.971 1.99332 1.58552 0
M  V30 8496 H 962.754 3.37255 0.641404 0
M  V30 8497 N 965.199 -0.738761 1.39212 0
M  V30 8498 C 966.61 -1.31684 1.32348 0
M  V30 8499 C 966.961 -1.96195 -0.0139041 0
M  V30 8500 O 966.086 -1.96056 -0.916025 0
M  V30 8501 C 966.681 -2.39444 2.39691 0
M  V30 8502 C 965.24 -2.92935 2.36359 0
M  V30 8503 C 964.387 -1.66465 2.21776 0
M  V30 8504 H 967.338 -0.536543 1.49355 0
M  V30 8505 H 967.359 -3.19744 2.06262 0
M  V30 8506 H 966.871 -1.92463 3.37016 0
M  V30 8507 H 964.972 -3.44207 1.42662 0
M  V30 8508 H 965.085 -3.46306 3.31073 0
M  V30 8509 H 963.449 -1.90657 1.68884 0
M  V30 8510 H 964.232 -1.21541 3.21065 0
M  V30 8511 N 966.677 -1.24326 -0.968545 0
M  V30 8512 C 967.64 -1.03591 -2.04454 0
M  V30 8513 C 968.64 0.0064809 -1.60799 0
M  V30 8514 O 969.83 -0.234404 -1.72616 0
M  V30 8515 C 966.962 -0.56992 -3.36102 0
M  V30 8516 H 968.155 -1.99092 -2.24282 0
M  V30 8517 H 965.708 -1.06537 -1.14366 0
M  V30 8518 H 966.443 0.388325 -3.21967 0
M  V30 8519 H 966.228 -1.32227 -3.69132 0
M  V30 8520 H 967.718 -0.445854 -4.15213 0
M  V30 8521 N 968.156 1.1691 -1.05688 0
M  V30 8522 C 969.106 2.19056 -0.632339 0
M  V30 8523 C 970.09 1.574 0.333797 0
M  V30 8524 O 971.282 1.76361 0.150223 0
M  V30 8525 C 968.411 3.43297 -0.0138209 0
M  V30 8526 C 967.497 4.12042 -1.00408 0
M  V30 8527 N 967.888 4.56535 -2.17737 0
M  V30 8528 C 966.186 4.38139 -0.833663 0
M  V30 8529 C 966.887 5.09644 -2.80425 0
M  V30 8530 N 965.863 5.02153 -2.08191 0
M  V30 8531 H 969.665 2.51165 -1.52621 0
M  V30 8532 H 967.179 1.33294 -0.927707 0
M  V30 8533 H 969.176 4.1576 0.308117 0
M  V30 8534 H 967.836 3.12677 0.87538 0
M  V30 8535 H 968.847 4.50463 -2.55546 0
M  V30 8536 H 965.524 4.175 0.00406684 0
M  V30 8537 H 966.914 5.54153 -3.79952 0
M  V30 8538 N 969.634 0.838594 1.33437 0
M  V30 8539 C 970.882 0.433312 1.974 0
M  V30 8540 C 971.203 -1.01078 1.66758 0
M  V30 8541 O 970.473 -1.70406 0.966373 0
M  V30 8542 H 969.053 0.15724 0.730263 0
M  V30 8543 H 971.715 1.07149 1.62804 0
M  V30 8544 H 970.811 0.565144 3.06941 0
M  V30 8545 N 971.112 -1.45937 0.595003 0
M  V30 8546 C 972.358 -2.0262 0.0854317 0
M  V30 8547 C 972.691 -1.46402 -1.27594 0
M  V30 8548 O 971.966 -0.633823 -1.83883 0
M  V30 8549 C 972.249 -3.60085 0.0329075 0
M  V30 8550 C 972.102 -4.26663 1.42405 0
M  V30 8551 C 973.421 -4.35101 -0.661426 0
M  V30 8552 H 970.54 -0.736282 0.0325196 0
M  V30 8553 H 973.182 -1.73938 0.764563 0
M  V30 8554 H 971.332 -3.84652 -0.545439 0
M  V30 8555 H 973.004 -4.13321 2.04851 0
M  V30 8556 H 971.247 -3.85549 1.98833 0
M  V30 8557 H 971.918 -5.35497 1.33965 0
M  V30 8558 H 974.394 -4.15753 -0.169977 0
M  V30 8559 H 973.27 -5.44829 -0.667243 0
M  V30 8560 H 973.531 -4.07053 -1.72513 0
M  V30 8561 N 972.59 -0.333456 -1.54032 0
M  V30 8562 C 973.818 0.267813 -2.05159 0
M  V30 8563 C 974.233 1.4501 -1.20903 0
M  V30 8564 O 973.59 1.80888 -0.241994 0
M  V30 8565 C 973.641 0.69268 -3.54802 0
M  V30 8566 O 973.362 -0.442579 -4.35859 0
M  V30 8567 C 974.863 1.35572 -4.2206 0
M  V30 8568 H 972.083 0.0534924 -0.668864 0
M  V30 8569 H 974.627 -0.482515 -1.98726 0
M  V30 8570 H 972.782 1.39297 -3.6149 0
M  V30 8571 H 973.196 -0.105915 -5.24393 0
M  V30 8572 H 974.67 1.60385 -5.28186 0
M  V30 8573 H 975.147 2.30614 -3.73783 0
M  V30 8574 H 975.753 0.697748 -4.19537 0
M  V30 8575 N 974.068 1.57479 -0.061844 0
M  V30 8576 C 975.293 1.97843 0.622311 0
M  V30 8577 C 975.718 0.939602 1.62951 0
M  V30 8578 O 975.076 -0.095958 1.81046 0
M  V30 8579 C 975.124 3.37262 1.2762 0
M  V30 8580 O 974.228 3.35943 2.39199 0
M  V30 8581 H 973.569 0.644212 0.160896 0
M  V30 8582 H 976.099 2.04165 -0.133409 0
M  V30 8583 H 976.109 3.74226 1.62539 0
M  V30 8584 H 974.784 4.12404 0.538112 0
M  V30 8585 H 973.361 3.10737 2.06148 0
M  V30 8586 N 975.546 -0.211634 1.56173 0
M  V30 8587 C 976.509 -1.24588 1.92381 0
M  V30 8588 C 977.509 -1.39297 0.803311 0
M  V30 8589 O 978.699 -1.37392 1.07094 0
M  V30 8590 C 975.831 -2.61807 2.18335 0
M  V30 8591 H 977.024 -0.936814 2.84893 0
M  V30 8592 H 974.577 -0.452471 1.49607 0
M  V30 8593 H 975.312 -2.97795 1.28407 0
M  V30 8594 H 975.097 -2.52506 2.99972 0
M  V30 8595 H 976.587 -3.3642 2.4741 0
M  V30 8596 N 977.024 -1.50153 -0.478725 0
M  V30 8597 C 978.435 -1.53706 -1.05978 0
M  V30 8598 C 978.786 -0.336112 -1.933 0
M  V30 8599 O 977.911 0.551803 -2.09246 0
M  V30 8600 C 978.506 -2.78541 -1.92874 0
M  V30 8601 C 977.065 -2.848 -2.46102 0
M  V30 8602 C 976.212 -2.47902 -1.24257 0
M  V30 8603 H 979.163 -1.56528 -0.261664 0
M  V30 8604 H 979.184 -2.59964 -2.77847 0
M  V30 8605 H 978.696 -3.6593 -1.29293 0
M  V30 8606 H 976.797 -2.01744 -3.13257 0
M  V30 8607 H 976.91 -3.87511 -2.81731 0
M  V30 8608 H 975.274 -2.0017 -1.57493 0
M  V30 8609 H 976.057 -3.3759 -0.62351 0
M  V30 8610 N 978.502 0.731368 -1.39602 0
M  V30 8611 C 979.779 1.48308 -1.27531 0
M  V30 8612 C 980.159 2.10795 0.113482 0
M  V30 8613 O 979.507 1.98886 1.12501 0
M  V30 8614 C 979.717 2.53156 -2.40235 0
M  V30 8615 C 981.065 3.19436 -2.79725 0
M  V30 8616 O 982.089 2.6347 -2.39712 0
M  V30 8617 O 980.948 4.20714 -3.48801 0
M  V30 8618 H 978.042 0.658753 -0.499973 0
M  V30 8619 H 980.588 0.764884 -1.51485 0
M  V30 8620 H 979.36 2.05387 -3.33064 0
M  V30 8621 H 978.983 3.3253 -2.17966 0
M  V30 8622 N 979.98 1.24838 0.961938 0
M  V30 8623 C 981.208 1.11871 1.74047 0
M  V30 8624 C 981.623 -0.328209 1.85925 0
M  V30 8625 O 980.98 -1.22616 1.35173 0
M  V30 8626 C 981.031 1.75931 3.15801 0
M  V30 8627 O 980.752 3.14967 3.04512 0
M  V30 8628 C 982.253 1.68649 4.09966 0
M  V30 8629 H 979.473 0.390569 0.545616 0
M  V30 8630 H 982.017 1.65058 1.20732 0
M  V30 8631 H 980.172 1.26733 3.66084 0
M  V30 8632 H 980.586 3.46349 3.93882 0
M  V30 8633 H 982.06 2.18144 5.07067 0
M  V30 8634 H 982.537 0.648831 4.34381 0
M  V30 8635 H 983.143 2.17301 3.65596 0
M  V30 8636 N 981.458 -1.16348 1.06306 0
M  V30 8637 C 982.874 -1.38873 0.786543 0
M  V30 8638 C 983.074 -1.91915 -0.614061 0
M  V30 8639 O 982.13 -2.11804 -1.3746 0
M  V30 8640 C 983.443 -2.36936 1.85154 0
M  V30 8641 C 984.991 -2.5062 1.87506 0
M  V30 8642 C 985.466 -3.51965 2.9306 0
M  V30 8643 N 986.957 -3.59492 2.92095 0
M  V30 8644 C 987.692 -4.37699 3.70415 0
M  V30 8645 N 987.188 -5.19327 4.58553 0
M  V30 8646 N 988.981 -4.32683 3.58806 0
M  V30 8647 H 981.132 -0.802542 1.96655 0
M  V30 8648 H 983.395 -0.415304 0.852189 0
M  V30 8649 H 983.101 -2.05056 2.85736 0
M  V30 8650 H 982.975 -3.36585 1.70267 0
M  V30 8651 H 985.362 -2.81804 0.875827 0
M  V30 8652 H 985.443 -1.51006 2.06472 0
M  V30 8653 H 985.087 -3.21518 3.93177 0
M  V30 8654 H 985.017 -4.51309 2.71344 0
M  V30 8655 H 987.508 -3.01222 2.28197 0
M  V30 8656 H 987.821 -5.76216 5.1497 0
M  V30 8657 H 986.166 -5.1867 4.62608 0
M  V30 8658 H 989.357 -3.67971 2.89335 0
M  V30 8659 H 989.53 -4.93386 4.20088 0
M  V30 8660 N 982.937 -0.845659 -1.3299 0
M  V30 8661 C 984.348 -0.50048 -1.79867 0
M  V30 8662 C 984.699 0.981027 -1.69913 0
M  V30 8663 O 983.824 1.76477 -1.25239 0
M  V30 8664 C 984.419 -0.901679 -3.26581 0
M  V30 8665 C 982.978 -0.608536 -3.71448 0
M  V30 8666 C 982.125 -1.10632 -2.54275 0
M  V30 8667 H 985.076 -1.03372 -1.20416 0
M  V30 8668 H 985.097 -0.214433 -3.79895 0
M  V30 8669 H 984.609 -1.97998 -3.33794 0
M  V30 8670 H 982.71 0.459416 -3.69757 0
M  V30 8671 H 982.823 -1.16853 -4.64631 0
M  V30 8672 H 981.187 -0.526925 -2.4919 0
M  V30 8673 H 981.97 -2.19154 -2.64247 0
M  V30 8674 N 984.415 1.45619 -0.602734 0
M  V30 8675 C 985.378 2.28941 0.108962 0
M  V30 8676 C 986.378 1.39501 0.799762 0
M  V30 8677 O 987.568 1.61673 0.648663 0
M  V30 8678 C 984.7 3.204 1.16432 0
M  V30 8679 H 985.893 2.93346 -0.623534 0
M  V30 8680 H 983.446 1.52061 -0.361565 0
M  V30 8681 H 984.181 2.60785 1.92774 0
M  V30 8682 H 983.966 3.86277 0.673248 0
M  V30 8683 H 985.456 3.83063 1.6629 0
M  V30 8684 N 985.893 0.34162 1.53853 0
M  V30 8685 C 987.304 -0.14269 1.86154 0
M  V30 8686 C 987.655 -1.50151 1.2629 0
M  V30 8687 O 986.78 -2.08601 0.575735 0
M  V30 8688 C 987.375 -0.265691 3.37757 0
M  V30 8689 C 985.934 -0.694231 3.69942 0
M  V30 8690 C 985.081 0.173195 2.76759 0
M  V30 8691 H 988.032 0.561284 1.48443 0
M  V30 8692 H 988.053 -1.09352 3.64448 0
M  V30 8693 H 987.565 0.723424 3.81298 0
M  V30 8694 H 985.666 -1.69244 3.31945 0
M  V30 8695 H 985.779 -0.485461 4.76634 0
M  V30 8696 H 984.143 -0.35416 2.52226 0
M  V30 8697 H 984.926 1.15941 3.23129 0
M  V30 8698 N 987.371 -1.57444 0.0701946 0
M  V30 8699 C 988.619 -1.93047 -0.598106 0
M  V30 8700 C 988.94 -0.950841 -1.70247 0
M  V30 8701 O 988.21 0.00127177 -1.959 0
M  V30 8702 H 986.79 -0.712648 -0.223924 0
M  V30 8703 H 989.452 -1.94481 0.127674 0
M  V30 8704 H 988.548 -2.94807 -1.02445 0
M  V30 8705 N 988.849 0.203349 -1.56283 0
M  V30 8706 C 990.074 0.945548 -1.84592 0
M  V30 8707 C 990.499 1.7641 -0.652772 0
M  V30 8708 O 989.857 1.76867 0.398468 0
M  V30 8709 C 989.905 1.82416 -3.11057 0
M  V30 8710 O 989.009 2.92191 -2.9103 0
M  V30 8711 H 988.35 0.266739 -0.608068 0
M  V30 8712 H 990.88 0.211158 -2.03507 0
M  V30 8713 H 990.89 2.23044 -3.41636 0
M  V30 8714 H 989.565 1.22267 -3.97522 0
M  V30 8715 H 988.142 2.55378 -2.71728 0
M  V30 8716 N 990.327 1.50405 0.470755 0
M  V30 8717 C 991.555 1.65168 1.24608 0
M  V30 8718 C 991.97 0.335153 1.85801 0
M  V30 8719 O 991.327 -0.682919 1.69241 0
M  V30 8720 C 991.378 2.74305 2.35455 0
M  V30 8721 O 991.099 4.00854 1.76771 0
M  V30 8722 C 992.6 3.00044 3.26326 0
M  V30 8723 H 989.82 0.555186 0.376842 0
M  V30 8724 H 992.364 1.9663 0.56187 0
M  V30 8725 H 990.519 2.45536 2.99651 0
M  V30 8726 H 990.933 4.61211 2.49769 0
M  V30 8727 H 992.407 3.8007 4.00313 0
M  V30 8728 H 992.884 2.11128 3.85126 0
M  V30 8729 H 993.49 3.30345 2.67866 0
M  V30 8730 N 991.805 -0.723954 1.39988 0
M  V30 8731 C 992.768 -1.81973 1.3935 0
M  V30 8732 C 993.768 -1.58187 0.288702 0
M  V30 8733 O 994.958 -1.65383 0.547181 0
M  V30 8734 C 992.09 -3.19937 1.177 0
M  V30 8735 H 993.283 -1.83939 2.36868 0
M  V30 8736 H 990.836 -0.928742 1.25714 0
M  V30 8737 H 991.571 -3.23625 0.209093 0
M  V30 8738 H 991.356 -3.386 1.97719 0
M  V30 8739 H 992.846 -3.99981 1.20022 0
M  V30 8740 N 993.283 -1.25346 -0.955304 0
M  V30 8741 C 994.694 -1.09173 -1.51453 0
M  V30 8742 C 995.045 0.332755 -1.93358 0
M  V30 8743 O 994.17 1.22264 -1.78551 0
M  V30 8744 C 994.765 -1.97564 -2.75234 0
M  V30 8745 C 993.324 -1.85579 -3.27471 0
M  V30 8746 C 992.471 -1.91755 -2.00313 0
M  V30 8747 H 995.422 -1.38642 -0.772271 0
M  V30 8748 H 995.443 -1.51523 -3.49029 0
M  V30 8749 H 994.955 -3.01233 -2.44704 0
M  V30 8750 H 993.056 -0.847906 -3.62824 0
M  V30 8751 H 993.169 -2.70353 -3.95533 0
M  V30 8752 H 991.533 -1.35633 -2.15582 0
M  V30 8753 H 992.316 -2.97028 -1.72132 0
M  V30 8754 N 994.761 1.15782 -1.06922 0
M  V30 8755 C 996.172 1.68062 -0.813144 0
M  V30 8756 C 996.523 1.84681 0.662374 0
M  V30 8757 O 995.648 1.54696 1.51321 0
M  V30 8758 C 996.243 3.05273 -1.46949 0
M  V30 8759 C 994.802 3.54647 -1.26104 0
M  V30 8760 C 993.949 2.30477 -1.54194 0
M  V30 8761 H 996.9 1.00056 -1.23185 0
M  V30 8762 H 996.921 3.69986 -0.888308 0
M  V30 8763 H 996.433 2.93145 -2.54337 0
M  V30 8764 H 994.534 3.72024 -0.20718 0
M  V30 8765 H 994.647 4.36354 -1.97819 0
M  V30 8766 H 993.011 2.35803 -0.96276 0
M  V30 8767 H 993.794 2.2094 -2.62755 0
M  V30 8768 N 996.239 0.8527 1.3254 0
M  V30 8769 C 997.202 0.300959 2.27215 0
M  V30 8770 C 998.202 -0.538235 1.51525 0
M  V30 8771 O 999.392 -0.350027 1.70647 0
M  V30 8772 C 996.524 -0.574428 3.36025 0
M  V30 8773 H 997.717 1.13655 2.77529 0
M  V30 8774 H 995.27 0.626878 1.43178 0
M  V30 8775 H 996.005 -1.43191 2.90976 0
M  V30 8776 H 995.79 0.0262265 3.92091 0
M  V30 8777 H 997.28 -0.9533 4.06573 0
M  V30 8778 N 997.718 -1.45297 0.610449 0
M  V30 8779 C 998.668 -2.27639 -0.128194 0
M  V30 8780 C 999.652 -1.37485 -0.835861 0
M  V30 8781 O 1000.84 -1.61454 -0.725378 0
M  V30 8782 C 997.973 -3.24413 -1.123 0
M  V30 8783 C 997.059 -4.22055 -0.416029 0
M  V30 8784 N 997.45 -5.02867 0.543921 0
M  V30 8785 C 995.748 -4.41041 -0.663208 0
M  V30 8786 C 996.449 -5.73728 0.959731 0
M  V30 8787 N 995.425 -5.42756 0.302873 0
M  V30 8788 H 999.227 -2.8752 0.609056 0
M  V30 8789 H 996.741 -1.56484 0.434338 0
M  V30 8790 H 998.738 -3.82139 -1.6666 0
M  V30 8791 H 997.398 -2.66092 -1.86078 0
M  V30 8792 H 998.409 -5.09649 0.920799 0
M  V30 8793 H 995.086 -3.93842 -1.38544 0
M  V30 8794 H 996.476 -6.48666 1.75163 0
M  V30 8795 N 999.196 -0.349774 -1.5367 0
M  V30 8796 C 1000.44 0.244343 -2.00617 0
M  V30 8797 C 1000.76 1.50567 -1.23914 0
M  V30 8798 O 1000.03 1.92784 -0.348016 0
M  V30 8799 H 998.615 0.0932792 -0.741153 0
M  V30 8800 H 1001.28 -0.472367 -1.89089 0
M  V30 8801 H 1000.37 0.482433 -3.08349 0
M  V30 8802 N 1000.67 1.57404 -0.0785433 0
M  V30 8803 C 1001.92 1.94031 0.589896 0
M  V30 8804 C 1002.25 0.959297 1.68852 0
M  V30 8805 O 1001.53 -0.0103978 1.94497 0
M  V30 8806 C 1001.81 3.40886 1.16055 0
M  V30 8807 C 1001.66 4.49748 0.0681072 0
M  V30 8808 C 1002.98 3.88699 2.06401 0
M  V30 8809 H 1000.1 0.70556 0.212965 0
M  V30 8810 H 1002.74 1.89439 -0.145886 0
M  V30 8811 H 1000.89 3.4493 1.78761 0
M  V30 8812 H 1002.57 4.57823 -0.565318 0
M  V30 8813 H 1000.81 4.29625 -0.600431 0
M  V30 8814 H 1001.48 5.49658 0.507906 0
M  V30 8815 H 1003.96 3.86703 1.53622 0
M  V30 8816 H 1002.83 4.92052 2.43261 0
M  V30 8817 H 1003.09 3.2703 2.97496 0
M  V30 8818 N 1002.15 -0.195058 1.56388 0
M  V30 8819 C 1003.38 -0.931642 1.84738 0
M  V30 8820 C 1003.79 -1.76849 0.661046 0
M  V30 8821 O 1003.15 -1.78705 -0.370241 0
M  V30 8822 C 1003.2 -1.82777 3.11889 0
M  V30 8823 O 1002.92 -1.02471 4.25948 0
M  V30 8824 C 1004.42 -2.67603 3.53417 0
M  V30 8825 H 1001.64 -0.271821 0.613477 0
M  V30 8826 H 1004.19 -0.202299 2.03497 0
M  V30 8827 H 1002.34 -2.51074 2.95027 0
M  V30 8828 H 1002.76 -1.63539 4.98353 0
M  V30 8829 H 1004.23 -3.26138 4.45352 0
M  V30 8830 H 1004.71 -3.41314 2.76408 0
M  V30 8831 H 1005.31 -2.04678 3.7281 0
M  V30 8832 N 1003.63 -1.50653 -0.462772 0
M  V30 8833 C 1004.85 -1.66103 -1.24196 0
M  V30 8834 C 1005.28 -0.347421 -1.84864 0
M  V30 8835 O 1004.64 0.689673 -1.6767 0
M  V30 8836 C 1004.69 -2.76027 -2.32037 0
M  V30 8837 O 1003.79 -2.37859 -3.36893 0
M  V30 8838 H 1003.13 -0.554672 -0.365014 0
M  V30 8839 H 1005.66 -1.97076 -0.549734 0
M  V30 8840 H 1005.67 -2.99354 -2.77221 0
M  V30 8841 H 1004.35 -3.71361 -1.87253 0
M  V30 8842 H 1002.92 -2.2501 -2.97363 0
M  V30 8843 N 1005.11 0.71652 -1.4037 0
M  V30 8844 C 1006.07 1.81231 -1.40313 0
M  V30 8845 C 1007.07 1.58032 -0.297087 0
M  V30 8846 O 1008.26 1.65091 -0.555944 0
M  V30 8847 C 1005.39 3.19308 -1.19395 0
M  V30 8848 H 1006.59 1.8268 -2.3784 0
M  V30 8849 H 1004.14 0.922062 -1.26205 0
M  V30 8850 H 1004.87 3.2351 -0.226252 0
M  V30 8851 H 1004.66 3.37546 -1.99512 0
M  V30 8852 H 1006.15 3.99339 -1.22141 0
M  V30 8853 N 1006.59 1.25851 0.948643 0
M  V30 8854 C 1008 1.09975 1.50872 0
M  V30 8855 C 1008.35 -0.322497 1.93531 0
M  V30 8856 O 1007.47 -1.21316 1.79197 0
M  V30 8857 C 1008.07 1.99021 2.74182 0
M  V30 8858 C 1006.63 1.87313 3.26483 0
M  V30 8859 C 1005.77 1.92815 1.99293 0
M  V30 8860 H 1008.73 1.3905 0.764908 0
M  V30 8861 H 1008.75 1.53372 3.4822 0
M  V30 8862 H 1008.26 3.02527 2.43103 0
M  V30 8863 H 1006.36 0.867136 3.62369 0
M  V30 8864 H 1006.47 2.72446 3.94094 0
M  V30 8865 H 1004.84 1.36774 2.1486 0
M  V30 8866 H 1005.62 2.97936 1.70554 0
M  V30 8867 N 1008.06 -1.15214 1.07534 0
M  V30 8868 C 1009.34 -1.82155 0.71267 0
M  V30 8869 C 1009.72 -1.95163 -0.804655 0
M  V30 8870 O 1009.07 -1.50451 -1.71979 0
M  V30 8871 C 1009.28 -3.18392 1.42925 0
M  V30 8872 C 1010.63 -3.94005 1.58256 0
M  V30 8873 O 1011.65 -3.27952 1.39018 0
M  V30 8874 O 1010.51 -5.12436 1.89925 0
M  V30 8875 H 1007.6 -0.78709 0.253808 0
M  V30 8876 H 1010.15 -1.22309 1.17638 0
M  V30 8877 H 1008.92 -3.04034 2.46331 0
M  V30 8878 H 1008.55 -3.85925 0.956439 0
M  V30 8879 N 1009.54 -0.859717 -1.32086 0
M  V30 8880 C 1010.77 -0.479724 -2.01262 0
M  V30 8881 C 1011.19 0.924985 -1.64589 0
M  V30 8882 O 1010.54 1.60439 -0.869803 0
M  V30 8883 C 1010.59 -0.615128 -3.56228 0
M  V30 8884 O 1010.31 -1.96451 -3.91585 0
M  V30 8885 C 1011.82 -0.234804 -4.42678 0
M  V30 8886 H 1009.04 -0.188007 -0.644123 0
M  V30 8887 H 1011.58 -1.15805 -1.68551 0
M  V30 8888 H 1009.73 0.0155268 -3.87397 0
M  V30 8889 H 1010.15 -1.96491 -4.86304 0
M  V30 8890 H 1011.62 -0.380534 -5.50687 0
M  V30 8891 H 1012.1 0.825189 -4.31378 0
M  V30 8892 H 1012.71 -0.840739 -4.16907 0
M  V30 8893 N 1011.02 1.44971 -0.618145 0
M  V30 8894 C 1012.44 1.57077 -0.282666 0
M  V30 8895 C 1012.64 1.60782 1.21456 0
M  V30 8896 O 1011.69 1.54382 1.99806 0
M  V30 8897 C 1013.01 2.84858 -0.963148 0
M  V30 8898 C 1014.55 2.9855 -0.940062 0
M  V30 8899 C 1015.03 4.29115 -1.60076 0
M  V30 8900 N 1016.52 4.35899 -1.56674 0
M  V30 8901 C 1017.25 5.35617 -2.04701 0
M  V30 8902 N 1016.75 6.41813 -2.6086 0
M  V30 8903 N 1018.54 5.27042 -1.95406 0
M  V30 8904 H 1010.69 1.4081 -1.59017 0
M  V30 8905 H 1012.96 0.673914 -0.666741 0
M  V30 8906 H 1012.66 2.88059 -2.0178 0
M  V30 8907 H 1012.54 3.73966 -0.492901 0
M  V30 8908 H 1014.92 2.94909 0.10607 0
M  V30 8909 H 1015.01 2.10825 -1.44868 0
M  V30 8910 H 1014.65 4.33514 -2.64627 0
M  V30 8911 H 1014.58 5.15675 -1.06708 0
M  V30 8912 H 1017.07 3.59766 -1.15659 0
M  V30 8913 H 1017.38 7.14166 -2.95273 0
M  V30 8914 H 1015.73 6.42534 -2.64905 0
M  V30 8915 H 1018.92 4.42987 -1.51263 0
M  V30 8916 H 1019.09 6.04604 -2.33147 0
M  V30 8917 N 1012.5 0.357919 1.53482 0
M  V30 8918 C 1013.91 -0.122938 1.86295 0
M  V30 8919 C 1014.26 -1.48803 1.27875 0
M  V30 8920 O 1013.39 -2.07978 0.597828 0
M  V30 8921 C 1013.98 -0.229853 3.38019 0
M  V30 8922 C 1012.54 -0.654955 3.70658 0
M  V30 8923 C 1011.69 0.202539 2.76559 0
M  V30 8924 H 1014.64 0.576997 1.47839 0
M  V30 8925 H 1014.66 -1.05481 3.65587 0
M  V30 8926 H 1014.17 0.763825 3.80509 0
M  V30 8927 H 1012.27 -1.65714 3.33721 0
M  V30 8928 H 1012.38 -0.43488 4.77122 0
M  V30 8929 H 1010.75 -0.327388 2.52587 0
M  V30 8930 H 1011.53 1.19361 3.21882 0
M  V30 8931 N 1013.98 -1.5736 0.0868897 0
M  V30 8932 C 1014.94 -2.12436 -0.860439 0
M  V30 8933 C 1015.94 -1.05175 -1.21634 0
M  V30 8934 O 1017.13 -1.31098 -1.14713 0
M  V30 8935 C 1014.26 -2.63818 -2.159 0
M  V30 8936 H 1015.45 -2.97453 -0.382346 0
M  V30 8937 H 1013.01 -1.55458 -0.162009 0
M  V30 8938 H 1013.74 -1.82298 -2.68212 0
M  V30 8939 H 1013.53 -3.42234 -1.91359 0
M  V30 8940 H 1015.02 -3.06452 -2.83685 0
M  V30 8941 N 1015.45 0.186762 -1.56489 0
M  V30 8942 C 1016.87 0.750675 -1.70944 0
M  V30 8943 C 1017.22 1.83483 -0.694858 0
M  V30 8944 O 1016.34 2.159 0.147009 0
M  V30 8945 C 1016.94 1.36843 -3.09934 0
M  V30 8946 C 1015.5 1.87934 -3.26125 0
M  V30 8947 C 1014.64 0.75242 -2.66897 0
M  V30 8948 H 1017.59 -0.0384292 -1.58653 0
M  V30 8949 H 1017.61 2.23795 -3.07727 0
M  V30 8950 H 1017.13 0.579135 -3.83755 0
M  V30 8951 H 1015.23 2.69556 -2.57235 0
M  V30 8952 H 1015.34 2.0354 -4.33715 0
M  V30 8953 H 1013.7 1.16888 -2.26295 0
M  V30 8954 H 1014.49 -0.0247769 -3.43291 0
M  V30 8955 N 1016.93 1.50896 0.454776 0
M  V30 8956 C 1018.18 1.62378 1.20324 0
M  V30 8957 C 1018.5 0.333883 1.9212 0
M  V30 8958 O 1017.77 -0.649477 1.8482 0
M  V30 8959 H 1016.35 0.598395 0.447139 0
M  V30 8960 H 1019.01 1.87749 0.523102 0
M  V30 8961 H 1018.11 2.44296 1.94232 0
M  V30 8962 N 1018.41 -0.709066 1.40748 0
M  V30 8963 C 1019.64 -1.50313 1.42901 0
M  V30 8964 C 1020.06 -1.88072 0.032213 0
M  V30 8965 O 1019.42 -1.53716 -0.96131 0
M  V30 8966 C 1019.47 -2.75074 2.33166 0
M  V30 8967 O 1018.57 -3.72036 1.7794 0
M  V30 8968 H 1017.91 -0.452934 0.485538 0
M  V30 8969 H 1020.44 -0.872712 1.85054 0
M  V30 8970 H 1020.45 -3.23532 2.48578 0
M  V30 8971 H 1019.13 -2.46927 3.34664 0
M  V30 8972 H 1017.7 -3.30911 1.71908 0
M  V30 8973 N 1019.89 -1.26353 -0.941956 0
M  V30 8974 C 1021.12 -1.14626 -1.72245 0
M  V30 8975 C 1021.53 0.298588 -1.86424 0
M  V30 8976 O 1020.89 1.2045 -1.37106 0
M  V30 8977 C 1020.94 -1.80933 -3.12963 0
M  V30 8978 O 1020.66 -3.19771 -2.99463 0
M  V30 8979 C 1022.16 -1.7515 -4.07231 0
M  V30 8980 H 1019.38 -0.3992 -0.539333 0
M  V30 8981 H 1021.93 -1.66958 -1.1809 0
M  V30 8982 H 1020.08 -1.32541 -3.64021 0
M  V30 8983 H 1020.5 -3.52571 -3.88322 0
M  V30 8984 H 1021.97 -2.26183 -5.03533 0
M  V30 8985 H 1022.45 -0.717855 -4.33294 0
M  V30 8986 H 1023.05 -2.2309 -3.62093 0
M  V30 8987 N 1021.37 1.14642 -1.08144 0
M  V30 8988 C 1022.33 2.17834 -0.712799 0
M  V30 8989 C 1023.33 1.58828 0.251041 0
M  V30 8990 O 1024.52 1.74173 0.0309381 0
M  V30 8991 C 1021.65 3.4086 -0.0519477 0
M  V30 8992 H 1022.85 2.51961 -1.62653 0
M  V30 8993 H 1020.4 1.29243 -0.878971 0
M  V30 8994 H 1021.13 3.12311 0.873636 0
M  V30 8995 H 1020.92 3.84952 -0.745286 0
M  V30 8996 H 1022.41 4.17163 0.191031 0
M  V30 8997 N 1022.85 0.866709 1.31628 0
M  V30 8998 C 1024.26 0.529032 1.79048 0
M  V30 8999 C 1024.61 -0.953871 1.71452 0
M  V30 9000 O 1023.73 -1.74462 1.28031 0
M  V30 9001 C 1024.33 0.953522 3.25105 0
M  V30 9002 C 1022.89 0.667554 3.70433 0
M  V30 9003 C 1022.03 1.14664 2.52483 0
M  V30 9004 H 1024.98 1.05275 1.18756 0
M  V30 9005 H 1025.01 0.274844 3.79506 0
M  V30 9006 H 1024.52 2.03283 3.30602 0
M  V30 9007 H 1022.62 -0.400532 3.70441 0
M  V30 9008 H 1022.73 1.2423 4.62714 0
M  V30 9009 H 1021.1 0.566502 2.4832 0
M  V30 9010 H 1021.88 2.2333 2.60727 0
M  V30 9011 N 1024.32 -1.44642 0.625825 0
M  V30 9012 C 1025.73 -1.85502 0.211175 0
M  V30 9013 C 1026.09 -1.52356 -1.2362 0
M  V30 9014 O 1025.21 -0.959051 -1.93988 0
M  V30 9015 C 1025.81 -3.36702 0.37648 0
M  V30 9016 C 1024.36 -3.76396 0.0163795 0
M  V30 9017 C 1023.51 -2.68517 0.692368 0
M  V30 9018 H 1026.46 -1.35183 0.831333 0
M  V30 9019 H 1026.48 -3.78536 -0.386106 0
M  V30 9020 H 1026 -3.60795 1.42999 0
M  V30 9021 H 1024.1 -3.57919 -1.0356 0
M  V30 9022 H 1024.21 -4.77231 0.422742 0
M  V30 9023 H 1022.57 -2.54377 0.128191 0
M  V30 9024 H 1023.36 -2.95444 1.74837 0
M  V30 9025 N 1025.8 -0.366053 -1.5329 0
M  V30 9026 C 1026.76 0.467904 -2.24373 0
M  V30 9027 C 1027.76 1.00934 -1.25176 0
M  V30 9028 O 1028.95 0.895015 -1.49449 0
M  V30 9029 C 1026.09 1.65405 -2.98084 0
M  V30 9030 H 1027.28 -0.154105 -2.99504 0
M  V30 9031 H 1024.83 -0.117751 -1.55856 0
M  V30 9032 H 1025.57 2.31413 -2.27197 0
M  V30 9033 H 1025.35 1.27277 -3.70868 0
M  V30 9034 H 1026.84 2.24503 -3.52119 0
M  V30 9035 N 1027.28 1.57312 -0.0952337 0
M  V30 9036 C 1028.23 2.10571 0.87428 0
M  V30 9037 C 1029.21 1.02079 1.24374 0
M  V30 9038 O 1030.41 1.28353 1.2188 0
M  V30 9039 C 1027.53 2.68972 2.13329 0
M  V30 9040 C 1026.62 3.84508 1.78926 0
M  V30 9041 N 1027.01 4.92534 1.15082 0
M  V30 9042 C 1025.31 3.94245 2.08535 0
M  V30 9043 C 1026.01 5.73163 0.992937 0
M  V30 9044 N 1024.99 5.22198 1.51029 0
M  V30 9045 H 1028.79 2.91476 0.376727 0
M  V30 9046 H 1026.3 1.62041 0.107974 0
M  V30 9047 H 1028.3 3.05457 2.83728 0
M  V30 9048 H 1026.96 1.89523 2.6365 0
M  V30 9049 H 1027.97 5.11405 0.817621 0
M  V30 9050 H 1024.65 3.25805 2.61069 0
M  V30 9051 H 1026.04 6.70084 0.493641 0
M  V30 9052 N 1028.76 -0.17846 1.56586 0
M  V30 9053 C 1030.01 -0.894464 1.81228 0
M  V30 9054 C 1030.33 -1.83089 0.671062 0
M  V30 9055 O 1029.6 -1.93439 -0.309557 0
M  V30 9056 H 1028.18 -0.333288 0.668527 0
M  V30 9057 H 1030.84 -0.179986 1.94067 0
M  V30 9058 H 1029.93 -1.47565 2.75011 0
M  V30 9059 N 1030.24 -1.51135 -0.446768 0
M  V30 9060 C 1031.48 -1.63578 -1.19875 0
M  V30 9061 C 1031.81 -0.346478 -1.91084 0
M  V30 9062 O 1031.09 0.653447 -1.83195 0
M  V30 9063 C 1031.37 -2.83275 -2.22323 0
M  V30 9064 C 1031.23 -4.22155 -1.55259 0
M  V30 9065 C 1032.54 -2.98496 -3.23401 0
M  V30 9066 H 1029.66 -0.595333 -0.434452 0
M  V30 9067 H 1032.31 -1.83593 -0.48923 0
M  V30 9068 H 1030.46 -2.6634 -2.82834 0
M  V30 9069 H 1032.13 -4.50736 -0.981571 0
M  V30 9070 H 1030.37 -4.25288 -0.855122 0
M  V30 9071 H 1031.04 -5.01882 -2.29823 0
M  V30 9072 H 1033.52 -3.14079 -2.72935 0
M  V30 9073 H 1032.39 -3.83828 -3.92386 0
M  V30 9074 H 1032.65 -2.10157 -3.88956 0
M  V30 9075 N 1031.71 0.701592 -1.41122 0
M  V30 9076 C 1032.94 1.49049 -1.43499 0
M  V30 9077 C 1033.36 1.88761 -0.0385684 0
M  V30 9078 O 1032.71 1.56384 0.940755 0
M  V30 9079 C 1032.76 2.7569 -2.33832 0
M  V30 9080 O 1032.49 2.37653 -3.68039 0
M  V30 9081 C 1033.99 3.69479 -2.44949 0
M  V30 9082 H 1031.21 0.459519 -0.488961 0
M  V30 9083 H 1033.75 0.864318 -1.85337 0
M  V30 9084 H 1031.91 3.34559 -1.95318 0
M  V30 9085 H 1032.32 3.19241 -4.16156 0
M  V30 9086 H 1033.79 4.55139 -3.12334 0
M  V30 9087 H 1034.27 4.13553 -1.47887 0
M  V30 9088 H 1034.88 3.16517 -2.84072 0
M  V30 9089 N 1033.19 1.2685 0.935242 0
M  V30 9090 C 1034.42 1.15645 1.72165 0
M  V30 9091 C 1034.84 -0.283909 1.85945 0
M  V30 9092 O 1034.2 -1.20567 1.354 0
M  V30 9093 C 1034.25 1.83689 3.10307 0
M  V30 9094 O 1033.35 1.12972 3.96625 0
M  V30 9095 H 1032.69 0.402629 0.528002 0
M  V30 9096 H 1035.22 1.67781 1.17093 0
M  V30 9097 H 1035.23 1.90749 3.60664 0
M  V30 9098 H 1033.91 2.88472 2.99595 0
M  V30 9099 H 1032.48 1.13929 3.5507 0
M  V30 9100 N 1034.67 -1.14067 1.0875 0
M  V30 9101 C 1035.63 -2.17453 0.724341 0
M  V30 9102 C 1036.63 -1.58959 -0.242614 0
M  V30 9103 O 1037.82 -1.74186 -0.0217008 0
M  V30 9104 C 1034.96 -3.40828 0.0700236 0
M  V30 9105 H 1036.15 -2.51094 1.63987 0
M  V30 9106 H 1033.7 -1.28775 0.885813 0
M  V30 9107 H 1034.44 -3.1277 -0.857061 0
M  V30 9108 H 1034.22 -3.84551 0.76569 0
M  V30 9109 H 1035.71 -4.17258 -0.168905 0
M  V30 9110 N 1036.15 -0.873678 -1.31166 0
M  V30 9111 C 1037.56 -0.53852 -1.78765 0
M  V30 9112 C 1037.91 0.944765 -1.71955 0
M  V30 9113 O 1037.04 1.73781 -1.28954 0
M  V30 9114 C 1037.63 -0.970749 -3.24595 0
M  V30 9115 C 1036.19 -0.687189 -3.70074 0
M  V30 9116 C 1035.34 -1.16001 -2.51871 0
M  V30 9117 H 1038.29 -1.05903 -1.18196 0
M  V30 9118 H 1038.31 -0.294966 -3.79355 0
M  V30 9119 H 1037.82 -2.05034 -3.29519 0
M  V30 9120 H 1035.92 0.380881 -3.70648 0
M  V30 9121 H 1036.03 -1.26682 -4.62048 0
M  V30 9122 H 1034.4 -0.579663 -2.48016 0
M  V30 9123 H 1035.18 -2.2471 -2.59539 0
M  V30 9124 N 1037.63 1.44308 -0.633487 0
M  V30 9125 C 1038.9 1.95476 -0.0697262 0
M  V30 9126 C 1039.28 1.57539 1.40516 0
M  V30 9127 O 1038.63 0.850632 2.12077 0
M  V30 9128 C 1038.84 3.4775 -0.295093 0
M  V30 9129 C 1040.19 4.24177 -0.189542 0
M  V30 9130 O 1041.21 3.55479 -0.226586 0
M  V30 9131 O 1040.07 5.46415 -0.096479 0
M  V30 9132 H 1037.17 0.826734 0.0209582 0
M  V30 9133 H 1039.71 1.54347 -0.705354 0
M  V30 9134 H 1038.48 3.6842 -1.31841 0
M  V30 9135 H 1038.11 3.95832 0.37456 0
M  V30 9136 N 1039.1 0.374177 1.53094 0
M  V30 9137 C 1040.33 -0.213325 2.05797 0
M  V30 9138 C 1040.75 -1.41753 1.24706 0
M  V30 9139 O 1040.1 -1.80183 0.289868 0
M  V30 9140 C 1040.16 -0.598367 3.56513 0
M  V30 9141 O 1039.88 0.557983 4.34532 0
M  V30 9142 C 1041.38 -1.24334 4.25507 0
M  V30 9143 H 1038.6 -0.0357398 0.670048 0
M  V30 9144 H 1041.14 0.535035 1.97377 0
M  V30 9145 H 1039.3 -1.29663 3.65056 0
M  V30 9146 H 1039.71 0.244911 5.23928 0
M  V30 9147 H 1041.18 -1.46325 5.32253 0
M  V30 9148 H 1041.66 -2.20622 3.79766 0
M  V30 9149 H 1042.27 -0.586269 4.2124 0
M  V30 9150 N 1040.58 -1.57259 0.103575 0
M  V30 9151 C 1042 -1.57581 -0.253062 0
M  V30 9152 C 1042.2 -1.11531 -1.67819 0
M  V30 9153 O 1041.25 -0.795632 -2.39637 0
M  V30 9154 C 1042.57 -3.00681 -0.0337753 0
M  V30 9155 C 1044.12 -3.12837 -0.10087 0
M  V30 9156 C 1044.59 -4.57911 0.0905295 0
M  V30 9157 N 1046.08 -4.63186 0.0359789 0
M  V30 9158 C 1046.82 -5.73179 0.159199 0
M  V30 9159 N 1046.31 -6.91976 0.337728 0
M  V30 9160 N 1048.11 -5.62011 0.0998662 0
M  V30 9161 H 1040.26 -1.85499 1.0346 0
M  V30 9162 H 1042.52 -0.856584 0.406163 0
M  V30 9163 H 1042.23 -3.38602 0.950858 0
M  V30 9164 H 1042.1 -3.69207 -0.772406 0
M  V30 9165 H 1044.49 -2.74783 -1.07601 0
M  V30 9166 H 1044.57 -2.46886 0.66939 0
M  V30 9167 H 1044.21 -4.9666 1.06258 0
M  V30 9168 H 1044.14 -5.21933 -0.699528 0
M  V30 9169 H 1046.63 -3.7777 -0.099121 0
M  V30 9170 H 1046.95 -7.71641 0.423032 0
M  V30 9171 H 1045.29 -6.93996 0.373504 0
M  V30 9172 H 1048.48 -4.68084 -0.0385356 0
M  V30 9173 H 1048.65 -6.47693 0.199342 0
M  V30 9174 N 1042.06 0.170153 -1.56679 0
M  V30 9175 C 1043.47 0.732502 -1.7173 0
M  V30 9176 C 1043.82 1.82736 -0.71428 0
M  V30 9177 O 1042.95 2.16044 0.124102 0
M  V30 9178 C 1043.54 1.33548 -3.11368 0
M  V30 9179 C 1042.1 1.84464 -3.281 0
M  V30 9180 C 1041.25 0.724069 -2.6768 0
M  V30 9181 H 1044.2 -0.0552543 -1.58604 0
M  V30 9182 H 1044.22 2.20519 -3.10083 0
M  V30 9183 H 1043.73 0.5384 -3.84347 0
M  V30 9184 H 1041.83 2.66813 -2.6008 0
M  V30 9185 H 1041.95 1.98928 -4.35849 0
M  V30 9186 H 1040.31 1.14481 -2.27522 0
M  V30 9187 H 1041.09 -0.0611861 -3.43245 0
M  V30 9188 N 1043.54 1.5137 0.438746 0
M  V30 9189 C 1044.5 1.71993 1.51496 0
M  V30 9190 C 1045.5 0.589978 1.49586 0
M  V30 9191 O 1046.69 0.857505 1.51633 0
M  V30 9192 C 1043.82 1.77508 2.91039 0
M  V30 9193 H 1045.02 2.68041 1.34514 0
M  V30 9194 H 1042.57 1.41338 0.667326 0
M  V30 9195 H 1043.3 0.832698 3.13427 0
M  V30 9196 H 1043.09 2.59627 2.9383 0
M  V30 9197 H 1044.58 1.95308 3.69113 0
M  V30 9198 N 1045.02 -0.694098 1.41492 0
M  V30 9199 C 1046.43 -1.27407 1.36471 0
M  V30 9200 C 1046.78 -1.9614 0.0485209 0
M  V30 9201 O 1045.9 -1.98871 -0.853188 0
M  V30 9202 C 1046.5 -2.31698 2.47188 0
M  V30 9203 C 1045.06 -2.85268 2.45559 0
M  V30 9204 C 1044.2 -1.59325 2.2696 0
M  V30 9205 H 1047.16 -0.488756 1.50986 0
M  V30 9206 H 1047.18 -3.1302 2.1633 0
M  V30 9207 H 1046.69 -1.81644 3.42968 0
M  V30 9208 H 1044.79 -3.39494 1.5354 0
M  V30 9209 H 1044.9 -3.35598 3.41922 0
M  V30 9210 H 1043.27 -1.85188 1.74864 0
M  V30 9211 H 1044.05 -1.11265 3.24769 0
M  V30 9212 N 1046.49 -1.27344 -0.928501 0
M  V30 9213 C 1047.74 -1.13411 -1.67279 0
M  V30 9214 C 1048.06 0.320698 -1.92345 0
M  V30 9215 O 1047.33 1.2245 -1.52915 0
M  V30 9216 H 1045.91 -0.416712 -0.619968 0
M  V30 9217 H 1048.58 -1.5986 -1.11493 0
M  V30 9218 H 1047.67 -1.66256 -2.64131 0
M  V30 9219 N 1047.97 1.13488 -1.09353 0
M  V30 9220 C 1049.2 1.89133 -0.85108 0
M  V30 9221 C 1049.62 1.78542 0.591976 0
M  V30 9222 O 1048.98 1.13243 1.41583 0
M  V30 9223 C 1049.03 3.36736 -1.29001 0
M  V30 9224 O 1048.13 4.09959 -0.447993 0
M  V30 9225 H 1047.47 0.58809 -0.308296 0
M  V30 9226 H 1050 1.43593 -1.45747 0
M  V30 9227 H 1050.01 3.87564 -1.27508 0
M  V30 9228 H 1048.69 3.43762 -2.34095 0
M  V30 9229 H 1047.27 3.69155 -0.52717 0
M  V30 9230 N 1049.45 0.880621 1.30701 0
M  V30 9231 C 1050.68 0.511682 2.00473 0
M  V30 9232 C 1051.09 -0.898684 1.6604 0
M  V30 9233 O 1050.45 -1.59035 0.895218 0
M  V30 9234 C 1050.5 0.671723 3.55204 0
M  V30 9235 O 1050.22 2.02656 3.8841 0
M  V30 9236 C 1051.72 0.3052 4.42248 0
M  V30 9237 H 1048.94 0.198231 0.64105 0
M  V30 9238 H 1051.49 1.18472 1.66687 0
M  V30 9239 H 1049.64 0.0461066 3.87373 0
M  V30 9240 H 1050.06 2.04202 4.83117 0
M  V30 9241 H 1051.53 0.468095 5.50012 0
M  V30 9242 H 1052.01 -0.756456 4.32637 0
M  V30 9243 H 1052.61 0.906959 4.15517 0
M  V30 9244 N 1050.93 -1.4397 0.641131 0
M  V30 9245 C 1051.89 -2.29149 -0.0482243 0
M  V30 9246 C 1052.89 -1.41572 -0.762495 0
M  V30 9247 O 1054.08 -1.63335 -0.605571 0
M  V30 9248 C 1051.21 -3.23375 -1.07896 0
M  V30 9249 H 1052.41 -2.9159 0.70109 0
M  V30 9250 H 1049.96 -1.51048 0.401754 0
M  V30 9251 H 1050.7 -2.65804 -1.85792 0
M  V30 9252 H 1050.48 -3.87926 -0.570597 0
M  V30 9253 H 1051.97 -3.87337 -1.56075 0
M  V30 9254 N 1052.41 -0.382291 -1.52893 0
M  V30 9255 C 1053.82 0.0932841 -1.86467 0
M  V30 9256 C 1054.17 1.4675 -1.30226 0
M  V30 9257 O 1053.29 2.07001 -0.63084 0
M  V30 9258 C 1053.89 0.176048 -3.38342 0
M  V30 9259 C 1052.45 0.595904 -3.71653 0
M  V30 9260 C 1051.6 -0.246511 -2.76202 0
M  V30 9261 H 1054.55 -0.600443 -1.46903 0
M  V30 9262 H 1054.57 0.996512 -3.67219 0
M  V30 9263 H 1054.08 -0.824264 -3.79246 0
M  V30 9264 H 1052.18 1.60384 -3.36315 0
M  V30 9265 H 1052.29 0.358919 -4.77754 0
M  V30 9266 H 1050.66 0.287162 -2.53076 0
M  V30 9267 H 1051.44 -1.24467 -3.19942 0
M  V30 9268 N 1053.89 1.57202 -0.111913 0
M  V30 9269 C 1055.3 1.82039 0.414591 0
M  V30 9270 C 1055.65 1.02863 1.67074 0
M  V30 9271 O 1054.77 0.263068 2.14795 0
M  V30 9272 C 1055.37 3.3019 0.758953 0
M  V30 9273 C 1053.93 3.55732 1.23012 0
M  V30 9274 C 1053.07 2.76301 0.235226 0
M  V30 9275 H 1056.02 1.55078 -0.337142 0
M  V30 9276 H 1056.05 3.44431 1.61701 0
M  V30 9277 H 1055.56 3.87788 -0.155473 0
M  V30 9278 H 1053.66 3.03483 2.16169 0
M  V30 9279 H 1053.77 4.64333 1.18034 0
M  V30 9280 H 1052.14 2.44287 0.720822 0
M  V30 9281 H 1052.92 3.36655 -0.672173 0
M  V30 9282 N 1055.36 -0.161842 1.56767 0
M  V30 9283 C 1056.33 -1.18404 1.96247 0
M  V30 9284 C 1057.33 -1.3667 0.84722 0
M  V30 9285 O 1058.52 -1.33915 1.11411 0
M  V30 9286 C 1055.65 -2.54728 2.26553 0
M  V30 9287 H 1056.84 -0.845703 2.87729 0
M  V30 9288 H 1054.39 -0.404645 1.50971 0
M  V30 9289 H 1055.13 -2.93559 1.37816 0
M  V30 9290 H 1054.91 -2.42834 3.07854 0
M  V30 9291 H 1056.4 -3.28378 2.57987 0
M  V30 9292 N 1056.84 -1.516 -0.430713 0
M  V30 9293 C 1057.79 -1.69776 -1.52185 0
M  V30 9294 C 1058.78 -0.551692 -1.51146 0
M  V30 9295 O 1059.97 -0.807883 -1.57487 0
M  V30 9296 C 1057.1 -1.83222 -2.90318 0
M  V30 9297 C 1056.18 -3.03633 -2.96087 0
M  V30 9298 N 1056.57 -4.267 -2.71589 0
M  V30 9299 C 1054.87 -3.03024 -3.2725 0
M  V30 9300 C 1055.57 -5.08011 -2.83372 0
M  V30 9301 N 1054.55 -4.42798 -3.15327 0
M  V30 9302 H 1058.35 -2.62586 -1.32006 0
M  V30 9303 H 1055.86 -1.49338 -0.63812 0
M  V30 9304 H 1057.86 -1.94355 -3.68825 0
M  V30 9305 H 1056.52 -0.915971 -3.11513 0
M  V30 9306 H 1057.53 -4.55535 -2.46391 0
M  V30 9307 H 1054.21 -2.21055 -3.54176 0
M  V30 9308 H 1055.6 -6.15995 -2.68329 0
M  V30 9309 N 1058.32 0.686584 -1.41858 0
M  V30 9310 C 1059.57 1.44379 -1.41418 0
M  V30 9311 C 1059.89 1.94981 -0.0273696 0
M  V30 9312 O 1059.16 1.72296 0.932248 0
M  V30 9313 H 1057.74 0.53574 -0.520568 0
M  V30 9314 H 1060.4 0.812056 -1.77177 0
M  V30 9315 H 1059.5 2.30258 -2.10684 0
M  V30 9316 N 1059.8 1.27835 0.921735 0
M  V30 9317 C 1061.04 1.14692 1.67253 0
M  V30 9318 C 1061.38 -0.305384 1.91784 0
M  V30 9319 O 1060.65 -1.22286 1.51249 0
M  V30 9320 C 1060.93 1.93743 3.03539 0
M  V30 9321 C 1060.79 3.46991 2.86212 0
M  V30 9322 C 1062.11 1.74658 4.03959 0
M  V30 9323 H 1059.23 0.418021 0.606983 0
M  V30 9324 H 1061.87 1.5706 1.06922 0
M  V30 9325 H 1060.02 1.57738 3.55037 0
M  V30 9326 H 1061.69 3.92858 2.41785 0
M  V30 9327 H 1059.93 3.73029 2.21432 0
M  V30 9328 H 1060.6 3.97551 3.82958 0
M  V30 9329 H 1063.08 2.06063 3.61493 0
M  V30 9330 H 1061.96 2.32353 4.97296 0
M  V30 9331 H 1062.22 0.696019 4.36587 0
M  V30 9332 N 1061.28 -1.12907 1.09954 0
M  V30 9333 C 1062.5 -1.88138 0.860905 0
M  V30 9334 C 1062.92 -1.79402 -0.588256 0
M  V30 9335 O 1062.28 -1.16442 -1.40526 0
M  V30 9336 C 1062.33 -3.37537 1.29425 0
M  V30 9337 O 1062.05 -3.46056 2.68658 0
M  V30 9338 C 1063.55 -4.29721 1.08879 0
M  V30 9339 H 1060.77 -0.595437 0.309347 0
M  V30 9340 H 1063.31 -1.42894 1.46292 0
M  V30 9341 H 1061.47 -3.80344 0.736009 0
M  V30 9342 H 1061.88 -4.38969 2.87065 0
M  V30 9343 H 1063.36 -5.32854 1.4412 0
M  V30 9344 H 1063.83 -4.39192 0.0270053 0
M  V30 9345 H 1064.44 -3.9269 1.63325 0
M  V30 9346 N 1062.75 -0.88754 -1.30232 0
M  V30 9347 C 1063.98 -0.521562 -2.00735 0
M  V30 9348 C 1064.4 0.883247 -1.66073 0
M  V30 9349 O 1063.76 1.58581 -0.878731 0
M  V30 9350 C 1063.81 -0.706521 -3.53611 0
M  V30 9351 O 1062.91 0.246447 -4.11663 0
M  V30 9352 H 1062.25 -0.205216 -0.631492 0
M  V30 9353 H 1064.78 -1.19579 -1.66018 0
M  V30 9354 H 1064.79 -0.606501 -4.03467 0
M  V30 9355 H 1063.47 -1.73076 -3.78177 0
M  V30 9356 H 1062.05 0.0999062 -3.72766 0
M  V30 9357 N 1064.23 1.43628 -0.648757 0
M  V30 9358 C 1065.2 2.29172 0.0360713 0
M  V30 9359 C 1066.2 1.41974 0.754976 0
M  V30 9360 O 1067.39 1.63654 0.5969 0
M  V30 9361 C 1064.52 3.23942 1.0618 0
M  V30 9362 H 1065.71 2.91214 -0.716544 0
M  V30 9363 H 1063.26 1.50833 -0.409759 0
M  V30 9364 H 1064 2.66786 1.8438 0
M  V30 9365 H 1063.78 3.88223 0.550016 0
M  V30 9366 H 1065.27 3.8816 1.54019 0
M  V30 9367 N 1065.71 0.390394 1.52688 0
M  V30 9368 C 1067.12 -0.083394 1.86514 0
M  V30 9369 C 1067.47 -1.46057 1.31003 0
M  V30 9370 O 1066.6 -2.06663 0.641809 0
M  V30 9371 C 1067.19 -0.158102 3.38431 0
M  V30 9372 C 1065.75 -0.576186 3.71964 0
M  V30 9373 C 1064.9 0.261156 2.76068 0
M  V30 9374 H 1067.85 0.608226 1.46582 0
M  V30 9375 H 1067.87 -0.977023 3.67742 0
M  V30 9376 H 1067.38 0.844365 3.78803 0
M  V30 9377 H 1065.48 -1.58598 3.37161 0
M  V30 9378 H 1065.6 -0.333577 4.77937 0
M  V30 9379 H 1063.96 -0.273737 2.53225 0
M  V30 9380 H 1064.74 1.26162 3.19277 0
M  V30 9381 N 1067.19 -1.57141 0.120249 0
M  V30 9382 C 1068.47 -1.8677 -0.581075 0
M  V30 9383 C 1068.85 -1.02163 -1.84732 0
M  V30 9384 O 1068.19 -0.100897 -2.28277 0
M  V30 9385 C 1068.4 -3.37923 -0.872316 0
M  V30 9386 C 1069.75 -4.0655 -1.22483 0
M  V30 9387 O 1070.78 -3.42948 -0.962539 0
M  V30 9388 O 1069.63 -5.18821 -1.71717 0
M  V30 9389 H 1066.73 -0.773219 -0.293362 0
M  V30 9390 H 1069.27 -1.68992 0.154846 0
M  V30 9391 H 1068.05 -3.91292 0.0249416 0
M  V30 9392 H 1067.67 -3.61135 -1.66335 0
M  V30 9393 N 1068.67 0.153526 -1.5685 0
M  V30 9394 C 1069.89 0.882335 -1.87143 0
M  V30 9395 C 1070.31 1.75034 -0.707702 0
M  V30 9396 O 1069.67 1.79624 0.32273 0
M  V30 9397 C 1069.72 1.74444 -3.16625 0
M  V30 9398 O 1069.44 0.911419 -4.28515 0
M  V30 9399 C 1070.94 2.58139 -3.60388 0
M  V30 9400 H 1068.16 0.25546 -0.620469 0
M  V30 9401 H 1070.7 0.148275 -2.03962 0
M  V30 9402 H 1068.86 2.43163 -3.0158 0
M  V30 9403 H 1069.27 1.50268 -5.02513 0
M  V30 9404 H 1070.75 3.14215 -4.53842 0
M  V30 9405 H 1071.22 3.33865 -2.85361 0
M  V30 9406 H 1071.83 1.94721 -3.78105 0
M  V30 9407 N 1070.14 1.51827 0.422667 0
M  V30 9408 C 1071.56 1.40328 0.760275 0
M  V30 9409 C 1071.76 0.497119 1.95272 0
M  V30 9410 O 1070.82 -0.0422083 2.52465 0
M  V30 9411 C 1072.13 2.82622 1.02689 0
M  V30 9412 C 1073.68 2.91874 1.13044 0
M  V30 9413 C 1074.15 4.35107 1.4299 0
M  V30 9414 N 1075.64 4.3828 1.49883 0
M  V30 9415 C 1076.38 5.46153 1.74655 0
M  V30 9416 N 1075.87 6.64165 1.9712 0
M  V30 9417 N 1077.67 5.33651 1.76558 0
M  V30 9418 H 1069.82 2.09285 -0.362455 0
M  V30 9419 H 1072.08 0.94273 -0.0998161 0
M  V30 9420 H 1071.79 3.50991 0.223226 0
M  V30 9421 H 1071.66 3.22844 1.95068 0
M  V30 9422 H 1074.05 2.23694 1.92471 0
M  V30 9423 H 1074.13 2.55128 0.185326 0
M  V30 9424 H 1073.77 5.03841 0.640848 0
M  V30 9425 H 1073.7 4.69377 2.38731 0
M  V30 9426 H 1076.19 3.53206 1.34366 0
M  V30 9427 H 1076.51 7.42165 2.15434 0
M  V30 9428 H 1074.85 6.67255 1.94413 0
M  V30 9429 H 1078.04 4.40436 1.58536 0
M  V30 9430 H 1078.22 6.17798 1.95525 0
M  V30 9431 N 1071.62 -0.679052 1.4222 0
M  V30 9432 C 1073.03 -1.25953 1.37815 0
M  V30 9433 C 1073.38 -1.96077 0.0693215 0
M  V30 9434 O 1072.51 -1.99765 -0.832047 0
M  V30 9435 C 1073.1 -2.29063 2.49631 0
M  V30 9436 C 1071.66 -2.82647 2.48571 0
M  V30 9437 C 1070.81 -1.56909 2.28637 0
M  V30 9438 H 1073.76 -0.472714 1.51496 0
M  V30 9439 H 1073.78 -3.10708 2.19638 0
M  V30 9440 H 1073.29 -1.77996 3.44876 0
M  V30 9441 H 1071.4 -3.37846 1.57132 0
M  V30 9442 H 1071.51 -3.31952 3.45463 0
M  V30 9443 H 1069.87 -1.83323 1.76819 0
M  V30 9444 H 1070.66 -1.07814 3.25931 0
M  V30 9445 N 1073.1 -1.28322 -0.914942 0
M  V30 9446 C 1074.06 -1.12169 -1.99877 0
M  V30 9447 C 1075.06 -0.0617252 -1.60681 0
M  V30 9448 O 1076.25 -0.307405 -1.71466 0
M  V30 9449 C 1073.39 -0.711959 -3.33383 0
M  V30 9450 H 1074.58 -2.08425 -2.15636 0
M  V30 9451 H 1072.13 -1.11291 -1.09745 0
M  V30 9452 H 1072.87 0.251418 -3.23324 0
M  V30 9453 H 1072.65 -1.47764 -3.63192 0
M  V30 9454 H 1074.14 -0.621558 -4.12948 0
M  V30 9455 N 1074.58 1.12322 -1.10551 0
M  V30 9456 C 1075.99 1.6539 -0.8662 0
M  V30 9457 C 1076.34 1.86695 0.603284 0
M  V30 9458 O 1075.47 1.59432 1.46323 0
M  V30 9459 C 1076.06 3.00443 -1.56587 0
M  V30 9460 C 1074.62 3.50456 -1.37323 0
M  V30 9461 C 1073.77 2.25454 -1.61449 0
M  V30 9462 H 1076.72 0.960866 -1.26305 0
M  V30 9463 H 1076.74 3.66972 -1.00557 0
M  V30 9464 H 1076.25 2.84905 -2.63535 0
M  V30 9465 H 1074.35 3.71176 -0.325431 0
M  V30 9466 H 1074.46 4.29839 -2.11601 0
M  V30 9467 H 1072.83 2.32621 -1.03729 0
M  V30 9468 H 1073.61 2.12469 -2.69651 0
M  V30 9469 N 1076.06 0.894434 1.2976 0
M  V30 9470 C 1077.3 0.516646 1.95385 0
M  V30 9471 C 1077.63 -0.939141 1.70895 0
M  V30 9472 O 1076.9 -1.66153 1.03778 0
M  V30 9473 H 1075.48 0.188072 0.722937 0
M  V30 9474 H 1078.14 1.13958 1.58113 0
M  V30 9475 H 1077.23 0.694819 3.04267 0
M  V30 9476 N 1077.53 -1.43282 0.656365 0
M  V30 9477 C 1078.76 -2.06641 0.177245 0
M  V30 9478 C 1079.18 -1.48893 -1.14946 0
M  V30 9479 O 1078.54 -0.600099 -1.7108 0
M  V30 9480 C 1078.59 -3.60453 0.10299 0
M  V30 9481 O 1077.69 -4.01687 -0.933895 0
M  V30 9482 H 1077.04 -0.656978 0.096314 0
M  V30 9483 H 1079.57 -1.83733 0.900178 0
M  V30 9484 H 1079.58 -4.07923 -0.079291 0
M  V30 9485 H 1078.25 -4.01861 1.07147 0
M  V30 9486 H 1076.83 -3.65801 -0.724148 0
M  V30 9487 N 1079.01 -0.398486 -1.52479 0
M  V30 9488 C 1080.24 0.180557 -2.06111 0
M  V30 9489 C 1080.66 1.39751 -1.26945 0
M  V30 9490 O 1080.01 1.79699 -0.318497 0
M  V30 9491 C 1080.06 0.541573 -3.5742 0
M  V30 9492 O 1079.79 -0.627043 -4.33589 0
M  V30 9493 C 1081.29 1.17549 -4.27431 0
M  V30 9494 H 1078.51 0.0250754 -0.670531 0
M  V30 9495 H 1081.05 -0.566368 -1.96501 0
M  V30 9496 H 1079.21 1.23839 -3.67073 0
M  V30 9497 H 1079.62 -0.328233 -5.23472 0
M  V30 9498 H 1081.09 1.37839 -5.34513 0
M  V30 9499 H 1081.57 2.14553 -3.83228 0
M  V30 9500 H 1082.18 0.51918 -4.22119 0
M  V30 9501 N 1080.49 1.57075 -0.12858 0
M  V30 9502 C 1081.45 2.14643 0.803813 0
M  V30 9503 C 1082.45 1.08363 1.18803 0
M  V30 9504 O 1083.64 1.34093 1.11197 0
M  V30 9505 C 1080.78 2.6945 2.08829 0
M  V30 9506 H 1081.97 2.98362 0.303347 0
M  V30 9507 H 1079.52 1.55833 0.120735 0
M  V30 9508 H 1080.26 1.89345 2.63285 0
M  V30 9509 H 1080.04 3.47187 1.82218 0
M  V30 9510 H 1081.53 3.13865 2.7546 0
M  V30 9511 N 1081.97 -0.145205 1.5693 0
M  V30 9512 C 1083.38 -0.705089 1.72874 0
M  V30 9513 C 1083.73 -1.81577 0.743261 0
M  V30 9514 O 1082.86 -2.16214 -0.0897153 0
M  V30 9515 C 1083.45 -1.28578 3.13454 0
M  V30 9516 C 1082.01 -1.79221 3.30994 0
M  V30 9517 C 1081.16 -0.681392 2.68798 0
M  V30 9518 H 1084.11 0.0804798 1.58496 0
M  V30 9519 H 1084.13 -2.15558 3.13552 0
M  V30 9520 H 1083.64 -0.477186 3.85155 0
M  V30 9521 H 1081.74 -2.62642 2.64292 0
M  V30 9522 H 1081.86 -1.91969 4.38959 0
M  V30 9523 H 1080.22 -1.10847 2.29314 0
M  V30 9524 H 1081 0.115786 3.43105 0
M  V30 9525 N 1083.45 -1.52049 -0.414609 0
M  V30 9526 C 1084.86 -1.58062 -0.993638 0
M  V30 9527 C 1085.21 -0.417795 -1.917 0
M  V30 9528 O 1084.33 0.462558 -2.11399 0
M  V30 9529 C 1084.93 -2.86471 -1.80886 0
M  V30 9530 C 1083.49 -2.94981 -2.33801 0
M  V30 9531 C 1082.64 -2.52949 -1.13631 0
M  V30 9532 H 1085.59 -1.57497 -0.19504 0
M  V30 9533 H 1085.61 -2.71515 -2.66571 0
M  V30 9534 H 1085.12 -3.71085 -1.13657 0
M  V30 9535 H 1083.22 -2.14849 -3.04419 0
M  V30 9536 H 1083.33 -3.99111 -2.65042 0
M  V30 9537 H 1081.7 -2.0667 -1.48861 0
M  V30 9538 H 1082.48 -3.39931 -0.479765 0
M  V30 9539 N 1084.93 0.6715 -1.42579 0
M  V30 9540 C 1085.89 1.76676 -1.46008 0
M  V30 9541 C 1086.89 1.57007 -0.347213 0
M  V30 9542 O 1088.08 1.63238 -0.608185 0
M  V30 9543 C 1085.21 3.15348 -1.29494 0
M  V30 9544 H 1086.4 1.75021 -2.43531 0
M  V30 9545 H 1083.96 0.881444 -1.29075 0
M  V30 9546 H 1084.69 3.22626 -0.32906 0
M  V30 9547 H 1084.48 3.31028 -2.10149 0
M  V30 9548 H 1085.97 3.95251 -1.34784 0
M  V30 9549 N 1086.4 1.28806 0.908124 0
M  V30 9550 C 1087.35 1.09849 1.99793 0
M  V30 9551 C 1088.34 0.0204321 1.60887 0
M  V30 9552 O 1089.53 0.241204 1.75349 0
M  V30 9553 C 1086.66 0.768263 3.34593 0
M  V30 9554 C 1085.74 1.88544 3.79884 0
M  V30 9555 N 1086.14 3.12784 3.97492 0
M  V30 9556 C 1084.43 1.77657 4.09089 0
M  V30 9557 C 1085.13 3.85615 4.35518 0
M  V30 9558 N 1084.11 3.13501 4.44092 0
M  V30 9559 H 1087.91 2.04108 2.11464 0
M  V30 9560 H 1085.43 1.19807 1.09636 0
M  V30 9561 H 1087.42 0.613521 4.12361 0
M  V30 9562 H 1086.08 -0.166501 3.24273 0
M  V30 9563 H 1087.09 3.48333 3.83255 0
M  V30 9564 H 1083.77 0.913956 4.07373 0
M  V30 9565 H 1085.16 4.92492 4.57057 0
M  V30 9566 N 1087.88 -1.11734 1.11145 0
M  V30 9567 C 1089.13 -1.83043 0.856717 0
M  V30 9568 C 1089.45 -1.84901 -0.619407 0
M  V30 9569 O 1088.72 -1.31738 -1.44989 0
M  V30 9570 H 1087.3 -0.677823 0.31395 0
M  V30 9571 H 1089.96 -1.35262 1.40322 0
M  V30 9572 H 1089.06 -2.87005 1.22616 0
M  V30 9573 N 1089.36 -0.901303 -1.29284 0
M  V30 9574 C 1090.61 -0.528826 -1.95784 0
M  V30 9575 C 1090.94 0.922833 -1.70873 0
M  V30 9576 O 1090.21 1.65448 -1.0226 0
M  V30 9577 C 1090.5 -0.823793 -3.50551 0
M  V30 9578 C 1090.35 -2.32727 -3.84913 0
M  V30 9579 C 1091.67 -0.311382 -4.38997 0
M  V30 9580 H 1088.79 -0.193604 -0.711116 0
M  V30 9581 H 1091.43 -1.12828 -1.52872 0
M  V30 9582 H 1089.58 -0.313612 -3.87232 0
M  V30 9583 H 1091.25 -2.90712 -3.58168 0
M  V30 9584 H 1089.49 -2.78735 -3.32399 0
M  V30 9585 H 1090.17 -2.48423 -4.9294 0
M  V30 9586 H 1092.64 -0.748265 -4.09317 0
M  V30 9587 H 1091.52 -0.546957 -5.46168 0
M  V30 9588 H 1091.78 0.787959 -4.35021 0
M  V30 9589 N 1090.84 1.42931 -0.663954 0
M  V30 9590 C 1092.07 2.06028 -0.189808 0
M  V30 9591 C 1092.48 1.49827 1.14879 0
M  V30 9592 O 1091.84 0.633778 1.71142 0
M  V30 9593 C 1091.89 3.61349 -0.104343 0
M  V30 9594 O 1091.61 4.15463 -1.39004 0
M  V30 9595 C 1093.11 4.4154 0.394599 0
M  V30 9596 H 1090.33 0.664259 -0.0948744 0
M  V30 9597 H 1092.87 1.83255 -0.907632 0
M  V30 9598 H 1091.03 3.83271 0.564103 0
M  V30 9599 H 1091.44 5.09233 -1.25626 0
M  V30 9600 H 1092.92 5.50525 0.403329 0
M  V30 9601 H 1093.39 4.1534 1.4279 0
M  V30 9602 H 1094 4.24612 -0.241729 0
M  V30 9603 N 1092.32 0.406567 1.52266 0
M  V30 9604 C 1093.54 -0.172101 2.06685 0
M  V30 9605 C 1093.97 -1.38306 1.27488 0
M  V30 9606 O 1093.32 -1.78726 0.304441 0
M  V30 9607 C 1093.37 -0.503463 3.57068 0
M  V30 9608 O 1092.48 -1.59485 3.80314 0
M  V30 9609 H 1091.82 -0.0153209 0.663823 0
M  V30 9610 H 1094.35 0.579025 1.96236 0
M  V30 9611 H 1094.36 -0.762833 4.00805 0
M  V30 9612 H 1093.03 0.381775 4.14144 0
M  V30 9613 H 1091.61 -1.32784 3.48458 0
M  V30 9614 N 1093.79 -1.57004 0.136909 0
M  V30 9615 C 1094.76 -2.15066 -0.792419 0
M  V30 9616 C 1095.76 -1.08991 -1.18226 0
M  V30 9617 O 1096.95 -1.34681 -1.10484 0
M  V30 9618 C 1094.08 -2.70554 -2.07397 0
M  V30 9619 H 1095.27 -2.98519 -0.28752 0
M  V30 9620 H 1092.83 -1.55895 -0.112469 0
M  V30 9621 H 1093.56 -1.90739 -2.62277 0
M  V30 9622 H 1093.35 -3.48149 -1.80374 0
M  V30 9623 H 1094.84 -3.15322 -2.73792 0
M  V30 9624 N 1095.27 0.136881 -1.57004 0
M  V30 9625 C 1096.68 0.695911 -1.73245 0
M  V30 9626 C 1097.03 1.8118 -0.75288 0
M  V30 9627 O 1096.16 2.16258 0.0782477 0
M  V30 9628 C 1096.75 1.26914 -3.14131 0
M  V30 9629 C 1095.31 1.77463 -3.31939 0
M  V30 9630 C 1094.46 0.667128 -2.69156 0
M  V30 9631 H 1097.41 -0.0888841 -1.58451 0
M  V30 9632 H 1097.43 2.13892 -3.14691 0
M  V30 9633 H 1096.94 0.456754 -3.85403 0
M  V30 9634 H 1095.05 2.61236 -2.65681 0
M  V30 9635 H 1095.16 1.89638 -4.39971 0
M  V30 9636 H 1093.52 1.09629 -2.29899 0
M  V30 9637 H 1094.31 -0.13398 -3.43038 0
M  V30 9638 N 1096.75 1.52266 0.40654 0
M  V30 9639 C 1098.03 1.57018 1.1664 0
M  V30 9640 C 1098.41 0.352752 2.08132 0
M  V30 9641 O 1097.76 -0.660208 2.18754 0
M  V30 9642 C 1097.97 2.90016 1.94143 0
M  V30 9643 C 1099.31 3.43112 2.50119 0
M  V30 9644 O 1100.34 2.91773 2.0432 0
M  V30 9645 O 1099.2 4.32765 3.33731 0
M  V30 9646 H 1096.29 0.632574 0.532709 0
M  V30 9647 H 1098.84 1.64595 0.413111 0
M  V30 9648 H 1097.61 3.70071 1.27134 0
M  V30 9649 H 1097.23 2.85744 2.76471 0
M  V30 9650 N 1098.23 -0.663929 1.42933 0
M  V30 9651 C 1099.46 -1.45192 1.474 0
M  V30 9652 C 1099.87 -1.88592 0.0886014 0
M  V30 9653 O 1099.23 -1.58824 -0.898962 0
M  V30 9654 C 1099.28 -2.69394 2.41059 0
M  V30 9655 O 1099 -2.27812 3.7421 0
M  V30 9656 C 1100.5 -3.62855 2.54659 0
M  V30 9657 H 1097.72 -0.446394 0.500973 0
M  V30 9658 H 1100.27 -0.814875 1.87563 0
M  V30 9659 H 1098.42 -3.29262 2.0412 0
M  V30 9660 H 1098.83 -3.08095 4.24474 0
M  V30 9661 H 1100.31 -4.46698 3.24291 0
M  V30 9662 H 1100.79 -4.09487 1.58799 0
M  V30 9663 H 1101.39 -3.08874 2.92364 0
M  V30 9664 N 1099.71 -1.29285 -0.901281 0
M  V30 9665 C 1101.12 -1.07263 -1.18182 0
M  V30 9666 C 1101.32 0.177087 -2.0072 0
M  V30 9667 O 1100.38 0.875292 -2.36844 0
M  V30 9668 C 1101.69 -2.32717 -1.9043 0
M  V30 9669 C 1103.24 -2.3802 -2.03262 0
M  V30 9670 C 1103.71 -3.63273 -2.7892 0
M  V30 9671 N 1105.21 -3.63986 -2.86475 0
M  V30 9672 C 1105.94 -4.57585 -3.45549 0
M  V30 9673 N 1105.44 -5.61513 -4.05801 0
M  V30 9674 N 1107.23 -4.45157 -3.43208 0
M  V30 9675 H 1099.38 -2.09487 -0.350536 0
M  V30 9676 H 1101.64 -0.922647 -0.217778 0
M  V30 9677 H 1101.35 -3.23828 -1.37216 0
M  V30 9678 H 1101.22 -2.40102 -2.90913 0
M  V30 9679 H 1103.61 -1.47398 -2.55652 0
M  V30 9680 H 1103.69 -2.3462 -1.01916 0
M  V30 9681 H 1103.34 -4.54246 -2.27206 0
M  V30 9682 H 1103.27 -3.6393 -3.80608 0
M  V30 9683 H 1105.76 -2.8884 -2.43679 0
M  V30 9684 H 1106.07 -6.29058 -4.48894 0
M  V30 9685 H 1104.41 -5.65325 -4.04268 0
M  V30 9686 H 1107.61 -3.63158 -2.95354 0
M  V30 9687 H 1107.78 -5.18286 -3.88952 0
M  V30 9688 N 1101.18 1.11143 -1.11736 0
M  V30 9689 C 1102.6 1.64462 -0.883693 0
M  V30 9690 C 1102.95 1.87324 0.583448 0
M  V30 9691 O 1102.07 1.60975 1.44623 0
M  V30 9692 C 1102.67 2.98765 -1.59764 0
M  V30 9693 C 1101.23 3.4898 -1.41032 0
M  V30 9694 C 1100.37 2.23729 -1.63831 0
M  V30 9695 H 1103.32 0.947415 -1.27317 0
M  V30 9696 H 1103.34 3.65885 -1.04443 0
M  V30 9697 H 1102.86 2.82094 -2.66542 0
M  V30 9698 H 1100.96 3.7081 -0.364781 0
M  V30 9699 H 1101.07 4.27571 -2.16148 0
M  V30 9700 H 1099.43 2.31507 -1.06191 0
M  V30 9701 H 1100.22 2.09597 -2.7189 0
M  V30 9702 N 1102.66 0.908147 1.28804 0
M  V30 9703 C 1103.63 0.397058 2.25735 0
M  V30 9704 C 1104.63 -0.473483 1.53671 0
M  V30 9705 O 1105.82 -0.277335 1.71978 0
M  V30 9706 C 1102.95 -0.431392 3.38159 0
M  V30 9707 H 1104.14 1.25323 2.72459 0
M  V30 9708 H 1101.69 0.687041 1.4039 0
M  V30 9709 H 1102.43 -1.3072 2.96787 0
M  V30 9710 H 1102.21 0.192502 3.91627 0
M  V30 9711 H 1103.7 -0.78 4.10251 0
M  V30 9712 N 1104.14 -1.42577 0.671525 0
M  V30 9713 C 1105.55 -1.84736 0.270084 0
M  V30 9714 C 1105.9 -1.56212 -1.18711 0
M  V30 9715 O 1105.03 -1.02028 -1.90838 0
M  V30 9716 C 1105.62 -3.35334 0.483409 0
M  V30 9717 C 1104.18 -3.76154 0.136119 0
M  V30 9718 C 1103.33 -2.66179 0.777444 0
M  V30 9719 H 1106.28 -1.3247 0.873919 0
M  V30 9720 H 1106.3 -3.79573 -0.265483 0
M  V30 9721 H 1105.81 -3.56063 1.54405 0
M  V30 9722 H 1103.91 -3.61033 -0.921209 0
M  V30 9723 H 1104.03 -4.75645 0.574356 0
M  V30 9724 H 1102.39 -2.53841 0.209055 0
M  V30 9725 H 1103.17 -2.89732 1.84148 0
M  V30 9726 N 1105.62 -0.414636 -1.52048 0
M  V30 9727 C 1106.87 0.159034 -2.01473 0
M  V30 9728 C 1107.19 1.45176 -1.30188 0
M  V30 9729 O 1106.46 1.91134 -0.429469 0
M  V30 9730 H 1105.04 0.0617604 -0.744443 0
M  V30 9731 H 1107.7 -0.552141 -1.86916 0
M  V30 9732 H 1106.8 0.351217 -3.10118 0
M  V30 9733 N 1107.1 1.56929 -0.145233 0
M  V30 9734 C 1108.32 2.00864 0.516564 0
M  V30 9735 C 1108.75 1.02466 1.57741 0
M  V30 9736 O 1108.1 0.000145439 1.813 0
M  V30 9737 C 1108.15 3.43552 1.09563 0
M  V30 9738 O 1107.26 3.4815 2.21055 0
M  V30 9739 H 1106.6 0.651835 0.126521 0
M  V30 9740 H 1109.13 2.0317 -0.241445 0
M  V30 9741 H 1109.14 3.82316 1.42473 0
M  V30 9742 H 1107.81 4.14677 0.318749 0
M  V30 9743 H 1106.39 3.21228 1.89387 0
M  V30 9744 N 1108.58 -0.128553 1.57075 0
M  V30 9745 C 1109.8 -0.85245 1.88523 0
M  V30 9746 C 1110.22 -1.73886 0.735459 0
M  V30 9747 O 1109.58 -1.80114 -0.294113 0
M  V30 9748 C 1109.63 -1.69384 3.19361 0
M  V30 9749 O 1109.35 -0.84313 4.2991 0
M  V30 9750 C 1110.85 -2.52373 3.64449 0
M  V30 9751 H 1108.07 -0.245556 0.624454 0
M  V30 9752 H 1110.61 -0.115807 2.04172 0
M  V30 9753 H 1108.77 -2.38335 3.0541 0
M  V30 9754 H 1109.18 -1.42255 5.0484 0
M  V30 9755 H 1110.66 -3.06955 4.58784 0
M  V30 9756 H 1111.13 -3.29283 2.90636 0
M  V30 9757 H 1111.74 -1.88681 3.81155 0
M  V30 9758 N 1110.05 -1.5248 -0.398459 0
M  V30 9759 C 1111.02 -1.75949 -1.46883 0
M  V30 9760 C 1112.02 -0.629431 -1.47969 0
M  V30 9761 O 1113.21 -0.897407 -1.49306 0
M  V30 9762 C 1110.34 -1.85162 -2.8623 0
M  V30 9763 H 1111.53 -2.71513 -1.2736 0
M  V30 9764 H 1109.08 -1.43058 -0.629619 0
M  V30 9765 H 1109.82 -0.915505 -3.11109 0
M  V30 9766 H 1109.6 -2.67326 -2.86844 0
M  V30 9767 H 1111.09 -2.05025 -3.63805 0
M  V30 9768 N 1111.53 0.65634 -1.43283 0
M  V30 9769 C 1112.94 1.23744 -1.39801 0
M  V30 9770 C 1113.29 1.95942 -0.100507 0
M  V30 9771 O 1112.42 2.01063 0.800161 0
M  V30 9772 C 1113.01 2.25062 -2.53244 0
M  V30 9773 C 1111.57 2.78657 -2.53036 0
M  V30 9774 C 1110.72 1.53251 -2.31105 0
M  V30 9775 H 1113.67 0.448553 -1.52229 0
M  V30 9776 H 1113.69 3.07174 -2.24553 0
M  V30 9777 H 1113.2 1.72487 -3.47664 0
M  V30 9778 H 1111.3 3.35304 -1.62487 0
M  V30 9779 H 1111.42 3.26414 -3.507 0
M  V30 9780 H 1109.78 1.80487 -1.79713 0
M  V30 9781 H 1110.56 1.02615 -3.27605 0
M  V30 9782 N 1113.01 1.29761 0.894412 0
M  V30 9783 C 1114.42 1.16275 1.46072 0
M  V30 9784 C 1114.77 -0.240123 1.94725 0
M  V30 9785 O 1113.9 -1.13606 1.84181 0
M  V30 9786 C 1114.49 2.10471 2.65494 0
M  V30 9787 C 1113.05 2.00992 3.18244 0
M  V30 9788 C 1112.2 2.01094 1.90936 0
M  V30 9789 H 1115.15 1.42169 0.705243 0
M  V30 9790 H 1115.17 1.68003 3.41402 0
M  V30 9791 H 1114.68 3.12566 2.30053 0
M  V30 9792 H 1112.78 1.02005 3.58365 0
M  V30 9793 H 1112.9 2.88916 3.82184 0
M  V30 9794 H 1111.26 1.45764 2.08866 0
M  V30 9795 H 1112.04 3.04902 1.57764 0
M  V30 9796 N 1114.49 -1.10549 1.12324 0
M  V30 9797 C 1115.45 -2.15039 0.793156 0
M  V30 9798 C 1116.45 -1.59651 -0.19192 0
M  V30 9799 O 1117.64 -1.74167 0.0337262 0
M  V30 9800 C 1114.77 -3.40433 0.17842 0
M  V30 9801 H 1115.97 -2.4575 1.71892 0
M  V30 9802 H 1113.52 -1.25892 0.926333 0
M  V30 9803 H 1114.25 -3.15338 -0.757122 0
M  V30 9804 H 1114.04 -3.81921 0.887645 0
M  V30 9805 H 1115.53 -4.17584 -0.0360724 0
M  V30 9806 N 1115.97 -0.914965 -1.28321 0
M  V30 9807 C 1116.92 -0.375436 -2.24888 0
M  V30 9808 C 1117.9 0.51313 -1.52498 0
M  V30 9809 O 1119.09 0.352654 -1.73451 0
M  V30 9810 C 1116.22 0.382266 -3.41165 0
M  V30 9811 C 1115.31 -0.522089 -4.20874 0
M  V30 9812 N 1115.7 -1.63623 -4.78603 0
M  V30 9813 C 1114 -0.322703 -4.44831 0
M  V30 9814 C 1114.7 -2.19766 -5.38589 0
M  V30 9815 N 1113.67 -1.48878 -5.22816 0
M  V30 9816 H 1117.47 -1.2263 -2.67094 0
M  V30 9817 H 1114.99 -0.767759 -1.43106 0
M  V30 9818 H 1116.99 0.785641 -4.0943 0
M  V30 9819 H 1115.65 1.23021 -3.00493 0
M  V30 9820 H 1116.66 -2.01879 -4.76933 0
M  V30 9821 H 1113.33 0.485627 -4.14666 0
M  V30 9822 H 1114.72 -3.13494 -5.94282 0
M  V30 9823 N 1117.44 1.42219 -0.679077 0
M  V30 9824 C 1118.69 2.01081 -0.202718 0
M  V30 9825 C 1119.01 1.53986 1.19639 0
M  V30 9826 O 1118.28 0.763359 1.80415 0
M  V30 9827 H 1116.86 0.743526 -0.0719547 0
M  V30 9828 H 1119.52 1.74077 -0.876544 0
M  V30 9829 H 1118.62 3.11411 -0.207314 0
M  V30 9830 N 1118.92 0.422693 1.51826 0
M  V30 9831 C 1120.17 -0.148861 2.02253 0
M  V30 9832 C 1120.5 -1.43629 1.30707 0
M  V30 9833 O 1119.78 -1.89967 0.417482 0
M  V30 9834 C 1120.06 -0.382672 3.58061 0
M  V30 9835 C 1119.91 0.922386 4.40241 0
M  V30 9836 C 1121.23 -1.1589 4.24567 0
M  V30 9837 H 1118.35 -0.0526279 0.735119 0
M  V30 9838 H 1120.99 0.558821 1.81596 0
M  V30 9839 H 1119.14 -0.985495 3.75793 0
M  V30 9840 H 1120.81 1.55806 4.34191 0
M  V30 9841 H 1119.06 1.53032 4.05911 0
M  V30 9842 H 1119.73 0.713012 5.47376 0
M  V30 9843 H 1122.2 -0.648415 4.11017 0
M  V30 9844 H 1121.08 -1.29125 5.33496 0
M  V30 9845 H 1121.34 -2.18315 3.84436 0
M  V30 9846 N 1120.4 -1.5685 0.153553 0
M  V30 9847 C 1121.63 -2.00701 -0.502678 0
M  V30 9848 C 1122.04 -1.0337 -1.57988 0
M  V30 9849 O 1121.4 -0.0317233 -1.82472 0
M  V30 9850 C 1121.45 -3.44443 -1.09732 0
M  V30 9851 O 1121.17 -4.38054 -0.0631405 0
M  V30 9852 C 1122.67 -4.03605 -1.83352 0
M  V30 9853 H 1119.89 -0.658229 -0.130289 0
M  V30 9854 H 1122.44 -2.02965 0.250063 0
M  V30 9855 H 1120.59 -3.43009 -1.80065 0
M  V30 9856 H 1121.01 -5.22114 -0.499681 0
M  V30 9857 H 1122.48 -5.0616 -2.20241 0
M  V30 9858 H 1122.96 -3.44687 -2.7219 0
M  V30 9859 H 1123.56 -4.08688 -1.17703 0
M  V30 9860 N 1121.88 0.120221 -1.57141 0
M  V30 9861 C 1123.1 0.84637 -1.89344 0
M  V30 9862 C 1123.53 1.72702 -0.745365 0
M  V30 9863 O 1122.89 1.7873 0.304155 0
M  V30 9864 C 1122.93 1.65671 -3.20289 0
M  V30 9865 O 1122.04 2.76353 -3.06109 0
M  V30 9866 H 1121.38 0.234132 -0.621352 0
M  V30 9867 H 1123.91 0.102986 -2.04341 0
M  V30 9868 H 1123.92 2.04621 -3.52979 0
M  V30 9869 H 1122.59 1.01023 -4.03444 0
M  V30 9870 H 1121.17 2.40615 -2.84884 0
M  V30 9871 N 1123.36 1.52689 0.390367 0
M  V30 9872 C 1124.32 1.76726 1.45947 0
M  V30 9873 C 1125.32 0.637269 1.47633 0
M  V30 9874 O 1126.51 0.905312 1.48828 0
M  V30 9875 C 1123.64 1.86678 2.85244 0
M  V30 9876 H 1124.83 2.72185 1.25918 0
M  V30 9877 H 1122.39 1.4339 0.622023 0
M  V30 9878 H 1123.12 0.931991 3.10619 0
M  V30 9879 H 1122.91 2.68843 2.85422 0
M  V30 9880 H 1124.4 2.06952 3.62713 0
M  V30 9881 N 1124.83 -0.648732 1.43629 0
M  V30 9882 C 1126.25 -1.23001 1.40455 0
M  V30 9883 C 1126.6 -1.95886 0.110897 0
M  V30 9884 O 1125.72 -2.01485 -0.789487 0
M  V30 9885 C 1126.32 -2.23716 2.54434 0
M  V30 9886 C 1124.88 -2.77311 2.54511 0
M  V30 9887 C 1124.02 -1.52024 2.31914 0
M  V30 9888 H 1126.97 -0.440473 1.52465 0
M  V30 9889 H 1126.99 -3.05979 2.26179 0
M  V30 9890 H 1126.51 -1.7064 3.48574 0
M  V30 9891 H 1124.61 -3.34437 1.64263 0
M  V30 9892 H 1124.72 -3.2455 3.52426 0
M  V30 9893 H 1123.08 -1.79531 1.80667 0
M  V30 9894 H 1123.87 -1.00876 3.28145 0
M  V30 9895 N 1126.31 -1.30234 -0.887518 0
M  V30 9896 C 1127.59 -1.09572 -1.62029 0
M  V30 9897 C 1127.97 0.355877 -2.08079 0
M  V30 9898 O 1127.32 1.34692 -1.84582 0
M  V30 9899 C 1127.53 -2.0943 -2.79177 0
M  V30 9900 C 1128.88 -2.4101 -3.4957 0
M  V30 9901 O 1129.9 -2.0772 -2.89363 0
M  V30 9902 O 1128.76 -2.97943 -4.5814 0
M  V30 9903 H 1125.85 -0.420648 -0.712028 0
M  V30 9904 H 1128.4 -1.41651 -0.934517 0
M  V30 9905 H 1127.17 -3.07149 -2.42436 0
M  V30 9906 H 1126.79 -1.78154 -3.55453 0
M  V30 9907 N 1127.79 1.09952 -1.12909 0
M  V30 9908 C 1129.02 1.8579 -0.910483 0
M  V30 9909 C 1129.43 1.80898 0.540484 0
M  V30 9910 O 1128.79 1.20126 1.3739 0
M  V30 9911 C 1128.84 3.33987 -1.38329 0
M  V30 9912 O 1128.56 3.38811 -2.77739 0
M  V30 9913 C 1130.06 4.26683 -1.20234 0
M  V30 9914 H 1127.28 0.587026 -0.325025 0
M  V30 9915 H 1129.83 1.38965 -1.5003 0
M  V30 9916 H 1127.98 3.78259 -0.836592 0
M  V30 9917 H 1128.4 4.31204 -2.98603 0
M  V30 9918 H 1129.87 5.28846 -1.58197 0
M  V30 9919 H 1130.35 4.38966 -0.14344 0
M  V30 9920 H 1130.95 3.88221 -1.73679 0
M  V30 9921 N 1129.27 0.921757 1.27833 0
M  V30 9922 C 1130.68 0.621102 1.47019 0
M  V30 9923 C 1130.88 -0.831338 1.83551 0
M  V30 9924 O 1129.94 -1.60974 1.94534 0
M  V30 9925 C 1131.25 1.56588 2.56712 0
M  V30 9926 C 1132.8 1.57346 2.70576 0
M  V30 9927 C 1133.28 2.50505 3.8342 0
M  V30 9928 N 1134.77 2.48678 3.90786 0
M  V30 9929 C 1135.5 3.17454 4.77505 0
M  V30 9930 N 1135 3.95588 5.68755 0
M  V30 9931 N 1136.79 3.06501 4.71183 0
M  V30 9932 H 1128.94 1.86085 1.02403 0
M  V30 9933 H 1131.21 0.798595 0.510833 0
M  V30 9934 H 1130.91 2.60175 2.36647 0
M  V30 9935 H 1130.79 1.30305 3.53978 0
M  V30 9936 H 1133.17 0.544919 2.90025 0
M  V30 9937 H 1133.25 1.87675 1.73815 0
M  V30 9938 H 1132.9 3.53466 3.64725 0
M  V30 9939 H 1132.83 2.17474 4.79596 0
M  V30 9940 H 1135.32 1.91928 3.25534 0
M  V30 9941 H 1135.63 4.45066 6.31772 0
M  V30 9942 H 1133.98 3.99692 5.6857 0
M  V30 9943 H 1137.17 2.44958 3.9889 0
M  V30 9944 H 1137.34 3.60372 5.3855 0
M  V30 9945 N 1130.75 -1.41857 0.686609 0
M  V30 9946 C 1132.16 -1.84439 0.289662 0
M  V30 9947 C 1132.51 -1.57462 -1.17047 0
M  V30 9948 O 1131.63 -1.04046 -1.89745 0
M  V30 9949 C 1132.23 -3.34802 0.518948 0
M  V30 9950 C 1130.79 -3.75988 0.176007 0
M  V30 9951 C 1129.93 -2.65339 0.805632 0
M  V30 9952 H 1132.89 -1.31536 0.88792 0
M  V30 9953 H 1132.91 -3.79833 -0.225209 0
M  V30 9954 H 1132.42 -3.54405 1.58173 0
M  V30 9955 H 1130.52 -3.61989 -0.882865 0
M  V30 9956 H 1130.63 -4.75009 0.624772 0
M  V30 9957 H 1129 -2.53605 0.235966 0
M  V30 9958 H 1129.78 -2.87762 1.8721 0
M  V30 9959 N 1132.22 -0.430739 -1.51599 0
M  V30 9960 C 1133.19 0.372319 -2.26156 0
M  V30 9961 C 1134.19 0.955338 -1.29344 0
M  V30 9962 O 1135.38 0.830823 -1.53111 0
M  V30 9963 C 1132.51 1.52613 -3.04831 0
M  V30 9964 H 1133.7 -0.280996 -2.98581 0
M  V30 9965 H 1131.26 -0.183749 -1.55216 0
M  V30 9966 H 1131.99 2.21569 -2.36807 0
M  V30 9967 H 1131.78 1.11433 -3.75932 0
M  V30 9968 H 1133.27 2.09366 -3.61325 0
M  V30 9969 N 1133.7 1.56767 -0.161869 0
M  V30 9970 C 1135.11 1.83265 0.356466 0
M  V30 9971 C 1135.46 1.08127 1.63716 0
M  V30 9972 O 1134.59 0.33127 2.13849 0
M  V30 9973 C 1135.18 3.32437 0.653521 0
M  V30 9974 C 1133.74 3.59465 1.11633 0
M  V30 9975 C 1132.89 2.76909 0.147204 0
M  V30 9976 H 1135.84 1.53926 -0.386308 0
M  V30 9977 H 1135.86 3.49401 1.50662 0
M  V30 9978 H 1135.37 3.87098 -0.278766 0
M  V30 9979 H 1133.48 3.10206 2.06404 0
M  V30 9980 H 1133.59 4.67853 1.03202 0
M  V30 9981 H 1131.95 2.46457 0.642739 0
M  V30 9982 H 1132.74 3.34346 -0.778938 0
M  V30 9983 N 1135.18 -0.111886 1.57202 0
M  V30 9984 C 1136.43 -0.816794 1.84859 0
M  V30 9985 C 1136.75 -1.80079 0.748113 0
M  V30 9986 O 1136.02 -1.94578 -0.227235 0
M  V30 9987 H 1134.6 -0.304633 0.682061 0
M  V30 9988 H 1137.26 -0.097513 1.94656 0
M  V30 9989 H 1136.36 -1.35768 2.81022 0
M  V30 9990 N 1136.66 -1.52894 -0.382264 0
M  V30 9991 C 1137.88 -1.72453 -1.15216 0
M  V30 9992 C 1138.31 -0.444925 -1.82762 0
M  V30 9993 O 1137.67 0.599825 -1.7109 0
M  V30 9994 C 1137.71 -2.87939 -2.17079 0
M  V30 9995 O 1136.82 -2.55383 -3.23811 0
M  V30 9996 H 1136.16 -0.57324 -0.335099 0
M  V30 9997 H 1138.69 -1.99713 -0.444495 0
M  V30 9998 H 1138.7 -3.13628 -2.60963 0
M  V30 9999 H 1137.37 -3.80765 -1.67305 0
M  V30 10000 H 1135.95 -2.40457 -2.85018 0
M  V30 10001 N 1138.14 0.641106 -1.43971 0
M  V30 10002 C 1139.37 1.42829 -1.49692 0
M  V30 10003 C 1139.78 1.88427 -0.118594 0
M  V30 10004 O 1139.14 1.60234 0.873581 0
M  V30 10005 C 1139.19 2.65524 -2.45314 0
M  V30 10006 O 1138.91 2.2183 -3.77787 0
M  V30 10007 C 1140.41 3.58758 -2.60399 0
M  V30 10008 H 1137.63 0.438367 -0.508011 0
M  V30 10009 H 1140.17 0.784933 -1.88836 0
M  V30 10010 H 1138.33 3.25973 -2.09332 0
M  V30 10011 H 1138.74 3.01303 -4.29321 0
M  V30 10012 H 1140.22 4.41483 -3.31357 0
M  V30 10013 H 1140.69 4.06909 -1.65294 0
M  V30 10014 H 1141.3 3.04184 -2.97241 0
M  V30 10015 N 1139.62 1.30703 0.880598 0
M  V30 10016 C 1140.58 1.17429 1.96832 0
M  V30 10017 C 1141.58 0.104305 1.60461 0
M  V30 10018 O 1142.77 0.352758 1.70591 0
M  V30 10019 C 1139.9 0.800099 3.31378 0
M  V30 10020 H 1141.09 2.14069 2.10034 0
M  V30 10021 H 1138.65 1.14162 1.06755 0
M  V30 10022 H 1139.38 -0.165606 3.23877 0
M  V30 10023 H 1139.17 1.57341 3.59146 0
M  V30 10024 H 1140.66 0.730826 4.11155 0
M  V30 10025 N 1141.09 -1.09351 1.1349 0
M  V30 10026 C 1142.5 -1.63035 0.909746 0
M  V30 10027 C 1142.86 -1.88229 -0.553573 0
M  V30 10028 O 1141.98 -1.63256 -1.42044 0
M  V30 10029 C 1142.58 -2.96186 1.64497 0
M  V30 10030 C 1141.13 -3.46692 1.46566 0
M  V30 10031 C 1140.28 -2.21095 1.67369 0
M  V30 10032 H 1143.23 -0.92704 1.28809 0
M  V30 10033 H 1143.25 -3.64177 1.10251 0
M  V30 10034 H 1142.77 -2.77818 2.70996 0
M  V30 10035 H 1140.87 -3.70183 0.423728 0
M  V30 10036 H 1140.98 -4.24078 2.22923 0
M  V30 10037 H 1139.34 -2.29789 1.0986 0
M  V30 10038 H 1140.13 -2.05245 2.7519 0
M  V30 10039 N 1142.57 -0.928524 -1.27343 0
M  V30 10040 C 1143.98 -0.613856 -1.7632 0
M  V30 10041 C 1144.33 0.870983 -1.75808 0
M  V30 10042 O 1143.46 1.68155 -1.36209 0
M  V30 10043 C 1144.05 -1.10755 -3.20186 0
M  V30 10044 C 1142.61 -0.843532 -3.66826 0
M  V30 10045 C 1141.76 -1.26579 -2.46724 0
M  V30 10046 H 1144.71 -1.10821 -1.13598 0
M  V30 10047 H 1144.73 -0.455598 -3.77763 0
M  V30 10048 H 1144.24 -2.18825 -3.20526 0
M  V30 10049 H 1142.34 0.223334 -3.7193 0
M  V30 10050 H 1142.46 -1.46165 -4.56259 0
M  V30 10051 H 1140.82 -0.684334 -2.45334 0
M  V30 10052 H 1141.6 -2.35516 -2.49774 0
M  V30 10053 N 1144.05 1.41491 -0.694123 0
M  V30 10054 C 1145.01 2.2917 -0.0368562 0
M  V30 10055 C 1146.01 1.44305 0.709426 0
M  V30 10056 O 1147.2 1.6547 0.544533 0
M  V30 10057 C 1144.33 3.27156 0.958201 0
M  V30 10058 H 1145.53 2.88787 -0.808829 0
M  V30 10059 H 1143.08 1.49453 -0.457538 0
M  V30 10060 H 1143.82 2.72516 1.75799 0
M  V30 10061 H 1143.6 3.89776 0.426227 0
M  V30 10062 H 1145.09 3.92863 1.41592 0
M  V30 10063 N 1145.53 0.438773 1.51369 0
M  V30 10064 C 1146.48 -0.389921 2.24641 0
M  V30 10065 C 1147.46 -0.988871 1.26926 0
M  V30 10066 O 1148.65 -0.906774 1.52009 0
M  V30 10067 C 1145.78 -1.48972 3.09293 0
M  V30 10068 C 1144.87 -0.900093 4.14438 0
M  V30 10069 N 1145.26 -0.0397688 5.05784 0
M  V30 10070 C 1143.56 -1.16752 4.30447 0
M  V30 10071 C 1144.26 0.291527 5.80969 0
M  V30 10072 N 1143.23 -0.325219 5.42626 0
M  V30 10073 H 1147.04 0.273335 2.92626 0
M  V30 10074 H 1144.55 0.250934 1.6045 0
M  V30 10075 H 1146.55 -2.09627 3.60364 0
M  V30 10076 H 1145.21 -2.1553 2.42852 0
M  V30 10077 H 1146.22 0.326771 5.16868 0
M  V30 10078 H 1142.9 -1.83049 3.75232 0
M  V30 10079 H 1144.29 0.991699 6.64541 0
M  V30 10080 N 1147.01 -1.56678 0.170181 0
M  V30 10081 C 1148.25 -1.9646 -0.474125 0
M  V30 10082 C 1148.57 -1.05719 -1.63855 0
M  V30 10083 O 1147.84 -0.123316 -1.95511 0
M  V30 10084 H 1146.42 -0.725446 -0.178149 0
M  V30 10085 H 1149.09 -1.93276 0.251099 0
M  V30 10086 H 1148.18 -3.00726 -0.834894 0
M  V30 10087 N 1148.48 0.103547 -1.57259 0
M  V30 10088 C 1149.73 0.809774 -1.85931 0
M  V30 10089 C 1150.06 1.78791 -0.758122 0
M  V30 10090 O 1149.34 1.93079 0.234682 0
M  V30 10091 C 1149.62 1.54601 -3.25224 0
M  V30 10092 C 1149.47 0.586439 -4.45961 0
M  V30 10093 C 1150.79 2.4986 -3.62296 0
M  V30 10094 H 1147.91 0.29293 -0.676285 0
M  V30 10095 H 1150.55 0.0736065 -1.89857 0
M  V30 10096 H 1148.7 2.17355 -3.22008 0
M  V30 10097 H 1150.38 -0.0334441 -4.61288 0
M  V30 10098 H 1148.62 -0.10085 -4.33683 0
M  V30 10099 H 1149.29 1.13855 -5.40131 0
M  V30 10100 H 1151.77 1.97203 -3.66402 0
M  V30 10101 H 1150.64 2.98396 -4.60707 0
M  V30 10102 H 1150.9 3.33233 -2.90531 0
M  V30 10103 N 1149.96 1.53094 0.37415 0
M  V30 10104 C 1151.19 1.72758 1.13852 0
M  V30 10105 C 1151.6 0.452638 1.83294 0
M  V30 10106 O 1150.96 -0.573906 1.73241 0
M  V30 10107 C 1151.01 2.88724 2.17534 0
M  V30 10108 O 1150.73 4.11284 1.5092 0
M  V30 10109 C 1152.23 3.2019 3.06584 0
M  V30 10110 H 1149.45 0.578028 0.340771 0
M  V30 10111 H 1152 1.99805 0.435683 0
M  V30 10112 H 1150.15 2.64096 2.83429 0
M  V30 10113 H 1150.57 4.76162 2.19932 0
M  V30 10114 H 1152.04 4.04759 3.75332 0
M  V30 10115 H 1152.52 2.35193 3.70919 0
M  V30 10116 H 1153.12 3.46712 2.46315 0
M  V30 10117 N 1151.44 -0.633461 1.44309 0
M  V30 10118 C 1152.66 -1.42527 1.50668 0
M  V30 10119 C 1153.09 -1.87637 0.131861 0
M  V30 10120 O 1152.45 -1.58595 -0.878477 0
M  V30 10121 C 1152.5 -2.62328 2.47419 0
M  V30 10122 O 1151.6 -3.62081 1.97411 0
M  V30 10123 H 1150.94 -0.426559 0.508864 0
M  V30 10124 H 1153.47 -0.773392 1.8942 0
M  V30 10125 H 1153.48 -3.09901 2.65378 0
M  V30 10126 H 1152.16 -2.2884 3.47283 0
M  V30 10127 H 1150.73 -3.21333 1.89208 0
M  V30 10128 N 1152.92 -1.31168 -0.873655 0
M  V30 10129 C 1153.88 -1.18471 -1.96207 0
M  V30 10130 C 1154.88 -0.112814 -1.60404 0
M  V30 10131 O 1156.07 -0.3618 -1.70401 0
M  V30 10132 C 1153.2 -0.817662 -3.30949 0
M  V30 10133 H 1154.4 -2.1518 -2.08896 0
M  V30 10134 H 1151.95 -1.14727 -1.06149 0
M  V30 10135 H 1152.68 0.148428 -3.2396 0
M  V30 10136 H 1152.47 -1.59244 -3.58307 0
M  V30 10137 H 1153.96 -0.75262 -4.10762 0
M  V30 10138 N 1154.4 1.08748 -1.14068 0
M  V30 10139 C 1155.81 1.62551 -0.918379 0
M  V30 10140 C 1156.16 1.8852 0.543583 0
M  V30 10141 O 1155.28 1.64007 1.41176 0
M  V30 10142 C 1155.88 2.95309 -1.66066 0
M  V30 10143 C 1154.44 3.4591 -1.48403 0
M  V30 10144 C 1153.58 2.20204 -1.6854 0
M  V30 10145 H 1156.54 0.920196 -1.29298 0
M  V30 10146 H 1156.56 3.63587 -1.12181 0
M  V30 10147 H 1156.07 2.76377 -2.72465 0
M  V30 10148 H 1154.17 3.69953 -0.443353 0
M  V30 10149 H 1154.28 4.2289 -2.25169 0
M  V30 10150 H 1152.65 2.29203 -1.11077 0
M  V30 10151 H 1153.43 2.03783 -2.76274 0
M  V30 10152 N 1155.87 0.935264 1.26849 0
M  V30 10153 C 1157.15 0.497797 1.8916 0
M  V30 10154 C 1157.53 -1.02441 1.84578 0
M  V30 10155 O 1156.88 -1.88185 1.29609 0
M  V30 10156 C 1157.09 1.05244 3.32753 0
M  V30 10157 C 1158.44 1.11751 4.0963 0
M  V30 10158 O 1159.46 1.0026 3.41799 0
M  V30 10159 O 1158.32 1.29548 5.30923 0
M  V30 10160 H 1155.41 0.161322 0.811113 0
M  V30 10161 H 1157.96 1.02744 1.35062 0
M  V30 10162 H 1156.73 2.09617 3.30419 0
M  V30 10163 H 1156.36 0.504889 3.94381 0
M  V30 10164 N 1157.35 -1.41121 0.701616 0
M  V30 10165 C 1158.58 -2.05452 0.244365 0
M  V30 10166 C 1159 -1.5282 -1.10866 0
M  V30 10167 O 1158.35 -0.67893 -1.69401 0
M  V30 10168 C 1158.4 -3.60946 0.200112 0
M  V30 10169 O 1158.12 -4.11632 1.4997 0
M  V30 10170 C 1159.63 -4.42431 -0.277394 0
M  V30 10171 H 1156.85 -0.66151 0.112453 0
M  V30 10172 H 1159.39 -1.80784 0.9559 0
M  V30 10173 H 1157.54 -3.84632 -0.462287 0
M  V30 10174 H 1157.96 -5.05723 1.39084 0
M  V30 10175 H 1159.43 -5.514 -0.257225 0
M  V30 10176 H 1159.91 -4.1898 -1.31728 0
M  V30 10177 H 1160.52 -4.23822 0.354223 0
M  V30 10178 N 1158.83 -0.446794 -1.51134 0
M  V30 10179 C 1160.25 -0.0995905 -1.59289 0
M  V30 10180 C 1160.45 1.39191 -1.45699 0
M  V30 10181 O 1159.5 2.1628 -1.30303 0
M  V30 10182 C 1160.82 -0.628135 -2.94066 0
M  V30 10183 C 1162.36 -0.589409 -3.074 0
M  V30 10184 C 1162.84 -1.09509 -4.44715 0
M  V30 10185 N 1164.33 -1.05347 -4.51061 0
M  V30 10186 C 1165.06 -1.41551 -5.55654 0
M  V30 10187 N 1164.56 -1.85086 -6.67619 0
M  V30 10188 N 1166.35 -1.33307 -5.46064 0
M  V30 10189 H 1158.5 -1.41713 -1.58213 0
M  V30 10190 H 1160.77 -0.584555 -0.746324 0
M  V30 10191 H 1160.47 -1.67205 -3.09411 0
M  V30 10192 H 1160.35 -0.0582398 -3.77155 0
M  V30 10193 H 1162.73 0.445541 -2.91717 0
M  V30 10194 H 1162.82 -1.19582 -2.26128 0
M  V30 10195 H 1162.46 -2.12855 -4.61146 0
M  V30 10196 H 1162.39 -0.465122 -5.24542 0
M  V30 10197 H 1164.88 -0.733877 -3.70706 0
M  V30 10198 H 1165.19 -2.10923 -7.43459 0
M  V30 10199 H 1163.54 -1.8902 -6.68802 0
M  V30 10200 H 1166.73 -0.991547 -4.57478 0
M  V30 10201 H 1166.9 -1.6185 -6.27462 0
M  V30 10202 N 1160.31 1.56586 -0.178487 0
M  V30 10203 C 1161.72 1.83633 0.337009 0
M  V30 10204 C 1162.07 1.09857 1.6256 0
M  V30 10205 O 1161.2 0.353933 2.13486 0
M  V30 10206 C 1161.79 3.33112 0.618225 0
M  V30 10207 C 1160.35 3.60629 1.07814 0
M  V30 10208 C 1159.5 2.7705 0.117825 0
M  V30 10209 H 1162.45 1.53508 -0.402612 0
M  V30 10210 H 1162.47 3.5098 1.46947 0
M  V30 10211 H 1161.98 3.8678 -0.319808 0
M  V30 10212 H 1160.08 3.12378 2.03103 0
M  V30 10213 H 1160.19 4.68921 0.982339 0
M  V30 10214 H 1158.56 2.47125 0.616563 0
M  V30 10215 H 1159.34 3.33501 -0.814356 0
M  V30 10216 N 1161.79 -0.095206 1.57312 0
M  V30 10217 C 1162.75 -1.09974 2.01093 0
M  V30 10218 C 1163.75 -1.32954 0.904424 0
M  V30 10219 O 1164.94 -1.29069 1.16991 0
M  V30 10220 C 1162.07 -2.4489 2.37153 0
M  V30 10221 H 1163.26 -0.722906 2.91057 0
M  V30 10222 H 1160.82 -0.340249 1.52552 0
M  V30 10223 H 1161.55 -2.8745 1.50143 0
M  V30 10224 H 1161.34 -2.29559 3.17876 0
M  V30 10225 H 1162.83 -3.17141 2.71683 0
M  V30 10226 N 1163.26 -1.53291 -0.366026 0
M  V30 10227 C 1164.68 -1.61144 -0.942849 0
M  V30 10228 C 1165.03 -0.478571 -1.90274 0
M  V30 10229 O 1164.15 0.395069 -2.12763 0
M  V30 10230 C 1164.75 -2.92081 -1.71681 0
M  V30 10231 C 1163.31 -3.0227 -2.24298 0
M  V30 10232 C 1162.45 -2.56436 -1.05526 0
M  V30 10233 H 1165.4 -1.58038 -0.144835 0
M  V30 10234 H 1165.42 -2.79858 -2.57798 0
M  V30 10235 H 1164.94 -3.74513 -1.01793 0
M  V30 10236 H 1163.04 -2.24425 -2.97429 0
M  V30 10237 H 1163.15 -4.07341 -2.5221 0
M  V30 10238 H 1161.51 -2.11301 -1.42211 0
M  V30 10239 H 1162.3 -3.41285 -0.371376 0
M  V30 10240 N 1164.74 0.6258 -1.44643 0
M  V30 10241 C 1165.99 1.38251 -1.47414 0
M  V30 10242 C 1166.31 1.94689 -0.110043 0
M  V30 10243 O 1165.58 1.76095 0.858333 0
M  V30 10244 H 1164.16 0.513179 -0.542823 0
M  V30 10245 H 1166.82 0.736179 -1.80462 0
M  V30 10246 H 1165.92 2.21115 -2.2026 0
M  V30 10247 N 1166.22 1.31629 0.866686 0
M  V30 10248 C 1167.45 1.24609 1.65793 0
M  V30 10249 C 1167.87 -0.184944 1.87189 0
M  V30 10250 O 1167.23 -1.1322 1.41601 0
M  V30 10251 C 1167.28 1.9988 3.00134 0
M  V30 10252 O 1166.38 1.33838 3.90079 0
M  V30 10253 H 1165.72 0.430051 0.505917 0
M  V30 10254 H 1168.25 1.73752 1.08035 0
M  V30 10255 H 1168.26 2.09599 3.50046 0
M  V30 10256 H 1166.94 3.03947 2.83882 0
M  V30 10257 H 1165.51 1.3259 3.48532 0
M  V30 10258 N 1167.7 -1.08142 1.14644 0
M  V30 10259 C 1168.93 -1.84318 0.939926 0
M  V30 10260 C 1169.34 -1.81735 -0.511636 0
M  V30 10261 O 1168.7 -1.22297 -1.35461 0
M  V30 10262 C 1168.75 -3.31744 1.43625 0
M  V30 10263 O 1168.47 -3.3435 2.83094 0
M  V30 10264 C 1169.97 -4.24717 1.27007 0
M  V30 10265 H 1167.19 -0.581781 0.334323 0
M  V30 10266 H 1169.74 -1.36561 1.52221 0
M  V30 10267 H 1167.89 -3.7688 0.896664 0
M  V30 10268 H 1168.31 -4.26399 3.05425 0
M  V30 10269 H 1169.78 -5.26262 1.66591 0
M  V30 10270 H 1170.26 -4.38682 0.213257 0
M  V30 10271 H 1170.86 -3.85409 1.79833 0
M  V30 10272 N 1169.18 -0.941978 -1.26351 0
M  V30 10273 C 1170.14 -0.456768 -2.24602 0
M  V30 10274 C 1171.14 0.432574 -1.54872 0
M  V30 10275 O 1172.33 0.23164 -1.72653 0
M  V30 10276 C 1169.46 0.341583 -3.39184 0
M  V30 10277 H 1170.66 -1.32503 -2.69041 0
M  V30 10278 H 1168.21 -0.724021 -1.38519 0
M  V30 10279 H 1168.94 1.22806 -3.00149 0
M  V30 10280 H 1168.73 -0.296268 -3.90979 0
M  V30 10281 H 1170.22 0.670955 -4.12175 0
M  V30 10282 N 1170.66 1.40747 -0.709091 0
M  V30 10283 C 1172.07 1.83955 -0.318968 0
M  V30 10284 C 1172.42 1.59304 1.14527 0
M  V30 10285 O 1171.54 1.07052 1.88066 0
M  V30 10286 C 1172.14 3.33934 -0.572147 0
M  V30 10287 C 1170.7 3.75661 -0.235802 0
M  V30 10288 C 1169.84 2.64024 -0.847743 0
M  V30 10289 H 1172.79 1.30107 -0.908734 0
M  V30 10290 H 1172.82 3.80143 0.164752 0
M  V30 10291 H 1172.33 3.51844 -1.63791 0
M  V30 10292 H 1170.43 3.63348 0.825164 0
M  V30 10293 H 1170.54 4.73955 -0.700263 0
M  V30 10294 H 1168.91 2.53197 -0.276283 0
M  V30 10295 H 1169.69 2.84748 -1.91765 0
M  V30 10296 N 1172.13 0.454803 1.50895 0
M  V30 10297 C 1173.54 -0.00421212 1.867 0
M  V30 10298 C 1173.9 -1.4037 1.3708 0
M  V30 10299 O 1173.02 -2.03755 0.728884 0
M  V30 10300 C 1173.62 -0.0144196 3.38797 0
M  V30 10301 C 1172.17 -0.417905 3.74073 0
M  V30 10302 C 1171.32 0.37801 2.74711 0
M  V30 10303 H 1174.27 0.669849 1.4387 0
M  V30 10304 H 1174.29 -0.820172 3.71555 0
M  V30 10305 H 1173.81 1.00427 3.74881 0
M  V30 10306 H 1171.91 -1.44155 3.43584 0
M  V30 10307 H 1172.02 -0.130568 4.78922 0
M  V30 10308 H 1170.38 -0.166089 2.54158 0
M  V30 10309 H 1171.17 1.3959 3.13639 0
M  V30 10310 N 1173.61 -1.56489 0.186789 0
M  V30 10311 C 1174.57 -2.17478 -0.723596 0
M  V30 10312 C 1175.57 -1.12698 -1.14699 0
M  V30 10313 O 1176.76 -1.38128 -1.06143 0
M  V30 10314 C 1173.9 -2.77015 -1.98685 0
M  V30 10315 H 1175.09 -2.99282 -0.192403 0
M  V30 10316 H 1172.64 -1.56174 -0.0628153 0
M  V30 10317 H 1173.38 -1.98987 -2.56076 0
M  V30 10318 H 1173.16 -3.53711 -1.69207 0
M  V30 10319 H 1174.65 -3.23872 -2.63622 0
M  V30 10320 N 1175.09 0.086862 -1.5736 0
M  V30 10321 C 1176.04 1.11134 -1.99081 0
M  V30 10322 C 1177.02 1.35318 -0.870506 0
M  V30 10323 O 1178.22 1.35871 -1.13437 0
M  V30 10324 C 1175.34 2.42931 -2.42569 0
M  V30 10325 C 1174.43 2.22085 -3.61302 0
M  V30 10326 N 1174.82 1.71128 -4.75971 0
M  V30 10327 C 1173.12 2.52619 -3.67559 0
M  V30 10328 C 1173.82 1.64745 -5.57883 0
M  V30 10329 N 1172.8 2.10257 -5.01291 0
M  V30 10330 H 1176.6 0.710431 -2.85184 0
M  V30 10331 H 1174.11 0.294168 -1.59714 0
M  V30 10332 H 1176.11 3.17069 -2.7069 0
M  V30 10333 H 1174.77 2.83751 -1.57846 0
M  V30 10334 H 1175.78 1.40207 -4.9856 0
M  V30 10335 H 1172.46 2.96908 -2.93516 0
M  V30 10336 H 1173.85 1.26329 -6.59917 0
M  V30 10337 N 1176.57 1.53483 0.357892 0
M  V30 10338 C 1177.82 1.69701 1.09754 0
M  V30 10339 C 1178.14 0.455389 1.89608 0
M  V30 10340 O 1177.41 -0.530623 1.88577 0
M  V30 10341 H 1175.99 0.62562 0.408178 0
M  V30 10342 H 1178.65 1.90696 0.402641 0
M  V30 10343 H 1177.74 2.56154 1.78302 0
M  V30 10344 N 1178.05 -0.61812 1.44973 0
M  V30 10345 C 1179.29 -1.37944 1.48658 0
M  V30 10346 C 1179.62 -1.93805 0.123749 0
M  V30 10347 O 1178.9 -1.74434 -0.860401 0
M  V30 10348 C 1179.18 -2.53515 2.55739 0
M  V30 10349 C 1179.04 -2.02918 4.01428 0
M  V30 10350 C 1180.35 -3.55674 2.59199 0
M  V30 10351 H 1177.47 -0.500223 0.541244 0
M  V30 10352 H 1180.12 -0.69774 1.76725 0
M  V30 10353 H 1178.27 -3.11669 2.31937 0
M  V30 10354 H 1179.94 -1.49494 4.36405 0
M  V30 10355 H 1178.18 -1.33999 4.12586 0
M  V30 10356 H 1178.85 -2.86181 4.72021 0
M  V30 10357 H 1181.33 -3.07343 2.80499 0
M  V30 10358 H 1180.2 -4.34042 3.36004 0
M  V30 10359 H 1180.46 -4.10601 1.63888 0
M  V30 10360 N 1179.52 -1.32087 -0.859693 0
M  V30 10361 C 1180.75 -1.25348 -1.64607 0
M  V30 10362 C 1181.17 0.179425 -1.87945 0
M  V30 10363 O 1180.52 1.11487 -1.44489 0
M  V30 10364 C 1180.57 -2.0047 -3.00822 0
M  V30 10365 O 1180.3 -3.38169 -2.7852 0
M  V30 10366 C 1181.8 -2.00694 -3.95268 0
M  V30 10367 H 1179.02 -0.432692 -0.512854 0
M  V30 10368 H 1181.56 -1.7413 -1.07234 0
M  V30 10369 H 1179.72 -1.55423 -3.54855 0
M  V30 10370 H 1180.13 -3.76553 -3.65113 0
M  V30 10371 H 1181.6 -2.57748 -4.88129 0
M  V30 10372 H 1182.08 -0.99196 -4.27851 0
M  V30 10373 H 1182.69 -2.45666 -3.47172 0
M  V30 10374 N 1181 1.07532 -1.15215 0
M  V30 10375 C 1182.23 1.84356 -0.950139 0
M  V30 10376 C 1182.65 1.81429 0.496502 0
M  V30 10377 O 1182.01 1.20589 1.35381 0
M  V30 10378 C 1182.06 3.29425 -1.46669 0
M  V30 10379 O 1181.16 4.07008 -0.664674 0
M  V30 10380 H 1180.5 0.570921 -0.339036 0
M  V30 10381 H 1183.03 1.35665 -1.53154 0
M  V30 10382 H 1183.04 3.8026 -1.47873 0
M  V30 10383 H 1181.72 3.3087 -2.51988 0
M  V30 10384 H 1180.29 3.65841 -0.72211 0
M  V30 10385 N 1182.48 0.948665 1.2585 0
M  V30 10386 C 1183.44 0.468673 2.24357 0
M  V30 10387 C 1184.44 -0.424355 1.551 0
M  V30 10388 O 1185.63 -0.222481 1.72773 0
M  V30 10389 C 1182.77 -0.32359 3.39361 0
M  V30 10390 H 1183.96 1.33928 2.68334 0
M  V30 10391 H 1181.51 0.731357 1.38133 0
M  V30 10392 H 1182.25 -1.21212 3.00796 0
M  V30 10393 H 1182.03 0.316998 3.90816 0
M  V30 10394 H 1183.52 -0.649087 4.12525 0
M  V30 10395 N 1183.96 -1.40369 0.716545 0
M  V30 10396 C 1185.37 -1.83783 0.328719 0
M  V30 10397 C 1185.72 -1.5991 -1.13681 0
M  V30 10398 O 1184.85 -1.08048 -1.87496 0
M  V30 10399 C 1185.44 -3.33626 0.589848 0
M  V30 10400 C 1184 -3.7553 0.25572 0
M  V30 10401 C 1183.15 -2.63571 0.861733 0
M  V30 10402 H 1186.1 -1.29623 0.915621 0
M  V30 10403 H 1186.12 -3.80225 -0.14459 0
M  V30 10404 H 1185.63 -3.5097 1.65655 0
M  V30 10405 H 1183.73 -3.63781 -0.805883 0
M  V30 10406 H 1183.84 -4.73577 0.725388 0
M  V30 10407 H 1182.21 -2.53047 0.289706 0
M  V30 10408 H 1182.99 -2.83727 1.93272 0
M  V30 10409 N 1185.44 -0.462799 -1.50652 0
M  V30 10410 C 1186.71 0.156221 -1.94975 0
M  V30 10411 C 1187.09 1.5775 -1.40279 0
M  V30 10412 O 1186.44 2.20473 -0.600323 0
M  V30 10413 C 1186.65 0.108008 -3.48833 0
M  V30 10414 C 1188 0.301013 -4.23532 0
M  V30 10415 O 1189.02 0.184973 -3.55719 0
M  V30 10416 O 1187.88 0.534457 -5.4388 0
M  V30 10417 H 1184.98 0.116182 -0.818798 0
M  V30 10418 H 1187.52 -0.522607 -1.61453 0
M  V30 10419 H 1186.29 -0.884634 -3.81169 0
M  V30 10420 H 1185.92 0.828653 -3.88869 0
M  V30 10421 N 1186.91 1.56388 -0.195085 0
M  V30 10422 C 1188.14 2.01963 0.449289 0
M  V30 10423 C 1188.56 1.07522 1.55192 0
M  V30 10424 O 1187.91 0.0800915 1.82324 0
M  V30 10425 C 1187.97 3.47231 1.00561 0
M  V30 10426 O 1187.69 4.38068 -0.0530241 0
M  V30 10427 C 1189.19 4.08324 1.72587 0
M  V30 10428 H 1186.41 0.661452 0.112792 0
M  V30 10429 H 1188.95 2.02231 -0.303788 0
M  V30 10430 H 1187.11 3.47663 1.70907 0
M  V30 10431 H 1187.52 5.23256 0.361076 0
M  V30 10432 H 1188.99 5.11821 2.06744 0
M  V30 10433 H 1189.47 3.51782 2.62956 0
M  V30 10434 H 1190.08 4.11665 1.06826 0
M  V30 10435 N 1188.39 -0.0785156 1.57404 0
M  V30 10436 C 1189.81 -0.433143 1.5361 0
M  V30 10437 C 1190.01 -1.79564 0.914283 0
M  V30 10438 O 1189.06 -2.47215 0.513899 0
M  V30 10439 C 1190.38 -0.380387 2.98284 0
M  V30 10440 C 1191.93 -0.461056 3.09586 0
M  V30 10441 C 1192.4 -0.438276 4.55898 0
M  V30 10442 N 1193.89 -0.498548 4.60509 0
M  V30 10443 C 1194.63 -0.503028 5.71189 0
M  V30 10444 N 1194.12 -0.462724 6.91253 0
M  V30 10445 N 1195.92 -0.549083 5.59412 0
M  V30 10446 H 1188.07 0.813724 1.96195 0
M  V30 10447 H 1190.33 0.304644 0.897717 0
M  V30 10448 H 1190.04 0.553932 3.4731 0
M  V30 10449 H 1189.91 -1.19313 3.57833 0
M  V30 10450 H 1192.3 -1.3858 2.60537 0
M  V30 10451 H 1192.38 0.380138 2.5296 0
M  V30 10452 H 1192.02 0.482588 5.05602 0
M  V30 10453 H 1191.95 -1.29691 5.1038 0
M  V30 10454 H 1194.44 -0.534219 3.74105 0
M  V30 10455 H 1194.76 -0.469883 7.7137 0
M  V30 10456 H 1193.1 -0.429515 6.93672 0
M  V30 10457 H 1196.29 -0.578215 4.64515 0
M  V30 10458 H 1196.46 -0.549105 6.45669 0
M  V30 10459 N 1189.87 -1.5367 -0.349747 0
M  V30 10460 C 1191.28 -1.62135 -0.925704 0
M  V30 10461 C 1191.63 -0.498725 -1.89756 0
M  V30 10462 O 1190.76 0.372481 -2.1317 0
M  V30 10463 C 1191.35 -2.93885 -1.68573 0
M  V30 10464 C 1189.91 -3.04632 -2.2108 0
M  V30 10465 C 1189.06 -2.57541 -1.02801 0
M  V30 10466 H 1192.01 -1.58182 -0.128065 0
M  V30 10467 H 1192.03 -2.82577 -2.54815 0
M  V30 10468 H 1191.54 -3.75571 -0.978153 0
M  V30 10469 H 1189.64 -2.27567 -2.95032 0
M  V30 10470 H 1189.76 -4.09993 -2.47876 0
M  V30 10471 H 1188.12 -2.12798 -1.39962 0
M  V30 10472 H 1188.9 -3.4166 -0.335157 0
M  V30 10473 N 1191.35 0.610423 -1.45298 0
M  V30 10474 C 1192.31 1.70324 -1.5337 0
M  V30 10475 C 1193.31 1.55393 -0.413492 0
M  V30 10476 O 1194.5 1.60512 -0.676872 0
M  V30 10477 C 1191.63 3.09572 -1.42752 0
M  V30 10478 H 1192.83 1.64535 -2.50736 0
M  V30 10479 H 1190.38 0.825906 -1.32697 0
M  V30 10480 H 1191.11 3.2094 -0.465601 0
M  V30 10481 H 1190.9 3.21817 -2.24 0
M  V30 10482 H 1192.39 3.89178 -1.51427 0
M  V30 10483 N 1192.83 1.32541 0.852676 0
M  V30 10484 C 1194.24 1.20863 1.42299 0
M  V30 10485 C 1194.59 -0.178051 1.9539 0
M  V30 10486 O 1193.71 -1.07689 1.87702 0
M  V30 10487 C 1194.31 2.18811 2.58664 0
M  V30 10488 C 1192.87 2.11015 3.11689 0
M  V30 10489 C 1192.01 2.07067 1.84441 0
M  V30 10490 H 1194.97 1.44341 0.659657 0
M  V30 10491 H 1194.99 1.78779 3.35884 0
M  V30 10492 H 1194.5 3.19726 2.19993 0
M  V30 10493 H 1192.6 1.13354 3.54939 0
M  V30 10494 H 1192.71 3.00929 3.72799 0
M  V30 10495 H 1191.08 1.52335 2.04123 0
M  V30 10496 H 1191.86 3.09767 1.47984 0
M  V30 10497 N 1194.3 -1.0692 1.15784 0
M  V30 10498 C 1195.55 -1.79245 0.933581 0
M  V30 10499 C 1195.87 -1.87362 -0.540427 0
M  V30 10500 O 1195.14 -1.37769 -1.39271 0
M  V30 10501 H 1193.72 -0.663898 0.342416 0
M  V30 10502 H 1196.39 -1.29189 1.45932 0
M  V30 10503 H 1195.48 -2.81546 1.34679 0
M  V30 10504 N 1195.78 -0.955326 -1.25345 0
M  V30 10505 C 1197.01 -0.627233 -1.97688 0
M  V30 10506 C 1197.43 0.793973 -1.70522 0
M  V30 10507 O 1196.79 1.537 -0.961556 0
M  V30 10508 C 1196.84 -0.892969 -3.49369 0
M  V30 10509 O 1195.94 0.0278871 -4.12391 0
M  V30 10510 H 1195.28 -0.238402 -0.619726 0
M  V30 10511 H 1197.81 -1.28211 -1.59446 0
M  V30 10512 H 1197.82 -0.819517 -3.99685 0
M  V30 10513 H 1196.5 -1.92879 -3.6847 0
M  V30 10514 H 1195.08 -0.0978295 -3.72772 0
M  V30 10515 N 1197.26 1.39987 -0.723979 0
M  V30 10516 C 1198.49 2.05037 -0.27702 0
M  V30 10517 C 1198.9 1.54565 1.08421 0
M  V30 10518 O 1198.26 0.705795 1.683 0
M  V30 10519 C 1198.31 3.60582 -0.25751 0
M  V30 10520 O 1198.03 4.09194 -1.565 0
M  V30 10521 C 1199.53 4.42817 0.206972 0
M  V30 10522 H 1196.75 0.659637 -0.122963 0
M  V30 10523 H 1199.3 1.7924 -0.98454 0
M  V30 10524 H 1197.45 3.85319 0.401037 0
M  V30 10525 H 1197.87 5.03447 -1.47112 0
M  V30 10526 H 1199.34 5.5174 0.16947 0
M  V30 10527 H 1199.82 4.21023 1.25045 0
M  V30 10528 H 1200.42 4.23205 -0.421604 0
M  V30 10529 N 1198.74 0.470782 1.50404 0
M  V30 10530 C 1199.7 -0.312227 2.27063 0
M  V30 10531 C 1200.7 -0.920709 1.31832 0
M  V30 10532 O 1201.89 -0.789937 1.5526 0
M  V30 10533 C 1199.02 -1.44477 3.0877 0
M  V30 10534 H 1200.22 0.36006 2.97731 0
M  V30 10535 H 1197.77 0.224837 1.54674 0
M  V30 10536 H 1198.51 -2.15212 2.42599 0
M  V30 10537 H 1198.29 -1.01426 3.78755 0
M  V30 10538 H 1199.78 -1.99713 3.66749 0
M  V30 10539 N 1200.22 -1.56282 0.203376 0
M  V30 10540 C 1201.63 -1.84146 -0.307752 0
M  V30 10541 C 1201.98 -1.12429 -1.60792 0
M  V30 10542 O 1201.1 -0.387852 -2.12896 0
M  V30 10543 C 1201.7 -3.34053 -0.565152 0
M  V30 10544 C 1200.26 -3.62298 -1.02063 0
M  V30 10545 C 1199.41 -2.77202 -0.0737343 0
M  V30 10546 H 1202.36 -1.52848 0.426983 0
M  V30 10547 H 1202.38 -3.53273 -1.41345 0
M  V30 10548 H 1201.89 -3.86222 0.381301 0
M  V30 10549 H 1199.99 -3.1557 -1.98107 0
M  V30 10550 H 1200.1 -4.70424 -0.907614 0
M  V30 10551 H 1198.47 -2.48074 -0.577169 0
M  V30 10552 H 1199.25 -3.32164 0.86731 0
M  V30 10553 N 1201.7 0.070167 -1.57444 0
M  V30 10554 C 1203.11 0.621805 -1.76041 0
M  V30 10555 C 1203.46 1.77824 -0.829047 0
M  V30 10556 O 1202.58 2.16396 -0.0135453 0
M  V30 10557 C 1203.18 1.13476 -3.19231 0
M  V30 10558 C 1201.74 1.63225 -3.39167 0
M  V30 10559 C 1200.88 0.552369 -2.71743 0
M  V30 10560 H 1203.83 -0.156009 -1.57931 0
M  V30 10561 H 1203.86 2.00352 -3.2348 0
M  V30 10562 H 1203.37 0.29288 -3.86993 0
M  V30 10563 H 1201.47 2.49733 -2.76522 0
M  V30 10564 H 1201.58 1.70807 -4.47618 0
M  V30 10565 H 1199.95 0.997797 -2.34342 0
M  V30 10566 H 1200.73 -0.279354 -3.42162 0
M  V30 10567 N 1203.17 1.53854 0.341593 0
M  V30 10568 C 1204.14 1.8128 1.40251 0
M  V30 10569 C 1205.14 0.683915 1.45531 0
M  V30 10570 O 1206.33 0.952202 1.45872 0
M  V30 10571 C 1203.46 1.95658 2.79161 0
M  V30 10572 H 1204.65 2.76053 1.17195 0
M  V30 10573 H 1202.2 1.45296 0.57609 0
M  V30 10574 H 1202.94 1.03034 3.07497 0
M  V30 10575 H 1202.72 2.77788 2.76724 0
M  V30 10576 H 1204.21 2.18387 3.55945 0
M  V30 10577 N 1204.65 -0.602709 1.4562 0
M  V30 10578 C 1205.6 -1.70753 1.51088 0
M  V30 10579 C 1206.59 -1.56501 0.373662 0
M  V30 10580 O 1207.78 -1.65755 0.620828 0
M  V30 10581 C 1204.91 -3.09515 1.48511 0
M  V30 10582 C 1203.99 -3.29135 2.67453 0
M  V30 10583 N 1204.38 -3.18996 3.92524 0
M  V30 10584 C 1202.68 -3.60019 2.63253 0
M  V30 10585 C 1203.38 -3.40079 4.71933 0
M  V30 10586 N 1202.36 -3.64299 4.03469 0
M  V30 10587 H 1206.16 -1.61414 2.45607 0
M  V30 10588 H 1203.67 -0.806122 1.4098 0
M  V30 10589 H 1205.67 -3.88782 1.50513 0
M  V30 10590 H 1204.33 -3.19999 0.550526 0
M  V30 10591 H 1205.34 -2.97292 4.24073 0
M  V30 10592 H 1202.02 -3.77311 1.78725 0
M  V30 10593 H 1203.41 -3.37593 5.80931 0
M  V30 10594 N 1206.13 -1.32992 -0.845635 0
M  V30 10595 C 1207.38 -1.2382 -1.59728 0
M  V30 10596 C 1207.7 0.197724 -1.93995 0
M  V30 10597 O 1206.97 1.12477 -1.60392 0
M  V30 10598 H 1205.55 -0.455296 -0.592212 0
M  V30 10599 H 1208.21 -1.66627 -1.01101 0
M  V30 10600 H 1207.31 -1.82717 -2.53023 0
M  V30 10601 N 1207.61 1.06304 -1.1635 0
M  V30 10602 C 1208.85 1.79366 -0.94634 0
M  V30 10603 C 1209.19 1.86981 0.524569 0
M  V30 10604 O 1208.46 1.36134 1.38917 0
M  V30 10605 C 1208.74 3.23861 -1.57436 0
M  V30 10606 C 1208.6 3.24327 -3.1166 0
M  V30 10607 C 1209.92 4.21409 -1.26895 0
M  V30 10608 H 1207.04 0.65115 -0.345215 0
M  V30 10609 H 1209.68 1.24325 -1.43678 0
M  V30 10610 H 1207.83 3.70862 -1.15731 0
M  V30 10611 H 1209.5 2.85488 -3.62346 0
M  V30 10612 H 1207.74 2.62983 -3.44997 0
M  V30 10613 H 1208.41 4.2626 -3.50723 0
M  V30 10614 H 1210.89 3.8285 -1.62989 0
M  V30 10615 H 1209.77 5.20778 -1.73439 0
M  V30 10616 H 1210.03 4.41701 -0.187768 0
M  V30 10617 N 1209.09 0.96196 1.24836 0
M  V30 10618 C 1210.31 0.63814 1.96813 0
M  V30 10619 C 1210.73 -0.79127 1.71419 0
M  V30 10620 O 1210.09 -1.5302 0.994546 0
M  V30 10621 C 1210.14 0.89626 3.50213 0
M  V30 10622 O 1209.86 2.26947 3.74735 0
M  V30 10623 C 1211.36 0.585836 4.39412 0
M  V30 10624 H 1208.58 0.238598 0.627146 0
M  V30 10625 H 1211.12 1.28833 1.58815 0
M  V30 10626 H 1209.28 0.292368 3.86295 0
M  V30 10627 H 1209.69 2.34514 4.69152 0
M  V30 10628 H 1211.17 0.816935 5.45921 0
M  V30 10629 H 1211.64 -0.479784 4.36572 0
M  V30 10630 H 1212.25 1.16938 4.08908 0
M  V30 10631 N 1210.56 -1.39601 0.731392 0
M  V30 10632 C 1211.79 -2.05411 0.286532 0
M  V30 10633 C 1212.21 -1.54777 -1.06892 0
M  V30 10634 O 1211.57 -0.689942 -1.67659 0
M  V30 10635 C 1211.62 -3.594 0.293914 0
M  V30 10636 O 1210.72 -4.06072 -0.719657 0
M  V30 10637 H 1210.06 -0.650949 0.131004 0
M  V30 10638 H 1212.59 -1.78703 0.996305 0
M  V30 10639 H 1212.6 -4.0777 0.137052 0
M  V30 10640 H 1211.28 -3.95617 1.28298 0
M  V30 10641 H 1209.86 -3.69125 -0.529226 0
M  V30 10642 N 1212.04 -0.478751 -1.50152 0
M  V30 10643 C 1213.01 0.300181 -2.27226 0
M  V30 10644 C 1214.01 0.913705 -1.32318 0
M  V30 10645 O 1215.2 0.781692 -1.55677 0
M  V30 10646 C 1212.33 1.42838 -3.09532 0
M  V30 10647 H 1213.52 -0.375845 -2.97536 0
M  V30 10648 H 1211.07 -0.233037 -1.54553 0
M  V30 10649 H 1211.81 2.13923 -2.43737 0
M  V30 10650 H 1211.59 0.994161 -3.79287 0
M  V30 10651 H 1213.08 1.97765 -3.67802 0
M  V30 10652 N 1213.52 1.56172 -0.211661 0
M  V30 10653 C 1214.93 1.84307 0.297982 0
M  V30 10654 C 1215.28 1.1328 1.60194 0
M  V30 10655 O 1214.41 0.399137 2.12687 0
M  V30 10656 C 1215 3.34348 0.547428 0
M  V30 10657 C 1213.56 3.62835 1.0014 0
M  V30 10658 C 1212.71 2.77237 0.0590326 0
M  V30 10659 H 1215.66 1.5262 -0.435083 0
M  V30 10660 H 1215.68 3.54018 1.39469 0
M  V30 10661 H 1215.19 3.86015 -0.401778 0
M  V30 10662 H 1213.29 3.16616 1.96431 0
M  V30 10663 H 1213.41 4.70899 0.882653 0
M  V30 10664 H 1211.77 2.48377 0.564005 0
M  V30 10665 H 1212.55 3.31699 -0.884913 0
M  V30 10666 N 1215 -0.0618163 1.57479 0
M  V30 10667 C 1216.28 -0.792636 1.7882 0
M  V30 10668 C 1216.66 -1.95283 0.801724 0
M  V30 10669 O 1216 -2.27917 -0.163095 0
M  V30 10670 C 1216.21 -1.25629 3.25605 0
M  V30 10671 C 1217.56 -1.68561 3.89708 0
M  V30 10672 O 1218.59 -1.35171 3.29556 0
M  V30 10673 O 1217.44 -2.30417 4.95551 0
M  V30 10674 H 1214.54 -0.380595 0.734218 0
M  V30 10675 H 1217.08 -0.0411205 1.6965 0
M  V30 10676 H 1215.86 -0.426582 3.88968 0
M  V30 10677 H 1215.48 -2.06882 3.39537 0
M  V30 10678 N 1216.48 -1.54033 -0.333429 0
M  V30 10679 C 1217.7 -1.75716 -1.09232 0
M  V30 10680 C 1218.12 -0.501076 -1.82029 0
M  V30 10681 O 1217.48 0.527772 -1.74702 0
M  V30 10682 C 1217.53 -2.9439 -2.09802 0
M  V30 10683 O 1217.25 -4.15141 -1.39963 0
M  V30 10684 C 1218.75 -3.28206 -2.97987 0
M  V30 10685 H 1215.97 -0.586859 -0.325326 0
M  V30 10686 H 1218.51 -2.0089 -0.382555 0
M  V30 10687 H 1216.67 -2.71518 -2.76327 0
M  V30 10688 H 1217.08 -4.81826 -2.0723 0
M  V30 10689 H 1218.56 -4.14568 -3.64469 0
M  V30 10690 H 1219.03 -2.44944 -3.64553 0
M  V30 10691 H 1219.64 -3.5312 -2.37036 0
M  V30 10692 N 1217.95 0.594978 -1.45938 0
M  V30 10693 C 1219.37 0.917069 -1.30622 0
M  V30 10694 C 1219.57 1.99702 -0.268554 0
M  V30 10695 O 1218.63 2.50293 0.333146 0
M  V30 10696 C 1219.94 1.34604 -2.68891 0
M  V30 10697 C 1221.49 1.45957 -2.76886 0
M  V30 10698 C 1221.96 1.92225 -4.15708 0
M  V30 10699 N 1223.45 1.99439 -4.18065 0
M  V30 10700 C 1224.19 2.36488 -5.22361 0
M  V30 10701 N 1223.68 2.72416 -6.36994 0
M  V30 10702 N 1225.48 2.36936 -5.09723 0
M  V30 10703 H 1217.63 -0.118625 -2.12068 0
M  V30 10704 H 1219.89 0.00959453 -0.947951 0
M  V30 10705 H 1219.6 0.626605 -3.46073 0
M  V30 10706 H 1219.47 2.31006 -2.98188 0
M  V30 10707 H 1221.86 2.16989 -1.99999 0
M  V30 10708 H 1221.94 0.47838 -2.51287 0
M  V30 10709 H 1221.58 1.21775 -4.93085 0
M  V30 10710 H 1221.51 2.9128 -4.38707 0
M  V30 10711 H 1224 1.74212 -3.35349 0
M  V30 10712 H 1224.32 2.99604 -7.1236 0
M  V30 10713 H 1222.66 2.70083 -6.40375 0
M  V30 10714 H 1225.85 2.08282 -4.19209 0
M  V30 10715 H 1226.03 2.65483 -5.9112 0
M  V30 10716 N 1219.43 1.33438 0.838571 0
M  V30 10717 C 1220.84 1.22366 1.41009 0
M  V30 10718 C 1221.19 -0.157317 1.95568 0
M  V30 10719 O 1220.32 -1.05692 1.88834 0
M  V30 10720 C 1220.91 2.21542 2.56329 0
M  V30 10721 C 1219.47 2.14309 3.09433 0
M  V30 10722 C 1218.62 2.09012 1.82235 0
M  V30 10723 H 1221.57 1.45032 0.64431 0
M  V30 10724 H 1221.59 1.82332 3.33969 0
M  V30 10725 H 1221.1 3.22042 2.16589 0
M  V30 10726 H 1219.21 1.17113 3.53717 0
M  V30 10727 H 1219.32 3.04866 3.69586 0
M  V30 10728 H 1217.68 1.54492 2.02495 0
M  V30 10729 H 1218.47 3.11319 1.4469 0
M  V30 10730 N 1220.91 -1.05686 1.16912 0
M  V30 10731 C 1221.87 -2.11481 0.883647 0
M  V30 10732 C 1222.87 -1.60321 -0.124034 0
M  V30 10733 O 1224.06 -1.73868 0.107566 0
M  V30 10734 C 1221.2 -3.3937 0.322649 0
M  V30 10735 H 1222.39 -2.38239 1.8216 0
M  V30 10736 H 1219.94 -1.2185 0.978895 0
M  V30 10737 H 1220.68 -3.18266 -0.622695 0
M  V30 10738 H 1220.46 -3.77812 1.04883 0
M  V30 10739 H 1221.95 -4.17362 0.141072 0
M  V30 10740 N 1222.39 -0.968567 -1.24324 0
M  V30 10741 C 1223.8 -0.66964 -1.74278 0
M  V30 10742 C 1224.15 0.81461 -1.7849 0
M  V30 10743 O 1223.28 1.63736 -1.4149 0
M  V30 10744 C 1223.87 -1.20885 -3.165 0
M  V30 10745 C 1222.43 -0.959808 -3.63957 0
M  V30 10746 C 1221.58 -1.34365 -2.42573 0
M  V30 10747 H 1224.53 -1.14379 -1.10015 0
M  V30 10748 H 1224.55 -0.57555 -3.76122 0
M  V30 10749 H 1224.06 -2.28912 -3.13402 0
M  V30 10750 H 1222.16 0.104894 -3.72452 0
M  V30 10751 H 1222.27 -1.60606 -4.51378 0
M  V30 10752 H 1220.64 -0.762039 -2.43033 0
M  V30 10753 H 1221.42 -2.43343 -2.42155 0
M  V30 10754 N 1223.87 1.39211 -0.738786 0
M  V30 10755 C 1225.11 2.0004 -0.28782 0
M  V30 10756 C 1225.44 1.58921 1.13 0
M  V30 10757 O 1224.71 0.839193 1.77015 0
M  V30 10758 H 1223.29 0.739805 -0.103425 0
M  V30 10759 H 1225.95 1.70202 -0.949587 0
M  V30 10760 H 1225.04 3.10251 -0.339208 0
M  V30 10761 N 1225.34 0.486708 1.49896 0
M  V30 10762 C 1226.57 -0.0622999 2.07306 0
M  V30 10763 C 1226.99 -1.31353 1.3464 0
M  V30 10764 O 1226.35 -1.76861 0.398752 0
M  V30 10765 C 1226.4 -0.313481 3.59235 0
M  V30 10766 O 1225.5 -1.39101 3.88233 0
M  V30 10767 H 1224.85 0.0198885 0.663702 0
M  V30 10768 H 1227.38 0.682232 1.92891 0
M  V30 10769 H 1227.39 -0.549302 4.04285 0
M  V30 10770 H 1226.06 0.600767 4.11538 0
M  V30 10771 H 1224.64 -1.14127 3.55006 0
M  V30 10772 N 1226.82 -1.56058 0.219941 0
M  V30 10773 C 1228.05 -2.02652 -0.417101 0
M  V30 10774 C 1228.47 -1.09977 -1.53461 0
M  V30 10775 O 1227.82 -0.109088 -1.82174 0
M  V30 10776 C 1227.87 -3.48787 -0.950244 0
M  V30 10777 O 1227.6 -4.37928 0.12271 0
M  V30 10778 C 1229.1 -4.11018 -1.66069 0
M  V30 10779 H 1226.32 -0.663163 -0.102254 0
M  V30 10780 H 1228.86 -2.01722 0.335923 0
M  V30 10781 H 1227.02 -3.50338 -1.65355 0
M  V30 10782 H 1227.43 -5.23764 -0.277785 0
M  V30 10783 H 1228.9 -5.15046 -1.98575 0
M  V30 10784 H 1229.38 -3.55921 -2.57326 0
M  V30 10785 H 1229.99 -4.13313 -1.00263 0
M  V30 10786 N 1228.3 0.053464 -1.57509 0
M  V30 10787 C 1229.26 1.04604 -2.03938 0
M  V30 10788 C 1230.26 1.30509 -0.939357 0
M  V30 10789 O 1231.45 1.25922 -1.20371 0
M  V30 10790 C 1228.59 2.38516 -2.43563 0
M  V30 10791 H 1229.78 0.645484 -2.92871 0
M  V30 10792 H 1227.33 0.299683 -1.534 0
M  V30 10793 H 1228.07 2.83368 -1.57712 0
M  V30 10794 H 1227.85 2.2105 -3.23851 0
M  V30 10795 H 1229.34 3.09826 -2.79996 0
M  V30 10796 N 1229.78 1.54207 0.325255 0
M  V30 10797 C 1231.19 1.63587 0.899793 0
M  V30 10798 C 1231.54 0.528851 1.88938 0
M  V30 10799 O 1230.67 -0.33852 2.13736 0
M  V30 10800 C 1231.26 2.9653 1.63877 0
M  V30 10801 C 1229.82 3.08111 2.16205 0
M  V30 10802 C 1228.97 2.59144 0.986903 0
M  V30 10803 H 1231.92 1.58366 0.102883 0
M  V30 10804 H 1231.94 2.86595 2.50287 0
M  V30 10805 H 1231.45 3.7708 0.918279 0
M  V30 10806 H 1229.55 2.32232 2.91375 0
M  V30 10807 H 1229.67 4.13885 2.41322 0
M  V30 10808 H 1228.03 2.14997 1.36558 0
M  V30 10809 H 1228.81 3.4215 0.28076 0
M  V30 10810 N 1231.26 -0.58723 1.46251 0
M  V30 10811 C 1232.67 -1.16933 1.45546 0
M  V30 10812 C 1233.02 -1.9524 0.193879 0
M  V30 10813 O 1232.14 -2.04652 -0.70332 0
M  V30 10814 C 1232.74 -2.12723 2.63693 0
M  V30 10815 C 1231.3 -2.66267 2.66043 0
M  V30 10816 C 1230.45 -1.42051 2.38153 0
M  V30 10817 H 1233.4 -0.375411 1.54196 0
M  V30 10818 H 1233.42 -2.96111 2.38953 0
M  V30 10819 H 1232.93 -1.55703 3.55497 0
M  V30 10820 H 1231.03 -3.2717 1.783 0
M  V30 10821 H 1231.14 -3.0931 3.65874 0
M  V30 10822 H 1229.51 -1.71707 1.88119 0
M  V30 10823 H 1230.29 -0.868675 3.32128 0
M  V30 10824 N 1232.74 -1.33881 -0.831482 0
M  V30 10825 C 1233.7 -1.24654 -1.92339 0
M  V30 10826 C 1234.7 -0.163788 -1.59964 0
M  V30 10827 O 1235.89 -0.415829 -1.69164 0
M  V30 10828 C 1233.02 -0.922537 -3.2818 0
M  V30 10829 H 1234.21 -2.21717 -2.01944 0
M  V30 10830 H 1231.77 -1.18046 -1.02445 0
M  V30 10831 H 1232.5 0.0452872 -3.24268 0
M  V30 10832 H 1232.29 -1.70562 -3.53059 0
M  V30 10833 H 1233.78 -0.88292 -4.0816 0
M  V30 10834 N 1234.21 1.05064 -1.1747 0
M  V30 10835 C 1235.16 2.11131 -0.860692 0
M  V30 10836 C 1236.15 1.60049 0.165288 0
M  V30 10837 O 1237.34 1.76961 -0.0373288 0
M  V30 10838 C 1234.47 3.41222 -0.37718 0
M  V30 10839 C 1233.55 3.99097 -1.43466 0
M  V30 10840 N 1233.95 4.30918 -2.64846 0
M  V30 10841 C 1232.24 4.26851 -1.29282 0
M  V30 10842 C 1232.94 4.77092 -3.32804 0
M  V30 10843 N 1231.92 4.77291 -2.60182 0
M  V30 10844 H 1235.72 2.33597 -1.78353 0
M  V30 10845 H 1233.24 1.22724 -1.06361 0
M  V30 10846 H 1235.23 4.16685 -0.133766 0
M  V30 10847 H 1233.89 3.20188 0.53944 0
M  V30 10848 H 1234.9 4.20877 -3.01799 0
M  V30 10849 H 1231.58 4.15197 -0.437949 0
M  V30 10850 H 1232.97 5.10815 -4.36483 0
M  V30 10851 N 1235.69 0.975146 1.23809 0
M  V30 10852 C 1236.94 0.639858 1.91704 0
M  V30 10853 C 1237.26 -0.828557 1.76522 0
M  V30 10854 O 1236.53 -1.59217 1.14135 0
M  V30 10855 H 1235.11 0.233667 0.709513 0
M  V30 10856 H 1237.77 1.23782 1.50545 0
M  V30 10857 H 1236.87 0.886915 2.99233 0
M  V30 10858 N 1237.17 -1.38817 0.746158 0
M  V30 10859 C 1238.42 -2.00577 0.299458 0
M  V30 10860 C 1238.75 -1.59087 -1.11378 0
M  V30 10861 O 1238.02 -0.824932 -1.7614 0
M  V30 10862 C 1238.31 -3.57713 0.413932 0
M  V30 10863 C 1238.16 -4.09189 1.86774 0
M  V30 10864 C 1239.48 -4.39659 -0.197082 0
M  V30 10865 H 1236.6 -0.728702 0.110285 0
M  V30 10866 H 1239.24 -1.64866 0.944408 0
M  V30 10867 H 1237.39 -3.88265 -0.135155 0
M  V30 10868 H 1239.06 -3.89311 2.47456 0
M  V30 10869 H 1237.3 -3.62333 2.38532 0
M  V30 10870 H 1237.98 -5.18305 1.89904 0
M  V30 10871 H 1240.45 -4.15216 0.271121 0
M  V30 10872 H 1239.33 -5.48832 -0.0867011 0
M  V30 10873 H 1239.59 -4.23028 -1.2845 0
M  V30 10874 N 1238.65 -0.49465 -1.49636 0
M  V30 10875 C 1239.88 0.0491129 -2.06842 0
M  V30 10876 C 1240.29 1.31395 -1.35576 0
M  V30 10877 O 1239.65 1.7731 -0.432135 0
M  V30 10878 C 1239.7 0.313171 -3.60141 0
M  V30 10879 O 1239.42 -0.90152 -4.28724 0
M  V30 10880 C 1240.92 0.901284 -4.34041 0
M  V30 10881 H 1238.14 -0.0176186 -0.670769 0
M  V30 10882 H 1240.68 -0.690188 -1.92501 0
M  V30 10883 H 1238.84 1.00244 -3.74206 0
M  V30 10884 H 1239.25 -0.660477 -5.20325 0
M  V30 10885 H 1240.73 1.03567 -5.42197 0
M  V30 10886 H 1241.2 1.89746 -3.96097 0
M  V30 10887 H 1241.81 0.249677 -4.24566 0
M  V30 10888 N 1240.13 1.55939 -0.228214 0
M  V30 10889 C 1241.35 2.0332 0.409364 0
M  V30 10890 C 1241.78 1.10683 1.52088 0
M  V30 10891 O 1241.13 0.0962484 1.81044 0
M  V30 10892 C 1241.18 3.48877 0.911981 0
M  V30 10893 O 1240.29 3.59378 2.02289 0
M  V30 10894 H 1239.63 0.657625 0.0917909 0
M  V30 10895 H 1242.16 2.01605 -0.348802 0
M  V30 10896 H 1242.17 3.89331 1.22007 0
M  V30 10897 H 1240.84 4.15783 0.0984902 0
M  V30 10898 H 1239.42 3.30815 1.72093 0
M  V30 10899 N 1241.6 -0.0451101 1.57535 0
M  V30 10900 C 1242.57 -1.03521 2.0449 0
M  V30 10901 C 1243.57 -1.30009 0.946265 0
M  V30 10902 O 1244.76 -1.25282 1.21038 0
M  V30 10903 C 1241.89 -2.37221 2.44824 0
M  V30 10904 H 1243.08 -0.629943 2.93209 0
M  V30 10905 H 1240.64 -0.291544 1.53557 0
M  V30 10906 H 1241.37 -2.82528 1.59212 0
M  V30 10907 H 1241.16 -2.19329 3.25018 0
M  V30 10908 H 1242.65 -3.08337 2.81635 0
M  V30 10909 N 1243.08 -1.54377 -0.317073 0
M  V30 10910 C 1244.49 -1.64062 -0.891105 0
M  V30 10911 C 1244.84 -0.538863 -1.88655 0
M  V30 10912 O 1243.97 0.32718 -2.13912 0
M  V30 10913 C 1244.56 -2.97395 -1.62302 0
M  V30 10914 C 1243.12 -3.09253 -2.14568 0
M  V30 10915 C 1242.27 -2.59664 -0.973146 0
M  V30 10916 H 1245.22 -1.58418 -0.0944829 0
M  V30 10917 H 1245.24 -2.87918 -2.48764 0
M  V30 10918 H 1244.75 -3.77562 -0.898268 0
M  V30 10919 H 1242.86 -2.33774 -2.90139 0
M  V30 10920 H 1242.97 -4.15159 -2.39123 0
M  V30 10921 H 1241.33 -2.15719 -1.35416 0
M  V30 10922 H 1242.12 -3.42294 -0.262611 0
M  V30 10923 N 1244.56 0.579466 -1.4656 0
M  V30 10924 C 1245.84 1.33973 -1.42515 0
M  V30 10925 C 1246.22 2.10812 -0.110317 0
M  V30 10926 O 1245.57 2.09679 0.908135 0
M  V30 10927 C 1245.78 2.26301 -2.65686 0
M  V30 10928 C 1247.12 2.88027 -3.1197 0
M  V30 10929 O 1248.15 2.36612 -2.66257 0
M  V30 10930 O 1247.01 3.81423 -3.9138 0
M  V30 10931 H 1244.1 0.602121 -0.566903 0
M  V30 10932 H 1246.65 0.600214 -1.58731 0
M  V30 10933 H 1245.42 1.68973 -3.52936 0
M  V30 10934 H 1245.04 3.07586 -2.51945 0
M  V30 10935 N 1246.04 1.3432 0.824371 0
M  V30 10936 C 1247.27 1.29669 1.61226 0
M  V30 10937 C 1247.68 -0.129532 1.88355 0
M  V30 10938 O 1247.04 -1.07616 1.47394 0
M  V30 10939 C 1247.09 2.08375 2.95402 0
M  V30 10940 O 1246.81 3.45434 2.69456 0
M  V30 10941 C 1248.31 2.11103 3.89808 0
M  V30 10942 H 1245.53 0.446137 0.501201 0
M  V30 10943 H 1248.08 1.76912 1.02579 0
M  V30 10944 H 1246.23 1.64777 3.5061 0
M  V30 10945 H 1246.64 3.86101 3.55001 0
M  V30 10946 H 1248.12 2.706 4.81124 0
M  V30 10947 H 1248.6 1.10505 4.25071 0
M  V30 10948 H 1249.2 2.54784 3.40537 0
M  V30 10949 N 1247.52 -1.0444 1.18026 0
M  V30 10950 C 1248.93 -1.29766 0.929143 0
M  V30 10951 C 1249.13 -1.97338 -0.407436 0
M  V30 10952 O 1248.19 -2.25166 -1.14265 0
M  V30 10953 C 1249.5 -2.16002 2.09197 0
M  V30 10954 C 1251.05 -2.29361 2.12985 0
M  V30 10955 C 1251.52 -3.18962 3.28675 0
M  V30 10956 N 1253.02 -3.26549 3.28512 0
M  V30 10957 C 1253.75 -3.96025 4.14671 0
M  V30 10958 N 1253.25 -4.67863 5.10956 0
M  V30 10959 N 1255.04 -3.92266 4.02597 0
M  V30 10960 H 1247.19 -0.58984 2.04046 0
M  V30 10961 H 1249.45 -0.322752 0.891367 0
M  V30 10962 H 1249.16 -1.73653 3.05839 0
M  V30 10963 H 1249.03 -3.16667 2.04943 0
M  V30 10964 H 1251.42 -2.70948 1.16924 0
M  V30 10965 H 1251.5 -1.28299 2.21298 0
M  V30 10966 H 1251.15 -2.78087 4.25006 0
M  V30 10967 H 1251.08 -4.20047 3.17598 0
M  V30 10968 H 1253.57 -2.75371 2.58804 0
M  V30 10969 H 1253.88 -5.1846 5.73079 0
M  V30 10970 H 1252.22 -4.6678 5.14919 0
M  V30 10971 H 1255.42 -3.35273 3.26665 0
M  V30 10972 H 1255.59 -4.4614 4.69961 0
M  V30 10973 N 1248.99 -0.981699 -1.2329 0
M  V30 10974 C 1250.41 -0.688087 -1.73558 0
M  V30 10975 C 1250.76 0.795633 -1.79344 0
M  V30 10976 O 1249.88 1.62227 -1.43218 0
M  V30 10977 C 1250.48 -1.24235 -3.152 0
M  V30 10978 C 1249.04 -0.998356 -3.62918 0
M  V30 10979 C 1248.18 -1.3693 -2.41134 0
M  V30 10980 H 1251.13 -1.15539 -1.08795 0
M  V30 10981 H 1251.15 -0.61541 -3.7549 0
M  V30 10982 H 1250.67 -2.32223 -3.10957 0
M  V30 10983 H 1248.77 0.0653847 -3.72543 0
M  V30 10984 H 1248.88 -1.65385 -4.49649 0
M  V30 10985 H 1247.24 -0.787773 -2.42211 0
M  V30 10986 H 1248.03 -2.45898 -2.39561 0
M  V30 10987 N 1250.47 1.3842 -0.753509 0
M  V30 10988 C 1251.44 2.28808 -0.134022 0
M  V30 10989 C 1252.44 1.47184 0.647583 0
M  V30 10990 O 1253.63 1.67631 0.473861 0
M  V30 10991 C 1250.76 3.30926 0.81858 0
M  V30 10992 H 1251.95 2.85097 -0.930586 0
M  V30 10993 H 1249.5 1.47378 -0.520514 0
M  V30 10994 H 1250.24 2.79728 1.64082 0
M  V30 10995 H 1250.02 3.91234 0.260526 0
M  V30 10996 H 1251.51 3.98515 1.24802 0
M  V30 10997 N 1251.95 0.502579 1.49372 0
M  V30 10998 C 1253.36 0.055187 1.86618 0
M  V30 10999 C 1253.71 -1.35938 1.41476 0
M  V30 11000 O 1252.84 -2.01333 0.793338 0
M  V30 11001 C 1253.43 0.0933734 3.38671 0
M  V30 11002 C 1251.99 -0.298685 3.75213 0
M  V30 11003 C 1251.14 0.465216 2.7337 0
M  V30 11004 H 1254.09 0.715281 1.41667 0
M  V30 11005 H 1254.11 -0.701549 3.73977 0
M  V30 11006 H 1253.62 1.12303 3.71497 0
M  V30 11007 H 1251.72 -1.33151 3.47996 0
M  V30 11008 H 1251.84 0.0218637 4.79095 0
M  V30 11009 H 1250.2 -0.0851469 2.54558 0
M  V30 11010 H 1250.98 1.49498 3.09039 0
M  V30 11011 N 1253.43 -1.55816 0.23648 0
M  V30 11012 C 1254.68 -1.98294 -0.390373 0
M  V30 11013 C 1255 -1.12573 -1.59224 0
M  V30 11014 O 1254.27 -0.206128 -1.94813 0
M  V30 11015 H 1252.85 -0.732349 -0.14722 0
M  V30 11016 H 1255.51 -1.92037 0.332848 0
M  V30 11017 H 1254.61 -3.03996 -0.706595 0
M  V30 11018 N 1254.91 0.036755 -1.57557 0
M  V30 11019 C 1256.13 0.744813 -1.93565 0
M  V30 11020 C 1256.56 1.68508 -0.835863 0
M  V30 11021 O 1255.91 1.80091 0.208986 0
M  V30 11022 C 1255.96 1.48461 -3.28621 0
M  V30 11023 O 1255.07 2.59739 -3.20327 0
M  V30 11024 H 1254.41 0.200866 -0.632889 0
M  V30 11025 H 1256.94 -0.00547543 -2.04599 0
M  V30 11026 H 1256.95 1.85622 -3.63329 0
M  V30 11027 H 1255.62 0.794953 -4.08232 0
M  V30 11028 H 1254.2 2.25176 -2.97237 0
M  V30 11029 N 1256.39 1.54543 0.308881 0
M  V30 11030 C 1257.61 1.77431 1.06422 0
M  V30 11031 C 1258.03 0.529972 1.81209 0
M  V30 11032 O 1257.39 -0.499912 1.7552 0
M  V30 11033 C 1257.44 2.9769 2.05092 0
M  V30 11034 O 1257.16 4.17315 1.33341 0
M  V30 11035 C 1258.66 3.32905 2.92727 0
M  V30 11036 H 1255.88 0.591961 0.315948 0
M  V30 11037 H 1258.42 2.01473 0.350547 0
M  V30 11038 H 1256.58 2.7588 2.71973 0
M  V30 11039 H 1256.99 4.85061 1.99539 0
M  V30 11040 H 1258.47 4.20314 3.57827 0
M  V30 11041 H 1258.94 2.50713 3.6061 0
M  V30 11042 H 1259.55 3.56847 2.31388 0
M  V30 11043 N 1257.86 -0.571685 1.46866 0
M  V30 11044 C 1258.83 -1.66198 1.57832 0
M  V30 11045 C 1259.83 -1.54242 0.454547 0
M  V30 11046 O 1261.02 -1.58661 0.719191 0
M  V30 11047 C 1258.15 -3.05678 1.5091 0
M  V30 11048 H 1259.34 -1.57829 2.5501 0
M  V30 11049 H 1256.89 -0.790433 1.3484 0
M  V30 11050 H 1257.63 -3.19593 0.550529 0
M  V30 11051 H 1257.41 -3.15765 2.32454 0
M  V30 11052 H 1258.9 -3.85027 1.61692 0
M  V30 11053 N 1259.34 -1.34755 -0.817236 0
M  V30 11054 C 1260.75 -1.24594 -1.39044 0
M  V30 11055 C 1261.1 0.126184 -1.95794 0
M  V30 11056 O 1260.23 1.02675 -1.90491 0
M  V30 11057 C 1260.82 -2.25592 -2.52772 0
M  V30 11058 C 1259.38 -2.19204 -3.05984 0
M  V30 11059 C 1258.53 -2.11884 -1.78886 0
M  V30 11060 H 1261.48 -1.46039 -0.621155 0
M  V30 11061 H 1261.5 -1.87622 -3.31026 0
M  V30 11062 H 1261.01 -3.25447 -2.11438 0
M  V30 11063 H 1259.11 -1.22725 -3.51809 0
M  V30 11064 H 1259.23 -3.10707 -3.64689 0
M  V30 11065 H 1257.59 -1.57694 -2.00012 0
M  V30 11066 H 1258.37 -3.13582 -1.39719 0
M  V30 11067 N 1260.82 1.03812 -1.18578 0
M  V30 11068 C 1262.23 1.58509 -0.986496 0
M  V30 11069 C 1262.58 1.90655 0.463136 0
M  V30 11070 O 1261.71 1.69847 1.34093 0
M  V30 11071 C 1262.3 2.88 -1.78441 0
M  V30 11072 C 1260.86 3.39304 -1.6294 0
M  V30 11073 C 1260.01 2.12857 -1.77727 0
M  V30 11074 H 1262.96 0.864528 -1.33085 0
M  V30 11075 H 1262.98 3.58502 -1.27501 0
M  V30 11076 H 1262.49 2.64572 -2.83942 0
M  V30 11077 H 1260.59 3.6774 -0.599864 0
M  V30 11078 H 1260.71 4.12959 -2.42902 0
M  V30 11079 H 1259.07 2.24285 -1.20699 0
M  V30 11080 H 1259.85 1.91882 -2.84669 0
M  V30 11081 N 1262.3 0.988223 1.22768 0
M  V30 11082 C 1263.26 0.539813 2.22752 0
M  V30 11083 C 1264.26 -0.374796 1.56371 0
M  V30 11084 O 1265.45 -0.167402 1.73394 0
M  V30 11085 C 1262.58 -0.215461 3.40218 0
M  V30 11086 H 1263.78 1.42397 2.63938 0
M  V30 11087 H 1261.33 0.774933 1.35737 0
M  V30 11088 H 1262.06 -1.11581 3.045 0
M  V30 11089 H 1261.85 0.441173 3.8961 0
M  V30 11090 H 1263.34 -0.517517 4.14381 0
M  V30 11091 N 1263.78 -1.38018 0.760839 0
M  V30 11092 C 1264.73 -2.27717 0.113521 0
M  V30 11093 C 1265.71 -1.45562 -0.685613 0
M  V30 11094 O 1266.9 -1.68226 -0.550377 0
M  V30 11095 C 1264.03 -3.34478 -0.77325 0
M  V30 11096 C 1263.12 -4.24087 0.0331238 0
M  V30 11097 N 1263.51 -4.94283 1.07323 0
M  V30 11098 C 1261.81 -4.45584 -0.192565 0
M  V30 11099 C 1262.51 -5.60344 1.56172 0
M  V30 11100 N 1261.48 -5.36499 0.875768 0
M  V30 11101 H 1265.28 -2.79456 0.910021 0
M  V30 11102 H 1262.8 -1.51006 0.597561 0
M  V30 11103 H 1264.8 -3.97635 -1.25268 0
M  V30 11104 H 1263.46 -2.84296 -1.56862 0
M  V30 11105 H 1264.47 -4.97036 1.45517 0
M  V30 11106 H 1261.14 -4.06296 -0.960704 0
M  V30 11107 H 1262.53 -6.26477 2.42851 0
M  V30 11108 N 1265.25 -0.510493 -1.49103 0
M  V30 11109 C 1266.5 0.0305831 -2.02077 0
M  V30 11110 C 1266.82 1.36602 -1.39157 0
M  V30 11111 O 1266.09 1.88016 -0.550154 0
M  V30 11112 H 1264.67 0.0142916 -0.746863 0
M  V30 11113 H 1267.33 -0.669895 -1.83026 0
M  V30 11114 H 1266.43 0.153283 -3.11723 0
M  V30 11115 N 1266.73 1.55688 -0.24474 0
M  V30 11116 C 1267.98 1.99186 0.381167 0
M  V30 11117 C 1268.31 1.13266 1.57748 0
M  V30 11118 O 1267.59 0.195568 1.93514 0
M  V30 11119 C 1267.87 3.51257 0.793142 0
M  V30 11120 C 1267.72 4.47942 -0.408409 0
M  V30 11121 C 1269.04 4.08365 1.64091 0
M  V30 11122 H 1266.16 0.724141 0.137073 0
M  V30 11123 H 1268.8 1.8683 -0.345619 0
M  V30 11124 H 1266.95 3.61917 1.4124 0
M  V30 11125 H 1268.62 4.49265 -1.04682 0
M  V30 11126 H 1266.87 4.20854 -1.05189 0
M  V30 11127 H 1267.54 5.51946 -0.0768531 0
M  V30 11128 H 1270.01 4.00794 1.1182 0
M  V30 11129 H 1268.89 5.1504 1.89802 0
M  V30 11130 H 1269.15 3.56687 2.61202 0
M  V30 11131 N 1268.21 -0.0283989 1.57574 0
M  V30 11132 C 1269.44 -0.730831 1.93563 0
M  V30 11133 C 1269.85 -1.68857 0.844556 0
M  V30 11134 O 1269.21 -1.8162 -0.178971 0
M  V30 11135 C 1269.26 -1.48731 3.29486 0
M  V30 11136 O 1268.98 -0.568017 4.34402 0
M  V30 11137 C 1270.48 -2.28684 3.79761 0
M  V30 11138 H 1267.7 -0.205346 0.638807 0
M  V30 11139 H 1270.25 0.0142728 2.04495 0
M  V30 11140 H 1268.4 -2.18429 3.19949 0
M  V30 11141 H 1268.82 -1.09861 5.12865 0
M  V30 11142 H 1270.29 -2.77157 4.77376 0
M  V30 11143 H 1270.77 -3.10133 3.10989 0
M  V30 11144 H 1271.37 -1.64059 3.92383 0
M  V30 11145 N 1269.69 -1.54705 -0.300681 0
M  V30 11146 C 1270.91 -1.78318 -1.05913 0
M  V30 11147 C 1271.34 -0.541177 -1.80147 0
M  V30 11148 O 1270.7 0.508291 -1.74029 0
M  V30 11149 C 1270.74 -2.99041 -2.01511 0
M  V30 11150 O 1269.85 -2.72188 -3.09818 0
M  V30 11151 H 1269.19 -0.590197 -0.304242 0
M  V30 11152 H 1271.72 -2.01789 -0.338006 0
M  V30 11153 H 1271.73 -3.2702 -2.43971 0
M  V30 11154 H 1270.4 -3.89098 -1.46886 0
M  V30 11155 H 1268.98 -2.55227 -2.71871 0
M  V30 11156 N 1271.17 0.563888 -1.47167 0
M  V30 11157 C 1272.13 1.65359 -1.58711 0
M  V30 11158 C 1273.13 1.53999 -0.46272 0
M  V30 11159 O 1274.32 1.58277 -0.727595 0
M  V30 11160 C 1271.45 3.04874 -1.52529 0
M  V30 11161 H 1272.64 1.56475 -2.55843 0
M  V30 11162 H 1270.2 0.783271 -1.35257 0
M  V30 11163 H 1270.93 3.19297 -0.56747 0
M  V30 11164 H 1270.72 3.14528 -2.34125 0
M  V30 11165 H 1272.21 3.84164 -1.63731 0
M  V30 11166 N 1272.64 1.35187 0.810078 0
M  V30 11167 C 1274.06 1.25329 1.38381 0
M  V30 11168 C 1274.41 -0.115799 1.95858 0
M  V30 11169 O 1273.53 -1.01663 1.91033 0
M  V30 11170 C 1274.13 2.2693 2.51572 0
M  V30 11171 C 1272.69 2.20824 3.04818 0
M  V30 11172 C 1271.83 2.1283 1.7776 0
M  V30 11173 H 1274.78 1.46366 0.613402 0
M  V30 11174 H 1274.8 1.89375 3.30026 0
M  V30 11175 H 1274.32 3.26563 2.09709 0
M  V30 11176 H 1272.42 1.24589 3.51153 0
M  V30 11177 H 1272.53 3.12637 3.63036 0
M  V30 11178 H 1270.89 1.58752 1.99173 0
M  V30 11179 H 1271.68 3.14318 1.38054 0
M  V30 11180 N 1274.12 -1.03182 1.19127 0
M  V30 11181 C 1275.4 -1.73586 0.901507 0
M  V30 11182 C 1275.78 -2.02585 -0.593521 0
M  V30 11183 O 1275.13 -1.67813 -1.55084 0
M  V30 11184 C 1275.34 -3.01472 1.75829 0
M  V30 11185 C 1276.69 -3.75037 1.99078 0
M  V30 11186 O 1277.71 -3.11392 1.72956 0
M  V30 11187 O 1276.57 -4.8945 2.43108 0
M  V30 11188 H 1273.66 -0.755797 0.335708 0
M  V30 11189 H 1276.21 -1.09167 1.29925 0
M  V30 11190 H 1274.98 -2.76247 2.77134 0
M  V30 11191 H 1274.6 -3.73631 1.35963 0
M  V30 11192 N 1275.6 -0.99472 -1.22242 0
M  V30 11193 C 1276.83 -0.690097 -1.95052 0
M  V30 11194 C 1277.24 0.745543 -1.73456 0
M  V30 11195 O 1276.6 1.50329 -1.03477 0
M  V30 11196 C 1276.65 -0.988798 -3.47714 0
M  V30 11197 O 1276.37 -2.36803 -3.68587 0
M  V30 11198 C 1277.87 -0.702132 -4.37704 0
M  V30 11199 H 1275.09 -0.255142 -0.620599 0
M  V30 11200 H 1277.64 -1.32998 -1.55344 0
M  V30 11201 H 1275.79 -0.394684 -3.85384 0
M  V30 11202 H 1276.21 -2.4687 -4.62769 0
M  V30 11203 H 1277.68 -0.961389 -5.43564 0
M  V30 11204 H 1278.16 0.363866 -4.3769 0
M  V30 11205 H 1278.76 -1.27738 -4.05664 0
M  V30 11206 N 1277.08 1.37613 -0.768148 0
M  V30 11207 C 1278.49 1.53202 -0.44737 0
M  V30 11208 C 1278.69 1.72736 1.03752 0
M  V30 11209 O 1277.75 1.74667 1.8234 0
M  V30 11210 C 1279.06 2.7306 -1.25931 0
M  V30 11211 C 1280.61 2.8692 -1.25084 0
M  V30 11212 C 1281.09 4.09757 -2.04605 0
M  V30 11213 N 1282.58 4.16862 -2.0194 0
M  V30 11214 C 1283.31 5.10936 -2.60254 0
M  V30 11215 N 1282.81 6.1059 -3.27341 0
M  V30 11216 N 1284.6 5.03393 -2.50104 0
M  V30 11217 H 1276.75 1.23184 -1.7303 0
M  V30 11218 H 1279.02 0.599541 -0.73434 0
M  V30 11219 H 1278.72 2.65078 -2.31141 0
M  V30 11220 H 1278.6 3.66646 -0.886036 0
M  V30 11221 H 1280.98 2.94375 -0.206736 0
M  V30 11222 H 1281.06 1.94303 -1.66373 0
M  V30 11223 H 1280.71 4.03063 -3.09035 0
M  V30 11224 H 1280.64 5.01481 -1.60701 0
M  V30 11225 H 1283.13 3.455 -1.53096 0
M  V30 11226 H 1283.44 6.78893 -3.6922 0
M  V30 11227 H 1281.79 6.10879 -3.31439 0
M  V30 11228 H 1284.98 4.24483 -1.9731 0
M  V30 11229 H 1285.15 5.76524 -2.95844 0
M  V30 11230 N 1278.56 0.518393 1.4883 0
M  V30 11231 C 1279.97 0.0749773 1.86549 0
M  V30 11232 C 1280.32 -1.34429 1.4291 0
M  V30 11233 O 1279.44 -2.00481 0.814648 0
M  V30 11234 C 1280.04 0.129289 3.38553 0
M  V30 11235 C 1278.6 -0.258871 3.75509 0
M  V30 11236 C 1277.74 0.494185 2.72861 0
M  V30 11237 H 1280.7 0.730266 1.409 0
M  V30 11238 H 1280.72 -0.661844 3.747 0
M  V30 11239 H 1280.23 1.16237 3.70285 0
M  V30 11240 H 1278.33 -1.29453 3.49389 0
M  V30 11241 H 1278.44 0.0726769 4.79045 0
M  V30 11242 H 1276.81 -0.0581428 2.54634 0
M  V30 11243 H 1277.59 1.52767 3.07436 0
M  V30 11244 N 1280.03 -1.55556 0.252993 0
M  V30 11245 C 1281 -2.20351 -0.630705 0
M  V30 11246 C 1282 -1.17461 -1.09816 0
M  V30 11247 O 1283.19 -1.42505 -1.00189 0
M  V30 11248 C 1280.32 -2.85192 -1.86757 0
M  V30 11249 H 1281.51 -2.99829 -0.0652939 0
M  V30 11250 H 1279.07 -1.563 0.00347982 0
M  V30 11251 H 1279.8 -2.09669 -2.47406 0
M  V30 11252 H 1279.59 -3.60569 -1.54053 0
M  V30 11253 H 1281.08 -3.34762 -2.49648 0
M  V30 11254 N 1281.51 0.0200419 -1.57587 0
M  V30 11255 C 1282.92 0.565484 -1.7793 0
M  V30 11256 C 1283.27 1.75096 -0.885201 0
M  V30 11257 O 1282.4 2.16243 -0.0823831 0
M  V30 11258 C 1282.99 1.03263 -3.2268 0
M  V30 11259 C 1281.55 1.52352 -3.44189 0
M  V30 11260 C 1280.7 0.465637 -2.73363 0
M  V30 11261 H 1283.65 -0.206174 -1.57355 0
M  V30 11262 H 1283.67 1.89959 -3.2969 0
M  V30 11263 H 1283.18 0.169613 -3.87729 0
M  V30 11264 H 1281.29 2.40809 -2.84327 0
M  V30 11265 H 1281.4 1.5648 -4.52825 0
M  V30 11266 H 1279.76 0.922738 -2.37398 0
M  V30 11267 H 1280.55 -0.388068 -3.411 0
M  V30 11268 N 1282.99 1.54862 0.292472 0
M  V30 11269 C 1284.24 1.74203 1.02458 0
M  V30 11270 C 1284.56 0.535398 1.87506 0
M  V30 11271 O 1283.83 -0.450164 1.90658 0
M  V30 11272 H 1282.41 0.642369 0.381276 0
M  V30 11273 H 1285.07 1.92232 0.321398 0
M  V30 11274 H 1284.17 2.63486 1.67277 0
M  V30 11275 N 1284.47 -0.556076 1.47464 0
M  V30 11276 C 1285.69 -1.3434 1.58011 0
M  V30 11277 C 1286.12 -1.86674 0.231138 0
M  V30 11278 O 1285.48 -1.63029 -0.793174 0
M  V30 11279 C 1285.52 -2.48844 2.60977 0
M  V30 11280 O 1284.63 -3.51108 2.16326 0
M  V30 11281 H 1283.97 -0.398986 0.53076 0
M  V30 11282 H 1286.5 -0.671898 1.93253 0
M  V30 11283 H 1286.51 -2.95398 2.81432 0
M  V30 11284 H 1285.18 -2.10109 3.58925 0
M  V30 11285 H 1283.76 -3.10852 2.05975 0
M  V30 11286 N 1285.95 -1.35615 -0.802897 0
M  V30 11287 C 1287.18 -1.32217 -1.59142 0
M  V30 11288 C 1287.59 0.0995496 -1.88537 0
M  V30 11289 O 1286.95 1.05258 -1.49087 0
M  V30 11290 C 1287 -2.13048 -2.92049 0
M  V30 11291 O 1286.72 -3.49677 -2.63927 0
M  V30 11292 C 1288.22 -2.17278 -3.864 0
M  V30 11293 H 1285.44 -0.454054 -0.49404 0
M  V30 11294 H 1287.98 -1.78521 -0.997516 0
M  V30 11295 H 1286.14 -1.70334 -3.47944 0
M  V30 11296 H 1286.55 -3.917 -3.48814 0
M  V30 11297 H 1288.03 -2.7822 -4.76758 0
M  V30 11298 H 1288.5 -1.17253 -4.23259 0
M  V30 11299 H 1289.11 -2.6017 -3.3644 0
M  V30 11300 N 1287.43 1.02549 -1.19673 0
M  V30 11301 C 1288.39 2.09064 -0.939407 0
M  V30 11302 C 1289.39 1.60593 0.0814837 0
M  V30 11303 O 1290.58 1.73521 -0.153626 0
M  V30 11304 C 1287.71 3.38395 -0.412513 0
M  V30 11305 H 1288.9 2.33325 -1.88413 0
M  V30 11306 H 1286.46 1.19211 -1.01086 0
M  V30 11307 H 1287.19 3.19805 0.538094 0
M  V30 11308 H 1286.98 3.74898 -1.14863 0
M  V30 11309 H 1288.47 4.16841 -0.251678 0
M  V30 11310 N 1288.9 1.00119 1.21713 0
M  V30 11311 C 1290.31 0.715611 1.72441 0
M  V30 11312 C 1290.67 -0.767 1.80587 0
M  V30 11313 O 1289.79 -1.59928 1.45781 0
M  V30 11314 C 1290.39 1.29234 3.13184 0
M  V30 11315 C 1288.94 1.05597 3.61284 0
M  V30 11316 C 1288.09 1.40749 2.38925 0
M  V30 11317 H 1291.04 1.17255 1.06943 0
M  V30 11318 H 1291.06 0.67507 3.74464 0
M  V30 11319 H 1290.58 2.37141 3.07223 0
M  V30 11320 H 1288.68 -0.00610816 3.72599 0
M  V30 11321 H 1288.79 1.72517 4.46961 0
M  V30 11322 H 1287.15 0.826207 2.40927 0
M  V30 11323 H 1287.94 2.49678 2.35618 0
M  V30 11324 N 1290.38 -1.37203 0.775435 0
M  V30 11325 C 1291.79 -1.82224 0.406372 0
M  V30 11326 C 1292.14 -1.64587 -1.06796 0
M  V30 11327 O 1291.27 -1.15903 -1.82744 0
M  V30 11328 C 1291.86 -3.30824 0.730819 0
M  V30 11329 C 1290.42 -3.74108 0.414766 0
M  V30 11330 C 1289.57 -2.59679 0.972747 0
M  V30 11331 H 1292.52 -1.25623 0.969775 0
M  V30 11332 H 1292.54 -3.80496 0.0168066 0
M  V30 11333 H 1292.05 -3.43628 1.80392 0
M  V30 11334 H 1290.15 -3.66871 -0.650866 0
M  V30 11335 H 1290.27 -4.70074 0.925595 0
M  V30 11336 H 1288.63 -2.51591 0.396772 0
M  V30 11337 H 1289.41 -2.75274 2.05132 0
M  V30 11338 N 1291.86 -0.526279 -1.48553 0
M  V30 11339 C 1292.82 0.227739 -2.28066 0
M  V30 11340 C 1293.82 0.871146 -1.35158 0
M  V30 11341 O 1295.01 0.731769 -1.58085 0
M  V30 11342 C 1292.14 1.32918 -3.1392 0
M  V30 11343 H 1293.34 -0.470313 -2.96189 0
M  V30 11344 H 1290.89 -0.282089 -1.53733 0
M  V30 11345 H 1291.63 2.0606 -2.50419 0
M  V30 11346 H 1291.41 0.872991 -3.82258 0
M  V30 11347 H 1292.9 1.85964 -3.73908 0
M  V30 11348 N 1293.34 1.5542 -0.261239 0
M  V30 11349 C 1294.29 2.18644 0.646442 0
M  V30 11350 C 1295.27 1.14672 1.12868 0
M  V30 11351 O 1296.46 1.40534 1.07606 0
M  V30 11352 C 1293.59 2.90045 1.83655 0
M  V30 11353 C 1292.68 4.01289 1.37214 0
M  V30 11354 N 1293.07 5.01949 0.622927 0
M  V30 11355 C 1291.37 4.14107 1.65625 0
M  V30 11356 C 1292.07 5.80454 0.380569 0
M  V30 11357 N 1291.04 5.35253 0.94897 0
M  V30 11358 H 1294.85 2.93826 0.0660348 0
M  V30 11359 H 1292.36 1.62273 -0.0641794 0
M  V30 11360 H 1294.36 3.33778 2.49796 0
M  V30 11361 H 1293.02 2.16369 2.42104 0
M  V30 11362 H 1294.03 5.17187 0.271619 0
M  V30 11363 H 1290.71 3.51613 2.2511 0
M  V30 11364 H 1292.1 6.71545 -0.218528 0
M  V30 11365 N 1294.82 -0.0116844 1.57596 0
M  V30 11366 C 1296.06 -0.697577 1.89679 0
M  V30 11367 C 1296.38 -1.74956 0.861122 0
M  V30 11368 O 1295.65 -1.95629 -0.103031 0
M  V30 11369 H 1294.23 -0.26064 0.700054 0
M  V30 11370 H 1296.9 0.0264782 1.94882 0
M  V30 11371 H 1295.99 -1.17621 2.89088 0
M  V30 11372 N 1296.29 -1.55015 -0.284256 0
M  V30 11373 C 1297.54 -1.7535 -1.01884 0
M  V30 11374 C 1297.87 -0.546825 -1.86342 0
M  V30 11375 O 1297.15 0.455832 -1.89083 0
M  V30 11376 C 1297.43 -3.05219 -1.91084 0
M  V30 11377 C 1297.28 -4.36219 -1.09694 0
M  V30 11378 C 1298.6 -3.31056 -2.89983 0
M  V30 11379 H 1295.72 -0.637981 -0.368984 0
M  V30 11380 H 1298.36 -1.87741 -0.292116 0
M  V30 11381 H 1296.51 -2.94786 -2.53048 0
M  V30 11382 H 1298.19 -4.58594 -0.498876 0
M  V30 11383 H 1296.43 -4.31951 -0.400078 0
M  V30 11384 H 1297.1 -5.23392 -1.75399 0
M  V30 11385 H 1299.58 -3.41209 -2.38151 0
M  V30 11386 H 1298.45 -4.23212 -3.49547 0
M  V30 11387 H 1298.71 -2.50153 -3.64521 0
M  V30 11388 N 1297.77 0.548248 -1.47757 0
M  V30 11389 C 1299 1.3302 -1.58472 0
M  V30 11390 C 1299.41 1.87292 -0.238186 0
M  V30 11391 O 1298.77 1.65465 0.76991 0
M  V30 11392 C 1298.82 2.49386 -2.61704 0
M  V30 11393 O 1298.54 1.97355 -3.9113 0
M  V30 11394 C 1300.04 3.41471 -2.82688 0
M  V30 11395 H 1297.26 0.405172 -0.534861 0
M  V30 11396 H 1299.81 0.663251 -1.93446 0
M  V30 11397 H 1297.96 3.12001 -2.29639 0
M  V30 11398 H 1298.38 2.7339 -4.47614 0
M  V30 11399 H 1299.85 4.19516 -3.58762 0
M  V30 11400 H 1300.33 3.95573 -1.90837 0
M  V30 11401 H 1300.93 2.84664 -3.15985 0
M  V30 11402 N 1299.25 1.36039 0.795694 0
M  V30 11403 C 1300.47 1.33222 1.58955 0
M  V30 11404 C 1300.9 -0.0854596 1.87906 0
M  V30 11405 O 1300.26 -1.05555 1.47403 0
M  V30 11406 C 1300.31 2.15508 2.89117 0
M  V30 11407 O 1299.41 1.54327 3.82436 0
M  V30 11408 H 1298.75 0.456264 0.48241 0
M  V30 11409 H 1301.28 1.79234 0.986726 0
M  V30 11410 H 1301.29 2.2786 3.38444 0
M  V30 11411 H 1299.97 3.18568 2.67371 0
M  V30 11412 H 1298.54 1.50879 3.41013 0
M  V30 11413 N 1300.73 -1.01913 1.20215 0
M  V30 11414 C 1301.69 -2.08563 0.950481 0
M  V30 11415 C 1302.69 -1.60634 -0.0729659 0
M  V30 11416 O 1303.88 -1.73437 0.162826 0
M  V30 11417 C 1301.01 -3.38171 0.430453 0
M  V30 11418 H 1302.21 -2.32323 1.89647 0
M  V30 11419 H 1299.76 -1.18674 1.01716 0
M  V30 11420 H 1300.49 -3.20086 -0.521126 0
M  V30 11421 H 1300.28 -3.74284 1.1685 0
M  V30 11422 H 1301.77 -4.16702 0.273781 0
M  V30 11423 N 1302.21 -1.00763 -1.2118 0
M  V30 11424 C 1303.62 -0.724746 -1.72059 0
M  V30 11425 C 1303.97 0.757413 -1.80991 0
M  V30 11426 O 1303.09 1.59152 -1.46627 0
M  V30 11427 C 1303.69 -1.30893 -3.12494 0
M  V30 11428 C 1302.25 -1.07511 -3.60719 0
M  V30 11429 C 1301.39 -1.42014 -2.38175 0
M  V30 11430 H 1304.35 -1.17821 -1.0632 0
M  V30 11431 H 1304.37 -0.694919 -3.741 0
M  V30 11432 H 1303.88 -2.38767 -3.05961 0
M  V30 11433 H 1301.98 -0.0136518 -3.72597 0
M  V30 11434 H 1302.09 -1.74885 -4.4604 0
M  V30 11435 H 1300.46 -0.838972 -2.40486 0
M  V30 11436 H 1301.24 -2.50924 -2.34291 0
M  V30 11437 N 1303.68 1.3679 -0.7827 0
M  V30 11438 C 1304.96 1.93639 -0.276278 0
M  V30 11439 C 1305.34 1.7153 1.23048 0
M  V30 11440 O 1304.69 1.07037 2.01879 0
M  V30 11441 C 1304.9 3.42672 -0.661586 0
M  V30 11442 C 1306.25 4.19786 -0.637538 0
M  V30 11443 O 1307.27 3.51082 -0.601645 0
M  V30 11444 O 1306.13 5.42323 -0.674408 0
M  V30 11445 H 1303.22 0.824307 -0.0666832 0
M  V30 11446 H 1305.77 1.46012 -0.864792 0
M  V30 11447 H 1304.54 3.52393 -1.70103 0
M  V30 11448 H 1304.17 3.97573 -0.0465987 0
M  V30 11449 N 1305.16 0.53415 1.48272 0
M  V30 11450 C 1306.39 0.00574475 2.06899 0
M  V30 11451 C 1306.81 -1.27754 1.39012 0
M  V30 11452 O 1306.16 -1.76102 0.478993 0
M  V30 11453 C 1306.21 -0.217576 3.60845 0
M  V30 11454 O 1305.93 1.01487 4.26183 0
M  V30 11455 C 1307.44 -0.785888 4.36278 0
M  V30 11456 H 1304.66 0.0353967 0.670066 0
M  V30 11457 H 1307.2 0.740984 1.90603 0
M  V30 11458 H 1305.35 -0.902875 3.76732 0
M  V30 11459 H 1305.77 0.7982 5.18391 0
M  V30 11460 H 1307.24 -0.891551 5.44753 0
M  V30 11461 H 1307.72 -1.79178 4.00989 0
M  V30 11462 H 1308.33 -0.137022 4.25079 0
M  V30 11463 N 1306.64 -1.55279 0.269478 0
M  V30 11464 C 1308.06 -1.59374 -0.0848147 0
M  V30 11465 C 1308.26 -1.2867 -1.55068 0
M  V30 11466 O 1307.31 -1.04486 -2.29867 0
M  V30 11467 C 1308.63 -2.99349 0.284735 0
M  V30 11468 C 1310.17 -3.12147 0.230887 0
M  V30 11469 C 1310.65 -4.54379 0.574795 0
M  V30 11470 N 1312.14 -4.60202 0.526136 0
M  V30 11471 C 1312.87 -5.68273 0.765109 0
M  V30 11472 N 1312.37 -6.84512 1.0684 0
M  V30 11473 N 1314.16 -5.57796 0.694287 0
M  V30 11474 H 1306.31 -1.73503 1.22517 0
M  V30 11475 H 1308.58 -0.808771 0.494564 0
M  V30 11476 H 1308.28 -3.26633 1.30398 0
M  V30 11477 H 1308.16 -3.75309 -0.377199 0
M  V30 11478 H 1310.54 -2.84631 -0.779064 0
M  V30 11479 H 1310.63 -2.38412 0.926998 0
M  V30 11480 H 1310.27 -4.8262 1.58241 0
M  V30 11481 H 1310.2 -5.26406 -0.143044 0
M  V30 11482 H 1312.69 -3.76696 0.301368 0
M  V30 11483 H 1313 -7.62826 1.23757 0
M  V30 11484 H 1311.35 -6.86141 1.10612 0
M  V30 11485 H 1314.54 -4.65862 0.457226 0
M  V30 11486 H 1314.71 -6.41943 0.883913 0
M  V30 11487 N 1308.12 0.00332656 -1.576 0
M  V30 11488 C 1309.53 0.546581 -1.7852 0
M  V30 11489 C 1309.88 1.74147 -0.903722 0
M  V30 11490 O 1309.01 2.16144 -0.105314 0
M  V30 11491 C 1309.6 0.998344 -3.23757 0
M  V30 11492 C 1308.16 1.48693 -3.45785 0
M  V30 11493 C 1307.31 0.436617 -2.73841 0
M  V30 11494 H 1310.26 -0.222852 -1.57128 0
M  V30 11495 H 1310.28 1.86452 -3.31686 0
M  V30 11496 H 1309.79 0.128479 -3.87887 0
M  V30 11497 H 1307.89 2.3778 -2.86865 0
M  V30 11498 H 1308 1.51668 -4.5446 0
M  V30 11499 H 1306.37 0.897506 -2.38363 0
M  V30 11500 H 1307.15 -0.424225 -3.40669 0
M  V30 11501 N 1309.6 1.55164 0.276031 0
M  V30 11502 C 1310.56 1.87065 1.32436 0
M  V30 11503 C 1311.56 0.745024 1.42499 0
M  V30 11504 O 1312.75 1.01321 1.41702 0
M  V30 11505 C 1309.88 2.07322 2.70611 0
M  V30 11506 H 1311.07 2.80775 1.05382 0
M  V30 11507 H 1308.63 1.47609 0.513947 0
M  V30 11508 H 1309.36 1.15983 3.0285 0
M  V30 11509 H 1309.15 2.89275 2.64693 0
M  V30 11510 H 1310.64 2.33287 3.46362 0
M  V30 11511 N 1311.07 -0.540404 1.48045 0
M  V30 11512 C 1312.49 -1.12243 1.49192 0
M  V30 11513 C 1312.84 -1.94524 0.255895 0
M  V30 11514 O 1311.96 -2.06786 -0.637855 0
M  V30 11515 C 1312.56 -2.04227 2.70327 0
M  V30 11516 C 1311.12 -2.57668 2.7438 0
M  V30 11517 C 1310.26 -1.34402 2.42552 0
M  V30 11518 H 1313.21 -0.326165 1.55312 0
M  V30 11519 H 1313.23 -2.88359 2.48253 0
M  V30 11520 H 1312.75 -1.44314 3.60271 0
M  V30 11521 H 1310.85 -3.21331 1.88618 0
M  V30 11522 H 1310.96 -2.97514 3.7553 0
M  V30 11523 H 1309.32 -1.65635 1.93487 0
M  V30 11524 H 1310.11 -0.762571 3.34723 0
M  V30 11525 N 1312.55 -1.36459 -0.788468 0
M  V30 11526 C 1313.8 -1.30483 -1.54333 0
M  V30 11527 C 1314.12 0.115266 -1.94659 0
M  V30 11528 O 1313.39 1.05573 -1.65019 0
M  V30 11529 H 1311.97 -0.480004 -0.572368 0
M  V30 11530 H 1314.63 -1.70765 -0.939428 0
M  V30 11531 H 1313.73 -1.93284 -2.45046 0
M  V30 11532 N 1314.03 1.01274 -1.20754 0
M  V30 11533 C 1315.26 1.7906 -1.04653 0
M  V30 11534 C 1315.68 1.83806 0.399632 0
M  V30 11535 O 1315.04 1.27596 1.28798 0
M  V30 11536 C 1315.09 3.21187 -1.63925 0
M  V30 11537 O 1314.19 4.02913 -0.879486 0
M  V30 11538 H 1313.53 0.552147 -0.368823 0
M  V30 11539 H 1316.06 1.27356 -1.6013 0
M  V30 11540 H 1316.07 3.71887 -1.67822 0
M  V30 11541 H 1314.75 3.17048 -2.69172 0
M  V30 11542 H 1313.32 3.61499 -0.915019 0
M  V30 11543 N 1315.51 1.01404 1.20644 0
M  V30 11544 C 1316.74 0.72104 1.93929 0
M  V30 11545 C 1317.15 -0.717853 1.7462 0
M  V30 11546 O 1316.51 -1.48664 1.05855 0
M  V30 11547 C 1316.56 1.04399 3.46097 0
M  V30 11548 O 1316.28 2.42637 3.64773 0
M  V30 11549 C 1317.78 0.771678 4.36532 0
M  V30 11550 H 1315 0.264983 0.616462 0
M  V30 11551 H 1317.55 1.35453 1.53208 0
M  V30 11552 H 1315.7 0.455946 3.84708 0
M  V30 11553 H 1316.12 2.54201 4.58783 0
M  V30 11554 H 1317.59 1.04774 5.41965 0
M  V30 11555 H 1318.07 -0.294188 4.38214 0
M  V30 11556 H 1318.67 1.34176 4.0358 0
M  V30 11557 N 1316.99 -1.36373 0.789944 0
M  V30 11558 C 1317.95 -2.28372 0.194639 0
M  V30 11559 C 1318.95 -1.48849 -0.608332 0
M  V30 11560 O 1320.14 -1.68829 -0.42925 0
M  V30 11561 C 1317.27 -3.3298 -0.730553 0
M  V30 11562 H 1318.47 -2.82529 1.00585 0
M  V30 11563 H 1316.02 -1.45946 0.559406 0
M  V30 11564 H 1316.75 -2.8398 -1.56608 0
M  V30 11565 H 1316.54 -3.91787 -0.156706 0
M  V30 11566 H 1318.03 -4.01684 -1.14192 0
M  V30 11567 N 1318.47 -0.542005 -1.47987 0
M  V30 11568 C 1319.88 -0.104646 -1.86406 0
M  V30 11569 C 1320.23 1.32139 -1.4503 0
M  V30 11570 O 1319.35 1.99159 -0.846439 0
M  V30 11571 C 1319.95 -0.183133 -3.38305 0
M  V30 11572 C 1318.51 0.199098 -3.75873 0
M  V30 11573 C 1317.65 -0.537532 -2.7204 0
M  V30 11574 H 1320.6 -0.75259 -1.3972 0
M  V30 11575 H 1320.63 0.602149 -3.75705 0
M  V30 11576 H 1320.14 -1.22113 -3.68389 0
M  V30 11577 H 1318.24 1.23878 -3.51404 0
M  V30 11578 H 1318.35 -0.14888 -4.78869 0
M  V30 11579 H 1316.72 0.0176255 -2.54694 0
M  V30 11580 H 1317.5 -1.57639 -3.04967 0
M  V30 11581 N 1319.94 1.55134 -0.277709 0
M  V30 11582 C 1321.35 1.85405 0.219543 0
M  V30 11583 C 1321.71 1.19973 1.55245 0
M  V30 11584 O 1320.83 0.488986 2.10803 0
M  V30 11585 C 1321.43 3.36369 0.405127 0
M  V30 11586 C 1319.98 3.66755 0.846609 0
M  V30 11587 C 1319.13 2.77238 -0.0586063 0
M  V30 11588 H 1322.08 1.50637 -0.499422 0
M  V30 11589 H 1322.1 3.59615 1.24329 0
M  V30 11590 H 1321.62 3.83963 -0.565138 0
M  V30 11591 H 1319.72 3.24662 1.82825 0
M  V30 11592 H 1319.83 4.74219 0.682135 0
M  V30 11593 H 1318.19 2.50546 0.458153 0
M  V30 11594 H 1318.98 3.27647 -1.0248 0
M  V30 11595 N 1321.42 0.00503138 1.57599 0
M  V30 11596 C 1322.38 -0.969628 2.0768 0
M  V30 11597 C 1323.38 -1.26933 0.987148 0
M  V30 11598 O 1324.57 -1.21368 1.24962 0
M  V30 11599 C 1321.71 -2.29312 2.52247 0
M  V30 11600 H 1322.9 -0.536342 2.95065 0
M  V30 11601 H 1320.45 -0.242543 1.54407 0
M  V30 11602 H 1321.19 -2.7732 1.6812 0
M  V30 11603 H 1320.97 -2.08878 3.31832 0
M  V30 11604 H 1322.46 -2.99221 2.91302 0
M  V30 11605 N 1322.9 -1.55308 -0.267798 0
M  V30 11606 C 1323.85 -1.84933 -1.33356 0
M  V30 11607 C 1324.83 -0.708605 -1.44456 0
M  V30 11608 O 1326.03 -0.970069 -1.4805 0
M  V30 11609 C 1323.15 -2.12927 -2.69289 0
M  V30 11610 C 1322.24 -3.33273 -2.62279 0
M  V30 11611 N 1322.63 -4.53055 -2.24889 0
M  V30 11612 C 1320.93 -3.35966 -2.93331 0
M  V30 11613 C 1321.63 -5.35156 -2.27998 0
M  V30 11614 N 1320.61 -4.73692 -2.66677 0
M  V30 11615 H 1324.41 -2.75086 -1.03465 0
M  V30 11616 H 1321.92 -1.55254 -0.476435 0
M  V30 11617 H 1323.92 -2.32309 -3.46177 0
M  V30 11618 H 1322.58 -1.24061 -3.00065 0
M  V30 11619 H 1323.59 -4.79059 -1.9678 0
M  V30 11620 H 1320.27 -2.57308 -3.28784 0
M  V30 11621 H 1321.66 -6.4094 -2.01608 0
M  V30 11622 N 1324.38 0.532545 -1.4833 0
M  V30 11623 C 1325.63 1.28597 -1.55908 0
M  V30 11624 C 1325.95 1.93595 -0.233635 0
M  V30 11625 O 1325.22 1.81197 0.744605 0
M  V30 11626 H 1323.8 0.477619 -0.57436 0
M  V30 11627 H 1326.46 0.619922 -1.84778 0
M  V30 11628 H 1325.55 2.0666 -2.33877 0
M  V30 11629 N 1325.86 1.36875 0.78122 0
M  V30 11630 C 1327.1 1.31754 1.54171 0
M  V30 11631 C 1327.43 -0.100632 1.93939 0
M  V30 11632 O 1326.71 -1.05587 1.63345 0
M  V30 11633 C 1326.99 2.24789 2.81322 0
M  V30 11634 C 1326.85 3.75342 2.47868 0
M  V30 11635 C 1328.16 2.16442 3.83198 0
M  V30 11636 H 1325.28 0.479931 0.559317 0
M  V30 11637 H 1327.93 1.67497 0.896935 0
M  V30 11638 H 1326.08 1.94438 3.36342 0
M  V30 11639 H 1327.75 4.16247 1.98836 0
M  V30 11640 H 1325.99 3.94375 1.80696 0
M  V30 11641 H 1326.66 4.3586 3.38719 0
M  V30 11642 H 1329.14 2.43175 3.37647 0
M  V30 11643 H 1328.01 2.83695 4.69903 0
M  V30 11644 H 1328.27 1.15431 4.26765 0
M  V30 11645 N 1327.33 -1.00632 1.21289 0
M  V30 11646 C 1328.56 -1.77967 1.05524 0
M  V30 11647 C 1328.98 -1.84621 -0.395023 0
M  V30 11648 O 1328.33 -1.30664 -1.27409 0
M  V30 11649 C 1328.38 -3.21939 1.64432 0
M  V30 11650 O 1328.11 -3.15669 3.03784 0
M  V30 11651 C 1329.61 -4.1578 1.5376 0
M  V30 11652 H 1326.83 -0.559341 0.370646 0
M  V30 11653 H 1329.37 -1.26604 1.60598 0
M  V30 11654 H 1327.53 -3.70415 1.13453 0
M  V30 11655 H 1327.94 -4.06112 3.31924 0
M  V30 11656 H 1329.41 -5.14602 1.99722 0
M  V30 11657 H 1329.89 -4.36438 0.491811 0
M  V30 11658 H 1330.5 -3.73192 2.0398 0
M  V30 11659 N 1328.81 -1.02043 -1.20104 0
M  V30 11660 C 1330.04 -0.731142 -1.94085 0
M  V30 11661 C 1330.46 0.702467 -1.74491 0
M  V30 11662 O 1329.82 1.48387 -1.04168 0
M  V30 11663 C 1329.87 -1.07691 -3.44144 0
M  V30 11664 O 1328.97 -0.190751 -4.11959 0
M  V30 11665 H 1328.31 -0.270917 -0.606218 0
M  V30 11666 H 1330.84 -1.36483 -1.52426 0
M  V30 11667 H 1330.85 -1.03023 -3.94779 0
M  V30 11668 H 1329.53 -2.1214 -3.57728 0
M  V30 11669 H 1328.1 -0.29529 -3.71729 0
M  V30 11670 N 1330.29 1.35952 -0.797165 0
M  V30 11671 C 1331.25 2.28266 -0.206748 0
M  V30 11672 C 1332.25 1.49169 0.60043 0
M  V30 11673 O 1333.44 1.69054 0.42029 0
M  V30 11674 C 1330.58 3.33363 0.712884 0
M  V30 11675 H 1331.77 2.81992 -1.02082 0
M  V30 11676 H 1329.32 1.45648 -0.567138 0
M  V30 11677 H 1330.06 2.84806 1.551 0
M  V30 11678 H 1329.84 3.91864 0.135926 0
M  V30 11679 H 1331.33 4.02284 1.1206 0
M  V30 11680 N 1331.77 0.549846 1.47697 0
M  V30 11681 C 1333.18 0.11453 1.86348 0
M  V30 11682 C 1333.53 -1.31368 1.45729 0
M  V30 11683 O 1332.66 -1.98707 0.856989 0
M  V30 11684 C 1333.25 0.201072 3.38203 0
M  V30 11685 C 1331.81 -0.179162 3.75973 0
M  V30 11686 C 1330.96 0.551951 2.71751 0
M  V30 11687 H 1333.91 0.759989 1.39319 0
M  V30 11688 H 1333.93 -0.582216 3.76019 0
M  V30 11689 H 1333.44 1.24065 3.67736 0
M  V30 11690 H 1331.54 -1.22013 3.52056 0
M  V30 11691 H 1331.65 0.174273 4.78783 0
M  V30 11692 H 1330.02 -0.00411819 2.547 0
M  V30 11693 H 1330.8 1.59254 3.04127 0
M  V30 11694 N 1333.25 -1.54984 0.285932 0
M  V30 11695 C 1334.52 -1.91872 -0.380083 0
M  V30 11696 C 1334.9 -1.21146 -1.72878 0
M  V30 11697 O 1334.25 -0.341999 -2.25926 0
M  V30 11698 C 1334.46 -3.45258 -0.509667 0
M  V30 11699 C 1335.81 -4.17232 -0.787549 0
M  V30 11700 O 1336.83 -3.51211 -0.594062 0
M  V30 11701 O 1335.69 -5.34085 -1.15826 0
M  V30 11702 H 1332.79 -0.799931 -0.209856 0
M  V30 11703 H 1335.33 -1.66403 0.332882 0
M  V30 11704 H 1334.1 -3.88829 0.439049 0
M  V30 11705 H 1333.73 -3.76715 -1.27168 0
M  V30 11706 N 1334.72 -0.0133892 -1.57594 0
M  V30 11707 C 1335.95 0.679255 -1.95432 0
M  V30 11708 C 1336.37 1.66558 -0.889028 0
M  V30 11709 O 1335.72 1.82031 0.130755 0
M  V30 11710 C 1335.78 1.39943 -3.33314 0
M  V30 11711 O 1335.5 0.452643 -4.35755 0
M  V30 11712 C 1337 2.18535 -3.85691 0
M  V30 11713 H 1334.22 0.188337 -0.644026 0
M  V30 11714 H 1336.76 -0.0684861 -2.04385 0
M  V30 11715 H 1334.92 2.0987 -3.25628 0
M  V30 11716 H 1335.33 0.962243 -5.15598 0
M  V30 11717 H 1336.8 2.64403 -4.84557 0
M  V30 11718 H 1337.28 3.01779 -3.19102 0
M  V30 11719 H 1337.89 1.53598 -3.96595 0
M  V30 11720 N 1336.2 1.55448 0.259558 0
M  V30 11721 C 1337.62 1.47588 0.607442 0
M  V30 11722 C 1337.82 0.701053 1.88911 0
M  V30 11723 O 1336.87 0.225305 2.51493 0
M  V30 11724 C 1338.19 2.91905 0.72192 0
M  V30 11725 C 1339.74 3.02201 0.815087 0
M  V30 11726 C 1340.21 4.47799 0.961231 0
M  V30 11727 N 1341.7 4.51684 1.02642 0
M  V30 11728 C 1342.44 5.61574 1.15854 0
M  V30 11729 N 1341.93 6.81301 1.257 0
M  V30 11730 N 1343.73 5.49344 1.1907 0
M  V30 11731 H 1335.88 2.04271 -0.581981 0
M  V30 11732 H 1338.14 0.926865 -0.199059 0
M  V30 11733 H 1337.85 3.51382 -0.149611 0
M  V30 11734 H 1337.72 3.41681 1.59793 0
M  V30 11735 H 1340.11 2.42813 1.67708 0
M  V30 11736 H 1340.19 2.55656 -0.0858102 0
M  V30 11737 H 1339.83 5.07794 0.103848 0
M  V30 11738 H 1339.76 4.92013 1.87698 0
M  V30 11739 H 1342.25 3.65446 0.962184 0
M  V30 11740 H 1342.57 7.60801 1.35652 0
M  V30 11741 H 1340.91 6.84087 1.2268 0
M  V30 11742 H 1344.1 4.54745 1.11018 0
M  V30 11743 H 1344.27 6.35025 1.29022 0
M  V30 11744 N 1337.68 -0.524672 1.4861 0
M  V30 11745 C 1339.09 -1.10655 1.50374 0
M  V30 11746 C 1339.44 -1.94242 0.276512 0
M  V30 11747 O 1338.57 -2.07451 -0.615887 0
M  V30 11748 C 1339.16 -2.01348 2.72478 0
M  V30 11749 C 1337.72 -2.54743 2.77097 0
M  V30 11750 C 1336.87 -1.31822 2.43964 0
M  V30 11751 H 1339.82 -0.309674 1.55649 0
M  V30 11752 H 1339.84 -2.85709 2.51297 0
M  V30 11753 H 1339.35 -1.40485 3.61781 0
M  V30 11754 H 1337.45 -3.19313 1.92016 0
M  V30 11755 H 1337.57 -2.93514 3.78664 0
M  V30 11756 H 1335.93 -1.63574 1.95233 0
M  V30 11757 H 1336.71 -0.727026 3.35513 0
M  V30 11758 N 1339.16 -1.37287 -0.77395 0
M  V30 11759 C 1340.12 -1.32699 -1.86878 0
M  V30 11760 C 1341.12 -0.231486 -1.59125 0
M  V30 11761 O 1342.31 -0.487203 -1.67248 0
M  V30 11762 C 1339.44 -1.0609 -3.23972 0
M  V30 11763 H 1340.64 -2.30083 -1.92359 0
M  V30 11764 H 1338.19 -1.22284 -0.973459 0
M  V30 11765 H 1338.92 -0.0922868 -3.24169 0
M  V30 11766 H 1338.71 -1.85383 -3.45508 0
M  V30 11767 H 1340.2 -1.05524 -4.04048 0
M  V30 11768 N 1340.64 0.999871 -1.21821 0
M  V30 11769 C 1342.05 1.5529 -1.03642 0
M  V30 11770 C 1342.4 1.92032 0.402246 0
M  V30 11771 O 1341.52 1.74027 1.28622 0
M  V30 11772 C 1342.12 2.82177 -1.87514 0
M  V30 11773 C 1340.68 3.33949 -1.73653 0
M  V30 11774 C 1339.82 2.07095 -1.84409 0
M  V30 11775 H 1342.78 0.821751 -1.35768 0
M  V30 11776 H 1342.8 3.54264 -1.38842 0
M  V30 11777 H 1342.31 2.55405 -2.92216 0
M  V30 11778 H 1340.41 3.65645 -0.716554 0
M  V30 11779 H 1340.52 4.05022 -2.55918 0
M  V30 11780 H 1338.89 2.20332 -1.27773 0
M  V30 11781 H 1339.67 1.82728 -2.90629 0
M  V30 11782 N 1342.11 1.02678 1.19562 0
M  V30 11783 C 1343.36 0.72059 1.88817 0
M  V30 11784 C 1343.68 -0.752942 1.79877 0
M  V30 11785 O 1342.95 -1.54233 1.20785 0
M  V30 11786 H 1341.53 0.26355 0.698964 0
M  V30 11787 H 1344.2 1.30056 1.4516 0
M  V30 11788 H 1343.29 1.01303 2.95202 0
M  V30 11789 N 1343.59 -1.35528 0.804364 0
M  V30 11790 C 1344.82 -2.03604 0.395013 0
M  V30 11791 C 1345.24 -1.60225 -0.985371 0
M  V30 11792 O 1344.6 -0.777844 -1.63766 0
M  V30 11793 C 1344.65 -3.57337 0.484011 0
M  V30 11794 O 1343.75 -4.09316 -0.503395 0
M  V30 11795 H 1343.09 -0.643089 0.165325 0
M  V30 11796 H 1345.62 -1.73171 1.08963 0
M  V30 11797 H 1345.63 -4.0647 0.353009 0
M  V30 11798 H 1344.31 -3.8826 1.49088 0
M  V30 11799 H 1342.89 -3.71412 -0.332817 0
M  V30 11800 N 1345.07 -0.557671 -1.47404 0
M  V30 11801 C 1346.3 -0.0386599 -2.06864 0
M  V30 11802 C 1346.71 1.25527 -1.41027 0
M  V30 11803 O 1346.07 1.75318 -0.506949 0
M  V30 11804 C 1346.12 0.160141 -3.61145 0
M  V30 11805 O 1345.84 -1.08255 -4.24515 0
M  V30 11806 C 1347.34 0.716381 -4.37473 0
M  V30 11807 H 1344.56 -0.0460523 -0.669418 0
M  V30 11808 H 1347.11 -0.771214 -1.894 0
M  V30 11809 H 1345.26 0.842826 -3.78121 0
M  V30 11810 H 1345.68 -0.88057 -5.17055 0
M  V30 11811 H 1347.15 0.804773 -5.46102 0
M  V30 11812 H 1347.63 1.72776 -4.03788 0
M  V30 11813 H 1348.23 0.0693787 -4.25243 0
M  V30 11814 N 1346.55 1.54831 -0.294147 0
M  V30 11815 C 1347.51 2.21946 0.572061 0
M  V30 11816 C 1348.51 1.20331 1.06663 0
M  V30 11817 O 1349.7 1.45112 0.963757 0
M  V30 11818 C 1346.83 2.90044 1.7913 0
M  V30 11819 H 1348.03 2.99897 -0.0142234 0
M  V30 11820 H 1345.58 1.56235 -0.0449187 0
M  V30 11821 H 1346.32 2.16154 2.4176 0
M  V30 11822 H 1346.1 3.64527 1.44439 0
M  V30 11823 H 1347.59 3.41263 2.40684 0
M  V30 11824 N 1348.03 0.0217466 1.57585 0
M  V30 11825 C 1349.44 -0.51811 1.79367 0
M  V30 11826 C 1349.79 -1.72688 0.931313 0
M  V30 11827 O 1348.91 -2.15949 0.139687 0
M  V30 11828 C 1349.51 -0.946711 3.25304 0
M  V30 11829 C 1348.07 -1.43173 3.48107 0
M  V30 11830 C 1347.22 -0.392996 2.74501 0
M  V30 11831 H 1350.17 0.247822 1.56753 0
M  V30 11832 H 1350.19 -1.81152 3.34611 0
M  V30 11833 H 1349.7 -0.0667536 3.88043 0
M  V30 11834 H 1347.8 -2.33186 2.90612 0
M  V30 11835 H 1347.91 -1.44419 4.56815 0
M  V30 11836 H 1346.28 -0.859471 2.39761 0
M  V30 11837 H 1347.06 0.478368 3.39951 0
M  V30 11838 N 1349.51 -1.55583 -0.251311 0
M  V30 11839 C 1350.92 -1.67693 -0.820719 0
M  V30 11840 C 1351.27 -0.618393 -1.862 0
M  V30 11841 O 1350.39 0.236158 -2.15108 0
M  V30 11842 C 1350.99 -3.04011 -1.49542 0
M  V30 11843 C 1349.55 -3.18075 -2.01259 0
M  V30 11844 C 1348.69 -2.63557 -0.862138 0
M  V30 11845 H 1351.64 -1.58677 -0.0272072 0
M  V30 11846 H 1351.67 -2.9821 -2.36328 0
M  V30 11847 H 1351.18 -3.81032 -0.737323 0
M  V30 11848 H 1349.28 -2.45869 -2.79963 0
M  V30 11849 H 1349.39 -4.24927 -2.213 0
M  V30 11850 H 1347.76 -2.21268 -1.26145 0
M  V30 11851 H 1348.54 -3.431 -0.117196 0
M  V30 11852 N 1350.98 0.516783 -1.48886 0
M  V30 11853 C 1351.95 1.60226 -1.63891 0
M  V30 11854 C 1352.95 1.52448 -0.511479 0
M  V30 11855 O 1354.14 1.55882 -0.777582 0
M  V30 11856 C 1351.27 2.99867 -1.62151 0
M  V30 11857 H 1352.46 1.48256 -2.60692 0
M  V30 11858 H 1350.01 0.739844 -1.37681 0
M  V30 11859 H 1350.75 3.1733 -0.668764 0
M  V30 11860 H 1350.53 3.0692 -2.44013 0
M  V30 11861 H 1352.02 3.7876 -1.7587 0
M  V30 11862 N 1352.46 1.37696 0.766659 0
M  V30 11863 C 1353.41 1.30383 1.87041 0
M  V30 11864 C 1354.4 0.190643 1.59767 0
M  V30 11865 O 1355.59 0.425485 1.7181 0
M  V30 11866 C 1352.72 1.11817 3.2458 0
M  V30 11867 C 1351.8 2.27701 3.57789 0
M  V30 11868 N 1352.19 3.53108 3.62144 0
M  V30 11869 C 1350.49 2.19967 3.87983 0
M  V30 11870 C 1351.19 4.29555 3.92247 0
M  V30 11871 N 1350.17 3.58754 4.08408 0
M  V30 11872 H 1353.97 2.25348 1.88668 0
M  V30 11873 H 1351.48 1.30741 0.963362 0
M  V30 11874 H 1353.48 1.04663 4.03548 0
M  V30 11875 H 1352.14 0.177731 3.24213 0
M  V30 11876 H 1353.15 3.86949 3.44225 0
M  V30 11877 H 1349.83 1.34009 3.95408 0
M  V30 11878 H 1351.22 5.38112 4.0235 0
M  V30 11879 N 1353.94 -0.993397 1.22349 0
M  V30 11880 C 1355.19 -1.72945 1.04568 0
M  V30 11881 C 1355.51 -1.90419 -0.420178 0
M  V30 11882 O 1354.78 -1.46348 -1.30227 0
M  V30 11883 H 1353.36 -0.640777 0.383945 0
M  V30 11884 H 1356.02 -1.19647 1.53853 0
M  V30 11885 H 1355.12 -2.72411 1.52311 0
M  V30 11886 N 1355.42 -1.03311 -1.19015 0
M  V30 11887 C 1356.66 -0.733124 -1.89085 0
M  V30 11888 C 1357 0.73675 -1.79682 0
M  V30 11889 O 1356.27 1.53692 -1.19201 0
M  V30 11890 C 1356.55 -1.19028 -3.39859 0
M  V30 11891 C 1356.41 -2.72169 -3.58112 0
M  V30 11892 C 1357.73 -0.774383 -4.33234 0
M  V30 11893 H 1354.85 -0.2678 -0.686624 0
M  V30 11894 H 1357.49 -1.28378 -1.40068 0
M  V30 11895 H 1355.64 -0.721799 -3.81736 0
M  V30 11896 H 1357.31 -3.26996 -3.25379 0
M  V30 11897 H 1355.55 -3.12358 -3.01023 0
M  V30 11898 H 1356.22 -2.99213 -4.6387 0
M  V30 11899 H 1358.7 -1.17739 -3.99095 0
M  V30 11900 H 1357.58 -1.12209 -5.37308 0
M  V30 11901 H 1357.84 0.322989 -4.40919 0
M  V30 11902 N 1356.9 1.35099 -0.81154 0
M  V30 11903 C 1358.12 2.0286 -0.406855 0
M  V30 11904 C 1358.54 1.61147 0.98372 0
M  V30 11905 O 1357.9 0.811398 1.6347 0
M  V30 11906 C 1357.95 3.58214 -0.486305 0
M  V30 11907 O 1357.67 3.98412 -1.82206 0
M  V30 11908 C 1359.17 4.43236 -0.0750619 0
M  V30 11909 H 1356.39 0.650482 -0.164664 0
M  V30 11910 H 1358.93 1.72616 -1.09654 0
M  V30 11911 H 1357.09 3.87089 0.155177 0
M  V30 11912 H 1357.5 4.93072 -1.78831 0
M  V30 11913 H 1358.98 5.51701 -0.181759 0
M  V30 11914 H 1359.45 4.28123 0.980169 0
M  V30 11915 H 1360.06 4.19667 -0.689894 0
M  V30 11916 N 1358.37 0.56548 1.47106 0
M  V30 11917 C 1359.6 0.0476763 2.07345 0
M  V30 11918 C 1360.02 -1.24032 1.41413 0
M  V30 11919 O 1359.38 -1.74498 0.491941 0
M  V30 11920 C 1359.43 -0.122618 3.60391 0
M  V30 11921 O 1358.53 -1.18326 3.9506 0
M  V30 11922 H 1357.87 0.0550419 0.661715 0
M  V30 11923 H 1360.4 0.78352 1.89003 0
M  V30 11924 H 1360.41 -0.334227 4.06629 0
M  V30 11925 H 1359.09 0.81807 4.07775 0
M  V30 11926 H 1357.67 -0.951481 3.60557 0
M  V30 11927 N 1359.85 -1.54672 0.302354 0
M  V30 11928 C 1360.82 -2.22246 -0.560283 0
M  V30 11929 C 1361.82 -1.20895 -1.06023 0
M  V30 11930 O 1363.01 -1.45621 -0.956047 0
M  V30 11931 C 1360.14 -2.9099 -1.77589 0
M  V30 11932 H 1361.33 -2.99885 0.0301274 0
M  V30 11933 H 1358.88 -1.56209 0.0532036 0
M  V30 11934 H 1359.62 -2.17433 -2.4061 0
M  V30 11935 H 1359.4 -3.65288 -1.42503 0
M  V30 11936 H 1360.89 -3.42535 -2.38871 0
M  V30 11937 N 1361.33 -0.0301034 -1.57571 0
M  V30 11938 C 1362.74 0.508591 -1.79639 0
M  V30 11939 C 1363.09 1.72191 -0.940458 0
M  V30 11940 O 1362.22 2.15872 -0.151138 0
M  V30 11941 C 1362.81 0.929446 -3.25802 0
M  V30 11942 C 1361.37 1.41325 -3.48861 0
M  V30 11943 C 1360.52 0.378433 -2.74706 0
M  V30 11944 H 1363.47 -0.256131 -1.56619 0
M  V30 11945 H 1363.49 1.79374 -3.35567 0
M  V30 11946 H 1363 0.0461738 -3.88073 0
M  V30 11947 H 1361.1 2.31641 -2.91844 0
M  V30 11948 H 1361.22 1.41995 -4.57574 0
M  V30 11949 H 1359.58 0.846744 -2.40213 0
M  V30 11950 H 1360.36 -0.49639 -3.39692 0
M  V30 11951 N 1362.81 1.55714 0.243056 0
M  V30 11952 C 1364.09 1.68483 0.993614 0
M  V30 11953 C 1364.47 0.571112 2.03228 0
M  V30 11954 O 1363.81 -0.42491 2.24515 0
M  V30 11955 C 1364.02 3.0894 1.62349 0
M  V30 11956 C 1365.37 3.67663 2.12389 0
M  V30 11957 O 1366.4 3.11764 1.72283 0
M  V30 11958 O 1365.25 4.65664 2.8604 0
M  V30 11959 H 1362.35 0.685415 0.462747 0
M  V30 11960 H 1364.89 1.68043 0.236538 0
M  V30 11961 H 1363.67 3.81451 0.87241 0
M  V30 11962 H 1363.29 3.13407 2.44667 0
M  V30 11963 N 1364.29 -0.50888 1.49158 0
M  V30 11964 C 1365.51 -1.28771 1.61943 0
M  V30 11965 C 1365.93 -1.86594 0.287759 0
M  V30 11966 O 1365.29 -1.67448 -0.725769 0
M  V30 11967 C 1365.34 -2.4236 2.68224 0
M  V30 11968 O 1365.06 -1.86915 3.96225 0
M  V30 11969 C 1366.56 -3.33856 2.91642 0
M  V30 11970 H 1363.78 -0.390849 0.545416 0
M  V30 11971 H 1366.32 -0.611729 1.95136 0
M  V30 11972 H 1364.48 -3.05803 2.37831 0
M  V30 11973 H 1364.89 -2.61426 4.54705 0
M  V30 11974 H 1366.37 -4.09856 3.69759 0
M  V30 11975 H 1366.84 -3.90374 2.01258 0
M  V30 11976 H 1367.45 -2.76187 3.23421 0
M  V30 11977 N 1365.76 -1.381 -0.759346 0
M  V30 11978 C 1367.18 -1.19171 -1.06162 0
M  V30 11979 C 1367.38 -0.0364043 -2.01467 0
M  V30 11980 O 1366.44 0.619635 -2.44779 0
M  V30 11981 C 1367.75 -2.51569 -1.64723 0
M  V30 11982 C 1369.3 -2.58201 -1.76921 0
M  V30 11983 C 1369.77 -3.9076 -2.38894 0
M  V30 11984 N 1371.26 -3.92269 -2.46331 0
M  V30 11985 C 1372 -4.91595 -2.95164 0
M  V30 11986 N 1371.49 -6.01318 -3.44075 0
M  V30 11987 N 1373.29 -4.7899 -2.94152 0
M  V30 11988 H 1365.44 -2.12021 -0.126788 0
M  V30 11989 H 1367.7 -0.940517 -0.118877 0
M  V30 11990 H 1367.41 -3.36535 -1.02162 0
M  V30 11991 H 1367.28 -2.69551 -2.6386 0
M  V30 11992 H 1369.67 -1.73634 -2.38611 0
M  V30 11993 H 1369.75 -2.44092 -0.765047 0
M  V30 11994 H 1369.39 -4.75747 -1.7784 0
M  V30 11995 H 1369.32 -4.02179 -3.39941 0
M  V30 11996 H 1371.81 -3.13015 -2.11731 0
M  V30 11997 H 1372.13 -6.73046 -3.79776 0
M  V30 11998 H 1370.47 -6.04946 -3.42148 0
M  V30 11999 H 1373.66 -3.92385 -2.55248 0
M  V30 12000 H 1373.84 -5.5655 -3.31897 0
M  V30 12001 N 1367.24 0.986894 -1.22875 0
M  V30 12002 C 1368.65 1.54182 -1.05284 0
M  V30 12003 C 1369 1.92448 0.381856 0
M  V30 12004 O 1368.13 1.75381 1.26769 0
M  V30 12005 C 1368.72 2.80173 -1.90496 0
M  V30 12006 C 1367.28 3.32088 -1.77185 0
M  V30 12007 C 1366.43 2.05128 -1.86596 0
M  V30 12008 H 1369.38 0.807304 -1.36632 0
M  V30 12009 H 1369.4 3.52772 -1.42591 0
M  V30 12010 H 1368.91 2.52291 -2.94908 0
M  V30 12011 H 1367.02 3.64864 -0.755295 0
M  V30 12012 H 1367.13 4.02285 -2.60199 0
M  V30 12013 H 1365.49 2.18964 -1.30103 0
M  V30 12014 H 1366.28 1.79635 -2.92551 0
M  V30 12015 N 1368.72 1.0394 1.18466 0
M  V30 12016 C 1369.68 0.633804 2.20262 0
M  V30 12017 C 1370.68 -0.308136 1.5782 0
M  V30 12018 O 1371.87 -0.0937087 1.73948 0
M  V30 12019 C 1369.01 -0.0709693 3.40826 0
M  V30 12020 H 1370.2 1.53463 2.57661 0
M  V30 12021 H 1367.75 0.831806 1.32328 0
M  V30 12022 H 1368.49 -0.985659 3.08958 0
M  V30 12023 H 1368.27 0.606023 3.87388 0
M  V30 12024 H 1369.76 -0.341298 4.16203 0
M  V30 12025 N 1370.2 -1.34667 0.818693 0
M  V30 12026 C 1371.61 -1.80839 0.46414 0
M  V30 12027 C 1371.96 -1.67902 -1.01506 0
M  V30 12028 O 1371.09 -1.21658 -1.78964 0
M  V30 12029 C 1371.68 -3.28331 0.835698 0
M  V30 12030 C 1370.24 -3.72599 0.533575 0
M  V30 12031 C 1369.39 -2.56452 1.05487 0
M  V30 12032 H 1372.34 -1.22474 1.00925 0
M  V30 12033 H 1372.36 -3.8025 0.13785 0
M  V30 12034 H 1371.87 -3.37715 1.91233 0
M  V30 12035 H 1369.97 -3.68756 -0.533819 0
M  V30 12036 H 1370.08 -4.66891 1.07468 0
M  V30 12037 H 1368.45 -2.50201 0.476612 0
M  V30 12038 H 1369.23 -2.68608 2.13786 0
M  V30 12039 N 1371.68 -0.573274 -1.46804 0
M  V30 12040 C 1372.92 -0.0551522 -2.02025 0
M  V30 12041 C 1373.25 1.30577 -1.44826 0
M  V30 12042 O 1372.52 1.85514 -0.629403 0
M  V30 12043 H 1371.1 -0.0173982 -0.746797 0
M  V30 12044 H 1373.76 -0.746919 -1.8002 0
M  V30 12045 H 1372.85 0.0209326 -3.12093 0
M  V30 12046 N 1373.15 1.5451 -0.310553 0
M  V30 12047 C 1374.38 2.05204 0.301013 0
M  V30 12048 C 1374.8 1.1859 1.46007 0
M  V30 12049 O 1374.16 0.192081 1.8028 0
M  V30 12050 C 1374.21 3.53221 0.725767 0
M  V30 12051 O 1373.31 3.69596 1.82955 0
M  V30 12052 H 1372.66 0.661566 0.0568026 0
M  V30 12053 H 1375.19 1.99473 -0.455178 0
M  V30 12054 H 1375.2 3.9525 1.01198 0
M  V30 12055 H 1373.87 4.15721 -0.122046 0
M  V30 12056 H 1372.45 3.39472 1.54315 0
M  V30 12057 N 1374.63 0.0384594 1.57553 0
M  V30 12058 C 1375.86 -0.648077 1.96488 0
M  V30 12059 C 1376.28 -1.65123 0.915414 0
M  V30 12060 O 1375.63 -1.82216 -0.101779 0
M  V30 12061 C 1375.68 -1.34623 3.35498 0
M  V30 12062 O 1375.41 -0.383261 4.3642 0
M  V30 12063 C 1376.91 -2.12372 3.89119 0
M  V30 12064 H 1374.13 -0.178068 0.646941 0
M  V30 12065 H 1376.67 0.100993 2.0425 0
M  V30 12066 H 1374.83 -2.04663 3.28926 0
M  V30 12067 H 1375.24 -0.880095 5.17063 0
M  V30 12068 H 1376.71 -2.5666 4.88702 0
M  V30 12069 H 1377.19 -2.96664 3.23863 0
M  V30 12070 H 1377.8 -1.4727 3.98988 0
M  V30 12071 N 1376.11 -1.55841 -0.234795 0
M  V30 12072 C 1377.07 -1.9051 -1.2743 0
M  V30 12073 C 1378.07 -0.782543 -1.40474 0
M  V30 12074 O 1379.26 -1.05043 -1.38966 0
M  V30 12075 C 1376.4 -2.14424 -2.65019 0
M  V30 12076 H 1377.59 -2.83471 -0.979003 0
M  V30 12077 H 1375.14 -1.48919 -0.47463 0
M  V30 12078 H 1375.88 -1.23972 -2.99669 0
M  V30 12079 H 1375.66 -2.96191 -2.56931 0
M  V30 12080 H 1377.15 -2.42388 -3.40056 0
M  V30 12081 N 1377.59 0.500963 -1.49426 0
M  V30 12082 C 1379 1.08248 -1.52116 0
M  V30 12083 C 1379.35 1.93777 -0.30738 0
M  V30 12084 O 1378.48 2.08404 0.582805 0
M  V30 12085 C 1379.07 1.96988 -2.75647 0
M  V30 12086 C 1377.63 2.50303 -2.81115 0
M  V30 12087 C 1376.78 1.27924 -2.4603 0
M  V30 12088 H 1379.73 0.284872 -1.56122 0
M  V30 12089 H 1379.75 2.81675 -2.55811 0
M  V30 12090 H 1379.26 1.34711 -3.6397 0
M  V30 12091 H 1377.36 3.16218 -1.97072 0
M  V30 12092 H 1377.48 2.87453 -3.83286 0
M  V30 12093 H 1375.84 1.60447 -1.9781 0
M  V30 12094 H 1376.62 0.673557 -3.36628 0
M  V30 12095 N 1379.07 1.38501 0.752011 0
M  V30 12096 C 1380.48 1.31086 1.32941 0
M  V30 12097 C 1380.83 -0.0326248 1.96173 0
M  V30 12098 O 1379.95 -0.934692 1.95173 0
M  V30 12099 C 1380.55 2.37395 2.41721 0
M  V30 12100 C 1379.11 2.33553 2.95177 0
M  V30 12101 C 1378.26 2.20178 1.68573 0
M  V30 12102 H 1381.21 1.48836 0.550771 0
M  V30 12103 H 1381.23 2.03202 3.21697 0
M  V30 12104 H 1380.74 3.35164 1.9567 0
M  V30 12105 H 1378.84 1.39371 3.45553 0
M  V30 12106 H 1378.95 3.27753 3.49449 0
M  V30 12107 H 1377.32 1.67057 1.9226 0
M  V30 12108 H 1378.1 3.19891 1.24599 0
M  V30 12109 N 1380.55 -0.980364 1.23396 0
M  V30 12110 C 1381.51 -2.05433 1.01635 0
M  V30 12111 C 1382.51 -1.60785 -0.0218244 0
M  V30 12112 O 1383.7 -1.72832 0.217922 0
M  V30 12113 C 1380.83 -3.36631 0.537822 0
M  V30 12114 H 1382.02 -2.26172 1.96943 0
M  V30 12115 H 1379.58 -1.15378 1.05441 0
M  V30 12116 H 1380.31 -3.21581 -0.41903 0
M  V30 12117 H 1380.1 -3.70377 1.28698 0
M  V30 12118 H 1381.59 -4.1562 0.406213 0
M  V30 12119 N 1382.02 -1.04567 -1.17913 0
M  V30 12120 C 1382.97 -0.611407 -2.19649 0
M  V30 12121 C 1383.96 0.348802 -1.57074 0
M  V30 12122 O 1385.15 0.167045 -1.7621 0
M  V30 12123 C 1382.28 0.0189379 -3.43295 0
M  V30 12124 C 1381.36 -0.96472 -4.12982 0
M  V30 12125 N 1381.76 -2.13371 -4.58592 0
M  V30 12126 C 1380.05 -0.791817 -4.38915 0
M  V30 12127 C 1380.75 -2.75549 -5.12296 0
M  V30 12128 N 1379.73 -2.0339 -5.04117 0
M  V30 12129 H 1383.53 -1.50217 -2.5261 0
M  V30 12130 H 1381.05 -0.914946 -1.34173 0
M  V30 12131 H 1383.04 0.347776 -4.15447 0
M  V30 12132 H 1381.7 0.905177 -3.11828 0
M  V30 12133 H 1382.71 -2.51236 -4.52881 0
M  V30 12134 H 1379.39 0.0439054 -4.17477 0
M  V30 12135 H 1380.78 -3.74647 -5.57754 0
M  V30 12136 N 1383.5 1.34231 -0.825823 0
M  V30 12137 C 1384.75 1.97805 -0.414456 0
M  V30 12138 C 1385.07 1.65786 1.02664 0
M  V30 12139 O 1384.34 0.950069 1.7132 0
M  V30 12140 H 1382.92 0.73173 -0.150265 0
M  V30 12141 H 1385.58 1.63819 -1.05591 0
M  V30 12142 H 1384.68 3.07466 -0.535829 0
M  V30 12143 N 1384.98 0.581051 1.46498 0
M  V30 12144 C 1386.23 0.0660934 2.02692 0
M  V30 12145 C 1386.56 -1.28985 1.45178 0
M  V30 12146 O 1385.83 -1.84479 0.616247 0
M  V30 12147 C 1386.12 -0.00145411 3.601 0
M  V30 12148 C 1385.97 1.38327 4.28002 0
M  V30 12149 C 1387.29 -0.702914 4.3445 0
M  V30 12150 H 1384.41 0.0254923 0.736559 0
M  V30 12151 H 1387.05 0.74793 1.7466 0
M  V30 12152 H 1385.2 -0.582118 3.84114 0
M  V30 12153 H 1386.87 2.00897 4.15257 0
M  V30 12154 H 1385.11 1.95144 3.87429 0
M  V30 12155 H 1385.79 1.28849 5.36751 0
M  V30 12156 H 1388.26 -0.209641 4.15572 0
M  V30 12157 H 1387.14 -0.719202 5.44168 0
M  V30 12158 H 1387.4 -1.76389 4.05388 0
M  V30 12159 N 1386.46 -1.54343 0.318742 0
M  V30 12160 C 1387.69 -2.04894 -0.287378 0
M  V30 12161 C 1388.1 -1.19514 -1.46157 0
M  V30 12162 O 1387.46 -0.224722 -1.81111 0
M  V30 12163 C 1387.51 -3.54124 -0.726505 0
M  V30 12164 O 1387.23 -4.36261 0.400968 0
M  V30 12165 C 1388.73 -4.20748 -1.39594 0
M  V30 12166 H 1385.95 -0.668323 -0.0598724 0
M  V30 12167 H 1388.49 -1.99177 0.463531 0
M  V30 12168 H 1386.65 -3.60145 -1.4274 0
M  V30 12169 H 1387.06 -5.2447 0.0558714 0
M  V30 12170 H 1388.54 -5.26632 -1.65418 0
M  V30 12171 H 1389.01 -3.71566 -2.3417 0
M  V30 12172 H 1389.62 -4.18852 -0.737749 0
M  V30 12173 N 1387.94 -0.0468143 -1.5753 0
M  V30 12174 C 1389.16 0.641161 -1.97241 0
M  V30 12175 C 1389.59 1.6384 -0.92401 0
M  V30 12176 O 1388.94 1.80946 0.113229 0
M  V30 12177 C 1388.99 1.30832 -3.36029 0
M  V30 12178 O 1388.1 2.42394 -3.33645 0
M  V30 12179 H 1387.44 0.167035 -0.642647 0
M  V30 12180 H 1389.97 -0.113921 -2.04283 0
M  V30 12181 H 1389.98 1.66102 -3.72658 0
M  V30 12182 H 1388.65 0.57744 -4.11872 0
M  V30 12183 H 1387.23 2.09104 -3.08756 0
M  V30 12184 N 1389.41 1.55964 0.226527 0
M  V30 12185 C 1390.38 1.91184 1.26418 0
M  V30 12186 C 1391.38 0.789982 1.40057 0
M  V30 12187 O 1392.57 1.05778 1.38407 0
M  V30 12188 C 1389.7 2.15826 2.63878 0
M  V30 12189 H 1390.89 2.83986 0.963956 0
M  V30 12190 H 1388.45 1.49169 0.466726 0
M  V30 12191 H 1389.18 1.2556 2.99007 0
M  V30 12192 H 1388.97 2.97549 2.55356 0
M  V30 12193 H 1390.46 2.44188 3.38765 0
M  V30 12194 N 1390.89 -0.493031 1.4969 0
M  V30 12195 C 1392.3 -1.0744 1.52688 0
M  V30 12196 C 1392.65 -1.93612 0.317652 0
M  V30 12197 O 1391.78 -2.0871 -0.571745 0
M  V30 12198 C 1392.37 -1.95523 2.76688 0
M  V30 12199 C 1390.93 -2.48808 2.82438 0
M  V30 12200 C 1390.08 -1.26617 2.46705 0
M  V30 12201 H 1393.03 -0.276589 1.56271 0
M  V30 12202 H 1393.05 -2.80315 2.57301 0
M  V30 12203 H 1392.56 -1.32779 3.6468 0
M  V30 12204 H 1390.67 -3.15168 1.98746 0
M  V30 12205 H 1390.78 -2.85416 3.84805 0
M  V30 12206 H 1389.14 -1.59396 1.98658 0
M  V30 12207 H 1389.93 -0.655695 3.3698 0
M  V30 12208 N 1392.37 -1.38898 -0.744656 0
M  V30 12209 C 1393.65 -1.2611 -1.49518 0
M  V30 12210 C 1394.03 0.133592 -2.10677 0
M  V30 12211 O 1393.38 1.14394 -1.97804 0
M  V30 12212 C 1393.59 -2.37809 -2.55437 0
M  V30 12213 C 1394.93 -2.76664 -3.22091 0
M  V30 12214 O 1395.96 -2.37187 -2.65746 0
M  V30 12215 O 1394.82 -3.44771 -4.24023 0
M  V30 12216 H 1391.91 -0.493664 -0.663494 0
M  V30 12217 H 1394.46 -1.50748 -0.779304 0
M  V30 12218 H 1393.23 -3.31089 -2.08556 0
M  V30 12219 H 1392.85 -2.14783 -3.34595 0
M  V30 12220 N 1393.85 0.973806 -1.23914 0
M  V30 12221 C 1394.8 2.08861 -1.02372 0
M  V30 12222 C 1395.79 1.69354 0.039415 0
M  V30 12223 O 1397 1.79635 -0.114637 0
M  V30 12224 H 1393.37 0.683313 -0.313986 0
M  V30 12225 H 1395.34 2.24195 -1.96924 0
M  V30 12226 C 1394.09 3.41784 -0.638661 0
M  V30 12227 H 1393.41 3.72639 -1.44846 0
M  V30 12228 H 1394.85 4.20706 -0.527487 0
M  V30 12229 C 1393.31 3.30497 0.65369 0
M  V30 12230 O 1393.84 3.63905 1.70107 0
M  V30 12231 N 1392.05 2.83642 0.632104 0
M  V30 12232 H 1391.6 2.56654 -0.220571 0
M  V30 12233 H 1391.55 2.76472 1.49701 0
M  V30 12234 N 1395.33 1.05191 1.17357 0
M  V30 12235 C 1396.74 0.773255 1.39617 0
M  V30 12236 C 1396.94 -0.632346 1.91321 0
M  V30 12237 O 1396 -1.39475 2.10483 0
M  V30 12238 C 1397.31 1.82885 2.38692 0
M  V30 12239 C 1398.86 1.85106 2.52398 0
M  V30 12240 C 1399.33 2.89689 3.54746 0
M  V30 12241 N 1400.83 2.88651 3.62263 0
M  V30 12242 C 1401.56 3.66221 4.41214 0
M  V30 12243 N 1401.06 4.53577 5.23679 0
M  V30 12244 N 1402.85 3.54661 4.36087 0
M  V30 12245 H 1395 1.9588 0.82127 0
M  V30 12246 H 1397.26 0.848187 0.423417 0
M  V30 12247 H 1396.97 2.83766 2.07773 0
M  V30 12248 H 1396.84 1.67047 3.38194 0
M  V30 12249 H 1399.23 0.848896 2.82627 0
M  V30 12250 H 1399.31 2.05022 1.5297 0
M  V30 12251 H 1398.96 3.90091 3.25255 0
M  V30 12252 H 1398.89 2.67025 4.53878 0
M  V30 12253 H 1401.38 2.25312 3.03386 0
M  V30 12254 H 1401.69 5.09449 5.81104 0
M  V30 12255 H 1400.03 4.57638 5.23061 0
M  V30 12256 H 1403.23 2.8581 3.70716 0
M  V30 12257 H 1403.4 4.15361 4.97372 0
M  V30 12258 N 1396.8 -1.33791 0.83293 0
M  V30 12259 C 1398.22 -1.80336 0.483294 0
M  V30 12260 C 1398.57 -1.68969 -0.997195 0
M  V30 12261 O 1397.69 -1.23549 -1.77664 0
M  V30 12262 C 1398.29 -3.27427 0.870475 0
M  V30 12263 C 1396.85 -3.72012 0.573064 0
M  V30 12264 C 1395.99 -2.55319 1.08201 0
M  V30 12265 H 1398.94 -1.21396 1.02218 0
M  V30 12266 H 1398.96 -3.80083 0.178173 0
M  V30 12267 H 1398.48 -3.35668 1.94804 0
M  V30 12268 H 1396.58 -3.69302 -0.494678 0
M  V30 12269 H 1396.69 -4.65725 1.12414 0
M  V30 12270 H 1395.05 -2.49681 0.503123 0
M  V30 12271 H 1395.84 -2.66326 2.16623 0
M  V30 12272 N 1398.28 -0.588812 -1.46187 0
M  V30 12273 C 1399.25 0.130803 -2.28826 0
M  V30 12274 C 1400.25 0.813037 -1.38731 0
M  V30 12275 O 1401.44 0.664061 -1.61046 0
M  V30 12276 C 1398.57 1.19484 -3.19275 0
M  V30 12277 H 1399.76 -0.595514 -2.93928 0
M  V30 12278 H 1397.31 -0.347038 -1.52399 0
M  V30 12279 H 1398.05 1.95254 -2.58933 0
M  V30 12280 H 1397.83 0.710077 -3.85617 0
M  V30 12281 H 1399.32 1.69938 -3.81459 0
M  V30 12282 N 1399.76 1.54172 -0.326923 0
M  V30 12283 C 1400.69 2.27402 0.530154 0
M  V30 12284 C 1401.67 1.28325 1.11655 0
M  V30 12285 O 1402.86 1.57142 1.14105 0
M  V30 12286 C 1399.99 3.03435 1.68951 0
M  V30 12287 C 1398.94 4.09877 1.23226 0
M  V30 12288 C 1398.27 4.7377 2.47882 0
M  V30 12289 C 1399.57 5.21161 0.344698 0
M  V30 12290 H 1401.26 2.99291 -0.0806959 0
M  V30 12291 H 1398.81 1.43944 -0.0402511 0
M  V30 12292 H 1400.76 3.53396 2.29541 0
M  V30 12293 H 1399.48 2.29169 2.327 0
M  V30 12294 H 1398.14 3.60805 0.649267 0
M  V30 12295 H 1397.79 3.96116 3.10002 0
M  V30 12296 H 1397.49 5.45674 2.17977 0
M  V30 12297 H 1399.01 5.26507 3.09229 0
M  V30 12298 H 1400.43 5.66859 0.856979 0
M  V30 12299 H 1398.83 5.99941 0.138276 0
M  V30 12300 H 1399.9 4.80874 -0.623575 0
M  V30 12301 N 1401.24 0.0551678 1.57503 0
M  V30 12302 C 1402.49 -0.6165 1.92467 0
M  V30 12303 C 1402.81 -1.71147 0.934552 0
M  V30 12304 O 1402.08 -1.9589 -0.0199649 0
M  V30 12305 H 1400.66 -0.230714 0.710479 0
M  V30 12306 H 1403.32 0.109111 1.94594 0
M  V30 12307 H 1402.42 -1.05254 2.93816 0
M  V30 12308 N 1402.72 -1.56081 -0.218252 0
M  V30 12309 C 1403.94 -1.83681 -0.963119 0
M  V30 12310 C 1404.37 -0.635909 -1.77025 0
M  V30 12311 O 1403.72 0.415327 -1.76479 0
M  V30 12312 C 1403.77 -3.09302 -1.85376 0
M  V30 12313 O 1402.88 -2.88228 -2.94955 0
M  V30 12314 H 1402.22 -0.605495 -0.272529 0
M  V30 12315 H 1404.75 -2.03297 -0.230567 0
M  V30 12316 H 1404.76 -3.39493 -2.26294 0
M  V30 12317 H 1403.43 -3.96337 -1.26054 0
M  V30 12318 H 1402.01 -2.69279 -2.57959 0
M  V30 12319 N 1404.2 0.485086 -1.49949 0
M  V30 12320 C 1405.42 1.26179 -1.63971 0
M  V30 12321 C 1405.84 1.86113 -0.317408 0
M  V30 12322 O 1405.2 1.68581 0.699038 0
M  V30 12323 C 1405.25 2.38062 -2.72046 0
M  V30 12324 O 1404.97 1.80588 -3.99149 0
M  V30 12325 C 1406.47 3.29174 -2.96916 0
M  V30 12326 H 1403.69 0.382122 -0.551565 0
M  V30 12327 H 1406.23 0.580607 -1.96085 0
M  V30 12328 H 1404.39 3.0198 -2.42666 0
M  V30 12329 H 1404.8 2.54159 -4.58807 0
M  V30 12330 H 1406.28 4.03922 -3.76233 0
M  V30 12331 H 1406.75 3.87123 -2.07443 0
M  V30 12332 H 1407.36 2.71006 -3.27774 0
M  V30 12333 N 1405.67 1.39291 0.737279 0
M  V30 12334 C 1406.64 1.37607 1.83294 0
M  V30 12335 C 1407.64 0.273594 1.58455 0
M  V30 12336 O 1408.83 0.531375 1.65898 0
M  V30 12337 C 1405.96 1.14642 3.21045 0
M  V30 12338 H 1407.15 2.35102 1.86191 0
M  V30 12339 H 1404.7 1.24822 0.940696 0
M  V30 12340 H 1405.44 0.178202 3.2381 0
M  V30 12341 H 1405.22 1.94479 3.40471 0
M  V30 12342 H 1406.71 1.162 4.01108 0
M  V30 12343 N 1407.15 -0.967221 1.24429 0
M  V30 12344 C 1408.56 -1.52488 1.07723 0
M  V30 12345 C 1408.91 -1.93031 -0.351191 0
M  V30 12346 O 1408.04 -1.77376 -1.23963 0
M  V30 12347 C 1408.63 -2.77107 1.94929 0
M  V30 12348 C 1407.19 -3.29227 1.82446 0
M  V30 12349 C 1406.34 -2.02133 1.89835 0
M  V30 12350 H 1409.29 -0.785465 1.37899 0
M  V30 12351 H 1409.31 -3.50459 1.48186 0
M  V30 12352 H 1408.82 -2.47567 2.98885 0
M  V30 12353 H 1406.92 -3.63617 0.813246 0
M  V30 12354 H 1407.04 -3.98095 2.66566 0
M  V30 12355 H 1405.4 -2.16867 1.3357 0
M  V30 12356 H 1406.18 -1.74958 2.95372 0
M  V30 12357 N 1408.63 -1.05812 -1.16797 0
M  V30 12358 C 1410.04 -0.79707 -1.6883 0
M  V30 12359 C 1410.39 0.679967 -1.8404 0
M  V30 12360 O 1409.52 1.5279 -1.53245 0
M  V30 12361 C 1410.11 -1.44029 -3.06661 0
M  V30 12362 C 1408.67 -1.22714 -3.55835 0
M  V30 12363 C 1407.82 -1.51988 -2.31937 0
M  V30 12364 H 1410.77 -1.22224 -1.01227 0
M  V30 12365 H 1410.79 -0.852962 -3.70816 0
M  V30 12366 H 1410.3 -2.51529 -2.95559 0
M  V30 12367 H 1408.4 -0.171671 -3.72204 0
M  V30 12368 H 1408.52 -1.93646 -4.38221 0
M  V30 12369 H 1406.88 -0.940215 -2.36711 0
M  V30 12370 H 1407.66 -2.60635 -2.23438 0
M  V30 12371 N 1410.11 1.33347 -0.840014 0
M  V30 12372 C 1411.35 1.98037 -0.43692 0
M  V30 12373 C 1411.69 1.66382 1.00154 0
M  V30 12374 O 1410.96 0.944311 1.70038 0
M  V30 12375 C 1411.24 3.54012 -0.65937 0
M  V30 12376 C 1411.1 3.9535 -2.14518 0
M  V30 12377 C 1412.42 4.39972 -0.106258 0
M  V30 12378 H 1409.54 0.719373 -0.160221 0
M  V30 12379 H 1412.18 1.57969 -1.05574 0
M  V30 12380 H 1410.33 3.88274 -0.132633 0
M  V30 12381 H 1412 3.7134 -2.73687 0
M  V30 12382 H 1410.24 3.4504 -2.62926 0
M  V30 12383 H 1410.91 5.03992 -2.25158 0
M  V30 12384 H 1413.39 4.12362 -0.556511 0
M  V30 12385 H 1412.27 5.48125 -0.291583 0
M  V30 12386 H 1412.53 4.30872 0.990032 0
M  V30 12387 N 1411.59 0.596556 1.45873 0
M  V30 12388 C 1412.54 -0.14991 2.27507 0
M  V30 12389 C 1413.52 -0.848942 1.36681 0
M  V30 12390 O 1414.71 -0.740752 1.60754 0
M  V30 12391 C 1411.84 -1.15391 3.23326 0
M  V30 12392 C 1410.93 -0.456283 4.21638 0
M  V30 12393 N 1411.32 0.495911 5.03363 0
M  V30 12394 C 1409.62 -0.705263 4.40389 0
M  V30 12395 C 1410.32 0.904941 5.74618 0
M  V30 12396 N 1409.29 0.251069 5.4302 0
M  V30 12397 H 1413.09 0.581593 2.88088 0
M  V30 12398 H 1410.61 0.419386 1.56891 0
M  V30 12399 H 1412.61 -1.70299 3.80531 0
M  V30 12400 H 1411.27 -1.88609 2.64305 0
M  V30 12401 H 1412.28 0.872126 5.10504 0
M  V30 12402 H 1408.95 -1.42296 3.92502 0
M  V30 12403 H 1410.34 1.68965 6.50308 0
M  V30 12404 N 1413.06 -1.53996 0.335095 0
M  V30 12405 C 1414.01 -2.26221 -0.541007 0
M  V30 12406 C 1415.01 -1.28053 -1.109 0
M  V30 12407 O 1416.21 -1.4579 -1.05571 0
M  V30 12408 H 1412.59 -0.726775 -0.193136 0
M  V30 12409 H 1414.56 -2.98263 0.0902792 0
M  V30 12410 C 1413.31 -3.04173 -1.68445 0
M  V30 12411 H 1412.63 -3.79537 -1.25665 0
M  V30 12412 H 1414.07 -3.57937 -2.27282 0
M  V30 12413 C 1412.53 -2.13162 -2.6089 0
M  V30 12414 O 1413.06 -1.7221 -3.62914 0
M  V30 12415 N 1411.26 -1.78414 -2.29384 0
M  V30 12416 H 1410.81 -2.11914 -1.46458 0
M  V30 12417 H 1410.77 -1.178 -2.91497 0
M  V30 12418 N 1414.54 -0.0635198 -1.57472 0
M  V30 12419 C 1415.79 0.608384 -1.93459 0
M  V30 12420 C 1416.12 1.6976 -0.943141 0
M  V30 12421 O 1415.4 1.94478 0.0289567 0
M  V30 12422 C 1415.68 1.19302 -3.39763 0
M  V30 12423 C 1415.53 0.11102 -4.49663 0
M  V30 12424 C 1416.85 2.101 -3.86712 0
M  V30 12425 H 1413.97 0.219688 -0.703496 0
M  V30 12426 H 1416.61 -0.127803 -1.8957 0
M  V30 12427 H 1414.76 1.82044 -3.43209 0
M  V30 12428 H 1416.43 -0.521606 -4.58342 0
M  V30 12429 H 1414.68 -0.559408 -4.30178 0
M  V30 12430 H 1415.35 0.560332 -5.49149 0
M  V30 12431 H 1417.82 1.57305 -3.8522 0
M  V30 12432 H 1416.7 2.47945 -4.89708 0
M  V30 12433 H 1416.96 3.00603 -3.24177 0
M  V30 12434 N 1416.02 1.56195 0.209972 0
M  V30 12435 C 1417.25 1.8384 0.949228 0
M  V30 12436 C 1417.66 0.644141 1.77472 0
M  V30 12437 O 1417.02 -0.387276 1.78344 0
M  V30 12438 C 1417.07 3.10131 1.85745 0
M  V30 12439 O 1416.79 4.2495 1.06531 0
M  V30 12440 C 1418.29 3.50847 2.70963 0
M  V30 12441 H 1415.51 0.610856 0.277662 0
M  V30 12442 H 1418.06 2.03295 0.221708 0
M  V30 12443 H 1416.21 2.92618 2.53877 0
M  V30 12444 H 1416.63 4.96769 1.68287 0
M  V30 12445 H 1418.1 4.4222 3.30372 0
M  V30 12446 H 1418.58 2.73139 3.43936 0
M  V30 12447 H 1419.18 3.7084 2.08226 0
M  V30 12448 N 1417.5 -0.477127 1.50204 0
M  V30 12449 C 1418.72 -1.25775 1.6491 0
M  V30 12450 C 1419.15 -1.85187 0.329765 0
M  V30 12451 O 1418.51 -1.67004 -0.705641 0
M  V30 12452 C 1418.55 -2.3466 2.73801 0
M  V30 12453 O 1417.66 -3.39147 2.34634 0
M  V30 12454 H 1417 -0.370291 0.551163 0
M  V30 12455 H 1419.53 -0.568514 1.96543 0
M  V30 12456 H 1419.54 -2.80065 2.96695 0
M  V30 12457 H 1418.21 -1.90788 3.69557 0
M  V30 12458 H 1416.79 -2.99496 2.22163 0
M  V30 12459 N 1418.98 -1.3968 -0.729882 0
M  V30 12460 C 1419.94 -1.38577 -1.82562 0
M  V30 12461 C 1420.94 -0.281994 -1.58308 0
M  V30 12462 O 1422.13 -0.540165 -1.65614 0
M  V30 12463 C 1419.26 -1.16343 -3.20433 0
M  V30 12464 H 1420.45 -2.36086 -1.84942 0
M  V30 12465 H 1418.01 -1.25319 -0.934063 0
M  V30 12466 H 1418.74 -0.195372 -3.23711 0
M  V30 12467 H 1418.53 -1.96282 -3.39435 0
M  V30 12468 H 1420.02 -1.18325 -4.00486 0
M  V30 12469 N 1420.45 0.960609 -1.2494 0
M  V30 12470 C 1421.68 1.7446 -1.12153 0
M  V30 12471 C 1422.1 1.85335 0.321315 0
M  V30 12472 O 1421.46 1.32944 1.23271 0
M  V30 12473 C 1421.51 3.13945 -1.774 0
M  V30 12474 O 1420.61 3.9882 -1.04958 0
M  V30 12475 H 1419.96 0.536007 -0.391909 0
M  V30 12476 H 1422.49 1.2045 -1.65388 0
M  V30 12477 H 1422.5 3.64434 -1.83444 0
M  V30 12478 H 1421.17 3.05346 -2.82377 0
M  V30 12479 H 1419.75 3.57293 -1.06752 0
M  V30 12480 N 1421.93 1.0643 1.16234 0
M  V30 12481 C 1423.18 0.780296 1.86429 0
M  V30 12482 C 1423.5 -0.695335 1.82181 0
M  V30 12483 O 1422.77 -1.50312 1.2563 0
M  V30 12484 H 1421.35 0.285654 0.690225 0
M  V30 12485 H 1424.01 1.34609 1.40949 0
M  V30 12486 H 1423.11 1.10644 2.91829 0
M  V30 12487 N 1423.41 -1.329 0.847073 0
M  V30 12488 C 1424.64 -2.02244 0.459588 0
M  V30 12489 C 1425.06 -1.63279 -0.933897 0
M  V30 12490 O 1424.42 -0.829551 -1.61208 0
M  V30 12491 C 1424.47 -3.55616 0.59745 0
M  V30 12492 O 1423.57 -4.1071 -0.372919 0
M  V30 12493 H 1422.91 -0.637504 0.1857 0
M  V30 12494 H 1425.44 -1.69617 1.14417 0
M  V30 12495 H 1425.45 -4.05141 0.482145 0
M  V30 12496 H 1424.13 -3.8332 1.61365 0
M  V30 12497 H 1422.7 -3.72283 -0.214487 0
M  V30 12498 N 1424.89 -0.604284 -1.45555 0
M  V30 12499 C 1425.85 0.106526 -2.28952 0
M  V30 12500 C 1426.85 0.798277 -1.39586 0
M  V30 12501 O 1428.04 0.646943 -1.61741 0
M  V30 12502 C 1425.17 1.16091 -3.20524 0
M  V30 12503 H 1426.37 -0.626655 -2.9328 0
M  V30 12504 H 1423.92 -0.363183 -1.52022 0
M  V30 12505 H 1424.65 1.92496 -2.6099 0
M  V30 12506 H 1424.44 0.669137 -3.86348 0
M  V30 12507 H 1425.93 1.65882 -3.8324 0
M  V30 12508 N 1426.37 1.53816 -0.343257 0
M  V30 12509 C 1427.59 2.05796 0.257418 0
M  V30 12510 C 1428.02 1.2166 1.43459 0
M  V30 12511 O 1427.37 0.230278 1.79832 0
M  V30 12512 C 1427.42 3.54681 0.65068 0
M  V30 12513 O 1426.53 3.73394 1.75074 0
M  V30 12514 H 1425.87 0.662622 0.042757 0
M  V30 12515 H 1428.4 1.98462 -0.497386 0
M  V30 12516 H 1428.41 3.97308 0.927914 0
M  V30 12517 H 1427.08 4.15368 -0.210199 0
M  V30 12518 H 1425.66 3.42669 1.4708 0
M  V30 12519 N 1427.84 0.0718701 1.57436 0
M  V30 12520 C 1429.09 -0.596052 1.9311 0
M  V30 12521 C 1429.41 -1.70146 0.952652 0
M  V30 12522 O 1428.68 -1.959 0.000812941 0
M  V30 12523 H 1427.26 -0.223165 0.712886 0
M  V30 12524 H 1429.93 0.129744 1.94468 0
M  V30 12525 H 1429.02 -1.02132 2.94916 0
M  V30 12526 N 1429.32 -1.56304 -0.201686 0
M  V30 12527 C 1430.55 -1.84692 -0.943583 0
M  V30 12528 C 1430.97 -0.654649 -1.7634 0
M  V30 12529 O 1430.33 0.396586 -1.76909 0
M  V30 12530 C 1430.38 -3.11251 -1.82085 0
M  V30 12531 O 1429.48 -2.9134 -2.91881 0
M  V30 12532 H 1428.82 -0.608351 -0.266092 0
M  V30 12533 H 1431.35 -2.0353 -0.208992 0
M  V30 12534 H 1431.36 -3.41874 -2.2268 0
M  V30 12535 H 1430.04 -3.97652 -1.21844 0
M  V30 12536 H 1428.62 -2.72 -2.55089 0
M  V30 12537 N 1430.8 0.469154 -1.50455 0
M  V30 12538 C 1431.76 1.5493 -1.68906 0
M  V30 12539 C 1432.76 1.50744 -0.559721 0
M  V30 12540 O 1433.95 1.5333 -0.826781 0
M  V30 12541 C 1431.09 2.94556 -1.71609 0
M  V30 12542 H 1432.28 1.39887 -2.65276 0
M  V30 12543 H 1429.83 0.695667 -1.39965 0
M  V30 12544 H 1430.57 3.15041 -0.769382 0
M  V30 12545 H 1430.35 2.99002 -2.53654 0
M  V30 12546 H 1431.84 3.72973 -1.87831 0
M  V30 12547 N 1432.28 1.40065 0.722464 0
M  V30 12548 C 1433.5 1.4146 1.5167 0
M  V30 12549 C 1433.93 0.0142653 1.88095 0
M  V30 12550 O 1433.29 -0.975934 1.52791 0
M  V30 12551 C 1433.33 2.30531 2.77287 0
M  V30 12552 O 1432.44 1.74382 3.73717 0
M  V30 12553 H 1431.78 0.481194 0.457546 0
M  V30 12554 H 1434.31 1.84213 0.890331 0
M  V30 12555 H 1434.32 2.45479 3.25889 0
M  V30 12556 H 1432.99 3.32292 2.50109 0
M  V30 12557 H 1431.57 1.68743 3.32536 0
M  V30 12558 N 1433.76 -0.95397 1.25448 0
M  V30 12559 C 1434.99 -1.73331 1.12977 0
M  V30 12560 C 1435.4 -1.86131 -0.316364 0
M  V30 12561 O 1434.76 -1.35951 -1.21753 0
M  V30 12562 C 1434.81 -3.14675 1.77938 0
M  V30 12563 O 1434.53 -3.025 3.16899 0
M  V30 12564 C 1436.03 -4.08884 1.71256 0
M  V30 12565 H 1433.25 -0.543118 0.394036 0
M  V30 12566 H 1435.79 -1.19678 1.65823 0
M  V30 12567 H 1433.95 -3.6527 1.29062 0
M  V30 12568 H 1434.36 -3.91668 3.4885 0
M  V30 12569 H 1435.84 -5.05668 2.21368 0
M  V30 12570 H 1436.31 -4.33959 0.676476 0
M  V30 12571 H 1436.92 -3.64205 2.19624 0
M  V30 12572 N 1435.24 -1.07045 -1.15668 0
M  V30 12573 C 1436.17 -0.709413 -2.22463 0
M  V30 12574 C 1437.15 0.30169 -1.67403 0
M  V30 12575 O 1438.33 0.175131 -1.93409 0
M  V30 12576 C 1435.46 -0.103121 -3.47147 0
M  V30 12577 C 1434.42 -1.04103 -4.15146 0
M  V30 12578 C 1433.74 -0.297656 -5.33871 0
M  V30 12579 C 1435.04 -2.37332 -4.65264 0
M  V30 12580 H 1436.74 -1.60227 -2.52918 0
M  V30 12581 H 1434.28 -0.771846 -1.21567 0
M  V30 12582 H 1436.23 0.161371 -4.21091 0
M  V30 12583 H 1434.96 0.824792 -3.16014 0
M  V30 12584 H 1433.62 -1.2904 -3.43139 0
M  V30 12585 H 1433.27 0.633618 -4.98993 0
M  V30 12586 H 1432.97 -0.922789 -5.80309 0
M  V30 12587 H 1434.49 -0.0408892 -6.10586 0
M  V30 12588 H 1435.9 -2.1674 -5.30751 0
M  V30 12589 H 1434.3 -2.95412 -5.22352 0
M  V30 12590 H 1435.37 -2.99859 -3.81068 0
M  V30 12591 N 1436.71 1.32449 -0.85411 0
M  V30 12592 C 1437.96 1.97563 -0.4579 0
M  V30 12593 C 1438.29 1.67435 0.983835 0
M  V30 12594 O 1437.57 0.962292 1.69027 0
M  V30 12595 C 1437.85 3.53292 -0.69688 0
M  V30 12596 C 1437.7 3.93053 -2.18699 0
M  V30 12597 C 1439.02 4.39834 -0.152917 0
M  V30 12598 H 1436.14 0.717634 -0.167842 0
M  V30 12599 H 1438.78 1.5684 -1.07243 0
M  V30 12600 H 1436.93 3.88111 -0.173807 0
M  V30 12601 H 1438.61 3.68416 -2.7761 0
M  V30 12602 H 1436.85 3.42232 -2.6657 0
M  V30 12603 H 1437.52 5.01576 -2.3049 0
M  V30 12604 H 1440 4.11748 -0.600216 0
M  V30 12605 H 1438.87 5.47785 -0.349703 0
M  V30 12606 H 1439.13 4.31898 0.944276 0
M  V30 12607 N 1438.19 0.611994 1.45232 0
M  V30 12608 C 1439.14 -0.125771 2.27653 0
M  V30 12609 C 1440.13 -0.834397 1.37574 0
M  V30 12610 O 1441.32 -0.72366 1.61531 0
M  V30 12611 C 1438.45 -1.11955 3.24532 0
M  V30 12612 C 1437.53 -0.411537 4.22099 0
M  V30 12613 N 1437.92 0.549272 5.02809 0
M  V30 12614 C 1436.22 -0.658514 4.41112 0
M  V30 12615 C 1436.92 0.965836 5.73626 0
M  V30 12616 N 1435.9 0.308649 5.42723 0
M  V30 12617 H 1439.7 0.612115 2.87455 0
M  V30 12618 H 1437.21 0.436003 1.56438 0
M  V30 12619 H 1439.21 -1.66253 3.82316 0
M  V30 12620 H 1437.87 -1.85795 2.6629 0
M  V30 12621 H 1438.88 0.926222 5.0955 0
M  V30 12622 H 1435.56 -1.38125 3.9399 0
M  V30 12623 H 1436.95 1.75853 6.48479 0
M  V30 12624 N 1439.67 -1.53632 0.351409 0
M  V30 12625 C 1440.62 -2.26782 -0.516983 0
M  V30 12626 C 1441.61 -1.29222 -1.09536 0
M  V30 12627 O 1442.82 -1.46901 -1.04019 0
M  V30 12628 H 1439.19 -0.728783 -0.185417 0
M  V30 12629 H 1441.16 -2.98151 0.121909 0
M  V30 12630 C 1439.91 -3.05943 -1.6521 0
M  V30 12631 H 1439.24 -3.80848 -1.21633 0
M  V30 12632 H 1440.68 -3.60328 -2.23472 0
M  V30 12633 C 1439.13 -2.15917 -2.58614 0
M  V30 12634 O 1439.66 -1.76049 -3.61067 0
M  V30 12635 N 1437.87 -1.80837 -2.27478 0
M  V30 12636 H 1437.42 -2.13456 -1.44202 0
M  V30 12637 H 1437.38 -1.20886 -2.90231 0
M  V30 12638 N 1441.15 -0.0802183 -1.57396 0
M  V30 12639 C 1442.4 0.585802 -1.93424 0
M  V30 12640 C 1442.72 1.69638 -0.961662 0
M  V30 12641 O 1441.99 1.95897 -0.011202 0
M  V30 12642 H 1440.57 0.219382 -0.714059 0
M  V30 12643 H 1443.23 -0.140055 -1.94396 0
M  V30 12644 H 1442.32 1.00566 -2.95454 0
M  V30 12645 N 1442.63 1.56409 0.193394 0
M  V30 12646 C 1443.85 1.84837 0.929676 0
M  V30 12647 C 1444.27 0.662928 1.76779 0
M  V30 12648 O 1443.63 -0.368339 1.78744 0
M  V30 12649 C 1443.68 3.12083 1.82445 0
M  V30 12650 O 1443.4 4.26056 1.02018 0
M  V30 12651 C 1444.9 3.53701 2.67227 0
M  V30 12652 H 1442.12 0.613766 0.271168 0
M  V30 12653 H 1444.66 2.03518 0.200134 0
M  V30 12654 H 1442.82 2.95294 2.5076 0
M  V30 12655 H 1443.23 4.98526 1.63008 0
M  V30 12656 H 1444.71 4.45699 3.25663 0
M  V30 12657 H 1445.18 2.76771 3.41019 0
M  V30 12658 H 1445.79 3.73027 2.04281 0
M  V30 12659 N 1444.1 -0.461169 1.50702 0
M  V30 12660 C 1445.33 -1.24019 1.66235 0
M  V30 12661 C 1445.75 -1.84827 0.349388 0
M  V30 12662 O 1445.11 -1.67743 -0.687888 0
M  V30 12663 C 1445.16 -2.31743 2.76274 0
M  V30 12664 O 1444.26 -3.3664 2.38217 0
M  V30 12665 H 1443.6 -0.364424 0.55506 0
M  V30 12666 H 1446.13 -0.547636 1.97135 0
M  V30 12667 H 1446.14 -2.76902 2.99649 0
M  V30 12668 H 1444.82 -1.86858 3.7156 0
M  V30 12669 H 1443.4 -2.97123 2.25327 0
M  V30 12670 N 1445.58 -1.40446 -0.715026 0
M  V30 12671 C 1446.54 -1.40506 -1.81082 0
M  V30 12672 C 1447.54 -0.298768 -1.58 0
M  V30 12673 O 1448.73 -0.5577 -1.65031 0
M  V30 12674 C 1445.87 -1.19735 -3.19181 0
M  V30 12675 H 1447.06 -2.38034 -1.82427 0
M  V30 12676 H 1444.61 -1.26303 -0.920718 0
M  V30 12677 H 1445.35 -0.229695 -3.23486 0
M  V30 12678 H 1445.13 -1.99871 -3.37334 0
M  V30 12679 H 1446.62 -1.22566 -3.99208 0
M  V30 12680 N 1447.06 0.947303 -1.25952 0
M  V30 12681 C 1448.48 1.21972 -1.02932 0
M  V30 12682 C 1448.68 1.99951 0.249333 0
M  V30 12683 O 1447.73 2.33534 0.960108 0
M  V30 12684 C 1449.04 1.98695 -2.257 0
M  V30 12685 C 1450.59 2.11711 -2.30538 0
M  V30 12686 C 1451.07 2.91835 -3.52982 0
M  V30 12687 N 1452.56 2.99411 -3.53422 0
M  V30 12688 C 1453.29 3.6182 -4.4483 0
M  V30 12689 N 1452.79 4.25781 -5.46519 0
M  V30 12690 N 1454.58 3.59033 -4.32495 0
M  V30 12691 H 1446.73 0.42583 -2.08088 0
M  V30 12692 H 1449 0.250899 -0.914196 0
M  V30 12693 H 1448.7 1.48801 -3.18671 0
M  V30 12694 H 1448.58 2.9938 -2.29459 0
M  V30 12695 H 1450.96 2.608 -1.38085 0
M  V30 12696 H 1451.04 1.10308 -2.30794 0
M  V30 12697 H 1450.69 2.43435 -4.4576 0
M  V30 12698 H 1450.62 3.9348 -3.49973 0
M  V30 12699 H 1453.11 2.53934 -2.79868 0
M  V30 12700 H 1453.42 4.71281 -6.12466 0
M  V30 12701 H 1451.77 4.24386 -5.50383 0
M  V30 12702 H 1454.96 3.08254 -3.52274 0
M  V30 12703 H 1455.13 4.07384 -5.03927 0
M  V30 12704 N 1448.54 1.07657 1.15099 0
M  V30 12705 C 1449.5 0.703558 2.18135 0
M  V30 12706 C 1450.5 -0.257771 1.5872 0
M  V30 12707 O 1451.69 -0.0383211 1.74158 0
M  V30 12708 C 1448.82 0.0374978 3.40879 0
M  V30 12709 H 1450.02 1.61583 2.52648 0
M  V30 12710 H 1447.57 0.873484 1.29615 0
M  V30 12711 H 1448.3 -0.886868 3.11938 0
M  V30 12712 H 1448.09 0.728961 3.85264 0
M  V30 12713 H 1449.58 -0.208714 4.17078 0
M  V30 12714 N 1450.02 -1.31994 0.861122 0
M  V30 12715 C 1451.24 -2.01211 0.481865 0
M  V30 12716 C 1451.66 -1.64687 -0.923233 0
M  V30 12717 O 1451.02 -0.87151 -1.60346 0
M  V30 12718 C 1451.07 -3.56162 0.618919 0
M  V30 12719 O 1450.79 -3.91376 1.96868 0
M  V30 12720 C 1452.29 -4.42652 0.239514 0
M  V30 12721 H 1449.51 -0.643922 0.188693 0
M  V30 12722 H 1452.05 -1.68427 1.15985 0
M  V30 12723 H 1450.21 -3.87398 -0.0114042 0
M  V30 12724 H 1450.62 -4.86095 1.97008 0
M  V30 12725 H 1452.1 -5.50646 0.386394 0
M  V30 12726 H 1452.57 -4.31466 -0.820598 0
M  V30 12727 H 1453.18 -4.16818 0.845175 0
M  V30 12728 N 1451.49 -0.619688 -1.44906 0
M  V30 12729 C 1452.72 -0.126363 -2.06514 0
M  V30 12730 C 1453.14 1.19432 -1.46224 0
M  V30 12731 O 1452.49 1.7301 -0.580851 0
M  V30 12732 C 1452.55 0.00682319 -3.61499 0
M  V30 12733 O 1452.27 -1.26162 -4.19541 0
M  V30 12734 C 1453.77 0.530189 -4.40118 0
M  V30 12735 H 1450.99 -0.0744032 -0.666862 0
M  V30 12736 H 1453.53 -0.850851 -1.85959 0
M  V30 12737 H 1451.69 0.681694 -3.81355 0
M  V30 12738 H 1452.1 -1.09908 -5.12855 0
M  V30 12739 H 1453.57 0.572428 -5.49024 0
M  V30 12740 H 1454.05 1.55494 -4.10753 0
M  V30 12741 H 1454.66 -0.111044 -4.25155 0
M  V30 12742 N 1452.97 1.53444 -0.359552 0
M  V30 12743 C 1454.2 2.05584 0.232953 0
M  V30 12744 C 1454.62 1.23347 1.42937 0
M  V30 12745 O 1453.97 0.272662 1.80452 0
M  V30 12746 C 1454.02 3.55926 0.632359 0
M  V30 12747 O 1453.74 4.35045 -0.516494 0
M  V30 12748 C 1455.25 4.24301 1.28389 0
M  V30 12749 H 1452.47 0.669676 0.042132 0
M  V30 12750 H 1455.01 1.97878 -0.516176 0
M  V30 12751 H 1453.16 3.63802 1.33141 0
M  V30 12752 H 1453.58 5.24138 -0.194906 0
M  V30 12753 H 1455.05 5.30832 1.51397 0
M  V30 12754 H 1455.53 3.77644 2.24236 0
M  V30 12755 H 1456.14 4.20661 0.626438 0
M  V30 12756 N 1454.45 0.0885642 1.57351 0
M  V30 12757 C 1455.86 -0.441569 1.81403 0
M  V30 12758 C 1456.21 -1.68582 1.00372 0
M  V30 12759 O 1455.34 -2.15162 0.231153 0
M  V30 12760 C 1455.93 -0.807886 3.29027 0
M  V30 12761 C 1454.49 -1.2828 3.53866 0
M  V30 12762 C 1453.64 -0.276217 2.75921 0
M  V30 12763 H 1456.59 0.314083 1.55561 0
M  V30 12764 H 1456.61 -1.66797 3.41993 0
M  V30 12765 H 1456.12 0.0978886 3.87977 0
M  V30 12766 H 1454.22 -2.2065 3.0024 0
M  V30 12767 H 1454.34 -1.24914 4.62529 0
M  V30 12768 H 1452.7 -0.757007 2.4319 0
M  V30 12769 H 1453.48 0.622123 3.37616 0
M  V30 12770 N 1455.93 -1.56509 -0.185096 0
M  V30 12771 C 1456.89 -1.94468 -1.21305 0
M  V30 12772 C 1457.89 -0.826838 -1.37913 0
M  V30 12773 O 1459.08 -1.09411 -1.35554 0
M  V30 12774 C 1456.21 -2.22747 -2.58063 0
M  V30 12775 H 1457.41 -2.86442 -0.888323 0
M  V30 12776 H 1454.96 -1.50354 -0.427012 0
M  V30 12777 H 1455.69 -1.33443 -2.95573 0
M  V30 12778 H 1455.48 -3.04215 -2.47378 0
M  V30 12779 H 1456.97 -2.53084 -3.32172 0
M  V30 12780 N 1457.41 0.45317 -1.50944 0
M  V30 12781 C 1458.63 1.23136 -1.6689 0
M  V30 12782 C 1459.06 1.84639 -0.359185 0
M  V30 12783 O 1458.41 1.68106 0.678983 0
M  V30 12784 C 1458.46 2.30275 -2.77499 0
M  V30 12785 O 1457.57 3.35371 -2.39999 0
M  V30 12786 H 1456.91 0.361475 -0.556984 0
M  V30 12787 H 1459.44 0.537174 -1.97422 0
M  V30 12788 H 1459.45 2.75309 -3.01113 0
M  V30 12789 H 1458.12 1.84885 -3.72546 0
M  V30 12790 H 1456.7 2.95924 -2.26899 0
M  V30 12791 N 1458.88 1.40823 0.707568 0
M  V30 12792 C 1459.83 1.41724 1.82162 0
M  V30 12793 C 1460.8 0.273135 1.63839 0
M  V30 12794 O 1461.99 0.472399 1.84859 0
M  V30 12795 C 1459.13 1.29347 3.19943 0
M  V30 12796 C 1458.24 2.53529 3.49782 0
M  V30 12797 C 1457.37 2.33533 4.77112 0
M  V30 12798 C 1456.41 3.53252 4.9988 0
M  V30 12799 N 1455.55 3.32401 6.18429 0
M  V30 12800 H 1460.39 2.36943 1.80726 0
M  V30 12801 H 1457.93 1.17671 0.882723 0
M  V30 12802 H 1459.89 1.20175 3.99517 0
M  V30 12803 H 1458.52 0.377426 3.20586 0
M  V30 12804 H 1457.57 2.73198 2.64702 0
M  V30 12805 H 1458.88 3.42617 3.62512 0
M  V30 12806 H 1458.03 2.2176 5.64719 0
M  V30 12807 H 1456.77 1.41883 4.66605 0
M  V30 12808 H 1455.78 3.65492 4.10725 0
M  V30 12809 H 1457 4.4584 5.12253 0
M  V30 12810 H 1454.95 2.4344 6.09158 0
M  V30 12811 H 1454.87 4.15059 6.31872 0
M  V30 12812 H 1456.13 3.24377 7.08802 0
M  V30 12813 N 1460.36 -0.94061 1.26453 0
M  V30 12814 C 1461.59 -1.72654 1.14914 0
M  V30 12815 C 1462.01 -1.85823 -0.291789 0
M  V30 12816 O 1461.37 -1.34888 -1.2114 0
M  V30 12817 C 1461.42 -3.11083 1.82372 0
M  V30 12818 O 1460.52 -3.971 1.1129 0
M  V30 12819 H 1459.86 -0.529704 0.400387 0
M  V30 12820 H 1462.39 -1.17803 1.67283 0
M  V30 12821 H 1462.4 -3.6147 1.89219 0
M  V30 12822 H 1461.08 -3.00815 2.87199 0
M  V30 12823 H 1459.66 -3.5555 1.12423 0
M  V30 12824 N 1461.84 -1.08266 -1.14527 0
M  V30 12825 C 1463.07 -0.83288 -1.89396 0
M  V30 12826 C 1463.48 0.614823 -1.78509 0
M  V30 12827 O 1462.84 1.42239 -1.14343 0
M  V30 12828 C 1462.89 -1.244 -3.39421 0
M  V30 12829 O 1462.61 -2.63491 -3.50006 0
M  V30 12830 C 1464.11 -1.02488 -4.3129 0
M  V30 12831 H 1461.33 -0.300474 -0.599964 0
M  V30 12832 H 1463.88 -1.44155 -1.4505 0
M  V30 12833 H 1462.03 -0.679466 -3.81395 0
M  V30 12834 H 1462.45 -2.80517 -4.43182 0
M  V30 12835 H 1463.92 -1.36194 -5.34935 0
M  V30 12836 H 1464.4 0.0381961 -4.39183 0
M  V30 12837 H 1465 -1.57477 -3.95071 0
M  V30 12838 N 1463.32 1.31536 -0.86811 0
M  V30 12839 C 1464.73 1.78991 -0.530937 0
M  V30 12840 C 1465.08 1.71553 0.952046 0
M  V30 12841 O 1464.21 1.28216 1.74326 0
M  V30 12842 C 1464.8 3.25004 -0.956981 0
M  V30 12843 C 1463.36 3.70362 -0.671495 0
M  V30 12844 C 1462.51 2.52361 -1.14932 0
M  V30 12845 H 1465.46 1.18644 -1.05401 0
M  V30 12846 H 1465.48 3.79477 -0.278883 0
M  V30 12847 H 1464.99 3.30385 -2.03635 0
M  V30 12848 H 1463.09 3.70483 0.39659 0
M  V30 12849 H 1463.21 4.62581 -1.24722 0
M  V30 12850 H 1461.57 2.4826 -0.569144 0
M  V30 12851 H 1462.35 2.60489 -2.23608 0
M  V30 12852 N 1464.8 0.627364 1.44575 0
M  V30 12853 C 1466.04 0.130352 2.0208 0
M  V30 12854 C 1466.37 -1.24642 1.49314 0
M  V30 12855 O 1465.63 -1.84022 0.665923 0
M  V30 12856 C 1465.93 0.0622409 3.57346 0
M  V30 12857 C 1465.59 1.37729 4.2935 0
M  V30 12858 C 1464.25 1.73747 4.48737 0
M  V30 12859 C 1466.61 2.2455 4.70347 0
M  V30 12860 C 1463.93 2.96301 5.06382 0
M  V30 12861 C 1466.29 3.46371 5.29349 0
M  V30 12862 C 1464.95 3.82616 5.46956 0
M  V30 12863 H 1464.22 0.0476991 0.739463 0
M  V30 12864 H 1466.87 0.812928 1.73389 0
M  V30 12865 H 1465.17 -0.70369 3.85429 0
M  V30 12866 H 1466.87 -0.338778 3.99566 0
M  V30 12867 H 1463.46 1.08699 4.14587 0
M  V30 12868 H 1467.64 1.98019 4.55085 0
M  V30 12869 H 1462.9 3.24465 5.18201 0
M  V30 12870 H 1467.07 4.13882 5.60067 0
M  V30 12871 H 1464.7 4.77663 5.9139 0
M  V30 12872 N 1466.28 -1.53251 0.367684 0
M  V30 12873 C 1467.5 -2.0618 -0.224645 0
M  V30 12874 C 1467.93 -1.23927 -1.41505 0
M  V30 12875 O 1467.28 -0.258858 -1.79443 0
M  V30 12876 C 1467.33 -3.55671 -0.594171 0
M  V30 12877 O 1466.44 -3.76132 -1.69112 0
M  V30 12878 H 1465.78 -0.663218 -0.0322099 0
M  V30 12879 H 1468.31 -1.97646 0.528897 0
M  V30 12880 H 1468.32 -3.98734 -0.864589 0
M  V30 12881 H 1466.99 -4.14982 0.276254 0
M  V30 12882 H 1465.57 -3.44965 -1.41609 0
M  V30 12883 N 1467.75 -0.0969077 -1.57302 0
M  V30 12884 C 1469 0.566072 -1.93594 0
M  V30 12885 C 1469.32 1.69226 -0.980922 0
M  V30 12886 O 1470.52 2.41651 -1.23763 0
M  V30 12887 C 1468.98 1.05832 -3.43988 0
M  V30 12888 C 1468.59 -0.038207 -4.47984 0
M  V30 12889 C 1470.33 1.69393 -3.89238 0
M  V30 12890 C 1468.24 0.4695 -5.89533 0
M  V30 12891 H 1467.17 0.215226 -0.72263 0
M  V30 12892 H 1469.82 -0.173202 -1.82681 0
M  V30 12893 H 1468.2 1.85134 -3.50059 0
M  V30 12894 H 1469.37 -0.813761 -4.53558 0
M  V30 12895 H 1467.69 -0.579113 -4.12353 0
M  V30 12896 H 1470.29 2.08454 -4.92393 0
M  V30 12897 H 1470.63 2.56381 -3.27986 0
M  V30 12898 H 1471.16 0.966709 -3.85875 0
M  V30 12899 H 1467.9 -0.363802 -6.5449 0
M  V30 12900 H 1467.42 1.21202 -5.87427 0
M  V30 12901 H 1469.1 0.937885 -6.40166 0
M  V30 12902 N 1469.23 1.56605 0.176793 0
M  V30 12903 C 1470.64 1.71418 0.739775 0
M  V30 12904 C 1470.99 0.706527 1.83037 0
M  V30 12905 O 1470.12 -0.133259 2.15989 0
M  V30 12906 C 1470.71 3.10799 1.34867 0
M  V30 12907 C 1469.27 3.27315 1.85854 0
M  V30 12908 C 1468.42 2.67371 0.73541 0
M  V30 12909 H 1471.37 1.58626 -0.0485305 0
M  V30 12910 H 1471.39 3.09146 2.21831 0
M  V30 12911 H 1470.9 3.84116 0.554688 0
M  V30 12912 H 1469 2.58947 2.67913 0
M  V30 12913 H 1469.12 4.35002 2.00774 0
M  V30 12914 H 1467.48 2.27035 1.15444 0
M  V30 12915 H 1468.26 3.43268 -0.0466351 0
M  V30 12916 N 1470.71 -0.445159 1.51182 0
M  V30 12917 C 1471.93 -1.22249 1.67541 0
M  V30 12918 C 1472.36 -1.84446 0.368972 0
M  V30 12919 O 1471.72 -1.68463 -0.670058 0
M  V30 12920 C 1471.77 -2.288 2.78717 0
M  V30 12921 O 1470.87 -3.34094 2.41775 0
M  V30 12922 H 1470.21 -0.358516 0.558894 0
M  V30 12923 H 1472.74 -0.526696 1.97704 0
M  V30 12924 H 1472.75 -2.73708 3.02569 0
M  V30 12925 H 1471.43 -1.82906 3.73521 0
M  V30 12926 H 1470 -2.94717 2.28466 0
M  V30 12927 N 1472.19 -1.41197 -0.700089 0
M  V30 12928 C 1473.14 -1.39158 -1.80607 0
M  V30 12929 C 1474.12 -0.266653 -1.58675 0
M  V30 12930 O 1475.31 -0.506973 -1.69584 0
M  V30 12931 C 1472.44 -1.27176 -3.18875 0
M  V30 12932 C 1471.53 -2.44513 -3.46517 0
M  V30 12933 N 1471.92 -3.69984 -3.44885 0
M  V30 12934 C 1470.22 -2.38228 -3.77046 0
M  V30 12935 C 1470.92 -4.4778 -3.71306 0
M  V30 12936 N 1469.89 -3.77831 -3.90826 0
M  V30 12937 H 1473.7 -2.34093 -1.77701 0
M  V30 12938 H 1471.21 -1.35188 -0.899887 0
M  V30 12939 H 1473.21 -1.23797 -3.98095 0
M  V30 12940 H 1471.87 -0.332215 -3.22996 0
M  V30 12941 H 1472.88 -4.02932 -3.25371 0
M  V30 12942 H 1469.56 -1.52722 -3.88564 0
M  V30 12943 H 1470.95 -5.56695 -3.76218 0
M  V30 12944 N 1473.67 0.933891 -1.2695 0
M  V30 12945 C 1474.62 2.01966 -1.05801 0
M  V30 12946 C 1475.6 1.60896 0.0119868 0
M  V30 12947 O 1476.79 1.75799 -0.205827 0
M  V30 12948 C 1473.92 3.36073 -0.700695 0
M  V30 12949 C 1473.01 3.83606 -1.80852 0
M  V30 12950 N 1473.4 4.03713 -3.04712 0
M  V30 12951 C 1471.7 4.12586 -1.69378 0
M  V30 12952 C 1472.4 4.43199 -3.76762 0
M  V30 12953 N 1471.37 4.50319 -3.0449 0
M  V30 12954 H 1475.17 2.15534 -1.99806 0
M  V30 12955 H 1472.69 1.12027 -1.17574 0
M  V30 12956 H 1474.69 4.13513 -0.530316 0
M  V30 12957 H 1473.35 3.23872 0.231801 0
M  V30 12958 H 1474.36 3.90196 -3.4054 0
M  V30 12959 H 1471.03 4.09132 -0.831695 0
M  V30 12960 H 1472.42 4.66887 -4.83184 0
M  V30 12961 N 1475.14 1.08871 1.13951 0
M  V30 12962 C 1476.37 0.843055 1.89492 0
M  V30 12963 C 1476.79 -0.599539 1.78289 0
M  V30 12964 O 1476.15 -1.42062 1.12642 0
M  V30 12965 C 1476.2 1.27572 3.3728 0
M  V30 12966 O 1475.3 0.430611 4.10146 0
M  V30 12967 H 1474.64 0.3058 0.589391 0
M  V30 12968 H 1477.17 1.45137 1.44209 0
M  V30 12969 H 1477.18 1.25864 3.88101 0
M  V30 12970 H 1475.86 2.32635 3.44751 0
M  V30 12971 H 1474.44 0.511516 3.69375 0
M  V30 12972 N 1476.62 -1.31073 0.875073 0
M  V30 12973 C 1477.9 -1.91276 0.409015 0
M  V30 12974 C 1478.28 -1.79599 -1.10939 0
M  V30 12975 O 1477.63 -1.2069 -1.94026 0
M  V30 12976 C 1477.84 -3.373 0.896074 0
M  V30 12977 C 1479.18 -4.14397 0.925205 0
M  V30 12978 O 1480.21 -3.46104 0.842069 0
M  V30 12979 O 1479.07 -5.36389 1.0464 0
M  V30 12980 H 1476.16 -0.817755 0.12331 0
M  V30 12981 H 1478.71 -1.39708 0.963322 0
M  V30 12982 H 1477.48 -3.39837 1.93975 0
M  V30 12983 H 1477.1 -3.96307 0.320367 0
M  V30 12984 N 1478.1 -0.635022 -1.4424 0
M  V30 12985 C 1479.33 -0.14826 -2.06368 0
M  V30 12986 C 1479.74 1.17875 -1.47482 0
M  V30 12987 O 1479.1 1.72384 -0.599168 0
M  V30 12988 C 1479.15 -0.031519 -3.61486 0
M  V30 12989 O 1478.87 -1.30605 -4.18179 0
M  V30 12990 C 1480.37 0.483479 -4.40656 0
M  V30 12991 H 1477.59 -0.081472 -0.666036 0
M  V30 12992 H 1480.14 -0.870526 -1.85046 0
M  V30 12993 H 1478.29 0.641208 -3.82057 0
M  V30 12994 H 1478.71 -1.15341 -5.11661 0
M  V30 12995 H 1480.18 0.514164 -5.496 0
M  V30 12996 H 1480.66 1.51129 -4.12379 0
M  V30 12997 H 1481.26 -0.156131 -4.25013 0
M  V30 12998 N 1479.58 1.53054 -0.375806 0
M  V30 12999 C 1480.99 1.86426 0.101188 0
M  V30 13000 C 1481.34 1.29603 1.47301 0
M  V30 13001 O 1480.47 0.622059 2.07266 0
M  V30 13002 C 1481.06 3.38265 0.190389 0
M  V30 13003 C 1479.62 3.71397 0.611653 0
M  V30 13004 C 1478.77 2.76304 -0.234801 0
M  V30 13005 H 1481.72 1.47156 -0.594211 0
M  V30 13006 H 1481.74 3.66793 1.01207 0
M  V30 13007 H 1481.25 3.79592 -0.80818 0
M  V30 13008 H 1479.35 3.35632 1.61808 0
M  V30 13009 H 1479.46 4.77597 0.379168 0
M  V30 13010 H 1477.83 2.52952 0.297888 0
M  V30 13011 H 1478.61 3.20467 -1.2311 0
M  V30 13012 N 1481.06 0.105248 1.57248 0
M  V30 13013 C 1482.28 -0.564157 1.9906 0
M  V30 13014 C 1482.7 -1.61092 0.984624 0
M  V30 13015 O 1482.06 -1.82484 -0.0244031 0
M  V30 13016 C 1482.11 -1.20272 3.40906 0
M  V30 13017 O 1481.83 -0.197815 4.37653 0
M  V30 13018 C 1483.33 -1.95677 3.97776 0
M  V30 13019 H 1480.55 -0.150468 0.653912 0
M  V30 13020 H 1483.09 0.187532 2.03638 0
M  V30 13021 H 1481.25 -1.90528 3.3731 0
M  V30 13022 H 1481.66 -0.659998 5.20331 0
M  V30 13023 H 1483.14 -2.35702 4.99148 0
M  V30 13024 H 1483.61 -2.82661 3.36154 0
M  V30 13025 H 1484.22 -1.30215 4.04876 0
M  V30 13026 N 1482.53 -1.56697 -0.168486 0
M  V30 13027 C 1483.76 -1.86292 -0.900152 0
M  V30 13028 C 1484.18 -0.690968 -1.75702 0
M  V30 13029 O 1483.53 0.339855 -1.79308 0
M  V30 13030 C 1483.59 -3.14946 -1.77457 0
M  V30 13031 O 1483.31 -4.27625 -0.952267 0
M  V30 13032 C 1484.81 -3.57908 -2.61566 0
M  V30 13033 H 1482.03 -0.618003 -0.261369 0
M  V30 13034 H 1484.57 -2.03811 -0.16773 0
M  V30 13035 H 1482.73 -2.99246 -2.4603 0
M  V30 13036 H 1483.14 -5.01057 -1.55056 0
M  V30 13037 H 1484.61 -4.50823 -3.18532 0
M  V30 13038 H 1485.09 -2.82162 -3.36573 0
M  V30 13039 H 1485.7 -3.7623 -1.98321 0
M  V30 13040 N 1484.01 0.437135 -1.51416 0
M  V30 13041 C 1484.94 1.538 -1.75692 0
M  V30 13042 C 1485.92 1.5891 -0.606759 0
M  V30 13043 O 1487.11 1.74635 -0.849492 0
M  V30 13044 C 1484.24 2.91877 -1.88215 0
M  V30 13045 C 1483.19 3.01628 -3.03652 0
M  V30 13046 C 1482.52 4.41687 -3.01358 0
M  V30 13047 C 1483.82 2.75691 -4.43612 0
M  V30 13048 H 1485.51 1.33737 -2.67871 0
M  V30 13049 H 1483.06 0.641936 -1.289 0
M  V30 13050 H 1485.01 3.68851 -2.03781 0
M  V30 13051 H 1483.74 3.13173 -0.926847 0
M  V30 13052 H 1482.39 2.27094 -2.87791 0
M  V30 13053 H 1482.04 4.5995 -2.03605 0
M  V30 13054 H 1481.74 4.49141 -3.78875 0
M  V30 13055 H 1483.27 5.20634 -3.19018 0
M  V30 13056 H 1484.68 3.42398 -4.59822 0
M  V30 13057 H 1483.08 2.94554 -5.22836 0
M  V30 13058 H 1484.15 1.71297 -4.53636 0
M  V30 13059 N 1485.49 1.41566 0.692592 0
M  V30 13060 C 1486.45 1.43369 1.78824 0
M  V30 13061 C 1487.45 0.323867 1.57505 0
M  V30 13062 O 1488.64 0.583885 1.64123 0
M  V30 13063 C 1485.78 1.24798 3.17235 0
M  V30 13064 H 1486.97 2.40906 1.78617 0
M  V30 13065 H 1484.52 1.27752 0.900508 0
M  V30 13066 H 1485.26 0.281129 3.23079 0
M  V30 13067 H 1485.04 2.05212 3.34111 0
M  V30 13068 H 1486.53 1.28902 3.97208 0
M  V30 13069 N 1486.97 -0.927146 1.27443 0
M  V30 13070 C 1488.19 -1.71426 1.16739 0
M  V30 13071 C 1488.62 -1.86122 -0.272063 0
M  V30 13072 O 1487.98 -1.36165 -1.19703 0
M  V30 13073 C 1488.02 -3.09131 1.85661 0
M  V30 13074 O 1487.13 -3.95897 1.15495 0
M  V30 13075 H 1486.47 -0.525428 0.405983 0
M  V30 13076 H 1489 -1.16022 1.68523 0
M  V30 13077 H 1489.01 -3.59442 1.93042 0
M  V30 13078 H 1487.68 -2.97752 2.90373 0
M  V30 13079 H 1486.26 -3.54337 1.16187 0
M  V30 13080 N 1488.45 -1.09474 -1.13372 0
M  V30 13081 C 1489.4 -0.704018 -2.16858 0
M  V30 13082 C 1490.38 0.281867 -1.58412 0
M  V30 13083 O 1491.57 0.0921582 -1.7676 0
M  V30 13084 C 1488.7 -0.126682 -3.43066 0
M  V30 13085 C 1487.79 -1.13901 -4.08518 0
M  V30 13086 N 1488.18 -2.3263 -4.49129 0
M  V30 13087 C 1486.48 -0.977263 -4.35162 0
M  V30 13088 C 1487.18 -2.9703 -5.00148 0
M  V30 13089 N 1486.15 -2.24588 -4.95037 0
M  V30 13090 H 1489.96 -1.60796 -2.46012 0
M  V30 13091 H 1487.47 -0.97103 -1.30172 0
M  V30 13092 H 1489.47 0.171257 -4.16548 0
M  V30 13093 H 1488.13 0.772105 -3.15386 0
M  V30 13094 H 1489.14 -2.70218 -4.41817 0
M  V30 13095 H 1485.81 -0.1332 -4.17287 0
M  V30 13096 H 1487.2 -3.97966 -5.41362 0
M  V30 13097 N 1489.92 1.30607 -0.882012 0
M  V30 13098 C 1491.15 2.00954 -0.513048 0
M  V30 13099 C 1491.57 1.65697 0.890279 0
M  V30 13100 O 1490.93 0.872001 1.58952 0
M  V30 13101 C 1490.98 3.53907 -0.691525 0
M  V30 13102 O 1490.08 4.11555 0.263896 0
M  V30 13103 H 1489.43 0.632356 -0.202537 0
M  V30 13104 H 1491.96 1.66524 -1.18874 0
M  V30 13105 H 1491.97 4.0372 -0.589392 0
M  V30 13106 H 1490.64 3.78907 -1.71471 0
M  V30 13107 H 1489.22 3.7272 0.115707 0
M  V30 13108 N 1491.4 0.642663 1.43901 0
M  V30 13109 C 1492.63 0.159202 2.06287 0
M  V30 13110 C 1493.05 -1.17091 1.48105 0
M  V30 13111 O 1492.4 -1.72064 0.608302 0
M  V30 13112 C 1492.45 0.0506891 3.61464 0
M  V30 13113 O 1492.17 1.32821 4.17481 0
M  V30 13114 C 1493.68 -0.460103 4.40906 0
M  V30 13115 H 1490.9 0.085003 0.665594 0
M  V30 13116 H 1493.44 0.880328 1.84582 0
M  V30 13117 H 1491.59 -0.620938 3.82391 0
M  V30 13118 H 1492.01 1.18053 5.11042 0
M  V30 13119 H 1493.48 -0.48501 5.49865 0
M  V30 13120 H 1493.96 -1.4894 4.13175 0
M  V30 13121 H 1494.57 0.178668 4.24925 0
M  V30 13122 N 1492.88 -1.52852 0.383918 0
M  V30 13123 C 1493.83 -2.26294 -0.453826 0
M  V30 13124 C 1494.8 -1.27688 -1.0623 0
M  V30 13125 O 1495.98 -1.56507 -1.09134 0
M  V30 13126 C 1493.12 -3.06907 -1.57803 0
M  V30 13127 C 1492.24 -4.20434 -0.992943 0
M  V30 13128 C 1491.37 -4.88453 -2.08776 0
M  V30 13129 C 1490.41 -5.93981 -1.47828 0
M  V30 13130 N 1489.55 -6.55617 -2.51218 0
M  V30 13131 H 1494.39 -2.97462 0.178927 0
M  V30 13132 H 1491.92 -1.46759 0.100066 0
M  V30 13133 H 1493.88 -3.51933 -2.24052 0
M  V30 13134 H 1492.51 -2.37959 -2.18118 0
M  V30 13135 H 1491.56 -3.79762 -0.22021 0
M  V30 13136 H 1492.88 -4.96211 -0.507504 0
M  V30 13137 H 1492.03 -5.36755 -2.82806 0
M  V30 13138 H 1490.77 -4.12187 -2.60678 0
M  V30 13139 H 1489.77 -5.45023 -0.723202 0
M  V30 13140 H 1491 -6.72176 -0.967278 0
M  V30 13141 H 1488.95 -5.82195 -3.02299 0
M  V30 13142 H 1488.86 -7.26991 -2.07414 0
M  V30 13143 H 1490.13 -7.08564 -3.24895 0
M  V30 13144 N 1494.36 -0.113586 -1.5719 0
M  V30 13145 C 1495.59 0.553592 -1.99356 0
M  V30 13146 C 1496 1.60567 -0.993154 0
M  V30 13147 O 1495.36 1.82494 0.0147252 0
M  V30 13148 C 1495.41 1.18462 -3.41539 0
M  V30 13149 O 1495.13 0.174602 -4.37752 0
M  V30 13150 C 1496.63 1.93564 -3.98808 0
M  V30 13151 H 1493.85 0.146998 -0.6547 0
M  V30 13152 H 1496.4 -0.198329 -2.03536 0
M  V30 13153 H 1494.55 1.88736 -3.38316 0
M  V30 13154 H 1494.97 0.632395 -5.20674 0
M  V30 13155 H 1496.44 2.33051 -5.00391 0
M  V30 13156 H 1496.92 2.80874 -3.37648 0
M  V30 13157 H 1497.52 1.28066 -4.0556 0
M  V30 13158 N 1495.84 1.56784 0.160173 0
M  V30 13159 C 1497.11 1.73513 0.902908 0
M  V30 13160 C 1497.49 0.678036 1.99915 0
M  V30 13161 O 1496.84 -0.305302 2.26451 0
M  V30 13162 C 1497.05 3.17111 1.45744 0
M  V30 13163 C 1498.4 3.78404 1.92602 0
M  V30 13164 O 1499.42 3.20459 1.55515 0
M  V30 13165 O 1498.28 4.80172 2.60954 0
M  V30 13166 H 1495.38 0.708981 0.425764 0
M  V30 13167 H 1497.92 1.69061 0.147129 0
M  V30 13168 H 1496.7 3.85539 0.668985 0
M  V30 13169 H 1496.32 3.25936 2.2771 0
M  V30 13170 N 1497.32 -0.429099 1.51646 0
M  V30 13171 C 1498.28 -1.50398 1.72954 0
M  V30 13172 C 1499.28 -1.49207 0.599491 0
M  V30 13173 O 1500.47 -1.51084 0.867143 0
M  V30 13174 C 1497.6 -2.89903 1.79358 0
M  V30 13175 H 1498.79 -1.32805 2.68892 0
M  V30 13176 H 1496.35 -0.658313 1.4176 0
M  V30 13177 H 1497.08 -3.12891 0.852639 0
M  V30 13178 H 1496.87 -2.92171 2.61492 0
M  V30 13179 H 1498.36 -3.67862 1.97654 0
M  V30 13180 N 1498.79 -1.41931 -0.685074 0
M  V30 13181 C 1500.02 -1.45432 -1.47866 0
M  V30 13182 C 1500.44 -0.0641302 -1.87991 0
M  V30 13183 O 1499.8 0.935081 -1.55325 0
M  V30 13184 C 1499.85 -2.37801 -2.71077 0
M  V30 13185 O 1498.95 -1.84229 -3.68963 0
M  V30 13186 H 1498.29 -0.493156 -0.444627 0
M  V30 13187 H 1500.82 -1.86508 -0.841177 0
M  V30 13188 H 1500.83 -2.54033 -3.19266 0
M  V30 13189 H 1499.51 -3.38807 -2.41211 0
M  V30 13190 H 1498.09 -1.775 -3.27945 0
M  V30 13191 N 1500.27 0.920374 -1.27933 0
M  V30 13192 C 1501.5 1.70804 -1.17647 0
M  V30 13193 C 1501.92 1.86264 0.262189 0
M  V30 13194 O 1501.28 1.36798 1.18979 0
M  V30 13195 C 1501.33 3.08142 -1.87298 0
M  V30 13196 O 1500.43 3.95279 -1.17593 0
M  V30 13197 H 1499.77 0.523267 -0.408763 0
M  V30 13198 H 1502.3 1.15127 -1.69136 0
M  V30 13199 H 1502.31 3.58414 -1.94945 0
M  V30 13200 H 1500.99 2.96208 -2.91948 0
M  V30 13201 H 1499.56 3.53716 -1.18065 0
M  V30 13202 N 1501.75 1.10074 1.1279 0
M  V30 13203 C 1502.98 0.862906 1.88047 0
M  V30 13204 C 1503.39 -0.586346 1.79464 0
M  V30 13205 O 1502.75 -1.40402 1.16591 0
M  V30 13206 C 1502.8 1.29784 3.37399 0
M  V30 13207 O 1502.52 2.69026 3.4577 0
M  V30 13208 C 1504.02 1.09336 4.29605 0
M  V30 13209 H 1501.24 0.309981 0.595108 0
M  V30 13210 H 1503.79 1.46444 1.42738 0
M  V30 13211 H 1501.94 0.740056 3.80266 0
M  V30 13212 H 1502.36 2.87532 4.38663 0
M  V30 13213 H 1503.83 1.44687 5.327 0
M  V30 13214 H 1504.31 0.031679 4.39189 0
M  V30 13215 H 1504.91 1.63743 3.92516 0
M  V30 13216 N 1503.23 -1.30138 0.888926 0
M  V30 13217 C 1504.18 -2.25598 0.33005 0
M  V30 13218 C 1505.16 -1.51434 -0.543751 0
M  V30 13219 O 1506.35 -1.72706 -0.387529 0
M  V30 13220 C 1503.48 -3.40326 -0.450925 0
M  V30 13221 C 1502.57 -4.21841 0.437187 0
M  V30 13222 N 1502.96 -4.81803 1.53947 0
M  V30 13223 C 1501.26 -4.45391 0.233015 0
M  V30 13224 C 1501.96 -5.42907 2.0887 0
M  V30 13225 N 1500.93 -5.25709 1.38314 0
M  V30 13226 H 1504.74 -2.6951 1.17224 0
M  V30 13227 H 1502.25 -1.44623 0.738771 0
M  V30 13228 H 1504.25 -4.07764 -0.867971 0
M  V30 13229 H 1502.91 -2.97953 -1.2905 0
M  V30 13230 H 1503.92 -4.80904 1.92229 0
M  V30 13231 H 1500.6 -4.13603 -0.569074 0
M  V30 13232 H 1501.99 -6.00478 3.01457 0
M  V30 13233 N 1504.71 -0.650285 -1.43559 0
M  V30 13234 C 1505.66 0.0653687 -2.27906 0
M  V30 13235 C 1506.64 0.797628 -1.39738 0
M  V30 13236 O 1507.83 0.680579 -1.63393 0
M  V30 13237 C 1504.96 1.03311 -3.27386 0
M  V30 13238 C 1504.05 0.299481 -4.23041 0
M  V30 13239 N 1504.44 -0.68239 -5.01176 0
M  V30 13240 C 1502.74 0.54133 -4.42703 0
M  V30 13241 C 1503.44 -1.11758 -5.70863 0
M  V30 13242 N 1502.41 -0.452434 -5.41714 0
M  V30 13243 H 1506.21 -0.688114 -2.85731 0
M  V30 13244 H 1503.73 -0.477326 -1.55227 0
M  V30 13245 H 1505.73 1.56058 -3.86589 0
M  V30 13246 H 1504.39 1.78669 -2.71123 0
M  V30 13247 H 1505.4 -1.06099 -5.06915 0
M  V30 13248 H 1502.07 1.2763 -3.97513 0
M  V30 13249 H 1503.46 -1.92985 -6.43589 0
M  V30 13250 N 1506.18 1.52647 -0.392018 0
M  V30 13251 C 1507.41 2.06511 0.191815 0
M  V30 13252 C 1507.83 1.26162 1.39516 0
M  V30 13253 O 1507.19 0.287373 1.79008 0
M  V30 13254 C 1507.24 3.56571 0.537512 0
M  V30 13255 O 1506.34 3.78774 1.63106 0
M  V30 13256 H 1505.68 0.663647 0.0216546 0
M  V30 13257 H 1508.21 1.96779 -0.560274 0
M  V30 13258 H 1508.22 4.00059 0.801044 0
M  V30 13259 H 1506.9 4.14489 -0.342239 0
M  V30 13260 H 1505.48 3.47175 1.36103 0
M  V30 13261 N 1507.66 0.121921 1.57128 0
M  V30 13262 C 1508.89 -0.546325 2.00075 0
M  V30 13263 C 1509.31 -1.59245 1.00113 0
M  V30 13264 O 1508.67 -1.8128 -0.0267687 0
M  V30 13265 C 1508.72 -1.14651 3.41888 0
M  V30 13266 O 1507.82 -2.26199 3.4483 0
M  V30 13267 H 1507.16 -0.136184 0.649885 0
M  V30 13268 H 1509.69 0.211257 2.03506 0
M  V30 13269 H 1509.7 -1.48133 3.80159 0
M  V30 13270 H 1508.38 -0.380273 4.14158 0
M  V30 13271 H 1506.96 -1.94134 3.18381 0
M  V30 13272 N 1509.14 -1.56867 -0.151857 0
M  V30 13273 C 1510.39 -1.83353 -0.866566 0
M  V30 13274 C 1510.72 -0.702784 -1.81038 0
M  V30 13275 O 1509.99 0.293944 -1.92266 0
M  V30 13276 C 1510.28 -3.20316 -1.64529 0
M  V30 13277 C 1510.13 -4.43946 -0.723297 0
M  V30 13278 C 1511.45 -3.54441 -2.60882 0
M  V30 13279 H 1508.57 -0.666957 -0.313588 0
M  V30 13280 H 1511.21 -1.89541 -0.131954 0
M  V30 13281 H 1509.36 -3.15172 -2.27154 0
M  V30 13282 H 1511.03 -4.61173 -0.10842 0
M  V30 13283 H 1509.28 -4.33788 -0.0325582 0
M  V30 13284 H 1509.95 -5.36374 -1.3041 0
M  V30 13285 H 1512.42 -3.60164 -2.08377 0
M  V30 13286 H 1511.3 -4.51314 -3.12422 0
M  V30 13287 H 1511.56 -2.80146 -3.42009 0
M  V30 13288 N 1510.62 0.421051 -1.51871 0
M  V30 13289 C 1512.03 1.00033 -1.5764 0
M  V30 13290 C 1512.38 1.91875 -0.409665 0
M  V30 13291 O 1511.51 2.11201 0.471516 0
M  V30 13292 C 1512.1 1.82099 -2.85701 0
M  V30 13293 C 1510.66 2.35049 -2.93988 0
M  V30 13294 C 1509.81 1.14703 -2.52465 0
M  V30 13295 H 1512.76 0.201715 -1.57413 0
M  V30 13296 H 1512.78 2.67719 -2.70382 0
M  V30 13297 H 1512.29 1.15229 -3.706 0
M  V30 13298 H 1510.39 3.05327 -2.13556 0
M  V30 13299 H 1510.5 2.66731 -3.97984 0
M  V30 13300 H 1508.87 1.49736 -2.06037 0
M  V30 13301 H 1509.65 0.494171 -3.39725 0
M  V30 13302 N 1512.1 1.42293 0.677538 0
M  V30 13303 C 1513.51 1.37948 1.25806 0
M  V30 13304 C 1513.86 0.071408 1.9607 0
M  V30 13305 O 1512.98 -0.829921 1.99853 0
M  V30 13306 C 1513.58 2.49875 2.28797 0
M  V30 13307 C 1512.14 2.48872 2.82382 0
M  V30 13308 C 1511.28 2.28804 1.56665 0
M  V30 13309 H 1514.24 1.51546 0.471102 0
M  V30 13310 H 1514.26 2.19969 3.10474 0
M  V30 13311 H 1513.77 3.45065 1.77629 0
M  V30 13312 H 1511.87 1.57492 3.37679 0
M  V30 13313 H 1511.98 3.45816 3.31585 0
M  V30 13314 H 1510.35 1.77014 1.83135 0
M  V30 13315 H 1511.13 3.26046 1.07467 0
M  V30 13316 N 1513.57 -0.913576 1.28419 0
M  V30 13317 C 1514.5 -2.03275 1.14897 0
M  V30 13318 C 1515.49 -1.70036 0.0467034 0
M  V30 13319 O 1516.67 -1.92907 0.223725 0
M  V30 13320 C 1513.8 -3.37717 0.810217 0
M  V30 13321 C 1512.75 -3.85119 1.86728 0
M  V30 13322 C 1512.08 -5.16527 1.38215 0
M  V30 13323 C 1513.38 -4.06959 3.27386 0
M  V30 13324 H 1515.07 -2.14847 2.08522 0
M  V30 13325 H 1512.62 -1.03233 1.00394 0
M  V30 13326 H 1514.57 -4.15505 0.702382 0
M  V30 13327 H 1513.3 -3.26199 -0.161732 0
M  V30 13328 H 1511.96 -3.09536 1.96426 0
M  V30 13329 H 1511.6 -5.01413 0.399263 0
M  V30 13330 H 1511.3 -5.49213 2.08898 0
M  V30 13331 H 1512.83 -5.96871 1.28754 0
M  V30 13332 H 1514.24 -4.75272 3.20608 0
M  V30 13333 H 1512.64 -4.50977 3.95904 0
M  V30 13334 H 1513.71 -3.11764 3.71391 0
M  V30 13335 N 1515.05 -1.1067 -1.12204 0
M  V30 13336 C 1516.28 -0.872867 -1.87586 0
M  V30 13337 C 1516.7 0.57682 -1.79773 0
M  V30 13338 O 1516.05 1.39782 -1.17334 0
M  V30 13339 C 1516.1 -1.31572 -3.36706 0
M  V30 13340 O 1515.82 -2.70856 -3.44338 0
M  V30 13341 C 1517.33 -1.11613 -4.29019 0
M  V30 13342 H 1514.55 -0.313132 -0.593455 0
M  V30 13343 H 1517.09 -1.47199 -1.4196 0
M  V30 13344 H 1515.24 -0.760212 -3.79868 0
M  V30 13345 H 1515.66 -2.89854 -4.37132 0
M  V30 13346 H 1517.13 -1.4751 -5.31925 0
M  V30 13347 H 1517.61 -0.0549698 -4.39166 0
M  V30 13348 H 1518.22 -1.65822 -3.91642 0
M  V30 13349 N 1516.53 1.29665 -0.895815 0
M  V30 13350 C 1517.76 2.00399 -0.534333 0
M  V30 13351 C 1518.18 1.66632 0.872654 0
M  V30 13352 O 1517.54 0.888811 1.58018 0
M  V30 13353 C 1517.59 3.53154 -0.729023 0
M  V30 13354 O 1516.69 4.11812 0.22023 0
M  V30 13355 H 1516.03 0.630173 -0.209233 0
M  V30 13356 H 1518.56 1.65253 -1.20634 0
M  V30 13357 H 1518.57 4.03073 -0.632179 0
M  V30 13358 H 1517.25 3.77067 -1.75481 0
M  V30 13359 H 1515.82 3.72822 0.0761687 0
M  V30 13360 N 1518.01 0.657889 1.43212 0
M  V30 13361 C 1519.23 0.179444 2.06622 0
M  V30 13362 C 1519.66 -1.14787 1.49015 0
M  V30 13363 O 1519.02 -1.71016 0.60192 0
M  V30 13364 C 1519.06 0.106826 3.60442 0
M  V30 13365 O 1518.17 -0.92962 4.01786 0
M  V30 13366 H 1517.51 0.0970131 0.656875 0
M  V30 13367 H 1520.04 0.902132 1.83638 0
M  V30 13368 H 1520.05 -0.07495 4.07931 0
M  V30 13369 H 1518.72 1.07574 4.01747 0
M  V30 13370 H 1517.3 -0.720255 3.65878 0
M  V30 13371 N 1519.49 -1.52437 0.400108 0
M  V30 13372 C 1520.43 -2.28312 -0.444572 0
M  V30 13373 C 1521.43 -1.32641 -1.0537 0
M  V30 13374 O 1522.63 -1.50136 -0.99293 0
M  V30 13375 H 1519.01 -0.734313 -0.162137 0
M  V30 13376 H 1520.98 -2.97612 0.216702 0
M  V30 13377 C 1519.73 -3.11044 -1.55393 0
M  V30 13378 H 1519.05 -3.84525 -1.09455 0
M  V30 13379 H 1520.49 -3.67255 -2.11896 0
M  V30 13380 C 1518.95 -2.24035 -2.51614 0
M  V30 13381 O 1519.48 -1.87447 -3.55284 0
M  V30 13382 N 1517.69 -1.87982 -2.2161 0
M  V30 13383 H 1517.23 -2.17936 -1.37338 0
M  V30 13384 H 1517.19 -1.30058 -2.86238 0
M  V30 13385 N 1520.96 -0.130252 -1.57061 0
M  V30 13386 C 1521.91 0.827158 -2.12467 0
M  V30 13387 C 1522.9 1.22069 -1.04824 0
M  V30 13388 O 1524.09 1.1899 -1.31036 0
M  V30 13389 C 1521.22 2.07284 -2.73657 0
M  V30 13390 C 1520.31 1.70317 -3.88398 0
M  V30 13391 N 1520.7 1.04082 -4.94975 0
M  V30 13392 C 1518.99 1.99701 -3.98793 0
M  V30 13393 C 1519.7 0.865016 -5.75232 0
M  V30 13394 N 1518.67 1.39359 -5.25433 0
M  V30 13395 H 1522.47 0.311706 -2.92242 0
M  V30 13396 H 1519.99 0.0718523 -1.62241 0
M  V30 13397 H 1521.98 2.76854 -3.11701 0
M  V30 13398 H 1520.64 2.59363 -1.95349 0
M  V30 13399 H 1521.66 0.703501 -5.131 0
M  V30 13400 H 1518.33 2.53747 -3.3154 0
M  V30 13401 H 1519.72 0.344255 -6.71018 0
M  V30 13402 N 1522.44 1.56945 0.143535 0
M  V30 13403 C 1523.67 1.88067 0.874385 0
M  V30 13404 C 1524.09 0.719645 1.73789 0
M  V30 13405 O 1523.45 -0.330654 1.78259 0
M  V30 13406 C 1523.5 3.17795 1.70408 0
M  V30 13407 O 1522.6 3.01973 2.80867 0
M  V30 13408 H 1521.94 0.617808 0.24333 0
M  V30 13409 H 1524.47 2.04165 0.133309 0
M  V30 13410 H 1524.48 3.49903 2.09838 0
M  V30 13411 H 1523.16 4.019 1.07001 0
M  V30 13412 H 1521.74 2.8128 2.44818 0
M  V30 13413 N 1523.92 -0.412991 1.52093 0
M  V30 13414 C 1525.15 -1.18212 1.69805 0
M  V30 13415 C 1525.56 -1.84386 0.405844 0
M  V30 13416 O 1524.92 -1.71725 -0.617809 0
M  V30 13417 C 1524.97 -2.24811 2.83094 0
M  V30 13418 O 1524.69 -1.61338 4.0731 0
M  V30 13419 C 1526.19 -3.14633 3.12283 0
M  V30 13420 H 1523.41 -0.355371 0.569168 0
M  V30 13421 H 1525.96 -0.486392 1.98632 0
M  V30 13422 H 1524.11 -2.90058 2.56797 0
M  V30 13423 H 1524.53 -2.31979 4.7041 0
M  V30 13424 H 1526 -3.85511 3.95076 0
M  V30 13425 H 1526.48 -3.76785 2.25677 0
M  V30 13426 H 1527.08 -2.55059 3.40331 0
M  V30 13427 N 1525.4 -1.4265 -0.669982 0
M  V30 13428 C 1526.62 -1.46992 -1.46315 0
M  V30 13429 C 1527.05 -0.0840655 -1.87912 0
M  V30 13430 O 1526.41 0.918554 -1.56308 0
M  V30 13431 C 1526.46 -2.40663 -2.6854 0
M  V30 13432 O 1525.56 -1.88132 -3.66988 0
M  V30 13433 H 1524.9 -0.497844 -0.439372 0
M  V30 13434 H 1527.43 -1.8739 -0.821348 0
M  V30 13435 H 1527.44 -2.57405 -3.16554 0
M  V30 13436 H 1526.12 -3.41346 -2.37604 0
M  V30 13437 H 1524.69 -1.80969 -3.26044 0
M  V30 13438 N 1526.88 0.906753 -1.28902 0
M  V30 13439 C 1528.29 1.47175 -1.14876 0
M  V30 13440 C 1528.64 1.94487 0.258693 0
M  V30 13441 O 1527.76 1.83088 1.15359 0
M  V30 13442 C 1528.36 2.67491 -2.07928 0
M  V30 13443 C 1526.92 3.20148 -1.97946 0
M  V30 13444 C 1526.07 1.92846 -1.99263 0
M  V30 13445 H 1529.02 0.718777 -1.4149 0
M  V30 13446 H 1529.04 3.42989 -1.64738 0
M  V30 13447 H 1528.55 2.33025 -3.10356 0
M  V30 13448 H 1526.65 3.59322 -0.985806 0
M  V30 13449 H 1526.76 3.84923 -2.85256 0
M  V30 13450 H 1525.13 2.10247 -1.43765 0
M  V30 13451 H 1525.91 1.60666 -3.03383 0
M  V30 13452 N 1528.36 1.11264 1.11616 0
M  V30 13453 C 1529.29 0.727118 2.17361 0
M  V30 13454 C 1530.3 -0.240356 1.61016 0
M  V30 13455 O 1531.49 -0.0235265 1.78484 0
M  V30 13456 C 1528.59 0.05361 3.38858 0
M  V30 13457 C 1527.76 1.04744 4.24673 0
M  V30 13458 C 1526.82 0.403827 5.24648 0
M  V30 13459 O 1525.85 1.0572 5.59296 0
M  V30 13460 N 1527.05 -0.834071 5.74477 0
M  V30 13461 H 1529.81 1.63696 2.51045 0
M  V30 13462 H 1527.38 1.00261 1.2712 0
M  V30 13463 H 1529.37 -0.388643 4.0283 0
M  V30 13464 H 1527.94 -0.758778 3.03251 0
M  V30 13465 H 1527.16 1.6677 3.57185 0
M  V30 13466 H 1528.45 1.71988 4.7885 0
M  V30 13467 H 1527.84 -1.3841 5.48506 0
M  V30 13468 H 1526.4 -1.21933 6.40293 0
M  V30 13469 N 1529.83 -1.29188 0.902679 0
M  V30 13470 C 1530.76 -2.3006 0.399357 0
M  V30 13471 C 1531.74 -1.61724 -0.527199 0
M  V30 13472 O 1532.93 -1.89213 -0.437293 0
M  V30 13473 C 1530.06 -3.45309 -0.371331 0
M  V30 13474 C 1529.01 -4.25466 0.465068 0
M  V30 13475 C 1528.34 -5.32941 -0.433295 0
M  V30 13476 C 1529.64 -4.93287 1.71655 0
M  V30 13477 H 1531.33 -2.72409 1.24233 0
M  V30 13478 H 1528.88 -1.30958 0.598822 0
M  V30 13479 H 1530.83 -4.14955 -0.734207 0
M  V30 13480 H 1529.56 -3.01811 -1.24811 0
M  V30 13481 H 1528.22 -3.57532 0.810315 0
M  V30 13482 H 1527.86 -4.85688 -1.3083 0
M  V30 13483 H 1527.56 -5.87472 0.122657 0
M  V30 13484 H 1529.09 -6.05438 -0.792298 0
M  V30 13485 H 1530.5 -5.55353 1.42323 0
M  V30 13486 H 1528.9 -5.57763 2.21405 0
M  V30 13487 H 1529.97 -4.18406 2.45081 0
M  V30 13488 N 1531.31 -0.665475 -1.42861 0
M  V30 13489 C 1532.54 -0.190399 -2.06524 0
M  V30 13490 C 1532.96 1.13995 -1.49622 0
M  V30 13491 O 1532.32 1.70695 -0.610981 0
M  V30 13492 C 1532.37 -0.12594 -3.6038 0
M  V30 13493 O 1531.47 0.908299 -4.02273 0
M  V30 13494 H 1530.81 -0.100495 -0.656351 0
M  V30 13495 H 1533.34 -0.911858 -1.83156 0
M  V30 13496 H 1533.35 0.0533153 -4.07965 0
M  V30 13497 H 1532.03 -1.09703 -4.01171 0
M  V30 13498 H 1530.6 0.700841 -3.66255 0
M  V30 13499 N 1532.79 1.52222 -0.408187 0
M  V30 13500 C 1534.02 2.06221 0.16743 0
M  V30 13501 C 1534.43 1.27832 1.3894 0
M  V30 13502 O 1533.79 0.329933 1.79493 0
M  V30 13503 C 1533.84 3.57758 0.518804 0
M  V30 13504 O 1533.56 4.33181 -0.654639 0
M  V30 13505 C 1535.06 4.28171 1.14825 0
M  V30 13506 H 1532.28 0.670677 0.0208054 0
M  V30 13507 H 1534.83 1.96136 -0.578868 0
M  V30 13508 H 1532.98 3.67854 1.215 0
M  V30 13509 H 1533.4 5.23252 -0.361558 0
M  V30 13510 H 1534.87 5.3538 1.34433 0
M  V30 13511 H 1535.35 3.84586 2.12108 0
M  V30 13512 H 1535.95 4.22441 0.492291 0
M  V30 13513 N 1534.27 0.138579 1.5699 0
M  V30 13514 C 1535.52 -0.513611 1.95465 0
M  V30 13515 C 1535.84 -1.65952 1.02396 0
M  V30 13516 O 1535.11 -1.9572 0.0839001 0
M  V30 13517 H 1533.69 -0.192729 0.72171 0
M  V30 13518 H 1536.35 0.212107 1.93742 0
M  V30 13519 H 1535.44 -0.895313 2.98983 0
M  V30 13520 N 1535.75 -1.57019 -0.13521 0
M  V30 13521 C 1536.99 -1.84262 -0.847071 0
M  V30 13522 C 1537.32 -0.721946 -1.80282 0
M  V30 13523 O 1536.6 0.273535 -1.92567 0
M  V30 13524 C 1536.88 -3.22043 -1.61123 0
M  V30 13525 C 1536.74 -4.44689 -0.67617 0
M  V30 13526 C 1538.05 -3.57188 -2.57108 0
M  V30 13527 H 1535.17 -0.670246 -0.306496 0
M  V30 13528 H 1537.82 -1.89671 -0.111843 0
M  V30 13529 H 1535.97 -3.17563 -2.23799 0
M  V30 13530 H 1537.64 -4.61262 -0.0595009 0
M  V30 13531 H 1535.88 -4.33798 0.0134526 0
M  V30 13532 H 1536.55 -5.37727 -1.24714 0
M  V30 13533 H 1539.03 -3.62354 -2.04545 0
M  V30 13534 H 1537.9 -4.54602 -3.07617 0
M  V30 13535 H 1538.16 -2.83758 -3.39019 0
M  V30 13536 N 1537.22 0.404919 -1.52309 0
M  V30 13537 C 1538.45 1.17764 -1.70723 0
M  V30 13538 C 1538.87 1.83403 -0.417744 0
M  V30 13539 O 1538.23 1.70181 0.625157 0
M  V30 13540 C 1538.28 2.2133 -2.84685 0
M  V30 13541 O 1537.38 3.27566 -2.50548 0
M  V30 13542 H 1536.73 0.343572 -0.568203 0
M  V30 13543 H 1539.26 0.474093 -1.99031 0
M  V30 13544 H 1539.27 2.6559 -3.09719 0
M  V30 13545 H 1537.94 1.72939 -3.78239 0
M  V30 13546 H 1536.52 2.88556 -2.36199 0
M  V30 13547 N 1538.7 1.43003 0.662408 0
M  V30 13548 C 1539.95 1.44133 1.42239 0
M  V30 13549 C 1540.28 0.062249 1.944 0
M  V30 13550 O 1539.53 -0.931341 1.72118 0
M  V30 13551 C 1539.83 2.4231 2.62718 0
M  V30 13552 C 1539.5 3.88403 2.29028 0
M  V30 13553 C 1538.16 4.28194 2.19552 0
M  V30 13554 C 1540.51 4.80505 2.01902 0
M  V30 13555 C 1537.84 5.58052 1.81092 0
M  V30 13556 C 1540.19 6.10718 1.64943 0
M  V30 13557 C 1538.86 6.49496 1.53985 0
M  V30 13558 H 1538.13 0.527419 0.52049 0
M  V30 13559 H 1540.77 1.76024 0.75417 0
M  V30 13560 H 1539.08 2.03789 3.3463 0
M  V30 13561 H 1540.77 2.40442 3.20918 0
M  V30 13562 H 1537.36 3.56906 2.37311 0
M  V30 13563 H 1541.55 4.50542 2.08149 0
M  V30 13564 H 1536.8 5.86945 1.71187 0
M  V30 13565 H 1540.98 6.81564 1.42982 0
M  V30 13566 H 1538.61 7.50026 1.23954 0
M  V30 13567 N 1540.18 -0.899904 1.29381 0
M  V30 13568 C 1541.43 -1.65038 1.17341 0
M  V30 13569 C 1541.76 -1.92544 -0.275135 0
M  V30 13570 O 1541.01 -1.53402 -1.21517 0
M  V30 13571 C 1541.31 -3.0069 1.93185 0
M  V30 13572 C 1540.98 -2.92792 3.42905 0
M  V30 13573 C 1539.64 -2.90345 3.83736 0
M  V30 13574 C 1541.99 -2.82015 4.38312 0
M  V30 13575 C 1539.32 -2.7494 5.1829 0
M  V30 13576 C 1541.67 -2.68149 5.72956 0
M  V30 13577 C 1540.33 -2.64068 6.13045 0
M  V30 13578 H 1539.6 -0.603915 0.42938 0
M  V30 13579 H 1542.25 -1.04743 1.60316 0
M  V30 13580 H 1540.56 -3.6485 1.428 0
M  V30 13581 H 1542.25 -3.57688 1.81274 0
M  V30 13582 H 1538.84 -2.95498 3.10449 0
M  V30 13583 H 1543.03 -2.82982 4.07719 0
M  V30 13584 H 1538.28 -2.70186 5.48461 0
M  V30 13585 H 1542.46 -2.58781 6.46533 0
M  V30 13586 H 1540.08 -2.51889 7.17256 0
M  V30 13587 N 1541.66 -1.11854 -1.11024 0
M  V30 13588 C 1542.91 -0.870073 -1.82855 0
M  V30 13589 C 1543.23 0.604215 -1.84877 0
M  V30 13590 O 1542.49 1.46232 -1.30056 0
M  V30 13591 C 1542.79 -1.3823 -3.29586 0
M  V30 13592 C 1542.45 -2.87057 -3.4772 0
M  V30 13593 C 1541.12 -3.27696 -3.52376 0
M  V30 13594 C 1543.47 -3.8289 -3.53617 0
M  V30 13595 C 1540.8 -4.62886 -3.60491 0
M  V30 13596 C 1543.15 -5.17902 -3.63263 0
M  V30 13597 C 1541.81 -5.58092 -3.66182 0
M  V30 13598 H 1541.08 -0.318382 -0.669114 0
M  V30 13599 H 1543.73 -1.39769 -1.30908 0
M  V30 13600 H 1542.03 -0.775018 -3.84058 0
M  V30 13601 H 1543.73 -1.16634 -3.83663 0
M  V30 13602 H 1540.32 -2.54623 -3.44768 0
M  V30 13603 H 1544.5 -3.52591 -3.49275 0
M  V30 13604 H 1539.76 -4.93425 -3.61029 0
M  V30 13605 H 1543.93 -5.9199 -3.6677 0
M  V30 13606 H 1541.56 -6.62838 -3.72222 0
M  V30 13607 N 1543.14 1.28707 -0.909517 0
M  V30 13608 C 1544.07 2.29845 -0.411552 0
M  V30 13609 C 1545.05 1.62001 0.518615 0
M  V30 13610 O 1546.23 1.89442 0.427252 0
M  V30 13611 C 1543.36 3.45501 0.353013 0
M  V30 13612 C 1542.32 4.25213 -0.487625 0
M  V30 13613 C 1541.64 5.33164 0.405026 0
M  V30 13614 C 1542.94 4.9237 -1.74268 0
M  V30 13615 H 1544.64 2.71746 -1.25676 0
M  V30 13616 H 1542.18 1.30639 -0.605759 0
M  V30 13617 H 1544.14 4.15338 0.712191 0
M  V30 13618 H 1542.86 3.02469 1.23209 0
M  V30 13619 H 1541.52 3.57098 -0.829265 0
M  V30 13620 H 1541.17 4.86375 1.28252 0
M  V30 13621 H 1540.87 5.87399 -0.153811 0
M  V30 13622 H 1542.39 6.0585 0.760179 0
M  V30 13623 H 1543.8 5.5459 -1.45266 0
M  V30 13624 H 1542.2 5.56581 -2.2436 0
M  V30 13625 H 1543.27 4.171 -2.47297 0
M  V30 13626 N 1544.61 0.673042 1.42506 0
M  V30 13627 C 1545.84 0.201349 2.0642 0
M  V30 13628 C 1546.26 -1.132 1.50224 0
M  V30 13629 O 1545.62 -1.70368 0.620024 0
M  V30 13630 C 1545.67 0.14505 3.60308 0
M  V30 13631 O 1544.77 -0.886953 4.02749 0
M  V30 13632 H 1544.12 0.103975 0.655809 0
M  V30 13633 H 1546.65 0.921559 1.8267 0
M  V30 13634 H 1546.66 -0.0316792 4.07988 0
M  V30 13635 H 1545.33 1.11829 4.00583 0
M  V30 13636 H 1543.91 -0.681408 3.66621 0
M  V30 13637 N 1546.09 -1.52004 0.416254 0
M  V30 13638 C 1547.34 -2.01889 -0.157201 0
M  V30 13639 C 1547.67 -1.30153 -1.44535 0
M  V30 13640 O 1546.92 -0.39855 -1.91599 0
M  V30 13641 C 1547.22 -3.54624 -0.444553 0
M  V30 13642 C 1546.89 -4.4453 0.755251 0
M  V30 13643 C 1545.55 -4.68824 1.08433 0
M  V30 13644 C 1547.9 -4.97412 1.55663 0
M  V30 13645 C 1545.23 -5.43246 2.21586 0
M  V30 13646 C 1547.58 -5.73074 2.67898 0
M  V30 13647 C 1546.25 -5.95637 3.01285 0
M  V30 13648 H 1545.52 -0.738764 -0.0575239 0
M  V30 13649 H 1548.16 -1.83156 0.559133 0
M  V30 13650 H 1546.47 -3.71575 -1.24254 0
M  V30 13651 H 1548.16 -3.90739 -0.901333 0
M  V30 13652 H 1544.75 -4.25804 0.488789 0
M  V30 13653 H 1548.94 -4.78545 1.31562 0
M  V30 13654 H 1544.19 -5.58936 2.47792 0
M  V30 13655 H 1548.37 -6.13044 3.30378 0
M  V30 13656 H 1546 -6.53086 3.89079 0
M  V30 13657 N 1547.57 -0.146903 -1.56914 0
M  V30 13658 C 1548.52 0.804576 -2.13332 0
M  V30 13659 C 1549.5 1.2095 -1.06112 0
M  V30 13660 O 1550.7 1.17594 -1.3229 0
M  V30 13661 C 1547.83 2.0437 -2.7584 0
M  V30 13662 C 1546.91 1.66188 -3.90183 0
M  V30 13663 N 1547.3 0.988267 -4.96051 0
M  V30 13664 C 1545.6 1.9546 -4.00888 0
M  V30 13665 C 1546.3 0.803957 -5.76118 0
M  V30 13666 N 1545.28 1.33779 -5.26882 0
M  V30 13667 H 1549.08 0.280693 -2.92557 0
M  V30 13668 H 1546.59 0.0546404 -1.62308 0
M  V30 13669 H 1548.59 2.73532 -3.1462 0
M  V30 13670 H 1547.25 2.57276 -1.98089 0
M  V30 13671 H 1548.26 0.64904 -5.13817 0
M  V30 13672 H 1544.94 2.50216 -3.34213 0
M  V30 13673 H 1546.33 0.273065 -6.71345 0
M  V30 13674 N 1549.05 1.57088 0.126881 0
M  V30 13675 C 1550.3 1.83624 0.834582 0
M  V30 13676 C 1550.61 0.731331 1.81414 0
M  V30 13677 O 1551.82 0.88286 2.56745 0
M  V30 13678 C 1550.27 3.25529 1.5349 0
M  V30 13679 C 1549.88 4.44008 0.59673 0
M  V30 13680 C 1551.62 3.6132 2.22819 0
M  V30 13681 C 1549.53 5.76939 1.29982 0
M  V30 13682 H 1548.46 0.684858 0.315414 0
M  V30 13683 H 1551.11 1.83292 0.087305 0
M  V30 13684 H 1549.49 3.20306 2.32852 0
M  V30 13685 H 1550.67 4.60511 -0.163109 0
M  V30 13686 H 1548.98 4.16399 0.0108081 0
M  V30 13687 H 1551.58 4.57902 2.76098 0
M  V30 13688 H 1551.92 2.88363 3.00254 0
M  V30 13689 H 1552.46 3.68291 1.50354 0
M  V30 13690 H 1549.2 6.53044 0.566925 0
M  V30 13691 H 1548.72 5.64336 2.03187 0
M  V30 13692 H 1550.39 6.20427 1.8352 0
M  V30 13693 N 1550.53 -0.396836 1.52522 0
M  V30 13694 C 1551.75 -1.16857 1.71345 0
M  V30 13695 C 1552.18 -1.83178 0.427465 0
M  V30 13696 O 1551.53 -1.7051 -0.616123 0
M  V30 13697 C 1551.58 -2.19817 2.85855 0
M  V30 13698 O 1550.69 -3.26233 2.52281 0
M  V30 13699 H 1550.03 -0.340554 0.570017 0
M  V30 13700 H 1552.56 -0.463532 1.9928 0
M  V30 13701 H 1552.57 -2.63944 3.11123 0
M  V30 13702 H 1551.24 -1.70931 3.79151 0
M  V30 13703 H 1549.82 -2.87299 2.37726 0
M  V30 13704 N 1552.01 -1.43353 -0.654814 0
M  V30 13705 C 1552.95 -1.48652 -1.789 0
M  V30 13706 C 1553.95 -0.360274 -1.65525 0
M  V30 13707 O 1555.15 -0.534194 -1.71891 0
M  V30 13708 H 1551.53 -0.465987 -0.590221 0
M  V30 13709 H 1553.5 -2.44158 -1.7155 0
M  V30 13710 C 1552.25 -1.42512 -3.17152 0
M  V30 13711 H 1551.57 -2.28479 -3.28081 0
M  V30 13712 H 1553.01 -1.50282 -3.96474 0
M  V30 13713 C 1551.47 -0.142511 -3.36598 0
M  V30 13714 O 1552 0.796821 -3.93718 0
M  V30 13715 N 1550.21 -0.0532157 -2.90551 0
M  V30 13716 H 1549.75 -0.818421 -2.44253 0
M  V30 13717 H 1549.71 0.80427 -3.03939 0
M  V30 13718 N 1553.48 0.89303 -1.29857 0
M  V30 13719 C 1554.41 2.01422 -1.18117 0
M  V30 13720 C 1555.39 1.6994 -0.0737487 0
M  V30 13721 O 1556.58 1.92527 -0.254387 0
M  V30 13722 C 1553.71 3.36385 -0.863842 0
M  V30 13723 C 1552.66 3.821 -1.92831 0
M  V30 13724 C 1551.99 5.14263 -1.46415 0
M  V30 13725 C 1553.29 4.01699 -3.33819 0
M  V30 13726 H 1554.98 2.11502 -2.11913 0
M  V30 13727 H 1552.53 1.01622 -1.02024 0
M  V30 13728 H 1554.48 4.14335 -0.768397 0
M  V30 13729 H 1553.21 3.26415 0.109816 0
M  V30 13730 H 1551.87 3.06372 -2.01325 0
M  V30 13731 H 1551.51 5.00714 -0.478983 0
M  V30 13732 H 1551.21 5.45821 -2.17609 0
M  V30 13733 H 1552.74 5.94747 -1.38234 0
M  V30 13734 H 1554.15 4.70111 -3.28129 0
M  V30 13735 H 1552.55 4.44621 -4.03029 0
M  V30 13736 H 1553.62 3.05816 -3.76304 0
M  V30 13737 N 1554.96 1.12442 1.10429 0
M  V30 13738 C 1555.89 0.750131 2.16577 0
M  V30 13739 C 1556.91 -0.223265 1.61262 0
M  V30 13740 O 1558.1 -0.00459454 1.78499 0
M  V30 13741 C 1555.2 0.0895474 3.38782 0
M  V30 13742 C 1554.37 1.09242 4.23539 0
M  V30 13743 C 1553.43 0.45945 5.2419 0
M  V30 13744 O 1552.45 1.11646 5.58143 0
M  V30 13745 N 1553.66 -0.773093 5.75329 0
M  V30 13746 H 1556.42 1.66349 2.49295 0
M  V30 13747 H 1553.98 1.01603 1.26049 0
M  V30 13748 H 1555.97 -0.345895 4.03219 0
M  V30 13749 H 1554.54 -0.726572 3.04039 0
M  V30 13750 H 1553.76 1.70549 3.55396 0
M  V30 13751 H 1555.05 1.77057 4.76999 0
M  V30 13752 H 1554.45 -1.32585 5.49943 0
M  V30 13753 H 1553.01 -1.15135 6.41551 0
M  V30 13754 N 1556.44 -1.28223 0.91633 0
M  V30 13755 C 1557.69 -1.94865 0.550823 0
M  V30 13756 C 1558.01 -1.72113 -0.905945 0
M  V30 13757 O 1557.27 -1.03668 -1.65987 0
M  V30 13758 C 1557.57 -3.48112 0.809509 0
M  V30 13759 C 1557.23 -3.90967 2.24623 0
M  V30 13760 C 1555.9 -4.02379 2.63903 0
M  V30 13761 C 1558.25 -4.12865 3.18106 0
M  V30 13762 C 1555.58 -4.33069 3.95814 0
M  V30 13763 C 1557.93 -4.45036 4.49584 0
M  V30 13764 C 1556.59 -4.54659 4.88714 0
M  V30 13765 H 1555.86 -0.71306 0.20156 0
M  V30 13766 H 1558.51 -1.5251 1.15814 0
M  V30 13767 H 1556.81 -3.91618 0.119411 0
M  V30 13768 H 1558.51 -3.97797 0.505843 0
M  V30 13769 H 1555.1 -3.82614 1.93144 0
M  V30 13770 H 1559.29 -4.035 2.88966 0
M  V30 13771 H 1554.54 -4.38725 4.25829 0
M  V30 13772 H 1558.72 -4.60928 5.22033 0
M  V30 13773 H 1556.34 -4.78194 5.90961 0
M  V30 13774 N 1557.92 -0.68059 -1.42147 0
M  V30 13775 C 1558.87 0.00572503 -2.32599 0
M  V30 13776 C 1559.86 0.784449 -1.50142 0
M  V30 13777 O 1561.07 0.69176 -1.66177 0
M  V30 13778 H 1557.44 0.0206483 -0.751716 0
M  V30 13779 H 1559.41 -0.774447 -2.88175 0
M  V30 13780 C 1558.16 0.939019 -3.3478 0
M  V30 13781 H 1557.48 0.349225 -3.98272 0
M  V30 13782 H 1558.92 1.38782 -4.00644 0
M  V30 13783 C 1557.38 2.04814 -2.67493 0
M  V30 13784 O 1557.91 3.13526 -2.51126 0
M  V30 13785 N 1556.12 1.82153 -2.26426 0
M  V30 13786 H 1555.67 0.93743 -2.39938 0
M  V30 13787 H 1555.62 2.56551 -1.81738 0
M  V30 13788 N 1559.4 1.51781 -0.424309 0
M  V30 13789 C 1560.62 2.06871 0.147968 0
M  V30 13790 C 1561.05 1.29093 1.36808 0
M  V30 13791 O 1560.4 0.325279 1.78358 0
M  V30 13792 C 1560.45 3.57631 0.461757 0
M  V30 13793 O 1559.56 3.82149 1.55035 0
M  V30 13794 H 1558.9 0.663957 0.00757275 0
M  V30 13795 H 1561.43 1.95547 -0.601888 0
M  V30 13796 H 1561.44 4.01668 0.716005 0
M  V30 13797 H 1560.11 4.1367 -0.430081 0
M  V30 13798 H 1558.69 3.49984 1.28709 0
M  V30 13799 N 1560.87 0.155222 1.56834 0
M  V30 13800 C 1562.1 -0.503763 2.01189 0
M  V30 13801 C 1562.52 -1.57086 1.03468 0
M  V30 13802 O 1561.88 -1.81296 0.0116895 0
M  V30 13803 C 1561.93 -1.07373 3.44243 0
M  V30 13804 O 1561.03 -2.18834 3.49551 0
M  V30 13805 H 1560.37 -0.122368 0.652627 0
M  V30 13806 H 1562.9 0.254377 2.03013 0
M  V30 13807 H 1562.91 -1.40036 3.83215 0
M  V30 13808 H 1561.59 -0.292339 4.14871 0
M  V30 13809 H 1560.17 -1.87337 3.22427 0
M  V30 13810 N 1562.35 -1.57153 -0.118549 0
M  V30 13811 C 1563.28 -2.03409 -1.1466 0
M  V30 13812 C 1564.26 -0.918636 -1.43161 0
M  V30 13813 O 1565.45 -1.18838 -1.53594 0
M  V30 13814 C 1562.58 -2.43879 -2.47265 0
M  V30 13815 C 1561.53 -3.58873 -2.33225 0
M  V30 13816 C 1560.86 -3.85244 -3.70798 0
M  V30 13817 C 1562.16 -4.90582 -1.79239 0
M  V30 13818 H 1563.85 -2.89545 -0.761862 0
M  V30 13819 H 1561.4 -1.39296 -0.365034 0
M  V30 13820 H 1563.35 -2.74844 -3.19435 0
M  V30 13821 H 1562.07 -1.54715 -2.8763 0
M  V30 13822 H 1560.73 -3.28119 -1.63504 0
M  V30 13823 H 1560.38 -2.93285 -4.08648 0
M  V30 13824 H 1560.08 -4.62649 -3.62257 0
M  V30 13825 H 1561.61 -4.18661 -4.44472 0
M  V30 13826 H 1563.02 -5.20079 -2.41227 0
M  V30 13827 H 1561.42 -5.71989 -1.81518 0
M  V30 13828 H 1562.49 -4.79065 -0.74999 0
M  V30 13829 N 1563.83 0.388742 -1.5273 0
M  V30 13830 C 1564.74 1.49916 -1.8045 0
M  V30 13831 C 1565.76 1.59679 -0.691282 0
M  V30 13832 O 1566.93 1.7601 -0.978898 0
M  V30 13833 C 1564 2.85445 -1.96779 0
M  V30 13834 C 1563.06 2.85402 -3.20693 0
M  V30 13835 C 1562.29 4.14466 -3.36234 0
M  V30 13836 O 1562.51 5.09436 -2.56576 0
M  V30 13837 O 1561.45 4.2169 -4.29489 0
M  V30 13838 H 1565.27 1.29423 -2.74743 0
M  V30 13839 H 1562.86 0.576607 -1.37825 0
M  V30 13840 H 1564.74 3.65791 -2.09224 0
M  V30 13841 H 1563.42 3.05964 -1.05676 0
M  V30 13842 H 1562.32 2.03836 -3.1369 0
M  V30 13843 H 1563.66 2.69835 -4.11643 0
M  V30 13844 N 1565.31 1.43698 0.647203 0
M  V30 13845 C 1566.58 1.3611 1.40476 0
M  V30 13846 C 1566.96 0.0118567 2.11097 0
M  V30 13847 O 1566.31 -1.00496 2.05214 0
M  V30 13848 C 1566.52 2.5484 2.38448 0
M  V30 13849 C 1567.87 2.98195 3.02267 0
M  V30 13850 O 1568.89 2.5493 2.48775 0
M  V30 13851 O 1567.75 3.73162 3.99265 0
M  V30 13852 H 1564.85 0.538198 0.62791 0
M  V30 13853 H 1567.39 1.55758 0.673606 0
M  V30 13854 H 1566.17 3.4467 1.85253 0
M  V30 13855 H 1565.79 2.37323 3.19004 0
M  V30 13856 N 1566.79 -0.886131 1.30328 0
M  V30 13857 C 1568.2 -1.45328 1.17203 0
M  V30 13858 C 1568.55 -1.94874 -0.227719 0
M  V30 13859 O 1567.67 -1.84901 -1.12431 0
M  V30 13860 C 1568.27 -2.64149 2.12157 0
M  V30 13861 C 1566.83 -3.16958 2.03014 0
M  V30 13862 C 1565.97 -1.89651 2.02306 0
M  V30 13863 H 1568.93 -0.696177 1.42615 0
M  V30 13864 H 1568.95 -3.40325 1.70173 0
M  V30 13865 H 1568.46 -2.28058 3.14024 0
M  V30 13866 H 1566.56 -3.57709 1.04285 0
M  V30 13867 H 1566.67 -3.80336 2.91344 0
M  V30 13868 H 1565.04 -2.07933 1.47091 0
M  V30 13869 H 1565.82 -1.5582 3.05901 0
M  V30 13870 N 1568.26 -1.13026 -1.09832 0
M  V30 13871 C 1569.49 -0.912803 -1.86233 0
M  V30 13872 C 1569.91 0.532955 -1.80392 0
M  V30 13873 O 1569.27 1.37783 -1.17837 0
M  V30 13874 C 1569.32 -1.40002 -3.32313 0
M  V30 13875 O 1568.42 -0.582537 -4.08265 0
M  V30 13876 H 1567.77 -0.327464 -0.577636 0
M  V30 13877 H 1570.3 -1.5039 -1.38723 0
M  V30 13878 H 1570.31 -1.40182 -3.83162 0
M  V30 13879 H 1568.98 -2.4527 -3.3588 0
M  V30 13880 H 1567.56 -0.648255 -3.67222 0
M  V30 13881 N 1569.74 1.27735 -0.923117 0
M  V30 13882 C 1570.97 1.98682 -0.577317 0
M  V30 13883 C 1571.39 1.68904 0.843608 0
M  V30 13884 O 1570.74 0.947021 1.56006 0
M  V30 13885 C 1570.79 3.52804 -0.788144 0
M  V30 13886 O 1570.51 3.81537 -2.15316 0
M  V30 13887 C 1572.02 4.41006 -0.450437 0
M  V30 13888 H 1569.24 0.634186 -0.2192 0
M  V30 13889 H 1571.78 1.62702 -1.23888 0
M  V30 13890 H 1569.93 3.87012 -0.173441 0
M  V30 13891 H 1570.35 4.76142 -2.19976 0
M  V30 13892 H 1571.82 5.48175 -0.648674 0
M  V30 13893 H 1572.3 4.3489 0.613806 0
M  V30 13894 H 1572.91 4.1231 -1.04308 0
M  V30 13895 N 1571.22 0.688118 1.41784 0
M  V30 13896 C 1572.5 0.144304 1.95067 0
M  V30 13897 C 1572.88 -1.34399 1.62789 0
M  V30 13898 O 1572.23 -2.08675 0.930978 0
M  V30 13899 C 1572.44 0.427641 3.4637 0
M  V30 13900 C 1573.78 0.351345 4.23144 0
M  V30 13901 O 1574.81 0.362134 3.54354 0
M  V30 13902 O 1573.67 0.305018 5.45648 0
M  V30 13903 H 1570.76 0.01062 0.826932 0
M  V30 13904 H 1573.31 0.763766 1.51541 0
M  V30 13905 H 1572.08 1.4581 3.63119 0
M  V30 13906 H 1571.7 -0.223167 3.96973 0
M  V30 13907 N 1572.7 -1.51554 0.432352 0
M  V30 13908 C 1573.93 -2.06162 -0.134405 0
M  V30 13909 C 1574.34 -1.30027 -1.37439 0
M  V30 13910 O 1573.68 -0.351793 -1.803 0
M  V30 13911 C 1573.74 -3.55617 -0.526926 0
M  V30 13912 C 1573.41 -4.5297 0.605559 0
M  V30 13913 C 1574.4 -4.98502 1.47619 0
M  V30 13914 C 1572.09 -4.9613 0.784871 0
M  V30 13915 C 1574.08 -5.85861 2.51088 0
M  V30 13916 C 1571.77 -5.8328 1.82284 0
M  V30 13917 C 1572.77 -6.28043 2.68423 0
M  V30 13918 O 1572.45 -7.13464 3.70438 0
M  V30 13919 H 1572.19 -0.675863 -0.0135879 0
M  V30 13920 H 1574.74 -1.96172 0.608761 0
M  V30 13921 H 1572.97 -3.63374 -1.32272 0
M  V30 13922 H 1574.66 -3.92764 -1.02426 0
M  V30 13923 H 1575.43 -4.65857 1.34917 0
M  V30 13924 H 1571.3 -4.60833 0.123986 0
M  V30 13925 H 1574.85 -6.20722 3.18356 0
M  V30 13926 H 1570.75 -6.15339 1.95008 0
M  V30 13927 H 1571.51 -7.3163 3.6696 0
M  V30 13928 N 1574.18 -0.163538 -1.56749 0
M  V30 13929 C 1575.41 0.489178 -2.00725 0
M  V30 13930 C 1575.81 1.57869 -1.04279 0
M  V30 13931 O 1575.16 1.83668 -0.0344434 0
M  V30 13932 C 1575.22 1.13443 -3.41132 0
M  V30 13933 C 1574.88 0.187525 -4.56615 0
M  V30 13934 C 1575.88 -0.591169 -5.16528 0
M  V30 13935 C 1573.57 0.0856149 -5.02227 0
M  V30 13936 C 1575.56 -1.45905 -6.20476 0
M  V30 13937 C 1573.25 -0.785859 -6.06026 0
M  V30 13938 C 1574.24 -1.55678 -6.65021 0
M  V30 13939 O 1573.93 -2.41371 -7.66809 0
M  V30 13940 H 1573.66 0.130353 -0.663313 0
M  V30 13941 H 1576.22 -0.260065 -2.03747 0
M  V30 13942 H 1574.45 1.93165 -3.34999 0
M  V30 13943 H 1576.14 1.68856 -3.69111 0
M  V30 13944 H 1576.9 -0.522563 -4.82177 0
M  V30 13945 H 1572.78 0.675439 -4.56025 0
M  V30 13946 H 1576.33 -2.06125 -6.66452 0
M  V30 13947 H 1572.22 -0.855696 -6.39803 0
M  V30 13948 H 1572.99 -2.34801 -7.84099 0
M  V30 13949 N 1575.65 1.57214 0.110213 0
M  V30 13950 C 1576.59 1.97641 1.16064 0
M  V30 13951 C 1577.6 0.876886 1.37166 0
M  V30 13952 O 1578.79 1.15512 1.36086 0
M  V30 13953 C 1575.89 2.2671 2.51904 0
M  V30 13954 C 1575.06 3.58015 2.51285 0
M  V30 13955 C 1574.12 3.75195 3.68938 0
M  V30 13956 O 1573.15 4.47214 3.5212 0
M  V30 13957 N 1574.35 3.14627 4.87842 0
M  V30 13958 H 1577.11 2.88358 0.816679 0
M  V30 13959 H 1574.67 1.59108 0.299383 0
M  V30 13960 H 1576.67 2.35411 3.29187 0
M  V30 13961 H 1575.24 1.42076 2.78448 0
M  V30 13962 H 1574.46 3.60422 1.59655 0
M  V30 13963 H 1575.74 4.44303 2.47936 0
M  V30 13964 H 1575.14 2.56101 5.0441 0
M  V30 13965 H 1573.7 3.28836 5.6277 0
M  V30 13966 N 1577.13 -0.380637 1.52934 0
M  V30 13967 C 1578.04 -1.48957 1.81243 0
M  V30 13968 C 1579.06 -1.5931 0.69974 0
M  V30 13969 O 1580.23 -1.75488 0.988218 0
M  V30 13970 C 1577.3 -2.84397 1.9829 0
M  V30 13971 C 1576.36 -2.83697 3.22202 0
M  V30 13972 C 1575.59 -4.12677 3.38427 0
M  V30 13973 O 1575.82 -5.08068 2.59274 0
M  V30 13974 O 1574.75 -4.19407 4.31719 0
M  V30 13975 H 1578.58 -1.27964 2.75425 0
M  V30 13976 H 1576.16 -0.56929 1.38128 0
M  V30 13977 H 1578.04 -3.64676 2.11161 0
M  V30 13978 H 1576.72 -3.054 1.07298 0
M  V30 13979 H 1575.63 -2.0217 3.14767 0
M  V30 13980 H 1576.96 -2.67648 4.13068 0
M  V30 13981 N 1578.61 -1.44039 -0.639573 0
M  V30 13982 C 1579.54 -1.53073 -1.76327 0
M  V30 13983 C 1580.52 -0.384344 -1.65701 0
M  V30 13984 O 1581.71 -0.603362 -1.84589 0
M  V30 13985 C 1578.84 -1.46646 -3.14821 0
M  V30 13986 C 1577.79 -2.59673 -3.40226 0
M  V30 13987 C 1577.12 -2.38298 -4.78663 0
M  V30 13988 C 1578.42 -4.01864 -3.33621 0
M  V30 13989 H 1580.11 -2.47126 -1.69023 0
M  V30 13990 H 1577.66 -1.1894 -0.811749 0
M  V30 13991 H 1579.61 -1.51567 -3.93199 0
M  V30 13992 H 1578.33 -0.491035 -3.22888 0
M  V30 13993 H 1576.99 -2.54127 -2.64225 0
M  V30 13994 H 1576.64 -1.38968 -4.83422 0
M  V30 13995 H 1576.34 -3.14074 -4.9662 0
M  V30 13996 H 1577.86 -2.45025 -5.59281 0
M  V30 13997 H 1579.28 -4.08824 -4.01915 0
M  V30 13998 H 1577.68 -4.77775 -3.63113 0
M  V30 13999 H 1578.75 -4.26033 -2.31569 0
M  V30 14000 N 1580.09 0.879207 -1.30796 0
M  V30 14001 C 1581.02 1.99134 -1.13482 0
M  V30 14002 C 1582.03 1.6262 -0.0764492 0
M  V30 14003 O 1583.22 1.75553 -0.323038 0
M  V30 14004 C 1580.32 3.31386 -0.709706 0
M  V30 14005 C 1579.5 3.963 -1.85108 0
M  V30 14006 C 1578.55 5.06858 -1.41356 0
M  V30 14007 O 1577.58 5.28178 -2.12172 0
M  V30 14008 N 1578.78 5.79746 -0.295789 0
M  V30 14009 H 1581.55 2.14536 -2.09271 0
M  V30 14010 H 1579.11 1.05264 -1.23009 0
M  V30 14011 H 1581.1 4.02719 -0.399903 0
M  V30 14012 H 1579.67 3.12209 0.156309 0
M  V30 14013 H 1578.89 3.18065 -2.3287 0
M  V30 14014 H 1580.18 4.36408 -2.61582 0
M  V30 14015 H 1579.58 5.64935 0.294166 0
M  V30 14016 H 1578.13 6.51784 -0.0454707 0
M  V30 14017 N 1581.57 1.13606 1.09231 0
M  V30 14018 C 1582.98 0.87469 1.33497 0
M  V30 14019 C 1583.18 -0.488687 1.95484 0
M  V30 14020 O 1582.24 -1.23478 2.20249 0
M  V30 14021 C 1583.55 2.00086 2.24468 0
M  V30 14022 C 1585.1 2.03319 2.37972 0
M  V30 14023 C 1585.58 3.15205 3.3228 0
M  V30 14024 N 1587.07 3.14728 3.39854 0
M  V30 14025 C 1587.8 3.97941 4.12833 0
M  V30 14026 N 1587.3 4.91172 4.88591 0
M  V30 14027 N 1589.09 3.86032 4.08578 0
M  V30 14028 H 1581.24 2.01432 0.673709 0
M  V30 14029 H 1583.5 0.877259 0.359334 0
M  V30 14030 H 1583.21 2.98397 1.86151 0
M  V30 14031 H 1583.08 1.91673 3.24871 0
M  V30 14032 H 1585.47 1.0562 2.75551 0
M  V30 14033 H 1585.55 2.15804 1.3734 0
M  V30 14034 H 1585.2 4.13143 2.95423 0
M  V30 14035 H 1585.13 2.99957 4.3282 0
M  V30 14036 H 1587.62 2.47196 2.85837 0
M  V30 14037 H 1587.93 5.5115 5.41714 0
M  V30 14038 H 1586.28 4.95177 4.87673 0
M  V30 14039 H 1589.47 3.12522 3.48494 0
M  V30 14040 H 1589.64 4.51111 4.65191 0
M  V30 14041 N 1583.05 -1.27244 0.929878 0
M  V30 14042 C 1584.32 -1.89369 0.489774 0
M  V30 14043 C 1584.7 -1.84142 -1.03222 0
M  V30 14044 O 1584.05 -1.2881 -1.88733 0
M  V30 14045 C 1584.26 -3.33196 1.03833 0
M  V30 14046 C 1585.61 -4.101 1.10013 0
M  V30 14047 O 1586.63 -3.42221 0.988106 0
M  V30 14048 O 1585.49 -5.31468 1.27296 0
M  V30 14049 H 1582.59 -0.811789 0.157882 0
M  V30 14050 H 1585.13 -1.35496 1.02171 0
M  V30 14051 H 1583.9 -3.31304 2.08214 0
M  V30 14052 H 1583.53 -3.94592 0.488167 0
M  V30 14053 N 1584.52 -0.695628 -1.41417 0
M  V30 14054 C 1585.77 -0.223719 -2.00455 0
M  V30 14055 C 1586.09 1.18352 -1.55731 0
M  V30 14056 O 1587.29 1.7529 -2.0733 0
M  V30 14057 C 1585.75 -0.349076 -3.58203 0
M  V30 14058 C 1585.36 -1.76168 -4.11909 0
M  V30 14059 C 1587.1 0.0630563 -4.24453 0
M  V30 14060 C 1585.01 -1.83869 -5.62091 0
M  V30 14061 H 1583.94 -0.0798833 -0.749756 0
M  V30 14062 H 1586.59 -0.863834 -1.61896 0
M  V30 14063 H 1584.97 0.35929 -3.94367 0
M  V30 14064 H 1586.14 -2.49881 -3.87164 0
M  V30 14065 H 1584.46 -2.1235 -3.58185 0
M  V30 14066 H 1587.06 0.0259584 -5.34694 0
M  V30 14067 H 1587.4 1.10179 -4.01455 0
M  V30 14068 H 1587.93 -0.595036 -3.93324 0
M  V30 14069 H 1584.67 -2.85796 -5.89916 0
M  V30 14070 H 1584.19 -1.14541 -5.88762 0
M  V30 14071 H 1585.87 -1.60161 -6.26863 0
M  V30 14072 N 1586 1.51322 -0.440383 0
M  V30 14073 C 1587.23 2.07017 0.126018 0
M  V30 14074 C 1587.65 1.30537 1.35431 0
M  V30 14075 O 1587.01 0.344178 1.78003 0
M  V30 14076 C 1587.06 3.58101 0.4238 0
M  V30 14077 O 1586.16 3.83772 1.50973 0
M  V30 14078 H 1585.5 0.664 0.000530178 0
M  V30 14079 H 1588.03 1.94897 -0.622594 0
M  V30 14080 H 1588.04 4.02405 0.673363 0
M  V30 14081 H 1586.72 4.13191 -0.473932 0
M  V30 14082 H 1585.29 3.51329 1.24989 0
M  V30 14083 N 1587.48 0.171848 1.5666 0
M  V30 14084 C 1588.39 -0.770721 2.21579 0
M  V30 14085 C 1589.41 -1.25273 1.20759 0
M  V30 14086 O 1590.58 -1.30474 1.53422 0
M  V30 14087 C 1587.65 -1.98256 2.84422 0
M  V30 14088 C 1586.71 -1.54738 4.00443 0
M  V30 14089 C 1585.94 -2.70145 4.6028 0
M  V30 14090 O 1586.16 -3.87026 4.19007 0
M  V30 14091 O 1585.1 -2.44189 5.50141 0
M  V30 14092 H 1588.92 -0.247974 3.02686 0
M  V30 14093 H 1586.51 -0.0563734 1.49294 0
M  V30 14094 H 1588.39 -2.69127 3.24266 0
M  V30 14095 H 1587.07 -2.49435 2.0631 0
M  V30 14096 H 1585.97 -0.808152 3.65267 0
M  V30 14097 H 1587.31 -1.08249 4.80149 0
M  V30 14098 N 1588.96 -1.5727 -0.101874 0
M  V30 14099 C 1589.89 -1.96813 -1.15498 0
M  V30 14100 C 1590.87 -0.840319 -1.39203 0
M  V30 14101 O 1592.05 -1.10002 -1.53075 0
M  V30 14102 C 1589.18 -2.27908 -2.5055 0
M  V30 14103 C 1588.23 -3.50388 -2.43168 0
M  V30 14104 S 1589.06 -5.02354 -1.85475 0
M  V30 14105 C 1590.21 -5.36619 -3.22166 0
M  V30 14106 H 1590.45 -2.8583 -0.81785 0
M  V30 14107 H 1587.98 -1.5127 -0.309296 0
M  V30 14108 H 1589.94 -2.465 -3.2825 0
M  V30 14109 H 1588.6 -1.39475 -2.81435 0
M  V30 14110 H 1587.79 -3.69565 -3.42692 0
M  V30 14111 H 1587.39 -3.31271 -1.73596 0
M  V30 14112 H 1589.69 -5.32849 -4.18423 0
M  V30 14113 H 1590.63 -6.37703 -3.07799 0
M  V30 14114 H 1591.04 -4.64082 -3.21385 0
M  V30 14115 N 1590.44 0.372521 -1.53134 0
M  V30 14116 C 1591.68 1.11589 -1.6898 0
M  V30 14117 C 1592.01 1.89503 -0.438049 0
M  V30 14118 O 1591.27 1.86911 0.579891 0
M  V30 14119 C 1591.56 2.10742 -2.88656 0
M  V30 14120 C 1591.23 1.49361 -4.25443 0
M  V30 14121 C 1589.89 1.32348 -4.62642 0
M  V30 14122 C 1592.24 1.04889 -5.10537 0
M  V30 14123 C 1589.57 0.694368 -5.82577 0
M  V30 14124 C 1591.92 0.433809 -6.31111 0
M  V30 14125 C 1590.59 0.251118 -6.67027 0
M  V30 14126 H 1589.86 0.408333 -0.618341 0
M  V30 14127 H 1592.51 0.398507 -1.87308 0
M  V30 14128 H 1590.81 2.88759 -2.64812 0
M  V30 14129 H 1592.51 2.682 -2.98111 0
M  V30 14130 H 1589.1 1.63594 -3.9615 0
M  V30 14131 H 1593.28 1.16829 -4.82353 0
M  V30 14132 H 1588.54 0.541171 -6.09 0
M  V30 14133 H 1592.71 0.0809859 -6.96353 0
M  V30 14134 H 1590.34 -0.23844 -7.59826 0
M  V30 14135 N 1591.91 1.44376 0.631925 0
M  V30 14136 C 1592.84 1.54005 1.75512 0
M  V30 14137 C 1593.82 0.393126 1.65495 0
M  V30 14138 O 1595.01 0.613143 1.84267 0
M  V30 14139 C 1592.14 1.48313 3.14039 0
M  V30 14140 C 1591.09 2.61474 3.38844 0
M  V30 14141 C 1590.42 2.40834 4.77392 0
M  V30 14142 C 1591.72 4.03627 3.31485 0
M  V30 14143 H 1593.41 2.48019 1.6771 0
M  V30 14144 H 1590.96 1.19368 0.80543 0
M  V30 14145 H 1592.91 1.5365 3.9239 0
M  V30 14146 H 1591.64 0.508152 3.22623 0
M  V30 14147 H 1590.3 2.55525 2.62874 0
M  V30 14148 H 1589.94 1.4153 4.82678 0
M  V30 14149 H 1589.64 3.16703 4.94947 0
M  V30 14150 H 1591.17 2.47988 5.57974 0
M  V30 14151 H 1592.58 4.1095 3.99741 0
M  V30 14152 H 1590.98 4.79694 3.60574 0
M  V30 14153 H 1592.05 4.27255 2.29307 0
M  V30 14154 N 1593.39 -0.872258 1.31261 0
M  V30 14155 C 1594.32 -1.9853 1.14537 0
M  V30 14156 C 1595.34 -1.62578 0.0850723 0
M  V30 14157 O 1596.53 -1.75379 0.332343 0
M  V30 14158 C 1593.63 -3.31005 0.72727 0
M  V30 14159 C 1592.8 -3.95313 1.87208 0
M  V30 14160 C 1591.86 -5.06101 1.44042 0
M  V30 14161 O 1590.88 -5.27045 2.1497 0
M  V30 14162 N 1592.09 -5.79581 0.32653 0
M  V30 14163 H 1594.85 -2.13423 2.10406 0
M  V30 14164 H 1592.41 -1.0461 1.23565 0
M  V30 14165 H 1594.4 -4.02502 0.421255 0
M  V30 14166 H 1592.97 -3.12287 -0.13975 0
M  V30 14167 H 1592.19 -3.16825 2.34553 0
M  V30 14168 H 1593.48 -4.35015 2.63893 0
M  V30 14169 H 1592.88 -5.65083 -0.264202 0
M  V30 14170 H 1591.44 -6.51751 0.0800358 0
M  V30 14171 N 1594.87 -1.14184 -1.08627 0
M  V30 14172 C 1596.12 -0.903271 -1.80344 0
M  V30 14173 C 1596.43 0.571801 -1.87056 0
M  V30 14174 O 1597.64 0.92756 -2.55164 0
M  V30 14175 C 1596.09 -1.56653 -3.24018 0
M  V30 14176 C 1595.7 -3.07771 -3.25548 0
M  V30 14177 C 1597.45 -1.40899 -4.00434 0
M  V30 14178 C 1595.35 -3.66943 -4.63796 0
M  V30 14179 H 1594.28 -0.334288 -0.675846 0
M  V30 14180 H 1596.93 -1.3705 -1.22023 0
M  V30 14181 H 1595.32 -1.02698 -3.82452 0
M  V30 14182 H 1596.49 -3.68375 -2.76834 0
M  V30 14183 H 1594.8 -3.23136 -2.62625 0
M  V30 14184 H 1597.4 -1.82511 -5.02587 0
M  V30 14185 H 1597.74 -0.354822 -4.14785 0
M  V30 14186 H 1598.28 -1.91879 -3.48464 0
M  V30 14187 H 1595.02 -4.72203 -4.54648 0
M  V30 14188 H 1594.54 -3.11119 -5.12801 0
M  V30 14189 H 1596.22 -3.67103 -5.32771 0
M  V30 14190 N 1596.35 1.26749 -0.936613 0
M  V30 14191 C 1597.58 1.97772 -0.597489 0
M  V30 14192 C 1597.99 1.69984 0.830796 0
M  V30 14193 O 1597.33 0.962037 1.56495 0
M  V30 14194 C 1597.39 3.51497 -0.754307 0
M  V30 14195 C 1597.06 4.02926 -2.15637 0
M  V30 14196 C 1598.05 4.15016 -3.13141 0
M  V30 14197 C 1595.74 4.37051 -2.47572 0
M  V30 14198 C 1597.73 4.60518 -4.40683 0
M  V30 14199 C 1595.42 4.82242 -3.75347 0
M  V30 14200 C 1596.42 4.93936 -4.71716 0
M  V30 14201 O 1596.1 5.38133 -5.97217 0
M  V30 14202 H 1595.84 0.637664 -0.224412 0
M  V30 14203 H 1598.39 1.62341 -1.25836 0
M  V30 14204 H 1596.62 3.86683 -0.0363189 0
M  V30 14205 H 1598.31 4.03732 -0.418921 0
M  V30 14206 H 1599.08 3.88903 -2.89792 0
M  V30 14207 H 1594.95 4.27186 -1.733 0
M  V30 14208 H 1598.5 4.69561 -5.15906 0
M  V30 14209 H 1594.4 5.07799 -3.98511 0
M  V30 14210 H 1595.16 5.56365 -6.00334 0
M  V30 14211 N 1597.83 0.703118 1.41046 0
M  V30 14212 C 1598.77 0.0425767 2.30761 0
M  V30 14213 C 1599.74 -0.763406 1.47517 0
M  V30 14214 O 1600.93 -0.7299 1.76287 0
M  V30 14215 C 1598.07 -0.882353 3.33629 0
M  V30 14216 C 1597.18 -0.0671799 4.31948 0
M  V30 14217 C 1596.32 -0.990443 5.21885 0
M  V30 14218 C 1595.36 -0.168622 6.11868 0
M  V30 14219 N 1594.49 -1.04609 6.94263 0
M  V30 14220 H 1599.33 0.813363 2.86685 0
M  V30 14221 H 1596.87 0.412804 1.41189 0
M  V30 14222 H 1598.83 -1.43273 3.91827 0
M  V30 14223 H 1597.46 -1.61946 2.79237 0
M  V30 14224 H 1596.51 0.600219 3.75635 0
M  V30 14225 H 1597.82 0.569624 4.95537 0
M  V30 14226 H 1596.98 -1.60979 5.84954 0
M  V30 14227 H 1595.71 -1.66109 4.5854 0
M  V30 14228 H 1594.72 0.463746 5.47841 0
M  V30 14229 H 1595.94 0.49834 6.77269 0
M  V30 14230 H 1593.89 -1.70262 6.33519 0
M  V30 14231 H 1593.81 -0.465036 7.54568 0
M  V30 14232 H 1595.08 -1.65201 7.61793 0
M  V30 14233 N 1599.3 -1.51086 0.448402 0
M  V30 14234 C 1600.24 -2.25799 -0.393401 0
M  V30 14235 C 1601.25 -1.30241 -0.976792 0
M  V30 14236 O 1602.44 -1.55916 -0.869051 0
M  V30 14237 C 1599.54 -3.00682 -1.56345 0
M  V30 14238 C 1598.71 -4.23421 -1.09695 0
M  V30 14239 C 1597.77 -4.8079 -2.1384 0
M  V30 14240 O 1596.8 -5.42329 -1.72823 0
M  V30 14241 N 1598 -4.65792 -3.46437 0
M  V30 14242 H 1600.76 -2.98681 0.246986 0
M  V30 14243 H 1598.32 -1.59497 0.277902 0
M  V30 14244 H 1600.32 -3.35945 -2.25662 0
M  V30 14245 H 1598.89 -2.30741 -2.10897 0
M  V30 14246 H 1598.11 -3.93526 -0.230457 0
M  V30 14247 H 1599.39 -5.03049 -0.762832 0
M  V30 14248 H 1598.79 -4.16799 -3.82486 0
M  V30 14249 H 1597.35 -5.05386 -4.11616 0
M  V30 14250 N 1600.78 -0.180154 -1.56567 0
M  V30 14251 C 1602.03 0.461606 -1.96758 0
M  V30 14252 C 1602.35 1.63179 -1.0676 0
M  V30 14253 O 1601.62 1.95429 -0.135762 0
M  V30 14254 H 1600.2 0.173526 -0.726566 0
M  V30 14255 H 1602.86 -0.2634 -1.93112 0
M  V30 14256 H 1601.96 0.815729 -3.01251 0
M  V30 14257 N 1602.26 1.57322 0.0935319 0
M  V30 14258 C 1603.51 1.858 0.795165 0
M  V30 14259 C 1603.83 0.769078 1.79193 0
M  V30 14260 O 1603.1 -0.204511 1.9483 0
M  V30 14261 H 1601.68 0.68557 0.296653 0
M  V30 14262 H 1604.34 1.94756 0.0747892 0
M  V30 14263 H 1603.44 2.82588 1.32479 0
M  V30 14264 N 1603.74 -0.364395 1.53329 0
M  V30 14265 C 1604.99 -1.10691 1.69569 0
M  V30 14266 C 1605.31 -1.89268 0.448093 0
M  V30 14267 O 1604.57 -1.87216 -0.56997 0
M  V30 14268 C 1604.87 -2.09208 2.8977 0
M  V30 14269 C 1604.53 -1.47103 4.26229 0
M  V30 14270 C 1603.2 -1.29893 4.63337 0
M  V30 14271 C 1605.55 -1.0218 5.11086 0
M  V30 14272 C 1602.88 -0.663463 5.82937 0
M  V30 14273 C 1605.23 -0.400334 6.31332 0
M  V30 14274 C 1603.89 -0.21574 6.67151 0
M  V30 14275 H 1603.16 -0.405048 0.620498 0
M  V30 14276 H 1605.81 -0.388568 1.87516 0
M  V30 14277 H 1604.11 -2.8735 2.6634 0
M  V30 14278 H 1605.81 -2.66615 2.99529 0
M  V30 14279 H 1602.4 -1.61491 3.97012 0
M  V30 14280 H 1606.58 -1.14269 4.82966 0
M  V30 14281 H 1601.84 -0.508867 6.09279 0
M  V30 14282 H 1606.01 -0.0440554 6.96386 0
M  V30 14283 H 1603.64 0.278732 7.59689 0
M  V30 14284 N 1605.22 -1.44709 -0.62426 0
M  V30 14285 C 1606.15 -1.54934 -1.74693 0
M  V30 14286 C 1607.13 -0.401897 -1.65284 0
M  V30 14287 O 1608.31 -0.622906 -1.83939 0
M  V30 14288 C 1605.44 -1.49976 -3.13248 0
M  V30 14289 C 1604.4 -2.63267 -3.37453 0
M  V30 14290 C 1603.72 -2.43362 -4.76108 0
M  V30 14291 C 1605.02 -4.0538 -3.2934 0
M  V30 14292 H 1606.72 -2.48905 -1.66393 0
M  V30 14293 H 1604.26 -1.19794 -0.799088 0
M  V30 14294 H 1606.22 -1.55729 -3.91569 0
M  V30 14295 H 1604.94 -0.525254 -3.22349 0
M  V30 14296 H 1603.6 -2.56915 -2.61515 0
M  V30 14297 H 1603.25 -1.44088 -4.81921 0
M  V30 14298 H 1602.95 -3.19324 -4.93261 0
M  V30 14299 H 1604.47 -2.50943 -5.56651 0
M  V30 14300 H 1605.88 -4.13064 -3.97556 0
M  V30 14301 H 1604.28 -4.81599 -3.58025 0
M  V30 14302 H 1605.35 -4.28465 -2.27038 0
M  V30 14303 N 1606.69 0.865285 -1.31722 0
M  V30 14304 C 1607.94 1.61549 -1.21435 0
M  V30 14305 C 1608.26 1.9368 0.226501 0
M  V30 14306 O 1607.53 1.58705 1.14846 0
M  V30 14307 H 1606.11 0.598905 -0.446454 0
M  V30 14308 H 1608.78 1.03563 -1.65108 0
M  V30 14309 H 1607.87 2.55708 -1.78941 0
M  V30 14310 N 1608.17 1.14759 1.0802 0
M  V30 14311 C 1609.1 0.860977 2.17047 0
M  V30 14312 C 1610.08 -0.185652 1.69084 0
M  V30 14313 O 1611.27 -0.0414797 1.94156 0
M  V30 14314 C 1608.4 0.342018 3.45612 0
M  V30 14315 C 1607.35 1.32455 4.06989 0
M  V30 14316 C 1606.68 0.664721 5.30552 0
M  V30 14317 C 1607.98 2.68819 4.4781 0
M  V30 14318 H 1609.67 1.77269 2.4128 0
M  V30 14319 H 1607.22 0.853757 1.15961 0
M  V30 14320 H 1609.17 0.129093 4.21202 0
M  V30 14321 H 1607.9 -0.605138 3.20945 0
M  V30 14322 H 1606.55 1.52371 3.33435 0
M  V30 14323 H 1606.2 -0.288367 5.02173 0
M  V30 14324 H 1605.9 1.32036 5.72573 0
M  V30 14325 H 1607.43 0.461412 6.08854 0
M  V30 14326 H 1608.84 2.52787 5.14559 0
M  V30 14327 H 1607.24 3.30694 5.00761 0
M  V30 14328 H 1608.31 3.25398 3.59506 0
M  V30 14329 N 1609.65 -1.26251 0.943322 0
M  V30 14330 C 1610.88 -1.98278 0.608341 0
M  V30 14331 C 1611.3 -1.69756 -0.810208 0
M  V30 14332 O 1610.66 -0.946846 -1.54611 0
M  V30 14333 C 1610.71 -3.50205 0.859591 0
M  V30 14334 O 1609.81 -4.12345 -0.0672371 0
M  V30 14335 H 1609.15 -0.621973 0.232477 0
M  V30 14336 H 1611.68 -1.60662 1.26684 0
M  V30 14337 H 1611.69 -4.00449 0.781341 0
M  V30 14338 H 1610.37 -3.70294 1.89354 0
M  V30 14339 H 1608.94 -3.72848 0.0622543 0
M  V30 14340 N 1611.13 -0.710588 -1.40671 0
M  V30 14341 C 1612.08 -0.043614 -2.32559 0
M  V30 14342 C 1613.07 0.752425 -1.51773 0
M  V30 14343 O 1614.28 0.656356 -1.67607 0
M  V30 14344 H 1610.65 0.00469865 -0.751985 0
M  V30 14345 H 1612.62 -0.835399 -2.86468 0
M  V30 14346 C 1611.37 0.867796 -3.36697 0
M  V30 14347 H 1610.7 0.264667 -3.98923 0
M  V30 14348 H 1612.14 1.30252 -4.03498 0
M  V30 14349 C 1610.59 1.99094 -2.71778 0
M  V30 14350 O 1611.12 3.08129 -2.5772 0
M  V30 14351 N 1609.33 1.77309 -2.30239 0
M  V30 14352 H 1608.88 0.886325 -2.41872 0
M  V30 14353 H 1608.84 2.52639 -1.87139 0
M  V30 14354 N 1612.61 1.50847 -0.456408 0
M  V30 14355 C 1613.86 2.01425 0.105223 0
M  V30 14356 C 1614.17 1.34413 1.421 0
M  V30 14357 O 1615.38 1.76066 2.06671 0
M  V30 14358 C 1613.83 3.59112 0.238051 0
M  V30 14359 C 1613.44 4.35073 -1.06842 0
M  V30 14360 C 1615.18 4.17778 0.752428 0
M  V30 14361 C 1613.09 5.84509 -0.900194 0
M  V30 14362 H 1612.02 0.752767 0.0430992 0
M  V30 14363 H 1614.67 1.73788 -0.589075 0
M  V30 14364 H 1613.05 3.83275 0.995795 0
M  V30 14365 H 1614.23 4.22645 -1.83598 0
M  V30 14366 H 1612.54 3.87948 -1.51278 0
M  V30 14367 H 1615.14 5.27155 0.895088 0
M  V30 14368 H 1615.48 3.78195 1.73994 0
M  V30 14369 H 1616.02 3.97765 0.052476 0
M  V30 14370 H 1612.75 6.28538 -1.86064 0
M  V30 14371 H 1612.27 5.99551 -0.172767 0
M  V30 14372 H 1613.95 6.44564 -0.560943 0
M  V30 14373 N 1614.09 0.188454 1.56469 0
M  V30 14374 C 1615.03 -0.735074 2.18781 0
M  V30 14375 C 1616 -1.21459 1.133 0
M  V30 14376 O 1617.19 -1.27967 1.41524 0
M  V30 14377 C 1614.33 -1.95181 2.84602 0
M  V30 14378 C 1613.44 -1.51428 4.0459 0
M  V30 14379 C 1612.58 -2.68601 4.58287 0
M  V30 14380 C 1611.61 -2.21422 5.70648 0
M  V30 14381 N 1610.75 -3.31749 6.18779 0
M  V30 14382 H 1615.59 -0.19694 2.97349 0
M  V30 14383 H 1613.13 -0.0854693 1.46851 0
M  V30 14384 H 1615.09 -2.66571 3.2093 0
M  V30 14385 H 1613.72 -2.46337 2.0861 0
M  V30 14386 H 1612.77 -0.6965 3.73969 0
M  V30 14387 H 1614.08 -1.1281 4.85876 0
M  V30 14388 H 1613.23 -3.48123 4.96885 0
M  V30 14389 H 1611.97 -3.1049 3.76095 0
M  V30 14390 H 1610.98 -1.40352 5.31584 0
M  V30 14391 H 1612.2 -1.80572 6.54653 0
M  V30 14392 H 1610.15 -3.73181 5.39511 0
M  V30 14393 H 1610.07 -2.97277 6.95099 0
M  V30 14394 H 1611.33 -4.11504 6.62031 0
M  V30 14395 N 1615.56 -1.5737 -0.0851874 0
M  V30 14396 C 1616.81 -1.86587 -0.786855 0
M  V30 14397 C 1617.14 -0.778357 -1.78247 0
M  V30 14398 O 1616.39 0.227053 -1.94378 0
M  V30 14399 C 1616.69 -3.22427 -1.54194 0
M  V30 14400 C 1616.36 -4.45627 -0.687542 0
M  V30 14401 C 1615.02 -4.79072 -0.452042 0
M  V30 14402 C 1617.37 -5.21115 -0.094224 0
M  V30 14403 C 1614.7 -5.85426 0.386477 0
M  V30 14404 C 1617.05 -6.28354 0.731673 0
M  V30 14405 C 1615.72 -6.60309 0.977172 0
M  V30 14406 H 1614.99 -0.682772 -0.28793 0
M  V30 14407 H 1617.63 -1.9144 -0.0480218 0
M  V30 14408 H 1615.94 -3.13304 -2.35261 0
M  V30 14409 H 1617.64 -3.42264 -2.08941 0
M  V30 14410 H 1614.23 -4.19443 -0.881212 0
M  V30 14411 H 1618.41 -4.95601 -0.263309 0
M  V30 14412 H 1613.67 -6.08589 0.58556 0
M  V30 14413 H 1617.84 -6.86014 1.19823 0
M  V30 14414 H 1615.47 -7.42548 1.6287 0
M  V30 14415 N 1617.04 0.356258 -1.53521 0
M  V30 14416 C 1618.46 0.698546 -1.43501 0
M  V30 14417 C 1618.66 1.92926 -0.581547 0
M  V30 14418 O 1617.71 2.5241 -0.0675947 0
M  V30 14419 C 1619.03 0.903047 -2.8682 0
M  V30 14420 C 1620.57 1.00247 -2.96512 0
M  V30 14421 C 1621.05 1.23938 -4.40912 0
M  V30 14422 N 1622.54 1.30687 -4.44382 0
M  V30 14423 C 1623.28 1.50745 -5.5323 0
M  V30 14424 N 1622.77 1.68058 -6.72107 0
M  V30 14425 N 1624.56 1.5319 -5.40823 0
M  V30 14426 H 1616.72 -0.453102 -2.07511 0
M  V30 14427 H 1618.98 -0.140708 -0.937499 0
M  V30 14428 H 1618.68 0.070416 -3.5163 0
M  V30 14429 H 1618.56 1.80847 -3.3102 0
M  V30 14430 H 1620.95 1.82564 -2.3185 0
M  V30 14431 H 1621.03 0.0742303 -2.55692 0
M  V30 14432 H 1620.67 0.421189 -5.06151 0
M  V30 14433 H 1620.6 2.18098 -4.79313 0
M  V30 14434 H 1623.09 1.18883 -3.58713 0
M  V30 14435 H 1623.4 1.82963 -7.50829 0
M  V30 14436 H 1621.75 1.65219 -6.75076 0
M  V30 14437 H 1624.94 1.39237 -4.46912 0
M  V30 14438 H 1625.11 1.6848 -6.25714 0
M  V30 14439 N 1618.52 1.45038 0.616577 0
M  V30 14440 C 1619.93 1.4316 1.19842 0
M  V30 14441 C 1620.28 0.154504 1.95591 0
M  V30 14442 O 1619.41 -0.744409 2.03193 0
M  V30 14443 C 1620 2.59354 2.17993 0
M  V30 14444 C 1618.56 2.60625 2.71573 0
M  V30 14445 C 1617.71 2.35243 1.4682 0
M  V30 14446 H 1620.66 1.53408 0.406402 0
M  V30 14447 H 1620.68 2.32939 3.00865 0
M  V30 14448 H 1620.19 3.52288 1.62833 0
M  V30 14449 H 1618.29 1.71672 3.30695 0
M  V30 14450 H 1618.41 3.59568 3.16619 0
M  V30 14451 H 1616.77 1.84622 1.75462 0
M  V30 14452 H 1617.55 3.3031 0.935414 0
M  V30 14453 N 1620 -0.858287 1.32179 0
M  V30 14454 C 1621.25 -1.60902 1.2229 0
M  V30 14455 C 1621.57 -1.93797 -0.216227 0
M  V30 14456 O 1620.84 -1.59312 -1.14002 0
M  V30 14457 H 1619.42 -0.596529 0.449624 0
M  V30 14458 H 1622.08 -1.02686 1.65655 0
M  V30 14459 H 1621.17 -2.54755 1.80295 0
M  V30 14460 N 1621.48 -1.1533 -1.07409 0
M  V30 14461 C 1622.7 -0.952101 -1.84255 0
M  V30 14462 C 1623.13 0.494571 -1.81482 0
M  V30 14463 O 1622.48 1.35253 -1.20733 0
M  V30 14464 C 1622.53 -1.47019 -3.29268 0
M  V30 14465 O 1621.64 -0.669005 -4.06937 0
M  V30 14466 H 1620.98 -0.339643 -0.57056 0
M  V30 14467 H 1623.51 -1.53298 -1.35502 0
M  V30 14468 H 1623.52 -1.48278 -3.80102 0
M  V30 14469 H 1622.19 -2.5234 -3.30602 0
M  V30 14470 H 1620.77 -0.726003 -3.65764 0
M  V30 14471 N 1622.95 1.25748 -0.950004 0
M  V30 14472 C 1624.2 1.93622 -0.603186 0
M  V30 14473 C 1624.53 1.74271 0.856925 0
M  V30 14474 O 1623.81 1.08502 1.61423 0
M  V30 14475 C 1624.09 3.4715 -0.957024 0
M  V30 14476 C 1623.94 3.75747 -2.47253 0
M  V30 14477 C 1625.26 4.37488 -0.478754 0
M  V30 14478 H 1622.38 0.703206 -0.220612 0
M  V30 14479 H 1625.02 1.48453 -1.18582 0
M  V30 14480 H 1623.17 3.85753 -0.46122 0
M  V30 14481 H 1624.85 3.46808 -3.04174 0
M  V30 14482 H 1623.09 3.21516 -2.91222 0
M  V30 14483 H 1623.76 4.83097 -2.67061 0
M  V30 14484 H 1626.24 4.06162 -0.903987 0
M  V30 14485 H 1625.11 5.43682 -0.755073 0
M  V30 14486 H 1625.37 4.37712 0.621303 0
M  V30 14487 N 1624.43 0.718038 1.40292 0
M  V30 14488 C 1625.68 0.258986 2.0114 0
M  V30 14489 C 1626.01 -1.1456 1.56811 0
M  V30 14490 O 1625.29 -1.77766 0.789276 0
M  V30 14491 C 1625.57 0.341778 3.58474 0
M  V30 14492 C 1625.42 1.78492 4.12869 0
M  V30 14493 C 1626.74 -0.285622 4.39172 0
M  V30 14494 H 1623.86 0.0955806 0.730776 0
M  V30 14495 H 1626.5 0.911 1.66736 0
M  V30 14496 H 1624.65 -0.213354 3.87914 0
M  V30 14497 H 1626.32 2.39562 3.94218 0
M  V30 14498 H 1624.57 2.31183 3.67065 0
M  V30 14499 H 1625.24 1.79423 5.22026 0
M  V30 14500 H 1627.71 0.187411 4.15678 0
M  V30 14501 H 1626.59 -0.19726 5.48545 0
M  V30 14502 H 1626.85 -1.36947 4.20355 0
M  V30 14503 N 1625.91 -1.50602 0.464402 0
M  V30 14504 C 1627.16 -2.02587 -0.0930295 0
M  V30 14505 C 1627.49 -1.34618 -1.3997 0
M  V30 14506 O 1626.76 -0.469711 -1.88743 0
M  V30 14507 C 1627.05 -3.5898 -0.283783 0
M  V30 14508 C 1626.9 -4.3753 1.04344 0
M  V30 14509 C 1628.22 -4.27602 -1.04138 0
M  V30 14510 H 1625.34 -0.73629 -0.0323356 0
M  V30 14511 H 1627.98 -1.79986 0.608687 0
M  V30 14512 H 1626.13 -3.78368 -0.881488 0
M  V30 14513 H 1627.8 -4.29729 1.67721 0
M  V30 14514 H 1626.05 -4.01536 1.64168 0
M  V30 14515 H 1626.72 -5.45201 0.863691 0
M  V30 14516 H 1629.19 -4.12649 -0.534822 0
M  V30 14517 H 1628.07 -5.36854 -1.14364 0
M  V30 14518 H 1628.33 -3.9031 -2.0763 0
M  V30 14519 N 1627.39 -0.19675 -1.56367 0
M  V30 14520 C 1628.32 0.75534 -2.16396 0
M  V30 14521 C 1629.33 1.17558 -1.12623 0
M  V30 14522 O 1630.52 1.11102 -1.39709 0
M  V30 14523 C 1627.62 2.03159 -2.71256 0
M  V30 14524 C 1626.8 1.77088 -3.99948 0
M  V30 14525 C 1625.85 2.89176 -4.39618 0
M  V30 14526 O 1624.88 2.58712 -5.07007 0
M  V30 14527 N 1626.08 4.17569 -4.03257 0
M  V30 14528 H 1628.85 0.241991 -2.98721 0
M  V30 14529 H 1626.41 -0.0148423 -1.61893 0
M  V30 14530 H 1628.4 2.77287 -2.94778 0
M  V30 14531 H 1626.97 2.45611 -1.93375 0
M  V30 14532 H 1626.19 0.867309 -3.84541 0
M  V30 14533 H 1627.48 1.5707 -4.83949 0
M  V30 14534 H 1626.88 4.45171 -3.49054 0
M  V30 14535 H 1625.43 4.88319 -4.31726 0
M  V30 14536 N 1628.87 1.57413 0.0768405 0
M  V30 14537 C 1629.8 2.06378 1.09226 0
M  V30 14538 C 1630.78 0.956269 1.40675 0
M  V30 14539 O 1631.96 1.22868 1.5039 0
M  V30 14540 C 1629.09 2.50349 2.40712 0
M  V30 14541 C 1628.05 3.64931 2.23628 0
M  V30 14542 C 1627.37 3.9494 3.60453 0
M  V30 14543 C 1628.67 4.95162 1.66169 0
M  V30 14544 H 1630.37 2.91463 0.684827 0
M  V30 14545 H 1627.91 1.40215 0.327974 0
M  V30 14546 H 1629.87 2.83216 3.12036 0
M  V30 14547 H 1628.59 1.62287 2.83426 0
M  V30 14548 H 1627.25 3.32339 1.54747 0
M  V30 14549 H 1626.9 3.04016 4.00728 0
M  V30 14550 H 1626.6 4.72091 3.49863 0
M  V30 14551 H 1628.12 4.30299 4.33215 0
M  V30 14552 H 1629.53 5.26292 2.27353 0
M  V30 14553 H 1627.93 5.76601 1.66289 0
M  V30 14554 H 1629 4.80885 0.62271 0
M  V30 14555 N 1630.34 -0.348112 1.53707 0
M  V30 14556 C 1631.57 -1.10903 1.74666 0
M  V30 14557 C 1631.99 -1.82499 0.483683 0
M  V30 14558 O 1631.34 -1.74191 -0.544419 0
M  V30 14559 C 1631.4 -2.12602 2.92374 0
M  V30 14560 O 1631.12 -1.43918 4.13787 0
M  V30 14561 C 1632.62 -3.01105 3.25347 0
M  V30 14562 H 1629.84 -0.330911 0.583728 0
M  V30 14563 H 1632.38 -0.401707 2.00516 0
M  V30 14564 H 1630.54 -2.78906 2.68869 0
M  V30 14565 H 1630.95 -2.11818 4.79826 0
M  V30 14566 H 1632.42 -3.68408 4.11071 0
M  V30 14567 H 1632.9 -3.66874 2.41455 0
M  V30 14568 H 1633.51 -2.40395 3.50842 0
M  V30 14569 N 1631.82 -1.45363 -0.608876 0
M  V30 14570 C 1632.75 -1.56778 -1.7304 0
M  V30 14571 C 1633.73 -0.419405 -1.64848 0
M  V30 14572 O 1634.92 -0.64238 -1.83268 0
M  V30 14573 C 1632.05 -1.5329 -3.1164 0
M  V30 14574 C 1631 -2.66832 -3.34641 0
M  V30 14575 C 1630.33 -2.48398 -4.735 0
M  V30 14576 C 1631.63 -4.0885 -3.25021 0
M  V30 14577 H 1633.32 -2.50656 -1.63743 0
M  V30 14578 H 1630.87 -1.20635 -0.786338 0
M  V30 14579 H 1632.82 -1.59873 -3.89895 0
M  V30 14580 H 1631.55 -0.559414 -3.21773 0
M  V30 14581 H 1630.2 -2.59675 -2.58775 0
M  V30 14582 H 1629.85 -1.49191 -4.80366 0
M  V30 14583 H 1629.55 -3.24537 -4.89846 0
M  V30 14584 H 1631.08 -2.56833 -5.53958 0
M  V30 14585 H 1632.49 -4.17257 -3.93153 0
M  V30 14586 H 1630.89 -4.85369 -3.52897 0
M  V30 14587 H 1631.96 -4.30849 -2.2248 0
M  V30 14588 N 1633.3 0.851265 -1.32632 0
M  V30 14589 C 1634.26 1.94168 -1.21785 0
M  V30 14590 C 1635.26 1.60189 -0.140023 0
M  V30 14591 O 1636.45 1.69763 -0.390671 0
M  V30 14592 C 1633.59 3.29513 -0.873717 0
M  V30 14593 H 1634.78 2.05214 -2.18695 0
M  V30 14594 H 1632.33 1.04186 -1.16512 0
M  V30 14595 H 1633.07 3.24165 0.0934202 0
M  V30 14596 H 1632.85 3.55552 -1.65302 0
M  V30 14597 H 1634.34 4.09425 -0.822231 0
M  V30 14598 N 1634.78 1.15898 1.06796 0
M  V30 14599 C 1636.03 0.937339 1.795 0
M  V30 14600 C 1636.35 -0.535183 1.86992 0
M  V30 14601 O 1635.61 -1.41304 1.35394 0
M  V30 14602 C 1635.91 1.50368 3.24229 0
M  V30 14603 C 1635.57 2.99765 3.36826 0
M  V30 14604 C 1634.24 3.40548 3.39971 0
M  V30 14605 C 1636.59 3.9575 3.39163 0
M  V30 14606 C 1633.92 4.75946 3.43063 0
M  V30 14607 C 1636.27 5.31028 3.43791 0
M  V30 14608 C 1634.93 5.71298 3.45216 0
M  V30 14609 H 1634.2 0.342997 0.656837 0
M  V30 14610 H 1636.85 1.44531 1.2563 0
M  V30 14611 H 1635.15 0.917024 3.80917 0
M  V30 14612 H 1636.85 1.30793 3.7907 0
M  V30 14613 H 1633.44 2.67244 3.3508 0
M  V30 14614 H 1637.62 3.65311 3.35948 0
M  V30 14615 H 1632.88 5.06484 3.42468 0
M  V30 14616 H 1637.05 6.05195 3.44546 0
M  V30 14617 H 1634.68 6.76196 3.47365 0
M  V30 14618 N 1636.26 -1.25243 0.956659 0
M  V30 14619 C 1637.67 -1.4525 0.661409 0
M  V30 14620 C 1637.87 -1.85774 -0.780404 0
M  V30 14621 O 1636.93 -1.98899 -1.55549 0
M  V30 14622 C 1638.24 -2.52296 1.63607 0
M  V30 14623 C 1639.79 -2.66134 1.64748 0
M  V30 14624 C 1640.26 -3.76366 2.60983 0
M  V30 14625 N 1641.76 -3.8378 2.5936 0
M  V30 14626 C 1642.49 -4.68569 3.30501 0
M  V30 14627 N 1641.99 -5.5763 4.11122 0
M  V30 14628 N 1643.78 -4.62551 3.19378 0
M  V30 14629 H 1635.93 -0.972321 1.88838 0
M  V30 14630 H 1638.19 -0.488615 0.812379 0
M  V30 14631 H 1637.9 -2.29382 2.66603 0
M  V30 14632 H 1637.77 -3.5025 1.40017 0
M  V30 14633 H 1640.16 -2.88412 0.624692 0
M  V30 14634 H 1640.24 -1.68573 1.92397 0
M  V30 14635 H 1639.89 -3.54839 3.63389 0
M  V30 14636 H 1639.82 -4.73417 2.30617 0
M  V30 14637 H 1642.31 -3.20117 2.00832 0
M  V30 14638 H 1642.62 -6.19258 4.62319 0
M  V30 14639 H 1640.96 -5.57331 4.15219 0
M  V30 14640 H 1644.16 -3.91983 2.55865 0
M  V30 14641 H 1644.33 -5.28407 3.75086 0
M  V30 14642 N 1637.73 -0.725468 -1.3991 0
M  V30 14643 C 1638.64 -0.0805887 -2.34462 0
M  V30 14644 C 1639.66 0.732689 -1.57822 0
M  V30 14645 O 1640.84 0.663362 -1.90162 0
M  V30 14646 C 1637.9 0.822908 -3.36792 0
M  V30 14647 C 1636.96 -0.00153812 -4.293 0
M  V30 14648 C 1636.2 0.85893 -5.26743 0
M  V30 14649 O 1636.42 2.09793 -5.30418 0
M  V30 14650 O 1635.35 0.292659 -6.01188 0
M  V30 14651 H 1639.18 -0.860746 -2.91247 0
M  V30 14652 H 1636.76 -0.48604 -1.41273 0
M  V30 14653 H 1638.65 1.34014 -3.99522 0
M  V30 14654 H 1637.32 1.58204 -2.82406 0
M  V30 14655 H 1636.23 -0.564072 -3.69823 0
M  V30 14656 H 1637.56 -0.722675 -4.86866 0
M  V30 14657 N 1639.21 1.50354 -0.472382 0
M  V30 14658 C 1640.46 2.01934 0.0820006 0
M  V30 14659 C 1640.78 1.35636 1.401 0
M  V30 14660 O 1640.05 0.502127 1.89355 0
M  V30 14661 H 1638.63 0.746258 0.0332943 0
M  V30 14662 H 1641.29 1.84671 -0.623099 0
M  V30 14663 H 1640.39 3.11232 0.232565 0
M  V30 14664 N 1640.69 0.205039 1.56261 0
M  V30 14665 C 1641.92 -0.43642 2.02245 0
M  V30 14666 C 1642.33 -1.54504 1.08508 0
M  V30 14667 O 1641.69 -1.82269 0.0916991 0
M  V30 14668 C 1641.74 -0.983483 3.47865 0
M  V30 14669 O 1641.46 0.0809166 4.38025 0
M  V30 14670 C 1642.96 -1.69983 4.09415 0
M  V30 14671 H 1640.18 -0.108577 0.662157 0
M  V30 14672 H 1642.73 0.316659 2.02033 0
M  V30 14673 H 1640.88 -1.6869 3.48744 0
M  V30 14674 H 1641.3 -0.327751 5.23475 0
M  V30 14675 H 1642.77 -2.03481 5.13127 0
M  V30 14676 H 1643.25 -2.60711 3.5345 0
M  V30 14677 H 1643.85 -1.04202 4.12337 0
M  V30 14678 N 1642.17 -1.57451 -0.0684915 0
M  V30 14679 C 1643.42 -1.86595 -0.765856 0
M  V30 14680 C 1643.73 -0.798157 -1.78574 0
M  V30 14681 O 1644.94 -0.977541 -2.53291 0
M  V30 14682 C 1643.39 -3.31001 -1.41302 0
M  V30 14683 C 1643 -4.45917 -0.431528 0
M  V30 14684 C 1644.75 -3.6934 -2.09256 0
M  V30 14685 C 1642.65 -5.81366 -1.08479 0
M  V30 14686 H 1641.58 -0.696092 -0.289778 0
M  V30 14687 H 1644.23 -1.8349 -0.0192171 0
M  V30 14688 H 1642.62 -3.28728 -2.20803 0
M  V30 14689 H 1643.79 -4.59589 0.333913 0
M  V30 14690 H 1642.1 -4.16152 0.143743 0
M  V30 14691 H 1644.7 -4.67833 -2.58913 0
M  V30 14692 H 1645.04 -2.99308 -2.89344 0
M  V30 14693 H 1645.58 -3.73618 -1.36581 0
M  V30 14694 H 1642.32 -6.54698 -0.324162 0
M  V30 14695 H 1641.84 -5.71488 -1.82102 0
M  V30 14696 H 1643.52 -6.26811 -1.60367 0
M  V30 14697 N 1643.65 0.339955 -1.5389 0
M  V30 14698 C 1644.6 1.43787 -1.82833 0
M  V30 14699 C 1645.59 1.54303 -0.699058 0
M  V30 14700 O 1646.8 1.56884 -0.882455 0
M  V30 14701 H 1643.17 0.479497 -0.579298 0
M  V30 14702 H 1645.14 1.16592 -2.7468 0
M  V30 14703 C 1643.89 2.80257 -2.05794 0
M  V30 14704 H 1643.21 2.72933 -2.92143 0
M  V30 14705 H 1644.65 3.56191 -2.30009 0
M  V30 14706 C 1643.11 3.26143 -0.844532 0
M  V30 14707 O 1643.64 4.01674 -0.0457121 0
M  V30 14708 N 1641.85 2.82988 -0.660748 0
M  V30 14709 H 1641.4 2.21687 -1.31198 0
M  V30 14710 H 1641.35 3.14044 0.149661 0
M  V30 14711 N 1645.13 1.45684 0.601159 0
M  V30 14712 C 1646.37 1.50258 1.362 0
M  V30 14713 C 1646.7 0.146358 1.93648 0
M  V30 14714 O 1645.98 -0.839985 1.75427 0
M  V30 14715 C 1646.26 2.5868 2.50513 0
M  V30 14716 C 1646.12 4.03769 1.98219 0
M  V30 14717 C 1647.43 2.63332 3.52624 0
M  V30 14718 H 1644.55 0.547045 0.493873 0
M  V30 14719 H 1647.2 1.77527 0.677068 0
M  V30 14720 H 1645.35 2.35559 3.08941 0
M  V30 14721 H 1647.02 4.3812 1.44391 0
M  V30 14722 H 1645.26 4.14121 1.29174 0
M  V30 14723 H 1645.93 4.75329 2.80653 0
M  V30 14724 H 1648.41 2.84067 3.04048 0
M  V30 14725 H 1647.28 3.41047 4.30091 0
M  V30 14726 H 1647.54 1.68668 4.0866 0
M  V30 14727 N 1646.6 -0.84422 1.33082 0
M  V30 14728 C 1647.55 -1.94198 1.19463 0
M  V30 14729 C 1648.54 -1.60596 0.0988792 0
M  V30 14730 O 1649.73 -1.73964 0.326442 0
M  V30 14731 C 1646.86 -3.30448 0.930544 0
M  V30 14732 C 1645.94 -3.70236 2.06848 0
M  V30 14733 N 1646.34 -3.81763 3.31799 0
M  V30 14734 C 1644.63 -3.99937 1.97398 0
M  V30 14735 C 1645.33 -4.16192 4.06398 0
M  V30 14736 N 1644.31 -4.28273 3.34788 0
M  V30 14737 H 1648.11 -2.01257 2.14179 0
M  V30 14738 H 1645.63 -1.03662 1.25012 0
M  V30 14739 H 1647.62 -4.08878 0.813916 0
M  V30 14740 H 1646.28 -3.24699 -0.00814161 0
M  V30 14741 H 1647.29 -3.6581 3.66611 0
M  V30 14742 H 1643.97 -4.02431 1.11156 0
M  V30 14743 H 1645.36 -4.32492 5.14199 0
M  V30 14744 N 1648.08 -1.16463 -1.0618 0
M  V30 14745 C 1649.36 -0.857038 -1.75824 0
M  V30 14746 C 1649.74 0.644886 -2.01009 0
M  V30 14747 O 1649.09 1.59305 -1.63812 0
M  V30 14748 C 1649.3 -1.681 -3.05849 0
M  V30 14749 C 1650.64 -1.8947 -3.79982 0
M  V30 14750 O 1651.67 -1.64975 -3.15692 0
M  V30 14751 O 1650.53 -2.30573 -4.95478 0
M  V30 14752 H 1647.62 -0.316364 -0.764096 0
M  V30 14753 H 1650.17 -1.27105 -1.12438 0
M  V30 14754 H 1648.94 -2.70014 -2.8321 0
M  V30 14755 H 1648.56 -1.2641 -3.7697 0
M  V30 14756 N 1649.56 1.24734 -0.963288 0
M  V30 14757 C 1650.81 1.92971 -0.623688 0
M  V30 14758 C 1651.14 1.7517 0.838393 0
M  V30 14759 O 1650.41 1.10208 1.60264 0
M  V30 14760 C 1650.7 3.46115 -0.99379 0
M  V30 14761 C 1650.55 3.73104 -2.51224 0
M  V30 14762 C 1651.87 4.36956 -0.525128 0
M  V30 14763 H 1648.99 0.700827 -0.228058 0
M  V30 14764 H 1651.63 1.47187 -1.2015 0
M  V30 14765 H 1649.78 3.85242 -0.502108 0
M  V30 14766 H 1651.45 3.43563 -3.07835 0
M  V30 14767 H 1649.69 3.18409 -2.94616 0
M  V30 14768 H 1650.37 4.80237 -2.7217 0
M  V30 14769 H 1652.84 4.0518 -0.947015 0
M  V30 14770 H 1651.72 5.4285 -0.812695 0
M  V30 14771 H 1651.98 4.38347 0.574843 0
M  V30 14772 N 1651.04 0.732878 1.39523 0
M  V30 14773 C 1651.95 0.0930216 2.34416 0
M  V30 14774 C 1652.96 -0.724309 1.58208 0
M  V30 14775 O 1654.14 -0.653267 1.90511 0
M  V30 14776 C 1651.2 -0.805036 3.37224 0
M  V30 14777 C 1650.27 0.0243049 4.29293 0
M  V30 14778 C 1649.5 -0.830984 5.27191 0
M  V30 14779 O 1649.72 -2.06977 5.31523 0
M  V30 14780 O 1648.66 -0.260772 6.01335 0
M  V30 14781 H 1652.48 0.876179 2.90786 0
M  V30 14782 H 1650.07 0.493525 1.41013 0
M  V30 14783 H 1651.95 -1.31894 4.00228 0
M  V30 14784 H 1650.62 -1.56704 2.83241 0
M  V30 14785 H 1649.53 0.583677 3.69519 0
M  V30 14786 H 1650.86 0.748485 4.86476 0
M  V30 14787 N 1652.52 -1.50101 0.480349 0
M  V30 14788 C 1653.74 -2.06785 -0.068848 0
M  V30 14789 C 1654.16 -1.34316 -1.32683 0
M  V30 14790 O 1653.52 -0.415196 -1.77714 0
M  V30 14791 C 1653.57 -3.59826 -0.347522 0
M  V30 14792 O 1653.29 -4.29565 0.860569 0
M  V30 14793 C 1654.79 -4.33161 -0.94266 0
M  V30 14794 H 1652.01 -0.670906 0.0112172 0
M  V30 14795 H 1654.55 -1.93151 0.671788 0
M  V30 14796 H 1652.71 -3.73232 -1.0381 0
M  V30 14797 H 1653.12 -5.20931 0.610796 0
M  V30 14798 H 1654.6 -5.41184 -1.08736 0
M  V30 14799 H 1655.07 -3.94268 -1.93518 0
M  V30 14800 H 1655.68 -4.24309 -0.290178 0
M  V30 14801 N 1653.99 -0.213323 -1.5615 0
M  V30 14802 C 1654.93 0.732346 -2.17185 0
M  V30 14803 C 1655.94 1.16357 -1.13864 0
M  V30 14804 O 1657.13 1.09614 -1.40879 0
M  V30 14805 C 1654.23 2.0027 -2.73395 0
M  V30 14806 C 1653.4 1.72836 -4.01804 0
M  V30 14807 C 1652.46 2.84497 -4.4266 0
M  V30 14808 O 1651.49 2.5332 -5.09723 0
M  V30 14809 N 1652.69 4.13268 -4.07663 0
M  V30 14810 H 1655.45 0.210294 -2.98961 0
M  V30 14811 H 1653.01 -0.0320124 -1.61868 0
M  V30 14812 H 1655.01 2.74145 -2.97702 0
M  V30 14813 H 1653.58 2.43546 -1.9597 0
M  V30 14814 H 1652.8 0.826474 -3.85439 0
M  V30 14815 H 1654.08 1.51928 -4.85588 0
M  V30 14816 H 1653.48 4.41444 -3.53756 0
M  V30 14817 H 1652.04 4.83713 -4.36881 0
M  V30 14818 N 1655.47 1.57485 0.0601405 0
M  V30 14819 C 1656.72 1.87816 0.75707 0
M  V30 14820 C 1657.05 0.806616 1.76986 0
M  V30 14821 O 1656.3 -0.196101 1.94715 0
M  V30 14822 C 1656.6 3.24839 1.49045 0
M  V30 14823 C 1656.27 4.46665 0.616559 0
M  V30 14824 C 1654.93 4.79731 0.375769 0
M  V30 14825 C 1657.28 5.21199 0.0113073 0
M  V30 14826 C 1654.61 5.84737 -0.479564 0
M  V30 14827 C 1656.96 6.27111 -0.831546 0
M  V30 14828 C 1655.63 6.58671 -1.0821 0
M  V30 14829 H 1654.9 0.687266 0.277032 0
M  V30 14830 H 1657.54 1.91492 0.0175593 0
M  V30 14831 H 1655.85 3.17007 2.30247 0
M  V30 14832 H 1657.54 3.45545 2.03469 0
M  V30 14833 H 1654.13 4.20792 0.814371 0
M  V30 14834 H 1658.32 4.95957 0.18443 0
M  V30 14835 H 1653.57 6.07581 -0.682308 0
M  V30 14836 H 1657.75 6.84021 -1.30721 0
M  V30 14837 H 1655.38 7.39863 -1.74663 0
M  V30 14838 N 1656.95 -0.331789 1.54068 0
M  V30 14839 C 1657.9 -1.42815 1.83593 0
M  V30 14840 C 1658.89 -1.53931 0.707231 0
M  V30 14841 O 1660.1 -1.56414 0.890763 0
M  V30 14842 H 1656.47 -0.476418 0.581833 0
M  V30 14843 H 1658.44 -1.15133 2.75294 0
M  V30 14844 C 1657.19 -2.79162 2.07277 0
M  V30 14845 H 1656.52 -2.7138 2.93586 0
M  V30 14846 H 1657.96 -3.54966 2.31895 0
M  V30 14847 C 1656.42 -3.25691 0.861816 0
M  V30 14848 O 1656.95 -4.01644 0.0670133 0
M  V30 14849 N 1655.15 -2.82634 0.675746 0
M  V30 14850 H 1654.7 -2.20988 1.32371 0
M  V30 14851 H 1654.66 -3.14119 -0.133004 0
M  V30 14852 N 1658.43 -1.46001 -0.593424 0
M  V30 14853 C 1659.36 -1.51774 -1.71748 0
M  V30 14854 C 1660.37 -0.407093 -1.57628 0
M  V30 14855 O 1661.56 -0.674903 -1.65249 0
M  V30 14856 C 1658.66 -1.3718 -3.09895 0
M  V30 14857 C 1657.84 -2.62173 -3.5012 0
M  V30 14858 C 1656.89 -2.41933 -4.67285 0
M  V30 14859 O 1655.92 -3.15611 -4.73686 0
M  V30 14860 N 1657.12 -1.47405 -5.61473 0
M  V30 14861 H 1659.89 -2.48689 -1.67253 0
M  V30 14862 H 1657.45 -1.41921 -0.779111 0
M  V30 14863 H 1659.44 -1.21428 -3.86054 0
M  V30 14864 H 1658.01 -0.484876 -3.08817 0
M  V30 14865 H 1657.23 -2.92943 -2.63777 0
M  V30 14866 H 1658.52 -3.45229 -3.73758 0
M  V30 14867 H 1657.92 -0.866282 -5.59028 0
M  V30 14868 H 1656.47 -1.3762 -6.37106 0
M  V30 14869 N 1659.91 0.83715 -1.33527 0
M  V30 14870 C 1661.14 1.6222 -1.27938 0
M  V30 14871 C 1661.54 1.88592 0.151584 0
M  V30 14872 O 1660.89 1.46772 1.1047 0
M  V30 14873 C 1660.95 2.99561 -1.98754 0
M  V30 14874 C 1660.61 2.96152 -3.48056 0
M  V30 14875 C 1661.61 2.71745 -4.43227 0
M  V30 14876 C 1659.3 3.16233 -3.90259 0
M  V30 14877 C 1661.29 2.67451 -5.78575 0
M  V30 14878 C 1658.98 3.11564 -5.2571 0
M  V30 14879 C 1659.97 2.87204 -6.1968 0
M  V30 14880 O 1659.66 2.82441 -7.5265 0
M  V30 14881 H 1659.39 0.511419 -0.442071 0
M  V30 14882 H 1661.95 1.05075 -1.76489 0
M  V30 14883 H 1660.18 3.58568 -1.44797 0
M  V30 14884 H 1661.87 3.60444 -1.86642 0
M  V30 14885 H 1662.63 2.5598 -4.11946 0
M  V30 14886 H 1658.51 3.34214 -3.17525 0
M  V30 14887 H 1662.06 2.48356 -6.51893 0
M  V30 14888 H 1657.95 3.26879 -5.56615 0
M  V30 14889 H 1658.72 2.98271 -7.62218 0
M  V30 14890 N 1661.38 1.17024 1.05561 0
M  V30 14891 C 1662.33 0.88356 2.13218 0
M  V30 14892 C 1663.3 -0.171025 1.65217 0
M  V30 14893 O 1664.49 -0.0346242 1.90769 0
M  V30 14894 C 1661.63 0.398912 3.42787 0
M  V30 14895 C 1660.74 1.51718 4.04482 0
M  V30 14896 C 1659.87 0.986793 5.21954 0
M  V30 14897 C 1658.91 2.08077 5.75648 0
M  V30 14898 N 1658.05 1.56542 6.84426 0
M  V30 14899 H 1662.89 1.80548 2.37079 0
M  V30 14900 H 1660.43 0.90056 1.16311 0
M  V30 14901 H 1662.39 0.0995018 4.17081 0
M  V30 14902 H 1661.02 -0.48605 3.1912 0
M  V30 14903 H 1660.07 1.9324 3.27662 0
M  V30 14904 H 1661.38 2.34243 4.40377 0
M  V30 14905 H 1660.53 0.641006 6.03304 0
M  V30 14906 H 1659.27 0.130942 4.87524 0
M  V30 14907 H 1658.28 2.43517 4.9293 0
M  V30 14908 H 1659.5 2.94071 6.12127 0
M  V30 14909 H 1657.45 0.732221 6.51901 0
M  V30 14910 H 1657.37 2.32677 7.19303 0
M  V30 14911 H 1658.63 1.24844 7.69438 0
M  V30 14912 N 1662.86 -1.24221 0.969889 0
M  V30 14913 C 1664.09 -1.96403 0.650658 0
M  V30 14914 C 1664.51 -1.71919 -0.780339 0
M  V30 14915 O 1663.86 -1.00427 -1.52383 0
M  V30 14916 C 1663.91 -3.49636 0.918542 0
M  V30 14917 O 1663.63 -3.73283 2.29328 0
M  V30 14918 C 1665.14 -4.3903 0.613803 0
M  V30 14919 H 1662.36 -0.625614 0.242587 0
M  V30 14920 H 1664.9 -1.57992 1.29842 0
M  V30 14921 H 1663.05 -3.86101 0.316959 0
M  V30 14922 H 1663.47 -4.67649 2.37496 0
M  V30 14923 H 1664.94 -5.4539 0.851679 0
M  V30 14924 H 1665.42 -4.36868 -0.451976 0
M  V30 14925 H 1666.03 -4.08155 1.19539 0
M  V30 14926 N 1664.34 -0.740267 -1.39132 0
M  V30 14927 C 1665.25 -0.105452 -2.34363 0
M  V30 14928 C 1666.27 0.715908 -1.5859 0
M  V30 14929 O 1667.44 0.643155 -1.90855 0
M  V30 14930 C 1664.51 0.787141 -3.37646 0
M  V30 14931 C 1663.57 -0.047071 -4.29274 0
M  V30 14932 C 1662.8 0.803014 -5.27624 0
M  V30 14933 O 1663.02 2.04155 -5.32613 0
M  V30 14934 O 1661.96 0.228879 -6.01465 0
M  V30 14935 H 1665.78 -0.891588 -2.90318 0
M  V30 14936 H 1663.37 -0.500996 -1.40749 0
M  V30 14937 H 1665.25 1.29769 -4.00921 0
M  V30 14938 H 1663.93 1.552 -2.84068 0
M  V30 14939 H 1662.83 -0.603265 -3.69204 0
M  V30 14940 H 1664.17 -0.774273 -4.86072 0
M  V30 14941 N 1665.82 1.49844 -0.488302 0
M  V30 14942 C 1666.78 2.27412 0.285706 0
M  V30 14943 C 1667.78 1.32897 0.905261 0
M  V30 14944 O 1668.97 1.56171 0.771763 0
M  V30 14945 C 1666.1 3.10435 1.40864 0
M  V30 14946 H 1667.3 2.9729 -0.394782 0
M  V30 14947 H 1664.85 1.54401 -0.242873 0
M  V30 14948 H 1665.58 2.45094 2.12367 0
M  V30 14949 H 1665.37 3.79913 0.969991 0
M  V30 14950 H 1666.86 3.69054 1.95419 0
M  V30 14951 N 1667.3 0.221601 1.56034 0
M  V30 14952 C 1668.26 -0.674973 2.19036 0
M  V30 14953 C 1669.26 -1.1216 1.15225 0
M  V30 14954 O 1670.45 -1.0304 1.40458 0
M  V30 14955 C 1667.58 -1.92465 2.81372 0
M  V30 14956 H 1668.77 -0.125689 2.99637 0
M  V30 14957 H 1666.33 -0.0280114 1.56275 0
M  V30 14958 H 1667.06 -2.5158 2.04641 0
M  V30 14959 H 1666.85 -1.61286 3.57392 0
M  V30 14960 H 1668.34 -2.56342 3.29664 0
M  V30 14961 N 1668.77 -1.57515 -0.0517878 0
M  V30 14962 C 1670 -1.92845 -0.763249 0
M  V30 14963 C 1670.42 -0.819745 -1.69298 0
M  V30 14964 O 1669.78 0.226161 -1.79884 0
M  V30 14965 C 1669.83 -3.27189 -1.5159 0
M  V30 14966 O 1668.93 -3.17834 -2.62783 0
M  V30 14967 H 1668.28 -0.630944 -0.206896 0
M  V30 14968 H 1670.81 -2.04595 -0.0140481 0
M  V30 14969 H 1670.82 -3.61542 -1.89081 0
M  V30 14970 H 1669.49 -4.07455 -0.833871 0
M  V30 14971 H 1668.07 -2.95075 -2.28002 0
M  V30 14972 N 1670.25 0.323614 -1.54242 0
M  V30 14973 C 1671.67 0.66795 -1.4495 0
M  V30 14974 C 1671.87 1.91649 -0.622338 0
M  V30 14975 O 1670.93 2.52209 -0.121119 0
M  V30 14976 C 1672.24 0.842006 -2.88671 0
M  V30 14977 C 1673.79 0.93935 -2.98572 0
M  V30 14978 C 1674.26 1.14557 -4.43442 0
M  V30 14979 N 1675.75 1.21231 -4.47054 0
M  V30 14980 C 1676.49 1.38976 -5.56303 0
M  V30 14981 N 1675.98 1.53764 -6.75521 0
M  V30 14982 N 1677.78 1.41684 -5.4395 0
M  V30 14983 H 1669.93 -0.497017 -2.06503 0
M  V30 14984 H 1672.19 -0.160563 -0.934304 0
M  V30 14985 H 1671.9 -0.00418568 -3.517 0
M  V30 14986 H 1671.77 1.73785 -3.34782 0
M  V30 14987 H 1674.16 1.77605 -2.35671 0
M  V30 14988 H 1674.24 0.0199775 -2.55792 0
M  V30 14989 H 1673.88 0.313732 -5.0693 0
M  V30 14990 H 1673.81 2.07882 -4.83831 0
M  V30 14991 H 1676.3 1.11247 -3.61154 0
M  V30 14992 H 1676.62 1.66996 -7.54541 0
M  V30 14993 H 1674.96 1.50862 -6.78429 0
M  V30 14994 H 1678.15 1.29726 -4.49765 0
M  V30 14995 H 1678.33 1.5517 -6.29147 0
M  V30 14996 N 1671.73 1.46313 0.585673 0
M  V30 14997 C 1672.96 1.54811 1.36811 0
M  V30 14998 C 1673.37 0.187083 1.88273 0
M  V30 14999 O 1672.71 -0.825324 1.64116 0
M  V30 15000 C 1672.77 2.48978 2.59326 0
M  V30 15001 C 1672.44 3.9528 2.29352 0
M  V30 15002 C 1673.44 4.84575 1.88369 0
M  V30 15003 C 1671.12 4.40387 2.41588 0
M  V30 15004 C 1673.11 6.16989 1.60012 0
M  V30 15005 C 1670.8 5.72836 2.12844 0
M  V30 15006 C 1671.8 6.60956 1.72121 0
M  V30 15007 O 1671.49 7.90947 1.43727 0
M  V30 15008 H 1671.22 0.526169 0.424409 0
M  V30 15009 H 1673.77 1.92395 0.719251 0
M  V30 15010 H 1672 2.06406 3.27007 0
M  V30 15011 H 1673.69 2.47915 3.21392 0
M  V30 15012 H 1674.46 4.50984 1.78433 0
M  V30 15013 H 1670.34 3.72024 2.72249 0
M  V30 15014 H 1673.88 6.85728 1.28152 0
M  V30 15015 H 1669.78 6.05976 2.22403 0
M  V30 15016 H 1670.55 8.03185 1.57597 0
M  V30 15017 N 1673.21 -0.830057 1.33969 0
M  V30 15018 C 1674.16 -1.96189 1.2495 0
M  V30 15019 C 1675.15 -1.68743 0.149047 0
M  V30 15020 O 1676.36 -1.77248 0.31357 0
M  V30 15021 H 1672.73 -0.644184 0.387983 0
M  V30 15022 H 1674.7 -2.0092 2.20621 0
M  V30 15023 C 1673.45 -3.32569 1.01456 0
M  V30 15024 H 1672.78 -3.54232 1.85363 0
M  V30 15025 H 1674.22 -4.12237 0.991786 0
M  V30 15026 C 1672.67 -3.35715 -0.282331 0
M  V30 15027 O 1673.2 -3.80556 -1.28609 0
M  V30 15028 N 1671.41 -2.8891 -0.312952 0
M  V30 15029 H 1670.96 -2.52613 0.504446 0
M  V30 15030 H 1670.92 -2.91397 -1.18047 0
M  V30 15031 N 1674.69 -1.17582 -1.04939 0
M  V30 15032 C 1675.62 -0.918221 -2.14688 0
M  V30 15033 C 1676.6 0.140757 -1.69517 0
M  V30 15034 O 1677.78 -0.0100118 -1.94197 0
M  V30 15035 C 1674.91 -0.433531 -3.44584 0
M  V30 15036 C 1673.87 -1.43199 -4.03334 0
M  V30 15037 C 1673.19 -0.805154 -5.28603 0
M  V30 15038 C 1674.49 -2.80598 -4.40525 0
M  V30 15039 H 1676.19 -1.83604 -2.36495 0
M  V30 15040 H 1673.73 -0.884202 -1.13657 0
M  V30 15041 H 1675.69 -0.240722 -4.20712 0
M  V30 15042 H 1674.41 0.519832 -3.22437 0
M  V30 15043 H 1673.07 -1.61158 -3.29277 0
M  V30 15044 H 1672.72 0.155124 -5.02761 0
M  V30 15045 H 1672.42 -1.4717 -5.68871 0
M  V30 15046 H 1673.94 -0.622677 -6.07417 0
M  V30 15047 H 1675.36 -2.66341 -5.07676 0
M  V30 15048 H 1673.75 -3.43854 -4.91817 0
M  V30 15049 H 1674.82 -3.34815 -3.50752 0
M  V30 15050 N 1676.17 1.23705 -0.976463 0
M  V30 15051 C 1677.39 1.96055 -0.661065 0
M  V30 15052 C 1677.81 1.7233 0.77121 0
M  V30 15053 O 1677.17 1.01234 1.51849 0
M  V30 15054 C 1677.22 3.49144 -0.937071 0
M  V30 15055 O 1676.94 3.72061 -2.31305 0
M  V30 15056 C 1678.44 4.38698 -0.637077 0
M  V30 15057 H 1675.66 0.624319 -0.245901 0
M  V30 15058 H 1678.2 1.57301 -1.30678 0
M  V30 15059 H 1676.36 3.85928 -0.33743 0
M  V30 15060 H 1676.77 4.66383 -2.39973 0
M  V30 15061 H 1678.25 5.44931 -0.88059 0
M  V30 15062 H 1678.72 4.37102 0.428802 0
M  V30 15063 H 1679.33 4.07515 -1.21702 0
M  V30 15064 N 1677.64 0.747635 1.38738 0
M  V30 15065 C 1678.89 0.297962 1.99487 0
M  V30 15066 C 1679.21 -1.1249 1.60016 0
M  V30 15067 O 1680.41 -1.67474 2.13693 0
M  V30 15068 C 1678.87 0.48178 3.56661 0
M  V30 15069 C 1678.48 1.91335 4.05086 0
M  V30 15070 C 1680.22 0.0945202 4.24395 0
M  V30 15071 C 1678.13 2.04604 5.54879 0
M  V30 15072 H 1677.06 0.107655 0.746275 0
M  V30 15073 H 1679.71 0.923325 1.58578 0
M  V30 15074 H 1678.09 -0.212676 3.95428 0
M  V30 15075 H 1679.26 2.64079 3.77623 0
M  V30 15076 H 1677.58 2.25497 3.50057 0
M  V30 15077 H 1680.18 0.172508 5.34422 0
M  V30 15078 H 1680.52 -0.952037 4.05268 0
M  V30 15079 H 1681.05 0.740606 3.90845 0
M  V30 15080 H 1677.79 3.07493 5.78903 0
M  V30 15081 H 1677.31 1.36313 5.84105 0
M  V30 15082 H 1678.99 1.83317 6.20487 0
M  V30 15083 N 1679.12 -1.49583 0.496242 0
M  V30 15084 C 1680.35 -2.07342 -0.0490986 0
M  V30 15085 C 1680.77 -1.35474 -1.30493 0
M  V30 15086 O 1680.13 -0.410005 -1.76603 0
M  V30 15087 C 1680.18 -3.59427 -0.290601 0
M  V30 15088 O 1679.28 -3.89111 -1.36626 0
M  V30 15089 H 1678.62 -0.663562 0.0241141 0
M  V30 15090 H 1681.15 -1.92452 0.6945 0
M  V30 15091 H 1681.16 -4.04627 -0.523549 0
M  V30 15092 H 1679.84 -4.11147 0.626959 0
M  V30 15093 H 1678.41 -3.55726 -1.11864 0
M  V30 15094 N 1680.6 -0.229873 -1.55915 0
M  V30 15095 C 1681.88 0.449007 -1.90377 0
M  V30 15096 C 1682.26 1.77133 -1.14835 0
M  V30 15097 O 1681.6 2.27012 -0.260328 0
M  V30 15098 C 1681.81 0.633805 -3.43197 0
M  V30 15099 C 1683.16 0.937453 -4.14122 0
M  V30 15100 O 1684.19 0.72029 -3.48841 0
M  V30 15101 O 1683.05 1.35005 -5.29562 0
M  V30 15102 H 1680.14 0.238557 -0.791846 0
M  V30 15103 H 1682.69 -0.272676 -1.67495 0
M  V30 15104 H 1681.46 -0.298587 -3.90159 0
M  V30 15105 H 1681.08 1.40667 -3.71885 0
M  V30 15106 N 1682.08 1.5754 0.0434337 0
M  V30 15107 C 1683.32 1.88887 0.7382 0
M  V30 15108 C 1683.66 0.825827 1.75766 0
M  V30 15109 O 1682.93 -0.160797 1.93834 0
M  V30 15110 C 1683.21 3.30889 1.42072 0
M  V30 15111 C 1683.07 4.47874 0.415754 0
M  V30 15112 C 1684.39 3.71571 2.35846 0
M  V30 15113 H 1681.51 0.686975 0.266897 0
M  V30 15114 H 1684.15 1.9 0.00106957 0
M  V30 15115 H 1682.3 3.30071 2.04903 0
M  V30 15116 H 1683.97 4.60824 -0.209529 0
M  V30 15117 H 1682.21 4.32982 -0.266346 0
M  V30 15118 H 1682.88 5.44084 0.931509 0
M  V30 15119 H 1685.36 3.73663 1.83071 0
M  V30 15120 H 1684.24 4.71763 2.80589 0
M  V30 15121 H 1684.5 3.03041 3.21898 0
M  V30 15122 N 1683.56 -0.31543 1.54411 0
M  V30 15123 C 1684.78 -1.0761 1.77299 0
M  V30 15124 C 1685.21 -1.80655 0.523963 0
M  V30 15125 O 1684.56 -1.73536 -0.524874 0
M  V30 15126 C 1684.61 -2.04355 2.97105 0
M  V30 15127 O 1683.72 -3.12401 2.69219 0
M  V30 15128 H 1683.06 -0.30986 0.587267 0
M  V30 15129 H 1685.59 -0.357246 2.01457 0
M  V30 15130 H 1685.6 -2.47081 3.24677 0
M  V30 15131 H 1684.27 -1.50592 3.87679 0
M  V30 15132 H 1682.85 -2.74294 2.52621 0
M  V30 15133 N 1685.03 -1.46622 -0.577906 0
M  V30 15134 C 1686.28 -1.52406 -1.33792 0
M  V30 15135 C 1686.61 -0.177147 -1.9339 0
M  V30 15136 O 1685.89 0.81197 -1.76741 0
M  V30 15137 C 1686.17 -2.62633 -2.46366 0
M  V30 15138 C 1686.02 -4.06871 -1.91771 0
M  V30 15139 C 1687.34 -2.68909 -3.4839 0
M  V30 15140 H 1684.46 -0.554833 -0.485107 0
M  V30 15141 H 1687.1 -1.78582 -0.648739 0
M  V30 15142 H 1685.25 -2.40444 -3.05154 0
M  V30 15143 H 1686.93 -4.40361 -1.37403 0
M  V30 15144 H 1685.17 -4.16124 -1.2257 0
M  V30 15145 H 1685.84 -4.79734 -2.73056 0
M  V30 15146 H 1688.32 -2.88868 -2.9949 0
M  V30 15147 H 1687.19 -3.47846 -4.24611 0
M  V30 15148 H 1687.45 -1.75148 -4.05925 0
M  V30 15149 N 1686.51 0.822941 -1.34408 0
M  V30 15150 C 1687.74 1.61607 -1.29992 0
M  V30 15151 C 1688.16 1.87695 0.123301 0
M  V30 15152 O 1687.52 1.45247 1.08504 0
M  V30 15153 C 1687.57 2.934 -2.09639 0
M  V30 15154 O 1686.67 3.85467 -1.4659 0
M  V30 15155 H 1686.01 0.491504 -0.446452 0
M  V30 15156 H 1688.54 1.02264 -1.7721 0
M  V30 15157 H 1688.55 3.42966 -2.20994 0
M  V30 15158 H 1687.23 2.73736 -3.13116 0
M  V30 15159 H 1685.81 3.43984 -1.43978 0
M  V30 15160 N 1687.99 1.18137 1.04314 0
M  V30 15161 C 1689.27 0.884901 1.74439 0
M  V30 15162 C 1689.65 -0.612825 2.02009 0
M  V30 15163 O 1689 -1.56679 1.66325 0
M  V30 15164 C 1689.21 1.72944 3.03136 0
M  V30 15165 C 1690.55 1.95491 3.7692 0
M  V30 15166 O 1691.58 1.69976 3.13028 0
M  V30 15167 O 1690.44 2.38426 4.91747 0
M  V30 15168 H 1687.53 0.328481 0.758966 0
M  V30 15169 H 1690.08 1.28878 1.10402 0
M  V30 15170 H 1688.85 2.74485 2.78879 0
M  V30 15171 H 1688.47 1.32392 3.74911 0
M  V30 15172 N 1689.47 -1.23186 0.98301 0
M  V30 15173 C 1690.71 -1.91955 0.65431 0
M  V30 15174 C 1691.05 -1.76482 -0.810419 0
M  V30 15175 O 1690.32 -1.12744 -1.5849 0
M  V30 15176 C 1690.61 -3.4449 1.04873 0
M  V30 15177 C 1690.46 -3.6906 2.57128 0
M  V30 15178 C 1691.78 -4.36065 0.594578 0
M  V30 15179 H 1688.9 -0.69711 0.239179 0
M  V30 15180 H 1691.54 -1.45257 1.22476 0
M  V30 15181 H 1689.69 -3.84394 0.563333 0
M  V30 15182 H 1691.36 -3.38622 3.13262 0
M  V30 15183 H 1689.6 -3.13681 2.99644 0
M  V30 15184 H 1690.27 -4.75846 2.79776 0
M  V30 15185 H 1692.75 -4.03622 1.01136 0
M  V30 15186 H 1691.63 -5.41489 0.898955 0
M  V30 15187 H 1691.89 -4.39206 -0.505033 0
M  V30 15188 N 1690.95 -0.754982 -1.38339 0
M  V30 15189 C 1692.36 -0.379276 -1.82807 0
M  V30 15190 C 1692.71 1.09228 -1.62984 0
M  V30 15191 O 1691.83 1.84445 -1.13177 0
M  V30 15192 C 1692.43 -0.681628 -3.31872 0
M  V30 15193 C 1690.99 -0.359183 -3.74682 0
M  V30 15194 C 1690.13 -0.93409 -2.61094 0
M  V30 15195 H 1693.09 -0.951019 -1.27048 0
M  V30 15196 H 1693.11 0.0396803 -3.80479 0
M  V30 15197 H 1692.62 -1.75271 -3.46268 0
M  V30 15198 H 1690.72 0.705257 -3.65865 0
M  V30 15199 H 1690.83 -0.85571 -4.71396 0
M  V30 15200 H 1689.2 -0.359379 -2.52152 0
M  V30 15201 H 1689.98 -2.01023 -2.78289 0
M  V30 15202 N 1692.42 1.49318 -0.504168 0
M  V30 15203 C 1693.67 2.02462 0.0392265 0
M  V30 15204 C 1694 1.38359 1.36701 0
M  V30 15205 O 1693.25 0.509579 1.88949 0
M  V30 15206 C 1693.55 3.56613 0.237041 0
M  V30 15207 C 1693.22 4.3937 -1.01314 0
M  V30 15208 C 1691.88 4.61704 -1.35583 0
M  V30 15209 C 1694.23 4.8749 -1.84399 0
M  V30 15210 C 1691.56 5.29403 -2.52882 0
M  V30 15211 C 1693.91 5.56479 -3.00854 0
M  V30 15212 C 1692.58 5.77058 -3.35499 0
M  V30 15213 H 1691.85 0.740861 0.014354 0
M  V30 15214 H 1694.49 1.79584 -0.664967 0
M  V30 15215 H 1692.8 3.78188 1.02379 0
M  V30 15216 H 1694.5 3.95329 0.671987 0
M  V30 15217 H 1691.09 4.2223 -0.736213 0
M  V30 15218 H 1695.27 4.7006 -1.59238 0
M  V30 15219 H 1690.53 5.43538 -2.79958 0
M  V30 15220 H 1694.7 5.9274 -3.65558 0
M  V30 15221 H 1692.33 6.29291 -4.26494 0
M  V30 15222 N 1693.9 0.238138 1.5579 0
M  V30 15223 C 1695.31 -0.266656 1.84786 0
M  V30 15224 C 1695.66 -1.58248 1.15983 0
M  V30 15225 O 1694.79 -2.11979 0.43518 0
M  V30 15226 C 1695.38 -0.4906 3.35229 0
M  V30 15227 C 1693.94 -0.939672 3.64482 0
M  V30 15228 C 1693.09 -0.0119682 2.77297 0
M  V30 15229 H 1696.04 0.460924 1.51859 0
M  V30 15230 H 1696.06 -1.3344 3.56334 0
M  V30 15231 H 1695.57 0.467239 3.85277 0
M  V30 15232 H 1693.68 -1.91029 3.19904 0
M  V30 15233 H 1693.79 -0.8026 4.72329 0
M  V30 15234 H 1692.15 -0.521767 2.49298 0
M  V30 15235 H 1692.94 0.941085 3.30149 0
M  V30 15236 N 1695.38 -1.57561 -0.0350783 0
M  V30 15237 C 1696.63 -1.88996 -0.727095 0
M  V30 15238 C 1696.96 -0.834671 -1.7568 0
M  V30 15239 O 1696.21 0.165098 -1.95002 0
M  V30 15240 C 1696.51 -3.27169 -1.43858 0
M  V30 15241 C 1696.18 -4.47589 -0.545421 0
M  V30 15242 C 1694.84 -4.80268 -0.2994 0
M  V30 15243 C 1697.19 -5.21151 0.0716124 0
M  V30 15244 C 1694.52 -5.839 0.57253 0
M  V30 15245 C 1696.87 -6.25709 0.931209 0
M  V30 15246 C 1695.53 -6.56866 1.18675 0
M  V30 15247 H 1694.8 -0.691586 -0.266063 0
M  V30 15248 H 1697.45 -1.91496 0.0129076 0
M  V30 15249 H 1695.76 -3.2063 -2.25175 0
M  V30 15250 H 1697.45 -3.48738 -1.97946 0
M  V30 15251 H 1694.04 -4.22034 -0.747323 0
M  V30 15252 H 1698.23 -4.96188 -0.105504 0
M  V30 15253 H 1693.48 -6.06418 0.778882 0
M  V30 15254 H 1697.66 -6.81855 1.41587 0
M  V30 15255 H 1695.28 -7.3699 1.86412 0
M  V30 15256 N 1696.86 0.307236 -1.54576 0
M  V30 15257 C 1698.08 1.06668 -1.77867 0
M  V30 15258 C 1698.51 1.80375 -0.533536 0
M  V30 15259 O 1697.87 1.73812 0.515663 0
M  V30 15260 C 1697.91 2.02777 -2.98184 0
M  V30 15261 O 1697.02 3.10969 -2.70872 0
M  V30 15262 H 1696.36 0.306741 -0.588902 0
M  V30 15263 H 1698.89 0.346557 -2.01644 0
M  V30 15264 H 1698.9 2.45355 -3.25983 0
M  V30 15265 H 1697.57 1.48534 -3.88472 0
M  V30 15266 H 1696.15 2.7295 -2.54072 0
M  V30 15267 N 1698.34 1.46926 0.570122 0
M  V30 15268 C 1699.3 1.58009 1.6603 0
M  V30 15269 C 1700.3 0.456188 1.54193 0
M  V30 15270 O 1701.49 0.720879 1.58584 0
M  V30 15271 C 1698.62 1.51235 3.05517 0
M  V30 15272 H 1699.81 2.55178 1.57558 0
M  V30 15273 H 1697.37 1.34924 0.788998 0
M  V30 15274 H 1698.1 0.553929 3.19534 0
M  V30 15275 H 1697.89 2.3279 3.15518 0
M  V30 15276 H 1699.38 1.62101 3.84854 0
M  V30 15277 N 1699.82 -0.815801 1.34842 0
M  V30 15278 C 1700.75 -1.93493 1.22854 0
M  V30 15279 C 1701.76 -1.6207 0.15395 0
M  V30 15280 O 1702.95 -1.73811 0.406428 0
M  V30 15281 C 1700.05 -3.27622 0.867006 0
M  V30 15282 C 1699.22 -3.87017 2.03806 0
M  V30 15283 C 1698.28 -4.99536 1.65378 0
M  V30 15284 O 1697.31 -5.17453 2.37131 0
M  V30 15285 N 1698.51 -5.77674 0.572056 0
M  V30 15286 H 1701.27 -2.04307 2.19269 0
M  V30 15287 H 1698.84 -0.992752 1.27891 0
M  V30 15288 H 1700.83 -4.00353 0.59159 0
M  V30 15289 H 1699.4 -3.12599 -0.00717215 0
M  V30 15290 H 1698.62 -3.06592 2.4778 0
M  V30 15291 H 1699.91 -4.23431 2.82106 0
M  V30 15292 H 1699.3 -5.65695 -0.0242931 0
M  V30 15293 H 1697.86 -6.50825 0.356394 0
M  V30 15294 N 1701.29 -1.18689 -1.03686 0
M  V30 15295 C 1702.52 -1.01024 -1.81132 0
M  V30 15296 C 1702.94 0.436584 -1.82963 0
M  V30 15297 O 1702.3 1.31343 -1.24975 0
M  V30 15298 C 1702.35 -1.5742 -3.24424 0
M  V30 15299 O 1701.45 -0.79813 -4.04603 0
M  V30 15300 H 1700.79 -0.357623 -0.559465 0
M  V30 15301 H 1703.32 -1.57532 -1.30556 0
M  V30 15302 H 1703.33 -1.60295 -3.75193 0
M  V30 15303 H 1702.01 -2.6273 -3.22406 0
M  V30 15304 H 1700.59 -0.842 -3.6327 0
M  V30 15305 N 1702.77 1.22662 -0.989529 0
M  V30 15306 C 1704.02 1.90944 -0.662187 0
M  V30 15307 C 1704.34 1.77477 0.807899 0
M  V30 15308 O 1703.61 1.15985 1.57874 0
M  V30 15309 H 1702.19 0.706738 -0.241932 0
M  V30 15310 H 1704.85 1.49091 -1.25531 0
M  V30 15311 H 1703.95 2.98177 -0.921777 0
M  V30 15312 N 1704.25 0.762308 1.37937 0
M  V30 15313 C 1705.21 0.148588 2.28718 0
M  V30 15314 C 1706.21 -0.638198 1.47593 0
M  V30 15315 O 1707.4 -0.463178 1.67929 0
M  V30 15316 C 1704.53 -0.797492 3.31441 0
M  V30 15317 H 1705.73 0.94872 2.84498 0
M  V30 15318 H 1703.28 0.529888 1.47044 0
M  V30 15319 H 1704.02 -1.62298 2.80767 0
M  V30 15320 H 1703.8 -0.23561 3.91391 0
M  V30 15321 H 1705.29 -1.22262 3.99302 0
M  V30 15322 N 1705.73 -1.49049 0.51208 0
M  V30 15323 C 1706.98 -2.0208 -0.0284326 0
M  V30 15324 C 1707.3 -1.39303 -1.36454 0
M  V30 15325 O 1706.57 -0.552155 -1.87958 0
M  V30 15326 H 1705.15 -0.746878 -0.0134968 0
M  V30 15327 H 1707.81 -1.82954 0.671842 0
M  V30 15328 H 1706.9 -3.11739 -0.149966 0
M  V30 15329 N 1707.21 -0.246397 -1.55662 0
M  V30 15330 C 1708.45 0.379047 -1.99226 0
M  V30 15331 C 1708.78 1.57627 -1.13434 0
M  V30 15332 O 1708.06 1.93493 -0.197627 0
M  V30 15333 C 1708.34 0.789403 -3.51341 0
M  V30 15334 C 1708.2 -0.413176 -4.47898 0
M  V30 15335 C 1709.51 1.63656 -4.0854 0
M  V30 15336 H 1706.63 0.136302 -0.724286 0
M  V30 15337 H 1709.28 -0.347607 -1.86793 0
M  V30 15338 H 1707.43 1.40854 -3.62067 0
M  V30 15339 H 1709.1 -1.0516 -4.49154 0
M  V30 15340 H 1707.34 -1.05636 -4.20741 0
M  V30 15341 H 1708.01 -0.0827267 -5.51938 0
M  V30 15342 H 1710.49 1.11393 -4.00912 0
M  V30 15343 H 1709.36 1.89254 -5.15242 0
M  V30 15344 H 1709.62 2.60823 -3.56965 0
M  V30 15345 N 1708.68 1.57577 0.026722 0
M  V30 15346 C 1710.09 1.77689 0.573022 0
M  V30 15347 C 1710.45 0.877771 1.7547 0
M  V30 15348 O 1709.57 0.0732156 2.16276 0
M  V30 15349 C 1710.17 3.22239 1.0463 0
M  V30 15350 C 1708.72 3.4354 1.5381 0
M  V30 15351 C 1707.87 2.73163 0.47722 0
M  V30 15352 H 1710.82 1.57441 -0.199502 0
M  V30 15353 H 1710.84 3.28882 1.91355 0
M  V30 15354 H 1710.36 3.87654 0.186047 0
M  V30 15355 H 1708.46 2.83304 2.42012 0
M  V30 15356 H 1708.57 4.52158 1.58398 0
M  V30 15357 H 1706.93 2.37004 0.932793 0
M  V30 15358 H 1707.72 3.41261 -0.373605 0
M  V30 15359 N 1710.16 -0.299034 1.54737 0
M  V30 15360 C 1711.41 -1.03195 1.73767 0
M  V30 15361 C 1711.73 -1.87731 0.527445 0
M  V30 15362 O 1711 -1.90465 -0.458242 0
M  V30 15363 H 1709.58 -0.383996 0.640747 0
M  V30 15364 H 1712.24 -0.329544 1.92094 0
M  V30 15365 H 1711.34 -1.68393 2.62774 0
M  V30 15366 N 1711.64 -1.47227 -0.562322 0
M  V30 15367 C 1712.89 -1.54801 -1.31941 0
M  V30 15368 C 1713.24 -0.205385 -1.91301 0
M  V30 15369 O 1712.53 0.788343 -1.7463 0
M  V30 15370 C 1712.73 -2.59832 -2.45402 0
M  V30 15371 C 1712.56 -4.04176 -1.97159 0
M  V30 15372 C 1711.33 -4.71679 -1.81236 0
M  V30 15373 C 1713.52 -4.91353 -1.51909 0
M  V30 15374 N 1711.51 -6.00561 -1.27279 0
M  V30 15375 C 1712.88 -6.10221 -1.09683 0
M  V30 15376 C 1714.93 -4.77837 -1.39914 0
M  V30 15377 C 1713.64 -7.17065 -0.566536 0
M  V30 15378 C 1715.66 -5.84773 -0.882863 0
M  V30 15379 C 1715.02 -7.02827 -0.470497 0
M  V30 15380 H 1711.12 -0.621189 -0.475024 0
M  V30 15381 H 1713.71 -1.83951 -0.637987 0
M  V30 15382 H 1711.88 -2.32559 -3.1108 0
M  V30 15383 H 1713.61 -2.5728 -3.12393 0
M  V30 15384 H 1710.36 -4.27508 -2.03798 0
M  V30 15385 H 1710.79 -6.6921 -1.02404 0
M  V30 15386 H 1715.43 -3.86938 -1.70408 0
M  V30 15387 H 1713.15 -8.07716 -0.249209 0
M  V30 15388 H 1716.73 -5.76361 -0.793674 0
M  V30 15389 H 1715.61 -7.84162 -0.0771934 0
M  V30 15390 N 1713.12 0.808639 -1.35273 0
M  V30 15391 C 1714.37 1.56253 -1.28177 0
M  V30 15392 C 1714.69 1.94466 0.144151 0
M  V30 15393 O 1713.96 1.63433 1.08011 0
M  V30 15394 H 1712.54 0.579431 -0.471454 0
M  V30 15395 H 1715.2 0.964675 -1.69352 0
M  V30 15396 H 1714.29 2.47888 -1.89625 0
M  V30 15397 N 1714.6 1.19237 1.03055 0
M  V30 15398 C 1715.85 0.988287 1.75829 0
M  V30 15399 C 1716.16 -0.481903 1.89571 0
M  V30 15400 O 1717.36 -0.804762 2.59299 0
M  V30 15401 C 1715.82 1.71934 3.16175 0
M  V30 15402 C 1715.43 3.22952 3.10493 0
M  V30 15403 C 1717.17 1.59844 3.93256 0
M  V30 15404 C 1715.08 3.88654 4.4576 0
M  V30 15405 H 1714.01 0.366153 0.659127 0
M  V30 15406 H 1716.66 1.42716 1.15345 0
M  V30 15407 H 1715.04 1.20828 3.77116 0
M  V30 15408 H 1716.22 3.81163 2.58943 0
M  V30 15409 H 1714.53 3.35298 2.46909 0
M  V30 15410 H 1717.13 2.06283 4.93307 0
M  V30 15411 H 1717.47 0.552317 4.1262 0
M  V30 15412 H 1718 2.08286 3.38913 0
M  V30 15413 H 1714.74 4.93357 4.31601 0
M  V30 15414 H 1714.26 3.35231 4.97373 0
M  V30 15415 H 1715.94 3.92104 5.14649 0
M  V30 15416 N 1716.07 -1.22136 0.99602 0
M  V30 15417 C 1717.04 -2.22404 0.553986 0
M  V30 15418 C 1718.04 -1.56607 -0.364832 0
M  V30 15419 O 1719.23 -1.73497 -0.156358 0
M  V30 15420 C 1716.36 -3.40349 -0.193794 0
M  V30 15421 H 1717.55 -2.63026 1.44075 0
M  V30 15422 H 1715.11 -1.35241 0.78356 0
M  V30 15423 H 1715.84 -3.05204 -1.0964 0
M  V30 15424 H 1715.63 -3.89321 0.465972 0
M  V30 15425 H 1717.12 -4.14702 -0.491121 0
M  V30 15426 N 1717.55 -0.769612 -1.37531 0
M  V30 15427 C 1718.48 -0.168389 -2.32892 0
M  V30 15428 C 1719.46 0.685549 -1.55673 0
M  V30 15429 O 1720.65 0.62345 -1.8392 0
M  V30 15430 C 1717.78 0.713183 -3.39898 0
M  V30 15431 C 1716.73 -0.0392808 -4.27982 0
M  V30 15432 C 1716.06 0.961596 -5.25982 0
M  V30 15433 C 1717.36 -1.21704 -5.07923 0
M  V30 15434 H 1719.05 -0.965022 -2.83421 0
M  V30 15435 H 1716.6 -0.465502 -1.36268 0
M  V30 15436 H 1718.55 1.14358 -4.05586 0
M  V30 15437 H 1717.28 1.54231 -2.87889 0
M  V30 15438 H 1715.93 -0.450429 -3.63822 0
M  V30 15439 H 1715.58 1.78522 -4.70254 0
M  V30 15440 H 1715.28 0.462679 -5.85776 0
M  V30 15441 H 1716.81 1.39097 -5.94545 0
M  V30 15442 H 1718.22 -0.863405 -5.66761 0
M  V30 15443 H 1716.62 -1.6479 -5.77031 0
M  V30 15444 H 1717.69 -2.02219 -4.40722 0
M  V30 15445 N 1719.03 1.48775 -0.519977 0
M  V30 15446 C 1719.96 2.32292 0.237213 0
M  V30 15447 C 1720.94 1.4146 0.944625 0
M  V30 15448 O 1722.13 1.70355 0.932349 0
M  V30 15449 C 1719.26 3.22426 1.29068 0
M  V30 15450 C 1718.21 4.22204 0.702011 0
M  V30 15451 C 1717.54 5.01403 1.85739 0
M  V30 15452 C 1718.84 5.21321 -0.319626 0
M  V30 15453 H 1720.53 2.95846 -0.459949 0
M  V30 15454 H 1718.08 1.42268 -0.222641 0
M  V30 15455 H 1720.03 3.79674 1.82826 0
M  V30 15456 H 1718.75 2.56853 2.01728 0
M  V30 15457 H 1717.41 3.66128 0.186027 0
M  V30 15458 H 1717.06 4.32262 2.57214 0
M  V30 15459 H 1716.76 5.68929 1.46949 0
M  V30 15460 H 1718.28 5.615 2.39895 0
M  V30 15461 H 1719.7 5.73151 0.130505 0
M  V30 15462 H 1718.1 5.96843 -0.624377 0
M  V30 15463 H 1719.17 4.69069 -1.22893 0
M  V30 15464 N 1720.51 0.254649 1.55529 0
M  V30 15465 C 1721.75 -0.368477 1.99424 0
M  V30 15466 C 1722.09 -1.57023 1.14269 0
M  V30 15467 O 1721.36 -1.93386 0.207886 0
M  V30 15468 C 1721.65 -0.77076 3.51755 0
M  V30 15469 C 1721.5 0.436923 4.47673 0
M  V30 15470 C 1722.82 -1.61487 4.09402 0
M  V30 15471 H 1719.94 -0.132459 0.724999 0
M  V30 15472 H 1722.58 0.357508 1.86606 0
M  V30 15473 H 1720.73 -1.38932 3.62809 0
M  V30 15474 H 1722.4 1.07541 4.4859 0
M  V30 15475 H 1720.64 1.07866 4.20175 0
M  V30 15476 H 1721.31 0.111996 5.51886 0
M  V30 15477 H 1723.79 -1.09265 4.01498 0
M  V30 15478 H 1722.67 -1.86519 5.16238 0
M  V30 15479 H 1722.93 -2.58926 3.58343 0
M  V30 15480 N 1721.99 -1.57589 -0.0183649 0
M  V30 15481 C 1722.92 -2.1029 -1.01492 0
M  V30 15482 C 1723.9 -1.00782 -1.37029 0
M  V30 15483 O 1725.08 -1.28365 -1.45726 0
M  V30 15484 C 1722.21 -2.59111 -2.31255 0
M  V30 15485 C 1721.17 -3.72979 -2.0993 0
M  V30 15486 C 1720.49 -4.08046 -3.45547 0
M  V30 15487 C 1721.79 -5.00988 -1.47677 0
M  V30 15488 H 1723.49 -2.93804 -0.57618 0
M  V30 15489 H 1721.03 -1.41336 -0.275708 0
M  V30 15490 H 1722.99 -2.94602 -3.0131 0
M  V30 15491 H 1721.71 -1.72694 -2.77208 0
M  V30 15492 H 1720.37 -3.37853 -1.42306 0
M  V30 15493 H 1720.02 -3.1868 -3.89169 0
M  V30 15494 H 1719.72 -4.8475 -3.32101 0
M  V30 15495 H 1721.24 -4.46081 -4.16947 0
M  V30 15496 H 1722.65 -5.34368 -2.07663 0
M  V30 15497 H 1721.05 -5.82375 -1.44774 0
M  V30 15498 H 1722.12 -4.82865 -0.443804 0
M  V30 15499 N 1723.46 0.290824 -1.54893 0
M  V30 15500 C 1724.71 1.02627 -1.74916 0
M  V30 15501 C 1725.04 1.86572 -0.538921 0
M  V30 15502 O 1724.32 1.88888 0.463844 0
M  V30 15503 C 1724.6 1.92376 -3.04407 0
M  V30 15504 C 1724.45 1.11542 -4.3575 0
M  V30 15505 C 1725.77 2.91383 -3.29824 0
M  V30 15506 H 1722.89 0.371685 -0.636411 0
M  V30 15507 H 1725.53 0.300072 -1.87615 0
M  V30 15508 H 1723.68 2.54295 -2.93711 0
M  V30 15509 H 1725.36 0.518312 -4.58379 0
M  V30 15510 H 1723.6 0.418386 -4.31778 0
M  V30 15511 H 1724.27 1.77616 -5.22644 0
M  V30 15512 H 1726.75 2.39595 -3.40196 0
M  V30 15513 H 1725.62 3.51338 -4.21726 0
M  V30 15514 H 1725.88 3.65579 -2.48606 0
M  V30 15515 N 1724.94 1.47523 0.554506 0
M  V30 15516 C 1726.18 1.55867 1.32231 0
M  V30 15517 C 1726.55 0.216987 1.9077 0
M  V30 15518 O 1727.75 0.175283 2.68228 0
M  V30 15519 C 1726.02 2.64761 2.40076 0
M  V30 15520 S 1727.58 2.92706 3.26908 0
M  V30 15521 H 1724.4 0.550369 0.450128 0
M  V30 15522 H 1727 1.84917 0.634504 0
M  V30 15523 H 1725.7 3.60838 1.95509 0
M  V30 15524 H 1725.23 2.37534 3.13594 0
M  V30 15525 H 1727.25 2.30127 4.39609 0
M  V30 15526 N 1726.42 -0.801453 1.357 0
M  V30 15527 C 1727.67 -1.5611 1.29451 0
M  V30 15528 C 1728 -1.93768 -0.129412 0
M  V30 15529 O 1727.27 -1.6176 -1.08 0
M  V30 15530 C 1727.56 -2.84628 2.20588 0
M  V30 15531 C 1727.41 -2.53413 3.71621 0
M  V30 15532 C 1728.73 -3.86369 2.10729 0
M  V30 15533 H 1725.85 -0.56638 0.471575 0
M  V30 15534 H 1728.49 -0.921701 1.66147 0
M  V30 15535 H 1726.64 -3.39192 1.89424 0
M  V30 15536 H 1728.31 -2.04993 4.1325 0
M  V30 15537 H 1726.56 -1.86531 3.91649 0
M  V30 15538 H 1727.23 -3.45152 4.30783 0
M  V30 15539 H 1729.7 -3.41219 2.38136 0
M  V30 15540 H 1728.58 -4.74062 2.76688 0
M  V30 15541 H 1728.84 -4.28431 1.09083 0
M  V30 15542 N 1727.9 -1.19782 -1.02421 0
M  V30 15543 C 1728.83 -0.963553 -2.12692 0
M  V30 15544 C 1729.81 0.104769 -1.69777 0
M  V30 15545 O 1730.99 -0.0512017 -1.94132 0
M  V30 15546 C 1728.12 -0.506525 -3.43586 0
M  V30 15547 C 1727.08 -1.51722 -4.00206 0
M  V30 15548 C 1726.4 -0.917097 -5.26776 0
M  V30 15549 C 1727.7 -2.89879 -4.34474 0
M  V30 15550 H 1729.4 -1.88579 -2.32547 0
M  V30 15551 H 1726.94 -0.908111 -1.11756 0
M  V30 15552 H 1728.9 -0.329907 -4.20107 0
M  V30 15553 H 1727.62 0.451322 -3.23467 0
M  V30 15554 H 1726.28 -1.68106 -3.25785 0
M  V30 15555 H 1725.93 0.0484457 -5.02977 0
M  V30 15556 H 1725.63 -1.59204 -5.65622 0
M  V30 15557 H 1727.15 -0.751379 -6.05959 0
M  V30 15558 H 1728.57 -2.7705 -5.01913 0
M  V30 15559 H 1726.96 -3.54209 -4.84413 0
M  V30 15560 H 1728.03 -3.42179 -3.43571 0
M  V30 15561 N 1729.38 1.21606 -1.00248 0
M  V30 15562 C 1730.62 1.9089 -0.684765 0
M  V30 15563 C 1730.96 1.77749 0.78224 0
M  V30 15564 O 1730.23 1.15251 1.56676 0
M  V30 15565 C 1730.51 3.42778 -1.1034 0
M  V30 15566 C 1730.37 3.64923 -2.62967 0
M  V30 15567 C 1731.69 4.35064 -0.663877 0
M  V30 15568 H 1728.81 0.693217 -0.250239 0
M  V30 15569 H 1731.45 1.4329 -1.24772 0
M  V30 15570 H 1729.6 3.83449 -0.624415 0
M  V30 15571 H 1731.27 3.33595 -3.18609 0
M  V30 15572 H 1729.51 3.08874 -3.04596 0
M  V30 15573 H 1730.18 4.71335 -2.87311 0
M  V30 15574 H 1732.66 4.01962 -1.07544 0
M  V30 15575 H 1731.54 5.3999 -0.984987 0
M  V30 15576 H 1731.8 4.39954 0.435095 0
M  V30 15577 N 1730.86 0.776895 1.37121 0
M  V30 15578 C 1731.82 0.172839 2.28547 0
M  V30 15579 C 1732.82 -0.622508 1.48262 0
M  V30 15580 O 1734.01 -0.44534 1.68411 0
M  V30 15581 C 1731.14 -0.762294 3.32268 0
M  V30 15582 H 1732.33 0.978842 2.83476 0
M  V30 15583 H 1729.89 0.545454 1.46474 0
M  V30 15584 H 1730.62 -1.59311 2.82472 0
M  V30 15585 H 1730.41 -0.194084 3.91619 0
M  V30 15586 H 1731.9 -1.1802 4.00576 0
M  V30 15587 N 1732.33 -1.48497 0.527859 0
M  V30 15588 C 1733.26 -2.32414 -0.224891 0
M  V30 15589 C 1734.24 -1.41959 -0.93711 0
M  V30 15590 O 1735.43 -1.70847 -0.923302 0
M  V30 15591 C 1732.56 -3.23106 -1.27356 0
M  V30 15592 C 1731.51 -4.2257 -0.679611 0
M  V30 15593 C 1730.84 -5.02381 -1.83077 0
M  V30 15594 C 1732.14 -5.21144 0.347269 0
M  V30 15595 H 1733.83 -2.95598 0.475632 0
M  V30 15596 H 1731.38 -1.42148 0.230182 0
M  V30 15597 H 1733.33 -3.80639 -1.8081 0
M  V30 15598 H 1732.06 -2.57919 -2.00363 0
M  V30 15599 H 1730.72 -3.66221 -0.166608 0
M  V30 15600 H 1730.36 -4.3362 -2.54918 0
M  V30 15601 H 1730.06 -5.697 -1.43929 0
M  V30 15602 H 1731.59 -5.62765 -2.36914 0
M  V30 15603 H 1733 -5.73213 -0.100107 0
M  V30 15604 H 1731.4 -5.96503 0.656021 0
M  V30 15605 H 1732.47 -4.6841 1.25379 0
M  V30 15606 N 1733.81 -0.262893 -1.55392 0
M  V30 15607 C 1734.77 0.616662 -2.20749 0
M  V30 15608 C 1735.77 1.09066 -1.18158 0
M  V30 15609 O 1736.96 0.992797 -1.4314 0
M  V30 15610 C 1734.1 1.84937 -2.86376 0
M  V30 15611 H 1735.29 0.0462013 -2.99864 0
M  V30 15612 H 1732.84 -0.013432 -1.56294 0
M  V30 15613 H 1733.58 2.46066 -2.1124 0
M  V30 15614 H 1733.36 1.51754 -3.61543 0
M  V30 15615 H 1734.85 2.47511 -3.36345 0
M  V30 15616 N 1735.29 1.57597 0.0100073 0
M  V30 15617 C 1736.54 1.89308 0.696075 0
M  V30 15618 C 1736.85 0.863884 1.75489 0
M  V30 15619 O 1738.06 1.07087 2.49489 0
M  V30 15620 C 1736.51 3.36017 1.2892 0
M  V30 15621 C 1736.12 4.47211 0.265731 0
M  V30 15622 C 1737.87 3.76852 1.95404 0
M  V30 15623 C 1735.77 5.84991 0.868277 0
M  V30 15624 H 1734.7 0.706368 0.263744 0
M  V30 15625 H 1737.35 1.83435 -0.0488972 0
M  V30 15626 H 1735.74 3.36696 2.08451 0
M  V30 15627 H 1736.91 4.58033 -0.504256 0
M  V30 15628 H 1735.22 4.15332 -0.298096 0
M  V30 15629 H 1737.82 4.77121 2.41371 0
M  V30 15630 H 1738.16 3.09841 2.78036 0
M  V30 15631 H 1738.7 3.7843 1.22621 0
M  V30 15632 H 1735.44 6.5545 0.0809513 0
M  V30 15633 H 1734.96 5.77853 1.60766 0
M  V30 15634 H 1736.64 6.32331 1.36993 0
M  V30 15635 N 1736.77 -0.282606 1.55045 0
M  V30 15636 C 1738.01 -1.01698 1.75458 0
M  V30 15637 C 1738.35 -1.86284 0.548808 0
M  V30 15638 O 1737.62 -1.89131 -0.45382 0
M  V30 15639 C 1737.9 -1.90759 3.05423 0
M  V30 15640 C 1737.76 -1.0923 4.36336 0
M  V30 15641 C 1739.08 -2.8963 3.31364 0
M  V30 15642 H 1736.2 -0.368305 0.638373 0
M  V30 15643 H 1738.84 -0.290118 1.87772 0
M  V30 15644 H 1736.99 -2.52734 2.95055 0
M  V30 15645 H 1738.66 -0.493996 4.58647 0
M  V30 15646 H 1736.9 -0.395481 4.31994 0
M  V30 15647 H 1737.57 -1.74842 5.23578 0
M  V30 15648 H 1740.05 -2.37788 3.41462 0
M  V30 15649 H 1738.93 -3.49096 4.23584 0
M  V30 15650 H 1739.19 -3.64255 2.50541 0
M  V30 15651 N 1738.25 -1.47815 -0.546675 0
M  V30 15652 C 1739.48 -1.58384 -1.32658 0
M  V30 15653 C 1739.88 -0.236934 -1.87711 0
M  V30 15654 O 1739.23 0.781521 -1.66247 0
M  V30 15655 C 1739.29 -2.55766 -2.52634 0
M  V30 15656 C 1738.95 -4.01222 -2.18791 0
M  V30 15657 C 1739.95 -4.89399 -1.75455 0
M  V30 15658 C 1737.63 -4.46637 -2.29827 0
M  V30 15659 C 1739.63 -6.21014 -1.43598 0
M  V30 15660 C 1737.32 -5.78277 -1.97582 0
M  V30 15661 C 1738.31 -6.65288 -1.54536 0
M  V30 15662 O 1738 -7.9448 -1.22706 0
M  V30 15663 H 1737.73 -0.537236 -0.410309 0
M  V30 15664 H 1740.29 -1.94235 -0.667988 0
M  V30 15665 H 1738.52 -2.15003 -3.2142 0
M  V30 15666 H 1740.21 -2.56349 -3.14706 0
M  V30 15667 H 1740.97 -4.55556 -1.66414 0
M  V30 15668 H 1736.85 -3.79111 -2.62289 0
M  V30 15669 H 1740.4 -6.88885 -1.09926 0
M  V30 15670 H 1736.29 -6.1166 -2.06259 0
M  V30 15671 H 1737.06 -8.07081 -1.36246 0
M  V30 15672 N 1739.72 0.794246 -1.36123 0
M  V30 15673 C 1740.65 1.92105 -1.32732 0
M  V30 15674 C 1741.63 1.68925 -0.199603 0
M  V30 15675 O 1742.82 1.90109 -0.396498 0
M  V30 15676 C 1739.95 3.29051 -1.11098 0
M  V30 15677 C 1738.9 3.66743 -2.20643 0
M  V30 15678 C 1738.23 5.01986 -1.84159 0
M  V30 15679 C 1739.53 3.75831 -3.62696 0
M  V30 15680 H 1741.22 1.952 -2.27018 0
M  V30 15681 H 1738.77 0.937746 -1.09281 0
M  V30 15682 H 1740.72 4.07494 -1.07362 0
M  V30 15683 H 1739.45 3.26331 -0.132614 0
M  V30 15684 H 1738.11 2.90594 -2.23497 0
M  V30 15685 H 1737.75 4.95782 -0.849081 0
M  V30 15686 H 1737.45 5.28175 -2.57497 0
M  V30 15687 H 1738.98 5.82855 -1.8197 0
M  V30 15688 H 1740.39 4.44476 -3.62096 0
M  V30 15689 H 1738.79 4.135 -4.34899 0
M  V30 15690 H 1739.86 2.7706 -3.97952 0
M  V30 15691 N 1741.2 1.20323 1.01785 0
M  V30 15692 C 1742.45 1.00688 1.74771 0
M  V30 15693 C 1742.76 -0.461769 1.90071 0
M  V30 15694 O 1743.97 -0.777214 2.60138 0
M  V30 15695 C 1742.43 1.75278 3.14334 0
M  V30 15696 C 1742.03 3.26227 3.0705 0
M  V30 15697 C 1743.78 1.64006 3.91538 0
M  V30 15698 C 1741.68 3.9336 4.41613 0
M  V30 15699 H 1740.61 0.373123 0.655206 0
M  V30 15700 H 1743.27 1.43931 1.13825 0
M  V30 15701 H 1741.65 1.24821 3.75813 0
M  V30 15702 H 1742.82 3.83888 2.54885 0
M  V30 15703 H 1741.14 3.37898 2.43339 0
M  V30 15704 H 1743.73 2.11503 4.91091 0
M  V30 15705 H 1744.08 0.59605 4.12011 0
M  V30 15706 H 1744.61 2.11869 3.36684 0
M  V30 15707 H 1741.35 4.97907 4.26344 0
M  V30 15708 H 1740.87 3.40488 4.93789 0
M  V30 15709 H 1742.55 3.97541 5.10461 0
M  V30 15710 N 1742.68 -1.21073 1.00892 0
M  V30 15711 C 1743.64 -2.21804 0.577543 0
M  V30 15712 C 1744.64 -1.56985 -0.348201 0
M  V30 15713 O 1745.83 -1.73653 -0.137947 0
M  V30 15714 C 1742.96 -3.40535 -0.157685 0
M  V30 15715 H 1744.16 -2.61483 1.46856 0
M  V30 15716 H 1741.71 -1.34402 0.79786 0
M  V30 15717 H 1742.45 -3.0635 -1.06397 0
M  V30 15718 H 1742.23 -3.88805 0.507238 0
M  V30 15719 H 1743.72 -4.152 -0.447109 0
M  V30 15720 N 1744.16 -0.784156 -1.36707 0
M  V30 15721 C 1745.09 -0.193081 -2.327 0
M  V30 15722 C 1746.07 0.668999 -1.56392 0
M  V30 15723 O 1747.25 0.603908 -1.84571 0
M  V30 15724 C 1744.38 0.677092 -3.40636 0
M  V30 15725 C 1743.34 -0.0846718 -4.27916 0
M  V30 15726 C 1742.66 0.905754 -5.26973 0
M  V30 15727 C 1743.96 -1.27085 -5.06603 0
M  V30 15728 H 1745.66 -0.995029 -2.82382 0
M  V30 15729 H 1743.2 -0.479929 -1.35767 0
M  V30 15730 H 1745.16 1.1005 -4.06776 0
M  V30 15731 H 1743.88 1.51169 -2.89509 0
M  V30 15732 H 1742.54 -0.488992 -3.63324 0
M  V30 15733 H 1742.19 1.73524 -4.72121 0
M  V30 15734 H 1741.89 0.400524 -5.86233 0
M  V30 15735 H 1743.41 1.32784 -5.95987 0
M  V30 15736 H 1744.83 -0.923469 -5.65814 0
M  V30 15737 H 1743.22 -1.70901 -5.7525 0
M  V30 15738 H 1744.29 -2.06882 -4.38552 0
M  V30 15739 N 1745.64 1.48215 -0.535727 0
M  V30 15740 C 1746.6 2.28206 0.213212 0
M  V30 15741 C 1747.6 1.3571 0.862522 0
M  V30 15742 O 1748.79 1.58547 0.721688 0
M  V30 15743 C 1745.92 3.1476 1.30917 0
M  V30 15744 H 1747.11 2.95884 -0.489163 0
M  V30 15745 H 1744.67 1.53551 -0.291872 0
M  V30 15746 H 1745.4 2.51726 2.04462 0
M  V30 15747 H 1745.19 3.82806 0.848633 0
M  V30 15748 H 1746.68 3.75085 1.83579 0
M  V30 15749 N 1747.11 0.27113 1.5525 0
M  V30 15750 C 1748.36 -0.347304 1.99804 0
M  V30 15751 C 1748.69 -1.55803 1.15928 0
M  V30 15752 O 1747.97 -1.93154 0.228386 0
M  V30 15753 C 1748.25 -0.733408 3.52552 0
M  V30 15754 C 1748.1 0.48438 4.47184 0
M  V30 15755 C 1749.42 -1.57136 4.11092 0
M  V30 15756 H 1746.54 -0.124762 0.726363 0
M  V30 15757 H 1749.18 0.37728 1.86217 0
M  V30 15758 H 1747.33 -1.35076 3.64262 0
M  V30 15759 H 1749.01 1.12293 4.47424 0
M  V30 15760 H 1747.25 1.12317 4.19008 0
M  V30 15761 H 1747.92 0.170525 5.51737 0
M  V30 15762 H 1750.4 -1.05001 4.02634 0
M  V30 15763 H 1749.27 -1.81033 5.18187 0
M  V30 15764 H 1749.53 -2.55111 3.61069 0
M  V30 15765 N 1748.59 -1.576 -0.00164943 0
M  V30 15766 C 1749.83 -1.92353 -0.691364 0
M  V30 15767 C 1750.2 -0.872536 -1.71029 0
M  V30 15768 O 1751.4 -1.10526 -2.45026 0
M  V30 15769 C 1749.67 -3.32163 -1.31918 0
M  V30 15770 S 1751.23 -3.88798 -2.03425 0
M  V30 15771 H 1748.05 -0.673314 -0.228407 0
M  V30 15772 H 1750.65 -1.95424 0.0546418 0
M  V30 15773 H 1749.35 -4.06496 -0.564746 0
M  V30 15774 H 1748.88 -3.32462 -2.10316 0
M  V30 15775 H 1750.9 -3.6974 -3.30918 0
M  V30 15776 N 1750.07 0.274379 -1.55193 0
M  V30 15777 C 1751 1.36139 -1.84388 0
M  V30 15778 C 1752.02 1.45601 -0.728294 0
M  V30 15779 O 1753.2 1.47443 -1.00613 0
M  V30 15780 C 1750.3 2.74278 -1.9906 0
M  V30 15781 C 1749.48 2.87424 -3.29706 0
M  V30 15782 C 1748.54 4.06229 -3.34461 0
M  V30 15783 O 1747.56 3.97053 -4.07845 0
M  V30 15784 N 1748.76 5.18131 -2.61764 0
M  V30 15785 H 1751.53 1.1144 -2.78211 0
M  V30 15786 H 1749.09 0.464493 -1.55094 0
M  V30 15787 H 1751.08 3.52047 -1.99613 0
M  V30 15788 H 1749.65 2.91805 -1.1211 0
M  V30 15789 H 1748.87 1.96551 -3.41704 0
M  V30 15790 H 1750.16 2.93137 -4.15871 0
M  V30 15791 H 1749.56 5.28473 -2.01824 0
M  V30 15792 H 1748.12 5.94135 -2.68042 0
M  V30 15793 N 1751.55 1.48103 0.538828 0
M  V30 15794 C 1752.79 1.5726 1.3057 0
M  V30 15795 C 1753.15 0.237208 1.90529 0
M  V30 15796 O 1754.35 0.203723 2.68027 0
M  V30 15797 C 1752.62 2.67292 2.37254 0
M  V30 15798 S 1754.18 2.96157 3.23785 0
M  V30 15799 H 1751 0.555112 0.444265 0
M  V30 15800 H 1753.6 1.8558 0.614855 0
M  V30 15801 H 1752.31 3.62892 1.91671 0
M  V30 15802 H 1751.84 2.40846 3.11057 0
M  V30 15803 H 1753.85 2.34777 4.37143 0
M  V30 15804 N 1753.03 -0.787016 1.36542 0
M  V30 15805 C 1754.44 -1.08541 1.17008 0
M  V30 15806 C 1754.64 -2.015 -0.00419378 0
M  V30 15807 O 1753.7 -2.43481 -0.668826 0
M  V30 15808 C 1755.01 -1.69758 2.48199 0
M  V30 15809 C 1756.56 -1.82088 2.54584 0
M  V30 15810 C 1757.03 -2.46719 3.85868 0
M  V30 15811 N 1758.53 -2.54185 3.87227 0
M  V30 15812 C 1759.26 -3.05008 4.85549 0
M  V30 15813 N 1758.76 -3.56121 5.94264 0
M  V30 15814 N 1760.55 -3.03742 4.72966 0
M  V30 15815 H 1752.7 -0.16948 2.11723 0
M  V30 15816 H 1754.96 -0.137802 0.937931 0
M  V30 15817 H 1754.67 -1.08922 3.34408 0
M  V30 15818 H 1754.54 -2.69237 2.6418 0
M  V30 15819 H 1756.93 -2.42061 1.68792 0
M  V30 15820 H 1757.01 -0.814071 2.42501 0
M  V30 15821 H 1756.66 -1.87389 4.72068 0
M  V30 15822 H 1756.59 -3.47975 3.95248 0
M  V30 15823 H 1759.08 -2.17995 3.08685 0
M  V30 15824 H 1759.39 -3.93259 6.65257 0
M  V30 15825 H 1757.73 -3.54266 5.9793 0
M  V30 15826 H 1760.93 -2.63102 3.87163 0
M  V30 15827 H 1761.1 -3.43043 5.49751 0
M  V30 15828 N 1754.5 -1.20861 -1.01145 0
M  V30 15829 C 1755.92 -0.964575 -1.27154 0
M  V30 15830 C 1756.12 0.352861 -1.98386 0
M  V30 15831 O 1755.18 1.08012 -2.28232 0
M  V30 15832 C 1756.49 -2.15074 -2.10151 0
M  V30 15833 C 1758.04 -2.19229 -2.234 0
M  V30 15834 C 1758.51 -3.37346 -3.09777 0
M  V30 15835 N 1760 -3.37392 -3.17365 0
M  V30 15836 C 1760.74 -4.25434 -3.84439 0
M  V30 15837 N 1760.23 -5.23664 -4.53595 0
M  V30 15838 N 1762.03 -4.13261 -3.81014 0
M  V30 15839 H 1754.18 -2.05595 -0.533346 0
M  V30 15840 H 1756.44 -0.899928 -0.298048 0
M  V30 15841 H 1756.15 -3.10511 -1.65153 0
M  V30 15842 H 1756.02 -2.13598 -3.10895 0
M  V30 15843 H 1758.41 -1.24352 -2.6762 0
M  V30 15844 H 1758.49 -2.24752 -1.22148 0
M  V30 15845 H 1758.13 -4.32513 -2.66261 0
M  V30 15846 H 1758.06 -3.29061 -4.11128 0
M  V30 15847 H 1760.55 -2.66299 -2.68129 0
M  V30 15848 H 1760.87 -5.87158 -5.02459 0
M  V30 15849 H 1759.21 -5.27595 -4.52403 0
M  V30 15850 H 1762.4 -3.35786 -3.26137 0
M  V30 15851 H 1762.58 -4.82085 -4.3301 0
M  V30 15852 N 1755.98 1.20536 -1.01532 0
M  V30 15853 C 1756.93 2.23277 -0.584486 0
M  V30 15854 C 1757.9 1.6134 0.394773 0
M  V30 15855 O 1759.08 1.88514 0.294498 0
M  V30 15856 C 1756.22 3.45024 0.0723574 0
M  V30 15857 C 1755.34 4.21395 -0.951314 0
M  V30 15858 C 1754.47 5.30535 -0.265656 0
M  V30 15859 C 1753.51 5.98649 -1.27617 0
M  V30 15860 N 1752.65 6.99381 -0.61727 0
M  V30 15861 H 1757.49 2.59489 -1.46524 0
M  V30 15862 H 1755.03 1.27507 -0.733502 0
M  V30 15863 H 1756.98 4.14541 0.470303 0
M  V30 15864 H 1755.61 3.09508 0.916768 0
M  V30 15865 H 1754.67 3.50957 -1.46743 0
M  V30 15866 H 1755.98 4.68211 -1.71989 0
M  V30 15867 H 1755.13 6.06409 0.187857 0
M  V30 15868 H 1753.87 4.84754 0.535237 0
M  V30 15869 H 1752.88 5.21537 -1.74008 0
M  V30 15870 H 1754.1 6.46516 -2.07832 0
M  V30 15871 H 1752.05 6.55796 0.163777 0
M  V30 15872 H 1751.96 7.44317 -1.32393 0
M  V30 15873 H 1753.23 7.79275 -0.187306 0
M  V30 15874 N 1757.46 0.791395 1.36289 0
M  V30 15875 C 1758.41 0.179128 2.31909 0
M  V30 15876 C 1759.4 -0.662657 1.55901 0
M  V30 15877 O 1760.61 -0.55752 1.71148 0
M  V30 15878 H 1756.98 0.0391522 0.75098 0
M  V30 15879 H 1758.95 1.001 2.8111 0
M  V30 15880 C 1757.7 -0.670016 3.41183 0
M  V30 15881 H 1757.03 -0.0316331 3.99787 0
M  V30 15882 H 1758.47 -1.06506 4.10405 0
M  V30 15883 C 1756.93 -1.8291 2.82923 0
M  V30 15884 O 1757.46 -2.92579 2.75247 0
M  V30 15885 N 1755.66 -1.63584 2.40185 0
M  V30 15886 H 1755.21 -0.743799 2.46628 0
M  V30 15887 H 1755.17 -2.41298 2.01551 0
M  V30 15888 N 1758.94 -1.47929 0.54358 0
M  V30 15889 C 1760.17 -2.06591 0.0188913 0
M  V30 15890 C 1760.58 -1.39864 -1.27415 0
M  V30 15891 O 1759.92 -0.484566 -1.77194 0
M  V30 15892 C 1759.98 -3.58546 -0.261686 0
M  V30 15893 C 1759.65 -4.4723 0.939893 0
M  V30 15894 C 1760.64 -4.86179 1.8419 0
M  V30 15895 C 1758.33 -4.88941 1.15073 0
M  V30 15896 C 1760.32 -5.65622 2.93854 0
M  V30 15897 C 1758.01 -5.68152 2.25048 0
M  V30 15898 C 1759.01 -6.06402 3.1427 0
M  V30 15899 O 1758.7 -6.8402 4.22341 0
M  V30 15900 H 1758.43 -0.675009 0.0365835 0
M  V30 15901 H 1760.98 -1.91115 0.752599 0
M  V30 15902 H 1759.21 -3.72185 -1.04954 0
M  V30 15903 H 1760.9 -3.9928 -0.730099 0
M  V30 15904 H 1761.67 -4.54565 1.69101 0
M  V30 15905 H 1757.55 -4.58644 0.465479 0
M  V30 15906 H 1761.09 -5.95397 3.63522 0
M  V30 15907 H 1756.99 -5.99179 2.40115 0
M  V30 15908 H 1757.75 -7.02395 4.20219 0
M  V30 15909 N 1760.42 -0.27936 -1.55104 0
M  V30 15910 C 1761.67 0.335541 -1.99295 0
M  V30 15911 C 1761.99 1.56059 -1.16921 0
M  V30 15912 O 1761.26 1.9417 -0.259773 0
M  V30 15913 H 1759.84 0.126968 -0.736131 0
M  V30 15914 H 1762.5 -0.385679 -1.91046 0
M  V30 15915 H 1761.59 0.622493 -3.05829 0
M  V30 15916 N 1761.9 1.57599 -0.0067085 0
M  V30 15917 C 1762.83 2.05706 1.01084 0
M  V30 15918 C 1763.84 0.976216 1.30284 0
M  V30 15919 O 1765.03 1.25288 1.27142 0
M  V30 15920 C 1762.13 2.44771 2.34393 0
M  V30 15921 C 1761.3 3.75668 2.24036 0
M  V30 15922 C 1760.36 4.01528 3.4009 0
M  V30 15923 O 1759.39 4.72101 3.17977 0
M  V30 15924 N 1760.59 3.49947 4.6316 0
M  V30 15925 H 1763.35 2.93622 0.600532 0
M  V30 15926 H 1760.92 1.6089 0.180536 0
M  V30 15927 H 1762.91 2.5918 3.10818 0
M  V30 15928 H 1761.48 1.62339 2.67142 0
M  V30 15929 H 1760.7 3.71272 1.3248 0
M  V30 15930 H 1761.99 4.6147 2.14295 0
M  V30 15931 H 1761.38 2.92811 4.84023 0
M  V30 15932 H 1759.94 3.69675 5.36828 0
M  V30 15933 N 1763.37 -0.266145 1.55336 0
M  V30 15934 C 1764.3 -1.33322 1.91697 0
M  V30 15935 C 1765.28 -1.51182 0.77961 0
M  V30 15936 O 1766.47 -1.64112 1.03832 0
M  V30 15937 C 1763.6 -2.69151 2.19488 0
M  V30 15938 C 1762.55 -2.66012 3.35293 0
M  V30 15939 C 1761.88 -4.05458 3.4858 0
M  V30 15940 C 1763.18 -2.24681 4.71504 0
M  V30 15941 H 1764.87 -1.03138 2.81075 0
M  V30 15942 H 1762.42 -0.494702 1.35236 0
M  V30 15943 H 1764.37 -3.43918 2.43512 0
M  V30 15944 H 1763.1 -3.00932 1.26916 0
M  V30 15945 H 1761.76 -1.93703 3.11247 0
M  V30 15946 H 1761.4 -4.34472 2.53462 0
M  V30 15947 H 1761.1 -4.04251 4.26445 0
M  V30 15948 H 1762.63 -4.81954 3.74904 0
M  V30 15949 H 1764.04 -2.89173 4.95027 0
M  V30 15950 H 1762.44 -2.34622 5.52334 0
M  V30 15951 H 1763.51 -1.19819 4.69863 0
M  V30 15952 N 1764.85 -1.48386 -0.530967 0
M  V30 15953 C 1766.13 -1.46843 -1.29215 0
M  V30 15954 C 1766.51 -0.179567 -2.10335 0
M  V30 15955 O 1765.86 0.838706 -2.12551 0
M  V30 15956 C 1766.07 -2.72983 -2.17443 0
M  V30 15957 C 1767.41 -3.21271 -2.77615 0
M  V30 15958 O 1768.44 -2.73893 -2.2773 0
M  V30 15959 O 1767.3 -4.03709 -3.68349 0
M  V30 15960 H 1764.39 -0.586393 -0.583157 0
M  V30 15961 H 1766.94 -1.60619 -0.547702 0
M  V30 15962 H 1765.71 -3.58301 -1.57278 0
M  V30 15963 H 1765.33 -2.61922 -2.99137 0
M  V30 15964 N 1766.33 0.779763 -1.36958 0
M  V30 15965 C 1767.58 1.53326 -1.31049 0
M  V30 15966 C 1767.89 1.95317 0.105139 0
M  V30 15967 O 1769.1 2.69983 0.286652 0
M  V30 15968 C 1767.55 2.76832 -2.29983 0
M  V30 15969 C 1767.16 2.41972 -3.77033 0
M  V30 15970 C 1768.91 3.54794 -2.3307 0
M  V30 15971 C 1766.81 3.61931 -4.67718 0
M  V30 15972 H 1765.74 0.57561 -0.48702 0
M  V30 15973 H 1768.39 0.854801 -1.62374 0
M  V30 15974 H 1766.78 3.46527 -1.91665 0
M  V30 15975 H 1767.95 1.80112 -4.24142 0
M  V30 15976 H 1766.26 1.77201 -3.76814 0
M  V30 15977 H 1768.86 4.4394 -2.98029 0
M  V30 15978 H 1769.2 3.94077 -1.34199 0
M  V30 15979 H 1769.74 2.92088 -2.70054 0
M  V30 15980 H 1766.48 3.27736 -5.67688 0
M  V30 15981 H 1766 4.22923 -4.25319 0
M  V30 15982 H 1767.68 4.28842 -4.84462 0
M  V30 15983 N 1767.81 1.21396 1.00503 0
M  V30 15984 C 1769.05 1.03117 1.74279 0
M  V30 15985 C 1769.38 -0.43531 1.89566 0
M  V30 15986 O 1768.64 -1.33929 1.42694 0
M  V30 15987 C 1768.94 1.67343 3.15802 0
M  V30 15988 C 1768.6 3.17198 3.20463 0
M  V30 15989 C 1767.26 3.5809 3.21442 0
M  V30 15990 C 1769.62 4.13172 3.17708 0
M  V30 15991 C 1766.94 4.93462 3.17352 0
M  V30 15992 C 1769.3 5.48505 3.15159 0
M  V30 15993 C 1767.96 5.88794 3.14448 0
M  V30 15994 H 1767.23 0.377332 0.637732 0
M  V30 15995 H 1769.88 1.50987 1.17792 0
M  V30 15996 H 1768.18 1.11765 3.75521 0
M  V30 15997 H 1769.88 1.50703 3.71604 0
M  V30 15998 H 1766.47 2.8463 3.20443 0
M  V30 15999 H 1770.65 3.82606 3.16112 0
M  V30 16000 H 1765.91 5.23925 3.15138 0
M  V30 16001 H 1770.08 6.22608 3.11982 0
M  V30 16002 H 1767.71 6.93659 3.11033 0
M  V30 16003 N 1769.29 -1.19996 1.0217 0
M  V30 16004 C 1770.7 -1.71202 0.744777 0
M  V30 16005 C 1771.05 -1.81862 -0.736238 0
M  V30 16006 O 1770.17 -1.48475 -1.5743 0
M  V30 16007 C 1770.77 -3.10945 1.34531 0
M  V30 16008 C 1769.33 -3.5944 1.11714 0
M  V30 16009 C 1768.47 -2.36501 1.44784 0
M  V30 16010 H 1771.42 -1.04938 1.19054 0
M  V30 16011 H 1771.45 -3.73264 0.738531 0
M  V30 16012 H 1770.96 -3.03154 2.42321 0
M  V30 16013 H 1769.06 -3.72556 0.0571346 0
M  V30 16014 H 1769.17 -4.43969 1.80079 0
M  V30 16015 H 1767.54 -2.3949 0.866981 0
M  V30 16016 H 1768.32 -2.31347 2.53641 0
M  V30 16017 N 1770.76 -0.798611 -1.35867 0
M  V30 16018 C 1771.73 -0.209177 -2.28243 0
M  V30 16019 C 1772.73 0.598842 -1.49233 0
M  V30 16020 O 1773.92 0.418491 -1.69098 0
M  V30 16021 C 1771.05 0.709336 -3.33438 0
M  V30 16022 H 1772.24 -1.02382 -2.81883 0
M  V30 16023 H 1769.79 -0.568687 -1.45587 0
M  V30 16024 H 1770.53 1.54797 -2.84971 0
M  V30 16025 H 1770.31 0.131756 -3.91879 0
M  V30 16026 H 1771.8 1.11632 -4.02403 0
M  V30 16027 N 1772.24 1.47639 -0.551417 0
M  V30 16028 C 1773.66 1.58202 -0.210768 0
M  V30 16029 C 1773.86 1.55078 1.28659 0
M  V30 16030 O 1772.91 1.45113 2.06636 0
M  V30 16031 C 1774.23 2.88952 -0.832294 0
M  V30 16032 C 1775.77 3.02524 -0.80299 0
M  V30 16033 C 1776.25 4.35966 -1.40348 0
M  V30 16034 N 1777.74 4.42587 -1.3664 0
M  V30 16035 C 1778.48 5.44391 -1.80072 0
M  V30 16036 N 1777.97 6.53037 -2.31332 0
M  V30 16037 N 1779.76 5.35401 -1.71178 0
M  V30 16038 H 1771.92 1.47912 -1.52433 0
M  V30 16039 H 1774.18 0.703607 -0.635328 0
M  V30 16040 H 1773.88 2.96958 -1.88439 0
M  V30 16041 H 1773.76 3.75824 -0.321915 0
M  V30 16042 H 1776.15 2.94119 0.240395 0
M  V30 16043 H 1776.23 2.17209 -1.35107 0
M  V30 16044 H 1775.87 4.45127 -2.4459 0
M  V30 16045 H 1775.8 5.20004 -0.830897 0
M  V30 16046 H 1778.29 3.64664 -0.991386 0
M  V30 16047 H 1778.6 7.26884 -2.62411 0
M  V30 16048 H 1776.95 6.53942 -2.35339 0
M  V30 16049 H 1780.14 4.49421 -1.30912 0
M  V30 16050 H 1780.31 6.14604 -2.05344 0
M  V30 16051 N 1773.72 0.287581 1.54954 0
M  V30 16052 C 1775 -0.378041 1.91912 0
M  V30 16053 C 1775.38 -1.72749 1.2133 0
M  V30 16054 O 1774.73 -2.2589 0.344403 0
M  V30 16055 C 1774.94 -0.505993 3.45312 0
M  V30 16056 C 1776.28 -0.783109 4.17316 0
M  V30 16057 O 1777.31 -0.590324 3.51274 0
M  V30 16058 O 1776.17 -1.15257 5.34208 0
M  V30 16059 H 1773.26 -0.209004 0.800154 0
M  V30 16060 H 1775.81 0.334653 1.66368 0
M  V30 16061 H 1774.58 0.443187 3.88782 0
M  V30 16062 H 1774.2 -1.26767 3.7685 0
M  V30 16063 N 1775.2 -1.57593 0.0150662 0
M  V30 16064 C 1776.43 -1.95504 -0.677174 0
M  V30 16065 C 1776.84 -0.8908 -1.66464 0
M  V30 16066 O 1776.2 0.128818 -1.82045 0
M  V30 16067 C 1776.25 -3.33463 -1.39589 0
M  V30 16068 O 1775.97 -4.35803 -0.448005 0
M  V30 16069 C 1777.47 -3.85923 -2.18125 0
M  V30 16070 H 1774.69 -0.644226 -0.187652 0
M  V30 16071 H 1777.24 -2.04378 0.070661 0
M  V30 16072 H 1775.39 -3.25851 -2.09523 0
M  V30 16073 H 1775.8 -5.157 -0.956756 0
M  V30 16074 H 1777.28 -4.84838 -2.63887 0
M  V30 16075 H 1777.76 -3.19423 -3.01439 0
M  V30 16076 H 1778.36 -3.96758 -1.53176 0
M  V30 16077 N 1776.68 0.257904 -1.55475 0
M  V30 16078 C 1777.91 1.00385 -1.80572 0
M  V30 16079 C 1778.31 1.79866 -0.586915 0
M  V30 16080 O 1777.66 1.78008 0.453747 0
M  V30 16081 C 1777.72 1.99828 -2.98846 0
M  V30 16082 C 1777.38 1.39144 -4.35302 0
M  V30 16083 C 1778.38 0.799456 -5.13717 0
M  V30 16084 C 1776.07 1.4141 -4.81984 0
M  V30 16085 C 1778.06 0.238228 -6.36955 0
M  V30 16086 C 1775.75 0.849019 -6.05173 0
M  V30 16087 C 1776.74 0.262096 -6.82497 0
M  V30 16088 O 1776.43 -0.294292 -8.03361 0
M  V30 16089 H 1776.16 0.301552 -0.605014 0
M  V30 16090 H 1778.72 0.289436 -2.03351 0
M  V30 16091 H 1776.95 2.7507 -2.71797 0
M  V30 16092 H 1778.64 2.60675 -3.11133 0
M  V30 16093 H 1779.4 0.774531 -4.78776 0
M  V30 16094 H 1775.28 1.86032 -4.21797 0
M  V30 16095 H 1778.83 -0.220518 -6.97251 0
M  V30 16096 H 1774.72 0.871235 -6.39593 0
M  V30 16097 H 1775.49 -0.185098 -8.18291 0
M  V30 16098 N 1778.15 1.48666 0.52309 0
M  V30 16099 C 1779.1 1.60099 1.62334 0
M  V30 16100 C 1780.09 0.457736 1.54252 0
M  V30 16101 O 1781.28 0.709544 1.62156 0
M  V30 16102 C 1778.41 1.65029 3.01032 0
M  V30 16103 C 1777.5 2.84858 3.14192 0
M  V30 16104 N 1777.89 4.09198 2.97305 0
M  V30 16105 C 1776.18 2.82334 3.45259 0
M  V30 16106 C 1776.89 4.89631 3.14064 0
M  V30 16107 N 1775.86 4.22577 3.4195 0
M  V30 16108 H 1779.66 2.53975 1.47898 0
M  V30 16109 H 1777.18 1.45133 0.728714 0
M  V30 16110 H 1779.17 1.71315 3.80075 0
M  V30 16111 H 1777.83 0.722745 3.16554 0
M  V30 16112 H 1778.85 4.39527 2.73928 0
M  V30 16113 H 1775.52 1.98865 3.67095 0
M  V30 16114 H 1776.91 5.98335 3.05688 0
M  V30 16115 N 1779.63 -0.772489 1.37369 0
M  V30 16116 C 1781.04 -1.34873 1.29098 0
M  V30 16117 C 1781.39 -1.96103 -0.0617433 0
M  V30 16118 O 1780.52 -1.93764 -0.963562 0
M  V30 16119 C 1781.11 -2.45218 2.33781 0
M  V30 16120 C 1779.67 -2.98612 2.29146 0
M  V30 16121 C 1778.82 -1.71823 2.17651 0
M  V30 16122 H 1781.77 -0.572805 1.48002 0
M  V30 16123 H 1781.79 -3.24679 1.98404 0
M  V30 16124 H 1781.3 -2.00624 3.32222 0
M  V30 16125 H 1779.41 -3.47583 1.34225 0
M  V30 16126 H 1779.52 -3.54276 3.22529 0
M  V30 16127 H 1777.88 -1.94719 1.64185 0
M  V30 16128 H 1778.67 -1.29334 3.18006 0
M  V30 16129 N 1781.11 -1.21927 -0.998575 0
M  V30 16130 C 1782.04 -0.927553 -2.08499 0
M  V30 16131 C 1783.02 0.127378 -1.621 0
M  V30 16132 O 1784.21 -0.00298127 -1.885 0
M  V30 16133 C 1781.33 -0.393968 -3.36401 0
M  V30 16134 C 1780.38 -1.4327 -4.01716 0
M  V30 16135 S 1781.21 -3.0041 -4.43299 0
M  V30 16136 C 1782.37 -2.48675 -5.74379 0
M  V30 16137 H 1782.6 -1.84755 -2.32923 0
M  V30 16138 H 1780.13 -1.04972 -1.13227 0
M  V30 16139 H 1782.09 -0.0926895 -4.10395 0
M  V30 16140 H 1780.75 0.504816 -3.10017 0
M  V30 16141 H 1779.95 -1.0091 -4.93795 0
M  V30 16142 H 1779.55 -1.68239 -3.34024 0
M  V30 16143 H 1781.84 -1.89562 -6.5044 0
M  V30 16144 H 1782.78 -3.39221 -6.21558 0
M  V30 16145 H 1783.19 -1.90158 -5.31507 0
M  V30 16146 N 1782.59 1.19452 -1.02805 0
M  V30 16147 C 1783.81 1.93616 -0.743485 0
M  V30 16148 C 1784.24 1.74934 0.691342 0
M  V30 16149 O 1783.6 1.05111 1.47721 0
M  V30 16150 C 1783.64 3.43451 -1.0988 0
M  V30 16151 O 1782.75 4.11829 -0.216978 0
M  V30 16152 H 1782.09 0.60448 -0.274771 0
M  V30 16153 H 1784.62 1.51554 -1.37451 0
M  V30 16154 H 1784.63 3.94115 -1.05535 0
M  V30 16155 H 1783.3 3.5637 -2.14413 0
M  V30 16156 H 1781.88 3.71533 -0.318954 0
M  V30 16157 N 1784.07 0.805805 1.35442 0
M  V30 16158 C 1784.98 0.217149 2.33593 0
M  V30 16159 C 1785.99 -0.639428 1.61825 0
M  V30 16160 O 1787.17 -0.551363 1.93706 0
M  V30 16161 C 1784.23 -0.625149 3.41017 0
M  V30 16162 C 1783.29 0.25183 4.28561 0
M  V30 16163 C 1782.53 -0.550363 5.30855 0
M  V30 16164 O 1782.75 -1.78511 5.41747 0
M  V30 16165 O 1781.68 0.0583487 6.01872 0
M  V30 16166 H 1785.51 1.02909 2.85733 0
M  V30 16167 H 1783.1 0.567579 1.38199 0
M  V30 16168 H 1784.98 -1.10493 4.06656 0
M  V30 16169 H 1783.65 -1.4147 2.91149 0
M  V30 16170 H 1782.56 0.77873 3.65905 0
M  V30 16171 H 1783.89 1.0053 4.81824 0
M  V30 16172 N 1785.54 -1.47344 0.559239 0
M  V30 16173 C 1786.77 -2.0656 0.040802 0
M  V30 16174 C 1787.18 -1.41208 -1.25925 0
M  V30 16175 O 1786.53 -0.503333 -1.7667 0
M  V30 16176 C 1786.59 -3.58804 -0.223642 0
M  V30 16177 C 1786.25 -4.46208 0.987275 0
M  V30 16178 C 1787.25 -4.84198 1.89336 0
M  V30 16179 C 1784.93 -4.87693 1.20252 0
M  V30 16180 C 1786.93 -5.62474 2.99837 0
M  V30 16181 C 1784.61 -5.65733 2.31061 0
M  V30 16182 C 1785.61 -6.03034 3.20684 0
M  V30 16183 O 1785.3 -6.79502 4.29572 0
M  V30 16184 H 1785.03 -0.674583 0.0437408 0
M  V30 16185 H 1787.59 -1.90306 0.772827 0
M  V30 16186 H 1785.82 -3.73277 -1.01 0
M  V30 16187 H 1787.51 -4.00032 -0.687709 0
M  V30 16188 H 1788.27 -4.52746 1.73913 0
M  V30 16189 H 1784.15 -4.58124 0.514098 0
M  V30 16190 H 1787.69 -5.91508 3.69817 0
M  V30 16191 H 1783.59 -5.96598 2.46456 0
M  V30 16192 H 1784.36 -6.97898 4.27645 0
M  V30 16193 N 1787.02 -0.295795 -1.54799 0
M  V30 16194 C 1788.43 0.19789 -1.85648 0
M  V30 16195 C 1788.78 1.53834 -1.21776 0
M  V30 16196 O 1787.91 2.10218 -0.513554 0
M  V30 16197 C 1788.5 0.365844 -3.36819 0
M  V30 16198 C 1787.06 0.80375 -3.67718 0
M  V30 16199 C 1786.21 -0.0909572 -2.77151 0
M  V30 16200 H 1789.16 -0.516968 -1.50044 0
M  V30 16201 H 1789.18 1.20123 -3.61041 0
M  V30 16202 H 1788.69 -0.60991 -3.83278 0
M  V30 16203 H 1786.8 1.79024 -3.26774 0
M  V30 16204 H 1786.91 0.626745 -4.74983 0
M  V30 16205 H 1785.27 0.428882 -2.51063 0
M  V30 16206 H 1786.06 -1.06297 -3.26429 0
M  V30 16207 N 1788.5 1.57583 -0.0234236 0
M  V30 16208 C 1789.73 1.95861 0.666797 0
M  V30 16209 C 1790.14 0.899616 1.65989 0
M  V30 16210 O 1789.5 -0.119162 1.82111 0
M  V30 16211 C 1789.55 3.34198 1.37818 0
M  V30 16212 O 1789.27 4.36035 0.424887 0
M  V30 16213 C 1790.77 3.87074 2.16075 0
M  V30 16214 H 1787.99 0.645213 0.184233 0
M  V30 16215 H 1790.54 2.04338 -0.0814987 0
M  V30 16216 H 1788.69 3.26958 2.07792 0
M  V30 16217 H 1789.11 5.162 0.929394 0
M  V30 16218 H 1790.58 4.8623 2.61312 0
M  V30 16219 H 1791.06 3.21017 2.99741 0
M  V30 16220 H 1791.66 3.97565 1.5107 0
M  V30 16221 N 1789.98 -0.249655 1.5561 0
M  V30 16222 C 1791.21 -0.994263 1.81102 0
M  V30 16223 C 1791.62 -1.79553 0.596445 0
M  V30 16224 O 1790.96 -1.78246 -0.4443 0
M  V30 16225 C 1791.02 -1.9824 2.99902 0
M  V30 16226 C 1790.69 -1.36833 4.36034 0
M  V30 16227 C 1791.68 -0.772202 5.14133 0
M  V30 16228 C 1789.37 -1.38852 4.82727 0
M  V30 16229 C 1791.36 -0.204446 6.37072 0
M  V30 16230 C 1789.05 -0.816913 6.05615 0
M  V30 16231 C 1790.05 -0.225898 6.82626 0
M  V30 16232 O 1789.74 0.336892 8.03194 0
M  V30 16233 H 1789.47 -0.298339 0.606605 0
M  V30 16234 H 1792.02 -0.278647 2.03501 0
M  V30 16235 H 1790.25 -2.73625 2.73252 0
M  V30 16236 H 1791.94 -2.59021 3.12511 0
M  V30 16237 H 1792.71 -0.749129 4.7918 0
M  V30 16238 H 1788.59 -1.83793 4.22778 0
M  V30 16239 H 1792.13 0.257492 6.97125 0
M  V30 16240 H 1788.03 -0.837303 6.40046 0
M  V30 16241 H 1788.79 0.228492 8.18181 0
M  V30 16242 N 1791.46 -1.48941 -0.515198 0
M  V30 16243 C 1792.41 -1.60958 -1.61482 0
M  V30 16244 C 1793.39 -0.46591 -1.54007 0
M  V30 16245 O 1794.58 -0.718134 -1.61777 0
M  V30 16246 C 1791.71 -1.66623 -3.00153 0
M  V30 16247 C 1790.8 -2.8652 -3.12677 0
M  V30 16248 N 1791.19 -4.10769 -2.95131 0
M  V30 16249 C 1789.49 -2.84161 -3.43756 0
M  V30 16250 C 1790.19 -4.9129 -3.11463 0
M  V30 16251 N 1789.16 -4.24384 -3.39704 0
M  V30 16252 H 1792.97 -2.54756 -1.46549 0
M  V30 16253 H 1790.48 -1.45517 -0.721007 0
M  V30 16254 H 1792.48 -1.73328 -3.79161 0
M  V30 16255 H 1791.14 -0.739523 -3.16166 0
M  V30 16256 H 1792.15 -4.40974 -2.71593 0
M  V30 16257 H 1788.83 -2.00809 -3.66035 0
M  V30 16258 H 1790.22 -5.99948 -3.0251 0
M  V30 16259 N 1792.94 0.765193 -1.37777 0
M  V30 16260 C 1794.16 1.55436 -1.36556 0
M  V30 16261 C 1794.58 1.8874 0.0475187 0
M  V30 16262 O 1793.94 1.51933 1.01107 0
M  V30 16263 C 1793.99 2.86063 -2.21021 0
M  V30 16264 O 1793.71 2.54183 -3.56823 0
M  V30 16265 C 1795.21 3.80261 -2.27851 0
M  V30 16266 H 1792.43 0.481331 -0.467506 0
M  V30 16267 H 1794.97 0.947906 -1.81204 0
M  V30 16268 H 1793.13 3.43114 -1.79864 0
M  V30 16269 H 1793.54 3.37879 -4.01171 0
M  V30 16270 H 1795.02 4.68904 -2.91261 0
M  V30 16271 H 1795.49 4.19865 -1.28881 0
M  V30 16272 H 1796.1 3.29137 -2.69349 0
M  V30 16273 N 1794.41 1.22455 0.992094 0
M  V30 16274 C 1795.36 0.962645 2.06681 0
M  V30 16275 C 1796.35 -0.0870288 1.60664 0
M  V30 16276 O 1797.54 0.123596 1.76568 0
M  V30 16277 C 1794.67 0.54316 3.38976 0
M  V30 16278 C 1793.75 1.62761 3.91625 0
M  V30 16279 N 1794.15 2.85548 4.17488 0
M  V30 16280 C 1792.44 1.49948 4.20038 0
M  V30 16281 C 1793.14 3.55677 4.60292 0
M  V30 16282 N 1792.12 2.83152 4.64032 0
M  V30 16283 H 1795.92 1.89534 2.24619 0
M  V30 16284 H 1793.44 1.1222 1.1739 0
M  V30 16285 H 1795.43 0.336841 4.15537 0
M  V30 16286 H 1794.09 -0.382629 3.22438 0
M  V30 16287 H 1795.1 3.21968 4.05657 0
M  V30 16288 H 1791.78 0.639937 4.12566 0
M  V30 16289 H 1793.17 4.60878 4.88918 0
M  V30 16290 N 1795.89 -1.18905 1.03437 0
M  V30 16291 C 1797.14 -1.88354 0.732598 0
M  V30 16292 C 1797.46 -1.80353 -0.741474 0
M  V30 16293 O 1796.73 -1.21764 -1.53461 0
M  V30 16294 H 1795.31 -0.697272 0.267995 0
M  V30 16295 H 1797.97 -1.44329 1.30978 0
M  V30 16296 H 1797.07 -2.94551 1.03181 0
M  V30 16297 N 1797.37 -0.812977 -1.35013 0
M  V30 16298 C 1798.79 -0.497497 -1.51648 0
M  V30 16299 C 1798.99 0.980162 -1.76054 0
M  V30 16300 O 1798.04 1.76498 -1.80567 0
M  V30 16301 C 1799.35 -1.3484 -2.68772 0
M  V30 16302 C 1800.9 -1.3445 -2.82652 0
M  V30 16303 C 1801.38 -2.17966 -4.02808 0
M  V30 16304 N 1802.87 -2.15537 -4.09998 0
M  V30 16305 C 1803.6 -2.76912 -5.02103 0
M  V30 16306 N 1803.1 -3.47239 -5.99497 0
M  V30 16307 N 1804.89 -2.66519 -4.94898 0
M  V30 16308 H 1797.04 -1.76987 -1.17429 0
M  V30 16309 H 1799.31 -0.753654 -0.575073 0
M  V30 16310 H 1799.01 -2.39732 -2.57336 0
M  V30 16311 H 1798.89 -1.0061 -3.63535 0
M  V30 16312 H 1801.27 -0.303409 -2.93536 0
M  V30 16313 H 1801.35 -1.72671 -1.88728 0
M  V30 16314 H 1801 -3.2212 -3.92685 0
M  V30 16315 H 1800.93 -1.77102 -4.95926 0
M  V30 16316 H 1803.42 -1.64373 -3.40279 0
M  V30 16317 H 1803.73 -3.91341 -6.66387 0
M  V30 16318 H 1802.08 -3.51344 -5.99652 0
M  V30 16319 H 1805.27 -2.1116 -4.17767 0
M  V30 16320 H 1805.44 -3.14639 -5.66486 0
M  V30 16321 N 1798.85 1.47045 -0.567045 0
M  V30 16322 C 1800.08 2.06535 -0.0517558 0
M  V30 16323 C 1800.49 1.41873 1.25174 0
M  V30 16324 O 1799.83 0.512695 1.764 0
M  V30 16325 C 1799.89 3.58917 0.204611 0
M  V30 16326 C 1799.55 4.45678 -1.01092 0
M  V30 16327 C 1800.55 4.83187 -1.91902 0
M  V30 16328 C 1798.24 4.87049 -1.22837 0
M  V30 16329 C 1800.23 5.60876 -3.02815 0
M  V30 16330 C 1797.92 5.645 -2.34058 0
M  V30 16331 C 1798.92 6.01325 -3.23878 0
M  V30 16332 O 1798.6 6.77214 -4.3317 0
M  V30 16333 H 1798.34 0.674342 -0.0473177 0
M  V30 16334 H 1800.89 1.89894 -0.782909 0
M  V30 16335 H 1799.12 3.73808 0.990192 0
M  V30 16336 H 1800.81 4.00391 0.666485 0
M  V30 16337 H 1801.57 4.51818 -1.76312 0
M  V30 16338 H 1797.45 4.57845 -0.538387 0
M  V30 16339 H 1801 5.89538 -3.72948 0
M  V30 16340 H 1796.89 5.95283 -2.49617 0
M  V30 16341 H 1797.66 6.9562 -4.31341 0
M  V30 16342 N 1800.33 0.304 1.5464 0
M  V30 16343 C 1801.57 -0.304845 2.00496 0
M  V30 16344 C 1801.9 -1.53308 1.19206 0
M  V30 16345 O 1801.18 -1.92627 0.269305 0
M  V30 16346 C 1801.46 -0.658462 3.54029 0
M  V30 16347 C 1801.32 0.579125 4.46056 0
M  V30 16348 C 1802.63 -1.4838 4.14332 0
M  V30 16349 H 1799.75 -0.109327 0.728846 0
M  V30 16350 H 1802.4 0.416694 1.85374 0
M  V30 16351 H 1800.55 -1.27319 3.67045 0
M  V30 16352 H 1802.22 1.21758 4.44941 0
M  V30 16353 H 1800.46 1.21179 4.16531 0
M  V30 16354 H 1801.13 0.287518 5.51251 0
M  V30 16355 H 1803.61 -0.964367 4.04771 0
M  V30 16356 H 1802.48 -1.70001 5.21911 0
M  V30 16357 H 1802.74 -2.47394 3.66399 0
M  V30 16358 N 1801.8 -1.57568 0.0317802 0
M  V30 16359 C 1803.21 -1.79693 -0.506679 0
M  V30 16360 C 1803.57 -0.94229 -1.72091 0
M  V30 16361 O 1802.69 -0.153435 -2.15855 0
M  V30 16362 C 1803.29 -3.259 -0.925978 0
M  V30 16363 C 1801.84 -3.49012 -1.40953 0
M  V30 16364 C 1800.99 -2.74746 -0.375509 0
M  V30 16365 H 1803.94 -1.56592 0.257798 0
M  V30 16366 H 1803.96 -3.35757 -1.79017 0
M  V30 16367 H 1803.48 -3.88077 -0.0420441 0
M  V30 16368 H 1801.58 -2.9209 -2.31331 0
M  V30 16369 H 1801.69 -4.57725 -1.41508 0
M  V30 16370 H 1800.05 -2.40303 -0.844187 0
M  V30 16371 H 1800.84 -3.39639 0.500005 0
M  V30 16372 N 1803.28 0.241399 -1.5574 0
M  V30 16373 C 1804.69 0.810024 -1.68213 0
M  V30 16374 C 1805.04 1.85802 -0.630237 0
M  V30 16375 O 1804.17 2.15254 0.222457 0
M  V30 16376 C 1804.76 1.47603 -3.04957 0
M  V30 16377 C 1803.32 1.99229 -3.1935 0
M  V30 16378 C 1802.47 0.845339 -2.64101 0
M  V30 16379 H 1805.42 0.0171031 -1.58691 0
M  V30 16380 H 1805.44 2.34425 -2.99709 0
M  V30 16381 H 1804.95 0.713047 -3.81493 0
M  V30 16382 H 1803.06 2.78391 -2.47647 0
M  V30 16383 H 1803.17 2.1859 -4.26328 0
M  V30 16384 H 1801.53 1.24734 -2.22067 0
M  V30 16385 H 1802.32 0.0953468 -3.43168 0
M  V30 16386 N 1804.76 1.49212 0.507292 0
M  V30 16387 C 1805.99 1.62343 1.29072 0
M  V30 16388 C 1806.41 0.292387 1.85814 0
M  V30 16389 O 1805.77 -0.739145 1.65549 0
M  V30 16390 C 1805.82 2.69017 2.40129 0
M  V30 16391 O 1804.92 2.27753 3.43806 0
M  V30 16392 H 1804.26 0.543591 0.38132 0
M  V30 16393 H 1806.79 1.95358 0.607997 0
M  V30 16394 H 1806.8 2.90992 2.85985 0
M  V30 16395 H 1805.48 3.65638 1.98195 0
M  V30 16396 H 1804.05 2.16084 3.03912 0
M  V30 16397 N 1806.24 -0.757876 1.38181 0
M  V30 16398 C 1807.46 -1.55221 1.37555 0
M  V30 16399 C 1807.89 -1.8807 -0.0336083 0
M  V30 16400 O 1807.25 -1.50258 -1.0145 0
M  V30 16401 C 1807.29 -2.83064 2.23399 0
M  V30 16402 O 1806.4 -3.78034 1.64814 0
M  V30 16403 H 1805.74 -0.469644 0.469394 0
M  V30 16404 H 1808.27 -0.936923 1.81887 0
M  V30 16405 H 1808.28 -3.32031 2.37106 0
M  V30 16406 H 1806.95 -2.58485 3.2582 0
M  V30 16407 H 1805.53 -3.36723 1.60225 0
M  V30 16408 N 1807.72 -1.22979 -0.985586 0
M  V30 16409 C 1808.94 -1.0853 -1.7615 0
M  V30 16410 C 1809.36 0.36363 -1.85265 0
M  V30 16411 O 1808.72 1.25173 -1.32808 0
M  V30 16412 C 1808.77 -1.69872 -3.19101 0
M  V30 16413 O 1808.49 -3.09098 -3.10467 0
M  V30 16414 C 1809.99 -1.60795 -4.1311 0
M  V30 16415 H 1807.21 -0.380086 -0.55297 0
M  V30 16416 H 1809.75 -1.62724 -1.2386 0
M  V30 16417 H 1807.91 -1.19724 -3.68436 0
M  V30 16418 H 1808.32 -3.38769 -4.00419 0
M  V30 16419 H 1809.8 -2.08428 -5.11138 0
M  V30 16420 H 1810.27 -0.565817 -4.3554 0
M  V30 16421 H 1810.88 -2.10284 -3.69676 0
M  V30 16422 N 1809.19 1.18355 -1.04066 0
M  V30 16423 C 1810.47 1.8419 -0.65828 0
M  V30 16424 C 1810.85 1.92688 0.862238 0
M  V30 16425 O 1810.2 1.4528 1.76369 0
M  V30 16426 C 1810.41 3.22495 -1.3341 0
M  V30 16427 C 1811.76 3.9853 -1.46489 0
M  V30 16428 O 1812.78 3.31934 -1.29221 0
M  V30 16429 O 1811.64 5.17848 -1.74629 0
M  V30 16430 H 1808.73 0.794278 -0.230329 0
M  V30 16431 H 1811.28 1.25747 -1.13955 0
M  V30 16432 H 1810.05 3.11213 -2.37197 0
M  V30 16433 H 1809.68 3.88594 -0.841449 0
M  V30 16434 N 1810.67 0.820125 1.3458 0
M  V30 16435 C 1812.09 0.505533 1.51382 0
M  V30 16436 C 1812.29 -0.970812 1.76571 0
M  V30 16437 O 1811.34 -1.75538 1.81501 0
M  V30 16438 C 1812.66 1.36264 2.68054 0
M  V30 16439 C 1814.21 1.35947 2.81935 0
M  V30 16440 C 1814.68 2.201 4.01647 0
M  V30 16441 N 1816.17 2.17708 4.08849 0
M  V30 16442 C 1816.91 2.79571 5.00627 0
M  V30 16443 N 1816.4 3.50413 5.97647 0
M  V30 16444 N 1818.2 2.6914 4.93477 0
M  V30 16445 H 1810.35 1.77607 1.16488 0
M  V30 16446 H 1812.61 0.756693 0.571068 0
M  V30 16447 H 1812.32 2.41093 2.56061 0
M  V30 16448 H 1812.19 1.02537 3.62996 0
M  V30 16449 H 1814.58 0.318971 2.93371 0
M  V30 16450 H 1814.66 1.7367 1.8781 0
M  V30 16451 H 1814.3 3.24198 3.90971 0
M  V30 16452 H 1814.23 1.79729 4.9498 0
M  V30 16453 H 1816.72 1.66175 3.39403 0
M  V30 16454 H 1817.04 3.9487 6.64303 0
M  V30 16455 H 1815.38 3.54519 5.9778 0
M  V30 16456 H 1818.57 2.13372 4.16641 0
M  V30 16457 H 1818.74 3.17639 5.64809 0
M  V30 16458 N 1812.15 -1.46743 0.574835 0
M  V30 16459 C 1813.38 -2.07311 0.0608779 0
M  V30 16460 C 1813.8 -1.422 -1.23129 0
M  V30 16461 O 1813.16 -0.503042 -1.74181 0
M  V30 16462 C 1813.21 -3.60462 -0.0996676 0
M  V30 16463 O 1812.31 -3.95806 -1.15808 0
M  V30 16464 H 1811.65 -0.661351 0.0592542 0
M  V30 16465 H 1814.18 -1.885 0.795538 0
M  V30 16466 H 1814.19 -4.06833 -0.308329 0
M  V30 16467 H 1812.87 -4.07246 0.844018 0
M  V30 16468 H 1811.44 -3.61155 -0.928504 0
M  V30 16469 N 1813.63 -0.312197 -1.54477 0
M  V30 16470 C 1815.04 0.178189 -1.85848 0
M  V30 16471 C 1815.39 1.52534 -1.23401 0
M  V30 16472 O 1814.52 2.09661 -0.535822 0
M  V30 16473 C 1815.11 0.330099 -3.37188 0
M  V30 16474 C 1813.67 0.764703 -3.6855 0
M  V30 16475 C 1812.82 -0.120348 -2.77039 0
M  V30 16476 H 1815.77 -0.532853 -1.49487 0
M  V30 16477 H 1815.79 1.16287 -3.62295 0
M  V30 16478 H 1815.3 -0.650527 -3.82609 0
M  V30 16479 H 1813.4 1.75548 -3.28654 0
M  V30 16480 H 1813.51 0.576331 -4.75621 0
M  V30 16481 H 1811.88 0.402229 -2.51504 0
M  V30 16482 H 1812.66 -1.09753 -3.25283 0
M  V30 16483 N 1815.11 1.57549 -0.040136 0
M  V30 16484 C 1816.34 1.96272 0.645049 0
M  V30 16485 C 1816.74 0.915804 1.65559 0
M  V30 16486 O 1816.09 -0.109666 1.83372 0
M  V30 16487 C 1816.15 3.31187 1.3984 0
M  V30 16488 C 1815.81 4.53739 0.544953 0
M  V30 16489 C 1816.81 5.19573 -0.184369 0
M  V30 16490 C 1814.5 5.0001 0.479119 0
M  V30 16491 C 1816.49 6.30006 -0.968081 0
M  V30 16492 C 1814.18 6.10322 -0.30829 0
M  V30 16493 C 1815.17 6.7518 -1.03059 0
M  V30 16494 O 1814.86 7.83373 -1.80507 0
M  V30 16495 H 1814.59 0.651051 0.181958 0
M  V30 16496 H 1817.15 2.05159 -0.0995179 0
M  V30 16497 H 1815.38 3.18823 2.18835 0
M  V30 16498 H 1817.07 3.54735 1.97276 0
M  V30 16499 H 1817.83 4.84789 -0.142908 0
M  V30 16500 H 1813.71 4.49325 1.0309 0
M  V30 16501 H 1817.26 6.80562 -1.53237 0
M  V30 16502 H 1813.15 6.44543 -0.351428 0
M  V30 16503 H 1813.92 8.00094 -1.72601 0
M  V30 16504 N 1816.58 -0.233136 1.55866 0
M  V30 16505 C 1817.49 -1.31004 1.94615 0
M  V30 16506 C 1818.51 -1.51915 0.848399 0
M  V30 16507 O 1819.69 -1.6527 1.15098 0
M  V30 16508 C 1816.75 -2.64203 2.24494 0
M  V30 16509 C 1815.81 -2.51695 3.47776 0
M  V30 16510 C 1815.05 -3.78542 3.7622 0
M  V30 16511 O 1815.27 -4.81043 3.06519 0
M  V30 16512 O 1814.2 -3.76348 4.69729 0
M  V30 16513 H 1818.03 -1.01129 2.86368 0
M  V30 16514 H 1815.61 -0.435043 1.42926 0
M  V30 16515 H 1817.5 -3.42889 2.44959 0
M  V30 16516 H 1816.17 -2.93782 1.35918 0
M  V30 16517 H 1815.08 -1.71248 3.32603 0
M  V30 16518 H 1816.41 -2.27058 4.36698 0
M  V30 16519 N 1818.06 -1.49479 -0.499372 0
M  V30 16520 C 1819.01 -1.66268 -1.60073 0
M  V30 16521 C 1819.98 -0.504137 -1.58265 0
M  V30 16522 O 1821.17 -0.731358 -1.76227 0
M  V30 16523 C 1818.31 -1.73678 -2.98211 0
M  V30 16524 C 1817.42 -3.00848 -3.10023 0
M  V30 16525 C 1816.55 -2.99227 -4.38904 0
M  V30 16526 C 1815.59 -4.20969 -4.44355 0
M  V30 16527 N 1814.73 -4.17249 -5.64666 0
M  V30 16528 H 1819.57 -2.60308 -1.45065 0
M  V30 16529 H 1817.11 -1.29063 -0.705774 0
M  V30 16530 H 1819.06 -1.75956 -3.7828 0
M  V30 16531 H 1817.69 -0.831037 -3.11919 0
M  V30 16532 H 1816.75 -3.08175 -2.23008 0
M  V30 16533 H 1818.06 -3.90841 -3.09911 0
M  V30 16534 H 1817.21 -3.00076 -5.27294 0
M  V30 16535 H 1815.95 -2.07015 -4.41584 0
M  V30 16536 H 1814.96 -4.20362 -3.54366 0
M  V30 16537 H 1816.18 -5.14376 -4.4339 0
M  V30 16538 H 1814.13 -3.27875 -5.68185 0
M  V30 16539 H 1814.04 -5.00979 -5.66177 0
M  V30 16540 H 1815.31 -4.22203 -6.55259 0
M  V30 16541 N 1819.54 0.750537 -1.38581 0
M  V30 16542 C 1820.79 1.51198 -1.35156 0
M  V30 16543 C 1821.12 1.94115 0.0574068 0
M  V30 16544 O 1820.4 1.65657 1.01922 0
M  V30 16545 C 1820.68 2.76245 -2.30999 0
M  V30 16546 C 1820.53 2.39446 -3.8077 0
M  V30 16547 C 1821.85 3.78282 -2.24924 0
M  V30 16548 H 1818.97 0.548488 -0.492271 0
M  V30 16549 H 1821.61 0.859402 -1.69453 0
M  V30 16550 H 1819.76 3.31928 -2.01882 0
M  V30 16551 H 1821.43 1.89515 -4.20573 0
M  V30 16552 H 1819.68 1.71866 -3.98302 0
M  V30 16553 H 1820.35 3.28926 -4.43296 0
M  V30 16554 H 1822.82 3.32146 -2.50636 0
M  V30 16555 H 1821.7 4.63467 -2.94091 0
M  V30 16556 H 1821.96 4.24088 -1.24908 0
M  V30 16557 N 1821.02 1.235 0.979051 0
M  V30 16558 C 1822.24 1.09551 1.76106 0
M  V30 16559 C 1822.67 -0.348792 1.84838 0
M  V30 16560 O 1822.03 -1.25231 1.31099 0
M  V30 16561 C 1822.08 1.7272 3.16544 0
M  V30 16562 O 1821.18 0.990263 4.00334 0
M  V30 16563 H 1820.52 0.383909 0.541766 0
M  V30 16564 H 1823.05 1.63581 1.22892 0
M  V30 16565 H 1823.06 1.78014 3.67117 0
M  V30 16566 H 1821.74 2.77813 3.09504 0
M  V30 16567 H 1820.31 1.01436 3.58839 0
M  V30 16568 N 1822.5 -1.17802 1.04693 0
M  V30 16569 C 1823.46 -2.19854 0.647816 0
M  V30 16570 C 1824.46 -1.58013 -0.298081 0
M  V30 16571 O 1825.65 -1.74004 -0.0826309 0
M  V30 16572 C 1822.78 -3.40864 -0.0492661 0
M  V30 16573 H 1823.98 -2.56678 1.55101 0
M  V30 16574 H 1821.53 -1.31796 0.840215 0
M  V30 16575 H 1822.26 -3.0958 -0.965967 0
M  V30 16576 H 1822.05 -3.86995 0.630677 0
M  V30 16577 H 1823.54 -4.16412 -0.31479 0
M  V30 16578 N 1823.98 -0.827251 -1.34143 0
M  V30 16579 C 1825.22 -0.41656 -1.9776 0
M  V30 16580 C 1825.54 1.02488 -1.65895 0
M  V30 16581 O 1824.81 1.71219 -0.951891 0
M  V30 16582 H 1823.39 -0.151044 -0.73157 0
M  V30 16583 H 1826.06 -1.05765 -1.63706 0
M  V30 16584 H 1825.15 -0.539101 -3.07409 0
M  V30 16585 N 1825.45 1.46436 -0.582609 0
M  V30 16586 C 1826.4 2.32025 0.163475 0
M  V30 16587 C 1827.4 1.44476 0.884478 0
M  V30 16588 O 1828.6 1.61102 0.802878 0
M  V30 16589 H 1824.98 0.748585 0.0715868 0
M  V30 16590 H 1826.95 2.92764 -0.577205 0
M  V30 16591 C 1825.7 3.2764 1.16392 0
M  V30 16592 H 1825.02 3.94986 0.618553 0
M  V30 16593 H 1826.46 3.90308 1.65636 0
M  V30 16594 C 1824.92 2.52986 2.22486 0
M  V30 16595 O 1825.45 2.29283 3.29837 0
M  V30 16596 N 1823.65 2.1355 1.97091 0
M  V30 16597 H 1823.2 2.33027 1.09801 0
M  V30 16598 H 1823.16 1.63919 2.68287 0
M  V30 16599 N 1826.93 0.320385 1.54309 0
M  V30 16600 C 1828.18 -0.282584 2.00115 0
M  V30 16601 C 1828.5 -1.52904 1.21018 0
M  V30 16602 O 1827.77 -1.93413 0.311163 0
M  V30 16603 H 1826.35 -0.107406 0.739238 0
M  V30 16604 H 1829.01 0.436196 1.89956 0
M  V30 16605 H 1828.11 -0.541189 3.07372 0
M  V30 16606 N 1828.41 -1.57525 0.0484906 0
M  V30 16607 C 1829.66 -1.92204 -0.624654 0
M  V30 16608 C 1829.98 -0.927289 -1.71541 0
M  V30 16609 O 1829.25 0.0282687 -1.9588 0
M  V30 16610 H 1827.83 -0.709494 -0.233724 0
M  V30 16611 H 1830.49 -1.94639 0.100861 0
M  V30 16612 H 1829.59 -2.93368 -1.06498 0
M  V30 16613 N 1829.89 0.224867 -1.55988 0
M  V30 16614 C 1831.11 0.970897 -1.83271 0
M  V30 16615 C 1831.54 1.77293 -0.628399 0
M  V30 16616 O 1830.9 1.76301 0.422804 0
M  V30 16617 C 1830.94 1.86686 -3.08514 0
M  V30 16618 O 1830.05 2.96174 -2.86975 0
M  V30 16619 H 1829.39 0.275093 -0.604334 0
M  V30 16620 H 1831.92 0.239183 -2.03197 0
M  V30 16621 H 1831.93 2.27731 -3.3853 0
M  V30 16622 H 1830.6 1.27733 -3.95799 0
M  V30 16623 H 1829.18 2.59099 -2.68183 0
M  V30 16624 N 1831.37 1.49742 0.491438 0
M  V30 16625 C 1832.59 1.63703 1.27343 0
M  V30 16626 C 1833.02 0.312079 1.85493 0
M  V30 16627 O 1832.37 -0.721545 1.66323 0
M  V30 16628 C 1832.42 2.71549 2.37262 0
M  V30 16629 O 1831.53 2.31387 3.41371 0
M  V30 16630 H 1830.87 0.547605 0.375533 0
M  V30 16631 H 1833.4 1.95991 0.587243 0
M  V30 16632 H 1833.41 2.94009 2.82883 0
M  V30 16633 H 1832.08 3.6772 1.94306 0
M  V30 16634 H 1830.66 2.19295 3.01603 0
M  V30 16635 N 1832.84 -0.743177 1.38977 0
M  V30 16636 C 1833.77 -1.87047 1.3977 0
M  V30 16637 C 1834.76 -1.68068 0.262161 0
M  V30 16638 O 1835.94 -1.88507 0.466782 0
M  V30 16639 C 1833.07 -3.24701 1.23234 0
M  V30 16640 C 1832.02 -3.58302 2.34102 0
M  V30 16641 C 1831.35 -4.94805 2.02663 0
M  V30 16642 C 1832.65 -3.62111 3.76395 0
M  V30 16643 H 1834.34 -1.8664 2.34107 0
M  V30 16644 H 1831.89 -0.896541 1.12686 0
M  V30 16645 H 1833.84 -4.03228 1.22412 0
M  V30 16646 H 1832.57 -3.25614 0.253638 0
M  V30 16647 H 1831.23 -2.82099 2.34128 0
M  V30 16648 H 1830.87 -4.92289 1.0325 0
M  V30 16649 H 1830.57 -5.18254 2.76922 0
M  V30 16650 H 1832.1 -5.75699 2.03477 0
M  V30 16651 H 1833.51 -4.30731 3.78343 0
M  V30 16652 H 1831.91 -3.97075 4.49946 0
M  V30 16653 H 1832.98 -2.62099 4.07961 0
M  V30 16654 N 1834.32 -1.24018 -0.972487 0
M  V30 16655 C 1835.55 -1.10483 -1.75523 0
M  V30 16656 C 1835.97 0.338985 -1.8502 0
M  V30 16657 O 1835.33 1.24534 -1.31761 0
M  V30 16658 C 1835.38 -1.74396 -3.15624 0
M  V30 16659 O 1834.48 -1.01148 -3.99804 0
M  V30 16660 H 1833.82 -0.386777 -0.539722 0
M  V30 16661 H 1836.35 -1.64231 -1.22022 0
M  V30 16662 H 1836.36 -1.79958 -3.66168 0
M  V30 16663 H 1835.04 -2.7945 -3.08026 0
M  V30 16664 H 1833.62 -1.03338 -3.58296 0
M  V30 16665 N 1835.8 1.17245 -1.05316 0
M  V30 16666 C 1837.03 1.91176 -0.783273 0
M  V30 16667 C 1837.44 1.77128 0.664996 0
M  V30 16668 O 1836.78 1.10682 1.46612 0
M  V30 16669 C 1836.84 3.42708 -1.0859 0
M  V30 16670 C 1836.51 3.80539 -2.5306 0
M  V30 16671 C 1837.5 3.8328 -3.51272 0
M  V30 16672 C 1835.19 4.11464 -2.88102 0
M  V30 16673 C 1837.18 4.16418 -4.82571 0
M  V30 16674 C 1834.87 4.44271 -4.19603 0
M  V30 16675 C 1835.87 4.46726 -5.16648 0
M  V30 16676 O 1835.56 4.7876 -6.4579 0
M  V30 16677 H 1835.29 0.613371 -0.284169 0
M  V30 16678 H 1837.84 1.49608 -1.40736 0
M  V30 16679 H 1836.07 3.84576 -0.404716 0
M  V30 16680 H 1837.76 3.97901 -0.801827 0
M  V30 16681 H 1838.53 3.59511 -3.25541 0
M  V30 16682 H 1834.41 4.08723 -2.13228 0
M  V30 16683 H 1837.95 4.1825 -5.58313 0
M  V30 16684 H 1833.85 4.67503 -4.45097 0
M  V30 16685 H 1834.62 4.96612 -6.5063 0
M  V30 16686 N 1837.28 0.834353 1.33702 0
M  V30 16687 C 1838.51 0.441228 2.02141 0
M  V30 16688 C 1838.92 -0.956226 1.62794 0
M  V30 16689 O 1838.28 -1.6207 0.839027 0
M  V30 16690 C 1838.33 0.547035 3.57337 0
M  V30 16691 O 1838.05 1.88942 3.95262 0
M  V30 16692 C 1839.55 0.150282 4.43045 0
M  V30 16693 H 1836.77 0.175681 0.647593 0
M  V30 16694 H 1839.32 1.12568 1.7073 0
M  V30 16695 H 1837.47 -0.0894532 3.87297 0
M  V30 16696 H 1837.88 1.87174 4.89965 0
M  V30 16697 H 1839.36 0.275374 5.51313 0
M  V30 16698 H 1839.84 -0.907361 4.29725 0
M  V30 16699 H 1840.44 0.761025 4.18436 0
M  V30 16700 N 1838.76 -1.46125 0.590367 0
M  V30 16701 C 1839.7 -2.32108 -0.151168 0
M  V30 16702 C 1840.7 -1.44943 -0.876804 0
M  V30 16703 O 1841.9 -1.61526 -0.794323 0
M  V30 16704 H 1838.28 -0.748954 -0.0676159 0
M  V30 16705 H 1840.25 -2.92454 0.592723 0
M  V30 16706 C 1839 -3.28253 -1.14653 0
M  V30 16707 H 1838.32 -3.95309 -0.597597 0
M  V30 16708 H 1839.76 -3.91181 -1.63564 0
M  V30 16709 C 1838.22 -2.54162 -2.21141 0
M  V30 16710 O 1838.75 -2.31029 -3.28616 0
M  V30 16711 N 1836.96 -2.14592 -1.95956 0
M  V30 16712 H 1836.5 -2.33606 -1.08564 0
M  V30 16713 H 1836.46 -1.65339 -2.67414 0
M  V30 16714 N 1840.23 -0.328564 -1.54137 0
M  V30 16715 C 1841.65 0.158467 -1.86026 0
M  V30 16716 C 1842 1.51216 -1.25012 0
M  V30 16717 O 1841.12 2.09081 -0.558029 0
M  V30 16718 C 1841.72 0.294317 -3.37519 0
M  V30 16719 C 1840.28 0.72557 -3.69341 0
M  V30 16720 C 1839.42 -0.149724 -2.76895 0
M  V30 16721 H 1842.37 -0.548678 -1.48913 0
M  V30 16722 H 1842.39 1.12438 -3.63508 0
M  V30 16723 H 1841.91 -0.691071 -3.81898 0
M  V30 16724 H 1840.01 1.72052 -3.30498 0
M  V30 16725 H 1840.12 0.525853 -4.76205 0
M  V30 16726 H 1838.48 0.375531 -2.51916 0
M  V30 16727 H 1839.27 -1.13197 -3.24101 0
M  V30 16728 N 1841.71 1.57497 -0.0568439 0
M  V30 16729 C 1842.68 2.10755 0.900823 0
M  V30 16730 C 1843.68 1.02835 1.23619 0
M  V30 16731 O 1844.87 1.28885 1.17194 0
M  V30 16732 C 1842 2.5965 2.20895 0
M  V30 16733 H 1843.19 2.96669 0.439041 0
M  V30 16734 H 1840.74 1.55121 0.191646 0
M  V30 16735 H 1841.48 1.77147 2.71642 0
M  V30 16736 H 1841.26 3.3852 1.97855 0
M  V30 16737 H 1842.75 3.00982 2.89482 0
M  V30 16738 N 1843.19 -0.216591 1.56105 0
M  V30 16739 C 1844.44 -0.941642 1.79613 0
M  V30 16740 C 1844.77 -1.83789 0.627323 0
M  V30 16741 O 1844.04 -1.90886 -0.373195 0
M  V30 16742 C 1844.33 -1.77634 3.13238 0
M  V30 16743 C 1844.18 -0.906251 4.40576 0
M  V30 16744 C 1845.5 -2.75315 3.4335 0
M  V30 16745 H 1842.62 -0.340898 0.65342 0
M  V30 16746 H 1845.26 -0.210217 1.88833 0
M  V30 16747 H 1843.41 -2.39993 3.05509 0
M  V30 16748 H 1845.08 -0.299023 4.6033 0
M  V30 16749 H 1843.33 -0.211902 4.33282 0
M  V30 16750 H 1844 -1.52478 5.30523 0
M  V30 16751 H 1846.47 -2.23091 3.5124 0
M  V30 16752 H 1845.35 -3.30816 4.38009 0
M  V30 16753 H 1845.61 -3.53301 2.65765 0
M  V30 16754 N 1844.67 -1.5 -0.48349 0
M  V30 16755 C 1845.63 -1.6742 -1.56535 0
M  V30 16756 C 1846.63 -0.545311 -1.51271 0
M  V30 16757 O 1847.82 -0.812112 -1.54112 0
M  V30 16758 C 1844.95 -1.6879 -2.9618 0
M  V30 16759 H 1846.15 -2.6393 -1.42412 0
M  V30 16760 H 1843.7 -1.39295 -0.708991 0
M  V30 16761 H 1844.43 -0.739285 -3.15761 0
M  V30 16762 H 1844.22 -2.50789 -3.01408 0
M  V30 16763 H 1845.71 -1.84264 -3.74749 0
M  V30 16764 N 1846.15 0.735796 -1.39369 0
M  V30 16765 C 1847.11 1.83148 -1.37802 0
M  V30 16766 C 1848.11 1.58426 -0.27528 0
M  V30 16767 O 1849.3 1.65841 -0.53314 0
M  V30 16768 C 1846.43 3.20923 -1.14984 0
M  V30 16769 H 1847.62 1.85941 -2.353 0
M  V30 16770 H 1845.18 0.939367 -1.24922 0
M  V30 16771 H 1845.91 3.23791 -0.181648 0
M  V30 16772 H 1845.7 3.40264 -1.94841 0
M  V30 16773 H 1847.19 4.00984 -1.16626 0
M  V30 16774 N 1847.63 1.24532 0.965897 0
M  V30 16775 C 1848.85 1.11318 1.74401 0
M  V30 16776 C 1849.27 -0.33411 1.8582 0
M  V30 16777 O 1848.63 -1.23044 1.34783 0
M  V30 16778 C 1848.68 1.74927 3.16358 0
M  V30 16779 O 1848.4 3.13998 3.05511 0
M  V30 16780 C 1849.9 1.67347 4.105 0
M  V30 16781 H 1847.12 0.388835 0.546853 0
M  V30 16782 H 1849.66 1.64674 1.21255 0
M  V30 16783 H 1847.82 1.2557 3.66485 0
M  V30 16784 H 1848.23 3.45097 3.94979 0
M  V30 16785 H 1849.71 2.16533 5.07757 0
M  V30 16786 H 1850.18 0.635036 4.34585 0
M  V30 16787 H 1850.79 2.16139 3.66284 0
M  V30 16788 N 1849.1 -1.16685 1.05936 0
M  V30 16789 C 1850.33 -1.91576 0.794558 0
M  V30 16790 C 1850.75 -1.76706 -0.644718 0
M  V30 16791 O 1850.11 -1.0899 -1.44882 0
M  V30 16792 C 1850.16 -3.40417 1.18947 0
M  V30 16793 O 1849.26 -4.11109 0.326091 0
M  V30 16794 H 1848.6 -0.596983 0.290702 0
M  V30 16795 H 1851.13 -1.47856 1.4142 0
M  V30 16796 H 1851.14 -3.91178 1.15947 0
M  V30 16797 H 1849.82 -3.5056 2.23786 0
M  V30 16798 H 1848.4 -3.70557 0.417347 0
M  V30 16799 N 1850.58 -0.841432 -1.33258 0
M  V30 16800 C 1851.54 -0.281685 -2.27462 0
M  V30 16801 C 1852.54 0.551062 -1.51063 0
M  V30 16802 O 1853.73 0.364482 -1.70344 0
M  V30 16803 C 1850.87 0.602896 -3.35526 0
M  V30 16804 H 1852.06 -1.11298 -2.78483 0
M  V30 16805 H 1849.61 -0.614717 -1.43704 0
M  V30 16806 H 1850.35 1.45652 -2.89751 0
M  V30 16807 H 1850.13 0.00701634 -3.92099 0
M  V30 16808 H 1851.62 0.987735 -4.05751 0
M  V30 16809 N 1852.06 1.4581 -0.598108 0
M  V30 16810 C 1853.01 2.32185 0.138857 0
M  V30 16811 C 1854 1.45406 0.869105 0
M  V30 16812 O 1855.21 1.61945 0.785746 0
M  V30 16813 H 1851.58 0.749302 0.0636431 0
M  V30 16814 H 1853.55 2.92136 -0.608224 0
M  V30 16815 C 1852.3 3.28856 1.12911 0
M  V30 16816 H 1851.63 3.9562 0.576625 0
M  V30 16817 H 1853.07 3.92043 1.61487 0
M  V30 16818 C 1851.52 2.55331 2.1979 0
M  V30 16819 O 1852.05 2.32768 3.27386 0
M  V30 16820 N 1850.26 2.15628 1.94815 0
M  V30 16821 H 1849.81 2.34178 1.07323 0
M  V30 16822 H 1849.77 1.66755 2.66533 0
M  V30 16823 N 1853.54 0.336733 1.53961 0
M  V30 16824 C 1854.47 -0.515664 2.27735 0
M  V30 16825 C 1855.45 -1.10835 1.29033 0
M  V30 16826 O 1856.63 -1.13102 1.57866 0
M  V30 16827 C 1853.76 -1.67015 3.04505 0
M  V30 16828 C 1852.72 -1.20613 4.10654 0
M  V30 16829 C 1852.04 -2.44861 4.75339 0
M  V30 16830 C 1853.34 -0.311507 5.2137 0
M  V30 16831 H 1855.04 0.0997513 2.99234 0
M  V30 16832 H 1852.58 0.0494157 1.43915 0
M  V30 16833 H 1854.54 -2.27286 3.54851 0
M  V30 16834 H 1853.26 -2.31236 2.30646 0
M  V30 16835 H 1851.92 -0.62628 3.61211 0
M  V30 16836 H 1851.57 -3.07474 3.98081 0
M  V30 16837 H 1851.27 -2.14498 5.47051 0
M  V30 16838 H 1852.79 -3.0587 5.28466 0
M  V30 16839 H 1854.21 -0.820868 5.67393 0
M  V30 16840 H 1852.6 -0.100073 6.00017 0
M  V30 16841 H 1853.67 0.654181 4.80467 0
M  V30 16842 O 1855.05 -1.60197 0.204746 0
M  V30 16843 H 1855.75 -1.89958 -0.378899 0
M  V30 END ATOM
M  V30 BEGIN BOND
M  V30 END BOND
M  V30 END CTAB
M  END
$$$$
