drugbank_target|P15954 Cytochrome c oxidase subunit 7C, mitochondrial (DB02659; DB04464)
 OpenBabel12092120443D

  0  0  0     0  0            999 V3000
M  V30 BEGIN CTAB
M  V30 COUNTS 1036 1049 0 0 0
M  V30 BEGIN ATOM
M  V30 1 H -0.908 1.98254 -0.117106 0
M  V30 2 N 0 1.576 0 0
M  V30 3 C 0.933 2.03868 1.02534 0
M  V30 4 C 1.911 0.928543 1.3348 0
M  V30 5 O 3.095 1.19667 1.45644 0
M  V30 6 C 0.222 2.43627 2.35294 0
M  V30 7 C -0.732 3.65373 2.2001 0
M  V30 8 S 0.101 5.13292 1.52614 0
M  V30 9 C 1.257 5.56322 2.86805 0
M  V30 10 H 1.49 2.90518 0.631377 0
M  V30 11 H -0.977 1.52953 0.210867 0
M  V30 12 H 0.981 2.67203 3.11629 0
M  V30 13 H -0.358 1.57376 2.7183 0
M  V30 14 H -1.165 3.90944 3.18086 0
M  V30 15 H -1.563 3.418 1.51819 0
M  V30 16 H 0.729 5.58782 3.83104 0
M  V30 17 H 1.672 6.56266 2.65933 0
M  V30 18 H 2.08 4.83886 2.90714 0
M  V30 19 N 1.4781 -0.272755 1.55222 0
M  V30 20 C 2.4081 -1.34136 1.91127 0
M  V30 21 C 3.3891 -1.51513 0.773168 0
M  V30 22 O 4.5741 -1.64552 1.03132 0
M  V30 23 C 1.7041 -2.70083 2.1834 0
M  V30 24 C 0.6581 -2.67437 3.34158 0
M  V30 25 C -0.0159 -4.06938 3.46851 0
M  V30 26 C 1.2841 -2.26686 4.70543 0
M  V30 27 H 2.9781 -1.04333 2.80633 0
M  V30 28 H 0.5241 -0.500454 1.35024 0
M  V30 29 H 2.4771 -3.44952 2.42046 0
M  V30 30 H 1.2011 -3.01469 1.25634 0
M  V30 31 H -0.1399 -1.95026 3.1042 0
M  V30 32 H -0.4919 -4.35547 2.51611 0
M  V30 33 H -0.7919 -4.06062 4.2472 0
M  V30 34 H 0.7321 -4.83545 3.72849 0
M  V30 35 H 2.1461 -2.91277 4.93792 0
M  V30 36 H 0.5431 -2.36971 5.5133 0
M  V30 37 H 1.6131 -1.21818 4.69349 0
M  V30 38 N 2.9562 -1.48159 -0.537278 0
M  V30 39 C 4.2042 -1.55497 -1.29094 0
M  V30 40 C 4.5252 -0.227454 -1.93669 0
M  V30 41 O 3.7952 0.750386 -1.80959 0
M  V30 42 H 2.3752 -0.572832 -0.47945 0
M  V30 43 H 5.0372 -1.84579 -0.625818 0
M  V30 44 H 4.1332 -2.33216 -2.07405 0
M  V30 45 N 4.4343 0.785586 -1.36625 0
M  V30 46 C 5.3663 1.90711 -1.2713 0
M  V30 47 C 6.3793 1.61688 -0.189986 0
M  V30 48 O 7.5683 1.72864 -0.445014 0
M  V30 49 C 4.6683 3.25611 -0.939713 0
M  V30 50 C 3.8413 3.82385 -2.12369 0
M  V30 51 C 2.9003 4.95732 -1.76456 0
M  V30 52 O 1.9263 5.12047 -2.48589 0
M  V30 53 N 3.1283 5.76258 -0.700492 0
M  V30 54 H 5.8933 1.99376 -2.23762 0
M  V30 55 H 3.4543 0.964041 -1.30069 0
M  V30 56 H 5.4463 3.98937 -0.680554 0
M  V30 57 H 4.0163 3.12538 -0.0624074 0
M  V30 58 H 3.2363 3.01001 -2.54543 0
M  V30 59 H 4.5243 4.17047 -2.9146 0
M  V30 60 H 3.9223 5.65609 -0.101624 0
M  V30 61 H 2.4793 6.4987 -0.501165 0
M  V30 62 N 5.9124 1.20967 1.01018 0
M  V30 63 C 7.1374 1.0503 1.78839 0
M  V30 64 C 7.5624 -0.395752 1.8389 0
M  V30 65 O 6.9204 -1.28529 1.27867 0
M  V30 66 C 6.9684 1.64602 3.2084 0
M  V30 67 O 6.0724 0.887988 4.02726 0
M  V30 68 H 5.4134 0.369987 0.551367 0
M  V30 69 H 7.9434 1.60399 1.27018 0
M  V30 70 H 7.9534 1.68607 3.71532 0
M  V30 71 H 6.6284 2.69841 3.16479 0
M  V30 72 H 5.2054 0.922648 3.61305 0
M  V30 73 N 7.3905 -1.2043 1.01659 0
M  V30 74 C 8.6395 -1.89118 0.701237 0
M  V30 75 C 8.9525 -1.79705 -0.772358 0
M  V30 76 O 10.1585 -2.43528 -1.20026 0
M  V30 77 C 8.6145 -3.39168 1.20388 0
M  V30 78 C 8.2225 -3.57166 2.70438 0
M  V30 79 C 9.9665 -4.1341 0.963953 0
M  V30 80 C 7.8735 -5.01042 3.14183 0
M  V30 81 H 6.8035 -0.708267 0.2586 0
M  V30 82 H 9.4545 -1.36239 1.22927 0
M  V30 83 H 7.8365 -3.91369 0.603824 0
M  V30 84 H 9.0105 -3.15351 3.35992 0
M  V30 85 H 7.3255 -2.96294 2.92572 0
M  V30 86 H 9.9225 -5.19491 1.26621 0
M  V30 87 H 10.2655 -4.16181 -0.099578 0
M  V30 88 H 10.7985 -3.67309 1.52738 0
M  V30 89 H 7.5375 -5.03426 4.19812 0
M  V30 90 H 7.0575 -5.43668 2.53348 0
M  V30 91 H 8.7365 -5.69623 3.0682 0
M  V30 92 N 8.8686 -0.792821 -1.36206 0
M  V30 93 C 10.2846 -0.474903 -1.52371 0
M  V30 94 C 10.4846 1.00622 -1.74578 0
M  V30 95 O 9.5406 1.79162 -1.77924 0
M  V30 96 C 10.8536 -1.3083 -2.70747 0
M  V30 97 C 12.4016 -1.30234 -2.84619 0
M  V30 98 C 12.8766 -2.11956 -4.06004 0
M  V30 99 N 14.3676 -2.09419 -4.13156 0
M  V30 100 C 15.1026 -2.69419 -5.06163 0
M  V30 101 N 14.5986 -3.3829 -6.04592 0
M  V30 102 N 16.3916 -2.59134 -4.98804 0
M  V30 103 H 8.5426 -1.75222 -1.20046 0
M  V30 104 H 10.8056 -0.745024 -0.586211 0
M  V30 105 H 10.5116 -2.35881 -2.6087 0
M  V30 106 H 10.3856 -0.95196 -3.6499 0
M  V30 107 H 12.7726 -0.259748 -2.93955 0
M  V30 108 H 12.8536 -1.69847 -1.91274 0
M  V30 109 H 12.4976 -3.16248 -3.97429 0
M  V30 110 H 12.4276 -1.69711 -4.98503 0
M  V30 111 H 14.9186 -1.59297 -3.42685 0
M  V30 112 H 15.2316 -3.81394 -6.7213 0
M  V30 113 H 13.5766 -3.42393 -6.04807 0
M  V30 114 H 16.7676 -2.04927 -4.20859 0
M  V30 115 H 16.9406 -3.06185 -5.711 0
M  V30 116 N 10.3467 1.47872 -0.545128 0
M  V30 117 C 11.7627 1.5829 -0.204032 0
M  V30 118 C 11.9627 1.54529 1.29317 0
M  V30 119 O 11.0187 1.44232 2.07252 0
M  V30 120 C 12.3317 2.89304 -0.819987 0
M  V30 121 C 13.8797 3.02864 -0.790105 0
M  V30 122 C 14.3547 4.3656 -1.38491 0
M  V30 123 N 15.8457 4.43165 -1.34755 0
M  V30 124 C 16.5807 5.45153 -1.77753 0
M  V30 125 N 16.0767 6.54016 -2.2855 0
M  V30 126 N 17.8697 5.36125 -1.68897 0
M  V30 127 H 10.0207 1.4856 -1.51802 0
M  V30 128 H 12.2837 0.706305 -0.632327 0
M  V30 129 H 11.9897 2.97757 -1.87173 0
M  V30 130 H 11.8637 3.75957 -0.305915 0
M  V30 131 H 14.2507 2.94014 0.252913 0
M  V30 132 H 14.3317 2.17782 -1.34181 0
M  V30 133 H 13.9757 4.46164 -2.42693 0
M  V30 134 H 13.9057 5.20353 -0.808754 0
M  V30 135 H 16.3967 3.65083 -0.975855 0
M  V30 136 H 16.7097 7.27994 -2.59314 0
M  V30 137 H 15.0547 6.54938 -2.32553 0
M  V30 138 H 18.2457 4.49975 -1.28998 0
M  V30 139 H 18.4187 6.15472 -2.02726 0
M  V30 140 N 11.8248 0.280983 1.55075 0
M  V30 141 C 13.0718 -0.334115 1.99725 0
M  V30 142 C 13.3998 -1.5542 1.1694 0
M  V30 143 O 12.6548 -1.94361 0.228531 0
M  V30 144 C 12.9538 -0.754656 3.49342 0
M  V30 145 C 12.6198 0.361445 4.49449 0
M  V30 146 C 11.2818 0.667893 4.76542 0
M  V30 147 C 13.6338 1.11322 5.09173 0
M  V30 148 C 10.9618 1.7296 5.60626 0
M  V30 149 C 13.3138 2.1647 5.9441 0
M  V30 150 C 11.9778 2.47742 6.19822 0
M  V30 151 H 11.2478 -0.122261 0.730844 0
M  V30 152 H 13.8948 0.395917 1.87363 0
M  V30 153 H 12.1998 -1.56446 3.5921 0
M  V30 154 H 13.8968 -1.24142 3.813 0
M  V30 155 H 10.4868 0.112481 4.28452 0
M  V30 156 H 14.6708 0.88973 4.8826 0
M  V30 157 H 9.9268 1.97684 5.78559 0
M  V30 158 H 14.1008 2.75193 6.3972 0
M  V30 159 H 11.7278 3.30145 6.84769 0
M  V30 160 N 13.3029 -1.57598 0.00835791 0
M  V30 161 C 14.5309 -1.95214 -0.68549 0
M  V30 162 C 14.9459 -0.883706 -1.66841 0
M  V30 163 O 14.3029 0.136565 -1.81988 0
M  V30 164 C 14.3539 -3.32865 -1.41007 0
M  V30 165 O 14.0749 -4.35609 -0.466552 0
M  V30 166 C 15.5759 -3.84991 -2.19765 0
M  V30 167 H 12.7959 -0.643422 -0.190392 0
M  V30 168 H 15.3399 -2.04406 0.0619607 0
M  V30 169 H 13.4949 -3.24956 -2.10908 0
M  V30 170 H 13.9089 -5.15288 -0.978699 0
M  V30 171 H 15.3829 -4.8371 -2.65948 0
M  V30 172 H 15.8599 -3.18137 -3.02796 0
M  V30 173 H 16.4659 -3.96103 -1.54864 0
M  V30 174 N 14.781 0.264519 -1.55364 0
M  V30 175 C 16.009 1.013 -1.80405 0
M  V30 176 C 16.424 1.79618 -0.581622 0
M  V30 177 O 15.781 1.76879 0.449468 0
M  V30 178 C 15.832 1.96487 -3.03439 0
M  V30 179 O 15.553 1.21341 -4.20961 0
M  V30 180 C 17.054 2.83079 -3.41147 0
M  V30 181 H 14.274 0.298875 -0.600762 0
M  V30 182 H 16.818 0.292736 -2.02394 0
M  V30 183 H 14.973 2.63965 -2.83551 0
M  V30 184 H 15.387 1.85573 -4.90574 0
M  V30 185 H 16.861 3.4565 -4.30384 0
M  V30 186 H 17.338 3.53286 -2.60932 0
M  V30 187 H 17.944 2.2108 -3.63323 0
M  V30 188 N 16.2591 1.48442 0.529413 0
M  V30 189 C 17.4841 1.60406 1.31471 0
M  V30 190 C 17.9091 0.264738 1.86228 0
M  V30 191 O 17.2671 -0.763668 1.64432 0
M  V30 192 C 17.3151 2.65419 2.44101 0
M  V30 193 O 16.4191 2.22618 3.47153 0
M  V30 194 H 15.7601 0.537863 0.389357 0
M  V30 195 H 18.2901 1.94432 0.636965 0
M  V30 196 H 18.3001 2.86709 2.90279 0
M  V30 197 H 16.9751 3.62652 2.03608 0
M  V30 198 H 15.5521 2.11543 3.0709 0
M  V30 199 N 17.7372 -0.778329 1.37039 0
M  V30 200 C 18.9832 -1.53892 1.32079 0
M  V30 201 C 19.3162 -1.9396 -0.0965386 0
M  V30 202 O 18.5912 -1.63568 -1.05242 0
M  V30 203 C 18.8742 -2.80847 2.25382 0
M  V30 204 C 18.7272 -2.47076 3.75864 0
M  V30 205 C 20.0462 -3.82741 2.1725 0
M  V30 206 H 17.1652 -0.558303 0.48111 0
M  V30 207 H 19.8072 -0.893397 1.67685 0
M  V30 208 H 17.9572 -3.35931 1.95148 0
M  V30 209 H 19.6292 -1.97957 4.16666 0
M  V30 210 H 17.8722 -1.79863 3.94755 0
M  V30 211 H 18.5432 -3.37798 4.36574 0
M  V30 212 H 21.0192 -3.37133 2.43887 0
M  V30 213 H 19.8952 -4.69303 2.84686 0
M  V30 214 H 20.1562 -4.2652 1.16331 0
M  V30 215 N 19.2153 -1.21501 -1.00376 0
M  V30 216 C 20.4613 -1.03452 -1.74429 0
M  V30 217 C 20.7943 0.430764 -1.89362 0
M  V30 218 O 20.0693 1.31962 -1.42886 0
M  V30 219 C 20.3523 -1.73375 -3.15615 0
M  V30 220 C 20.2053 -3.27431 -3.08397 0
M  V30 221 C 21.5243 -1.47732 -4.14564 0
M  V30 222 H 18.6433 -0.377226 -0.633143 0
M  V30 223 H 21.2853 -1.49693 -1.17013 0
M  V30 224 H 19.4353 -1.34064 -3.64636 0
M  V30 225 H 21.1073 -3.76119 -2.67081 0
M  V30 226 H 19.3503 -3.5767 -2.45468 0
M  V30 227 H 20.0213 -3.71524 -4.08258 0
M  V30 228 H 22.4973 -1.8186 -3.74254 0
M  V30 229 H 21.3733 -1.99169 -5.11491 0
M  V30 230 H 21.6343 -0.407589 -4.40217 0
M  V30 231 N 20.6934 1.19889 -1.02296 0
M  V30 232 C 22.1094 1.41462 -0.738954 0
M  V30 233 C 22.3094 1.89721 0.678846 0
M  V30 234 O 21.3654 2.07016 1.4457 0
M  V30 235 C 22.6784 2.43083 -1.77005 0
M  V30 236 C 24.2264 2.5684 -1.78892 0
M  V30 237 C 24.7014 3.61709 -2.80945 0
M  V30 238 N 26.1924 3.69199 -2.79725 0
M  V30 239 C 26.9274 4.50019 -3.55345 0
M  V30 240 N 26.4234 5.34592 -4.40662 0
M  V30 241 N 28.2164 4.44612 -3.43914 0
M  V30 242 H 20.3674 0.868827 -1.93817 0
M  V30 243 H 22.6304 0.44399 -0.837602 0
M  V30 244 H 22.3364 2.14636 -2.78612 0
M  V30 245 H 22.2104 3.4217 -1.58744 0
M  V30 246 H 24.5974 2.84614 -0.779674 0
M  V30 247 H 24.6784 1.57927 -2.01228 0
M  V30 248 H 24.3224 3.34678 -3.82038 0
M  V30 249 H 24.2524 4.60259 -2.5587 0
M  V30 250 H 26.7434 3.08794 -2.17842 0
M  V30 251 H 27.0564 5.93363 -4.95116 0
M  V30 252 H 25.4014 5.34073 -4.44737 0
M  V30 253 H 28.5924 3.7758 -2.76679 0
M  V30 254 H 28.7654 5.0736 -4.031 0
M  V30 255 N 22.1715 0.800033 1.35784 0
M  V30 256 C 23.5875 0.482977 1.52117 0
M  V30 257 C 23.7875 -0.996948 1.75109 0
M  V30 258 O 22.8435 -1.78216 1.78872 0
M  V30 259 C 24.1565 1.32264 2.70049 0
M  V30 260 C 25.7045 1.31742 2.83924 0
M  V30 261 C 26.1795 2.14106 4.04874 0
M  V30 262 N 27.6705 2.11607 4.12039 0
M  V30 263 C 28.4055 2.72099 5.04727 0
M  V30 264 N 27.9015 3.41492 6.02789 0
M  V30 265 N 29.6945 2.61776 4.97423 0
M  V30 266 H 21.8455 1.75856 1.19115 0
M  V30 267 H 24.1085 0.748122 0.582252 0
M  V30 268 H 23.8145 2.37261 2.59616 0
M  V30 269 H 23.6885 0.971303 3.6448 0
M  V30 270 H 26.0755 0.275333 2.93813 0
M  V30 271 H 26.1565 1.70859 1.9037 0
M  V30 272 H 25.8005 3.18351 3.95746 0
M  V30 273 H 25.7305 1.72353 4.97596 0
M  V30 274 H 28.2215 1.61112 3.41835 0
M  V30 275 H 28.5345 3.84953 6.70098 0
M  V30 276 H 26.8795 3.45596 6.02983 0
M  V30 277 H 30.0705 2.07157 4.19766 0
M  V30 278 H 30.2435 3.0921 5.69468 0
M  V30 279 N 23.6496 -1.47581 0.552962 0
M  V30 280 C 24.8746 -2.07378 0.0300593 0
M  V30 281 C 25.2996 -1.40355 -1.25229 0
M  V30 282 O 24.6576 -0.477099 -1.7491 0
M  V30 283 C 24.7056 -3.60274 -0.153231 0
M  V30 284 O 23.8096 -3.94041 -1.21678 0
M  V30 285 H 23.1506 -0.662158 0.0494182 0
M  V30 286 H 25.6806 -1.89662 0.767434 0
M  V30 287 H 25.6906 -4.0633 -0.368761 0
M  V30 288 H 24.3656 -4.08455 0.783397 0
M  V30 289 H 22.9426 -3.59735 -0.982079 0
M  V30 290 N 25.1277 -0.289203 -1.54924 0
M  V30 291 C 26.0777 0.606939 -2.19773 0
M  V30 292 C 27.0617 1.10783 -1.16687 0
M  V30 293 O 28.2537 1.05057 -1.4245 0
M  V30 294 C 25.3827 1.78398 -2.93307 0
M  V30 295 C 24.4687 1.29961 -4.03697 0
M  V30 296 N 24.8597 0.532377 -5.0299 0
M  V30 297 C 23.1577 1.58136 -4.17024 0
M  V30 298 C 23.8587 0.275912 -5.81045 0
M  V30 299 N 22.8347 0.852365 -5.36876 0
M  V30 300 H 26.6367 0.0130779 -2.93897 0
M  V30 301 H 24.1507 -0.09341 -1.62131 0
M  V30 302 H 26.1477 2.43741 -3.38225 0
M  V30 303 H 24.8077 2.38166 -2.20697 0
M  V30 304 H 25.8187 0.17838 -5.17593 0
M  V30 305 H 22.4957 2.18738 -3.55612 0
M  V30 306 H 23.8857 -0.339502 -6.71042 0
M  V30 307 N 26.6058 1.57591 -0.0167156 0
M  V30 308 C 27.8358 1.95292 0.674149 0
M  V30 309 C 28.2438 0.891097 1.66901 0
M  V30 310 O 27.5868 -0.136908 1.83189 0
M  V30 311 C 27.6488 3.29072 1.44747 0
M  V30 312 C 27.3128 4.52879 0.612331 0
M  V30 313 C 28.3098 5.1979 -0.107126 0
M  V30 314 C 25.9948 4.99242 0.553381 0
M  V30 315 C 27.9888 6.31375 -0.874339 0
M  V30 316 C 25.6758 6.10713 -0.217546 0
M  V30 317 C 26.6738 6.76637 -0.930123 0
M  V30 318 O 26.3618 7.85969 -1.68844 0
M  V30 319 H 26.0938 0.648275 0.191615 0
M  V30 320 H 28.6478 2.05284 -0.0690148 0
M  V30 321 H 26.8778 3.15535 2.2355 0
M  V30 322 H 28.5668 3.51764 2.02526 0
M  V30 323 H 29.3328 4.84948 -0.0708392 0
M  V30 324 H 25.2118 4.47744 1.09757 0
M  V30 325 H 28.7558 6.82764 -1.43106 0
M  V30 326 H 24.6528 6.44994 -0.255593 0
M  V30 327 H 25.4208 8.02571 -1.6069 0
M  V30 328 N 28.0839 -0.256276 1.55502 0
M  V30 329 C 28.9939 -1.33882 1.92647 0
M  V30 330 C 30.0099 -1.53159 0.825727 0
M  V30 331 O 31.1859 -1.66963 1.12629 0
M  V30 332 C 28.2509 -2.6751 2.20543 0
M  V30 333 C 27.3119 -2.56836 3.43997 0
M  V30 334 C 26.5449 -3.84092 3.70553 0
M  V30 335 O 26.7679 -4.85545 2.99336 0
M  V30 336 O 25.7019 -3.83288 4.64084 0
M  V30 337 H 29.5279 -1.05374 2.84833 0
M  V30 338 H 27.1129 -0.456237 1.42263 0
M  V30 339 H 28.9949 -3.46492 2.39835 0
M  V30 340 H 27.6699 -2.9577 1.31536 0
M  V30 341 H 26.5769 -1.76172 3.30021 0
M  V30 342 H 27.9099 -2.33523 4.33275 0
M  V30 343 N 29.562 -1.4872 -0.521534 0
M  V30 344 C 30.472 -1.66569 -1.65203 0
M  V30 345 C 31.488 -0.548197 -1.65139 0
M  V30 346 O 32.664 -0.820339 -1.83936 0
M  V30 347 C 29.729 -1.70917 -3.01642 0
M  V30 348 C 28.79 -2.94356 -3.12495 0
M  V30 349 C 28.023 -2.98487 -4.42426 0
M  V30 350 O 28.246 -2.10786 -5.30024 0
M  V30 351 O 27.18 -3.90746 -4.57822 0
M  V30 352 H 31.006 -2.62298 -1.5308 0
M  V30 353 H 28.591 -1.3222 -0.695565 0
M  V30 354 H 30.473 -1.7625 -3.82771 0
M  V30 355 H 29.148 -0.783633 -3.14071 0
M  V30 356 H 28.055 -2.94552 -2.3063 0
M  V30 357 H 29.388 -3.86322 -3.04986 0
M  V30 358 N 31.0401 0.771051 -1.3745 0
M  V30 359 C 32.2881 1.52661 -1.32435 0
M  V30 360 C 32.6091 1.9479 0.0905024 0
M  V30 361 O 31.8791 1.66348 1.03466 0
M  V30 362 H 30.4591 0.566218 -0.487244 0
M  V30 363 H 33.1211 0.917636 -1.71946 0
M  V30 364 H 32.2171 2.42568 -1.96385 0
M  V30 365 N 32.5182 1.22032 0.997298 0
M  V30 366 C 33.9292 1.0397 1.55071 0
M  V30 367 C 34.2802 -0.398192 1.92117 0
M  V30 368 O 33.4052 -1.28254 1.74298 0
M  V30 369 C 34.0002 1.88109 2.81781 0
M  V30 370 C 32.5592 1.74357 3.33581 0
M  V30 371 C 31.7062 1.84846 2.06706 0
M  V30 372 H 34.6572 1.35941 0.818883 0
M  V30 373 H 34.6782 1.39589 3.53971 0
M  V30 374 H 34.1902 2.92754 2.54787 0
M  V30 375 H 32.2912 0.72427 3.65493 0
M  V30 376 H 32.4042 2.56772 4.04481 0
M  V30 377 H 30.7682 1.28238 2.20062 0
M  V30 378 H 31.5512 2.91014 1.82114 0
M  V30 379 N 33.9963 -1.19345 1.0293 0
M  V30 380 C 35.2443 -1.88665 0.724574 0
M  V30 381 C 35.5653 -1.80036 -0.749144 0
M  V30 382 O 34.8353 -1.2111 -1.53978 0
M  V30 383 H 33.4153 -0.698406 0.265025 0
M  V30 384 H 36.0773 -1.44885 1.30362 0
M  V30 385 H 35.1733 -2.94987 1.01926 0
M  V30 386 N 35.4744 -0.807222 -1.35358 0
M  V30 387 C 36.4214 -0.216037 -2.29787 0
M  V30 388 C 37.3914 0.650278 -1.52842 0
M  V30 389 O 38.5764 0.595227 -1.81278 0
M  V30 390 C 35.7164 0.628893 -3.39321 0
M  V30 391 C 34.8294 -0.257927 -4.31229 0
M  V30 392 C 33.9644 0.595069 -5.27856 0
M  V30 393 C 33.0034 -0.292111 -6.11403 0
M  V30 394 N 32.1404 0.520895 -7.00165 0
M  V30 395 H 36.9804 -1.02671 -2.79755 0
M  V30 396 H 34.5174 -0.517839 -1.37684 0
M  V30 397 H 36.4754 1.13393 -4.01494 0
M  V30 398 H 35.1054 1.40482 -2.90628 0
M  V30 399 H 34.1574 -0.881076 -3.70056 0
M  V30 400 H 35.4694 -0.940759 -4.89848 0
M  V30 401 H 34.6234 1.16522 -5.95405 0
M  V30 402 H 33.3624 1.31146 -4.69736 0
M  V30 403 H 32.3674 -0.874525 -5.428 0
M  V30 404 H 33.5924 -1.00638 -6.71602 0
M  V30 405 H 31.5384 1.22125 -6.44532 0
M  V30 406 H 31.4554 -0.103877 -7.55929 0
M  V30 407 H 32.7234 1.0743 -7.72062 0
M  V30 408 N 36.9525 1.47285 -0.560781 0
M  V30 409 C 37.9005 2.31756 0.197942 0
M  V30 410 C 38.8945 1.43146 0.905854 0
M  V30 411 O 40.1005 1.59891 0.826733 0
M  V30 412 H 36.4755 0.747438 0.0827049 0
M  V30 413 H 38.4465 2.9359 -0.533629 0
M  V30 414 C 37.1955 3.25874 1.21249 0
M  V30 415 H 36.5185 3.94023 0.67719 0
M  V30 416 H 37.9585 3.87803 1.71419 0
M  V30 417 C 36.4175 2.49651 2.26221 0
M  V30 418 O 36.9475 2.24355 3.33208 0
M  V30 419 N 35.1535 2.10597 2.00243 0
M  V30 420 H 34.7005 2.31369 1.13252 0
M  V30 421 H 34.6585 1.59913 2.70694 0
M  V30 422 N 38.4306 0.297415 1.54768 0
M  V30 423 C 39.3606 -0.573494 2.26348 0
M  V30 424 C 40.3416 -1.14085 1.26169 0
M  V30 425 O 41.5266 -1.17086 1.54934 0
M  V30 426 C 38.6566 -1.74716 3.00153 0
M  V30 427 C 37.6106 -1.31032 4.07449 0
M  V30 428 C 36.9366 -2.56887 4.68949 0
M  V30 429 C 38.2366 -0.444183 5.20408 0
M  V30 430 H 39.9306 0.0235131 2.99391 0
M  V30 431 H 37.4766 0.0127488 1.43994 0
M  V30 432 H 39.4296 -2.3625 3.48947 0
M  V30 433 H 38.1536 -2.37035 2.24682 0
M  V30 434 H 36.8126 -0.718066 3.59499 0
M  V30 435 H 36.4606 -3.17512 3.90122 0
M  V30 436 H 36.1606 -2.2836 5.41411 0
M  V30 437 H 37.6846 -3.19229 5.20505 0
M  V30 438 H 39.0986 -0.9651 5.65118 0
M  V30 439 H 37.4956 -0.252846 5.99567 0
M  V30 440 H 38.5656 0.531609 4.81977 0
M  V30 441 N 39.9087 -1.5758 0.0250728 0
M  V30 442 C 41.3197 -1.79476 -0.514323 0
M  V30 443 C 41.6707 -0.934956 -1.72491 0
M  V30 444 O 40.7957 -0.144245 -2.15919 0
M  V30 445 C 41.3907 -3.25503 -0.939842 0
M  V30 446 C 39.9497 -3.48408 -1.42438 0
M  V30 447 C 39.0967 -2.74583 -0.387201 0
M  V30 448 H 42.0477 -1.567 0.25113 0
M  V30 449 H 42.0687 -3.34992 -1.80445 0
M  V30 450 H 41.5807 -3.88056 -0.0585628 0
M  V30 451 H 39.6817 -2.91103 -2.32572 0
M  V30 452 H 39.7947 -4.57119 -1.43455 0
M  V30 453 H 38.1587 -2.39942 -0.854409 0
M  V30 454 H 38.9417 -3.39849 0.485543 0
M  V30 455 N 41.3868 0.248026 -1.55636 0
M  V30 456 C 42.6338 0.976224 -1.77415 0
M  V30 457 C 42.9618 1.85361 -0.589193 0
M  V30 458 O 42.2168 1.90973 0.427529 0
M  V30 459 C 42.5158 1.86819 -3.04686 0
M  V30 460 C 42.1818 1.14625 -4.36087 0
M  V30 461 C 40.8438 0.946723 -4.71795 0
M  V30 462 C 43.1958 0.634463 -5.17324 0
M  V30 463 C 40.5238 0.223091 -5.86276 0
M  V30 464 C 42.8758 -0.0756959 -6.32555 0
M  V30 465 C 41.5398 -0.286711 -6.66884 0
M  V30 466 H 40.8098 0.357226 -0.649208 0
M  V30 467 H 43.4568 0.246415 -1.89908 0
M  V30 468 H 41.7618 2.66502 -2.872 0
M  V30 469 H 43.4588 2.43329 -3.18735 0
M  V30 470 H 40.0488 1.3117 -4.08035 0
M  V30 471 H 44.2328 0.77616 -4.90193 0
M  V30 472 H 39.4888 0.0491185 -6.1138 0
M  V30 473 H 43.6628 -0.479899 -6.94745 0
M  V30 474 H 41.2898 -0.849389 -7.5544 0
M  V30 475 N 42.8649 1.48995 0.513639 0
M  V30 476 C 44.0899 1.61792 1.29762 0
M  V30 477 C 44.5149 0.284475 1.85936 0
M  V30 478 O 43.8729 -0.746185 1.65232 0
M  V30 479 C 43.9209 2.67993 2.41272 0
M  V30 480 O 43.0249 2.26287 3.44772 0
M  V30 481 H 42.3659 0.541963 0.38363 0
M  V30 482 H 44.8959 1.95097 0.616307 0
M  V30 483 H 44.9059 2.89772 2.87221 0
M  V30 484 H 43.5809 3.64791 1.9975 0
M  V30 485 H 42.1579 2.14788 3.04829 0
M  V30 486 N 44.343 -0.763751 1.37857 0
M  V30 487 C 45.589 -1.52483 1.33704 0
M  V30 488 C 45.922 -1.94051 -0.0759612 0
M  V30 489 O 45.197 -1.64675 -1.03501 0
M  V30 490 C 45.48 -2.78441 2.28348 0
M  V30 491 C 45.333 -2.43075 3.78463 0
M  V30 492 C 46.652 -3.80415 2.21298 0
M  V30 493 H 43.771 -0.553169 0.487005 0
M  V30 494 H 46.413 -0.875562 1.68624 0
M  V30 495 H 44.563 -3.33842 1.987 0
M  V30 496 H 46.235 -1.93527 4.18742 0
M  V30 497 H 44.478 -1.75666 3.96641 0
M  V30 498 H 45.149 -3.33149 4.40132 0
M  V30 499 H 47.625 -3.34527 2.47449 0
M  V30 500 H 46.501 -4.66257 2.89647 0
M  V30 501 H 46.762 -4.25262 1.20849 0
M  V30 502 N 45.8211 -1.22559 -0.990812 0
M  V30 503 C 46.7311 -1.01394 -2.11557 0
M  V30 504 C 47.7471 0.0383962 -1.73958 0
M  V30 505 O 48.9231 -0.154787 -2.00804 0
M  V30 506 C 45.9881 -0.596569 -3.41529 0
M  V30 507 C 45.0491 -1.72276 -3.93217 0
M  V30 508 C 44.2821 -1.32521 -5.16985 0
M  V30 509 O 44.5051 -0.204909 -5.70032 0
M  V30 510 O 43.4391 -2.14247 -5.62478 0
M  V30 511 H 47.2651 -1.95633 -2.32296 0
M  V30 512 H 44.8501 -1.01172 -1.0993 0
M  V30 513 H 46.7321 -0.374263 -4.19735 0
M  V30 514 H 45.4071 0.316939 -3.22145 0
M  V30 515 H 44.3141 -1.99961 -3.16174 0
M  V30 516 H 45.6471 -2.61421 -4.17037 0
M  V30 517 N 47.2992 1.18797 -1.03562 0
M  V30 518 C 48.2472 2.24297 -0.615905 0
M  V30 519 C 49.2412 1.65643 0.354808 0
M  V30 520 O 50.4472 1.78618 0.22265 0
M  V30 521 H 46.8222 0.729909 -0.180934 0
M  V30 522 H 48.7932 2.5701 -1.5162 0
M  V30 523 C 47.5422 3.47698 0.0104735 0
M  V30 524 H 46.8652 3.93125 -0.727509 0
M  V30 525 H 48.3052 4.23159 0.266995 0
M  V30 526 C 46.7642 3.12489 1.25905 0
M  V30 527 O 47.2942 3.25761 2.35038 0
M  V30 528 N 45.5002 2.6686 1.15039 0
M  V30 529 H 45.0472 2.56261 0.262328 0
M  V30 530 H 45.0052 2.43674 1.98672 0
M  V30 531 N 48.7773 0.814389 1.34928 0
M  V30 532 C 49.7243 0.22822 2.29669 0
M  V30 533 C 50.6943 -0.642164 1.53184 0
M  V30 534 O 51.8793 -0.585605 1.81591 0
M  V30 535 C 49.0193 -0.61089 3.3965 0
M  V30 536 C 48.1323 0.280792 4.31086 0
M  V30 537 C 47.2673 -0.567067 5.28165 0
M  V30 538 C 46.3063 0.324531 6.11239 0
M  V30 539 N 45.4433 -0.483756 7.00431 0
M  V30 540 H 50.2833 1.04153 2.79206 0
M  V30 541 H 47.8203 0.525133 1.37407 0
M  V30 542 H 49.7783 -1.11263 4.0209 0
M  V30 543 H 48.4083 -1.38939 2.91369 0
M  V30 544 H 47.4603 0.900688 3.69583 0
M  V30 545 H 48.7723 0.966723 4.89342 0
M  V30 546 H 47.9263 -1.13363 5.96015 0
M  V30 547 H 46.6653 -1.28654 4.70425 0
M  V30 548 H 45.6703 0.903298 5.42329 0
M  V30 549 H 46.8953 1.04198 6.71059 0
M  V30 550 H 44.8413 -1.18706 6.45171 0
M  V30 551 H 44.7583 0.143965 7.55863 0
M  V30 552 H 46.0263 -1.03334 7.7262 0
M  V30 553 N 50.2554 -1.46986 0.568584 0
M  V30 554 C 51.5014 -2.0332 0.0571487 0
M  V30 555 C 51.8564 -1.43384 -1.28291 0
M  V30 556 O 51.1494 -0.584304 -1.82473 0
M  V30 557 C 51.3434 -3.57306 -0.081836 0
M  V30 558 C 51.1724 -4.32174 1.24321 0
M  V30 559 C 49.9424 -4.71633 1.81358 0
M  V30 560 C 52.1404 -4.66598 2.16312 0
M  V30 561 N 50.1224 -5.31191 3.07748 0
M  V30 562 C 51.4934 -5.26578 3.27285 0
M  V30 563 C 53.5484 -4.48527 2.16166 0
M  V30 564 C 52.2514 -5.70395 4.38226 0
M  V30 565 C 54.2774 -4.93351 3.26127 0
M  V30 566 C 53.6394 -5.5339 4.3582 0
M  V30 567 H 49.7384 -0.77943 0.063351 0
M  V30 568 H 52.3224 -1.79323 0.758378 0
M  V30 569 H 50.4934 -3.81046 -0.752207 0
M  V30 570 H 52.2254 -4.00282 -0.59637 0
M  V30 571 H 48.9804 -4.53946 1.35019 0
M  V30 572 H 49.4044 -5.65505 3.72201 0
M  V30 573 H 54.0464 -4.01456 1.32638 0
M  V30 574 H 51.7644 -6.16452 5.22506 0
M  V30 575 H 55.3504 -4.81131 3.27115 0
M  V30 576 H 54.2304 -5.87441 5.19503 0
M  V30 577 N 51.7335 -0.305618 -1.54608 0
M  V30 578 C 52.9585 0.307562 -2.05107 0
M  V30 579 C 53.3835 1.46385 -1.18123 0
M  V30 580 O 52.7415 1.8034 -0.186324 0
M  V30 581 C 52.7895 0.73704 -3.52987 0
M  V30 582 O 51.8935 1.84134 -3.6901 0
M  V30 583 H 51.2345 0.0589143 -0.661381 0
M  V30 584 H 53.7645 -0.448807 -1.99617 0
M  V30 585 H 53.7745 1.02459 -3.94925 0
M  V30 586 H 52.4495 -0.108773 -4.15758 0
M  V30 587 H 51.0265 1.55398 -3.38978 0
M  V30 588 N 53.2116 1.57565 -0.0334293 0
M  V30 589 C 54.1416 2.13511 0.945265 0
M  V30 590 C 55.1226 1.05231 1.33643 0
M  V30 591 O 56.3076 1.33084 1.41429 0
M  V30 592 C 53.4376 2.6657 2.22616 0
M  V30 593 C 52.3916 3.79676 1.97561 0
M  V30 594 C 51.7176 4.1918 3.31952 0
M  V30 595 C 53.0176 5.0557 1.31135 0
M  V30 596 H 54.7116 2.95538 0.479325 0
M  V30 597 H 52.2576 1.42166 0.229115 0
M  V30 598 H 54.2106 3.04344 2.91466 0
M  V30 599 H 52.9346 1.8171 2.71384 0
M  V30 600 H 51.5936 3.42347 1.31127 0
M  V30 601 H 51.2416 3.31296 3.78487 0
M  V30 602 H 50.9416 4.95402 3.15992 0
M  V30 603 H 52.4656 4.59541 4.02063 0
M  V30 604 H 53.8796 5.40903 1.89992 0
M  V30 605 H 52.2766 5.86818 1.25559 0
M  V30 606 H 53.3466 4.84062 0.284894 0
M  V30 607 N 54.6897 -0.239769 1.55765 0
M  V30 608 C 55.6197 -1.30052 1.9393 0
M  V30 609 C 56.6007 -1.49839 0.805132 0
M  V30 610 O 57.7857 -1.62328 1.06599 0
M  V30 611 C 54.9157 -2.65391 2.2402 0
M  V30 612 C 53.8697 -2.60289 3.39755 0
M  V30 613 C 53.1957 -3.99489 3.55405 0
M  V30 614 C 54.4957 -2.16654 4.75246 0
M  V30 615 H 56.1897 -0.983573 2.82783 0
M  V30 616 H 53.7357 -0.471701 1.36055 0
M  V30 617 H 55.6887 -3.3974 2.49308 0
M  V30 618 H 54.4127 -2.98736 1.32 0
M  V30 619 H 53.0717 -1.88398 3.14487 0
M  V30 620 H 52.7197 -4.30112 2.60793 0
M  V30 621 H 52.4197 -3.96962 4.33238 0
M  V30 622 H 53.9437 -4.75528 3.83022 0
M  V30 623 H 55.3577 -2.80737 4.99859 0
M  V30 624 H 53.7547 -2.25223 5.56232 0
M  V30 625 H 54.8247 -1.11835 4.71827 0
M  V30 626 N 56.1678 -1.49265 -0.50573 0
M  V30 627 C 57.1308 -1.65075 -1.59006 0
M  V30 628 C 58.1308 -0.522768 -1.52065 0
M  V30 629 O 59.3208 -0.789117 -1.55302 0
M  V30 630 C 56.4528 -1.64369 -2.98656 0
M  V30 631 H 57.6458 -2.61784 -1.46319 0
M  V30 632 H 55.1988 -1.38226 -0.729616 0
M  V30 633 H 55.9338 -0.692272 -3.16825 0
M  V30 634 H 55.7188 -2.46282 -3.05103 0
M  V30 635 H 57.2088 -1.78674 -3.77446 0
M  V30 636 N 57.6459 0.756429 -1.3826 0
M  V30 637 C 58.5929 1.87011 -1.35261 0
M  V30 638 C 59.5629 1.64695 -0.215616 0
M  V30 639 O 60.7479 1.864 -0.407399 0
M  V30 640 C 57.8879 3.24275 -1.18068 0
M  V30 641 C 57.0009 3.58442 -2.41129 0
M  V30 642 C 56.1359 4.84994 -2.16689 0
M  V30 643 C 55.1749 5.11939 -3.35537 0
M  V30 644 N 54.3119 6.29685 -3.10549 0
M  V30 645 H 59.1519 1.8891 -2.30472 0
M  V30 646 H 56.6889 0.923373 -1.14509 0
M  V30 647 H 58.6469 4.03479 -1.06116 0
M  V30 648 H 57.2769 3.21711 -0.264973 0
M  V30 649 H 56.3289 2.74103 -2.63764 0
M  V30 650 H 57.6409 3.74283 -3.29717 0
M  V30 651 H 56.7949 5.72135 -2.01857 0
M  V30 652 H 55.5339 4.71286 -1.25462 0
M  V30 653 H 54.5389 4.23268 -3.50891 0
M  V30 654 H 55.7639 5.27546 -4.27635 0
M  V30 655 H 53.7099 6.17306 -2.21967 0
M  V30 656 H 53.6269 6.46014 -3.92686 0
M  V30 657 H 54.8949 7.19722 -2.99367 0
M  V30 658 N 59.124 1.23083 0.984299 0
M  V30 659 C 60.057 0.951786 2.07404 0
M  V30 660 C 61.035 -0.10848 1.62238 0
M  V30 661 O 62.219 0.0249467 1.88483 0
M  V30 662 C 59.346 0.433142 3.35919 0
M  V30 663 C 58.392 1.47941 4.0002 0
M  V30 664 S 59.225 3.05556 4.39768 0
M  V30 665 C 60.381 2.55351 5.71442 0
M  V30 666 H 60.614 1.87456 2.30754 0
M  V30 667 H 58.147 1.06284 1.11996 0
M  V30 668 H 60.105 0.140506 4.10259 0
M  V30 669 H 58.766 -0.468656 3.10584 0
M  V30 670 H 57.959 1.06658 4.92585 0
M  V30 671 H 57.561 1.7212 3.3204 0
M  V30 672 H 59.853 1.97128 6.48187 0
M  V30 673 H 60.796 3.46441 6.17563 0
M  V30 674 H 61.204 1.96339 5.29255 0
M  V30 675 N 60.6021 -1.18246 1.0419 0
M  V30 676 C 61.8421 -1.89948 0.754916 0
M  V30 677 C 62.2061 -1.78608 -0.70451 0
M  V30 678 O 63.4071 -2.4503 -1.10516 0
M  V30 679 C 61.6781 -3.36305 1.20969 0
M  V30 680 S 63.2371 -4.26088 1.04854 0
M  V30 681 H 60.0551 -0.655897 0.274446 0
M  V30 682 H 62.6571 -1.42873 1.33445 0
M  V30 683 H 61.3611 -3.42089 2.26722 0
M  V30 684 H 60.8921 -3.8842 0.624004 0
M  V30 685 H 62.9071 -4.96189 -0.0332896 0
M  V30 686 N 62.0802 -0.821533 -1.34494 0
M  V30 687 C 63.0102 -0.257138 -2.3208 0
M  V30 688 C 63.9912 0.625645 -1.58176 0
M  V30 689 O 65.1762 0.552811 -1.86166 0
M  V30 690 C 62.3062 0.582958 -3.42372 0
M  V30 691 C 61.2602 -0.202571 -4.2752 0
M  V30 692 C 60.5862 0.760179 -5.29269 0
M  V30 693 C 61.8862 -1.40998 -5.02908 0
M  V30 694 H 63.5802 -1.07247 -2.79532 0
M  V30 695 H 61.1262 -0.517163 -1.34393 0
M  V30 696 H 63.0792 0.987972 -4.09655 0
M  V30 697 H 61.8032 1.43133 -2.93565 0
M  V30 698 H 60.4622 -0.588936 -3.61838 0
M  V30 699 H 60.1102 1.60447 -4.76724 0
M  V30 700 H 59.8102 0.238809 -5.87115 0
M  V30 701 H 61.3342 1.16308 -5.9942 0
M  V30 702 H 62.7482 -1.07905 -5.63054 0
M  V30 703 H 61.1452 -1.86689 -5.70322 0
M  V30 704 H 62.2152 -2.1889 -4.32684 0
M  V30 705 N 63.5583 1.46682 -0.576371 0
M  V30 706 C 64.7883 2.06498 -0.0648694 0
M  V30 707 C 65.1963 1.42665 1.24271 0
M  V30 708 O 64.5393 0.523886 1.76071 0
M  V30 709 C 64.6013 3.5904 0.181816 0
M  V30 710 C 64.2653 4.45028 -1.0392 0
M  V30 711 C 65.2623 4.81959 -1.94966 0
M  V30 712 C 62.9473 4.86259 -1.25927 0
M  V30 713 C 64.9413 5.58942 -3.06371 0
M  V30 714 C 62.6283 5.63002 -2.37638 0
M  V30 715 C 63.6263 5.99257 -3.2769 0
M  V30 716 O 63.3143 6.7445 -4.37461 0
M  V30 717 H 63.0463 0.674028 -0.0515987 0
M  V30 718 H 65.6003 1.89393 -0.794951 0
M  V30 719 H 63.8303 3.74429 0.966436 0
M  V30 720 H 65.5193 4.00806 0.641047 0
M  V30 721 H 66.2853 4.50689 -1.79177 0
M  V30 722 H 62.1643 4.57494 -0.567448 0
M  V30 723 H 65.7083 5.87158 -3.76684 0
M  V30 724 H 61.6053 5.93686 -2.53392 0
M  V30 725 H 62.3733 6.92867 -4.35749 0
M  V30 726 N 65.0364 0.313813 1.54444 0
M  V30 727 C 66.2834 -0.291675 2.00388 0
M  V30 728 C 66.6114 -1.52904 1.2021 0
M  V30 729 O 65.8664 -1.93833 0.269707 0
M  V30 730 C 66.1654 -0.680386 3.50864 0
M  V30 731 C 65.8314 0.456699 4.48581 0
M  V30 732 C 64.4934 0.768824 4.75018 0
M  V30 733 C 66.8454 1.22098 5.06697 0
M  V30 734 C 64.1734 1.84812 5.56831 0
M  V30 735 C 66.5254 2.29029 5.89685 0
M  V30 736 C 65.1894 2.60834 6.14428 0
M  V30 737 H 64.4594 -0.106732 0.733273 0
M  V30 738 H 67.1064 0.43557 1.86481 0
M  V30 739 H 65.4114 -1.48791 3.62448 0
M  V30 740 H 67.1084 -1.16026 3.83847 0
M  V30 741 H 63.6984 0.203337 4.28117 0
M  V30 742 H 67.8824 0.993096 4.86263 0
M  V30 743 H 63.1384 2.09912 5.74236 0
M  V30 744 H 67.3124 2.887 6.33739 0
M  V30 745 H 64.9394 3.44596 6.77612 0
M  V30 746 N 66.5145 -1.57545 0.0417849 0
M  V30 747 C 67.7625 -1.91937 -0.632829 0
M  V30 748 C 68.0835 -0.919978 -1.71934 0
M  V30 749 O 67.3535 0.0366064 -1.95866 0
M  V30 750 H 65.9335 -0.708493 -0.236742 0
M  V30 751 H 68.5955 -1.9468 0.0925745 0
M  V30 752 H 67.6915 -2.92912 -1.07746 0
M  V30 753 N 67.9926 0.231505 -1.5589 0
M  V30 754 C 69.2176 0.978689 -1.82856 0
M  V30 755 C 69.6426 1.77559 -0.620846 0
M  V30 756 O 69.0006 1.76119 0.430305 0
M  V30 757 C 69.0486 1.87997 -3.07716 0
M  V30 758 O 68.1526 2.97393 -2.85712 0
M  V30 759 H 67.4936 0.277663 -0.603158 0
M  V30 760 H 70.0236 0.24783 -2.03093 0
M  V30 761 H 70.0336 2.2917 -3.37558 0
M  V30 762 H 68.7086 1.29417 -3.95252 0
M  V30 763 H 67.2856 2.60238 -2.67078 0
M  V30 764 N 69.4707 1.49531 0.497807 0
M  V30 765 C 70.4337 1.65916 1.58128 0
M  V30 766 C 71.4337 0.530825 1.51786 0
M  V30 767 O 72.6237 0.797342 1.54881 0
M  V30 768 C 69.7557 1.65951 2.9778 0
M  V30 769 H 70.9487 2.62556 1.44929 0
M  V30 770 H 68.5017 1.38611 0.722275 0
M  V30 771 H 69.2367 0.709065 3.16453 0
M  V30 772 H 69.0217 2.47897 3.03792 0
M  V30 773 H 70.5117 1.80673 3.76493 0
M  V30 774 N 70.9488 -0.749086 1.3866 0
M  V30 775 C 72.1958 -1.50833 1.35114 0
M  V30 776 C 72.5238 -1.94415 -0.0574049 0
M  V30 777 O 71.7788 -1.66065 -1.03541 0
M  V30 778 C 72.0778 -2.7712 2.25697 0
M  V30 779 C 71.7438 -2.52477 3.73585 0
M  V30 780 C 70.4058 -2.45466 4.13884 0
M  V30 781 C 72.7578 -2.31066 4.67181 0
M  V30 782 C 70.0858 -2.15064 5.45861 0
M  V30 783 C 72.4378 -2.02183 5.9942 0
M  V30 784 C 71.1018 -1.93631 6.38798 0
M  V30 785 H 70.3718 -0.551936 0.494416 0
M  V30 786 H 73.0188 -0.860979 1.71054 0
M  V30 787 H 71.3238 -3.46528 1.82827 0
M  V30 788 H 73.0208 -3.35096 2.20254 0
M  V30 789 H 69.6108 -2.58807 3.41638 0
M  V30 790 H 73.7948 -2.35459 4.3689 0
M  V30 791 H 69.0508 -2.06954 5.75308 0
M  V30 792 H 73.2248 -1.8462 6.71482 0
M  V30 793 H 70.8518 -1.69839 7.40985 0
M  V30 794 N 72.4269 -1.23603 -0.977757 0
M  V30 795 C 73.3899 -1.02069 -2.05218 0
M  V30 796 C 74.3899 0.0184305 -1.60789 0
M  V30 797 O 75.5799 -0.221569 -1.72785 0
M  V30 798 C 72.7119 -0.544926 -3.36517 0
M  V30 799 H 73.9049 -1.9742 -2.25755 0
M  V30 800 H 71.4579 -1.05684 -1.15155 0
M  V30 801 H 72.1929 0.412241 -3.21669 0
M  V30 802 H 71.9779 -1.2948 -3.70105 0
M  V30 803 H 73.4679 -0.414985 -4.15533 0
M  V30 804 N 73.905 1.17692 -1.04816 0
M  V30 805 C 75.133 1.91786 -0.776254 0
M  V30 806 C 75.548 1.76604 0.667577 0
M  V30 807 O 74.905 1.10067 1.45573 0
M  V30 808 C 74.956 3.42967 -1.14263 0
M  V30 809 O 74.677 3.57678 -2.52978 0
M  V30 810 C 76.178 4.34144 -0.896311 0
M  V30 811 H 73.398 0.608624 -0.282519 0
M  V30 812 H 75.942 1.49268 -1.39783 0
M  V30 813 H 74.097 3.83245 -0.565874 0
M  V30 814 H 74.511 4.51319 -2.67229 0
M  V30 815 H 75.985 5.38744 -1.20244 0
M  V30 816 H 76.462 4.38876 0.168636 0
M  V30 817 H 77.068 3.99574 -1.45672 0
M  V30 818 N 75.3831 0.828654 1.34056 0
M  V30 819 C 76.7941 0.477534 1.8049 0
M  V30 820 C 77.1451 -1.00258 1.6865 0
M  V30 821 O 76.2701 -1.78057 1.22982 0
M  V30 822 C 76.8651 0.860018 3.27703 0
M  V30 823 C 75.4241 0.561185 3.72193 0
M  V30 824 C 74.5711 1.07385 2.55663 0
M  V30 825 H 77.5221 1.0183 1.21722 0
M  V30 826 H 77.5431 0.166038 3.80138 0
M  V30 827 H 77.0551 1.93731 3.36288 0
M  V30 828 H 75.1561 -0.506465 3.69142 0
M  V30 829 H 75.2691 1.10926 4.66082 0
M  V30 830 H 73.6331 0.495149 2.49841 0
M  V30 831 H 74.4161 2.15771 2.67016 0
M  V30 832 N 76.8612 -1.46375 0.584142 0
M  V30 833 C 78.1082 -2.02378 0.0702675 0
M  V30 834 C 78.4362 -1.45545 -1.29023 0
M  V30 835 O 77.6912 -0.610967 -1.85918 0
M  V30 836 C 77.9902 -3.57373 -0.0439342 0
M  V30 837 C 77.6562 -4.33252 1.24915 0
M  V30 838 C 76.3182 -4.53701 1.60341 0
M  V30 839 C 78.6702 -4.7681 2.1048 0
M  V30 840 C 75.9982 -5.1496 2.81128 0
M  V30 841 C 78.3502 -5.39404 3.30494 0
M  V30 842 C 77.0142 -5.5808 3.66201 0
M  V30 843 H 76.2842 -0.740554 0.0257127 0
M  V30 844 H 78.9312 -1.75727 0.761065 0
M  V30 845 H 77.2362 -3.83169 -0.817869 0
M  V30 846 H 78.9332 -3.98384 -0.457318 0
M  V30 847 H 75.5232 -4.17633 0.963364 0
M  V30 848 H 79.7072 -4.60766 1.84414 0
M  V30 849 H 74.9632 -5.27611 3.08928 0
M  V30 850 H 79.1372 -5.72114 3.97063 0
M  V30 851 H 76.7642 -6.05318 4.59885 0
M  V30 852 N 78.3393 -0.321999 -1.54275 0
M  V30 853 C 79.2693 0.537411 -2.27231 0
M  V30 854 C 80.2503 1.12064 -1.27968 0
M  V30 855 O 81.4353 1.14606 -1.56777 0
M  V30 856 C 78.5653 1.69919 -3.02894 0
M  V30 857 C 77.5193 1.24534 -4.09482 0
M  V30 858 C 76.8453 2.49394 -4.72977 0
M  V30 859 C 78.1453 0.361335 -5.21049 0
M  V30 860 H 79.8393 -0.0711406 -2.99315 0
M  V30 861 H 77.3853 -0.0356555 -1.43956 0
M  V30 862 H 79.3383 2.30668 -3.52662 0
M  V30 863 H 78.0623 2.33431 -2.28424 0
M  V30 864 H 76.7213 0.660782 -3.60596 0
M  V30 865 H 76.3693 3.11265 -3.95124 0
M  V30 866 H 76.0693 2.19718 -5.44975 0
M  V30 867 H 77.5933 3.10908 -5.25517 0
M  V30 868 H 79.0073 0.875072 -5.66582 0
M  V30 869 H 77.4043 0.157428 -5.99893 0
M  V30 870 H 78.4743 -0.60822 -4.8107 0
M  V30 871 N 79.8174 1.5752 -0.0501392 0
M  V30 872 C 81.0634 1.92936 0.624798 0
M  V30 873 C 81.3964 0.928685 1.70555 0
M  V30 874 O 80.6714 -0.0454779 1.94447 0
M  V30 875 C 80.9544 3.38737 1.22185 0
M  V30 876 C 80.8074 4.49552 0.149218 0
M  V30 877 C 82.1264 3.84913 2.13378 0
M  V30 878 H 79.2454 0.701604 0.225657 0
M  V30 879 H 81.8874 1.89671 -0.111693 0
M  V30 880 H 80.0374 3.4165 1.84953 0
M  V30 881 H 81.7094 4.58768 -0.482648 0
M  V30 882 H 79.9524 4.30638 -0.522841 0
M  V30 883 H 80.6234 5.48653 0.606966 0
M  V30 884 H 83.0994 3.8387 1.60572 0
M  V30 885 H 81.9754 4.87584 2.52097 0
M  V30 886 H 82.2364 3.21611 3.03346 0
M  V30 887 N 81.2955 -0.223234 1.56011 0
M  V30 888 C 82.5415 -0.949279 1.79211 0
M  V30 889 C 82.8745 -1.84054 0.619494 0
M  V30 890 O 82.1495 -1.90726 -0.381317 0
M  V30 891 C 82.4325 -1.78965 3.12479 0
M  V30 892 C 82.2855 -0.924997 4.40186 0
M  V30 893 C 83.6045 -2.76774 3.42175 0
M  V30 894 H 80.7235 -0.343676 0.651963 0
M  V30 895 H 83.3655 -0.218253 1.88742 0
M  V30 896 H 81.5155 -2.41291 3.04485 0
M  V30 897 H 83.1875 -0.318615 4.60198 0
M  V30 898 H 81.4305 -0.230344 4.33188 0
M  V30 899 H 82.1015 -1.54735 5.29869 0
M  V30 900 H 84.5775 -2.24584 3.50287 0
M  V30 901 H 83.4535 -3.32678 4.36597 0
M  V30 902 H 83.7145 -3.54429 2.64258 0
M  V30 903 N 82.7736 -1.49793 -0.48987 0
M  V30 904 C 84.1896 -1.36803 -0.822022 0
M  V30 905 C 84.3896 -0.409652 -1.97292 0
M  V30 906 O 83.4456 0.154614 -2.52026 0
M  V30 907 C 84.7586 -2.77768 -1.15175 0
M  V30 908 C 86.3066 -2.86549 -1.25931 0
M  V30 909 C 86.7816 -4.28306 -1.62228 0
M  V30 910 N 88.2726 -4.31169 -1.69256 0
M  V30 911 C 89.0076 -5.37832 -1.98807 0
M  V30 912 N 88.5036 -6.54726 -2.26507 0
M  V30 913 N 90.2966 -5.25258 -2.00152 0
M  V30 914 H 82.4476 -2.10691 0.268881 0
M  V30 915 H 84.7106 -0.946241 0.057728 0
M  V30 916 H 84.4166 -3.49648 -0.379335 0
M  V30 917 H 84.2906 -3.13836 -2.09253 0
M  V30 918 H 86.6776 -2.14899 -2.02243 0
M  V30 919 H 86.7586 -2.54049 -0.298776 0
M  V30 920 H 86.4026 -5.00486 -0.864622 0
M  V30 921 H 86.3326 -4.58279 -2.594 0
M  V30 922 H 88.8236 -3.4687 -1.49965 0
M  V30 923 H 89.1366 -7.31833 -2.48276 0
M  V30 924 H 87.4816 -6.57933 -2.23939 0
M  V30 925 H 90.6726 -4.32938 -1.77996 0
M  V30 926 H 90.8456 -6.08476 -2.22848 0
M  V30 927 N 84.2517 0.741722 -1.39055 0
M  V30 928 C 85.2017 1.84661 -1.33732 0
M  V30 929 C 86.1857 1.59397 -0.219401 0
M  V30 930 O 87.3777 1.71015 -0.456375 0
M  V30 931 C 84.5067 3.22512 -1.17647 0
M  V30 932 C 83.5927 3.53628 -2.34112 0
M  V30 933 N 83.9837 3.55723 -3.59576 0
M  V30 934 C 82.2817 3.83956 -2.26923 0
M  V30 935 C 82.9827 3.84443 -4.36553 0
M  V30 936 N 81.9587 4.01877 -3.66055 0
M  V30 937 H 85.7607 1.84576 -2.28711 0
M  V30 938 H 83.2747 0.939647 -1.32455 0
M  V30 939 H 85.2717 4.01597 -1.11917 0
M  V30 940 H 83.9317 3.2384 -0.236124 0
M  V30 941 H 84.9427 3.37196 -3.93089 0
M  V30 942 H 81.6197 3.92929 -1.41113 0
M  V30 943 H 83.0097 3.92588 -5.45274 0
M  V30 944 N 85.7298 1.2412 0.971189 0
M  V30 945 C 86.6618 0.988349 2.06795 0
M  V30 946 C 87.6748 -0.0409541 1.62748 0
M  V30 947 O 88.8638 0.195673 1.77424 0
M  V30 948 C 85.9638 0.469023 3.35639 0
M  V30 949 C 85.1368 1.56065 4.08611 0
M  V30 950 C 84.1958 1.04458 5.15728 0
M  V30 951 O 83.2218 1.73553 5.42096 0
M  V30 952 N 84.4238 -0.122817 5.8037 0
M  V30 953 H 87.1888 1.93265 2.29061 0
M  V30 954 H 84.7498 1.15102 1.13856 0
M  V30 955 H 86.7418 0.108613 4.04554 0
M  V30 956 H 85.3118 -0.380919 3.1027 0
M  V30 957 H 84.5318 2.09341 3.34021 0
M  V30 958 H 85.8198 2.29449 4.54126 0
M  V30 959 H 85.2178 -0.700563 5.61345 0
M  V30 960 H 83.7748 -0.424404 6.50417 0
M  V30 961 N 87.2079 -1.17134 1.05439 0
M  V30 962 C 88.1379 -2.2342 0.678649 0
M  V30 963 C 89.1189 -1.66971 -0.32476 0
M  V30 964 O 90.3039 -1.93149 -0.201802 0
M  V30 965 C 87.4339 -3.47256 0.0552099 0
M  V30 966 C 86.3879 -4.16543 0.98365 0
M  V30 967 C 85.7139 -5.34231 0.223961 0
M  V30 968 C 87.0139 -4.68495 2.3089 0
M  V30 969 H 88.7079 -2.55105 1.56722 0
M  V30 970 H 86.2539 -1.2262 0.754998 0
M  V30 971 H 88.2069 -4.20828 -0.21946 0
M  V30 972 H 86.9309 -3.14846 -0.868319 0
M  V30 973 H 85.5899 -3.44887 1.24293 0
M  V30 974 H 85.2379 -4.98071 -0.702412 0
M  V30 975 H 84.9379 -5.81527 0.842627 0
M  V30 976 H 86.4619 -6.10585 -0.0433671 0
M  V30 977 H 87.8759 -5.33691 2.09396 0
M  V30 978 H 86.2729 -5.26379 2.88176 0
M  V30 979 H 87.3429 -3.85169 2.94572 0
M  V30 980 N 88.686 -0.835752 -1.33615 0
M  V30 981 C 89.616 -0.281739 -2.31794 0
M  V30 982 C 90.597 0.608833 -1.58831 0
M  V30 983 O 91.782 0.533035 -1.86741 0
M  V30 984 C 88.912 0.546612 -3.42971 0
M  V30 985 C 87.866 -0.247904 -4.27281 0
M  V30 986 C 87.192 0.704001 -5.30045 0
M  V30 987 C 88.492 -1.46324 -5.01385 0
M  V30 988 H 90.186 -1.10206 -2.78379 0
M  V30 989 H 87.732 -0.531388 -1.33837 0
M  V30 990 H 89.685 0.944467 -4.1068 0
M  V30 991 H 88.409 1.40011 -2.95067 0
M  V30 992 H 87.068 -0.627281 -3.61194 0
M  V30 993 H 86.716 1.55381 -4.78399 0
M  V30 994 H 86.416 0.176524 -5.87335 0
M  V30 995 H 87.94 1.09944 -6.0062 0
M  V30 996 H 89.354 -1.13871 -5.61877 0
M  V30 997 H 87.751 -1.92728 -5.6831 0
M  V30 998 H 88.821 -2.23467 -4.30338 0
M  V30 999 N 90.1641 1.46063 -0.591896 0
M  V30 1000 C 91.1111 2.30399 0.136069 0
M  V30 1001 C 92.0811 1.41169 0.875238 0
M  V30 1002 O 93.2661 1.70112 0.86409 0
M  V30 1003 C 90.4061 3.25804 1.13781 0
M  V30 1004 C 89.5191 4.30134 0.401137 0
M  V30 1005 C 88.6541 5.12659 1.39121 0
M  V30 1006 C 87.6931 6.0873 0.641462 0
M  V30 1007 N 86.8301 6.8409 1.58004 0
M  V30 1008 H 91.6701 2.92118 -0.589144 0
M  V30 1009 H 89.2071 1.43959 -0.302342 0
M  V30 1010 H 91.1651 3.79569 1.73156 0
M  V30 1011 H 89.7951 2.65872 1.83062 0
M  V30 1012 H 88.8471 3.79152 -0.307826 0
M  V30 1013 H 90.1591 4.98458 -0.184565 0
M  V30 1014 H 89.3131 5.70747 2.05749 0
M  V30 1015 H 88.0521 4.44316 2.01084 0
M  V30 1016 H 87.0571 5.49786 -0.0385419 0
M  V30 1017 H 88.2821 6.79095 0.0270945 0
M  V30 1018 H 86.2281 6.18449 2.18761 0
M  V30 1019 H 86.1451 7.48709 1.04738 0
M  V30 1020 H 87.4131 7.4673 2.23639 0
M  V30 1021 N 91.6422 0.330177 1.54103 0
M  V30 1022 C 92.8702 -0.272179 2.05102 0
M  V30 1023 C 93.2852 -1.45267 1.20595 0
M  V30 1024 O 92.6422 -1.8094 0.238144 0
M  V30 1025 C 92.6932 -0.70023 3.54653 0
M  V30 1026 O 92.4142 0.433301 4.35952 0
M  V30 1027 C 93.9152 -1.3647 4.21771 0
M  V30 1028 H 91.1352 -0.0549159 0.668749 0
M  V30 1029 H 93.6792 0.478285 1.98828 0
M  V30 1030 H 91.8342 -1.40066 3.61193 0
M  V30 1031 H 92.2482 0.0947539 5.24414 0
M  V30 1032 H 93.7222 -1.61509 5.27843 0
M  V30 1033 H 94.1992 -2.31409 3.73292 0
M  V30 1034 H 94.8052 -0.706675 4.19388 0
M  V30 1035 O 93.1592 -1.60283 0.197925 0
M  V30 1036 H 93.8502 -1.89795 -0.386981 0
M  V30 END ATOM
M  V30 BEGIN BOND
M  V30 END BOND
M  V30 END CTAB
M  END
$$$$
