drugbank_target|P16070 CD44 antigen (DB06550; DB08818)
 OpenBabel12092119483D

  0  0  0     0  0            999 V3000
M  V30 BEGIN CTAB
M  V30 COUNTS 11063 11207 0 0 0
M  V30 BEGIN ATOM
M  V30 1 H -0.908 1.98254 -0.117106 0
M  V30 2 N 0 1.576 0 0
M  V30 3 C 0.933 2.03868 1.02534 0
M  V30 4 C 1.911 0.928543 1.3348 0
M  V30 5 O 3.095 1.19667 1.45644 0
M  V30 6 C 0.222 2.43627 2.35294 0
M  V30 7 C -0.732 3.65373 2.2001 0
M  V30 8 S 0.101 5.13292 1.52614 0
M  V30 9 C 1.257 5.56322 2.86805 0
M  V30 10 H 1.49 2.90518 0.631377 0
M  V30 11 H -0.977 1.52953 0.210867 0
M  V30 12 H 0.981 2.67203 3.11629 0
M  V30 13 H -0.358 1.57376 2.7183 0
M  V30 14 H -1.165 3.90944 3.18086 0
M  V30 15 H -1.563 3.418 1.51819 0
M  V30 16 H 0.729 5.58782 3.83104 0
M  V30 17 H 1.672 6.56266 2.65933 0
M  V30 18 H 2.08 4.83886 2.90714 0
M  V30 19 N 1.4781 -0.272755 1.55222 0
M  V30 20 C 2.7551 -1.02562 1.66555 0
M  V30 21 C 3.1351 -2.04282 0.532189 0
M  V30 22 O 2.4831 -2.23662 -0.467717 0
M  V30 23 C 2.6931 -1.6822 3.05782 0
M  V30 24 C 4.0411 -2.19373 3.63539 0
M  V30 25 O 5.0651 -1.78206 3.08417 0
M  V30 26 O 3.9241 -2.94883 4.60115 0
M  V30 27 H 1.0181 -0.475755 0.676451 0
M  V30 28 H 3.5641 -0.268593 1.67561 0
M  V30 29 H 2.3361 -0.945112 3.79715 0
M  V30 30 H 1.9591 -2.50609 3.08676 0
M  V30 31 N 2.9562 -1.48159 -0.537278 0
M  V30 32 C 3.9032 -1.62138 -1.64256 0
M  V30 33 C 4.8732 -0.463668 -1.59497 0
M  V30 34 O 6.0582 -0.686241 -1.78032 0
M  V30 35 C 3.1982 -1.66028 -3.02537 0
M  V30 36 C 2.3112 -2.92855 -3.17585 0
M  V30 37 C 1.4462 -2.87952 -4.46382 0
M  V30 38 C 0.4852 -4.09516 -4.54932 0
M  V30 39 N -0.3778 -4.02733 -5.75109 0
M  V30 40 H 4.4622 -2.56529 -1.51647 0
M  V30 41 H 1.9992 -1.27224 -0.738414 0
M  V30 42 H 3.9572 -1.66265 -3.82638 0
M  V30 43 H 2.5872 -0.751331 -3.13934 0
M  V30 44 H 1.6392 -3.02395 -2.30784 0
M  V30 45 H 2.9512 -3.82822 -3.19764 0
M  V30 46 H 2.1052 -2.8655 -5.34765 0
M  V30 47 H 0.8442 -1.95702 -4.46712 0
M  V30 48 H -0.1508 -4.11201 -3.64957 0
M  V30 49 H 1.0742 -5.02917 -4.56346 0
M  V30 50 H -0.9798 -3.13299 -5.76351 0
M  V30 51 H -1.0628 -4.86397 -5.78752 0
M  V30 52 H 0.2052 -4.05379 -6.65799 0
M  V30 53 N 4.4343 0.785586 -1.36625 0
M  V30 54 C 5.6813 1.54362 -1.31067 0
M  V30 55 C 6.0093 1.94195 0.10893 0
M  V30 56 O 5.2643 1.63262 1.07908 0
M  V30 57 C 5.5633 2.83007 -2.1827 0
M  V30 58 C 5.2293 2.62294 -3.6676 0
M  V30 59 C 3.8913 2.56353 -4.0723 0
M  V30 60 C 6.2433 2.43371 -4.6089 0
M  V30 61 C 3.5713 2.29461 -5.39967 0
M  V30 62 C 5.9233 2.18005 -5.93849 0
M  V30 63 C 4.5873 2.105 -6.3344 0
M  V30 64 H 3.8573 0.564851 -0.479609 0
M  V30 65 H 6.5043 0.906028 -1.68711 0
M  V30 66 H 4.8093 3.51253 -1.73576 0
M  V30 67 H 6.5063 3.40817 -2.11292 0
M  V30 68 H 3.0963 2.67774 -3.34656 0
M  V30 69 H 7.2803 2.46959 -4.30494 0
M  V30 70 H 2.5363 2.22135 -5.69619 0
M  V30 71 H 6.7103 2.02359 -6.66351 0
M  V30 72 H 4.3373 1.89425 -7.36222 0
M  V30 73 N 5.9124 1.20967 1.01018 0
M  V30 74 C 7.1584 1.0353 1.7508 0
M  V30 75 C 7.5134 -0.42734 1.87594 0
M  V30 76 O 6.8064 -1.31298 1.3954 0
M  V30 77 C 7.0004 1.65997 3.16512 0
M  V30 78 C 6.8294 3.18184 3.17788 0
M  V30 79 C 5.5994 3.87198 3.24662 0
M  V30 80 C 7.7974 4.15334 3.03319 0
M  V30 81 N 5.7794 5.26618 3.15509 0
M  V30 82 C 7.1504 5.41472 3.02007 0
M  V30 83 C 9.2054 4.06449 2.87583 0
M  V30 84 C 7.9084 6.5975 2.86571 0
M  V30 85 C 9.9344 5.24357 2.73503 0
M  V30 86 C 9.2964 6.49404 2.72862 0
M  V30 87 H 5.3954 0.433137 0.651089 0
M  V30 88 H 7.9794 1.5324 1.20107 0
M  V30 89 H 6.1504 1.18863 3.69765 0
M  V30 90 H 7.8824 1.41816 3.79039 0
M  V30 91 H 4.6374 3.38093 3.31648 0
M  V30 92 H 5.0614 5.99626 3.14289 0
M  V30 93 H 9.7034 3.10573 2.86887 0
M  V30 94 H 7.4214 7.55792 2.86015 0
M  V30 95 H 11.0074 5.19299 2.62334 0
M  V30 96 H 9.8874 7.39105 2.62093 0
M  V30 97 N 7.3905 -1.2043 1.01659 0
M  V30 98 C 8.6365 -1.90356 0.716674 0
M  V30 99 C 8.9915 -1.77367 -0.745557 0
M  V30 100 O 8.2845 -1.1471 -1.53467 0
M  V30 101 C 8.4785 -3.40464 1.08714 0
M  V30 102 C 8.3075 -3.6806 2.58384 0
M  V30 103 C 7.0775 -3.86775 3.25167 0
M  V30 104 C 9.2755 -3.70623 3.56572 0
M  V30 105 N 7.2575 -4.01889 4.64067 0
M  V30 106 C 8.6285 -3.91161 4.81034 0
M  V30 107 C 10.6835 -3.53586 3.50544 0
M  V30 108 C 9.3865 -3.96428 6.00198 0
M  V30 109 C 11.4125 -3.60125 4.6911 0
M  V30 110 C 10.7745 -3.81135 5.92381 0
M  V30 111 H 6.8735 -0.716226 0.313918 0
M  V30 112 H 9.4575 -1.44815 1.30141 0
M  V30 113 H 7.6285 -3.84757 0.530745 0
M  V30 114 H 9.3605 -3.97863 0.740763 0
M  V30 115 H 6.1155 -3.85156 2.75594 0
M  V30 116 H 6.5395 -4.13323 5.36184 0
M  V30 117 H 11.1815 -3.36308 2.56235 0
M  V30 118 H 8.8995 -4.12502 6.94887 0
M  V30 119 H 12.4855 -3.4825 4.66062 0
M  V30 120 H 11.3655 -3.86054 6.82592 0
M  V30 121 N 8.8686 -0.792821 -1.36206 0
M  V30 122 C 9.8186 -0.166598 -2.27391 0
M  V30 123 C 10.8026 0.651479 -1.47121 0
M  V30 124 O 11.9946 0.510994 -1.69463 0
M  V30 125 C 9.1236 0.695033 -3.36191 0
M  V30 126 C 8.2096 -0.132019 -4.23894 0
M  V30 127 N 8.6006 -1.18822 -4.91645 0
M  V30 128 C 6.8986 0.0885952 -4.45912 0
M  V30 129 C 7.5996 -1.69198 -5.56549 0
M  V30 130 N 6.5756 -1.00065 -5.34311 0
M  V30 131 H 10.3776 -0.974947 -2.77258 0
M  V30 132 H 7.8916 -0.632616 -1.49572 0
M  V30 133 H 9.8886 1.1596 -4.00448 0
M  V30 134 H 8.5486 1.50189 -2.87877 0
M  V30 135 H 9.5596 -1.57069 -4.93507 0
M  V30 136 H 6.2366 0.865688 -4.08426 0
M  V30 137 H 7.6266 -2.57395 -6.20643 0
M  V30 138 N 10.3467 1.47872 -0.545128 0
M  V30 139 C 11.3097 2.28337 0.198717 0
M  V30 140 C 12.3097 1.36255 0.853888 0
M  V30 141 O 13.4997 1.59003 0.711606 0
M  V30 142 C 10.6317 3.15585 1.28915 0
M  V30 143 H 11.8247 2.95567 -0.507941 0
M  V30 144 H 9.3777 1.53362 -0.301616 0
M  V30 145 H 10.1127 2.53019 2.02859 0
M  V30 146 H 9.8977 3.83337 0.824309 0
M  V30 147 H 11.3877 3.76243 1.81194 0
M  V30 148 N 11.8248 0.280983 1.55075 0
M  V30 149 C 12.7878 -0.590896 2.21452 0
M  V30 150 C 13.7878 -1.07682 1.19421 0
M  V30 151 O 14.9778 -0.97605 1.44288 0
M  V30 152 C 12.1098 -1.81587 2.88511 0
M  V30 153 H 13.3028 -0.0112554 2.99898 0
M  V30 154 H 10.8558 0.0316438 1.56268 0
M  V30 155 H 11.5908 -2.43587 2.14093 0
M  V30 156 H 11.3758 -1.4753 3.63287 0
M  V30 157 H 12.8658 -2.43575 3.39206 0
M  V30 158 N 13.3029 -1.57598 0.00835791 0
M  V30 159 C 14.5489 -1.92046 -0.670055 0
M  V30 160 C 14.9039 -0.88351 -1.70915 0
M  V30 161 O 14.1969 0.103223 -1.91322 0
M  V30 162 C 14.3909 -3.3101 -1.34787 0
M  V30 163 C 14.2199 -4.48126 -0.375945 0
M  V30 164 C 12.9899 -5.05297 0.0166914 0
M  V30 165 C 15.1879 -5.1303 0.361272 0
M  V30 166 N 13.1699 -6.05931 0.985952 0
M  V30 167 C 14.5409 -6.08571 1.18495 0
M  V30 168 C 16.5959 -4.9609 0.42421 0
M  V30 169 C 15.2989 -6.88996 2.06584 0
M  V30 170 C 17.3249 -5.77107 1.29236 0
M  V30 171 C 16.6869 -6.72248 2.10386 0
M  V30 172 H 12.7859 -0.75096 -0.218136 0
M  V30 173 H 15.3699 -1.94572 0.0706669 0
M  V30 174 H 13.5409 -3.29342 -2.05884 0
M  V30 175 H 15.2729 -3.52864 -1.98164 0
M  V30 176 H 12.0279 -4.72279 -0.353435 0
M  V30 177 H 12.4519 -6.60932 1.4662 0
M  V30 178 H 17.0939 -4.22378 -0.188915 0
M  V30 179 H 14.8119 -7.62028 2.6896 0
M  V30 180 H 18.3979 -5.66038 1.34508 0
M  V30 181 H 17.2779 -7.33846 2.76476 0
M  V30 182 N 14.781 0.264519 -1.55364 0
M  V30 183 C 16.029 0.993021 -1.76021 0
M  V30 184 C 16.35 1.86511 -0.569099 0
M  V30 185 O 15.62 1.91438 0.415735 0
M  V30 186 H 14.2 0.369639 -0.649135 0
M  V30 187 H 16.862 0.286707 -1.9278 0
M  V30 188 H 15.958 1.62502 -2.66457 0
M  V30 189 N 16.2591 1.48442 0.529413 0
M  V30 190 C 17.1891 1.65902 1.64313 0
M  V30 191 C 18.1701 0.507897 1.6234 0
M  V30 192 O 19.3551 0.740503 1.79528 0
M  V30 193 C 16.4851 1.69911 3.02898 0
M  V30 194 C 15.4391 2.8453 3.19729 0
M  V30 195 C 14.7651 2.73629 4.59381 0
M  V30 196 C 16.0651 4.25821 3.02447 0
M  V30 197 H 17.7591 2.5914 1.49955 0
M  V30 198 H 15.3051 1.24709 0.719982 0
M  V30 199 H 17.2581 1.80715 3.80684 0
M  V30 200 H 15.9821 0.732524 3.18279 0
M  V30 201 H 14.6411 2.73283 2.44361 0
M  V30 202 H 14.2891 1.74938 4.71599 0
M  V30 203 H 13.9891 3.50541 4.71588 0
M  V30 204 H 15.5131 2.86401 5.39265 0
M  V30 205 H 16.9271 4.37898 3.70024 0
M  V30 206 H 15.3241 5.03735 3.26146 0
M  V30 207 H 16.3941 4.42244 1.98867 0
M  V30 208 N 17.7372 -0.778329 1.37039 0
M  V30 209 C 18.9772 -1.54973 1.33276 0
M  V30 210 C 19.3412 -1.91816 -0.0839376 0
M  V30 211 O 20.5422 -2.6767 -0.246228 0
M  V30 212 C 18.8132 -2.78517 2.23971 0
M  V30 213 S 20.3722 -3.6865 2.37997 0
M  V30 214 H 17.1902 -0.530639 0.473226 0
M  V30 215 H 19.7922 -0.915806 1.72723 0
M  V30 216 H 18.4962 -2.4952 3.25835 0
M  V30 217 H 18.0272 -3.46875 1.85584 0
M  V30 218 H 20.0422 -4.70182 1.58567 0
M  V30 219 N 19.2153 -1.21501 -1.00376 0
M  V30 220 C 20.1453 -0.999478 -2.11028 0
M  V30 221 C 21.1263 0.0759671 -1.6993 0
M  V30 222 O 22.3113 -0.0841106 -1.94018 0
M  V30 223 C 19.4413 -0.564709 -3.42678 0
M  V30 224 C 18.3953 -1.58486 -3.97576 0
M  V30 225 C 17.7213 -1.00628 -5.25146 0
M  V30 226 C 19.0213 -2.97204 -4.29496 0
M  V30 227 H 20.7153 -1.92495 -2.29317 0
M  V30 228 H 18.2613 -0.92693 -1.102 0
M  V30 229 H 20.2143 -0.401091 -4.19487 0
M  V30 230 H 18.9383 0.396411 -3.24185 0
M  V30 231 H 17.5973 -1.73606 -3.22888 0
M  V30 232 H 17.2453 -0.0368439 -5.02987 0
M  V30 233 H 16.9453 -1.68771 -5.62841 0
M  V30 234 H 18.4693 -0.854015 -6.04598 0
M  V30 235 H 19.8833 -2.8552 -4.97143 0
M  V30 236 H 18.2803 -3.62372 -4.78338 0
M  V30 237 H 19.3503 -3.47956 -3.3772 0
M  V30 238 N 20.6934 1.19889 -1.02296 0
M  V30 239 C 21.9394 1.89701 -0.717033 0
M  V30 240 C 22.2724 1.7905 0.751989 0
M  V30 241 O 21.5474 1.17891 1.547 0
M  V30 242 C 21.8304 3.40858 -1.16136 0
M  V30 243 C 21.6834 3.60411 -2.69117 0
M  V30 244 C 23.0024 4.33876 -0.737549 0
M  V30 245 H 20.1214 0.688874 -0.261957 0
M  V30 246 H 22.7634 1.41154 -1.27183 0
M  V30 247 H 20.9134 3.82335 -0.689342 0
M  V30 248 H 22.5854 3.28145 -3.2422 0
M  V30 249 H 20.8284 3.03665 -3.0979 0
M  V30 250 H 21.4994 4.66396 -2.95261 0
M  V30 251 H 23.9754 4.00081 -1.14344 0
M  V30 252 H 22.8514 5.38242 -1.0764 0
M  V30 253 H 23.1124 4.40628 0.360436 0
M  V30 254 N 22.1715 0.800033 1.35784 0
M  V30 255 C 23.5825 0.439142 1.81462 0
M  V30 256 C 23.9335 -1.03813 1.66485 0
M  V30 257 O 23.0585 -1.80626 1.19177 0
M  V30 258 C 23.6535 0.790314 3.29453 0
M  V30 259 C 22.2125 0.482111 3.733 0
M  V30 260 C 21.3595 1.01938 2.57883 0
M  V30 261 H 24.3105 0.992254 1.23855 0
M  V30 262 H 24.3315 0.0853677 3.80404 0
M  V30 263 H 23.8435 1.86554 3.40322 0
M  V30 264 H 21.9445 -0.584652 3.67984 0
M  V30 265 H 22.0575 1.01015 4.6833 0
M  V30 266 H 20.4215 0.442043 2.50835 0
M  V30 267 H 21.2045 2.10059 2.71533 0
M  V30 268 N 23.6496 -1.47581 0.552962 0
M  V30 269 C 24.5796 -2.32762 -0.185451 0
M  V30 270 C 25.5606 -1.43527 -0.912905 0
M  V30 271 O 26.7456 -1.72388 -0.894201 0
M  V30 272 C 23.8756 -3.25219 -1.21859 0
M  V30 273 C 22.8296 -4.23661 -0.607864 0
M  V30 274 C 22.1556 -5.05413 -1.74533 0
M  V30 275 C 23.4556 -5.20481 0.435582 0
M  V30 276 H 25.1496 -2.94749 0.525684 0
M  V30 277 H 22.6956 -1.41738 0.254251 0
M  V30 278 H 24.6486 -3.8365 -1.7433 0
M  V30 279 H 23.3726 -2.61279 -1.95961 0
M  V30 280 H 22.0316 -3.66451 -0.104489 0
M  V30 281 H 21.6796 -4.3788 -2.47529 0
M  V30 282 H 21.3796 -5.72059 -1.34249 0
M  V30 283 H 22.9036 -5.66701 -2.27338 0
M  V30 284 H 24.3176 -5.733 -0.00290157 0
M  V30 285 H 22.7146 -5.95305 0.757067 0
M  V30 286 H 23.7846 -4.66217 1.33303 0
M  V30 287 N 25.1277 -0.289203 -1.54924 0
M  V30 288 C 26.3527 0.329299 -2.04769 0
M  V30 289 C 26.7777 1.4763 -1.16564 0
M  V30 290 O 26.1357 1.80527 -0.167186 0
M  V30 291 C 26.1837 0.774438 -3.52186 0
M  V30 292 O 25.2877 1.88038 -3.67036 0
M  V30 293 H 24.6287 0.0659259 -0.660719 0
M  V30 294 H 27.1587 -0.42761 -2.00082 0
M  V30 295 H 27.1687 1.06642 -3.93816 0
M  V30 296 H 25.8437 -0.0646707 -4.1585 0
M  V30 297 H 24.4207 1.58985 -3.3731 0
M  V30 298 N 26.6058 1.57591 -0.0167156 0
M  V30 299 C 27.5358 2.12496 0.967858 0
M  V30 300 C 28.5168 1.03807 1.34752 0
M  V30 301 O 29.7018 1.31577 1.42833 0
M  V30 302 C 26.8318 2.64194 2.25431 0
M  V30 303 C 25.7858 3.77559 2.01576 0
M  V30 304 C 25.1118 4.15636 3.36379 0
M  V30 305 C 26.4118 5.04151 1.36489 0
M  V30 306 H 28.1058 2.95013 0.510643 0
M  V30 307 H 25.6518 1.41915 0.244181 0
M  V30 308 H 27.6048 3.01236 2.94678 0
M  V30 309 H 26.3288 1.78821 2.73296 0
M  V30 310 H 24.9878 3.40937 1.34751 0
M  V30 311 H 24.6358 3.27263 3.81979 0
M  V30 312 H 24.3358 4.92022 3.21229 0
M  V30 313 H 25.8598 4.5525 4.06915 0
M  V30 314 H 27.2738 5.38857 1.95718 0
M  V30 315 H 25.6708 5.85453 1.31776 0
M  V30 316 H 26.7408 4.83733 0.336219 0
M  V30 317 N 28.0839 -0.256276 1.55502 0
M  V30 318 C 29.0469 -1.30047 1.88734 0
M  V30 319 C 30.0469 -1.4154 0.763086 0
M  V30 320 O 31.2369 -1.40403 1.03115 0
M  V30 321 C 28.3689 -2.67953 2.10747 0
M  V30 322 H 29.5619 -1.01802 2.82093 0
M  V30 323 H 27.1149 -0.495134 1.4825 0
M  V30 324 H 27.8499 -3.01351 1.19825 0
M  V30 325 H 27.6349 -2.60993 2.92617 0
M  V30 326 H 29.1249 -3.43368 2.37673 0
M  V30 327 N 29.562 -1.4872 -0.521534 0
M  V30 328 C 30.494 -1.59968 -1.64143 0
M  V30 329 C 31.507 -0.483463 -1.55456 0
M  V30 330 O 32.696 -0.75467 -1.61762 0
M  V30 331 C 29.796 -1.52127 -3.02838 0
M  V30 332 C 28.969 -2.78932 -3.36921 0
M  V30 333 C 28.028 -2.64428 -4.54933 0
M  V30 334 O 27.054 -3.38331 -4.57735 0
M  V30 335 N 28.256 -1.74606 -5.53618 0
M  V30 336 H 31.021 -2.56548 -1.54929 0
M  V30 337 H 28.582 -1.45551 -0.708988 0
M  V30 338 H 30.574 -1.40106 -3.79674 0
M  V30 339 H 29.144 -0.634868 -3.06085 0
M  V30 340 H 28.364 -3.05455 -2.4918 0
M  V30 341 H 29.652 -3.63041 -3.56481 0
M  V30 342 H 29.05 -1.13782 -5.54139 0
M  V30 343 H 27.607 -1.6852 -6.29638 0
M  V30 344 N 31.0401 0.771051 -1.3745 0
M  V30 345 C 32.2891 1.52491 -1.3202 0
M  V30 346 C 32.6021 1.9538 0.0927347 0
M  V30 347 O 33.8081 2.70159 0.269503 0
M  V30 348 C 32.2641 2.75366 -2.31736 0
M  V30 349 C 31.8721 2.39573 -3.78562 0
M  V30 350 C 33.6161 3.53307 -2.35318 0
M  V30 351 C 31.5231 3.58954 -4.70007 0
M  V30 352 H 30.4531 0.572506 -0.490666 0
M  V30 353 H 33.1041 0.844474 -1.62914 0
M  V30 354 H 31.4861 3.45303 -1.93861 0
M  V30 355 H 32.6601 1.77415 -4.25277 0
M  V30 356 H 30.9751 1.74805 -3.77932 0
M  V30 357 H 33.5721 4.42039 -3.00842 0
M  V30 358 H 33.9151 3.93217 -1.36698 0
M  V30 359 H 34.4481 2.90367 -2.71904 0
M  V30 360 H 31.1871 3.24125 -5.69757 0
M  V30 361 H 30.7071 4.20214 -4.27996 0
M  V30 362 H 32.3861 4.25758 -4.87175 0
M  V30 363 N 32.5182 1.22032 0.997298 0
M  V30 364 C 33.7952 0.950823 1.70935 0
M  V30 365 C 34.1752 -0.535292 2.042 0
M  V30 366 O 33.5232 -1.50217 1.72183 0
M  V30 367 C 33.7332 1.84386 2.96315 0
M  V30 368 C 35.0812 2.09732 3.69185 0
M  V30 369 O 36.1052 1.81798 3.06314 0
M  V30 370 O 34.9642 2.57018 4.82291 0
M  V30 371 H 32.0582 0.357204 0.745878 0
M  V30 372 H 34.6042 1.32997 1.05404 0
M  V30 373 H 33.3762 2.84928 2.68201 0
M  V30 374 H 32.9992 1.46602 3.69586 0
M  V30 375 N 33.9963 -1.19345 1.0293 0
M  V30 376 C 34.9263 -2.2481 0.631105 0
M  V30 377 C 35.9073 -1.66245 -0.360104 0
M  V30 378 O 37.0923 -1.92677 -0.242726 0
M  V30 379 C 34.2223 -3.47295 -0.0184607 0
M  V30 380 C 33.1763 -4.18536 0.895073 0
M  V30 381 C 32.5023 -5.34586 0.110592 0
M  V30 382 C 33.8023 -4.73287 2.209 0
M  V30 383 H 35.4963 -2.58372 1.51275 0
M  V30 384 H 33.0423 -1.24194 0.728818 0
M  V30 385 H 34.9953 -4.20268 -0.308675 0
M  V30 386 H 33.7193 -3.12933 -0.934907 0
M  V30 387 H 32.3783 -3.47446 1.16949 0
M  V30 388 H 32.0263 -4.96469 -0.807902 0
M  V30 389 H 31.7263 -5.83183 0.719087 0
M  V30 390 H 33.2503 -6.10355 -0.172871 0
M  V30 391 H 34.6643 -5.38013 1.98028 0
M  V30 392 H 33.0613 -5.32373 2.76946 0
M  V30 393 H 34.1313 -3.91331 2.86336 0
M  V30 394 N 35.4744 -0.807222 -1.35358 0
M  V30 395 C 36.4224 -0.20614 -2.31685 0
M  V30 396 C 37.4164 0.644445 -1.56663 0
M  V30 397 O 38.6224 0.537538 -1.71786 0
M  V30 398 H 34.9974 -0.0479006 -0.750473 0
M  V30 399 H 36.9684 -1.03369 -2.79924 0
M  V30 400 C 35.7174 0.630212 -3.41941 0
M  V30 401 H 35.0404 -0.0149558 -3.99797 0
M  V30 402 H 36.4804 1.01716 -4.11619 0
M  V30 403 C 34.9394 1.79601 -2.85035 0
M  V30 404 O 35.4694 2.89351 -2.78637 0
M  V30 405 N 33.6754 1.60774 -2.42074 0
M  V30 406 H 33.2224 0.715009 -2.47478 0
M  V30 407 H 33.1804 2.38933 -2.04349 0
M  V30 408 N 36.9525 1.47285 -0.560781 0
M  V30 409 C 38.2015 2.01668 -0.035895 0
M  V30 410 C 38.5145 1.44021 1.32353 0
M  V30 411 O 39.7205 1.90088 1.93853 0
M  V30 412 C 38.1765 3.59897 -0.0136659 0
M  V30 413 C 37.7845 4.26536 -1.37006 0
M  V30 414 C 39.5285 4.22017 0.458425 0
M  V30 415 C 37.4355 5.76782 -1.30675 0
M  V30 416 H 36.3655 0.753938 -0.00964879 0
M  V30 417 H 39.0165 1.69243 -0.709166 0
M  V30 418 H 37.3985 3.89301 0.725325 0
M  V30 419 H 38.5725 4.0877 -2.12705 0
M  V30 420 H 36.8875 3.76419 -1.78038 0
M  V30 421 H 39.4845 5.32124 0.524247 0
M  V30 422 H 39.8275 3.89437 1.4712 0
M  V30 423 H 40.3605 3.97159 -0.225818 0
M  V30 424 H 37.0995 6.13988 -2.29564 0
M  V30 425 H 36.6195 5.96875 -0.591622 0
M  V30 426 H 38.2985 6.39063 -1.01033 0
M  V30 427 N 38.4306 0.297415 1.54768 0
M  V30 428 C 39.6586 -0.315623 2.04478 0
M  V30 429 C 40.0736 -1.47792 1.17486 0
M  V30 430 O 39.4306 -1.81404 0.19971 0
M  V30 431 C 39.4816 -0.7753 3.53088 0
M  V30 432 O 39.2026 0.340732 4.36773 0
M  V30 433 C 40.7036 -1.45386 4.18781 0
M  V30 434 H 37.9236 -0.0690887 0.667434 0
M  V30 435 H 40.4676 0.436003 1.99798 0
M  V30 436 H 38.6226 -1.47696 3.58141 0
M  V30 437 H 39.0366 -0.0165035 5.24497 0
M  V30 438 H 40.5106 -1.72669 5.24299 0
M  V30 439 H 40.9876 -2.39275 3.68299 0
M  V30 440 H 41.5936 -0.795475 4.17795 0
M  V30 441 N 39.9087 -1.5758 0.0250728 0
M  V30 442 C 41.1487 -1.93497 -0.65865 0
M  V30 443 C 41.5127 -0.901409 -1.69525 0
M  V30 444 O 42.7137 -1.14664 -2.43116 0
M  V30 445 C 40.9847 -3.34352 -1.26267 0
M  V30 446 S 42.5437 -3.92191 -1.96803 0
M  V30 447 H 39.3617 -0.67709 -0.216958 0
M  V30 448 H 41.9637 -1.95303 0.0877692 0
M  V30 449 H 40.6677 -4.07395 -0.495741 0
M  V30 450 H 40.1987 -3.3598 -2.04648 0
M  V30 451 H 42.2137 -3.75298 -3.24601 0
M  V30 452 N 41.3868 0.248026 -1.55636 0
M  V30 453 C 42.8028 0.596483 -1.48035 0
M  V30 454 C 43.0028 1.88386 -0.715039 0
M  V30 455 O 42.0588 2.51319 -0.243944 0
M  V30 456 C 43.3718 0.700258 -2.92433 0
M  V30 457 C 44.9198 0.792659 -3.02797 0
M  V30 458 C 45.3948 0.928005 -4.485 0
M  V30 459 N 46.8858 0.992903 -4.52433 0
M  V30 460 C 47.6208 1.11687 -5.62418 0
M  V30 461 N 47.1168 1.20645 -6.82214 0
M  V30 462 N 48.9098 1.14994 -5.50212 0
M  V30 463 H 41.0608 -0.597109 -2.03834 0
M  V30 464 H 43.3238 -0.205925 -0.925364 0
M  V30 465 H 43.0298 -0.175658 -3.51261 0
M  V30 466 H 42.9038 1.57255 -3.42857 0
M  V30 467 H 45.2908 1.65903 -2.4405 0
M  V30 468 H 45.3718 -0.104762 -2.55585 0
M  V30 469 H 45.0158 0.0661971 -5.07857 0
M  V30 470 H 44.9458 1.84045 -4.93391 0
M  V30 471 H 47.4368 0.935064 -3.66149 0
M  V30 472 H 47.7498 1.30008 -7.61786 0
M  V30 473 H 46.0948 1.17605 -6.84977 0
M  V30 474 H 49.2858 1.07643 -4.55555 0
M  V30 475 H 49.4588 1.24311 -6.35965 0
M  V30 476 N 42.8649 1.48995 0.513639 0
M  V30 477 C 44.1119 1.57843 1.26854 0
M  V30 478 C 44.4399 0.259501 1.92761 0
M  V30 479 O 43.6949 -0.75159 1.80692 0
M  V30 480 C 43.9939 2.67756 2.36731 0
M  V30 481 C 43.6599 4.09669 1.88368 0
M  V30 482 C 42.3219 4.48291 1.74896 0
M  V30 483 C 44.6739 4.98537 1.52021 0
M  V30 484 C 42.0019 5.73568 1.23438 0
M  V30 485 C 44.3539 6.24319 1.0202 0
M  V30 486 C 43.0179 6.61783 0.871778 0
M  V30 487 H 42.2879 0.577587 0.464192 0
M  V30 488 H 44.9349 1.82778 0.571366 0
M  V30 489 H 43.2399 2.36743 3.12185 0
M  V30 490 H 44.9369 2.71813 2.9482 0
M  V30 491 H 41.5269 3.79176 1.99808 0
M  V30 492 H 45.7109 4.69363 1.61281 0
M  V30 493 H 40.9669 6.01304 1.10648 0
M  V30 494 H 45.1409 6.92566 0.729722 0
M  V30 495 H 42.7679 7.5874 0.470852 0
M  V30 496 N 44.343 -0.763751 1.37857 0
M  V30 497 C 45.306 -1.85889 1.34081 0
M  V30 498 C 46.306 -1.58949 0.243277 0
M  V30 499 O 47.496 -1.66882 0.499589 0
M  V30 500 C 44.628 -3.23176 1.08489 0
M  V30 501 H 45.821 -1.90648 2.31502 0
M  V30 502 H 43.374 -0.964367 1.23003 0
M  V30 503 H 44.109 -3.24091 0.116318 0
M  V30 504 H 43.894 -3.44124 1.8794 0
M  V30 505 H 45.384 -4.03254 1.08517 0
M  V30 506 N 45.8211 -1.22559 -0.990812 0
M  V30 507 C 47.0691 -1.04933 -1.72724 0
M  V30 508 C 47.3901 0.416158 -1.90508 0
M  V30 509 O 46.6601 1.29918 -1.46622 0
M  V30 510 H 45.2401 -0.385296 -0.639965 0
M  V30 511 H 47.9021 -1.54105 -1.19322 0
M  V30 512 H 46.9981 -1.52886 -2.72089 0
M  V30 513 N 47.2992 1.18797 -1.03562 0
M  V30 514 C 48.5452 1.8893 -0.737113 0
M  V30 515 C 48.8782 1.79837 0.732956 0
M  V30 516 O 48.1532 1.19525 1.5344 0
M  V30 517 C 48.4362 3.39607 -1.19745 0
M  V30 518 C 48.2892 3.57537 -2.72924 0
M  V30 519 C 49.6082 4.33069 -0.783526 0
M  V30 520 H 46.7272 0.686057 -0.269249 0
M  V30 521 H 49.3692 1.39797 -1.28673 0
M  V30 522 H 47.5192 3.81583 -0.729855 0
M  V30 523 H 49.1912 3.24688 -3.27682 0
M  V30 524 H 47.4342 3.00363 -3.12993 0
M  V30 525 H 48.1052 4.63238 -3.00191 0
M  V30 526 H 50.5812 3.98846 -1.18581 0
M  V30 527 H 49.4572 5.3707 -1.13343 0
M  V30 528 H 49.7182 4.40986 0.313681 0
M  V30 529 N 48.7773 0.814389 1.34928 0
M  V30 530 C 50.0243 0.398423 1.98542 0
M  V30 531 C 50.3523 -1.03638 1.64589 0
M  V30 532 O 49.6073 -1.73509 0.90516 0
M  V30 533 C 49.9063 0.537781 3.53331 0
M  V30 534 C 49.5723 1.93704 4.07172 0
M  V30 535 C 48.2343 2.31984 4.21589 0
M  V30 536 C 50.5863 2.85213 4.36237 0
M  V30 537 C 47.9143 3.61125 4.62391 0
M  V30 538 C 50.2663 4.13809 4.78482 0
M  V30 539 C 48.9303 4.52077 4.91104 0
M  V30 540 H 48.2003 0.145793 0.726516 0
M  V30 541 H 50.8473 1.03669 1.61012 0
M  V30 542 H 49.1523 -0.183906 3.91368 0
M  V30 543 H 50.8493 0.196588 4.00518 0
M  V30 544 H 47.4393 1.62966 3.96409 0
M  V30 545 H 51.6233 2.56885 4.24645 0
M  V30 546 H 46.8793 3.90612 4.70353 0
M  V30 547 H 51.0533 4.84811 4.99932 0
M  V30 548 H 48.6803 5.52196 5.22478 0
M  V30 549 N 50.2554 -1.46986 0.568584 0
M  V30 550 C 51.2054 -2.27179 -0.193339 0
M  V30 551 C 52.1894 -1.35035 -0.874895 0
M  V30 552 O 53.3814 -1.5931 -0.771322 0
M  V30 553 C 50.5104 -3.21063 -1.21546 0
M  V30 554 C 49.5964 -4.2069 -0.536738 0
M  V30 555 N 49.9874 -5.04218 0.399673 0
M  V30 556 C 48.2854 -4.38961 -0.789254 0
M  V30 557 C 48.9864 -5.76242 0.795017 0
M  V30 558 N 47.9624 -5.434 0.1473 0
M  V30 559 H 51.7644 -2.89146 0.526458 0
M  V30 560 H 49.2784 -1.57664 0.389342 0
M  V30 561 H 51.2754 -3.77209 -1.77536 0
M  V30 562 H 49.9354 -2.60654 -1.93623 0
M  V30 563 H 50.9464 -5.12077 0.774454 0
M  V30 564 H 47.6234 -3.89713 -1.49767 0
M  V30 565 H 49.0134 -6.53417 1.56513 0
M  V30 566 N 51.7335 -0.305618 -1.54608 0
M  V30 567 C 52.9795 0.302746 -2.00528 0
M  V30 568 C 53.3125 1.53184 -1.19367 0
M  V30 569 O 52.5875 1.92598 -0.271321 0
M  V30 570 C 52.8705 0.654756 -3.54097 0
M  V30 571 C 52.7235 -0.583793 -4.45995 0
M  V30 572 C 54.0425 1.47947 -4.14487 0
M  V30 573 H 51.1615 0.108564 -0.72896 0
M  V30 574 H 53.8035 -0.418634 -1.85331 0
M  V30 575 H 51.9535 1.26935 -3.67178 0
M  V30 576 H 53.6255 -1.22224 -4.44814 0
M  V30 577 H 51.8685 -1.21615 -4.16404 0
M  V30 578 H 52.5395 -0.293287 -5.5122 0
M  V30 579 H 55.0155 0.96013 -4.04871 0
M  V30 580 H 53.8915 1.69454 -5.22088 0
M  V30 581 H 54.1525 2.47011 -3.66658 0
M  V30 582 N 53.2116 1.57565 -0.0334293 0
M  V30 583 C 54.1216 2.13943 0.962572 0
M  V30 584 C 55.1376 1.09276 1.35406 0
M  V30 585 O 56.3136 1.41355 1.4346 0
M  V30 586 C 53.3786 2.65887 2.22497 0
M  V30 587 C 52.4396 3.85286 1.8935 0
M  V30 588 C 51.6726 4.34743 3.09571 0
M  V30 589 O 51.8956 3.83352 4.22371 0
M  V30 590 O 50.8296 5.26538 2.91618 0
M  V30 591 H 54.6556 2.99333 0.513169 0
M  V30 592 H 52.2406 1.4822 0.18743 0
M  V30 593 H 54.1226 2.99346 2.96598 0
M  V30 594 H 52.7976 1.83578 2.6661 0
M  V30 595 H 51.7046 3.56746 1.1262 0
M  V30 596 H 53.0376 4.68771 1.5005 0
M  V30 597 N 54.6897 -0.239769 1.55765 0
M  V30 598 C 55.6367 -1.29696 1.90913 0
M  V30 599 C 56.6067 -1.47478 0.764164 0
M  V30 600 O 57.7917 -1.61345 1.01845 0
M  V30 601 C 54.9317 -2.64598 2.21544 0
M  V30 602 C 54.0447 -2.54765 3.48882 0
M  V30 603 C 53.1797 -3.82069 3.69049 0
M  V30 604 C 52.2187 -3.66883 4.89963 0
M  V30 605 N 51.3557 -4.86094 5.06614 0
M  V30 606 H 56.1957 -0.990224 2.81067 0
M  V30 607 H 53.7327 -0.477684 1.39128 0
M  V30 608 H 55.6907 -3.43132 2.3731 0
M  V30 609 H 54.3207 -2.93405 1.34585 0
M  V30 610 H 53.3727 -1.67763 3.41409 0
M  V30 611 H 54.6847 -2.39457 4.37563 0
M  V30 612 H 53.8387 -4.69046 3.84812 0
M  V30 613 H 52.5777 -4.00282 2.78614 0
M  V30 614 H 51.5827 -2.78289 4.74168 0
M  V30 615 H 52.8077 -3.50157 5.81865 0
M  V30 616 H 50.7537 -5.04655 4.19117 0
M  V30 617 H 50.6707 -4.73443 5.89396 0
M  V30 618 H 51.9387 -5.74549 5.26795 0
M  V30 619 N 56.1678 -1.49265 -0.50573 0
M  V30 620 C 57.1158 -1.66065 -1.62866 0
M  V30 621 C 58.1098 -0.526636 -1.61006 0
M  V30 622 O 59.3158 -0.706126 -1.65571 0
M  V30 623 H 55.6908 -0.52356 -0.539805 0
M  V30 624 H 57.6618 -2.60329 -1.45848 0
M  V30 625 C 56.4108 -1.74008 -3.01026 0
M  V30 626 H 55.7338 -2.6064 -3.03161 0
M  V30 627 H 57.1738 -1.89798 -3.79147 0
M  V30 628 C 55.6328 -0.483868 -3.33407 0
M  V30 629 O 56.1628 0.392548 -3.99777 0
M  V30 630 N 54.3688 -0.348236 -2.88506 0
M  V30 631 H 53.9158 -1.06242 -2.34671 0
M  V30 632 H 53.8738 0.491204 -3.10539 0
M  V30 633 N 57.6459 0.756429 -1.3826 0
M  V30 634 C 58.8939 1.51248 -1.34047 0
M  V30 635 C 59.2149 1.94875 0.0698372 0
M  V30 636 O 58.4849 1.67436 1.01696 0
M  V30 637 H 57.0649 0.561018 -0.493222 0
M  V30 638 H 59.7269 0.899347 -1.7291 0
M  V30 639 H 58.8229 2.40472 -1.98947 0
M  V30 640 N 59.124 1.23083 0.984299 0
M  V30 641 C 60.54 0.992637 1.24975 0
M  V30 642 C 60.74 -0.308618 1.99123 0
M  V30 643 O 59.796 -1.02905 2.30579 0
M  V30 644 C 61.109 2.19698 2.05312 0
M  V30 645 C 62.657 2.24147 2.18465 0
M  V30 646 C 63.132 3.44157 3.02192 0
M  V30 647 N 64.623 3.44372 3.09777 0
M  V30 648 C 65.358 4.33886 3.74874 0
M  V30 649 N 64.854 5.3363 4.41827 0
M  V30 650 N 66.647 4.21639 3.71721 0
M  V30 651 H 58.798 2.06731 0.487453 0
M  V30 652 H 61.061 0.906339 0.277944 0
M  V30 653 H 60.767 3.1411 1.58201 0
M  V30 654 H 60.641 2.20465 3.06064 0
M  V30 655 H 63.028 1.30277 2.64786 0
M  V30 656 H 63.109 2.27415 1.17115 0
M  V30 657 H 62.753 4.38332 2.56568 0
M  V30 658 H 62.683 3.3813 4.03702 0
M  V30 659 H 65.174 2.72201 2.62135 0
M  V30 660 H 65.487 5.98196 4.89266 0
M  V30 661 H 63.832 5.37534 4.40548 0
M  V30 662 H 67.023 3.42962 3.18582 0
M  V30 663 H 67.196 4.91604 4.22173 0
M  V30 664 N 60.6021 -1.18246 1.0419 0
M  V30 665 C 61.8321 -1.91916 0.764961 0
M  V30 666 C 62.2401 -1.76485 -0.681898 0
M  V30 667 O 61.5831 -1.09275 -1.47664 0
M  V30 668 C 61.6451 -3.4373 1.05309 0
M  V30 669 C 61.3091 -3.8294 2.4941 0
M  V30 670 C 62.3061 -3.86621 3.47592 0
M  V30 671 C 59.9911 -4.142 2.84155 0
M  V30 672 C 61.9851 -4.21013 4.78568 0
M  V30 673 C 59.6721 -4.48262 4.15337 0
M  V30 674 C 60.6701 -4.51645 5.12353 0
M  V30 675 O 60.3581 -4.84911 6.41183 0
M  V30 676 H 60.0901 -0.61606 0.278292 0
M  V30 677 H 62.6441 -1.50947 1.39299 0
M  V30 678 H 60.8741 -3.84946 0.367933 0
M  V30 679 H 62.5631 -3.9865 0.763752 0
M  V30 680 H 63.3291 -3.62607 3.22089 0
M  V30 681 H 59.2081 -4.10743 2.09311 0
M  V30 682 H 62.7521 -4.23568 5.54289 0
M  V30 683 H 58.6491 -4.71737 4.40607 0
M  V30 684 H 59.4171 -5.02809 6.45852 0
M  V30 685 N 62.0802 -0.821533 -1.34494 0
M  V30 686 C 63.3052 -0.420873 -2.03085 0
M  V30 687 C 63.7302 0.964915 -1.61465 0
M  V30 688 O 63.0882 1.62763 -0.798607 0
M  V30 689 C 63.1362 -0.529414 -3.56693 0
M  V30 690 O 62.2402 0.451302 -4.09923 0
M  V30 691 H 61.5812 -0.173489 -0.640935 0
M  V30 692 H 64.1112 -1.11157 -1.71771 0
M  V30 693 H 64.1212 -0.404671 -4.05988 0
M  V30 694 H 62.7962 -1.54014 -3.86332 0
M  V30 695 H 61.3732 0.285558 -3.71805 0
M  V30 696 N 63.5583 1.46682 -0.576371 0
M  V30 697 C 64.8073 2.01619 -0.0572825 0
M  V30 698 C 65.1203 1.45417 1.30818 0
M  V30 699 O 66.3263 1.92133 1.91825 0
M  V30 700 C 64.7823 3.59863 -0.0518371 0
M  V30 701 C 64.3903 4.25059 -1.41523 0
M  V30 702 C 66.1343 4.2248 0.413639 0
M  V30 703 C 64.0413 5.75364 -1.36785 0
M  V30 704 H 62.9713 0.753794 -0.0176448 0
M  V30 705 H 65.6223 1.68481 -0.727076 0
M  V30 706 H 64.0043 3.90048 0.683994 0
M  V30 707 H 65.1783 4.06491 -2.17029 0
M  V30 708 H 63.4933 3.7451 -1.8202 0
M  V30 709 H 66.0903 5.3265 0.467779 0
M  V30 710 H 66.4333 3.90976 1.42982 0
M  V30 711 H 66.9663 3.96897 -0.267929 0
M  V30 712 H 63.7053 6.11518 -2.36063 0
M  V30 713 H 63.2253 5.96214 -0.654895 0
M  V30 714 H 64.9043 6.37955 -1.07805 0
M  V30 715 N 65.0364 0.313813 1.54444 0
M  V30 716 C 66.2614 -0.296681 2.05267 0
M  V30 717 C 66.6864 -1.45757 1.18897 0
M  V30 718 O 66.0444 -1.80239 0.195886 0
M  V30 719 C 66.0924 -0.71831 3.53373 0
M  V30 720 O 65.1964 -1.82175 3.69981 0
M  V30 721 H 64.5374 -0.0554061 0.661684 0
M  V30 722 H 67.0674 0.459387 1.99376 0
M  V30 723 H 67.0774 -1.00364 3.95463 0
M  V30 724 H 65.7524 0.130821 4.15694 0
M  V30 725 H 64.3294 -1.53598 3.39797 0
M  V30 726 N 66.5145 -1.57545 0.0417849 0
M  V30 727 C 67.9305 -1.56467 -0.314704 0
M  V30 728 C 68.1305 -1.04859 -1.72066 0
M  V30 729 O 67.1865 -0.700983 -2.42575 0
M  V30 730 C 68.4995 -3.00317 -0.15174 0
M  V30 731 C 70.0475 -3.12201 -0.223553 0
M  V30 732 C 70.5225 -4.57913 -0.0892295 0
M  V30 733 N 72.0135 -4.6297 -0.145808 0
M  V30 734 C 72.7485 -5.73362 -0.0658459 0
M  V30 735 N 72.2445 -6.92769 0.0659282 0
M  V30 736 N 74.0375 -5.6197 -0.12075 0
M  V30 737 H 66.1885 -1.89416 0.961014 0
M  V30 738 H 68.4515 -0.871862 0.372237 0
M  V30 739 H 68.1575 -3.42073 0.817254 0
M  V30 740 H 68.0315 -3.65892 -0.916692 0
M  V30 741 H 70.4185 -2.70349 -1.18301 0
M  V30 742 H 70.4995 -2.49323 0.571994 0
M  V30 743 H 70.1435 -5.00448 0.866867 0
M  V30 744 H 70.0735 -5.18786 -0.903802 0
M  V30 745 H 72.5645 -3.7709 -0.247286 0
M  V30 746 H 72.8775 -7.72707 0.119905 0
M  V30 747 H 71.2225 -6.94927 0.100885 0
M  V30 748 H 74.4135 -4.67572 -0.222187 0
M  V30 749 H 74.5865 -6.47977 -0.0549735 0
M  V30 750 N 67.9926 0.231505 -1.5589 0
M  V30 751 C 69.2206 0.974505 -1.82513 0
M  V30 752 C 69.6356 1.78344 -0.619591 0
M  V30 753 O 68.9926 1.77792 0.411848 0
M  V30 754 C 69.0436 1.90007 -3.07538 0
M  V30 755 O 68.7646 1.12385 -4.2344 0
M  V30 756 C 70.2656 2.75779 -3.47075 0
M  V30 757 H 67.4856 0.286065 -0.606966 0
M  V30 758 H 70.0296 0.249739 -2.02969 0
M  V30 759 H 68.1846 2.57891 -2.89086 0
M  V30 760 H 68.5986 1.75125 -4.944 0
M  V30 761 H 70.0726 3.36443 -4.37619 0
M  V30 762 H 70.5496 3.47672 -2.68367 0
M  V30 763 H 71.1556 2.13323 -3.67931 0
M  V30 764 N 69.4707 1.49531 0.497807 0
M  V30 765 C 70.3807 1.69176 1.62532 0
M  V30 766 C 71.3967 0.5744 1.64246 0
M  V30 767 O 72.5727 0.849497 1.82608 0
M  V30 768 C 69.6377 1.75695 2.98885 0
M  V30 769 C 68.6987 2.9929 3.07773 0
M  V30 770 C 67.9317 3.05488 4.37622 0
M  V30 771 O 68.1547 2.19192 5.26603 0
M  V30 772 O 67.0887 3.9798 4.51548 0
M  V30 773 H 70.9147 2.647 1.48887 0
M  V30 774 H 68.4997 1.3331 0.674441 0
M  V30 775 H 70.3817 1.82317 3.79919 0
M  V30 776 H 69.0567 0.8335 3.12785 0
M  V30 777 H 67.9637 2.98183 2.25915 0
M  V30 778 H 69.2967 3.91125 2.98801 0
M  V30 779 N 70.9488 -0.749086 1.3866 0
M  V30 780 C 71.9118 -1.84457 1.36045 0
M  V30 781 C 72.9118 -1.58682 0.260122 0
M  V30 782 O 74.1018 -1.66343 0.517261 0
M  V30 783 C 71.2338 -3.22008 1.11911 0
M  V30 784 H 72.4268 -1.88182 2.33512 0
M  V30 785 H 69.9798 -0.951266 1.24019 0
M  V30 786 H 70.7148 -3.2395 0.150686 0
M  V30 787 H 70.4998 -3.42111 1.91579 0
M  V30 788 H 71.9898 -4.0208 1.12788 0
M  V30 789 N 72.4269 -1.23603 -0.977757 0
M  V30 790 C 73.3899 -1.02069 -2.05218 0
M  V30 791 C 74.3899 0.0184305 -1.60789 0
M  V30 792 O 75.5799 -0.221569 -1.72785 0
M  V30 793 C 72.7119 -0.544926 -3.36517 0
M  V30 794 H 73.9049 -1.9742 -2.25755 0
M  V30 795 H 71.4579 -1.05684 -1.15155 0
M  V30 796 H 72.1929 0.412241 -3.21669 0
M  V30 797 H 71.9779 -1.2948 -3.70105 0
M  V30 798 H 73.4679 -0.414985 -4.15533 0
M  V30 799 N 73.905 1.17692 -1.04816 0
M  V30 800 C 75.182 1.83768 -0.669963 0
M  V30 801 C 75.562 1.93232 0.849986 0
M  V30 802 O 74.91 1.46397 1.75443 0
M  V30 803 C 75.12 3.21641 -1.35455 0
M  V30 804 C 76.468 3.97592 -1.49017 0
M  V30 805 O 77.492 3.31107 -1.31326 0
M  V30 806 O 76.351 5.16729 -1.77914 0
M  V30 807 H 73.445 0.792799 -0.235368 0
M  V30 808 H 75.991 1.25021 -1.14751 0
M  V30 809 H 74.763 3.097 -2.39168 0
M  V30 810 H 74.386 3.88052 -0.866107 0
M  V30 811 N 75.3831 0.828654 1.34056 0
M  V30 812 C 76.3131 0.269443 2.3194 0
M  V30 813 C 77.2941 -0.617247 1.58506 0
M  V30 814 O 78.4791 -0.542931 1.86456 0
M  V30 815 C 75.6091 -0.564793 3.42677 0
M  V30 816 C 74.5631 0.225241 4.27407 0
M  V30 817 C 73.8891 -0.7321 5.29664 0
M  V30 818 C 75.1891 1.43663 5.02154 0
M  V30 819 H 76.8831 1.08728 2.7896 0
M  V30 820 H 74.4291 0.524283 1.34117 0
M  V30 821 H 76.3821 -0.966233 4.10173 0
M  V30 822 H 75.1061 -1.41574 2.9432 0
M  V30 823 H 73.7651 0.608117 3.61521 0
M  V30 824 H 73.4131 -1.57916 4.77568 0
M  V30 825 H 73.1131 -0.20767 5.87233 0
M  V30 826 H 74.6371 -1.13128 6.00029 0
M  V30 827 H 76.0511 1.1089 5.62473 0
M  V30 828 H 74.4481 1.89711 5.69324 0
M  V30 829 H 75.5181 2.21181 4.31517 0
M  V30 830 N 76.8612 -1.46375 0.584142 0
M  V30 831 C 78.1012 -2.0427 0.0729695 0
M  V30 832 C 78.4652 -1.44563 -1.26355 0
M  V30 833 O 79.6662 -1.93667 -1.86405 0
M  V30 834 C 77.9372 -3.57399 0.00967464 0
M  V30 835 S 79.4962 -4.36551 -0.443714 0
M  V30 836 H 76.3142 -0.709975 0.0381673 0
M  V30 837 H 78.9162 -1.79398 0.776962 0
M  V30 838 H 77.6202 -3.98372 0.986319 0
M  V30 839 H 77.1512 -3.8681 -0.717044 0
M  V30 840 H 79.1662 -4.66237 -1.69816 0
M  V30 841 N 78.3393 -0.321999 -1.54275 0
M  V30 842 C 79.2863 0.544664 -2.24281 0
M  V30 843 C 80.2563 1.1129 -1.23303 0
M  V30 844 O 81.4413 1.15354 -1.51981 0
M  V30 845 C 78.5813 1.70045 -3.00298 0
M  V30 846 C 77.6943 1.16159 -4.1609 0
M  V30 847 C 76.8293 2.28293 -4.79641 0
M  V30 848 C 75.8683 1.71648 -5.8754 0
M  V30 849 N 75.0053 2.77438 -6.44959 0
M  V30 850 H 79.8453 -0.0588907 -2.97942 0
M  V30 851 H 77.3823 -0.0408345 -1.47043 0
M  V30 852 H 79.3403 2.38054 -3.42616 0
M  V30 853 H 77.9703 2.27531 -2.28975 0
M  V30 854 H 77.0223 0.373092 -3.78566 0
M  V30 855 H 78.3343 0.707087 -4.93763 0
M  V30 856 H 77.4883 3.0421 -5.2492 0
M  V30 857 H 76.2273 2.77079 -4.01346 0
M  V30 858 H 75.2323 0.942282 -5.41665 0
M  V30 859 H 76.4573 1.23741 -6.67731 0
M  V30 860 H 74.4033 3.25519 -5.69538 0
M  V30 861 H 74.3203 2.36547 -7.1804 0
M  V30 862 H 75.5883 3.53189 -6.94894 0
M  V30 863 N 79.8174 1.5752 -0.0501392 0
M  V30 864 C 80.7804 2.1037 0.909786 0
M  V30 865 C 81.7804 1.02308 1.24056 0
M  V30 866 O 82.9704 1.28385 1.17741 0
M  V30 867 C 80.1024 2.58708 2.21998 0
M  V30 868 H 81.2954 2.96479 0.451665 0
M  V30 869 H 78.8484 1.55038 0.198248 0
M  V30 870 H 79.5834 1.75989 2.72394 0
M  V30 871 H 79.3684 3.37675 1.99295 0
M  V30 872 H 80.8584 2.99747 2.9076 0
M  V30 873 N 81.2955 -0.223234 1.56011 0
M  V30 874 C 82.5425 -0.947875 1.78946 0
M  V30 875 C 82.8705 -1.844 0.618608 0
M  V30 876 O 82.1255 -1.91629 -0.397093 0
M  V30 877 C 82.4245 -1.81948 3.0762 0
M  V30 878 C 82.0905 -1.07672 4.37856 0
M  V30 879 C 80.7525 -0.871544 4.73242 0
M  V30 880 C 83.1045 -0.552081 5.18268 0
M  V30 881 C 80.4325 -0.129791 5.86556 0
M  V30 882 C 82.7845 0.17632 6.32354 0
M  V30 883 C 81.4485 0.39277 6.66343 0
M  V30 884 H 80.7185 -0.346852 0.654809 0
M  V30 885 H 83.3655 -0.216171 1.90276 0
M  V30 886 H 81.6705 -2.61899 2.91404 0
M  V30 887 H 83.3675 -2.38227 3.22566 0
M  V30 888 H 79.9575 -1.24662 4.1007 0
M  V30 889 H 84.1415 -0.698076 4.91366 0
M  V30 890 H 79.3975 0.048153 6.11381 0
M  V30 891 H 83.5715 0.590367 6.93893 0
M  V30 892 H 81.1985 0.969466 7.53993 0
M  V30 893 N 82.7736 -1.49793 -0.48987 0
M  V30 894 C 83.7216 -1.67783 -1.61095 0
M  V30 895 C 84.7156 -0.543683 -1.60438 0
M  V30 896 O 85.9216 -0.723647 -1.64813 0
M  V30 897 H 82.2966 -0.529255 -0.534222 0
M  V30 898 H 84.2676 -2.61861 -1.43078 0
M  V30 899 C 83.0166 -1.77191 -2.99164 0
M  V30 900 H 82.3396 -2.63841 -3.0038 0
M  V30 901 H 83.7796 -1.93809 -3.77113 0
M  V30 902 C 82.2386 -0.519203 -3.32875 0
M  V30 903 O 82.7686 0.350124 -4.00171 0
M  V30 904 N 80.9746 -0.378816 -2.8812 0
M  V30 905 H 80.5216 -1.08725 -2.33531 0
M  V30 906 H 80.4796 0.458239 -3.11043 0
M  V30 907 N 84.2517 0.741722 -1.39055 0
M  V30 908 C 85.4767 1.53607 -1.39354 0
M  V30 909 C 85.9017 1.88096 0.0116905 0
M  V30 910 O 85.2597 1.5143 0.996924 0
M  V30 911 C 85.3077 2.80441 -2.26682 0
M  V30 912 O 84.4117 3.76088 -1.69208 0
M  V30 913 H 83.7527 0.464142 -0.474835 0
M  V30 914 H 86.2827 0.915665 -1.82967 0
M  V30 915 H 86.2927 3.29246 -2.40959 0
M  V30 916 H 84.9677 2.5467 -3.2881 0
M  V30 917 H 83.5447 3.34833 -1.64138 0
M  V30 918 N 85.7298 1.2412 0.971189 0
M  V30 919 C 86.9578 1.10575 1.74874 0
M  V30 920 C 87.3728 -0.342017 1.85676 0
M  V30 921 O 86.7298 -1.23617 1.34258 0
M  V30 922 C 86.7808 1.73579 3.171 0
M  V30 923 O 86.5018 3.12695 3.06844 0
M  V30 924 C 88.0028 1.65598 4.11208 0
M  V30 925 H 85.2228 0.386504 0.548503 0
M  V30 926 H 87.7668 1.64156 1.21955 0
M  V30 927 H 85.9218 1.24009 3.67016 0
M  V30 928 H 86.3358 3.43412 3.96445 0
M  V30 929 H 87.8098 2.1437 5.08674 0
M  V30 930 H 88.2868 0.616532 4.34851 0
M  V30 931 H 88.8928 2.14578 3.67201 0
M  V30 932 N 87.2079 -1.17134 1.05439 0
M  V30 933 C 88.1379 -2.2342 0.678649 0
M  V30 934 C 89.1189 -1.66971 -0.32476 0
M  V30 935 O 90.3039 -1.93149 -0.201802 0
M  V30 936 C 87.4339 -3.47256 0.0552099 0
M  V30 937 C 86.3879 -4.16543 0.98365 0
M  V30 938 C 85.7139 -5.34231 0.223961 0
M  V30 939 C 87.0139 -4.68495 2.3089 0
M  V30 940 H 88.7079 -2.55105 1.56722 0
M  V30 941 H 86.2539 -1.2262 0.754998 0
M  V30 942 H 88.2069 -4.20828 -0.21946 0
M  V30 943 H 86.9309 -3.14846 -0.868319 0
M  V30 944 H 85.5899 -3.44887 1.24293 0
M  V30 945 H 85.2379 -4.98071 -0.702412 0
M  V30 946 H 84.9379 -5.81527 0.842627 0
M  V30 947 H 86.4619 -6.10585 -0.0433671 0
M  V30 948 H 87.8759 -5.33691 2.09396 0
M  V30 949 H 86.2729 -5.26379 2.88176 0
M  V30 950 H 87.3429 -3.85169 2.94572 0
M  V30 951 N 88.686 -0.835752 -1.33615 0
M  V30 952 C 90.097 -0.487099 -1.80234 0
M  V30 953 C 90.448 0.993627 -1.69179 0
M  V30 954 O 89.573 1.77403 -1.23924 0
M  V30 955 C 90.168 -0.877385 -3.27242 0
M  V30 956 C 88.727 -0.580915 -3.7189 0
M  V30 957 C 87.874 -1.0874 -2.5509 0
M  V30 958 H 90.825 -1.02474 -1.2118 0
M  V30 959 H 90.846 -0.186195 -3.80044 0
M  V30 960 H 90.358 -1.95512 -3.35256 0
M  V30 961 H 88.459 0.486881 -3.69405 0
M  V30 962 H 88.572 -1.13396 -4.65487 0
M  V30 963 H 86.936 -0.508392 -2.49575 0
M  V30 964 H 87.719 -2.17184 -2.65868 0
M  V30 965 N 90.1641 1.46063 -0.591896 0
M  V30 966 C 91.3921 2.06717 -0.0868936 0
M  V30 967 C 91.8071 1.43916 1.22203 0
M  V30 968 O 91.1641 0.547698 1.74088 0
M  V30 969 C 91.2151 3.6142 0.0758725 0
M  V30 970 O 90.9361 4.21874 -1.18126 0
M  V30 971 C 92.4371 4.39025 0.61416 0
M  V30 972 H 89.6571 0.668162 -0.0616518 0
M  V30 973 H 92.2011 1.8755 -0.815175 0
M  V30 974 H 90.3561 3.79983 0.754413 0
M  V30 975 H 90.7701 5.14861 -1.00092 0
M  V30 976 H 92.2441 5.4783 0.677193 0
M  V30 977 H 92.7211 4.07708 1.63312 0
M  V30 978 H 93.3271 4.2529 -0.0298142 0
M  V30 979 N 91.6422 0.330177 1.54103 0
M  V30 980 C 92.5752 -0.575477 2.20825 0
M  V30 981 C 93.5532 -1.11064 1.18758 0
M  V30 982 O 94.7372 -1.17341 1.47524 0
M  V30 983 C 91.8642 -1.79032 2.87516 0
M  V30 984 C 90.9102 -1.38581 4.03358 0
M  V30 985 S 91.7432 -0.416911 5.33875 0
M  V30 986 C 92.8992 -1.63889 6.04062 0
M  V30 987 H 93.1322 -0.00872114 2.97299 0
M  V30 988 H 90.6652 0.114254 1.53977 0
M  V30 989 H 92.6232 -2.48734 3.2656 0
M  V30 990 H 91.2842 -2.32827 2.10832 0
M  V30 991 H 90.4772 -2.29123 4.48908 0
M  V30 992 H 90.0792 -0.768419 3.66021 0
M  V30 993 H 92.3712 -2.57536 6.26643 0
M  V30 994 H 93.3142 -1.22542 6.97416 0
M  V30 995 H 93.7222 -1.82887 5.34053 0
M  V30 996 N 93.1203 -1.57491 0.0584922 0
M  V30 997 C 94.0833 -2.1085 -0.898617 0
M  V30 998 C 95.0833 -1.02964 -1.23511 0
M  V30 999 O 96.2733 -1.29007 -1.17059 0
M  V30 1000 C 93.4053 -2.59881 -2.20623 0
M  V30 1001 H 94.5983 -2.96715 -0.435936 0
M  V30 1002 H 92.1513 -1.55141 -0.190023 0
M  V30 1003 H 92.8863 -1.77431 -2.71457 0
M  V30 1004 H 92.6713 -3.38727 -1.97501 0
M  V30 1005 H 94.1613 -3.01285 -2.89166 0
M  V30 1006 N 94.5984 0.214957 -1.56127 0
M  V30 1007 C 95.5304 1.29004 -1.89448 0
M  V30 1008 C 96.5434 1.42716 -0.783326 0
M  V30 1009 O 97.7324 1.43496 -1.06166 0
M  V30 1010 C 94.8324 2.66482 -2.09381 0
M  V30 1011 C 94.0054 2.74633 -3.40434 0
M  V30 1012 C 93.0644 3.9317 -3.49719 0
M  V30 1013 O 92.0904 3.812 -4.227 0
M  V30 1014 N 93.2924 5.07765 -2.81346 0
M  V30 1015 H 96.0574 1.00743 -2.82261 0
M  V30 1016 H 93.6184 0.40497 -1.56753 0
M  V30 1017 H 95.6104 3.44173 -2.12901 0
M  V30 1018 H 94.1804 2.87314 -1.23163 0
M  V30 1019 H 93.4004 1.83368 -3.48955 0
M  V30 1020 H 94.6884 2.77054 -4.26754 0
M  V30 1021 H 94.0864 5.20386 -2.21843 0
M  V30 1022 H 92.6434 5.83474 -2.90519 0
M  V30 1023 N 96.0765 1.50051 0.48192 0
M  V30 1024 C 97.0095 1.62749 1.59963 0
M  V30 1025 C 97.9875 0.475903 1.5548 0
M  V30 1026 O 99.1715 0.693986 1.7526 0
M  V30 1027 C 96.2985 1.60008 2.98522 0
M  V30 1028 C 95.3445 2.80596 3.21198 0
M  V30 1029 S 96.1775 4.42038 3.02262 0
M  V30 1030 C 97.3335 4.41973 4.43182 0
M  V30 1031 H 97.5665 2.57296 1.4895 0
M  V30 1032 H 95.0995 1.39179 0.668477 0
M  V30 1033 H 97.0575 1.59112 3.78409 0
M  V30 1034 H 95.7185 0.667153 3.06933 0
M  V30 1035 H 94.9115 2.74952 4.22395 0
M  V30 1036 H 94.5135 2.79003 2.49065 0
M  V30 1037 H 96.8055 4.14868 5.35622 0
M  V30 1038 H 97.7485 5.43512 4.53873 0
M  V30 1039 H 98.1565 3.71812 4.24755 0
M  V30 1040 N 97.5546 -0.734337 1.39446 0
M  V30 1041 C 98.4646 -1.87879 1.40495 0
M  V30 1042 C 99.4806 -1.714 0.299672 0
M  V30 1043 O 100.657 -1.93991 0.541249 0
M  V30 1044 C 97.7216 -3.23477 1.24754 0
M  V30 1045 C 96.7826 -3.52344 2.45259 0
M  V30 1046 C 96.0156 -4.81473 2.30259 0
M  V30 1047 O 96.2386 -5.55237 1.30643 0
M  V30 1048 O 95.1726 -5.10254 3.19256 0
M  V30 1049 H 98.9986 -1.89949 2.36966 0
M  V30 1050 H 96.5836 -0.882243 1.20569 0
M  V30 1051 H 98.4656 -4.04509 1.18111 0
M  V30 1052 H 97.1406 -3.22176 0.313781 0
M  V30 1053 H 96.0476 -2.71396 2.57478 0
M  V30 1054 H 97.3806 -3.58426 3.37331 0
M  V30 1055 N 99.0327 -1.24633 -0.964593 0
M  V30 1056 C 99.9797 -1.04144 -2.05968 0
M  V30 1057 C 100.95 0.046262 -1.66036 0
M  V30 1058 O 102.135 -0.108972 -1.90489 0
M  V30 1059 C 99.2747 -0.65563 -3.38815 0
M  V30 1060 C 98.3877 -1.81714 -3.91923 0
M  V30 1061 C 97.5227 -1.37662 -5.13052 0
M  V30 1062 C 96.5617 -2.50788 -5.58365 0
M  V30 1063 N 95.6987 -2.07582 -6.70712 0
M  V30 1064 H 100.539 -1.9787 -2.22827 0
M  V30 1065 H 98.0757 -0.9855 -1.09208 0
M  V30 1066 H 100.034 -0.412954 -4.15151 0
M  V30 1067 H 98.6637 0.244627 -3.21872 0
M  V30 1068 H 97.7157 -2.1734 -3.12198 0
M  V30 1069 H 99.0277 -2.66705 -4.21509 0
M  V30 1070 H 98.1817 -1.093 -5.96773 0
M  V30 1071 H 96.9207 -0.497293 -4.85158 0
M  V30 1072 H 95.9257 -2.79906 -4.73215 0
M  V30 1073 H 97.1507 -3.39283 -5.88272 0
M  V30 1074 H 95.0967 -1.22051 -6.44546 0
M  V30 1075 H 95.0137 -2.86125 -6.99763 0
M  V30 1076 H 96.2817 -1.82369 -7.57867 0
M  V30 1077 N 100.511 1.16574 -1.06058 0
M  V30 1078 C 101.474 2.19085 -0.673392 0
M  V30 1079 C 102.474 1.5835 0.279648 0
M  V30 1080 O 103.664 1.74088 0.0623488 0
M  V30 1081 C 100.796 3.40899 0.00954234 0
M  V30 1082 H 101.989 2.54853 -1.58081 0
M  V30 1083 H 99.5418 1.30808 -0.855516 0
M  V30 1084 H 100.277 3.10684 0.929826 0
M  V30 1085 H 100.062 3.86233 -0.67573 0
M  V30 1086 H 101.552 4.1675 0.266245 0
M  V30 1087 N 101.989 0.842826 1.3317 0
M  V30 1088 C 102.919 0.294028 2.31641 0
M  V30 1089 C 103.9 -0.600401 1.59151 0
M  V30 1090 O 105.085 -0.523124 1.87022 0
M  V30 1091 C 102.215 -0.528416 3.43257 0
M  V30 1092 C 101.169 0.27056 4.27144 0
M  V30 1093 C 100.495 -0.675881 5.30411 0
M  V30 1094 C 101.795 1.48981 5.00602 0
M  V30 1095 H 103.489 1.11681 2.77791 0
M  V30 1096 H 101.035 0.538478 1.33553 0
M  V30 1097 H 102.988 -0.922674 4.11175 0
M  V30 1098 H 101.712 -1.38445 2.95805 0
M  V30 1099 H 100.371 0.646427 3.60856 0
M  V30 1100 H 100.019 -1.52842 4.79216 0
M  V30 1101 H 99.7189 -0.145374 5.8742 0
M  V30 1102 H 101.243 -1.06757 6.01195 0
M  V30 1103 H 102.657 1.16849 5.61266 0
M  V30 1104 H 101.054 1.95739 5.6728 0
M  V30 1105 H 102.124 2.25746 4.29147 0
M  V30 1106 N 103.467 -1.45747 0.599634 0
M  V30 1107 C 104.692 -2.07178 0.0960198 0
M  V30 1108 C 105.117 -1.44268 -1.207 0
M  V30 1109 O 104.475 -0.532503 -1.73303 0
M  V30 1110 C 104.523 -3.60579 -0.0385348 0
M  V30 1111 O 103.627 -3.97713 -1.0908 0
M  V30 1112 H 102.968 -0.660251 0.0704593 0
M  V30 1113 H 105.498 -1.87124 0.827385 0
M  V30 1114 H 105.508 -4.07298 -0.239304 0
M  V30 1115 H 104.183 -4.05756 0.912947 0
M  V30 1116 H 102.76 -3.62678 -0.867135 0
M  V30 1117 N 104.945 -0.338344 -1.53925 0
M  V30 1118 C 106.194 0.260732 -2.00008 0
M  V30 1119 C 106.507 1.52073 -1.23017 0
M  V30 1120 O 107.713 2.19672 -1.5955 0
M  V30 1121 C 106.169 0.51515 -3.56194 0
M  V30 1122 C 105.777 -0.728645 -4.42035 0
M  V30 1123 C 107.521 1.07337 -4.10706 0
M  V30 1124 C 105.428 -0.445315 -5.89721 0
M  V30 1125 H 104.358 0.101205 -0.747177 0
M  V30 1126 H 107.009 -0.452866 -1.77824 0
M  V30 1127 H 105.391 1.28932 -3.74423 0
M  V30 1128 H 106.565 -1.50352 -4.35581 0
M  V30 1129 H 104.88 -1.20813 -3.98489 0
M  V30 1130 H 107.477 1.30022 -5.18651 0
M  V30 1131 H 107.82 2.0273 -3.63602 0
M  V30 1132 H 108.353 0.360034 -3.96167 0
M  V30 1133 H 105.092 -1.36883 -6.41049 0
M  V30 1134 H 104.612 0.291569 -5.99091 0
M  V30 1135 H 106.291 -0.0606218 -6.46972 0
M  V30 1136 N 106.423 1.57458 -0.0668435 0
M  V30 1137 C 107.671 1.92919 0.602214 0
M  V30 1138 C 107.992 0.947215 1.70449 0
M  V30 1139 O 107.262 -0.00544117 1.95899 0
M  V30 1140 H 105.842 0.71217 0.22544 0
M  V30 1141 H 108.504 1.94508 -0.123535 0
M  V30 1142 H 107.6 2.94589 1.03073 0
M  V30 1143 N 107.901 -0.206675 1.56239 0
M  V30 1144 C 109.148 -0.928842 1.79941 0
M  V30 1145 C 109.476 -1.83734 0.638131 0
M  V30 1146 O 108.731 -1.92039 -0.376746 0
M  V30 1147 C 109.03 -1.78675 3.09532 0
M  V30 1148 C 108.696 -1.03022 4.38973 0
M  V30 1149 C 107.358 -0.821302 4.74139 0
M  V30 1150 C 109.71 -0.497081 5.18824 0
M  V30 1151 C 107.038 -0.0675719 5.86661 0
M  V30 1152 C 109.39 0.24338 6.32132 0
M  V30 1153 C 108.054 0.463422 6.65889 0
M  V30 1154 H 107.324 -0.339887 0.658451 0
M  V30 1155 H 109.971 -0.195977 1.90495 0
M  V30 1156 H 108.276 -2.58794 2.94165 0
M  V30 1157 H 109.973 -2.34792 3.25075 0
M  V30 1158 H 106.563 -1.20306 4.11369 0
M  V30 1159 H 110.747 -0.645921 4.92079 0
M  V30 1160 H 106.003 0.112995 6.11296 0
M  V30 1161 H 110.177 0.66393 6.93228 0
M  V30 1162 H 107.804 1.04938 7.52922 0
M  V30 1163 N 109.379 -1.50304 -0.473955 0
M  V30 1164 C 110.289 -1.7174 -1.5982 0
M  V30 1165 C 111.305 -0.600457 -1.63311 0
M  V30 1166 O 112.481 -0.878441 -1.81233 0
M  V30 1167 C 109.546 -1.80427 -2.96052 0
M  V30 1168 C 108.607 -3.04148 -3.02972 0
M  V30 1169 C 107.84 -3.12411 -4.32706 0
M  V30 1170 O 108.063 -2.27542 -5.23049 0
M  V30 1171 O 106.997 -4.05113 -4.45159 0
M  V30 1172 H 110.823 -2.67035 -1.44657 0
M  V30 1173 H 108.408 -1.34366 -0.653148 0
M  V30 1174 H 110.29 -1.88338 -3.7697 0
M  V30 1175 H 108.965 -0.883156 -3.11419 0
M  V30 1176 H 107.872 -3.0174 -2.21142 0
M  V30 1177 H 109.205 -3.95829 -2.92541 0
M  V30 1178 N 110.857 0.726932 -1.39834 0
M  V30 1179 C 112.085 1.51613 -1.40787 0
M  V30 1180 C 112.5 1.88799 -0.00451505 0
M  V30 1181 O 111.857 1.54662 0.968809 0
M  V30 1182 C 111.908 2.79863 -2.28821 0
M  V30 1183 O 111.629 2.44253 -3.63692 0
M  V30 1184 C 113.13 3.73837 -2.38245 0
M  V30 1185 H 110.35 0.468264 -0.480593 0
M  V30 1186 H 112.894 0.897607 -1.83748 0
M  V30 1187 H 111.049 3.38027 -1.89252 0
M  V30 1188 H 111.463 3.26695 -4.1033 0
M  V30 1189 H 112.937 4.60699 -3.04073 0
M  V30 1190 H 113.414 4.16153 -1.40403 0
M  V30 1191 H 114.02 3.21589 -2.78317 0
M  V30 1192 N 112.336 1.25143 0.95797 0
M  V30 1193 C 113.576 1.10893 1.71703 0
M  V30 1194 C 113.94 -0.34478 1.88879 0
M  V30 1195 O 115.141 -0.609014 2.6181 0
M  V30 1196 C 113.412 1.83889 3.06463 0
M  V30 1197 S 114.971 1.85491 3.97666 0
M  V30 1198 H 111.789 0.396428 0.590226 0
M  V30 1199 H 114.391 1.58618 1.14283 0
M  V30 1200 H 113.095 2.88756 2.9163 0
M  V30 1201 H 112.626 1.36538 3.68946 0
M  V30 1202 H 114.641 0.929553 4.87415 0
M  V30 1203 N 113.814 -1.1601 1.06675 0
M  V30 1204 C 115.23 -1.38622 0.790948 0
M  V30 1205 C 115.43 -1.92109 -0.607965 0
M  V30 1206 O 114.486 -2.12239 -1.36787 0
M  V30 1207 C 115.799 -2.36347 1.85905 0
M  V30 1208 C 117.347 -2.50023 1.88301 0
M  V30 1209 C 117.822 -3.51033 2.94176 0
M  V30 1210 N 119.313 -3.58563 2.93235 0
M  V30 1211 C 120.048 -4.36521 3.71803 0
M  V30 1212 N 119.544 -5.17869 4.602 0
M  V30 1213 N 121.337 -4.31541 3.60178 0
M  V30 1214 H 113.488 -0.796294 1.96908 0
M  V30 1215 H 115.751 -0.412597 0.853503 0
M  V30 1216 H 115.457 -2.04147 2.86386 0
M  V30 1217 H 115.331 -3.36042 1.71334 0
M  V30 1218 H 117.718 -2.81524 0.884769 0
M  V30 1219 H 117.799 -1.5035 2.06951 0
M  V30 1220 H 117.443 -3.20268 3.94196 0
M  V30 1221 H 117.373 -4.50445 2.72776 0
M  V30 1222 H 119.864 -3.00496 2.29152 0
M  V30 1223 H 120.177 -5.74578 5.16797 0
M  V30 1224 H 118.522 -5.17199 4.64253 0
M  V30 1225 H 121.713 -3.67051 2.90502 0
M  V30 1226 H 121.886 -4.9205 4.21653 0
M  V30 1227 N 115.292 -0.849877 -1.32721 0
M  V30 1228 C 116.522 -0.46408 -2.0132 0
M  V30 1229 C 116.93 0.94246 -1.64056 0
M  V30 1230 O 116.273 1.6257 -0.855379 0
M  V30 1231 C 116.335 -0.517887 -3.5575 0
M  V30 1232 C 115.999 -1.88248 -4.16427 0
M  V30 1233 C 116.996 -2.84726 -4.35002 0
M  V30 1234 C 114.681 -2.17832 -4.52609 0
M  V30 1235 C 116.675 -4.08945 -4.8892 0
M  V30 1236 C 114.362 -3.42304 -5.06232 0
M  V30 1237 C 115.36 -4.37677 -5.24335 0
M  V30 1238 O 115.048 -5.59946 -5.76815 0
M  V30 1239 H 114.78 -0.181327 -0.651227 0
M  V30 1240 H 117.334 -1.14713 -1.70382 0
M  V30 1241 H 115.564 0.221997 -3.86062 0
M  V30 1242 H 117.253 -0.148366 -4.05629 0
M  V30 1243 H 118.019 -2.63174 -4.07388 0
M  V30 1244 H 113.898 -1.44385 -4.37806 0
M  V30 1245 H 117.442 -4.83396 -5.02966 0
M  V30 1246 H 113.339 -3.63709 -5.33278 0
M  V30 1247 H 114.107 -5.61838 -5.95214 0
M  V30 1248 N 116.77 1.45427 -0.607355 0
M  V30 1249 C 118.018 2.01841 -0.102253 0
M  V30 1250 C 118.339 1.47832 1.27164 0
M  V30 1251 O 117.609 0.672497 1.83995 0
M  V30 1252 H 116.189 0.746188 -0.0348101 0
M  V30 1253 H 118.851 1.78229 -0.7887 0
M  V30 1254 H 117.947 3.12057 -0.0518585 0
M  V30 1255 N 118.248 0.346503 1.53744 0
M  V30 1256 C 119.495 -0.249104 2.00962 0
M  V30 1257 C 119.823 -1.5032 1.23426 0
M  V30 1258 O 119.078 -1.93217 0.310761 0
M  V30 1259 C 119.377 -0.605809 3.52228 0
M  V30 1260 C 119.043 0.551747 4.47512 0
M  V30 1261 C 117.705 0.86941 4.73281 0
M  V30 1262 C 120.057 1.32818 5.03993 0
M  V30 1263 C 117.385 1.96582 5.52786 0
M  V30 1264 C 119.737 2.41486 5.84694 0
M  V30 1265 C 118.401 2.73808 6.08757 0
M  V30 1266 H 117.671 -0.0911538 0.735372 0
M  V30 1267 H 120.318 0.475027 1.85515 0
M  V30 1268 H 118.623 -1.4107 3.65522 0
M  V30 1269 H 120.32 -1.07858 3.86222 0
M  V30 1270 H 116.91 0.294102 4.2759 0
M  V30 1271 H 121.094 1.09602 4.84047 0
M  V30 1272 H 116.35 2.22045 5.69654 0
M  V30 1273 H 120.524 3.02078 6.27473 0
M  V30 1274 H 118.151 3.58892 6.7015 0
M  V30 1275 N 119.726 -1.57421 0.075193 0
M  V30 1276 C 120.975 -1.92794 -0.592731 0
M  V30 1277 C 121.288 -0.957478 -1.70563 0
M  V30 1278 O 122.494 -1.20417 -2.43335 0
M  V30 1279 C 120.95 -3.42495 -1.10569 0
M  V30 1280 C 120.558 -4.47994 -0.0236121 0
M  V30 1281 C 122.302 -3.86864 -1.74748 0
M  V30 1282 C 120.209 -5.88829 -0.550803 0
M  V30 1283 H 119.139 -0.719591 -0.225177 0
M  V30 1284 H 121.79 -1.82902 0.147978 0
M  V30 1285 H 120.172 -3.47471 -1.89947 0
M  V30 1286 H 121.346 -4.54637 0.751099 0
M  V30 1287 H 119.661 -4.13113 0.522159 0
M  V30 1288 H 122.258 -4.8947 -2.15229 0
M  V30 1289 H 122.601 -3.24417 -2.60882 0
M  V30 1290 H 123.134 -3.84504 -1.01986 0
M  V30 1291 H 119.873 -6.54929 0.273457 0
M  V30 1292 H 119.393 -5.85698 -1.29296 0
M  V30 1293 H 121.072 -6.38811 -1.02613 0
M  V30 1294 N 121.204 0.198386 -1.56346 0
M  V30 1295 C 122.114 1.2664 -1.97483 0
M  V30 1296 C 123.13 1.49989 -0.882002 0
M  V30 1297 O 124.306 1.62668 -1.18748 0
M  V30 1298 C 121.371 2.59141 -2.30319 0
M  V30 1299 C 120.432 2.43892 -3.53292 0
M  V30 1300 C 119.665 3.70074 -3.84553 0
M  V30 1301 O 119.888 4.74101 -3.1715 0
M  V30 1302 O 118.822 3.658 -4.7799 0
M  V30 1303 H 122.648 0.947304 -2.88548 0
M  V30 1304 H 120.233 0.403123 -1.43859 0
M  V30 1305 H 122.115 3.37352 -2.5253 0
M  V30 1306 H 120.79 2.90684 -1.42423 0
M  V30 1307 H 119.697 1.63803 -3.36332 0
M  V30 1308 H 121.03 2.17282 -4.41644 0
M  V30 1309 N 122.682 1.50554 0.465978 0
M  V30 1310 C 123.93 1.61479 1.21528 0
M  V30 1311 C 124.251 0.319596 1.92363 0
M  V30 1312 O 123.521 -0.663194 1.84333 0
M  V30 1313 H 122.101 0.595055 0.451573 0
M  V30 1314 H 124.763 1.87355 0.53704 0
M  V30 1315 H 123.859 2.42846 1.96042 0
M  V30 1316 N 124.16 -0.719506 1.40217 0
M  V30 1317 C 125.11 -1.8251 1.36653 0
M  V30 1318 C 126.094 -1.59028 0.244732 0
M  V30 1319 O 127.286 -1.70268 0.483524 0
M  V30 1320 C 124.415 -3.20599 1.22763 0
M  V30 1321 C 123.501 -3.49858 2.39708 0
M  V30 1322 N 123.892 -3.49957 3.6519 0
M  V30 1323 C 122.19 -3.80297 2.33002 0
M  V30 1324 C 122.891 -3.77449 4.42614 0
M  V30 1325 N 121.867 -3.96002 3.72402 0
M  V30 1326 H 125.669 -1.80914 2.31619 0
M  V30 1327 H 123.183 -0.918455 1.33933 0
M  V30 1328 H 125.18 -3.99766 1.18292 0
M  V30 1329 H 123.84 -3.23424 0.287614 0
M  V30 1330 H 124.851 -3.309 3.98404 0
M  V30 1331 H 121.528 -3.90635 1.47346 0
M  V30 1332 H 122.918 -3.83863 5.51451 0
M  V30 1333 N 125.638 -1.25649 -0.95132 0
M  V30 1334 C 126.884 -1.10757 -1.69884 0
M  V30 1335 C 127.217 0.350061 -1.91019 0
M  V30 1336 O 126.492 1.25783 -1.48354 0
M  V30 1337 C 126.775 -1.86606 -3.07978 0
M  V30 1338 C 126.628 -3.40217 -2.94232 0
M  V30 1339 C 127.947 -1.65182 -4.07925 0
M  V30 1340 H 125.066 -0.40374 -0.616574 0
M  V30 1341 H 127.708 -1.54521 -1.10558 0
M  V30 1342 H 125.858 -1.49409 -3.58621 0
M  V30 1343 H 127.53 -3.87108 -2.50889 0
M  V30 1344 H 125.773 -3.67759 -2.30078 0
M  V30 1345 H 126.444 -3.88505 -3.92133 0
M  V30 1346 H 128.92 -1.9757 -3.66204 0
M  V30 1347 H 127.796 -2.20683 -5.02583 0
M  V30 1348 H 128.057 -0.593933 -4.38092 0
M  V30 1349 N 127.117 1.15442 -1.07289 0
M  V30 1350 C 128.363 1.86489 -0.796846 0
M  V30 1351 C 128.696 1.82078 0.675371 0
M  V30 1352 O 127.971 1.24346 1.4956 0
M  V30 1353 C 128.254 3.35626 -1.30489 0
M  V30 1354 C 128.107 3.48673 -2.84161 0
M  V30 1355 C 129.426 4.30357 -0.920907 0
M  V30 1356 H 126.545 0.677144 -0.290939 0
M  V30 1357 H 129.187 1.35633 -1.33056 0
M  V30 1358 H 127.337 3.79068 -0.850883 0
M  V30 1359 H 129.009 3.14099 -3.37846 0
M  V30 1360 H 127.252 2.90253 -3.22391 0
M  V30 1361 H 127.923 4.53453 -3.14777 0
M  V30 1362 H 130.399 3.94871 -1.3121 0
M  V30 1363 H 129.275 5.33193 -1.30372 0
M  V30 1364 H 129.536 4.4176 0.173226 0
M  V30 1365 N 128.595 0.856903 1.32268 0
M  V30 1366 C 129.844 0.457599 1.96441 0
M  V30 1367 C 130.157 -0.992426 1.68553 0
M  V30 1368 O 131.363 -1.49727 2.26482 0
M  V30 1369 C 129.819 0.767358 3.51624 0
M  V30 1370 C 129.427 2.23326 3.88367 0
M  V30 1371 C 131.171 0.435887 4.22256 0
M  V30 1372 C 129.078 2.48613 5.36606 0
M  V30 1373 H 128.008 0.167387 0.735185 0
M  V30 1374 H 130.659 1.048 1.5063 0
M  V30 1375 H 129.041 0.106367 3.95857 0
M  V30 1376 H 130.215 2.93623 3.55137 0
M  V30 1377 H 128.53 2.52948 3.30766 0
M  V30 1378 H 131.127 0.602202 5.31298 0
M  V30 1379 H 131.47 -0.622672 4.11617 0
M  V30 1380 H 132.003 1.05286 3.83614 0
M  V30 1381 H 128.742 3.53101 5.52268 0
M  V30 1382 H 128.262 1.82896 5.71235 0
M  V30 1383 H 129.941 2.32676 6.03714 0
M  V30 1384 N 130.073 -1.45103 0.615059 0
M  V30 1385 C 131.484 -1.85654 0.197383 0
M  V30 1386 C 131.835 -1.51433 -1.24749 0
M  V30 1387 O 130.96 -0.944608 -1.94695 0
M  V30 1388 C 131.555 -3.36972 0.351448 0
M  V30 1389 C 130.114 -3.76398 -0.011593 0
M  V30 1390 C 129.261 -2.69024 0.672394 0
M  V30 1391 H 132.212 -1.35797 0.821263 0
M  V30 1392 H 132.233 -3.78239 -0.414227 0
M  V30 1393 H 131.745 -3.61847 1.40314 0
M  V30 1394 H 129.846 -3.5714 -1.06217 0
M  V30 1395 H 129.959 -4.77532 0.387265 0
M  V30 1396 H 128.323 -2.54465 0.109284 0
M  V30 1397 H 129.106 -2.96735 1.72636 0
M  V30 1398 N 131.551 -0.354651 -1.53558 0
M  V30 1399 C 132.967 -0.00315426 -1.596 0
M  V30 1400 C 133.167 1.47741 -1.37021 0
M  V30 1401 O 132.223 2.23759 -1.16996 0
M  V30 1402 C 133.536 -0.44929 -2.97325 0
M  V30 1403 C 135.084 -0.402578 -3.104 0
M  V30 1404 C 135.559 -0.824355 -4.5052 0
M  V30 1405 N 137.05 -0.778979 -4.56603 0
M  V30 1406 C 137.785 -1.07715 -5.63192 0
M  V30 1407 N 137.281 -1.44405 -6.77583 0
M  V30 1408 N 139.074 -1.00066 -5.53121 0
M  V30 1409 H 131.225 -1.31893 -1.66487 0
M  V30 1410 H 133.488 -0.538388 -0.780284 0
M  V30 1411 H 133.194 -1.48202 -3.1895 0
M  V30 1412 H 133.068 0.169772 -3.76818 0
M  V30 1413 H 135.455 0.621004 -2.88492 0
M  V30 1414 H 135.536 -1.05699 -2.32941 0
M  V30 1415 H 135.18 -1.846 -4.73165 0
M  V30 1416 H 135.11 -0.147304 -5.26394 0
M  V30 1417 H 137.601 -0.508528 -3.74463 0
M  V30 1418 H 137.914 -1.65612 -7.54846 0
M  V30 1419 H 136.259 -1.4826 -6.79002 0
M  V30 1420 H 139.45 -0.713293 -4.62633 0
M  V30 1421 H 139.623 -1.23638 -6.36096 0
M  V30 1422 N 133.029 1.57378 -0.0835403 0
M  V30 1423 C 134.278 1.93106 0.582498 0
M  V30 1424 C 134.591 0.96651 1.70053 0
M  V30 1425 O 135.797 1.21705 2.42693 0
M  V30 1426 C 134.253 3.43076 1.08751 0
M  V30 1427 C 133.861 4.48 -0.000146404 0
M  V30 1428 C 135.605 3.87785 1.72694 0
M  V30 1429 C 133.512 5.89113 0.519568 0
M  V30 1430 H 132.442 0.720775 0.221358 0
M  V30 1431 H 135.093 1.82821 -0.157675 0
M  V30 1432 H 133.475 3.48474 1.88101 0
M  V30 1433 H 134.649 4.54233 -0.775199 0
M  V30 1434 H 132.964 4.1283 -0.54406 0
M  V30 1435 H 135.561 4.90604 2.1263 0
M  V30 1436 H 135.904 3.25796 2.59158 0
M  V30 1437 H 136.437 3.8504 0.999457 0
M  V30 1438 H 133.176 6.54775 -0.308186 0
M  V30 1439 H 132.696 5.86376 1.26188 0
M  V30 1440 H 134.375 6.39346 0.992237 0
M  V30 1441 N 134.507 -0.190092 1.56449 0
M  V30 1442 C 135.457 -1.23977 1.91347 0
M  V30 1443 C 136.441 -1.40747 0.779693 0
M  V30 1444 O 137.633 -1.43033 1.04262 0
M  V30 1445 C 134.762 -2.58347 2.26079 0
M  V30 1446 C 133.848 -2.4535 3.45925 0
M  V30 1447 N 134.239 -2.02039 4.63696 0
M  V30 1448 C 132.537 -2.76229 3.50162 0
M  V30 1449 C 133.238 -2.01053 5.4585 0
M  V30 1450 N 132.214 -2.42747 4.8639 0
M  V30 1451 H 136.016 -0.896318 2.79899 0
M  V30 1452 H 133.53 -0.398496 1.57435 0
M  V30 1453 H 135.527 -3.34173 2.49267 0
M  V30 1454 H 134.187 -2.93512 1.38856 0
M  V30 1455 H 135.198 -1.7267 4.88268 0
M  V30 1456 H 131.875 -3.15556 2.73369 0
M  V30 1457 H 133.265 -1.69426 6.50188 0
M  V30 1458 N 135.985 -1.50799 -0.457987 0
M  V30 1459 C 137.396 -1.55152 -1.0385 0
M  V30 1460 C 137.747 -0.362719 -1.92818 0
M  V30 1461 O 136.872 0.522915 -2.09987 0
M  V30 1462 C 137.467 -2.81173 -1.89017 0
M  V30 1463 C 136.026 -2.88164 -2.42154 0
M  V30 1464 C 135.173 -2.49591 -1.20829 0
M  V30 1465 H 138.124 -1.56874 -0.240068 0
M  V30 1466 H 138.145 -2.63769 -2.74238 0
M  V30 1467 H 137.657 -3.67677 -1.24238 0
M  V30 1468 H 135.758 -2.06042 -3.10447 0
M  V30 1469 H 135.871 -3.91356 -2.76364 0
M  V30 1470 H 134.235 -2.02322 -1.54719 0
M  V30 1471 H 135.018 -3.38418 -0.576927 0
M  V30 1472 N 137.463 0.71206 -1.40597 0
M  V30 1473 C 138.411 1.84746 -1.41321 0
M  V30 1474 C 139.405 1.66842 -0.293268 0
M  V30 1475 O 140.611 1.73904 -0.464481 0
M  V30 1476 H 136.986 0.608522 -0.441819 0
M  V30 1477 H 138.957 1.81252 -2.37045 0
M  V30 1478 C 137.706 3.22638 -1.29614 0
M  V30 1479 H 137.029 3.37023 -2.15071 0
M  V30 1480 H 138.469 4.02209 -1.3418 0
M  V30 1481 C 136.928 3.36899 -0.00673121 0
M  V30 1482 O 137.458 3.90186 0.954859 0
M  V30 1483 N 135.664 2.9053 0.0639327 0
M  V30 1484 H 135.211 2.47353 -0.719311 0
M  V30 1485 H 135.169 3.0045 0.926118 0
M  V30 1486 N 138.941 1.26152 0.944643 0
M  V30 1487 C 140.166 1.14363 1.7302 0
M  V30 1488 C 140.591 -0.29772 1.85729 0
M  V30 1489 O 139.949 -1.2157 1.34501 0
M  V30 1490 C 139.997 1.81378 3.11664 0
M  V30 1491 O 139.101 1.10022 3.97453 0
M  V30 1492 H 138.442 0.398694 0.53098 0
M  V30 1493 H 140.972 1.66906 1.18337 0
M  V30 1494 H 140.982 1.88064 3.62072 0
M  V30 1495 H 139.657 2.86237 3.0173 0
M  V30 1496 H 138.234 1.11287 3.55907 0
M  V30 1497 N 140.419 -1.14872 1.07899 0
M  V30 1498 C 141.668 -1.85135 0.800499 0
M  V30 1499 C 141.981 -1.83547 -0.676014 0
M  V30 1500 O 143.187 -2.49548 -1.06948 0
M  V30 1501 C 141.643 -3.3231 1.38197 0
M  V30 1502 C 141.251 -3.42329 2.8899 0
M  V30 1503 C 142.995 -4.0772 1.18174 0
M  V30 1504 C 140.902 -4.83684 3.403 0
M  V30 1505 H 139.832 -0.693563 0.29578 0
M  V30 1506 H 142.483 -1.29532 1.29976 0
M  V30 1507 H 140.865 -3.87618 0.810431 0
M  V30 1508 H 142.039 -2.97097 3.52236 0
M  V30 1509 H 140.354 -2.80369 3.07867 0
M  V30 1510 H 142.951 -5.12049 1.5398 0
M  V30 1511 H 143.294 -4.16124 0.12117 0
M  V30 1512 H 143.827 -3.58696 1.71994 0
M  V30 1513 H 140.566 -4.80465 4.45907 0
M  V30 1514 H 140.086 -5.29474 2.81811 0
M  V30 1515 H 141.765 -5.52558 3.36584 0
M  V30 1516 N 141.898 -0.863906 -1.31812 0
M  V30 1517 C 143.138 -0.47825 -1.98726 0
M  V30 1518 C 143.502 0.950397 -1.66828 0
M  V30 1519 O 144.703 1.44109 -2.26905 0
M  V30 1520 C 142.974 -0.721134 -3.50049 0
M  V30 1521 S 144.533 -0.434432 -4.36644 0
M  V30 1522 H 141.351 -0.178773 -0.688158 0
M  V30 1523 H 143.953 -1.11862 -1.60334 0
M  V30 1524 H 142.657 -1.75981 -3.70755 0
M  V30 1525 H 142.188 -0.0675315 -3.93342 0
M  V30 1526 H 144.203 0.735786 -4.90714 0
M  V30 1527 N 143.376 1.44774 -0.622745 0
M  V30 1528 C 144.339 2.29069 0.0774015 0
M  V30 1529 C 145.339 1.4059 0.780461 0
M  V30 1530 O 146.529 1.62551 0.626322 0
M  V30 1531 C 143.661 3.21974 1.12006 0
M  V30 1532 H 144.854 2.92459 -0.663901 0
M  V30 1533 H 142.407 1.51548 -0.382486 0
M  V30 1534 H 143.142 2.63417 1.89162 0
M  V30 1535 H 142.927 3.87168 0.619951 0
M  V30 1536 H 144.417 3.85318 1.60995 0
M  V30 1537 N 144.854 0.36279 1.53368 0
M  V30 1538 C 145.817 -0.472679 2.24273 0
M  V30 1539 C 146.817 -1.012 1.24961 0
M  V30 1540 O 148.007 -0.898194 1.49259 0
M  V30 1541 C 145.139 -1.66039 2.97731 0
M  V30 1542 H 146.332 0.14773 2.99536 0
M  V30 1543 H 143.885 0.114434 1.55881 0
M  V30 1544 H 144.62 -2.31896 2.26704 0
M  V30 1545 H 144.405 -1.28066 3.70596 0
M  V30 1546 H 145.895 -2.25252 3.51641 0
M  V30 1547 N 146.332 -1.57332 0.0918853 0
M  V30 1548 C 147.28 -2.15075 -0.885747 0
M  V30 1549 C 148.274 -1.09277 -1.29441 0
M  V30 1550 O 149.48 -1.27627 -1.26931 0
M  V30 1551 H 145.855 -0.687966 -0.303656 0
M  V30 1552 H 147.826 -2.96047 -0.373995 0
M  V30 1553 C 146.575 -2.74325 -2.13638 0
M  V30 1554 H 145.898 -3.55418 -1.8308 0
M  V30 1555 H 147.338 -3.183 -2.80109 0
M  V30 1556 C 145.797 -1.70062 -2.90827 0
M  V30 1557 O 146.327 -1.13763 -3.85254 0
M  V30 1558 N 144.533 -1.40628 -2.54307 0
M  V30 1559 H 144.08 -1.866 -1.7759 0
M  V30 1560 H 144.038 -0.711043 -3.06254 0
M  V30 1561 N 147.81 0.181792 -1.56548 0
M  V30 1562 C 148.758 1.24461 -1.965 0
M  V30 1563 C 149.752 1.464 -0.852261 0
M  V30 1564 O 150.958 1.47103 -1.03733 0
M  V30 1565 H 147.333 0.418138 -0.625031 0
M  V30 1566 H 149.304 0.880714 -2.85107 0
M  V30 1567 C 148.053 2.57891 -2.33212 0
M  V30 1568 H 147.376 2.41829 -3.18369 0
M  V30 1569 H 148.816 3.3097 -2.65019 0
M  V30 1570 C 147.275 3.15871 -1.17163 0
M  V30 1571 O 147.805 3.9913 -0.453708 0
M  V30 1572 N 146.011 2.74808 -0.944936 0
M  V30 1573 H 145.558 2.07205 -1.53049 0
M  V30 1574 H 145.516 3.13939 -0.170286 0
M  V30 1575 N 149.288 1.51039 0.449983 0
M  V30 1576 C 150.516 1.66869 1.2232 0
M  V30 1577 C 150.931 0.360727 1.85322 0
M  V30 1578 O 150.288 -0.659531 1.70166 0
M  V30 1579 C 150.339 2.77524 2.31652 0
M  V30 1580 O 150.06 4.03252 1.7123 0
M  V30 1581 C 151.561 3.04512 3.2216 0
M  V30 1582 H 148.781 0.560326 0.369155 0
M  V30 1583 H 151.325 1.97385 0.534719 0
M  V30 1584 H 149.48 2.49642 2.96239 0
M  V30 1585 H 149.894 4.64609 2.43389 0
M  V30 1586 H 151.368 3.85551 3.95038 0
M  V30 1587 H 151.845 2.16415 3.8218 0
M  V30 1588 H 152.451 3.34005 2.63288 0
M  V30 1589 N 150.766 -0.704594 1.40972 0
M  V30 1590 C 152.014 -1.46169 1.39568 0
M  V30 1591 C 152.335 -1.95 0.00253745 0
M  V30 1592 O 151.605 -1.71095 -0.954114 0
M  V30 1593 H 150.185 -0.542326 0.513704 0
M  V30 1594 H 152.847 -0.834553 1.76128 0
M  V30 1595 H 151.943 -2.32922 2.07735 0
M  V30 1596 N 152.244 -1.26651 -0.937939 0
M  V30 1597 C 153.49 -1.12553 -1.687 0
M  V30 1598 C 153.823 0.329782 -1.91379 0
M  V30 1599 O 153.098 1.24202 -1.4968 0
M  V30 1600 C 153.381 -1.89862 -3.05981 0
M  V30 1601 C 153.234 -3.43318 -2.90607 0
M  V30 1602 C 154.553 -1.69499 -4.0615 0
M  V30 1603 H 151.672 -0.410257 -0.612257 0
M  V30 1604 H 154.314 -1.55685 -1.08913 0
M  V30 1605 H 152.464 -1.53204 -3.57017 0
M  V30 1606 H 154.136 -3.89747 -2.46769 0
M  V30 1607 H 152.379 -3.70179 -2.26164 0
M  V30 1608 H 153.05 -3.92642 -3.8799 0
M  V30 1609 H 155.526 -2.01442 -3.64088 0
M  V30 1610 H 154.402 -2.26002 -5.00214 0
M  V30 1611 H 154.663 -0.640365 -4.37438 0
M  V30 1612 N 153.722 1.14298 -1.08507 0
M  V30 1613 C 154.952 1.88945 -0.835663 0
M  V30 1614 C 155.36 1.78894 0.615928 0
M  V30 1615 O 154.703 1.1468 1.43506 0
M  V30 1616 C 154.765 3.39585 -1.17994 0
M  V30 1617 C 154.429 3.7342 -2.63451 0
M  V30 1618 C 155.426 3.73454 -3.61702 0
M  V30 1619 C 153.111 4.03368 -2.99332 0
M  V30 1620 C 155.105 4.02961 -4.93864 0
M  V30 1621 C 152.792 4.32538 -4.31687 0
M  V30 1622 C 153.79 4.32318 -5.28763 0
M  V30 1623 O 153.478 4.6078 -6.58739 0
M  V30 1624 H 153.21 0.605307 -0.300965 0
M  V30 1625 H 155.764 1.45673 -1.44806 0
M  V30 1626 H 153.994 3.83315 -0.51055 0
M  V30 1627 H 155.683 3.9554 -0.911182 0
M  V30 1628 H 156.449 3.50403 -3.35325 0
M  V30 1629 H 152.328 4.02692 -2.24411 0
M  V30 1630 H 155.872 4.02704 -5.69627 0
M  V30 1631 H 151.769 4.55059 -4.57812 0
M  V30 1632 H 152.537 4.78492 -6.64069 0
M  V30 1633 N 155.201 0.870884 1.31352 0
M  V30 1634 C 156.45 0.478408 1.95944 0
M  V30 1635 C 156.763 -0.974493 1.69597 0
M  V30 1636 O 157.969 -1.47316 2.28058 0
M  V30 1637 C 156.425 0.804609 3.50791 0
M  V30 1638 C 156.033 2.27433 3.85977 0
M  V30 1639 C 157.777 0.480648 4.2177 0
M  V30 1640 C 155.684 2.5429 5.33939 0
M  V30 1641 H 154.614 0.175175 0.733369 0
M  V30 1642 H 157.265 1.06391 1.4951 0
M  V30 1643 H 155.647 0.148347 3.95722 0
M  V30 1644 H 156.821 2.97373 3.52002 0
M  V30 1645 H 155.136 2.56442 3.28065 0
M  V30 1646 H 157.733 0.658519 5.30629 0
M  V30 1647 H 158.076 -0.578979 4.12254 0
M  V30 1648 H 158.609 1.09349 3.82476 0
M  V30 1649 H 155.348 3.58939 5.48491 0
M  V30 1650 H 154.868 1.88945 5.69263 0
M  V30 1651 H 156.547 2.39066 6.01212 0
M  V30 1652 N 156.679 -1.44442 0.630414 0
M  V30 1653 C 157.609 -2.33418 -0.0618083 0
M  V30 1654 C 158.59 -1.48165 -0.835541 0
M  V30 1655 O 159.775 -1.76886 -0.801564 0
M  V30 1656 C 156.905 -3.31222 -1.04449 0
M  V30 1657 C 155.859 -4.26288 -0.382436 0
M  V30 1658 C 155.185 -5.13954 -1.47497 0
M  V30 1659 C 156.485 -5.1744 0.710865 0
M  V30 1660 H 158.179 -2.91548 0.681184 0
M  V30 1661 H 155.725 -1.40191 0.329026 0
M  V30 1662 H 157.678 -3.92351 -1.53748 0
M  V30 1663 H 156.402 -2.71299 -1.81836 0
M  V30 1664 H 155.061 -3.6649 0.0899054 0
M  V30 1665 H 154.709 -4.50385 -2.2397 0
M  V30 1666 H 154.409 -5.7837 -1.03737 0
M  V30 1667 H 155.933 -5.77955 -1.96979 0
M  V30 1668 H 157.347 -5.72509 0.300996 0
M  V30 1669 H 155.744 -5.90455 1.07156 0
M  V30 1670 H 156.814 -4.58496 1.57829 0
M  V30 1671 N 158.157 -0.370918 -1.53173 0
M  V30 1672 C 159.385 0.217704 -2.05751 0
M  V30 1673 C 159.8 1.42018 -1.24404 0
M  V30 1674 O 159.157 1.80245 -0.286033 0
M  V30 1675 C 159.208 0.605954 -3.56385 0
M  V30 1676 O 158.929 -0.548734 -4.3465 0
M  V30 1677 C 160.43 1.2524 -4.25241 0
M  V30 1678 H 157.65 0.0371659 -0.66997 0
M  V30 1679 H 160.194 -0.530832 -1.9749 0
M  V30 1680 H 158.349 1.3044 -3.6478 0
M  V30 1681 H 158.763 -0.23376 -5.23979 0
M  V30 1682 H 160.237 1.47458 -5.3194 0
M  V30 1683 H 160.714 2.2143 -3.79296 0
M  V30 1684 H 161.32 0.595233 -4.21114 0
M  V30 1685 N 159.635 1.57281 -0.100228 0
M  V30 1686 C 160.86 1.99302 0.573881 0
M  V30 1687 C 161.285 0.979059 1.60611 0
M  V30 1688 O 160.643 -0.0517803 1.81226 0
M  V30 1689 C 160.691 3.40274 1.19358 0
M  V30 1690 O 159.795 3.41676 2.30935 0
M  V30 1691 H 159.136 0.647944 0.145138 0
M  V30 1692 H 161.666 2.03779 -0.183156 0
M  V30 1693 H 161.676 3.78078 1.53365 0
M  V30 1694 H 160.351 4.13594 0.437385 0
M  V30 1695 H 158.928 3.15672 1.98509 0
M  V30 1696 N 161.113 -0.173488 1.56642 0
M  V30 1697 C 162.061 -1.23417 1.97157 0
M  V30 1698 C 163.055 -1.45946 0.860013 0
M  V30 1699 O 164.261 -1.46551 1.04512 0
M  V30 1700 H 160.636 -0.414818 0.62724 0
M  V30 1701 H 162.607 -0.865582 2.8557 0
M  V30 1702 C 161.356 -2.5665 2.34576 0
M  V30 1703 H 160.679 -2.40137 3.19647 0
M  V30 1704 H 162.119 -3.2956 2.6677 0
M  V30 1705 C 160.578 -3.15245 1.18836 0
M  V30 1706 O 161.108 -3.98883 0.474869 0
M  V30 1707 N 159.314 -2.74303 0.959497 0
M  V30 1708 H 158.861 -2.0639 1.54146 0
M  V30 1709 H 158.819 -3.13844 0.186932 0
M  V30 1710 N 162.591 -1.51276 -0.441967 0
M  V30 1711 C 163.819 -1.67516 -1.21434 0
M  V30 1712 C 164.234 -0.37055 -1.85128 0
M  V30 1713 O 163.591 0.650498 -1.70513 0
M  V30 1714 C 163.642 -2.78748 -2.30177 0
M  V30 1715 O 163.363 -4.04154 -1.69089 0
M  V30 1716 C 164.864 -3.06217 -3.20541 0
M  V30 1717 H 162.084 -0.562276 -0.366178 0
M  V30 1718 H 164.628 -1.97666 -0.524244 0
M  V30 1719 H 162.783 -2.5121 -2.94911 0
M  V30 1720 H 163.197 -4.65894 -2.40922 0
M  V30 1721 H 164.671 -3.8764 -3.92987 0
M  V30 1722 H 165.148 -2.18439 -3.81026 0
M  V30 1723 H 165.754 -3.35397 -2.61513 0
M  V30 1724 N 164.069 0.697108 -1.41344 0
M  V30 1725 C 165.294 1.49096 -1.44171 0
M  V30 1726 C 165.719 1.88038 -0.0481568 0
M  V30 1727 O 165.077 1.54525 0.948243 0
M  V30 1728 C 165.125 2.73088 -2.3549 0
M  V30 1729 O 164.229 3.70514 -1.81088 0
M  V30 1730 H 163.57 0.448801 -0.489361 0
M  V30 1731 H 166.1 0.856992 -1.85787 0
M  V30 1732 H 166.11 3.21413 -2.51312 0
M  V30 1733 H 164.785 2.44081 -3.36745 0
M  V30 1734 H 163.362 3.29441 -1.74708 0
M  V30 1735 N 165.547 1.27147 0.931209 0
M  V30 1736 C 166.479 1.05364 2.03546 0
M  V30 1737 C 167.492 0.0108438 1.62796 0
M  V30 1738 O 168.681 0.25202 1.76712 0
M  V30 1739 C 165.781 0.575566 3.33977 0
M  V30 1740 C 164.954 1.68985 4.03439 0
M  V30 1741 C 164.013 1.20813 5.12143 0
M  V30 1742 O 163.039 1.90712 5.363 0
M  V30 1743 N 164.241 0.0618851 5.80467 0
M  V30 1744 H 167.006 2.00454 2.22796 0
M  V30 1745 H 164.567 1.18666 1.10136 0
M  V30 1746 H 166.559 0.237264 4.04004 0
M  V30 1747 H 165.129 -0.282016 3.11325 0
M  V30 1748 H 164.349 2.19861 3.27192 0
M  V30 1749 H 165.637 2.4378 4.46597 0
M  V30 1750 H 165.035 -0.521621 5.6329 0
M  V30 1751 H 163.592 -0.217264 6.51438 0
M  V30 1752 N 167.025 -1.13721 1.09112 0
M  V30 1753 C 168.255 -1.88499 0.845671 0
M  V30 1754 C 168.663 -1.79218 -0.606432 0
M  V30 1755 O 168.006 -1.1544 -1.42896 0
M  V30 1756 C 168.068 -3.38954 1.19793 0
M  V30 1757 C 167.732 -3.72018 2.65428 0
M  V30 1758 C 168.729 -3.7153 3.63677 0
M  V30 1759 C 166.414 -4.01775 3.01467 0
M  V30 1760 C 168.408 -4.00336 4.95994 0
M  V30 1761 C 166.095 -4.30243 4.33975 0
M  V30 1762 C 167.093 -4.29508 5.31048 0
M  V30 1763 O 166.781 -4.5728 6.61173 0
M  V30 1764 H 166.513 -0.603702 0.304171 0
M  V30 1765 H 169.067 -1.44903 1.45576 0
M  V30 1766 H 167.297 -3.83039 0.530871 0
M  V30 1767 H 168.986 -3.95052 0.932146 0
M  V30 1768 H 169.752 -3.4862 3.37179 0
M  V30 1769 H 165.631 -4.01496 2.26544 0
M  V30 1770 H 169.175 -3.99678 5.71755 0
M  V30 1771 H 165.072 -4.52625 4.60219 0
M  V30 1772 H 165.84 -4.74964 6.66597 0
M  V30 1773 N 168.503 -0.877838 -1.30888 0
M  V30 1774 C 169.78 -0.413052 -1.91189 0
M  V30 1775 C 170.16 1.1056 -1.79832 0
M  V30 1776 O 169.508 1.93771 -1.21099 0
M  V30 1777 C 169.718 -0.903191 -3.3711 0
M  V30 1778 C 171.066 -0.93395 -4.14201 0
M  V30 1779 O 172.09 -0.849373 -3.45925 0
M  V30 1780 O 170.949 -1.05772 -5.36167 0
M  V30 1781 H 168.043 -0.125035 -0.817493 0
M  V30 1782 H 170.589 -0.966269 -1.39504 0
M  V30 1783 H 169.361 -1.94692 -3.39427 0
M  V30 1784 H 168.984 -0.328732 -3.96239 0
M  V30 1785 N 169.982 1.44106 -0.638065 0
M  V30 1786 C 171.21 2.06336 -0.152615 0
M  V30 1787 C 171.625 1.47731 1.17563 0
M  V30 1788 O 170.982 0.602806 1.72257 0
M  V30 1789 C 171.033 3.61479 -0.0391491 0
M  V30 1790 O 170.754 4.17903 -1.31487 0
M  V30 1791 C 172.255 4.40757 0.474176 0
M  V30 1792 H 169.475 0.665862 -0.0828776 0
M  V30 1793 H 172.019 1.84862 -0.87443 0
M  V30 1794 H 170.174 3.82191 0.633142 0
M  V30 1795 H 170.588 5.11416 -1.16421 0
M  V30 1796 H 172.062 5.49707 0.502562 0
M  V30 1797 H 172.539 4.12697 1.50258 0
M  V30 1798 H 173.145 4.24979 -0.165102 0
M  V30 1799 N 171.46 0.379036 1.52974 0
M  V30 1800 C 172.69 -0.20649 2.05566 0
M  V30 1801 C 173.098 -1.41906 1.25137 0
M  V30 1802 O 172.441 -1.81421 0.288464 0
M  V30 1803 C 172.503 -0.651086 3.53555 0
M  V30 1804 C 172.167 0.446626 4.54812 0
M  V30 1805 C 173.164 1.30079 5.03364 0
M  V30 1806 C 170.849 0.610719 4.98573 0
M  V30 1807 C 172.843 2.30426 5.94292 0
M  V30 1808 C 170.53 1.61754 5.89304 0
M  V30 1809 C 171.528 2.46274 6.37054 0
M  V30 1810 O 171.216 3.45237 7.25994 0
M  V30 1811 H 170.948 -0.0372381 0.674974 0
M  V30 1812 H 173.502 0.539718 1.98182 0
M  V30 1813 H 171.732 -1.44911 3.58522 0
M  V30 1814 H 173.421 -1.16112 3.88938 0
M  V30 1815 H 174.187 1.18527 4.70294 0
M  V30 1816 H 170.066 -0.0374044 4.60985 0
M  V30 1817 H 173.61 2.96432 6.31485 0
M  V30 1818 H 169.507 1.73348 6.21788 0
M  V30 1819 H 170.275 3.41124 7.44027 0
M  V30 1820 N 172.938 -1.57226 0.108567 0
M  V30 1821 C 174.178 -1.96717 -0.555155 0
M  V30 1822 C 174.542 -0.990003 -1.64508 0
M  V30 1823 O 175.743 -1.2739 -2.36696 0
M  V30 1824 C 174.014 -3.40575 -1.08367 0
M  V30 1825 S 175.573 -4.02072 -1.75737 0
M  V30 1826 H 172.391 -0.687638 -0.180762 0
M  V30 1827 H 174.993 -1.94563 0.191172 0
M  V30 1828 H 173.697 -4.0945 -0.279092 0
M  V30 1829 H 173.228 -3.46356 -1.86551 0
M  V30 1830 H 175.243 -3.91977 -3.04251 0
M  V30 1831 N 174.416 0.165178 -1.56732 0
M  V30 1832 C 175.663 0.880807 -1.8234 0
M  V30 1833 C 175.991 1.81977 -0.686621 0
M  V30 1834 O 175.246 1.92971 0.325697 0
M  V30 1835 C 175.545 1.70405 -3.1416 0
M  V30 1836 C 175.211 0.913475 -4.4155 0
M  V30 1837 C 173.873 0.695303 -4.7615 0
M  V30 1838 C 176.225 0.359349 -5.1996 0
M  V30 1839 C 173.553 -0.0879947 -5.86634 0
M  V30 1840 C 175.905 -0.410893 -6.31264 0
M  V30 1841 C 174.569 -0.639808 -6.64427 0
M  V30 1842 H 173.839 0.32231 -0.667231 0
M  V30 1843 H 176.486 0.145402 -1.90947 0
M  V30 1844 H 174.791 2.50903 -3.00923 0
M  V30 1845 H 176.488 2.26091 -3.31186 0
M  V30 1846 H 173.078 1.09357 -4.14414 0
M  V30 1847 H 177.262 0.515228 -4.93618 0
M  V30 1848 H 172.518 -0.27503 -6.10781 0
M  V30 1849 H 176.692 -0.847494 -6.91224 0
M  V30 1850 H 174.319 -1.24864 -7.49875 0
M  V30 1851 N 175.894 1.51508 0.433938 0
M  V30 1852 C 176.842 1.73646 1.54757 0
M  V30 1853 C 177.836 0.602854 1.5831 0
M  V30 1854 O 179.042 0.784318 1.62014 0
M  V30 1855 H 175.417 0.548718 0.51421 0
M  V30 1856 H 177.388 2.66991 1.33261 0
M  V30 1857 C 176.137 1.88172 2.92381 0
M  V30 1858 H 175.46 2.74808 2.90381 0
M  V30 1859 H 176.9 2.07672 3.6966 0
M  V30 1860 C 175.359 0.64239 3.30719 0
M  V30 1861 O 175.889 -0.201362 4.01195 0
M  V30 1862 N 174.095 0.485489 2.86516 0
M  V30 1863 H 173.642 1.17318 2.29334 0
M  V30 1864 H 173.6 -0.342482 3.12529 0
M  V30 1865 N 177.372 -0.689602 1.41712 0
M  V30 1866 C 178.335 -1.78521 1.43746 0
M  V30 1867 C 179.335 -1.57436 0.327191 0
M  V30 1868 O 180.525 -1.64 0.587348 0
M  V30 1869 C 177.657 -3.16971 1.25467 0
M  V30 1870 H 178.85 -1.78108 2.41283 0
M  V30 1871 H 176.403 -0.89781 1.27942 0
M  V30 1872 H 177.138 -3.23019 0.287948 0
M  V30 1873 H 176.923 -3.33678 2.05917 0
M  V30 1874 H 178.413 -3.96935 1.2974 0
M  V30 1875 N 178.85 -1.27639 -0.924453 0
M  V30 1876 C 180.075 -1.17101 -1.71179 0
M  V30 1877 C 180.5 0.268134 -1.86179 0
M  V30 1878 O 179.858 1.19415 -1.36418 0
M  V30 1879 C 179.906 -1.86313 -3.08739 0
M  V30 1880 O 179.01 -1.16331 -3.95652 0
M  V30 1881 H 178.351 -0.407091 -0.524569 0
M  V30 1882 H 180.881 -1.68767 -1.15666 0
M  V30 1883 H 180.891 -1.938 -3.59034 0
M  V30 1884 H 179.566 -2.91001 -2.97138 0
M  V30 1885 H 178.143 -1.16935 -3.54091 0
M  V30 1886 N 180.328 1.1314 -1.09713 0
M  V30 1887 C 181.291 2.16831 -0.742751 0
M  V30 1888 C 182.291 1.59159 0.229129 0
M  V30 1889 O 183.481 1.74199 0.00693237 0
M  V30 1890 C 180.613 3.40756 -0.0989168 0
M  V30 1891 H 181.806 2.49695 -1.66109 0
M  V30 1892 H 179.359 1.2802 -0.896699 0
M  V30 1893 H 180.094 3.13485 0.830514 0
M  V30 1894 H 179.879 3.83888 -0.798265 0
M  V30 1895 H 181.369 4.17386 0.133524 0
M  V30 1896 N 181.806 0.884767 1.30421 0
M  V30 1897 C 183.217 0.553656 1.78302 0
M  V30 1898 C 183.568 -0.930153 1.7275 0
M  V30 1899 O 182.693 -1.72681 1.30423 0
M  V30 1900 C 183.288 0.998234 3.2376 0
M  V30 1901 C 181.847 0.71854 3.69478 0
M  V30 1902 C 180.994 1.18132 2.50879 0
M  V30 1903 H 183.945 1.06901 1.17294 0
M  V30 1904 H 183.966 0.327118 3.79091 0
M  V30 1905 H 183.478 2.0782 3.27769 0
M  V30 1906 H 181.579 -0.349444 3.70958 0
M  V30 1907 H 181.692 1.30595 4.60958 0
M  V30 1908 H 180.056 0.600669 2.47516 0
M  V30 1909 H 180.839 2.26902 2.57624 0
M  V30 1910 N 183.284 -1.43765 0.645699 0
M  V30 1911 C 184.695 -1.85193 0.236719 0
M  V30 1912 C 185.046 -1.54045 -1.21509 0
M  V30 1913 O 184.171 -0.985694 -1.92647 0
M  V30 1914 C 184.766 -3.36151 0.422845 0
M  V30 1915 C 183.325 -3.76338 0.0682492 0
M  V30 1916 C 182.472 -2.67538 0.729306 0
M  V30 1917 H 185.423 -1.34025 0.849883 0
M  V30 1918 H 185.444 -3.79032 -0.333904 0
M  V30 1919 H 184.956 -3.5879 1.47958 0
M  V30 1920 H 183.057 -3.59312 -0.986179 0
M  V30 1921 H 183.17 -4.76603 0.488469 0
M  V30 1922 H 181.534 -2.54176 0.163235 0
M  V30 1923 H 182.317 -2.93006 1.78892 0
M  V30 1924 N 184.763 -0.387143 -1.52771 0
M  V30 1925 C 185.673 0.456442 -2.30117 0
M  V30 1926 C 186.689 1.07342 -1.36944 0
M  V30 1927 O 187.865 1.07971 -1.70013 0
M  V30 1928 C 184.93 1.56957 -3.09136 0
M  V30 1929 C 183.991 0.977916 -4.18014 0
M  V30 1930 C 183.224 2.038 -4.93256 0
M  V30 1931 O 183.447 3.25271 -4.68567 0
M  V30 1932 O 182.381 1.6565 -5.78657 0
M  V30 1933 H 186.207 -0.17359 -3.03203 0
M  V30 1934 H 183.792 -0.150919 -1.48636 0
M  V30 1935 H 185.674 2.21628 -3.58412 0
M  V30 1936 H 184.349 2.18461 -2.38865 0
M  V30 1937 H 183.256 0.294525 -3.72939 0
M  V30 1938 H 184.589 0.407128 -4.90513 0
M  V30 1939 N 186.241 1.57166 -0.116904 0
M  V30 1940 C 187.151 2.18745 0.847812 0
M  V30 1941 C 188.167 1.163 1.29423 0
M  V30 1942 O 189.343 1.48761 1.35765 0
M  V30 1943 C 186.408 2.77307 2.0809 0
M  V30 1944 C 185.469 3.94781 1.68661 0
M  V30 1945 C 184.702 4.50541 2.86091 0
M  V30 1946 O 184.925 4.05202 4.01456 0
M  V30 1947 O 183.859 5.41256 2.63298 0
M  V30 1948 H 187.685 3.01632 0.353778 0
M  V30 1949 H 185.27 1.49005 0.108599 0
M  V30 1950 H 187.152 3.14647 2.80313 0
M  V30 1951 H 185.827 1.97452 2.56504 0
M  V30 1952 H 184.734 3.62214 0.935518 0
M  V30 1953 H 186.067 4.76065 1.24991 0
M  V30 1954 N 187.719 -0.156864 1.56817 0
M  V30 1955 C 188.996 -0.899244 1.73704 0
M  V30 1956 C 189.376 -1.99771 0.682254 0
M  V30 1957 O 188.724 -2.26515 -0.300522 0
M  V30 1958 C 188.934 -1.45075 3.17418 0
M  V30 1959 C 190.282 -1.91802 3.7881 0
M  V30 1960 O 191.306 -1.54838 3.20786 0
M  V30 1961 O 190.165 -2.5994 4.80722 0
M  V30 1962 H 187.259 -0.424267 0.709878 0
M  V30 1963 H 189.805 -0.143561 1.69092 0
M  V30 1964 H 188.577 -0.660846 3.85679 0
M  V30 1965 H 188.2 -2.27021 3.26416 0
M  V30 1966 N 189.197 -1.51736 -0.425897 0
M  V30 1967 C 190.437 -1.66636 -1.18371 0
M  V30 1968 C 190.801 -0.379854 -1.88205 0
M  V30 1969 O 192.002 -0.404758 -2.65735 0
M  V30 1970 C 190.273 -2.84382 -2.16476 0
M  V30 1971 S 191.832 -3.19673 -3.0059 0
M  V30 1972 H 188.65 -0.586957 -0.40125 0
M  V30 1973 H 191.252 -1.89679 -0.473518 0
M  V30 1974 H 189.956 -3.76281 -1.63831 0
M  V30 1975 H 189.487 -2.63562 -2.92059 0
M  V30 1976 H 191.502 -2.66994 -4.18245 0
M  V30 1977 N 190.675 0.682077 -1.42076 0
M  V30 1978 C 191.903 1.47057 -1.4554 0
M  V30 1979 C 192.318 1.8869 -0.0645779 0
M  V30 1980 O 191.675 1.57666 0.919115 0
M  V30 1981 C 191.726 2.72442 -2.37609 0
M  V30 1982 O 191.447 2.32559 -3.71279 0
M  V30 1983 C 192.948 3.66069 -2.50017 0
M  V30 1984 H 190.168 0.452737 -0.495248 0
M  V30 1985 H 192.712 0.838695 -1.8651 0
M  V30 1986 H 190.867 3.31835 -1.9991 0
M  V30 1987 H 191.281 3.13475 -4.20516 0
M  V30 1988 H 192.755 4.50792 -3.18576 0
M  V30 1989 H 193.232 4.11476 -1.53572 0
M  V30 1990 H 193.838 3.12572 -2.88407 0
M  V30 1991 N 192.153 1.28127 0.917671 0
M  V30 1992 C 193.378 1.18007 1.70555 0
M  V30 1993 C 193.803 -0.258257 1.86319 0
M  V30 1994 O 193.161 -1.1869 1.37049 0
M  V30 1995 C 193.209 1.87948 3.07746 0
M  V30 1996 O 192.313 1.18427 3.9503 0
M  V30 1997 H 191.654 0.409867 0.522403 0
M  V30 1998 H 194.184 1.69379 1.1477 0
M  V30 1999 H 194.194 1.95701 3.58001 0
M  V30 2000 H 192.869 2.92573 2.95591 0
M  V30 2001 H 191.446 1.18811 3.53466 0
M  V30 2002 N 193.631 -1.12557 1.10312 0
M  V30 2003 C 194.877 -1.84311 0.846011 0
M  V30 2004 C 195.21 -1.83805 -0.626859 0
M  V30 2005 O 194.485 -1.28268 -1.46211 0
M  V30 2006 C 194.768 -3.32048 1.39341 0
M  V30 2007 C 194.621 -3.41016 2.93305 0
M  V30 2008 C 195.94 -4.27764 1.03468 0
M  V30 2009 H 193.059 -0.669192 0.30879 0
M  V30 2010 H 195.701 -1.32057 1.36605 0
M  V30 2011 H 193.851 -3.76678 0.951087 0
M  V30 2012 H 195.523 -3.05031 3.46055 0
M  V30 2013 H 193.766 -2.81603 3.29973 0
M  V30 2014 H 194.437 -4.44948 3.26689 0
M  V30 2015 H 196.913 -3.91253 1.41633 0
M  V30 2016 H 195.789 -5.29549 1.44463 0
M  V30 2017 H 196.05 -4.42064 -0.0560404 0
M  V30 2018 N 195.109 -0.891671 -1.2995 0
M  V30 2019 C 196.337 -0.52866 -2.00032 0
M  V30 2020 C 196.752 0.884574 -1.66795 0
M  V30 2021 O 196.109 1.5827 -0.908669 0
M  V30 2022 C 196.16 -0.701814 -3.54622 0
M  V30 2023 O 195.881 -2.05942 -3.86678 0
M  V30 2024 C 197.382 -0.342683 -4.41973 0
M  V30 2025 H 194.602 -0.203659 -0.639347 0
M  V30 2026 H 197.146 -1.19881 -1.65677 0
M  V30 2027 H 195.301 -0.0789468 -3.8732 0
M  V30 2028 H 195.715 -2.08291 -4.81368 0
M  V30 2029 H 197.189 -0.514709 -5.49595 0
M  V30 2030 H 197.666 0.71975 -4.33262 0
M  V30 2031 H 198.272 -0.942154 -4.14733 0
M  V30 2032 N 196.587 1.43421 -0.653314 0
M  V30 2033 C 197.864 1.95361 -0.0966581 0
M  V30 2034 C 198.244 1.59461 1.38331 0
M  V30 2035 O 197.592 0.879777 2.10884 0
M  V30 2036 C 197.802 3.47311 -0.342988 0
M  V30 2037 C 199.15 4.23875 -0.24798 0
M  V30 2038 O 200.174 3.55133 -0.275553 0
M  V30 2039 O 199.033 5.4623 -0.171771 0
M  V30 2040 H 196.127 0.826945 0.00956291 0
M  V30 2041 H 198.673 1.5336 -0.726558 0
M  V30 2042 H 197.445 3.66569 -1.36906 0
M  V30 2043 H 197.068 3.9631 0.319975 0
M  V30 2044 N 198.065 0.39524 1.52563 0
M  V30 2045 C 198.995 -0.428384 2.29537 0
M  V30 2046 C 199.976 -1.05831 1.33169 0
M  V30 2047 O 201.161 -1.06995 1.62067 0
M  V30 2048 C 198.291 -1.55274 3.10656 0
M  V30 2049 C 197.245 -1.04855 4.14957 0
M  V30 2050 C 196.571 -2.26543 4.84337 0
M  V30 2051 C 197.871 -0.112324 5.22179 0
M  V30 2052 H 199.565 0.213867 2.98635 0
M  V30 2053 H 197.111 0.104298 1.43622 0
M  V30 2054 H 199.064 -2.1358 3.63265 0
M  V30 2055 H 197.788 -2.22266 2.39302 0
M  V30 2056 H 196.447 -0.487985 3.63338 0
M  V30 2057 H 196.095 -2.92059 4.09525 0
M  V30 2058 H 195.795 -1.93466 5.54837 0
M  V30 2059 H 197.319 -2.85481 5.39753 0
M  V30 2060 H 198.733 -0.603752 5.70112 0
M  V30 2061 H 197.13 0.128968 5.99961 0
M  V30 2062 H 198.2 0.837052 4.77621 0
M  V30 2063 N 199.544 -1.57102 0.125237 0
M  V30 2064 C 200.955 -1.82384 -0.399142 0
M  V30 2065 C 201.306 -1.04276 -1.66195 0
M  V30 2066 O 200.431 -0.281269 -2.14564 0
M  V30 2067 C 201.026 -3.30821 -0.730932 0
M  V30 2068 C 199.585 -3.56762 -1.19992 0
M  V30 2069 C 198.732 -2.7649 -0.211792 0
M  V30 2070 H 201.683 -1.54786 0.350277 0
M  V30 2071 H 201.704 -3.4579 -1.58775 0
M  V30 2072 H 201.216 -3.87643 0.188345 0
M  V30 2073 H 199.317 -3.05305 -2.13588 0
M  V30 2074 H 199.43 -4.65317 -1.14093 0
M  V30 2075 H 197.794 -2.4489 -0.700085 0
M  V30 2076 H 198.577 -3.36073 0.700691 0
M  V30 2077 N 201.022 0.148545 -1.56898 0
M  V30 2078 C 201.97 1.20265 -1.99096 0
M  V30 2079 C 202.964 1.44559 -0.883123 0
M  V30 2080 O 204.17 1.4487 -1.0683 0
M  V30 2081 H 200.545 0.404786 -0.63376 0
M  V30 2082 H 202.516 0.82004 -2.86911 0
M  V30 2083 C 201.265 2.52886 -2.3863 0
M  V30 2084 H 200.588 2.35021 -3.23427 0
M  V30 2085 H 202.028 3.25274 -2.7198 0
M  V30 2086 C 200.487 3.13315 -1.23837 0
M  V30 2087 O 201.017 3.98077 -0.538268 0
M  V30 2088 N 199.223 2.72742 -1.00301 0
M  V30 2089 H 198.77 2.03912 -1.5741 0
M  V30 2090 H 198.728 3.13507 -0.236838 0
M  V30 2091 N 202.5 1.5196 0.417844 0
M  V30 2092 C 203.463 1.74065 1.49111 0
M  V30 2093 C 204.463 0.610537 1.48758 0
M  V30 2094 O 205.653 0.87832 1.50437 0
M  V30 2095 C 202.785 1.81502 2.88565 0
M  V30 2096 H 203.978 2.69869 1.30807 0
M  V30 2097 H 201.531 1.42244 0.647785 0
M  V30 2098 H 202.266 0.875813 3.1225 0
M  V30 2099 H 202.051 2.63651 2.90225 0
M  V30 2100 H 203.541 2.00376 3.66387 0
M  V30 2101 N 203.978 -0.674533 1.42435 0
M  V30 2102 C 205.225 -1.43459 1.42919 0
M  V30 2103 C 205.553 -1.94446 0.0457312 0
M  V30 2104 O 204.808 -1.7132 -0.94593 0
M  V30 2105 C 205.107 -2.64767 2.40069 0
M  V30 2106 C 204.773 -2.3232 3.86443 0
M  V30 2107 C 203.435 -2.23182 4.26314 0
M  V30 2108 C 205.787 -2.05977 4.78773 0
M  V30 2109 C 203.115 -1.85827 5.56494 0
M  V30 2110 C 205.467 -1.70125 6.09295 0
M  V30 2111 C 204.131 -1.59498 6.48164 0
M  V30 2112 H 203.401 -0.524952 0.522978 0
M  V30 2113 H 206.048 -0.769097 1.75377 0
M  V30 2114 H 204.353 -3.36349 2.00939 0
M  V30 2115 H 206.05 -3.22949 2.37707 0
M  V30 2116 H 202.64 -2.40334 3.54877 0
M  V30 2117 H 206.824 -2.11969 4.48757 0
M  V30 2118 H 202.08 -1.76168 5.8547 0
M  V30 2119 H 206.254 -1.48767 6.80324 0
M  V30 2120 H 203.881 -1.30322 7.48946 0
M  V30 2121 N 205.456 -1.28612 -0.910864 0
M  V30 2122 C 206.733 -1.06632 -1.63979 0
M  V30 2123 C 207.113 0.393351 -2.07403 0
M  V30 2124 O 206.461 1.37999 -1.82122 0
M  V30 2125 C 206.671 -2.0436 -2.8291 0
M  V30 2126 C 208.019 -2.34666 -3.5386 0
M  V30 2127 O 209.043 -2.02467 -2.93062 0
M  V30 2128 O 207.902 -2.89631 -4.63439 0
M  V30 2129 H 204.996 -0.407737 -0.7195 0
M  V30 2130 H 207.542 -1.39942 -0.959914 0
M  V30 2131 H 206.314 -3.02727 -2.47936 0
M  V30 2132 H 205.937 -1.71714 -3.58609 0
M  V30 2133 N 206.934 1.1197 -1.10907 0
M  V30 2134 C 208.182 1.83225 -0.852819 0
M  V30 2135 C 208.503 1.84769 0.623341 0
M  V30 2136 O 207.773 1.3143 1.45269 0
M  V30 2137 H 206.353 0.67849 -0.312507 0
M  V30 2138 H 209.015 1.3556 -1.40033 0
M  V30 2139 H 208.111 2.87265 -1.22005 0
M  V30 2140 N 208.412 0.89855 1.29475 0
M  V30 2141 C 209.823 0.572537 1.77705 0
M  V30 2142 C 210.174 -0.911778 1.73727 0
M  V30 2143 O 209.299 -1.71288 1.32247 0
M  V30 2144 C 209.894 1.03252 3.22683 0
M  V30 2145 C 208.453 0.757687 3.68695 0
M  V30 2146 C 207.6 1.20787 2.49612 0
M  V30 2147 H 210.551 1.08139 1.16153 0
M  V30 2148 H 210.572 0.367307 3.78723 0
M  V30 2149 H 210.084 2.11285 3.25546 0
M  V30 2150 H 208.185 -0.310079 3.71308 0
M  V30 2151 H 208.298 1.35476 4.59547 0
M  V30 2152 H 206.662 0.626888 2.46865 0
M  V30 2153 H 207.445 2.29622 2.55203 0
M  V30 2154 N 209.89 -1.43072 0.660911 0
M  V30 2155 C 211.139 -2.00942 0.174735 0
M  V30 2156 C 211.452 -1.52797 -1.22117 0
M  V30 2157 O 212.658 -2.02991 -1.80297 0
M  V30 2158 C 211.114 -3.58948 0.261559 0
M  V30 2159 C 210.722 -4.16085 1.66064 0
M  V30 2160 C 212.466 -4.24173 -0.166617 0
M  V30 2161 C 210.373 -5.6641 1.70098 0
M  V30 2162 H 209.303 -0.751483 0.0615631 0
M  V30 2163 H 211.954 -1.63955 0.824069 0
M  V30 2164 H 210.336 -3.93372 -0.455421 0
M  V30 2165 H 211.51 -3.93147 2.40359 0
M  V30 2166 H 209.825 -3.6326 2.03546 0
M  V30 2167 H 212.422 -5.34471 -0.156433 0
M  V30 2168 H 212.765 -3.98647 -1.19943 0
M  V30 2169 H 213.298 -3.94659 0.498875 0
M  V30 2170 H 210.037 -5.96715 2.71315 0
M  V30 2171 H 209.557 -5.91382 1.00139 0
M  V30 2172 H 211.236 -6.30585 1.44816 0
M  V30 2173 N 211.368 -0.403325 -1.52352 0
M  V30 2174 C 212.596 0.174012 -2.06167 0
M  V30 2175 C 213.011 1.39347 -1.27388 0
M  V30 2176 O 212.368 1.79597 -0.324201 0
M  V30 2177 C 212.419 0.530223 -3.5759 0
M  V30 2178 O 212.14 -0.640806 -4.33388 0
M  V30 2179 C 213.641 1.16192 -4.27802 0
M  V30 2180 H 210.861 0.0229464 -0.670608 0
M  V30 2181 H 213.405 -0.572604 -1.9632 0
M  V30 2182 H 211.56 1.22673 -3.67464 0
M  V30 2183 H 211.974 -0.344851 -5.23365 0
M  V30 2184 H 213.448 1.36141 -5.34948 0
M  V30 2185 H 213.925 2.13335 -3.83907 0
M  V30 2186 H 214.531 0.505775 -4.22282 0
M  V30 2187 N 212.846 1.57033 -0.133567 0
M  V30 2188 C 214.095 1.94861 0.520768 0
M  V30 2189 C 214.408 1.02012 1.66892 0
M  V30 2190 O 215.614 1.29365 2.38699 0
M  V30 2191 C 214.07 3.46362 0.977809 0
M  V30 2192 C 213.678 4.47773 -0.142674 0
M  V30 2193 C 215.422 3.93083 1.60269 0
M  V30 2194 C 213.329 5.90468 0.331883 0
M  V30 2195 H 212.259 0.727453 0.198315 0
M  V30 2196 H 214.91 1.82227 -0.215759 0
M  V30 2197 H 213.292 3.54282 1.7692 0
M  V30 2198 H 214.466 4.51536 -0.919317 0
M  V30 2199 H 212.781 4.10891 -0.675124 0
M  V30 2200 H 215.378 4.97121 1.96914 0
M  V30 2201 H 215.721 3.33876 2.48662 0
M  V30 2202 H 216.254 3.88025 0.876453 0
M  V30 2203 H 212.993 6.53463 -0.516341 0
M  V30 2204 H 212.513 5.90094 1.07469 0
M  V30 2205 H 214.192 6.42179 0.788332 0
M  V30 2206 N 214.325 -0.140222 1.56975 0
M  V30 2207 C 215.553 -0.866437 1.87884 0
M  V30 2208 C 215.968 -1.74428 0.722517 0
M  V30 2209 O 215.325 -1.79891 -0.30749 0
M  V30 2210 C 215.376 -1.71753 3.18093 0
M  V30 2211 O 215.097 -0.875056 4.29272 0
M  V30 2212 C 216.598 -2.55074 3.62563 0
M  V30 2213 H 213.818 -0.25019 0.622612 0
M  V30 2214 H 216.362 -0.130977 2.0408 0
M  V30 2215 H 214.517 -2.40598 3.03631 0
M  V30 2216 H 214.931 -1.46002 5.03769 0
M  V30 2217 H 216.405 -3.10356 4.5649 0
M  V30 2218 H 216.882 -3.31434 2.88181 0
M  V30 2219 H 217.488 -1.91509 3.79743 0
M  V30 2220 N 215.803 -1.52179 -0.40978 0
M  V30 2221 C 217.052 -1.65434 -1.15388 0
M  V30 2222 C 217.365 -0.390056 -1.91671 0
M  V30 2223 O 218.571 -0.402399 -2.68501 0
M  V30 2224 C 217.027 -2.92279 -2.10003 0
M  V30 2225 C 216.635 -4.25813 -1.39239 0
M  V30 2226 C 218.379 -3.14897 -2.84675 0
M  V30 2227 C 216.286 -5.43782 -2.32498 0
M  V30 2228 H 215.216 -0.616267 -0.434432 0
M  V30 2229 H 217.867 -1.78666 -0.418401 0
M  V30 2230 H 216.249 -2.72744 -2.871 0
M  V30 2231 H 217.423 -4.55828 -0.675099 0
M  V30 2232 H 215.738 -4.09292 -0.766097 0
M  V30 2233 H 218.335 -4.0021 -3.54593 0
M  V30 2234 H 218.678 -2.29103 -3.47588 0
M  V30 2235 H 219.211 -3.34901 -2.14677 0
M  V30 2236 H 215.95 -6.3192 -1.74233 0
M  V30 2237 H 215.47 -5.18106 -3.02201 0
M  V30 2238 H 217.149 -5.76834 -2.93038 0
M  V30 2239 N 217.281 0.66697 -1.42791 0
M  V30 2240 C 218.527 1.4291 -1.43891 0
M  V30 2241 C 218.86 1.94114 -0.0578972 0
M  V30 2242 O 218.135 1.71414 0.91911 0
M  V30 2243 C 218.418 2.62049 -2.46987 0
M  V30 2244 C 218.271 2.16426 -3.94309 0
M  V30 2245 C 219.59 3.64266 -2.46978 0
M  V30 2246 H 216.709 0.518306 -0.523954 0
M  V30 2247 H 219.351 0.757321 -1.74255 0
M  V30 2248 H 217.501 3.19361 -2.21225 0
M  V30 2249 H 219.173 1.64221 -4.31079 0
M  V30 2250 H 217.416 1.47925 -4.078 0
M  V30 2251 H 218.087 3.02038 -4.62036 0
M  V30 2252 H 220.563 3.16686 -2.69906 0
M  V30 2253 H 219.439 4.45196 -3.21079 0
M  V30 2254 H 219.7 4.15927 -1.49857 0
M  V30 2255 N 218.759 1.29093 0.90403 0
M  V30 2256 C 219.707 1.13727 2.02901 0
M  V30 2257 C 220.701 0.0539853 1.69314 0
M  V30 2258 O 221.907 0.213469 1.7873 0
M  V30 2259 H 218.282 0.35117 0.664969 0
M  V30 2260 H 220.253 2.08982 2.13001 0
M  V30 2261 C 219.002 0.826066 3.37745 0
M  V30 2262 H 218.325 1.65164 3.64089 0
M  V30 2263 H 219.765 0.758559 4.17159 0
M  V30 2264 C 218.224 -0.470541 3.33598 0
M  V30 2265 O 218.754 -1.49792 3.72727 0
M  V30 2266 N 216.96 -0.474812 2.86695 0
M  V30 2267 H 216.507 0.361692 2.55048 0
M  V30 2268 H 216.465 -1.34236 2.84303 0
M  V30 2269 N 220.237 -1.11381 1.11499 0
M  V30 2270 C 221.653 -1.35143 0.849031 0
M  V30 2271 C 221.853 -1.94515 -0.525938 0
M  V30 2272 O 220.909 -2.1785 -1.27662 0
M  V30 2273 C 222.222 -2.28249 1.95762 0
M  V30 2274 C 223.77 -2.41812 1.98736 0
M  V30 2275 C 224.245 -3.3824 3.088 0
M  V30 2276 N 225.736 -3.45803 3.08179 0
M  V30 2277 C 226.471 -4.20358 3.89982 0
M  V30 2278 N 225.967 -4.97884 4.8175 0
M  V30 2279 N 227.76 -4.15877 3.78157 0
M  V30 2280 H 219.911 -0.712062 2.00109 0
M  V30 2281 H 222.174 -0.376025 0.870235 0
M  V30 2282 H 221.88 -1.91817 2.94787 0
M  V30 2283 H 221.754 -3.28473 1.85433 0
M  V30 2284 H 224.141 -2.77518 1.00338 0
M  V30 2285 H 224.222 -1.41437 2.13141 0
M  V30 2286 H 223.866 -3.03261 4.07425 0
M  V30 2287 H 223.796 -4.38471 2.91635 0
M  V30 2288 H 226.287 -2.90506 2.41691 0
M  V30 2289 H 226.6 -5.52142 5.40702 0
M  V30 2290 H 224.945 -4.97043 4.85771 0
M  V30 2291 H 228.136 -3.544 3.05808 0
M  V30 2292 H 228.309 -4.73723 4.42143 0
M  V30 2293 N 221.715 -0.905404 -1.28997 0
M  V30 2294 C 222.992 -0.453513 -1.9027 0
M  V30 2295 C 223.372 1.06721 -1.82137 0
M  V30 2296 O 222.72 1.91159 -1.25182 0
M  V30 2297 C 222.93 -0.974494 -3.35119 0
M  V30 2298 C 224.278 -1.0216 -4.12127 0
M  V30 2299 O 225.302 -0.922557 -3.44046 0
M  V30 2300 O 224.161 -1.17121 -5.33802 0
M  V30 2301 H 221.255 -0.142347 -0.814657 0
M  V30 2302 H 223.801 -0.995642 -1.37423 0
M  V30 2303 H 222.573 -2.01848 -3.35221 0
M  V30 2304 H 222.196 -0.412706 -3.95452 0
M  V30 2305 N 223.193 1.4272 -0.668489 0
M  V30 2306 C 224.441 2.01226 -0.187769 0
M  V30 2307 C 224.762 1.53092 1.2078 0
M  V30 2308 O 224.032 0.74993 1.80977 0
M  V30 2309 H 222.612 0.744041 -0.0664272 0
M  V30 2310 H 225.274 1.74723 -0.863583 0
M  V30 2311 H 224.37 3.11556 -0.184166 0
M  V30 2312 N 224.671 0.411399 1.52136 0
M  V30 2313 C 225.899 -0.163076 2.06256 0
M  V30 2314 C 226.314 -1.3867 1.28125 0
M  V30 2315 O 225.671 -1.79423 0.333721 0
M  V30 2316 C 225.722 -0.511252 3.57867 0
M  V30 2317 O 225.443 0.66378 4.33042 0
M  V30 2318 C 226.944 -1.13921 4.28412 0
M  V30 2319 H 224.164 -0.0193897 0.67072 0
M  V30 2320 H 226.708 0.583007 1.96013 0
M  V30 2321 H 224.863 -1.20723 3.6811 0
M  V30 2322 H 225.277 0.372601 5.23175 0
M  V30 2323 H 226.751 -1.33302 5.35663 0
M  V30 2324 H 227.228 -2.11296 3.85033 0
M  V30 2325 H 227.834 -0.483373 4.22544 0
M  V30 2326 N 226.149 -1.5696 0.141893 0
M  V30 2327 C 227.565 -1.58151 -0.21456 0
M  V30 2328 C 227.765 -1.1559 -1.65049 0
M  V30 2329 O 226.821 -0.853832 -2.37626 0
M  V30 2330 C 228.134 -3.00674 0.0395576 0
M  V30 2331 C 229.682 -3.1299 -0.0245529 0
M  V30 2332 C 230.157 -4.57554 0.202167 0
M  V30 2333 N 231.648 -4.62961 0.148919 0
M  V30 2334 C 232.383 -5.7262 0.298924 0
M  V30 2335 N 231.879 -6.90947 0.50637 0
M  V30 2336 N 233.672 -5.61601 0.236886 0
M  V30 2337 H 225.823 -1.8292 1.07953 0
M  V30 2338 H 228.086 -0.846425 0.42693 0
M  V30 2339 H 227.792 -3.36183 1.03315 0
M  V30 2340 H 227.666 -3.70981 -0.682143 0
M  V30 2341 H 230.053 -2.77326 -1.00869 0
M  V30 2342 H 230.134 -2.4518 0.729396 0
M  V30 2343 H 229.778 -4.93922 1.18338 0
M  V30 2344 H 229.708 -5.23484 -0.572044 0
M  V30 2345 H 232.199 -3.77899 -0.00697015 0
M  V30 2346 H 232.512 -7.7038 0.611076 0
M  V30 2347 H 230.857 -6.92878 0.542628 0
M  V30 2348 H 234.048 -4.68039 0.0756209 0
M  V30 2349 H 234.221 -6.47015 0.357227 0
M  V30 2350 N 227.627 0.131896 -1.57047 0
M  V30 2351 C 228.857 0.855219 -1.88068 0
M  V30 2352 C 229.265 1.74557 -0.729817 0
M  V30 2353 O 228.608 1.81083 0.308962 0
M  V30 2354 C 228.67 1.75119 -3.13964 0
M  V30 2355 C 228.334 1.03646 -4.45091 0
M  V30 2356 C 229.331 0.383276 -5.18485 0
M  V30 2357 C 227.016 1.02148 -4.91804 0
M  V30 2358 C 229.01 -0.275347 -6.36805 0
M  V30 2359 C 226.697 0.359047 -6.10044 0
M  V30 2360 C 227.695 -0.288222 -6.82392 0
M  V30 2361 O 227.383 -0.94011 -7.98384 0
M  V30 2362 H 227.115 0.251864 -0.627328 0
M  V30 2363 H 229.669 0.124782 -2.05021 0
M  V30 2364 H 227.899 2.52295 -2.9306 0
M  V30 2365 H 229.588 2.3478 -3.31109 0
M  V30 2366 H 230.354 0.386562 -4.83457 0
M  V30 2367 H 226.233 1.5147 -4.35405 0
M  V30 2368 H 229.777 -0.781148 -6.93213 0
M  V30 2369 H 225.674 0.35348 -6.44531 0
M  V30 2370 H 226.442 -0.84329 -8.14144 0
M  V30 2371 N 229.106 1.52395 0.401703 0
M  V30 2372 C 230.352 1.67065 1.14966 0
M  V30 2373 C 230.685 0.403052 1.89971 0
M  V30 2374 O 229.96 -0.598774 1.85054 0
M  V30 2375 C 230.243 2.8975 2.13815 0
M  V30 2376 C 230.096 4.26578 1.42658 0
M  V30 2377 C 231.415 3.07965 3.14397 0
M  V30 2378 H 228.534 0.607968 0.416587 0
M  V30 2379 H 231.176 1.84965 0.434511 0
M  V30 2380 H 229.326 2.74619 2.74803 0
M  V30 2381 H 230.998 4.53451 0.847329 0
M  V30 2382 H 229.241 4.27639 0.72849 0
M  V30 2383 H 229.912 5.08483 2.14823 0
M  V30 2384 H 232.388 3.22043 2.63491 0
M  V30 2385 H 231.264 3.95308 3.80819 0
M  V30 2386 H 231.525 2.21611 3.82545 0
M  V30 2387 N 230.584 -0.659388 1.43143 0
M  V30 2388 C 231.516 -1.7849 1.43784 0
M  V30 2389 C 232.529 -1.5932 0.334787 0
M  V30 2390 O 233.718 -1.68155 0.598842 0
M  V30 2391 C 230.818 -3.15828 1.22906 0
M  V30 2392 C 229.991 -3.61711 2.45934 0
M  V30 2393 C 229.05 -4.77831 2.20371 0
M  V30 2394 O 228.076 -4.87586 2.93681 0
M  V30 2395 N 229.278 -5.67611 1.21647 0
M  V30 2396 H 232.043 -1.7842 2.40803 0
M  V30 2397 H 229.604 -0.84302 1.3822 0
M  V30 2398 H 231.596 -3.91189 1.03697 0
M  V30 2399 H 230.166 -3.10707 0.343542 0
M  V30 2400 H 229.386 -2.76861 2.80609 0
M  V30 2401 H 230.674 -3.89112 3.27825 0
M  V30 2402 H 230.072 -5.62397 0.610449 0
M  V30 2403 H 228.629 -6.42719 1.08423 0
M  V30 2404 N 232.062 -1.29571 -0.897171 0
M  V30 2405 C 233.009 -1.14916 -2.00158 0
M  V30 2406 C 233.979 -0.0418149 -1.66047 0
M  V30 2407 O 235.164 -0.209793 -1.89643 0
M  V30 2408 C 232.304 -0.834307 -3.34863 0
M  V30 2409 C 231.417 -2.02234 -3.8174 0
M  V30 2410 C 230.552 -1.64664 -5.05034 0
M  V30 2411 C 229.591 -2.80033 -5.44286 0
M  V30 2412 N 228.728 -2.42843 -6.58765 0
M  V30 2413 H 233.568 -2.09403 -2.12025 0
M  V30 2414 H 231.105 -1.042 -1.0383 0
M  V30 2415 H 233.063 -0.632436 -4.12379 0
M  V30 2416 H 231.693 0.0736656 -3.22716 0
M  V30 2417 H 230.745 -2.33583 -3.00238 0
M  V30 2418 H 232.057 -2.88673 -4.06779 0
M  V30 2419 H 231.211 -1.4078 -5.9014 0
M  V30 2420 H 229.95 -0.753766 -4.8184 0
M  V30 2421 H 228.955 -3.04596 -4.57713 0
M  V30 2422 H 230.18 -3.69989 -5.6946 0
M  V30 2423 H 228.126 -1.56046 -6.3717 0
M  V30 2424 H 228.043 -3.22815 -6.83613 0
M  V30 2425 H 229.311 -2.22285 -7.47134 0
M  V30 2426 N 233.54 1.10788 -1.12088 0
M  V30 2427 C 234.788 1.8231 -0.872205 0
M  V30 2428 C 235.109 1.85419 0.603709 0
M  V30 2429 O 234.379 1.32963 1.43867 0
M  V30 2430 H 232.959 0.675137 -0.319686 0
M  V30 2431 H 235.621 1.34068 -1.41463 0
M  V30 2432 H 234.717 2.85955 -1.25045 0
M  V30 2433 N 235.018 0.912232 1.28515 0
M  V30 2434 C 235.928 0.404506 2.31086 0
M  V30 2435 C 236.944 -0.50707 1.66448 0
M  V30 2436 O 238.12 -0.393624 1.97516 0
M  V30 2437 C 235.185 -0.348572 3.44943 0
M  V30 2438 C 234.246 0.59604 4.25142 0
M  V30 2439 C 233.479 -0.121194 5.33562 0
M  V30 2440 O 233.702 -1.34317 5.5436 0
M  V30 2441 O 232.636 0.542716 5.99448 0
M  V30 2442 H 236.462 1.25579 2.76521 0
M  V30 2443 H 234.047 0.676998 1.33181 0
M  V30 2444 H 235.929 -0.77395 4.14232 0
M  V30 2445 H 234.604 -1.17571 3.01594 0
M  V30 2446 H 233.511 1.07079 3.58448 0
M  V30 2447 H 234.844 1.38995 4.72167 0
M  V30 2448 N 236.496 -1.42363 0.676048 0
M  V30 2449 C 237.726 -2.05561 0.206967 0
M  V30 2450 C 238.134 -1.50887 -1.14148 0
M  V30 2451 O 237.477 -0.643933 -1.72044 0
M  V30 2452 C 237.539 -3.5944 0.0659508 0
M  V30 2453 C 237.203 -4.36812 1.34331 0
M  V30 2454 C 238.2 -4.67383 2.27704 0
M  V30 2455 C 235.885 -4.76429 1.59125 0
M  V30 2456 C 237.879 -5.36509 3.44147 0
M  V30 2457 C 235.566 -5.45294 2.75857 0
M  V30 2458 C 236.564 -5.75259 3.68193 0
M  V30 2459 O 236.252 -6.42712 4.82883 0
M  V30 2460 H 235.984 -0.668872 0.0979084 0
M  V30 2461 H 238.538 -1.83467 0.923531 0
M  V30 2462 H 236.768 -3.80197 -0.706204 0
M  V30 2463 H 238.457 -4.0427 -0.363418 0
M  V30 2464 H 239.223 -4.37275 2.09799 0
M  V30 2465 H 235.102 -4.52498 0.881258 0
M  V30 2466 H 238.646 -5.59814 4.16238 0
M  V30 2467 H 234.543 -5.7482 2.93688 0
M  V30 2468 H 235.311 -6.61204 4.82444 0
M  V30 2469 N 237.974 -0.419461 -1.51915 0
M  V30 2470 C 239.39 -0.0708431 -1.59443 0
M  V30 2471 C 239.59 1.41796 -1.43164 0
M  V30 2472 O 238.646 2.18596 -1.26381 0
M  V30 2473 C 239.959 -0.574991 -2.95151 0
M  V30 2474 C 241.507 -0.533867 -3.08413 0
M  V30 2475 C 241.982 -1.01469 -4.46618 0
M  V30 2476 N 243.473 -0.971939 -4.52888 0
M  V30 2477 C 244.208 -1.31505 -5.58116 0
M  V30 2478 N 243.704 -1.73014 -6.70849 0
M  V30 2479 N 245.497 -1.23436 -5.48379 0
M  V30 2480 H 237.648 -1.38836 -1.60743 0
M  V30 2481 H 239.911 -0.570998 -0.756747 0
M  V30 2482 H 239.617 -1.61597 -3.12377 0
M  V30 2483 H 239.491 0.00979777 -3.77199 0
M  V30 2484 H 241.878 0.498086 -2.90866 0
M  V30 2485 H 241.959 -1.15484 -2.28248 0
M  V30 2486 H 241.603 -2.04502 -4.6491 0
M  V30 2487 H 241.533 -0.370433 -5.25295 0
M  V30 2488 H 244.024 -0.666893 -3.71969 0
M  V30 2489 H 244.337 -1.97479 -7.47143 0
M  V30 2490 H 242.682 -1.76926 -6.72103 0
M  V30 2491 H 245.873 -0.908869 -4.59192 0
M  V30 2492 H 246.046 -1.50506 -6.30279 0
M  V30 2493 N 239.452 1.56882 -0.150215 0
M  V30 2494 C 240.68 2.00593 0.506948 0
M  V30 2495 C 241.095 1.03033 1.58208 0
M  V30 2496 O 240.452 0.0278396 1.82479 0
M  V30 2497 C 240.503 3.44209 1.10465 0
M  V30 2498 O 240.224 4.3804 0.0724636 0
M  V30 2499 C 241.725 4.03214 1.84211 0
M  V30 2500 H 238.945 0.65795 0.13169 0
M  V30 2501 H 241.489 2.03018 -0.245743 0
M  V30 2502 H 239.644 3.42625 1.80795 0
M  V30 2503 H 240.058 5.22007 0.510793 0
M  V30 2504 H 241.532 5.0569 2.21318 0
M  V30 2505 H 242.009 3.44107 2.72923 0
M  V30 2506 H 242.615 4.08437 1.18572 0
M  V30 2507 N 240.93 -0.123565 1.57115 0
M  V30 2508 C 241.878 -1.17082 2.00984 0
M  V30 2509 C 242.872 -1.43136 0.906009 0
M  V30 2510 O 244.078 -1.43152 1.09121 0
M  V30 2511 H 240.453 -0.394653 0.64012 0
M  V30 2512 H 242.424 -0.774292 2.88179 0
M  V30 2513 C 241.173 -2.49057 2.42623 0
M  V30 2514 H 240.496 -2.29846 3.27125 0
M  V30 2515 H 241.936 -3.20906 2.7712 0
M  V30 2516 C 240.395 -3.11305 1.28805 0
M  V30 2517 O 240.925 -3.97171 0.60153 0
M  V30 2518 N 239.131 -2.71111 1.04628 0
M  V30 2519 H 238.678 -2.01382 1.60634 0
M  V30 2520 H 238.636 -3.1309 0.286685 0
M  V30 2521 N 242.408 -1.52605 -0.393616 0
M  V30 2522 C 243.819 -1.59417 -0.971761 0
M  V30 2523 C 244.17 -0.444173 -1.91106 0
M  V30 2524 O 243.295 0.433382 -2.12016 0
M  V30 2525 C 243.89 -2.88936 -1.76921 0
M  V30 2526 C 242.449 -2.98175 -2.29714 0
M  V30 2527 C 241.596 -2.54491 -1.10135 0
M  V30 2528 H 244.547 -1.57751 -0.173317 0
M  V30 2529 H 244.568 -2.75163 -2.62804 0
M  V30 2530 H 244.08 -3.72616 -1.08532 0
M  V30 2531 H 242.181 -2.19024 -3.01429 0
M  V30 2532 H 242.294 -4.02726 -2.59517 0
M  V30 2533 H 240.658 -2.08702 -1.45999 0
M  V30 2534 H 241.441 -3.4056 -0.432874 0
M  V30 2535 N 243.887 0.651787 -1.4349 0
M  V30 2536 C 244.797 1.79368 -1.5121 0
M  V30 2537 C 245.813 1.69361 -0.399093 0
M  V30 2538 O 246.989 1.90505 -0.653431 0
M  V30 2539 C 244.054 3.15653 -1.43401 0
M  V30 2540 C 243.115 3.37446 -2.65384 0
M  V30 2541 C 242.348 4.67229 -2.57939 0
M  V30 2542 O 242.571 5.46676 -1.62792 0
M  V30 2543 O 241.505 4.90773 -3.48462 0
M  V30 2544 H 245.331 1.7581 -2.47638 0
M  V30 2545 H 242.916 0.810447 -1.25507 0
M  V30 2546 H 244.798 3.96935 -1.41494 0
M  V30 2547 H 243.473 3.19798 -0.501085 0
M  V30 2548 H 242.38 2.55923 -2.72863 0
M  V30 2549 H 243.713 3.38148 -3.57654 0
M  V30 2550 N 245.365 1.30045 0.890287 0
M  V30 2551 C 246.642 1.09227 1.62262 0
M  V30 2552 C 247.022 -0.360305 2.08002 0
M  V30 2553 O 246.37 -1.35084 1.84295 0
M  V30 2554 C 246.58 2.08835 2.79623 0
M  V30 2555 C 247.928 2.40266 3.50082 0
M  V30 2556 O 248.952 2.07104 2.89804 0
M  V30 2557 O 247.811 2.96967 4.58773 0
M  V30 2558 H 244.905 0.419132 0.712922 0
M  V30 2559 H 247.451 1.41451 0.937529 0
M  V30 2560 H 246.223 3.06633 2.43089 0
M  V30 2561 H 245.846 1.77397 3.55832 0
M  V30 2562 N 246.843 -1.10192 1.12674 0
M  V30 2563 C 248.092 -1.81573 0.8783 0
M  V30 2564 C 248.405 -1.86249 -0.597557 0
M  V30 2565 O 249.611 -2.5386 -0.962681 0
M  V30 2566 C 248.067 -3.26149 1.52167 0
M  V30 2567 C 247.675 -3.29763 3.03249 0
M  V30 2568 C 249.419 -4.0234 1.3536 0
M  V30 2569 C 247.326 -4.68815 3.60508 0
M  V30 2570 H 246.256 -0.680394 0.324931 0
M  V30 2571 H 248.907 -1.23902 1.35353 0
M  V30 2572 H 247.289 -3.83832 0.974104 0
M  V30 2573 H 248.463 -2.8189 3.6452 0
M  V30 2574 H 246.778 -2.67059 3.19481 0
M  V30 2575 H 249.375 -5.05058 1.75559 0
M  V30 2576 H 249.718 -4.15235 0.297554 0
M  V30 2577 H 250.251 -3.51079 1.87052 0
M  V30 2578 H 246.99 -4.61121 4.65884 0
M  V30 2579 H 246.51 -5.17045 3.04014 0
M  V30 2580 H 248.189 -5.37785 3.59717 0
M  V30 2581 N 248.321 -0.919034 -1.28029 0
M  V30 2582 C 249.551 -0.570143 -1.98577 0
M  V30 2583 C 249.959 0.854172 -1.68821 0
M  V30 2584 O 249.302 1.57807 -0.940351 0
M  V30 2585 C 249.364 -0.705734 -3.52505 0
M  V30 2586 C 249.028 -2.10057 -4.05863 0
M  V30 2587 C 250.025 -3.07385 -4.19298 0
M  V30 2588 C 247.71 -2.41517 -4.40426 0
M  V30 2589 C 249.704 -4.34287 -4.66555 0
M  V30 2590 C 247.391 -3.68657 -4.87376 0
M  V30 2591 C 248.389 -4.64856 -5.00398 0
M  V30 2592 O 248.077 -5.89735 -5.46322 0
M  V30 2593 H 247.809 -0.215592 -0.6407 0
M  V30 2594 H 250.363 -1.23583 -1.64062 0
M  V30 2595 H 248.593 0.0170414 -3.86696 0
M  V30 2596 H 250.282 -0.363172 -4.04272 0
M  V30 2597 H 251.048 -2.84398 -3.92865 0
M  V30 2598 H 246.927 -1.67389 -4.29537 0
M  V30 2599 H 250.471 -5.09377 -4.76635 0
M  V30 2600 H 246.368 -3.91466 -5.13249 0
M  V30 2601 H 247.136 -5.92599 -5.64596 0
M  V30 2602 N 249.799 1.42003 -0.683588 0
M  V30 2603 C 251.21 1.84501 -0.285736 0
M  V30 2604 C 251.561 1.57213 1.17382 0
M  V30 2605 O 250.686 1.03642 1.89966 0
M  V30 2606 C 251.281 3.34912 -0.511821 0
M  V30 2607 C 249.84 3.76025 -0.168005 0
M  V30 2608 C 248.987 2.6551 -0.799983 0
M  V30 2609 H 251.938 1.31724 -0.885119 0
M  V30 2610 H 251.959 3.79784 0.233292 0
M  V30 2611 H 251.471 3.54741 -1.57418 0
M  V30 2612 H 249.572 3.61801 0.890567 0
M  V30 2613 H 249.685 4.75141 -0.614661 0
M  V30 2614 H 248.049 2.53654 -0.230568 0
M  V30 2615 H 248.832 2.8816 -1.86597 0
M  V30 2616 N 251.277 0.427512 1.51691 0
M  V30 2617 C 252.502 -0.143601 2.06902 0
M  V30 2618 C 252.927 -1.36536 1.29382 0
M  V30 2619 O 252.285 -1.78289 0.329043 0
M  V30 2620 C 252.333 -0.454207 3.57728 0
M  V30 2621 O 251.437 -1.54228 3.82475 0
M  V30 2622 H 250.778 -0.00617128 0.663971 0
M  V30 2623 H 253.308 0.606014 1.95419 0
M  V30 2624 H 253.318 -0.707525 4.01818 0
M  V30 2625 H 251.993 0.438812 4.13579 0
M  V30 2626 H 250.57 -1.2797 3.50254 0
M  V30 2627 N 252.755 -1.56801 0.158532 0
M  V30 2628 C 253.703 -2.18638 -0.793729 0
M  V30 2629 C 254.697 -1.14669 -1.24689 0
M  V30 2630 O 255.903 -1.32895 -1.21403 0
M  V30 2631 H 252.278 -0.700226 -0.274204 0
M  V30 2632 H 254.249 -2.97367 -0.248095 0
M  V30 2633 C 252.998 -2.83139 -2.0181 0
M  V30 2634 H 252.321 -3.62863 -1.67841 0
M  V30 2635 H 253.761 -3.29894 -2.66357 0
M  V30 2636 C 252.22 -1.82244 -2.83353 0
M  V30 2637 O 252.75 -1.3 -3.80083 0
M  V30 2638 N 250.956 -1.51288 -2.48114 0
M  V30 2639 H 250.503 -1.93964 -1.69516 0
M  V30 2640 H 250.461 -0.840296 -3.02963 0
M  V30 2641 N 254.233 0.115231 -1.57178 0
M  V30 2642 C 255.644 0.67197 -1.74188 0
M  V30 2643 C 255.995 1.80125 -0.777777 0
M  V30 2644 O 255.12 2.16346 0.0484376 0
M  V30 2645 C 255.715 1.22573 -3.1585 0
M  V30 2646 C 254.274 1.72872 -3.34353 0
M  V30 2647 C 253.421 0.629972 -2.70049 0
M  V30 2648 H 256.372 -0.110712 -1.58313 0
M  V30 2649 H 256.393 2.09535 -3.17609 0
M  V30 2650 H 255.905 0.403598 -3.85996 0
M  V30 2651 H 254.006 2.5755 -2.69256 0
M  V30 2652 H 254.119 1.83557 -4.42542 0
M  V30 2653 H 252.483 1.0645 -2.31388 0
M  V30 2654 H 253.266 -0.181241 -3.42821 0
M  V30 2655 N 255.711 1.52812 0.385517 0
M  V30 2656 C 256.939 1.71907 1.15133 0
M  V30 2657 C 257.354 0.439004 1.83625 0
M  V30 2658 O 256.711 -0.586765 1.7281 0
M  V30 2659 C 256.762 2.87099 2.19673 0
M  V30 2660 O 256.483 4.10151 1.53973 0
M  V30 2661 C 257.984 3.17902 3.08955 0
M  V30 2662 H 255.204 0.575479 0.345057 0
M  V30 2663 H 257.748 1.99476 0.45052 0
M  V30 2664 H 255.903 2.61982 2.85384 0
M  V30 2665 H 256.317 4.74514 2.23465 0
M  V30 2666 H 257.791 4.01959 3.7833 0
M  V30 2667 H 258.268 2.3243 3.72657 0
M  V30 2668 H 258.874 3.44871 2.48885 0
M  V30 2669 N 257.189 -0.644168 1.43834 0
M  V30 2670 C 258.466 -1.40188 1.36406 0
M  V30 2671 C 258.846 -2.11094 0.0163124 0
M  V30 2672 O 258.194 -2.05426 -1.00062 0
M  V30 2673 C 258.404 -2.3791 2.55343 0
M  V30 2674 C 259.752 -3.01637 2.98832 0
M  V30 2675 O 260.776 -2.48237 2.55455 0
M  V30 2676 O 259.635 -3.98477 3.74003 0
M  V30 2677 H 256.729 -0.626773 0.539523 0
M  V30 2678 H 259.275 -0.670317 1.559 0
M  V30 2679 H 258.047 -1.84525 3.4506 0
M  V30 2680 H 257.67 -3.18503 2.37995 0
M  V30 2681 N 258.668 -1.30515 -0.883378 0
M  V30 2682 C 259.945 -1.10086 -1.6168 0
M  V30 2683 C 260.325 0.349269 -2.08191 0
M  V30 2684 O 259.673 1.34105 -1.85008 0
M  V30 2685 C 259.883 -2.10315 -2.78511 0
M  V30 2686 C 261.231 -2.42119 -3.48803 0
M  V30 2687 O 262.255 -2.08638 -2.88702 0
M  V30 2688 O 261.114 -2.99396 -4.57192 0
M  V30 2689 H 258.208 -0.422907 -0.710689 0
M  V30 2690 H 260.754 -1.41947 -0.930015 0
M  V30 2691 H 259.526 -3.07917 -2.41459 0
M  V30 2692 H 259.149 -1.79282 -3.54886 0
M  V30 2693 N 260.146 1.09593 -1.13257 0
M  V30 2694 C 261.423 1.78293 -0.804432 0
M  V30 2695 C 261.803 1.99004 0.70431 0
M  V30 2696 O 261.151 1.59007 1.641 0
M  V30 2697 C 261.361 3.10707 -1.5894 0
M  V30 2698 C 262.709 3.85443 -1.78099 0
M  V30 2699 O 263.733 3.20454 -1.55525 0
M  V30 2700 O 262.592 5.02108 -2.15753 0
M  V30 2701 H 259.686 0.773156 -0.293528 0
M  V30 2702 H 262.232 1.16164 -1.23709 0
M  V30 2703 H 261.004 2.91106 -2.61482 0
M  V30 2704 H 260.627 3.80558 -1.15157 0
M  V30 2705 N 261.624 0.925811 1.2754 0
M  V30 2706 C 262.87 0.566092 1.94739 0
M  V30 2707 C 263.203 -0.890057 1.72603 0
M  V30 2708 O 262.478 -1.63467 1.05399 0
M  V30 2709 C 262.761 0.89054 3.48915 0
M  V30 2710 C 262.614 2.4003 3.80402 0
M  V30 2711 C 263.933 0.395101 4.38323 0
M  V30 2712 H 261.052 0.20714 0.707292 0
M  V30 2713 H 263.694 1.15725 1.50691 0
M  V30 2714 H 261.844 0.387452 3.86563 0
M  V30 2715 H 263.516 2.97494 3.52555 0
M  V30 2716 H 261.759 2.85028 3.2702 0
M  V30 2717 H 262.43 2.57785 4.8811 0
M  V30 2718 H 264.906 0.826241 4.07814 0
M  V30 2719 H 263.782 0.651086 5.45025 0
M  V30 2720 H 264.043 -0.704798 4.36446 0
M  V30 2721 N 263.102 -1.41638 0.69111 0
M  V30 2722 C 264.327 -2.06148 0.227583 0
M  V30 2723 C 264.752 -1.51652 -1.11281 0
M  V30 2724 O 264.11 -0.64164 -1.69566 0
M  V30 2725 C 264.158 -3.60095 0.190858 0
M  V30 2726 O 263.262 -4.03845 -0.835664 0
M  V30 2727 H 262.603 -0.654434 0.112306 0
M  V30 2728 H 265.133 -1.81484 0.944714 0
M  V30 2729 H 265.143 -4.07995 0.020207 0
M  V30 2730 H 263.818 -3.99129 1.16915 0
M  V30 2731 H 262.395 -3.67458 -0.63473 0
M  V30 2732 N 264.58 -0.43555 -1.51462 0
M  V30 2733 C 265.805 0.132627 -2.06976 0
M  V30 2734 C 266.23 1.35848 -1.30104 0
M  V30 2735 O 265.588 1.78112 -0.338493 0
M  V30 2736 C 265.636 0.43523 -3.57964 0
M  V30 2737 O 264.74 1.52198 -3.83288 0
M  V30 2738 H 264.081 0.00265 -0.663995 0
M  V30 2739 H 266.611 -0.616369 -1.95095 0
M  V30 2740 H 266.621 0.686206 -4.02188 0
M  V30 2741 H 265.296 -0.460739 -4.1334 0
M  V30 2742 H 263.873 1.2611 -3.50928 0
M  V30 2743 N 266.058 1.56714 -0.166846 0
M  V30 2744 C 267.306 1.96358 0.478305 0
M  V30 2745 C 267.627 1.0537 1.6408 0
M  V30 2746 O 266.897 0.119154 1.95537 0
M  V30 2747 H 265.477 0.725065 0.179692 0
M  V30 2748 H 268.139 1.93329 -0.246985 0
M  V30 2749 H 267.235 3.00547 0.841292 0
M  V30 2750 N 267.536 -0.106894 1.57237 0
M  V30 2751 C 268.761 -0.830287 1.90055 0
M  V30 2752 C 269.186 -1.72064 0.75998 0
M  V30 2753 O 268.544 -1.78982 -0.288991 0
M  V30 2754 C 268.592 -1.6295 3.21683 0
M  V30 2755 O 267.696 -2.73748 3.08441 0
M  V30 2756 H 267.037 -0.228855 0.623315 0
M  V30 2757 H 269.567 -0.085658 2.04421 0
M  V30 2758 H 269.577 -2.01621 3.54701 0
M  V30 2759 H 268.252 -0.975989 4.04286 0
M  V30 2760 H 266.829 -2.38192 2.86913 0
M  V30 2761 N 269.014 -1.53014 -0.377408 0
M  V30 2762 C 270.239 -1.72818 -1.14668 0
M  V30 2763 C 270.664 -0.450725 -1.8262 0
M  V30 2764 O 270.022 0.59439 -1.7128 0
M  V30 2765 C 270.07 -2.88627 -2.16164 0
M  V30 2766 O 269.174 -2.56409 -3.22998 0
M  V30 2767 H 268.515 -0.574301 -0.333278 0
M  V30 2768 H 271.045 -1.99853 -0.438152 0
M  V30 2769 H 271.055 -3.14455 -2.59966 0
M  V30 2770 H 269.73 -3.81294 -1.66095 0
M  V30 2771 H 268.307 -2.4136 -2.84253 0
M  V30 2772 N 270.492 0.636531 -1.44174 0
M  V30 2773 C 271.717 1.42847 -1.50364 0
M  V30 2774 C 272.142 1.87665 -0.127867 0
M  V30 2775 O 271.5 1.58408 0.88185 0
M  V30 2776 C 271.548 2.62854 -2.4686 0
M  V30 2777 O 270.652 3.62501 -1.9664 0
M  V30 2778 H 269.993 0.427642 -0.507955 0
M  V30 2779 H 272.523 0.777422 -1.89255 0
M  V30 2780 H 272.533 3.10465 -2.64718 0
M  V30 2781 H 271.208 2.29578 -3.46795 0
M  V30 2782 H 269.785 3.21735 -1.88523 0
M  V30 2783 N 271.97 1.30982 0.876444 0
M  V30 2784 C 272.88 1.2003 2.01569 0
M  V30 2785 C 273.896 0.11838 1.73597 0
M  V30 2786 O 275.072 0.33495 1.98595 0
M  V30 2787 C 272.137 0.901637 3.34771 0
M  V30 2788 C 271.198 2.06979 3.76109 0
M  V30 2789 C 270.431 1.78529 5.02954 0
M  V30 2790 O 270.654 0.717296 5.65872 0
M  V30 2791 O 269.588 2.64019 5.40905 0
M  V30 2792 H 273.414 2.15753 2.13739 0
M  V30 2793 H 270.999 1.10658 1.00375 0
M  V30 2794 H 272.881 0.750645 4.1466 0
M  V30 2795 H 271.556 -0.0256141 3.2369 0
M  V30 2796 H 270.463 2.27616 2.96887 0
M  V30 2797 H 271.796 2.97907 3.91807 0
M  V30 2798 N 273.449 -1.08991 1.13837 0
M  V30 2799 C 274.865 -1.33312 0.877506 0
M  V30 2800 C 275.065 -1.95587 -0.48456 0
M  V30 2801 O 274.121 -2.20509 -1.23013 0
M  V30 2802 C 275.434 -2.24045 2.0056 0
M  V30 2803 C 276.982 -2.37542 2.03821 0
M  V30 2804 C 277.457 -3.31614 3.15905 0
M  V30 2805 N 278.948 -3.39189 3.15445 0
M  V30 2806 C 279.683 -4.11992 3.98811 0
M  V30 2807 N 279.179 -4.87553 4.92203 0
M  V30 2808 N 280.972 -4.07762 3.86894 0
M  V30 2809 H 273.123 -0.669456 2.01574 0
M  V30 2810 H 275.386 -0.357482 0.878015 0
M  V30 2811 H 275.092 -1.85521 2.98789 0
M  V30 2812 H 274.966 -3.24466 1.92359 0
M  V30 2813 H 277.353 -2.75327 1.06202 0
M  V30 2814 H 277.434 -1.36884 2.16093 0
M  V30 2815 H 277.078 -2.94551 4.13766 0
M  V30 2816 H 277.008 -4.32186 3.0087 0
M  V30 2817 H 279.499 -2.85314 2.47799 0
M  V30 2818 H 279.812 -5.40549 5.52292 0
M  V30 2819 H 278.157 -4.86627 4.96205 0
M  V30 2820 H 281.348 -3.47833 3.13257 0
M  V30 2821 H 281.521 -4.64238 4.52092 0
M  V30 2822 N 274.927 -0.932562 -1.27047 0
M  V30 2823 C 276.152 -0.591474 -1.98787 0
M  V30 2824 C 276.577 0.824601 -1.69062 0
M  V30 2825 O 275.935 1.5541 -0.933677 0
M  V30 2826 C 275.983 -0.829808 -3.50922 0
M  V30 2827 O 275.087 0.102266 -4.12273 0
M  V30 2828 H 274.428 -0.227185 -0.623926 0
M  V30 2829 H 276.958 -1.25314 -1.61733 0
M  V30 2830 H 276.968 -0.747292 -4.01098 0
M  V30 2831 H 275.643 -1.86201 -3.7189 0
M  V30 2832 H 274.22 -0.0305761 -3.72887 0
M  V30 2833 N 276.405 1.4127 -0.698611 0
M  V30 2834 C 277.63 2.06024 -0.238512 0
M  V30 2835 C 278.055 1.5224 1.10475 0
M  V30 2836 O 277.413 0.650623 1.69223 0
M  V30 2837 C 277.461 3.59988 -0.209952 0
M  V30 2838 O 276.565 4.04282 0.814235 0
M  V30 2839 H 275.906 0.653829 -0.115775 0
M  V30 2840 H 278.436 1.8098 -0.954326 0
M  V30 2841 H 278.446 4.07979 -0.0418436 0
M  V30 2842 H 277.121 3.98503 -1.1903 0
M  V30 2843 H 275.698 3.6779 0.615234 0
M  V30 2844 N 277.883 0.443576 1.51229 0
M  V30 2845 C 279.111 -0.11929 2.06556 0
M  V30 2846 C 279.526 -1.35921 1.31038 0
M  V30 2847 O 278.883 -1.78675 0.371704 0
M  V30 2848 C 278.934 -0.435228 3.5887 0
M  V30 2849 O 278.655 0.755486 4.31537 0
M  V30 2850 C 280.156 -1.04808 4.30732 0
M  V30 2851 H 277.376 -0.0051584 0.67098 0
M  V30 2852 H 279.92 0.624453 1.94733 0
M  V30 2853 H 278.075 -1.12887 3.70588 0
M  V30 2854 H 278.489 0.483491 5.22267 0
M  V30 2855 H 279.963 -1.2191 5.3837 0
M  V30 2856 H 280.44 -2.03081 3.89429 0
M  V30 2857 H 281.046 -0.393637 4.23474 0
M  V30 2858 N 279.361 -1.56624 0.175154 0
M  V30 2859 C 280.586 -2.01813 -0.478137 0
M  V30 2860 C 281.011 -1.05457 -1.55757 0
M  V30 2861 O 280.369 -0.0347439 -1.81267 0
M  V30 2862 C 280.417 -3.45581 -1.02987 0
M  V30 2863 O 279.521 -3.52305 -2.14371 0
M  V30 2864 H 278.862 -0.65413 -0.114059 0
M  V30 2865 H 281.392 -2.02673 0.280173 0
M  V30 2866 H 281.402 -3.84965 -1.35151 0
M  V30 2867 H 280.077 -4.1521 -0.239556 0
M  V30 2868 H 278.654 -3.24783 -1.83222 0
M  V30 2869 N 280.839 0.0985539 -1.57292 0
M  V30 2870 C 282.087 0.801092 -1.85545 0
M  V30 2871 C 282.408 1.79438 -0.763353 0
M  V30 2872 O 281.678 1.94763 0.21073 0
M  V30 2873 H 280.258 0.29884 -0.684619 0
M  V30 2874 H 282.92 0.0810064 -1.94732 0
M  V30 2875 H 282.016 1.3338 -2.82163 0
M  V30 2876 N 282.317 1.53212 0.369288 0
M  V30 2877 C 283.565 1.68881 1.11012 0
M  V30 2878 C 283.886 0.441285 1.89941 0
M  V30 2879 O 283.156 -0.544623 1.88177 0
M  V30 2880 H 281.736 0.622569 0.412816 0
M  V30 2881 H 284.398 1.90391 0.416802 0
M  V30 2882 H 283.494 2.54822 1.80201 0
M  V30 2883 N 283.795 -0.628877 1.44509 0
M  V30 2884 C 285.025 -1.41349 1.50678 0
M  V30 2885 C 285.433 -1.88745 0.131075 0
M  V30 2886 O 284.776 -1.61592 -0.87371 0
M  V30 2887 C 284.838 -2.66608 2.41165 0
M  V30 2888 C 284.502 -2.40993 3.88293 0
M  V30 2889 C 285.499 -2.0268 4.78766 0
M  V30 2890 C 283.184 -2.54563 4.33016 0
M  V30 2891 C 285.178 -1.78269 6.11963 0
M  V30 2892 C 282.865 -2.29766 5.6626 0
M  V30 2893 C 283.863 -1.91678 6.55552 0
M  V30 2894 O 283.551 -1.67158 7.86329 0
M  V30 2895 H 283.283 -0.439851 0.51333 0
M  V30 2896 H 285.837 -0.776084 1.90174 0
M  V30 2897 H 284.067 -3.32994 1.96601 0
M  V30 2898 H 285.756 -3.28615 2.38259 0
M  V30 2899 H 286.522 -1.91751 4.45485 0
M  V30 2900 H 282.401 -2.83179 3.63773 0
M  V30 2901 H 285.945 -1.48465 6.81619 0
M  V30 2902 H 281.842 -2.40306 5.99102 0
M  V30 2903 H 282.61 -1.81386 7.98149 0
M  V30 2904 N 285.273 -1.31445 -0.869486 0
M  V30 2905 C 286.522 -1.20517 -1.61736 0
M  V30 2906 C 286.835 0.235341 -1.94179 0
M  V30 2907 O 288.041 0.466312 -2.67465 0
M  V30 2908 C 286.497 -2.10982 -2.91573 0
M  V30 2909 C 286.105 -3.60032 -2.66611 0
M  V30 2910 C 287.849 -2.08856 -3.69567 0
M  V30 2911 C 285.756 -4.42503 -3.92358 0
M  V30 2912 H 284.686 -0.447493 -0.606849 0
M  V30 2913 H 287.337 -1.56303 -0.96133 0
M  V30 2914 H 285.719 -1.68095 -3.58553 0
M  V30 2915 H 286.893 -4.11167 -2.08035 0
M  V30 2916 H 285.208 -3.64139 -2.0197 0
M  V30 2917 H 287.805 -2.67716 -4.62852 0
M  V30 2918 H 288.148 -1.07582 -4.02159 0
M  V30 2919 H 288.681 -2.49945 -3.09471 0
M  V30 2920 H 285.42 -5.44533 -3.64916 0
M  V30 2921 H 284.94 -3.96125 -4.50383 0
M  V30 2922 H 286.619 -4.54741 -4.60238 0
M  V30 2923 N 286.751 1.08385 -1.14413 0
M  V30 2924 C 287.998 1.80776 -0.912482 0
M  V30 2925 C 288.326 1.86236 0.560934 0
M  V30 2926 O 287.581 1.33431 1.43159 0
M  V30 2927 C 287.88 3.26273 -1.45879 0
M  V30 2928 C 287.546 3.4093 -2.95089 0
M  V30 2929 C 286.208 3.44638 -3.35824 0
M  V30 2930 C 288.56 3.44591 -3.91033 0
M  V30 2931 C 285.888 3.49597 -4.71167 0
M  V30 2932 C 288.24 3.51086 -5.26233 0
M  V30 2933 C 286.904 3.53067 -5.6648 0
M  V30 2934 H 286.174 0.661507 -0.333901 0
M  V30 2935 H 288.821 1.27613 -1.42784 0
M  V30 2936 H 287.126 3.82146 -0.864376 0
M  V30 2937 H 288.823 3.80839 -1.2555 0
M  V30 2938 H 285.413 3.38736 -2.62594 0
M  V30 2939 H 289.597 3.40957 -3.60641 0
M  V30 2940 H 284.853 3.49424 -5.0171 0
M  V30 2941 H 289.027 3.52864 -6.00383 0
M  V30 2942 H 286.654 3.56662 -6.71339 0
M  V30 2943 N 288.23 0.939286 1.26551 0
M  V30 2944 C 289.46 0.601663 1.97645 0
M  V30 2945 C 289.868 -0.827206 1.70159 0
M  V30 2946 O 289.211 -1.56291 0.965338 0
M  V30 2947 C 289.273 0.761725 3.51337 0
M  V30 2948 C 288.937 2.16487 4.0247 0
M  V30 2949 C 289.934 3.14016 4.14355 0
M  V30 2950 C 287.619 2.48494 4.36527 0
M  V30 2951 C 289.613 4.41654 4.59587 0
M  V30 2952 C 287.3 3.76364 4.81449 0
M  V30 2953 C 288.298 4.72758 4.92939 0
M  V30 2954 O 287.986 5.98352 5.36871 0
M  V30 2955 H 287.718 0.225758 0.637189 0
M  V30 2956 H 290.272 1.26178 1.62075 0
M  V30 2957 H 288.502 0.0444808 3.86674 0
M  V30 2958 H 290.191 0.427442 4.03643 0
M  V30 2959 H 290.957 2.90613 3.8829 0
M  V30 2960 H 286.836 1.74202 4.26819 0
M  V30 2961 H 290.38 5.16896 4.68471 0
M  V30 2962 H 286.277 3.99582 5.06956 0
M  V30 2963 H 287.045 6.01507 5.55096 0
M  V30 2964 N 289.708 -1.40897 0.706093 0
M  V30 2965 C 290.936 -2.05373 0.250887 0
M  V30 2966 C 291.351 -1.53172 -1.10381 0
M  V30 2967 O 290.708 -0.684305 -1.69185 0
M  V30 2968 C 290.759 -3.6088 0.211571 0
M  V30 2969 O 290.48 -4.11153 1.51276 0
M  V30 2970 C 291.981 -4.42517 -0.263346 0
M  V30 2971 H 289.201 -0.66115 0.114552 0
M  V30 2972 H 291.745 -1.80479 0.961635 0
M  V30 2973 H 289.9 -3.84777 -0.450073 0
M  V30 2974 H 290.314 -5.05279 1.40689 0
M  V30 2975 H 291.788 -5.51479 -0.239718 0
M  V30 2976 H 292.265 -4.19396 -1.30397 0
M  V30 2977 H 292.871 -4.23708 0.367677 0
M  V30 2978 N 291.186 -0.45159 -1.50991 0
M  V30 2979 C 292.433 0.110074 -2.02201 0
M  V30 2980 C 292.761 1.4146 -1.33489 0
M  V30 2981 O 292.016 1.90617 -0.443125 0
M  V30 2982 C 292.315 0.361728 -3.55565 0
M  V30 2983 C 291.981 -0.858717 -4.42648 0
M  V30 2984 C 290.643 -1.19338 -4.66167 0
M  V30 2985 C 292.995 -1.67221 -4.93646 0
M  V30 2986 C 290.323 -2.34195 -5.37931 0
M  V30 2987 C 292.675 -2.8119 -5.6667 0
M  V30 2988 C 291.339 -3.15094 -5.88449 0
M  V30 2989 H 290.609 0.040279 -0.739904 0
M  V30 2990 H 293.256 -0.601696 -1.81802 0
M  V30 2991 H 291.561 1.15554 -3.74372 0
M  V30 2992 H 293.258 0.80996 -3.92735 0
M  V30 2993 H 289.848 -0.58796 -4.24548 0
M  V30 2994 H 294.032 -1.42686 -4.75347 0
M  V30 2995 H 289.288 -2.6076 -5.53005 0
M  V30 2996 H 293.462 -3.44585 -6.05173 0
M  V30 2997 H 291.089 -4.04204 -6.43835 0
M  V30 2998 N 292.664 1.56529 -0.183458 0
M  V30 2999 C 293.889 2.02064 0.467428 0
M  V30 3000 C 294.314 1.06282 1.55196 0
M  V30 3001 O 293.672 0.0443565 1.81246 0
M  V30 3002 C 293.72 3.46122 1.01153 0
M  V30 3003 O 292.824 3.53437 2.12499 0
M  V30 3004 H 292.165 0.654726 0.110588 0
M  V30 3005 H 294.695 2.02521 -0.290917 0
M  V30 3006 H 294.705 3.85676 1.33108 0
M  V30 3007 H 293.38 4.15331 0.217533 0
M  V30 3008 H 291.957 3.2575 1.81497 0
M  V30 3009 N 294.142 -0.090211 1.57342 0
M  V30 3010 C 295.37 -0.806224 1.90546 0
M  V30 3011 C 295.785 -1.72041 0.777644 0
M  V30 3012 O 295.142 -1.80778 -0.250103 0
M  V30 3013 C 295.193 -1.61546 3.23396 0
M  V30 3014 O 294.914 -0.738043 4.31839 0
M  V30 3015 C 296.415 -2.4341 3.70495 0
M  V30 3016 H 293.635 -0.230256 0.630257 0
M  V30 3017 H 296.179 -0.0659843 2.04394 0
M  V30 3018 H 294.334 -2.30816 3.11131 0
M  V30 3019 H 294.748 -1.29901 5.08159 0
M  V30 3020 H 296.222 -2.95676 4.66133 0
M  V30 3021 H 296.699 -3.22098 2.98579 0
M  V30 3022 H 297.305 -1.79331 3.85643 0
M  V30 3023 N 295.62 -1.53406 -0.361157 0
M  V30 3024 C 296.866 -1.70054 -1.10496 0
M  V30 3025 C 297.199 -0.453278 -1.88836 0
M  V30 3026 O 296.474 0.5495 -1.86576 0
M  V30 3027 C 296.757 -2.95317 -2.06058 0
M  V30 3028 C 296.61 -4.3021 -1.31298 0
M  V30 3029 C 297.929 -3.16193 -3.06121 0
M  V30 3030 H 295.048 -0.618799 -0.400321 0
M  V30 3031 H 297.69 -1.86052 -0.385318 0
M  V30 3032 H 295.84 -2.81809 -2.67425 0
M  V30 3033 H 297.512 -4.55538 -0.726807 0
M  V30 3034 H 295.755 -4.29421 -0.614853 0
M  V30 3035 H 296.426 -5.14 -2.01265 0
M  V30 3036 H 298.902 -3.28916 -2.5486 0
M  V30 3037 H 297.778 -4.05266 -3.70204 0
M  V30 3038 H 298.039 -2.31676 -3.76535 0
M  V30 3039 N 297.098 0.621204 -1.44841 0
M  V30 3040 C 298.048 1.72663 -1.48901 0
M  V30 3041 C 299.032 1.56964 -0.353702 0
M  V30 3042 O 300.224 1.66532 -0.599669 0
M  V30 3043 C 297.353 3.11381 -1.44557 0
M  V30 3044 C 296.439 3.32514 -2.6324 0
M  V30 3045 N 296.83 3.23969 -3.8843 0
M  V30 3046 C 295.128 3.63343 -2.58647 0
M  V30 3047 C 295.829 3.46062 -4.67564 0
M  V30 3048 N 294.805 3.69407 -3.98797 0
M  V30 3049 H 298.607 1.64529 -2.43531 0
M  V30 3050 H 296.121 0.82401 -1.39942 0
M  V30 3051 H 298.118 3.90667 -1.4555 0
M  V30 3052 H 296.778 3.20674 -0.509731 0
M  V30 3053 H 297.789 3.02669 -4.20252 0
M  V30 3054 H 294.466 3.79556 -1.73906 0
M  V30 3055 H 295.856 3.44963 -5.76585 0
M  V30 3056 N 298.576 1.31904 0.862503 0
M  V30 3057 C 299.987 1.19803 1.43193 0
M  V30 3058 C 300.338 -0.192567 1.95253 0
M  V30 3059 O 299.463 -1.09081 1.86896 0
M  V30 3060 C 300.058 2.16883 2.60283 0
M  V30 3061 C 298.617 2.08692 3.13248 0
M  V30 3062 C 297.764 2.05691 1.85975 0
M  V30 3063 H 300.715 1.43846 0.670365 0
M  V30 3064 H 300.736 1.76278 3.37204 0
M  V30 3065 H 300.248 3.18083 2.22363 0
M  V30 3066 H 298.349 1.10713 3.55771 0
M  V30 3067 H 298.462 2.9815 3.75025 0
M  V30 3068 H 296.826 1.50814 2.05249 0
M  V30 3069 H 297.609 3.08659 1.50282 0
M  V30 3070 N 300.054 -1.07777 1.14986 0
M  V30 3071 C 301.303 -1.79669 0.916617 0
M  V30 3072 C 301.616 -1.87474 -0.557917 0
M  V30 3073 O 302.822 -2.55845 -0.908617 0
M  V30 3074 C 301.278 -3.22848 1.59051 0
M  V30 3075 C 300.886 -3.23257 3.10176 0
M  V30 3076 C 302.63 -3.99379 1.43864 0
M  V30 3077 C 300.537 -4.61063 3.70372 0
M  V30 3078 H 299.467 -0.673349 0.33929 0
M  V30 3079 H 302.118 -1.21003 1.37951 0
M  V30 3080 H 300.5 -3.8168 1.0553 0
M  V30 3081 H 301.674 -2.74095 3.70417 0
M  V30 3082 H 299.989 -2.60222 3.25074 0
M  V30 3083 H 302.586 -5.0122 1.86232 0
M  V30 3084 H 302.929 -4.14511 0.385564 0
M  V30 3085 H 303.462 -3.47032 1.94457 0
M  V30 3086 H 300.201 -4.51135 4.7556 0
M  V30 3087 H 299.721 -5.1048 3.14913 0
M  V30 3088 H 301.4 -5.30034 3.71043 0
M  V30 3089 N 301.532 -0.945985 -1.26051 0
M  V30 3090 C 302.943 -0.638096 -1.75457 0
M  V30 3091 C 303.294 0.846672 -1.76991 0
M  V30 3092 O 302.419 1.66262 -1.38513 0
M  V30 3093 C 303.014 -1.15157 -3.18629 0
M  V30 3094 C 301.573 -0.894004 -3.65629 0
M  V30 3095 C 300.72 -1.29967 -2.44957 0
M  V30 3096 H 303.671 -1.12376 -1.1206 0
M  V30 3097 H 303.692 -0.507615 -3.77099 0
M  V30 3098 H 303.204 -2.23222 -3.1748 0
M  V30 3099 H 301.305 0.172057 -3.72203 0
M  V30 3100 H 301.418 -1.52439 -4.54202 0
M  V30 3101 H 299.782 -0.718078 -2.44368 0
M  V30 3102 H 300.565 -2.38935 -2.46505 0
M  V30 3103 N 303.011 1.40521 -0.713556 0
M  V30 3104 C 304.288 1.94775 -0.17943 0
M  V30 3105 C 304.668 1.65184 1.31444 0
M  V30 3106 O 304.016 0.968429 2.06963 0
M  V30 3107 C 304.226 3.45543 -0.489986 0
M  V30 3108 C 305.574 4.22442 -0.427536 0
M  V30 3109 O 306.598 3.53644 -0.425929 0
M  V30 3110 O 305.457 5.4501 -0.403292 0
M  V30 3111 H 302.551 0.826606 -0.0255192 0
M  V30 3112 H 305.097 1.5014 -0.790949 0
M  V30 3113 H 303.869 3.60432 -1.5233 0
M  V30 3114 H 303.492 3.97311 0.151598 0
M  V30 3115 N 304.489 0.459591 1.5075 0
M  V30 3116 C 305.399 -0.34613 2.32033 0
M  V30 3117 C 306.415 -1.00686 1.41909 0
M  V30 3118 O 307.591 -0.997361 1.7497 0
M  V30 3119 C 304.656 -1.42029 3.16273 0
M  V30 3120 C 303.717 -0.777362 4.22203 0
M  V30 3121 C 302.95 -1.80034 5.02418 0
M  V30 3122 O 303.173 -3.02544 4.83553 0
M  V30 3123 O 302.107 -1.37853 5.85901 0
M  V30 3124 H 305.933 0.318054 3.0203 0
M  V30 3125 H 303.518 0.221663 1.47746 0
M  V30 3126 H 305.4 -2.04275 3.68578 0
M  V30 3127 H 304.075 -2.06815 2.49016 0
M  V30 3128 H 302.982 -0.116256 3.73919 0
M  V30 3129 H 304.315 -0.172634 4.91897 0
M  V30 3130 N 305.967 -1.56429 0.191757 0
M  V30 3131 C 307.244 -1.89224 -0.495332 0
M  V30 3132 C 307.624 -1.10478 -1.79883 0
M  V30 3133 O 306.972 -0.204852 -2.2758 0
M  V30 3134 C 307.182 -3.41548 -0.717367 0
M  V30 3135 C 308.53 -4.11711 -1.03823 0
M  V30 3136 O 309.554 -3.4698 -0.805204 0
M  V30 3137 O 308.413 -5.2611 -1.47887 0
M  V30 3138 H 305.507 -0.785788 -0.25781 0
M  V30 3139 H 308.053 -1.68111 0.231721 0
M  V30 3140 H 306.825 -3.90772 0.203287 0
M  V30 3141 H 306.448 -3.68342 -1.497 0
M  V30 3142 N 307.445 0.0818655 -1.57387 0
M  V30 3143 C 308.67 0.799946 -1.91352 0
M  V30 3144 C 309.095 1.70833 -0.787258 0
M  V30 3145 O 308.453 1.79419 0.26048 0
M  V30 3146 C 308.501 1.57812 -3.24234 0
M  V30 3147 O 307.605 2.68806 -3.12757 0
M  V30 3148 H 306.946 0.21891 -0.626877 0
M  V30 3149 H 309.476 0.0531256 -2.04531 0
M  V30 3150 H 309.486 1.95952 -3.57864 0
M  V30 3151 H 308.161 0.911548 -4.05788 0
M  V30 3152 H 306.738 2.33597 -2.90666 0
M  V30 3153 N 308.923 1.53595 0.353017 0
M  V30 3154 C 310.334 1.61937 0.929153 0
M  V30 3155 C 310.685 0.494686 1.89861 0
M  V30 3156 O 309.81 -0.377017 2.1309 0
M  V30 3157 C 310.405 2.93526 1.69199 0
M  V30 3158 C 308.964 3.04161 2.21727 0
M  V30 3159 C 308.111 2.57322 1.03348 0
M  V30 3160 H 311.062 1.58155 0.131431 0
M  V30 3161 H 311.083 2.82034 2.55416 0
M  V30 3162 H 310.595 3.75362 0.986144 0
M  V30 3163 H 308.696 2.26938 2.95516 0
M  V30 3164 H 308.809 4.09465 2.48748 0
M  V30 3165 H 307.173 2.12499 1.40414 0
M  V30 3166 H 307.956 3.41588 0.342428 0
M  V30 3167 N 310.401 -0.613514 1.45168 0
M  V30 3168 C 311.647 -1.37279 1.50087 0
M  V30 3169 C 312.002 -1.91902 0.138294 0
M  V30 3170 O 311.295 -1.71764 -0.84899 0
M  V30 3171 C 311.489 -2.54347 2.51083 0
M  V30 3172 C 311.318 -2.11186 3.97027 0
M  V30 3173 C 310.088 -1.97636 4.65046 0
M  V30 3174 C 312.286 -1.69016 4.85735 0
M  V30 3175 N 310.268 -1.48224 5.95737 0
M  V30 3176 C 311.639 -1.30976 6.06008 0
M  V30 3177 C 313.694 -1.56555 4.72647 0
M  V30 3178 C 312.397 -0.817197 7.14643 0
M  V30 3179 C 314.423 -1.08702 5.81324 0
M  V30 3180 C 313.785 -0.716233 7.00749 0
M  V30 3181 H 309.884 -0.496478 0.60418 0
M  V30 3182 H 312.468 -0.701988 1.81605 0
M  V30 3183 H 310.639 -3.19031 2.21527 0
M  V30 3184 H 312.371 -3.21208 2.46187 0
M  V30 3185 H 309.126 -2.18638 4.20112 0
M  V30 3186 H 309.55 -1.25767 6.65216 0
M  V30 3187 H 314.192 -1.83849 3.80736 0
M  V30 3188 H 311.91 -0.531797 8.06348 0
M  V30 3189 H 315.496 -0.994943 5.7323 0
M  V30 3190 H 314.376 -0.351642 7.83411 0
M  V30 3191 N 311.879 -1.3236 -0.855495 0
M  V30 3192 C 313.128 -1.22226 -1.60448 0
M  V30 3193 C 313.441 0.214733 -1.94418 0
M  V30 3194 O 314.647 0.437917 -2.67945 0
M  V30 3195 C 313.103 -2.14063 -2.89318 0
M  V30 3196 C 312.711 -3.62839 -2.62777 0
M  V30 3197 C 314.455 -2.12764 -3.67331 0
M  V30 3198 C 312.362 -4.4664 -3.87643 0
M  V30 3199 H 311.292 -0.453904 -0.602069 0
M  V30 3200 H 313.943 -1.57314 -0.944698 0
M  V30 3201 H 312.325 -1.71889 -3.5675 0
M  V30 3202 H 313.499 -4.1335 -2.03662 0
M  V30 3203 H 311.814 -3.66261 -1.98096 0
M  V30 3204 H 314.411 -2.72611 -4.59987 0
M  V30 3205 H 314.754 -1.11841 -4.00995 0
M  V30 3206 H 315.287 -2.53214 -3.06802 0
M  V30 3207 H 312.026 -5.48373 -3.5912 0
M  V30 3208 H 311.546 -4.0088 -4.46156 0
M  V30 3209 H 313.225 -4.59597 -4.55389 0
M  V30 3210 N 313.357 1.07166 -1.15556 0
M  V30 3211 C 314.585 1.83514 -0.955519 0
M  V30 3212 C 315 1.82163 0.49621 0
M  V30 3213 O 314.357 1.23441 1.34419 0
M  V30 3214 C 314.408 3.30515 -1.46432 0
M  V30 3215 O 314.129 3.31937 -2.85918 0
M  V30 3216 C 315.63 4.23625 -1.30603 0
M  V30 3217 H 312.85 0.578926 -0.339244 0
M  V30 3218 H 315.394 1.35265 -1.53374 0
M  V30 3219 H 313.549 3.76106 -0.928584 0
M  V30 3220 H 313.963 4.23794 -3.09029 0
M  V30 3221 H 315.437 5.24831 -1.71047 0
M  V30 3222 H 315.914 4.38485 -0.250441 0
M  V30 3223 H 316.52 3.83871 -1.83094 0
M  V30 3224 N 314.835 0.952656 1.25548 0
M  V30 3225 C 316.112 0.523818 1.88456 0
M  V30 3226 C 316.492 -0.998871 1.85973 0
M  V30 3227 O 315.84 -1.86381 1.3219 0
M  V30 3228 C 316.05 1.0982 3.31271 0
M  V30 3229 C 317.398 1.17385 4.08051 0
M  V30 3230 O 318.422 1.04961 3.40384 0
M  V30 3231 O 317.281 1.36852 5.29088 0
M  V30 3232 H 314.375 0.172485 0.808813 0
M  V30 3233 H 316.921 1.04596 1.33633 0
M  V30 3234 H 315.693 2.1415 3.27499 0
M  V30 3235 H 315.316 0.559191 3.93648 0
M  V30 3236 N 316.313 -1.40141 0.720998 0
M  V30 3237 C 317.538 -2.05618 0.271258 0
M  V30 3238 C 317.963 -1.53978 -1.08039 0
M  V30 3239 O 317.321 -0.677463 -1.68167 0
M  V30 3240 C 317.369 -3.59609 0.267197 0
M  V30 3241 O 316.473 -4.05526 -0.749814 0
M  V30 3242 H 315.814 -0.651904 0.126162 0
M  V30 3243 H 318.344 -1.79439 0.982997 0
M  V30 3244 H 318.354 -4.0786 0.106744 0
M  V30 3245 H 317.029 -3.96559 1.25354 0
M  V30 3246 H 315.606 -3.68722 -0.556644 0
M  V30 3247 N 317.792 -0.46758 -1.50504 0
M  V30 3248 C 319.02 0.0864133 -2.06719 0
M  V30 3249 C 319.435 1.33819 -1.33184 0
M  V30 3250 O 318.792 1.78061 -0.400083 0
M  V30 3251 C 318.843 0.378079 -3.59517 0
M  V30 3252 O 318.564 -0.824044 -4.3028 0
M  V30 3253 C 320.065 0.979426 -4.32345 0
M  V30 3254 H 317.285 -0.00551697 -0.670977 0
M  V30 3255 H 319.829 -0.655354 -1.93715 0
M  V30 3256 H 317.984 1.06977 -3.72337 0
M  V30 3257 H 318.398 -0.566518 -5.21432 0
M  V30 3258 H 319.872 1.1333 -5.40241 0
M  V30 3259 H 320.349 1.9686 -3.9261 0
M  V30 3260 H 320.955 0.326216 -4.24047 0
M  V30 3261 N 319.27 1.56325 -0.20005 0
M  V30 3262 C 320.547 1.89484 0.48529 0
M  V30 3263 C 320.927 1.1143 1.79294 0
M  V30 3264 O 320.275 0.216919 2.27468 0
M  V30 3265 C 320.485 3.41923 0.699243 0
M  V30 3266 C 321.833 4.12256 1.01638 0
M  V30 3267 O 322.857 3.47402 0.786792 0
M  V30 3268 O 321.716 5.26887 1.45095 0
M  V30 3269 H 318.81 0.787144 0.253639 0
M  V30 3270 H 321.356 1.67985 -0.240633 0
M  V30 3271 H 320.128 3.90658 -0.224008 0
M  V30 3272 H 319.751 3.69131 1.47744 0
M  V30 3273 N 320.748 -0.0735177 1.57428 0
M  V30 3274 C 322.164 -0.428264 1.53747 0
M  V30 3275 C 322.364 -1.79272 0.91998 0
M  V30 3276 O 321.42 -2.47051 0.521745 0
M  V30 3277 C 322.733 -0.370914 2.98404 0
M  V30 3278 C 324.281 -0.451224 3.0973 0
M  V30 3279 C 324.756 -0.4238 4.56035 0
M  V30 3280 N 326.247 -0.483925 4.60665 0
M  V30 3281 C 326.982 -0.484891 5.71346 0
M  V30 3282 N 326.478 -0.440775 6.91396 0
M  V30 3283 N 328.271 -0.531319 5.59583 0
M  V30 3284 H 320.422 0.819949 1.95935 0
M  V30 3285 H 322.685 0.307493 0.896745 0
M  V30 3286 H 322.391 0.564956 3.47133 0
M  V30 3287 H 322.265 -1.18176 3.5821 0
M  V30 3288 H 324.652 -1.37752 2.60976 0
M  V30 3289 H 324.733 0.388167 2.52838 0
M  V30 3290 H 324.377 0.498638 5.05446 0
M  V30 3291 H 324.307 -1.2807 5.10789 0
M  V30 3292 H 326.798 -0.522338 3.74273 0
M  V30 3293 H 327.111 -0.44539 7.71515 0
M  V30 3294 H 325.456 -0.40749 6.93804 0
M  V30 3295 H 328.647 -0.563464 4.64696 0
M  V30 3296 H 328.82 -0.528603 6.4584 0
M  V30 3297 N 322.226 -1.5378 -0.344866 0
M  V30 3298 C 323.475 -1.7018 -1.08267 0
M  V30 3299 C 323.788 -0.471 -1.89845 0
M  V30 3300 O 324.994 -0.515917 -2.66553 0
M  V30 3301 C 323.45 -3.00923 -1.97417 0
M  V30 3302 C 323.058 -4.31335 -1.21053 0
M  V30 3303 C 324.802 -3.26688 -2.71063 0
M  V30 3304 C 322.709 -5.53153 -2.09225 0
M  V30 3305 H 321.639 -0.634138 -0.407903 0
M  V30 3306 H 324.29 -1.8028 -0.342246 0
M  V30 3307 H 322.672 -2.84676 -2.75274 0
M  V30 3308 H 323.846 -4.58281 -0.481159 0
M  V30 3309 H 322.161 -4.12173 -0.591813 0
M  V30 3310 H 324.758 -4.1489 -3.37299 0
M  V30 3311 H 325.101 -2.43639 -3.37558 0
M  V30 3312 H 325.634 -3.43705 -2.0028 0
M  V30 3313 H 322.373 -6.38741 -1.47274 0
M  V30 3314 H 321.893 -5.30458 -2.79955 0
M  V30 3315 H 323.572 -5.88744 -2.68308 0
M  V30 3316 N 323.704 0.605807 -1.45491 0
M  V30 3317 C 325.115 1.18777 -1.44045 0
M  V30 3318 C 325.466 1.95471 -0.169001 0
M  V30 3319 O 324.591 2.0374 0.729324 0
M  V30 3320 C 325.186 2.16064 -2.60963 0
M  V30 3321 C 323.745 2.69633 -2.62631 0
M  V30 3322 C 322.892 1.45072 -2.36325 0
M  V30 3323 H 325.843 0.395017 -1.53705 0
M  V30 3324 H 325.864 2.9913 -2.35163 0
M  V30 3325 H 325.376 1.60217 -3.53486 0
M  V30 3326 H 323.477 3.29414 -1.74119 0
M  V30 3327 H 323.59 3.13944 -3.61906 0
M  V30 3328 H 321.954 1.74089 -1.85917 0
M  V30 3329 H 322.737 0.910899 -3.30995 0
M  V30 3330 N 325.182 1.32811 0.848464 0
M  V30 3331 C 326.145 1.22194 1.9391 0
M  V30 3332 C 327.145 0.143404 1.60159 0
M  V30 3333 O 328.335 0.394253 1.6968 0
M  V30 3334 C 325.467 0.88067 3.29328 0
M  V30 3335 H 326.66 2.19127 2.04752 0
M  V30 3336 H 324.213 1.16731 1.0394 0
M  V30 3337 H 324.948 -0.0865776 3.24184 0
M  V30 3338 H 324.733 1.66052 3.55203 0
M  V30 3339 H 326.223 0.830871 4.09251 0
M  V30 3340 N 326.66 -1.06551 1.16123 0
M  V30 3341 C 327.888 -1.83005 0.965237 0
M  V30 3342 C 328.303 -1.82423 -0.486542 0
M  V30 3343 O 327.66 -1.24152 -1.33763 0
M  V30 3344 C 327.711 -3.29733 1.48183 0
M  V30 3345 O 327.432 -3.30416 2.87674 0
M  V30 3346 C 328.933 -4.22926 1.32848 0
M  V30 3347 H 326.153 -0.577118 0.342309 0
M  V30 3348 H 328.697 -1.3445 1.54089 0
M  V30 3349 H 326.852 -3.75609 0.948517 0
M  V30 3350 H 327.266 -4.22149 3.11272 0
M  V30 3351 H 328.74 -5.23916 1.73827 0
M  V30 3352 H 329.217 -4.38346 0.273692 0
M  V30 3353 H 329.823 -3.82894 1.85127 0
M  V30 3354 N 328.138 -0.959301 -1.25041 0
M  V30 3355 C 329.366 -0.633949 -1.96948 0
M  V30 3356 C 329.781 0.794916 -1.7125 0
M  V30 3357 O 329.138 1.53231 -0.991287 0
M  V30 3358 C 329.189 -0.888805 -3.50403 0
M  V30 3359 O 328.91 -2.26149 -3.75218 0
M  V30 3360 C 330.411 -0.576482 -4.39536 0
M  V30 3361 H 327.631 -0.237263 -0.627652 0
M  V30 3362 H 330.175 -1.28495 -1.59089 0
M  V30 3363 H 328.33 -0.284145 -3.86357 0
M  V30 3364 H 328.744 -2.33514 -4.6965 0
M  V30 3365 H 330.218 -0.805314 -5.46094 0
M  V30 3366 H 330.695 0.489075 -4.36468 0
M  V30 3367 H 331.301 -1.16067 -4.09156 0
M  V30 3368 N 329.616 1.39756 -0.72842 0
M  V30 3369 C 330.546 2.33289 -0.0991354 0
M  V30 3370 C 331.527 1.53568 0.731489 0
M  V30 3371 O 332.712 1.81987 0.677807 0
M  V30 3372 C 329.842 3.3763 0.813834 0
M  V30 3373 C 328.796 4.2791 0.0878663 0
M  V30 3374 C 328.122 5.22894 1.11741 0
M  V30 3375 C 329.422 5.11314 -1.06563 0
M  V30 3376 H 331.116 2.86163 -0.880408 0
M  V30 3377 H 328.662 1.37591 -0.424819 0
M  V30 3378 H 330.615 4.0201 1.26355 0
M  V30 3379 H 329.339 2.83181 1.62715 0
M  V30 3380 H 327.998 3.65 -0.342159 0
M  V30 3381 H 327.646 4.64744 1.92412 0
M  V30 3382 H 327.346 5.84143 0.636477 0
M  V30 3383 H 328.87 5.90151 1.56697 0
M  V30 3384 H 330.284 5.69076 -0.694671 0
M  V30 3385 H 328.681 5.81671 -1.47577 0
M  V30 3386 H 329.751 4.46534 -1.89038 0
M  V30 3387 N 331.094 0.475555 1.50254 0
M  V30 3388 C 332.027 -0.362381 2.25304 0
M  V30 3389 C 333.005 -0.992393 1.28803 0
M  V30 3390 O 334.189 -1.02746 1.58036 0
M  V30 3391 C 331.316 -1.50813 3.03271 0
M  V30 3392 C 330.362 -0.995044 4.1473 0
M  V30 3393 S 331.195 0.0938436 5.35418 0
M  V30 3394 C 332.351 -1.05567 6.16933 0
M  V30 3395 H 332.584 0.274686 2.96028 0
M  V30 3396 H 330.117 0.260495 1.52187 0
M  V30 3397 H 332.075 -2.16476 3.48781 0
M  V30 3398 H 330.736 -2.11672 2.32064 0
M  V30 3399 H 329.929 -1.85293 4.68703 0
M  V30 3400 H 329.531 -0.416052 3.71679 0
M  V30 3401 H 331.823 -1.96636 6.48337 0
M  V30 3402 H 332.766 -0.555109 7.05921 0
M  V30 3403 H 333.174 -1.31151 5.49053 0
M  V30 3404 N 332.573 -1.56217 0.208337 0
M  V30 3405 C 333.798 -2.02782 -0.435222 0
M  V30 3406 C 334.223 -1.08738 -1.53485 0
M  V30 3407 O 333.581 -0.0731855 -1.81152 0
M  V30 3408 C 333.629 -3.47687 -0.956335 0
M  V30 3409 O 332.733 -3.56773 -2.06849 0
M  V30 3410 H 332.074 -0.656403 -0.100158 0
M  V30 3411 H 334.604 -2.02033 0.3231 0
M  V30 3412 H 334.614 -3.87745 -1.26955 0
M  V30 3413 H 333.289 -4.15624 -0.15143 0
M  V30 3414 H 331.866 -3.28597 -1.76292 0
M  V30 3415 N 334.051 0.0651679 -1.57465 0
M  V30 3416 C 335.279 0.775808 -1.91804 0
M  V30 3417 C 335.694 1.70782 -0.804916 0
M  V30 3418 O 335.051 1.81153 0.221311 0
M  V30 3419 C 335.102 1.56381 -3.25925 0
M  V30 3420 O 334.823 0.669248 -4.32958 0
M  V30 3421 C 336.324 2.37485 -3.7432 0
M  V30 3422 H 333.544 0.2202 -0.63384 0
M  V30 3423 H 336.088 0.0334587 -2.04473 0
M  V30 3424 H 334.243 2.25837 -3.14764 0
M  V30 3425 H 334.657 1.21801 -5.10162 0
M  V30 3426 H 336.131 2.88223 -4.70778 0
M  V30 3427 H 336.608 3.17307 -3.03666 0
M  V30 3428 H 337.214 1.73173 -3.88447 0
M  V30 3429 N 335.529 1.53961 0.336706 0
M  V30 3430 C 336.754 1.75797 1.10046 0
M  V30 3431 C 337.179 0.498985 1.81361 0
M  V30 3432 O 336.537 -0.548769 1.72795 0
M  V30 3433 C 336.585 2.94257 2.08436 0
M  V30 3434 O 335.689 2.64883 3.16087 0
M  V30 3435 H 335.03 0.582936 0.317934 0
M  V30 3436 H 337.56 2.00945 0.38501 0
M  V30 3437 H 337.57 3.21237 2.51537 0
M  V30 3438 H 336.245 3.85564 1.55927 0
M  V30 3439 H 334.822 2.48812 2.77753 0
M  V30 3440 N 337.007 -0.598083 1.45811 0
M  V30 3441 C 337.97 -1.69018 1.54808 0
M  V30 3442 C 338.97 -1.55037 0.426652 0
M  V30 3443 O 340.16 -1.59932 0.690456 0
M  V30 3444 C 337.292 -3.0835 1.45371 0
M  V30 3445 H 338.485 -1.62403 2.52121 0
M  V30 3446 H 336.038 -0.814626 1.33392 0
M  V30 3447 H 336.773 -3.20534 0.492793 0
M  V30 3448 H 336.558 -3.19907 2.26721 0
M  V30 3449 H 338.048 -3.8788 1.54721 0
M  V30 3450 N 338.485 -1.33259 -0.841409 0
M  V30 3451 C 339.713 -1.27605 -1.62864 0
M  V30 3452 C 340.128 0.153507 -1.88175 0
M  V30 3453 O 339.485 1.09485 -1.46011 0
M  V30 3454 C 339.536 -2.04596 -2.98031 0
M  V30 3455 O 339.257 -3.41975 -2.73834 0
M  V30 3456 C 340.758 -2.06122 -3.92465 0
M  V30 3457 H 337.978 -0.439718 -0.506842 0
M  V30 3458 H 340.522 -1.75591 -1.04824 0
M  V30 3459 H 338.677 -1.60299 -3.5268 0
M  V30 3460 H 339.091 -3.81549 -3.59889 0
M  V30 3461 H 340.565 -2.64451 -4.84531 0
M  V30 3462 H 341.042 -1.05083 -4.26444 0
M  V30 3463 H 341.648 -2.50427 -3.43753 0
M  V30 3464 N 339.963 1.05934 -1.16686 0
M  V30 3465 C 340.926 2.11669 -0.879144 0
M  V30 3466 C 341.926 1.60294 0.127445 0
M  V30 3467 O 343.116 1.7389 -0.103865 0
M  V30 3468 C 340.248 3.39438 -0.315425 0
M  V30 3469 H 341.441 2.38626 -1.81653 0
M  V30 3470 H 338.994 1.22058 -0.976299 0
M  V30 3471 H 339.729 3.18132 0.629468 0
M  V30 3472 H 339.514 3.78034 -1.04079 0
M  V30 3473 H 341.004 4.17391 -0.132189 0
M  V30 3474 N 341.441 0.965919 1.2453 0
M  V30 3475 C 342.669 0.644385 1.96609 0
M  V30 3476 C 343.084 -0.785823 1.71669 0
M  V30 3477 O 342.441 -1.52703 0.999399 0
M  V30 3478 C 342.492 0.907375 3.49927 0
M  V30 3479 O 342.213 2.28136 3.74013 0
M  V30 3480 C 343.714 0.599784 4.39224 0
M  V30 3481 H 340.934 0.240588 0.626385 0
M  V30 3482 H 343.478 1.29337 1.58405 0
M  V30 3483 H 341.633 0.304631 3.862 0
M  V30 3484 H 342.047 2.36002 4.68405 0
M  V30 3485 H 343.521 0.834263 5.45659 0
M  V30 3486 H 343.998 -0.465921 4.36722 0
M  V30 3487 H 344.604 1.18235 4.08535 0
M  V30 3488 N 342.919 -1.39368 0.735821 0
M  V30 3489 C 343.829 -2.34395 0.0979693 0
M  V30 3490 C 344.845 -1.58361 -0.720968 0
M  V30 3491 O 346.021 -1.90648 -0.649245 0
M  V30 3492 C 343.086 -3.37393 -0.797916 0
M  V30 3493 C 342.147 -4.29287 0.0333662 0
M  V30 3494 C 341.38 -5.27365 -0.819854 0
M  V30 3495 O 341.603 -5.31959 -2.05855 0
M  V30 3496 O 340.537 -6.01389 -0.248079 0
M  V30 3497 H 344.363 -2.90601 0.882315 0
M  V30 3498 H 341.948 -1.40909 0.4965 0
M  V30 3499 H 343.83 -4.00505 -1.31048 0
M  V30 3500 H 342.505 -2.83571 -1.56106 0
M  V30 3501 H 341.412 -3.69395 0.591475 0
M  V30 3502 H 342.745 -4.86317 0.758752 0
M  V30 3503 N 344.397 -0.483516 -1.5 0
M  V30 3504 C 345.625 0.0644831 -2.06799 0
M  V30 3505 C 346.04 1.32399 -1.34596 0
M  V30 3506 O 345.397 1.77626 -0.418946 0
M  V30 3507 C 345.448 0.339927 -3.59898 0
M  V30 3508 O 345.169 -0.869635 -4.29382 0
M  V30 3509 C 346.67 0.933515 -4.33359 0
M  V30 3510 H 343.89 -0.0126333 -0.670881 0
M  V30 3511 H 346.434 -0.675864 -1.93009 0
M  V30 3512 H 344.589 1.03022 -3.7345 0
M  V30 3513 H 345.003 -0.62179 -5.20801 0
M  V30 3514 H 346.477 1.07593 -5.41413 0
M  V30 3515 H 346.954 1.92685 -3.94676 0
M  V30 3516 H 347.56 0.281221 -4.24369 0
M  V30 3517 N 345.875 1.56104 -0.216619 0
M  V30 3518 C 346.838 2.18819 0.681962 0
M  V30 3519 C 347.838 1.14866 1.12528 0
M  V30 3520 O 349.028 1.40128 1.03488 0
M  V30 3521 C 346.16 2.80756 1.93362 0
M  V30 3522 H 347.353 2.99595 0.135254 0
M  V30 3523 H 344.906 1.56265 0.0330003 0
M  V30 3524 H 345.641 2.03837 2.52232 0
M  V30 3525 H 345.426 3.56876 1.62426 0
M  V30 3526 H 346.916 3.28844 2.57393 0
M  V30 3527 N 347.353 -0.0568162 1.57498 0
M  V30 3528 C 348.581 -0.765626 1.92213 0
M  V30 3529 C 348.996 -1.70353 0.813961 0
M  V30 3530 O 348.353 -1.81268 -0.211701 0
M  V30 3531 C 348.404 -1.5465 3.2675 0
M  V30 3532 O 348.125 -0.646278 4.33307 0
M  V30 3533 C 349.626 -2.35497 3.75574 0
M  V30 3534 H 346.846 -0.216835 0.634999 0
M  V30 3535 H 349.39 -0.0226146 2.04487 0
M  V30 3536 H 347.545 -2.24165 3.15957 0
M  V30 3537 H 347.959 -1.19093 5.108 0
M  V30 3538 H 349.433 -2.85722 4.72299 0
M  V30 3539 H 349.91 -3.15692 3.05344 0
M  V30 3540 H 350.516 -1.7111 3.8936 0
M  V30 3541 N 348.832 -1.54138 -0.328536 0
M  V30 3542 C 349.779 -1.83176 -1.40411 0
M  V30 3543 C 350.749 -0.678494 -1.5161 0
M  V30 3544 O 351.934 -0.92443 -1.6691 0
M  V30 3545 C 349.074 -2.06035 -2.76846 0
M  V30 3546 C 348.187 -3.33727 -2.74318 0
M  V30 3547 C 347.322 -3.46574 -4.02567 0
M  V30 3548 C 346.361 -4.68159 -3.94327 0
M  V30 3549 N 345.498 -4.77959 -5.14296 0
M  V30 3550 H 350.338 -2.74938 -1.14948 0
M  V30 3551 H 347.875 -1.36166 -0.556538 0
M  V30 3552 H 349.833 -2.1728 -3.56153 0
M  V30 3553 H 348.463 -1.1757 -3.00628 0
M  V30 3554 H 347.515 -3.31246 -1.8703 0
M  V30 3555 H 348.827 -4.23139 -2.64111 0
M  V30 3556 H 347.981 -3.57333 -4.90304 0
M  V30 3557 H 346.72 -2.55245 -4.15574 0
M  V30 3558 H 345.725 -4.57461 -3.04974 0
M  V30 3559 H 346.95 -5.60868 -3.82889 0
M  V30 3560 H 344.896 -3.89544 -5.27818 0
M  V30 3561 H 344.813 -5.6133 -5.06404 0
M  V30 3562 H 346.081 -4.93044 -6.03761 0
M  V30 3563 N 350.31 0.590341 -1.46126 0
M  V30 3564 C 351.726 0.912917 -1.30912 0
M  V30 3565 C 351.926 1.99616 -0.274893 0
M  V30 3566 O 350.982 2.50397 0.325197 0
M  V30 3567 C 352.295 1.3375 -2.69317 0
M  V30 3568 C 353.843 1.45077 -2.77348 0
M  V30 3569 C 354.318 1.90904 -4.16317 0
M  V30 3570 N 355.809 1.9811 -4.18696 0
M  V30 3571 C 356.544 2.34828 -5.23109 0
M  V30 3572 N 356.04 2.70393 -6.37856 0
M  V30 3573 N 357.833 2.35317 -5.10473 0
M  V30 3574 H 349.984 -0.125358 -2.1203 0
M  V30 3575 H 352.247 0.00658481 -0.947977 0
M  V30 3576 H 351.953 0.615614 -3.4627 0
M  V30 3577 H 351.827 2.30058 -2.9892 0
M  V30 3578 H 354.214 2.16353 -2.00687 0
M  V30 3579 H 354.295 0.4704 -2.51438 0
M  V30 3580 H 353.939 1.20209 -4.9347 0
M  V30 3581 H 353.869 2.89886 -4.39629 0
M  V30 3582 H 356.36 1.73146 -3.359 0
M  V30 3583 H 356.673 2.97341 -7.13308 0
M  V30 3584 H 355.018 2.68048 -6.41229 0
M  V30 3585 H 358.209 2.0695 -4.19868 0
M  V30 3586 H 358.382 2.63605 -5.9196 0
M  V30 3587 N 351.788 1.33704 0.83433 0
M  V30 3588 C 352.72 1.20172 1.9517 0
M  V30 3589 C 353.733 0.131572 1.62267 0
M  V30 3590 O 354.922 0.382406 1.74356 0
M  V30 3591 C 352.022 0.821716 3.28787 0
M  V30 3592 C 351.195 1.98446 3.89792 0
M  V30 3593 C 350.254 1.58469 5.01771 0
M  V30 3594 O 349.28 2.29968 5.20676 0
M  V30 3595 N 350.482 0.492291 5.78409 0
M  V30 3596 H 353.247 2.16429 2.07313 0
M  V30 3597 H 350.808 1.26509 1.0103 0
M  V30 3598 H 352.8 0.536291 4.01131 0
M  V30 3599 H 351.37 -0.0503058 3.1256 0
M  V30 3600 H 350.59 2.43526 3.09982 0
M  V30 3601 H 351.878 2.76236 4.27283 0
M  V30 3602 H 351.276 -0.102349 5.65607 0
M  V30 3603 H 349.833 0.266555 6.51255 0
M  V30 3604 N 353.266 -1.05314 1.17247 0
M  V30 3605 C 354.176 -2.16538 0.90268 0
M  V30 3606 C 355.192 -1.73523 -0.128707 0
M  V30 3607 O 356.368 -2.01337 0.0502701 0
M  V30 3608 C 353.433 -3.44167 0.418356 0
M  V30 3609 C 352.494 -4.01635 1.51618 0
M  V30 3610 C 351.727 -5.23171 1.05487 0
M  V30 3611 O 351.95 -5.70327 -0.0914715 0
M  V30 3612 O 350.884 -5.72848 1.8474 0
M  V30 3613 H 354.71 -2.42145 1.83302 0
M  V30 3614 H 352.295 -1.15037 0.953246 0
M  V30 3615 H 354.177 -4.21112 0.155726 0
M  V30 3616 H 352.852 -3.20063 -0.48385 0
M  V30 3617 H 351.759 -3.26135 1.83268 0
M  V30 3618 H 353.092 -4.30053 2.39405 0
M  V30 3619 N 354.744 -0.972509 -1.24016 0
M  V30 3620 C 355.972 -0.654803 -1.96265 0
M  V30 3621 C 356.387 0.776708 -1.72083 0
M  V30 3622 O 355.744 1.52171 -1.00748 0
M  V30 3623 C 355.795 -0.92592 -3.49441 0
M  V30 3624 O 355.516 -2.30116 -3.72798 0
M  V30 3625 C 357.017 -0.623068 -4.38899 0
M  V30 3626 H 354.237 -0.243907 -0.6251 0
M  V30 3627 H 356.781 -1.30175 -1.57717 0
M  V30 3628 H 354.936 -0.325108 -3.86033 0
M  V30 3629 H 355.35 -2.38483 -4.67147 0
M  V30 3630 H 356.824 -0.863189 -5.45209 0
M  V30 3631 H 357.301 0.442754 -4.36963 0
M  V30 3632 H 357.907 -1.204 -4.07902 0
M  V30 3633 N 356.222 1.38976 -0.743202 0
M  V30 3634 C 357.468 2.01114 -0.304109 0
M  V30 3635 C 357.823 1.57929 1.09892 0
M  V30 3636 O 357.116 0.801983 1.74008 0
M  V30 3637 C 357.31 3.55647 -0.353517 0
M  V30 3638 C 357.139 4.13837 -1.75981 0
M  V30 3639 C 355.909 4.46062 -2.37395 0
M  V30 3640 C 358.107 4.36812 -2.71477 0
M  V30 3641 N 356.089 4.898 -3.70093 0
M  V30 3642 C 357.46 4.82844 -3.88923 0
M  V30 3643 C 359.515 4.18893 -2.69134 0
M  V30 3644 C 358.218 5.12837 -5.04371 0
M  V30 3645 C 360.244 4.50005 -3.83731 0
M  V30 3646 C 359.606 4.96251 -4.99914 0
M  V30 3647 H 355.705 0.765931 -0.157716 0
M  V30 3648 H 358.289 1.68763 -0.970931 0
M  V30 3649 H 356.46 3.87368 0.282987 0
M  V30 3650 H 358.192 4.04564 0.104904 0
M  V30 3651 H 354.947 4.34145 -1.89248 0
M  V30 3652 H 355.371 5.16016 -4.38242 0
M  V30 3653 H 360.013 3.82335 -1.80499 0
M  V30 3654 H 357.731 5.48297 -5.9363 0
M  V30 3655 H 361.317 4.37755 -3.83225 0
M  V30 3656 H 360.197 5.19867 -5.87118 0
M  V30 3657 N 357.7 0.491464 1.49741 0
M  V30 3658 C 358.977 -0.118984 1.95238 0
M  V30 3659 C 359.357 -1.55044 1.43264 0
M  V30 3660 O 358.705 -2.19287 0.642287 0
M  V30 3661 C 358.915 -0.0414187 3.48975 0
M  V30 3662 C 360.263 -0.220133 4.24029 0
M  V30 3663 O 361.287 -0.117055 3.56008 0
M  V30 3664 O 360.146 -0.430567 5.44801 0
M  V30 3665 H 357.24 -0.100536 0.820866 0
M  V30 3666 H 359.786 0.553322 1.60426 0
M  V30 3667 H 358.558 0.957214 3.79412 0
M  V30 3668 H 358.181 -0.754292 3.9038 0
M  V30 3669 N 359.178 -1.55987 0.224894 0
M  V30 3670 C 360.424 -1.99433 -0.39973 0
M  V30 3671 C 360.779 -1.11004 -1.57149 0
M  V30 3672 O 360.072 -0.160725 -1.90925 0
M  V30 3673 C 360.266 -3.46394 -0.880106 0
M  V30 3674 C 360.095 -4.4904 0.243565 0
M  V30 3675 C 358.865 -5.00272 0.711056 0
M  V30 3676 C 361.063 -5.03195 1.06299 0
M  V30 3677 N 359.045 -5.86628 1.80944 0
M  V30 3678 C 360.416 -5.86508 2.01017 0
M  V30 3679 C 362.471 -4.8555 1.10205 0
M  V30 3680 C 361.174 -6.54062 2.99324 0
M  V30 3681 C 363.2 -5.53866 2.07332 0
M  V30 3682 C 362.562 -6.3695 3.00789 0
M  V30 3683 H 358.661 -0.773815 -0.112847 0
M  V30 3684 H 361.245 -1.91754 0.337432 0
M  V30 3685 H 359.416 -3.54515 -1.58662 0
M  V30 3686 H 361.148 -3.76752 -1.47783 0
M  V30 3687 H 357.903 -4.72655 0.29906 0
M  V30 3688 H 358.327 -6.34507 2.36073 0
M  V30 3689 H 362.969 -4.20966 0.39343 0
M  V30 3690 H 360.687 -7.17827 3.71147 0
M  V30 3691 H 364.273 -5.42178 2.11032 0
M  V30 3692 H 363.153 -6.8888 3.74718 0
M  V30 3693 N 360.656 0.0484629 -1.57525 0
M  V30 3694 C 361.903 0.743125 -1.88372 0
M  V30 3695 C 362.231 1.76383 -0.819715 0
M  V30 3696 O 361.486 1.94855 0.181659 0
M  V30 3697 C 361.785 1.46632 -3.25935 0
M  V30 3698 C 361.451 0.583427 -4.4711 0
M  V30 3699 C 360.113 0.340191 -4.79996 0
M  V30 3700 C 362.465 -0.0273345 -5.21193 0
M  V30 3701 C 359.793 -0.522903 -5.84365 0
M  V30 3702 C 362.145 -0.878017 -6.26477 0
M  V30 3703 C 360.809 -1.1309 -6.5785 0
M  V30 3704 H 360.079 0.271929 -0.689301 0
M  V30 3705 H 362.726 0.00336166 -1.915 0
M  V30 3706 H 361.031 2.2789 -3.18706 0
M  V30 3707 H 362.728 2.00902 -3.47044 0
M  V30 3708 H 359.318 0.783151 -4.21384 0
M  V30 3709 H 363.502 0.147654 -4.9608 0
M  V30 3710 H 358.758 -0.727335 -6.07058 0
M  V30 3711 H 362.932 -1.35789 -6.83033 0
M  V30 3712 H 360.559 -1.80144 -7.38547 0
M  V30 3713 N 362.134 1.5431 0.320358 0
M  V30 3714 C 363.359 1.76954 1.08175 0
M  V30 3715 C 363.784 0.518193 1.80821 0
M  V30 3716 O 363.142 -0.530411 1.73368 0
M  V30 3717 C 363.19 2.96451 2.05303 0
M  V30 3718 O 362.294 2.68221 3.13259 0
M  V30 3719 H 361.635 0.586275 0.311733 0
M  V30 3720 H 364.165 2.01342 0.363676 0
M  V30 3721 H 364.175 3.23887 2.48116 0
M  V30 3722 H 362.85 3.87196 1.51829 0
M  V30 3723 H 361.427 2.51744 2.75099 0
M  V30 3724 N 363.613 -0.582584 1.46437 0
M  V30 3725 C 364.859 -1.34064 1.52965 0
M  V30 3726 C 365.214 -1.91566 0.178968 0
M  V30 3727 O 364.507 -1.73526 -0.812365 0
M  V30 3728 C 364.701 -2.48964 2.56421 0
M  V30 3729 C 364.53 -2.02717 4.01417 0
M  V30 3730 C 363.3 -1.87728 4.69134 0
M  V30 3731 C 365.498 -1.58675 4.8921 0
M  V30 3732 N 363.48 -1.35554 5.98747 0
M  V30 3733 C 364.851 -1.18093 6.08649 0
M  V30 3734 C 366.906 -1.46494 4.75861 0
M  V30 3735 C 365.609 -0.665427 7.16215 0
M  V30 3736 C 367.635 -0.96347 5.83499 0
M  V30 3737 C 366.997 -0.567432 7.02111 0
M  V30 3738 H 363.096 -0.483551 0.614575 0
M  V30 3739 H 365.68 -0.663309 1.83053 0
M  V30 3740 H 363.851 -3.1426 2.28244 0
M  V30 3741 H 365.583 -3.15913 2.52944 0
M  V30 3742 H 362.338 -2.09678 4.24655 0
M  V30 3743 H 362.762 -1.11628 6.67734 0
M  V30 3744 H 367.404 -1.75731 3.8455 0
M  V30 3745 H 365.122 -0.360639 8.07295 0
M  V30 3746 H 368.708 -0.873129 5.75211 0
M  V30 3747 H 367.588 -0.185389 7.83981 0
M  V30 3748 N 365.091 -1.34144 -0.827227 0
M  V30 3749 C 366.021 -1.28005 -1.95287 0
M  V30 3750 C 367.002 -0.158321 -1.69362 0
M  V30 3751 O 368.187 -0.349987 -1.9102 0
M  V30 3752 C 365.317 -1.03036 -3.31664 0
M  V30 3753 C 364.271 -2.11628 -3.72019 0
M  V30 3754 C 363.597 -1.71854 -5.0633 0
M  V30 3755 C 364.897 -3.53417 -3.8457 0
M  V30 3756 H 366.591 -2.22187 -2.00682 0
M  V30 3757 H 364.137 -1.0696 -0.964135 0
M  V30 3758 H 366.09 -0.973863 -4.09993 0
M  V30 3759 H 364.814 -0.0529391 -3.26557 0
M  V30 3760 H 363.473 -2.16339 -2.95961 0
M  V30 3761 H 363.121 -0.727841 -4.97706 0
M  V30 3762 H 362.821 -2.44531 -5.34302 0
M  V30 3763 H 364.345 -1.67692 -5.87122 0
M  V30 3764 H 365.759 -3.51142 -4.5318 0
M  V30 3765 H 364.156 -4.24679 -4.2399 0
M  V30 3766 H 365.226 -3.91072 -2.86689 0
M  V30 3767 N 366.569 1.04691 -1.17803 0
M  V30 3768 C 367.816 1.77782 -0.969532 0
M  V30 3769 C 368.144 1.87926 0.501401 0
M  V30 3770 O 367.399 1.37918 1.38842 0
M  V30 3771 C 367.698 3.21467 -1.56186 0
M  V30 3772 C 367.364 3.3137 -3.05786 0
M  V30 3773 C 366.026 3.3378 -3.46619 0
M  V30 3774 C 368.378 3.31976 -4.01797 0
M  V30 3775 C 365.706 3.34431 -4.82051 0
M  V30 3776 C 368.058 3.34167 -5.37136 0
M  V30 3777 C 366.722 3.34866 -5.77426 0
M  V30 3778 H 365.992 0.650549 -0.354777 0
M  V30 3779 H 368.639 1.23006 -1.46772 0
M  V30 3780 H 366.944 3.79203 -0.985515 0
M  V30 3781 H 368.641 3.76652 -1.37602 0
M  V30 3782 H 365.231 3.3021 -2.73238 0
M  V30 3783 H 369.415 3.29311 -3.71306 0
M  V30 3784 H 364.671 3.33285 -5.12573 0
M  V30 3785 H 368.845 3.33585 -6.11305 0
M  V30 3786 H 366.472 3.35124 -6.82346 0
M  V30 3787 N 368.047 0.979072 1.23499 0
M  V30 3788 C 368.977 0.537606 2.27227 0
M  V30 3789 C 369.958 -0.428539 1.64613 0
M  V30 3790 O 371.143 -0.322191 1.91509 0
M  V30 3791 C 368.273 -0.162052 3.46922 0
M  V30 3792 C 367.227 0.721242 4.21879 0
M  V30 3793 C 366.553 -0.110555 5.34586 0
M  V30 3794 C 367.853 2.01141 4.82016 0
M  V30 3795 H 369.547 1.40462 2.64406 0
M  V30 3796 H 367.093 0.67684 1.27102 0
M  V30 3797 H 369.046 -0.482192 4.18632 0
M  V30 3798 H 367.77 -1.06351 3.08799 0
M  V30 3799 H 366.429 1.02482 3.51984 0
M  V30 3800 H 366.077 -1.0125 4.92704 0
M  V30 3801 H 365.777 0.477325 5.85658 0
M  V30 3802 H 367.301 -0.425107 6.09118 0
M  V30 3803 H 368.715 1.75612 5.45741 0
M  V30 3804 H 367.112 2.54695 5.43369 0
M  V30 3805 H 368.182 2.69909 4.02836 0
M  V30 3806 N 369.525 -1.3858 0.750561 0
M  V30 3807 C 370.936 -1.82927 0.373438 0
M  V30 3808 C 371.287 -1.62634 -1.09748 0
M  V30 3809 O 370.412 -1.12588 -1.84805 0
M  V30 3810 C 371.007 -3.32088 0.671029 0
M  V30 3811 C 369.566 -3.74795 0.34722 0
M  V30 3812 C 368.713 -2.61391 0.92575 0
M  V30 3813 H 371.664 -1.27351 0.946958 0
M  V30 3814 H 371.685 -3.80465 -0.0518269 0
M  V30 3815 H 371.197 -3.46826 1.74164 0
M  V30 3816 H 369.298 -3.65638 -0.716933 0
M  V30 3817 H 369.411 -4.71667 0.840656 0
M  V30 3818 H 367.775 -2.52265 0.351327 0
M  V30 3819 H 368.558 -2.78929 2.00133 0
M  V30 3820 N 371.003 -0.499398 -1.49478 0
M  V30 3821 C 372.228 0.044722 -2.07352 0
M  V30 3822 C 372.653 1.30207 -1.35749 0
M  V30 3823 O 372.011 1.76516 -0.413732 0
M  V30 3824 C 372.059 0.283013 -3.59488 0
M  V30 3825 O 371.163 1.35804 -3.89398 0
M  V30 3826 H 370.504 -0.0255147 -0.66351 0
M  V30 3827 H 373.034 -0.698561 -1.92305 0
M  V30 3828 H 373.044 0.515007 -4.04737 0
M  V30 3829 H 371.719 -0.635636 -4.11014 0
M  V30 3830 H 370.296 1.11113 -3.55961 0
M  V30 3831 N 372.481 1.55866 -0.233164 0
M  V30 3832 C 373.391 2.24431 0.683217 0
M  V30 3833 C 374.407 1.2558 1.2044 0
M  V30 3834 O 375.583 1.58422 1.24356 0
M  V30 3835 C 372.648 2.91979 1.86947 0
M  V30 3836 C 371.709 4.06204 1.38912 0
M  V30 3837 C 370.942 4.70522 2.51883 0
M  V30 3838 O 371.165 4.33865 3.70293 0
M  V30 3839 O 370.099 5.59296 2.22423 0
M  V30 3840 H 373.925 3.03426 0.129059 0
M  V30 3841 H 371.51 1.494 -0.0022283 0
M  V30 3842 H 373.392 3.34573 2.56201 0
M  V30 3843 H 372.067 2.15935 2.41151 0
M  V30 3844 H 370.974 3.68155 0.664259 0
M  V30 3845 H 372.307 4.84025 0.893328 0
M  V30 3846 N 373.959 -0.0401083 1.57549 0
M  V30 3847 C 375.184 -0.748931 1.93406 0
M  V30 3848 C 375.609 -1.68686 0.832274 0
M  V30 3849 O 374.967 -1.80047 -0.212818 0
M  V30 3850 C 375.015 -1.4916 3.28304 0
M  V30 3851 O 374.119 -2.6042 3.19774 0
M  V30 3852 H 373.46 -0.202212 0.63246 0
M  V30 3853 H 375.99 0.00112086 2.046 0
M  V30 3854 H 376 -1.86395 3.62934 0
M  V30 3855 H 374.675 -0.80364 4.08062 0
M  V30 3856 H 373.252 -2.25808 2.96758 0
M  V30 3857 N 375.437 -1.54477 -0.31217 0
M  V30 3858 C 376.384 -1.84655 -1.38461 0
M  V30 3859 C 377.354 -0.694536 -1.50882 0
M  V30 3860 O 378.539 -0.942081 -1.6592 0
M  V30 3861 C 375.679 -2.0896 -2.74645 0
M  V30 3862 C 374.792 -3.36618 -2.70763 0
M  V30 3863 C 373.927 -3.50824 -3.98868 0
M  V30 3864 C 372.966 -4.72315 -3.89339 0
M  V30 3865 N 372.103 -4.83387 -5.09197 0
M  V30 3866 H 376.943 -2.76142 -1.12026 0
M  V30 3867 H 374.48 -1.36748 -0.542065 0
M  V30 3868 H 376.438 -2.21045 -3.53829 0
M  V30 3869 H 375.068 -1.20752 -2.99364 0
M  V30 3870 H 374.12 -3.33211 -1.83506 0
M  V30 3871 H 375.432 -4.25917 -2.59608 0
M  V30 3872 H 374.586 -3.62513 -4.86486 0
M  V30 3873 H 373.325 -2.59638 -4.12843 0
M  V30 3874 H 372.33 -4.6067 -3.00105 0
M  V30 3875 H 373.555 -5.64897 -3.76919 0
M  V30 3876 H 371.501 -3.9512 -5.23657 0
M  V30 3877 H 371.418 -5.66669 -5.00422 0
M  V30 3878 H 372.686 -4.9942 -5.98498 0
M  V30 3879 N 376.915 0.57481 -1.46744 0
M  V30 3880 C 377.863 1.70435 -1.58286 0
M  V30 3881 C 378.857 1.63287 -0.450956 0
M  V30 3882 O 380.063 1.68685 -0.628121 0
M  V30 3883 H 376.438 0.56364 -0.497809 0
M  V30 3884 H 378.409 1.57833 -2.53242 0
M  V30 3885 C 377.158 3.08815 -1.59776 0
M  V30 3886 H 376.481 3.1499 -2.46214 0
M  V30 3887 H 377.921 3.87588 -1.71905 0
M  V30 3888 C 376.38 3.35301 -0.327812 0
M  V30 3889 O 376.91 3.97511 0.57861 0
M  V30 3890 N 375.116 2.89816 -0.213274 0
M  V30 3891 H 374.663 2.39371 -0.951798 0
M  V30 3892 H 374.621 3.0791 0.63553 0
M  V30 3893 N 378.394 1.34581 0.820102 0
M  V30 3894 C 379.344 1.22943 1.92013 0
M  V30 3895 C 380.328 0.127802 1.60392 0
M  V30 3896 O 381.52 0.357737 1.73347 0
M  V30 3897 C 378.649 0.989938 3.28717 0
M  V30 3898 C 377.735 2.13486 3.66449 0
M  V30 3899 N 378.126 3.38625 3.75722 0
M  V30 3900 C 376.424 2.04573 3.96315 0
M  V30 3901 C 377.125 4.13832 4.08801 0
M  V30 3902 N 376.101 3.42451 4.22171 0
M  V30 3903 H 379.903 2.17771 1.97365 0
M  V30 3904 H 377.417 1.2686 1.01392 0
M  V30 3905 H 379.414 0.887462 4.07345 0
M  V30 3906 H 378.074 0.0503691 3.24661 0
M  V30 3907 H 379.085 3.73143 3.59144 0
M  V30 3908 H 375.762 1.1839 4.00362 0
M  V30 3909 H 377.152 5.21909 4.23156 0
M  V30 3910 N 379.872 -1.04064 1.18357 0
M  V30 3911 C 380.802 -2.14001 0.934113 0
M  V30 3912 C 381.783 -1.69616 -0.128186 0
M  V30 3913 O 382.968 -1.94185 0.0244093 0
M  V30 3914 C 380.098 -3.44253 0.459066 0
M  V30 3915 C 379.052 -4.02261 1.46185 0
M  V30 3916 C 378.378 -5.27992 0.844322 0
M  V30 3917 C 379.678 -4.38432 2.83856 0
M  V30 3918 H 381.372 -2.35127 1.85352 0
M  V30 3919 H 378.918 -1.12998 0.892604 0
M  V30 3920 H 380.871 -4.20522 0.271907 0
M  V30 3921 H 379.595 -3.22813 -0.495912 0
M  V30 3922 H 378.254 -3.28074 1.63595 0
M  V30 3923 H 377.902 -5.02862 -0.117845 0
M  V30 3924 H 377.602 -5.67765 1.51384 0
M  V30 3925 H 379.126 -6.06938 0.667693 0
M  V30 3926 H 380.54 -5.05688 2.70098 0
M  V30 3927 H 378.937 -4.89254 3.47491 0
M  V30 3928 H 380.007 -3.4826 3.37406 0
M  V30 3929 N 381.35 -0.985608 -1.22978 0
M  V30 3930 C 382.3 -0.50118 -2.22423 0
M  V30 3931 C 383.284 0.426649 -1.5514 0
M  V30 3932 O 384.476 0.254656 -1.75159 0
M  V30 3933 C 381.605 0.190003 -3.42774 0
M  V30 3934 C 380.691 -0.757703 -4.17276 0
M  V30 3935 N 381.082 -1.90251 -4.68656 0
M  V30 3936 C 379.38 -0.57209 -4.42316 0
M  V30 3937 C 380.081 -2.49676 -5.25392 0
M  V30 3938 N 379.057 -1.78013 -5.13627 0
M  V30 3939 H 382.859 -1.37441 -2.59783 0
M  V30 3940 H 380.373 -0.846941 -1.38567 0
M  V30 3941 H 382.37 0.55439 -4.13197 0
M  V30 3942 H 381.03 1.05946 -3.06929 0
M  V30 3943 H 382.041 -2.28354 -4.64839 0
M  V30 3944 H 378.718 0.251909 -4.16739 0
M  V30 3945 H 380.108 -3.46384 -5.75732 0
M  V30 3946 N 382.828 1.3818 -0.7579 0
M  V30 3947 C 384.056 2.04301 -0.326937 0
M  V30 3948 C 384.471 1.57163 1.0462 0
M  V30 3949 O 383.828 0.746626 1.66529 0
M  V30 3950 C 383.879 3.59846 -0.345363 0
M  V30 3951 O 383.6 4.05256 -1.66432 0
M  V30 3952 C 385.101 4.4319 0.098927 0
M  V30 3953 H 382.321 0.656443 -0.139012 0
M  V30 3954 H 384.865 1.76786 -1.02796 0
M  V30 3955 H 383.02 3.86182 0.306955 0
M  V30 3956 H 383.434 4.99709 -1.59345 0
M  V30 3957 H 384.908 5.51989 0.0348745 0
M  V30 3958 H 385.385 4.23947 1.14741 0
M  V30 3959 H 385.991 4.22051 -0.52468 0
M  V30 3960 N 384.306 0.507319 1.49211 0
M  V30 3961 C 385.534 -0.0315749 2.06876 0
M  V30 3962 C 385.949 -1.30241 1.36685 0
M  V30 3963 O 385.306 -1.76937 0.447152 0
M  V30 3964 C 385.357 -0.282627 3.60393 0
M  V30 3965 O 385.078 0.937835 4.27944 0
M  V30 3966 C 386.579 -0.864453 4.3479 0
M  V30 3967 H 383.799 0.0233048 0.670595 0
M  V30 3968 H 386.343 0.706484 1.91909 0
M  V30 3969 H 384.498 -0.97068 3.75042 0
M  V30 3970 H 384.912 0.704567 5.19746 0
M  V30 3971 H 386.386 -0.989664 5.43056 0
M  V30 3972 H 386.863 -1.86382 3.97692 0
M  V30 3973 H 387.469 -0.213672 4.24763 0
M  V30 3974 N 385.784 -1.5574 0.241426 0
M  V30 3975 C 387.012 -2.03208 -0.389134 0
M  V30 3976 C 387.427 -1.12082 -1.51931 0
M  V30 3977 O 386.784 -0.134183 -1.82006 0
M  V30 3978 C 386.835 -3.50064 -0.902087 0
M  V30 3979 O 386.556 -4.37717 0.18305 0
M  V30 3980 C 388.057 -4.13268 -1.60389 0
M  V30 3981 H 385.277 -0.664509 -0.0931053 0
M  V30 3982 H 387.821 -2.0124 0.36369 0
M  V30 3983 H 385.976 -3.52583 -1.60511 0
M  V30 3984 H 386.39 -5.24097 -0.205579 0
M  V30 3985 H 387.864 -5.17733 -1.91458 0
M  V30 3986 H 388.341 -3.59434 -2.52397 0
M  V30 3987 H 388.947 -4.14655 -0.945576 0
M  V30 3988 N 387.262 0.0317525 -1.57568 0
M  V30 3989 C 388.194 1.06073 -2.03178 0
M  V30 3990 C 389.207 1.32627 -0.944132 0
M  V30 3991 O 390.396 1.30162 -1.22148 0
M  V30 3992 C 387.496 2.40297 -2.38978 0
M  V30 3993 C 386.669 2.33137 -3.70089 0
M  V30 3994 C 385.728 3.49787 -3.9311 0
M  V30 3995 O 384.754 3.29403 -4.64201 0
M  V30 3996 N 385.956 4.71562 -3.38541 0
M  V30 3997 H 388.721 0.672006 -2.92069 0
M  V30 3998 H 386.282 0.219745 -1.60402 0
M  V30 3999 H 388.274 3.1705 -2.51518 0
M  V30 4000 H 386.844 2.71024 -1.55771 0
M  V30 4001 H 386.064 1.415 -3.67928 0
M  V30 4002 H 387.352 2.25493 -4.56104 0
M  V30 4003 H 386.75 4.91024 -2.80912 0
M  V30 4004 H 385.307 5.45689 -3.56464 0
M  V30 4005 N 388.74 1.54641 0.303973 0
M  V30 4006 C 389.673 1.80263 1.3993 0
M  V30 4007 C 390.651 0.653657 1.48883 0
M  V30 4008 O 391.835 0.893284 1.6599 0
M  V30 4009 C 388.962 1.9367 2.77866 0
M  V30 4010 C 388.008 3.16078 2.86351 0
M  V30 4011 S 388.841 4.74219 2.4875 0
M  V30 4012 C 389.997 4.90558 3.88721 0
M  V30 4013 H 390.23 2.72886 1.17986 0
M  V30 4014 H 387.763 1.46014 0.501918 0
M  V30 4015 H 389.721 2.0208 3.57315 0
M  V30 4016 H 388.382 1.01991 2.9708 0
M  V30 4017 H 387.575 3.22252 3.87517 0
M  V30 4018 H 387.177 3.06099 2.14893 0
M  V30 4019 H 389.469 4.74398 4.83687 0
M  V30 4020 H 390.412 5.92651 3.87518 0
M  V30 4021 H 390.82 4.18728 3.78585 0
M  V30 4022 N 390.218 -0.567019 1.47046 0
M  V30 4023 C 391.181 -1.65696 1.58359 0
M  V30 4024 C 392.181 -1.54097 0.459441 0
M  V30 4025 O 393.371 -1.58432 0.724225 0
M  V30 4026 C 390.503 -3.05197 1.51879 0
M  V30 4027 H 391.696 -1.57019 2.5551 0
M  V30 4028 H 389.249 -0.786148 1.3509 0
M  V30 4029 H 389.984 -3.19417 0.560673 0
M  V30 4030 H 389.769 -3.15025 2.33455 0
M  V30 4031 H 391.259 -3.84511 1.62913 0
M  V30 4032 N 391.696 -1.35014 -0.812953 0
M  V30 4033 C 392.944 -1.27678 -1.56661 0
M  V30 4034 C 393.265 0.150359 -1.94419 0
M  V30 4035 O 392.535 1.08532 -1.63088 0
M  V30 4036 H 391.115 -0.469602 -0.580933 0
M  V30 4037 H 393.777 -1.69043 -0.970076 0
M  V30 4038 H 392.873 -1.88833 -2.48492 0
M  V30 4039 N 393.175 1.03435 -1.18907 0
M  V30 4040 C 394.403 1.80381 -1.01342 0
M  V30 4041 C 394.818 1.83649 0.438005 0
M  V30 4042 O 394.175 1.27655 1.30424 0
M  V30 4043 C 394.226 3.25689 -1.56873 0
M  V30 4044 O 393.947 3.22673 -2.96334 0
M  V30 4045 C 395.448 4.19255 -1.44014 0
M  V30 4046 H 392.668 0.56784 -0.35749 0
M  V30 4047 H 395.212 1.30317 -1.576 0
M  V30 4048 H 393.367 3.72962 -1.04777 0
M  V30 4049 H 393.781 4.13748 -3.22355 0
M  V30 4050 H 395.255 5.19123 -1.87657 0
M  V30 4051 H 395.732 4.37467 -0.389815 0
M  V30 4052 H 396.338 3.77851 -1.95214 0
M  V30 4053 N 394.653 0.992116 1.22453 0
M  V30 4054 C 395.878 0.685644 1.95739 0
M  V30 4055 C 396.303 -0.743 1.72804 0
M  V30 4056 O 395.661 -1.50778 1.00676 0
M  V30 4057 C 395.709 0.996293 3.46564 0
M  V30 4058 O 394.813 0.0945512 4.12292 0
M  V30 4059 H 394.154 0.256694 0.612376 0
M  V30 4060 H 396.684 1.32888 1.5557 0
M  V30 4061 H 396.694 0.93781 3.97076 0
M  V30 4062 H 395.369 2.03733 3.62582 0
M  V30 4063 H 393.946 0.208451 3.72317 0
M  V30 4064 N 396.131 -1.37776 0.765217 0
M  V30 4065 C 397.356 -2.04651 0.336537 0
M  V30 4066 C 397.781 -1.57337 -1.03086 0
M  V30 4067 O 397.139 -0.730621 -1.65927 0
M  V30 4068 C 397.187 -3.58577 0.381468 0
M  V30 4069 O 396.291 -4.07706 -0.62042 0
M  V30 4070 H 395.632 -0.64756 0.146838 0
M  V30 4071 H 398.162 -1.76221 1.03959 0
M  V30 4072 H 398.172 -4.07314 0.236448 0
M  V30 4073 H 396.847 -3.9237 1.37907 0
M  V30 4074 H 395.424 -3.70306 -0.439056 0
M  V30 4075 N 397.609 -0.515225 -1.4894 0
M  V30 4076 C 398.557 0.269115 -2.31038 0
M  V30 4077 C 399.551 0.949443 -1.40292 0
M  V30 4078 O 400.757 0.87551 -1.57273 0
M  V30 4079 H 397.132 0.10565 -0.744542 0
M  V30 4080 H 399.103 -0.443096 -2.95092 0
M  V30 4081 C 397.852 1.31213 -3.21991 0
M  V30 4082 H 397.175 0.798034 -3.91754 0
M  V30 4083 H 398.615 1.83263 -3.82349 0
M  V30 4084 C 397.074 2.33791 -2.42576 0
M  V30 4085 O 397.604 3.3995 -2.14003 0
M  V30 4086 N 395.81 2.06625 -2.0434 0
M  V30 4087 H 395.357 1.20314 -2.27777 0
M  V30 4088 H 395.315 2.75483 -1.51514 0
M  V30 4089 N 399.087 1.5561 -0.249682 0
M  V30 4090 C 400.315 2.03411 0.378352 0
M  V30 4091 C 400.73 1.12886 1.51335 0
M  V30 4092 O 400.087 0.143833 1.81932 0
M  V30 4093 C 400.138 3.50537 0.88351 0
M  V30 4094 O 399.859 4.37614 -0.20626 0
M  V30 4095 C 401.36 4.14113 1.58195 0
M  V30 4096 H 398.58 0.664994 0.08958 0
M  V30 4097 H 401.124 2.01044 -0.374357 0
M  V30 4098 H 399.279 3.5343 1.58639 0
M  V30 4099 H 399.693 5.24199 0.177782 0
M  V30 4100 H 401.167 5.18741 1.8871 0
M  V30 4101 H 401.644 3.60767 2.50487 0
M  V30 4102 H 402.25 4.15151 0.923573 0
M  V30 4103 N 400.565 -0.0233959 1.57583 0
M  V30 4104 C 401.814 -0.712133 1.8871 0
M  V30 4105 C 402.127 -1.76217 0.848944 0
M  V30 4106 O 403.333 -2.50389 1.04964 0
M  V30 4107 C 401.789 -1.3177 3.3491 0
M  V30 4108 C 401.397 -0.303715 4.46969 0
M  V30 4109 C 403.141 -1.98598 3.75179 0
M  V30 4110 C 401.048 -0.917945 5.84233 0
M  V30 4111 H 399.978 -0.269735 0.704101 0
M  V30 4112 H 402.629 0.0333114 1.8347 0
M  V30 4113 H 401.011 -2.11304 3.34913 0
M  V30 4114 H 402.185 0.465325 4.58445 0
M  V30 4115 H 400.5 0.2628 4.1557 0
M  V30 4116 H 403.097 -2.45416 4.75053 0
M  V30 4117 H 403.44 -2.80659 3.07468 0
M  V30 4118 H 403.973 -1.25831 3.77374 0
M  V30 4119 H 400.712 -0.136633 6.55358 0
M  V30 4120 H 400.232 -1.65669 5.76467 0
M  V30 4121 H 401.911 -1.4236 6.31144 0
M  V30 4122 N 402.043 -1.548 -0.295768 0
M  V30 4123 C 403.268 -1.78653 -1.05346 0
M  V30 4124 C 403.693 -0.546894 -1.79974 0
M  V30 4125 O 403.051 0.502763 -1.7419 0
M  V30 4126 C 403.099 -2.99679 -2.00561 0
M  V30 4127 O 402.203 -2.7317 -3.08953 0
M  V30 4128 H 401.544 -0.59116 -0.302367 0
M  V30 4129 H 404.074 -2.01895 -0.331598 0
M  V30 4130 H 404.084 -3.27793 -2.42932 0
M  V30 4131 H 402.759 -3.89562 -1.4565 0
M  V30 4132 H 401.336 -2.56089 -2.71059 0
M  V30 4133 N 403.521 0.559213 -1.47345 0
M  V30 4134 C 404.484 1.64854 -1.59235 0
M  V30 4135 C 405.484 1.53851 -0.467607 0
M  V30 4136 O 406.674 1.58045 -0.732617 0
M  V30 4137 C 403.806 3.04388 -1.53496 0
M  V30 4138 H 404.999 1.55662 -2.56339 0
M  V30 4139 H 402.552 0.778973 -1.35505 0
M  V30 4140 H 403.287 3.19115 -0.577604 0
M  V30 4141 H 403.072 3.13783 -2.35123 0
M  V30 4142 H 404.562 3.83642 -1.6495 0
M  V30 4143 N 404.999 1.35443 0.805782 0
M  V30 4144 C 406.247 1.28507 1.55982 0
M  V30 4145 C 406.568 -0.140046 1.94496 0
M  V30 4146 O 405.838 -1.07666 1.63661 0
M  V30 4147 H 404.418 0.472676 0.578434 0
M  V30 4148 H 407.08 1.69555 0.961098 0
M  V30 4149 H 406.176 1.90148 2.47488 0
M  V30 4150 N 406.477 -1.02803 1.19454 0
M  V30 4151 C 407.723 -1.76598 1.0092 0
M  V30 4152 C 408.078 -1.86939 -0.455142 0
M  V30 4153 O 407.371 -1.37575 -1.33355 0
M  V30 4154 C 407.565 -3.18941 1.6128 0
M  V30 4155 C 407.394 -3.22476 3.13431 0
M  V30 4156 C 406.164 -3.30375 3.82336 0
M  V30 4157 C 408.362 -3.09451 4.10785 0
M  V30 4158 N 406.344 -3.23292 5.21877 0
M  V30 4159 C 407.715 -3.10012 5.36929 0
M  V30 4160 C 409.77 -2.93585 4.02135 0
M  V30 4161 C 408.473 -2.96334 6.55423 0
M  V30 4162 C 410.499 -2.81256 5.20239 0
M  V30 4163 C 409.861 -2.82472 6.45282 0
M  V30 4164 H 405.96 -0.657447 0.423424 0
M  V30 4165 H 408.544 -1.22369 1.5144 0
M  V30 4166 H 406.715 -3.71489 1.1336 0
M  V30 4167 H 408.447 -3.81102 1.36173 0
M  V30 4168 H 405.202 -3.3663 3.33132 0
M  V30 4169 H 405.626 -3.23156 5.94894 0
M  V30 4170 H 410.268 -2.91466 3.0628 0
M  V30 4171 H 407.986 -2.97203 7.51463 0
M  V30 4172 H 411.572 -2.70014 5.15348 0
M  V30 4173 H 410.452 -2.73036 7.35133 0
M  V30 4174 N 407.956 -0.998596 -1.21925 0
M  V30 4175 C 408.866 -0.562736 -2.27751 0
M  V30 4176 C 409.882 0.391203 -1.69545 0
M  V30 4177 O 411.058 0.256625 -1.99758 0
M  V30 4178 C 408.123 0.11012 -3.46525 0
M  V30 4179 C 407.184 -0.887495 -4.20026 0
M  V30 4180 C 406.417 -0.246654 -5.3313 0
M  V30 4181 O 406.64 0.958088 -5.62296 0
M  V30 4182 O 405.574 -0.954374 -5.94286 0
M  V30 4183 H 409.4 -1.44329 -2.67213 0
M  V30 4184 H 406.985 -0.767135 -1.28201 0
M  V30 4185 H 408.867 0.486756 -4.18579 0
M  V30 4186 H 407.542 0.965154 -3.08976 0
M  V30 4187 H 406.449 -1.31517 -3.5022 0
M  V30 4188 H 407.782 -1.71191 -4.6147 0
M  V30 4189 N 409.434 1.37368 -0.772513 0
M  V30 4190 C 410.845 1.8231 -0.402493 0
M  V30 4191 C 411.196 1.6436 1.07146 0
M  V30 4192 O 410.321 1.15514 1.82991 0
M  V30 4193 C 410.916 3.30979 -0.723776 0
M  V30 4194 C 409.475 3.74195 -0.406802 0
M  V30 4195 C 408.622 2.59885 -0.967218 0
M  V30 4196 H 411.573 1.25829 -0.967099 0
M  V30 4197 H 411.594 3.80499 -0.00870832 0
M  V30 4198 H 411.106 3.44011 -1.7966 0
M  V30 4199 H 409.207 3.66732 0.658673 0
M  V30 4200 H 409.32 4.7027 -0.915588 0
M  V30 4201 H 407.684 2.51674 -0.391416 0
M  V30 4202 H 408.467 2.7571 -2.04546 0
M  V30 4203 N 410.912 0.523116 1.48665 0
M  V30 4204 C 411.86 -0.256859 2.31177 0
M  V30 4205 C 412.854 -0.94199 1.40794 0
M  V30 4206 O 414.06 -0.867157 1.57735 0
M  V30 4207 H 410.435 -0.1017 0.745091 0
M  V30 4208 H 412.406 0.458739 2.94853 0
M  V30 4209 C 411.155 -1.29503 3.22683 0
M  V30 4210 H 410.478 -0.777248 3.92172 0
M  V30 4211 H 411.918 -1.81233 3.83315 0
M  V30 4212 C 410.377 -2.32501 2.43813 0
M  V30 4213 O 410.907 -3.3881 2.15803 0
M  V30 4214 N 409.113 -2.05538 2.05432 0
M  V30 4215 H 408.66 -1.19104 2.28412 0
M  V30 4216 H 408.618 -2.74676 1.52973 0
M  V30 4217 N 412.39 -1.55475 0.257931 0
M  V30 4218 C 413.3 -2.2549 -0.647425 0
M  V30 4219 C 414.316 -1.2748 -1.18427 0
M  V30 4220 O 415.492 -1.6038 -1.2182 0
M  V30 4221 C 412.557 -2.94916 -1.82278 0
M  V30 4222 C 411.618 -4.08363 -1.32432 0
M  V30 4223 C 410.851 -4.74469 -2.44366 0
M  V30 4224 O 411.074 -4.39701 -3.63344 0
M  V30 4225 O 410.008 -5.62763 -2.13497 0
M  V30 4226 H 413.834 -3.03593 -0.0807707 0
M  V30 4227 H 411.419 -1.49377 0.0259962 0
M  V30 4228 H 413.301 -3.38606 -2.50846 0
M  V30 4229 H 411.976 -2.19744 -2.37685 0
M  V30 4230 H 410.883 -3.69166 -0.605605 0
M  V30 4231 H 412.216 -4.85385 -0.816211 0
M  V30 4232 N 413.868 0.0150385 -1.57593 0
M  V30 4233 C 414.778 1.02791 -2.10882 0
M  V30 4234 C 415.794 1.38702 -1.0506 0
M  V30 4235 O 416.97 1.47739 -1.36877 0
M  V30 4236 C 414.035 2.30568 -2.58919 0
M  V30 4237 C 413.096 2.01108 -3.79281 0
M  V30 4238 C 412.329 3.22794 -4.25018 0
M  V30 4239 O 412.552 4.33959 -3.70183 0
M  V30 4240 O 411.486 3.07672 -5.17322 0
M  V30 4241 H 415.312 0.604973 -2.97613 0
M  V30 4242 H 412.897 0.23292 -1.47573 0
M  V30 4243 H 414.779 3.05662 -2.90084 0
M  V30 4244 H 413.454 2.72129 -1.75293 0
M  V30 4245 H 412.361 1.23537 -3.53114 0
M  V30 4246 H 413.694 1.64394 -4.63935 0
M  V30 4247 N 415.346 1.54954 0.287554 0
M  V30 4248 C 416.294 1.87606 1.37502 0
M  V30 4249 C 417.288 0.751001 1.51843 0
M  V30 4250 O 418.494 0.935169 1.53801 0
M  V30 4251 H 414.869 0.595231 0.459569 0
M  V30 4252 H 416.84 2.78477 1.07206 0
M  V30 4253 C 415.589 2.15183 2.73115 0
M  V30 4254 H 414.912 3.01234 2.62866 0
M  V30 4255 H 416.352 2.4196 3.48183 0
M  V30 4256 C 414.811 0.954686 3.2309 0
M  V30 4257 O 415.341 0.181949 4.01288 0
M  V30 4258 N 413.547 0.756368 2.80584 0
M  V30 4259 H 413.094 1.38643 2.17108 0
M  V30 4260 H 413.052 -0.0430391 3.14371 0
M  V30 4261 N 416.824 -0.551391 1.4764 0
M  V30 4262 C 417.734 -1.68525 1.63207 0
M  V30 4263 C 418.75 -1.6621 0.514815 0
M  V30 4264 O 419.926 -1.85551 0.783113 0
M  V30 4265 C 416.991 -3.05025 1.64805 0
M  V30 4266 C 416.052 -3.18362 2.88 0
M  V30 4267 C 415.285 -4.4835 2.89513 0
M  V30 4268 O 415.508 -5.34163 2.00065 0
M  V30 4269 O 414.442 -4.65602 3.81443 0
M  V30 4270 H 418.268 -1.58333 2.59161 0
M  V30 4271 H 415.853 -0.722063 1.30792 0
M  V30 4272 H 417.735 -3.86245 1.68502 0
M  V30 4273 H 416.41 -3.15587 0.720197 0
M  V30 4274 H 415.317 -2.36518 2.89845 0
M  V30 4275 H 416.65 -3.12707 3.80099 0
M  V30 4276 N 418.302 -1.35869 -0.798587 0
M  V30 4277 C 419.579 -1.20145 -1.54352 0
M  V30 4278 C 419.959 0.216161 -2.0999 0
M  V30 4279 O 419.307 1.22068 -1.93162 0
M  V30 4280 C 419.517 -2.27602 -2.64572 0
M  V30 4281 C 420.865 -2.63811 -3.32699 0
M  V30 4282 O 421.889 -2.26576 -2.74849 0
M  V30 4283 O 420.748 -3.27866 -4.37226 0
M  V30 4284 H 417.842 -0.467248 -0.682355 0
M  V30 4285 H 420.388 -1.47574 -0.837859 0
M  V30 4286 H 419.16 -3.2265 -2.21388 0
M  V30 4287 H 418.783 -2.01488 -3.42766 0
M  V30 4288 N 419.78 1.02168 -1.19998 0
M  V30 4289 C 420.69 2.14069 -0.959774 0
M  V30 4290 C 421.706 1.73804 0.082655 0
M  V30 4291 O 422.882 2.01133 -0.103633 0
M  V30 4292 C 419.947 3.42936 -0.509459 0
M  V30 4293 C 419.008 3.97474 -1.62213 0
M  V30 4294 C 418.241 5.2019 -1.19321 0
M  V30 4295 O 418.464 5.70369 -0.0597726 0
M  V30 4296 O 417.398 5.67749 -1.99863 0
M  V30 4297 H 421.224 2.37199 -1.89658 0
M  V30 4298 H 418.809 1.12469 -0.983411 0
M  V30 4299 H 420.691 4.20551 -0.267322 0
M  V30 4300 H 419.366 3.21234 0.398821 0
M  V30 4301 H 418.273 3.21161 -1.9185 0
M  V30 4302 H 419.606 4.23555 -2.50723 0
M  V30 4303 N 421.258 1.00505 1.21394 0
M  V30 4304 C 422.674 0.717873 1.42544 0
M  V30 4305 C 422.874 -0.706936 1.88692 0
M  V30 4306 O 421.93 -1.47627 2.04847 0
M  V30 4307 C 423.243 1.73377 2.45684 0
M  V30 4308 C 424.791 1.75059 2.59467 0
M  V30 4309 C 425.266 2.75545 3.6584 0
M  V30 4310 N 426.757 2.74213 3.73311 0
M  V30 4311 C 427.492 3.48626 4.55245 0
M  V30 4312 N 426.988 4.32678 5.41075 0
M  V30 4313 N 428.781 3.37276 4.49668 0
M  V30 4314 H 420.932 1.92506 0.897503 0
M  V30 4315 H 423.195 0.830919 0.456375 0
M  V30 4316 H 422.901 2.75395 2.18748 0
M  V30 4317 H 422.775 1.53647 3.44489 0
M  V30 4318 H 425.162 0.737337 2.8574 0
M  V30 4319 H 425.243 1.98861 1.60897 0
M  V30 4320 H 424.887 3.77028 3.40313 0
M  V30 4321 H 424.817 2.49009 4.64007 0
M  V30 4322 H 427.308 2.13234 3.11993 0
M  V30 4323 H 427.621 4.86253 6.00648 0
M  V30 4324 H 425.966 4.3676 5.40616 0
M  V30 4325 H 429.157 2.71043 3.81646 0
M  V30 4326 H 429.33 3.95524 5.13288 0
M  V30 4327 N 422.737 -1.36956 0.779787 0
M  V30 4328 C 424.014 -1.93697 0.272156 0
M  V30 4329 C 424.394 -1.71267 -1.23413 0
M  V30 4330 O 423.742 -1.06607 -2.02107 0
M  V30 4331 C 423.952 -3.42812 0.654291 0
M  V30 4332 C 425.3 -4.19921 0.628602 0
M  V30 4333 O 426.324 -3.51209 0.594172 0
M  V30 4334 O 425.183 -5.42465 0.662864 0
M  V30 4335 H 422.277 -0.824447 0.0649286 0
M  V30 4336 H 424.823 -1.46196 0.861682 0
M  V30 4337 H 423.595 -3.52754 1.69353 0
M  V30 4338 H 423.218 -3.97582 0.0381369 0
M  V30 4339 N 424.215 -0.530993 -1.48385 0
M  V30 4340 C 425.631 -0.188919 -1.58478 0
M  V30 4341 C 425.831 1.30786 -1.53288 0
M  V30 4342 O 424.887 2.08619 -1.42248 0
M  V30 4343 C 426.2 -0.792343 -2.90073 0
M  V30 4344 C 427.748 -0.76117 -3.03604 0
M  V30 4345 C 428.223 -1.34319 -4.37861 0
M  V30 4346 N 429.714 -1.3052 -4.44431 0
M  V30 4347 C 430.449 -1.72543 -5.46824 0
M  V30 4348 N 429.945 -2.22299 -6.56167 0
M  V30 4349 N 431.738 -1.63773 -5.37712 0
M  V30 4350 H 423.889 -1.50377 -1.50002 0
M  V30 4351 H 426.152 -0.625559 -0.712306 0
M  V30 4352 H 425.858 -1.84323 -2.99529 0
M  V30 4353 H 425.732 -0.270026 -3.76232 0
M  V30 4354 H 428.119 0.280957 -2.93759 0
M  V30 4355 H 428.2 -1.32097 -2.19053 0
M  V30 4356 H 427.844 -2.38425 -4.4846 0
M  V30 4357 H 427.774 -0.759064 -5.21101 0
M  V30 4358 H 430.265 -0.940973 -3.65997 0
M  V30 4359 H 430.578 -2.52356 -7.30436 0
M  V30 4360 H 428.923 -2.26293 -6.57127 0
M  V30 4361 H 432.114 -1.24698 -4.51185 0
M  V30 4362 H 432.287 -1.96844 -6.17379 0
M  V30 4363 N 425.693 1.55336 -0.266172 0
M  V30 4364 C 426.643 2.18848 0.639497 0
M  V30 4365 C 427.627 1.1503 1.12503 0
M  V30 4366 O 428.819 1.40875 1.0716 0
M  V30 4367 C 425.948 2.90626 1.82733 0
M  V30 4368 C 425.034 4.01723 1.35939 0
M  V30 4369 N 425.425 5.02145 0.606988 0
M  V30 4370 C 423.723 4.1463 1.6431 0
M  V30 4371 C 424.424 5.80572 0.362138 0
M  V30 4372 N 423.4 5.35551 0.931971 0
M  V30 4373 H 427.202 2.93845 0.0567057 0
M  V30 4374 H 424.716 1.62252 -0.0693312 0
M  V30 4375 H 426.713 3.34569 2.48735 0
M  V30 4376 H 425.373 2.17137 2.41416 0
M  V30 4377 H 426.384 5.17271 0.255198 0
M  V30 4378 H 423.061 3.52326 2.23993 0
M  V30 4379 H 424.451 6.71472 -0.239848 0
M  V30 4380 N 427.171 -0.0066808 1.57599 0
M  V30 4381 C 428.101 -0.999296 2.11036 0
M  V30 4382 C 429.082 -1.36278 1.01795 0
M  V30 4383 O 430.267 -1.4477 1.29442 0
M  V30 4384 C 427.397 -2.29328 2.60818 0
M  V30 4385 C 426.351 -2.07159 3.74525 0
M  V30 4386 C 425.677 -3.42512 4.10596 0
M  V30 4387 C 426.977 -1.43959 5.02069 0
M  V30 4388 H 428.671 -0.554382 2.94223 0
M  V30 4389 H 426.217 -0.265221 1.41536 0
M  V30 4390 H 428.17 -2.99117 2.96828 0
M  V30 4391 H 426.894 -2.7592 1.74745 0
M  V30 4392 H 425.553 -1.39797 3.38899 0
M  V30 4393 H 425.201 -3.86795 3.21556 0
M  V30 4394 H 424.901 -3.28498 4.87199 0
M  V30 4395 H 426.425 -4.13628 4.4916 0
M  V30 4396 H 427.839 -2.03696 5.35893 0
M  V30 4397 H 426.236 -1.40452 5.83432 0
M  V30 4398 H 427.306 -0.407992 4.83181 0
M  V30 4399 N 428.649 -1.55105 -0.279332 0
M  V30 4400 C 429.874 -1.7976 -1.03446 0
M  V30 4401 C 430.299 -0.565952 -1.79384 0
M  V30 4402 O 429.657 0.484259 -1.74713 0
M  V30 4403 C 429.705 -3.0179 -1.97371 0
M  V30 4404 O 428.809 -2.76432 -3.06038 0
M  V30 4405 H 428.15 -0.594334 -0.29608 0
M  V30 4406 H 430.68 -2.02235 -0.310165 0
M  V30 4407 H 430.69 -3.30351 -2.39441 0
M  V30 4408 H 429.365 -3.91085 -1.4151 0
M  V30 4409 H 427.942 -2.58949 -2.68328 0
M  V30 4410 N 430.127 0.543554 -1.4793 0
M  V30 4411 C 431.374 1.30008 -1.55255 0
M  V30 4412 C 431.702 1.93245 -0.220612 0
M  V30 4413 O 430.957 1.79141 0.787843 0
M  V30 4414 C 431.256 2.42078 -2.62932 0
M  V30 4415 C 430.922 1.96583 -4.0579 0
M  V30 4416 C 429.584 1.83893 -4.44676 0
M  V30 4417 C 431.936 1.62034 -4.95373 0
M  V30 4418 C 429.264 1.34969 -5.70964 0
M  V30 4419 C 431.616 1.14577 -6.22137 0
M  V30 4420 C 430.28 1.00493 -6.59892 0
M  V30 4421 H 429.55 0.475735 -0.568117 0
M  V30 4422 H 432.197 0.608075 -1.81589 0
M  V30 4423 H 430.502 3.16892 -2.30406 0
M  V30 4424 H 432.199 3.00236 -2.65818 0
M  V30 4425 H 428.789 2.07407 -3.75074 0
M  V30 4426 H 432.973 1.70705 -4.66019 0
M  V30 4427 H 428.229 1.2274 -5.98953 0
M  V30 4428 H 432.403 0.869109 -6.90955 0
M  V30 4429 H 430.03 0.623624 -7.57638 0
M  V30 4430 N 431.605 1.3629 0.791371 0
M  V30 4431 C 432.83 1.33726 1.58531 0
M  V30 4432 C 433.255 -0.0794933 1.87932 0
M  V30 4433 O 432.613 -1.05087 1.47738 0
M  V30 4434 C 432.661 2.16425 2.88431 0
M  V30 4435 O 431.765 1.5554 3.81944 0
M  V30 4436 H 431.106 0.457793 0.480959 0
M  V30 4437 H 433.636 1.79547 0.981031 0
M  V30 4438 H 433.646 2.28933 3.37718 0
M  V30 4439 H 432.321 3.19415 2.66359 0
M  V30 4440 H 430.898 1.51961 3.40532 0
M  V30 4441 N 433.083 -1.0153 1.20538 0
M  V30 4442 C 434.331 -1.74803 1.01432 0
M  V30 4443 C 434.652 -1.8963 -0.454456 0
M  V30 4444 O 433.922 -1.43975 -1.32846 0
M  V30 4445 H 432.502 -0.647598 0.372324 0
M  V30 4446 H 435.164 -1.22402 1.5167 0
M  V30 4447 H 434.26 -2.75114 1.47373 0
M  V30 4448 N 434.561 -1.01147 -1.20859 0
M  V30 4449 C 435.786 -0.716698 -1.94623 0
M  V30 4450 C 436.211 0.715415 -1.73964 0
M  V30 4451 O 435.569 1.49157 -1.03062 0
M  V30 4452 C 435.617 -1.0513 -3.44935 0
M  V30 4453 O 434.721 -0.160131 -4.12089 0
M  V30 4454 H 434.062 -0.266404 -0.608214 0
M  V30 4455 H 436.592 -1.35346 -1.53436 0
M  V30 4456 H 436.602 -1.00086 -3.95533 0
M  V30 4457 H 435.277 -2.09475 -3.59295 0
M  V30 4458 H 433.854 -0.267657 -3.71938 0
M  V30 4459 N 436.039 1.36541 -0.78704 0
M  V30 4460 C 437.287 1.98911 -0.357633 0
M  V30 4461 C 437.608 1.62778 1.07371 0
M  V30 4462 O 436.878 0.900612 1.73971 0
M  V30 4463 H 435.458 0.735734 -0.129246 0
M  V30 4464 H 438.12 1.66776 -1.00855 0
M  V30 4465 H 437.216 3.08874 -0.447549 0
M  V30 4466 N 437.518 0.538854 1.48102 0
M  V30 4467 C 438.767 0.0059532 2.01699 0
M  V30 4468 C 439.08 -1.34476 1.42041 0
M  V30 4469 O 440.286 -1.96653 1.87189 0
M  V30 4470 C 438.742 -0.0397627 3.59878 0
M  V30 4471 C 438.35 1.30659 4.28523 0
M  V30 4472 C 440.094 -0.521024 4.2129 0
M  V30 4473 C 438.001 1.22098 5.78659 0
M  V30 4474 H 436.931 -0.00154456 0.753998 0
M  V30 4475 H 439.582 0.683963 1.70277 0
M  V30 4476 H 437.964 -0.783037 3.88181 0
M  V30 4477 H 439.138 2.06613 4.11883 0
M  V30 4478 H 437.453 1.7243 3.79021 0
M  V30 4479 H 440.05 -0.603184 5.31287 0
M  V30 4480 H 440.393 -1.52885 3.8721 0
M  V30 4481 H 440.926 0.166834 3.9745 0
M  V30 4482 H 437.665 2.20424 6.17328 0
M  V30 4483 H 437.185 0.50295 5.97688 0
M  V30 4484 H 438.864 0.915345 6.40492 0
M  V30 4485 N 438.996 -1.55193 0.274407 0
M  V30 4486 C 440.273 -1.91584 -0.394331 0
M  V30 4487 C 440.653 -1.19858 -1.73774 0
M  V30 4488 O 440.001 -0.3252 -2.26174 0
M  V30 4489 C 440.211 -3.4487 -0.535311 0
M  V30 4490 C 441.559 -4.16636 -0.818534 0
M  V30 4491 O 442.583 -3.5076 -0.620146 0
M  V30 4492 O 441.442 -5.33209 -1.19792 0
M  V30 4493 H 438.536 -0.798349 -0.215794 0
M  V30 4494 H 441.082 -1.66646 0.320507 0
M  V30 4495 H 439.854 -3.89145 0.410141 0
M  V30 4496 H 439.477 -3.75759 -1.29964 0
M  V30 4497 N 440.474 -0.00167713 -1.576 0
M  V30 4498 C 441.751 0.719951 -1.81868 0
M  V30 4499 C 442.131 1.91895 -0.879747 0
M  V30 4500 O 441.479 2.28389 0.0711423 0
M  V30 4501 C 441.689 1.12409 -3.30402 0
M  V30 4502 C 443.037 1.52724 -3.96182 0
M  V30 4503 O 444.061 1.21784 -3.34734 0
M  V30 4504 O 442.92 2.10265 -5.04431 0
M  V30 4505 H 440.014 0.350707 -0.748955 0
M  V30 4506 H 442.56 -0.0272597 -1.69678 0
M  V30 4507 H 441.332 0.269532 -3.90371 0
M  V30 4508 H 440.955 1.93035 -3.47596 0
M  V30 4509 N 441.952 1.55251 0.271103 0
M  V30 4510 C 443.229 1.66664 1.02384 0
M  V30 4511 C 443.609 0.534363 2.04225 0
M  V30 4512 O 442.957 -0.465337 2.23712 0
M  V30 4513 C 443.167 3.05961 1.67895 0
M  V30 4514 C 444.515 3.63772 2.18986 0
M  V30 4515 O 445.539 3.08606 1.77878 0
M  V30 4516 O 444.398 4.60429 2.94393 0
M  V30 4517 H 441.492 0.676957 0.475035 0
M  V30 4518 H 444.038 1.67589 0.26681 0
M  V30 4519 H 442.81 3.79815 0.941071 0
M  V30 4520 H 442.433 3.08943 2.5028 0
M  V30 4521 N 443.43 -0.535701 1.48216 0
M  V30 4522 C 444.34 -1.66785 1.64985 0
M  V30 4523 C 445.356 -1.65654 0.532414 0
M  V30 4524 O 446.532 -1.8471 0.80275 0
M  V30 4525 C 443.597 -3.0326 1.68031 0
M  V30 4526 C 442.658 -3.1529 2.9136 0
M  V30 4527 C 441.891 -4.45255 2.94252 0
M  V30 4528 O 442.114 -5.32011 2.05719 0
M  V30 4529 O 441.048 -4.6153 3.86359 0
M  V30 4530 H 444.874 -1.55576 2.60825 0
M  V30 4531 H 442.459 -0.70815 1.31551 0
M  V30 4532 H 444.341 -3.84436 1.72589 0
M  V30 4533 H 443.016 -3.14805 0.753628 0
M  V30 4534 H 441.923 -2.3343 2.92337 0
M  V30 4535 H 443.256 -3.08658 3.83394 0
M  V30 4536 N 444.908 -1.36708 -0.784132 0
M  V30 4537 C 446.185 -1.21776 -1.53069 0
M  V30 4538 C 446.565 0.193876 -2.10208 0
M  V30 4539 O 445.913 1.20012 -1.94446 0
M  V30 4540 C 446.123 -2.30395 -2.62143 0
M  V30 4541 C 447.471 -2.67325 -3.29882 0
M  V30 4542 O 448.495 -2.29478 -2.7243 0
M  V30 4543 O 447.354 -3.32485 -4.33724 0
M  V30 4544 H 444.448 -0.474459 -0.677361 0
M  V30 4545 H 446.994 -1.48454 -0.82216 0
M  V30 4546 H 445.766 -3.2498 -2.17953 0
M  V30 4547 H 445.389 -2.05112 -3.40609 0
M  V30 4548 N 446.386 1.0089 -1.21074 0
M  V30 4549 C 447.633 1.74607 -1.0256 0
M  V30 4550 C 447.961 1.89426 0.44136 0
M  V30 4551 O 447.216 1.42266 1.34384 0
M  V30 4552 C 447.515 3.16335 -1.66334 0
M  V30 4553 C 447.181 3.21474 -3.16173 0
M  V30 4554 C 445.843 3.22583 -3.57062 0
M  V30 4555 C 448.195 3.19025 -4.12156 0
M  V30 4556 C 445.523 3.18925 -4.92446 0
M  V30 4557 C 447.875 3.16909 -5.47496 0
M  V30 4558 C 446.539 3.16326 -5.87787 0
M  V30 4559 H 445.809 0.638933 -0.375294 0
M  V30 4560 H 448.456 1.18274 -1.50611 0
M  V30 4561 H 446.761 3.75876 -1.10566 0
M  V30 4562 H 448.458 3.72083 -1.49516 0
M  V30 4563 H 445.048 3.2135 -2.83605 0
M  V30 4564 H 449.232 3.17332 -3.81595 0
M  V30 4565 H 444.488 3.16809 -5.22917 0
M  V30 4566 H 448.662 3.13968 -6.21609 0
M  V30 4567 H 446.289 3.13246 -6.92662 0
M  V30 4568 N 447.864 1.01787 1.20321 0
M  V30 4569 C 449.113 0.703249 1.89043 0
M  V30 4570 C 449.426 -0.770445 1.79787 0
M  V30 4571 O 450.632 -1.19767 2.43656 0
M  V30 4572 C 449.088 1.20749 3.3904 0
M  V30 4573 C 448.696 2.70817 3.56878 0
M  V30 4574 C 450.44 0.968352 4.13308 0
M  V30 4575 C 448.347 3.14716 5.00708 0
M  V30 4576 H 447.277 0.259354 0.707991 0
M  V30 4577 H 449.928 1.23072 1.36108 0
M  V30 4578 H 448.31 0.607989 3.91305 0
M  V30 4579 H 449.484 3.36327 3.14993 0
M  V30 4580 H 447.799 2.92888 2.95983 0
M  V30 4581 H 450.396 1.27173 5.19356 0
M  V30 4582 H 450.739 -0.095149 4.16191 0
M  V30 4583 H 451.272 1.53129 3.67146 0
M  V30 4584 H 448.011 4.20347 5.02979 0
M  V30 4585 H 447.531 2.53927 5.43398 0
M  V30 4586 H 449.21 3.07426 5.69296 0
M  V30 4587 N 449.342 -1.36122 0.79427 0
M  V30 4588 C 450.567 -2.03891 0.379871 0
M  V30 4589 C 450.992 -1.59488 -0.997251 0
M  V30 4590 O 450.35 -0.765652 -1.64339 0
M  V30 4591 C 450.398 -3.57687 0.457442 0
M  V30 4592 O 449.502 -4.08931 -0.5338 0
M  V30 4593 H 448.843 -0.6443 0.160541 0
M  V30 4594 H 451.373 -1.73976 1.07673 0
M  V30 4595 H 451.383 -4.06721 0.322792 0
M  V30 4596 H 450.058 -3.89357 1.46199 0
M  V30 4597 H 448.635 -3.71154 -0.360409 0
M  V30 4598 N 450.82 -0.546701 -1.47814 0
M  V30 4599 C 452.045 -0.021268 -2.07389 0
M  V30 4600 C 452.47 1.25822 -1.39822 0
M  V30 4601 O 451.828 1.75111 -0.46968 0
M  V30 4602 C 451.876 0.168502 -3.60206 0
M  V30 4603 O 450.98 1.23347 -3.93522 0
M  V30 4604 H 450.321 -0.0466108 -0.662362 0
M  V30 4605 H 452.851 -0.759387 -1.89985 0
M  V30 4606 H 452.861 0.385982 -4.0617 0
M  V30 4607 H 451.536 -0.766075 -4.08784 0
M  V30 4608 H 450.113 0.997319 -3.59316 0
M  V30 4609 N 452.299 1.55045 -0.282633 0
M  V30 4610 C 453.527 2.04168 0.33512 0
M  V30 4611 C 453.942 1.16071 1.48906 0
M  V30 4612 O 453.299 0.182391 1.81586 0
M  V30 4613 C 453.35 3.52332 0.808957 0
M  V30 4614 O 453.071 4.37078 -0.299038 0
M  V30 4615 C 454.572 4.17375 1.49375 0
M  V30 4616 H 451.792 0.666744 0.0754543 0
M  V30 4617 H 454.336 2.00205 -0.416918 0
M  V30 4618 H 452.491 3.56715 1.51106 0
M  V30 4619 H 452.905 5.24458 0.0665514 0
M  V30 4620 H 454.379 5.22627 1.77664 0
M  V30 4621 H 454.856 3.65999 2.42778 0
M  V30 4622 H 455.462 4.17016 0.835305 0
M  V30 4623 N 453.777 0.010035 1.57597 0
M  V30 4624 C 455.026 -0.671945 1.90178 0
M  V30 4625 C 455.339 -1.74376 0.886131 0
M  V30 4626 O 456.545 -2.48107 1.10252 0
M  V30 4627 C 455.001 -1.24636 3.3763 0
M  V30 4628 C 454.609 -0.208838 4.47513 0
M  V30 4629 C 456.353 -1.90595 3.79307 0
M  V30 4630 C 454.26 -0.793814 5.86048 0
M  V30 4631 H 453.19 -0.25474 0.709665 0
M  V30 4632 H 455.841 0.0722206 1.83358 0
M  V30 4633 H 454.223 -2.04152 3.3932 0
M  V30 4634 H 455.397 0.562463 4.57354 0
M  V30 4635 H 453.712 0.350889 4.14919 0
M  V30 4636 H 456.309 -2.35284 4.80151 0
M  V30 4637 H 456.652 -2.74074 3.13352 0
M  V30 4638 H 457.185 -1.17798 3.79958 0
M  V30 4639 H 453.924 0.00240855 6.555 0
M  V30 4640 H 453.444 -1.53404 5.79851 0
M  V30 4641 H 455.123 -1.2894 6.34022 0
M  V30 4642 N 455.255 -1.55392 -0.262866 0
M  V30 4643 C 456.48 -1.80847 -1.01533 0
M  V30 4644 C 456.905 -0.584946 -1.78774 0
M  V30 4645 O 456.263 0.465701 -1.75217 0
M  V30 4646 C 456.311 -3.03866 -1.94159 0
M  V30 4647 O 455.415 -2.79662 -3.03089 0
M  V30 4648 H 454.756 -0.597441 -0.289759 0
M  V30 4649 H 457.286 -2.02553 -0.288698 0
M  V30 4650 H 457.296 -3.32872 -2.35924 0
M  V30 4651 H 455.971 -3.92564 -1.37354 0
M  V30 4652 H 454.548 -2.61781 -2.65566 0
M  V30 4653 N 456.733 0.527833 -1.48498 0
M  V30 4654 C 457.961 1.30823 -1.6029 0
M  V30 4655 C 458.376 1.86945 -0.263974 0
M  V30 4656 O 457.733 1.6651 0.747034 0
M  V30 4657 C 457.784 2.45756 -2.65116 0
M  V30 4658 O 457.505 1.91946 -3.93813 0
M  V30 4659 C 459.006 3.37543 -2.87367 0
M  V30 4660 H 456.226 0.397763 -0.540394 0
M  V30 4661 H 458.77 0.636529 -1.94341 0
M  V30 4662 H 456.925 3.08806 -2.33917 0
M  V30 4663 H 457.339 2.67195 -4.51339 0
M  V30 4664 H 458.813 4.14532 -3.6451 0
M  V30 4665 H 459.29 3.92905 -1.9627 0
M  V30 4666 H 459.896 2.80283 -3.19878 0
M  V30 4667 N 458.211 1.37122 0.776871 0
M  V30 4668 C 459.439 1.3523 1.5659 0
M  V30 4669 C 459.854 -0.0635518 1.88693 0
M  V30 4670 O 459.211 -1.02394 1.51069 0
M  V30 4671 C 459.262 2.18583 2.8793 0
M  V30 4672 O 458.983 3.5465 2.57206 0
M  V30 4673 C 460.484 2.24612 3.82183 0
M  V30 4674 H 457.704 0.4634 0.485285 0
M  V30 4675 H 460.248 1.80392 0.963266 0
M  V30 4676 H 458.403 1.76943 3.4463 0
M  V30 4677 H 458.817 3.98286 3.41275 0
M  V30 4678 H 460.291 2.87267 4.71361 0
M  V30 4679 H 460.768 1.25309 4.20944 0
M  V30 4680 H 461.374 2.66543 3.31414 0
M  V30 4681 N 459.689 -1.00246 1.21608 0
M  V30 4682 C 461.1 -1.55511 1.03312 0
M  V30 4683 C 461.451 -1.91946 -0.406332 0
M  V30 4684 O 460.576 -1.73753 -1.28992 0
M  V30 4685 C 461.171 -2.82576 1.86913 0
M  V30 4686 C 459.73 -3.34318 1.72941 0
M  V30 4687 C 458.877 -2.07487 1.83968 0
M  V30 4688 H 461.828 -0.824638 1.35593 0
M  V30 4689 H 461.849 -3.54559 1.38087 0
M  V30 4690 H 461.361 -2.56026 2.91672 0
M  V30 4691 H 459.462 -3.65797 0.70877 0
M  V30 4692 H 459.575 -4.05566 2.55055 0
M  V30 4693 H 457.939 -2.20603 1.27304 0
M  V30 4694 H 458.722 -1.83346 2.9024 0
M  V30 4695 N 461.167 -1.02423 -1.1978 0
M  V30 4696 C 462.583 -0.740459 -1.41384 0
M  V30 4697 C 462.783 0.676827 -1.89793 0
M  V30 4698 O 461.839 1.4435 -2.0717 0
M  V30 4699 C 463.152 -1.77264 -2.42895 0
M  V30 4700 C 464.7 -1.79165 -2.56649 0
M  V30 4701 C 465.175 -2.8133 -3.6141 0
M  V30 4702 N 466.666 -2.80118 -3.68901 0
M  V30 4703 C 467.401 -3.55824 -4.49641 0
M  V30 4704 N 466.897 -4.41231 -5.34123 0
M  V30 4705 N 468.69 -3.44387 -4.44246 0
M  V30 4706 H 460.841 -1.9391 -0.866764 0
M  V30 4707 H 463.104 -0.838074 -0.443098 0
M  V30 4708 H 462.81 -2.7884 -2.14339 0
M  V30 4709 H 462.684 -1.59108 -3.42001 0
M  V30 4710 H 465.071 -0.782702 -2.84531 0
M  V30 4711 H 465.152 -2.01396 -1.57713 0
M  V30 4712 H 464.796 -3.82394 -3.34271 0
M  V30 4713 H 464.726 -2.56359 -4.59986 0
M  V30 4714 H 467.217 -2.1817 -3.08562 0
M  V30 4715 H 467.53 -4.95747 -5.92836 0
M  V30 4716 H 465.875 -4.45306 -5.33599 0
M  V30 4717 H 469.066 -2.7708 -3.77285 0
M  V30 4718 H 469.239 -4.0364 -5.06931 0
M  V30 4719 N 462.645 1.35699 -0.801477 0
M  V30 4720 C 463.608 2.28199 -0.213994 0
M  V30 4721 C 464.608 1.49359 0.595691 0
M  V30 4722 O 465.798 1.69186 0.414921 0
M  V30 4723 C 462.93 3.33587 0.702297 0
M  V30 4724 H 464.123 2.81666 -1.02976 0
M  V30 4725 H 461.676 1.45467 -0.571759 0
M  V30 4726 H 462.411 2.85297 1.54195 0
M  V30 4727 H 462.196 3.91906 0.123484 0
M  V30 4728 H 463.686 4.02638 1.10783 0
M  V30 4729 N 464.123 0.554532 1.47522 0
M  V30 4730 C 465.37 0.029479 2.02479 0
M  V30 4731 C 465.698 -1.31929 1.42916 0
M  V30 4732 O 464.953 -1.87112 0.573385 0
M  V30 4733 C 465.252 -0.115927 3.57212 0
M  V30 4734 C 464.918 1.16161 4.3568 0
M  V30 4735 C 463.58 1.51168 4.56839 0
M  V30 4736 C 465.932 2.0083 4.80954 0
M  V30 4737 C 463.26 2.70696 5.2052 0
M  V30 4738 C 465.612 3.19559 5.45953 0
M  V30 4739 C 464.276 3.54882 5.65345 0
M  V30 4740 H 463.546 0.0107871 0.740921 0
M  V30 4741 H 466.193 0.725506 1.77225 0
M  V30 4742 H 464.498 -0.894902 3.81443 0
M  V30 4743 H 466.195 -0.53749 3.97381 0
M  V30 4744 H 462.785 0.879026 4.19489 0
M  V30 4745 H 466.969 1.75093 4.64388 0
M  V30 4746 H 462.225 2.98236 5.33728 0
M  V30 4747 H 466.399 3.85456 5.79997 0
M  V30 4748 H 464.026 4.47596 6.1446 0
M  V30 4749 N 465.601 -1.54893 0.290851 0
M  V30 4750 C 466.878 -1.91991 -0.373989 0
M  V30 4751 C 467.258 -1.21694 -1.72493 0
M  V30 4752 O 466.606 -0.34917 -2.25816 0
M  V30 4753 C 466.816 -3.45419 -0.498703 0
M  V30 4754 C 468.164 -4.1748 -0.774298 0
M  V30 4755 O 469.188 -3.51398 -0.582908 0
M  V30 4756 O 468.047 -5.3445 -1.14129 0
M  V30 4757 H 465.141 -0.800593 -0.207315 0
M  V30 4758 H 467.687 -1.66297 0.338164 0
M  V30 4759 H 466.459 -3.88688 0.451392 0
M  V30 4760 H 466.082 -3.77117 -1.25972 0
M  V30 4761 N 467.08 -0.0183926 -1.57589 0
M  V30 4762 C 468.03 0.975944 -2.06057 0
M  V30 4763 C 469.014 1.29204 -0.958908 0
M  V30 4764 O 470.206 1.27995 -1.22255 0
M  V30 4765 C 467.335 2.26194 -2.58247 0
M  V30 4766 C 466.421 1.97467 -3.75323 0
M  V30 4767 N 466.812 1.38968 -4.86335 0
M  V30 4768 C 465.11 2.27515 -3.83605 0
M  V30 4769 C 465.811 1.27131 -5.67638 0
M  V30 4770 N 464.787 1.76319 -5.14211 0
M  V30 4771 H 468.589 0.518444 -2.89291 0
M  V30 4772 H 466.103 0.18688 -1.61321 0
M  V30 4773 H 468.1 2.98289 -2.91255 0
M  V30 4774 H 466.76 2.7258 -1.76438 0
M  V30 4775 H 467.771 1.06608 -5.06809 0
M  V30 4776 H 464.448 2.76649 -3.12684 0
M  V30 4777 H 465.838 0.819882 -6.66879 0
M  V30 4778 N 468.558 1.5553 0.254621 0
M  V30 4779 C 469.786 1.81046 1.00149 0
M  V30 4780 C 470.201 0.593047 1.79244 0
M  V30 4781 O 469.558 -0.438196 1.77161 0
M  V30 4782 C 469.609 3.04684 1.94551 0
M  V30 4783 O 469.33 4.21725 1.18658 0
M  V30 4784 C 470.831 3.42943 2.80901 0
M  V30 4785 H 468.051 0.602653 0.295044 0
M  V30 4786 H 470.595 2.02576 0.279842 0
M  V30 4787 H 468.75 2.85226 2.62154 0
M  V30 4788 H 469.164 4.91746 1.82445 0
M  V30 4789 H 470.638 4.32576 3.42902 0
M  V30 4790 H 471.115 2.63176 3.51617 0
M  V30 4791 H 471.721 3.64724 2.18762 0
M  V30 4792 N 470.036 -0.519951 1.48776 0
M  V30 4793 C 470.983 -1.62352 1.64044 0
M  V30 4794 C 471.953 -1.58945 0.482251 0
M  V30 4795 O 473.138 -1.77219 0.706971 0
M  V30 4796 C 470.278 -3.00579 1.69547 0
M  V30 4797 C 469.391 -3.14145 2.96541 0
M  V30 4798 C 468.526 -4.42991 2.93142 0
M  V30 4799 C 467.565 -4.50122 4.14797 0
M  V30 4800 N 466.702 -5.7037 4.09418 0
M  V30 4801 H 471.542 -1.48643 2.58281 0
M  V30 4802 H 469.079 -0.723516 1.28077 0
M  V30 4803 H 471.037 -3.80671 1.70719 0
M  V30 4804 H 469.667 -3.13036 0.787918 0
M  V30 4805 H 468.719 -2.27239 3.05068 0
M  V30 4806 H 470.031 -3.15275 3.86527 0
M  V30 4807 H 469.185 -5.31385 2.92772 0
M  V30 4808 H 467.924 -4.44398 2.00902 0
M  V30 4809 H 466.929 -3.60133 4.15433 0
M  V30 4810 H 468.154 -4.50445 5.08208 0
M  V30 4811 H 466.1 -5.72655 3.20004 0
M  V30 4812 H 466.017 -5.73036 4.93119 0
M  V30 4813 H 467.285 -6.61023 4.13121 0
M  V30 4814 N 471.514 -1.37532 -0.769588 0
M  V30 4815 C 472.446 -1.29347 -1.89214 0
M  V30 4816 C 473.459 -0.208842 -1.61455 0
M  V30 4817 O 474.648 -0.465158 -1.72333 0
M  V30 4818 C 471.748 -0.977649 -3.24492 0
M  V30 4819 C 470.921 -2.16817 -3.7988 0
M  V30 4820 C 469.98 -1.82229 -4.93639 0
M  V30 4821 O 469.006 -2.54548 -5.09111 0
M  V30 4822 N 470.208 -0.767696 -5.75401 0
M  V30 4823 H 472.973 -2.26073 -1.96751 0
M  V30 4824 H 470.534 -1.31185 -0.948795 0
M  V30 4825 H 472.526 -0.727065 -3.98115 0
M  V30 4826 H 471.096 -0.0988777 -3.12444 0
M  V30 4827 H 470.316 -2.58038 -2.9801 0
M  V30 4828 H 471.604 -2.96308 -4.13617 0
M  V30 4829 H 471.002 -0.167626 -5.65452 0
M  V30 4830 H 469.559 -0.576973 -6.49241 0
M  V30 4831 N 472.992 0.995999 -1.22138 0
M  V30 4832 C 473.94 2.10673 -0.985876 0
M  V30 4833 C 474.934 1.69255 0.0699553 0
M  V30 4834 O 476.14 1.79812 -0.0822176 0
M  V30 4835 H 472.515 0.688865 -0.30161 0
M  V30 4836 H 474.486 2.27711 -1.92848 0
M  V30 4837 C 473.235 3.42881 -0.576909 0
M  V30 4838 H 472.558 3.75191 -1.38101 0
M  V30 4839 H 473.998 4.21589 -0.451518 0
M  V30 4840 C 472.457 3.29265 0.713196 0
M  V30 4841 O 472.987 3.60777 1.76643 0
M  V30 4842 N 471.193 2.82456 0.683162 0
M  V30 4843 H 470.74 2.5701 -0.174242 0
M  V30 4844 H 470.698 2.73727 1.54663 0
M  V30 4845 N 474.47 1.03057 1.19235 0
M  V30 4846 C 475.402 0.570932 2.21975 0
M  V30 4847 C 476.415 -0.354088 1.58903 0
M  V30 4848 O 477.604 -0.150211 1.77867 0
M  V30 4849 C 474.704 -0.187152 3.38383 0
M  V30 4850 C 473.877 0.743231 4.31039 0
M  V30 4851 C 472.936 0.0302493 5.26191 0
M  V30 4852 O 471.962 0.657371 5.65391 0
M  V30 4853 N 473.164 -1.23991 5.67104 0
M  V30 4854 H 475.929 1.45456 2.62036 0
M  V30 4855 H 473.49 0.909807 1.33918 0
M  V30 4856 H 475.482 -0.673715 3.99053 0
M  V30 4857 H 474.052 -0.972205 2.97098 0
M  V30 4858 H 473.272 1.40985 3.68126 0
M  V30 4859 H 474.56 1.3755 4.89854 0
M  V30 4860 H 473.958 -1.77011 5.37293 0
M  V30 4861 H 472.515 -1.67093 6.30018 0
M  V30 4862 N 475.948 -1.35272 0.808662 0
M  V30 4863 C 477.225 -1.93077 0.313181 0
M  V30 4864 C 477.605 -1.73847 -1.19752 0
M  V30 4865 O 476.953 -1.1087 -1.998 0
M  V30 4866 C 477.163 -3.41347 0.726859 0
M  V30 4867 C 478.511 -4.18493 0.717532 0
M  V30 4868 O 479.535 -3.4987 0.668535 0
M  V30 4869 O 478.394 -5.40937 0.777779 0
M  V30 4870 H 475.488 -0.822885 0.0824018 0
M  V30 4871 H 478.034 -1.44335 0.892499 0
M  V30 4872 H 476.806 -3.49082 1.76797 0
M  V30 4873 H 476.429 -3.97411 0.122461 0
M  V30 4874 N 477.426 -0.562348 -1.47226 0
M  V30 4875 C 478.672 -0.0485293 -2.03342 0
M  V30 4876 C 479.027 1.28898 -1.42839 0
M  V30 4877 O 478.32 1.82719 -0.576563 0
M  V30 4878 C 478.514 0.0969817 -3.57268 0
M  V30 4879 C 478.343 -1.22487 -4.32697 0
M  V30 4880 C 477.113 -1.79357 -4.72397 0
M  V30 4881 C 479.311 -2.14332 -4.67511 0
M  V30 4882 N 477.293 -3.05493 -5.32491 0
M  V30 4883 C 478.664 -3.25049 -5.27961 0
M  V30 4884 C 480.719 -2.14263 -4.4944 0
M  V30 4885 C 479.422 -4.35804 -5.72248 0
M  V30 4886 C 481.448 -3.24033 -4.94729 0
M  V30 4887 C 480.81 -4.3347 -5.55233 0
M  V30 4888 H 476.909 -0.0600464 -0.779691 0
M  V30 4889 H 479.493 -0.750769 -1.79643 0
M  V30 4890 H 477.664 0.768353 -3.80724 0
M  V30 4891 H 479.396 0.613333 -4.00025 0
M  V30 4892 H 476.151 -1.33093 -4.54514 0
M  V30 4893 H 476.575 -3.698 -5.67077 0
M  V30 4894 H 481.217 -1.30935 -4.02015 0
M  V30 4895 H 478.935 -5.19888 -6.18661 0
M  V30 4896 H 482.521 -3.25073 -4.82513 0
M  V30 4897 H 481.401 -5.17008 -5.89638 0
M  V30 4898 N 478.904 1.54736 -0.299062 0
M  V30 4899 C 480.132 2.04512 0.313447 0
M  V30 4900 C 480.547 1.17643 1.47667 0
M  V30 4901 O 479.904 0.20164 1.81383 0
M  V30 4902 C 479.955 3.53171 0.771542 0
M  V30 4903 O 479.676 4.36736 -0.345379 0
M  V30 4904 C 481.177 4.18936 1.4494 0
M  V30 4905 H 478.397 0.667507 0.0683784 0
M  V30 4906 H 480.941 1.99752 -0.438129 0
M  V30 4907 H 479.096 3.58298 1.47314 0
M  V30 4908 H 479.51 5.24499 0.0109219 0
M  V30 4909 H 480.984 5.24482 1.72111 0
M  V30 4910 H 481.461 3.68554 2.38883 0
M  V30 4911 H 482.067 4.17879 0.791028 0
M  V30 4912 N 480.382 0.0267497 1.57577 0
M  V30 4913 C 481.314 -0.984594 2.06974 0
M  V30 4914 C 482.327 -1.29032 0.992705 0
M  V30 4915 O 483.516 -1.25539 1.26895 0
M  V30 4916 C 480.616 -2.31262 2.47732 0
M  V30 4917 C 479.789 -2.1924 3.78487 0
M  V30 4918 C 478.848 -3.34956 4.05821 0
M  V30 4919 O 477.874 -3.11948 4.76106 0
M  V30 4920 N 479.076 -4.58672 3.55809 0
M  V30 4921 H 481.841 -0.563143 2.94362 0
M  V30 4922 H 479.402 -0.160061 1.61107 0
M  V30 4923 H 481.394 -3.07496 2.63112 0
M  V30 4924 H 479.964 -2.65056 1.65723 0
M  V30 4925 H 479.184 -1.27747 3.72927 0
M  V30 4926 H 480.472 -2.08409 4.64158 0
M  V30 4927 H 479.87 -4.8026 2.98942 0
M  V30 4928 H 478.427 -5.32083 3.76472 0
M  V30 4929 N 481.861 -1.55662 -0.24637 0
M  V30 4930 C 483.107 -1.78698 -0.971525 0
M  V30 4931 C 483.462 -0.59577 -1.82944 0
M  V30 4932 O 482.755 0.41097 -1.87141 0
M  V30 4933 C 482.949 -3.04885 -1.86494 0
M  V30 4934 C 482.778 -4.36165 -1.09501 0
M  V30 4935 C 481.548 -4.98929 -0.799895 0
M  V30 4936 C 483.746 -5.12126 -0.472334 0
M  V30 4937 N 481.728 -6.139 -0.00595299 0
M  V30 4938 C 483.099 -6.1972 0.18616 0
M  V30 4939 C 485.154 -4.96426 -0.382854 0
M  V30 4940 C 483.857 -7.13321 0.925542 0
M  V30 4941 C 485.883 -5.90405 0.342999 0
M  V30 4942 C 485.245 -6.97407 0.990128 0
M  V30 4943 H 481.344 -0.705852 -0.336597 0
M  V30 4944 H 483.928 -1.93157 -0.244615 0
M  V30 4945 H 482.099 -2.91753 -2.56388 0
M  V30 4946 H 483.831 -3.16212 -2.5257 0
M  V30 4947 H 480.586 -4.60365 -1.11181 0
M  V30 4948 H 481.01 -6.75938 0.379127 0
M  V30 4949 H 485.652 -4.13777 -0.868834 0
M  V30 4950 H 483.37 -7.9547 1.42312 0
M  V30 4951 H 486.956 -5.80333 0.412907 0
M  V30 4952 H 485.836 -7.68874 1.54282 0
M  V30 4953 N 483.339 0.512053 -1.4905 0
M  V30 4954 C 484.287 1.63568 -1.65373 0
M  V30 4955 C 485.281 1.61228 -0.519806 0
M  V30 4956 O 486.487 1.65869 -0.699101 0
M  V30 4957 H 482.862 0.542019 -0.521267 0
M  V30 4958 H 484.833 1.4695 -2.59708 0
M  V30 4959 C 483.582 3.01761 -1.7273 0
M  V30 4960 H 482.905 3.04263 -2.59353 0
M  V30 4961 H 484.345 3.79948 -1.8819 0
M  V30 4962 C 482.804 3.33609 -0.46973 0
M  V30 4963 O 483.334 3.99607 0.409492 0
M  V30 4964 N 481.54 2.88651 -0.336003 0
M  V30 4965 H 481.087 2.35119 -1.05247 0
M  V30 4966 H 481.045 3.10328 0.504363 0
M  V30 4967 N 484.817 1.37938 0.762283 0
M  V30 4968 C 486.228 1.30094 1.33912 0
M  V30 4969 C 486.579 -0.0472026 1.96143 0
M  V30 4970 O 485.704 -0.94917 1.94473 0
M  V30 4971 C 486.299 2.35592 2.43478 0
M  V30 4972 C 484.858 2.31353 2.96905 0
M  V30 4973 C 484.005 2.18919 1.70205 0
M  V30 4974 H 486.956 1.48423 0.561816 0
M  V30 4975 H 486.977 2.00806 3.23199 0
M  V30 4976 H 486.489 3.33701 1.98155 0
M  V30 4977 H 484.59 1.36799 3.46579 0
M  V30 4978 H 484.703 3.25147 3.51875 0
M  V30 4979 H 483.067 1.65624 1.93496 0
M  V30 4980 H 483.85 3.18956 1.26973 0
M  V30 4981 N 486.295 -0.989507 1.22664 0
M  V30 4982 C 487.52 -1.77031 1.08051 0
M  V30 4983 C 487.945 -1.84535 -0.364483 0
M  V30 4984 O 487.303 -1.3003 -1.2634 0
M  V30 4985 C 487.351 -3.18 1.70024 0
M  V30 4986 O 486.455 -4.01161 0.956216 0
M  V30 4987 H 485.796 -0.545008 0.379292 0
M  V30 4988 H 488.326 -1.24277 1.62531 0
M  V30 4989 H 488.336 -3.68616 1.74888 0
M  V30 4990 H 487.011 -3.11853 2.75174 0
M  V30 4991 H 485.588 -3.59687 0.98384 0
M  V30 4992 N 487.773 -1.03688 -1.18687 0
M  V30 4993 C 488.723 -0.595067 -2.20098 0
M  V30 4994 C 489.707 0.360465 -1.5681 0
M  V30 4995 O 490.899 0.180136 -1.76081 0
M  V30 4996 C 488.028 0.0444495 -3.43271 0
M  V30 4997 C 487.114 -0.934002 -4.13687 0
M  V30 4998 N 487.505 -2.09957 -4.60165 0
M  V30 4999 C 485.803 -0.759177 -4.39491 0
M  V30 5000 C 486.504 -2.71735 -5.1433 0
M  V30 5001 N 485.48 -1.99638 -5.05614 0
M  V30 5002 H 489.282 -1.48336 -2.5372 0
M  V30 5003 H 486.796 -0.904949 -1.3485 0
M  V30 5004 H 488.793 0.37864 -4.15177 0
M  V30 5005 H 487.453 0.928325 -3.11147 0
M  V30 5006 H 488.464 -2.47863 -4.54735 0
M  V30 5007 H 485.141 0.0749292 -4.17433 0
M  V30 5008 H 486.531 -3.70492 -5.60523 0
M  V30 5009 N 489.251 1.34841 -0.815825 0
M  V30 5010 C 490.476 2.03261 -0.41226 0
M  V30 5011 C 490.901 1.61055 0.971751 0
M  V30 5012 O 490.259 0.7917 1.63101 0
M  V30 5013 C 490.307 3.56914 -0.514289 0
M  V30 5014 O 489.411 4.09728 0.468675 0
M  V30 5015 H 488.752 0.641664 -0.170771 0
M  V30 5016 H 491.282 1.72241 -1.10427 0
M  V30 5017 H 491.292 4.06156 -0.387457 0
M  V30 5018 H 489.967 3.86982 -1.52375 0
M  V30 5019 H 488.544 3.71681 0.301316 0
M  V30 5020 N 490.729 0.570148 1.46925 0
M  V30 5021 C 491.677 -0.183181 2.31878 0
M  V30 5022 C 492.671 -0.896721 1.43719 0
M  V30 5023 O 493.877 -0.816536 1.60414 0
M  V30 5024 H 490.252 -0.077944 0.74795 0
M  V30 5025 H 492.223 0.552312 2.93244 0
M  V30 5026 C 490.972 -1.19172 3.2664 0
M  V30 5027 H 490.295 -0.652088 3.94446 0
M  V30 5028 H 491.735 -1.68946 3.88887 0
M  V30 5029 C 490.194 -2.24627 2.51086 0
M  V30 5030 O 490.724 -3.31773 2.26472 0
M  V30 5031 N 488.93 -1.98898 2.11867 0
M  V30 5032 H 488.477 -1.11777 2.32086 0
M  V30 5033 H 488.435 -2.6967 1.61634 0
M  V30 5034 N 492.207 -1.54576 0.307264 0
M  V30 5035 C 493.618 -1.8579 -0.184121 0
M  V30 5036 C 493.969 -1.22914 -1.52927 0
M  V30 5037 O 493.094 -0.529126 -2.09831 0
M  V30 5038 C 493.689 -3.37081 -0.340862 0
M  V30 5039 C 492.248 -3.68304 -0.776465 0
M  V30 5040 C 491.395 -2.77076 0.111503 0
M  V30 5041 H 494.346 -1.49656 0.528078 0
M  V30 5042 H 494.367 -3.61922 -1.17443 0
M  V30 5043 H 493.879 -3.82815 0.638309 0
M  V30 5044 H 491.98 -3.28092 -1.76596 0
M  V30 5045 H 492.093 -4.75434 -0.591512 0
M  V30 5046 H 490.457 -2.51374 -0.410256 0
M  V30 5047 H 491.24 -3.25632 1.08714 0
M  V30 5048 N 493.685 -0.035106 -1.57561 0
M  V30 5049 C 494.595 0.960295 -2.14046 0
M  V30 5050 C 495.611 1.3529 -1.0942 0
M  V30 5051 O 496.787 1.43309 -1.41508 0
M  V30 5052 C 493.852 2.22214 -2.66124 0
M  V30 5053 C 492.913 1.8894 -3.85487 0
M  V30 5054 C 492.146 3.09109 -4.35072 0
M  V30 5055 O 492.369 4.21963 -3.83802 0
M  V30 5056 O 491.303 2.91058 -5.26848 0
M  V30 5057 H 495.129 0.509983 -2.99387 0
M  V30 5058 H 492.714 0.185853 -1.48239 0
M  V30 5059 H 494.596 2.96279 -2.99661 0
M  V30 5060 H 493.271 2.66414 -1.83862 0
M  V30 5061 H 492.178 1.12241 -3.56865 0
M  V30 5062 H 493.511 1.49551 -4.6893 0
M  V30 5063 N 495.163 1.55791 0.238111 0
M  V30 5064 C 496.409 1.78297 0.966337 0
M  V30 5065 C 496.742 0.601903 1.84637 0
M  V30 5066 O 496.017 -0.399499 1.90353 0
M  V30 5067 C 496.3 3.10758 1.81939 0
M  V30 5068 C 496.153 4.39283 0.966958 0
M  V30 5069 C 497.472 3.39519 2.80027 0
M  V30 5070 H 494.591 0.648654 0.349882 0
M  V30 5071 H 497.233 1.88525 0.236253 0
M  V30 5072 H 495.383 3.02168 2.44185 0
M  V30 5073 H 497.055 4.59873 0.362514 0
M  V30 5074 H 495.298 4.32948 0.271669 0
M  V30 5075 H 495.969 5.28368 1.59784 0
M  V30 5076 H 498.445 3.48128 2.27917 0
M  V30 5077 H 497.321 4.33402 3.36829 0
M  V30 5078 H 497.582 2.60864 3.56934 0
M  V30 5079 N 496.642 -0.504142 1.49319 0
M  V30 5080 C 497.572 -1.61473 1.68667 0
M  V30 5081 C 498.553 -1.61455 0.535378 0
M  V30 5082 O 499.738 -1.78245 0.770868 0
M  V30 5083 C 496.868 -2.99971 1.75028 0
M  V30 5084 C 495.822 -3.14854 2.89916 0
M  V30 5085 C 495.148 -4.54671 2.81387 0
M  V30 5086 C 496.448 -2.95176 4.30893 0
M  V30 5087 H 498.142 -1.45535 2.61648 0
M  V30 5088 H 495.688 -0.698711 1.25913 0
M  V30 5089 H 497.641 -3.77562 1.8715 0
M  V30 5090 H 496.365 -3.1699 0.786441 0
M  V30 5091 H 495.024 -2.39687 2.77391 0
M  V30 5092 H 494.672 -4.68562 1.82917 0
M  V30 5093 H 494.372 -4.6557 3.58494 0
M  V30 5094 H 495.896 -5.34327 2.95512 0
M  V30 5095 H 497.31 -3.62538 4.44116 0
M  V30 5096 H 495.707 -3.17549 5.09198 0
M  V30 5097 H 496.777 -1.91332 4.45556 0
M  V30 5098 N 498.12 -1.38341 -0.754957 0
M  V30 5099 C 499.05 -1.38176 -1.88227 0
M  V30 5100 C 500.031 -0.247873 -1.68284 0
M  V30 5101 O 501.216 -0.45075 -1.88896 0
M  V30 5102 C 498.346 -1.20471 -3.25736 0
M  V30 5103 C 497.3 -2.3105 -3.60278 0
M  V30 5104 C 496.626 -1.98452 -4.96509 0
M  V30 5105 C 497.926 -3.73305 -3.65295 0
M  V30 5106 H 499.62 -2.32512 -1.88622 0
M  V30 5107 H 497.166 -1.1192 -0.906082 0
M  V30 5108 H 499.119 -1.18982 -4.04254 0
M  V30 5109 H 497.843 -0.225965 -3.25817 0
M  V30 5110 H 496.502 -2.31723 -2.84078 0
M  V30 5111 H 496.15 -0.990641 -4.93148 0
M  V30 5112 H 495.85 -2.7251 -5.20588 0
M  V30 5113 H 497.374 -1.98578 -5.77407 0
M  V30 5114 H 498.788 -3.7467 -4.3393 0
M  V30 5115 H 497.185 -4.46557 -4.00883 0
M  V30 5116 H 498.255 -4.05719 -2.65556 0
M  V30 5117 N 499.598 0.982988 -1.23187 0
M  V30 5118 C 500.53 2.07729 -0.968572 0
M  V30 5119 C 501.543 1.62702 0.0564821 0
M  V30 5120 O 502.732 1.77603 -0.178733 0
M  V30 5121 C 499.832 3.36071 -0.436974 0
M  V30 5122 C 499.005 4.10081 -1.52159 0
M  V30 5123 C 498.064 5.16701 -0.99532 0
M  V30 5124 O 497.09 5.43727 -1.68373 0
M  V30 5125 N 498.292 5.80226 0.178192 0
M  V30 5126 H 501.057 2.30894 -1.9107 0
M  V30 5127 H 498.618 1.14949 -1.1401 0
M  V30 5128 H 500.61 4.04639 -0.0700051 0
M  V30 5129 H 499.18 3.09893 0.410509 0
M  V30 5130 H 498.4 3.36004 -2.06144 0
M  V30 5131 H 499.688 4.56295 -2.25105 0
M  V30 5132 H 499.086 5.60651 0.754096 0
M  V30 5133 H 497.643 6.49982 0.486449 0
M  V30 5134 N 501.076 1.04316 1.18135 0
M  V30 5135 C 502.304 0.768117 1.92113 0
M  V30 5136 C 502.719 -0.675057 1.76319 0
M  V30 5137 O 502.076 -1.46038 1.09449 0
M  V30 5138 C 502.127 1.12808 3.43448 0
M  V30 5139 O 501.848 2.5146 3.58747 0
M  V30 5140 C 503.349 0.8779 4.3452 0
M  V30 5141 H 500.569 0.279937 0.609817 0
M  V30 5142 H 503.113 1.39149 1.49859 0
M  V30 5143 H 501.268 0.549623 3.83481 0
M  V30 5144 H 501.682 2.65313 4.52448 0
M  V30 5145 H 503.156 1.17959 5.39249 0
M  V30 5146 H 503.633 -0.187239 4.38801 0
M  V30 5147 H 504.239 1.43977 4.00188 0
M  V30 5148 N 502.554 -1.34406 0.822964 0
M  V30 5149 C 503.782 -2.02508 0.424039 0
M  V30 5150 C 504.197 -1.61975 -0.970022 0
M  V30 5151 O 503.554 -0.825228 -1.62777 0
M  V30 5152 C 503.605 -3.57789 0.516657 0
M  V30 5153 O 503.326 -3.96853 1.85577 0
M  V30 5154 C 504.827 -4.43157 0.112637 0
M  V30 5155 H 502.047 -0.649063 0.170173 0
M  V30 5156 H 504.591 -1.7168 1.11113 0
M  V30 5157 H 502.746 -3.87207 -0.122353 0
M  V30 5158 H 503.16 -4.91538 1.83005 0
M  V30 5159 H 504.634 -5.51527 0.228526 0
M  V30 5160 H 505.111 -4.28939 -0.943837 0
M  V30 5161 H 505.717 -4.19067 0.725449 0
M  V30 5162 N 504.032 -0.577932 -1.46621 0
M  V30 5163 C 505.26 -0.0671642 -2.06791 0
M  V30 5164 C 505.675 1.23571 -1.42743 0
M  V30 5165 O 505.032 1.74602 -0.531062 0
M  V30 5166 C 505.083 0.110357 -3.61332 0
M  V30 5167 O 504.804 -1.14095 -4.22982 0
M  V30 5168 C 506.305 0.656025 -4.38419 0
M  V30 5169 H 503.525 -0.0552732 -0.66872 0
M  V30 5170 H 506.069 -0.797242 -1.8832 0
M  V30 5171 H 504.224 0.790637 -3.79246 0
M  V30 5172 H 504.638 -0.951742 -5.15793 0
M  V30 5173 H 506.112 0.729438 -5.47159 0
M  V30 5174 H 506.589 1.67195 -4.06131 0
M  V30 5175 H 507.195 0.0107692 -4.25299 0
M  V30 5176 N 505.51 1.54411 -0.315457 0
M  V30 5177 C 506.926 1.59556 0.037464 0
M  V30 5178 C 507.126 1.33217 1.5118 0
M  V30 5179 O 506.182 1.11264 2.26664 0
M  V30 5180 C 507.495 2.98372 -0.373477 0
M  V30 5181 C 509.043 3.11324 -0.323452 0
M  V30 5182 C 509.518 4.52472 -0.709433 0
M  V30 5183 N 511.009 4.58437 -0.662524 0
M  V30 5184 C 511.744 5.65751 -0.933474 0
M  V30 5185 N 511.24 6.81039 -1.27114 0
M  V30 5186 N 513.033 5.55489 -0.859573 0
M  V30 5187 H 505.184 1.6979 -1.27614 0
M  V30 5188 H 507.447 0.793732 -0.518356 0
M  V30 5189 H 507.153 3.22618 -1.40037 0
M  V30 5190 H 507.027 3.76264 0.265615 0
M  V30 5191 H 509.414 2.86818 0.694223 0
M  V30 5192 H 509.495 2.35555 -0.997367 0
M  V30 5193 H 509.139 4.7771 -1.72498 0
M  V30 5194 H 509.069 5.26598 -0.0132923 0
M  V30 5195 H 511.56 3.75636 -0.413065 0
M  V30 5196 H 511.873 7.58816 -1.46348 0
M  V30 5197 H 510.218 6.82555 -1.30932 0
M  V30 5198 H 513.409 4.64299 -0.595324 0
M  V30 5199 H 513.582 6.39036 -1.0741 0
M  V30 5200 N 506.988 0.0434614 1.5754 0
M  V30 5201 C 507.921 -0.968729 2.06618 0
M  V30 5202 C 508.899 -1.30868 0.965 0
M  V30 5203 O 510.083 -1.42288 1.23638 0
M  V30 5204 C 507.21 -2.28486 2.50023 0
M  V30 5205 C 506.256 -2.09851 3.71302 0
M  V30 5206 S 507.089 -1.38401 5.17306 0
M  V30 5207 C 508.245 -2.71354 5.64019 0
M  V30 5208 H 508.478 -0.551021 2.92149 0
M  V30 5209 H 506.011 -0.168607 1.53477 0
M  V30 5210 H 507.969 -3.04142 2.75695 0
M  V30 5211 H 506.63 -2.67387 1.64812 0
M  V30 5212 H 505.823 -3.07184 3.99567 0
M  V30 5213 H 505.425 -1.42336 3.45856 0
M  V30 5214 H 507.717 -3.67549 5.69134 0
M  V30 5215 H 508.66 -2.47734 6.6335 0
M  V30 5216 H 509.068 -2.77259 4.91719 0
M  V30 5217 N 508.466 -1.55915 -0.229846 0
M  V30 5218 C 509.694 -1.82617 -0.972562 0
M  V30 5219 C 510.109 -0.621488 -1.78278 0
M  V30 5220 O 509.466 0.409956 -1.77836 0
M  V30 5221 C 509.517 -3.0774 -1.89679 0
M  V30 5222 O 509.238 -4.23559 -1.11934 0
M  V30 5223 C 510.739 -3.47368 -2.75409 0
M  V30 5224 H 507.959 -0.60727 -0.285419 0
M  V30 5225 H 510.503 -2.02996 -0.247579 0
M  V30 5226 H 508.658 -2.89361 -2.57583 0
M  V30 5227 H 509.072 -4.94586 -1.74599 0
M  V30 5228 H 510.546 -4.37977 -3.35977 0
M  V30 5229 H 511.023 -2.68737 -3.47386 0
M  V30 5230 H 511.629 -3.68158 -2.12931 0
M  V30 5231 N 509.944 0.496216 -1.49584 0
M  V30 5232 C 511.221 1.25755 -1.49816 0
M  V30 5233 C 511.601 2.09859 -0.228572 0
M  V30 5234 O 510.949 2.14449 0.788908 0
M  V30 5235 C 511.159 2.11017 -2.7798 0
M  V30 5236 C 512.507 2.70047 -3.27658 0
M  V30 5237 O 513.531 2.21281 -2.79129 0
M  V30 5238 O 512.39 3.58834 -4.1219 0
M  V30 5239 H 509.484 0.569322 -0.599834 0
M  V30 5240 H 512.03 0.510094 -1.61852 0
M  V30 5241 H 510.802 1.48879 -3.61871 0
M  V30 5242 H 510.425 2.92947 -2.68827 0
M  V30 5243 N 511.423 1.38739 0.74761 0
M  V30 5244 C 512.669 1.35475 1.50912 0
M  V30 5245 C 513.002 -0.0533093 1.94127 0
M  V30 5246 O 512.277 -1.01572 1.65871 0
M  V30 5247 C 512.56 2.31582 2.75757 0
M  V30 5248 C 512.413 3.81274 2.38642 0
M  V30 5249 C 513.732 2.25722 3.77806 0
M  V30 5250 H 510.851 0.493427 0.547447 0
M  V30 5251 H 513.493 1.69634 0.855823 0
M  V30 5252 H 511.643 2.02582 3.31501 0
M  V30 5253 H 513.315 4.20972 1.88626 0
M  V30 5254 H 511.558 3.98664 1.71025 0
M  V30 5255 H 512.229 4.4399 3.27989 0
M  V30 5256 H 514.705 2.51336 3.31616 0
M  V30 5257 H 513.581 2.95069 4.62845 0
M  V30 5258 H 513.842 1.25803 4.23823 0
M  V30 5259 N 512.901 -0.976442 1.23707 0
M  V30 5260 C 514.178 -1.69296 0.979699 0
M  V30 5261 C 514.558 -2.0508 -0.500555 0
M  V30 5262 O 513.906 -1.74708 -1.47273 0
M  V30 5263 C 514.116 -2.93143 1.89389 0
M  V30 5264 C 515.464 -3.65572 2.15968 0
M  V30 5265 O 516.488 -3.03184 1.86971 0
M  V30 5266 O 515.347 -4.77859 2.65167 0
M  V30 5267 H 512.441 -0.739708 0.369812 0
M  V30 5268 H 514.987 -1.03131 1.34767 0
M  V30 5269 H 513.759 -2.63327 2.89439 0
M  V30 5270 H 513.382 -3.67044 1.52854 0
M  V30 5271 N 514.379 -1.04941 -1.1758 0
M  V30 5272 C 515.795 -0.770282 -1.39781 0
M  V30 5273 C 515.995 0.636417 -1.91186 0
M  V30 5274 O 515.051 1.39923 -2.10185 0
M  V30 5275 C 516.364 -1.82376 -2.3908 0
M  V30 5276 C 517.912 -1.84569 -2.52791 0
M  V30 5277 C 518.387 -2.88933 -3.55361 0
M  V30 5278 N 519.878 -2.8788 -3.62877 0
M  V30 5279 C 520.613 -3.65282 -4.41992 0
M  V30 5280 N 520.109 -4.52461 -5.24643 0
M  V30 5281 N 521.902 -3.53732 -4.36841 0
M  V30 5282 H 514.053 -1.95705 -0.825438 0
M  V30 5283 H 516.316 -0.847284 -0.425222 0
M  V30 5284 H 516.022 -2.83323 -2.08376 0
M  V30 5285 H 515.896 -1.66327 -3.38549 0
M  V30 5286 H 518.283 -0.842879 -2.82807 0
M  V30 5287 H 518.364 -2.04696 -1.53406 0
M  V30 5288 H 518.008 -3.89398 -3.26085 0
M  V30 5289 H 517.938 -2.66059 -4.54445 0
M  V30 5290 H 520.429 -2.24666 -3.03864 0
M  V30 5291 H 520.742 -5.08211 -5.82187 0
M  V30 5292 H 519.087 -4.56524 -5.24033 0
M  V30 5293 H 522.278 -2.85021 -3.71323 0
M  V30 5294 H 522.451 -4.14302 -4.98255 0
M  V30 5295 N 515.857 1.33968 -0.830081 0
M  V30 5296 C 516.805 2.31301 -0.245435 0
M  V30 5297 C 517.799 1.57734 0.617762 0
M  V30 5298 O 519.005 1.72674 0.508303 0
M  V30 5299 H 515.38 0.749552 -0.0606316 0
M  V30 5300 H 517.351 2.78129 -1.08105 0
M  V30 5301 C 516.1 3.42961 0.572084 0
M  V30 5302 H 515.423 3.99714 -0.0828118 0
M  V30 5303 H 516.863 4.13286 0.94715 0
M  V30 5304 C 515.322 2.88043 1.74737 0
M  V30 5305 O 515.852 2.83508 2.8458 0
M  V30 5306 N 514.058 2.44768 1.56642 0
M  V30 5307 H 513.605 2.48656 0.672901 0
M  V30 5308 H 513.563 2.08375 2.3543 0
M  V30 5309 N 517.335 0.585699 1.46312 0
M  V30 5310 C 518.583 0.072278 2.01971 0
M  V30 5311 C 518.904 -1.29345 1.45928 0
M  V30 5312 O 518.174 -1.84973 0.645109 0
M  V30 5313 H 516.754 0.023729 0.746623 0
M  V30 5314 H 519.416 0.762155 1.7938 0
M  V30 5315 H 518.512 0.00552767 3.121 0
M  V30 5316 N 518.813 -1.54241 0.323641 0
M  V30 5317 C 520.041 -2.04985 -0.280871 0
M  V30 5318 C 520.456 -1.19978 -1.45777 0
M  V30 5319 O 519.813 -0.230471 -1.81039 0
M  V30 5320 C 519.864 -3.54353 -0.715258 0
M  V30 5321 O 519.585 -4.36132 0.414817 0
M  V30 5322 C 521.086 -4.21189 -1.38257 0
M  V30 5323 H 518.306 -0.66851 -0.0577502 0
M  V30 5324 H 520.85 -1.99029 0.469852 0
M  V30 5325 H 519.005 -3.60596 -1.41596 0
M  V30 5326 H 519.419 -5.2445 0.0725227 0
M  V30 5327 H 520.893 -5.27154 -1.63745 0
M  V30 5328 H 521.37 -3.72307 -2.32989 0
M  V30 5329 H 521.976 -4.19085 -0.724447 0
M  V30 5330 N 520.291 -0.0518155 -1.57515 0
M  V30 5331 C 521.519 0.631395 -1.9703 0
M  V30 5332 C 521.934 1.64341 -0.92938 0
M  V30 5333 O 521.291 1.82296 0.0863266 0
M  V30 5334 C 521.342 1.31774 -3.36627 0
M  V30 5335 O 521.063 0.346247 -4.3673 0
M  V30 5336 C 522.564 2.09065 -3.90905 0
M  V30 5337 H 519.784 0.172576 -0.648428 0
M  V30 5338 H 522.328 -0.118306 -2.04158 0
M  V30 5339 H 520.483 2.01867 -3.30649 0
M  V30 5340 H 520.897 0.836226 -5.17791 0
M  V30 5341 H 522.371 2.52508 -4.9086 0
M  V30 5342 H 522.848 2.93908 -3.26366 0
M  V30 5343 H 523.454 1.43882 -4.00223 0
M  V30 5344 N 521.769 1.56035 0.221574 0
M  V30 5345 C 522.732 1.91584 1.2581 0
M  V30 5346 C 523.732 0.794425 1.39805 0
M  V30 5347 O 524.922 1.06217 1.38071 0
M  V30 5348 C 522.054 2.16663 2.63192 0
M  V30 5349 H 523.247 2.8429 0.954935 0
M  V30 5350 H 520.8 1.49316 0.461988 0
M  V30 5351 H 521.535 1.26508 2.98607 0
M  V30 5352 H 521.32 2.98358 2.5441 0
M  V30 5353 H 522.81 2.45262 3.37988 0
M  V30 5354 N 523.247 -0.488276 1.49845 0
M  V30 5355 C 524.477 -1.26344 1.63465 0
M  V30 5356 C 524.885 -1.86637 0.310379 0
M  V30 5357 O 524.228 -1.69184 -0.715712 0
M  V30 5358 C 524.29 -2.42407 2.65479 0
M  V30 5359 C 523.954 -2.02886 4.09495 0
M  V30 5360 C 524.951 -1.56124 4.95904 0
M  V30 5361 C 522.636 -2.12131 4.55308 0
M  V30 5362 C 524.63 -1.19129 6.26169 0
M  V30 5363 C 522.317 -1.74747 5.85582 0
M  V30 5364 C 523.315 -1.28322 6.70837 0
M  V30 5365 O 523.003 -0.914491 7.98682 0
M  V30 5366 H 522.735 -0.388921 0.552916 0
M  V30 5367 H 525.289 -0.591288 1.96705 0
M  V30 5368 H 523.519 -3.12739 2.27445 0
M  V30 5369 H 525.208 -3.04409 2.68495 0
M  V30 5370 H 525.974 -1.48417 4.61733 0
M  V30 5371 H 521.853 -2.47217 3.89107 0
M  V30 5372 H 525.397 -0.828211 6.92666 0
M  V30 5373 H 521.294 -1.82109 6.19279 0
M  V30 5374 H 522.062 -1.04485 8.11804 0
M  V30 5375 N 524.725 -1.39134 -0.740242 0
M  V30 5376 C 525.635 -1.39697 -1.88473 0
M  V30 5377 C 526.651 -0.292403 -1.71526 0
M  V30 5378 O 527.827 -0.533021 -1.94219 0
M  V30 5379 C 524.892 -1.23382 -3.24003 0
M  V30 5380 C 523.953 -2.43763 -3.53381 0
M  V30 5381 C 523.186 -2.28216 -4.82445 0
M  V30 5382 O 523.409 -1.28288 -5.55786 0
M  V30 5383 O 522.343 -3.1709 -5.11603 0
M  V30 5384 H 526.169 -2.36159 -1.90952 0
M  V30 5385 H 523.754 -1.20194 -0.887346 0
M  V30 5386 H 525.636 -1.16395 -4.05006 0
M  V30 5387 H 524.311 -0.300121 -3.22306 0
M  V30 5388 H 523.218 -2.56325 -2.72485 0
M  V30 5389 H 524.551 -3.35808 -3.59852 0
M  V30 5390 N 526.204 0.969867 -1.24223 0
M  V30 5391 C 527.452 1.70918 -1.0785 0
M  V30 5392 C 527.773 1.91186 0.383763 0
M  V30 5393 O 527.043 1.48806 1.27411 0
M  V30 5394 H 525.623 0.633334 -0.396103 0
M  V30 5395 H 528.285 1.16689 -1.56108 0
M  V30 5396 H 527.381 2.69455 -1.57482 0
M  V30 5397 N 527.682 1.05563 1.17022 0
M  V30 5398 C 528.63 0.653887 2.2322 0
M  V30 5399 C 529.624 -0.326642 1.66221 0
M  V30 5400 O 530.83 -0.192301 1.7897 0
M  V30 5401 H 527.205 0.193297 0.726733 0
M  V30 5402 H 529.176 1.5596 2.54399 0
M  V30 5403 C 527.925 0.0485434 3.47666 0
M  V30 5404 H 527.248 0.79413 3.91834 0
M  V30 5405 H 528.688 -0.195133 4.23551 0
M  V30 5406 C 527.147 -1.20583 3.14581 0
M  V30 5407 O 527.677 -2.29475 3.29703 0
M  V30 5408 N 525.883 -1.10493 2.68774 0
M  V30 5409 H 525.43 -0.218795 2.56669 0
M  V30 5410 H 525.388 -1.94507 2.47011 0
M  V30 5411 N 529.16 -1.33526 0.837174 0
M  V30 5412 C 530.406 -1.98541 0.44193 0
M  V30 5413 C 530.761 -1.65124 -0.987517 0
M  V30 5414 O 530.054 -0.919948 -1.6807 0
M  V30 5415 C 530.248 -3.52367 0.597675 0
M  V30 5416 C 530.077 -4.00731 2.04071 0
M  V30 5417 C 528.847 -4.28649 2.67559 0
M  V30 5418 C 531.045 -4.17073 3.00923 0
M  V30 5419 N 529.027 -4.63142 4.02955 0
M  V30 5420 C 530.398 -4.54905 4.21261 0
M  V30 5421 C 532.453 -3.99358 2.97351 0
M  V30 5422 C 531.156 -4.76874 5.38501 0
M  V30 5423 C 533.182 -4.22501 4.1382 0
M  V30 5424 C 532.544 -4.60634 5.32912 0
M  V30 5425 H 528.643 -0.753246 0.210105 0
M  V30 5426 H 531.227 -1.61674 1.08488 0
M  V30 5427 H 529.398 -3.88397 -0.0154658 0
M  V30 5428 H 531.13 -4.04326 0.17404 0
M  V30 5429 H 527.885 -4.20077 2.18706 0
M  V30 5430 H 528.309 -4.84601 4.72748 0
M  V30 5431 H 532.951 -3.68993 2.06408 0
M  V30 5432 H 530.669 -5.06101 6.2999 0
M  V30 5433 H 534.255 -4.10316 4.12471 0
M  V30 5434 H 533.135 -4.78187 6.21536 0
M  V30 5435 N 530.638 -0.59345 -1.46 0
M  V30 5436 C 531.586 0.146268 -2.3214 0
M  V30 5437 C 532.58 0.873743 -1.45128 0
M  V30 5438 O 533.786 0.790912 -1.61693 0
M  V30 5439 H 530.161 0.0660349 -0.749095 0
M  V30 5440 H 532.132 -0.598895 -2.92328 0
M  V30 5441 C 530.881 1.1396 -3.28494 0
M  V30 5442 H 530.204 0.589252 -3.95434 0
M  V30 5443 H 531.644 1.62738 -3.91526 0
M  V30 5444 C 530.103 2.20604 -2.54628 0
M  V30 5445 O 530.633 3.28128 -2.31722 0
M  V30 5446 N 528.839 1.95502 -2.15005 0
M  V30 5447 H 528.386 1.0807 -2.33834 0
M  V30 5448 H 528.344 2.67064 -1.65904 0
M  V30 5449 N 532.116 1.54067 -0.331816 0
M  V30 5450 C 533.527 1.86059 0.15454 0
M  V30 5451 C 533.878 1.25331 1.50952 0
M  V30 5452 O 533.003 0.562441 2.08963 0
M  V30 5453 C 533.598 3.37581 0.287192 0
M  V30 5454 C 532.157 3.69493 0.717773 0
M  V30 5455 C 531.304 2.76863 -0.155569 0
M  V30 5456 H 534.255 1.48797 -0.55182 0
M  V30 5457 H 534.276 3.63744 1.11671 0
M  V30 5458 H 533.788 3.81751 -0.699131 0
M  V30 5459 H 531.889 3.3086 1.71354 0
M  V30 5460 H 532.002 4.76315 0.5158 0
M  V30 5461 H 530.366 2.51995 0.370213 0
M  V30 5462 H 531.149 3.23861 -1.13881 0
M  V30 5463 N 533.594 0.0601682 1.57485 0
M  V30 5464 C 534.504 -0.926121 2.15546 0
M  V30 5465 C 535.52 -1.33532 1.11558 0
M  V30 5466 O 536.696 -1.4104 1.4377 0
M  V30 5467 C 533.761 -2.17952 2.69625 0
M  V30 5468 C 532.822 -1.82783 3.88444 0
M  V30 5469 C 532.055 -3.02148 4.39935 0
M  V30 5470 O 532.278 -4.15803 3.90466 0
M  V30 5471 O 531.212 -2.82639 5.31412 0
M  V30 5472 H 535.038 -0.462289 3.00161 0
M  V30 5473 H 532.623 -0.162246 1.48516 0
M  V30 5474 H 534.505 -2.91474 3.04337 0
M  V30 5475 H 533.18 -2.63456 1.88077 0
M  V30 5476 H 532.087 -1.06549 3.58606 0
M  V30 5477 H 533.42 -1.42072 4.7125 0
M  V30 5478 N 535.072 -1.5615 -0.213296 0
M  V30 5479 C 536.035 -1.92249 -1.24792 0
M  V30 5480 C 537.035 -0.801828 -1.39382 0
M  V30 5481 O 538.225 -1.06948 -1.37506 0
M  V30 5482 C 535.357 -2.18056 -2.62039 0
M  V30 5483 H 536.55 -2.84793 -0.939845 0
M  V30 5484 H 534.103 -1.49559 -0.454062 0
M  V30 5485 H 534.838 -1.2809 -2.97932 0
M  V30 5486 H 534.623 -2.99703 -2.52825 0
M  V30 5487 H 536.113 -2.47051 -3.36683 0
M  V30 5488 N 536.55 0.480323 -1.50102 0
M  V30 5489 C 537.5 1.57685 -1.6468 0
M  V30 5490 C 538.484 1.52878 -0.5017 0
M  V30 5491 O 539.676 1.60058 -0.755668 0
M  V30 5492 C 536.805 2.96185 -1.73578 0
M  V30 5493 C 535.891 3.0591 -2.93734 0
M  V30 5494 N 536.282 2.85471 -4.1754 0
M  V30 5495 C 534.58 3.37036 -2.92101 0
M  V30 5496 C 535.281 2.99921 -4.9842 0
M  V30 5497 N 534.257 3.29715 -4.32191 0
M  V30 5498 H 538.059 1.40568 -2.58104 0
M  V30 5499 H 535.573 0.686874 -1.47159 0
M  V30 5500 H 537.57 3.75015 -1.82124 0
M  V30 5501 H 536.23 3.14356 -0.813057 0
M  V30 5502 H 537.241 2.61235 -4.47188 0
M  V30 5503 H 533.918 3.61253 -2.09291 0
M  V30 5504 H 535.308 2.88436 -6.06839 0
M  V30 5505 N 538.028 1.39524 0.732853 0
M  V30 5506 C 539.439 1.32905 1.31122 0
M  V30 5507 C 539.79 -0.00558708 1.96199 0
M  V30 5508 O 538.915 -0.907706 1.96443 0
M  V30 5509 C 539.51 2.40704 2.38426 0
M  V30 5510 C 538.069 2.37599 2.91931 0
M  V30 5511 C 537.216 2.2248 1.65523 0
M  V30 5512 H 540.167 1.49581 0.530207 0
M  V30 5513 H 540.188 2.07616 3.18867 0
M  V30 5514 H 539.7 3.37829 1.91033 0
M  V30 5515 H 537.801 1.44119 3.43599 0
M  V30 5516 H 537.914 3.32538 3.44899 0
M  V30 5517 H 536.278 1.69691 1.8994 0
M  V30 5518 H 537.061 3.21577 1.20178 0
M  V30 5519 N 539.506 -0.963266 1.24736 0
M  V30 5520 C 540.917 -1.52145 1.08207 0
M  V30 5521 C 541.268 -1.93142 -0.345061 0
M  V30 5522 O 540.393 -1.77769 -1.23399 0
M  V30 5523 C 540.988 -2.76486 1.95808 0
M  V30 5524 C 539.547 -3.28646 1.8349 0
M  V30 5525 C 538.694 -2.01529 1.90476 0
M  V30 5526 H 541.645 -0.781083 1.38148 0
M  V30 5527 H 541.666 -3.49986 1.49297 0
M  V30 5528 H 541.178 -2.46617 2.99669 0
M  V30 5529 H 539.279 -3.63357 0.824787 0
M  V30 5530 H 539.392 -3.97246 2.67829 0
M  V30 5531 H 537.756 -2.16442 1.34258 0
M  V30 5532 H 538.539 -1.7402 2.95926 0
M  V30 5533 N 540.985 -1.06182 -1.16461 0
M  V30 5534 C 541.915 -0.692861 -2.22984 0
M  V30 5535 C 542.896 0.314122 -1.67174 0
M  V30 5536 O 544.081 0.189499 -1.93273 0
M  V30 5537 C 541.211 -0.07732 -3.47214 0
M  V30 5538 C 540.165 -1.01015 -4.15909 0
M  V30 5539 C 539.491 -0.257973 -5.34077 0
M  V30 5540 C 540.791 -2.33868 -4.67015 0
M  V30 5541 H 542.485 -1.58343 -2.54102 0
M  V30 5542 H 540.031 -0.76279 -1.22137 0
M  V30 5543 H 541.984 0.19266 -4.20959 0
M  V30 5544 H 540.708 0.848254 -3.15392 0
M  V30 5545 H 539.367 -1.26486 -3.44088 0
M  V30 5546 H 539.015 0.670684 -4.98509 0
M  V30 5547 H 538.715 -0.879638 -5.80979 0
M  V30 5548 H 540.239 0.00448788 -6.106 0
M  V30 5549 H 541.653 -2.1279 -5.32347 0
M  V30 5550 H 540.05 -2.91522 -5.24533 0
M  V30 5551 H 541.12 -2.97019 -3.83286 0
M  V30 5552 N 542.463 1.3308 -0.844243 0
M  V30 5553 C 543.712 1.96868 -0.438833 0
M  V30 5554 C 544.025 1.67599 1.00846 0
M  V30 5555 O 545.231 2.25043 1.51881 0
M  V30 5556 C 543.687 3.5234 -0.73377 0
M  V30 5557 C 543.295 3.90481 -2.1961 0
M  V30 5558 C 545.039 4.22653 -0.395574 0
M  V30 5559 C 542.946 5.38954 -2.43481 0
M  V30 5560 H 541.876 0.736749 -0.160364 0
M  V30 5561 H 544.527 1.51623 -1.03358 0
M  V30 5562 H 542.909 3.95941 -0.068589 0
M  V30 5563 H 544.083 3.57922 -2.90221 0
M  V30 5564 H 542.398 3.33165 -2.4978 0
M  V30 5565 H 544.995 5.31848 -0.551477 0
M  V30 5566 H 545.338 4.11004 0.661921 0
M  V30 5567 H 545.871 3.84601 -1.01621 0
M  V30 5568 H 542.61 5.55612 -3.47816 0
M  V30 5569 H 542.13 5.72954 -1.77437 0
M  V30 5570 H 543.809 6.05907 -2.26905 0
M  V30 5571 N 543.941 0.601185 1.45683 0
M  V30 5572 C 544.891 -0.142686 2.27553 0
M  V30 5573 C 545.875 -0.844598 1.3695 0
M  V30 5574 O 547.067 -0.735644 1.60988 0
M  V30 5575 C 544.196 -1.14364 3.23691 0
M  V30 5576 C 543.282 -0.442894 4.21781 0
M  V30 5577 N 543.673 0.51189 5.03203 0
M  V30 5578 C 541.971 -0.691277 4.4061 0
M  V30 5579 C 542.672 0.92318 5.74328 0
M  V30 5580 N 541.648 0.268308 5.42937 0
M  V30 5581 H 545.45 0.590736 2.87902 0
M  V30 5582 H 542.964 0.424365 1.56757 0
M  V30 5583 H 544.961 -1.6909 3.8107 0
M  V30 5584 H 543.621 -1.87768 2.64902 0
M  V30 5585 H 544.632 0.888329 5.10225 0
M  V30 5586 H 541.309 -1.41049 3.92952 0
M  V30 5587 H 542.699 1.71029 6.49768 0
M  V30 5588 N 545.419 -1.53889 0.339982 0
M  V30 5589 C 546.369 -2.2165 -0.534354 0
M  V30 5590 C 547.353 -1.20266 -1.06887 0
M  V30 5591 O 548.545 -1.45827 -1.00316 0
M  V30 5592 C 545.674 -2.99014 -1.68659 0
M  V30 5593 C 544.76 -4.07751 -1.16618 0
M  V30 5594 N 545.151 -5.04469 -0.366717 0
M  V30 5595 C 543.449 -4.21998 -1.4434 0
M  V30 5596 C 544.15 -5.81638 -0.0847275 0
M  V30 5597 N 543.126 -5.39388 -0.675391 0
M  V30 5598 H 546.928 -2.93781 0.0835562 0
M  V30 5599 H 544.442 -1.61736 0.146665 0
M  V30 5600 H 546.439 -3.46056 -2.32489 0
M  V30 5601 H 545.099 -2.28408 -2.30781 0
M  V30 5602 H 546.11 -5.17899 -0.00811038 0
M  V30 5603 H 542.787 -3.62612 -2.06928 0
M  V30 5604 H 544.177 -6.69563 0.559943 0
M  V30 5605 N 546.897 -0.0685191 -1.57451 0
M  V30 5606 C 547.807 0.914677 -2.16034 0
M  V30 5607 C 548.823 1.32938 -1.12265 0
M  V30 5608 O 549.999 1.40275 -1.44516 0
M  V30 5609 C 547.064 2.16519 -2.70777 0
M  V30 5610 C 546.125 1.80721 -3.89408 0
M  V30 5611 C 545.358 2.9981 -4.41531 0
M  V30 5612 O 545.581 4.13727 -3.92666 0
M  V30 5613 O 544.515 2.79817 -5.32903 0
M  V30 5614 H 548.341 0.446364 -3.00402 0
M  V30 5615 H 545.926 0.154367 -1.486 0
M  V30 5616 H 547.808 2.89856 -3.05878 0
M  V30 5617 H 546.483 2.62454 -1.89471 0
M  V30 5618 H 545.39 1.04646 -3.59166 0
M  V30 5619 H 546.723 1.39571 -4.71997 0
M  V30 5620 N 548.375 1.56261 0.205012 0
M  V30 5621 C 549.325 1.90155 1.25798 0
M  V30 5622 C 550.309 0.766227 1.41484 0
M  V30 5623 O 551.501 1.02893 1.44021 0
M  V30 5624 C 548.63 2.23603 2.60493 0
M  V30 5625 C 547.716 3.43568 2.48639 0
M  V30 5626 N 548.107 4.61747 2.06455 0
M  V30 5627 C 546.405 3.4751 2.79558 0
M  V30 5628 C 547.106 5.43907 2.06253 0
M  V30 5629 N 546.082 4.84051 2.47377 0
M  V30 5630 H 549.884 2.79031 0.922986 0
M  V30 5631 H 547.398 1.57048 0.413501 0
M  V30 5632 H 549.395 2.46067 3.36537 0
M  V30 5633 H 548.055 1.36049 2.94823 0
M  V30 5634 H 549.066 4.86598 1.77321 0
M  V30 5635 H 545.743 2.70345 3.18151 0
M  V30 5636 H 547.133 6.48542 1.75622 0
M  V30 5637 N 549.853 -0.472356 1.50355 0
M  V30 5638 C 550.803 -1.56809 1.65514 0
M  V30 5639 C 551.787 -1.5261 0.509801 0
M  V30 5640 O 552.979 -1.59655 0.764145 0
M  V30 5641 C 550.108 -2.9526 1.75146 0
M  V30 5642 C 549.194 -3.04348 2.95353 0
M  V30 5643 N 549.585 -2.83253 4.19048 0
M  V30 5644 C 547.883 -3.35482 2.93884 0
M  V30 5645 C 548.584 -2.97273 5.00003 0
M  V30 5646 N 547.56 -3.27418 4.33934 0
M  V30 5647 H 551.362 -1.39197 2.58846 0
M  V30 5648 H 548.876 -0.67906 1.47521 0
M  V30 5649 H 550.873 -3.74044 1.8411 0
M  V30 5650 H 549.533 -3.1392 0.829717 0
M  V30 5651 H 550.544 -2.5886 4.48567 0
M  V30 5652 H 547.221 -3.60138 2.11204 0
M  V30 5653 H 548.611 -2.85214 6.08361 0
M  V30 5654 N 551.331 -1.39911 -0.725443 0
M  V30 5655 C 552.241 -1.41688 -1.8698 0
M  V30 5656 C 553.257 -0.310579 -1.71206 0
M  V30 5657 O 554.433 -0.55359 -1.93642 0
M  V30 5658 C 551.498 -1.26811 -3.22676 0
M  V30 5659 C 550.559 -2.47497 -3.50776 0
M  V30 5660 C 549.792 -2.3332 -4.79997 0
M  V30 5661 O 550.015 -1.34175 -5.54394 0
M  V30 5662 O 548.949 -3.22498 -5.08211 0
M  V30 5663 H 552.775 -2.38171 -1.88436 0
M  V30 5664 H 550.36 -1.21128 -0.874548 0
M  V30 5665 H 552.242 -1.20684 -4.03749 0
M  V30 5666 H 550.917 -0.334289 -3.21969 0
M  V30 5667 H 549.824 -2.59201 -2.69751 0
M  V30 5668 H 551.157 -3.39606 -3.5627 0
M  V30 5669 N 552.809 0.956637 -1.25245 0
M  V30 5670 C 553.719 2.0868 -1.0719 0
M  V30 5671 C 554.735 1.73997 -0.00959074 0
M  V30 5672 O 555.911 2.00301 -0.210104 0
M  V30 5673 C 552.976 3.39754 -0.690526 0
M  V30 5674 C 552.037 3.88316 -1.83055 0
M  V30 5675 C 551.27 5.13134 -1.46728 0
M  V30 5676 O 551.493 5.6925 -0.362029 0
M  V30 5677 O 550.427 5.56356 -2.29677 0
M  V30 5678 H 554.253 2.26813 -2.01965 0
M  V30 5679 H 551.838 1.07098 -1.04165 0
M  V30 5680 H 553.72 4.18543 -0.489871 0
M  V30 5681 H 552.395 3.22896 0.227981 0
M  V30 5682 H 551.302 3.1054 -2.08604 0
M  V30 5683 H 552.635 4.09669 -2.72822 0
M  V30 5684 N 554.287 1.06798 1.15896 0
M  V30 5685 C 555.197 0.694564 2.24083 0
M  V30 5686 C 556.213 -0.291687 1.71538 0
M  V30 5687 O 557.389 -0.139723 2.00915 0
M  V30 5688 C 554.454 0.0921014 3.46578 0
M  V30 5689 C 553.515 1.13087 4.14137 0
M  V30 5690 C 552.748 0.557064 5.30785 0
M  V30 5691 O 552.971 -0.628623 5.66925 0
M  V30 5692 O 551.905 1.29924 5.8771 0
M  V30 5693 H 555.731 1.59663 2.58344 0
M  V30 5694 H 553.316 0.840575 1.2351 0
M  V30 5695 H 555.198 -0.241884 4.20705 0
M  V30 5696 H 553.873 -0.78337 3.14078 0
M  V30 5697 H 552.78 1.51712 3.41957 0
M  V30 5698 H 554.113 1.97805 4.50704 0
M  V30 5699 N 555.766 -1.3263 0.851289 0
M  V30 5700 C 556.676 -2.32722 0.296268 0
M  V30 5701 C 557.692 -1.63901 -0.584162 0
M  V30 5702 O 558.868 -1.95465 -0.485334 0
M  V30 5703 C 555.933 -3.42942 -0.509103 0
M  V30 5704 C 554.994 -4.2746 0.397069 0
M  V30 5705 C 554.227 -5.32416 -0.36996 0
M  V30 5706 O 554.45 -5.47491 -1.6003 0
M  V30 5707 O 553.384 -6.01327 0.262493 0
M  V30 5708 H 557.21 -2.82078 1.12543 0
M  V30 5709 H 554.795 -1.36194 0.614135 0
M  V30 5710 H 556.677 -4.1017 -0.96634 0
M  V30 5711 H 555.352 -2.95781 -1.31512 0
M  V30 5712 H 554.259 -3.63053 0.902411 0
M  V30 5713 H 555.592 -4.78136 1.16818 0
M  V30 5714 N 557.244 -0.608902 -1.45362 0
M  V30 5715 C 558.472 -0.111013 -2.06602 0
M  V30 5716 C 558.887 1.20516 -1.45332 0
M  V30 5717 O 558.244 1.73437 -0.567978 0
M  V30 5718 C 558.295 0.033688 -3.61484 0
M  V30 5719 O 558.016 -1.23041 -4.20467 0
M  V30 5720 C 559.517 0.562882 -4.39712 0
M  V30 5721 H 556.737 -0.0694453 -0.667397 0
M  V30 5722 H 559.281 -0.837008 -1.86586 0
M  V30 5723 H 557.436 0.710016 -3.80838 0
M  V30 5724 H 557.85 -1.06094 -5.13658 0
M  V30 5725 H 559.324 0.613213 -5.48583 0
M  V30 5726 H 559.801 1.58543 -4.09586 0
M  V30 5727 H 560.407 -0.0794454 -4.25226 0
M  V30 5728 N 558.722 1.53707 -0.348139 0
M  V30 5729 C 560.133 1.86213 0.134797 0
M  V30 5730 C 560.484 1.26925 1.49614 0
M  V30 5731 O 559.609 0.584573 2.08355 0
M  V30 5732 C 560.204 3.37866 0.251371 0
M  V30 5733 C 558.763 3.70233 0.678543 0
M  V30 5734 C 557.91 2.76683 -0.184925 0
M  V30 5735 H 560.861 1.48204 -0.567571 0
M  V30 5736 H 560.882 3.64908 1.07806 0
M  V30 5737 H 560.394 3.80988 -0.739581 0
M  V30 5738 H 558.495 3.32659 1.67835 0
M  V30 5739 H 558.608 4.76836 0.465251 0
M  V30 5740 H 556.972 2.52374 0.343465 0
M  V30 5741 H 557.755 3.22635 -1.1731 0
M  V30 5742 N 560.2 0.0768682 1.57412 0
M  V30 5743 C 561.15 -0.898795 2.09537 0
M  V30 5744 C 562.134 -1.25556 1.0062 0
M  V30 5745 O 563.326 -1.23369 1.26921 0
M  V30 5746 C 560.455 -2.16453 2.66464 0
M  V30 5747 C 559.541 -1.83401 3.82393 0
M  V30 5748 N 559.932 -1.20823 4.91157 0
M  V30 5749 C 558.23 -2.13121 3.91785 0
M  V30 5750 C 558.931 -1.05976 5.71965 0
M  V30 5751 N 557.907 -1.57113 5.204 0
M  V30 5752 H 561.709 -0.410718 2.91016 0
M  V30 5753 H 559.223 -0.126878 1.61904 0
M  V30 5754 H 561.22 -2.87274 3.02125 0
M  V30 5755 H 559.88 -2.65844 1.86433 0
M  V30 5756 H 560.891 -0.877249 5.10416 0
M  V30 5757 H 557.568 -2.64854 3.22736 0
M  V30 5758 H 558.958 -0.571809 6.69462 0
M  V30 5759 N 561.678 -1.56367 -0.196722 0
M  V30 5760 C 562.903 -1.84991 -0.937714 0
M  V30 5761 C 563.328 -0.660244 -1.76132 0
M  V30 5762 O 562.686 0.390967 -1.77034 0
M  V30 5763 C 562.734 -3.11828 -1.81096 0
M  V30 5764 O 561.838 -2.92266 -2.90955 0
M  V30 5765 H 561.179 -0.609193 -0.264159 0
M  V30 5766 H 563.709 -2.03595 -0.202529 0
M  V30 5767 H 563.719 -3.42579 -2.21594 0
M  V30 5768 H 562.394 -3.98037 -1.2058 0
M  V30 5769 H 560.971 -2.72809 -2.54224 0
M  V30 5770 N 563.156 0.464375 -1.50603 0
M  V30 5771 C 564.384 1.23907 -1.65695 0
M  V30 5772 C 564.799 1.85658 -0.343027 0
M  V30 5773 O 564.156 1.69529 0.675739 0
M  V30 5774 C 564.207 2.3429 -2.75301 0
M  V30 5775 O 563.928 1.7507 -4.01599 0
M  V30 5776 C 565.429 3.25051 -3.01424 0
M  V30 5777 H 562.649 0.374485 -0.556778 0
M  V30 5778 H 565.193 0.55353 -1.96866 0
M  V30 5779 H 563.348 2.98607 -2.46804 0
M  V30 5780 H 563.762 2.47812 -4.62266 0
M  V30 5781 H 565.236 3.98699 -3.81763 0
M  V30 5782 H 565.713 3.84227 -2.12758 0
M  V30 5783 H 566.319 2.66463 -3.31477 0
M  V30 5784 N 564.634 1.40294 0.718013 0
M  V30 5785 C 565.859 1.41941 1.5122 0
M  V30 5786 C 566.284 0.0202371 1.88089 0
M  V30 5787 O 565.642 -0.971078 1.53101 0
M  V30 5788 C 565.69 2.3141 2.76554 0
M  V30 5789 O 564.794 1.75567 3.73162 0
M  V30 5790 H 564.135 0.482644 0.456016 0
M  V30 5791 H 566.665 1.84494 0.884478 0
M  V30 5792 H 566.675 2.46513 3.25108 0
M  V30 5793 H 565.35 3.33085 2.49053 0
M  V30 5794 H 563.927 1.69798 3.31999 0
M  V30 5795 N 566.112 -0.949982 1.2575 0
M  V30 5796 C 567.34 -1.72972 1.13527 0
M  V30 5797 C 567.755 -1.8623 -0.310453 0
M  V30 5798 O 567.112 -1.36336 -1.2132 0
M  V30 5799 C 567.163 -3.14108 1.78936 0
M  V30 5800 O 566.884 -3.01493 3.17858 0
M  V30 5801 C 568.385 -4.08338 1.72554 0
M  V30 5802 H 565.605 -0.541864 0.395758 0
M  V30 5803 H 568.149 -1.19151 1.66202 0
M  V30 5804 H 566.304 -3.64858 1.30221 0
M  V30 5805 H 566.718 -3.90559 3.50092 0
M  V30 5806 H 568.192 -5.04963 2.22973 0
M  V30 5807 H 568.669 -4.33742 0.690251 0
M  V30 5808 H 569.275 -3.63506 2.2078 0
M  V30 5809 N 567.59 -1.07411 -1.15328 0
M  V30 5810 C 568.839 -0.792643 -1.85473 0
M  V30 5811 C 569.152 0.683789 -1.83259 0
M  V30 5812 O 570.358 1.08005 -2.49093 0
M  V30 5813 C 568.814 -1.36787 -3.32892 0
M  V30 5814 C 568.422 -2.87536 -3.43551 0
M  V30 5815 C 570.166 -1.16444 -4.08217 0
M  V30 5816 C 568.073 -3.38247 -4.85122 0
M  V30 5817 H 567.003 -0.292838 -0.694811 0
M  V30 5818 H 569.654 -1.29426 -1.30082 0
M  V30 5819 H 568.036 -0.793993 -3.87958 0
M  V30 5820 H 569.21 -3.50973 -2.98588 0
M  V30 5821 H 567.525 -3.06676 -2.81672 0
M  V30 5822 H 570.122 -1.51808 -5.12697 0
M  V30 5823 H 570.465 -0.10353 -4.16171 0
M  V30 5824 H 570.998 -1.70472 -3.59422 0
M  V30 5825 H 567.737 -4.43866 -4.82351 0
M  V30 5826 H 567.257 -2.79564 -5.30664 0
M  V30 5827 H 568.936 -3.34238 -5.5398 0
M  V30 5828 N 569.068 1.32177 -0.85831 0
M  V30 5829 C 570 2.27688 -0.262835 0
M  V30 5830 C 571.013 1.52588 0.567513 0
M  V30 5831 O 572.202 1.74156 0.391407 0
M  V30 5832 C 569.302 3.32668 0.646937 0
M  V30 5833 C 568.475 4.37148 -0.148372 0
M  V30 5834 C 567.534 5.21686 0.687728 0
M  V30 5835 O 566.56 5.69074 0.119934 0
M  V30 5836 N 567.762 5.44892 2.00182 0
M  V30 5837 H 570.527 2.79426 -1.08356 0
M  V30 5838 H 568.088 1.45076 -0.718647 0
M  V30 5839 H 570.08 3.86134 1.2117 0
M  V30 5840 H 568.65 2.81061 1.36834 0
M  V30 5841 H 567.87 3.83915 -0.894572 0
M  V30 5842 H 569.158 5.04038 -0.694514 0
M  V30 5843 H 568.556 5.08128 2.4864 0
M  V30 5844 H 567.113 6.0134 2.51463 0
M  V30 5845 N 570.547 0.616602 1.45037 0
M  V30 5846 C 571.51 -0.0871112 2.29034 0
M  V30 5847 C 572.51 -0.786414 1.40258 0
M  V30 5848 O 573.7 -0.633207 1.62284 0
M  V30 5849 C 570.832 -1.13369 3.21497 0
M  V30 5850 H 572.025 0.651497 2.92738 0
M  V30 5851 H 569.578 0.376058 1.51709 0
M  V30 5852 H 570.313 -1.90277 2.62612 0
M  V30 5853 H 570.098 -0.636358 3.86902 0
M  V30 5854 H 571.588 -1.62627 3.84633 0
M  V30 5855 N 572.025 -1.5352 0.356285 0
M  V30 5856 C 573.253 -2.05534 -0.237328 0
M  V30 5857 C 573.668 -1.23043 -1.43199 0
M  V30 5858 O 573.025 -0.268821 -1.80509 0
M  V30 5859 C 573.076 -3.55791 -0.639933 0
M  V30 5860 O 572.797 -4.35154 0.507233 0
M  V30 5861 C 574.298 -4.24027 -1.29292 0
M  V30 5862 H 571.518 -0.669585 -0.0435572 0
M  V30 5863 H 574.062 -1.97988 0.511963 0
M  V30 5864 H 572.217 -3.63518 -1.33915 0
M  V30 5865 H 572.631 -5.24178 0.18375 0
M  V30 5866 H 574.105 -5.30509 -1.52527 0
M  V30 5867 H 574.582 -3.77166 -2.25039 0
M  V30 5868 H 575.188 -4.20527 -0.63539 0
M  V30 5869 N 573.503 -0.0852151 -1.57369 0
M  V30 5870 C 574.914 0.445428 -1.81309 0
M  V30 5871 C 575.265 1.68795 -1.00013 0
M  V30 5872 O 574.39 2.15211 -0.226573 0
M  V30 5873 C 574.985 0.814887 -3.28854 0
M  V30 5874 C 573.544 1.29032 -3.53592 0
M  V30 5875 C 572.691 0.282089 -2.75861 0
M  V30 5876 H 575.642 -0.310771 -1.55627 0
M  V30 5877 H 575.663 1.67524 -3.41637 0
M  V30 5878 H 575.175 -0.0896309 -3.87996 0
M  V30 5879 H 573.276 2.21289 -2.9977 0
M  V30 5880 H 573.389 1.25898 -4.62262 0
M  V30 5881 H 571.753 0.762182 -2.43029 0
M  V30 5882 H 572.536 -0.614936 -3.37748 0
M  V30 5883 N 574.981 1.5647 0.188427 0
M  V30 5884 C 576.206 1.85486 0.927891 0
M  V30 5885 C 576.631 0.669575 1.75779 0
M  V30 5886 O 575.989 -0.381573 1.77239 0
M  V30 5887 C 576.037 3.12784 1.7944 0
M  V30 5888 O 575.141 2.93805 2.894 0
M  V30 5889 H 574.482 0.610585 0.260925 0
M  V30 5890 H 577.012 2.037 0.191729 0
M  V30 5891 H 577.022 3.43749 2.19774 0
M  V30 5892 H 575.697 3.98671 1.18468 0
M  V30 5893 H 574.274 2.74153 2.52774 0
M  V30 5894 N 576.459 -0.456382 1.50847 0
M  V30 5895 C 577.684 -1.2349 1.66628 0
M  V30 5896 C 578.109 -1.84715 0.355254 0
M  V30 5897 O 577.467 -1.67961 -0.682559 0
M  V30 5898 C 577.515 -2.30865 2.77009 0
M  V30 5899 O 576.619 -3.35882 2.39285 0
M  V30 5900 H 575.96 -0.36266 0.556214 0
M  V30 5901 H 578.49 -0.541374 1.97308 0
M  V30 5902 H 578.5 -2.75949 3.00526 0
M  V30 5903 H 577.175 -1.85677 3.72152 0
M  V30 5904 H 575.752 -2.96406 2.26269 0
M  V30 5905 N 577.937 -1.40673 -0.710563 0
M  V30 5906 C 579.165 -1.42547 -1.4996 0
M  V30 5907 C 579.58 -0.0265485 -1.88781 0
M  V30 5908 O 578.937 0.950694 -1.55782 0
M  V30 5909 C 578.988 -2.32071 -2.77173 0
M  V30 5910 O 578.709 -3.66518 -2.39992 0
M  V30 5911 C 580.21 -2.42591 -3.71032 0
M  V30 5912 H 577.43 -0.486025 -0.462623 0
M  V30 5913 H 579.974 -1.84783 -0.876102 0
M  V30 5914 H 578.129 -1.93184 -3.35795 0
M  V30 5915 H 578.543 -4.14115 -3.21884 0
M  V30 5916 H 580.017 -3.09429 -4.57119 0
M  V30 5917 H 580.494 -1.4525 -4.14486 0
M  V30 5918 H 581.1 -2.82051 -3.18319 0
M  V30 5919 N 579.415 0.9433 -1.26252 0
M  V30 5920 C 580.643 1.72367 -1.14443 0
M  V30 5921 C 581.058 1.86392 0.300572 0
M  V30 5922 O 580.415 1.36978 1.20596 0
M  V30 5923 C 580.466 3.13155 -1.806 0
M  V30 5924 O 580.187 2.99803 -3.19452 0
M  V30 5925 C 581.688 4.07417 -1.74717 0
M  V30 5926 H 578.908 0.539758 -0.398626 0
M  V30 5927 H 581.452 1.18268 -1.66832 0
M  V30 5928 H 579.607 3.64162 -1.32154 0
M  V30 5929 H 580.021 3.88697 -3.52158 0
M  V30 5930 H 581.495 5.03773 -2.25647 0
M  V30 5931 H 581.972 4.3337 -0.713244 0
M  V30 5932 H 582.578 3.6233 -2.22704 0
M  V30 5933 N 580.893 1.08022 1.14757 0
M  V30 5934 C 581.803 0.718292 2.23333 0
M  V30 5935 C 582.819 -0.273477 1.71837 0
M  V30 5936 O 583.995 -0.118406 2.01052 0
M  V30 5937 C 581.06 0.128855 3.4646 0
M  V30 5938 C 580.121 1.17473 4.12915 0
M  V30 5939 C 579.354 0.61333 5.30164 0
M  V30 5940 O 579.577 -0.568458 5.6756 0
M  V30 5941 O 578.511 1.3615 5.86299 0
M  V30 5942 H 582.337 1.62394 2.56636 0
M  V30 5943 H 579.922 0.853628 1.22611 0
M  V30 5944 H 581.804 -0.197249 4.20938 0
M  V30 5945 H 580.479 -0.750014 3.14891 0
M  V30 5946 H 579.386 1.5533 3.40328 0
M  V30 5947 H 580.719 2.02574 4.48581 0
M  V30 5948 N 582.371 -1.3172 0.865308 0
M  V30 5949 C 583.281 -2.32394 0.320935 0
M  V30 5950 C 584.297 -1.64511 -0.566746 0
M  V30 5951 O 585.473 -1.95969 -0.464575 0
M  V30 5952 C 582.538 -3.43462 -0.472701 0
M  V30 5953 C 581.599 -4.27015 0.442385 0
M  V30 5954 C 580.832 -5.32779 -0.313469 0
M  V30 5955 O 581.055 -5.49158 -1.54214 0
M  V30 5956 O 579.989 -6.01015 0.326257 0
M  V30 5957 H 583.815 -2.80868 1.15528 0
M  V30 5958 H 581.4 -1.35535 0.628545 0
M  V30 5959 H 583.282 -4.11172 -0.922781 0
M  V30 5960 H 581.957 -2.97159 -1.28367 0
M  V30 5961 H 580.864 -3.62075 0.940866 0
M  V30 5962 H 582.197 -4.76871 1.21882 0
M  V30 5963 N 583.85 -0.624285 -1.44708 0
M  V30 5964 C 585.077 -0.132919 -2.06473 0
M  V30 5965 C 585.493 1.18967 -1.46602 0
M  V30 5966 O 584.85 1.72824 -0.586341 0
M  V30 5967 C 584.901 -0.00465418 -3.615 0
M  V30 5968 O 584.622 -1.27494 -4.19138 0
M  V30 5969 C 586.123 0.516213 -4.40284 0
M  V30 5970 H 583.343 -0.0765201 -0.666623 0
M  V30 5971 H 585.887 -0.856751 -1.85688 0
M  V30 5972 H 584.042 0.669583 -3.8157 0
M  V30 5973 H 584.456 -1.11536 -5.12504 0
M  V30 5974 H 585.93 0.554994 -5.49203 0
M  V30 5975 H 586.407 1.5419 -4.11245 0
M  V30 5976 H 587.013 -0.124542 -4.25118 0
M  V30 5977 N 585.328 1.53329 -0.364422 0
M  V30 5978 C 586.291 2.24323 0.470292 0
M  V30 5979 C 587.291 1.25068 1.01067 0
M  V30 5980 O 588.481 1.49354 0.896605 0
M  V30 5981 C 585.613 2.97908 1.65722 0
M  V30 5982 H 586.806 2.9952 -0.150917 0
M  V30 5983 H 584.359 1.55868 -0.116092 0
M  V30 5984 H 585.094 2.2695 2.31655 0
M  V30 5985 H 584.879 3.70732 1.27671 0
M  V30 5986 H 586.369 3.5188 2.24878 0
M  V30 5987 N 586.806 0.0935595 1.57322 0
M  V30 5988 C 588.034 -0.578934 1.98635 0
M  V30 5989 C 588.449 -1.61819 0.972626 0
M  V30 5990 O 587.806 -1.82461 -0.0379638 0
M  V30 5991 C 587.857 -1.22802 3.40003 0
M  V30 5992 O 587.578 -0.230334 4.37494 0
M  V30 5993 C 589.079 -1.98627 3.96311 0
M  V30 5994 H 586.299 -0.155324 0.652775 0
M  V30 5995 H 588.843 0.172393 2.03772 0
M  V30 5996 H 586.998 -1.93029 3.35885 0
M  V30 5997 H 587.412 -0.698649 5.19826 0
M  V30 5998 H 588.886 -2.39405 4.97382 0
M  V30 5999 H 589.363 -2.85151 3.34044 0
M  V30 6000 H 589.969 -1.3322 4.03897 0
M  V30 6001 N 588.284 -1.56567 -0.180126 0
M  V30 6002 C 589.216 -1.92275 -1.24751 0
M  V30 6003 C 590.229 -0.814922 -1.40936 0
M  V30 6004 O 591.418 -1.09336 -1.41095 0
M  V30 6005 C 588.518 -2.15265 -2.61752 0
M  V30 6006 C 587.691 -3.46467 -2.66981 0
M  V30 6007 C 586.75 -3.58391 -3.85283 0
M  V30 6008 O 585.776 -4.31086 -3.7169 0
M  V30 6009 N 586.978 -2.92587 -5.01371 0
M  V30 6010 H 589.743 -2.84435 -0.944302 0
M  V30 6011 H 587.304 -1.57617 -0.369952 0
M  V30 6012 H 589.296 -2.20515 -3.39345 0
M  V30 6013 H 587.866 -1.29533 -2.845 0
M  V30 6014 H 587.086 -3.52953 -1.75549 0
M  V30 6015 H 588.374 -4.32819 -2.67479 0
M  V30 6016 H 587.772 -2.3338 -5.15316 0
M  V30 6017 H 586.329 -3.03444 -5.76858 0
M  V30 6018 N 589.762 0.448376 -1.51087 0
M  V30 6019 C 590.709 1.54341 -1.71603 0
M  V30 6020 C 591.679 1.56463 -0.557536 0
M  V30 6021 O 592.864 1.73644 -0.79072 0
M  V30 6022 C 590.004 2.92148 -1.83695 0
M  V30 6023 C 589.117 2.99639 -3.11192 0
M  V30 6024 C 588.252 4.285 -3.13944 0
M  V30 6025 C 587.291 4.29819 -4.35801 0
M  V30 6026 N 586.428 5.50186 -4.36164 0
M  V30 6027 H 591.268 1.36151 -2.65079 0
M  V30 6028 H 588.805 0.661585 -1.31383 0
M  V30 6029 H 590.763 3.72093 -1.88687 0
M  V30 6030 H 589.393 3.0892 -0.936374 0
M  V30 6031 H 588.445 2.12425 -3.15562 0
M  V30 6032 H 589.757 2.96474 -4.01129 0
M  V30 6033 H 588.911 5.16811 -3.17791 0
M  V30 6034 H 587.65 4.34307 -2.21876 0
M  V30 6035 H 586.655 3.39902 -4.32142 0
M  V30 6036 H 587.88 4.25685 -5.29121 0
M  V30 6037 H 585.826 5.56735 -3.46961 0
M  V30 6038 H 585.743 5.48856 -5.19897 0
M  V30 6039 H 587.011 6.40559 -4.44189 0
M  V30 6040 N 591.24 1.41047 0.703093 0
M  V30 6041 C 592.15 1.44645 1.84703 0
M  V30 6042 C 593.166 0.337778 1.7069 0
M  V30 6043 O 594.342 0.584327 1.92737 0
M  V30 6044 C 591.407 1.31928 3.20618 0
M  V30 6045 C 590.468 2.53047 3.46794 0
M  V30 6046 C 589.701 2.40927 4.76224 0
M  V30 6047 O 589.924 1.42978 5.5219 0
M  V30 6048 O 588.858 3.30543 5.03016 0
M  V30 6049 H 592.684 2.41139 1.84624 0
M  V30 6050 H 590.269 1.22504 0.855167 0
M  V30 6051 H 592.151 1.27092 4.01778 0
M  V30 6052 H 590.826 0.385469 3.21397 0
M  V30 6053 H 589.733 2.6346 2.65593 0
M  V30 6054 H 591.066 3.45231 3.50822 0
M  V30 6055 N 592.718 -0.936591 1.26751 0
M  V30 6056 C 593.65 -2.03991 1.045 0
M  V30 6057 C 594.663 -1.628 0.00394261 0
M  V30 6058 O 595.852 -1.76817 0.244526 0
M  V30 6059 C 592.952 -3.34218 0.561403 0
M  V30 6060 C 592.125 -4.04151 1.67274 0
M  V30 6061 C 591.184 -5.12651 1.1864 0
M  V30 6062 O 590.21 -5.37104 1.88437 0
M  V30 6063 N 591.412 -5.80488 0.037278 0
M  V30 6064 H 594.177 -2.23644 1.99508 0
M  V30 6065 H 591.738 -1.10638 1.18198 0
M  V30 6066 H 593.73 -4.04101 0.220136 0
M  V30 6067 H 592.3 -3.11203 -0.295211 0
M  V30 6068 H 591.52 -3.28121 2.18472 0
M  V30 6069 H 592.808 -4.47626 2.41885 0
M  V30 6070 H 592.206 -5.63064 -0.545494 0
M  V30 6071 H 590.763 -6.5134 -0.244877 0
M  V30 6072 N 594.196 -1.08629 -1.14182 0
M  V30 6073 C 595.442 -0.828415 -1.85766 0
M  V30 6074 C 595.797 0.638947 -1.81481 0
M  V30 6075 O 595.09 1.46386 -1.23619 0
M  V30 6076 C 595.284 -1.28734 -3.3341 0
M  V30 6077 C 595.113 -2.79778 -3.52071 0
M  V30 6078 C 593.883 -3.47554 -3.66789 0
M  V30 6079 C 596.081 -3.77945 -3.48801 0
M  V30 6080 N 594.063 -4.87107 -3.73631 0
M  V30 6081 C 595.434 -5.03406 -3.61914 0
M  V30 6082 C 597.489 -3.70917 -3.32152 0
M  V30 6083 C 596.192 -6.22673 -3.60098 0
M  V30 6084 C 598.218 -4.89662 -3.31641 0
M  V30 6085 C 597.58 -6.13962 -3.45296 0
M  V30 6086 H 593.679 -0.355884 -0.696327 0
M  V30 6087 H 596.263 -1.38508 -1.36834 0
M  V30 6088 H 594.434 -0.75822 -3.80927 0
M  V30 6089 H 596.166 -0.975649 -3.92764 0
M  V30 6090 H 592.921 -2.97972 -3.68116 0
M  V30 6091 H 593.345 -5.59775 -3.80763 0
M  V30 6092 H 597.987 -2.75749 -3.20504 0
M  V30 6093 H 595.705 -7.1815 -3.70522 0
M  V30 6094 H 599.291 -4.85914 -3.19968 0
M  V30 6095 H 598.171 -7.04307 -3.44851 0
M  V30 6096 N 595.674 1.31259 -0.872281 0
M  V30 6097 C 596.921 1.96622 -0.484365 0
M  V30 6098 C 597.249 1.68939 0.963841 0
M  V30 6099 O 596.504 0.97974 1.6941 0
M  V30 6100 C 596.803 3.50659 -0.690889 0
M  V30 6101 C 596.469 3.98366 -2.11224 0
M  V30 6102 C 595.131 4.11104 -2.50094 0
M  V30 6103 C 597.483 4.23425 -3.0391 0
M  V30 6104 C 594.811 4.46254 -3.80887 0
M  V30 6105 C 597.163 4.60039 -4.3422 0
M  V30 6106 C 595.827 4.70984 -4.73001 0
M  V30 6107 H 595.097 0.71949 -0.177242 0
M  V30 6108 H 597.744 1.56353 -1.10571 0
M  V30 6109 H 596.049 3.91798 0.0135782 0
M  V30 6110 H 597.746 3.99284 -0.370534 0
M  V30 6111 H 594.336 3.88949 -1.80047 0
M  V30 6112 H 598.52 4.13075 -2.75104 0
M  V30 6113 H 593.776 4.52926 -4.10692 0
M  V30 6114 H 597.95 4.78381 -5.06088 0
M  V30 6115 H 595.577 4.97977 -5.7439 0
M  V30 6116 N 597.152 0.631951 1.44375 0
M  V30 6117 C 598.4 0.136497 2.01639 0
M  V30 6118 C 598.721 -1.24637 1.49969 0
M  V30 6119 O 597.991 -1.82827 0.70363 0
M  V30 6120 H 596.571 0.0474703 0.74549 0
M  V30 6121 H 599.233 0.818837 1.76865 0
M  V30 6122 H 598.329 0.104817 3.11924 0
M  V30 6123 N 598.631 -1.53133 0.372548 0
M  V30 6124 C 599.579 -2.27473 -0.485681 0
M  V30 6125 C 600.573 -1.30719 -1.07745 0
M  V30 6126 O 601.779 -1.48321 -1.01985 0
M  V30 6127 H 598.154 -0.731269 -0.175356 0
M  V30 6128 H 600.125 -2.97955 0.162986 0
M  V30 6129 C 598.874 -3.08191 -1.60978 0
M  V30 6130 H 598.197 -3.82488 -1.16373 0
M  V30 6131 H 599.637 -3.63373 -2.18485 0
M  V30 6132 C 598.096 -2.19461 -2.55614 0
M  V30 6133 O 598.626 -1.81008 -3.58607 0
M  V30 6134 N 596.832 -1.83955 -2.24965 0
M  V30 6135 H 596.379 -2.15423 -1.41247 0
M  V30 6136 H 596.337 -1.24874 -2.88538 0
M  V30 6137 N 600.109 -0.101901 -1.5727 0
M  V30 6138 C 601.525 0.254739 -1.57554 0
M  V30 6139 C 601.725 1.67937 -1.11352 0
M  V30 6140 O 600.781 2.39722 -0.793081 0
M  V30 6141 C 602.094 0.036975 -3.00677 0
M  V30 6142 C 603.642 0.104199 -3.12827 0
M  V30 6143 C 604.117 -0.0856565 -4.5792 0
M  V30 6144 N 605.608 -0.0310498 -4.6319 0
M  V30 6145 C 606.343 -0.153099 -5.73196 0
M  V30 6146 N 605.839 -0.330364 -6.92012 0
M  V30 6147 N 607.632 -0.0938854 -5.62022 0
M  V30 6148 H 599.783 -1.03263 -1.85609 0
M  V30 6149 H 602.046 -0.405251 -0.857016 0
M  V30 6150 H 601.752 -0.947254 -3.38703 0
M  V30 6151 H 601.626 0.776335 -3.69124 0
M  V30 6152 H 604.013 1.07894 -2.74669 0
M  V30 6153 H 604.094 -0.666762 -2.46957 0
M  V30 6154 H 603.738 -1.05729 -4.96773 0
M  V30 6155 H 603.668 0.705082 -5.21858 0
M  V30 6156 H 606.159 0.103141 -3.77759 0
M  V30 6157 H 606.472 -0.41482 -7.71686 0
M  V30 6158 H 604.817 -0.366119 -6.94035 0
M  V30 6159 H 608.008 0.0435168 -4.6808 0
M  V30 6160 H 608.181 -0.19245 -6.47714 0
M  V30 6161 N 601.587 1.56661 0.17182 0
M  V30 6162 C 602.833 1.8313 0.88516 0
M  V30 6163 C 603.188 0.682376 1.79893 0
M  V30 6164 O 602.481 -0.321215 1.88888 0
M  V30 6165 C 602.675 3.13435 1.71736 0
M  V30 6166 C 602.504 4.40892 0.885659 0
M  V30 6167 C 601.274 5.02177 0.560939 0
M  V30 6168 C 603.472 5.13797 0.227454 0
M  V30 6169 N 601.454 6.13229 -0.286953 0
M  V30 6170 C 602.825 6.18127 -0.481625 0
M  V30 6171 C 604.88 4.97687 0.145567 0
M  V30 6172 C 603.583 7.08092 -1.26482 0
M  V30 6173 C 605.609 5.88096 -0.624298 0
M  V30 6174 C 604.971 6.91888 -1.32174 0
M  V30 6175 H 601.07 0.721107 0.302536 0
M  V30 6176 H 603.654 1.94104 0.152178 0
M  V30 6177 H 601.825 3.03653 2.42176 0
M  V30 6178 H 603.557 3.27903 2.37196 0
M  V30 6179 H 600.312 4.65145 0.890902 0
M  V30 6180 H 600.736 6.73359 -0.701193 0
M  V30 6181 H 605.378 4.17451 0.670426 0
M  V30 6182 H 603.096 7.87774 -1.80103 0
M  V30 6183 H 606.682 5.77702 -0.689321 0
M  V30 6184 H 605.562 7.60637 -1.90791 0
M  V30 6185 N 603.065 -0.440357 1.51323 0
M  V30 6186 C 604.015 -1.53263 1.68803 0
M  V30 6187 C 604.999 -1.51494 0.542057 0
M  V30 6188 O 606.191 -1.57999 0.797839 0
M  V30 6189 C 603.32 -2.91479 1.8137 0
M  V30 6190 C 602.406 -2.98015 3.01742 0
M  V30 6191 N 602.797 -2.743 4.24962 0
M  V30 6192 C 601.095 -3.29173 3.00934 0
M  V30 6193 C 601.796 -2.86601 5.06197 0
M  V30 6194 N 600.772 -3.1814 4.40781 0
M  V30 6195 H 604.574 -1.33675 2.61741 0
M  V30 6196 H 602.088 -0.647616 1.48929 0
M  V30 6197 H 604.085 -3.70055 1.92002 0
M  V30 6198 H 602.745 -3.12089 0.896117 0
M  V30 6199 H 603.756 -2.49287 4.53957 0
M  V30 6200 H 600.433 -3.55577 2.18796 0
M  V30 6201 H 601.823 -2.72246 6.14274 0
M  V30 6202 N 604.543 -1.41418 -0.695603 0
M  V30 6203 C 605.453 -1.45622 -1.83933 0
M  V30 6204 C 606.469 -0.346825 -1.70508 0
M  V30 6205 O 607.645 -0.59454 -1.92424 0
M  V30 6206 C 604.71 -1.33627 -3.19914 0
M  V30 6207 C 603.771 -2.54882 -3.45447 0
M  V30 6208 C 603.004 -2.43449 -4.7494 0
M  V30 6209 O 603.227 -1.45905 -5.51424 0
M  V30 6210 O 602.161 -3.33206 -5.01256 0
M  V30 6211 H 605.987 -2.42114 -1.83342 0
M  V30 6212 H 603.572 -1.22956 -0.848658 0
M  V30 6213 H 605.454 -1.29221 -4.01098 0
M  V30 6214 H 604.129 -0.402508 -3.21188 0
M  V30 6215 H 603.036 -2.64865 -2.64192 0
M  V30 6216 H 604.369 -3.47087 -3.48987 0
M  V30 6217 N 606.021 0.929856 -1.27246 0
M  V30 6218 C 607.269 1.674 -1.13233 0
M  V30 6219 C 607.59 1.92311 0.322744 0
M  V30 6220 O 606.86 1.52784 1.22612 0
M  V30 6221 H 605.44 0.620411 -0.416052 0
M  V30 6222 H 608.102 1.11663 -1.59741 0
M  V30 6223 H 607.198 2.64308 -1.65975 0
M  V30 6224 N 607.499 1.09233 1.13605 0
M  V30 6225 C 608.729 0.847677 1.88409 0
M  V30 6226 C 609.137 -0.604524 1.79282 0
M  V30 6227 O 608.48 -1.42773 1.15592 0
M  V30 6228 C 608.542 1.20153 3.38827 0
M  V30 6229 C 608.206 2.65824 3.71735 0
M  V30 6230 C 609.203 3.64072 3.71143 0
M  V30 6231 C 606.888 3.01894 4.01454 0
M  V30 6232 C 608.882 4.96419 3.99808 0
M  V30 6233 C 606.569 4.34433 4.29781 0
M  V30 6234 C 607.567 5.31505 4.28942 0
M  V30 6235 O 607.255 6.61659 4.56576 0
M  V30 6236 H 606.987 0.304813 0.603378 0
M  V30 6237 H 609.541 1.4573 1.44748 0
M  V30 6238 H 607.771 0.534946 3.82982 0
M  V30 6239 H 609.46 0.936349 3.94952 0
M  V30 6240 H 610.226 3.37549 3.4826 0
M  V30 6241 H 606.105 2.26971 4.01255 0
M  V30 6242 H 609.649 5.7218 3.99069 0
M  V30 6243 H 605.546 4.607 4.52135 0
M  V30 6244 H 606.314 6.67102 4.74254 0
M  V30 6245 N 608.977 -1.30795 0.87923 0
M  V30 6246 C 610.393 -1.48981 0.57243 0
M  V30 6247 C 610.593 -1.80719 -0.891236 0
M  V30 6248 O 609.649 -1.89136 -1.67283 0
M  V30 6249 C 610.962 -2.61721 1.48063 0
M  V30 6250 C 612.51 -2.75603 1.48365 0
M  V30 6251 C 612.985 -3.91449 2.37763 0
M  V30 6252 N 614.476 -3.98751 2.35695 0
M  V30 6253 C 615.211 -4.87684 3.01583 0
M  V30 6254 N 614.707 -5.81454 3.76674 0
M  V30 6255 N 616.5 -4.81005 2.90844 0
M  V30 6256 H 608.651 -1.08465 1.82617 0
M  V30 6257 H 610.914 -0.536813 0.781368 0
M  V30 6258 H 610.62 -2.45073 2.52254 0
M  V30 6259 H 610.494 -3.58071 1.18596 0
M  V30 6260 H 612.881 -2.9166 0.44927 0
M  V30 6261 H 612.962 -1.79891 1.81859 0
M  V30 6262 H 612.606 -3.76149 3.41283 0
M  V30 6263 H 612.536 -4.86487 2.01589 0
M  V30 6264 H 615.027 -3.31668 1.81121 0
M  V30 6265 H 615.34 -6.46063 4.24054 0
M  V30 6266 H 613.685 -5.81403 3.80782 0
M  V30 6267 H 616.876 -4.06728 2.31711 0
M  V30 6268 H 617.049 -5.50107 3.42471 0
M  V30 6269 N 610.455 -0.639598 -1.44038 0
M  V30 6270 C 611.387 0.0987684 -2.28987 0
M  V30 6271 C 612.4 0.80058 -1.41755 0
M  V30 6272 O 613.589 0.660611 -1.65826 0
M  V30 6273 C 610.689 1.16242 -3.18341 0
M  V30 6274 C 609.862 0.541447 -4.34036 0
M  V30 6275 C 608.921 1.50017 -5.04362 0
M  V30 6276 O 607.947 1.01403 -5.60095 0
M  V30 6277 N 609.149 2.83441 -5.06598 0
M  V30 6278 H 611.914 -0.630305 -2.92997 0
M  V30 6279 H 609.475 -0.481376 -1.54578 0
M  V30 6280 H 611.467 1.80429 -3.62253 0
M  V30 6281 H 610.037 1.79362 -2.56024 0
M  V30 6282 H 609.257 -0.27923 -3.9321 0
M  V30 6283 H 610.545 0.107379 -5.08687 0
M  V30 6284 H 609.943 3.2551 -4.62666 0
M  V30 6285 H 608.5 3.42966 -5.54272 0
M  V30 6286 N 611.933 1.52934 -0.380664 0
M  V30 6287 C 613.161 2.05886 0.204599 0
M  V30 6288 C 613.576 1.25305 1.41223 0
M  V30 6289 O 612.933 0.297504 1.80059 0
M  V30 6290 C 612.984 3.56764 0.583249 0
M  V30 6291 O 612.705 4.34292 -0.576398 0
M  V30 6292 C 614.206 4.2603 1.2253 0
M  V30 6293 H 611.426 0.670193 0.0328991 0
M  V30 6294 H 613.97 1.97148 -0.543397 0
M  V30 6295 H 612.125 3.65603 1.28115 0
M  V30 6296 H 612.539 5.23819 -0.267119 0
M  V30 6297 H 614.013 5.32868 1.44068 0
M  V30 6298 H 614.49 3.80698 2.19011 0
M  V30 6299 H 615.096 4.21485 0.568407 0
M  V30 6300 N 613.412 0.11024 1.57214 0
M  V30 6301 C 614.823 -0.416527 1.81994 0
M  V30 6302 C 615.174 -1.67183 1.02686 0
M  V30 6303 O 614.299 -2.14823 0.260782 0
M  V30 6304 C 614.894 -0.762466 3.30109 0
M  V30 6305 C 613.453 -1.23391 3.556 0
M  V30 6306 C 612.6 -0.238166 2.76275 0
M  V30 6307 H 615.551 0.335491 1.55113 0
M  V30 6308 H 615.572 -1.62068 3.44259 0
M  V30 6309 H 615.084 0.151346 3.87805 0
M  V30 6310 H 613.185 -2.16492 3.03253 0
M  V30 6311 H 613.298 -1.18528 4.64207 0
M  V30 6312 H 611.662 -0.723421 2.4421 0
M  V30 6313 H 612.445 0.668591 3.36727 0
M  V30 6314 N 614.89 -1.56749 -0.16351 0
M  V30 6315 C 615.837 -1.97011 -1.2023 0
M  V30 6316 C 616.807 -0.835186 -1.43575 0
M  V30 6317 O 617.992 -1.09594 -1.56185 0
M  V30 6318 C 615.132 -2.34186 -2.53478 0
M  V30 6319 C 614.245 -3.60893 -2.37446 0
M  V30 6320 C 613.38 -3.87245 -3.63614 0
M  V30 6321 C 612.419 -5.07274 -3.42548 0
M  V30 6322 N 611.556 -5.29719 -4.60806 0
M  V30 6323 H 616.396 -2.85562 -0.851958 0
M  V30 6324 H 613.933 -1.41292 -0.409257 0
M  V30 6325 H 615.891 -2.53764 -3.31149 0
M  V30 6326 H 614.521 -1.48736 -2.86492 0
M  V30 6327 H 613.573 -3.49185 -1.50911 0
M  V30 6328 H 614.885 -4.48722 -2.1783 0
M  V30 6329 H 614.039 -4.07232 -4.49719 0
M  V30 6330 H 612.778 -2.97806 -3.86216 0
M  V30 6331 H 611.783 -4.87177 -2.5483 0
M  V30 6332 H 613.008 -5.98251 -3.2136 0
M  V30 6333 H 610.954 -4.43233 -4.83612 0
M  V30 6334 H 610.871 -6.11786 -4.44132 0
M  V30 6335 H 612.139 -5.54192 -5.48171 0
M  V30 6336 N 616.368 0.432326 -1.51554 0
M  V30 6337 C 617.278 1.55023 -1.76082 0
M  V30 6338 C 618.294 1.61593 -0.645265 0
M  V30 6339 O 619.47 1.78742 -0.928086 0
M  V30 6340 C 616.535 2.90964 -1.88523 0
M  V30 6341 C 615.596 2.9447 -3.12388 0
M  V30 6342 C 614.829 4.23926 -3.24225 0
M  V30 6343 O 615.052 5.16576 -2.4188 0
M  V30 6344 O 613.986 4.33818 -4.17235 0
M  V30 6345 H 617.812 1.37238 -2.70923 0
M  V30 6346 H 615.397 0.615845 -1.36117 0
M  V30 6347 H 617.279 3.71633 -1.98662 0
M  V30 6348 H 615.954 3.08865 -0.9687 0
M  V30 6349 H 614.861 2.12737 -3.07723 0
M  V30 6350 H 616.194 2.81514 -4.03746 0
M  V30 6351 N 617.846 1.41785 0.688094 0
M  V30 6352 C 619.123 1.32031 1.44316 0
M  V30 6353 C 619.503 -0.0486079 2.11044 0
M  V30 6354 O 618.851 -1.06332 2.02252 0
M  V30 6355 C 619.061 2.47906 2.45649 0
M  V30 6356 C 620.409 2.89415 3.10683 0
M  V30 6357 O 621.433 2.477 2.55975 0
M  V30 6358 O 620.292 3.61573 4.09789 0
M  V30 6359 H 617.386 0.519994 0.643067 0
M  V30 6360 H 619.932 1.53765 0.71794 0
M  V30 6361 H 618.704 3.39222 1.95048 0
M  V30 6362 H 618.327 2.28089 3.25671 0
M  V30 6363 N 619.324 -0.923095 1.27737 0
M  V30 6364 C 620.549 -1.71054 1.17283 0
M  V30 6365 C 620.974 -1.86208 -0.266153 0
M  V30 6366 O 620.332 -1.36545 -1.1927 0
M  V30 6367 C 620.38 -3.0854 1.86642 0
M  V30 6368 O 619.484 -3.95528 1.16752 0
M  V30 6369 H 618.825 -0.524136 0.407649 0
M  V30 6370 H 621.355 -1.15487 1.6889 0
M  V30 6371 H 621.365 -3.58828 1.94182 0
M  V30 6372 H 620.04 -2.96828 2.91317 0
M  V30 6373 H 618.617 -3.53967 1.17312 0
M  V30 6374 N 620.802 -1.09834 -1.13024 0
M  V30 6375 C 621.752 -0.710899 -2.16634 0
M  V30 6376 C 622.736 0.276836 -1.58501 0
M  V30 6377 O 623.928 0.0865457 -1.76788 0
M  V30 6378 C 621.057 -0.137574 -3.43024 0
M  V30 6379 C 620.143 -1.15198 -4.08155 0
M  V30 6380 N 620.534 -2.34054 -4.48388 0
M  V30 6381 C 618.832 -0.991074 -4.34849 0
M  V30 6382 C 619.533 -2.98616 -4.99203 0
M  V30 6383 N 618.509 -2.26159 -4.94321 0
M  V30 6384 H 622.311 -1.61576 -2.455 0
M  V30 6385 H 619.825 -0.975158 -1.29863 0
M  V30 6386 H 621.822 0.158031 -4.166 0
M  V30 6387 H 620.482 0.762088 -3.1563 0
M  V30 6388 H 621.493 -2.7162 -4.40957 0
M  V30 6389 H 618.17 -0.146448 -4.17243 0
M  V30 6390 H 619.56 -3.99683 -5.40096 0
M  V30 6391 N 622.28 1.30327 -0.886154 0
M  V30 6392 C 623.505 2.0079 -0.519425 0
M  V30 6393 C 623.93 1.65979 0.885013 0
M  V30 6394 O 623.288 0.877043 1.58675 0
M  V30 6395 C 623.336 3.53686 -0.702758 0
M  V30 6396 O 622.44 4.11637 0.250828 0
M  V30 6397 H 621.781 0.63171 -0.204544 0
M  V30 6398 H 624.311 1.66145 -1.19402 0
M  V30 6399 H 624.321 4.03531 -0.602207 0
M  V30 6400 H 622.996 3.78361 -1.72673 0
M  V30 6401 H 621.573 3.72755 0.103873 0
M  V30 6402 N 623.758 0.647228 1.43697 0
M  V30 6403 C 624.986 0.16575 2.06235 0
M  V30 6404 C 625.401 -1.1662 1.48476 0
M  V30 6405 O 624.758 -1.7187 0.613762 0
M  V30 6406 C 624.809 0.0621651 3.61447 0
M  V30 6407 O 624.53 1.34146 4.17057 0
M  V30 6408 C 626.031 -0.446102 4.4105 0
M  V30 6409 H 623.251 0.0871158 0.665321 0
M  V30 6410 H 625.795 0.886183 1.84301 0
M  V30 6411 H 623.95 -0.608794 3.82587 0
M  V30 6412 H 624.364 1.19675 5.10664 0
M  V30 6413 H 625.838 -0.46755 5.50016 0
M  V30 6414 H 626.315 -1.47627 4.13646 0
M  V30 6415 H 626.921 0.192159 4.24866 0
M  V30 6416 N 625.236 -1.5273 0.388769 0
M  V30 6417 C 626.464 -2.05992 -0.193677 0
M  V30 6418 C 626.879 -1.26053 -1.40557 0
M  V30 6419 O 626.236 -0.307049 -1.79898 0
M  V30 6420 C 626.287 -3.57068 -0.564321 0
M  V30 6421 O 626.008 -4.3398 0.599422 0
M  V30 6422 C 627.509 -4.26674 -1.20269 0
M  V30 6423 H 624.729 -0.670358 -0.0293445 0
M  V30 6424 H 627.273 -1.96857 0.553844 0
M  V30 6425 H 625.428 -3.66277 -1.26174 0
M  V30 6426 H 625.842 -5.2367 0.294895 0
M  V30 6427 H 627.316 -5.33625 -1.4124 0
M  V30 6428 H 627.793 -3.81854 -2.16989 0
M  V30 6429 H 628.399 -4.2178 -0.546047 0
M  V30 6430 N 626.714 -0.118576 -1.57153 0
M  V30 6431 C 627.962 0.538461 -1.94795 0
M  V30 6432 C 628.283 1.67243 -1.00274 0
M  V30 6433 O 627.553 1.95811 -0.0589692 0
M  V30 6434 H 626.133 0.201904 -0.719197 0
M  V30 6435 H 628.795 -0.187418 -1.93997 0
M  V30 6436 H 627.891 0.933315 -2.97818 0
M  V30 6437 N 628.193 1.56834 0.155195 0
M  V30 6438 C 629.421 1.87049 0.884326 0
M  V30 6439 C 629.836 0.705839 1.7511 0
M  V30 6440 O 629.193 -0.324641 1.79589 0
M  V30 6441 C 629.244 3.1644 1.74781 0
M  V30 6442 O 628.965 4.28417 0.915978 0
M  V30 6443 C 630.466 3.60113 2.58522 0
M  V30 6444 H 627.686 0.620196 0.25612 0
M  V30 6445 H 630.23 2.03946 0.150445 0
M  V30 6446 H 628.385 3.01321 2.43484 0
M  V30 6447 H 628.799 5.02353 1.50803 0
M  V30 6448 H 630.273 4.53508 3.14698 0
M  V30 6449 H 630.75 2.85005 3.34169 0
M  V30 6450 H 631.356 3.77898 1.95124 0
M  V30 6451 N 629.671 -0.424282 1.51781 0
M  V30 6452 C 630.634 -1.49848 1.73431 0
M  V30 6453 C 631.634 -1.49016 0.604225 0
M  V30 6454 O 632.824 -1.50808 0.871935 0
M  V30 6455 C 629.956 -2.89332 1.80277 0
M  V30 6456 H 631.149 -1.3195 2.69312 0
M  V30 6457 H 628.702 -0.653809 1.41968 0
M  V30 6458 H 629.437 -3.12618 0.862568 0
M  V30 6459 H 629.222 -2.9134 2.62419 0
M  V30 6460 H 630.712 -3.67233 1.98821 0
M  V30 6461 N 631.149 -1.42148 -0.680565 0
M  V30 6462 C 632.112 -1.4488 -1.77602 0
M  V30 6463 C 633.112 -0.337209 -1.57224 0
M  V30 6464 O 634.302 -0.597778 -1.63622 0
M  V30 6465 C 631.434 -1.27483 -3.16166 0
M  V30 6466 H 632.627 -2.42412 -1.76568 0
M  V30 6467 H 630.18 -1.28511 -0.889645 0
M  V30 6468 H 630.915 -0.30851 -3.22829 0
M  V30 6469 H 630.7 -2.08037 -3.3236 0
M  V30 6470 H 632.19 -1.32265 -3.96101 0
M  V30 6471 N 632.627 0.916307 -1.28225 0
M  V30 6472 C 633.59 1.99996 -1.11957 0
M  V30 6473 C 634.59 1.60688 -0.0600152 0
M  V30 6474 O 635.78 1.71499 -0.30558 0
M  V30 6475 C 632.912 3.33458 -0.708411 0
M  V30 6476 H 634.105 2.15858 -2.08196 0
M  V30 6477 H 631.658 1.09863 -1.11175 0
M  V30 6478 H 632.393 3.23297 0.254859 0
M  V30 6479 H 632.178 3.63349 -1.47377 0
M  V30 6480 H 633.668 4.13014 -0.617164 0
M  V30 6481 N 634.105 1.10431 1.1244 0
M  V30 6482 C 635.33 0.869089 1.88313 0
M  V30 6483 C 635.755 -0.574912 1.79099 0
M  V30 6484 O 635.113 -1.40496 1.14589 0
M  V30 6485 C 635.161 1.32208 3.3549 0
M  V30 6486 O 634.265 0.487092 4.09513 0
M  V30 6487 H 633.606 0.313894 0.585121 0
M  V30 6488 H 636.136 1.47111 1.42195 0
M  V30 6489 H 636.146 1.31201 3.86329 0
M  V30 6490 H 634.821 2.37364 3.41513 0
M  V30 6491 H 633.398 0.562372 3.68635 0
M  V30 6492 N 635.583 -1.29855 0.893053 0
M  V30 6493 C 636.546 -2.26183 0.370687 0
M  V30 6494 C 637.546 -1.53108 -0.491385 0
M  V30 6495 O 638.736 -1.71643 -0.297386 0
M  V30 6496 C 635.868 -3.37633 -0.470827 0
M  V30 6497 H 637.061 -2.73903 1.22135 0
M  V30 6498 H 634.614 -1.41183 0.67061 0
M  V30 6499 H 635.349 -2.95241 -1.34175 0
M  V30 6500 H 635.134 -3.91825 0.146784 0
M  V30 6501 H 636.624 -4.09313 -0.827825 0
M  V30 6502 N 637.061 -0.65484 -1.43351 0
M  V30 6503 C 638.011 0.0581325 -2.27926 0
M  V30 6504 C 638.995 0.793188 -1.3999 0
M  V30 6505 O 640.187 0.675387 -1.63608 0
M  V30 6506 C 637.316 1.02272 -3.27712 0
M  V30 6507 C 636.402 0.286048 -4.23134 0
M  V30 6508 N 636.793 -0.698298 -5.00957 0
M  V30 6509 C 635.091 0.527272 -4.42872 0
M  V30 6510 C 635.792 -1.1357 -5.70506 0
M  V30 6511 N 634.768 -0.469631 -5.41568 0
M  V30 6512 H 638.57 -0.697182 -2.85511 0
M  V30 6513 H 636.084 -0.482252 -1.55074 0
M  V30 6514 H 638.081 1.5483 -3.87083 0
M  V30 6515 H 636.741 1.77807 -2.71688 0
M  V30 6516 H 637.752 -1.07708 -5.06576 0
M  V30 6517 H 634.429 1.26367 -3.97916 0
M  V30 6518 H 635.819 -1.95027 -6.42973 0
M  V30 6519 N 638.539 1.52521 -0.396863 0
M  V30 6520 C 639.767 2.06091 0.18275 0
M  V30 6521 C 640.182 1.26796 1.39886 0
M  V30 6522 O 639.539 0.316585 1.79733 0
M  V30 6523 C 639.59 3.57362 0.545377 0
M  V30 6524 O 639.311 4.33656 -0.622428 0
M  V30 6525 C 640.812 4.27305 1.18004 0
M  V30 6526 H 638.032 0.670504 0.025789 0
M  V30 6527 H 640.576 1.96561 -0.564276 0
M  V30 6528 H 638.731 3.66941 1.2423 0
M  V30 6529 H 639.145 5.23507 -0.322662 0
M  V30 6530 H 640.619 5.34366 1.38408 0
M  V30 6531 H 641.096 3.83 2.1496 0
M  V30 6532 H 641.702 4.22064 0.523671 0
M  V30 6533 N 640.017 0.126909 1.57088 0
M  V30 6534 C 641.242 -0.53997 2.00248 0
M  V30 6535 C 641.667 -1.58927 1.00618 0
M  V30 6536 O 641.025 -1.81288 -0.0210131 0
M  V30 6537 C 641.073 -1.13565 3.4225 0
M  V30 6538 O 640.177 -2.25103 3.45547 0
M  V30 6539 H 639.518 -0.13412 0.650314 0
M  V30 6540 H 642.048 0.217718 2.03438 0
M  V30 6541 H 642.058 -1.46925 3.80627 0
M  V30 6542 H 640.733 -0.367122 4.14277 0
M  V30 6543 H 639.31 -1.93123 3.18995 0
M  V30 6544 N 641.495 -1.56914 -0.146875 0
M  V30 6545 C 642.445 -1.94693 -1.18653 0
M  V30 6546 C 643.429 -0.81821 -1.38543 0
M  V30 6547 O 644.621 -1.08167 -1.40103 0
M  V30 6548 C 641.75 -2.33117 -2.52014 0
M  V30 6549 C 640.836 -3.5256 -2.35717 0
M  V30 6550 N 641.227 -4.69091 -1.89175 0
M  V30 6551 C 639.525 -3.57647 -2.66467 0
M  V30 6552 C 640.226 -5.51187 -1.85924 0
M  V30 6553 N 639.202 -4.92899 -2.29242 0
M  V30 6554 H 643.004 -2.82264 -0.81879 0
M  V30 6555 H 640.518 -1.58474 -0.354929 0
M  V30 6556 H 642.515 -2.58387 -3.27172 0
M  V30 6557 H 641.175 -1.46898 -2.89571 0
M  V30 6558 H 642.186 -4.92844 -1.59139 0
M  V30 6559 H 638.863 -2.81967 -3.07898 0
M  V30 6560 H 640.253 -6.54613 -1.51431 0
M  V30 6561 N 642.974 0.416227 -1.52004 0
M  V30 6562 C 644.385 0.995319 -1.57957 0
M  V30 6563 C 644.736 1.91744 -0.415754 0
M  V30 6564 O 643.861 2.11349 0.464808 0
M  V30 6565 C 644.456 1.81191 -2.86278 0
M  V30 6566 C 643.015 2.34115 -2.94732 0
M  V30 6567 C 642.162 1.139 -2.52828 0
M  V30 6568 H 645.113 0.196716 -1.57476 0
M  V30 6569 H 645.134 2.66859 -2.71231 0
M  V30 6570 H 644.646 1.14051 -3.70963 0
M  V30 6571 H 642.747 3.04647 -2.14525 0
M  V30 6572 H 642.86 2.65466 -3.98829 0
M  V30 6573 H 641.224 1.49081 -2.06511 0
M  V30 6574 H 642.007 0.483383 -3.3988 0
M  V30 6575 N 644.452 1.42507 0.673017 0
M  V30 6576 C 645.385 1.40557 1.79774 0
M  V30 6577 C 646.363 0.269606 1.60349 0
M  V30 6578 O 647.547 0.460105 1.82798 0
M  V30 6579 C 644.674 1.19815 3.168 0
M  V30 6580 C 643.72 2.36429 3.5497 0
M  V30 6581 S 644.553 3.98963 3.57196 0
M  V30 6582 C 645.709 3.80567 4.9691 0
M  V30 6583 H 645.942 2.35734 1.81154 0
M  V30 6584 H 643.475 1.293 0.843846 0
M  V30 6585 H 645.433 1.08535 3.95892 0
M  V30 6586 H 644.094 0.262215 3.13004 0
M  V30 6587 H 643.287 2.17669 4.54573 0
M  V30 6588 H 642.889 2.44233 2.83242 0
M  V30 6589 H 645.181 3.41668 5.85038 0
M  V30 6590 H 646.124 4.79852 5.20718 0
M  V30 6591 H 646.532 3.13399 4.69512 0
M  V30 6592 N 645.93 -0.909495 1.28709 0
M  V30 6593 C 646.862 -2.01729 1.08804 0
M  V30 6594 C 647.875 -1.62755 0.0384739 0
M  V30 6595 O 649.064 -1.76259 0.281977 0
M  V30 6596 C 646.164 -3.32952 0.63217 0
M  V30 6597 C 645.337 -4.00512 1.75809 0
M  V30 6598 C 644.396 -5.10019 1.29488 0
M  V30 6599 O 643.422 -5.32986 1.99787 0
M  V30 6600 N 644.624 -5.80278 0.1604 0
M  V30 6601 H 647.389 -2.19362 2.04207 0
M  V30 6602 H 644.95 -1.08106 1.20518 0
M  V30 6603 H 646.942 -4.03543 0.305802 0
M  V30 6604 H 645.512 -3.11759 -0.229134 0
M  V30 6605 H 644.732 -3.23413 2.25383 0
M  V30 6606 H 646.02 -4.42395 2.51325 0
M  V30 6607 H 645.418 -5.64094 -0.425937 0
M  V30 6608 H 643.975 -6.51713 -0.106663 0
M  V30 6609 N 647.408 -1.11026 -1.11852 0
M  V30 6610 C 648.656 -0.854769 -1.83134 0
M  V30 6611 C 648.977 0.621375 -1.84835 0
M  V30 6612 O 648.247 1.45129 -1.31584 0
M  V30 6613 H 646.827 -0.313229 -0.678157 0
M  V30 6614 H 649.489 -1.40178 -1.35411 0
M  V30 6615 H 648.585 -1.22311 -2.87135 0
M  V30 6616 N 648.886 1.2938 -0.899927 0
M  V30 6617 C 650.302 1.48052 -0.596059 0
M  V30 6618 C 650.502 1.82114 0.862372 0
M  V30 6619 O 649.558 1.91774 1.64253 0
M  V30 6620 C 650.871 2.59332 -1.52208 0
M  V30 6621 C 652.419 2.73208 -1.5273 0
M  V30 6622 C 652.894 3.87617 -2.43961 0
M  V30 6623 N 654.385 3.9495 -2.42009 0
M  V30 6624 C 655.12 4.82824 -3.09303 0
M  V30 6625 N 654.616 5.75387 -3.85877 0
M  V30 6626 N 656.409 4.76317 -2.98459 0
M  V30 6627 H 648.56 1.05546 -1.8432 0
M  V30 6628 H 650.823 0.524314 -0.78981 0
M  V30 6629 H 650.529 2.41029 -2.56121 0
M  V30 6630 H 650.403 3.56139 -1.24278 0
M  V30 6631 H 652.79 2.90908 -0.495614 0
M  V30 6632 H 652.871 1.76975 -1.84698 0
M  V30 6633 H 652.515 3.70672 -3.47224 0
M  V30 6634 H 652.445 4.83218 -2.09303 0
M  V30 6635 H 654.936 3.28744 -1.86375 0
M  V30 6636 H 655.249 6.39235 -4.34279 0
M  V30 6637 H 653.594 5.75272 -3.89984 0
M  V30 6638 H 656.785 4.0299 -2.38152 0
M  V30 6639 H 656.958 5.44589 -3.51179 0
M  V30 6640 N 650.364 0.662433 1.43002 0
M  V30 6641 C 651.592 0.187615 2.06048 0
M  V30 6642 C 652.007 -1.15039 1.49705 0
M  V30 6643 O 651.364 -1.71209 0.631956 0
M  V30 6644 C 651.415 0.100498 3.6136 0
M  V30 6645 O 651.136 1.38562 4.15611 0
M  V30 6646 C 652.637 -0.399298 4.41498 0
M  V30 6647 H 649.857 0.0941675 0.664359 0
M  V30 6648 H 652.401 0.905681 1.83351 0
M  V30 6649 H 650.556 -0.568181 3.83211 0
M  V30 6650 H 650.97 1.25084 5.09366 0
M  V30 6651 H 652.444 -0.409187 5.50481 0
M  V30 6652 H 652.921 -1.43232 4.15188 0
M  V30 6653 H 653.527 0.23721 4.24638 0
M  V30 6654 N 651.842 -1.52309 0.404946 0
M  V30 6655 C 653.07 -2.06185 -0.171818 0
M  V30 6656 C 653.485 -1.27536 -1.39212 0
M  V30 6657 O 652.842 -0.326112 -1.79563 0
M  V30 6658 C 652.893 -3.57647 -0.526417 0
M  V30 6659 O 652.614 -4.3332 0.645417 0
M  V30 6660 C 654.115 -4.27925 -1.15736 0
M  V30 6661 H 651.335 -0.670632 -0.0222328 0
M  V30 6662 H 653.879 -1.96259 0.574692 0
M  V30 6663 H 652.034 -3.67595 -1.22282 0
M  V30 6664 H 652.448 -5.23328 0.35042 0
M  V30 6665 H 653.922 -5.35093 -1.35572 0
M  V30 6666 H 654.399 -3.84134 -2.12926 0
M  V30 6667 H 655.005 -4.22335 -0.501281 0
M  V30 6668 N 653.32 -0.135238 -1.57019 0
M  V30 6669 C 654.731 0.387521 -1.82634 0
M  V30 6670 C 655.082 1.65528 -1.05332 0
M  V30 6671 O 654.207 2.14381 -0.294926 0
M  V30 6672 C 654.802 0.709852 -3.3128 0
M  V30 6673 C 653.361 1.17718 -3.57518 0
M  V30 6674 C 652.508 0.194183 -2.76619 0
M  V30 6675 H 655.459 -0.360126 -1.5456 0
M  V30 6676 H 655.48 1.5657 -3.46794 0
M  V30 6677 H 654.992 -0.213024 -3.87515 0
M  V30 6678 H 653.093 2.1164 -3.06658 0
M  V30 6679 H 653.206 1.11128 -4.66034 0
M  V30 6680 H 651.57 0.684478 -2.4533 0
M  V30 6681 H 652.353 -0.722076 -3.3562 0
M  V30 6682 N 654.798 1.5699 0.138552 0
M  V30 6683 C 656.023 1.88344 0.86841 0
M  V30 6684 C 656.448 0.725159 1.7356 0
M  V30 6685 O 655.806 -0.324992 1.78363 0
M  V30 6686 C 655.854 3.18334 1.69398 0
M  V30 6687 O 654.958 3.02863 2.79907 0
M  V30 6688 H 654.299 0.618577 0.241367 0
M  V30 6689 H 656.829 2.04207 0.126826 0
M  V30 6690 H 656.839 3.50567 2.08726 0
M  V30 6691 H 655.514 4.02238 1.05725 0
M  V30 6692 H 654.091 2.82056 2.43924 0
M  V30 6693 N 656.276 -0.40816 1.52223 0
M  V30 6694 C 657.687 -0.986929 1.58482 0
M  V30 6695 C 658.038 -1.91521 0.425917 0
M  V30 6696 O 657.163 -2.11593 -0.453593 0
M  V30 6697 C 657.758 -1.7967 2.87235 0
M  V30 6698 C 656.317 -2.32549 2.9597 0
M  V30 6699 C 655.464 -1.12558 2.53428 0
M  V30 6700 H 658.415 -0.188362 1.57578 0
M  V30 6701 H 658.436 -2.65417 2.72642 0
M  V30 6702 H 657.948 -1.12082 3.71563 0
M  V30 6703 H 656.049 -3.03505 2.16137 0
M  V30 6704 H 656.162 -2.63348 4.00231 0
M  V30 6705 H 654.526 -1.47984 2.07299 0
M  V30 6706 H 655.309 -0.465351 3.40131 0
M  V30 6707 N 657.755 -1.42862 -0.66545 0
M  V30 6708 C 658.665 -1.49491 -1.80803 0
M  V30 6709 C 659.681 -0.382914 -1.69734 0
M  V30 6710 O 660.857 -0.635223 -1.9112 0
M  V30 6711 C 657.922 -1.40383 -3.17007 0
M  V30 6712 C 656.983 -2.62152 -3.39963 0
M  V30 6713 C 656.216 -2.53469 -4.69669 0
M  V30 6714 O 656.439 -1.57568 -5.48205 0
M  V30 6715 O 655.373 -3.43763 -4.94075 0
M  V30 6716 H 659.199 -2.45949 -1.78165 0
M  V30 6717 H 656.784 -1.24728 -0.822387 0
M  V30 6718 H 658.666 -1.377 -3.98267 0
M  V30 6719 H 657.341 -0.470546 -3.20262 0
M  V30 6720 H 656.248 -2.70409 -2.58515 0
M  V30 6721 H 657.581 -3.54411 -3.41546 0
M  V30 6722 N 659.233 0.902656 -1.29189 0
M  V30 6723 C 660.51 1.63296 -1.07674 0
M  V30 6724 C 660.89 2.07649 0.380137 0
M  V30 6725 O 660.238 1.82997 1.36837 0
M  V30 6726 C 660.448 2.81603 -2.06158 0
M  V30 6727 C 661.796 3.52359 -2.36914 0
M  V30 6728 O 662.82 2.91767 -2.04329 0
M  V30 6729 O 661.679 4.61586 -2.92576 0
M  V30 6730 H 658.773 0.716889 -0.41231 0
M  V30 6731 H 661.319 0.950984 -1.4055 0
M  V30 6732 H 660.091 2.46004 -3.04299 0
M  V30 6733 H 659.714 3.57508 -1.73993 0
M  V30 6734 N 660.711 1.11618 1.11262 0
M  V30 6735 C 661.936 0.889013 1.8738 0
M  V30 6736 C 662.361 -0.555884 1.79698 0
M  V30 6737 O 661.719 -1.39272 1.16073 0
M  V30 6738 C 661.767 1.35759 3.34069 0
M  V30 6739 O 660.871 0.530499 4.08974 0
M  V30 6740 H 660.212 0.320082 0.581759 0
M  V30 6741 H 662.742 1.48611 1.40627 0
M  V30 6742 H 662.752 1.35291 3.84916 0
M  V30 6743 H 661.427 2.40973 3.38976 0
M  V30 6744 H 660.004 0.601439 3.68018 0
M  V30 6745 N 662.189 -1.289 0.906776 0
M  V30 6746 C 663.414 -1.99939 0.551303 0
M  V30 6747 C 663.839 -1.67366 -0.858496 0
M  V30 6748 O 663.197 -0.902176 -1.57259 0
M  V30 6749 C 663.245 -3.52523 0.758937 0
M  V30 6750 O 662.349 -4.11983 -0.185308 0
M  V30 6751 H 661.69 -0.628376 0.214568 0
M  V30 6752 H 664.22 -1.64225 1.2203 0
M  V30 6753 H 664.23 -4.02522 0.666329 0
M  V30 6754 H 662.905 -3.75566 1.78671 0
M  V30 6755 H 661.482 -3.72873 -0.0445577 0
M  V30 6756 N 663.667 -0.670007 -1.42649 0
M  V30 6757 C 664.913 -0.19923 -2.02422 0
M  V30 6758 C 665.268 1.17947 -1.52007 0
M  V30 6759 O 664.561 1.77939 -0.710512 0
M  V30 6760 C 664.755 -0.168298 -3.57004 0
M  V30 6761 C 664.584 -1.54246 -4.22419 0
M  V30 6762 C 663.354 -2.13904 -4.57792 0
M  V30 6763 C 665.552 -2.4842 -4.50324 0
M  V30 6764 N 663.534 -3.44151 -5.08364 0
M  V30 6765 C 664.905 -3.63317 -5.02395 0
M  V30 6766 C 666.96 -2.47011 -4.32308 0
M  V30 6767 C 665.663 -4.77051 -5.38345 0
M  V30 6768 C 667.689 -3.59838 -4.6933 0
M  V30 6769 C 667.051 -4.73462 -5.21549 0
M  V30 6770 H 663.15 -0.117717 -0.773089 0
M  V30 6771 H 665.734 -0.881955 -1.73579 0
M  V30 6772 H 663.905 0.483824 -3.85375 0
M  V30 6773 H 665.637 0.314914 -4.03473 0
M  V30 6774 H 662.392 -1.66441 -4.4339 0
M  V30 6775 H 662.816 -4.10846 -5.38084 0
M  V30 6776 H 667.458 -1.60394 -3.91195 0
M  V30 6777 H 665.176 -5.64347 -5.78393 0
M  V30 6778 H 668.762 -3.59969 -4.57071 0
M  V30 6779 H 667.642 -5.59321 -5.49663 0
M  V30 6780 N 665.145 1.52092 -0.413018 0
M  V30 6781 C 666.373 2.06274 0.160881 0
M  V30 6782 C 666.788 1.28273 1.38533 0
M  V30 6783 O 666.145 0.33563 1.79387 0
M  V30 6784 C 666.196 3.57921 0.507443 0
M  V30 6785 O 665.917 4.32971 -0.668388 0
M  V30 6786 C 667.418 4.28533 1.13465 0
M  V30 6787 H 664.638 0.67074 0.0186759 0
M  V30 6788 H 667.182 1.95951 -0.585092 0
M  V30 6789 H 665.337 3.68238 1.20331 0
M  V30 6790 H 665.751 5.23135 -0.378169 0
M  V30 6791 H 667.225 5.35804 1.32732 0
M  V30 6792 H 667.702 3.85258 2.10886 0
M  V30 6793 H 668.308 4.22595 0.478876 0
M  V30 6794 N 666.623 0.143563 1.56945 0
M  V30 6795 C 667.9 -0.553285 1.87612 0
M  V30 6796 C 668.28 -1.83195 1.04894 0
M  V30 6797 O 667.628 -2.28102 0.134773 0
M  V30 6798 C 667.838 -0.822055 3.3918 0
M  V30 6799 C 669.186 -1.16435 4.08324 0
M  V30 6800 O 670.21 -0.911522 3.4434 0
M  V30 6801 O 669.069 -1.63996 5.21313 0
M  V30 6802 H 666.163 -0.281851 0.777489 0
M  V30 6803 H 668.709 0.179916 1.68744 0
M  V30 6804 H 667.481 0.0830265 3.91212 0
M  V30 6805 H 667.104 -1.60956 3.63564 0
M  V30 6806 N 668.101 -1.57061 -0.130224 0
M  V30 6807 C 669.348 -1.84257 -0.839972 0
M  V30 6808 C 669.676 -0.726986 -1.80403 0
M  V30 6809 O 668.931 0.282632 -1.93648 0
M  V30 6810 C 669.23 -3.17878 -1.63365 0
M  V30 6811 C 668.896 -4.43475 -0.814891 0
M  V30 6812 C 667.558 -4.77581 -0.589066 0
M  V30 6813 C 669.91 -5.20631 -0.243437 0
M  V30 6814 C 667.238 -5.86292 0.218648 0
M  V30 6815 C 669.59 -6.30192 0.551408 0
M  V30 6816 C 668.254 -6.62837 0.787653 0
M  V30 6817 H 667.524 -0.674245 -0.307367 0
M  V30 6818 H 670.171 -1.91224 -0.102832 0
M  V30 6819 H 668.476 -3.06437 -2.44138 0
M  V30 6820 H 670.173 -3.3614 -2.18658 0
M  V30 6821 H 666.763 -4.16747 -1.00098 0
M  V30 6822 H 670.947 -4.94644 -0.405145 0
M  V30 6823 H 666.203 -6.10017 0.411016 0
M  V30 6824 H 670.377 -6.89165 1.00126 0
M  V30 6825 H 668.004 -7.46908 1.41537 0
M  V30 6826 N 669.579 0.400081 -1.52437 0
M  V30 6827 C 670.826 1.14619 -1.6694 0
M  V30 6828 C 671.154 1.90262 -0.403797 0
M  V30 6829 O 670.409 1.85835 0.61351 0
M  V30 6830 C 670.708 2.15914 -2.84808 0
M  V30 6831 C 670.374 1.57011 -4.2268 0
M  V30 6832 C 669.036 1.40672 -4.60179 0
M  V30 6833 C 671.388 1.14081 -5.08562 0
M  V30 6834 C 668.716 0.799335 -5.81229 0
M  V30 6835 C 671.068 0.547573 -6.30226 0
M  V30 6836 C 669.732 0.371389 -6.66466 0
M  V30 6837 H 669.002 0.419419 -0.610875 0
M  V30 6838 H 671.649 0.432227 -1.86558 0
M  V30 6839 H 669.954 2.93488 -2.59561 0
M  V30 6840 H 671.651 2.73533 -2.93225 0
M  V30 6841 H 668.241 1.70713 -3.93135 0
M  V30 6842 H 672.425 1.2551 -4.80168 0
M  V30 6843 H 667.681 0.65093 -6.07925 0
M  V30 6844 H 671.855 0.206575 -6.96094 0
M  V30 6845 H 669.482 -0.10135 -7.60132 0
M  V30 6846 N 671.057 1.43213 0.657864 0
M  V30 6847 C 672.005 1.48271 1.79216 0
M  V30 6848 C 672.999 0.35675 1.65601 0
M  V30 6849 O 674.205 0.530535 1.72004 0
M  V30 6850 H 670.58 0.464729 0.591211 0
M  V30 6851 H 672.551 2.43792 1.7207 0
M  V30 6852 C 671.3 1.41837 3.17455 0
M  V30 6853 H 670.623 2.27781 3.28567 0
M  V30 6854 H 672.063 1.49438 3.96793 0
M  V30 6855 C 670.522 0.135347 3.36628 0
M  V30 6856 O 671.052 -0.805199 3.93547 0
M  V30 6857 N 669.258 0.0470316 2.90562 0
M  V30 6858 H 668.805 0.813221 2.44427 0
M  V30 6859 H 668.763 -0.810737 3.03767 0
M  V30 6860 N 672.536 -0.895792 1.29666 0
M  V30 6861 C 673.947 -1.46195 1.1612 0
M  V30 6862 C 674.298 -1.94699 -0.242195 0
M  V30 6863 O 673.423 -1.8406 -1.13802 0
M  V30 6864 C 674.018 -2.65718 2.10189 0
M  V30 6865 C 672.577 -3.18458 2.00653 0
M  V30 6866 C 671.724 -1.91149 2.00891 0
M  V30 6867 H 674.675 -0.706756 1.42094 0
M  V30 6868 H 674.696 -3.4158 1.6764 0
M  V30 6869 H 674.208 -2.30386 3.12321 0
M  V30 6870 H 672.309 -3.58474 1.01623 0
M  V30 6871 H 672.422 -3.82491 2.88509 0
M  V30 6872 H 670.786 -2.09021 1.45542 0
M  V30 6873 H 671.569 -1.58089 3.04734 0
M  V30 6874 N 674.014 -1.12206 -1.10668 0
M  V30 6875 C 675.263 -0.870595 -1.81944 0
M  V30 6876 C 675.576 0.605447 -1.85994 0
M  V30 6877 O 676.782 0.973433 -2.53449 0
M  V30 6878 C 675.238 -1.50783 -3.26791 0
M  V30 6879 C 674.846 -3.01849 -3.31046 0
M  V30 6880 C 676.59 -1.33653 -4.02911 0
M  V30 6881 C 674.497 -3.58518 -4.70339 0
M  V30 6882 H 673.427 -0.322043 -0.681765 0
M  V30 6883 H 676.078 -1.34827 -1.24475 0
M  V30 6884 H 674.46 -0.957825 -3.84242 0
M  V30 6885 H 675.634 -3.63321 -2.83433 0
M  V30 6886 H 673.949 -3.18346 -2.68411 0
M  V30 6887 H 676.546 -1.73416 -5.05797 0
M  V30 6888 H 676.889 -0.279949 -4.15358 0
M  V30 6889 H 677.422 -1.85562 -3.51868 0
M  V30 6890 H 674.161 -4.63925 -4.63091 0
M  V30 6891 H 673.681 -3.01819 -5.18329 0
M  V30 6892 H 675.36 -3.57434 -5.39305 0
M  V30 6893 N 675.492 1.28418 -0.913599 0
M  V30 6894 C 676.717 1.99643 -0.561899 0
M  V30 6895 C 677.142 1.67819 0.849608 0
M  V30 6896 O 676.5 0.910503 1.56779 0
M  V30 6897 C 676.548 3.52116 -0.777622 0
M  V30 6898 O 675.652 4.12076 0.163457 0
M  V30 6899 H 674.993 0.627229 -0.217898 0
M  V30 6900 H 677.523 1.63575 -1.229 0
M  V30 6901 H 677.533 4.02163 -0.687666 0
M  V30 6902 H 676.208 3.74613 -1.8066 0
M  V30 6903 H 674.785 3.72892 0.0247827 0
M  V30 6904 N 676.97 0.677563 1.42291 0
M  V30 6905 C 677.92 -0.0218641 2.2799 0
M  V30 6906 C 678.904 -0.770816 1.41235 0
M  V30 6907 O 680.096 -0.649273 1.64662 0
M  V30 6908 C 677.225 -0.970449 3.29298 0
M  V30 6909 C 676.311 -0.218695 4.23536 0
M  V30 6910 N 676.702 0.777908 4.99782 0
M  V30 6911 C 675 -0.456748 4.43655 0
M  V30 6912 C 675.701 1.22632 5.68627 0
M  V30 6913 N 674.677 0.55573 5.40752 0
M  V30 6914 H 678.479 0.742516 2.84366 0
M  V30 6915 H 675.993 0.506862 1.54288 0
M  V30 6916 H 677.99 -1.48652 3.89497 0
M  V30 6917 H 676.65 -1.73463 2.74483 0
M  V30 6918 H 677.661 1.15754 5.04798 0
M  V30 6919 H 674.338 -1.20021 3.99877 0
M  V30 6920 H 675.728 2.05231 6.39789 0
M  V30 6921 N 678.448 -1.51871 0.421078 0
M  V30 6922 C 679.859 -1.86644 -0.0457991 0
M  V30 6923 C 680.21 -1.33919 -1.43388 0
M  V30 6924 O 679.335 -0.683316 -2.05328 0
M  V30 6925 C 679.93 -3.38681 -0.0898844 0
M  V30 6926 C 678.489 -3.73049 -0.501127 0
M  V30 6927 C 677.636 -2.75485 0.316723 0
M  V30 6928 H 680.587 -1.45327 0.637635 0
M  V30 6929 H 680.608 -3.69636 -0.902734 0
M  V30 6930 H 680.12 -3.77025 0.920513 0
M  V30 6931 H 678.221 -3.40288 -1.51773 0
M  V30 6932 H 678.334 -4.78512 -0.237217 0
M  V30 6933 H 676.698 -2.53725 -0.222663 0
M  V30 6934 H 677.481 -3.16671 1.32569 0
M  V30 6935 N 679.926 -0.151884 -1.56866 0
M  V30 6936 C 680.859 0.824094 -2.128 0
M  V30 6937 C 681.837 1.2391 -1.05286 0
M  V30 6938 O 683.021 1.33433 -1.33146 0
M  V30 6939 C 680.148 2.1072 -2.65169 0
M  V30 6940 C 679.194 1.83774 -3.84876 0
M  V30 6941 S 680.027 1.02436 -5.25611 0
M  V30 6942 C 681.183 2.31855 -5.81373 0
M  V30 6943 H 681.416 0.348456 -2.95251 0
M  V30 6944 H 678.949 0.0624794 -1.54274 0
M  V30 6945 H 680.907 2.84428 -2.95992 0
M  V30 6946 H 679.568 2.55398 -1.8284 0
M  V30 6947 H 678.761 2.78929 -4.19779 0
M  V30 6948 H 678.363 1.18172 -3.5484 0
M  V30 6949 H 680.655 3.27469 -5.93102 0
M  V30 6950 H 681.598 2.01449 -6.7884 0
M  V30 6951 H 682.006 2.42727 -5.09651 0
M  V30 6952 N 681.404 1.57128 0.121893 0
M  V30 6953 C 682.652 1.84335 0.828548 0
M  V30 6954 C 682.973 0.736632 1.80551 0
M  V30 6955 O 682.243 -0.23962 1.94429 0
M  V30 6956 H 680.823 0.680108 0.30897 0
M  V30 6957 H 683.485 1.9459 0.109906 0
M  V30 6958 H 682.581 2.80152 1.37554 0
M  V30 6959 N 682.882 -0.391992 1.52647 0
M  V30 6960 C 684.298 -0.731848 1.41831 0
M  V30 6961 C 684.498 -1.9423 0.536361 0
M  V30 6962 O 683.554 -2.52499 0.00866571 0
M  V30 6963 C 684.867 -0.969743 2.84634 0
M  V30 6964 C 686.415 -1.0714 2.94092 0
M  V30 6965 C 686.89 -1.34195 4.37899 0
M  V30 6966 N 688.381 -1.41023 4.41211 0
M  V30 6967 C 689.116 -1.63616 5.49561 0
M  V30 6968 N 688.612 -1.83699 6.68002 0
M  V30 6969 N 690.405 -1.65771 5.371 0
M  V30 6970 H 682.556 0.404547 2.08512 0
M  V30 6971 H 684.819 0.11879 0.940528 0
M  V30 6972 H 684.525 -0.152465 3.51369 0
M  V30 6973 H 684.399 -1.88523 3.26709 0
M  V30 6974 H 686.786 -1.87925 2.27526 0
M  V30 6975 H 686.867 -0.133887 2.55449 0
M  V30 6976 H 686.511 -0.539207 5.0503 0
M  V30 6977 H 686.441 -2.29226 4.74092 0
M  V30 6978 H 688.932 -1.27223 3.55841 0
M  V30 6979 H 689.245 -2.00437 7.46354 0
M  V30 6980 H 687.59 -1.8093 6.71036 0
M  V30 6981 H 690.781 -1.4963 4.43541 0
M  V30 6982 H 690.954 -1.83038 6.21612 0
M  V30 6983 N 684.36 -1.4356 -0.65026 0
M  V30 6984 C 685.608 -1.45046 -1.40734 0
M  V30 6985 C 685.929 -0.0769822 -1.94848 0
M  V30 6986 O 685.199 0.888098 -1.74613 0
M  V30 6987 H 683.779 -0.534034 -0.522318 0
M  V30 6988 H 686.441 -1.79186 -0.766703 0
M  V30 6989 H 685.537 -2.16476 -2.24822 0
M  V30 6990 N 685.838 0.888903 -1.30139 0
M  V30 6991 C 686.788 1.9814 -1.12803 0
M  V30 6992 C 687.772 1.60839 -0.0443137 0
M  V30 6993 O 688.964 1.74971 -0.267208 0
M  V30 6994 C 686.093 3.33416 -0.817849 0
M  V30 6995 C 685.179 3.77043 -1.94163 0
M  V30 6996 N 685.57 3.92805 -3.18651 0
M  V30 6997 C 683.868 4.06407 -1.8371 0
M  V30 6998 C 684.569 4.29746 -3.92038 0
M  V30 6999 N 683.545 4.3939 -3.20059 0
M  V30 7000 H 687.347 2.08411 -2.07225 0
M  V30 7001 H 684.861 1.07845 -1.21421 0
M  V30 7002 H 686.858 4.11405 -0.674668 0
M  V30 7003 H 685.518 3.24484 0.118344 0
M  V30 7004 H 686.529 3.78042 -3.53984 0
M  V30 7005 H 683.206 4.05972 -0.974331 0
M  V30 7006 H 684.596 4.49695 -4.99223 0
M  V30 7007 N 687.317 1.12792 1.10072 0
M  V30 7008 C 688.249 0.757003 2.16338 0
M  V30 7009 C 689.262 -0.218144 1.61332 0
M  V30 7010 O 690.451 0.0010727 1.785 0
M  V30 7011 C 687.551 0.100303 3.38752 0
M  V30 7012 C 686.724 1.10586 4.2319 0
M  V30 7013 C 685.783 0.47609 5.24042 0
M  V30 7014 O 684.809 1.13418 5.57786 0
M  V30 7015 N 686.011 -0.754823 5.75572 0
M  V30 7016 H 688.776 1.6714 2.48766 0
M  V30 7017 H 686.337 1.02003 1.25726 0
M  V30 7018 H 688.329 -0.333092 4.03327 0
M  V30 7019 H 686.899 -0.716915 3.04268 0
M  V30 7020 H 686.119 1.71677 3.54853 0
M  V30 7021 H 687.407 1.78571 4.76435 0
M  V30 7022 H 686.805 -1.30838 5.50362 0
M  V30 7023 H 685.362 -1.13098 6.41913 0
M  V30 7024 N 688.795 -1.27931 0.920396 0
M  V30 7025 C 689.758 -2.25345 0.41858 0
M  V30 7026 C 690.758 -1.54116 -0.458798 0
M  V30 7027 O 691.948 -1.72235 -0.260912 0
M  V30 7028 C 689.08 -3.38556 -0.399104 0
M  V30 7029 H 690.273 -2.71251 1.27918 0
M  V30 7030 H 687.826 -1.39728 0.700406 0
M  V30 7031 H 688.561 -2.98021 -1.27882 0
M  V30 7032 H 688.346 -3.91426 0.229863 0
M  V30 7033 H 689.836 -4.10976 -0.740817 0
M  V30 7034 N 690.273 -0.685099 -1.4193 0
M  V30 7035 C 691.521 -0.21124 -2.00993 0
M  V30 7036 C 691.842 1.18985 -1.54491 0
M  V30 7037 O 691.112 1.8009 -0.771 0
M  V30 7038 H 689.692 -0.0751059 -0.743215 0
M  V30 7039 H 692.354 -0.883915 -1.73704 0
M  V30 7040 H 691.45 -0.220513 -3.1132 0
M  V30 7041 N 691.751 1.51645 -0.429126 0
M  V30 7042 C 693.167 1.59394 -0.080994 0
M  V30 7043 C 693.367 1.44064 1.40882 0
M  V30 7044 O 692.423 1.27771 2.17786 0
M  V30 7045 C 693.736 2.94779 -0.593773 0
M  V30 7046 C 695.284 3.08067 -0.553494 0
M  V30 7047 C 695.759 4.45963 -1.04311 0
M  V30 7048 N 697.25 4.5226 -1.00076 0
M  V30 7049 C 697.985 5.57268 -1.35056 0
M  V30 7050 N 697.481 6.69734 -1.77282 0
M  V30 7051 N 699.274 5.47582 -1.26925 0
M  V30 7052 H 691.425 1.59856 -1.39857 0
M  V30 7053 H 693.688 0.753095 -0.575805 0
M  V30 7054 H 693.394 3.11342 -1.63583 0
M  V30 7055 H 693.268 3.77197 -0.0142202 0
M  V30 7056 H 695.655 2.91177 0.479556 0
M  V30 7057 H 695.736 2.27508 -1.16935 0
M  V30 7058 H 695.38 4.63598 -2.07459 0
M  V30 7059 H 695.31 5.25049 -0.403873 0
M  V30 7060 H 697.801 3.71537 -0.690564 0
M  V30 7061 H 698.114 7.4587 -2.02232 0
M  V30 7062 H 696.459 6.70963 -1.81202 0
M  V30 7063 H 699.65 4.58604 -0.93809 0
M  V30 7064 H 699.823 6.29308 -1.54516 0
M  V30 7065 N 693.229 0.160201 1.56784 0
M  V30 7066 C 694.645 -0.196089 1.58391 0
M  V30 7067 C 694.845 -1.63689 1.17508 0
M  V30 7068 O 693.901 -2.36613 0.881506 0
M  V30 7069 C 695.214 0.0746449 3.00607 0
M  V30 7070 C 696.762 0.0119762 3.12998 0
M  V30 7071 C 697.237 0.255551 4.57286 0
M  V30 7072 N 698.728 0.202938 4.62755 0
M  V30 7073 C 699.463 0.365731 5.72232 0
M  V30 7074 N 698.959 0.586972 6.90309 0
M  V30 7075 N 700.752 0.302411 5.61286 0
M  V30 7076 H 692.903 1.1008 1.81648 0
M  V30 7077 H 695.166 0.436779 0.841384 0
M  V30 7078 H 694.872 1.07231 3.34954 0
M  V30 7079 H 694.746 -0.638802 3.71751 0
M  V30 7080 H 697.133 -0.976254 2.78484 0
M  V30 7081 H 697.214 0.75796 2.44313 0
M  V30 7082 H 696.858 1.24094 4.92507 0
M  V30 7083 H 696.788 -0.510912 5.24116 0
M  V30 7084 H 699.279 0.0371328 3.77882 0
M  V30 7085 H 699.592 0.700941 7.69615 0
M  V30 7086 H 697.937 0.623453 6.92198 0
M  V30 7087 H 701.128 0.130238 4.67919 0
M  V30 7088 H 701.301 0.432712 6.46554 0
M  V30 7089 N 694.707 -1.5719 -0.113559 0
M  V30 7090 C 695.64 -1.9595 -1.16957 0
M  V30 7091 C 696.618 -0.829951 -1.39823 0
M  V30 7092 O 697.802 -1.08861 -1.53888 0
M  V30 7093 C 694.929 -2.2604 -2.52237 0
M  V30 7094 C 693.975 -3.48571 -2.45765 0
M  V30 7095 S 694.808 -5.00962 -1.89203 0
M  V30 7096 C 695.964 -5.3421 -3.26145 0
M  V30 7097 H 696.197 -2.85214 -0.839069 0
M  V30 7098 H 693.73 -1.51036 -0.320529 0
M  V30 7099 H 695.688 -2.44054 -3.30073 0
M  V30 7100 H 694.349 -1.3738 -2.82463 0
M  V30 7101 H 693.542 -3.67008 -3.45429 0
M  V30 7102 H 693.144 -3.29972 -1.76053 0
M  V30 7103 H 695.436 -5.29725 -4.22371 0
M  V30 7104 H 696.379 -6.35398 -3.12529 0
M  V30 7105 H 696.787 -4.61681 -3.24825 0
M  V30 7106 N 696.185 0.383891 -1.52853 0
M  V30 7107 C 697.462 1.14296 -1.58732 0
M  V30 7108 C 697.842 2.07585 -0.383611 0
M  V30 7109 O 697.19 2.1971 0.627661 0
M  V30 7110 C 697.4 1.89816 -2.92867 0
M  V30 7111 C 698.748 2.44998 -3.46787 0
M  V30 7112 O 699.772 1.99966 -2.94774 0
M  V30 7113 O 698.631 3.2727 -4.37672 0
M  V30 7114 H 695.725 0.52326 -0.640413 0
M  V30 7115 H 698.271 0.388631 -1.6519 0
M  V30 7116 H 697.043 1.21626 -3.71918 0
M  V30 7117 H 696.666 2.72199 -2.89816 0
M  V30 7118 N 697.663 1.43903 0.642637 0
M  V30 7119 C 698.596 1.44339 1.76753 0
M  V30 7120 C 699.574 0.303558 1.59741 0
M  V30 7121 O 700.758 0.498775 1.81781 0
M  V30 7122 C 697.885 1.26508 3.14187 0
M  V30 7123 C 696.931 2.43905 3.49875 0
M  V30 7124 S 697.764 4.0645 3.48653 0
M  V30 7125 C 698.92 3.91021 4.88726 0
M  V30 7126 H 699.153 2.39523 1.76113 0
M  V30 7127 H 696.686 1.31061 0.81623 0
M  V30 7128 H 698.644 1.16908 3.93501 0
M  V30 7129 H 697.305 0.328548 3.12377 0
M  V30 7130 H 696.498 2.27262 4.49853 0
M  V30 7131 H 696.1 2.50186 2.77998 0
M  V30 7132 H 698.392 3.54 5.77659 0
M  V30 7133 H 699.335 4.9079 5.10423 0
M  V30 7134 H 699.743 3.23287 4.62759 0
M  V30 7135 N 699.141 -0.881989 1.30609 0
M  V30 7136 C 700.418 -1.61563 1.10258 0
M  V30 7137 C 700.798 -2.08228 -0.347053 0
M  V30 7138 O 700.146 -1.85151 -1.33908 0
M  V30 7139 C 700.356 -2.78287 2.10612 0
M  V30 7140 C 701.704 -3.48545 2.4249 0
M  V30 7141 O 702.728 -2.88479 2.08945 0
M  V30 7142 O 701.587 -4.56873 2.99883 0
M  V30 7143 H 698.681 -0.710238 0.423663 0
M  V30 7144 H 701.227 -0.928503 1.42045 0
M  V30 7145 H 699.999 -2.41131 3.08174 0
M  V30 7146 H 699.622 -3.54695 1.79659 0
M  V30 7147 N 700.619 -1.13374 -1.09472 0
M  V30 7148 C 701.844 -0.918711 -1.85942 0
M  V30 7149 C 702.269 0.527225 -1.8056 0
M  V30 7150 O 701.627 1.37408 -1.18274 0
M  V30 7151 C 701.675 -1.41056 -3.31867 0
M  V30 7152 O 700.779 -0.595496 -4.08078 0
M  V30 7153 H 700.12 -0.329297 -0.576593 0
M  V30 7154 H 702.65 -1.50829 -1.38245 0
M  V30 7155 H 702.66 -1.41398 -3.82715 0
M  V30 7156 H 701.335 -2.46335 -3.35099 0
M  V30 7157 H 699.912 -0.659911 -3.67014 0
M  V30 7158 N 702.098 1.27442 -0.927168 0
M  V30 7159 C 703.323 1.99036 -0.583042 0
M  V30 7160 C 703.748 1.68711 0.83176 0
M  V30 7161 O 703.106 0.927081 1.55804 0
M  V30 7162 C 703.154 3.51271 -0.814925 0
M  V30 7163 O 702.258 4.12226 0.119742 0
M  V30 7164 H 701.599 0.624883 -0.224538 0
M  V30 7165 H 704.129 1.62263 -1.24628 0
M  V30 7166 H 704.139 4.01411 -0.730282 0
M  V30 7167 H 702.814 3.72676 -1.84623 0
M  V30 7168 H 701.391 3.72897 -0.0147688 0
M  V30 7169 N 703.576 0.692616 1.41565 0
M  V30 7170 C 704.526 0.00231847 2.28 0
M  V30 7171 C 705.51 -0.755793 1.42044 0
M  V30 7172 O 706.702 -0.631772 1.65341 0
M  V30 7173 C 703.831 -0.935468 3.30309 0
M  V30 7174 C 702.917 -0.173761 4.23744 0
M  V30 7175 N 703.308 0.830872 4.98929 0
M  V30 7176 C 701.606 -0.409666 4.44115 0
M  V30 7177 C 702.307 1.28656 5.67294 0
M  V30 7178 N 701.283 0.613053 5.40132 0
M  V30 7179 H 705.085 0.772635 2.83562 0
M  V30 7180 H 702.599 0.523198 1.53741 0
M  V30 7181 H 704.596 -1.44513 3.91052 0
M  V30 7182 H 703.256 -1.70542 2.76307 0
M  V30 7183 H 704.267 1.21101 5.03542 0
M  V30 7184 H 700.944 -1.15773 4.01127 0
M  V30 7185 H 702.334 2.12006 6.37576 0
M  V30 7186 N 705.054 -1.51416 0.437162 0
M  V30 7187 C 706.279 -2.0699 -0.130424 0
M  V30 7188 C 706.704 -1.30249 -1.35709 0
M  V30 7189 O 706.062 -0.340388 -1.78076 0
M  V30 7190 C 706.11 -3.5801 -0.43142 0
M  V30 7191 O 705.214 -3.8345 -1.5179 0
M  V30 7192 H 704.555 -0.663997 -0.00194339 0
M  V30 7193 H 707.085 -1.95029 0.618445 0
M  V30 7194 H 707.095 -4.02261 -0.681926 0
M  V30 7195 H 705.77 -4.13291 0.465137 0
M  V30 7196 H 704.347 -3.51062 -1.25737 0
M  V30 7197 N 706.532 -0.168513 -1.56696 0
M  V30 7198 C 707.781 0.477233 -1.95973 0
M  V30 7199 C 708.094 1.64578 -1.05704 0
M  V30 7200 O 709.3 2.35758 -1.3465 0
M  V30 7201 C 707.756 0.900413 -3.48455 0
M  V30 7202 C 707.364 -0.242382 -4.47344 0
M  V30 7203 C 709.108 1.51474 -3.96555 0
M  V30 7204 C 707.015 0.200272 -5.91061 0
M  V30 7205 H 705.945 0.182061 -0.73169 0
M  V30 7206 H 708.596 -0.256297 -1.81701 0
M  V30 7207 H 706.978 1.68984 -3.58135 0
M  V30 7208 H 708.152 -1.01967 -4.49377 0
M  V30 7209 H 706.467 -0.766484 -4.09285 0
M  V30 7210 H 709.064 1.85792 -5.01384 0
M  V30 7211 H 709.407 2.41163 -3.39332 0
M  V30 7212 H 709.94 0.789802 -3.89881 0
M  V30 7213 H 706.679 -0.661775 -6.52151 0
M  V30 7214 H 706.199 0.942979 -5.92341 0
M  V30 7215 H 707.878 0.645088 -6.43776 0
M  V30 7216 N 708.01 1.57248 0.105221 0
M  V30 7217 C 709.238 1.89768 0.82437 0
M  V30 7218 C 709.653 0.761192 1.72775 0
M  V30 7219 O 709.01 -0.267342 1.80531 0
M  V30 7220 C 709.061 3.2184 1.64625 0
M  V30 7221 O 708.782 4.31115 0.779217 0
M  V30 7222 C 710.283 3.68155 2.46935 0
M  V30 7223 H 707.503 0.628031 0.236259 0
M  V30 7224 H 710.047 2.04321 0.085485 0
M  V30 7225 H 708.202 3.08915 2.33775 0
M  V30 7226 H 708.616 5.06897 1.34745 0
M  V30 7227 H 710.09 4.6329 3.00111 0
M  V30 7228 H 710.567 2.95492 3.24932 0
M  V30 7229 H 711.173 3.83914 1.83002 0
M  V30 7230 N 709.488 -0.375779 1.53054 0
M  V30 7231 C 710.418 -1.46598 1.81745 0
M  V30 7232 C 711.399 -1.56337 0.670286 0
M  V30 7233 O 712.584 -1.71071 0.919158 0
M  V30 7234 C 709.714 -2.84058 1.99821 0
M  V30 7235 C 708.668 -2.8915 3.15557 0
M  V30 7236 C 707.994 -4.29187 3.18908 0
M  V30 7237 C 709.294 -2.57595 4.54359 0
M  V30 7238 H 710.988 -1.22837 2.73041 0
M  V30 7239 H 708.534 -0.589485 1.31381 0
M  V30 7240 H 710.487 -3.60342 2.18475 0
M  V30 7241 H 709.211 -3.09184 1.05226 0
M  V30 7242 H 707.87 -2.15316 2.96706 0
M  V30 7243 H 707.518 -4.51374 2.2197 0
M  V30 7244 H 707.218 -4.33512 3.96662 0
M  V30 7245 H 708.742 -5.07359 3.39734 0
M  V30 7246 H 710.156 -3.23595 4.73243 0
M  V30 7247 H 708.553 -2.73252 5.34279 0
M  V30 7248 H 709.623 -1.52882 4.60169 0
M  V30 7249 N 710.966 -1.44241 -0.634997 0
M  V30 7250 C 711.898 -1.46793 -1.76024 0
M  V30 7251 C 712.911 -0.361781 -1.58729 0
M  V30 7252 O 714.1 -0.627297 -1.67114 0
M  V30 7253 C 711.2 -1.28248 -3.13697 0
M  V30 7254 C 710.373 -2.52038 -3.57485 0
M  V30 7255 C 709.432 -2.2845 -4.74022 0
M  V30 7256 O 708.458 -3.01915 -4.82531 0
M  V30 7257 N 709.66 -1.31264 -5.65464 0
M  V30 7258 H 712.425 -2.43797 -1.74307 0
M  V30 7259 H 709.986 -1.39631 -0.819438 0
M  V30 7260 H 711.978 -1.10321 -3.89373 0
M  V30 7261 H 710.548 -0.39623 -3.10079 0
M  V30 7262 H 709.768 -2.85268 -2.72059 0
M  V30 7263 H 711.056 -3.34382 -3.83492 0
M  V30 7264 H 710.454 -0.705817 -5.6128 0
M  V30 7265 H 709.011 -1.19316 -6.40786 0
M  V30 7266 N 712.444 0.87505 -1.31075 0
M  V30 7267 C 713.855 1.4433 -1.18431 0
M  V30 7268 C 714.206 1.9506 0.211189 0
M  V30 7269 O 713.331 1.85847 1.10859 0
M  V30 7270 C 713.926 2.62341 -2.14389 0
M  V30 7271 C 712.485 3.15225 -2.05694 0
M  V30 7272 C 711.632 1.87929 -2.03907 0
M  V30 7273 H 714.583 0.684061 -1.432 0
M  V30 7274 H 714.604 3.3887 -1.73053 0
M  V30 7275 H 714.116 2.25388 -3.15946 0
M  V30 7276 H 712.217 3.56812 -1.07314 0
M  V30 7277 H 712.33 3.77853 -2.94558 0
M  V30 7278 H 710.694 2.06679 -1.48849 0
M  V30 7279 H 711.477 1.53221 -3.07211 0
M  V30 7280 N 713.922 1.13953 1.08869 0
M  V30 7281 C 715.15 0.92817 1.84912 0
M  V30 7282 C 715.565 -0.523197 1.81406 0
M  V30 7283 O 714.922 -1.36237 1.21432 0
M  V30 7284 C 714.973 1.41509 3.32652 0
M  V30 7285 O 714.694 2.80959 3.36145 0
M  V30 7286 C 716.195 1.243 4.25517 0
M  V30 7287 H 713.415 0.330612 0.583898 0
M  V30 7288 H 715.959 1.51349 1.37527 0
M  V30 7289 H 714.114 0.872648 3.77444 0
M  V30 7290 H 714.528 3.02704 4.28335 0
M  V30 7291 H 716.002 1.63237 5.27312 0
M  V30 7292 H 716.479 0.18532 4.38809 0
M  V30 7293 H 717.085 1.77375 3.86546 0
M  V30 7294 N 715.4 -1.26948 0.933913 0
M  V30 7295 C 716.363 -2.24889 0.442457 0
M  V30 7296 C 717.363 -1.54594 -0.442426 0
M  V30 7297 O 718.553 -1.72502 -0.242629 0
M  V30 7298 C 715.685 -3.3896 -0.363173 0
M  V30 7299 H 716.878 -2.69879 1.30787 0
M  V30 7300 H 714.431 -1.38978 0.715187 0
M  V30 7301 H 715.166 -2.99361 -1.24714 0
M  V30 7302 H 714.951 -3.9116 0.271366 0
M  V30 7303 H 716.441 -4.11739 -0.697186 0
M  V30 7304 N 716.879 -0.700114 -1.41195 0
M  V30 7305 C 717.827 -0.0263301 -2.32585 0
M  V30 7306 C 718.821 0.763683 -1.51209 0
M  V30 7307 O 720.027 0.668793 -1.67114 0
M  V30 7308 H 716.402 0.0102869 -0.75193 0
M  V30 7309 H 718.373 -0.814087 -2.8708 0
M  V30 7310 C 717.122 0.892793 -3.36042 0
M  V30 7311 H 716.445 0.294306 -3.98715 0
M  V30 7312 H 717.885 1.33247 -4.02518 0
M  V30 7313 C 716.344 2.01109 -2.7029 0
M  V30 7314 O 716.874 3.10035 -2.55423 0
M  V30 7315 N 715.08 1.79015 -2.28915 0
M  V30 7316 H 714.627 0.904275 -2.41207 0
M  V30 7317 H 714.585 2.54022 -1.85257 0
M  V30 7318 N 718.357 1.51182 -0.445186 0
M  V30 7319 C 719.768 1.86693 0.0160999 0
M  V30 7320 C 720.119 1.36183 1.4124 0
M  V30 7321 O 719.244 0.715895 2.04215 0
M  V30 7322 C 719.839 3.38781 0.0359918 0
M  V30 7323 C 718.398 3.73799 0.441715 0
M  V30 7324 C 717.545 2.74947 -0.360511 0
M  V30 7325 H 720.496 1.44294 -0.660674 0
M  V30 7326 H 720.517 3.71026 0.843813 0
M  V30 7327 H 720.029 3.75513 -0.980378 0
M  V30 7328 H 718.13 3.42659 1.4634 0
M  V30 7329 H 718.243 4.78829 0.16106 0
M  V30 7330 H 716.607 2.54047 0.182269 0
M  V30 7331 H 717.39 3.14521 -1.3759 0
M  V30 7332 N 719.835 0.176821 1.56605 0
M  V30 7333 C 720.783 -0.768159 2.1955 0
M  V30 7334 C 721.777 -1.23343 1.16116 0
M  V30 7335 O 722.983 -1.19844 1.34303 0
M  V30 7336 H 719.358 -0.266013 0.703378 0
M  V30 7337 H 721.329 -0.213374 2.97636 0
M  V30 7338 C 720.078 -1.98492 2.85475 0
M  V30 7339 H 719.401 -1.63595 3.64797 0
M  V30 7340 H 720.841 -2.62489 3.3298 0
M  V30 7341 C 719.3 -2.81207 1.85538 0
M  V30 7342 O 719.83 -3.7854 1.34427 0
M  V30 7343 N 718.036 -2.46331 1.54173 0
M  V30 7344 H 717.583 -1.67241 1.95929 0
M  V30 7345 H 717.541 -3.01961 0.875595 0
M  V30 7346 N 721.313 -1.57302 -0.09688 0
M  V30 7347 C 722.541 -1.90202 -0.814295 0
M  V30 7348 C 722.956 -0.770344 -1.72369 0
M  V30 7349 O 722.313 0.257764 -1.8067 0
M  V30 7350 C 722.364 -3.22708 -1.62916 0
M  V30 7351 O 722.085 -4.31522 -0.756343 0
M  V30 7352 C 723.586 -3.69459 -2.44979 0
M  V30 7353 H 720.806 -0.629275 -0.232925 0
M  V30 7354 H 723.35 -2.04364 -0.0746482 0
M  V30 7355 H 721.505 -3.1015 -2.32133 0
M  V30 7356 H 721.919 -5.07604 -1.32054 0
M  V30 7357 H 723.393 -4.64875 -2.9765 0
M  V30 7358 H 723.87 -2.97211 -3.23361 0
M  V30 7359 H 724.476 -3.84879 -1.80964 0
M  V30 7360 N 722.791 0.367657 -1.53252 0
M  V30 7361 C 724.039 1.10832 -1.68999 0
M  V30 7362 C 724.36 1.89894 -0.443306 0
M  V30 7363 O 723.63 1.88235 0.54262 0
M  V30 7364 H 722.21 0.412153 -0.623008 0
M  V30 7365 H 724.872 0.414775 -1.90435 0
M  V30 7366 H 723.968 1.7993 -2.55013 0
M  V30 7367 N 724.269 1.44576 0.627338 0
M  V30 7368 C 725.199 1.54562 1.75022 0
M  V30 7369 C 726.18 0.398378 1.65369 0
M  V30 7370 O 727.365 0.61899 1.84071 0
M  V30 7371 C 724.495 1.49309 3.13567 0
M  V30 7372 C 723.449 2.62549 3.38012 0
M  V30 7373 C 722.775 2.42348 4.76625 0
M  V30 7374 C 724.075 4.04678 3.30202 0
M  V30 7375 H 725.769 2.4855 1.66922 0
M  V30 7376 H 723.315 1.19624 0.801636 0
M  V30 7377 H 725.268 1.54895 3.919 0
M  V30 7378 H 723.992 0.518392 3.2246 0
M  V30 7379 H 722.651 2.56358 2.62061 0
M  V30 7380 H 722.299 1.43062 4.82226 0
M  V30 7381 H 721.999 3.18273 4.93939 0
M  V30 7382 H 723.523 2.49758 5.57183 0
M  V30 7383 H 724.937 4.12217 3.98435 0
M  V30 7384 H 723.334 4.80836 3.5905 0
M  V30 7385 H 724.404 4.2798 2.27949 0
M  V30 7386 N 725.747 -0.868086 1.31537 0
M  V30 7387 C 726.993 -1.62367 1.2151 0
M  V30 7388 C 727.326 -1.92883 -0.225819 0
M  V30 7389 O 726.601 -1.56176 -1.15927 0
M  V30 7390 C 726.884 -2.95268 2.06129 0
M  V30 7391 C 726.737 -2.71619 3.58529 0
M  V30 7392 C 728.056 -3.96391 1.91212 0
M  V30 7393 H 725.175 -0.589178 0.442762 0
M  V30 7394 H 727.817 -1.00336 1.61347 0
M  V30 7395 H 725.967 -3.4821 1.72284 0
M  V30 7396 H 727.639 -2.25334 4.0252 0
M  V30 7397 H 725.882 -2.05817 3.81866 0
M  V30 7398 H 726.553 -3.66192 4.13047 0
M  V30 7399 H 729.029 -3.52663 2.20834 0
M  V30 7400 H 727.905 -4.87263 2.52718 0
M  V30 7401 H 728.166 -4.33335 0.875953 0
M  V30 7402 N 727.225 -1.14528 -1.08264 0
M  V30 7403 C 728.135 -0.84728 -2.18765 0
M  V30 7404 C 729.151 0.172826 -1.7314 0
M  V30 7405 O 730.327 0.000985336 -2.014 0
M  V30 7406 C 727.392 -0.330633 -3.4512 0
M  V30 7407 C 726.453 -1.41348 -4.05363 0
M  V30 7408 C 725.686 -0.921387 -5.25686 0
M  V30 7409 O 725.909 0.236587 -5.69909 0
M  V30 7410 O 724.843 -1.70101 -5.77364 0
M  V30 7411 H 728.669 -1.7708 -2.46731 0
M  V30 7412 H 726.254 -0.923661 -1.17426 0
M  V30 7413 H 728.136 -0.0485053 -4.21372 0
M  V30 7414 H 726.811 0.565147 -3.18728 0
M  V30 7415 H 725.718 -1.74908 -3.30693 0
M  V30 7416 H 727.051 -2.28383 -4.36007 0
M  V30 7417 N 728.703 1.26451 -0.940633 0
M  V30 7418 C 729.98 1.88947 -0.505811 0
M  V30 7419 C 730.36 1.85011 1.01657 0
M  V30 7420 O 729.708 1.30406 1.87634 0
M  V30 7421 C 729.918 3.32304 -1.06654 0
M  V30 7422 C 731.266 4.09153 -1.13486 0
M  V30 7423 O 732.29 3.41371 -1.01708 0
M  V30 7424 O 731.149 5.30369 -1.31797 0
M  V30 7425 H 728.243 0.810422 -0.164759 0
M  V30 7426 H 730.789 1.34625 -1.03316 0
M  V30 7427 H 729.561 3.29527 -2.11015 0
M  V30 7428 H 729.184 3.94164 -0.521603 0
M  V30 7429 N 730.181 0.707592 1.40822 0
M  V30 7430 C 731.111 0.0644925 2.33411 0
M  V30 7431 C 732.092 -0.754205 1.52466 0
M  V30 7432 O 733.277 -0.704749 1.80961 0
M  V30 7433 C 730.407 -0.863865 3.36385 0
M  V30 7434 C 729.361 -0.15138 4.27732 0
M  V30 7435 C 728.687 -1.19491 5.21177 0
M  V30 7436 C 729.987 0.989607 5.12839 0
M  V30 7437 H 731.681 0.837829 2.87438 0
M  V30 7438 H 729.227 0.404346 1.38207 0
M  V30 7439 H 731.18 -1.32309 4.0009 0
M  V30 7440 H 729.904 -1.66901 2.80734 0
M  V30 7441 H 728.563 0.287937 3.65467 0
M  V30 7442 H 728.211 -1.9929 4.61836 0
M  V30 7443 H 727.911 -0.723123 5.83134 0
M  V30 7444 H 729.435 -1.6544 5.8776 0
M  V30 7445 H 730.849 0.610114 5.70044 0
M  V30 7446 H 729.246 1.38926 5.83798 0
M  V30 7447 H 730.316 1.82389 4.49291 0
M  V30 7448 N 731.66 -1.50943 0.453197 0
M  V30 7449 C 732.937 -1.94872 -0.168633 0
M  V30 7450 C 733.317 -1.39272 -1.5864 0
M  V30 7451 O 732.665 -0.586272 -2.20851 0
M  V30 7452 C 732.875 -3.48757 -0.130217 0
M  V30 7453 C 734.223 -4.23331 -0.327975 0
M  V30 7454 O 735.247 -3.55594 -0.207619 0
M  V30 7455 O 734.106 -5.43529 -0.569077 0
M  V30 7456 H 731.2 -0.818042 -0.121394 0
M  V30 7457 H 733.746 -1.61782 0.512316 0
M  V30 7458 H 732.518 -3.81725 0.860346 0
M  V30 7459 H 732.141 -3.88333 -0.853397 0
M  V30 7460 N 733.138 -0.185124 -1.56509 0
M  V30 7461 C 734.554 0.170865 -1.58683 0
M  V30 7462 C 734.754 1.61799 -1.20098 0
M  V30 7463 O 733.81 2.35181 -0.919038 0
M  V30 7464 C 735.123 -0.122459 -3.00451 0
M  V30 7465 C 736.671 -0.0617699 -3.12939 0
M  V30 7466 C 737.146 -0.328269 -4.56822 0
M  V30 7467 N 738.637 -0.276533 -4.62374 0
M  V30 7468 C 739.372 -0.456722 -5.71578 0
M  V30 7469 N 738.868 -0.69672 -6.89288 0
M  V30 7470 N 740.661 -0.391669 -5.60734 0
M  V30 7471 H 732.812 -1.12956 -1.79874 0
M  V30 7472 H 735.075 -0.45011 -0.834329 0
M  V30 7473 H 734.781 -1.12546 -3.33206 0
M  V30 7474 H 734.655 0.579578 -3.72721 0
M  V30 7475 H 737.042 0.931826 -2.80002 0
M  V30 7476 H 737.123 -0.796732 -2.43076 0
M  V30 7477 H 736.767 -1.31914 -4.9047 0
M  V30 7478 H 736.697 0.427465 -5.24862 0
M  V30 7479 H 739.188 -0.0972458 -3.77775 0
M  V30 7480 H 739.501 -0.823291 -7.68402 0
M  V30 7481 H 737.846 -0.733497 -6.91119 0
M  V30 7482 H 741.037 -0.204663 -4.67652 0
M  V30 7483 H 741.21 -0.535518 -6.45783 0
M  V30 7484 N 734.616 1.57351 0.0885366 0
M  V30 7485 C 735.844 1.90631 0.804196 0
M  V30 7486 C 736.259 0.779474 1.71958 0
M  V30 7487 O 735.616 -0.248179 1.80805 0
M  V30 7488 C 735.667 3.23568 1.61202 0
M  V30 7489 O 735.388 4.31917 0.733447 0
M  V30 7490 C 736.889 3.70753 2.43016 0
M  V30 7491 H 734.109 0.630501 0.229585 0
M  V30 7492 H 736.653 2.044 0.0638092 0
M  V30 7493 H 734.808 3.11377 2.30485 0
M  V30 7494 H 735.222 5.08297 1.29361 0
M  V30 7495 H 736.696 4.66447 2.9518 0
M  V30 7496 H 737.173 2.98922 3.2178 0
M  V30 7497 H 737.779 3.85834 1.7892 0
M  V30 7498 N 736.094 -0.359525 1.53444 0
M  V30 7499 C 737.342 -1.09935 1.69584 0
M  V30 7500 C 737.663 -1.89656 0.453371 0
M  V30 7501 O 736.933 -1.8852 -0.53263 0
M  V30 7502 H 735.513 -0.408843 0.625185 0
M  V30 7503 H 738.175 -0.40467 1.90653 0
M  V30 7504 H 737.271 -1.78575 2.55964 0
M  V30 7505 N 737.572 -1.44907 -0.619662 0
M  V30 7506 C 738.983 -1.42905 -1.20146 0
M  V30 7507 C 739.334 -0.150341 -1.95623 0
M  V30 7508 O 738.459 0.748732 -2.03034 0
M  V30 7509 C 739.054 -2.58889 -2.18545 0
M  V30 7510 C 737.613 -2.60046 -2.72127 0
M  V30 7511 C 736.76 -2.3493 -1.4732 0
M  V30 7512 H 739.711 -1.53321 -0.409666 0
M  V30 7513 H 739.732 -2.32298 -3.0136 0
M  V30 7514 H 739.244 -3.51941 -1.63583 0
M  V30 7515 H 737.345 -1.70968 -3.3106 0
M  V30 7516 H 737.458 -3.58893 -3.17384 0
M  V30 7517 H 735.822 -1.84248 -1.75855 0
M  V30 7518 H 736.605 -3.3011 -0.942442 0
M  V30 7519 N 739.05 0.861098 -1.31996 0
M  V30 7520 C 739.98 1.98482 -1.22993 0
M  V30 7521 C 740.961 1.6971 -0.115168 0
M  V30 7522 O 742.146 1.91849 -0.30126 0
M  V30 7523 C 739.276 3.34179 -0.945615 0
M  V30 7524 C 738.23 3.77284 -2.02091 0
M  V30 7525 C 737.556 5.1054 -1.58912 0
M  V30 7526 C 738.856 3.93439 -3.43515 0
M  V30 7527 H 740.55 2.06271 -2.17008 0
M  V30 7528 H 738.096 0.991043 -1.04472 0
M  V30 7529 H 740.049 4.12338 -0.869206 0
M  V30 7530 H 738.773 3.26586 0.0301849 0
M  V30 7531 H 737.432 3.01371 -2.08737 0
M  V30 7532 H 737.08 4.99397 -0.600942 0
M  V30 7533 H 736.78 5.40352 -2.30854 0
M  V30 7534 H 738.304 5.91199 -1.52696 0
M  V30 7535 H 739.718 4.6197 -3.39495 0
M  V30 7536 H 738.115 4.34661 -4.13751 0
M  V30 7537 H 739.185 2.96548 -3.8365 0
M  V30 7538 N 740.528 1.15101 1.07655 0
M  V30 7539 C 741.753 0.948177 1.84457 0
M  V30 7540 C 742.178 -0.498432 1.81376 0
M  V30 7541 O 741.536 -1.35509 1.20445 0
M  V30 7542 C 741.584 1.46318 3.29581 0
M  V30 7543 O 740.688 0.660342 4.07079 0
M  V30 7544 H 740.029 0.338428 0.571281 0
M  V30 7545 H 742.559 1.5301 1.35828 0
M  V30 7546 H 742.569 1.47468 3.80417 0
M  V30 7547 H 741.244 2.51635 3.31138 0
M  V30 7548 H 739.821 0.718216 3.65918 0
M  V30 7549 N 742.006 -1.2595 0.947325 0
M  V30 7550 C 742.939 -2.24559 0.406009 0
M  V30 7551 C 743.917 -1.54441 -0.508598 0
M  V30 7552 O 745.101 -1.83181 -0.444644 0
M  V30 7553 C 742.228 -3.36136 -0.415987 0
M  V30 7554 C 741.274 -4.24245 0.437969 0
M  V30 7555 S 742.107 -5.01948 1.86572 0
M  V30 7556 C 743.263 -6.16997 1.05194 0
M  V30 7557 H 743.496 -2.70128 1.24171 0
M  V30 7558 H 741.029 -1.34912 0.750874 0
M  V30 7559 H 742.987 -4.00861 -0.88433 0
M  V30 7560 H 741.648 -2.89167 -1.22643 0
M  V30 7561 H 740.841 -5.03634 -0.192127 0
M  V30 7562 H 740.443 -3.64416 0.841235 0
M  V30 7563 H 742.735 -6.76848 0.297126 0
M  V30 7564 H 743.678 -6.84324 1.8195 0
M  V30 7565 H 744.086 -5.61458 0.585294 0
M  V30 7566 N 743.484 -0.715051 -1.40445 0
M  V30 7567 C 744.712 -0.263959 -2.05209 0
M  V30 7568 C 745.127 1.09403 -1.53871 0
M  V30 7569 O 744.484 1.68746 -0.695064 0
M  V30 7570 C 744.535 -0.234545 -3.60738 0
M  V30 7571 O 744.256 -1.53891 -4.10182 0
M  V30 7572 C 745.757 0.235164 -4.42676 0
M  V30 7573 H 742.977 -0.11876 -0.660407 0
M  V30 7574 H 745.521 -0.973107 -1.79864 0
M  V30 7575 H 743.676 0.425563 -3.85055 0
M  V30 7576 H 744.09 -1.43903 -5.04373 0
M  V30 7577 H 745.564 0.204598 -5.51621 0
M  V30 7578 H 746.041 1.27724 -4.20218 0
M  V30 7579 H 746.647 -0.394649 -4.23465 0
M  V30 7580 N 744.962 1.50701 -0.461195 0
M  V30 7581 C 746.19 2.06681 0.0951756 0
M  V30 7582 C 746.605 1.32615 1.34382 0
M  V30 7583 O 745.962 0.392531 1.78229 0
M  V30 7584 C 746.013 3.59354 0.393316 0
M  V30 7585 O 745.734 4.30626 -0.805797 0
M  V30 7586 C 747.235 4.31926 0.997744 0
M  V30 7587 H 744.455 0.670995 -0.00267259 0
M  V30 7588 H 746.999 1.93991 -0.647137 0
M  V30 7589 H 745.154 3.7188 1.08555 0
M  V30 7590 H 745.568 5.21667 -0.544409 0
M  V30 7591 H 747.042 5.39756 1.15619 0
M  V30 7592 H 747.519 3.91772 1.98523 0
M  V30 7593 H 748.125 4.23905 0.344188 0
M  V30 7594 N 746.441 0.193421 1.56409 0
M  V30 7595 C 747.373 -0.759944 2.16235 0
M  V30 7596 C 748.386 -1.17797 1.12373 0
M  V30 7597 O 749.575 -1.11399 1.39472 0
M  V30 7598 C 746.675 -2.03735 2.70823 0
M  V30 7599 C 745.848 -1.77939 3.9957 0
M  V30 7600 C 744.907 -2.90111 4.39001 0
M  V30 7601 O 743.933 -2.59791 5.06456 0
M  V30 7602 N 745.135 -4.18426 4.02368 0
M  V30 7603 H 747.9 -0.248348 2.98669 0
M  V30 7604 H 745.461 0.0113966 1.61896 0
M  V30 7605 H 747.453 -2.77914 2.94187 0
M  V30 7606 H 746.023 -2.46022 1.92852 0
M  V30 7607 H 745.243 -0.875491 3.84355 0
M  V30 7608 H 746.531 -1.58099 4.83614 0
M  V30 7609 H 745.929 -4.45913 3.48106 0
M  V30 7610 H 744.486 -4.89237 4.30686 0
M  V30 7611 N 747.919 -1.57396 -0.0801906 0
M  V30 7612 C 748.851 -1.9982 -1.12271 0
M  V30 7613 C 749.864 -0.902902 -1.35468 0
M  V30 7614 O 751.053 -1.18088 -1.33856 0
M  V30 7615 C 748.153 -2.31476 -2.47532 0
M  V30 7616 C 747.326 -3.62745 -2.44407 0
M  V30 7617 C 746.385 -3.82168 -3.6171 0
M  V30 7618 O 745.411 -4.53852 -3.43522 0
M  V30 7619 N 746.613 -3.2388 -4.81749 0
M  V30 7620 H 749.378 -2.89864 -0.761501 0
M  V30 7621 H 746.939 -1.5965 -0.268965 0
M  V30 7622 H 748.931 -2.4165 -3.24634 0
M  V30 7623 H 747.501 -1.47364 -2.75686 0
M  V30 7624 H 746.721 -3.63403 -1.52747 0
M  V30 7625 H 748.009 -4.48954 -2.39412 0
M  V30 7626 H 747.407 -2.6568 -4.9943 0
M  V30 7627 H 745.964 -3.39515 -5.56392 0
M  V30 7628 N 749.397 0.351382 -1.53633 0
M  V30 7629 C 750.622 1.11718 -1.74739 0
M  V30 7630 C 751.047 1.81829 -0.481657 0
M  V30 7631 O 750.405 1.72264 0.565233 0
M  V30 7632 C 750.453 2.11234 -2.92254 0
M  V30 7633 O 749.557 3.186 -2.61855 0
M  V30 7634 H 748.898 0.323482 -0.579875 0
M  V30 7635 H 751.428 0.404167 -2.00568 0
M  V30 7636 H 751.438 2.54591 -3.18822 0
M  V30 7637 H 750.113 1.59599 -3.84058 0
M  V30 7638 H 748.69 2.80115 -2.4615 0
M  V30 7639 N 750.875 1.45233 0.611969 0
M  V30 7640 C 751.823 1.53898 1.74408 0
M  V30 7641 C 752.817 0.409254 1.64382 0
M  V30 7642 O 754.023 0.584988 1.70229 0
M  V30 7643 H 750.398 0.483303 0.576127 0
M  V30 7644 H 752.369 2.49143 1.64227 0
M  V30 7645 C 751.118 1.51865 3.12782 0
M  V30 7646 H 750.441 2.38118 3.21154 0
M  V30 7647 H 751.881 1.61986 3.91838 0
M  V30 7648 C 750.34 0.242374 3.36027 0
M  V30 7649 O 750.87 -0.679587 3.9591 0
M  V30 7650 N 749.076 0.139448 2.90265 0
M  V30 7651 H 748.623 0.890571 2.41716 0
M  V30 7652 H 748.581 -0.713686 3.06193 0
M  V30 7653 N 752.353 -0.854086 1.3245 0
M  V30 7654 C 753.578 -1.64597 1.26185 0
M  V30 7655 C 754.003 -1.87357 -0.167074 0
M  V30 7656 O 753.361 -1.42675 -1.11864 0
M  V30 7657 C 753.409 -2.98213 2.02734 0
M  V30 7658 O 752.513 -3.88784 1.37554 0
M  V30 7659 H 751.854 -0.50179 0.434859 0
M  V30 7660 H 754.384 -1.06372 1.74775 0
M  V30 7661 H 754.394 -3.4803 2.1293 0
M  V30 7662 H 753.069 -2.80969 3.06642 0
M  V30 7663 H 751.646 -3.4725 1.3591 0
M  V30 7664 N 753.831 -1.1567 -1.07043 0
M  V30 7665 C 754.763 -0.814095 -2.14255 0
M  V30 7666 C 755.776 0.175293 -1.61854 0
M  V30 7667 O 756.965 -0.0483984 -1.78434 0
M  V30 7668 C 754.065 -0.190082 -3.38367 0
M  V30 7669 C 753.238 -1.21768 -4.20109 0
M  V30 7670 C 752.297 -0.614863 -5.22595 0
M  V30 7671 O 751.323 -1.28167 -5.54583 0
M  V30 7672 N 752.525 0.601955 -5.77371 0
M  V30 7673 H 755.29 -1.73677 -2.44247 0
M  V30 7674 H 752.851 -1.05301 -1.22977 0
M  V30 7675 H 754.843 0.22604 -4.04068 0
M  V30 7676 H 753.413 0.635992 -3.06062 0
M  V30 7677 H 752.633 -1.81025 -3.50177 0
M  V30 7678 H 753.921 -1.9114 -4.71533 0
M  V30 7679 H 753.319 1.162 -5.53637 0
M  V30 7680 H 751.876 0.96039 -6.44686 0
M  V30 7681 N 755.309 1.25446 -0.953992 0
M  V30 7682 C 756.534 1.97755 -0.625129 0
M  V30 7683 C 756.959 1.70437 0.795787 0
M  V30 7684 O 756.317 0.95992 1.53803 0
M  V30 7685 C 756.365 3.49463 -0.889251 0
M  V30 7686 O 755.469 4.12387 0.0322757 0
M  V30 7687 H 754.81 0.61998 -0.237742 0
M  V30 7688 H 757.34 1.59582 -1.28041 0
M  V30 7689 H 757.35 3.99772 -0.815263 0
M  V30 7690 H 756.025 3.68676 -1.92487 0
M  V30 7691 H 754.602 3.72782 -0.0938625 0
M  V30 7692 N 756.787 0.722489 1.40064 0
M  V30 7693 C 758.034 0.264979 2.00759 0
M  V30 7694 C 758.362 -1.14395 1.57302 0
M  V30 7695 O 757.617 -1.79165 0.787298 0
M  V30 7696 C 757.916 0.300682 3.56133 0
M  V30 7697 C 757.582 1.66087 4.19197 0
M  V30 7698 C 756.244 2.03319 4.36136 0
M  V30 7699 C 758.596 2.55452 4.54306 0
M  V30 7700 C 755.924 3.29448 4.8547 0
M  V30 7701 C 758.276 3.8094 5.05042 0
M  V30 7702 C 756.94 4.1828 5.2019 0
M  V30 7703 H 756.21 0.0969625 0.734629 0
M  V30 7704 H 758.857 0.926877 1.67575 0
M  V30 7705 H 757.162 -0.44479 3.89267 0
M  V30 7706 H 758.859 -0.0712542 4.00937 0
M  V30 7707 H 755.449 1.36137 4.06405 0
M  V30 7708 H 759.633 2.27961 4.40849 0
M  V30 7709 H 754.889 3.58338 4.95382 0
M  V30 7710 H 759.063 4.50351 5.31184 0
M  V30 7711 H 756.69 5.16081 5.58179 0
M  V30 7712 N 758.265 -1.50454 0.469181 0
M  V30 7713 C 759.49 -2.0722 -0.0864892 0
M  V30 7714 C 759.915 -1.33098 -1.32916 0
M  V30 7715 O 759.273 -0.378084 -1.77314 0
M  V30 7716 C 759.321 -3.58845 -0.355384 0
M  V30 7717 O 758.425 -3.86583 -1.43622 0
M  V30 7718 H 757.766 -0.663889 0.0121414 0
M  V30 7719 H 760.296 -1.93674 0.659674 0
M  V30 7720 H 760.306 -4.03617 -0.596447 0
M  V30 7721 H 758.981 -4.12211 0.552698 0
M  V30 7722 H 757.558 -3.5365 -1.18262 0
M  V30 7723 N 759.743 -0.201713 -1.56304 0
M  V30 7724 C 760.971 0.440723 -2.02152 0
M  V30 7725 C 761.386 1.54735 -1.08179 0
M  V30 7726 O 760.743 1.82289 -0.0878196 0
M  V30 7727 C 760.794 0.990884 -3.47655 0
M  V30 7728 O 760.515 -0.0715937 -4.38041 0
M  V30 7729 C 762.016 1.70854 -4.09052 0
M  V30 7730 H 759.236 0.109987 -0.661924 0
M  V30 7731 H 761.78 -0.312358 -2.021 0
M  V30 7732 H 759.935 1.69432 -3.48384 0
M  V30 7733 H 760.349 0.338892 -5.23404 0
M  V30 7734 H 761.823 2.04572 -5.12693 0
M  V30 7735 H 762.3 2.61462 -3.52894 0
M  V30 7736 H 762.906 1.0508 -4.12114 0
M  V30 7737 N 761.222 1.57436 0.0718424 0
M  V30 7738 C 762.447 1.91858 0.787745 0
M  V30 7739 C 762.872 0.798119 1.70328 0
M  V30 7740 O 762.23 -0.24905 1.79581 0
M  V30 7741 C 762.278 3.25232 1.55744 0
M  V30 7742 O 761.382 3.14462 2.6681 0
M  V30 7743 H 760.723 0.628258 0.214914 0
M  V30 7744 H 763.253 2.04561 0.0401012 0
M  V30 7745 H 763.263 3.59105 1.9367 0
M  V30 7746 H 761.938 4.0636 0.885691 0
M  V30 7747 H 760.515 2.92148 2.31741 0
M  V30 7748 N 762.7 -0.34323 1.53817 0
M  V30 7749 C 763.65 -1.42217 1.78208 0
M  V30 7750 C 764.634 -1.4774 0.637304 0
M  V30 7751 O 765.826 -1.52605 0.896705 0
M  V30 7752 C 762.955 -2.79354 1.9954 0
M  V30 7753 C 762.041 -2.78222 3.20084 0
M  V30 7754 N 762.432 -2.46719 4.41547 0
M  V30 7755 C 760.73 -3.09368 3.21259 0
M  V30 7756 C 761.431 -2.53828 5.23399 0
M  V30 7757 N 760.407 -2.89464 4.60121 0
M  V30 7758 H 764.209 -1.16759 2.69712 0
M  V30 7759 H 761.723 -0.551592 1.52746 0
M  V30 7760 H 763.72 -3.57095 2.15148 0
M  V30 7761 H 762.38 -3.05759 1.09278 0
M  V30 7762 H 763.391 -2.19912 4.68891 0
M  V30 7763 H 760.068 -3.40942 2.40966 0
M  V30 7764 H 761.458 -2.32629 6.30344 0
M  V30 7765 N 764.178 -1.45556 -0.604258 0
M  V30 7766 C 765.088 -1.57025 -1.74299 0
M  V30 7767 C 766.104 -0.45456 -1.67958 0
M  V30 7768 O 767.28 -0.715711 -1.88254 0
M  V30 7769 C 764.345 -1.53702 -3.10768 0
M  V30 7770 C 763.406 -2.76335 -3.28538 0
M  V30 7771 C 762.639 -2.73161 -4.58496 0
M  V30 7772 O 762.862 -1.80678 -5.41028 0
M  V30 7773 O 761.796 -3.64409 -4.79051 0
M  V30 7774 H 765.622 -2.53284 -1.67573 0
M  V30 7775 H 763.207 -1.28104 -0.768745 0
M  V30 7776 H 765.089 -1.54468 -3.92068 0
M  V30 7777 H 763.764 -0.605957 -3.17978 0
M  V30 7778 H 762.671 -2.8113 -2.46813 0
M  V30 7779 H 764.004 -3.68578 -3.26207 0
M  V30 7780 N 765.656 0.84705 -1.32902 0
M  V30 7781 C 766.904 1.5986 -1.2365 0
M  V30 7782 C 767.225 1.93974 0.199789 0
M  V30 7783 O 766.495 1.60273 1.12648 0
M  V30 7784 H 765.075 0.592696 -0.454665 0
M  V30 7785 H 767.737 1.01278 -1.66519 0
M  V30 7786 H 766.833 2.53218 -1.82448 0
M  V30 7787 N 767.134 1.16236 1.06428 0
M  V30 7788 C 768.064 0.890807 2.1584 0
M  V30 7789 C 769.045 -0.162333 1.69324 0
M  V30 7790 O 770.23 -0.0147191 1.94194 0
M  V30 7791 C 767.36 0.389615 3.45108 0
M  V30 7792 C 766.314 1.38051 4.05125 0
M  V30 7793 C 765.64 0.737773 5.29586 0
M  V30 7794 C 766.94 2.74965 4.44062 0
M  V30 7795 H 768.634 1.80577 2.38814 0
M  V30 7796 H 766.18 0.869657 1.14774 0
M  V30 7797 H 768.133 0.187127 4.20984 0
M  V30 7798 H 766.857 -0.560851 3.21748 0
M  V30 7799 H 765.516 1.56952 3.31303 0
M  V30 7800 H 765.164 -0.219135 5.02522 0
M  V30 7801 H 764.864 1.39914 5.70699 0
M  V30 7802 H 766.388 0.545275 6.0816 0
M  V30 7803 H 767.802 2.59855 5.11027 0
M  V30 7804 H 766.199 3.37563 4.96156 0
M  V30 7805 H 767.269 3.30321 3.54987 0
M  V30 7806 N 768.612 -1.24939 0.960631 0
M  V30 7807 C 769.522 -2.29374 0.492435 0
M  V30 7808 C 770.538 -1.68262 -0.443154 0
M  V30 7809 O 771.714 -1.98875 -0.31793 0
M  V30 7810 C 768.779 -3.46023 -0.216626 0
M  V30 7811 C 767.84 -4.22557 0.757915 0
M  V30 7812 C 767.073 -5.33636 0.0825969 0
M  V30 7813 O 767.296 -5.59084 -1.13054 0
M  V30 7814 O 766.23 -5.96939 0.771177 0
M  V30 7815 H 770.056 -2.71525 1.36044 0
M  V30 7816 H 767.641 -1.30499 0.72735 0
M  V30 7817 H 769.523 -4.16885 -0.615241 0
M  V30 7818 H 768.198 -3.05862 -1.05971 0
M  V30 7819 H 767.105 -3.54099 1.20685 0
M  V30 7820 H 768.438 -4.66516 1.5692 0
M  V30 7821 N 770.09 -0.729906 -1.39679 0
M  V30 7822 C 771 -0.0880322 -2.34435 0
M  V30 7823 C 772.016 0.727674 -1.58053 0
M  V30 7824 O 773.192 0.657321 -1.90371 0
M  V30 7825 C 770.257 0.812211 -3.37052 0
M  V30 7826 C 769.318 -0.0151681 -4.29297 0
M  V30 7827 C 768.551 0.842202 -5.27013 0
M  V30 7828 O 768.774 2.08108 -5.31081 0
M  V30 7829 O 767.708 0.27357 -6.01278 0
M  V30 7830 H 771.534 -0.869989 -2.90972 0
M  V30 7831 H 769.119 -0.490522 -1.41118 0
M  V30 7832 H 771.001 1.32745 -3.99946 0
M  V30 7833 H 769.676 1.57307 -2.82907 0
M  V30 7834 H 768.583 -0.575811 -3.69642 0
M  V30 7835 H 769.916 -0.738129 -4.86634 0
M  V30 7836 N 771.568 1.50203 -0.477153 0
M  V30 7837 C 772.845 1.95115 0.137609 0
M  V30 7838 C 773.225 1.41778 1.56404 0
M  V30 7839 O 772.573 0.621333 2.1989 0
M  V30 7840 C 772.783 3.4892 0.0747168 0
M  V30 7841 C 774.131 4.238 0.260585 0
M  V30 7842 O 775.155 3.5588 0.151021 0
M  V30 7843 O 774.014 5.44366 0.482534 0
M  V30 7844 H 771.108 0.81987 0.108364 0
M  V30 7845 H 773.654 1.60946 -0.537989 0
M  V30 7846 H 772.426 3.80308 -0.920966 0
M  V30 7847 H 772.049 3.89642 0.791509 0
M  V30 7848 N 773.046 0.209999 1.56195 0
M  V30 7849 C 773.993 -0.704854 2.19774 0
M  V30 7850 C 774.963 -1.19886 1.14964 0
M  V30 7851 O 776.148 -1.26005 1.43274 0
M  V30 7852 C 773.288 -1.91241 2.87265 0
M  V30 7853 C 772.401 -1.45838 4.06639 0
M  V30 7854 C 771.536 -2.6226 4.61945 0
M  V30 7855 C 770.575 -2.13537 5.73645 0
M  V30 7856 N 769.712 -3.2319 6.23292 0
M  V30 7857 H 774.552 -0.155944 2.97592 0
M  V30 7858 H 772.089 -0.0652235 1.46955 0
M  V30 7859 H 774.047 -2.62123 3.24573 0
M  V30 7860 H 772.677 -2.43439 2.11985 0
M  V30 7861 H 771.729 -0.644897 3.74894 0
M  V30 7862 H 773.041 -1.06103 4.87384 0
M  V30 7863 H 772.195 -3.41243 5.01636 0
M  V30 7864 H 770.934 -3.05278 3.80338 0
M  V30 7865 H 769.939 -1.33013 5.33468 0
M  V30 7866 H 771.164 -1.71533 6.57079 0
M  V30 7867 H 769.11 -3.65711 5.44602 0
M  V30 7868 H 769.027 -2.8767 6.99129 0
M  V30 7869 H 770.295 -4.02342 6.67639 0
M  V30 7870 N 774.524 -1.57472 -0.0634922 0
M  V30 7871 C 775.801 -1.78736 -0.794538 0
M  V30 7872 C 776.181 -0.799645 -1.95369 0
M  V30 7873 O 775.529 0.165521 -2.279 0
M  V30 7874 C 775.739 -3.25471 -1.25975 0
M  V30 7875 C 777.087 -3.89528 -1.68976 0
M  V30 7876 O 778.111 -3.29412 -1.35521 0
M  V30 7877 O 776.97 -4.95305 -2.30944 0
M  V30 7878 H 774.064 -0.733813 -0.381376 0
M  V30 7879 H 776.61 -1.69646 -0.0429258 0
M  V30 7880 H 775.382 -3.88922 -0.430721 0
M  V30 7881 H 775.005 -3.39317 -2.07243 0
M  V30 7882 N 776.003 0.335068 -1.53997 0
M  V30 7883 C 776.953 1.4127 -1.7896 0
M  V30 7884 C 777.937 1.474 -0.64513 0
M  V30 7885 O 779.129 1.52127 -0.904785 0
M  V30 7886 C 776.258 2.78292 -2.01018 0
M  V30 7887 C 775.344 2.7652 -3.21555 0
M  V30 7888 N 775.735 2.44374 -4.42849 0
M  V30 7889 C 774.033 3.0766 -3.22895 0
M  V30 7890 C 774.734 2.51049 -5.24737 0
M  V30 7891 N 773.71 2.8702 -4.6165 0
M  V30 7892 H 777.512 1.15327 -2.70327 0
M  V30 7893 H 775.026 0.543483 -1.53036 0
M  V30 7894 H 777.023 3.55949 -2.17039 0
M  V30 7895 H 775.683 3.05175 -1.10898 0
M  V30 7896 H 776.694 2.17422 -4.70051 0
M  V30 7897 H 773.371 3.3966 -2.42771 0
M  V30 7898 H 774.761 2.29283 -6.31569 0
M  V30 7899 N 777.481 1.45874 0.596531 0
M  V30 7900 C 778.892 1.44798 1.17857 0
M  V30 7901 C 779.243 0.181443 1.95359 0
M  V30 7902 O 778.368 -0.716336 2.042 0
M  V30 7903 C 778.963 2.62333 2.14398 0
M  V30 7904 C 777.522 2.64342 2.67955 0
M  V30 7905 C 776.669 2.37244 1.43564 0
M  V30 7906 H 779.62 1.53954 0.385222 0
M  V30 7907 H 779.641 2.37063 2.97626 0
M  V30 7908 H 779.153 3.54499 1.57963 0
M  V30 7909 H 777.254 1.76213 3.28298 0
M  V30 7910 H 777.367 3.63897 3.11634 0
M  V30 7911 H 775.731 1.87022 1.72901 0
M  V30 7912 H 776.514 3.31568 0.889805 0
M  V30 7913 N 778.959 -0.83999 1.33349 0
M  V30 7914 C 780.187 -1.62728 1.27778 0
M  V30 7915 C 780.602 -1.88191 -0.151505 0
M  V30 7916 O 779.959 -1.46128 -1.09329 0
M  V30 7917 C 780.01 -2.97813 2.04913 0
M  V30 7918 O 779.731 -2.73469 3.42266 0
M  V30 7919 C 781.232 -3.92245 2.0654 0
M  V30 7920 H 778.452 -0.506374 0.440257 0
M  V30 7921 H 780.996 -1.04637 1.75703 0
M  V30 7922 H 779.151 -3.52509 1.60674 0
M  V30 7923 H 779.565 -3.59483 3.81932 0
M  V30 7924 H 781.039 -4.84249 2.64966 0
M  V30 7925 H 781.516 -4.26332 1.05537 0
M  V30 7926 H 782.122 -3.43487 2.50793 0
M  V30 7927 N 780.437 -1.16799 -1.0581 0
M  V30 7928 C 781.665 -0.97687 -1.82387 0
M  V30 7929 C 782.08 0.474917 -1.82729 0
M  V30 7930 O 781.437 1.3297 -1.25001 0
M  V30 7931 C 781.488 -1.50279 -3.28783 0
M  V30 7932 O 781.209 -2.89772 -3.28578 0
M  V30 7933 C 782.71 -1.35538 -4.22071 0
M  V30 7934 H 779.93 -0.345977 -0.574927 0
M  V30 7935 H 782.474 -1.54942 -1.33466 0
M  V30 7936 H 780.629 -0.972414 -3.74997 0
M  V30 7937 H 781.043 -3.13954 -4.20159 0
M  V30 7938 H 782.517 -1.7716 -5.22799 0
M  V30 7939 H 782.994 -0.301598 -4.38163 0
M  V30 7940 H 783.6 -1.87562 -3.81708 0
M  V30 7941 N 781.915 1.24427 -0.967243 0
M  V30 7942 C 783.14 1.9708 -0.646069 0
M  V30 7943 C 783.565 1.71272 0.777665 0
M  V30 7944 O 782.923 0.976179 1.52776 0
M  V30 7945 C 782.971 3.48501 -0.926266 0
M  V30 7946 O 782.075 4.12398 -0.0114653 0
M  V30 7947 H 781.416 0.617423 -0.244304 0
M  V30 7948 H 783.946 1.58215 -1.29727 0
M  V30 7949 H 783.956 3.98885 -0.857619 0
M  V30 7950 H 782.631 3.66613 -1.96386 0
M  V30 7951 H 781.208 3.72661 -0.133396 0
M  V30 7952 N 783.393 0.737304 1.3929 0
M  V30 7953 C 784.621 0.296573 2.04763 0
M  V30 7954 C 785.036 -1.06941 1.55592 0
M  V30 7955 O 784.393 -1.67619 0.721822 0
M  V30 7956 C 784.444 0.291906 3.6032 0
M  V30 7957 O 784.165 1.60397 4.07682 0
M  V30 7958 C 785.666 -0.164708 4.42994 0
M  V30 7959 H 782.886 0.129251 0.658434 0
M  V30 7960 H 785.43 1.0016 1.78293 0
M  V30 7961 H 783.585 -0.364251 3.85684 0
M  V30 7962 H 783.999 1.51909 5.0202 0
M  V30 7963 H 785.473 -0.116814 5.51876 0
M  V30 7964 H 785.95 -1.21022 4.22197 0
M  V30 7965 H 786.556 0.461968 4.22784 0
M  V30 7966 N 784.871 -1.49948 0.485112 0
M  V30 7967 C 785.801 -2.31675 -0.291364 0
M  V30 7968 C 786.782 -1.39216 -0.977383 0
M  V30 7969 O 787.967 -1.68133 -0.971855 0
M  V30 7970 C 785.097 -3.19326 -1.36558 0
M  V30 7971 C 784.051 -4.2045 -0.800359 0
M  V30 7972 C 783.377 -4.96931 -1.97391 0
M  V30 7973 C 784.677 -5.21925 0.197867 0
M  V30 7974 H 786.371 -2.96839 0.390775 0
M  V30 7975 H 783.917 -1.42749 0.189375 0
M  V30 7976 H 785.87 -3.75304 -1.91638 0
M  V30 7977 H 784.594 -2.52074 -2.07668 0
M  V30 7978 H 783.253 -3.65594 -0.271428 0
M  V30 7979 H 782.901 -4.26141 -2.67232 0
M  V30 7980 H 782.601 -5.65344 -1.60187 0
M  V30 7981 H 784.125 -5.55749 -2.52935 0
M  V30 7982 H 785.539 -5.72691 -0.264239 0
M  V30 7983 H 783.936 -5.98138 0.484908 0
M  V30 7984 H 785.006 -4.71809 1.11912 0
M  V30 7985 N 786.349 -0.21828 -1.56081 0
M  V30 7986 C 787.577 0.419258 -2.02608 0
M  V30 7987 C 787.992 1.53578 -1.09814 0
M  V30 7988 O 787.349 1.82185 -0.107149 0
M  V30 7989 C 787.4 0.953955 -3.48686 0
M  V30 7990 O 787.121 -0.11805 -4.37941 0
M  V30 7991 C 788.622 1.66506 -4.10841 0
M  V30 7992 H 785.842 0.10296 -0.663054 0
M  V30 7993 H 788.386 -0.333776 -2.01758 0
M  V30 7994 H 786.541 1.65727 -3.50162 0
M  V30 7995 H 786.955 0.283359 -5.23734 0
M  V30 7996 H 788.429 1.99123 -5.14834 0
M  V30 7997 H 788.906 2.57705 -3.55647 0
M  V30 7998 H 789.512 1.00703 -4.13206 0
M  V30 7999 N 787.827 1.57504 0.0551401 0
M  V30 8000 C 789.052 1.92682 0.767352 0
M  V30 8001 C 789.477 0.81614 1.69472 0
M  V30 8002 O 788.835 -0.229989 1.79835 0
M  V30 8003 C 788.883 3.26866 1.52286 0
M  V30 8004 O 787.987 3.17274 2.63459 0
M  V30 8005 H 787.328 0.630502 0.208238 0
M  V30 8006 H 789.858 2.04592 0.0184026 0
M  V30 8007 H 789.868 3.61138 1.8985 0
M  V30 8008 H 788.543 4.07276 0.842541 0
M  V30 8009 H 787.12 2.94589 2.2863 0
M  V30 8010 N 789.305 -0.326896 1.54172 0
M  V30 8011 C 790.53 -1.08924 1.76494 0
M  V30 8012 C 790.955 -1.81039 0.510523 0
M  V30 8013 O 790.313 -1.73141 -0.537756 0
M  V30 8014 C 790.361 -2.06558 2.95578 0
M  V30 8015 O 789.465 -3.14394 2.6689 0
M  V30 8016 H 788.806 -0.314216 0.584948 0
M  V30 8017 H 791.336 -0.372207 2.01186 0
M  V30 8018 H 791.346 -2.49487 3.22832 0
M  V30 8019 H 790.021 -1.53469 3.86549 0
M  V30 8020 H 788.598 -2.76164 2.50576 0
M  V30 8021 N 790.784 -1.46188 -0.588786 0
M  V30 8022 C 791.732 -1.56653 -1.71938 0
M  V30 8023 C 792.726 -0.435354 -1.6371 0
M  V30 8024 O 793.932 -0.611996 -1.69277 0
M  V30 8025 H 790.307 -0.492408 -0.568365 0
M  V30 8026 H 792.278 -2.51724 -1.60242 0
M  V30 8027 C 791.027 -1.56822 -3.10326 0
M  V30 8028 H 790.35 -2.43198 -3.17325 0
M  V30 8029 H 791.79 -1.68199 -3.89211 0
M  V30 8030 C 790.249 -0.295802 -3.35599 0
M  V30 8031 O 790.779 0.616515 -3.96941 0
M  V30 8032 N 788.985 -0.185609 -2.90007 0
M  V30 8033 H 788.532 -0.928914 -2.40269 0
M  V30 8034 H 788.49 0.664883 -3.07289 0
M  V30 8035 N 792.262 0.832906 -1.33792 0
M  V30 8036 C 793.678 1.1245 -1.13257 0
M  V30 8037 C 793.878 2.01369 0.0725832 0
M  V30 8038 O 792.934 2.41071 0.751082 0
M  V30 8039 C 794.247 1.78084 -2.42294 0
M  V30 8040 C 795.795 1.90624 -2.48257 0
M  V30 8041 C 796.27 2.59673 -3.77271 0
M  V30 8042 N 797.761 2.67181 -3.78376 0
M  V30 8043 C 798.496 3.21313 -4.74916 0
M  V30 8044 N 797.992 3.76086 -5.81835 0
M  V30 8045 N 799.785 3.19621 -4.62384 0
M  V30 8046 H 791.936 0.241244 -2.11026 0
M  V30 8047 H 794.199 0.169557 -0.932713 0
M  V30 8048 H 793.905 1.20209 -3.30519 0
M  V30 8049 H 793.779 2.78049 -2.5489 0
M  V30 8050 H 796.166 2.4765 -1.60478 0
M  V30 8051 H 796.247 0.89591 -2.39598 0
M  V30 8052 H 795.891 2.03304 -4.65435 0
M  V30 8053 H 795.821 3.61189 -3.8321 0
M  V30 8054 H 798.312 2.28346 -3.01108 0
M  V30 8055 H 798.625 4.15612 -6.51526 0
M  V30 8056 H 796.97 3.74357 -5.85561 0
M  V30 8057 H 800.161 2.76091 -3.7801 0
M  V30 8058 H 800.334 3.61504 -5.37791 0
M  V30 8059 N 793.74 1.17359 1.05189 0
M  V30 8060 C 794.688 0.886527 2.15043 0
M  V30 8061 C 795.682 -0.148834 1.68745 0
M  V30 8062 O 796.888 -0.00175123 1.8 0
M  V30 8063 H 793.263 0.269147 0.702185 0
M  V30 8064 H 795.234 1.82016 2.36459 0
M  V30 8065 C 793.983 0.416333 3.45198 0
M  V30 8066 H 793.306 1.20449 3.81225 0
M  V30 8067 H 794.746 0.254362 4.23236 0
M  V30 8068 C 793.205 -0.866016 3.25579 0
M  V30 8069 O 793.735 -1.9328 3.52144 0
M  V30 8070 N 791.941 -0.814179 2.78961 0
M  V30 8071 H 791.488 0.0541618 2.57543 0
M  V30 8072 H 791.446 -1.67264 2.66214 0
M  V30 8073 N 795.218 -1.23913 0.973828 0
M  V30 8074 C 796.495 -1.87539 0.555729 0
M  V30 8075 C 796.875 -1.87641 -0.967162 0
M  V30 8076 O 796.223 -1.35335 -1.84111 0
M  V30 8077 C 796.433 -3.29359 1.15427 0
M  V30 8078 C 797.781 -4.06 1.24294 0
M  V30 8079 O 798.805 -3.38554 1.10723 0
M  V30 8080 O 797.664 -5.26689 1.45813 0
M  V30 8081 H 794.758 -0.805769 0.186188 0
M  V30 8082 H 797.304 -1.31838 1.06849 0
M  V30 8083 H 796.076 -3.23817 2.19678 0
M  V30 8084 H 795.699 -3.92642 0.625925 0
M  V30 8085 N 796.696 -0.74468 -1.38897 0
M  V30 8086 C 797.942 -0.297324 -2.00609 0
M  V30 8087 C 798.275 1.11547 -1.58968 0
M  V30 8088 O 797.55 1.76227 -0.823057 0
M  V30 8089 C 797.833 -0.410125 -3.57757 0
M  V30 8090 C 797.686 -1.86338 -4.09387 0
M  V30 8091 C 799.005 0.20176 -4.39637 0
M  V30 8092 H 796.124 -0.109509 -0.728819 0
M  V30 8093 H 798.766 -0.942653 -1.64967 0
M  V30 8094 H 796.916 0.139287 -3.8825 0
M  V30 8095 H 798.588 -2.47042 -3.89574 0
M  V30 8096 H 796.831 -2.38146 -3.62586 0
M  V30 8097 H 797.502 -1.89352 -5.18507 0
M  V30 8098 H 799.978 -0.266703 -4.15244 0
M  V30 8099 H 798.854 0.0925415 -5.48822 0
M  V30 8100 H 799.115 1.289 -4.22891 0
M  V30 8101 N 798.174 1.49689 -0.493057 0
M  V30 8102 C 799.402 2.06836 0.0513141 0
M  V30 8103 C 799.817 1.35436 1.31539 0
M  V30 8104 O 799.174 0.430248 1.77356 0
M  V30 8105 C 799.225 3.60107 0.317003 0
M  V30 8106 O 798.946 4.2882 -0.896957 0
M  V30 8107 C 800.447 4.33945 0.905902 0
M  V30 8108 H 797.667 0.670787 -0.0169048 0
M  V30 8109 H 800.211 1.92574 -0.688139 0
M  V30 8110 H 798.366 3.74099 1.00642 0
M  V30 8111 H 798.78 5.20395 -0.654939 0
M  V30 8112 H 800.254 5.42087 1.04144 0
M  V30 8113 H 800.731 3.95895 1.90168 0
M  V30 8114 H 801.337 4.2454 0.254195 0
M  V30 8115 N 799.652 0.226554 1.55963 0
M  V30 8116 C 800.9 -0.402991 1.98041 0
M  V30 8117 C 801.221 -1.59938 1.11557 0
M  V30 8118 O 800.491 -1.9494 0.193719 0
M  V30 8119 H 799.071 -0.15188 0.731397 0
M  V30 8120 H 801.733 0.320613 1.92245 0
M  V30 8121 H 800.829 -0.725937 3.0354 0
M  V30 8122 N 801.13 -1.57531 -0.0467866 0
M  V30 8123 C 802.378 -1.88078 -0.739656 0
M  V30 8124 C 802.699 -0.821936 -1.76831 0
M  V30 8125 O 801.969 0.146582 -1.95351 0
M  V30 8126 H 800.549 -0.694075 -0.276169 0
M  V30 8127 H 803.211 -1.94893 -0.0169391 0
M  V30 8128 H 802.307 -2.86396 -1.24031 0
M  V30 8129 N 802.608 0.318715 -1.54344 0
M  V30 8130 C 804.024 0.663345 -1.45162 0
M  V30 8131 C 804.224 1.9145 -0.62842 0
M  V30 8132 O 803.28 2.5217 -0.129126 0
M  V30 8133 C 804.593 0.832836 -2.88937 0
M  V30 8134 C 806.141 0.929866 -2.98869 0
M  V30 8135 C 806.616 1.13149 -4.43803 0
M  V30 8136 N 808.107 1.19811 -4.47437 0
M  V30 8137 C 808.842 1.37209 -5.56742 0
M  V30 8138 N 808.338 1.51619 -6.76006 0
M  V30 8139 N 810.131 1.39956 -5.44398 0
M  V30 8140 H 802.282 -0.50357 -2.06344 0
M  V30 8141 H 804.545 -0.163528 -0.933789 0
M  V30 8142 H 804.251 -0.0153519 -3.51697 0
M  V30 8143 H 804.125 1.72721 -3.35332 0
M  V30 8144 H 806.512 1.76855 -2.36233 0
M  V30 8145 H 806.593 0.0118561 -2.55797 0
M  V30 8146 H 806.237 0.297636 -5.07027 0
M  V30 8147 H 806.167 2.06345 -4.84489 0
M  V30 8148 H 808.658 1.101 -3.61506 0
M  V30 8149 H 808.971 1.64599 -7.55067 0
M  V30 8150 H 807.316 1.48708 -6.78904 0
M  V30 8151 H 810.507 1.28298 -4.50175 0
M  V30 8152 H 810.68 1.53172 -6.29637 0
M  V30 8153 N 804.086 1.46499 0.581025 0
M  V30 8154 C 805.502 1.31491 0.904563 0
M  V30 8155 C 805.702 0.287598 1.99437 0
M  V30 8156 O 804.758 -0.309247 2.50599 0
M  V30 8157 C 806.071 2.70163 1.32032 0
M  V30 8158 C 807.619 2.78266 1.43308 0
M  V30 8159 C 808.094 4.17524 1.8825 0
M  V30 8160 N 809.585 4.19949 1.9544 0
M  V30 8161 C 810.32 5.24594 2.31493 0
M  V30 8162 N 809.816 6.39564 2.66326 0
M  V30 8163 N 811.609 5.11961 2.32062 0
M  V30 8164 H 803.76 2.11946 -0.138856 0
M  V30 8165 H 806.023 0.948 0.000548528 0
M  V30 8166 H 805.729 3.46655 0.593554 0
M  V30 8167 H 805.603 3.00379 2.2815 0
M  V30 8168 H 807.99 2.02061 2.15071 0
M  V30 8169 H 808.071 2.51732 0.45438 0
M  V30 8170 H 807.715 4.94225 1.17065 0
M  V30 8171 H 807.645 4.41466 2.87081 0
M  V30 8172 H 810.136 3.36996 1.71004 0
M  V30 8173 H 810.449 7.15187 2.92793 0
M  V30 8174 H 808.794 6.42923 2.6396 0
M  V30 8175 H 811.985 4.21177 2.04272 0
M  V30 8176 H 812.158 5.93626 2.5983 0
M  V30 8177 N 805.565 -0.825799 1.34232 0
M  V30 8178 C 806.842 -1.56741 1.17011 0
M  V30 8179 C 807.222 -2.09512 -0.258425 0
M  V30 8180 O 806.57 -1.90664 -1.25935 0
M  V30 8181 C 806.78 -2.69104 2.22225 0
M  V30 8182 C 808.128 -3.37947 2.57055 0
M  V30 8183 O 809.152 -2.79358 2.20992 0
M  V30 8184 O 808.011 -4.43743 3.1899 0
M  V30 8185 H 805.105 -0.69163 0.453405 0
M  V30 8186 H 807.651 -0.867422 1.45856 0
M  V30 8187 H 806.423 -2.27844 3.18124 0
M  V30 8188 H 806.046 -3.46756 1.94541 0
M  V30 8189 N 807.043 -1.17915 -1.04565 0
M  V30 8190 C 808.454 -0.976383 -1.59134 0
M  V30 8191 C 808.805 0.475267 -1.90357 0
M  V30 8192 O 807.93 1.35172 -1.6899 0
M  V30 8193 C 808.525 -1.76604 -2.89131 0
M  V30 8194 C 807.084 -1.60777 -3.40335 0
M  V30 8195 C 806.231 -1.76369 -2.13985 0
M  V30 8196 H 809.182 -1.32532 -0.872985 0
M  V30 8197 H 809.203 -1.25215 -3.59307 0
M  V30 8198 H 808.715 -2.82252 -2.66375 0
M  V30 8199 H 806.816 -0.576436 -3.68114 0
M  V30 8200 H 806.929 -2.40268 -4.14497 0
M  V30 8201 H 805.293 -1.19268 -2.25049 0
M  V30 8202 H 806.076 -2.83441 -1.9369 0
M  V30 8203 N 808.521 1.23394 -0.980386 0
M  V30 8204 C 809.469 2.26872 -0.513018 0
M  V30 8205 C 810.463 1.63853 0.429948 0
M  V30 8206 O 811.669 1.77417 0.303842 0
M  V30 8207 H 808.044 0.737398 -0.147473 0
M  V30 8208 H 810.015 2.63654 -1.39746 0
M  V30 8209 C 808.764 3.47289 0.168962 0
M  V30 8210 H 808.087 3.96033 -0.547546 0
M  V30 8211 H 809.527 4.21502 0.459616 0
M  V30 8212 C 807.986 3.06425 1.40019 0
M  V30 8213 O 808.516 3.14708 2.49643 0
M  V30 8214 N 806.722 2.61339 1.27084 0
M  V30 8215 H 806.269 2.54799 0.378872 0
M  V30 8216 H 806.227 2.34364 2.09573 0
M  V30 8217 N 809.999 0.752036 1.385 0
M  V30 8218 C 810.949 0.0990189 2.27785 0
M  V30 8219 C 811.933 -0.694867 1.45122 0
M  V30 8220 O 813.125 -0.561077 1.67872 0
M  V30 8221 C 810.254 -0.794531 3.33979 0
M  V30 8222 C 809.34 0.00611984 4.241 0
M  V30 8223 N 809.731 1.04174 4.94956 0
M  V30 8224 C 808.029 -0.220934 4.45452 0
M  V30 8225 C 808.73 1.52601 5.61327 0
M  V30 8226 N 807.706 0.84159 5.37046 0
M  V30 8227 H 811.508 0.892208 2.8003 0
M  V30 8228 H 809.022 0.587934 1.51384 0
M  V30 8229 H 811.019 -1.27797 3.96829 0
M  V30 8230 H 809.679 -1.58669 2.83292 0
M  V30 8231 H 810.69 1.42349 4.97953 0
M  V30 8232 H 807.367 -0.986556 4.05676 0
M  V30 8233 H 808.757 2.38857 6.2801 0
M  V30 8234 N 811.477 -1.49425 0.500989 0
M  V30 8235 C 812.702 -2.07356 -0.0425154 0
M  V30 8236 C 813.127 -1.35887 -1.30063 0
M  V30 8237 O 812.485 -0.41561 -1.76472 0
M  V30 8238 C 812.533 -3.59518 -0.279188 0
M  V30 8239 O 811.637 -3.89542 -1.3539 0
M  V30 8240 H 810.978 -0.663482 0.0262207 0
M  V30 8241 H 813.508 -1.92231 0.700607 0
M  V30 8242 H 813.518 -4.04791 -0.5107 0
M  V30 8243 H 812.193 -4.10946 0.640009 0
M  V30 8244 H 810.77 -3.56079 -1.10734 0
M  V30 8245 N 812.955 -0.234822 -1.55841 0
M  V30 8246 C 813.865 0.680828 -2.24504 0
M  V30 8247 C 814.881 1.20306 -1.25708 0
M  V30 8248 O 816.057 1.24188 -1.58554 0
M  V30 8249 C 813.122 1.86636 -2.92178 0
M  V30 8250 C 812.183 1.3848 -4.06352 0
M  V30 8251 C 811.416 2.51382 -4.70789 0
M  V30 8252 O 811.639 3.69831 -4.34259 0
M  V30 8253 O 810.573 2.21828 -5.59532 0
M  V30 8254 H 814.399 0.12583 -3.03439 0
M  V30 8255 H 811.984 -0.00381817 -1.494 0
M  V30 8256 H 813.866 2.55845 -3.34845 0
M  V30 8257 H 812.541 2.40921 -2.16192 0
M  V30 8258 H 811.448 0.660341 -3.68226 0
M  V30 8259 H 812.781 0.888177 -4.8412 0
M  V30 8260 N 814.433 1.57553 0.0384317 0
M  V30 8261 C 815.681 1.88468 0.729672 0
M  V30 8262 C 816.002 0.831302 1.76393 0
M  V30 8263 O 815.272 -0.13622 1.95426 0
M  V30 8264 H 813.852 0.695529 0.272485 0
M  V30 8265 H 816.514 1.94899 0.0066032 0
M  V30 8266 H 815.61 2.8705 1.22511 0
M  V30 8267 N 815.911 -0.310526 1.54511 0
M  V30 8268 C 817.136 -1.07046 1.7764 0
M  V30 8269 C 817.561 -1.80488 0.529696 0
M  V30 8270 O 816.919 -1.73702 -0.519361 0
M  V30 8271 C 816.967 -2.03411 2.97752 0
M  V30 8272 O 816.071 -3.11545 2.7021 0
M  V30 8273 H 815.412 -0.307994 0.588248 0
M  V30 8274 H 817.942 -0.350848 2.01569 0
M  V30 8275 H 817.952 -2.46048 3.2546 0
M  V30 8276 H 816.627 -1.49361 3.88155 0
M  V30 8277 H 815.204 -2.7349 2.53491 0
M  V30 8278 N 817.389 -1.46805 -0.573248 0
M  V30 8279 C 818.617 -1.56191 -1.3569 0
M  V30 8280 C 819.032 -0.206362 -1.87669 0
M  V30 8281 O 818.389 0.797883 -1.64134 0
M  V30 8282 C 818.44 -2.57433 -2.53792 0
M  V30 8283 O 818.161 -3.87724 -2.03965 0
M  V30 8284 C 819.662 -2.76851 -3.4622 0
M  V30 8285 H 816.882 -0.527907 -0.414192 0
M  V30 8286 H 819.426 -1.92292 -0.695989 0
M  V30 8287 H 817.581 -2.24311 -3.15854 0
M  V30 8288 H 817.995 -4.42909 -2.80948 0
M  V30 8289 H 819.469 -3.5159 -4.25545 0
M  V30 8290 H 819.946 -1.84095 -3.98755 0
M  V30 8291 H 820.552 -3.11107 -2.89987 0
M  V30 8292 N 818.867 0.818669 -1.34668 0
M  V30 8293 C 820.095 1.60674 -1.30351 0
M  V30 8294 C 820.51 1.88408 0.121546 0
M  V30 8295 O 819.867 1.47849 1.06991 0
M  V30 8296 C 819.918 2.94516 -2.09625 0
M  V30 8297 O 819.639 2.6799 -3.46573 0
M  V30 8298 C 821.14 3.8891 -2.12754 0
M  V30 8299 H 818.36 0.499306 -0.448258 0
M  V30 8300 H 820.904 1.01828 -1.77345 0
M  V30 8301 H 819.059 3.49908 -1.66262 0
M  V30 8302 H 819.473 3.53361 -3.87603 0
M  V30 8303 H 820.947 4.79972 -2.72637 0
M  V30 8304 H 821.424 4.24599 -1.12306 0
M  V30 8305 H 822.03 3.39453 -2.56225 0
M  V30 8306 N 820.346 1.18468 1.03938 0
M  V30 8307 C 821.276 0.936389 2.13902 0
M  V30 8308 C 822.257 -0.126381 1.6963 0
M  V30 8309 O 823.442 0.0264757 1.94182 0
M  V30 8310 C 820.572 0.462729 3.44204 0
M  V30 8311 C 819.526 1.46613 4.02105 0
M  V30 8312 C 818.852 0.84994 5.27902 0
M  V30 8313 C 820.152 2.84323 4.3813 0
M  V30 8314 H 821.846 1.85602 2.3493 0
M  V30 8315 H 819.392 0.893806 1.12903 0
M  V30 8316 H 821.345 0.276382 4.20493 0
M  V30 8317 H 820.069 -0.492477 3.22866 0
M  V30 8318 H 818.728 1.63944 3.27899 0
M  V30 8319 H 818.376 -0.112493 5.02874 0
M  V30 8320 H 818.076 1.51988 5.67603 0
M  V30 8321 H 819.6 0.674152 6.06867 0
M  V30 8322 H 821.014 2.70636 5.054 0
M  V30 8323 H 819.411 3.48012 4.88884 0
M  V30 8324 H 820.481 3.37776 3.47901 0
M  V30 8325 N 821.824 -1.22873 0.986916 0
M  V30 8326 C 822.754 -2.2688 0.552064 0
M  V30 8327 C 823.735 -1.64883 -0.418048 0
M  V30 8328 O 824.92 -1.9171 -0.30999 0
M  V30 8329 C 822.05 -3.47018 -0.139959 0
M  V30 8330 C 821.004 -4.21411 0.748091 0
M  V30 8331 C 820.33 -5.34645 -0.0765132 0
M  V30 8332 C 821.63 -4.80726 2.04206 0
M  V30 8333 H 823.324 -2.63507 1.42143 0
M  V30 8334 H 820.87 -1.26668 0.68492 0
M  V30 8335 H 822.823 -4.18931 -0.455527 0
M  V30 8336 H 821.547 -3.0947 -1.04382 0
M  V30 8337 H 820.206 -3.51325 1.04721 0
M  V30 8338 H 819.854 -4.93339 -0.981109 0
M  V30 8339 H 819.554 -5.85342 0.514606 0
M  V30 8340 H 821.078 -6.09377 -0.386313 0
M  V30 8341 H 822.492 -5.44612 1.79083 0
M  V30 8342 H 820.889 -5.41737 2.5815 0
M  V30 8343 H 821.959 -4.01109 2.72469 0
M  V30 8344 N 823.302 -0.75937 -1.38099 0
M  V30 8345 C 824.212 -0.13774 -2.34195 0
M  V30 8346 C 825.228 0.693985 -1.59561 0
M  V30 8347 O 826.404 0.616792 -1.91723 0
M  V30 8348 C 823.469 0.740535 -3.38699 0
M  V30 8349 C 822.53 -0.106225 -4.29169 0
M  V30 8350 C 821.763 0.730225 -5.28681 0
M  V30 8351 O 821.986 1.96796 -5.35376 0
M  V30 8352 O 820.92 0.145969 -6.01723 0
M  V30 8353 H 824.746 -0.931512 -2.89061 0
M  V30 8354 H 822.331 -0.520345 -1.40046 0
M  V30 8355 H 824.213 1.24232 -4.02672 0
M  V30 8356 H 822.888 1.51271 -2.8618 0
M  V30 8357 H 821.795 -0.654088 -3.68337 0
M  V30 8358 H 823.128 -0.841186 -4.84959 0
M  V30 8359 N 824.78 1.49157 -0.508906 0
M  V30 8360 C 826.028 2.02073 0.0327335 0
M  V30 8361 C 826.349 1.39012 1.3675 0
M  V30 8362 O 825.619 0.548153 1.88075 0
M  V30 8363 H 824.199 0.746848 0.0150864 0
M  V30 8364 H 826.861 1.83097 -0.667946 0
M  V30 8365 H 825.957 3.11707 0.1566 0
M  V30 8366 N 826.258 0.243083 1.55714 0
M  V30 8367 C 827.488 -0.38641 2.02954 0
M  V30 8368 C 827.896 -1.52358 1.12177 0
M  V30 8369 O 827.239 -1.83255 0.127853 0
M  V30 8370 C 827.301 -0.959388 3.46462 0
M  V30 8371 C 826.965 0.0450546 4.56978 0
M  V30 8372 C 827.962 0.853224 5.12851 0
M  V30 8373 C 825.647 0.170041 5.02012 0
M  V30 8374 C 827.641 1.77288 6.12248 0
M  V30 8375 C 825.328 1.0932 6.01242 0
M  V30 8376 C 826.326 1.89315 6.56238 0
M  V30 8377 O 826.014 2.80075 7.53534 0
M  V30 8378 H 825.746 -0.0964333 0.669086 0
M  V30 8379 H 828.3 0.363399 2.0216 0
M  V30 8380 H 826.53 -1.75869 3.44394 0
M  V30 8381 H 828.219 -1.49856 3.77224 0
M  V30 8382 H 828.985 0.767229 4.78893 0
M  V30 8383 H 824.864 -0.442528 4.58871 0
M  V30 8384 H 828.408 2.39768 6.55101 0
M  V30 8385 H 824.305 1.18013 6.3462 0
M  V30 8386 H 825.073 2.74393 7.71136 0
M  V30 8387 N 827.736 -1.57571 -0.0300757 0
M  V30 8388 C 828.964 -1.93485 -0.732891 0
M  V30 8389 C 829.379 -0.842758 -1.68947 0
M  V30 8390 O 828.736 0.180904 -1.81601 0
M  V30 8391 C 828.787 -3.29328 -1.49082 0
M  V30 8392 O 828.508 -4.34341 -0.572639 0
M  V30 8393 C 830.009 -3.79517 -2.29088 0
M  V30 8394 H 827.229 -0.638588 -0.206026 0
M  V30 8395 H 829.773 -2.04496 0.0120966 0
M  V30 8396 H 827.928 -3.19716 -2.1877 0
M  V30 8397 H 828.342 -5.12748 -1.10406 0
M  V30 8398 H 829.816 -4.77081 -2.77665 0
M  V30 8399 H 830.293 -3.10659 -3.10464 0
M  V30 8400 H 830.899 -3.92208 -1.64477 0
M  V30 8401 N 829.214 0.302327 -1.54673 0
M  V30 8402 C 830.439 1.06103 -1.78205 0
M  V30 8403 C 830.864 1.80204 -0.53926 0
M  V30 8404 O 830.222 1.73975 0.510142 0
M  V30 8405 C 830.27 2.01829 -2.98827 0
M  V30 8406 O 829.374 3.10108 -2.71858 0
M  V30 8407 H 828.715 0.30487 -0.589873 0
M  V30 8408 H 831.245 0.340153 -2.01753 0
M  V30 8409 H 831.255 2.44319 -3.2676 0
M  V30 8410 H 829.93 1.473 -3.88942 0
M  V30 8411 H 828.507 2.72142 -2.54937 0
M  V30 8412 N 830.692 1.47107 0.565454 0
M  V30 8413 C 831.642 1.55384 1.66852 0
M  V30 8414 C 832.626 0.413369 1.55499 0
M  V30 8415 O 833.818 0.66281 1.64121 0
M  V30 8416 C 830.947 1.5634 3.05635 0
M  V30 8417 C 830.033 2.75742 3.22222 0
M  V30 8418 N 830.424 4.00515 3.08903 0
M  V30 8419 C 828.722 2.7233 3.53203 0
M  V30 8420 C 829.423 4.80435 3.27959 0
M  V30 8421 N 828.399 4.1261 3.53913 0
M  V30 8422 H 832.201 2.49635 1.55111 0
M  V30 8423 H 829.715 1.42986 0.769982 0
M  V30 8424 H 831.712 1.60359 3.84825 0
M  V30 8425 H 830.372 0.631785 3.18494 0
M  V30 8426 H 831.383 4.31501 2.86404 0
M  V30 8427 H 828.06 1.8827 3.7264 0
M  V30 8428 H 829.45 5.89334 3.22699 0
M  V30 8429 N 832.17 -0.811516 1.35101 0
M  V30 8430 C 833.4 -1.59749 1.31011 0
M  V30 8431 C 833.808 -1.88847 -0.115566 0
M  V30 8432 O 833.151 -1.48854 -1.07649 0
M  V30 8433 C 833.213 -2.95714 2.04435 0
M  V30 8434 C 832.877 -2.89456 3.53645 0
M  V30 8435 C 833.874 -2.63237 4.48333 0
M  V30 8436 C 831.559 -3.08728 3.96222 0
M  V30 8437 C 833.553 -2.56361 5.83573 0
M  V30 8438 C 831.24 -3.01475 5.3156 0
M  V30 8439 C 832.238 -2.75326 6.25048 0
M  V30 8440 O 831.926 -2.68026 7.57903 0
M  V30 8441 H 831.658 -0.502889 0.45175 0
M  V30 8442 H 834.212 -1.01687 1.78462 0
M  V30 8443 H 832.442 -3.55739 1.51613 0
M  V30 8444 H 834.131 -3.56816 1.93487 0
M  V30 8445 H 834.897 -2.48072 4.16756 0
M  V30 8446 H 830.776 -3.28094 3.23845 0
M  V30 8447 H 834.32 -2.35871 6.56514 0
M  V30 8448 H 830.217 -3.16197 5.62752 0
M  V30 8449 H 830.985 -2.8367 7.67772 0
M  V30 8450 N 833.648 -1.19017 -1.03309 0
M  V30 8451 C 835.059 -0.993206 -1.5809 0
M  V30 8452 C 835.41 0.45505 -1.9085 0
M  V30 8453 O 834.535 1.33372 -1.70414 0
M  V30 8454 C 835.13 -1.79661 -2.87241 0
M  V30 8455 C 833.689 -1.64377 -3.38611 0
M  V30 8456 C 832.836 -1.78628 -2.12102 0
M  V30 8457 H 835.787 -1.3345 -0.858879 0
M  V30 8458 H 835.808 -1.29019 -3.57958 0
M  V30 8459 H 835.32 -2.85061 -2.63366 0
M  V30 8460 H 833.421 -0.615447 -3.67482 0
M  V30 8461 H 833.534 -2.44651 -4.11926 0
M  V30 8462 H 831.898 -1.21648 -2.23772 0
M  V30 8463 H 832.681 -2.8548 -1.90673 0
M  V30 8464 N 835.127 1.22348 -0.993418 0
M  V30 8465 C 836.077 2.221 -0.515333 0
M  V30 8466 C 837.061 1.55409 0.416762 0
M  V30 8467 O 838.253 1.75317 0.243497 0
M  V30 8468 C 835.382 3.42888 0.168173 0
M  V30 8469 C 834.468 4.16786 -0.784257 0
M  V30 8470 N 834.859 4.67435 -1.93231 0
M  V30 8471 C 833.157 4.41942 -0.600243 0
M  V30 8472 C 833.858 5.23792 -2.53016 0
M  V30 8473 N 832.834 5.12483 -1.8128 0
M  V30 8474 H 836.636 2.58902 -1.39093 0
M  V30 8475 H 834.15 1.38024 -0.855747 0
M  V30 8476 H 836.147 4.13542 0.528069 0
M  V30 8477 H 834.807 3.07598 1.03989 0
M  V30 8478 H 835.818 4.63375 -2.31309 0
M  V30 8479 H 832.495 4.16891 0.225369 0
M  V30 8480 H 833.885 5.73515 -3.50043 0
M  V30 8481 N 836.605 0.766683 1.37694 0
M  V30 8482 C 837.833 0.339939 2.04088 0
M  V30 8483 C 838.248 -1.03617 1.57826 0
M  V30 8484 O 837.605 -1.6605 0.757214 0
M  V30 8485 C 837.656 0.368269 3.59619 0
M  V30 8486 O 837.377 1.69009 4.04188 0
M  V30 8487 C 838.878 -0.0707053 4.43244 0
M  V30 8488 H 836.098 0.143189 0.655544 0
M  V30 8489 H 838.642 1.03919 1.76128 0
M  V30 8490 H 836.797 -0.282359 3.8637 0
M  V30 8491 H 837.211 1.62523 4.98685 0
M  V30 8492 H 838.685 0.000273538 5.52 0
M  V30 8493 H 839.162 -1.1204 4.24669 0
M  V30 8494 H 839.768 0.551543 4.21709 0
M  V30 8495 N 838.083 -1.48885 0.516809 0
M  V30 8496 C 839.03 -2.29408 -0.253125 0
M  V30 8497 C 840 -1.36533 -0.945935 0
M  V30 8498 O 841.185 -1.65495 -0.949527 0
M  V30 8499 C 838.325 -3.19592 -1.30211 0
M  V30 8500 C 837.438 -4.27535 -0.61948 0
M  V30 8501 C 836.573 -5.04916 -1.65026 0
M  V30 8502 C 835.612 -6.04677 -0.950368 0
M  V30 8503 N 834.749 -6.75164 -1.92608 0
M  V30 8504 H 839.589 -2.94738 0.439744 0
M  V30 8505 H 837.126 -1.45311 0.2287 0
M  V30 8506 H 839.084 -3.70267 -1.92245 0
M  V30 8507 H 837.714 -2.56213 -1.96353 0
M  V30 8508 H 836.766 -3.80228 0.114505 0
M  V30 8509 H 838.078 -4.98752 -0.0693016 0
M  V30 8510 H 837.232 -5.59539 -2.34523 0
M  V30 8511 H 835.971 -4.33508 -2.23432 0
M  V30 8512 H 834.976 -5.4927 -0.241252 0
M  V30 8513 H 836.201 -6.78077 -0.372599 0
M  V30 8514 H 834.147 -6.06517 -2.49946 0
M  V30 8515 H 834.064 -7.4241 -1.42699 0
M  V30 8516 H 835.332 -7.34384 -2.61345 0
M  V30 8517 N 839.561 -0.251338 -1.55583 0
M  V30 8518 C 840.471 0.656978 -2.25213 0
M  V30 8519 C 841.487 1.18966 -1.26977 0
M  V30 8520 O 842.663 1.22499 -1.59862 0
M  V30 8521 C 839.728 1.83527 -2.94141 0
M  V30 8522 C 838.789 1.34162 -4.07798 0
M  V30 8523 C 838.022 2.46375 -4.73429 0
M  V30 8524 O 838.245 3.65205 -4.38157 0
M  V30 8525 O 837.179 2.15881 -5.61853 0
M  V30 8526 H 841.005 0.0936395 -3.03556 0
M  V30 8527 H 838.59 -0.0196638 -1.49387 0
M  V30 8528 H 840.472 2.52279 -3.3754 0
M  V30 8529 H 839.147 2.38614 -2.18735 0
M  V30 8530 H 838.054 0.621249 -3.68906 0
M  V30 8531 H 839.387 0.836779 -4.85035 0
M  V30 8532 N 841.039 1.57585 0.0217189 0
M  V30 8533 C 842.264 1.94267 0.726309 0
M  V30 8534 C 842.689 0.851904 1.67703 0
M  V30 8535 O 842.047 -0.191792 1.80283 0
M  V30 8536 C 842.095 3.30023 1.45318 0
M  V30 8537 O 841.199 3.22791 2.5667 0
M  V30 8538 H 840.54 0.634777 0.194818 0
M  V30 8539 H 843.07 2.04585 -0.0249985 0
M  V30 8540 H 843.08 3.65084 1.82147 0
M  V30 8541 H 841.755 4.08972 0.755962 0
M  V30 8542 H 840.332 2.99373 2.2233 0
M  V30 8543 N 842.517 -0.29412 1.54831 0
M  V30 8544 C 843.933 -0.640167 1.46199 0
M  V30 8545 C 844.133 -1.90426 0.658798 0
M  V30 8546 O 843.189 -2.51932 0.169228 0
M  V30 8547 C 844.502 -0.786763 2.90225 0
M  V30 8548 C 846.05 -0.882201 3.0031 0
M  V30 8549 C 846.525 -1.06074 4.45547 0
M  V30 8550 N 848.016 -1.12678 4.49286 0
M  V30 8551 C 848.751 -1.28334 5.58854 0
M  V30 8552 N 848.247 -1.40845 6.78332 0
M  V30 8553 N 850.04 -1.31277 5.46555 0
M  V30 8554 H 842.191 0.536334 2.05517 0
M  V30 8555 H 844.454 0.178363 0.93107 0
M  V30 8556 H 844.16 0.0713018 3.51628 0
M  V30 8557 H 844.034 -1.67364 3.38037 0
M  V30 8558 H 846.421 -1.73075 2.39017 0
M  V30 8559 H 846.502 0.0288405 2.55784 0
M  V30 8560 H 846.146 -0.216935 5.07437 0
M  V30 8561 H 846.076 -1.98611 4.8771 0
M  V30 8562 H 848.567 -1.04335 3.63212 0
M  V30 8563 H 848.88 -1.52566 7.57591 0
M  V30 8564 H 847.225 -1.37888 6.81184 0
M  V30 8565 H 850.416 -1.2112 4.52159 0
M  V30 8566 H 850.589 -1.43136 6.31994 0
M  V30 8567 N 843.995 -1.47404 -0.557645 0
M  V30 8568 C 845.223 -1.57622 -1.34026 0
M  V30 8569 C 845.638 -0.226256 -1.87439 0
M  V30 8570 O 844.995 0.78043 -1.64971 0
M  V30 8571 C 845.046 -2.60111 -2.51047 0
M  V30 8572 O 844.767 -3.89866 -1.99841 0
M  V30 8573 C 846.268 -2.80508 -3.43264 0
M  V30 8574 H 843.488 -0.532271 -0.40857 0
M  V30 8575 H 846.032 -1.93019 -0.675555 0
M  V30 8576 H 844.187 -2.27648 -3.13457 0
M  V30 8577 H 844.601 -4.45864 -2.76234 0
M  V30 8578 H 846.075 -3.56084 -4.21792 0
M  V30 8579 H 846.552 -1.88314 -3.9678 0
M  V30 8580 H 847.158 -3.14166 -2.86671 0
M  V30 8581 N 845.473 0.80434 -1.35529 0
M  V30 8582 C 846.72 1.56154 -1.28927 0
M  V30 8583 C 847.048 1.94026 0.135682 0
M  V30 8584 O 846.303 1.61759 1.10148 0
M  V30 8585 C 846.602 2.85988 -2.14349 0
M  V30 8586 C 846.268 2.67323 -3.6311 0
M  V30 8587 C 844.93 2.61941 -4.03659 0
M  V30 8588 C 847.282 2.49699 -4.57493 0
M  V30 8589 C 844.61 2.3688 -5.36754 0
M  V30 8590 C 846.962 2.26168 -5.90788 0
M  V30 8591 C 845.626 2.19209 -6.30479 0
M  V30 8592 H 844.896 0.571407 -0.471779 0
M  V30 8593 H 847.543 0.929193 -1.67446 0
M  V30 8594 H 845.848 3.53612 -1.68718 0
M  V30 8595 H 847.545 3.43697 -2.06576 0
M  V30 8596 H 844.135 2.72361 -3.30934 0
M  V30 8597 H 848.319 2.52869 -4.27049 0
M  V30 8598 H 843.575 2.29964 -5.66504 0
M  V30 8599 H 847.749 2.11522 -6.63499 0
M  V30 8600 H 845.376 1.99553 -7.33541 0
M  V30 8601 N 846.951 1.19563 1.02676 0
M  V30 8602 C 848.2 0.993864 1.75514 0
M  V30 8603 C 848.513 -0.475882 1.89723 0
M  V30 8604 O 849.719 -0.796525 2.59553 0
M  V30 8605 C 848.175 1.72937 3.15628 0
M  V30 8606 C 847.783 3.23937 3.09466 0
M  V30 8607 C 849.527 1.61092 3.92746 0
M  V30 8608 C 847.434 3.90067 4.44524 0
M  V30 8609 H 846.364 0.368244 0.657961 0
M  V30 8610 H 849.015 1.43081 1.14891 0
M  V30 8611 H 847.397 1.22025 3.76731 0
M  V30 8612 H 848.571 3.81983 2.57731 0
M  V30 8613 H 846.886 3.3608 2.45843 0
M  V30 8614 H 849.483 2.07848 4.92649 0
M  V30 8615 H 849.826 0.565415 4.12442 0
M  V30 8616 H 850.359 2.09361 3.3825 0
M  V30 8617 H 847.098 4.94725 4.30032 0
M  V30 8618 H 846.618 3.36809 4.96306 0
M  V30 8619 H 848.297 3.93736 5.13401 0
M  V30 8620 N 848.429 -1.21819 0.999893 0
M  V30 8621 C 849.84 -1.72517 0.713775 0
M  V30 8622 C 850.191 -1.80505 -0.768922 0
M  V30 8623 O 849.316 -1.45611 -1.60083 0
M  V30 8624 C 849.911 -3.13321 1.28901 0
M  V30 8625 C 848.47 -3.61396 1.05212 0
M  V30 8626 C 847.617 -2.39074 1.40494 0
M  V30 8627 H 850.568 -1.07068 1.17141 0
M  V30 8628 H 850.589 -3.74535 0.671084 0
M  V30 8629 H 850.101 -3.07475 2.36814 0
M  V30 8630 H 848.202 -3.72599 -0.0100732 0
M  V30 8631 H 848.315 -4.47145 1.72042 0
M  V30 8632 H 846.679 -2.41015 0.823642 0
M  V30 8633 H 847.462 -2.35884 2.49427 0
M  V30 8634 N 849.908 -0.773975 -1.37286 0
M  V30 8635 C 851.154 -0.339809 -1.99933 0
M  V30 8636 C 851.487 1.0815 -1.61299 0
M  V30 8637 O 850.762 1.74442 -0.860252 0
M  V30 8638 C 851.045 -0.485919 -3.56806 0
M  V30 8639 C 850.898 -1.9498 -4.05343 0
M  V30 8640 C 852.217 0.108461 -4.39966 0
M  V30 8641 H 849.336 -0.124944 -0.726332 0
M  V30 8642 H 851.978 -0.977433 -1.6293 0
M  V30 8643 H 850.128 0.0569023 -3.88458 0
M  V30 8644 H 851.8 -2.5525 -3.84246 0
M  V30 8645 H 850.043 -2.45784 -3.57453 0
M  V30 8646 H 850.714 -2.00308 -5.14374 0
M  V30 8647 H 853.19 -0.354722 -4.14585 0
M  V30 8648 H 852.066 -0.0238926 -5.48895 0
M  V30 8649 H 852.327 1.19901 -4.25531 0
M  V30 8650 N 851.386 1.48609 -0.524698 0
M  V30 8651 C 852.614 2.06899 0.00742946 0
M  V30 8652 C 853.029 1.38196 1.28637 0
M  V30 8653 O 852.386 0.467771 1.76403 0
M  V30 8654 C 852.437 3.60699 0.240548 0
M  V30 8655 O 852.158 4.26821 -0.987715 0
M  V30 8656 C 853.659 4.35769 0.813652 0
M  V30 8657 H 850.879 0.670278 -0.0311294 0
M  V30 8658 H 853.423 1.91071 -0.728832 0
M  V30 8659 H 851.578 3.76149 0.926845 0
M  V30 8660 H 851.992 5.18889 -0.765175 0
M  V30 8661 H 853.466 5.44174 0.926219 0
M  V30 8662 H 853.943 3.9984 1.81728 0
M  V30 8663 H 854.549 4.24983 0.164086 0
M  V30 8664 N 852.864 0.259585 1.55447 0
M  V30 8665 C 854.089 -0.368317 2.04103 0
M  V30 8666 C 854.514 -1.49827 1.13725 0
M  V30 8667 O 853.872 -1.80814 0.132705 0
M  V30 8668 C 853.92 -0.841506 3.50644 0
M  V30 8669 O 853.024 -1.95008 3.63381 0
M  V30 8670 H 852.365 -0.0785227 0.659341 0
M  V30 8671 H 854.895 0.389349 2.00861 0
M  V30 8672 H 854.905 -1.14138 3.9171 0
M  V30 8673 H 853.58 -0.0147001 4.15897 0
M  V30 8674 H 852.157 -1.65393 3.34215 0
M  V30 8675 N 854.342 -1.57594 -0.0133615 0
M  V30 8676 C 855.305 -2.06534 -0.993799 0
M  V30 8677 C 856.305 -0.972267 -1.28077 0
M  V30 8678 O 857.495 -1.23537 -1.22818 0
M  V30 8679 C 854.627 -2.49554 -2.3224 0
M  V30 8680 H 855.82 -2.94419 -0.570741 0
M  V30 8681 H 853.373 -1.54113 -0.260546 0
M  V30 8682 H 854.108 -1.64872 -2.79263 0
M  V30 8683 H 853.893 -3.29371 -2.12737 0
M  V30 8684 H 855.383 -2.8779 -3.026 0
M  V30 8685 N 855.82 0.285905 -1.54985 0
M  V30 8686 C 856.767 1.35306 -1.86978 0
M  V30 8687 C 857.737 1.49682 -0.720046 0
M  V30 8688 O 858.922 1.64297 -0.970107 0
M  V30 8689 C 856.062 2.71059 -2.13591 0
M  V30 8690 C 855.175 2.6501 -3.41165 0
M  V30 8691 C 854.31 3.92856 -3.57544 0
M  V30 8692 C 853.349 3.81266 -4.78855 0
M  V30 8693 N 852.486 5.00919 -4.9196 0
M  V30 8694 H 857.326 1.07323 -2.78003 0
M  V30 8695 H 854.863 0.518776 -1.37649 0
M  V30 8696 H 856.821 3.50026 -2.27019 0
M  V30 8697 H 855.451 2.97271 -1.25816 0
M  V30 8698 H 854.503 1.77824 -3.36278 0
M  V30 8699 H 855.815 2.52342 -4.30262 0
M  V30 8700 H 854.969 4.80263 -3.70718 0
M  V30 8701 H 853.708 4.08377 -2.66608 0
M  V30 8702 H 852.713 2.92243 -4.65698 0
M  V30 8703 H 853.938 3.67277 -5.71213 0
M  V30 8704 H 851.884 5.16875 -4.03951 0
M  V30 8705 H 851.801 4.90732 -5.75081 0
M  V30 8706 H 853.069 5.89935 -5.09507 0
M  V30 8707 N 857.298 1.47698 0.54982 0
M  V30 8708 C 858.526 1.5833 1.33188 0
M  V30 8709 C 858.941 0.236193 1.87317 0
M  V30 8710 O 858.298 -0.77167 1.65383 0
M  V30 8711 C 858.349 2.61438 2.49664 0
M  V30 8712 O 858.07 3.9092 1.97771 0
M  V30 8713 C 859.571 2.82324 3.41772 0
M  V30 8714 H 856.791 0.53443 0.405741 0
M  V30 8715 H 859.335 1.93375 0.665309 0
M  V30 8716 H 857.49 2.29307 3.12245 0
M  V30 8717 H 857.904 4.47323 2.73866 0
M  V30 8718 H 859.378 3.58316 4.19897 0
M  V30 8719 H 859.855 1.90416 3.95776 0
M  V30 8720 H 860.461 3.15682 2.85 0
M  V30 8721 N 858.776 -0.797141 1.35954 0
M  V30 8722 C 860.024 -1.55161 1.29497 0
M  V30 8723 C 860.345 -1.94582 -0.127659 0
M  V30 8724 O 859.615 -1.64343 -1.06622 0
M  V30 8725 H 858.195 -0.575413 0.47635 0
M  V30 8726 H 860.857 -0.950282 1.70164 0
M  V30 8727 H 859.953 -2.46272 1.9172 0
M  V30 8728 N 860.254 -1.20106 -1.0204 0
M  V30 8729 C 861.479 -1.0351 -1.79723 0
M  V30 8730 C 861.904 0.411328 -1.83548 0
M  V30 8731 O 861.262 1.29608 -1.26773 0
M  V30 8732 C 861.31 -1.61876 -3.22224 0
M  V30 8733 O 860.414 -0.853813 -4.03465 0
M  V30 8734 H 859.755 -0.365299 -0.554484 0
M  V30 8735 H 862.285 -1.59316 -1.28373 0
M  V30 8736 H 862.295 -1.65451 -3.72948 0
M  V30 8737 H 860.97 -2.67148 -3.18755 0
M  V30 8738 H 859.547 -0.891983 -3.62075 0
M  V30 8739 N 861.732 1.21287 -1.00634 0
M  V30 8740 C 862.979 1.90389 -0.6898 0
M  V30 8741 C 863.307 1.78193 0.779574 0
M  V30 8742 O 862.562 1.15358 1.58085 0
M  V30 8743 C 862.861 3.41374 -1.05824 0
M  V30 8744 C 862.527 3.73766 -2.5221 0
M  V30 8745 C 861.189 3.82317 -2.92211 0
M  V30 8746 C 863.541 3.88871 -3.47028 0
M  V30 8747 C 860.869 4.03423 -4.2599 0
M  V30 8748 C 863.221 4.11484 -4.80483 0
M  V30 8749 C 861.885 4.18263 -5.20204 0
M  V30 8750 H 861.155 0.696683 -0.252416 0
M  V30 8751 H 863.802 1.43769 -1.26502 0
M  V30 8752 H 862.107 3.8974 -0.401281 0
M  V30 8753 H 863.804 3.93118 -0.79116 0
M  V30 8754 H 860.394 3.67702 -2.20212 0
M  V30 8755 H 864.578 3.8163 -3.17289 0
M  V30 8756 H 859.834 4.06902 -4.56334 0
M  V30 8757 H 864.008 4.22115 -5.53888 0
M  V30 8758 H 861.635 4.34369 -6.23881 0
M  V30 8759 N 863.21 0.781244 1.36873 0
M  V30 8760 C 864.458 0.349198 1.9906 0
M  V30 8761 C 864.779 -1.0806 1.62321 0
M  V30 8762 O 864.049 -1.74351 0.893229 0
M  V30 8763 H 862.629 0.126126 0.736275 0
M  V30 8764 H 865.291 1.00148 1.67202 0
M  V30 8765 H 864.387 0.434451 3.09061 0
M  V30 8766 N 864.689 -1.48329 0.532571 0
M  V30 8767 C 865.935 -2.028 -0.000583219 0
M  V30 8768 C 866.268 -1.40858 -1.33688 0
M  V30 8769 O 865.543 -0.555261 -1.86406 0
M  V30 8770 C 865.826 -3.59901 -0.119846 0
M  V30 8771 C 865.679 -4.32318 1.2418 0
M  V30 8772 C 866.998 -4.31904 -0.845372 0
M  V30 8773 H 864.117 -0.736999 0.00126205 0
M  V30 8774 H 866.759 -1.77024 0.690102 0
M  V30 8775 H 864.909 -3.81993 -0.708092 0
M  V30 8776 H 866.581 -4.21637 1.87136 0
M  V30 8777 H 864.824 -3.93635 1.82301 0
M  V30 8778 H 865.495 -5.40697 1.11132 0
M  V30 8779 H 867.971 -4.14658 -0.346159 0
M  V30 8780 H 866.847 -5.41509 -0.897723 0
M  V30 8781 H 867.108 -3.99369 -1.89622 0
M  V30 8782 N 866.167 -0.267825 -1.55308 0
M  V30 8783 C 867.395 0.354587 -2.03839 0
M  V30 8784 C 867.81 1.50007 -1.14644 0
M  V30 8785 O 867.167 1.81752 -0.165055 0
M  V30 8786 C 867.218 0.84254 -3.51544 0
M  V30 8787 O 866.939 -0.257318 -4.37344 0
M  V30 8788 C 868.44 1.53351 -4.15931 0
M  V30 8789 H 865.66 0.0818131 -0.665994 0
M  V30 8790 H 868.204 -0.397795 -2.00594 0
M  V30 8791 H 866.359 1.54503 -3.55257 0
M  V30 8792 H 866.773 0.116593 -5.2437 0
M  V30 8793 H 868.247 1.82643 -5.20908 0
M  V30 8794 H 868.724 2.4626 -3.63666 0
M  V30 8795 H 869.33 0.87506 -4.162 0
M  V30 8796 N 867.645 1.57599 0.00500368 0
M  V30 8797 C 868.608 2.07058 0.982832 0
M  V30 8798 C 869.608 0.979045 1.27559 0
M  V30 8799 O 870.798 1.24187 1.22161 0
M  V30 8800 C 867.93 2.50782 2.30914 0
M  V30 8801 H 869.123 2.94718 0.555119 0
M  V30 8802 H 866.676 1.54249 0.25237 0
M  V30 8803 H 867.411 1.66351 2.78385 0
M  V30 8804 H 867.196 3.30495 2.10987 0
M  V30 8805 H 868.686 2.89391 3.0107 0
M  V30 8806 N 869.123 -0.277682 1.55134 0
M  V30 8807 C 870.369 -1.0114 1.7578 0
M  V30 8808 C 870.702 -1.86109 0.554719 0
M  V30 8809 O 869.977 -1.89275 -0.447813 0
M  V30 8810 C 870.26 -1.89789 3.06027 0
M  V30 8811 C 870.113 -1.07844 4.3668 0
M  V30 8812 C 871.432 -2.88577 3.32282 0
M  V30 8813 H 868.551 -0.366277 0.639539 0
M  V30 8814 H 871.193 -0.284155 1.87863 0
M  V30 8815 H 869.343 -2.51796 2.95856 0
M  V30 8816 H 871.015 -0.479432 4.58802 0
M  V30 8817 H 869.258 -0.381764 4.32117 0
M  V30 8818 H 869.929 -1.73179 5.24131 0
M  V30 8819 H 872.405 -2.36702 3.42215 0
M  V30 8820 H 871.281 -3.47749 4.2469 0
M  V30 8821 H 871.542 -3.63458 2.51696 0
M  V30 8822 N 870.601 -1.47988 -0.541979 0
M  V30 8823 C 871.829 -1.59034 -1.32347 0
M  V30 8824 C 872.244 -0.246123 -1.87189 0
M  V30 8825 O 871.601 0.762889 -1.6579 0
M  V30 8826 C 871.652 -2.62759 -2.48274 0
M  V30 8827 O 871.373 -3.91963 -1.95695 0
M  V30 8828 C 872.874 -2.84133 -3.4027 0
M  V30 8829 H 870.094 -0.536574 -0.402901 0
M  V30 8830 H 872.638 -1.93725 -0.655045 0
M  V30 8831 H 870.793 -2.3096 -3.11025 0
M  V30 8832 H 871.207 -4.48769 -2.7149 0
M  V30 8833 H 872.681 -3.60538 -4.17991 0
M  V30 8834 H 873.158 -1.92512 -3.9476 0
M  V30 8835 H 873.764 -3.17188 -2.83322 0
M  V30 8836 N 872.079 0.78992 -1.36375 0
M  V30 8837 C 873.325 1.55007 -1.3077 0
M  V30 8838 C 873.658 1.93871 0.112979 0
M  V30 8839 O 872.933 1.6267 1.06625 0
M  V30 8840 C 873.216 2.82748 -2.22993 0
M  V30 8841 C 873.069 2.50253 -3.73756 0
M  V30 8842 C 874.388 3.84569 -2.13998 0
M  V30 8843 H 871.507 0.562362 -0.476359 0
M  V30 8844 H 874.149 0.907582 -1.66922 0
M  V30 8845 H 872.299 3.37573 -1.92292 0
M  V30 8846 H 873.971 2.01482 -4.14973 0
M  V30 8847 H 872.214 1.83203 -3.93216 0
M  V30 8848 H 872.885 3.41487 -4.33694 0
M  V30 8849 H 875.361 3.39188 -2.4102 0
M  V30 8850 H 874.237 4.717 -2.80697 0
M  V30 8851 H 874.498 4.27491 -1.12711 0
M  V30 8852 N 873.557 1.20646 1.01402 0
M  V30 8853 C 874.805 1.01618 1.74695 0
M  V30 8854 C 875.126 -0.452438 1.89679 0
M  V30 8855 O 874.396 -1.32693 1.44116 0
M  V30 8856 H 872.976 0.373013 0.647202 0
M  V30 8857 H 875.638 1.518 1.22241 0
M  V30 8858 H 874.734 1.47666 2.74957 0
M  V30 8859 N 875.035 -1.20752 1.01276 0
M  V30 8860 C 876.312 -1.85676 0.615112 0
M  V30 8861 C 876.692 -1.90623 -0.906976 0
M  V30 8862 O 876.04 -1.41124 -1.79712 0
M  V30 8863 C 876.25 -3.2552 1.25847 0
M  V30 8864 C 877.598 -4.0184 1.37148 0
M  V30 8865 O 878.622 -3.3486 1.21438 0
M  V30 8866 O 877.481 -5.21783 1.62495 0
M  V30 8867 H 874.575 -0.799437 0.211729 0
M  V30 8868 H 877.121 -1.28372 1.10989 0
M  V30 8869 H 875.893 -3.16664 2.29869 0
M  V30 8870 H 875.516 -3.90452 0.750524 0
M  V30 8871 N 876.513 -0.788492 -1.36457 0
M  V30 8872 C 877.738 -0.371224 -2.04051 0
M  V30 8873 C 878.163 1.004 -1.59064 0
M  V30 8874 O 877.521 1.64663 -0.758679 0
M  V30 8875 C 877.569 -0.442275 -3.57877 0
M  V30 8876 O 876.673 0.55113 -4.08701 0
M  V30 8877 H 876.014 -0.157808 -0.644975 0
M  V30 8878 H 878.544 -1.06935 -1.74431 0
M  V30 8879 H 878.554 -0.305548 -4.06854 0
M  V30 8880 H 877.229 -1.44547 -3.89973 0
M  V30 8881 H 875.806 0.37614 -3.70998 0
M  V30 8882 N 877.991 1.48044 -0.54043 0
M  V30 8883 C 878.939 2.31461 0.229862 0
M  V30 8884 C 879.933 1.41884 0.925495 0
M  V30 8885 O 881.139 1.58736 0.848689 0
M  V30 8886 H 877.514 0.746227 0.0929975 0
M  V30 8887 H 879.485 2.94297 -0.493118 0
M  V30 8888 C 878.234 3.24172 1.25729 0
M  V30 8889 H 877.557 3.93052 0.731426 0
M  V30 8890 H 878.997 3.85404 1.76747 0
M  V30 8891 C 877.456 2.4651 2.2964 0
M  V30 8892 O 877.986 2.19742 3.36268 0
M  V30 8893 N 876.192 2.07817 2.03127 0
M  V30 8894 H 875.739 2.29786 1.1643 0
M  V30 8895 H 875.697 1.56168 2.72872 0
M  V30 8896 N 879.47 0.276058 1.55163 0
M  V30 8897 C 880.695 -0.346648 2.04483 0
M  V30 8898 C 881.12 -1.48613 1.15308 0
M  V30 8899 O 880.478 -1.80663 0.151875 0
M  V30 8900 C 880.526 -0.804268 3.51517 0
M  V30 8901 O 879.63 -1.91143 3.65429 0
M  V30 8902 H 878.971 -0.0715251 0.660136 0
M  V30 8903 H 881.501 0.410631 2.00437 0
M  V30 8904 H 881.511 -1.09977 3.92898 0
M  V30 8905 H 880.186 0.0294123 4.1589 0
M  V30 8906 H 878.763 -1.61839 3.3595 0
M  V30 8907 N 880.948 -1.576 0.00335426 0
M  V30 8908 C 881.896 -2.09759 -1.00517 0
M  V30 8909 C 882.89 -1.01833 -1.35375 0
M  V30 8910 O 884.096 -1.20294 -1.339 0
M  V30 8911 H 880.471 -0.669821 -0.341825 0
M  V30 8912 H 882.442 -2.93478 -0.539718 0
M  V30 8913 C 881.191 -2.6189 -2.28711 0
M  V30 8914 H 880.514 -3.44571 -2.02758 0
M  V30 8915 H 881.954 -3.02061 -2.97548 0
M  V30 8916 C 880.413 -1.53455 -2.99922 0
M  V30 8917 O 880.943 -0.919402 -3.91037 0
M  V30 8918 N 879.149 -1.2612 -2.61806 0
M  V30 8919 H 878.696 -1.76329 -1.87792 0
M  V30 8920 H 878.654 -0.537872 -3.09765 0
M  V30 8921 N 882.426 0.269451 -1.5528 0
M  V30 8922 C 883.672 1.00206 -1.76314 0
M  V30 8923 C 884.005 1.85812 -0.564581 0
M  V30 8924 O 883.28 1.89509 0.437769 0
M  V30 8925 C 883.563 1.88163 -3.07029 0
M  V30 8926 C 883.416 1.05527 -4.37246 0
M  V30 8927 C 884.735 2.8681 -3.33808 0
M  V30 8928 H 881.854 0.36288 -0.641473 0
M  V30 8929 H 884.496 0.274188 -1.88011 0
M  V30 8930 H 882.646 2.50224 -2.97187 0
M  V30 8931 H 884.318 0.455094 -4.5905 0
M  V30 8932 H 882.561 0.358842 -4.32313 0
M  V30 8933 H 883.232 1.70397 -5.25042 0
M  V30 8934 H 885.708 2.34884 -3.43466 0
M  V30 8935 H 884.584 3.45492 -4.26528 0
M  V30 8936 H 884.845 3.62118 -2.5362 0
M  V30 8937 N 883.904 1.48273 0.534124 0
M  V30 8938 C 884.852 1.62926 1.66005 0
M  V30 8939 C 885.846 0.495814 1.61982 0
M  V30 8940 O 887.052 0.6744 1.66889 0
M  V30 8941 H 883.427 0.513163 0.549698 0
M  V30 8942 H 885.398 2.57498 1.50789 0
M  V30 8943 C 884.147 1.68231 3.04292 0
M  V30 8944 H 883.47 2.54807 3.0808 0
M  V30 8945 H 884.91 1.82528 3.827 0
M  V30 8946 C 883.369 0.420154 3.3427 0
M  V30 8947 O 883.899 -0.468769 3.98955 0
M  V30 8948 N 882.105 0.293115 2.89118 0
M  V30 8949 H 881.652 1.01745 2.36655 0
M  V30 8950 H 881.61 -0.550376 3.09545 0
M  V30 8951 N 885.382 -0.782676 1.36792 0
M  V30 8952 C 886.798 -1.08169 1.17352 0
M  V30 8953 C 886.998 -2.015 0.0022037 0
M  V30 8954 O 886.054 -2.43692 -0.661093 0
M  V30 8955 C 887.367 -1.68969 2.48737 0
M  V30 8956 C 888.915 -1.81278 2.55161 0
M  V30 8957 C 889.39 -2.45492 3.86649 0
M  V30 8958 N 890.881 -2.52954 3.88032 0
M  V30 8959 C 891.616 -3.03465 4.86515 0
M  V30 8960 N 891.112 -3.54232 5.95392 0
M  V30 8961 N 892.905 -3.02239 4.73928 0
M  V30 8962 H 885.056 -0.162757 2.11775 0
M  V30 8963 H 887.319 -0.134823 0.938364 0
M  V30 8964 H 887.025 -1.07859 3.34753 0
M  V30 8965 H 886.899 -2.68397 2.65034 0
M  V30 8966 H 889.286 -2.41524 1.69559 0
M  V30 8967 H 889.367 -0.806367 2.42758 0
M  V30 8968 H 889.011 -1.85889 4.7266 0
M  V30 8969 H 888.941 -3.46718 3.96351 0
M  V30 8970 H 891.432 -2.17014 3.09376 0
M  V30 8971 H 891.745 -3.91145 6.66503 0
M  V30 8972 H 890.09 -3.52366 5.99052 0
M  V30 8973 H 893.281 -2.61871 3.87996 0
M  V30 8974 H 893.454 -3.41295 5.50837 0
M  V30 8975 N 886.86 -1.21182 -1.00761 0
M  V30 8976 C 888.085 -1.05411 -1.78615 0
M  V30 8977 C 888.51 0.391837 -1.83973 0
M  V30 8978 O 887.868 1.28256 -1.28141 0
M  V30 8979 C 887.916 -1.65285 -3.20489 0
M  V30 8980 O 887.02 -0.896558 -4.02536 0
M  V30 8981 H 886.361 -0.37116 -0.550578 0
M  V30 8982 H 888.891 -1.60669 -1.26676 0
M  V30 8983 H 888.901 -1.69397 -3.71172 0
M  V30 8984 H 887.576 -2.70514 -3.15904 0
M  V30 8985 H 886.153 -0.930335 -3.61108 0
M  V30 8986 N 888.338 1.20213 -1.01915 0
M  V30 8987 C 889.268 2.25336 -0.612023 0
M  V30 8988 C 890.249 1.65933 0.374186 0
M  V30 8989 O 891.434 1.92464 0.259053 0
M  V30 8990 C 888.564 3.47267 0.047904 0
M  V30 8991 C 887.518 4.1928 -0.859557 0
M  V30 8992 C 886.844 5.3466 -0.0652655 0
M  V30 8993 C 888.144 4.75143 -2.1688 0
M  V30 8994 H 889.838 2.59645 -1.49079 0
M  V30 8995 H 887.384 1.24808 -0.718263 0
M  V30 8996 H 889.337 4.19991 0.344294 0
M  V30 8997 H 888.061 3.12129 0.961404 0
M  V30 8998 H 886.72 3.48425 -1.13999 0
M  V30 8999 H 886.368 4.95767 0.849964 0
M  V30 9000 H 886.068 5.83772 -0.669618 0
M  V30 9001 H 887.592 6.10187 0.224612 0
M  V30 9002 H 889.006 5.39672 -1.9346 0
M  V30 9003 H 887.403 5.34702 -2.72422 0
M  V30 9004 H 888.473 3.93744 -2.83008 0
M  V30 9005 N 889.816 0.795718 1.36037 0
M  V30 9006 C 891.041 0.38204 2.03851 0
M  V30 9007 C 891.466 -0.995553 1.59594 0
M  V30 9008 O 890.824 -1.64258 0.767401 0
M  V30 9009 C 890.872 0.461248 3.57638 0
M  V30 9010 O 889.976 -0.529448 4.08987 0
M  V30 9011 H 889.317 0.161227 0.644129 0
M  V30 9012 H 891.847 1.07858 1.73861 0
M  V30 9013 H 891.857 0.32712 4.06687 0
M  V30 9014 H 890.532 1.46613 3.89201 0
M  V30 9015 H 889.109 -0.35646 3.71192 0
M  V30 9016 N 891.294 -1.47756 0.548274 0
M  V30 9017 C 892.542 -2.02089 0.0208542 0
M  V30 9018 C 892.863 -1.42589 -1.33017 0
M  V30 9019 O 892.133 -0.597825 -1.86555 0
M  V30 9020 H 890.713 -0.746985 0.00472023 0
M  V30 9021 H 893.375 -1.81262 0.716257 0
M  V30 9022 H 892.471 -3.12012 -0.0739016 0
M  V30 9023 N 892.772 -0.284283 -1.55015 0
M  V30 9024 C 894.049 0.382125 -1.91831 0
M  V30 9025 C 894.429 1.73007 -1.20962 0
M  V30 9026 O 893.777 2.25962 -0.339594 0
M  V30 9027 C 893.987 0.513341 -3.45204 0
M  V30 9028 C 895.335 0.791989 -4.17148 0
M  V30 9029 O 896.359 0.597799 -3.51148 0
M  V30 9030 O 895.218 1.16394 -5.33961 0
M  V30 9031 H 892.312 0.210707 -0.799707 0
M  V30 9032 H 894.858 -0.331111 -1.66438 0
M  V30 9033 H 893.63 -0.434911 -3.88876 0
M  V30 9034 H 893.253 1.27569 -3.76579 0
M  V30 9035 N 894.251 1.57596 -0.0117121 0
M  V30 9036 C 895.183 2.06025 1.0043 0
M  V30 9037 C 896.196 0.980348 1.29973 0
M  V30 9038 O 897.385 1.25691 1.26744 0
M  V30 9039 C 894.485 2.45514 2.33615 0
M  V30 9040 C 893.658 3.76378 2.22842 0
M  V30 9041 C 892.717 4.02606 3.38814 0
M  V30 9042 O 891.743 4.73108 3.16477 0
M  V30 9043 N 892.945 3.51416 4.62047 0
M  V30 9044 H 895.71 2.93811 0.591206 0
M  V30 9045 H 893.271 1.60947 0.175427 0
M  V30 9046 H 895.263 2.60166 3.09993 0
M  V30 9047 H 893.833 1.63186 2.66625 0
M  V30 9048 H 893.053 3.71691 1.313 0
M  V30 9049 H 894.341 4.62149 2.12829 0
M  V30 9050 H 893.739 2.94346 4.83091 0
M  V30 9051 H 892.296 3.71377 5.35651 0
M  V30 9052 N 895.729 -0.261212 1.5542 0
M  V30 9053 C 897.006 -1.01321 1.67312 0
M  V30 9054 C 897.386 -2.0388 0.547356 0
M  V30 9055 O 896.734 -2.24003 -0.451083 0
M  V30 9056 C 896.944 -1.65943 3.07024 0
M  V30 9057 C 898.292 -2.16666 3.65159 0
M  V30 9058 O 899.316 -1.75909 3.09733 0
M  V30 9059 O 898.175 -2.91455 4.62294 0
M  V30 9060 H 895.269 -0.470714 0.679968 0
M  V30 9061 H 897.815 -0.256133 1.67756 0
M  V30 9062 H 896.587 -0.916868 3.80407 0
M  V30 9063 H 896.21 -2.48308 3.1053 0
M  V30 9064 N 897.207 -1.48554 -0.526253 0
M  V30 9065 C 898.435 -1.60429 -1.30652 0
M  V30 9066 C 898.85 -0.265963 -1.86917 0
M  V30 9067 O 898.207 0.745262 -1.6659 0
M  V30 9068 C 898.258 -2.65377 -2.45473 0
M  V30 9069 O 897.979 -3.94017 -1.91527 0
M  V30 9070 C 899.48 -2.87726 -3.37237 0
M  V30 9071 H 896.7 -0.540817 -0.397187 0
M  V30 9072 H 899.244 -1.94409 -0.634461 0
M  V30 9073 H 897.399 -2.34246 -3.08557 0
M  V30 9074 H 897.813 -4.51623 -2.66715 0
M  V30 9075 H 899.287 -3.64951 -4.14144 0
M  V30 9076 H 899.764 -1.96688 -3.92696 0
M  V30 9077 H 900.37 -3.20176 -2.79942 0
M  V30 9078 N 898.685 0.775411 -1.37205 0
M  V30 9079 C 899.932 1.53384 -1.32211 0
M  V30 9080 C 900.26 1.9427 0.0944958 0
M  V30 9081 O 899.515 1.64059 1.06692 0
M  V30 9082 C 899.814 2.81377 -2.20367 0
M  V30 9083 C 899.48 2.59561 -3.68699 0
M  V30 9084 C 898.142 2.53319 -4.09124 0
M  V30 9085 C 900.494 2.39939 -4.62686 0
M  V30 9086 C 897.822 2.25442 -5.41658 0
M  V30 9087 C 900.174 2.13586 -5.95453 0
M  V30 9088 C 898.838 2.05786 -6.34987 0
M  V30 9089 H 898.108 0.561271 -0.483793 0
M  V30 9090 H 900.755 0.893466 -1.6938 0
M  V30 9091 H 899.06 3.49954 -1.76181 0
M  V30 9092 H 900.757 3.39238 -2.13819 0
M  V30 9093 H 897.347 2.6528 -3.36637 0
M  V30 9094 H 901.531 2.43753 -4.32317 0
M  V30 9095 H 896.787 2.17896 -5.71254 0
M  V30 9096 H 900.961 1.97401 -6.67837 0
M  V30 9097 H 898.588 1.83948 -7.37609 0
M  V30 9098 N 900.163 1.21714 1.00117 0
M  V30 9099 C 901.113 0.947259 2.07391 0
M  V30 9100 C 902.097 -0.0989662 1.60595 0
M  V30 9101 O 903.289 0.11047 1.76655 0
M  V30 9102 C 900.418 0.517954 3.3937 0
M  V30 9103 C 899.504 1.59846 3.92823 0
M  V30 9104 N 899.895 2.82438 4.19598 0
M  V30 9105 C 898.193 1.46822 4.2114 0
M  V30 9106 C 898.894 3.52247 4.62922 0
M  V30 9107 N 897.87 2.79696 4.66124 0
M  V30 9108 H 901.672 1.8786 2.26022 0
M  V30 9109 H 899.186 1.11344 1.18221 0
M  V30 9110 H 901.183 0.305951 4.15776 0
M  V30 9111 H 899.843 -0.40658 3.22144 0
M  V30 9112 H 900.854 3.18944 4.08038 0
M  V30 9113 H 897.531 0.609259 4.13031 0
M  V30 9114 H 898.921 4.57232 4.9233 0
M  V30 9115 N 901.641 -1.19671 1.02551 0
M  V30 9116 C 903.052 -1.70964 0.750208 0
M  V30 9117 C 903.403 -1.82095 -0.730461 0
M  V30 9118 O 902.528 -1.48974 -1.56958 0
M  V30 9119 C 903.123 -3.10516 1.35518 0
M  V30 9120 C 901.682 -3.59083 1.12854 0
M  V30 9121 C 900.829 -2.36041 1.45534 0
M  V30 9122 H 903.78 -1.04559 1.19386 0
M  V30 9123 H 903.801 -3.73028 0.750378 0
M  V30 9124 H 903.313 -3.02383 2.43282 0
M  V30 9125 H 901.414 -3.72536 0.0689627 0
M  V30 9126 H 901.527 -4.43395 1.81488 0
M  V30 9127 H 899.891 -2.39214 0.87458 0
M  V30 9128 H 900.674 -2.3054 2.54374 0
M  V30 9129 N 903.119 -0.802921 -1.35613 0
M  V30 9130 C 904.344 -0.392846 -2.03645 0
M  V30 9131 C 904.769 0.987075 -1.6012 0
M  V30 9132 O 904.127 1.63849 -0.776101 0
M  V30 9133 C 904.175 -0.480208 -3.57388 0
M  V30 9134 O 903.279 0.507751 -4.09262 0
M  V30 9135 H 902.62 -0.16464 -0.643265 0
M  V30 9136 H 905.15 -1.08779 -1.73287 0
M  V30 9137 H 905.16 -0.348683 -4.06507 0
M  V30 9138 H 903.835 -1.48675 -3.88418 0
M  V30 9139 H 902.412 0.336769 -3.71376 0
M  V30 9140 N 904.597 1.47463 -0.556102 0
M  V30 9141 C 905.845 2.02075 -0.0315712 0
M  V30 9142 C 906.166 1.43292 1.32259 0
M  V30 9143 O 905.436 0.60771 1.86236 0
M  V30 9144 H 904.016 0.74695 -0.0086816 0
M  V30 9145 H 906.678 1.80879 -0.725859 0
M  V30 9146 H 905.774 3.12047 0.0573538 0
M  V30 9147 N 906.075 0.2925 1.54862 0
M  V30 9148 C 907.323 -0.318633 1.99572 0
M  V30 9149 C 907.644 -1.55062 1.1824 0
M  V30 9150 O 906.914 -1.93943 0.276226 0
M  V30 9151 H 905.494 -0.120722 0.737181 0
M  V30 9152 H 908.156 0.401862 1.90712 0
M  V30 9153 H 907.252 -0.596542 3.06346 0
M  V30 9154 N 907.553 -1.57587 0.0200696 0
M  V30 9155 C 908.778 -1.96124 -0.674547 0
M  V30 9156 C 909.203 -0.896068 -1.65385 0
M  V30 9157 O 908.561 0.143925 -1.80728 0
M  V30 9158 C 908.609 -3.3376 -1.36517 0
M  V30 9159 O 907.713 -3.29483 -2.48022 0
M  V30 9160 H 907.054 -0.639719 -0.177919 0
M  V30 9161 H 909.584 -2.04447 0.0792317 0
M  V30 9162 H 909.594 -3.69785 -1.72403 0
M  V30 9163 H 908.269 -4.10832 -0.647265 0
M  V30 9164 H 906.846 -3.05162 -2.14314 0
M  V30 9165 N 909.032 0.252966 -1.55557 0
M  V30 9166 C 909.982 1.31585 -1.86197 0
M  V30 9167 C 910.966 1.43773 -0.722357 0
M  V30 9168 O 912.158 1.47117 -0.984152 0
M  V30 9169 C 909.287 2.67245 -2.15487 0
M  V30 9170 C 908.373 2.59087 -3.3576 0
M  V30 9171 N 908.764 2.20556 -4.5518 0
M  V30 9172 C 907.062 2.90112 -3.3875 0
M  V30 9173 C 907.763 2.22881 -5.37307 0
M  V30 9174 N 906.739 2.62145 -4.76215 0
M  V30 9175 H 910.541 1.00835 -2.76061 0
M  V30 9176 H 908.055 0.461598 -1.55702 0
M  V30 9177 H 910.052 3.43944 -2.35602 0
M  V30 9178 H 908.712 2.98867 -1.26919 0
M  V30 9179 H 909.723 1.922 -4.80915 0
M  V30 9180 H 906.4 3.26313 -2.60434 0
M  V30 9181 H 907.79 1.95482 -6.42835 0
M  V30 9182 N 910.51 1.48831 0.518367 0
M  V30 9183 C 911.738 1.6112 1.298 0
M  V30 9184 C 912.153 0.275872 1.86774 0
M  V30 9185 O 911.51 -0.736416 1.66983 0
M  V30 9186 C 911.561 2.66675 2.44063 0
M  V30 9187 O 911.282 3.95027 1.89434 0
M  V30 9188 C 912.783 2.8951 3.35706 0
M  V30 9189 H 910.003 0.542916 0.394314 0
M  V30 9190 H 912.547 1.94743 0.624142 0
M  V30 9191 H 910.702 2.35879 3.07311 0
M  V30 9192 H 911.116 4.53031 2.64316 0
M  V30 9193 H 912.59 3.67142 4.12202 0
M  V30 9194 H 913.067 1.98768 3.91648 0
M  V30 9195 H 913.673 3.21656 2.7824 0
M  V30 9196 N 911.988 -0.768124 1.37614 0
M  V30 9197 C 913.216 -1.55726 1.36224 0
M  V30 9198 C 913.631 -1.8873 -0.0515357 0
M  V30 9199 O 912.988 -1.51718 -1.0143 0
M  V30 9200 C 913.039 -2.86533 2.20412 0
M  V30 9201 O 912.76 -2.54942 3.56281 0
M  V30 9202 C 914.261 -3.80745 2.27041 0
M  V30 9203 H 911.481 -0.482325 0.46648 0
M  V30 9204 H 914.025 -0.95176 1.81002 0
M  V30 9205 H 912.18 -3.43496 1.79134 0
M  V30 9206 H 912.594 -3.38732 4.00451 0
M  V30 9207 H 914.068 -4.69523 2.90263 0
M  V30 9208 H 914.545 -4.20138 1.27987 0
M  V30 9209 H 915.151 -3.2971 2.68647 0
M  V30 9210 N 913.466 -1.22244 -0.994698 0
M  V30 9211 C 914.416 -0.958244 -2.06886 0
M  V30 9212 C 915.4 0.0904481 -1.60646 0
M  V30 9213 O 916.592 -0.119837 -1.76594 0
M  V30 9214 C 913.721 -0.535944 -3.39091 0
M  V30 9215 C 912.807 -1.61927 -3.9197 0
M  V30 9216 N 913.198 -2.84659 -4.18094 0
M  V30 9217 C 911.496 -1.49053 -4.20356 0
M  V30 9218 C 912.197 -3.54697 -4.61048 0
M  V30 9219 N 911.173 -2.82164 -4.64634 0
M  V30 9220 H 914.975 -1.89056 -2.25022 0
M  V30 9221 H 912.489 -1.1197 -1.17629 0
M  V30 9222 H 914.486 -0.327997 -4.15608 0
M  V30 9223 H 913.146 0.38949 -3.22355 0
M  V30 9224 H 914.157 -3.21104 -4.06341 0
M  V30 9225 H 910.834 -0.631154 -4.12702 0
M  V30 9226 H 912.224 -4.59837 -4.89898 0
M  V30 9227 N 914.944 1.19125 -1.03184 0
M  V30 9228 C 916.192 1.8851 -0.728587 0
M  V30 9229 C 916.513 1.80195 0.74531 0
M  V30 9230 O 915.783 1.21437 1.5372 0
M  V30 9231 H 914.363 0.69784 -0.266511 0
M  V30 9232 H 917.025 1.44607 -1.3067 0
M  V30 9233 H 916.121 2.9477 -1.02554 0
M  V30 9234 N 916.422 0.810101 1.35185 0
M  V30 9235 C 917.647 0.40364 2.03434 0
M  V30 9236 C 918.072 -0.97857 1.60641 0
M  V30 9237 O 917.43 -1.63435 0.784779 0
M  V30 9238 C 917.478 0.499154 3.57129 0
M  V30 9239 O 916.582 -0.486039 4.09526 0
M  V30 9240 H 915.923 0.168049 0.642383 0
M  V30 9241 H 918.453 1.09696 1.72708 0
M  V30 9242 H 918.463 0.370236 4.06317 0
M  V30 9243 H 917.138 1.50733 3.87624 0
M  V30 9244 H 915.715 -0.31707 3.7155 0
M  V30 9245 N 917.9 -1.47166 0.563914 0
M  V30 9246 C 918.81 -2.33885 -0.182977 0
M  V30 9247 C 919.826 -1.48605 -0.905132 0
M  V30 9248 O 921.002 -1.81518 -0.872527 0
M  V30 9249 C 918.067 -3.25433 -1.19558 0
M  V30 9250 C 917.128 -4.26607 -0.480129 0
M  V30 9251 C 916.361 -5.1378 -1.44449 0
M  V30 9252 O 916.584 -5.03531 -2.67979 0
M  V30 9253 O 915.518 -5.94109 -0.965321 0
M  V30 9254 H 919.344 -2.99065 0.528544 0
M  V30 9255 H 916.929 -1.45834 0.324468 0
M  V30 9256 H 918.811 -3.81964 -1.77993 0
M  V30 9257 H 917.486 -2.62873 -1.8889 0
M  V30 9258 H 916.393 -3.73817 0.145583 0
M  V30 9259 H 917.726 -4.919 0.171868 0
M  V30 9260 N 919.378 -0.300708 -1.54705 0
M  V30 9261 C 920.603 0.314073 -2.05008 0
M  V30 9262 C 921.028 1.46759 -1.17657 0
M  V30 9263 O 920.386 1.80398 -0.180598 0
M  V30 9264 C 920.434 0.748243 -3.52752 0
M  V30 9265 O 919.538 1.85305 -3.68424 0
M  V30 9266 H 918.879 0.0610139 -0.661191 0
M  V30 9267 H 921.409 -0.442467 -1.99758 0
M  V30 9268 H 921.419 1.03713 -3.94598 0
M  V30 9269 H 920.094 -0.095573 -4.1579 0
M  V30 9270 H 918.671 1.56473 -3.38483 0
M  V30 9271 N 920.856 1.57574 -0.0284266 0
M  V30 9272 C 922.133 1.83064 0.688979 0
M  V30 9273 C 922.513 0.91219 1.90374 0
M  V30 9274 O 921.861 -0.0323672 2.28477 0
M  V30 9275 C 922.071 3.32262 1.06785 0
M  V30 9276 C 923.419 3.98717 1.45978 0
M  V30 9277 O 924.443 3.36753 1.16085 0
M  V30 9278 O 923.302 5.07927 2.01673 0
M  V30 9279 H 920.396 0.7548 0.337944 0
M  V30 9280 H 922.942 1.69607 -0.0560555 0
M  V30 9281 H 921.714 3.90772 0.203235 0
M  V30 9282 H 921.337 3.50823 1.87107 0
M  V30 9283 N 922.334 -0.244713 1.55689 0
M  V30 9284 C 923.582 -0.970525 1.77272 0
M  V30 9285 C 923.903 -1.85771 0.592804 0
M  V30 9286 O 923.173 -1.91952 -0.391323 0
M  V30 9287 H 921.753 -0.361342 0.653789 0
M  V30 9288 H 924.415 -0.262134 1.93129 0
M  V30 9289 H 923.511 -1.59096 2.68505 0
M  V30 9290 N 923.813 -1.49104 -0.510467 0
M  V30 9291 C 924.763 -1.6147 -1.6097 0
M  V30 9292 C 925.747 -0.470797 -1.53858 0
M  V30 9293 O 926.939 -0.723266 -1.61548 0
M  V30 9294 C 924.068 -1.67575 -2.99622 0
M  V30 9295 C 923.154 -2.87511 -3.11766 0
M  V30 9296 N 923.545 -4.11704 -2.93826 0
M  V30 9297 C 921.843 -2.85251 -3.42852 0
M  V30 9298 C 922.544 -4.92276 -3.09902 0
M  V30 9299 N 921.52 -4.2546 -3.38355 0
M  V30 9300 H 925.322 -2.5522 -1.45739 0
M  V30 9301 H 922.836 -1.45745 -0.716383 0
M  V30 9302 H 924.833 -1.74531 -3.78609 0
M  V30 9303 H 923.493 -0.749557 -3.1593 0
M  V30 9304 H 924.504 -4.41834 -2.70191 0
M  V30 9305 H 921.181 -2.0197 -3.65396 0
M  V30 9306 H 922.571 -6.00905 -3.00604 0
M  V30 9307 N 925.291 0.760815 -1.38019 0
M  V30 9308 C 926.516 1.55513 -1.37224 0
M  V30 9309 C 926.941 1.88062 0.037611 0
M  V30 9310 O 926.299 1.50042 1.0177 0
M  V30 9311 C 926.347 2.83539 -2.22796 0
M  V30 9312 O 925.451 3.78384 -1.64009 0
M  V30 9313 H 924.792 0.470642 -0.468393 0
M  V30 9314 H 927.322 0.940792 -1.81687 0
M  V30 9315 H 927.332 3.32535 -2.36399 0
M  V30 9316 H 926.007 2.59178 -3.25269 0
M  V30 9317 H 924.584 3.37063 -1.59508 0
M  V30 9318 N 926.769 1.22769 0.988202 0
M  V30 9319 C 927.719 0.969202 2.06375 0
M  V30 9320 C 928.703 -0.0819274 1.60691 0
M  V30 9321 O 929.895 0.129201 1.76528 0
M  V30 9322 C 927.024 0.553919 3.38802 0
M  V30 9323 C 926.11 1.64003 3.91106 0
M  V30 9324 N 926.501 2.86872 4.16579 0
M  V30 9325 C 924.799 1.5128 4.1956 0
M  V30 9326 C 925.5 3.57137 4.5916 0
M  V30 9327 N 924.476 2.84624 4.63131 0
M  V30 9328 H 928.278 1.90247 2.24017 0
M  V30 9329 H 925.792 1.12592 1.17033 0
M  V30 9330 H 927.789 0.350033 4.15428 0
M  V30 9331 H 926.449 -0.37239 3.22558 0
M  V30 9332 H 927.46 3.23254 4.04632 0
M  V30 9333 H 924.137 0.653032 4.12361 0
M  V30 9334 H 925.527 4.62428 4.87452 0
M  V30 9335 N 928.247 -1.18576 1.03814 0
M  V30 9336 C 929.495 -1.88121 0.738574 0
M  V30 9337 C 929.816 -1.80587 -0.735744 0
M  V30 9338 O 929.086 -1.22251 -1.53074 0
M  V30 9339 H 927.666 -0.696417 0.270208 0
M  V30 9340 H 930.328 -1.43912 1.31435 0
M  V30 9341 H 929.424 -2.94222 1.04115 0
M  V30 9342 N 929.725 -0.817259 -1.34754 0
M  V30 9343 C 930.95 -0.414423 -2.03217 0
M  V30 9344 C 931.375 0.970037 -1.61158 0
M  V30 9345 O 930.733 1.63016 -0.793436 0
M  V30 9346 C 930.781 -0.518087 -3.56859 0
M  V30 9347 O 929.885 0.464314 -4.09778 0
M  V30 9348 H 929.226 -0.171454 -0.641482 0
M  V30 9349 H 931.756 -1.10611 -1.72123 0
M  V30 9350 H 931.766 -0.391779 -4.06115 0
M  V30 9351 H 930.441 -1.52786 -3.86819 0
M  V30 9352 H 929.018 0.297361 -3.71712 0
M  V30 9353 N 931.203 1.46865 -0.571711 0
M  V30 9354 C 932.135 2.28277 0.205479 0
M  V30 9355 C 933.148 1.37866 0.865835 0
M  V30 9356 O 934.337 1.62564 0.737247 0
M  V30 9357 C 931.437 3.12572 1.30965 0
M  V30 9358 C 930.61 4.31038 0.743328 0
M  V30 9359 C 929.669 4.96815 1.73382 0
M  V30 9360 O 928.695 5.54755 1.2742 0
M  V30 9361 N 929.897 4.92825 3.06764 0
M  V30 9362 H 932.662 2.95618 -0.49294 0
M  V30 9363 H 930.223 1.56655 -0.408744 0
M  V30 9364 H 932.215 3.53442 1.97131 0
M  V30 9365 H 930.785 2.47378 1.91109 0
M  V30 9366 H 930.005 3.94084 -0.0955004 0
M  V30 9367 H 931.293 5.07632 0.344556 0
M  V30 9368 H 930.691 4.46978 3.46738 0
M  V30 9369 H 929.248 5.3767 3.68449 0
M  V30 9370 N 932.681 0.308908 1.54543 0
M  V30 9371 C 933.591 -0.572939 2.27496 0
M  V30 9372 C 934.607 -1.14171 1.31305 0
M  V30 9373 O 935.783 -1.16481 1.64299 0
M  V30 9374 C 932.848 -1.72483 3.0075 0
M  V30 9375 C 931.909 -1.18934 4.12496 0
M  V30 9376 C 931.142 -2.28634 4.82247 0
M  V30 9377 O 931.365 -3.48691 4.5141 0
M  V30 9378 O 930.299 -1.94879 5.69478 0
M  V30 9379 H 934.125 0.0190877 3.03694 0
M  V30 9380 H 931.71 0.0750943 1.49211 0
M  V30 9381 H 933.592 -2.39578 3.46671 0
M  V30 9382 H 932.267 -2.30332 2.2744 0
M  V30 9383 H 931.174 -0.483904 3.70957 0
M  V30 9384 H 932.507 -0.656185 4.87806 0
M  V30 9385 N 934.159 -1.57557 0.0367827 0
M  V30 9386 C 935.407 -1.91735 -0.63892 0
M  V30 9387 C 935.728 -0.914515 -1.72226 0
M  V30 9388 O 934.998 0.0428248 -1.95853 0
M  V30 9389 H 933.578 -0.707738 -0.23899 0
M  V30 9390 H 936.24 -1.94708 0.0863931 0
M  V30 9391 H 935.336 -2.92568 -1.08676 0
M  V30 9392 N 935.637 0.236453 -1.55816 0
M  V30 9393 C 936.885 0.96111 -1.77784 0
M  V30 9394 C 937.206 1.85454 -0.602648 0
M  V30 9395 O 936.476 1.92157 0.381137 0
M  V30 9396 H 935.056 0.35787 -0.655697 0
M  V30 9397 H 937.718 0.251888 -1.93265 0
M  V30 9398 H 936.814 1.5767 -2.69345 0
M  V30 9399 N 937.115 1.49373 0.502552 0
M  V30 9400 C 938.078 1.65413 1.58654 0
M  V30 9401 C 939.078 0.526003 1.51953 0
M  V30 9402 O 940.268 0.792421 1.55133 0
M  V30 9403 C 937.4 1.65005 2.98306 0
M  V30 9404 H 938.593 2.62095 1.45762 0
M  V30 9405 H 936.146 1.38381 0.726672 0
M  V30 9406 H 936.881 0.699014 3.16677 0
M  V30 9407 H 936.666 2.46931 3.04578 0
M  V30 9408 H 938.156 1.79477 3.77065 0
M  V30 9409 N 938.594 -0.753485 1.38421 0
M  V30 9410 C 939.542 -1.8886 1.35774 0
M  V30 9411 C 940.536 -1.67639 0.243608 0
M  V30 9412 O 941.742 -1.75206 0.412649 0
M  V30 9413 H 938.117 -0.62137 0.42356 0
M  V30 9414 H 940.088 -1.88209 2.3156 0
M  V30 9415 C 938.837 -3.26344 1.19979 0
M  V30 9416 H 938.16 -3.43259 2.04971 0
M  V30 9417 H 939.6 -4.06015 1.22181 0
M  V30 9418 C 938.059 -3.36771 -0.0932867 0
M  V30 9419 O 938.589 -3.8718 -1.07027 0
M  V30 9420 N 936.795 -2.90212 -0.150154 0
M  V30 9421 H 936.342 -2.4938 0.645562 0
M  V30 9422 H 936.3 -2.97569 -1.0149 0
M  V30 9423 N 940.072 -1.23292 -0.981677 0
M  V30 9424 C 941.3 -1.09088 -1.75805 0
M  V30 9425 C 941.715 0.357746 -1.8538 0
M  V30 9426 O 941.072 1.24751 -1.33205 0
M  V30 9427 C 941.123 -1.70885 -3.1856 0
M  V30 9428 O 940.844 -3.10082 -3.09484 0
M  V30 9429 C 942.345 -1.62106 -4.12597 0
M  V30 9430 H 939.565 -0.38184 -0.55176 0
M  V30 9431 H 942.109 -1.63116 -1.23342 0
M  V30 9432 H 940.264 -1.20893 -3.68054 0
M  V30 9433 H 940.678 -3.40039 -3.99342 0
M  V30 9434 H 942.152 -2.10049 -5.10474 0
M  V30 9435 H 942.629 -0.579642 -4.35358 0
M  V30 9436 H 943.235 -2.11457 -3.69007 0
M  V30 9437 N 941.55 1.18024 -1.04442 0
M  V30 9438 C 942.778 1.92032 -0.770161 0
M  V30 9439 C 943.193 1.76391 0.673181 0
M  V30 9440 O 942.55 1.09604 1.45922 0
M  V30 9441 C 942.601 3.43328 -1.13173 0
M  V30 9442 O 942.322 3.5848 -2.51841 0
M  V30 9443 C 943.823 4.34427 -0.882523 0
M  V30 9444 H 941.043 0.609518 -0.280586 0
M  V30 9445 H 943.587 1.49711 -1.39308 0
M  V30 9446 H 941.742 3.83423 -0.553704 0
M  V30 9447 H 942.156 4.52166 -2.65794 0
M  V30 9448 H 943.63 5.39123 -1.18533 0
M  V30 9449 H 944.107 4.3882 0.18257 0
M  V30 9450 H 944.713 4.00035 -1.44403 0
M  V30 9451 N 943.028 0.824394 1.34319 0
M  V30 9452 C 944.253 0.425194 2.02995 0
M  V30 9453 C 944.678 -0.961476 1.6167 0
M  V30 9454 O 944.036 -1.62593 0.80207 0
M  V30 9455 C 944.084 0.537004 3.56579 0
M  V30 9456 O 943.188 -0.442576 4.10018 0
M  V30 9457 H 942.529 0.174853 0.640564 0
M  V30 9458 H 945.059 1.11522 1.71534 0
M  V30 9459 H 945.069 0.413311 4.05901 0
M  V30 9460 H 943.744 1.54836 3.86004 0
M  V30 9461 H 942.321 -0.277644 3.71865 0
M  V30 9462 N 944.506 -1.46559 0.579492 0
M  V30 9463 C 945.754 -2.02 0.0637157 0
M  V30 9464 C 946.075 -1.45378 -1.29962 0
M  V30 9465 O 945.345 -0.637262 -1.85245 0
M  V30 9466 H 943.925 -0.746717 0.0205638 0
M  V30 9467 H 946.587 -1.79702 0.754544 0
M  V30 9468 H 945.683 -3.12099 -0.00770254 0
M  V30 9469 N 945.984 -0.3171 -1.54377 0
M  V30 9470 C 947.395 0.172287 -1.85903 0
M  V30 9471 C 947.746 1.52141 -1.23885 0
M  V30 9472 O 946.871 2.0949 -0.542476 0
M  V30 9473 C 947.466 0.319392 -3.37291 0
M  V30 9474 C 946.025 0.752998 -3.68791 0
M  V30 9475 C 945.172 -0.129143 -2.76999 0
M  V30 9476 H 948.123 -0.537597 -1.49317 0
M  V30 9477 H 948.144 1.15137 -3.62662 0
M  V30 9478 H 947.656 -0.662671 -3.82401 0
M  V30 9479 H 945.757 1.74504 -3.2921 0
M  V30 9480 H 945.87 0.561228 -4.75801 0
M  V30 9481 H 944.234 0.394242 -2.5163 0
M  V30 9482 H 945.017 -1.10785 -3.24933 0
M  V30 9483 N 947.462 1.57535 -0.0451378 0
M  V30 9484 C 948.711 1.91628 0.629415 0
M  V30 9485 C 949.024 0.924754 1.72359 0
M  V30 9486 O 950.23 1.15751 2.45589 0
M  V30 9487 C 948.686 3.40322 1.17084 0
M  V30 9488 C 948.294 4.47867 0.109101 0
M  V30 9489 C 950.038 3.83458 1.82099 0
M  V30 9490 C 947.945 5.87671 0.663072 0
M  V30 9491 H 946.875 0.715163 0.238868 0
M  V30 9492 H 949.526 1.83151 -0.113046 0
M  V30 9493 H 947.908 3.43783 1.96543 0
M  V30 9494 H 949.082 4.55988 -0.664201 0
M  V30 9495 H 947.397 4.14034 -0.443227 0
M  V30 9496 H 949.994 4.85273 2.2453 0
M  V30 9497 H 950.337 3.19379 2.67026 0
M  V30 9498 H 950.87 3.82488 1.09305 0
M  V30 9499 H 947.609 6.55332 -0.148423 0
M  V30 9500 H 947.129 5.83124 1.4045 0
M  V30 9501 H 948.808 6.36737 1.14785 0
M  V30 9502 N 948.94 -0.228186 1.55939 0
M  V30 9503 C 950.356 -0.577583 1.48782 0
M  V30 9504 C 950.556 -1.87461 0.738972 0
M  V30 9505 O 949.612 -2.50988 0.275929 0
M  V30 9506 C 950.925 -0.662961 2.93301 0
M  V30 9507 C 952.473 -0.754035 3.03782 0
M  V30 9508 C 952.948 -0.870815 4.49645 0
M  V30 9509 N 954.439 -0.935208 4.53661 0
M  V30 9510 C 955.174 -1.04516 5.63794 0
M  V30 9511 N 954.67 -1.11948 6.83696 0
M  V30 9512 N 956.463 -1.07978 5.51631 0
M  V30 9513 H 948.614 0.623018 2.03057 0
M  V30 9514 H 950.877 0.217692 0.922667 0
M  V30 9515 H 950.583 0.220375 3.51009 0
M  V30 9516 H 950.457 -1.52876 3.44831 0
M  V30 9517 H 952.844 -1.62782 2.46143 0
M  V30 9518 H 952.925 0.137301 2.55431 0
M  V30 9519 H 952.569 -0.0015186 5.079 0
M  V30 9520 H 952.499 -1.77747 4.95695 0
M  V30 9521 H 954.99 -0.88836 3.6731 0
M  V30 9522 H 955.303 -1.20297 7.6338 0
M  V30 9523 H 953.648 -1.08873 6.8642 0
M  V30 9524 H 956.839 -1.01833 4.56889 0
M  V30 9525 H 957.012 -1.16202 6.37496 0
M  V30 9526 N 950.418 -1.49637 -0.494624 0
M  V30 9527 C 951.646 -1.63164 -1.2722 0
M  V30 9528 C 952.061 -0.305552 -1.86311 0
M  V30 9529 O 951.418 0.709758 -1.68133 0
M  V30 9530 C 951.469 -2.70524 -2.39789 0
M  V30 9531 O 951.19 -3.97991 -1.83126 0
M  V30 9532 C 952.691 -2.94814 -3.31058 0
M  V30 9533 H 949.911 -0.54912 -0.385627 0
M  V30 9534 H 952.455 -1.95711 -0.593081 0
M  V30 9535 H 950.61 -2.40738 -3.03519 0
M  V30 9536 H 951.024 -4.57179 -2.57075 0
M  V30 9537 H 952.498 -3.73653 -4.06309 0
M  V30 9538 H 952.975 -2.04974 -3.88436 0
M  V30 9539 H 953.581 -3.26042 -2.73088 0
M  V30 9540 N 951.896 0.746133 -1.38819 0
M  V30 9541 C 953.307 1.32384 -1.31648 0
M  V30 9542 C 953.658 1.96185 0.0243086 0
M  V30 9543 O 952.783 1.95567 0.92641 0
M  V30 9544 C 953.378 2.40712 -2.38418 0
M  V30 9545 C 951.937 2.94185 -2.34803 0
M  V30 9546 C 951.084 1.67639 -2.20891 0
M  V30 9547 H 954.035 0.544457 -1.49068 0
M  V30 9548 H 954.056 3.20833 -2.04564 0
M  V30 9549 H 953.568 1.94247 -3.3599 0
M  V30 9550 H 951.669 3.44959 -1.40834 0
M  V30 9551 H 951.782 3.48057 -3.29231 0
M  V30 9552 H 950.146 1.9155 -1.67871 0
M  V30 9553 H 950.929 1.23242 -3.20416 0
M  V30 9554 N 953.375 1.23811 0.975125 0
M  V30 9555 C 954.307 0.981779 2.07108 0
M  V30 9556 C 955.32 -0.0461211 1.62735 0
M  V30 9557 O 956.509 0.190039 1.77486 0
M  V30 9558 C 953.609 0.458364 3.35786 0
M  V30 9559 C 952.782 1.54767 4.09104 0
M  V30 9560 C 951.841 1.0282 5.16057 0
M  V30 9561 O 950.867 1.71831 5.42644 0
M  V30 9562 N 952.069 -0.141243 5.80328 0
M  V30 9563 H 954.834 1.92537 2.29673 0
M  V30 9564 H 952.395 1.1474 1.14221 0
M  V30 9565 H 954.387 0.0957686 4.04587 0
M  V30 9566 H 952.957 -0.390768 3.10148 0
M  V30 9567 H 952.177 2.08279 3.34684 0
M  V30 9568 H 953.465 2.28006 4.54853 0
M  V30 9569 H 952.863 -0.718382 5.6112 0
M  V30 9570 H 951.42 -0.445052 6.50279 0
M  V30 9571 N 954.853 -1.17469 1.05066 0
M  V30 9572 C 956.102 -1.87032 0.755114 0
M  V30 9573 C 956.415 -1.81844 -0.720572 0
M  V30 9574 O 957.621 -2.46866 -1.13002 0
M  V30 9575 C 956.077 -3.35581 1.30052 0
M  V30 9576 C 955.685 -3.49274 2.80556 0
M  V30 9577 C 957.429 -4.1048 1.08196 0
M  V30 9578 C 955.336 -4.91838 3.28404 0
M  V30 9579 H 954.266 -0.70057 0.278779 0
M  V30 9580 H 956.917 -1.32663 1.26779 0
M  V30 9581 H 955.299 -3.89479 0.715667 0
M  V30 9582 H 956.473 -3.05598 3.44886 0
M  V30 9583 H 954.788 -2.87793 3.00939 0
M  V30 9584 H 957.385 -5.15652 1.41447 0
M  V30 9585 H 957.728 -4.16295 0.0196603 0
M  V30 9586 H 958.261 -3.62784 1.63195 0
M  V30 9587 H 955 -4.91196 4.34058 0
M  V30 9588 H 954.52 -5.36189 2.68815 0
M  V30 9589 H 956.199 -5.60602 3.23009 0
M  V30 9590 N 956.331 -0.831506 -1.3388 0
M  V30 9591 C 957.742 -0.481375 -1.80388 0
M  V30 9592 C 958.093 0.998993 -1.68863 0
M  V30 9593 O 957.218 1.77795 -1.2336 0
M  V30 9594 C 957.813 -0.86699 -3.27519 0
M  V30 9595 C 956.372 -0.569105 -3.72073 0
M  V30 9596 C 955.519 -1.07929 -2.55434 0
M  V30 9597 H 958.47 -1.02089 -1.21505 0
M  V30 9598 H 958.491 -0.174128 -3.80101 0
M  V30 9599 H 958.003 -1.94447 -3.35875 0
M  V30 9600 H 956.104 0.498607 -3.69249 0
M  V30 9601 H 956.217 -1.11918 -4.65845 0
M  V30 9602 H 954.581 -0.500465 -2.49735 0
M  V30 9603 H 955.364 -2.16339 -2.66556 0
M  V30 9604 N 957.809 1.4625 -0.587256 0
M  V30 9605 C 958.719 2.34147 0.145744 0
M  V30 9606 C 959.735 1.50026 0.881376 0
M  V30 9607 O 960.911 1.82884 0.843539 0
M  V30 9608 C 957.976 3.27294 1.14366 0
M  V30 9609 C 957.037 4.27317 0.412199 0
M  V30 9610 C 956.27 5.16013 1.36257 0
M  V30 9611 O 956.493 5.0773 2.59934 0
M  V30 9612 O 955.427 5.95569 0.870681 0
M  V30 9613 H 959.253 2.98187 -0.576055 0
M  V30 9614 H 956.838 1.45299 -0.347628 0
M  V30 9615 H 958.72 3.84747 1.71894 0
M  V30 9616 H 957.395 2.65845 1.84684 0
M  V30 9617 H 956.302 3.73538 -0.205036 0
M  V30 9618 H 957.635 4.91564 -0.250104 0
M  V30 9619 N 959.287 0.325282 1.54207 0
M  V30 9620 C 960.533 -0.269944 2.01601 0
M  V30 9621 C 960.888 -1.49643 1.20933 0
M  V30 9622 O 960.181 -1.89486 0.283838 0
M  V30 9623 C 960.375 -0.654292 3.5136 0
M  V30 9624 C 960.204 0.533397 4.46525 0
M  V30 9625 C 958.974 1.03304 4.94628 0
M  V30 9626 C 961.172 1.38613 4.95269 0
M  V30 9627 N 959.154 2.18495 5.73701 0
M  V30 9628 C 960.525 2.38519 5.72284 0
M  V30 9629 C 962.58 1.41369 4.77409 0
M  V30 9630 C 961.283 3.40988 6.3334 0
M  V30 9631 C 963.309 2.4271 5.39301 0
M  V30 9632 C 962.671 3.41343 6.16169 0
M  V30 9633 H 958.77 -0.0625778 0.779492 0
M  V30 9634 H 961.354 0.460711 1.89171 0
M  V30 9635 H 959.525 -1.35408 3.64032 0
M  V30 9636 H 961.257 -1.23114 3.85519 0
M  V30 9637 H 958.012 0.604045 4.69732 0
M  V30 9638 H 958.436 2.76605 6.17915 0
M  V30 9639 H 963.078 0.664796 4.17541 0
M  V30 9640 H 960.796 4.16784 6.92327 0
M  V30 9641 H 964.382 2.45647 5.27398 0
M  V30 9642 H 963.262 4.18476 6.6321 0
M  V30 9643 N 960.765 -1.57509 0.0534917 0
M  V30 9644 C 961.695 -2.14698 -0.917999 0
M  V30 9645 C 962.676 -1.06924 -1.32292 0
M  V30 9646 O 963.861 -1.34875 -1.39723 0
M  V30 9647 C 960.991 -2.69383 -2.19203 0
M  V30 9648 C 959.945 -3.82161 -1.9271 0
M  V30 9649 C 959.271 -4.23373 -3.26587 0
M  V30 9650 C 960.571 -5.07199 -1.24686 0
M  V30 9651 H 962.265 -2.96125 -0.44165 0
M  V30 9652 H 959.811 -1.42446 -0.210993 0
M  V30 9653 H 961.764 -3.08031 -2.87567 0
M  V30 9654 H 960.488 -1.85151 -2.69048 0
M  V30 9655 H 959.147 -3.43989 -1.26757 0
M  V30 9656 H 958.795 -3.36089 -3.74237 0
M  V30 9657 H 958.495 -4.99385 -3.09658 0
M  V30 9658 H 960.019 -4.64623 -3.96178 0
M  V30 9659 H 961.433 -5.43279 -1.83088 0
M  V30 9660 H 959.83 -5.88369 -1.18076 0
M  V30 9661 H 960.9 -4.84386 -0.223227 0
M  V30 9662 N 962.243 0.219913 -1.56058 0
M  V30 9663 C 963.492 0.942119 -1.78345 0
M  V30 9664 C 963.805 1.85435 -0.622344 0
M  V30 9665 O 965.011 2.61533 -0.728886 0
M  V30 9666 C 963.467 1.72544 -3.15843 0
M  V30 9667 C 963.075 0.859263 -4.39682 0
M  V30 9668 C 964.819 2.43876 -3.47455 0
M  V30 9669 C 962.726 1.64003 -5.68205 0
M  V30 9670 H 961.656 0.355514 -0.664925 0
M  V30 9671 H 964.307 0.195963 -1.82451 0
M  V30 9672 H 962.689 2.51456 -3.05918 0
M  V30 9673 H 963.863 0.110562 -4.60667 0
M  V30 9674 H 962.178 0.257985 -4.156 0
M  V30 9675 H 964.775 3.02794 -4.40704 0
M  V30 9676 H 965.118 3.16843 -2.7003 0
M  V30 9677 H 965.651 1.71952 -3.58716 0
M  V30 9678 H 962.39 0.953606 -6.48526 0
M  V30 9679 H 961.91 2.3633 -5.51279 0
M  V30 9680 H 963.589 2.20028 -6.08438 0
M  V30 9681 N 963.721 1.49897 0.486681 0
M  V30 9682 C 964.97 1.59349 1.23656 0
M  V30 9683 C 965.283 0.292024 1.93408 0
M  V30 9684 O 966.489 0.265258 2.70201 0
M  V30 9685 C 964.945 2.81215 2.24602 0
M  V30 9686 C 964.553 4.18177 1.60725 0
M  V30 9687 C 966.297 3.00004 3.00329 0
M  V30 9688 C 964.204 5.31247 2.59866 0
M  V30 9689 H 963.134 0.593363 0.465227 0
M  V30 9690 H 965.785 1.76306 0.508769 0
M  V30 9691 H 964.167 2.57783 3.00606 0
M  V30 9692 H 965.341 4.51802 0.90616 0
M  V30 9693 H 963.656 4.04864 0.973362 0
M  V30 9694 H 966.253 3.81649 3.74497 0
M  V30 9695 H 966.596 2.1112 3.58795 0
M  V30 9696 H 967.129 3.23544 2.3144 0
M  V30 9697 H 963.868 6.22236 2.06161 0
M  V30 9698 H 963.388 5.02059 3.28172 0
M  V30 9699 H 965.067 5.61177 3.22009 0
M  V30 9700 N 965.199 -0.738761 1.39212 0
M  V30 9701 C 966.129 -1.86602 1.40364 0
M  V30 9702 C 967.11 -1.67984 0.267495 0
M  V30 9703 O 968.295 -1.88358 0.472765 0
M  V30 9704 C 965.425 -3.24308 1.24265 0
M  V30 9705 C 964.379 -3.57557 2.35239 0
M  V30 9706 C 963.705 -4.94159 2.04233 0
M  V30 9707 C 965.005 -3.60914 3.77543 0
M  V30 9708 H 966.699 -1.85896 2.34698 0
M  V30 9709 H 964.245 -0.892959 1.1297 0
M  V30 9710 H 966.198 -4.02838 1.23692 0
M  V30 9711 H 964.922 -3.25531 0.263974 0
M  V30 9712 H 963.581 -2.81354 2.35022 0
M  V30 9713 H 963.229 -4.91959 1.04813 0
M  V30 9714 H 962.929 -5.17373 2.78567 0
M  V30 9715 H 964.453 -5.7505 2.05303 0
M  V30 9716 H 965.867 -4.29528 3.79709 0
M  V30 9717 H 964.264 -3.95644 4.51205 0
M  V30 9718 H 965.334 -2.60803 4.08791 0
M  V30 9719 N 966.677 -1.24326 -0.968545 0
M  V30 9720 C 967.64 -1.03591 -2.04454 0
M  V30 9721 C 968.64 0.0064809 -1.60799 0
M  V30 9722 O 969.83 -0.234404 -1.72616 0
M  V30 9723 C 966.962 -0.56992 -3.36102 0
M  V30 9724 H 968.155 -1.99092 -2.24282 0
M  V30 9725 H 965.708 -1.06537 -1.14366 0
M  V30 9726 H 966.443 0.388325 -3.21967 0
M  V30 9727 H 966.228 -1.32227 -3.69132 0
M  V30 9728 H 967.718 -0.445854 -4.15213 0
M  V30 9729 N 968.156 1.1691 -1.05688 0
M  V30 9730 C 969.381 1.91745 -0.790478 0
M  V30 9731 C 969.806 1.76568 0.648478 0
M  V30 9732 O 969.164 1.08682 1.45114 0
M  V30 9733 C 969.212 3.4067 -1.18222 0
M  V30 9734 O 968.316 4.11177 -0.317341 0
M  V30 9735 H 967.657 0.5976 -0.28943 0
M  V30 9736 H 970.187 1.48157 -1.41105 0
M  V30 9737 H 970.197 3.91424 -1.15114 0
M  V30 9738 H 968.872 3.51036 -2.2304 0
M  V30 9739 H 967.449 3.70645 -0.409459 0
M  V30 9740 N 969.634 0.838594 1.33437 0
M  V30 9741 C 970.564 0.286672 2.31734 0
M  V30 9742 C 971.545 -0.605451 1.5896 0
M  V30 9743 O 972.73 -0.529059 1.86854 0
M  V30 9744 C 969.86 -0.539311 3.43087 0
M  V30 9745 C 968.814 0.256997 4.27228 0
M  V30 9746 C 968.14 -0.692718 5.30194 0
M  V30 9747 C 969.44 1.47391 5.01072 0
M  V30 9748 H 971.134 1.10798 2.78144 0
M  V30 9749 H 968.68 0.534235 1.33723 0
M  V30 9750 H 970.633 -0.935724 4.1088 0
M  V30 9751 H 969.357 -1.39383 2.95364 0
M  V30 9752 H 968.016 0.634967 3.61059 0
M  V30 9753 H 967.664 -1.54363 4.78729 0
M  V30 9754 H 967.364 -0.164023 5.87371 0
M  V30 9755 H 968.888 -1.08665 6.00853 0
M  V30 9756 H 970.302 1.15067 5.61634 0
M  V30 9757 H 968.699 1.93937 5.67898 0
M  V30 9758 H 969.769 2.24382 4.29861 0
M  V30 9759 N 971.112 -1.45937 0.595003 0
M  V30 9760 C 972.042 -2.33198 -0.11871 0
M  V30 9761 C 973.023 -1.46083 -0.871423 0
M  V30 9762 O 974.208 -1.74879 -0.844461 0
M  V30 9763 C 971.338 -3.28576 -1.12495 0
M  V30 9764 C 970.292 -4.25229 -0.486275 0
M  V30 9765 C 969.618 -5.10204 -1.59986 0
M  V30 9766 C 970.918 -5.19019 0.584473 0
M  V30 9767 H 972.612 -2.93122 0.609886 0
M  V30 9768 H 970.158 -1.40951 0.294742 0
M  V30 9769 H 972.111 -3.88485 -1.6327 0
M  V30 9770 H 970.835 -2.66784 -1.88398 0
M  V30 9771 H 969.494 -3.666 0.000507962 0
M  V30 9772 H 969.142 -4.44789 -2.34886 0
M  V30 9773 H 968.842 -5.75669 -1.1781 0
M  V30 9774 H 970.366 -5.7298 -2.11014 0
M  V30 9775 H 971.78 -5.73073 0.161297 0
M  V30 9776 H 970.177 -5.92893 0.927256 0
M  V30 9777 H 971.247 -4.62208 1.46601 0
M  V30 9778 N 972.59 -0.333456 -1.54032 0
M  V30 9779 C 973.553 0.515392 -2.2333 0
M  V30 9780 C 974.553 1.03566 -1.23007 0
M  V30 9781 O 975.743 0.926514 -1.47517 0
M  V30 9782 C 972.875 1.7169 -2.94508 0
M  V30 9783 H 974.068 -0.0905407 -2.99763 0
M  V30 9784 H 971.621 -0.0846651 -1.56071 0
M  V30 9785 H 972.356 2.3618 -2.22237 0
M  V30 9786 H 972.141 1.35115 -3.68085 0
M  V30 9787 H 973.631 2.31922 -3.47278 0
M  V30 9788 N 974.068 1.57479 -0.061844 0
M  V30 9789 C 974.998 2.15181 0.9066 0
M  V30 9790 C 975.979 1.07624 1.31724 0
M  V30 9791 O 977.164 1.35614 1.39006 0
M  V30 9792 C 974.294 2.70542 2.17771 0
M  V30 9793 C 973.248 3.83178 1.9068 0
M  V30 9794 C 972.574 4.25099 3.24337 0
M  V30 9795 C 973.874 5.07853 1.21994 0
M  V30 9796 H 975.568 2.96355 0.42594 0
M  V30 9797 H 973.114 1.42556 0.203435 0
M  V30 9798 H 975.067 3.09552 2.85929 0
M  V30 9799 H 973.791 1.86575 2.68062 0
M  V30 9800 H 972.45 3.44656 1.24931 0
M  V30 9801 H 972.098 3.38069 3.72449 0
M  V30 9802 H 971.798 5.01021 3.07005 0
M  V30 9803 H 973.322 4.66718 3.93709 0
M  V30 9804 H 974.736 5.44242 1.80204 0
M  V30 9805 H 973.133 5.88987 1.14954 0
M  V30 9806 H 974.203 4.84497 0.197536 0
M  V30 9807 N 975.546 -0.211634 1.56173 0
M  V30 9808 C 976.509 -1.24588 1.92381 0
M  V30 9809 C 977.509 -1.39297 0.803311 0
M  V30 9810 O 978.699 -1.37392 1.07094 0
M  V30 9811 C 975.831 -2.61807 2.18335 0
M  V30 9812 H 977.024 -0.936814 2.84893 0
M  V30 9813 H 974.577 -0.452471 1.49607 0
M  V30 9814 H 975.312 -2.97795 1.28407 0
M  V30 9815 H 975.097 -2.52506 2.99972 0
M  V30 9816 H 976.587 -3.3642 2.4741 0
M  V30 9817 N 977.024 -1.50153 -0.478725 0
M  V30 9818 C 977.954 -1.71384 -1.58587 0
M  V30 9819 C 978.935 -0.562705 -1.60523 0
M  V30 9820 O 980.12 -0.80101 -1.76911 0
M  V30 9821 C 977.25 -1.80094 -2.96957 0
M  V30 9822 C 976.204 -2.95218 -3.09888 0
M  V30 9823 C 975.53 -2.89063 -4.49829 0
M  V30 9824 C 976.83 -4.35841 -2.8782 0
M  V30 9825 H 978.524 -2.64081 -1.41073 0
M  V30 9826 H 976.07 -1.27081 -0.677239 0
M  V30 9827 H 978.023 -1.93531 -3.74331 0
M  V30 9828 H 976.747 -0.840131 -3.1561 0
M  V30 9829 H 975.406 -2.81419 -2.34944 0
M  V30 9830 H 975.054 -1.90844 -4.6539 0
M  V30 9831 H 974.754 -3.66345 -4.59418 0
M  V30 9832 H 976.278 -3.04539 -5.29234 0
M  V30 9833 H 977.692 -4.50205 -3.54948 0
M  V30 9834 H 976.089 -5.14515 -3.0886 0
M  V30 9835 H 977.159 -4.48739 -1.83742 0
M  V30 9836 N 978.502 0.731368 -1.39602 0
M  V30 9837 C 979.751 1.48647 -1.36334 0
M  V30 9838 C 980.064 1.95565 0.0367383 0
M  V30 9839 O 981.27 2.7082 0.192017 0
M  V30 9840 C 979.726 2.68616 -2.39528 0
M  V30 9841 C 979.334 2.28632 -3.85268 0
M  V30 9842 C 981.078 3.46422 -2.45341 0
M  V30 9843 C 978.985 3.45345 -4.80095 0
M  V30 9844 H 977.915 0.558218 -0.506861 0
M  V30 9845 H 980.566 0.797467 -1.65266 0
M  V30 9846 H 978.948 3.39609 -2.03671 0
M  V30 9847 H 980.122 1.65162 -4.30184 0
M  V30 9848 H 978.437 1.63909 -3.82783 0
M  V30 9849 H 981.034 4.33241 -3.13379 0
M  V30 9850 H 981.377 3.8914 -1.47904 0
M  V30 9851 H 981.91 2.82461 -2.80108 0
M  V30 9852 H 978.649 3.07674 -5.78807 0
M  V30 9853 H 978.169 4.07784 -4.39855 0
M  V30 9854 H 979.848 4.1163 -4.99169 0
M  V30 9855 N 979.98 1.24838 0.961938 0
M  V30 9856 C 980.91 1.07053 2.07514 0
M  V30 9857 C 981.891 -0.0182465 1.7009 0
M  V30 9858 O 983.076 0.149915 1.9362 0
M  V30 9859 C 980.206 0.680693 3.40564 0
M  V30 9860 C 979.16 1.71889 3.91967 0
M  V30 9861 C 978.486 1.18395 5.21428 0
M  V30 9862 C 979.786 3.1161 4.19161 0
M  V30 9863 H 981.48 2.00167 2.22651 0
M  V30 9864 H 979.026 0.963799 1.0699 0
M  V30 9865 H 980.979 0.54324 4.17884 0
M  V30 9866 H 979.703 -0.28615 3.25344 0
M  V30 9867 H 978.362 1.84465 3.16809 0
M  V30 9868 H 978.01 0.207543 5.02572 0
M  V30 9869 H 977.71 1.87778 5.56788 0
M  V30 9870 H 979.234 1.05873 6.01351 0
M  V30 9871 H 980.648 3.0223 4.87165 0
M  V30 9872 H 979.045 3.78398 4.65763 0
M  V30 9873 H 980.115 3.59218 3.25715 0
M  V30 9874 N 981.458 -1.16348 1.06306 0
M  V30 9875 C 982.421 -2.18941 0.678053 0
M  V30 9876 C 983.421 -1.58409 -0.276277 0
M  V30 9877 O 984.611 -1.74101 -0.0586435 0
M  V30 9878 C 981.743 -3.409 -0.00228684 0
M  V30 9879 H 982.936 -2.54516 1.58624 0
M  V30 9880 H 980.489 -1.30625 0.858298 0
M  V30 9881 H 981.224 -3.10881 -0.923212 0
M  V30 9882 H 981.009 -3.86089 0.683949 0
M  V30 9883 H 982.499 -4.16806 -0.257374 0
M  V30 9884 N 982.937 -0.845659 -1.3299 0
M  V30 9885 C 984.183 -0.445311 -1.9785 0
M  V30 9886 C 984.516 0.994476 -1.66805 0
M  V30 9887 O 983.791 1.69636 -0.95151 0
M  V30 9888 C 984.074 -0.674371 -3.53729 0
M  V30 9889 C 983.927 -2.16192 -3.94437 0
M  V30 9890 C 985.246 -0.124908 -4.39923 0
M  V30 9891 H 982.365 -0.163269 -0.718688 0
M  V30 9892 H 985.007 -1.06242 -1.5752 0
M  V30 9893 H 983.157 -0.149091 -3.88214 0
M  V30 9894 H 984.829 -2.75259 -3.70176 0
M  V30 9895 H 983.072 -2.64386 -3.43922 0
M  V30 9896 H 983.743 -2.27292 -5.03033 0
M  V30 9897 H 986.219 -0.573986 -4.12122 0
M  V30 9898 H 985.095 -0.314816 -5.47996 0
M  V30 9899 H 985.356 0.971758 -4.31288 0
M  V30 9900 N 984.415 1.45619 -0.602734 0
M  V30 9901 C 985.655 2.0416 -0.0989764 0
M  V30 9902 C 986.019 1.4616 1.24504 0
M  V30 9903 O 987.22 1.96025 1.83923 0
M  V30 9904 C 985.491 3.57357 -0.0551869 0
M  V30 9905 S 987.05 4.3708 0.388086 0
M  V30 9906 H 983.868 0.709431 -0.0472054 0
M  V30 9907 H 986.47 1.78394 -0.799745 0
M  V30 9908 H 985.174 3.97083 -1.03697 0
M  V30 9909 H 984.705 3.87692 0.667727 0
M  V30 9910 H 986.72 4.68362 1.63865 0
M  V30 9911 N 985.893 0.34162 1.53853 0
M  V30 9912 C 987.142 -0.256475 2.00063 0
M  V30 9913 C 987.455 -1.51811 1.23341 0
M  V30 9914 O 988.661 -2.19332 1.60017 0
M  V30 9915 C 987.117 -0.507567 3.56303 0
M  V30 9916 C 986.725 0.738052 4.41879 0
M  V30 9917 C 988.469 -1.06463 4.10933 0
M  V30 9918 C 986.376 0.457865 5.89625 0
M  V30 9919 H 985.306 -0.0996143 0.747391 0
M  V30 9920 H 987.957 0.456649 1.77727 0
M  V30 9921 H 986.339 -1.28134 3.74697 0
M  V30 9922 H 987.513 1.51278 4.3526 0
M  V30 9923 H 985.828 1.21661 3.98231 0
M  V30 9924 H 988.425 -1.28918 5.18926 0
M  V30 9925 H 988.768 -2.01956 3.64032 0
M  V30 9926 H 989.301 -0.351601 3.96243 0
M  V30 9927 H 986.04 1.38247 6.40756 0
M  V30 9928 H 985.56 -0.278818 5.99152 0
M  V30 9929 H 987.239 0.0743914 6.46957 0
M  V30 9930 N 987.371 -1.57444 0.0701946 0
M  V30 9931 C 988.334 -2.11511 -0.882923 0
M  V30 9932 C 989.334 -1.03879 -1.22743 0
M  V30 9933 O 990.524 -1.29874 -1.16097 0
M  V30 9934 C 987.656 -2.61514 -2.18686 0
M  V30 9935 H 988.849 -2.9703 -0.413873 0
M  V30 9936 H 986.402 -1.55278 -0.178488 0
M  V30 9937 H 987.137 -1.79443 -2.70131 0
M  V30 9938 H 986.922 -3.40185 -1.94978 0
M  V30 9939 H 988.412 -3.03425 -2.86919 0
M  V30 9940 N 988.849 0.203349 -1.56283 0
M  V30 9941 C 990.095 0.926381 -1.80405 0
M  V30 9942 C 990.428 1.8325 -0.642883 0
M  V30 9943 O 989.703 1.91196 0.356998 0
M  V30 9944 C 989.986 1.74972 -3.14733 0
M  V30 9945 C 989.839 0.868866 -4.41328 0
M  V30 9946 C 991.158 2.72394 -3.45672 0
M  V30 9947 H 988.277 0.335346 -0.656286 0
M  V30 9948 H 990.919 0.1942 -1.89005 0
M  V30 9949 H 989.069 2.37394 -3.07533 0
M  V30 9950 H 990.741 0.259986 -4.60567 0
M  V30 9951 H 988.984 0.175161 -4.33446 0
M  V30 9952 H 989.655 1.47975 -5.31796 0
M  V30 9953 H 992.131 2.20105 -3.53119 0
M  V30 9954 H 991.007 3.27091 -4.40798 0
M  V30 9955 H 991.268 3.51035 -2.6875 0
M  V30 9956 N 990.327 1.50405 0.470755 0
M  V30 9957 C 991.275 1.6982 1.58946 0
M  V30 9958 C 992.269 0.56407 1.59733 0
M  V30 9959 O 993.475 0.744576 1.63878 0
M  V30 9960 H 989.85 0.536016 0.527438 0
M  V30 9961 H 991.821 2.63662 1.39732 0
M  V30 9962 C 990.57 1.80986 2.96883 0
M  V30 9963 H 989.893 2.67645 2.96996 0
M  V30 9964 H 991.333 1.98596 3.74614 0
M  V30 9965 C 989.792 0.561551 3.32187 0
M  V30 9966 O 990.322 -0.299136 4.00585 0
M  V30 9967 N 988.528 0.415476 2.87615 0
M  V30 9968 H 988.075 1.11691 2.32127 0
M  V30 9969 H 988.033 -0.418592 3.11601 0
M  V30 9970 N 991.805 -0.723954 1.39988 0
M  V30 9971 C 993.03 -1.5182 1.41299 0
M  V30 9972 C 993.455 -1.88096 0.0122636 0
M  V30 9973 O 992.813 -1.52687 -0.977559 0
M  V30 9974 C 992.861 -2.77532 2.30235 0
M  V30 9975 O 991.965 -3.73903 1.73984 0
M  V30 9976 H 991.306 -0.458058 0.480707 0
M  V30 9977 H 993.836 -0.892291 1.84118 0
M  V30 9978 H 993.846 -3.2615 2.45132 0
M  V30 9979 H 992.521 -2.50462 3.32026 0
M  V30 9980 H 991.098 -3.32715 1.68389 0
M  V30 9981 N 993.283 -1.25346 -0.955304 0
M  V30 9982 C 994.699 -1.02154 -1.22625 0
M  V30 9983 C 994.899 0.26206 -1.99789 0
M  V30 9984 O 993.955 0.974958 -2.32918 0
M  V30 9985 C 995.268 -2.2443 -2.00129 0
M  V30 9986 C 996.816 -2.29185 -2.13174 0
M  V30 9987 C 997.291 -3.51117 -2.94077 0
M  V30 9988 N 998.782 -3.51509 -3.01655 0
M  V30 9989 C 999.517 -4.42517 -3.64645 0
M  V30 9990 N 999.013 -5.43796 -4.29252 0
M  V30 9991 N 1000.81 -4.302 -3.61779 0
M  V30 9992 H 992.957 -2.07812 -0.439071 0
M  V30 9993 H 995.22 -0.91258 -0.256715 0
M  V30 9994 H 994.926 -3.17717 -1.50827 0
M  V30 9995 H 994.8 -2.27548 -3.00835 0
M  V30 9996 H 997.187 -1.36422 -2.61674 0
M  V30 9997 H 997.268 -2.30087 -1.11775 0
M  V30 9998 H 996.912 -4.44201 -2.46268 0
M  V30 9999 H 996.842 -3.4746 -3.95701 0
M  V30 10000 H 999.333 -2.78245 -2.55711 0
M  V30 10001 H 999.646 -6.09453 -4.75171 0
M  V30 10002 H 997.991 -5.4767 -4.27882 0
M  V30 10003 H 1001.18 -3.50304 -3.10491 0
M  V30 10004 H 1001.36 -5.01323 -4.10584 0
M  V30 10005 N 994.761 1.15782 -1.06922 0
M  V30 10006 C 996.177 1.38454 -0.793896 0
M  V30 10007 C 996.377 1.92238 0.603875 0
M  V30 10008 O 995.433 2.1253 1.36335 0
M  V30 10009 C 996.746 2.3595 -1.86408 0
M  V30 10010 C 998.294 2.49622 -1.88833 0
M  V30 10011 C 998.769 3.50406 -2.94923 0
M  V30 10012 N 1000.26 3.57938 -2.93997 0
M  V30 10013 C 1001 4.35728 -3.72731 0
M  V30 10014 N 1000.49 5.16888 -4.61301 0
M  V30 10015 N 1002.28 4.30774 -3.61096 0
M  V30 10016 H 994.435 0.792101 -1.97077 0
M  V30 10017 H 996.698 0.410779 -0.85438 0
M  V30 10018 H 996.404 2.03537 -2.86819 0
M  V30 10019 H 996.278 3.35677 -1.72049 0
M  V30 10020 H 998.665 2.81335 -0.890759 0
M  V30 10021 H 998.746 1.49909 -2.0727 0
M  V30 10022 H 998.39 3.19429 -3.94877 0
M  V30 10023 H 998.32 4.49864 -2.73734 0
M  V30 10024 H 1000.81 3.00007 -2.29791 0
M  V30 10025 H 1001.12 5.73477 -5.18019 0
M  V30 10026 H 999.469 5.16209 -4.65353 0
M  V30 10027 H 1002.66 3.66432 -2.91282 0
M  V30 10028 H 1002.83 4.91151 -4.22699 0
M  V30 10029 N 996.239 0.8527 1.3254 0
M  V30 10030 C 997.655 0.542298 1.50104 0
M  V30 10031 C 997.855 -0.927465 1.78886 0
M  V30 10032 O 996.911 -1.7106 1.85728 0
M  V30 10033 C 998.224 1.4276 2.64651 0
M  V30 10034 C 999.772 1.42782 2.78536 0
M  V30 10035 C 1000.25 2.29828 3.9616 0
M  V30 10036 N 1001.74 2.27613 4.03418 0
M  V30 10037 C 1002.47 2.91696 4.93661 0
M  V30 10038 N 1001.97 3.64883 5.88925 0
M  V30 10039 N 1003.76 2.81094 4.86768 0
M  V30 10040 H 995.913 1.80395 1.12123 0
M  V30 10041 H 998.176 0.770394 0.552446 0
M  V30 10042 H 997.882 2.47266 2.50105 0
M  V30 10043 H 997.756 1.11358 3.60388 0
M  V30 10044 H 1000.14 0.390417 2.92506 0
M  V30 10045 H 1000.22 1.78198 1.83519 0
M  V30 10046 H 999.868 3.33635 3.82949 0
M  V30 10047 H 999.798 1.91746 4.9045 0
M  V30 10048 H 1002.29 1.74402 3.3525 0
M  V30 10049 H 1002.6 4.10952 6.54476 0
M  V30 10050 H 1000.95 3.68991 5.88957 0
M  V30 10051 H 1004.14 2.23469 4.11314 0
M  V30 10052 H 1004.31 3.31318 5.56895 0
M  V30 10053 N 997.718 -1.45297 0.610449 0
M  V30 10054 C 998.958 -2.04105 0.109802 0
M  V30 10055 C 999.322 -1.46818 -1.23727 0
M  V30 10056 O 1000.52 -1.96997 -1.82881 0
M  V30 10057 C 998.794 -3.57323 0.0741377 0
M  V30 10058 S 1000.35 -4.3728 -0.364901 0
M  V30 10059 H 997.171 -0.709171 0.050967 0
M  V30 10060 H 999.773 -1.77967 0.809194 0
M  V30 10061 H 998.477 -3.96528 1.05801 0
M  V30 10062 H 998.008 -3.8804 -0.647158 0
M  V30 10063 H 1000.02 -4.69224 -1.61379 0
M  V30 10064 N 999.196 -0.349774 -1.5367 0
M  V30 10065 C 1000.44 0.244343 -2.00617 0
M  V30 10066 C 1000.76 1.50567 -1.23914 0
M  V30 10067 O 1000.03 1.92784 -0.348016 0
M  V30 10068 H 998.615 0.0932792 -0.741153 0
M  V30 10069 H 1001.28 -0.472367 -1.89089 0
M  V30 10070 H 1000.37 0.482433 -3.08349 0
M  V30 10071 N 1000.67 1.57404 -0.0785433 0
M  V30 10072 C 1001.61 2.101 0.916013 0
M  V30 10073 C 1002.62 1.03459 1.25698 0
M  V30 10074 O 1003.81 1.30954 1.21299 0
M  V30 10075 C 1000.91 2.55202 2.22992 0
M  V30 10076 C 1000.08 3.85491 2.06678 0
M  V30 10077 C 999.14 4.16614 3.21433 0
M  V30 10078 O 998.166 4.86105 2.96126 0
M  V30 10079 N 999.368 3.70697 4.46726 0
M  V30 10080 H 1002.13 2.96054 0.466059 0
M  V30 10081 H 999.694 1.61546 0.107006 0
M  V30 10082 H 1001.69 2.7308 2.9868 0
M  V30 10083 H 1000.26 1.74348 2.59464 0
M  V30 10084 H 999.476 3.76925 1.15417 0
M  V30 10085 H 1000.76 4.70759 1.93036 0
M  V30 10086 H 1000.16 3.14571 4.70172 0
M  V30 10087 H 998.719 3.93762 5.19418 0
M  V30 10088 N 1002.15 -0.195058 1.56388 0
M  V30 10089 C 1003.1 -1.24175 1.94549 0
M  V30 10090 C 1004.07 -1.45229 0.806089 0
M  V30 10091 O 1005.25 -1.58362 1.06425 0
M  V30 10092 C 1002.39 -2.58145 2.29031 0
M  V30 10093 C 1001.51 -2.44669 3.56035 0
M  V30 10094 C 1000.64 -3.71342 3.7984 0
M  V30 10095 C 999.681 -3.52699 5.0027 0
M  V30 10096 N 998.818 -4.71385 5.20328 0
M  V30 10097 H 1003.66 -0.909319 2.83788 0
M  V30 10098 H 1001.19 -0.437641 1.40439 0
M  V30 10099 H 1003.15 -3.36195 2.4704 0
M  V30 10100 H 1001.78 -2.8943 1.42933 0
M  V30 10101 H 1000.83 -1.57916 3.46073 0
M  V30 10102 H 1002.15 -2.26827 4.44242 0
M  V30 10103 H 1001.3 -4.57832 3.98088 0
M  V30 10104 H 1000.04 -3.92138 2.89964 0
M  V30 10105 H 999.045 -2.64594 4.81944 0
M  V30 10106 H 1000.27 -3.33349 5.91655 0
M  V30 10107 H 998.216 -4.92444 4.33399 0
M  V30 10108 H 998.133 -4.56368 6.02714 0
M  V30 10109 H 999.401 -5.59226 5.43035 0
M  V30 10110 N 1003.63 -1.50653 -0.462772 0
M  V30 10111 C 1004.58 -1.70122 -1.55971 0
M  V30 10112 C 1005.55 -0.542581 -1.56988 0
M  V30 10113 O 1006.73 -0.774114 -1.74391 0
M  V30 10114 C 1003.87 -1.80899 -2.93887 0
M  V30 10115 C 1002.98 -3.08318 -3.02595 0
M  V30 10116 C 1002.12 -3.09841 -4.31477 0
M  V30 10117 C 1001.16 -4.3168 -4.33957 0
M  V30 10118 N 1000.3 -4.30894 -5.54323 0
M  V30 10119 H 1005.14 -2.63768 -1.38674 0
M  V30 10120 H 1002.67 -1.30746 -0.674091 0
M  V30 10121 H 1004.63 -1.85128 -3.73876 0
M  V30 10122 H 1003.26 -0.906854 -3.098 0
M  V30 10123 H 1002.31 -3.13521 -2.15427 0
M  V30 10124 H 1003.62 -3.98282 -3.00288 0
M  V30 10125 H 1002.78 -3.12845 -5.1982 0
M  V30 10126 H 1001.52 -2.17722 -4.36404 0
M  V30 10127 H 1000.52 -4.28879 -3.4401 0
M  V30 10128 H 1001.75 -5.25035 -4.30715 0
M  V30 10129 H 999.694 -3.41633 -5.6002 0
M  V30 10130 H 999.611 -5.14636 -5.53792 0
M  V30 10131 H 1000.88 -4.38056 -6.44769 0
M  V30 10132 N 1005.11 0.71652 -1.4037 0
M  V30 10133 C 1006.06 1.8306 -1.40562 0
M  V30 10134 C 1007.03 1.64009 -0.262697 0
M  V30 10135 O 1008.21 1.85157 -0.460619 0
M  V30 10136 C 1005.35 3.2076 -1.27307 0
M  V30 10137 C 1004.46 3.51389 -2.51296 0
M  V30 10138 C 1003.6 4.78589 -2.30491 0
M  V30 10139 C 1002.64 5.02119 -3.50061 0
M  V30 10140 N 1001.77 6.20533 -3.28457 0
M  V30 10141 H 1006.61 1.82231 -2.35788 0
M  V30 10142 H 1004.15 0.890198 -1.17106 0
M  V30 10143 H 1006.11 4.00274 -1.17628 0
M  V30 10144 H 1004.74 3.2082 -0.357005 0
M  V30 10145 H 1003.79 2.66436 -2.71507 0
M  V30 10146 H 1005.1 3.64686 -3.40302 0
M  V30 10147 H 1004.26 5.66119 -2.1816 0
M  V30 10148 H 1003 4.67499 -1.38909 0
M  V30 10149 H 1002 4.13044 -3.6287 0
M  V30 10150 H 1003.23 5.15082 -4.42569 0
M  V30 10151 H 1001.17 6.10695 -2.39556 0
M  V30 10152 H 1001.09 6.34502 -4.11027 0
M  V30 10153 H 1002.36 7.10853 -3.19857 0
M  V30 10154 N 1006.59 1.25851 0.948643 0
M  V30 10155 C 1007.52 1.09248 2.06367 0
M  V30 10156 C 1008.5 -0.000205168 1.701 0
M  V30 10157 O 1009.68 0.170442 1.93451 0
M  V30 10158 C 1006.81 0.716777 3.39823 0
M  V30 10159 C 1005.77 1.76036 3.90122 0
M  V30 10160 C 1005.09 1.23918 5.20143 0
M  V30 10161 C 1006.39 3.16039 4.15833 0
M  V30 10162 H 1008.09 2.02518 2.20515 0
M  V30 10163 H 1005.63 0.975093 1.05962 0
M  V30 10164 H 1007.59 0.587531 4.17284 0
M  V30 10165 H 1006.31 -0.251626 3.25629 0
M  V30 10166 H 1004.97 1.87815 3.14835 0
M  V30 10167 H 1004.62 0.260836 5.02323 0
M  V30 10168 H 1004.32 1.93673 5.54765 0
M  V30 10169 H 1005.84 1.12245 6.00194 0
M  V30 10170 H 1007.25 3.0738 4.83933 0
M  V30 10171 H 1005.65 3.83317 4.61723 0
M  V30 10172 H 1006.72 3.62652 3.21887 0
M  V30 10173 N 1008.06 -1.15214 1.07534 0
M  V30 10174 C 1009.31 -1.86319 0.800814 0
M  V30 10175 C 1009.64 -1.82221 -0.671494 0
M  V30 10176 O 1008.92 -1.24664 -1.49295 0
M  V30 10177 C 1009.2 -3.35347 1.31203 0
M  V30 10178 C 1009.05 -3.48067 2.84902 0
M  V30 10179 C 1010.37 -4.3016 0.930064 0
M  V30 10180 H 1007.49 -0.676523 0.292379 0
M  V30 10181 H 1010.13 -1.35349 1.33344 0
M  V30 10182 H 1008.28 -3.78886 0.858949 0
M  V30 10183 H 1009.96 -3.13379 3.38514 0
M  V30 10184 H 1008.2 -2.89566 3.23008 0
M  V30 10185 H 1008.87 -4.52782 3.15741 0
M  V30 10186 H 1011.35 -3.94591 1.3205 0
M  V30 10187 H 1010.22 -5.32914 1.31507 0
M  V30 10188 H 1010.48 -4.41796 -0.163824 0
M  V30 10189 N 1009.54 -0.859717 -1.32086 0
M  V30 10190 C 1010.79 -0.461779 -1.96343 0
M  V30 10191 C 1011.1 0.988837 -1.68764 0
M  V30 10192 O 1012.31 1.49244 -2.268 0
M  V30 10193 C 1010.77 -0.77484 -3.5146 0
M  V30 10194 C 1010.37 -2.24153 -3.87891 0
M  V30 10195 C 1012.12 -0.444873 -4.22162 0
M  V30 10196 C 1010.03 -2.49754 -5.36075 0
M  V30 10197 H 1008.96 -0.168951 -0.734828 0
M  V30 10198 H 1011.61 -1.0512 -1.50406 0
M  V30 10199 H 1009.99 -0.114792 -3.95834 0
M  V30 10200 H 1011.16 -2.94378 -3.54511 0
M  V30 10201 H 1009.48 -2.53651 -3.30227 0
M  V30 10202 H 1012.07 -0.613508 -5.31169 0
M  V30 10203 H 1012.42 0.61391 -4.11749 0
M  V30 10204 H 1012.95 -1.06103 -3.83389 0
M  V30 10205 H 1009.69 -3.54276 -5.51515 0
M  V30 10206 H 1009.21 -1.84112 -5.70844 0
M  V30 10207 H 1010.89 -2.3396 -6.03218 0
M  V30 10208 N 1011.02 1.44971 -0.618145 0
M  V30 10209 C 1011.97 2.32354 0.106846 0
M  V30 10210 C 1012.96 1.4659 0.848984 0
M  V30 10211 O 1014.17 1.63012 0.763354 0
M  V30 10212 H 1010.54 0.750108 0.0533109 0
M  V30 10213 H 1012.51 2.9127 -0.648426 0
M  V30 10214 C 1011.26 3.30381 1.08368 0
M  V30 10215 H 1010.59 3.96377 0.52205 0
M  V30 10216 H 1012.03 3.94231 1.56069 0
M  V30 10217 C 1010.49 2.58336 2.1625 0
M  V30 10218 O 1011.02 2.37258 3.24148 0
M  V30 10219 N 1009.22 2.18292 1.91825 0
M  V30 10220 H 1008.77 2.35635 1.04086 0
M  V30 10221 H 1008.73 1.70413 2.6421 0
M  V30 10222 N 1012.5 0.357919 1.53482 0
M  V30 10223 C 1013.72 -0.237769 2.06033 0
M  V30 10224 C 1014.15 -1.42292 1.23023 0
M  V30 10225 O 1013.51 -1.79604 0.247427 0
M  V30 10226 C 1013.55 -0.616806 3.55286 0
M  V30 10227 O 1012.66 -1.71503 3.75047 0
M  V30 10228 H 1012 -0.0364322 0.663 0
M  V30 10229 H 1014.53 0.516301 1.97979 0
M  V30 10230 H 1014.54 -0.88996 3.98175 0
M  V30 10231 H 1013.21 0.249825 4.15149 0
M  V30 10232 H 1011.79 -1.43803 3.44057 0
M  V30 10233 N 1013.98 -1.5736 0.0868897 0
M  V30 10234 C 1015.22 -1.9367 -0.577598 0
M  V30 10235 C 1015.55 -0.968844 -1.69229 0
M  V30 10236 O 1014.82 -0.0195061 -1.9589 0
M  V30 10237 H 1013.4 -0.714983 -0.216353 0
M  V30 10238 H 1016.06 -1.94335 0.148294 0
M  V30 10239 H 1015.15 -2.95877 -0.993128 0
M  V30 10240 N 1015.45 0.186762 -1.56489 0
M  V30 10241 C 1016.4 1.25084 -1.96104 0
M  V30 10242 C 1017.4 1.4667 -0.847609 0
M  V30 10243 O 1018.6 1.47432 -1.03266 0
M  V30 10244 H 1014.98 0.420121 -0.623701 0
M  V30 10245 H 1016.95 0.889761 -2.84826 0
M  V30 10246 C 1015.7 2.5863 -2.32392 0
M  V30 10247 H 1015.02 2.42838 -3.176 0
M  V30 10248 H 1016.46 3.3181 -2.63967 0
M  V30 10249 C 1014.92 3.16241 -1.16159 0
M  V30 10250 O 1015.45 3.99272 -0.441034 0
M  V30 10251 N 1013.66 2.75106 -0.936206 0
M  V30 10252 H 1013.2 2.0769 -1.5239 0
M  V30 10253 H 1013.16 3.13991 -0.160317 0
M  V30 10254 N 1016.93 1.50896 0.454776 0
M  V30 10255 C 1018.18 1.62378 1.20324 0
M  V30 10256 C 1018.5 0.333883 1.9212 0
M  V30 10257 O 1017.77 -0.649477 1.8482 0
M  V30 10258 H 1016.35 0.598395 0.447139 0
M  V30 10259 H 1019.01 1.87749 0.523102 0
M  V30 10260 H 1018.11 2.44296 1.94232 0
M  V30 10261 N 1018.41 -0.709066 1.40748 0
M  V30 10262 C 1019.37 -1.80485 1.41272 0
M  V30 10263 C 1020.37 -1.57872 0.305463 0
M  V30 10264 O 1021.56 -1.64793 0.564691 0
M  V30 10265 C 1018.7 -3.1867 1.21087 0
M  V30 10266 H 1019.89 -1.81417 2.38805 0
M  V30 10267 H 1017.44 -0.915356 1.26692 0
M  V30 10268 H 1018.18 -3.23385 0.243406 0
M  V30 10269 H 1017.96 -3.36484 2.01299 0
M  V30 10270 H 1019.45 -3.98685 1.24257 0
M  V30 10271 N 1019.89 -1.26353 -0.941956 0
M  V30 10272 C 1021.14 -1.12017 -1.69056 0
M  V30 10273 C 1021.47 0.335856 -1.91274 0
M  V30 10274 O 1020.74 1.24677 -1.49285 0
M  V30 10275 C 1021.03 -1.88889 -3.06583 0
M  V30 10276 C 1020.88 -3.42394 -2.91696 0
M  V30 10277 C 1022.2 -1.68209 -4.06686 0
M  V30 10278 H 1019.32 -0.408311 -0.613556 0
M  V30 10279 H 1021.96 -1.55339 -1.09407 0
M  V30 10280 H 1020.11 -1.5207 -3.57501 0
M  V30 10281 H 1021.78 -3.88962 -2.48005 0
M  V30 10282 H 1020.02 -3.69459 -2.27338 0
M  V30 10283 H 1020.7 -3.91408 -3.89235 0
M  V30 10284 H 1023.17 -2.00286 -3.64726 0
M  V30 10285 H 1022.05 -2.24412 -5.00929 0
M  V30 10286 H 1022.31 -0.626474 -4.37639 0
M  V30 10287 N 1021.37 1.14642 -1.08144 0
M  V30 10288 C 1022.28 2.23257 -0.720668 0
M  V30 10289 C 1023.29 1.71866 0.271648 0
M  V30 10290 O 1024.47 2.01064 0.116266 0
M  V30 10291 C 1021.53 3.46447 -0.132542 0
M  V30 10292 C 1020.6 4.12789 -1.17913 0
M  V30 10293 C 1019.83 5.30099 -0.618971 0
M  V30 10294 O 1020.05 5.6762 0.562418 0
M  V30 10295 O 1018.99 5.86154 -1.36774 0
M  V30 10296 H 1022.81 2.56463 -1.62667 0
M  V30 10297 H 1020.4 1.22521 -0.854932 0
M  V30 10298 H 1022.28 4.20959 0.19277 0
M  V30 10299 H 1020.95 3.14971 0.746662 0
M  V30 10300 H 1019.86 3.40163 -1.55693 0
M  V30 10301 H 1021.19 4.48365 -2.03051 0
M  V30 10302 N 1022.85 0.866709 1.31628 0
M  V30 10303 C 1024.12 0.396828 1.91532 0
M  V30 10304 C 1024.5 -1.12081 1.78889 0
M  V30 10305 O 1023.85 -1.94791 1.19452 0
M  V30 10306 C 1024.06 0.874578 3.37864 0
M  V30 10307 C 1025.41 0.8988 4.14978 0
M  V30 10308 O 1026.43 0.820014 3.46633 0
M  V30 10309 O 1025.29 1.01223 5.37044 0
M  V30 10310 H 1022.39 0.1181 0.818524 0
M  V30 10311 H 1024.93 0.954407 1.40318 0
M  V30 10312 H 1023.7 1.91807 3.41066 0
M  V30 10313 H 1023.33 0.295126 3.96503 0
M  V30 10314 N 1024.32 -1.44642 0.625825 0
M  V30 10315 C 1025.74 -1.56925 0.290992 0
M  V30 10316 C 1025.94 -1.61424 -1.20601 0
M  V30 10317 O 1025 -1.55439 -1.98985 0
M  V30 10318 C 1026.31 -2.84343 0.978242 0
M  V30 10319 C 1027.86 -2.98047 0.955882 0
M  V30 10320 C 1028.33 -4.2826 1.62349 0
M  V30 10321 N 1029.82 -4.35062 1.58983 0
M  V30 10322 C 1030.56 -5.34524 2.07538 0
M  V30 10323 N 1030.05 -6.4042 2.6426 0
M  V30 10324 N 1031.85 -5.25998 1.98198 0
M  V30 10325 H 1024 -1.39965 1.59761 0
M  V30 10326 H 1026.26 -0.670368 0.670306 0
M  V30 10327 H 1025.97 -2.86985 2.03304 0
M  V30 10328 H 1025.84 -3.73699 0.512726 0
M  V30 10329 H 1028.23 -2.94961 -0.0904292 0
M  V30 10330 H 1028.31 -2.10053 1.45984 0
M  V30 10331 H 1027.95 -4.32105 2.66923 0
M  V30 10332 H 1027.88 -5.15102 1.09441 0
M  V30 10333 H 1030.37 -3.59147 1.17565 0
M  V30 10334 H 1030.69 -7.1259 2.99056 0
M  V30 10335 H 1029.03 -6.41121 2.68308 0
M  V30 10336 H 1032.22 -4.42178 1.5361 0
M  V30 10337 H 1032.4 -6.03359 2.3635 0
M  V30 10338 N 1025.8 -0.366053 -1.5329 0
M  V30 10339 C 1026.75 0.480205 -2.25749 0
M  V30 10340 C 1027.72 1.07713 -1.2644 0
M  V30 10341 O 1028.9 1.10953 -1.55222 0
M  V30 10342 C 1026.04 1.61374 -3.05045 0
M  V30 10343 C 1025.16 1.04194 -4.19246 0
M  V30 10344 C 1024.29 2.14462 -4.85983 0
M  V30 10345 C 1023.33 1.5475 -5.92215 0
M  V30 10346 N 1022.47 2.58852 -6.52641 0
M  V30 10347 H 1027.31 -0.144199 -2.97651 0
M  V30 10348 H 1024.84 -0.0829321 -1.46866 0
M  V30 10349 H 1026.8 2.28144 -3.49294 0
M  V30 10350 H 1025.43 2.2088 -2.35397 0
M  V30 10351 H 1024.48 0.264514 -3.79479 0
M  V30 10352 H 1025.8 0.565379 -4.95585 0
M  V30 10353 H 1024.95 2.89051 -5.33418 0
M  V30 10354 H 1023.69 2.6547 -4.09117 0
M  V30 10355 H 1022.69 0.786759 -5.44142 0
M  V30 10356 H 1023.92 1.04566 -6.71001 0
M  V30 10357 H 1021.87 3.09073 -5.78627 0
M  V30 10358 H 1021.78 2.15884 -7.24521 0
M  V30 10359 H 1023.05 3.33142 -7.04724 0
M  V30 10360 N 1027.28 1.57312 -0.0952337 0
M  V30 10361 C 1028.69 1.81589 0.433875 0
M  V30 10362 C 1029.04 1.01086 1.68155 0
M  V30 10363 O 1028.17 0.240272 2.15062 0
M  V30 10364 C 1028.76 3.29366 0.793931 0
M  V30 10365 C 1027.32 3.54407 1.26778 0
M  V30 10366 C 1026.47 2.76035 0.264518 0
M  V30 10367 H 1029.42 1.55426 -0.320675 0
M  V30 10368 H 1029.44 3.42697 1.65345 0
M  V30 10369 H 1028.95 3.87932 -0.114334 0
M  V30 10370 H 1027.05 3.01173 2.19376 0
M  V30 10371 H 1027.17 4.63055 1.22952 0
M  V30 10372 H 1025.53 2.43509 0.746691 0
M  V30 10373 H 1026.31 3.37349 -0.636429 0
M  V30 10374 N 1028.76 -0.17846 1.56586 0
M  V30 10375 C 1029.98 -0.916061 1.86073 0
M  V30 10376 C 1030.41 -1.75349 0.680754 0
M  V30 10377 O 1029.77 -1.77479 -0.37028 0
M  V30 10378 C 1029.81 -1.77445 3.1392 0
M  V30 10379 O 1028.92 -2.87524 2.95641 0
M  V30 10380 H 1028.26 -0.257031 0.612234 0
M  V30 10381 H 1030.79 -0.178755 2.03818 0
M  V30 10382 H 1030.8 -2.1758 3.45142 0
M  V30 10383 H 1029.47 -1.15927 3.99417 0
M  V30 10384 H 1028.05 -2.51023 2.75757 0
M  V30 10385 N 1030.24 -1.51135 -0.446768 0
M  V30 10386 C 1031.48 -1.63013 -1.19461 0
M  V30 10387 C 1031.8 -0.344067 -1.91941 0
M  V30 10388 O 1031.07 0.639666 -1.85162 0
M  V30 10389 H 1029.65 -0.600757 -0.443959 0
M  V30 10390 H 1032.32 -1.88024 -0.513137 0
M  V30 10391 H 1031.41 -2.45322 -1.92933 0
M  V30 10392 N 1031.71 0.701592 -1.41122 0
M  V30 10393 C 1032.64 1.82815 -1.45262 0
M  V30 10394 C 1033.62 1.67215 -0.311939 0
M  V30 10395 O 1034.81 1.87038 -0.522538 0
M  V30 10396 C 1031.94 3.20899 -1.32819 0
M  V30 10397 C 1030.89 3.51194 -2.44636 0
M  V30 10398 C 1030.22 4.8857 -2.17263 0
M  V30 10399 C 1031.52 3.50777 -3.86979 0
M  V30 10400 H 1033.21 1.79608 -2.39544 0
M  V30 10401 H 1030.76 0.862693 -1.15298 0
M  V30 10402 H 1032.71 3.99417 -1.34329 0
M  V30 10403 H 1031.44 3.24717 -0.350191 0
M  V30 10404 H 1030.1 2.75024 -2.42399 0
M  V30 10405 H 1029.74 4.89007 -1.17819 0
M  V30 10406 H 1029.44 5.09805 -2.92186 0
M  V30 10407 H 1030.97 5.69405 -2.20478 0
M  V30 10408 H 1032.38 4.19309 -3.90964 0
M  V30 10409 H 1030.78 3.83542 -4.61536 0
M  V30 10410 H 1031.85 2.49873 -4.15562 0
M  V30 10411 N 1033.19 1.2685 0.935242 0
M  V30 10412 C 1034.14 1.08746 2.05614 0
M  V30 10413 C 1035.13 0.012681 1.69395 0
M  V30 10414 O 1036.34 0.169822 1.79197 0
M  V30 10415 H 1032.71 0.33485 0.673335 0
M  V30 10416 H 1034.69 2.03725 2.18033 0
M  V30 10417 C 1033.43 0.74346 3.39659 0
M  V30 10418 H 1032.76 1.56236 3.68008 0
M  V30 10419 H 1034.2 0.656607 4.18885 0
M  V30 10420 C 1032.66 -0.551751 3.32351 0
M  V30 10421 O 1033.19 -1.58836 3.68963 0
M  V30 10422 N 1031.39 -0.544583 2.85452 0
M  V30 10423 H 1030.94 0.29939 2.55854 0
M  V30 10424 H 1030.9 -1.41129 2.80945 0
M  V30 10425 N 1034.67 -1.14067 1.0875 0
M  V30 10426 C 1035.92 -1.84819 0.817698 0
M  V30 10427 C 1036.24 -1.83545 -0.658488 0
M  V30 10428 O 1035.51 -1.28633 -1.47751 0
M  V30 10429 H 1034.09 -0.68433 0.299502 0
M  V30 10430 H 1036.75 -1.38208 1.37421 0
M  V30 10431 H 1035.85 -2.89541 1.16501 0
M  V30 10432 N 1036.15 -0.873678 -1.31166 0
M  V30 10433 C 1037.06 -0.335726 -2.32185 0
M  V30 10434 C 1038.07 0.556259 -1.64869 0
M  V30 10435 O 1039.25 0.452087 -1.9626 0
M  V30 10436 C 1036.32 0.450822 -3.43756 0
M  V30 10437 C 1035.38 -0.469565 -4.26724 0
M  V30 10438 C 1034.61 0.279538 -5.32967 0
M  V30 10439 O 1034.83 1.50715 -5.50128 0
M  V30 10440 O 1033.77 -0.36452 -6.00795 0
M  V30 10441 H 1037.59 -1.17314 -2.80127 0
M  V30 10442 H 1035.18 -0.637163 -1.35132 0
M  V30 10443 H 1037.06 0.896582 -4.11752 0
M  V30 10444 H 1035.73 1.26472 -2.9797 0
M  V30 10445 H 1034.64 -0.963902 -3.61469 0
M  V30 10446 H 1035.97 -1.24916 -4.76085 0
M  V30 10447 N 1037.63 1.44308 -0.633487 0
M  V30 10448 C 1038.59 2.2912 0.060376 0
M  V30 10449 C 1039.59 1.41166 0.769992 0
M  V30 10450 O 1040.78 1.63012 0.614224 0
M  V30 10451 C 1037.91 3.22798 1.0961 0
M  V30 10452 H 1039.1 2.91958 -0.685617 0
M  V30 10453 H 1036.66 1.51259 -0.393738 0
M  V30 10454 H 1037.39 2.64815 1.87199 0
M  V30 10455 H 1037.18 3.87618 0.591161 0
M  V30 10456 H 1038.67 3.86504 1.58127 0
M  V30 10457 N 1039.1 0.374177 1.53094 0
M  V30 10458 C 1040.33 -0.215903 2.06273 0
M  V30 10459 C 1040.75 -1.40979 1.24526 0
M  V30 10460 O 1040.11 -1.79331 0.266462 0
M  V30 10461 C 1040.16 -0.579089 3.5592 0
M  V30 10462 O 1039.26 -1.67516 3.76845 0
M  V30 10463 H 1038.61 -0.0293981 0.663349 0
M  V30 10464 H 1041.14 0.537271 1.9742 0
M  V30 10465 H 1041.15 -0.847678 3.99097 0
M  V30 10466 H 1039.82 0.293843 4.14861 0
M  V30 10467 H 1038.4 -1.40146 3.45563 0
M  V30 10468 N 1040.58 -1.57259 0.103575 0
M  V30 10469 C 1041.53 -2.14487 -0.852295 0
M  V30 10470 C 1042.5 -1.06567 -1.27407 0
M  V30 10471 O 1043.68 -1.34398 -1.35432 0
M  V30 10472 C 1040.82 -2.73632 -2.10284 0
M  V30 10473 C 1039.94 -3.95811 -1.73083 0
M  V30 10474 C 1039.07 -4.43093 -2.92988 0
M  V30 10475 C 1038.11 -5.5784 -2.51953 0
M  V30 10476 N 1037.25 -5.99936 -3.64721 0
M  V30 10477 H 1042.09 -2.95849 -0.35743 0
M  V30 10478 H 1039.63 -1.46175 -0.164748 0
M  V30 10479 H 1041.58 -3.06046 -2.83534 0
M  V30 10480 H 1040.21 -1.94985 -2.57256 0
M  V30 10481 H 1039.27 -3.69656 -0.897688 0
M  V30 10482 H 1040.58 -4.79066 -1.38916 0
M  V30 10483 H 1039.73 -4.77335 -3.74481 0
M  V30 10484 H 1038.47 -3.58756 -3.30372 0
M  V30 10485 H 1037.48 -5.23217 -1.6889 0
M  V30 10486 H 1038.7 -6.43932 -2.15705 0
M  V30 10487 H 1036.65 -5.18543 -4.01807 0
M  V30 10488 H 1036.56 -6.78008 -3.34427 0
M  V30 10489 H 1037.83 -6.38812 -4.46699 0
M  V30 10490 N 1042.06 0.170153 -1.56679 0
M  V30 10491 C 1043.29 0.90618 -1.86556 0
M  V30 10492 C 1043.71 1.74986 -0.690044 0
M  V30 10493 O 1043.07 1.77672 0.360862 0
M  V30 10494 C 1043.12 1.75777 -3.14857 0
M  V30 10495 O 1042.22 2.85952 -2.97162 0
M  V30 10496 H 1041.56 0.253781 -0.613589 0
M  V30 10497 H 1044.09 0.167943 -2.0391 0
M  V30 10498 H 1044.1 2.15747 -3.46291 0
M  V30 10499 H 1042.78 1.13807 -4.00026 0
M  V30 10500 H 1041.35 2.49557 -2.77084 0
M  V30 10501 N 1043.54 1.5137 0.438746 0
M  V30 10502 C 1044.47 1.68774 1.55074 0
M  V30 10503 C 1045.48 0.568436 1.52554 0
M  V30 10504 O 1046.67 0.842707 1.57355 0
M  V30 10505 C 1043.77 1.68592 2.9399 0
M  V30 10506 C 1042.95 2.97084 3.2103 0
M  V30 10507 C 1042 2.89108 4.39663 0
M  V30 10508 O 1041.03 3.63052 4.38385 0
M  V30 10509 N 1042.23 2.04863 5.4315 0
M  V30 10510 H 1045 2.647 1.40549 0
M  V30 10511 H 1042.56 1.49238 0.627663 0
M  V30 10512 H 1044.55 1.60826 3.71372 0
M  V30 10513 H 1043.12 0.802657 3.02119 0
M  V30 10514 H 1042.34 3.18729 2.3196 0
M  V30 10515 H 1043.63 3.82143 3.35923 0
M  V30 10516 H 1043.03 1.4416 5.47023 0
M  V30 10517 H 1041.58 2.02977 6.1939 0
M  V30 10518 N 1045.02 -0.694098 1.41492 0
M  V30 10519 C 1045.93 -1.83778 1.45818 0
M  V30 10520 C 1046.94 -1.70471 0.348639 0
M  V30 10521 O 1048.12 -1.92361 0.596588 0
M  V30 10522 C 1045.18 -3.19771 1.33967 0
M  V30 10523 C 1044.24 -3.45175 2.5525 0
M  V30 10524 C 1043.48 -4.74681 2.43955 0
M  V30 10525 O 1043.7 -5.51268 1.46491 0
M  V30 10526 O 1042.63 -5.00901 3.33739 0
M  V30 10527 H 1046.46 -1.83084 2.42309 0
M  V30 10528 H 1044.05 -0.847349 1.23046 0
M  V30 10529 H 1045.93 -4.00961 1.29648 0
M  V30 10530 H 1044.6 -3.21145 0.405926 0
M  V30 10531 H 1043.51 -2.6391 2.65146 0
M  V30 10532 H 1044.84 -3.48617 3.47458 0
M  V30 10533 N 1046.49 -1.27344 -0.928501 0
M  V30 10534 C 1047.43 -1.04322 -2.02959 0
M  V30 10535 C 1048.41 0.0361118 -1.6256 0
M  V30 10536 O 1049.59 -0.108872 -1.88185 0
M  V30 10537 C 1046.72 -0.582329 -3.33656 0
M  V30 10538 C 1045.76 -1.65611 -3.93033 0
M  V30 10539 S 1046.6 -3.2484 -4.25722 0
M  V30 10540 C 1047.75 -2.8055 -5.59502 0
M  V30 10541 H 1047.98 -1.97548 -2.22176 0
M  V30 10542 H 1045.52 -1.11167 -1.07151 0
M  V30 10543 H 1047.48 -0.323095 -4.09227 0
M  V30 10544 H 1046.14 0.329858 -3.12363 0
M  V30 10545 H 1045.33 -1.28491 -4.87346 0
M  V30 10546 H 1044.93 -1.86738 -3.24045 0
M  V30 10547 H 1047.22 -2.25803 -6.38764 0
M  V30 10548 H 1048.17 -3.73603 -6.0152 0
M  V30 10549 H 1048.57 -2.19717 -5.19985 0
M  V30 10550 N 1047.97 1.13488 -1.09353 0
M  V30 10551 C 1049.22 1.85022 -0.830354 0
M  V30 10552 C 1049.55 1.83266 0.64242 0
M  V30 10553 O 1048.83 1.27024 1.47293 0
M  V30 10554 C 1049.11 3.33218 -1.36521 0
M  V30 10555 C 1048.96 3.43491 -2.90404 0
M  V30 10556 C 1050.28 4.28626 -0.998381 0
M  V30 10557 H 1047.4 0.671786 -0.303105 0
M  V30 10558 H 1050.04 1.33211 -1.3548 0
M  V30 10559 H 1048.19 3.77471 -0.919117 0
M  V30 10560 H 1049.86 3.07954 -3.43456 0
M  V30 10561 H 1048.11 2.84391 -3.27573 0
M  V30 10562 H 1048.78 4.47702 -3.22905 0
M  V30 10563 H 1051.25 3.9244 -1.38311 0
M  V30 10564 H 1050.13 5.30754 -1.39968 0
M  V30 10565 H 1050.39 4.42001 0.093517 0
M  V30 10566 N 1049.45 0.880621 1.30701 0
M  V30 10567 C 1050.4 0.315679 2.25804 0
M  V30 10568 C 1051.39 -0.553382 1.51084 0
M  V30 10569 O 1052.58 -0.398518 1.72455 0
M  V30 10570 C 1049.71 -0.472586 3.40032 0
M  V30 10571 C 1048.79 0.410318 4.2211 0
M  V30 10572 N 1049.18 1.50876 4.82773 0
M  V30 10573 C 1047.48 0.20465 4.4553 0
M  V30 10574 C 1048.18 2.05409 5.44226 0
M  V30 10575 N 1047.16 1.34964 5.26579 0
M  V30 10576 H 1050.96 1.15505 2.70251 0
M  V30 10577 H 1048.47 0.729547 1.45091 0
M  V30 10578 H 1050.47 -0.893918 4.07204 0
M  V30 10579 H 1049.13 -1.30945 2.97125 0
M  V30 10580 H 1050.14 1.89163 4.82118 0
M  V30 10581 H 1046.82 -0.595398 4.13233 0
M  V30 10582 H 1048.21 2.97627 6.02385 0
M  V30 10583 N 1050.93 -1.4397 0.641131 0
M  V30 10584 C 1051.86 -2.33458 -0.04446 0
M  V30 10585 C 1052.84 -1.48781 -0.824507 0
M  V30 10586 O 1054.03 -1.77477 -0.788397 0
M  V30 10587 C 1051.16 -3.31989 -1.01984 0
M  V30 10588 C 1050.11 -4.2656 -0.350745 0
M  V30 10589 C 1049.44 -5.15036 -1.43673 0
M  V30 10590 C 1050.74 -5.16897 0.749299 0
M  V30 10591 H 1052.43 -2.91034 0.702832 0
M  V30 10592 H 1049.98 -1.39942 0.339435 0
M  V30 10593 H 1051.93 -3.93483 -1.50828 0
M  V30 10594 H 1050.65 -2.72643 -1.79815 0
M  V30 10595 H 1049.31 -3.66413 0.117139 0
M  V30 10596 H 1048.96 -4.52037 -2.20617 0
M  V30 10597 H 1048.66 -5.79125 -0.994358 0
M  V30 10598 H 1050.18 -5.79403 -1.92678 0
M  V30 10599 H 1051.6 -5.7227 0.343534 0
M  V30 10600 H 1049.99 -5.89643 1.11541 0
M  V30 10601 H 1051.06 -4.5731 1.61232 0
M  V30 10602 N 1052.41 -0.382291 -1.52893 0
M  V30 10603 C 1053.65 0.202433 -2.01787 0
M  V30 10604 C 1053.99 1.47044 -1.26853 0
M  V30 10605 O 1053.26 1.91007 -0.366969 0
M  V30 10606 C 1053.54 0.477471 -3.5692 0
M  V30 10607 C 1053.4 -0.805339 -4.42532 0
M  V30 10608 C 1054.72 1.27106 -4.21346 0
M  V30 10609 H 1051.84 0.0720998 -0.733465 0
M  V30 10610 H 1054.48 -0.510478 -1.83014 0
M  V30 10611 H 1052.63 1.08478 -3.73048 0
M  V30 10612 H 1054.3 -1.4424 -4.3817 0
M  V30 10613 H 1052.54 -1.42216 -4.09826 0
M  V30 10614 H 1053.21 -0.567635 -5.49074 0
M  V30 10615 H 1055.69 0.757161 -4.09153 0
M  V30 10616 H 1054.57 1.43225 -5.29885 0
M  V30 10617 H 1054.83 2.28431 -3.78513 0
M  V30 10618 N 1053.89 1.57202 -0.111913 0
M  V30 10619 C 1054.83 2.16186 0.858286 0
M  V30 10620 C 1055.83 1.10917 1.28039 0
M  V30 10621 O 1057.03 1.29233 1.25295 0
M  V30 10622 H 1053.41 0.691777 0.29487 0
M  V30 10623 H 1055.38 2.96499 0.336265 0
M  V30 10624 C 1054.13 2.77024 2.10127 0
M  V30 10625 H 1053.45 3.5772 1.78539 0
M  V30 10626 H 1054.89 3.21841 2.76033 0
M  V30 10627 C 1053.35 1.73752 2.88638 0
M  V30 10628 O 1053.88 1.18659 3.83774 0
M  V30 10629 N 1052.09 1.43855 2.52496 0
M  V30 10630 H 1051.63 1.88846 1.75199 0
M  V30 10631 H 1051.59 0.749985 3.05324 0
M  V30 10632 N 1055.36 -0.161842 1.56767 0
M  V30 10633 C 1056.31 -1.2002 1.97139 0
M  V30 10634 C 1057.28 -1.43486 0.836713 0
M  V30 10635 O 1058.47 -1.56069 1.0976 0
M  V30 10636 C 1055.61 -2.53228 2.34456 0
M  V30 10637 C 1054.72 -2.37062 3.61145 0
M  V30 10638 C 1053.85 -3.63202 3.87631 0
M  V30 10639 C 1052.89 -3.42008 5.07638 0
M  V30 10640 N 1052.03 -4.60242 5.30209 0
M  V30 10641 H 1056.87 -0.848918 2.85653 0
M  V30 10642 H 1054.41 -0.407753 1.41336 0
M  V30 10643 H 1056.36 -3.30879 2.54116 0
M  V30 10644 H 1054.99 -2.86333 1.4904 0
M  V30 10645 H 1054.05 -1.50539 3.49345 0
M  V30 10646 H 1055.36 -2.17353 4.48953 0
M  V30 10647 H 1054.51 -4.49285 4.0771 0
M  V30 10648 H 1053.25 -3.85899 2.98216 0
M  V30 10649 H 1052.26 -2.54312 4.87448 0
M  V30 10650 H 1053.48 -3.20724 5.98593 0
M  V30 10651 H 1051.43 -4.8314 4.43747 0
M  V30 10652 H 1051.34 -4.43481 6.12259 0
M  V30 10653 H 1052.61 -5.47581 5.54775 0
M  V30 10654 N 1056.84 -1.516 -0.430713 0
M  V30 10655 C 1057.75 -1.76247 -1.54836 0
M  V30 10656 C 1058.77 -0.646985 -1.61524 0
M  V30 10657 O 1059.94 -0.929987 -1.78643 0
M  V30 10658 C 1057.01 -1.88833 -2.90763 0
M  V30 10659 C 1056.07 -3.12701 -2.94137 0
M  V30 10660 C 1055.3 -3.24676 -4.23581 0
M  V30 10661 O 1055.53 -2.42429 -5.16318 0
M  V30 10662 O 1054.46 -4.17697 -4.33374 0
M  V30 10663 H 1058.29 -2.71069 -1.3695 0
M  V30 10664 H 1055.87 -1.36182 -0.614396 0
M  V30 10665 H 1057.75 -1.99057 -3.71422 0
M  V30 10666 H 1056.43 -0.971987 -3.08762 0
M  V30 10667 H 1055.33 -3.0795 -2.1241 0
M  V30 10668 H 1056.67 -4.04045 -2.81084 0
M  V30 10669 N 1058.32 0.686584 -1.41858 0
M  V30 10670 C 1059.54 1.4802 -1.45275 0
M  V30 10671 C 1059.97 1.87997 -0.0621297 0
M  V30 10672 O 1059.33 1.55226 0.936733 0
M  V30 10673 C 1059.38 2.7133 -2.37513 0
M  V30 10674 O 1058.48 3.69159 -1.83836 0
M  V30 10675 H 1057.82 0.445152 -0.492682 0
M  V30 10676 H 1060.35 0.843161 -1.86419 0
M  V30 10677 H 1060.36 3.19537 -2.53693 0
M  V30 10678 H 1059.04 2.41571 -3.3855 0
M  V30 10679 H 1057.61 3.28134 -1.77151 0
M  V30 10680 N 1059.8 1.27835 0.921735 0
M  V30 10681 C 1061.02 1.17465 1.70929 0
M  V30 10682 C 1061.45 -0.264171 1.86236 0
M  V30 10683 O 1060.81 -1.19124 1.36671 0
M  V30 10684 C 1060.85 1.8697 3.08342 0
M  V30 10685 O 1059.96 1.17173 3.95404 0
M  V30 10686 H 1059.3 0.408206 0.523702 0
M  V30 10687 H 1061.83 1.69013 1.15307 0
M  V30 10688 H 1061.84 1.94564 3.58621 0
M  V30 10689 H 1060.51 2.91633 2.96518 0
M  V30 10690 H 1059.09 1.17688 3.53842 0
M  V30 10691 N 1061.28 -1.12907 1.09954 0
M  V30 10692 C 1062.19 -2.22082 0.756095 0
M  V30 10693 C 1063.2 -1.72277 -0.244272 0
M  V30 10694 O 1064.38 -2.01224 -0.0842637 0
M  V30 10695 C 1061.44 -3.46192 0.187642 0
M  V30 10696 C 1060.5 -4.10861 1.24465 0
M  V30 10697 C 1059.74 -5.29047 0.703227 0
M  V30 10698 O 1059.96 -5.68443 -0.472043 0
M  V30 10699 O 1058.89 -5.83904 1.46082 0
M  V30 10700 H 1062.72 -2.53842 1.66727 0
M  V30 10701 H 1060.3 -1.21145 0.874316 0
M  V30 10702 H 1062.19 -4.21212 -0.125774 0
M  V30 10703 H 1060.86 -3.16119 -0.696459 0
M  V30 10704 H 1059.77 -3.37643 1.61085 0
M  V30 10705 H 1061.1 -4.45078 2.10159 0
M  V30 10706 N 1062.75 -0.88754 -1.30232 0
M  V30 10707 C 1063.98 -0.522306 -2.00199 0
M  V30 10708 C 1064.4 0.889866 -1.66514 0
M  V30 10709 O 1063.75 1.58558 -0.903639 0
M  V30 10710 C 1063.8 -0.690551 -3.54843 0
M  V30 10711 O 1063.53 -2.04713 -3.8733 0
M  V30 10712 C 1065.03 -0.328649 -4.4208 0
M  V30 10713 H 1062.25 -0.201628 -0.63999 0
M  V30 10714 H 1064.79 -1.19355 -1.66056 0
M  V30 10715 H 1062.95 -0.0666493 -3.87343 0
M  V30 10716 H 1063.36 -2.06762 -4.82027 0
M  V30 10717 H 1064.83 -0.497257 -5.49756 0
M  V30 10718 H 1065.31 0.733502 -4.33032 0
M  V30 10719 H 1065.92 -0.928982 -4.1503 0
M  V30 10720 N 1064.23 1.43628 -0.648757 0
M  V30 10721 C 1065.64 1.85142 -0.24066 0
M  V30 10722 C 1065.99 1.54304 1.21181 0
M  V30 10723 O 1065.12 0.989792 1.92437 0
M  V30 10724 C 1065.71 3.3606 -0.429999 0
M  V30 10725 C 1064.27 3.76323 -0.0762588 0
M  V30 10726 C 1063.42 2.67382 -0.734999 0
M  V30 10727 H 1066.37 1.33844 -0.852734 0
M  V30 10728 H 1066.39 3.79102 0.325836 0
M  V30 10729 H 1065.9 3.58474 -1.48721 0
M  V30 10730 H 1064.01 3.59521 0.978529 0
M  V30 10731 H 1064.12 4.76498 -0.498612 0
M  V30 10732 H 1062.48 2.54141 -0.168644 0
M  V30 10733 H 1063.27 2.92625 -1.79515 0
M  V30 10734 N 1065.71 0.390394 1.52688 0
M  V30 10735 C 1066.99 -0.249068 1.94008 0
M  V30 10736 C 1067.37 -1.64263 1.32593 0
M  V30 10737 O 1066.72 -2.23086 0.494448 0
M  V30 10738 C 1066.93 -0.274318 3.4792 0
M  V30 10739 C 1068.27 -0.502743 4.21613 0
M  V30 10740 O 1069.3 -0.35448 3.54432 0
M  V30 10741 O 1068.16 -0.79334 5.40711 0
M  V30 10742 H 1065.25 -0.155116 0.812323 0
M  V30 10743 H 1067.8 0.44498 1.63762 0
M  V30 10744 H 1066.57 0.701766 3.84956 0
M  V30 10745 H 1066.19 -1.01324 3.84473 0
M  V30 10746 N 1067.19 -1.57141 0.120249 0
M  V30 10747 C 1068.12 -2.12454 -0.859987 0
M  V30 10748 C 1069.13 -1.06755 -1.22911 0
M  V30 10749 O 1070.32 -1.34124 -1.17784 0
M  V30 10750 C 1067.42 -2.61024 -2.16147 0
M  V30 10751 C 1066.6 -3.90835 -1.96385 0
M  V30 10752 C 1065.65 -4.2499 -3.10274 0
M  V30 10753 O 1064.68 -4.93786 -2.83133 0
M  V30 10754 N 1065.88 -3.82411 -4.36741 0
M  V30 10755 H 1068.65 -2.97186 -0.387402 0
M  V30 10756 H 1066.21 -1.61773 -0.0641376 0
M  V30 10757 H 1068.2 -2.80903 -2.91334 0
M  V30 10758 H 1066.77 -1.81166 -2.5475 0
M  V30 10759 H 1065.99 -3.79853 -1.05383 0
M  V30 10760 H 1067.28 -4.75712 -1.80487 0
M  V30 10761 H 1066.68 -3.26926 -4.61666 0
M  V30 10762 H 1065.23 -4.07395 -5.08795 0
M  V30 10763 N 1068.67 0.153526 -1.5685 0
M  V30 10764 C 1069.91 0.867232 -1.8299 0
M  V30 10765 C 1070.24 1.81462 -0.700125 0
M  V30 10766 O 1069.5 1.93207 0.311348 0
M  V30 10767 C 1069.8 1.68066 -3.15418 0
M  V30 10768 C 1069.46 0.880635 -4.42217 0
M  V30 10769 C 1068.12 0.659899 -4.76654 0
M  V30 10770 C 1070.48 0.320698 -5.20212 0
M  V30 10771 C 1067.8 -0.131588 -5.86552 0
M  V30 10772 C 1070.16 -0.457794 -6.30941 0
M  V30 10773 C 1068.82 -0.689168 -6.63933 0
M  V30 10774 H 1068.09 0.317343 -0.669608 0
M  V30 10775 H 1070.74 0.131208 -1.9105 0
M  V30 10776 H 1069.04 2.4866 -3.02779 0
M  V30 10777 H 1070.74 2.23623 -3.32857 0
M  V30 10778 H 1067.33 1.06274 -4.15215 0
M  V30 10779 H 1071.51 0.47853 -4.93988 0
M  V30 10780 H 1066.77 -0.320413 -6.1056 0
M  V30 10781 H 1070.94 -0.898839 -6.90575 0
M  V30 10782 H 1068.57 -1.30433 -7.48927 0
M  V30 10783 N 1070.14 1.51827 0.422667 0
M  V30 10784 C 1071.08 1.68901 1.53453 0
M  V30 10785 C 1072.06 0.536549 1.53492 0
M  V30 10786 O 1073.24 0.762226 1.72402 0
M  V30 10787 C 1070.37 1.71599 2.92013 0
M  V30 10788 C 1069.41 2.92984 3.0994 0
M  V30 10789 S 1070.25 4.53559 2.84683 0
M  V30 10790 C 1071.4 4.59024 4.25498 0
M  V30 10791 H 1071.63 2.62943 1.38739 0
M  V30 10792 H 1069.17 1.41695 0.613347 0
M  V30 10793 H 1071.13 1.73838 3.71874 0
M  V30 10794 H 1069.79 0.787083 3.04079 0
M  V30 10795 H 1068.98 2.91315 4.1128 0
M  V30 10796 H 1068.58 2.88562 2.37924 0
M  V30 10797 H 1070.87 4.35567 5.18929 0
M  V30 10798 H 1071.82 5.60904 4.32195 0
M  V30 10799 H 1072.22 3.88193 4.09837 0
M  V30 10800 N 1071.62 -0.679052 1.4222 0
M  V30 10801 C 1072.85 -1.46747 1.45852 0
M  V30 10802 C 1073.27 -1.88675 0.0685937 0
M  V30 10803 O 1072.62 -1.57861 -0.915757 0
M  V30 10804 C 1072.67 -2.71935 2.38188 0
M  V30 10805 O 1072.39 -2.31768 3.71773 0
M  V30 10806 C 1073.9 -3.65536 2.50796 0
M  V30 10807 H 1071.12 -0.451682 0.49621 0
M  V30 10808 H 1073.66 -0.834723 1.86689 0
M  V30 10809 H 1071.81 -3.31409 2.00616 0
M  V30 10810 H 1072.23 -3.12579 4.21182 0
M  V30 10811 H 1073.7 -4.50113 3.19535 0
M  V30 10812 H 1074.18 -4.11148 1.54447 0
M  V30 10813 H 1074.79 -3.11957 2.89072 0
M  V30 10814 N 1073.1 -1.28322 -0.914942 0
M  V30 10815 C 1074.06 -1.12169 -1.99877 0
M  V30 10816 C 1075.06 -0.0617252 -1.60681 0
M  V30 10817 O 1076.25 -0.307405 -1.71466 0
M  V30 10818 C 1073.39 -0.711959 -3.33383 0
M  V30 10819 H 1074.58 -2.08425 -2.15636 0
M  V30 10820 H 1072.13 -1.11291 -1.09745 0
M  V30 10821 H 1072.87 0.251418 -3.23324 0
M  V30 10822 H 1072.65 -1.47764 -3.63192 0
M  V30 10823 H 1074.14 -0.621558 -4.12948 0
M  V30 10824 N 1074.58 1.12322 -1.10551 0
M  V30 10825 C 1075.86 1.80201 -0.760715 0
M  V30 10826 C 1076.24 1.97228 0.752628 0
M  V30 10827 O 1075.58 1.54958 1.67929 0
M  V30 10828 C 1075.79 3.14491 -1.51316 0
M  V30 10829 C 1077.14 3.89671 -1.68647 0
M  V30 10830 O 1078.17 3.24151 -1.47664 0
M  V30 10831 O 1077.02 5.0722 -2.03445 0
M  V30 10832 H 1074.12 0.780084 -0.274587 0
M  V30 10833 H 1076.66 1.19147 -1.20839 0
M  V30 10834 H 1075.44 2.97396 -2.54306 0
M  V30 10835 H 1075.06 3.83253 -1.05842 0
M  V30 10836 N 1076.06 0.894434 1.2976 0
M  V30 10837 C 1076.97 0.372622 2.31622 0
M  V30 10838 C 1077.98 -0.52996 1.65733 0
M  V30 10839 O 1079.16 -0.420807 1.96955 0
M  V30 10840 C 1076.22 -0.396076 3.4443 0
M  V30 10841 C 1075.28 0.537394 4.25923 0
M  V30 10842 C 1074.52 -0.194713 5.33345 0
M  V30 10843 O 1074.74 -1.41943 5.52457 0
M  V30 10844 O 1073.67 0.460055 6.00139 0
M  V30 10845 H 1077.5 1.21756 2.78225 0
M  V30 10846 H 1075.09 0.65858 1.34101 0
M  V30 10847 H 1076.97 -0.830962 4.13126 0
M  V30 10848 H 1075.64 -1.21716 2.99945 0
M  V30 10849 H 1074.55 1.02129 3.5989 0
M  V30 10850 H 1075.88 1.32475 4.74037 0
M  V30 10851 N 1077.53 -1.43282 0.656365 0
M  V30 10852 C 1078.76 -2.06125 0.178879 0
M  V30 10853 C 1079.18 -1.49216 -1.15672 0
M  V30 10854 O 1078.53 -0.624693 -1.71475 0
M  V30 10855 C 1078.59 -3.614 0.0851785 0
M  V30 10856 O 1078.31 -4.16194 1.36798 0
M  V30 10857 C 1079.81 -4.41325 -0.41801 0
M  V30 10858 H 1077.03 -0.664753 0.0913504 0
M  V30 10859 H 1079.57 -1.83733 0.897901 0
M  V30 10860 H 1077.73 -3.82966 -0.584421 0
M  V30 10861 H 1078.14 -5.09892 1.22924 0
M  V30 10862 H 1079.61 -5.50303 -0.432519 0
M  V30 10863 H 1080.09 -4.14577 -1.44991 0
M  V30 10864 H 1080.7 -4.24735 0.219208 0
M  V30 10865 N 1079.01 -0.398486 -1.52479 0
M  V30 10866 C 1080.43 -0.0488635 -1.59525 0
M  V30 10867 C 1080.63 1.43756 -1.41197 0
M  V30 10868 O 1079.69 2.20317 -1.23357 0
M  V30 10869 C 1081 -0.534262 -2.95916 0
M  V30 10870 C 1082.55 -0.491314 -3.0912 0
M  V30 10871 C 1083.02 -0.953049 -4.47974 0
M  V30 10872 N 1084.51 -0.909434 -4.54184 0
M  V30 10873 C 1085.25 -1.23801 -5.59876 0
M  V30 10874 N 1084.74 -1.63752 -6.73169 0
M  V30 10875 N 1086.54 -1.15867 -5.50028 0
M  V30 10876 H 1078.69 -1.36608 -1.62641 0
M  V30 10877 H 1080.95 -0.560515 -0.764544 0
M  V30 10878 H 1080.66 -1.57277 -3.14574 0
M  V30 10879 H 1080.53 0.0617787 -3.77149 0
M  V30 10880 H 1082.92 0.538123 -2.90152 0
M  V30 10881 H 1083 -1.12327 -2.29818 0
M  V30 10882 H 1082.64 -1.98076 -4.67684 0
M  V30 10883 H 1082.57 -0.298007 -5.25756 0
M  V30 10884 H 1085.06 -0.615569 -3.72853 0
M  V30 10885 H 1085.38 -1.87163 -7.49793 0
M  V30 10886 H 1083.72 -1.67647 -6.74477 0
M  V30 10887 H 1086.91 -0.845502 -4.60401 0
M  V30 10888 H 1087.09 -1.41805 -6.32294 0
M  V30 10889 N 1080.49 1.57075 -0.12858 0
M  V30 10890 C 1081.44 2.17084 0.835308 0
M  V30 10891 C 1082.43 1.12268 1.26855 0
M  V30 10892 O 1083.64 1.30554 1.23917 0
M  V30 10893 H 1080.01 0.694866 0.287516 0
M  V30 10894 H 1081.99 2.96839 0.304798 0
M  V30 10895 C 1080.73 2.79237 2.07177 0
M  V30 10896 H 1080.06 3.59594 1.74735 0
M  V30 10897 H 1081.5 3.24751 2.72604 0
M  V30 10898 C 1079.96 1.76803 2.86779 0
M  V30 10899 O 1080.49 1.22723 3.82494 0
M  V30 10900 N 1078.69 1.46525 2.50956 0
M  V30 10901 H 1078.24 1.90694 1.73187 0
M  V30 10902 H 1078.2 0.782326 3.04511 0
M  V30 10903 N 1081.97 -0.145205 1.5693 0
M  V30 10904 C 1082.9 -1.18096 2.01434 0
M  V30 10905 C 1083.88 -1.447 0.894204 0
M  V30 10906 O 1085.07 -1.55589 1.16214 0
M  V30 10907 C 1082.2 -2.51369 2.39647 0
M  V30 10908 C 1081.15 -2.39283 3.54863 0
M  V30 10909 C 1080.48 -3.77283 3.78895 0
M  V30 10910 C 1081.78 -1.8754 4.87469 0
M  V30 10911 H 1083.47 -0.810897 2.8821 0
M  V30 10912 H 1081.02 -0.388624 1.38657 0
M  V30 10913 H 1082.97 -3.24054 2.69382 0
M  V30 10914 H 1081.69 -2.90214 1.49811 0
M  V30 10915 H 1080.35 -1.6905 3.25296 0
M  V30 10916 H 1080 -4.13567 2.86307 0
M  V30 10917 H 1079.7 -3.70057 4.56433 0
M  V30 10918 H 1081.22 -4.51514 4.11057 0
M  V30 10919 H 1082.64 -2.50019 5.1591 0
M  V30 10920 H 1081.03 -1.912 5.68826 0
M  V30 10921 H 1082.1 -0.831194 4.77723 0
M  V30 10922 N 1083.45 -1.52049 -0.414609 0
M  V30 10923 C 1084.38 -1.7122 -1.52369 0
M  V30 10924 C 1085.39 -0.592634 -1.5163 0
M  V30 10925 O 1086.58 -0.867634 -1.55995 0
M  V30 10926 C 1083.68 -1.73247 -2.91271 0
M  V30 10927 C 1082.85 -3.02153 -3.16263 0
M  V30 10928 C 1081.91 -2.96066 -4.35007 0
M  V30 10929 O 1080.94 -3.69981 -4.32554 0
M  V30 10930 N 1082.14 -2.13478 -5.39822 0
M  V30 10931 H 1084.91 -2.66902 -1.3632 0
M  V30 10932 H 1082.47 -1.50218 -0.603842 0
M  V30 10933 H 1084.46 -1.66714 -3.68766 0
M  V30 10934 H 1083.03 -0.85062 -3.00804 0
M  V30 10935 H 1082.25 -3.22379 -2.2686 0
M  V30 10936 H 1083.54 -3.87439 -3.29801 0
M  V30 10937 H 1082.94 -1.52844 -5.44661 0
M  V30 10938 H 1081.49 -2.12805 -6.16082 0
M  V30 10939 N 1084.93 0.6715 -1.42579 0
M  V30 10940 C 1085.87 1.80623 -1.46554 0
M  V30 10941 C 1086.87 1.65934 -0.340932 0
M  V30 10942 O 1088.07 1.72502 -0.514098 0
M  V30 10943 H 1084.45 0.595619 -0.459067 0
M  V30 10944 H 1086.42 1.74388 -2.42139 0
M  V30 10945 C 1085.17 3.18794 -1.38801 0
M  V30 10946 H 1084.49 3.30725 -2.24635 0
M  V30 10947 H 1085.93 3.98201 -1.45645 0
M  V30 10948 C 1084.39 3.36742 -0.103219 0
M  V30 10949 O 1084.92 3.92761 0.842715 0
M  V30 10950 N 1083.13 2.90594 -0.0193034 0
M  V30 10951 H 1082.67 2.45192 -0.78986 0
M  V30 10952 H 1082.63 3.0298 0.839686 0
M  V30 10953 N 1086.4 1.28806 0.908124 0
M  V30 10954 C 1087.65 1.1646 1.66027 0
M  V30 10955 C 1087.98 -0.285025 1.92097 0
M  V30 10956 O 1087.26 -1.20675 1.52538 0
M  V30 10957 C 1087.54 1.96951 3.01467 0
M  V30 10958 C 1087.39 3.50007 2.82515 0
M  V30 10959 C 1088.71 1.78932 4.02084 0
M  V30 10960 H 1085.83 0.424435 0.602515 0
M  V30 10961 H 1088.47 1.58185 1.0525 0
M  V30 10962 H 1086.62 1.61495 3.53344 0
M  V30 10963 H 1088.3 3.95401 2.37605 0
M  V30 10964 H 1086.54 3.75356 2.17463 0
M  V30 10965 H 1087.21 4.01591 3.7872 0
M  V30 10966 H 1089.69 2.09885 3.59287 0
M  V30 10967 H 1088.56 2.37615 4.94803 0
M  V30 10968 H 1088.82 0.742286 4.35824 0
M  V30 10969 N 1087.88 -1.11734 1.11145 0
M  V30 10970 C 1089.16 -1.79795 0.770261 0
M  V30 10971 C 1089.54 -1.97624 -0.742158 0
M  V30 10972 O 1088.89 -1.55847 -1.67105 0
M  V30 10973 C 1089.1 -3.13684 1.52982 0
M  V30 10974 C 1090.44 -3.88771 1.70711 0
M  V30 10975 O 1091.47 -3.23363 1.49381 0
M  V30 10976 O 1090.33 -5.06134 2.06132 0
M  V30 10977 H 1087.42 -0.778617 0.27872 0
M  V30 10978 H 1089.97 -1.18504 1.2147 0
M  V30 10979 H 1088.74 -2.96043 2.55879 0
M  V30 10980 H 1088.36 -3.82687 1.07873 0
M  V30 10981 N 1089.36 -0.901303 -1.29284 0
M  V30 10982 C 1090.29 -0.32479 -2.25877 0
M  V30 10983 C 1091.27 0.563944 -1.52507 0
M  V30 10984 O 1092.45 0.510393 -1.81459 0
M  V30 10985 C 1089.58 0.536897 -3.34418 0
M  V30 10986 C 1088.63 -0.28474 -4.25548 0
M  V30 10987 S 1089.46 -1.68355 -5.08347 0
M  V30 10988 C 1090.62 -0.828826 -6.20388 0
M  V30 10989 H 1090.85 -1.14352 -2.74428 0
M  V30 10990 H 1088.38 -0.701749 -1.37531 0
M  V30 10991 H 1090.34 1.02827 -3.97413 0
M  V30 10992 H 1089 1.32988 -2.84558 0
M  V30 10993 H 1088.19 0.373566 -5.02614 0
M  V30 10994 H 1087.8 -0.709313 -3.67212 0
M  V30 10995 H 1090.09 -0.0529234 -6.77479 0
M  V30 10996 H 1091.03 -1.57161 -6.90439 0
M  V30 10997 H 1091.44 -0.382503 -5.63203 0
M  V30 10998 N 1090.84 1.42931 -0.663954 0
M  V30 10999 C 1091.78 2.3079 0.0210764 0
M  V30 11000 C 1092.75 1.45356 0.803796 0
M  V30 11001 O 1093.94 1.74207 0.778237 0
M  V30 11002 C 1091.08 3.31069 0.974023 0
M  V30 11003 C 1090.19 4.31598 0.186273 0
M  V30 11004 C 1089.33 5.18955 1.13399 0
M  V30 11005 C 1088.37 6.1117 0.337292 0
M  V30 11006 N 1087.5 6.91114 1.23715 0
M  V30 11007 H 1092.34 2.88819 -0.733995 0
M  V30 11008 H 1089.88 1.42274 -0.373711 0
M  V30 11009 H 1091.84 3.87727 1.54024 0
M  V30 11010 H 1090.47 2.74665 1.69585 0
M  V30 11011 H 1089.52 3.77147 -0.496402 0
M  V30 11012 H 1090.83 4.96919 -0.432753 0
M  V30 11013 H 1089.99 5.80292 1.77049 0
M  V30 11014 H 1088.73 4.53785 1.78691 0
M  V30 11015 H 1087.73 5.48911 -0.312492 0
M  V30 11016 H 1088.96 6.78386 -0.31138 0
M  V30 11017 H 1086.9 6.28583 1.87668 0
M  V30 11018 H 1086.82 7.52999 0.672946 0
M  V30 11019 H 1088.09 7.56948 1.86146 0
M  V30 11020 N 1092.32 0.406567 1.52266 0
M  V30 11021 C 1093.56 -0.171391 2.00971 0
M  V30 11022 C 1093.88 -1.46443 1.29668 0
M  V30 11023 O 1095.08 -2.12348 1.69176 0
M  V30 11024 C 1093.54 -0.35599 3.58135 0
M  V30 11025 C 1093.15 0.924803 4.38351 0
M  V30 11026 C 1094.89 -0.889378 4.15079 0
M  V30 11027 C 1092.8 0.707534 5.87152 0
M  V30 11028 H 1091.73 -0.0678253 0.750943 0
M  V30 11029 H 1094.38 0.531619 1.7563 0
M  V30 11030 H 1092.76 -1.12127 3.79794 0
M  V30 11031 H 1093.94 1.69603 4.28452 0
M  V30 11032 H 1092.25 1.38442 3.92712 0
M  V30 11033 H 1094.85 -1.06792 5.23927 0
M  V30 11034 H 1095.19 -1.86334 3.7227 0
M  V30 11035 H 1095.72 -0.183224 3.97378 0
M  V30 11036 H 1092.46 1.65299 6.34316 0
M  V30 11037 H 1091.98 -0.024446 5.99795 0
M  V30 11038 H 1093.66 0.348721 6.4606 0
M  V30 11039 N 1093.79 -1.57004 0.136909 0
M  V30 11040 C 1095.04 -1.9541 -0.51569 0
M  V30 11041 C 1095.36 -1.02219 -1.66061 0
M  V30 11042 O 1094.63 -0.0818172 -1.95729 0
M  V30 11043 H 1093.21 -0.721504 -0.193497 0
M  V30 11044 H 1095.88 -1.93765 0.210046 0
M  V30 11045 H 1094.97 -2.98887 -0.898494 0
M  V30 11046 N 1095.27 0.136881 -1.57004 0
M  V30 11047 C 1096.52 0.849031 -1.84172 0
M  V30 11048 C 1096.85 1.80359 -0.720027 0
M  V30 11049 O 1096.13 1.92538 0.275584 0
M  V30 11050 C 1096.41 1.61465 -3.21871 0
M  V30 11051 C 1096.26 0.680902 -4.44616 0
M  V30 11052 C 1097.58 2.57488 -3.56914 0
M  V30 11053 H 1094.7 0.307209 -0.669919 0
M  V30 11054 H 1097.34 0.113862 -1.89659 0
M  V30 11055 H 1095.49 2.24137 -3.17325 0
M  V30 11056 H 1097.16 0.0644094 -4.61255 0
M  V30 11057 H 1095.41 -0.00883629 -4.33799 0
M  V30 11058 H 1096.08 1.25286 -5.37594 0
M  V30 11059 H 1098.55 2.0493 -3.62136 0
M  V30 11060 H 1097.43 3.08101 -4.54274 0
M  V30 11061 H 1097.69 3.39321 -2.83397 0
M  V30 11062 O 1096.79 1.59029 0.28145 0
M  V30 11063 H 1097.48 1.70065 0.92723 0
M  V30 END ATOM
M  V30 BEGIN BOND
M  V30 END BOND
M  V30 END CTAB
M  END
$$$$
