drugbank_target|P16099 Trimethylamine dehydrogenase (DB03247)
 OpenBabel12092120273D

  0  0  0     0  0            999 V3000
M  V30 BEGIN CTAB
M  V30 COUNTS 11337 11481 0 0 0
M  V30 BEGIN ATOM
M  V30 1 H -0.908 1.98254 -0.117106 0
M  V30 2 N 0 1.576 0 0
M  V30 3 C 0.933 2.03868 1.02534 0
M  V30 4 C 1.911 0.928543 1.3348 0
M  V30 5 O 3.095 1.19667 1.45644 0
M  V30 6 C 0.222 2.43627 2.35294 0
M  V30 7 C -0.732 3.65373 2.2001 0
M  V30 8 S 0.101 5.13292 1.52614 0
M  V30 9 C 1.257 5.56322 2.86805 0
M  V30 10 H 1.49 2.90518 0.631377 0
M  V30 11 H -0.977 1.52953 0.210867 0
M  V30 12 H 0.981 2.67203 3.11629 0
M  V30 13 H -0.358 1.57376 2.7183 0
M  V30 14 H -1.165 3.90944 3.18086 0
M  V30 15 H -1.563 3.418 1.51819 0
M  V30 16 H 0.729 5.58782 3.83104 0
M  V30 17 H 1.672 6.56266 2.65933 0
M  V30 18 H 2.08 4.83886 2.90714 0
M  V30 19 N 1.4781 -0.272755 1.55222 0
M  V30 20 C 2.4411 -1.32041 1.87344 0
M  V30 21 C 3.4411 -1.42342 0.74803 0
M  V30 22 O 4.6311 -1.41488 1.0162 0
M  V30 23 C 1.7631 -2.70173 2.07893 0
M  V30 24 H 2.9561 -1.04789 2.80997 0
M  V30 25 H 0.5091 -0.51083 1.47717 0
M  V30 26 H 1.2441 -3.02605 1.16622 0
M  V30 27 H 1.0291 -2.64082 2.89833 0
M  V30 28 H 2.5191 -3.45869 2.34017 0
M  V30 29 N 2.9562 -1.48159 -0.537278 0
M  V30 30 C 4.3722 -1.34118 -0.865129 0
M  V30 31 C 4.5722 -0.346678 -1.98495 0
M  V30 32 O 3.6282 0.234715 -2.51407 0
M  V30 33 C 4.9412 -2.73963 -1.23954 0
M  V30 34 C 6.4892 -2.82397 -1.34984 0
M  V30 35 C 6.9642 -4.22928 -1.75772 0
M  V30 36 N 8.4552 -4.25566 -1.82887 0
M  V30 37 C 9.1902 -5.31235 -2.15817 0
M  V30 38 N 8.6862 -6.47189 -2.47222 0
M  V30 39 N 10.4792 -5.18624 -2.16761 0
M  V30 40 H 2.6302 -2.1144 0.201715 0
M  V30 41 H 4.8932 -0.947598 0.0275949 0
M  V30 42 H 4.5992 -3.48264 -0.490381 0
M  V30 43 H 4.4732 -3.0702 -2.19132 0
M  V30 44 H 6.8602 -2.08356 -2.08978 0
M  V30 45 H 6.9412 -2.5297 -0.379448 0
M  V30 46 H 6.5852 -4.97482 -1.02341 0
M  V30 47 H 6.5152 -4.49794 -2.73848 0
M  V30 48 H 9.0062 -3.41924 -1.60924 0
M  V30 49 H 9.3192 -7.23564 -2.71433 0
M  V30 50 H 7.6642 -6.50476 -2.44757 0
M  V30 51 H 10.8552 -4.27056 -1.91679 0
M  V30 52 H 11.0282 -6.01078 -2.42093 0
M  V30 53 N 4.4343 0.785586 -1.36625 0
M  V30 54 C 5.7113 1.53198 -1.21613 0
M  V30 55 C 6.0913 2.10187 0.196113 0
M  V30 56 O 5.4393 1.94318 1.20219 0
M  V30 57 C 5.6493 2.62388 -2.30116 0
M  V30 58 C 6.9973 3.30167 -2.66974 0
M  V30 59 O 8.0213 2.72674 -2.29188 0
M  V30 60 O 6.8803 4.34077 -3.32023 0
M  V30 61 H 3.9743 0.677865 -0.473738 0
M  V30 62 H 6.5203 0.823739 -1.48367 0
M  V30 63 H 5.2923 2.18299 -3.24748 0
M  V30 64 H 4.9153 3.40827 -2.0475 0
M  V30 65 N 5.9124 1.20967 1.01018 0
M  V30 66 C 7.3234 1.02319 1.56165 0
M  V30 67 C 7.6744 -0.418546 1.91684 0
M  V30 68 O 6.7994 -1.30096 1.72928 0
M  V30 69 C 7.3944 1.85109 2.8376 0
M  V30 70 C 5.9534 1.70809 3.35412 0
M  V30 71 C 5.1004 1.82643 2.08655 0
M  V30 72 H 8.0514 1.35065 0.833255 0
M  V30 73 H 8.0724 1.35827 3.55431 0
M  V30 74 H 7.5844 2.90035 2.57878 0
M  V30 75 H 5.6854 0.685464 3.66241 0
M  V30 76 H 5.7984 2.52467 4.07182 0
M  V30 77 H 4.1624 1.25896 2.21409 0
M  V30 78 H 4.9454 2.89066 1.85191 0
M  V30 79 N 7.3905 -1.2043 1.01659 0
M  V30 80 C 8.3375 -2.23215 0.586822 0
M  V30 81 C 9.3075 -1.61382 -0.393085 0
M  V30 82 O 10.4925 -1.88544 -0.292525 0
M  V30 83 C 7.6325 -3.45032 -0.0687464 0
M  V30 84 C 6.7455 -4.21296 0.955724 0
M  V30 85 C 5.8805 -5.30507 0.271208 0
M  V30 86 C 4.9195 -5.98515 1.28244 0
M  V30 87 N 4.0565 -6.99316 0.62459 0
M  V30 88 H 8.8965 -2.59336 1.46796 0
M  V30 89 H 6.4335 -1.27431 0.734836 0
M  V30 90 H 8.3915 -4.1459 -0.465965 0
M  V30 91 H 7.0215 -3.09604 -0.913529 0
M  V30 92 H 6.0735 -3.50803 1.4711 0
M  V30 93 H 7.3855 -4.6803 1.72479 0
M  V30 94 H 6.5395 -6.06428 -0.18151 0
M  V30 95 H 5.2785 -4.8481 -0.530163 0
M  V30 96 H 4.2835 -5.21355 1.74554 0
M  V30 97 H 5.5085 -6.46298 2.08509 0
M  V30 98 H 3.4545 -6.55812 -0.156914 0
M  V30 99 H 3.3715 -7.44178 1.33172 0
M  V30 100 H 4.6395 -7.79255 0.195462 0
M  V30 101 N 8.8686 -0.792821 -1.36206 0
M  V30 102 C 9.8186 -0.166598 -2.27391 0
M  V30 103 C 10.8026 0.651479 -1.47121 0
M  V30 104 O 11.9946 0.510994 -1.69463 0
M  V30 105 C 9.1236 0.695033 -3.36191 0
M  V30 106 C 8.2096 -0.132019 -4.23894 0
M  V30 107 N 8.6006 -1.18822 -4.91645 0
M  V30 108 C 6.8986 0.0885952 -4.45912 0
M  V30 109 C 7.5996 -1.69198 -5.56549 0
M  V30 110 N 6.5756 -1.00065 -5.34311 0
M  V30 111 H 10.3776 -0.974947 -2.77258 0
M  V30 112 H 7.8916 -0.632616 -1.49572 0
M  V30 113 H 9.8886 1.1596 -4.00448 0
M  V30 114 H 8.5486 1.50189 -2.87877 0
M  V30 115 H 9.5596 -1.57069 -4.93507 0
M  V30 116 H 6.2366 0.865688 -4.08426 0
M  V30 117 H 7.6266 -2.57395 -6.20643 0
M  V30 118 N 10.3467 1.47872 -0.545128 0
M  V30 119 C 11.6237 1.9554 0.0485222 0
M  V30 120 C 12.0037 1.4876 1.49779 0
M  V30 121 O 11.3517 0.720925 2.16829 0
M  V30 122 C 11.5617 3.48898 -0.084417 0
M  V30 123 C 12.9097 4.24547 0.0671239 0
M  V30 124 O 13.9337 3.56198 -0.0113649 0
M  V30 125 O 12.7927 5.45999 0.233882 0
M  V30 126 H 9.8867 0.823957 0.0708773 0
M  V30 127 H 12.4327 1.58327 -0.610798 0
M  V30 128 H 11.2047 3.75714 -1.09337 0
M  V30 129 H 10.8277 3.92845 0.613066 0
M  V30 130 N 11.8248 0.280983 1.55075 0
M  V30 131 C 13.0738 -0.334784 1.98902 0
M  V30 132 C 13.3868 -1.56534 1.17288 0
M  V30 133 O 14.5928 -2.25443 1.51287 0
M  V30 134 C 13.0488 -0.646994 3.54037 0
M  V30 135 C 12.6568 0.564085 4.44435 0
M  V30 136 C 14.4008 -1.22506 4.06439 0
M  V30 137 C 12.3078 0.226137 5.90967 0
M  V30 138 H 11.2378 -0.128866 0.742906 0
M  V30 139 H 13.8888 0.386556 1.79382 0
M  V30 140 H 12.2708 -1.42739 3.6938 0
M  V30 141 H 13.4448 1.34082 4.40861 0
M  V30 142 H 11.7598 1.0594 4.02698 0
M  V30 143 H 14.3568 -1.49182 5.13468 0
M  V30 144 H 14.6998 -2.16085 3.55827 0
M  V30 145 H 15.2328 -0.50682 3.94558 0
M  V30 146 H 11.9718 1.12996 6.45687 0
M  V30 147 H 11.4918 -0.513717 5.97596 0
M  V30 148 H 13.1708 -0.179539 6.46751 0
M  V30 149 N 13.3029 -1.57598 0.00835791 0
M  V30 150 C 14.2329 -2.1198 -0.979113 0
M  V30 151 C 15.2139 -1.03091 -1.35301 0
M  V30 152 O 16.3989 -1.30818 -1.43528 0
M  V30 153 C 13.5289 -2.62995 -2.26828 0
M  V30 154 C 12.4829 -3.76485 -2.03576 0
M  V30 155 C 11.8089 -4.13846 -3.38579 0
M  V30 156 C 13.1089 -5.0342 -1.39161 0
M  V30 157 H 14.8029 -2.94738 -0.526281 0
M  V30 158 H 12.3489 -1.41783 -0.251704 0
M  V30 159 H 14.3019 -2.99669 -2.96271 0
M  V30 160 H 13.0259 -1.7737 -2.7424 0
M  V30 161 H 11.6849 -3.40217 -1.36557 0
M  V30 162 H 11.3329 -3.25232 -3.83709 0
M  V30 163 H 11.0329 -4.90312 -3.23834 0
M  V30 164 H 12.5569 -4.53086 -4.09323 0
M  V30 165 H 13.9709 -5.37812 -1.98573 0
M  V30 166 H 12.3679 -5.84746 -1.34878 0
M  V30 167 H 13.4379 -4.83548 -0.361868 0
M  V30 168 N 14.781 0.264519 -1.55364 0
M  V30 169 C 16.028 0.994986 -1.7637 0
M  V30 170 C 16.356 1.85976 -0.5695 0
M  V30 171 O 15.611 1.90509 0.44776 0
M  V30 172 C 15.91 1.9004 -3.02687 0
M  V30 173 C 15.576 1.19243 -4.34847 0
M  V30 174 C 14.238 0.996709 -4.70764 0
M  V30 175 C 16.59 0.689296 -5.16622 0
M  V30 176 C 13.918 0.285261 -5.86006 0
M  V30 177 C 16.27 -0.00860079 -6.32599 0
M  V30 178 C 14.934 -0.215963 -6.67151 0
M  V30 179 H 14.204 0.364091 -0.645383 0
M  V30 180 H 16.851 0.266543 -1.89636 0
M  V30 181 H 15.156 2.69533 -2.84357 0
M  V30 182 H 16.853 2.46695 -3.16137 0
M  V30 183 H 13.443 1.3549 -4.06621 0
M  V30 184 H 17.627 0.828108 -4.89342 0
M  V30 185 H 12.883 0.113961 -6.11294 0
M  V30 186 H 17.057 -0.406186 -6.95214 0
M  V30 187 H 14.684 -0.769217 -7.56298 0
M  V30 188 N 16.2591 1.48442 0.529413 0
M  V30 189 C 17.1691 1.6569 1.66084 0
M  V30 190 C 18.1851 0.539432 1.65427 0
M  V30 191 O 19.3611 0.810572 1.84368 0
M  V30 192 C 16.4261 1.69315 3.02545 0
M  V30 193 C 15.4871 2.92694 3.14052 0
M  V30 194 C 14.7201 2.96137 4.44003 0
M  V30 195 O 14.9431 2.07973 5.31134 0
M  V30 196 O 13.8771 3.88312 4.59888 0
M  V30 197 H 17.7031 2.61483 1.54469 0
M  V30 198 H 15.2881 1.3185 0.702567 0
M  V30 199 H 17.1701 1.74217 3.83701 0
M  V30 200 H 15.8451 0.766966 3.14483 0
M  V30 201 H 14.7521 2.93324 2.32189 0
M  V30 202 H 16.0851 3.84699 3.0703 0
M  V30 203 N 17.7372 -0.778329 1.37039 0
M  V30 204 C 19.1482 -1.35421 1.28523 0
M  V30 205 C 19.4992 -1.96075 -0.0700901 0
M  V30 206 O 18.6242 -1.93352 -0.971801 0
M  V30 207 C 19.2192 -2.46211 2.32735 0
M  V30 208 C 17.7782 -2.99585 2.27873 0
M  V30 209 C 16.9252 -1.72748 2.16918 0
M  V30 210 H 19.8762 -0.5791 1.47757 0
M  V30 211 H 19.8972 -3.2552 1.9702 0
M  V30 212 H 19.4092 -2.02036 3.31365 0
M  V30 213 H 17.5102 -3.48152 1.32745 0
M  V30 214 H 17.6232 -3.55646 3.21018 0
M  V30 215 H 15.9872 -1.95416 1.63354 0
M  V30 216 H 16.7702 -1.30686 3.17452 0
M  V30 217 N 19.2153 -1.21501 -1.00376 0
M  V30 218 C 20.4643 -1.02718 -1.73586 0
M  V30 219 C 20.7773 0.439589 -1.90596 0
M  V30 220 O 21.9833 0.746848 -2.61026 0
M  V30 221 C 20.4393 -1.78929 -3.1227 0
M  V30 222 C 20.0473 -3.29783 -3.03228 0
M  V30 223 C 21.7913 -1.68557 -3.89601 0
M  V30 224 C 19.6983 -3.98479 -4.36999 0
M  V30 225 H 18.6283 -0.380733 -0.650814 0
M  V30 226 H 21.2793 -1.45248 -1.1214 0
M  V30 227 H 19.6613 -1.29192 -3.74333 0
M  V30 228 H 20.8353 -3.86832 -2.50395 0
M  V30 229 H 19.1503 -3.40711 -2.39385 0
M  V30 230 H 21.7473 -2.17211 -4.88593 0
M  V30 231 H 22.0903 -0.644021 -4.11288 0
M  V30 232 H 22.6233 -2.15778 -3.34193 0
M  V30 233 H 19.3623 -5.02841 -4.20513 0
M  V30 234 H 18.8823 -3.46219 -4.89788 0
M  V30 235 H 20.5613 -4.03462 -5.05794 0
M  V30 236 N 20.6934 1.19889 -1.02296 0
M  V30 237 C 21.6254 2.22334 -0.556787 0
M  V30 238 C 22.6384 1.58674 0.364199 0
M  V30 239 O 23.8274 1.77768 0.161533 0
M  V30 240 C 20.9274 3.38257 0.208694 0
M  V30 241 C 20.1004 4.31504 -0.71577 0
M  V30 242 C 19.1594 5.262 0.00325597 0
M  V30 243 O 18.1854 5.65798 -0.621357 0
M  V30 244 N 19.3874 5.66303 1.27599 0
M  V30 245 H 22.1524 2.62957 -1.43784 0
M  V30 246 H 19.7134 1.34495 -0.901261 0
M  V30 247 H 21.7054 3.98616 0.699111 0
M  V30 248 H 20.2754 2.96472 0.991102 0
M  V30 249 H 19.4954 3.69016 -1.38638 0
M  V30 250 H 20.7834 4.9072 -1.34428 0
M  V30 251 H 20.1814 5.36155 1.80429 0
M  V30 252 H 18.7384 6.28942 1.71102 0
M  V30 253 N 22.1715 0.800033 1.35784 0
M  V30 254 C 23.4205 0.37387 1.98205 0
M  V30 255 C 23.7335 -1.06302 1.64193 0
M  V30 256 O 24.9395 -1.59198 2.19928 0
M  V30 257 C 23.3955 0.617532 3.54562 0
M  V30 258 C 23.0035 2.06654 3.9749 0
M  V30 259 C 24.7475 0.256401 4.23725 0
M  V30 260 C 22.6545 2.2563 5.46667 0
M  V30 261 H 21.5845 0.136055 0.741623 0
M  V30 262 H 24.2355 0.983166 1.54939 0
M  V30 263 H 22.6175 -0.0616248 3.95952 0
M  V30 264 H 23.7915 2.78296 3.67271 0
M  V30 265 H 22.1065 2.38691 3.41197 0
M  V30 266 H 24.7035 0.376318 5.33374 0
M  V30 267 H 25.0465 -0.796692 4.08606 0
M  V30 268 H 25.5795 0.889214 3.87734 0
M  V30 269 H 22.3185 3.2936 5.66747 0
M  V30 270 H 21.8385 1.58504 5.78478 0
M  V30 271 H 23.5175 2.06861 6.1304 0
M  V30 272 N 23.6496 -1.47581 0.552962 0
M  V30 273 C 24.8976 -2.02082 0.0272703 0
M  V30 274 C 25.2186 -1.4301 -1.32563 0
M  V30 275 O 24.4886 -0.603745 -1.86365 0
M  V30 276 H 23.0686 -0.746966 0.00709182 0
M  V30 277 H 25.7306 -1.81033 0.722008 0
M  V30 278 H 24.8266 -3.12034 -0.0639951 0
M  V30 279 N 25.1277 -0.289203 -1.54924 0
M  V30 280 C 26.5387 0.205791 -1.85562 0
M  V30 281 C 26.8897 1.54351 -1.2112 0
M  V30 282 O 26.0147 2.10435 -0.504601 0
M  V30 283 C 26.6097 0.380177 -3.3666 0
M  V30 284 C 25.1687 0.819395 -3.67373 0
M  V30 285 C 24.3157 -0.079159 -2.77187 0
M  V30 286 H 27.2667 -0.510577 -1.50262 0
M  V30 287 H 27.2877 1.21659 -3.60526 0
M  V30 288 H 26.7997 -0.593589 -3.83534 0
M  V30 289 H 24.9007 1.80413 -3.26009 0
M  V30 290 H 25.0137 0.646957 -4.74712 0
M  V30 291 H 23.3777 0.439565 -2.50878 0
M  V30 292 H 24.1607 -1.04906 -3.26878 0
M  V30 293 N 26.6058 1.57591 -0.0167156 0
M  V30 294 C 27.5528 2.09462 0.969251 0
M  V30 295 C 28.5228 0.99381 1.33089 0
M  V30 296 O 29.7078 1.26726 1.42636 0
M  V30 297 C 26.8478 2.61622 2.25051 0
M  V30 298 C 25.9608 3.85666 1.94642 0
M  V30 299 C 25.0958 4.26266 3.16972 0
M  V30 300 C 24.1348 5.43101 2.82326 0
M  V30 301 N 23.2718 5.78915 3.97243 0
M  V30 302 H 28.1118 2.93428 0.519997 0
M  V30 303 H 25.6488 1.45044 0.245087 0
M  V30 304 H 27.6068 2.89949 2.99976 0
M  V30 305 H 26.2368 1.80505 2.67615 0
M  V30 306 H 25.2888 3.64145 1.10013 0
M  V30 307 H 26.6008 4.70678 1.65117 0
M  V30 308 H 25.7548 4.55963 4.00228 0
M  V30 309 H 24.4938 3.39996 3.49648 0
M  V30 310 H 23.4988 5.1311 1.97479 0
M  V30 311 H 24.7238 6.3106 2.50879 0
M  V30 312 H 22.6698 4.95602 4.29785 0
M  V30 313 H 22.5868 6.58539 3.71299 0
M  V30 314 H 23.8548 6.13212 4.81239 0
M  V30 315 N 28.0839 -0.256276 1.55502 0
M  V30 316 C 29.3119 -1.00342 1.8094 0
M  V30 317 C 29.7269 -1.79307 0.59114 0
M  V30 318 O 29.0839 -1.77114 -0.440081 0
M  V30 319 C 29.1349 -1.94875 3.04476 0
M  V30 320 O 28.8559 -1.19107 4.21598 0
M  V30 321 C 30.3569 -2.81266 3.42644 0
M  V30 322 H 27.5769 -0.295685 0.602338 0
M  V30 323 H 30.1209 -0.281998 2.02546 0
M  V30 324 H 28.2759 -2.62457 2.84947 0
M  V30 325 H 28.6899 -1.82969 4.91551 0
M  V30 326 H 30.1639 -3.43362 4.32211 0
M  V30 327 H 30.6409 -3.51897 2.62802 0
M  V30 328 H 31.2469 -2.1915 3.64491 0
M  V30 329 N 29.562 -1.4872 -0.521534 0
M  V30 330 C 30.492 -1.66771 -1.63431 0
M  V30 331 C 31.473 -0.516499 -1.62069 0
M  V30 332 O 32.658 -0.750013 -1.79132 0
M  V30 333 C 29.788 -1.71515 -3.01993 0
M  V30 334 C 28.742 -2.86222 -3.18216 0
M  V30 335 C 28.068 -2.76061 -4.57924 0
M  V30 336 C 29.368 -4.27419 -3.00184 0
M  V30 337 H 31.062 -2.59932 -1.48579 0
M  V30 338 H 28.608 -1.25089 -0.713358 0
M  V30 339 H 30.561 -1.82731 -3.7972 0
M  V30 340 H 29.285 -0.749393 -3.17886 0
M  V30 341 H 27.944 -2.74575 -2.42908 0
M  V30 342 H 27.592 -1.77437 -4.70665 0
M  V30 343 H 27.292 -3.53037 -4.69722 0
M  V30 344 H 28.816 -2.89256 -5.37739 0
M  V30 345 H 30.23 -4.39855 -3.67697 0
M  V30 346 H 28.627 -5.05458 -3.2347 0
M  V30 347 H 29.697 -4.43293 -1.96518 0
M  V30 348 N 31.0401 0.771051 -1.3745 0
M  V30 349 C 32.4561 1.07171 -1.18265 0
M  V30 350 C 32.6561 2.01491 -0.019287 0
M  V30 351 O 31.7121 2.44244 0.640408 0
M  V30 352 C 33.0251 1.66854 -2.50161 0
M  V30 353 C 34.5731 1.79109 -2.56689 0
M  V30 354 C 35.0481 2.42205 -3.88717 0
M  V30 355 N 36.5391 2.49655 -3.90162 0
M  V30 356 C 37.2741 2.9933 -4.8907 0
M  V30 357 N 36.7701 3.49172 -5.98374 0
M  V30 358 N 38.5631 2.9821 -4.76474 0
M  V30 359 H 30.7141 0.144796 -2.11906 0
M  V30 360 H 32.9771 0.126863 -0.939473 0
M  V30 361 H 32.6831 1.05017 -3.35655 0
M  V30 362 H 32.5571 2.6614 -2.673 0
M  V30 363 H 34.9441 2.40077 -1.71601 0
M  V30 364 H 35.0251 0.785757 -2.43433 0
M  V30 365 H 34.6691 1.81875 -4.74219 0
M  V30 366 H 34.5991 3.43345 -3.99276 0
M  V30 367 H 37.0901 2.14383 -3.11205 0
M  V30 368 H 37.4031 3.8548 -6.69795 0
M  V30 369 H 35.7481 3.47275 -6.02018 0
M  V30 370 H 38.9391 2.58572 -3.90203 0
M  V30 371 H 39.1121 3.36613 -5.53711 0
M  V30 372 N 32.5182 1.22032 0.997298 0
M  V30 373 C 33.4662 0.983634 2.10778 0
M  V30 374 C 34.4602 -0.0717564 1.69248 0
M  V30 375 O 35.6662 0.080304 1.79821 0
M  V30 376 H 32.0412 0.300877 0.689186 0
M  V30 377 H 34.0122 1.92606 2.27916 0
M  V30 378 C 32.7612 0.57326 3.42942 0
M  V30 379 H 32.0842 1.37702 3.75338 0
M  V30 380 H 33.5242 0.447031 4.21637 0
M  V30 381 C 31.9832 -0.7167 3.29188 0
M  V30 382 O 32.5132 -1.77027 3.60589 0
M  V30 383 N 30.7192 -0.686167 2.82383 0
M  V30 384 H 30.2662 0.171507 2.57028 0
M  V30 385 H 30.2242 -1.54955 2.73562 0
M  V30 386 N 33.9963 -1.19345 1.0293 0
M  V30 387 C 35.4123 -1.41069 0.746446 0
M  V30 388 C 35.6123 -1.90078 -0.668776 0
M  V30 389 O 34.6683 -2.0778 -1.4347 0
M  V30 390 C 35.9813 -2.42141 1.78292 0
M  V30 391 C 37.5293 -2.55887 1.80252 0
M  V30 392 C 38.0043 -3.60214 2.8286 0
M  V30 393 N 39.4953 -3.67711 2.81679 0
M  V30 394 C 40.2303 -4.48128 3.57727 0
M  V30 395 N 39.7263 -5.32248 4.43491 0
M  V30 396 N 41.5193 -4.42782 3.46267 0
M  V30 397 H 33.6703 -0.858536 1.94275 0
M  V30 398 H 35.9333 -0.439541 0.839945 0
M  V30 399 H 35.6393 -2.13155 2.79746 0
M  V30 400 H 35.5133 -3.41323 1.60557 0
M  V30 401 H 37.9003 -2.84196 0.794757 0
M  V30 402 H 37.9813 -1.56858 2.02062 0
M  V30 403 H 37.6253 -3.32647 3.83807 0
M  V30 404 H 37.5553 -4.58895 2.58307 0
M  V30 405 H 40.0463 -3.07634 2.19476 0
M  V30 406 H 40.3593 -5.90729 4.98256 0
M  V30 407 H 38.7043 -5.31707 4.47564 0
M  V30 408 H 41.8953 -3.76107 2.78677 0
M  V30 409 H 42.0683 -5.05215 4.05785 0
M  V30 410 N 35.4744 -0.807222 -1.35358 0
M  V30 411 C 36.7214 -0.387888 -1.9875 0
M  V30 412 C 37.0494 1.04509 -1.64037 0
M  V30 413 O 36.3044 1.73986 -0.895946 0
M  V30 414 C 36.6034 -0.519036 -3.53611 0
M  V30 415 C 36.2694 -1.91542 -4.08194 0
M  V30 416 C 34.9314 -2.29745 -4.22813 0
M  V30 417 C 37.2834 -2.82896 -4.37744 0
M  V30 418 C 34.6114 -3.58668 -4.643 0
M  V30 419 C 36.9634 -4.11265 -4.8067 0
M  V30 420 C 35.6274 -4.49466 -4.93494 0
M  V30 421 H 34.8974 -0.141938 -0.727279 0
M  V30 422 H 37.5444 -1.02814 -1.6156 0
M  V30 423 H 35.8494 0.204658 -3.91265 0
M  V30 424 H 37.5464 -0.175345 -4.00616 0
M  V30 425 H 34.1364 -1.60862 -3.97268 0
M  V30 426 H 38.3204 -2.54629 -4.26002 0
M  V30 427 H 33.5764 -3.88113 -4.72418 0
M  V30 428 H 37.7504 -4.82153 -5.02496 0
M  V30 429 H 35.3774 -5.49418 -5.25399 0
M  V30 430 N 36.9525 1.47285 -0.560781 0
M  V30 431 C 38.1825 2.06555 -0.0429638 0
M  V30 432 C 38.5905 1.41339 1.25777 0
M  V30 433 O 37.9335 0.505182 1.76617 0
M  V30 434 C 37.9955 3.58827 0.219887 0
M  V30 435 C 37.6595 4.46105 -0.991944 0
M  V30 436 C 38.6565 4.84 -1.89843 0
M  V30 437 C 36.3415 4.87567 -1.20762 0
M  V30 438 C 38.3355 5.6216 -3.00425 0
M  V30 439 C 36.0225 5.65491 -2.31653 0
M  V30 440 C 37.0205 6.02699 -3.21315 0
M  V30 441 O 36.7085 6.79052 -4.30283 0
M  V30 442 H 36.4405 0.674537 -0.0444468 0
M  V30 443 H 38.9945 1.90225 -0.774818 0
M  V30 444 H 37.2245 3.73383 1.00609 0
M  V30 445 H 38.9135 4.00103 0.683522 0
M  V30 446 H 39.6795 4.52564 -1.74387 0
M  V30 447 H 35.5585 4.5807 -0.518893 0
M  V30 448 H 39.1025 5.9112 -3.70436 0
M  V30 449 H 34.9995 5.9634 -2.47081 0
M  V30 450 H 35.7675 6.9745 -4.28376 0
M  V30 451 N 38.4306 0.297415 1.54768 0
M  V30 452 C 39.3626 -0.613881 2.20826 0
M  V30 453 C 40.3756 -1.10032 1.19987 0
M  V30 454 O 41.5646 -1.01839 1.46598 0
M  V30 455 C 38.6646 -1.852 2.83821 0
M  V30 456 C 37.8376 -1.50865 4.10559 0
M  V30 457 C 36.8966 -2.60154 4.57391 0
M  V30 458 O 35.9226 -2.25398 5.2267 0
M  V30 459 N 37.1246 -3.90629 4.29406 0
M  V30 460 H 39.8896 -0.048389 2.99661 0
M  V30 461 H 37.4506 0.11946 1.61459 0
M  V30 462 H 39.4426 -2.57652 3.12086 0
M  V30 463 H 38.0126 -2.32597 2.08847 0
M  V30 464 H 37.2326 -0.616925 3.89343 0
M  V30 465 H 38.5206 -1.25458 4.9309 0
M  V30 466 H 37.9186 -4.21677 3.77101 0
M  V30 467 H 36.4756 -4.59391 4.62388 0
M  V30 468 N 39.9087 -1.5758 0.0250728 0
M  V30 469 C 41.1547 -1.91917 -0.655413 0
M  V30 470 C 41.4877 -0.901433 -1.72011 0
M  V30 471 O 40.7627 0.0764069 -1.9435 0
M  V30 472 C 41.0457 -3.36751 -1.27558 0
M  V30 473 C 40.8987 -4.49258 -0.220719 0
M  V30 474 C 42.2177 -3.81469 -2.19475 0
M  V30 475 H 39.3367 -0.697925 -0.23679 0
M  V30 476 H 41.9787 -1.89825 0.0815036 0
M  V30 477 H 40.1287 -3.38664 -1.90365 0
M  V30 478 H 41.8007 -4.59478 0.409601 0
M  V30 479 H 40.0437 -4.31415 0.454264 0
M  V30 480 H 40.7147 -5.47618 -0.694175 0
M  V30 481 H 43.1907 -3.81266 -1.66659 0
M  V30 482 H 42.0667 -4.83512 -2.59822 0
M  V30 483 H 42.3277 -3.16744 -3.08424 0
M  V30 484 N 41.3868 0.248026 -1.55636 0
M  V30 485 C 42.7978 0.817177 -1.67866 0
M  V30 486 C 43.1488 1.86069 -0.622322 0
M  V30 487 O 42.2738 2.15157 0.231618 0
M  V30 488 C 42.8688 1.489 -3.04326 0
M  V30 489 C 41.4278 2.00587 -3.185 0
M  V30 490 C 40.5748 0.856573 -2.63739 0
M  V30 491 H 43.5258 0.0238579 -1.58682 0
M  V30 492 H 43.5468 2.35698 -2.98708 0
M  V30 493 H 43.0588 0.729279 -3.81186 0
M  V30 494 H 41.1598 2.79443 -2.4646 0
M  V30 495 H 41.2728 2.20402 -4.25393 0
M  V30 496 H 39.6368 1.25678 -2.21534 0
M  V30 497 H 40.4198 0.109953 -3.43124 0
M  V30 498 N 42.8649 1.48995 0.513639 0
M  V30 499 C 43.8149 1.61127 1.61314 0
M  V30 500 C 44.7989 0.467521 1.53958 0
M  V30 501 O 45.9909 0.719826 1.61702 0
M  V30 502 C 43.1199 1.66937 2.99978 0
M  V30 503 C 42.2059 2.86847 3.12377 0
M  V30 504 N 42.5969 4.11078 2.94701 0
M  V30 505 C 40.8949 2.84521 3.43459 0
M  V30 506 C 41.5959 4.91615 3.10949 0
M  V30 507 N 40.5719 4.24739 3.3926 0
M  V30 508 H 44.3739 2.54909 1.46282 0
M  V30 509 H 41.8879 1.45593 0.719483 0
M  V30 510 H 43.8849 1.73725 3.78979 0
M  V30 511 H 42.5449 0.742831 3.16089 0
M  V30 512 H 43.5559 4.41258 2.71131 0
M  V30 513 H 40.2329 2.01192 3.65825 0
M  V30 514 H 41.6229 6.00264 3.01882 0
M  V30 515 N 44.343 -0.763751 1.37857 0
M  V30 516 C 45.583 -1.53551 1.34913 0
M  V30 517 C 45.947 -1.91895 -0.0635882 0
M  V30 518 O 47.148 -2.67916 -0.217825 0
M  V30 519 C 45.419 -2.76126 2.26912 0
M  V30 520 S 46.978 -3.66105 2.41893 0
M  V30 521 H 43.796 -0.52559 0.478828 0
M  V30 522 H 46.398 -0.897435 1.73685 0
M  V30 523 H 45.102 -2.4605 3.28463 0
M  V30 524 H 44.633 -3.44887 1.89253 0
M  V30 525 H 46.648 -4.68473 1.63545 0
M  V30 526 N 45.8211 -1.22559 -0.990812 0
M  V30 527 C 47.0701 -1.04553 -1.72486 0
M  V30 528 C 47.3831 0.419349 -1.91052 0
M  V30 529 O 48.5891 0.719121 -2.61803 0
M  V30 530 C 47.0451 -1.82231 -3.10355 0
M  V30 531 C 46.6531 -3.32981 -2.99713 0
M  V30 532 C 48.3971 -1.7268 -3.87791 0
M  V30 533 C 46.3041 -4.03091 -4.32748 0
M  V30 534 H 45.2341 -0.387614 -0.646739 0
M  V30 535 H 47.8851 -1.46429 -1.10593 0
M  V30 536 H 46.2671 -1.33155 -3.72942 0
M  V30 537 H 47.4411 -3.89466 -2.46278 0
M  V30 538 H 45.7561 -3.43231 -2.35758 0
M  V30 539 H 48.3531 -2.22381 -4.86262 0
M  V30 540 H 48.6961 -0.687607 -4.10582 0
M  V30 541 H 49.2291 -2.1931 -3.31885 0
M  V30 542 H 45.9681 -5.07273 -4.15156 0
M  V30 543 H 45.4881 -3.51394 -4.86089 0
M  V30 544 H 47.1671 -4.08804 -5.01486 0
M  V30 545 N 47.2992 1.18797 -1.03562 0
M  V30 546 C 48.5472 1.88278 -0.734569 0
M  V30 547 C 48.8682 1.8043 0.739586 0
M  V30 548 O 48.1382 1.21925 1.53333 0
M  V30 549 H 46.7182 0.696991 -0.268725 0
M  V30 550 H 49.3802 1.44192 -1.31129 0
M  V30 551 H 48.4762 2.94443 -1.03489 0
M  V30 552 N 48.7773 0.814389 1.34928 0
M  V30 553 C 49.7403 0.235759 2.27984 0
M  V30 554 C 50.7403 -0.581412 1.49921 0
M  V30 555 O 51.9303 -0.398758 1.69575 0
M  V30 556 C 49.0623 -0.670433 3.34242 0
M  V30 557 H 50.2553 1.05659 2.80671 0
M  V30 558 H 47.8083 0.585614 1.44915 0
M  V30 559 H 48.5433 -1.51466 2.86755 0
M  V30 560 H 48.3283 -0.0860822 3.92005 0
M  V30 561 H 49.8183 -1.06935 4.03676 0
M  V30 562 N 50.2554 -1.46986 0.568584 0
M  V30 563 C 51.5034 -2.02041 0.0487022 0
M  V30 564 C 51.8244 -1.44408 -1.31039 0
M  V30 565 O 51.0944 -0.623477 -1.85714 0
M  V30 566 H 49.6744 -0.746849 0.015014 0
M  V30 567 H 52.3364 -1.80257 0.741168 0
M  V30 568 H 51.4324 -3.12085 -0.0308961 0
M  V30 569 N 51.7335 -0.305618 -1.54608 0
M  V30 570 C 52.9585 0.307562 -2.05107 0
M  V30 571 C 53.3835 1.46385 -1.18123 0
M  V30 572 O 52.7415 1.8034 -0.186324 0
M  V30 573 C 52.7895 0.73704 -3.52987 0
M  V30 574 O 51.8935 1.84134 -3.6901 0
M  V30 575 H 51.2345 0.0589143 -0.661381 0
M  V30 576 H 53.7645 -0.448807 -1.99617 0
M  V30 577 H 53.7745 1.02459 -3.94925 0
M  V30 578 H 52.4495 -0.108773 -4.15758 0
M  V30 579 H 51.0265 1.55398 -3.38978 0
M  V30 580 N 53.2116 1.57565 -0.0334293 0
M  V30 581 C 54.4886 1.83282 0.683163 0
M  V30 582 C 54.8686 0.91823 1.90084 0
M  V30 583 O 54.2166 -0.025113 2.28486 0
M  V30 584 C 54.4266 3.32599 1.0573 0
M  V30 585 C 55.7746 3.99179 1.44711 0
M  V30 586 O 56.7986 3.3712 1.15015 0
M  V30 587 O 55.6576 5.08565 2.0006 0
M  V30 588 H 52.7516 0.755869 0.335546 0
M  V30 589 H 55.2976 1.69589 -0.0614402 0
M  V30 590 H 54.0696 3.90834 0.190828 0
M  V30 591 H 53.6926 3.51415 1.85993 0
M  V30 592 N 54.6897 -0.239769 1.55765 0
M  V30 593 C 55.6367 -1.29696 1.90913 0
M  V30 594 C 56.6067 -1.47478 0.764164 0
M  V30 595 O 57.7917 -1.61345 1.01845 0
M  V30 596 C 54.9317 -2.64598 2.21544 0
M  V30 597 C 54.0447 -2.54765 3.48882 0
M  V30 598 C 53.1797 -3.82069 3.69049 0
M  V30 599 C 52.2187 -3.66883 4.89963 0
M  V30 600 N 51.3557 -4.86094 5.06614 0
M  V30 601 H 56.1957 -0.990224 2.81067 0
M  V30 602 H 53.7327 -0.477684 1.39128 0
M  V30 603 H 55.6907 -3.43132 2.3731 0
M  V30 604 H 54.3207 -2.93405 1.34585 0
M  V30 605 H 53.3727 -1.67763 3.41409 0
M  V30 606 H 54.6847 -2.39457 4.37563 0
M  V30 607 H 53.8387 -4.69046 3.84812 0
M  V30 608 H 52.5777 -4.00282 2.78614 0
M  V30 609 H 51.5827 -2.78289 4.74168 0
M  V30 610 H 52.8077 -3.50157 5.81865 0
M  V30 611 H 50.7537 -5.04655 4.19117 0
M  V30 612 H 50.6707 -4.73443 5.89396 0
M  V30 613 H 51.9387 -5.74549 5.26795 0
M  V30 614 N 56.1678 -1.49265 -0.50573 0
M  V30 615 C 57.5788 -1.51769 -1.08734 0
M  V30 616 C 57.9298 -0.301192 -1.93874 0
M  V30 617 O 57.0548 0.589456 -2.08217 0
M  V30 618 C 57.6498 -2.75017 -1.97867 0
M  V30 619 C 56.2088 -2.80314 -2.51199 0
M  V30 620 C 55.3558 -2.4562 -1.28709 0
M  V30 621 H 58.3068 -1.56031 -0.289855 0
M  V30 622 H 58.3278 -2.5491 -2.82491 0
M  V30 623 H 57.8398 -3.63539 -1.35873 0
M  V30 624 H 55.9408 -1.96061 -3.16845 0
M  V30 625 H 56.0538 -3.82366 -2.88675 0
M  V30 626 H 54.4178 -1.97297 -1.61078 0
M  V30 627 H 55.2008 -3.36411 -0.6843 0
M  V30 628 N 57.6459 0.756429 -1.3826 0
M  V30 629 C 58.8939 1.51248 -1.34047 0
M  V30 630 C 59.2149 1.94875 0.0698372 0
M  V30 631 O 58.4849 1.67436 1.01696 0
M  V30 632 H 57.0649 0.561018 -0.493222 0
M  V30 633 H 59.7269 0.899347 -1.7291 0
M  V30 634 H 58.8229 2.40472 -1.98947 0
M  V30 635 N 59.124 1.23083 0.984299 0
M  V30 636 C 60.371 1.06057 1.72505 0
M  V30 637 C 60.699 -0.403105 1.90277 0
M  V30 638 O 59.954 -1.3149 1.44944 0
M  V30 639 C 60.253 1.72673 3.1292 0
M  V30 640 C 59.919 3.22586 3.15038 0
M  V30 641 C 58.581 3.63489 3.15324 0
M  V30 642 C 60.933 4.185 3.10657 0
M  V30 643 C 58.261 4.98772 3.08939 0
M  V30 644 C 60.613 5.53769 3.05814 0
M  V30 645 C 59.277 5.94041 3.04419 0
M  V30 646 H 58.547 0.388091 0.631242 0
M  V30 647 H 61.194 1.52963 1.15215 0
M  V30 648 H 59.499 1.18116 3.73572 0
M  V30 649 H 61.196 1.56982 3.68996 0
M  V30 650 H 57.786 2.90022 3.15571 0
M  V30 651 H 61.97 3.87911 3.09579 0
M  V30 652 H 57.226 5.29193 3.0621 0
M  V30 653 H 61.4 6.27808 3.0138 0
M  V30 654 H 59.027 6.98833 2.99227 0
M  V30 655 N 60.6021 -1.18246 1.0419 0
M  V30 656 C 61.5341 -2.2142 0.592088 0
M  V30 657 C 62.5471 -1.59233 -0.338909 0
M  V30 658 O 63.7361 -1.78002 -0.133231 0
M  V30 659 C 60.8361 -3.38546 -0.154854 0
M  V30 660 C 60.0091 -4.3031 0.784328 0
M  V30 661 C 59.0681 -5.26138 0.0804583 0
M  V30 662 O 58.0941 -5.64738 0.711292 0
M  V30 663 N 59.2961 -5.68261 -1.18574 0
M  V30 664 H 62.0611 -2.60636 1.47949 0
M  V30 665 H 59.6221 -1.33044 0.922544 0
M  V30 666 H 61.6141 -3.99678 -0.635606 0
M  V30 667 H 60.1841 -2.98012 -0.943811 0
M  V30 668 H 59.4041 -3.66764 1.44491 0
M  V30 669 H 60.6921 -4.8852 1.42218 0
M  V30 670 H 60.0901 -5.38957 -1.71876 0
M  V30 671 H 58.6471 -6.31584 -1.61074 0
M  V30 672 N 62.0802 -0.821533 -1.34494 0
M  V30 673 C 63.3052 -0.420873 -2.03085 0
M  V30 674 C 63.7302 0.964915 -1.61465 0
M  V30 675 O 63.0882 1.62763 -0.798607 0
M  V30 676 C 63.1362 -0.529414 -3.56693 0
M  V30 677 O 62.2402 0.451302 -4.09923 0
M  V30 678 H 61.5812 -0.173489 -0.640935 0
M  V30 679 H 64.1112 -1.11157 -1.71771 0
M  V30 680 H 64.1212 -0.404671 -4.05988 0
M  V30 681 H 62.7962 -1.54014 -3.86332 0
M  V30 682 H 61.3732 0.285558 -3.71805 0
M  V30 683 N 63.5583 1.46682 -0.576371 0
M  V30 684 C 64.5213 2.28707 0.150239 0
M  V30 685 C 65.5213 1.38035 0.824794 0
M  V30 686 O 66.7113 1.60476 0.677719 0
M  V30 687 C 63.8433 3.18248 1.22192 0
M  V30 688 H 65.0363 2.94423 -0.570521 0
M  V30 689 H 62.5893 1.52688 -0.334078 0
M  V30 690 H 63.3243 2.57265 1.97447 0
M  V30 691 H 63.1093 3.85 0.742812 0
M  V30 692 H 64.5993 3.80001 1.73172 0
M  V30 693 N 65.0364 0.313813 1.54444 0
M  V30 694 C 65.9864 -0.571898 2.20711 0
M  V30 695 C 66.9704 -1.08913 1.18435 0
M  V30 696 O 68.1624 -1.02777 1.44104 0
M  V30 697 C 65.2914 -1.7371 2.96108 0
M  V30 698 C 64.3774 -1.23522 4.05713 0
M  V30 699 N 64.7684 -0.452288 5.03774 0
M  V30 700 C 63.0664 -1.51482 4.19487 0
M  V30 701 C 63.7674 -0.183438 5.81411 0
M  V30 702 N 62.7434 -0.766845 5.38164 0
M  V30 703 H 66.5454 0.0336802 2.93881 0
M  V30 704 H 64.0594 0.119192 1.61962 0
M  V30 705 H 66.0564 -2.38329 3.4206 0
M  V30 706 H 64.7164 -2.34625 2.24458 0
M  V30 707 H 65.7274 -0.0960131 5.17811 0
M  V30 708 H 62.4044 -2.13053 3.59047 0
M  V30 709 H 63.7944 0.446216 6.70417 0
M  V30 710 N 66.5145 -1.57545 0.0417849 0
M  V30 711 C 67.9305 -1.56467 -0.314704 0
M  V30 712 C 68.1305 -1.04859 -1.72066 0
M  V30 713 O 67.1865 -0.700983 -2.42575 0
M  V30 714 C 68.4995 -3.00317 -0.15174 0
M  V30 715 C 70.0475 -3.12201 -0.223553 0
M  V30 716 C 70.5225 -4.57913 -0.0892295 0
M  V30 717 N 72.0135 -4.6297 -0.145808 0
M  V30 718 C 72.7485 -5.73362 -0.0658459 0
M  V30 719 N 72.2445 -6.92769 0.0659282 0
M  V30 720 N 74.0375 -5.6197 -0.12075 0
M  V30 721 H 66.1885 -1.89416 0.961014 0
M  V30 722 H 68.4515 -0.871862 0.372237 0
M  V30 723 H 68.1575 -3.42073 0.817254 0
M  V30 724 H 68.0315 -3.65892 -0.916692 0
M  V30 725 H 70.4185 -2.70349 -1.18301 0
M  V30 726 H 70.4995 -2.49323 0.571994 0
M  V30 727 H 70.1435 -5.00448 0.866867 0
M  V30 728 H 70.0735 -5.18786 -0.903802 0
M  V30 729 H 72.5645 -3.7709 -0.247286 0
M  V30 730 H 72.8775 -7.72707 0.119905 0
M  V30 731 H 71.2225 -6.94927 0.100885 0
M  V30 732 H 74.4135 -4.67572 -0.222187 0
M  V30 733 H 74.5865 -6.47977 -0.0549735 0
M  V30 734 N 67.9926 0.231505 -1.5589 0
M  V30 735 C 69.2176 0.978689 -1.82856 0
M  V30 736 C 69.6426 1.77559 -0.620846 0
M  V30 737 O 69.0006 1.76119 0.430305 0
M  V30 738 C 69.0486 1.87997 -3.07716 0
M  V30 739 O 68.1526 2.97393 -2.85712 0
M  V30 740 H 67.4936 0.277663 -0.603158 0
M  V30 741 H 70.0236 0.24783 -2.03093 0
M  V30 742 H 70.0336 2.2917 -3.37558 0
M  V30 743 H 68.7086 1.29417 -3.95252 0
M  V30 744 H 67.2856 2.60238 -2.67078 0
M  V30 745 N 69.4707 1.49531 0.497807 0
M  V30 746 C 70.7167 1.59415 1.25358 0
M  V30 747 C 71.0497 0.281422 1.9215 0
M  V30 748 O 70.3247 -0.715249 1.80871 0
M  V30 749 C 70.6077 2.75566 2.3181 0
M  V30 750 C 70.4607 4.16642 1.69498 0
M  V30 751 C 71.7797 2.87347 3.33346 0
M  V30 752 H 68.8987 0.580244 0.454408 0
M  V30 753 H 71.5407 1.81827 0.551262 0
M  V30 754 H 69.6907 2.56587 2.91711 0
M  V30 755 H 71.3627 4.47145 1.13399 0
M  V30 756 H 69.6057 4.22141 0.998978 0
M  V30 757 H 70.2767 4.93792 2.46725 0
M  V30 758 H 72.7527 3.04634 2.83438 0
M  V30 759 H 71.6287 3.70289 4.05188 0
M  V30 760 H 71.8897 1.96834 3.95865 0
M  V30 761 N 70.9488 -0.749086 1.3866 0
M  V30 762 C 71.8958 -1.86291 1.36251 0
M  V30 763 C 72.8658 -1.64578 0.224347 0
M  V30 764 O 74.0508 -1.86181 0.417279 0
M  V30 765 C 71.1908 -3.23644 1.19786 0
M  V30 766 C 70.3038 -3.57158 2.43027 0
M  V30 767 C 69.4388 -4.83838 2.19258 0
M  V30 768 C 68.4778 -5.10152 3.38247 0
M  V30 769 N 67.6148 -6.28029 3.13884 0
M  V30 770 H 72.4548 -1.87685 2.3147 0
M  V30 771 H 69.9918 -0.917287 1.14997 0
M  V30 772 H 71.9498 -4.0291 1.08254 0
M  V30 773 H 70.5798 -3.21566 0.282031 0
M  V30 774 H 69.6318 -2.72701 2.65214 0
M  V30 775 H 70.9438 -3.7253 3.31697 0
M  V30 776 H 70.0978 -5.71057 2.04888 0
M  V30 777 H 68.8368 -4.70614 1.2796 0
M  V30 778 H 67.8418 -4.21401 3.53131 0
M  V30 779 H 69.0668 -5.25271 4.30427 0
M  V30 780 H 67.0128 -6.1612 2.25238 0
M  V30 781 H 66.9298 -6.43922 3.96106 0
M  V30 782 H 68.1978 -7.18124 3.03179 0
M  V30 783 N 72.4269 -1.23603 -0.977757 0
M  V30 784 C 73.3899 -1.02069 -2.05218 0
M  V30 785 C 74.3899 0.0184305 -1.60789 0
M  V30 786 O 75.5799 -0.221569 -1.72785 0
M  V30 787 C 72.7119 -0.544926 -3.36517 0
M  V30 788 H 73.9049 -1.9742 -2.25755 0
M  V30 789 H 71.4579 -1.05684 -1.15155 0
M  V30 790 H 72.1929 0.412241 -3.21669 0
M  V30 791 H 71.9779 -1.2948 -3.70105 0
M  V30 792 H 73.4679 -0.414985 -4.15533 0
M  V30 793 N 73.905 1.17692 -1.04816 0
M  V30 794 C 74.815 2.25229 -0.65643 0
M  V30 795 C 75.831 1.71018 0.320761 0
M  V30 796 O 77.007 2.00649 0.173805 0
M  V30 797 C 74.072 3.46684 -0.0332629 0
M  V30 798 C 73.133 4.15997 -1.06042 0
M  V30 799 C 72.366 5.31654 -0.466893 0
M  V30 800 O 72.589 5.65777 0.724758 0
M  V30 801 O 71.523 5.89831 -1.1993 0
M  V30 802 H 75.349 2.61016 -1.55255 0
M  V30 803 H 72.934 1.24919 -0.81949 0
M  V30 804 H 74.816 4.20234 0.313256 0
M  V30 805 H 73.491 3.12703 0.836566 0
M  V30 806 H 72.398 3.44482 -1.45886 0
M  V30 807 H 73.731 4.53996 -1.90127 0
M  V30 808 N 75.3831 0.828654 1.34056 0
M  V30 809 C 76.6311 0.41863 1.97717 0
M  V30 810 C 76.9521 -1.02314 1.66002 0
M  V30 811 O 76.2221 -1.71119 0.953683 0
M  V30 812 H 74.8021 0.151809 0.731412 0
M  V30 813 H 77.4641 1.05936 1.63596 0
M  V30 814 H 76.5601 0.542318 3.07352 0
M  V30 815 N 76.8612 -1.46375 0.584142 0
M  V30 816 C 78.1092 -2.01978 0.0701287 0
M  V30 817 C 78.4302 -1.4579 -1.295 0
M  V30 818 O 77.7002 -0.64314 -1.85042 0
M  V30 819 H 76.2802 -0.746648 0.0229345 0
M  V30 820 H 78.9422 -1.79461 0.760245 0
M  V30 821 H 78.0382 -3.121 0.0022064 0
M  V30 822 N 78.3393 -0.321999 -1.54275 0
M  V30 823 C 79.5853 0.274234 -2.01543 0
M  V30 824 C 79.9403 1.499 -1.20614 0
M  V30 825 O 79.2333 1.89546 -0.279804 0
M  V30 826 C 79.4273 0.661769 -3.5122 0
M  V30 827 C 79.2563 -0.523892 -4.46638 0
M  V30 828 C 78.0263 -1.02251 -4.94846 0
M  V30 829 C 80.2243 -1.37558 -4.95563 0
M  V30 830 N 78.2063 -2.17274 -5.74165 0
M  V30 831 C 79.5773 -2.37301 -5.7279 0
M  V30 832 C 81.6323 -1.40353 -4.77709 0
M  V30 833 C 80.3353 -3.3964 -6.34064 0
M  V30 834 C 82.3613 -2.41562 -5.39817 0
M  V30 835 C 81.7233 -3.40031 -6.16894 0
M  V30 836 H 77.8223 0.0642367 -0.779357 0
M  V30 837 H 80.4063 -0.456683 -1.89268 0
M  V30 838 H 78.5773 1.36182 -3.63743 0
M  V30 839 H 80.3093 1.23934 -3.85256 0
M  V30 840 H 77.0643 -0.594046 -4.6986 0
M  V30 841 H 77.4883 -2.75289 -6.18502 0
M  V30 842 H 82.1303 -0.655907 -4.17681 0
M  V30 843 H 79.8483 -4.15309 -6.93213 0
M  V30 844 H 83.4343 -2.44524 -5.2792 0
M  V30 845 H 82.3143 -4.17063 -6.64099 0
M  V30 846 N 79.8174 1.5752 -0.0501392 0
M  V30 847 C 80.7804 2.1037 0.909786 0
M  V30 848 C 81.7804 1.02308 1.24056 0
M  V30 849 O 82.9704 1.28385 1.17741 0
M  V30 850 C 80.1024 2.58708 2.21998 0
M  V30 851 H 81.2954 2.96479 0.451665 0
M  V30 852 H 78.8484 1.55038 0.198248 0
M  V30 853 H 79.5834 1.75989 2.72394 0
M  V30 854 H 79.3684 3.37675 1.99295 0
M  V30 855 H 80.8584 2.99747 2.9076 0
M  V30 856 N 81.2955 -0.223234 1.56011 0
M  V30 857 C 82.2585 -1.26014 1.9145 0
M  V30 858 C 83.2585 -1.3989 0.792937 0
M  V30 859 O 84.4485 -1.38184 1.0607 0
M  V30 860 C 81.5805 -2.63422 2.16383 0
M  V30 861 H 82.7735 -0.95796 2.84189 0
M  V30 862 H 80.3265 -0.463576 1.49267 0
M  V30 863 H 81.0615 -2.98741 1.2619 0
M  V30 864 H 80.8465 -2.54728 2.98088 0
M  V30 865 H 82.3365 -3.38249 2.44903 0
M  V30 866 N 82.7736 -1.49793 -0.48987 0
M  V30 867 C 83.7036 -1.70201 -1.59856 0
M  V30 868 C 84.6846 -0.55076 -1.60937 0
M  V30 869 O 85.8696 -0.787841 -1.77501 0
M  V30 870 C 82.9996 -1.77882 -2.98287 0
M  V30 871 C 81.9536 -2.92907 -3.12073 0
M  V30 872 C 81.2796 -2.85712 -4.51965 0
M  V30 873 C 82.5796 -4.3369 -2.91051 0
M  V30 874 H 84.2736 -2.63025 -1.43032 0
M  V30 875 H 81.8196 -1.26574 -0.686664 0
M  V30 876 H 83.7726 -1.90744 -3.75759 0
M  V30 877 H 82.4966 -0.816653 -3.16225 0
M  V30 878 H 81.1556 -2.79665 -2.37029 0
M  V30 879 H 80.8036 -1.8738 -4.66795 0
M  V30 880 H 80.5036 -3.62921 -4.62128 0
M  V30 881 H 82.0276 -3.00598 -5.31482 0
M  V30 882 H 83.4416 -4.47555 -3.58284 0
M  V30 883 H 81.8386 -5.12205 -3.12675 0
M  V30 884 H 82.9086 -4.47362 -1.87071 0
M  V30 885 N 84.2517 0.741722 -1.39055 0
M  V30 886 C 85.1997 1.87702 -1.3737 0
M  V30 887 C 86.1937 1.67427 -0.257812 0
M  V30 888 O 87.3997 1.7485 -0.427489 0
M  V30 889 H 83.7747 0.617757 -0.428812 0
M  V30 890 H 85.7457 1.86239 -2.33147 0
M  V30 891 C 84.4947 3.25315 -1.22741 0
M  V30 892 H 83.8177 3.41509 -2.07873 0
M  V30 893 H 85.2577 4.04964 -1.25618 0
M  V30 894 C 83.7167 3.36838 0.0647316 0
M  V30 895 O 84.2467 3.88073 1.03741 0
M  V30 896 N 82.4527 2.90329 0.125544 0
M  V30 897 H 81.9997 2.48823 -0.666682 0
M  V30 898 H 81.9577 2.98418 0.989639 0
M  V30 899 N 85.7298 1.2412 0.971189 0
M  V30 900 C 86.9578 1.10575 1.74874 0
M  V30 901 C 87.3728 -0.342017 1.85676 0
M  V30 902 O 86.7298 -1.23617 1.34258 0
M  V30 903 C 86.7808 1.73579 3.171 0
M  V30 904 O 86.5018 3.12695 3.06844 0
M  V30 905 C 88.0028 1.65598 4.11208 0
M  V30 906 H 85.2228 0.386504 0.548503 0
M  V30 907 H 87.7668 1.64156 1.21955 0
M  V30 908 H 85.9218 1.24009 3.67016 0
M  V30 909 H 86.3358 3.43412 3.96445 0
M  V30 910 H 87.8098 2.1437 5.08674 0
M  V30 911 H 88.2868 0.616532 4.34851 0
M  V30 912 H 88.8928 2.14578 3.67201 0
M  V30 913 N 87.2079 -1.17134 1.05439 0
M  V30 914 C 88.1179 -2.24878 0.668365 0
M  V30 915 C 89.1339 -1.71186 -0.311687 0
M  V30 916 O 90.3099 -2.00738 -0.163161 0
M  V30 917 C 87.3749 -3.46662 0.051648 0
M  V30 918 C 86.4359 -4.15429 1.08246 0
M  V30 919 C 85.6689 -5.31399 0.495082 0
M  V30 920 O 85.8919 -5.66153 -0.694743 0
M  V30 921 O 84.8259 -5.89187 1.23056 0
M  V30 922 H 88.6519 -2.60189 1.56637 0
M  V30 923 H 86.2369 -1.24482 0.826104 0
M  V30 924 H 88.1189 -4.20394 -0.290966 0
M  V30 925 H 86.7939 -3.13142 -0.819971 0
M  V30 926 H 85.7009 -3.43704 1.47711 0
M  V30 927 H 87.0339 -4.52982 1.92532 0
M  V30 928 N 88.686 -0.835752 -1.33615 0
M  V30 929 C 89.916 -0.442701 -2.01801 0
M  V30 930 C 90.324 0.959807 -1.63047 0
M  V30 931 O 89.667 1.63468 -0.838088 0
M  V30 932 C 89.729 -0.480125 -3.56279 0
M  V30 933 C 89.393 -1.8382 -4.18401 0
M  V30 934 C 90.39 -2.80097 -4.37998 0
M  V30 935 C 88.075 -2.13019 -4.54894 0
M  V30 936 C 90.069 -4.03736 -4.9323 0
M  V30 937 C 87.756 -3.36916 -5.09834 0
M  V30 938 C 88.754 -4.32091 -5.28948 0
M  V30 939 O 88.442 -5.53797 -5.82721 0
M  V30 940 H 88.174 -0.17441 -0.653114 0
M  V30 941 H 90.728 -1.129 -1.71589 0
M  V30 942 H 88.958 0.262931 -3.85805 0
M  V30 943 H 90.647 -0.105335 -4.05763 0
M  V30 944 H 91.413 -2.58838 -4.10156 0
M  V30 945 H 87.292 -1.39733 -4.39313 0
M  V30 946 H 90.836 -4.78034 -5.08064 0
M  V30 947 H 86.733 -3.58033 -5.37106 0
M  V30 948 H 87.501 -5.55494 -6.0114 0
M  V30 949 N 90.1641 1.46063 -0.591896 0
M  V30 950 C 91.4041 2.04228 -0.0838014 0
M  V30 951 C 91.7681 1.45231 1.25587 0
M  V30 952 O 92.9691 1.94653 1.85375 0
M  V30 953 C 91.2401 3.57389 -0.0286282 0
M  V30 954 S 92.7991 4.3678 0.420557 0
M  V30 955 H 89.6171 0.709762 -0.0419319 0
M  V30 956 H 92.2191 1.78983 -0.786465 0
M  V30 957 H 90.9231 3.97843 -1.00743 0
M  V30 958 H 90.4541 3.87185 0.69652 0
M  V30 959 H 92.4691 4.67131 1.67341 0
M  V30 960 N 91.6422 0.330177 1.54103 0
M  V30 961 C 92.8672 -0.274893 2.0557 0
M  V30 962 C 93.2922 -1.44487 1.20437 0
M  V30 963 O 92.6502 -1.80021 0.214991 0
M  V30 964 C 92.6982 -0.68079 3.54115 0
M  V30 965 O 91.8022 -1.7824 3.71893 0
M  V30 966 H 91.1432 -0.0483849 0.662235 0
M  V30 967 H 93.6732 0.480508 1.98878 0
M  V30 968 H 93.6832 -0.961635 3.96505 0
M  V30 969 H 92.3582 0.174903 4.15532 0
M  V30 970 H 90.9352 -1.49985 3.41407 0
M  V30 971 N 93.1203 -1.57491 0.0584922 0
M  V30 972 C 94.3693 -1.92155 -0.613146 0
M  V30 973 C 94.6823 -0.939334 -1.71569 0
M  V30 974 O 95.8883 -1.17829 -2.44599 0
M  V30 975 C 94.3443 -3.41303 -1.14195 0
M  V30 976 C 93.9523 -4.47944 -0.0711265 0
M  V30 977 C 95.6963 -3.84988 -1.78841 0
M  V30 978 C 93.6033 -5.88212 -0.613225 0
M  V30 979 H 92.5333 -0.717162 -0.232796 0
M  V30 980 H 95.1843 -1.83049 0.12857 0
M  V30 981 H 93.5663 -3.45437 -1.93621 0
M  V30 982 H 94.7403 -4.55408 0.702836 0
M  V30 983 H 93.0553 -4.13644 0.478313 0
M  V30 984 H 95.6523 -4.87159 -2.20408 0
M  V30 985 H 95.9953 -3.21632 -2.64308 0
M  V30 986 H 96.5283 -3.83401 -1.06059 0
M  V30 987 H 93.2673 -6.55183 0.203978 0
M  V30 988 H 92.7873 -5.84294 -1.35501 0
M  V30 989 H 94.4663 -6.37687 -1.09383 0
M  V30 990 N 94.5984 0.214957 -1.56127 0
M  V30 991 C 95.5464 1.28601 -1.93816 0
M  V30 992 C 96.5404 1.48175 -0.821016 0
M  V30 993 O 97.7464 1.49271 -1.0059 0
M  V30 994 H 94.1214 0.431302 -0.616022 0
M  V30 995 H 96.0924 0.940991 -2.83175 0
M  V30 996 C 94.8414 2.62779 -2.27689 0
M  V30 997 H 94.1644 2.48527 -3.13168 0
M  V30 998 H 95.6044 3.36517 -2.57939 0
M  V30 999 C 94.0634 3.18285 -1.10436 0
M  V30 1000 O 94.5934 4.00002 -0.368945 0
M  V30 1001 N 92.7994 2.7675 -0.886433 0
M  V30 1002 H 92.3464 2.10404 -1.48619 0
M  V30 1003 H 92.3044 3.14229 -0.103656 0
M  V30 1004 N 96.0765 1.50051 0.48192 0
M  V30 1005 C 97.4875 1.5348 1.06305 0
M  V30 1006 C 97.8385 0.331997 1.93371 0
M  V30 1007 O 96.9635 -0.556256 2.09129 0
M  V30 1008 C 97.5585 2.7813 1.93466 0
M  V30 1009 C 96.1175 2.84275 2.46707 0
M  V30 1010 C 95.2645 2.47637 1.24785 0
M  V30 1011 H 98.2155 1.56472 0.264995 0
M  V30 1012 H 98.2365 2.59372 2.78399 0
M  V30 1013 H 97.7485 3.65654 1.30072 0
M  V30 1014 H 95.8495 2.01077 3.13686 0
M  V30 1015 H 95.9625 3.8691 2.82555 0
M  V30 1016 H 94.3265 1.99835 1.57918 0
M  V30 1017 H 95.1095 3.37457 0.630694 0
M  V30 1018 N 97.5546 -0.734337 1.39446 0
M  V30 1019 C 98.4646 -1.87879 1.40495 0
M  V30 1020 C 99.4806 -1.714 0.299672 0
M  V30 1021 O 100.657 -1.93991 0.541249 0
M  V30 1022 C 97.7216 -3.23477 1.24754 0
M  V30 1023 C 96.7826 -3.52344 2.45259 0
M  V30 1024 C 96.0156 -4.81473 2.30259 0
M  V30 1025 O 96.2386 -5.55237 1.30643 0
M  V30 1026 O 95.1726 -5.10254 3.19256 0
M  V30 1027 H 98.9986 -1.89949 2.36966 0
M  V30 1028 H 96.5836 -0.882243 1.20569 0
M  V30 1029 H 98.4656 -4.04509 1.18111 0
M  V30 1030 H 97.1406 -3.22176 0.313781 0
M  V30 1031 H 96.0476 -2.71396 2.57478 0
M  V30 1032 H 97.3806 -3.58426 3.37331 0
M  V30 1033 N 99.0327 -1.24633 -0.964593 0
M  V30 1034 C 100.258 -1.11596 -1.74818 0
M  V30 1035 C 100.683 0.32723 -1.85232 0
M  V30 1036 O 100.041 1.23695 -1.32549 0
M  V30 1037 C 100.089 -1.76397 -3.1451 0
M  V30 1038 O 99.1927 -1.03685 -3.99153 0
M  V30 1039 H 98.5337 -0.390196 -0.537255 0
M  V30 1040 H 101.064 -1.65002 -1.20977 0
M  V30 1041 H 101.074 -1.8228 -3.65018 0
M  V30 1042 H 99.7487 -2.81401 -3.06246 0
M  V30 1043 H 98.3257 -1.05611 -3.57632 0
M  V30 1044 N 100.511 1.16574 -1.06058 0
M  V30 1045 C 101.788 1.83048 -0.689416 0
M  V30 1046 C 102.168 1.94122 0.829443 0
M  V30 1047 O 101.516 1.48249 1.7388 0
M  V30 1048 C 101.726 3.20186 -1.38859 0
M  V30 1049 C 103.074 3.95989 -1.53226 0
M  V30 1050 O 104.098 3.29696 -1.3483 0
M  V30 1051 O 102.957 5.14813 -1.83384 0
M  V30 1052 H 100.051 0.790258 -0.243764 0
M  V30 1053 H 102.597 1.23797 -1.16071 0
M  V30 1054 H 101.369 3.07146 -2.4244 0
M  V30 1055 H 100.992 3.87112 -0.907216 0
M  V30 1056 N 101.989 0.842826 1.3317 0
M  V30 1057 C 103.266 0.362216 1.92217 0
M  V30 1058 C 103.646 -1.15289 1.76838 0
M  V30 1059 O 102.994 -1.96914 1.15919 0
M  V30 1060 C 103.204 0.813495 3.39387 0
M  V30 1061 C 104.552 0.823804 4.16532 0
M  V30 1062 O 105.576 0.757358 3.48055 0
M  V30 1063 O 104.435 0.915193 5.38782 0
M  V30 1064 H 101.529 0.103317 0.820521 0
M  V30 1065 H 104.075 0.928942 1.42017 0
M  V30 1066 H 102.847 1.85624 3.4447 0
M  V30 1067 H 102.47 0.223561 3.96971 0
M  V30 1068 N 103.467 -1.45747 0.599634 0
M  V30 1069 C 104.695 -2.06668 0.0978551 0
M  V30 1070 C 105.11 -1.44562 -1.21439 0
M  V30 1071 O 104.467 -0.556923 -1.73795 0
M  V30 1072 C 104.518 -3.61456 -0.0567044 0
M  V30 1073 O 104.239 -4.21242 1.20361 0
M  V30 1074 C 105.74 -4.39345 -0.590869 0
M  V30 1075 H 102.96 -0.667825 0.0651943 0
M  V30 1076 H 105.504 -1.87115 0.82511 0
M  V30 1077 H 103.659 -3.80378 -0.734251 0
M  V30 1078 H 104.073 -5.14323 1.02821 0
M  V30 1079 H 105.547 -5.48182 -0.648131 0
M  V30 1080 H 106.024 -4.08568 -1.61147 0
M  V30 1081 H 106.63 -4.25268 0.0523679 0
M  V30 1082 N 104.945 -0.338344 -1.53925 0
M  V30 1083 C 105.895 0.536712 -2.21593 0
M  V30 1084 C 106.879 1.07015 -1.20153 0
M  V30 1085 O 108.071 1.00471 -1.45721 0
M  V30 1086 C 105.2 1.68977 -2.98834 0
M  V30 1087 C 104.286 1.17052 -4.07627 0
M  V30 1088 N 104.677 0.372085 -5.0443 0
M  V30 1089 C 102.975 1.44789 -4.21844 0
M  V30 1090 C 103.676 0.0909171 -5.81629 0
M  V30 1091 N 102.652 0.681131 -5.39316 0
M  V30 1092 H 106.454 -0.0804298 -2.9379 0
M  V30 1093 H 103.968 -0.144943 -1.61752 0
M  V30 1094 H 105.965 2.32857 -3.45808 0
M  V30 1095 H 104.625 2.31024 -2.28162 0
M  V30 1096 H 105.636 0.0136217 -5.17898 0
M  V30 1097 H 102.313 2.07313 -3.62391 0
M  V30 1098 H 103.703 -0.552817 -6.69622 0
M  V30 1099 N 106.423 1.57458 -0.0668435 0
M  V30 1100 C 107.839 1.56947 0.289772 0
M  V30 1101 C 108.039 1.07584 1.70376 0
M  V30 1102 O 107.095 0.739486 2.41429 0
M  V30 1103 C 108.408 3.0052 0.103943 0
M  V30 1104 C 109.956 3.12517 0.173857 0
M  V30 1105 C 110.431 4.57997 0.0163682 0
M  V30 1106 N 111.922 4.63144 0.0721352 0
M  V30 1107 C 112.657 5.73394 -0.0253794 0
M  V30 1108 N 112.153 6.92576 -0.176133 0
M  V30 1109 N 113.946 5.62091 0.0313305 0
M  V30 1110 H 106.097 1.87863 -0.991027 0
M  V30 1111 H 108.36 0.86583 -0.38606 0
M  V30 1112 H 108.066 3.40729 -0.871572 0
M  V30 1113 H 107.94 3.67304 0.858366 0
M  V30 1114 H 110.327 2.72197 1.13985 0
M  V30 1115 H 110.408 2.48381 -0.611586 0
M  V30 1116 H 110.052 4.99005 -0.946374 0
M  V30 1117 H 109.982 5.20158 0.821153 0
M  V30 1118 H 112.473 3.77436 0.187263 0
M  V30 1119 H 112.786 7.72418 -0.242821 0
M  V30 1120 H 111.131 6.94678 -0.211429 0
M  V30 1121 H 114.322 4.67867 0.147773 0
M  V30 1122 H 114.495 6.47982 -0.048121 0
M  V30 1123 N 107.901 -0.206675 1.56239 0
M  V30 1124 C 108.831 -1.25909 1.96645 0
M  V30 1125 C 109.812 -1.48097 0.836734 0
M  V30 1126 O 110.997 -1.6003 1.10019 0
M  V30 1127 C 108.127 -2.6058 2.29599 0
M  V30 1128 C 107.081 -2.53024 3.452 0
M  V30 1129 C 106.407 -3.91861 3.63798 0
M  V30 1130 C 107.707 -2.06524 4.79734 0
M  V30 1131 H 109.401 -0.923369 2.84806 0
M  V30 1132 H 106.947 -0.442735 1.37025 0
M  V30 1133 H 108.9 -3.34375 2.56459 0
M  V30 1134 H 107.624 -2.95869 1.38307 0
M  V30 1135 H 106.283 -1.81684 3.18412 0
M  V30 1136 H 105.931 -4.24483 2.69857 0
M  V30 1137 H 105.631 -3.87683 4.4156 0
M  V30 1138 H 107.155 -4.67296 3.93022 0
M  V30 1139 H 108.569 -2.70072 5.05702 0
M  V30 1140 H 106.966 -2.13374 5.60885 0
M  V30 1141 H 108.036 -1.01802 4.74093 0
M  V30 1142 N 109.379 -1.50304 -0.473955 0
M  V30 1143 C 110.604 -1.65175 -1.25427 0
M  V30 1144 C 111.029 -0.333673 -1.85117 0
M  V30 1145 O 110.387 0.702114 -1.67153 0
M  V30 1146 C 110.435 -2.74295 -2.34082 0
M  V30 1147 O 109.539 -2.35349 -3.38651 0
M  V30 1148 H 108.88 -0.551944 -0.369126 0
M  V30 1149 H 111.41 -1.96662 -0.564364 0
M  V30 1150 H 111.42 -2.97285 -2.79438 0
M  V30 1151 H 110.095 -3.69959 -1.90008 0
M  V30 1152 H 108.672 -2.22794 -2.99027 0
M  V30 1153 N 110.857 0.726932 -1.39834 0
M  V30 1154 C 111.82 1.82269 -1.38962 0
M  V30 1155 C 112.82 1.58248 -0.285334 0
M  V30 1156 O 114.01 1.65499 -0.54366 0
M  V30 1157 C 111.142 3.20186 -1.17019 0
M  V30 1158 H 112.335 1.84443 -2.36476 0
M  V30 1159 H 109.888 0.931416 -1.25516 0
M  V30 1160 H 110.623 3.23669 -0.202204 0
M  V30 1161 H 110.408 3.3902 -1.96998 0
M  V30 1162 H 111.898 4.00235 -1.1917 0
M  V30 1163 N 112.336 1.25143 0.95797 0
M  V30 1164 C 113.752 1.01892 1.22842 0
M  V30 1165 C 113.952 -0.266311 1.99732 0
M  V30 1166 O 113.008 -0.979913 2.3271 0
M  V30 1167 C 114.321 2.24004 2.00606 0
M  V30 1168 C 115.869 2.28731 2.13662 0
M  V30 1169 C 116.344 3.5049 2.94823 0
M  V30 1170 N 117.835 3.50866 3.02403 0
M  V30 1171 C 118.57 4.4174 3.65586 0
M  V30 1172 N 118.066 5.42882 4.30408 0
M  V30 1173 N 119.859 4.29429 3.62694 0
M  V30 1174 H 112.01 2.07718 0.443493 0
M  V30 1175 H 114.273 0.912031 0.258657 0
M  V30 1176 H 113.979 3.17395 1.51503 0
M  V30 1177 H 113.853 2.26907 3.01319 0
M  V30 1178 H 116.24 1.35865 2.61963 0
M  V30 1179 H 116.321 2.29848 1.12265 0
M  V30 1180 H 115.965 4.43676 2.47213 0
M  V30 1181 H 115.895 3.46617 3.96439 0
M  V30 1182 H 118.386 2.777 2.56302 0
M  V30 1183 H 118.699 6.0844 4.76467 0
M  V30 1184 H 117.044 5.46758 4.29047 0
M  V30 1185 H 120.235 3.49643 3.11236 0
M  V30 1186 H 120.408 5.00448 4.1165 0
M  V30 1187 N 113.814 -1.1601 1.06675 0
M  V30 1188 C 115.063 -1.85973 0.780818 0
M  V30 1189 C 115.376 -1.82819 -0.695444 0
M  V30 1190 O 116.582 -2.484 -1.09589 0
M  V30 1191 C 115.038 -3.33757 1.34665 0
M  V30 1192 C 114.646 -3.45374 2.85343 0
M  V30 1193 C 116.39 -4.0895 1.13843 0
M  V30 1194 C 114.297 -4.87266 3.35151 0
M  V30 1195 H 113.227 -0.696661 0.288407 0
M  V30 1196 H 115.878 -1.30903 1.28595 0
M  V30 1197 H 114.26 -3.88456 0.769274 0
M  V30 1198 H 115.434 -3.00816 3.49065 0
M  V30 1199 H 113.749 -2.83619 3.04876 0
M  V30 1200 H 116.346 -5.13654 1.4854 0
M  V30 1201 H 116.689 -4.16229 0.0770282 0
M  V30 1202 H 117.222 -3.605 1.68179 0
M  V30 1203 H 113.961 -4.85168 4.40786 0
M  V30 1204 H 113.481 -5.32433 2.76179 0
M  V30 1205 H 115.16 -5.56097 3.30704 0
M  V30 1206 N 115.292 -0.849877 -1.32721 0
M  V30 1207 C 116.538 -0.460855 -1.9811 0
M  V30 1208 C 116.893 0.971716 -1.66059 0
M  V30 1209 O 116.186 1.67184 -0.935944 0
M  V30 1210 C 116.38 -0.631272 -3.51781 0
M  V30 1211 C 116.209 -2.07886 -3.98765 0
M  V30 1212 C 114.979 -2.71637 -4.26077 0
M  V30 1213 C 117.177 -3.04889 -4.14182 0
M  V30 1214 N 115.159 -4.07356 -4.59276 0
M  V30 1215 C 116.53 -4.25583 -4.50865 0
M  V30 1216 C 118.585 -3.01148 -3.96503 0
M  V30 1217 C 117.288 -5.43027 -4.71714 0
M  V30 1218 C 119.314 -4.17832 -4.18533 0
M  V30 1219 C 118.676 -5.37284 -4.55528 0
M  V30 1220 H 114.775 -0.217283 -0.751207 0
M  V30 1221 H 117.359 -1.10026 -1.60631 0
M  V30 1222 H 115.53 -0.0215966 -3.88394 0
M  V30 1223 H 117.262 -0.212614 -4.04141 0
M  V30 1224 H 114.017 -2.22705 -4.17971 0
M  V30 1225 H 114.441 -4.77351 -4.80068 0
M  V30 1226 H 119.083 -2.0992 -3.67006 0
M  V30 1227 H 116.801 -6.34791 -5.00066 0
M  V30 1228 H 120.387 -4.16368 -4.06361 0
M  V30 1229 H 119.267 -6.26071 -4.72234 0
M  V30 1230 N 116.77 1.45427 -0.607355 0
M  V30 1231 C 118.047 1.9557 -0.0344566 0
M  V30 1232 C 118.427 1.54979 1.43334 0
M  V30 1233 O 117.775 0.812241 2.13576 0
M  V30 1234 C 117.985 3.48226 -0.232321 0
M  V30 1235 C 119.333 4.2445 -0.113001 0
M  V30 1236 O 120.357 3.55829 -0.162431 0
M  V30 1237 O 119.216 5.465 0.00209442 0
M  V30 1238 H 116.31 0.826222 0.0358667 0
M  V30 1239 H 118.856 1.55594 -0.6774 0
M  V30 1240 H 117.628 3.70739 -1.25174 0
M  V30 1241 H 117.251 3.95092 0.445896 0
M  V30 1242 N 118.248 0.346503 1.53744 0
M  V30 1243 C 119.158 -0.517293 2.28826 0
M  V30 1244 C 120.174 -1.10935 1.3405 0
M  V30 1245 O 121.35 -1.1244 1.6709 0
M  V30 1246 C 118.415 -1.65098 3.04866 0
M  V30 1247 C 117.476 -1.0884 4.15274 0
M  V30 1248 C 116.709 -2.16806 4.87679 0
M  V30 1249 O 116.932 -3.3758 4.59778 0
M  V30 1250 O 115.866 -1.80934 5.74061 0
M  V30 1251 H 119.692 0.0931396 3.03557 0
M  V30 1252 H 117.277 0.111458 1.48984 0
M  V30 1253 H 119.159 -2.31053 3.5241 0
M  V30 1254 H 117.834 -2.24717 2.32989 0
M  V30 1255 H 116.741 -0.3933 3.72027 0
M  V30 1256 H 118.074 -0.537036 4.89261 0
M  V30 1257 N 119.726 -1.57421 0.075193 0
M  V30 1258 C 120.974 -1.93236 -0.591974 0
M  V30 1259 C 121.295 -0.956241 -1.69944 0
M  V30 1260 O 120.565 -0.00494792 -1.95899 0
M  V30 1261 H 119.145 -0.713355 -0.22166 0
M  V30 1262 H 121.807 -1.9444 0.133848 0
M  V30 1263 H 120.903 -2.95131 -1.01509 0
M  V30 1264 N 121.204 0.198386 -1.56346 0
M  V30 1265 C 122.481 0.944982 -1.71258 0
M  V30 1266 C 122.861 2.0151 -0.629048 0
M  V30 1267 O 122.209 2.25639 0.360473 0
M  V30 1268 C 122.419 1.5344 -3.1346 0
M  V30 1269 C 123.767 2.01778 -3.73591 0
M  V30 1270 O 124.791 1.63288 -3.16568 0
M  V30 1271 O 123.65 2.72594 -4.73661 0
M  V30 1272 H 120.744 0.442939 -0.69838 0
M  V30 1273 H 123.29 0.188342 -1.68652 0
M  V30 1274 H 122.062 0.762869 -3.83792 0
M  V30 1275 H 121.685 2.35596 -3.20282 0
M  V30 1276 N 122.682 1.50554 0.465978 0
M  V30 1277 C 123.928 1.62038 1.21949 0
M  V30 1278 C 124.261 0.322116 1.9151 0
M  V30 1279 O 123.536 -0.676723 1.82348 0
M  V30 1280 C 123.819 2.80421 2.25912 0
M  V30 1281 C 123.672 4.20144 1.60622 0
M  V30 1282 C 124.991 2.94354 3.27176 0
M  V30 1283 H 122.11 0.589752 0.441998 0
M  V30 1284 H 124.752 1.82956 0.51257 0
M  V30 1285 H 122.902 2.62717 2.86203 0
M  V30 1286 H 124.574 4.49449 1.03889 0
M  V30 1287 H 122.817 4.24165 0.909211 0
M  V30 1288 H 123.488 4.98914 2.36196 0
M  V30 1289 H 125.964 3.10578 2.76913 0
M  V30 1290 H 124.84 3.788 3.97242 0
M  V30 1291 H 125.101 2.05186 3.916 0
M  V30 1292 N 124.16 -0.719506 1.40217 0
M  V30 1293 C 125.576 -1.02707 1.22161 0
M  V30 1294 C 125.776 -2.0128 0.0940557 0
M  V30 1295 O 124.832 -2.46452 -0.549318 0
M  V30 1296 C 126.145 -1.57454 2.56181 0
M  V30 1297 C 127.693 -1.69458 2.63159 0
M  V30 1298 C 128.168 -2.27611 3.97438 0
M  V30 1299 N 129.659 -2.35002 3.99159 0
M  V30 1300 C 130.394 -2.80972 4.99842 0
M  V30 1301 N 129.89 -3.26723 6.10921 0
M  V30 1302 N 131.683 -2.80321 4.87213 0
M  V30 1303 H 123.834 -0.0660492 2.12297 0
M  V30 1304 H 126.097 -0.0919077 0.943534 0
M  V30 1305 H 125.803 -0.924873 3.39321 0
M  V30 1306 H 125.677 -2.56036 2.76993 0
M  V30 1307 H 128.064 -2.33543 1.80393 0
M  V30 1308 H 128.145 -0.694867 2.46181 0
M  V30 1309 H 127.789 -1.6415 4.80643 0
M  V30 1310 H 127.719 -3.2829 4.11744 0
M  V30 1311 H 130.21 -2.02685 3.18947 0
M  V30 1312 H 130.523 -3.60355 6.8364 0
M  V30 1313 H 128.868 -3.24692 6.14492 0
M  V30 1314 H 132.059 -2.43912 3.9953 0
M  V30 1315 H 132.232 -3.15831 5.65822 0
M  V30 1316 N 125.638 -1.25649 -0.95132 0
M  V30 1317 C 126.586 -1.06118 -2.06982 0
M  V30 1318 C 127.58 0.00889169 -1.69398 0
M  V30 1319 O 128.786 -0.146988 -1.79399 0
M  V30 1320 H 125.161 -0.326248 -0.677544 0
M  V30 1321 H 127.132 -2.00932 -2.2061 0
M  V30 1322 C 125.881 -0.700145 -3.40578 0
M  V30 1323 H 125.204 -1.51537 -3.69968 0
M  V30 1324 H 126.644 -0.603211 -4.19687 0
M  V30 1325 C 125.103 0.59403 -3.31622 0
M  V30 1326 O 125.633 1.63522 -3.66911 0
M  V30 1327 N 123.839 0.58089 -2.84735 0
M  V30 1328 H 123.386 -0.266783 -2.56215 0
M  V30 1329 H 123.344 1.44695 -2.79125 0
M  V30 1330 N 127.117 1.15442 -1.07289 0
M  V30 1331 C 128.047 2.22312 -0.714107 0
M  V30 1332 C 129.028 1.67467 0.298155 0
M  V30 1333 O 130.213 1.93445 0.171048 0
M  V30 1334 C 127.343 3.47124 -0.110448 0
M  V30 1335 C 126.297 4.14926 -1.04979 0
M  V30 1336 C 125.623 5.33807 -0.308924 0
M  V30 1337 C 126.923 4.64762 -2.38314 0
M  V30 1338 H 128.617 2.5258 -1.6076 0
M  V30 1339 H 126.163 1.21404 -0.77441 0
M  V30 1340 H 128.116 4.21124 0.152482 0
M  V30 1341 H 126.84 3.16187 0.81812 0
M  V30 1342 H 125.499 3.42866 -1.29764 0
M  V30 1343 H 125.147 4.99126 0.623084 0
M  V30 1344 H 124.847 5.80113 -0.935036 0
M  V30 1345 H 126.371 6.10576 -0.0537771 0
M  V30 1346 H 127.785 5.30292 -2.1786 0
M  V30 1347 H 126.182 5.21728 -2.96514 0
M  V30 1348 H 127.252 3.80434 -3.00663 0
M  V30 1349 N 128.595 0.856903 1.32268 0
M  V30 1350 C 129.542 0.301172 2.28827 0
M  V30 1351 C 130.512 -0.593104 1.5515 0
M  V30 1352 O 131.697 -0.527537 1.83362 0
M  V30 1353 C 128.837 -0.502523 3.41422 0
M  V30 1354 C 127.95 0.417797 4.29975 0
M  V30 1355 C 127.085 -0.398749 5.29701 0
M  V30 1356 C 126.124 0.518827 6.09897 0
M  V30 1357 N 125.261 -0.260674 7.01616 0
M  V30 1358 H 130.101 1.12983 2.75751 0
M  V30 1359 H 127.638 0.568582 1.35667 0
M  V30 1360 H 129.596 -0.984141 4.05426 0
M  V30 1361 H 128.226 -1.29599 2.95642 0
M  V30 1362 H 127.278 1.01781 3.66531 0
M  V30 1363 H 128.59 1.12191 4.86019 0
M  V30 1364 H 127.744 -0.943435 5.9932 0
M  V30 1365 H 126.483 -1.13622 4.7428 0
M  V30 1366 H 125.488 1.07538 5.39181 0
M  V30 1367 H 126.713 1.25495 6.67404 0
M  V30 1368 H 124.659 -0.981198 6.4862 0
M  V30 1369 H 124.576 0.384364 7.55022 0
M  V30 1370 H 125.844 -0.787014 7.75517 0
M  V30 1371 N 130.073 -1.45103 0.615059 0
M  V30 1372 C 131.036 -2.29025 -0.0895485 0
M  V30 1373 C 132.036 -1.40174 -0.787906 0
M  V30 1374 O 133.226 -1.62217 -0.634933 0
M  V30 1375 C 130.358 -3.21376 -1.13711 0
M  V30 1376 H 131.551 -2.92807 0.648382 0
M  V30 1377 H 129.104 -1.51749 0.374444 0
M  V30 1378 H 129.839 -2.6241 -1.90556 0
M  V30 1379 H 129.624 -3.86834 -0.640475 0
M  V30 1380 H 131.114 -3.84459 -1.63036 0
M  V30 1381 N 131.551 -0.354651 -1.53558 0
M  V30 1382 C 132.484 0.540273 -2.21712 0
M  V30 1383 C 133.462 1.09161 -1.2051 0
M  V30 1384 O 134.646 1.14979 -1.49372 0
M  V30 1385 C 131.773 1.74435 -2.90328 0
M  V30 1386 C 130.819 1.32146 -4.05512 0
M  V30 1387 S 131.652 0.331924 -5.3447 0
M  V30 1388 C 132.808 1.54258 -6.06593 0
M  V30 1389 H 133.041 -0.0385776 -2.97275 0
M  V30 1390 H 130.574 -0.138736 -1.53775 0
M  V30 1391 H 132.532 2.43507 -3.30476 0
M  V30 1392 H 131.193 2.29444 -2.1451 0
M  V30 1393 H 130.386 2.21952 -4.52497 0
M  V30 1394 H 129.988 0.710091 -3.67197 0
M  V30 1395 H 132.28 2.47534 -6.30661 0
M  V30 1396 H 133.223 1.11431 -6.99277 0
M  V30 1397 H 133.631 1.74367 -5.36895 0
M  V30 1398 N 133.029 1.57378 -0.0835403 0
M  V30 1399 C 134.257 1.98263 0.59157 0
M  V30 1400 C 134.672 0.962302 1.62435 0
M  V30 1401 O 134.029 -0.049581 1.82433 0
M  V30 1402 C 134.08 3.39214 1.24965 0
M  V30 1403 O 133.801 4.37339 0.258186 0
M  V30 1404 C 135.302 3.95038 2.01147 0
M  V30 1405 H 132.522 0.651773 0.159477 0
M  V30 1406 H 135.066 2.03878 -0.159415 0
M  V30 1407 H 133.221 3.34649 1.95164 0
M  V30 1408 H 133.635 5.19371 0.731734 0
M  V30 1409 H 135.109 4.95848 2.42567 0
M  V30 1410 H 135.586 3.32222 2.87272 0
M  V30 1411 H 136.192 4.0304 1.35789 0
M  V30 1412 N 134.507 -0.190092 1.56449 0
M  V30 1413 C 135.784 -0.935886 1.71757 0
M  V30 1414 C 136.164 -2.01173 0.639726 0
M  V30 1415 O 135.512 -2.25827 -0.348502 0
M  V30 1416 C 135.722 -1.51775 3.1427 0
M  V30 1417 C 137.07 -1.99794 3.74656 0
M  V30 1418 O 138.094 -1.61607 3.1743 0
M  V30 1419 O 136.953 -2.70079 4.751 0
M  V30 1420 H 134.047 -0.439229 0.700719 0
M  V30 1421 H 136.593 -0.179395 1.68749 0
M  V30 1422 H 135.365 -0.742505 3.84191 0
M  V30 1423 H 134.988 -2.33894 3.21527 0
M  V30 1424 N 135.985 -1.50799 -0.457987 0
M  V30 1425 C 136.895 -1.73426 -1.57989 0
M  V30 1426 C 137.911 -0.617745 -1.62665 0
M  V30 1427 O 139.087 -0.897614 -1.80291 0
M  V30 1428 C 136.152 -1.83557 -2.94122 0
M  V30 1429 C 135.213 -3.07345 -2.99729 0
M  V30 1430 C 134.446 -3.16983 -4.29368 0
M  V30 1431 O 134.669 -2.33077 -5.20607 0
M  V30 1432 O 133.603 -4.09812 -4.40837 0
M  V30 1433 H 137.429 -2.68555 -1.41817 0
M  V30 1434 H 135.014 -1.35052 -0.638859 0
M  V30 1435 H 136.896 -1.92326 -3.74952 0
M  V30 1436 H 135.571 -0.916137 -3.10465 0
M  V30 1437 H 134.478 -3.04068 -2.1793 0
M  V30 1438 H 135.811 -3.9891 -2.88326 0
M  V30 1439 N 137.463 0.71206 -1.40597 0
M  V30 1440 C 138.709 1.47416 -1.39271 0
M  V30 1441 C 139.042 1.942 0.00388791 0
M  V30 1442 O 138.317 1.68403 0.973179 0
M  V30 1443 C 138.6 2.69774 -2.38525 0
M  V30 1444 C 138.453 2.28861 -3.87224 0
M  V30 1445 C 139.772 3.71939 -2.35264 0
M  V30 1446 H 136.891 0.534713 -0.5072 0
M  V30 1447 H 139.533 0.812375 -1.71757 0
M  V30 1448 H 137.683 3.26238 -2.10953 0
M  V30 1449 H 139.355 1.77852 -4.25636 0
M  V30 1450 H 137.598 1.60824 -4.02887 0
M  V30 1451 H 138.269 3.16584 -4.52193 0
M  V30 1452 H 140.745 3.25113 -2.59694 0
M  V30 1453 H 139.621 4.55186 -3.06753 0
M  V30 1454 H 139.882 4.20484 -1.36549 0
M  V30 1455 N 138.941 1.26152 0.944643 0
M  V30 1456 C 139.891 1.04081 2.02857 0
M  V30 1457 C 140.875 -0.0256555 1.6088 0
M  V30 1458 O 142.067 0.190884 1.75968 0
M  V30 1459 C 139.196 0.672118 3.36656 0
M  V30 1460 C 138.282 1.77586 3.85128 0
M  V30 1461 N 138.673 3.01272 4.06287 0
M  V30 1462 C 136.971 1.65867 4.1401 0
M  V30 1463 C 137.672 3.72983 4.46384 0
M  V30 1464 N 136.648 3.00653 4.52889 0
M  V30 1465 H 140.45 1.97968 2.17223 0
M  V30 1466 H 137.964 1.16618 1.13022 0
M  V30 1467 H 139.961 0.495166 4.13949 0
M  V30 1468 H 138.621 -0.259307 3.23663 0
M  V30 1469 H 139.632 3.37213 3.93075 0
M  V30 1470 H 136.309 0.796907 4.09824 0
M  V30 1471 H 137.699 4.792 4.70975 0
M  V30 1472 N 140.419 -1.14872 1.07899 0
M  V30 1473 C 141.366 -2.19791 0.704319 0
M  V30 1474 C 142.336 -1.63238 -0.306987 0
M  V30 1475 O 143.521 -1.8983 -0.192171 0
M  V30 1476 C 140.661 -3.44911 0.114244 0
M  V30 1477 C 139.774 -4.15637 1.1777 0
M  V30 1478 C 138.909 -5.28324 0.552037 0
M  V30 1479 C 137.948 -5.90875 1.59789 0
M  V30 1480 N 137.085 -6.95022 0.994404 0
M  V30 1481 H 141.925 -2.5119 1.60336 0
M  V30 1482 H 139.462 -1.23356 0.801352 0
M  V30 1483 H 141.42 -4.16477 -0.245544 0
M  V30 1484 H 140.05 -3.14011 -0.74813 0
M  V30 1485 H 139.102 -3.42512 1.65499 0
M  V30 1486 H 140.414 -4.5823 1.97046 0
M  V30 1487 H 139.568 -6.06538 0.1402 0
M  V30 1488 H 138.307 -4.86939 -0.272431 0
M  V30 1489 H 137.312 -5.11369 2.01945 0
M  V30 1490 H 138.537 -6.34337 2.42474 0
M  V30 1491 H 136.483 -6.55722 0.190939 0
M  V30 1492 H 136.4 -7.36073 1.72432 0
M  V30 1493 H 137.668 -7.77123 0.608253 0
M  V30 1494 N 141.898 -0.863906 -1.31812 0
M  V30 1495 C 143.128 -0.485406 -2.00817 0
M  V30 1496 C 143.536 0.925007 -1.65046 0
M  V30 1497 O 142.879 1.61653 -0.872574 0
M  V30 1498 C 142.941 -0.555589 -3.55181 0
M  V30 1499 C 142.605 -1.92654 -4.14407 0
M  V30 1500 C 143.602 -2.89324 -4.31958 0
M  V30 1501 C 141.287 -2.2262 -4.50273 0
M  V30 1502 C 143.281 -4.14108 -4.84555 0
M  V30 1503 C 140.968 -3.47654 -5.02573 0
M  V30 1504 C 141.966 -4.43214 -5.19664 0
M  V30 1505 O 141.654 -5.66033 -5.70843 0
M  V30 1506 H 141.386 -0.188224 -0.649267 0
M  V30 1507 H 143.94 -1.16514 -1.69156 0
M  V30 1508 H 142.17 0.181037 -3.86276 0
M  V30 1509 H 143.859 -0.19138 -4.05449 0
M  V30 1510 H 144.625 -2.6748 -4.04573 0
M  V30 1511 H 140.504 -1.4902 -4.3625 0
M  V30 1512 H 144.048 -4.88703 -4.9781 0
M  V30 1513 H 139.945 -3.69345 -5.29391 0
M  V30 1514 H 140.713 -5.6812 -5.89222 0
M  V30 1515 N 143.376 1.44774 -0.622745 0
M  V30 1516 C 144.624 2.01721 -0.123655 0
M  V30 1517 C 144.945 1.49172 1.25589 0
M  V30 1518 O 144.215 0.691974 1.83272 0
M  V30 1519 H 142.795 0.745777 -0.0427225 0
M  V30 1520 H 145.457 1.77382 -0.807559 0
M  V30 1521 H 144.553 3.11984 -0.0849534 0
M  V30 1522 N 144.854 0.36279 1.53368 0
M  V30 1523 C 145.817 -0.472679 2.24273 0
M  V30 1524 C 146.817 -1.012 1.24961 0
M  V30 1525 O 148.007 -0.898194 1.49259 0
M  V30 1526 C 145.139 -1.66039 2.97731 0
M  V30 1527 H 146.332 0.14773 2.99536 0
M  V30 1528 H 143.885 0.114434 1.55881 0
M  V30 1529 H 144.62 -2.31896 2.26704 0
M  V30 1530 H 144.405 -1.28066 3.70596 0
M  V30 1531 H 145.895 -2.25252 3.51641 0
M  V30 1532 N 146.332 -1.57332 0.0918853 0
M  V30 1533 C 147.262 -2.16872 -0.865371 0
M  V30 1534 C 148.243 -1.10118 -1.29646 0
M  V30 1535 O 149.428 -1.38242 -1.36392 0
M  V30 1536 C 146.558 -2.74649 -2.12569 0
M  V30 1537 C 145.512 -3.86747 -1.83333 0
M  V30 1538 C 144.838 -4.31212 -3.16166 0
M  V30 1539 C 146.138 -5.10089 -1.1228 0
M  V30 1540 H 147.832 -2.97114 -0.369307 0
M  V30 1541 H 145.378 -1.42918 -0.176194 0
M  V30 1542 H 147.331 -3.14952 -2.7997 0
M  V30 1543 H 146.055 -1.91657 -2.64452 0
M  V30 1544 H 144.714 -3.46978 -1.18331 0
M  V30 1545 H 144.362 -3.45115 -3.6593 0
M  V30 1546 H 144.062 -5.06788 -2.97388 0
M  V30 1547 H 145.586 -4.74146 -3.84731 0
M  V30 1548 H 147 -5.47582 -1.69785 0
M  V30 1549 H 145.397 -5.91073 -1.03693 0
M  V30 1550 H 146.467 -4.84786 -0.105041 0
M  V30 1551 N 147.81 0.181792 -1.56548 0
M  V30 1552 C 148.773 1.20894 -1.94724 0
M  V30 1553 C 149.773 1.37738 -0.829747 0
M  V30 1554 O 150.963 1.35323 -1.09697 0
M  V30 1555 C 148.095 2.57593 -2.23291 0
M  V30 1556 H 149.288 0.882275 -2.86629 0
M  V30 1557 H 146.841 0.423838 -1.50444 0
M  V30 1558 H 147.576 2.95291 -1.34067 0
M  V30 1559 H 147.361 2.46735 -3.04736 0
M  V30 1560 H 148.851 3.31637 -2.53785 0
M  V30 1561 N 149.288 1.51039 0.449983 0
M  V30 1562 C 150.536 1.62759 1.19808 0
M  V30 1563 C 150.857 0.339981 1.92013 0
M  V30 1564 O 150.127 -0.643606 1.85026 0
M  V30 1565 H 148.707 0.599811 0.445237 0
M  V30 1566 H 151.369 1.87914 0.517138 0
M  V30 1567 H 150.465 2.44911 1.93455 0
M  V30 1568 N 150.766 -0.704594 1.40972 0
M  V30 1569 C 152.012 -1.46675 1.40051 0
M  V30 1570 C 152.345 -1.94199 0.00641102 0
M  V30 1571 O 151.62 -1.68916 -0.964235 0
M  V30 1572 C 151.903 -2.68505 2.39952 0
M  V30 1573 C 151.756 -2.26805 3.88432 0
M  V30 1574 C 153.075 -3.70686 2.37233 0
M  V30 1575 H 150.194 -0.532015 0.510028 0
M  V30 1576 H 152.836 -0.803255 1.72185 0
M  V30 1577 H 150.986 -3.25114 2.1268 0
M  V30 1578 H 152.658 -1.75592 4.26574 0
M  V30 1579 H 150.901 -1.58685 4.03734 0
M  V30 1580 H 151.572 -3.14181 4.53866 0
M  V30 1581 H 154.048 -3.23731 2.61415 0
M  V30 1582 H 152.924 -4.53553 3.09162 0
M  V30 1583 H 153.185 -4.19754 1.38777 0
M  V30 1584 N 152.244 -1.26651 -0.937939 0
M  V30 1585 C 153.154 -1.10276 -2.07066 0
M  V30 1586 C 154.17 -0.0354197 -1.73964 0
M  V30 1587 O 155.346 -0.239816 -1.99967 0
M  V30 1588 C 152.411 -0.740887 -3.38691 0
M  V30 1589 C 151.472 -1.88799 -3.85556 0
M  V30 1590 C 150.705 -1.54329 -5.10899 0
M  V30 1591 O 150.928 -0.446494 -5.6865 0
M  V30 1592 O 149.862 -2.37911 -5.52885 0
M  V30 1593 H 153.688 -2.05309 -2.23789 0
M  V30 1594 H 151.273 -1.05743 -1.0554 0
M  V30 1595 H 153.155 -0.55195 -4.1777 0
M  V30 1596 H 151.83 0.180022 -3.23199 0
M  V30 1597 H 150.737 -2.13191 -3.07409 0
M  V30 1598 H 152.07 -2.78874 -4.05574 0
M  V30 1599 N 153.722 1.14298 -1.08507 0
M  V30 1600 C 154.652 2.21542 -0.737646 0
M  V30 1601 C 155.633 1.67773 0.280377 0
M  V30 1602 O 156.818 1.93616 0.150521 0
M  V30 1603 C 153.948 3.46988 -0.147259 0
M  V30 1604 C 152.902 4.13789 -1.09374 0
M  V30 1605 C 152.228 5.33449 -0.365524 0
M  V30 1606 C 153.528 4.62208 -2.4323 0
M  V30 1607 H 155.222 2.5086 -1.6343 0
M  V30 1608 H 152.768 1.20576 -0.787243 0
M  V30 1609 H 154.721 4.21262 0.107808 0
M  V30 1610 H 153.445 3.17037 0.784538 0
M  V30 1611 H 152.104 3.4147 -1.33393 0
M  V30 1612 H 151.752 4.99759 0.57011 0
M  V30 1613 H 151.452 5.79088 -0.996512 0
M  V30 1614 H 152.976 6.10485 -0.118534 0
M  V30 1615 H 154.39 5.27952 -2.23472 0
M  V30 1616 H 152.787 5.18553 -3.02031 0
M  V30 1617 H 153.857 3.77224 -3.04681 0
M  V30 1618 N 155.201 0.870884 1.31352 0
M  V30 1619 C 156.447 0.492314 1.97352 0
M  V30 1620 C 156.802 -0.945174 1.67583 0
M  V30 1621 O 156.095 -1.65674 0.962423 0
M  V30 1622 C 156.289 0.687157 3.50732 0
M  V30 1623 C 156.118 2.14203 3.95407 0
M  V30 1624 C 154.888 2.78382 4.21701 0
M  V30 1625 C 157.086 3.1144 4.09279 0
M  V30 1626 N 155.068 4.14611 4.52737 0
M  V30 1627 C 156.439 4.32702 4.44037 0
M  V30 1628 C 158.494 3.07418 3.91661 0
M  V30 1629 C 157.197 5.50463 4.63015 0
M  V30 1630 C 159.223 4.24438 4.11833 0
M  V30 1631 C 158.585 5.44463 4.46923 0
M  V30 1632 H 154.684 0.229206 0.747655 0
M  V30 1633 H 157.268 1.12568 1.5886 0
M  V30 1634 H 155.439 0.083384 3.8831 0
M  V30 1635 H 157.171 0.276883 4.03752 0
M  V30 1636 H 153.926 2.29326 4.14375 0
M  V30 1637 H 154.35 4.84928 4.72413 0
M  V30 1638 H 158.992 2.15732 3.6362 0
M  V30 1639 H 156.71 6.42666 4.89904 0
M  V30 1640 H 160.296 4.2278 3.99685 0
M  V30 1641 H 159.176 6.33504 4.62214 0
M  V30 1642 N 156.679 -1.44442 0.630414 0
M  V30 1643 C 157.909 -2.06115 0.141465 0
M  V30 1644 C 158.317 -1.47179 -1.1889 0
M  V30 1645 O 157.66 -0.588873 -1.74006 0
M  V30 1646 C 157.722 -3.59467 -0.0484355 0
M  V30 1647 C 157.386 -4.40864 1.20366 0
M  V30 1648 C 158.383 -4.74391 2.12719 0
M  V30 1649 C 156.068 -4.8125 1.43887 0
M  V30 1650 C 158.062 -5.47186 3.26904 0
M  V30 1651 C 155.749 -5.53795 2.5837 0
M  V30 1652 C 156.747 -5.86682 3.49705 0
M  V30 1653 O 156.435 -6.57749 4.62191 0
M  V30 1654 H 156.167 -0.671648 0.0765792 0
M  V30 1655 H 158.721 -1.86312 0.864695 0
M  V30 1656 H 156.951 -3.77758 -0.826803 0
M  V30 1657 H 158.64 -4.02909 -0.491849 0
M  V30 1658 H 159.406 -4.43728 1.95781 0
M  V30 1659 H 155.285 -4.55073 0.736853 0
M  V30 1660 H 158.829 -5.72773 3.98217 0
M  V30 1661 H 154.726 -5.83872 2.75251 0
M  V30 1662 H 155.494 -6.76217 4.61164 0
M  V30 1663 N 158.157 -0.370918 -1.53173 0
M  V30 1664 C 159.405 0.216673 -2.00935 0
M  V30 1665 C 159.726 1.48845 -1.25977 0
M  V30 1666 O 158.996 1.92286 -0.374551 0
M  V30 1667 H 157.576 0.0830565 -0.742368 0
M  V30 1668 H 160.238 -0.49838 -1.8842 0
M  V30 1669 H 159.334 0.439893 -3.08984 0
M  V30 1670 N 159.635 1.57281 -0.100228 0
M  V30 1671 C 160.883 1.94153 0.561157 0
M  V30 1672 C 161.204 0.983157 1.68401 0
M  V30 1673 O 160.474 0.0361132 1.95867 0
M  V30 1674 H 159.054 0.716791 0.210283 0
M  V30 1675 H 161.716 1.94202 -0.164765 0
M  V30 1676 H 160.812 2.96709 0.968008 0
M  V30 1677 N 161.113 -0.173488 1.56642 0
M  V30 1678 C 162.076 -1.19859 1.95362 0
M  V30 1679 C 163.076 -1.37296 0.83704 0
M  V30 1680 O 164.266 -1.34739 1.10413 0
M  V30 1681 C 161.398 -2.56405 2.24654 0
M  V30 1682 H 162.591 -0.867062 2.87092 0
M  V30 1683 H 160.144 -0.415853 1.50666 0
M  V30 1684 H 160.879 -2.94576 1.35631 0
M  V30 1685 H 160.664 -2.45115 3.06041 0
M  V30 1686 H 162.154 -3.30287 2.5554 0
M  V30 1687 N 162.591 -1.51276 -0.441967 0
M  V30 1688 C 163.541 -1.6864 -1.53442 0
M  V30 1689 C 164.525 -0.540444 -1.51552 0
M  V30 1690 O 165.717 -0.796157 -1.58083 0
M  V30 1691 C 162.846 -1.8106 -2.91672 0
M  V30 1692 C 161.932 -3.01424 -2.98336 0
M  V30 1693 N 162.323 -4.2467 -2.74752 0
M  V30 1694 C 160.621 -3.00584 -3.29493 0
M  V30 1695 C 161.322 -5.05891 -2.87139 0
M  V30 1696 N 160.298 -4.40442 -3.18609 0
M  V30 1697 H 164.1 -2.61598 -1.33954 0
M  V30 1698 H 161.614 -1.4886 -0.6492 0
M  V30 1699 H 163.611 -1.91609 -3.70259 0
M  V30 1700 H 162.271 -0.892795 -3.12185 0
M  V30 1701 H 163.282 -4.53691 -2.49769 0
M  V30 1702 H 159.959 -2.18417 -3.55809 0
M  V30 1703 H 161.349 -6.13983 -2.72899 0
M  V30 1704 N 164.069 0.697108 -1.41344 0
M  V30 1705 C 165.032 1.79281 -1.42797 0
M  V30 1706 C 166.032 1.57607 -0.318837 0
M  V30 1707 O 167.222 1.64309 -0.578642 0
M  V30 1708 C 164.354 3.17632 -1.23785 0
M  V30 1709 H 165.547 1.79385 -2.40335 0
M  V30 1710 H 163.1 0.904582 -1.27464 0
M  V30 1711 H 163.835 3.23167 -0.270814 0
M  V30 1712 H 163.62 3.34765 -2.04144 0
M  V30 1713 H 165.11 3.97617 -1.27633 0
M  V30 1714 N 165.547 1.27147 0.931209 0
M  V30 1715 C 166.958 1.12044 1.49342 0
M  V30 1716 C 167.309 -0.295795 1.93957 0
M  V30 1717 O 166.434 -1.18835 1.80852 0
M  V30 1718 C 167.029 2.02781 2.71414 0
M  V30 1719 C 165.588 1.91794 3.2387 0
M  V30 1720 C 164.735 1.95543 1.96617 0
M  V30 1721 H 167.686 1.40091 0.745672 0
M  V30 1722 H 167.707 1.58156 3.46074 0
M  V30 1723 H 167.219 3.05848 2.38911 0
M  V30 1724 H 165.32 0.916992 3.6114 0
M  V30 1725 H 165.433 2.77852 3.90302 0
M  V30 1726 H 163.797 1.39722 2.12955 0
M  V30 1727 H 164.58 3.00259 1.66432 0
M  V30 1728 N 167.025 -1.13721 1.09112 0
M  V30 1729 C 167.973 -2.21103 0.722219 0
M  V30 1730 C 168.967 -1.67147 -0.275374 0
M  V30 1731 O 170.173 -1.79477 -0.137176 0
M  V30 1732 H 166.548 -0.720445 0.215553 0
M  V30 1733 H 168.519 -2.49483 1.63709 0
M  V30 1734 C 167.268 -3.47352 0.15543 0
M  V30 1735 H 166.591 -3.89206 0.914246 0
M  V30 1736 H 168.031 -4.2395 -0.0647967 0
M  V30 1737 C 166.49 -3.1814 -1.10852 0
M  V30 1738 O 167.02 -3.36604 -2.19227 0
M  V30 1739 N 165.226 -2.72045 -1.02176 0
M  V30 1740 H 164.773 -2.57221 -0.139764 0
M  V30 1741 H 164.731 -2.52875 -1.8682 0
M  V30 1742 N 168.503 -0.877838 -1.30888 0
M  V30 1743 C 169.436 -0.283995 -2.26426 0
M  V30 1744 C 170.414 0.591361 -1.51465 0
M  V30 1745 O 171.598 0.54304 -1.80509 0
M  V30 1746 C 168.725 0.597129 -3.33395 0
M  V30 1747 C 167.771 -0.207937 -4.25993 0
M  V30 1748 S 168.604 -1.59158 -5.11301 0
M  V30 1749 C 169.76 -0.716791 -6.21782 0
M  V30 1750 H 169.993 -1.09383 -2.76446 0
M  V30 1751 H 167.526 -0.676828 -1.38775 0
M  V30 1752 H 169.484 1.09978 -3.95493 0
M  V30 1753 H 168.145 1.38099 -2.82113 0
M  V30 1754 H 167.338 0.464163 -5.01858 0
M  V30 1755 H 166.94 -0.642963 -3.68432 0
M  V30 1756 H 169.232 0.0692833 -6.77465 0
M  V30 1757 H 170.175 -1.44682 -6.93161 0
M  V30 1758 H 170.583 -0.280855 -5.63801 0
M  V30 1759 N 169.982 1.44106 -0.638065 0
M  V30 1760 C 170.892 2.34513 0.0637334 0
M  V30 1761 C 171.908 1.53018 0.828346 0
M  V30 1762 O 173.084 1.85723 0.779036 0
M  V30 1763 C 170.149 3.31095 1.02844 0
M  V30 1764 C 169.21 4.28497 0.26244 0
M  V30 1765 C 168.443 5.20465 1.1812 0
M  V30 1766 O 168.666 5.16514 2.42011 0
M  V30 1767 O 167.6 5.98251 0.661774 0
M  V30 1768 H 171.426 2.95989 -0.68003 0
M  V30 1769 H 169.011 1.43994 -0.398252 0
M  V30 1770 H 170.893 3.90526 1.58327 0
M  V30 1771 H 169.568 2.72144 1.7527 0
M  V30 1772 H 168.475 3.72592 -0.335602 0
M  V30 1773 H 169.808 4.90388 -0.421936 0
M  V30 1774 N 171.46 0.379036 1.52974 0
M  V30 1775 C 172.685 -0.209353 2.06341 0
M  V30 1776 C 173.11 -1.40583 1.24972 0
M  V30 1777 O 172.468 -1.79246 0.272155 0
M  V30 1778 C 172.516 -0.567786 3.56102 0
M  V30 1779 O 171.62 -1.66318 3.77375 0
M  V30 1780 H 170.961 -0.0272919 0.663439 0
M  V30 1781 H 173.491 0.543536 1.97248 0
M  V30 1782 H 173.501 -0.835003 3.99364 0
M  V30 1783 H 172.176 0.307013 4.14765 0
M  V30 1784 H 170.753 -1.39048 3.46006 0
M  V30 1785 N 172.938 -1.57226 0.108567 0
M  V30 1786 C 174.354 -1.5766 -0.248058 0
M  V30 1787 C 174.554 -1.12063 -1.67464 0
M  V30 1788 O 173.61 -0.803236 -2.39383 0
M  V30 1789 C 174.923 -3.0069 -0.0242287 0
M  V30 1790 C 176.471 -3.12868 -0.0909372 0
M  V30 1791 C 176.946 -4.57879 0.105067 0
M  V30 1792 N 178.437 -4.63172 0.0506846 0
M  V30 1793 C 179.172 -5.73126 0.177396 0
M  V30 1794 N 178.668 -6.91866 0.359696 0
M  V30 1795 N 180.461 -5.61977 0.117709 0
M  V30 1796 H 172.612 -1.85169 1.04049 0
M  V30 1797 H 174.875 -0.85529 0.40888 0
M  V30 1798 H 174.581 -3.38299 0.961604 0
M  V30 1799 H 174.455 -3.6945 -0.76068 0
M  V30 1800 H 176.842 -2.75124 -1.06729 0
M  V30 1801 H 176.923 -2.46672 0.677225 0
M  V30 1802 H 176.567 -4.96321 1.07834 0
M  V30 1803 H 176.497 -5.22153 -0.682954 0
M  V30 1804 H 178.988 -3.778 -0.0871266 0
M  V30 1805 H 179.301 -7.71503 0.447529 0
M  V30 1806 H 177.646 -6.93874 0.395536 0
M  V30 1807 H 180.837 -4.68094 -0.0236741 0
M  V30 1808 H 181.01 -6.47627 0.219905 0
M  V30 1809 N 174.416 0.165178 -1.56732 0
M  V30 1810 C 175.379 1.18822 -1.95995 0
M  V30 1811 C 176.379 1.3685 -0.84431 0
M  V30 1812 O 177.569 1.34152 -1.11126 0
M  V30 1813 C 174.701 2.5521 -2.26011 0
M  V30 1814 H 175.894 0.851825 -2.87548 0
M  V30 1815 H 173.447 0.407857 -1.50885 0
M  V30 1816 H 174.182 2.93852 -1.37191 0
M  V30 1817 H 173.967 2.43489 -3.07336 0
M  V30 1818 H 175.457 3.28927 -2.57288 0
M  V30 1819 N 175.894 1.51508 0.433938 0
M  V30 1820 C 177.122 1.68157 1.20543 0
M  V30 1821 C 177.537 0.380362 1.84929 0
M  V30 1822 O 176.894 -0.641446 1.70856 0
M  V30 1823 C 176.945 2.79965 2.28696 0
M  V30 1824 O 176.666 4.05045 1.66943 0
M  V30 1825 C 178.167 3.07912 3.18912 0
M  V30 1826 H 175.387 0.56421 0.363191 0
M  V30 1827 H 177.931 1.97941 0.513754 0
M  V30 1828 H 176.086 2.5277 2.93574 0
M  V30 1829 H 176.5 4.67165 2.38448 0
M  V30 1830 H 177.974 3.89719 3.90926 0
M  V30 1831 H 178.451 2.20456 3.79863 0
M  V30 1832 H 179.057 3.36779 2.59731 0
M  V30 1833 N 177.372 -0.689602 1.41712 0
M  V30 1834 C 178.783 -1.26973 1.36875 0
M  V30 1835 C 179.134 -1.96124 0.054748 0
M  V30 1836 O 178.259 -1.99141 -0.84687 0
M  V30 1837 C 178.854 -2.30912 2.47922 0
M  V30 1838 C 177.413 -2.84486 2.46464 0
M  V30 1839 C 176.56 -1.58603 2.27465 0
M  V30 1840 H 179.511 -0.48396 1.51141 0
M  V30 1841 H 179.532 -3.12331 2.17323 0
M  V30 1842 H 179.044 -1.80554 3.43543 0
M  V30 1843 H 177.145 -3.39005 1.54617 0
M  V30 1844 H 177.258 -3.34511 3.42986 0
M  V30 1845 H 175.622 -1.84632 1.75451 0
M  V30 1846 H 176.405 -1.10233 3.25121 0
M  V30 1847 N 178.85 -1.27639 -0.924453 0
M  V30 1848 C 180.266 -1.05113 -1.20097 0
M  V30 1849 C 180.466 0.213262 -2.00368 0
M  V30 1850 O 179.522 0.91787 -2.35226 0
M  V30 1851 C 180.835 -2.29244 -1.94596 0
M  V30 1852 C 182.383 -2.34315 -2.07522 0
M  V30 1853 C 182.858 -3.58183 -2.85427 0
M  V30 1854 N 184.349 -3.5876 -2.92994 0
M  V30 1855 C 185.084 -4.51277 -3.53746 0
M  V30 1856 N 184.58 -5.54102 -4.15863 0
M  V30 1857 N 186.373 -4.38894 -3.51181 0
M  V30 1858 H 178.524 -2.08821 -0.388264 0
M  V30 1859 H 180.787 -0.918568 -0.234385 0
M  V30 1860 H 180.493 -3.21301 -1.43034 0
M  V30 1861 H 180.367 -2.34816 -2.95197 0
M  V30 1862 H 182.754 -1.42762 -2.58269 0
M  V30 1863 H 182.835 -2.32744 -1.06131 0
M  V30 1864 H 182.479 -4.50074 -2.35363 0
M  V30 1865 H 182.409 -3.57006 -3.8711 0
M  V30 1866 H 184.9 -2.84398 -2.4885 0
M  V30 1867 H 185.213 -6.20859 -4.60168 0
M  V30 1868 H 183.558 -5.57941 -4.144 0
M  V30 1869 H 186.749 -3.57772 -3.01856 0
M  V30 1870 H 186.922 -5.11186 -3.98237 0
M  V30 1871 N 180.328 1.1314 -1.09713 0
M  V30 1872 C 181.576 1.84119 -0.833338 0
M  V30 1873 C 181.897 1.84097 0.642904 0
M  V30 1874 O 181.167 1.29881 1.46655 0
M  V30 1875 H 179.747 0.681766 -0.305293 0
M  V30 1876 H 182.409 1.37038 -1.38588 0
M  V30 1877 H 181.505 2.88543 -1.18951 0
M  V30 1878 N 181.806 0.884767 1.30421 0
M  V30 1879 C 183.217 0.553656 1.78302 0
M  V30 1880 C 183.568 -0.930153 1.7275 0
M  V30 1881 O 182.693 -1.72681 1.30423 0
M  V30 1882 C 183.288 0.998234 3.2376 0
M  V30 1883 C 181.847 0.71854 3.69478 0
M  V30 1884 C 180.994 1.18132 2.50879 0
M  V30 1885 H 183.945 1.06901 1.17294 0
M  V30 1886 H 183.966 0.327118 3.79091 0
M  V30 1887 H 183.478 2.0782 3.27769 0
M  V30 1888 H 181.579 -0.349444 3.70958 0
M  V30 1889 H 181.692 1.30595 4.60958 0
M  V30 1890 H 180.056 0.600669 2.47516 0
M  V30 1891 H 180.839 2.26902 2.57624 0
M  V30 1892 N 183.284 -1.43765 0.645699 0
M  V30 1893 C 184.509 -2.06767 0.161883 0
M  V30 1894 C 184.934 -1.48034 -1.16049 0
M  V30 1895 O 184.292 -0.587369 -1.71522 0
M  V30 1896 C 184.34 -3.60519 0.0762003 0
M  V30 1897 O 183.444 -4.00982 -0.963721 0
M  V30 1898 H 182.785 -0.657675 0.091429 0
M  V30 1899 H 185.315 -1.84397 0.886499 0
M  V30 1900 H 185.325 -4.07853 -0.109604 0
M  V30 1901 H 184 -4.02646 1.04157 0
M  V30 1902 H 182.577 -3.65253 -0.751312 0
M  V30 1903 N 184.763 -0.387143 -1.52771 0
M  V30 1904 C 185.695 0.484089 -2.2403 0
M  V30 1905 C 186.708 1.02849 -1.26198 0
M  V30 1906 O 187.897 0.931186 -1.52286 0
M  V30 1907 C 184.997 1.68337 -2.94136 0
M  V30 1908 C 184.17 1.26672 -4.18656 0
M  V30 1909 C 183.229 2.33045 -4.7178 0
M  V30 1910 O 182.255 1.94541 -5.34923 0
M  V30 1911 N 183.457 3.64929 -4.5145 0
M  V30 1912 H 186.222 -0.126404 -2.99433 0
M  V30 1913 H 183.783 -0.213392 -1.60488 0
M  V30 1914 H 185.775 2.39019 -3.26577 0
M  V30 1915 H 184.345 2.20025 -2.22053 0
M  V30 1916 H 183.565 0.388878 -3.92277 0
M  V30 1917 H 184.853 0.964964 -4.99566 0
M  V30 1918 H 184.251 3.98974 -4.01044 0
M  V30 1919 H 182.808 4.31651 -4.88386 0
M  V30 1920 N 186.241 1.57166 -0.116904 0
M  V30 1921 C 187.471 1.99184 0.548586 0
M  V30 1922 C 187.879 0.995436 1.60897 0
M  V30 1923 O 187.222 -0.0201293 1.83689 0
M  V30 1924 C 187.284 3.37611 1.23526 0
M  V30 1925 C 186.948 4.55857 0.323077 0
M  V30 1926 C 187.945 5.18056 -0.437476 0
M  V30 1927 C 185.63 5.01751 0.234761 0
M  V30 1928 C 187.624 6.24536 -1.2741 0
M  V30 1929 C 185.311 6.08093 -0.605496 0
M  V30 1930 C 186.309 6.69352 -1.35856 0
M  V30 1931 O 185.997 7.7364 -2.18487 0
M  V30 1932 H 185.729 0.659148 0.149999 0
M  V30 1933 H 188.283 2.0443 -0.199428 0
M  V30 1934 H 186.513 3.29113 2.0303 0
M  V30 1935 H 188.202 3.63932 1.79745 0
M  V30 1936 H 188.968 4.83516 -0.379105 0
M  V30 1937 H 184.847 4.53817 0.810601 0
M  V30 1938 H 188.391 6.72281 -1.86237 0
M  V30 1939 H 184.288 6.42063 -0.665268 0
M  V30 1940 H 185.056 7.90727 -2.11406 0
M  V30 1941 N 187.719 -0.156864 1.56817 0
M  V30 1942 C 188.682 -1.17781 1.96622 0
M  V30 1943 C 189.682 -1.36401 0.851555 0
M  V30 1944 O 190.872 -1.33561 1.11836 0
M  V30 1945 C 188.004 -2.54008 2.27361 0
M  V30 1946 H 189.197 -0.836564 2.87996 0
M  V30 1947 H 186.75 -0.39985 1.51099 0
M  V30 1948 H 187.485 -2.9312 1.38748 0
M  V30 1949 H 187.27 -2.41856 3.08623 0
M  V30 1950 H 188.76 -3.27558 2.59029 0
M  V30 1951 N 189.197 -1.51736 -0.425897 0
M  V30 1952 C 190.422 -1.69082 -1.20108 0
M  V30 1953 C 190.847 -0.392398 -1.83962 0
M  V30 1954 O 190.205 0.64858 -1.69302 0
M  V30 1955 C 190.253 -2.81604 -2.25237 0
M  V30 1956 O 189.357 -2.46004 -3.30992 0
M  V30 1957 H 188.698 -0.563408 -0.35138 0
M  V30 1958 H 191.228 -1.98358 -0.501512 0
M  V30 1959 H 191.238 -3.06025 -2.69838 0
M  V30 1960 H 189.913 -3.75817 -1.78142 0
M  V30 1961 H 188.49 -2.32195 -2.91787 0
M  V30 1962 N 190.675 0.682077 -1.42076 0
M  V30 1963 C 191.585 1.82535 -1.47371 0
M  V30 1964 C 192.601 1.7017 -0.363079 0
M  V30 1965 O 193.777 1.91848 -0.612875 0
M  V30 1966 C 190.842 3.18624 -1.36674 0
M  V30 1967 C 189.903 3.42999 -2.58167 0
M  V30 1968 C 189.136 4.72595 -2.4797 0
M  V30 1969 O 189.359 5.50006 -1.5116 0
M  V30 1970 O 188.293 4.98054 -3.37974 0
M  V30 1971 H 192.119 1.81023 -2.43853 0
M  V30 1972 H 189.704 0.836887 -1.2376 0
M  V30 1973 H 191.586 3.99847 -1.33043 0
M  V30 1974 H 190.261 3.20789 -0.433138 0
M  V30 1975 H 189.168 2.61653 -2.67373 0
M  V30 1976 H 190.501 3.45659 -3.50401 0
M  V30 1977 N 192.153 1.28127 0.917671 0
M  V30 1978 C 193.4 1.15052 1.66641 0
M  V30 1979 C 193.728 -0.301677 1.92146 0
M  V30 1980 O 192.983 -1.23622 1.51711 0
M  V30 1981 C 193.282 1.89018 3.03327 0
M  V30 1982 C 192.948 3.38832 2.97496 0
M  V30 1983 C 191.61 3.79693 2.95613 0
M  V30 1984 C 193.962 4.34378 2.88036 0
M  V30 1985 C 191.29 5.14447 2.82066 0
M  V30 1986 C 193.642 5.69201 2.7603 0
M  V30 1987 C 192.306 6.09343 2.72502 0
M  V30 1988 H 191.576 0.421006 0.609783 0
M  V30 1989 H 194.223 1.58855 1.06945 0
M  V30 1990 H 192.528 1.37752 3.66785 0
M  V30 1991 H 194.225 1.76321 3.60156 0
M  V30 1992 H 190.815 3.06342 2.99754 0
M  V30 1993 H 194.999 4.03775 2.88581 0
M  V30 1994 H 190.255 5.44681 2.77728 0
M  V30 1995 H 194.429 6.42901 2.67678 0
M  V30 1996 H 192.056 7.13712 2.61762 0
M  V30 1997 N 193.631 -1.12557 1.10312 0
M  V30 1998 C 194.541 -2.21841 0.763142 0
M  V30 1999 C 195.557 -1.72354 -0.238801 0
M  V30 2000 O 196.733 -2.01249 -0.0778746 0
M  V30 2001 C 193.798 -3.46131 0.198632 0
M  V30 2002 C 192.859 -4.10464 1.25769 0
M  V30 2003 C 192.092 -5.28821 0.72002 0
M  V30 2004 O 192.315 -5.6859 -0.453993 0
M  V30 2005 O 191.249 -5.83437 1.47935 0
M  V30 2006 H 195.075 -2.53312 1.67532 0
M  V30 2007 H 192.66 -1.20867 0.878157 0
M  V30 2008 H 194.542 -4.2125 -0.112401 0
M  V30 2009 H 193.217 -3.16338 -0.686419 0
M  V30 2010 H 192.124 -3.3713 1.62156 0
M  V30 2011 H 193.457 -4.44408 2.11571 0
M  V30 2012 N 195.109 -0.891671 -1.2995 0
M  V30 2013 C 196.337 -0.52866 -2.00032 0
M  V30 2014 C 196.752 0.884574 -1.66795 0
M  V30 2015 O 196.109 1.5827 -0.908669 0
M  V30 2016 C 196.16 -0.701814 -3.54622 0
M  V30 2017 O 195.881 -2.05942 -3.86678 0
M  V30 2018 C 197.382 -0.342683 -4.41973 0
M  V30 2019 H 194.602 -0.203659 -0.639347 0
M  V30 2020 H 197.146 -1.19881 -1.65677 0
M  V30 2021 H 195.301 -0.0789468 -3.8732 0
M  V30 2022 H 195.715 -2.08291 -4.81368 0
M  V30 2023 H 197.189 -0.514709 -5.49595 0
M  V30 2024 H 197.666 0.71975 -4.33262 0
M  V30 2025 H 198.272 -0.942154 -4.14733 0
M  V30 2026 N 196.587 1.43421 -0.653314 0
M  V30 2027 C 197.517 2.33487 0.0246656 0
M  V30 2028 C 198.498 1.49475 0.811863 0
M  V30 2029 O 199.683 1.78139 0.773322 0
M  V30 2030 C 196.813 3.32841 0.99166 0
M  V30 2031 C 195.767 4.26842 0.314568 0
M  V30 2032 C 195.093 5.16236 1.39302 0
M  V30 2033 C 196.393 5.16243 -0.793095 0
M  V30 2034 H 198.087 2.90427 -0.727481 0
M  V30 2035 H 195.633 1.39649 -0.351287 0
M  V30 2036 H 197.586 3.94747 1.47487 0
M  V30 2037 H 196.31 2.74158 1.77497 0
M  V30 2038 H 194.969 3.663 -0.148199 0
M  V30 2039 H 194.617 4.53891 2.16776 0
M  V30 2040 H 194.317 5.79948 0.945223 0
M  V30 2041 H 195.841 5.81015 1.87759 0
M  V30 2042 H 197.255 5.71958 -0.392039 0
M  V30 2043 H 195.652 5.88676 -1.16536 0
M  V30 2044 H 196.722 4.55927 -1.65103 0
M  V30 2045 N 198.065 0.39524 1.52563 0
M  V30 2046 C 199.29 -0.187456 2.06551 0
M  V30 2047 C 199.715 -1.39249 1.26457 0
M  V30 2048 O 199.073 -1.78947 0.291151 0
M  V30 2049 C 199.121 -0.529985 3.56684 0
M  V30 2050 O 198.225 -1.62307 3.79118 0
M  V30 2051 H 197.566 -0.0202537 0.663691 0
M  V30 2052 H 200.096 0.564426 1.96661 0
M  V30 2053 H 200.106 -0.792598 4.00227 0
M  V30 2054 H 198.781 0.350987 4.14416 0
M  V30 2055 H 197.358 -1.3537 3.47461 0
M  V30 2056 N 199.544 -1.57102 0.125237 0
M  V30 2057 C 200.774 -1.99472 -0.538015 0
M  V30 2058 C 201.182 -1.00395 -1.60366 0
M  V30 2059 O 200.525 0.0103875 -1.83697 0
M  V30 2060 C 200.587 -3.38262 -1.21734 0
M  V30 2061 C 200.251 -4.56021 -0.298897 0
M  V30 2062 C 201.248 -5.17817 0.464943 0
M  V30 2063 C 198.933 -5.01869 -0.208149 0
M  V30 2064 C 200.927 -6.23852 1.3072 0
M  V30 2065 C 198.614 -6.07763 0.637736 0
M  V30 2066 C 199.612 -6.68622 1.39403 0
M  V30 2067 O 199.3 -7.7247 2.22586 0
M  V30 2068 H 199.032 -0.659934 -0.146501 0
M  V30 2069 H 201.586 -2.04321 0.210267 0
M  V30 2070 H 199.816 -3.30185 -2.01282 0
M  V30 2071 H 201.505 -3.6488 -1.77813 0
M  V30 2072 H 202.271 -4.83308 0.404741 0
M  V30 2073 H 198.15 -4.54241 -0.786522 0
M  V30 2074 H 201.694 -6.71284 1.898 0
M  V30 2075 H 197.591 -6.41701 0.699309 0
M  V30 2076 H 198.359 -7.89595 2.15596 0
M  V30 2077 N 201.022 0.148545 -1.56898 0
M  V30 2078 C 202.262 0.86765 -1.85071 0
M  V30 2079 C 202.626 1.78417 -0.709317 0
M  V30 2080 O 203.827 2.54261 -0.872049 0
M  V30 2081 C 202.098 1.62306 -3.1842 0
M  V30 2082 S 203.657 2.3878 -3.68143 0
M  V30 2083 H 200.475 0.290174 -0.649092 0
M  V30 2084 H 203.077 0.127755 -1.95082 0
M  V30 2085 H 201.781 0.941192 -3.99462 0
M  V30 2086 H 201.312 2.4039 -3.1141 0
M  V30 2087 H 203.327 3.63942 -3.37285 0
M  V30 2088 N 202.5 1.5196 0.417844 0
M  V30 2089 C 203.447 1.74678 1.50852 0
M  V30 2090 C 204.417 0.588947 1.55308 0
M  V30 2091 O 205.602 0.825544 1.72016 0
M  V30 2092 C 202.742 1.89544 2.88387 0
M  V30 2093 C 201.855 3.17166 2.93309 0
M  V30 2094 C 200.99 3.22513 4.22088 0
M  V30 2095 C 200.029 4.44372 4.20951 0
M  V30 2096 N 199.166 4.47161 5.41287 0
M  V30 2097 H 204.006 2.67768 1.30783 0
M  V30 2098 H 201.543 1.32689 0.63498 0
M  V30 2099 H 203.501 1.96146 3.68216 0
M  V30 2100 H 202.131 0.998424 3.06971 0
M  V30 2101 H 201.183 3.19778 2.06024 0
M  V30 2102 H 202.495 4.07021 2.88332 0
M  V30 2103 H 201.649 3.28139 5.10303 0
M  V30 2104 H 200.388 2.30581 4.29748 0
M  V30 2105 H 199.393 4.38902 3.31127 0
M  V30 2106 H 200.618 5.3759 4.14938 0
M  V30 2107 H 198.564 3.58108 5.49632 0
M  V30 2108 H 198.481 5.3085 5.3827 0
M  V30 2109 H 199.749 4.57005 6.3148 0
M  V30 2110 N 203.978 -0.674533 1.42435 0
M  V30 2111 C 204.888 -1.81751 1.48337 0
M  V30 2112 C 205.904 -1.69975 0.372099 0
M  V30 2113 O 207.08 -1.91521 0.62304 0
M  V30 2114 C 204.145 -3.17895 1.38361 0
M  V30 2115 C 203.206 -3.41625 2.59982 0
M  V30 2116 C 202.439 -4.71274 2.50473 0
M  V30 2117 O 202.662 -5.49197 1.54075 0
M  V30 2118 O 201.596 -4.96254 3.4061 0
M  V30 2119 H 205.422 -1.79728 2.44809 0
M  V30 2120 H 203.007 -0.830312 1.24202 0
M  V30 2121 H 204.889 -3.99136 1.35161 0
M  V30 2122 H 203.564 -3.20555 0.450144 0
M  V30 2123 H 202.471 -2.60231 2.68757 0
M  V30 2124 H 203.804 -3.43796 3.52229 0
M  V30 2125 N 205.456 -1.28612 -0.910864 0
M  V30 2126 C 206.389 -1.07109 -2.01502 0
M  V30 2127 C 207.367 0.013706 -1.62594 0
M  V30 2128 O 208.551 -0.134796 -1.88017 0
M  V30 2129 C 205.678 -0.628255 -3.32822 0
M  V30 2130 C 204.724 -1.71012 -3.90714 0
M  V30 2131 S 205.557 -3.30676 -4.21205 0
M  V30 2132 C 206.713 -2.88234 -5.55583 0
M  V30 2133 H 206.946 -2.00591 -2.19432 0
M  V30 2134 H 204.479 -1.12633 -1.05609 0
M  V30 2135 H 206.437 -0.37946 -4.08742 0
M  V30 2136 H 205.098 0.28678 -3.12788 0
M  V30 2137 H 204.291 -1.35195 -4.85529 0
M  V30 2138 H 203.893 -1.91186 -3.21441 0
M  V30 2139 H 206.185 -2.34584 -6.35591 0
M  V30 2140 H 207.128 -3.81857 -5.96314 0
M  V30 2141 H 207.536 -2.26862 -5.16908 0
M  V30 2142 N 206.934 1.1197 -1.10907 0
M  V30 2143 C 208.211 1.79959 -0.766432 0
M  V30 2144 C 208.591 1.97466 0.746363 0
M  V30 2145 O 207.939 1.55491 1.67436 0
M  V30 2146 C 208.149 3.14009 -1.52314 0
M  V30 2147 C 209.497 3.89134 -1.69883 0
M  V30 2148 O 210.521 3.2368 -1.48692 0
M  V30 2149 O 209.38 5.06572 -2.05054 0
M  V30 2150 H 206.474 0.779208 -0.277062 0
M  V30 2151 H 209.02 1.18762 -1.21217 0
M  V30 2152 H 207.792 2.96587 -2.55249 0
M  V30 2153 H 207.415 3.82915 -1.07059 0
M  V30 2154 N 208.412 0.89855 1.29475 0
M  V30 2155 C 209.342 0.39201 2.30186 0
M  V30 2156 C 210.323 -0.532359 1.61555 0
M  V30 2157 O 211.508 -0.443331 1.89072 0
M  V30 2158 C 208.638 -0.382353 3.45189 0
M  V30 2159 C 207.592 0.451483 4.25612 0
M  V30 2160 C 206.918 -0.450307 5.328 0
M  V30 2161 C 208.218 1.70079 4.93832 0
M  V30 2162 H 209.912 1.23362 2.72804 0
M  V30 2163 H 207.458 0.594638 1.31149 0
M  V30 2164 H 209.411 -0.747451 4.14718 0
M  V30 2165 H 208.135 -1.25774 3.01411 0
M  V30 2166 H 206.794 0.798897 3.57789 0
M  V30 2167 H 206.442 -1.32379 4.85268 0
M  V30 2168 H 206.142 0.103902 5.87508 0
M  V30 2169 H 207.666 -0.811623 6.05182 0
M  V30 2170 H 209.08 1.40549 5.55805 0
M  V30 2171 H 207.477 2.19623 5.58467 0
M  V30 2172 H 208.547 2.43744 4.19186 0
M  V30 2173 N 209.89 -1.43072 0.660911 0
M  V30 2174 C 211.115 -2.06584 0.183805 0
M  V30 2175 C 211.54 -1.49257 -1.14472 0
M  V30 2176 O 210.898 -0.605528 -1.70889 0
M  V30 2177 C 210.946 -3.60418 0.114434 0
M  V30 2178 O 210.05 -4.01981 -0.921137 0
M  V30 2179 H 209.391 -0.656669 0.0983994 0
M  V30 2180 H 211.921 -1.83447 0.906006 0
M  V30 2181 H 211.931 -4.07946 -0.0663394 0
M  V30 2182 H 210.606 -4.01519 1.08422 0
M  V30 2183 H 209.183 -3.66029 -0.71253 0
M  V30 2184 N 211.368 -0.403325 -1.52352 0
M  V30 2185 C 212.645 0.232611 -1.94212 0
M  V30 2186 C 213.025 1.63133 -1.33981 0
M  V30 2187 O 212.373 2.22659 -0.513344 0
M  V30 2188 C 212.583 0.244811 -3.4814 0
M  V30 2189 C 213.931 0.46698 -4.22024 0
M  V30 2190 O 214.955 0.324419 -3.5472 0
M  V30 2191 O 213.814 0.74747 -5.41364 0
M  V30 2192 H 210.908 0.148223 -0.813609 0
M  V30 2193 H 213.454 -0.458848 -1.63379 0
M  V30 2194 H 212.226 -0.734378 -3.84347 0
M  V30 2195 H 211.849 0.980611 -3.85318 0
M  V30 2196 N 212.846 1.57033 -0.133567 0
M  V30 2197 C 214.095 1.94861 0.520768 0
M  V30 2198 C 214.408 1.02012 1.66892 0
M  V30 2199 O 215.614 1.29365 2.38699 0
M  V30 2200 C 214.07 3.46362 0.977809 0
M  V30 2201 C 213.678 4.47773 -0.142674 0
M  V30 2202 C 215.422 3.93083 1.60269 0
M  V30 2203 C 213.329 5.90468 0.331883 0
M  V30 2204 H 212.259 0.727453 0.198315 0
M  V30 2205 H 214.91 1.82227 -0.215759 0
M  V30 2206 H 213.292 3.54282 1.7692 0
M  V30 2207 H 214.466 4.51536 -0.919317 0
M  V30 2208 H 212.781 4.10891 -0.675124 0
M  V30 2209 H 215.378 4.97121 1.96914 0
M  V30 2210 H 215.721 3.33876 2.48662 0
M  V30 2211 H 216.254 3.88025 0.876453 0
M  V30 2212 H 212.993 6.53463 -0.516341 0
M  V30 2213 H 212.513 5.90094 1.07469 0
M  V30 2214 H 214.192 6.42179 0.788332 0
M  V30 2215 N 214.325 -0.140222 1.56975 0
M  V30 2216 C 215.288 -1.15689 1.97861 0
M  V30 2217 C 216.288 -1.3549 0.865974 0
M  V30 2218 O 217.478 -1.32367 1.13246 0
M  V30 2219 C 214.61 -2.51582 2.30042 0
M  V30 2220 H 215.803 -0.805971 2.88867 0
M  V30 2221 H 213.356 -0.383801 1.51515 0
M  V30 2222 H 214.091 -2.91632 1.41849 0
M  V30 2223 H 213.876 -2.38569 3.11171 0
M  V30 2224 H 215.366 -3.24792 2.62488 0
M  V30 2225 N 215.803 -1.52179 -0.40978 0
M  V30 2226 C 216.735 -1.71703 -1.51825 0
M  V30 2227 C 217.748 -0.597445 -1.51441 0
M  V30 2228 O 218.937 -0.872582 -1.55719 0
M  V30 2229 C 216.037 -1.74171 -2.90719 0
M  V30 2230 C 215.21 -3.03156 -3.15302 0
M  V30 2231 C 214.269 -2.97445 -4.34065 0
M  V30 2232 O 213.295 -3.71352 -4.31377 0
M  V30 2233 N 214.497 -2.15191 -5.39141 0
M  V30 2234 H 217.262 -2.67334 -1.35472 0
M  V30 2235 H 214.823 -1.50409 -0.599069 0
M  V30 2236 H 216.815 -1.67884 -3.68235 0
M  V30 2237 H 215.385 -0.860166 -3.00533 0
M  V30 2238 H 214.605 -3.23097 -2.25836 0
M  V30 2239 H 215.893 -3.88484 -3.28569 0
M  V30 2240 H 215.291 -1.54573 -5.44173 0
M  V30 2241 H 213.848 -2.1476 -6.15403 0
M  V30 2242 N 217.281 0.66697 -1.42791 0
M  V30 2243 C 218.527 1.4291 -1.43891 0
M  V30 2244 C 218.86 1.94114 -0.0578972 0
M  V30 2245 O 218.135 1.71414 0.91911 0
M  V30 2246 C 218.418 2.62049 -2.46987 0
M  V30 2247 C 218.271 2.16426 -3.94309 0
M  V30 2248 C 219.59 3.64266 -2.46978 0
M  V30 2249 H 216.709 0.518306 -0.523954 0
M  V30 2250 H 219.351 0.757321 -1.74255 0
M  V30 2251 H 217.501 3.19361 -2.21225 0
M  V30 2252 H 219.173 1.64221 -4.31079 0
M  V30 2253 H 217.416 1.47925 -4.078 0
M  V30 2254 H 218.087 3.02038 -4.62036 0
M  V30 2255 H 220.563 3.16686 -2.69906 0
M  V30 2256 H 219.439 4.45196 -3.21079 0
M  V30 2257 H 219.7 4.15927 -1.49857 0
M  V30 2258 N 218.759 1.29093 0.90403 0
M  V30 2259 C 219.691 1.09658 2.01266 0
M  V30 2260 C 220.704 0.0453729 1.62737 0
M  V30 2261 O 221.893 0.289446 1.76138 0
M  V30 2262 C 218.993 0.646278 3.32681 0
M  V30 2263 C 218.166 1.77505 3.99763 0
M  V30 2264 C 217.225 1.31649 5.09465 0
M  V30 2265 O 216.251 2.02045 5.32134 0
M  V30 2266 N 217.453 0.184997 5.80205 0
M  V30 2267 H 220.218 2.05135 2.18494 0
M  V30 2268 H 217.779 1.20975 1.07594 0
M  V30 2269 H 219.771 0.322906 4.0341 0
M  V30 2270 H 218.341 -0.215916 3.11853 0
M  V30 2271 H 217.561 2.26752 3.22455 0
M  V30 2272 H 218.849 2.53198 4.41325 0
M  V30 2273 H 218.247 -0.402021 5.6427 0
M  V30 2274 H 216.804 -0.0790358 6.51752 0
M  V30 2275 N 220.237 -1.11381 1.11499 0
M  V30 2276 C 221.169 -2.17207 0.731704 0
M  V30 2277 C 222.182 -1.61066 -0.236957 0
M  V30 2278 O 223.371 -1.78489 -0.0197591 0
M  V30 2279 C 220.471 -3.38846 0.0607624 0
M  V30 2280 C 219.644 -4.24451 1.0564 0
M  V30 2281 C 218.703 -5.24562 0.4149 0
M  V30 2282 O 217.729 -5.59071 1.069 0
M  V30 2283 N 218.931 -5.74651 -0.821943 0
M  V30 2284 H 221.696 -2.50699 1.64225 0
M  V30 2285 H 219.257 -1.26908 1.00529 0
M  V30 2286 H 221.249 -4.02911 -0.380139 0
M  V30 2287 H 219.819 -3.03411 -0.752376 0
M  V30 2288 H 219.039 -3.56833 1.67524 0
M  V30 2289 H 220.327 -4.78486 1.72998 0
M  V30 2290 H 219.725 -5.48797 -1.37252 0
M  V30 2291 H 218.282 -6.40549 -1.20582 0
M  V30 2292 N 221.715 -0.905404 -1.28997 0
M  V30 2293 C 222.962 -0.534248 -1.95325 0
M  V30 2294 C 223.29 0.920535 -1.71337 0
M  V30 2295 O 222.545 1.66861 -1.02254 0
M  V30 2296 C 222.844 -0.779906 -3.48787 0
M  V30 2297 C 222.51 -2.21293 -3.92861 0
M  V30 2298 C 221.172 -2.60475 -4.04606 0
M  V30 2299 C 223.524 -3.14587 -4.15553 0
M  V30 2300 C 220.852 -3.9212 -4.36416 0
M  V30 2301 C 223.204 -4.45787 -4.48839 0
M  V30 2302 C 221.868 -4.84834 -4.58794 0
M  V30 2303 H 221.138 -0.195495 -0.714747 0
M  V30 2304 H 223.785 -1.14514 -1.53488 0
M  V30 2305 H 222.09 -0.0861365 -3.91705 0
M  V30 2306 H 223.787 -0.472029 -3.98212 0
M  V30 2307 H 220.377 -1.89887 -3.84241 0
M  V30 2308 H 224.561 -2.85528 -4.0594 0
M  V30 2309 H 219.817 -4.22086 -4.42327 0
M  V30 2310 H 223.991 -5.18098 -4.65346 0
M  V30 2311 H 221.618 -5.86877 -4.83197 0
M  V30 2312 N 223.193 1.4272 -0.668489 0
M  V30 2313 C 224.423 2.05668 -0.196063 0
M  V30 2314 C 224.831 1.5028 1.14946 0
M  V30 2315 O 224.174 0.6348 1.72383 0
M  V30 2316 C 224.236 3.59469 -0.0468879 0
M  V30 2317 C 223.9 4.37518 -1.32012 0
M  V30 2318 C 224.897 4.68584 -2.25222 0
M  V30 2319 C 222.582 4.77266 -1.56596 0
M  V30 2320 C 224.576 5.38326 -3.41297 0
M  V30 2321 C 222.263 5.4675 -2.72962 0
M  V30 2322 C 223.261 5.77204 -3.65137 0
M  V30 2323 O 222.949 6.45264 -4.79468 0
M  V30 2324 H 222.681 0.669382 -0.0943599 0
M  V30 2325 H 225.235 1.83954 -0.913788 0
M  V30 2326 H 223.465 3.79817 0.726357 0
M  V30 2327 H 225.154 4.04071 0.384852 0
M  V30 2328 H 225.92 4.38382 -2.07477 0
M  V30 2329 H 221.799 4.52959 -0.857249 0
M  V30 2330 H 225.343 5.62014 -4.13263 0
M  V30 2331 H 221.24 5.76369 -2.90635 0
M  V30 2332 H 222.008 6.63753 -4.78931 0
M  V30 2333 N 224.671 0.411399 1.52136 0
M  V30 2334 C 225.917 -0.163888 2.02137 0
M  V30 2335 C 226.25 -1.44597 1.29636 0
M  V30 2336 O 225.525 -1.90272 0.403353 0
M  V30 2337 C 225.808 -0.40927 3.57767 0
M  V30 2338 C 225.661 0.889643 4.40914 0
M  V30 2339 C 226.98 -1.19042 4.23694 0
M  V30 2340 H 224.099 -0.0580896 0.734707 0
M  V30 2341 H 226.741 0.54531 1.82007 0
M  V30 2342 H 224.891 -1.0134 3.7505 0
M  V30 2343 H 226.563 1.52575 4.35337 0
M  V30 2344 H 224.806 1.50011 4.07037 0
M  V30 2345 H 225.477 0.672314 5.4789 0
M  V30 2346 H 227.953 -0.678942 4.10524 0
M  V30 2347 H 226.829 -1.33086 5.32522 0
M  V30 2348 H 227.09 -2.21166 3.82803 0
M  V30 2349 N 226.149 -1.5696 0.141893 0
M  V30 2350 C 227.426 -1.87553 -0.555281 0
M  V30 2351 C 227.806 -1.04699 -1.83306 0
M  V30 2352 O 227.154 -0.132346 -2.28116 0
M  V30 2353 C 227.364 -3.39093 -0.825664 0
M  V30 2354 C 228.712 -4.08199 -1.16869 0
M  V30 2355 O 229.736 -3.44242 -0.915185 0
M  V30 2356 O 228.595 -5.21139 -1.6455 0
M  V30 2357 H 225.689 -0.777188 -0.282679 0
M  V30 2358 H 228.235 -1.68763 0.17812 0
M  V30 2359 H 227.007 -3.91221 0.0788633 0
M  V30 2360 H 226.63 -3.63393 -1.61343 0
M  V30 2361 N 227.627 0.131896 -1.57047 0
M  V30 2362 C 228.59 1.14638 -1.98471 0
M  V30 2363 C 229.59 1.35029 -0.873148 0
M  V30 2364 O 230.78 1.31764 -1.13946 0
M  V30 2365 C 227.912 2.50358 -2.31373 0
M  V30 2366 H 229.105 0.79064 -2.8929 0
M  V30 2367 H 226.658 0.375761 -1.51716 0
M  V30 2368 H 227.393 2.90876 -1.43393 0
M  V30 2369 H 227.178 2.36915 -3.12432 0
M  V30 2370 H 228.668 3.23395 -2.64207 0
M  V30 2371 N 229.106 1.52395 0.401703 0
M  V30 2372 C 230.069 1.75636 1.47257 0
M  V30 2373 C 231.069 0.62628 1.48103 0
M  V30 2374 O 232.259 0.894227 1.49497 0
M  V30 2375 C 229.391 1.84553 2.86624 0
M  V30 2376 H 230.584 2.71241 1.27938 0
M  V30 2377 H 228.137 1.42923 0.632662 0
M  V30 2378 H 228.872 0.908882 3.11303 0
M  V30 2379 H 228.657 2.66715 2.87412 0
M  V30 2380 H 230.147 2.04251 3.64241 0
M  V30 2381 N 230.584 -0.659388 1.43143 0
M  V30 2382 C 231.531 -1.77249 1.47822 0
M  V30 2383 C 232.501 -1.62818 0.328558 0
M  V30 2384 O 233.686 -1.83151 0.534838 0
M  V30 2385 C 230.826 -3.15371 1.40126 0
M  V30 2386 C 229.939 -3.4098 2.65249 0
M  V30 2387 C 229.074 -4.68915 2.49584 0
M  V30 2388 C 228.113 -4.87608 3.70006 0
M  V30 2389 N 227.25 -6.06796 3.53189 0
M  V30 2390 H 232.09 -1.72584 2.42938 0
M  V30 2391 H 229.627 -0.842297 1.20598 0
M  V30 2392 H 231.585 -3.9521 1.33659 0
M  V30 2393 H 230.215 -3.19121 0.485964 0
M  V30 2394 H 229.267 -2.55282 2.8202 0
M  V30 2395 H 230.579 -3.50681 3.54717 0
M  V30 2396 H 229.733 -5.56871 2.4079 0
M  V30 2397 H 228.472 -4.61524 1.5763 0
M  V30 2398 H 227.477 -3.9809 3.79215 0
M  V30 2399 H 228.702 -4.96834 4.62961 0
M  V30 2400 H 226.648 -6.00549 2.63965 0
M  V30 2401 H 226.565 -6.17428 4.36255 0
M  V30 2402 H 227.833 -6.9739 3.48236 0
M  V30 2403 N 232.062 -1.29571 -0.897171 0
M  V30 2404 C 233.478 -1.07637 -1.17841 0
M  V30 2405 C 233.678 0.170713 -2.00776 0
M  V30 2406 O 232.734 0.867768 -2.3712 0
M  V30 2407 C 234.047 -2.3332 -1.8969 0
M  V30 2408 C 235.595 -2.38664 -2.02505 0
M  V30 2409 C 236.07 -3.64157 -2.77765 0
M  V30 2410 N 237.561 -3.64894 -2.85318 0
M  V30 2411 C 238.296 -4.58679 -3.44094 0
M  V30 2412 N 237.792 -5.62799 -4.04017 0
M  V30 2413 N 239.585 -4.46245 -3.41793 0
M  V30 2414 H 231.736 -2.09598 -0.343883 0
M  V30 2415 H 233.999 -0.923333 -0.214848 0
M  V30 2416 H 233.705 -3.24262 -1.36187 0
M  V30 2417 H 233.579 -2.41025 -2.9015 0
M  V30 2418 H 235.966 -1.48208 -2.55183 0
M  V30 2419 H 236.047 -2.34943 -1.01171 0
M  V30 2420 H 235.691 -4.54965 -2.25763 0
M  V30 2421 H 235.621 -3.65137 -3.7945 0
M  V30 2422 H 238.112 -2.89613 -2.42761 0
M  V30 2423 H 238.425 -6.3048 -4.46895 0
M  V30 2424 H 236.77 -5.66605 -4.02472 0
M  V30 2425 H 239.961 -3.64094 -2.94199 0
M  V30 2426 H 240.134 -5.19518 -3.87304 0
M  V30 2427 N 233.54 1.10788 -1.12088 0
M  V30 2428 C 234.765 1.87002 -0.896949 0
M  V30 2429 C 235.19 1.79933 0.548261 0
M  V30 2430 O 234.548 1.16662 1.38779 0
M  V30 2431 C 234.596 3.3349 -1.37174 0
M  V30 2432 O 233.7 4.08745 -0.547831 0
M  V30 2433 H 233.041 0.580397 -0.322545 0
M  V30 2434 H 235.571 1.39996 -1.49206 0
M  V30 2435 H 235.581 3.84339 -1.36922 0
M  V30 2436 H 234.256 3.37951 -2.42408 0
M  V30 2437 H 232.833 3.6776 -0.617034 0
M  V30 2438 N 235.018 0.912232 1.28515 0
M  V30 2439 C 236.434 0.610159 1.47476 0
M  V30 2440 C 236.634 -0.844955 1.82928 0
M  V30 2441 O 235.69 -1.62416 1.93332 0
M  V30 2442 C 237.003 1.54675 2.57868 0
M  V30 2443 C 238.551 1.55331 2.71738 0
M  V30 2444 C 239.026 2.47649 3.85272 0
M  V30 2445 N 240.517 2.45767 3.92623 0
M  V30 2446 C 241.252 3.13896 4.79851 0
M  V30 2447 N 240.748 3.9135 5.71679 0
M  V30 2448 N 242.541 3.02991 4.73448 0
M  V30 2449 H 234.692 1.85318 1.03783 0
M  V30 2450 H 236.955 0.794777 0.516753 0
M  V30 2451 H 236.661 2.5841 2.38574 0
M  V30 2452 H 236.535 1.27671 3.54937 0
M  V30 2453 H 238.922 0.52335 2.90422 0
M  V30 2454 H 239.003 1.86378 1.75205 0
M  V30 2455 H 238.647 3.50745 3.67342 0
M  V30 2456 H 238.577 2.13904 4.81199 0
M  V30 2457 H 241.068 1.89503 3.26951 0
M  V30 2458 H 241.381 4.40359 6.35062 0
M  V30 2459 H 239.726 3.95455 5.71524 0
M  V30 2460 H 242.917 2.41987 4.007 0
M  V30 2461 H 243.09 3.5636 5.41213 0
M  V30 2462 N 236.496 -1.42363 0.676048 0
M  V30 2463 C 237.773 -1.95183 0.127726 0
M  V30 2464 C 238.153 -1.61641 -1.35777 0
M  V30 2465 O 237.501 -0.913216 -2.09458 0
M  V30 2466 C 237.711 -3.46721 0.398199 0
M  V30 2467 C 239.059 -4.23427 0.315383 0
M  V30 2468 O 240.083 -3.54649 0.332016 0
M  V30 2469 O 238.942 -5.45888 0.25865 0
M  V30 2470 H 236.036 -0.826992 0.00359427 0
M  V30 2471 H 238.582 -1.52184 0.750864 0
M  V30 2472 H 237.354 -3.64344 1.4272 0
M  V30 2473 H 236.977 -3.96769 -0.256885 0
M  V30 2474 N 237.974 -0.419461 -1.51915 0
M  V30 2475 C 238.937 0.389116 -2.25873 0
M  V30 2476 C 239.937 0.964924 -1.28631 0
M  V30 2477 O 241.127 0.842179 -1.52489 0
M  V30 2478 C 238.259 1.54874 -3.03689 0
M  V30 2479 H 239.452 -0.258799 -2.98781 0
M  V30 2480 H 237.005 -0.172209 -1.55348 0
M  V30 2481 H 237.74 2.23323 -2.35154 0
M  V30 2482 H 237.525 1.14223 -3.75094 0
M  V30 2483 H 239.015 2.12046 -3.59759 0
M  V30 2484 N 239.452 1.56882 -0.150215 0
M  V30 2485 C 240.7 1.9584 0.499105 0
M  V30 2486 C 241.021 1.03623 1.65188 0
M  V30 2487 O 240.291 0.0984084 1.95653 0
M  V30 2488 H 238.871 0.723119 0.187373 0
M  V30 2489 H 241.533 1.9358 -0.226466 0
M  V30 2490 H 240.629 2.99638 0.873122 0
M  V30 2491 N 240.93 -0.123565 1.57115 0
M  V30 2492 C 242.177 -0.832153 1.84612 0
M  V30 2493 C 242.505 -1.80093 0.734627 0
M  V30 2494 O 241.76 -1.93766 -0.27442 0
M  V30 2495 C 242.059 -1.62016 3.18568 0
M  V30 2496 C 241.725 -0.796084 4.43817 0
M  V30 2497 C 240.387 -0.568816 4.77826 0
M  V30 2498 C 242.739 -0.221364 5.2073 0
M  V30 2499 C 240.067 0.243499 5.86194 0
M  V30 2500 C 242.419 0.578117 6.29953 0
M  V30 2501 C 241.083 0.815744 6.62497 0
M  V30 2502 H 240.353 -0.304507 0.675542 0
M  V30 2503 H 243 -0.0947248 1.91266 0
M  V30 2504 H 241.305 -2.42837 3.0747 0
M  V30 2505 H 243.002 -2.17231 3.37064 0
M  V30 2506 H 239.592 -0.983307 4.17168 0
M  V30 2507 H 243.776 -0.384173 4.94811 0
M  V30 2508 H 239.032 0.436871 6.09837 0
M  V30 2509 H 243.206 1.03046 6.88734 0
M  V30 2510 H 240.833 1.44701 7.46301 0
M  V30 2511 N 242.408 -1.52605 -0.393616 0
M  V30 2512 C 243.685 -1.58001 -1.15304 0
M  V30 2513 C 244.065 -0.370385 -2.07825 0
M  V30 2514 O 243.413 0.641638 -2.19306 0
M  V30 2515 C 243.623 -2.91652 -1.91677 0
M  V30 2516 C 244.971 -3.4522 -2.47201 0
M  V30 2517 O 245.995 -2.93495 -2.01839 0
M  V30 2518 O 244.854 -4.35579 -3.3005 0
M  V30 2519 H 241.948 -0.637068 -0.527327 0
M  V30 2520 H 244.494 -1.64939 -0.399141 0
M  V30 2521 H 243.266 -3.71136 -1.23992 0
M  V30 2522 H 242.889 -2.88077 -2.74039 0
M  V30 2523 N 243.887 0.651787 -1.4349 0
M  V30 2524 C 245.136 1.40754 -1.44469 0
M  V30 2525 C 245.449 1.95463 -0.0731845 0
M  V30 2526 O 246.655 2.71471 0.0395721 0
M  V30 2527 C 245.111 2.54735 -2.5424 0
M  V30 2528 C 244.719 2.06628 -3.97504 0
M  V30 2529 C 246.463 3.32092 -2.64414 0
M  V30 2530 C 244.37 3.17829 -4.98737 0
M  V30 2531 H 243.3 0.528862 -0.53742 0
M  V30 2532 H 245.951 0.703365 -1.69485 0
M  V30 2533 H 244.333 3.2763 -2.22428 0
M  V30 2534 H 245.507 1.40734 -4.38783 0
M  V30 2535 H 243.822 1.42146 -3.91387 0
M  V30 2536 H 246.419 4.14952 -3.37223 0
M  V30 2537 H 246.762 3.80217 -1.69532 0
M  V30 2538 H 247.295 2.66279 -2.95534 0
M  V30 2539 H 244.034 2.74671 -5.95177 0
M  V30 2540 H 243.554 3.82429 -4.62069 0
M  V30 2541 H 245.233 3.82937 -5.21505 0
M  V30 2542 N 245.365 1.30045 0.890287 0
M  V30 2543 C 246.611 1.18737 1.64406 0
M  V30 2544 C 246.944 -0.258525 1.92472 0
M  V30 2545 O 246.219 -1.18562 1.54186 0
M  V30 2546 C 246.502 2.01087 2.98724 0
M  V30 2547 C 246.355 3.53867 2.77665 0
M  V30 2548 C 247.674 1.84457 3.9958 0
M  V30 2549 H 244.793 0.432698 0.596608 0
M  V30 2550 H 247.435 1.5962 1.0306 0
M  V30 2551 H 245.585 1.66349 3.51084 0
M  V30 2552 H 247.257 3.98637 2.32133 0
M  V30 2553 H 245.5 3.78318 2.12269 0
M  V30 2554 H 246.171 4.06772 3.7315 0
M  V30 2555 H 248.647 2.14817 3.56361 0
M  V30 2556 H 247.523 2.44411 4.91482 0
M  V30 2557 H 247.784 0.802276 4.3476 0
M  V30 2558 N 246.843 -1.10192 1.12674 0
M  V30 2559 C 248.073 -1.85713 0.905213 0
M  V30 2560 C 248.481 -1.81056 -0.549108 0
M  V30 2561 O 247.824 -1.19927 -1.39151 0
M  V30 2562 C 247.886 -3.34972 1.30516 0
M  V30 2563 C 247.55 -3.63385 2.77129 0
M  V30 2564 C 248.547 -3.59772 3.75313 0
M  V30 2565 C 246.232 -3.91981 3.14096 0
M  V30 2566 C 248.226 -3.84354 5.08479 0
M  V30 2567 C 245.913 -4.16218 4.47443 0
M  V30 2568 C 246.911 -4.12395 5.44444 0
M  V30 2569 O 246.599 -4.36014 6.75387 0
M  V30 2570 H 246.331 -0.593719 0.323223 0
M  V30 2571 H 248.885 -1.40198 1.50112 0
M  V30 2572 H 247.115 -3.81156 0.652463 0
M  V30 2573 H 248.804 -3.91886 1.05736 0
M  V30 2574 H 249.57 -3.37716 3.48099 0
M  V30 2575 H 245.449 -3.94085 2.39202 0
M  V30 2576 H 248.993 -3.81285 5.84181 0
M  V30 2577 H 244.89 -4.37754 4.74386 0
M  V30 2578 H 245.658 -4.53516 6.8137 0
M  V30 2579 N 248.321 -0.919034 -1.28029 0
M  V30 2580 C 249.567 -0.555757 -1.95036 0
M  V30 2581 C 249.9 0.899198 -1.72128 0
M  V30 2582 O 249.175 1.64023 -1.04531 0
M  V30 2583 C 249.458 -0.872024 -3.49382 0
M  V30 2584 C 249.311 -2.3801 -3.81669 0
M  V30 2585 C 250.63 -0.37185 -4.38526 0
M  V30 2586 H 247.749 -0.203386 -0.708381 0
M  V30 2587 H 250.391 -1.14924 -1.51303 0
M  V30 2588 H 248.541 -0.366946 -3.86763 0
M  V30 2589 H 250.213 -2.9562 -3.54128 0
M  V30 2590 H 248.456 -2.83289 -3.28526 0
M  V30 2591 H 249.127 -2.55192 -4.8947 0
M  V30 2592 H 251.603 -0.804602 -4.08247 0
M  V30 2593 H 250.479 -0.622173 -5.45362 0
M  V30 2594 H 250.74 0.727934 -4.36066 0
M  V30 2595 N 249.799 1.42003 -0.683588 0
M  V30 2596 C 251.029 2.05448 -0.217866 0
M  V30 2597 C 251.437 1.51491 1.13346 0
M  V30 2598 O 250.78 0.653048 1.717 0
M  V30 2599 C 250.842 3.59399 -0.0850118 0
M  V30 2600 C 250.506 4.36093 -1.36645 0
M  V30 2601 C 251.503 4.66169 -2.30179 0
M  V30 2602 C 249.188 4.75578 -1.61649 0
M  V30 2603 C 251.182 5.34676 -3.46988 0
M  V30 2604 C 248.869 5.43824 -2.78745 0
M  V30 2605 C 249.867 5.73299 -3.71238 0
M  V30 2606 O 249.555 6.40142 -4.86285 0
M  V30 2607 H 249.287 0.668344 -0.101454 0
M  V30 2608 H 251.841 1.82974 -0.933248 0
M  V30 2609 H 250.071 3.80566 0.686031 0
M  V30 2610 H 251.76 4.04457 0.341973 0
M  V30 2611 H 252.526 4.36156 -2.12115 0
M  V30 2612 H 248.405 4.52025 -0.905243 0
M  V30 2613 H 251.949 5.57599 -4.19201 0
M  V30 2614 H 247.846 5.73254 -2.96732 0
M  V30 2615 H 248.614 6.58636 -4.85944 0
M  V30 2616 N 251.277 0.427512 1.51691 0
M  V30 2617 C 252.525 -0.141948 2.01601 0
M  V30 2618 C 252.846 -1.44067 1.31414 0
M  V30 2619 O 252.116 -1.90763 0.445658 0
M  V30 2620 H 250.696 -0.0554468 0.744939 0
M  V30 2621 H 253.358 0.567968 1.86441 0
M  V30 2622 H 252.454 -0.324913 3.10404 0
M  V30 2623 N 252.755 -1.56801 0.158532 0
M  V30 2624 C 253.718 -2.16138 -0.762705 0
M  V30 2625 C 254.718 -1.1061 -1.16713 0
M  V30 2626 O 255.908 -1.36191 -1.08617 0
M  V30 2627 C 253.04 -2.73386 -2.03649 0
M  V30 2628 H 254.233 -2.98886 -0.246354 0
M  V30 2629 H 251.786 -1.56035 -0.0909744 0
M  V30 2630 H 252.521 -1.94335 -2.59623 0
M  V30 2631 H 252.306 -3.50601 -1.75559 0
M  V30 2632 H 253.796 -3.19065 -2.6942 0
M  V30 2633 N 254.233 0.115231 -1.57178 0
M  V30 2634 C 255.183 1.14707 -1.97044 0
M  V30 2635 C 256.167 1.36866 -0.845957 0
M  V30 2636 O 257.359 1.37895 -1.10968 0
M  V30 2637 C 254.488 2.47266 -2.38148 0
M  V30 2638 C 253.574 2.28566 -3.57237 0
M  V30 2639 N 253.965 1.79685 -4.72807 0
M  V30 2640 C 252.263 2.59208 -3.62943 0
M  V30 2641 C 252.964 1.74781 -5.54821 0
M  V30 2642 N 251.94 2.19264 -4.97417 0
M  V30 2643 H 255.742 0.761754 -2.83857 0
M  V30 2644 H 253.256 0.322928 -1.59157 0
M  V30 2645 H 255.253 3.219 -2.64927 0
M  V30 2646 H 253.913 2.86552 -1.52702 0
M  V30 2647 H 254.924 1.49177 -4.9595 0
M  V30 2648 H 251.601 3.02154 -2.88113 0
M  V30 2649 H 252.991 1.38212 -6.57531 0
M  V30 2650 N 255.711 1.52812 0.385517 0
M  V30 2651 C 256.936 1.72207 1.15583 0
M  V30 2652 C 257.361 0.441034 1.82857 0
M  V30 2653 O 256.719 -0.603465 1.70962 0
M  V30 2654 C 256.767 2.87476 2.17692 0
M  V30 2655 O 255.871 2.54693 3.24354 0
M  V30 2656 H 255.212 0.572526 0.336319 0
M  V30 2657 H 257.742 1.99618 0.448744 0
M  V30 2658 H 257.752 3.13072 2.6163 0
M  V30 2659 H 256.427 3.80408 1.68115 0
M  V30 2660 H 255.004 2.3985 2.85529 0
M  V30 2661 N 257.189 -0.644168 1.43834 0
M  V30 2662 C 258.419 -1.42939 1.49171 0
M  V30 2663 C 258.827 -1.88874 0.111048 0
M  V30 2664 O 258.17 -1.60656 -0.8908 0
M  V30 2665 C 258.232 -2.69151 2.38324 0
M  V30 2666 C 257.896 -2.45097 3.85715 0
M  V30 2667 C 258.893 -2.07747 4.76589 0
M  V30 2668 C 256.578 -2.59141 4.30292 0
M  V30 2669 C 258.572 -1.8475 6.10038 0
M  V30 2670 C 256.259 -2.35759 5.63792 0
M  V30 2671 C 257.257 -1.9862 6.53482 0
M  V30 2672 O 256.945 -1.75489 7.84512 0
M  V30 2673 H 256.677 -0.445271 0.508635 0
M  V30 2674 H 259.231 -0.79621 1.8934 0
M  V30 2675 H 257.461 -3.3506 1.93058 0
M  V30 2676 H 259.15 -3.31123 2.3476 0
M  V30 2677 H 259.916 -1.96465 4.43426 0
M  V30 2678 H 255.795 -2.87022 3.60749 0
M  V30 2679 H 259.339 -1.55686 6.80006 0
M  V30 2680 H 255.236 -2.46646 5.9652 0
M  V30 2681 H 256.004 -1.89841 7.9618 0
M  V30 2682 N 258.668 -1.30515 -0.883378 0
M  V30 2683 C 259.598 -1.19607 -2.00541 0
M  V30 2684 C 260.579 -0.086346 -1.69881 0
M  V30 2685 O 261.764 -0.268654 -1.92333 0
M  V30 2686 C 258.894 -0.888758 -3.35736 0
M  V30 2687 C 257.848 -1.95659 -3.8066 0
M  V30 2688 C 257.174 -1.50224 -5.13164 0
M  V30 2689 C 258.474 -3.36788 -3.99213 0
M  V30 2690 H 260.168 -2.13476 -2.09925 0
M  V30 2691 H 257.714 -1.02775 -1.00863 0
M  V30 2692 H 259.667 -0.799094 -4.13754 0
M  V30 2693 H 258.391 0.0856125 -3.26488 0
M  V30 2694 H 257.05 -2.03591 -3.04871 0
M  V30 2695 H 256.698 -0.516092 -5.00345 0
M  V30 2696 H 256.398 -2.2165 -5.44192 0
M  V30 2697 H 257.922 -1.42639 -5.93706 0
M  V30 2698 H 259.336 -3.31605 -4.67665 0
M  V30 2699 H 257.733 -4.06314 -4.41621 0
M  V30 2700 H 258.803 -3.78561 -3.03017 0
M  V30 2701 N 260.146 1.09593 -1.13257 0
M  V30 2702 C 261.557 1.63229 -0.906274 0
M  V30 2703 C 261.908 1.8811 0.557578 0
M  V30 2704 O 261.033 1.62953 1.42391 0
M  V30 2705 C 261.628 2.96535 -1.63867 0
M  V30 2706 C 260.187 3.47003 -1.45828 0
M  V30 2707 C 259.334 2.2145 -1.66898 0
M  V30 2708 H 262.285 0.92978 -1.28611 0
M  V30 2709 H 262.306 3.64411 -1.09476 0
M  V30 2710 H 261.818 2.78394 -2.70404 0
M  V30 2711 H 259.919 3.70272 -0.415848 0
M  V30 2712 H 260.032 4.24551 -2.2202 0
M  V30 2713 H 258.396 2.30022 -1.09371 0
M  V30 2714 H 259.179 2.0583 -2.74752 0
M  V30 2715 N 261.624 0.925811 1.2754 0
M  V30 2716 C 262.554 0.440748 2.29303 0
M  V30 2717 C 263.535 -0.497971 1.62648 0
M  V30 2718 O 264.72 -0.403126 1.8997 0
M  V30 2719 C 261.85 -0.309048 3.45922 0
M  V30 2720 C 260.804 0.54166 4.24559 0
M  V30 2721 C 260.13 -0.337191 5.33636 0
M  V30 2722 C 261.43 1.80516 4.90114 0
M  V30 2723 H 263.124 1.29121 2.70126 0
M  V30 2724 H 260.67 0.622323 1.29858 0
M  V30 2725 H 262.623 -0.659315 4.1621 0
M  V30 2726 H 261.347 -1.19352 3.04011 0
M  V30 2727 H 260.006 0.874609 3.56014 0
M  V30 2728 H 259.654 -1.22056 4.87966 0
M  V30 2729 H 259.354 0.228497 5.87156 0
M  V30 2730 H 260.878 -0.683072 6.06767 0
M  V30 2731 H 262.292 1.52307 5.52698 0
M  V30 2732 H 260.689 2.3142 5.53683 0
M  V30 2733 H 261.759 2.52581 4.13921 0
M  V30 2734 N 263.102 -1.41638 0.69111 0
M  V30 2735 C 264.034 -2.29194 -0.0161523 0
M  V30 2736 C 265.047 -1.44549 -0.748955 0
M  V30 2737 O 266.236 -1.681 -0.6004 0
M  V30 2738 C 263.336 -3.22325 -1.0469 0
M  V30 2739 C 262.509 -4.35706 -0.384621 0
M  V30 2740 C 261.568 -5.09443 -1.31737 0
M  V30 2741 O 260.594 -5.63386 -0.811451 0
M  V30 2742 N 261.796 -5.16487 -2.64993 0
M  V30 2743 H 264.561 -2.90534 0.735523 0
M  V30 2744 H 262.122 -1.52742 0.53679 0
M  V30 2745 H 264.114 -3.68522 -1.67252 0
M  V30 2746 H 262.684 -2.62323 -1.70015 0
M  V30 2747 H 261.904 -3.91948 0.420804 0
M  V30 2748 H 263.192 -5.08743 0.0760765 0
M  V30 2749 H 262.59 -4.741 -3.08619 0
M  V30 2750 H 261.147 -5.66276 -3.22761 0
M  V30 2751 N 264.58 -0.43555 -1.51462 0
M  V30 2752 C 265.827 0.131514 -2.02072 0
M  V30 2753 C 266.155 1.42868 -1.31981 0
M  V30 2754 O 265.41 1.91076 -0.422883 0
M  V30 2755 C 265.709 0.39942 -3.55161 0
M  V30 2756 C 265.375 -0.81172 -4.43533 0
M  V30 2757 C 264.037 -1.14387 -4.67407 0
M  V30 2758 C 266.389 -1.61976 -4.95392 0
M  V30 2759 C 263.717 -2.28477 -5.40384 0
M  V30 2760 C 266.069 -2.75164 -5.6962 0
M  V30 2761 C 264.733 -3.08835 -5.91758 0
M  V30 2762 H 264.003 0.0481244 -0.739436 0
M  V30 2763 H 266.65 -0.58238 -1.8243 0
M  V30 2764 H 264.955 1.19519 -3.73125 0
M  V30 2765 H 266.652 0.85157 -3.91854 0
M  V30 2766 H 263.242 -0.542898 -4.25148 0
M  V30 2767 H 267.426 -1.37637 -4.76833 0
M  V30 2768 H 262.682 -2.5488 -5.55739 0
M  V30 2769 H 266.856 -3.38147 -6.08793 0
M  V30 2770 H 264.483 -3.97353 -6.48086 0
M  V30 2771 N 266.058 1.56714 -0.166846 0
M  V30 2772 C 266.988 2.20754 0.760913 0
M  V30 2773 C 267.969 1.16178 1.24244 0
M  V30 2774 O 269.154 1.44592 1.29641 0
M  V30 2775 C 266.284 2.84478 1.99223 0
M  V30 2776 C 265.238 3.95053 1.64672 0
M  V30 2777 C 264.564 4.45805 2.95232 0
M  V30 2778 C 265.864 5.14865 0.878155 0
M  V30 2779 H 267.558 2.98537 0.22713 0
M  V30 2780 H 265.104 1.43596 0.107805 0
M  V30 2781 H 267.057 3.27951 2.64624 0
M  V30 2782 H 265.781 2.04056 2.55007 0
M  V30 2783 H 264.44 3.52228 1.01641 0
M  V30 2784 H 264.088 3.62181 3.49047 0
M  V30 2785 H 263.788 5.204 2.7287 0
M  V30 2786 H 265.312 4.91962 3.6167 0
M  V30 2787 H 266.726 5.55059 1.43466 0
M  V30 2788 H 265.123 5.95348 0.753738 0
M  V30 2789 H 266.193 4.84735 -0.126377 0
M  V30 2790 N 267.536 -0.106894 1.57237 0
M  V30 2791 C 268.484 -1.14944 2.02215 0
M  V30 2792 C 269.478 -1.42167 0.92114 0
M  V30 2793 O 270.684 -1.41987 1.10634 0
M  V30 2794 H 267.059 -0.387841 0.64427 0
M  V30 2795 H 269.03 -0.743683 2.88984 0
M  V30 2796 C 267.779 -2.4647 2.4525 0
M  V30 2797 H 267.102 -2.26363 3.29545 0
M  V30 2798 H 268.542 -3.17948 2.80508 0
M  V30 2799 C 267.001 -3.09921 1.321 0
M  V30 2800 O 267.531 -3.9651 0.643622 0
M  V30 2801 N 265.737 -2.69986 1.07497 0
M  V30 2802 H 265.284 -1.99667 1.62761 0
M  V30 2803 H 265.242 -3.12769 0.319876 0
M  V30 2804 N 269.014 -1.53014 -0.377408 0
M  V30 2805 C 270.425 -1.60438 -0.954798 0
M  V30 2806 C 270.776 -0.464418 -1.90624 0
M  V30 2807 O 269.901 0.41087 -2.12464 0
M  V30 2808 C 270.496 -2.90797 -1.73847 0
M  V30 2809 C 269.055 -3.00595 -2.26538 0
M  V30 2810 C 268.202 -2.55645 -1.07429 0
M  V30 2811 H 271.153 -1.57926 -0.156575 0
M  V30 2812 H 271.174 -2.77935 -2.5987 0
M  V30 2813 H 270.686 -3.73746 -1.04574 0
M  V30 2814 H 268.787 -2.22208 -2.99089 0
M  V30 2815 H 268.9 -4.05456 -2.5523 0
M  V30 2816 H 267.264 -2.10239 -1.43777 0
M  V30 2817 H 268.047 -3.41 -0.396728 0
M  V30 2818 N 270.492 0.636531 -1.44174 0
M  V30 2819 C 271.722 1.42146 -1.49927 0
M  V30 2820 C 272.13 1.88812 -0.121063 0
M  V30 2821 O 271.473 1.61126 0.882267 0
M  V30 2822 C 271.535 2.67883 -2.39748 0
M  V30 2823 C 271.199 2.43048 -3.8701 0
M  V30 2824 C 272.196 2.05216 -4.77684 0
M  V30 2825 C 269.881 2.56856 -4.3166 0
M  V30 2826 C 271.875 1.81512 -6.11009 0
M  V30 2827 C 269.562 2.32766 -5.65034 0
M  V30 2828 C 270.56 1.95152 -6.54526 0
M  V30 2829 O 270.248 1.71326 -7.85431 0
M  V30 2830 H 269.98 0.442567 -0.51099 0
M  V30 2831 H 272.534 0.786158 -1.8976 0
M  V30 2832 H 270.764 3.34032 -1.94832 0
M  V30 2833 H 272.453 3.29874 -2.36513 0
M  V30 2834 H 273.219 1.94111 -4.44462 0
M  V30 2835 H 269.098 2.85104 -3.62266 0
M  V30 2836 H 272.642 1.52077 -6.80822 0
M  V30 2837 H 268.539 2.43479 -5.97819 0
M  V30 2838 H 269.307 1.85616 -7.97176 0
M  V30 2839 N 271.97 1.30982 0.876444 0
M  V30 2840 C 273.2 1.23063 1.65949 0
M  V30 2841 C 273.608 -0.207537 1.88058 0
M  V30 2842 O 272.951 -1.14781 1.43426 0
M  V30 2843 C 273.013 1.89768 3.05333 0
M  V30 2844 C 272.677 3.39106 3.0636 0
M  V30 2845 C 273.674 4.3496 2.84791 0
M  V30 2846 C 271.359 3.80693 3.27686 0
M  V30 2847 C 273.353 5.70375 2.84519 0
M  V30 2848 C 271.04 5.16223 3.27043 0
M  V30 2849 C 272.038 6.10875 3.05485 0
M  V30 2850 O 271.726 7.43928 3.04674 0
M  V30 2851 H 271.458 0.426685 0.524324 0
M  V30 2852 H 274.012 1.7329 1.10271 0
M  V30 2853 H 272.242 1.34082 3.6271 0
M  V30 2854 H 273.931 1.75853 3.65829 0
M  V30 2855 H 274.697 4.0416 2.68103 0
M  V30 2856 H 270.576 3.07457 3.43499 0
M  V30 2857 H 274.12 6.44228 2.67611 0
M  V30 2858 H 270.017 5.4666 3.43269 0
M  V30 2859 H 270.785 7.53022 3.2078 0
M  V30 2860 N 273.449 -1.08991 1.13837 0
M  V30 2861 C 274.397 -2.17841 0.815347 0
M  V30 2862 C 275.391 -1.68164 -0.204233 0
M  V30 2863 O 276.597 -1.79897 -0.0609304 0
M  V30 2864 H 272.972 -0.710654 0.245915 0
M  V30 2865 H 274.943 -2.42315 1.74143 0
M  V30 2866 C 273.692 -3.46381 0.302614 0
M  V30 2867 H 273.015 -3.84979 1.0785 0
M  V30 2868 H 274.455 -4.23844 0.115074 0
M  V30 2869 C 272.914 -3.22556 -0.972591 0
M  V30 2870 O 273.444 -3.45599 -2.04754 0
M  V30 2871 N 271.65 -2.76134 -0.905455 0
M  V30 2872 H 271.197 -2.57582 -0.0305421 0
M  V30 2873 H 271.155 -2.60571 -1.75926 0
M  V30 2874 N 274.927 -0.932562 -1.27047 0
M  V30 2875 C 275.874 -0.434072 -2.26681 0
M  V30 2876 C 276.844 0.501639 -1.58344 0
M  V30 2877 O 278.029 0.419734 -1.86126 0
M  V30 2878 C 275.169 0.30261 -3.43771 0
M  V30 2879 C 274.282 -0.667774 -4.26808 0
M  V30 2880 C 273.417 0.0892393 -5.31125 0
M  V30 2881 C 272.456 -0.873532 -6.05835 0
M  V30 2882 N 271.593 -0.148832 -7.01942 0
M  V30 2883 H 276.433 -1.28868 -2.68695 0
M  V30 2884 H 273.97 -0.646713 -1.32121 0
M  V30 2885 H 275.928 0.746092 -4.10474 0
M  V30 2886 H 274.558 1.12142 -3.02695 0
M  V30 2887 H 273.61 -1.22978 -3.59973 0
M  V30 2888 H 274.922 -1.40337 -4.78651 0
M  V30 2889 H 274.076 0.592409 -6.03801 0
M  V30 2890 H 272.815 0.85777 -4.80097 0
M  V30 2891 H 271.82 -1.38791 -5.31994 0
M  V30 2892 H 273.045 -1.64193 -6.58952 0
M  V30 2893 H 270.991 0.601365 -6.53238 0
M  V30 2894 H 270.908 -0.82391 -7.51497 0
M  V30 2895 H 272.176 0.333527 -7.78786 0
M  V30 2896 N 276.405 1.4127 -0.698611 0
M  V30 2897 C 277.821 1.55241 -0.370462 0
M  V30 2898 C 278.021 1.67351 1.12231 0
M  V30 2899 O 277.077 1.65363 1.90818 0
M  V30 2900 C 278.39 2.78997 -1.12165 0
M  V30 2901 C 279.938 2.92797 -1.1063 0
M  V30 2902 C 280.413 4.19445 -1.8393 0
M  V30 2903 N 281.904 4.26409 -1.80914 0
M  V30 2904 C 282.639 5.23271 -2.34467 0
M  V30 2905 N 282.135 6.26145 -2.96504 0
M  V30 2906 N 283.928 5.15232 -2.24706 0
M  V30 2907 H 276.079 1.31654 -1.66676 0
M  V30 2908 H 278.342 0.635393 -0.703548 0
M  V30 2909 H 278.048 2.76268 -2.17644 0
M  V30 2910 H 277.922 3.70606 -0.702209 0
M  V30 2911 H 280.309 2.95039 -0.0597713 0
M  V30 2912 H 280.39 2.02353 -1.56483 0
M  V30 2913 H 280.034 4.17964 -2.88563 0
M  V30 2914 H 279.964 5.08866 -1.35509 0
M  V30 2915 H 282.455 3.527 -1.35687 0
M  V30 2916 H 282.768 6.96451 -3.34927 0
M  V30 2917 H 281.113 6.26638 -3.00583 0
M  V30 2918 H 284.304 4.33789 -1.7591 0
M  V30 2919 H 284.477 5.90552 -2.66745 0
M  V30 2920 N 277.883 0.443576 1.51229 0
M  V30 2921 C 279.111 -0.11929 2.06556 0
M  V30 2922 C 279.526 -1.35921 1.31038 0
M  V30 2923 O 278.883 -1.78675 0.371704 0
M  V30 2924 C 278.934 -0.435228 3.5887 0
M  V30 2925 O 278.655 0.755486 4.31537 0
M  V30 2926 C 280.156 -1.04808 4.30732 0
M  V30 2927 H 277.376 -0.0051584 0.67098 0
M  V30 2928 H 279.92 0.624453 1.94733 0
M  V30 2929 H 278.075 -1.12887 3.70588 0
M  V30 2930 H 278.489 0.483491 5.22267 0
M  V30 2931 H 279.963 -1.2191 5.3837 0
M  V30 2932 H 280.44 -2.03081 3.89429 0
M  V30 2933 H 281.046 -0.393637 4.23474 0
M  V30 2934 N 279.361 -1.56624 0.175154 0
M  V30 2935 C 280.638 -1.88688 -0.515373 0
M  V30 2936 C 281.018 -1.08564 -1.81044 0
M  V30 2937 O 280.366 -0.180703 -2.27784 0
M  V30 2938 C 280.576 -3.40768 -0.753552 0
M  V30 2939 C 281.924 -4.10587 -1.08184 0
M  V30 2940 O 282.948 -3.46106 -0.841961 0
M  V30 2941 O 281.807 -5.24512 -1.53459 0
M  V30 2942 H 278.901 -0.78301 -0.26613 0
M  V30 2943 H 281.447 -1.68347 0.213877 0
M  V30 2944 H 280.219 -3.90965 0.161829 0
M  V30 2945 H 279.842 -3.66733 -1.53598 0
M  V30 2946 N 280.839 0.0985539 -1.57292 0
M  V30 2947 C 281.786 1.11981 -2.01814 0
M  V30 2948 C 282.756 1.39999 -0.89384 0
M  V30 2949 O 283.941 1.5152 -1.15958 0
M  V30 2950 C 281.081 2.43577 -2.44467 0
M  V30 2951 C 280.194 2.2232 -3.70402 0
M  V30 2952 C 279.329 3.4729 -4.01949 0
M  V30 2953 C 278.368 3.2128 -5.21005 0
M  V30 2954 N 277.505 4.38507 -5.48321 0
M  V30 2955 H 282.345 0.733149 -2.88841 0
M  V30 2956 H 279.882 0.350482 -1.42864 0
M  V30 2957 H 281.84 3.20373 -2.6724 0
M  V30 2958 H 280.47 2.80097 -1.60455 0
M  V30 2959 H 279.522 1.36343 -3.55126 0
M  V30 2960 H 280.834 1.99089 -4.57345 0
M  V30 2961 H 279.988 4.32495 -4.25479 0
M  V30 2962 H 278.727 3.73572 -3.13521 0
M  V30 2963 H 277.732 2.34468 -4.97298 0
M  V30 2964 H 278.957 2.96348 -6.11028 0
M  V30 2965 H 276.903 4.64871 -4.62851 0
M  V30 2966 H 276.82 4.18455 -6.29628 0
M  V30 2967 H 278.088 5.24787 -5.76385 0
M  V30 2968 N 282.317 1.53212 0.369288 0
M  V30 2969 C 283.547 1.72868 1.13139 0
M  V30 2970 C 283.955 0.455754 1.83629 0
M  V30 2971 O 283.298 -0.580861 1.74275 0
M  V30 2972 C 283.36 2.83667 2.20847 0
M  V30 2973 C 283.024 4.24142 1.70155 0
M  V30 2974 C 284.021 5.06619 1.16763 0
M  V30 2975 C 281.706 4.70539 1.7578 0
M  V30 2976 C 283.7 6.33581 0.696678 0
M  V30 2977 C 281.387 5.97481 1.28297 0
M  V30 2978 C 282.385 6.78833 0.753307 0
M  V30 2979 O 282.073 8.03393 0.285475 0
M  V30 2980 H 281.805 0.581707 0.344373 0
M  V30 2981 H 284.359 2.00736 0.435243 0
M  V30 2982 H 282.589 2.51265 2.93944 0
M  V30 2983 H 284.278 2.91536 2.82421 0
M  V30 2984 H 285.044 4.71948 1.11758 0
M  V30 2985 H 280.923 4.07293 2.15949 0
M  V30 2986 H 284.467 6.97027 0.282581 0
M  V30 2987 H 280.364 6.31651 1.32994 0
M  V30 2988 H 281.132 8.17497 0.405145 0
M  V30 2989 N 283.795 -0.628877 1.44509 0
M  V30 2990 C 285.043 -1.38565 1.4712 0
M  V30 2991 C 285.364 -1.94712 0.105899 0
M  V30 2992 O 284.634 -1.75912 -0.862079 0
M  V30 2993 H 283.214 -0.514333 0.541729 0
M  V30 2994 H 285.876 -0.740018 1.80305 0
M  V30 2995 H 284.972 -2.21583 2.19789 0
M  V30 2996 N 285.273 -1.31445 -0.869486 0
M  V30 2997 C 286.521 -1.20918 -1.61936 0
M  V30 2998 C 286.842 0.232683 -1.93607 0
M  V30 2999 O 286.112 1.15352 -1.58338 0
M  V30 3000 H 284.692 -0.44454 -0.600328 0
M  V30 3001 H 287.354 -1.64776 -1.0409 0
M  V30 3002 H 286.45 -1.78124 -2.56278 0
M  V30 3003 N 286.751 1.08385 -1.14413 0
M  V30 3004 C 287.976 1.85057 -0.936413 0
M  V30 3005 C 288.401 1.81055 0.509971 0
M  V30 3006 O 287.759 1.1958 1.36273 0
M  V30 3007 C 287.807 3.30505 -1.44217 0
M  V30 3008 O 286.911 4.07491 -0.634409 0
M  V30 3009 H 286.252 0.573425 -0.334784 0
M  V30 3010 H 288.782 1.36799 -1.52142 0
M  V30 3011 H 288.792 3.81348 -1.45043 0
M  V30 3012 H 287.467 3.32734 -2.49522 0
M  V30 3013 H 286.044 3.66368 -0.694902 0
M  V30 3014 N 288.23 0.939286 1.26551 0
M  V30 3015 C 289.16 0.465044 2.28822 0
M  V30 3016 C 290.141 -0.480692 1.63167 0
M  V30 3017 O 291.326 -0.382955 1.90387 0
M  V30 3018 C 288.456 -0.27234 3.46231 0
M  V30 3019 C 287.41 0.58666 4.2396 0
M  V30 3020 C 286.736 -0.280573 5.33963 0
M  V30 3021 C 288.036 1.85704 4.88171 0
M  V30 3022 H 289.73 1.31979 2.68741 0
M  V30 3023 H 287.276 0.636061 1.29191 0
M  V30 3024 H 289.229 -0.615133 4.16886 0
M  V30 3025 H 287.953 -1.16121 3.0526 0
M  V30 3026 H 286.612 0.91232 3.55067 0
M  V30 3027 H 286.26 -1.16874 4.89234 0
M  V30 3028 H 285.96 0.29076 5.8688 0
M  V30 3029 H 287.484 -0.618678 6.07458 0
M  V30 3030 H 288.898 1.58161 5.51052 0
M  V30 3031 H 287.295 2.37279 5.51197 0
M  V30 3032 H 288.365 2.56957 4.11219 0
M  V30 3033 N 289.708 -1.40897 0.706093 0
M  V30 3034 C 290.618 -2.3455 0.0482286 0
M  V30 3035 C 291.634 -1.56796 -0.754396 0
M  V30 3036 O 292.81 -1.89228 -0.689538 0
M  V30 3037 C 289.875 -3.35625 -0.869303 0
M  V30 3038 C 288.936 -4.29261 -0.0576994 0
M  V30 3039 C 288.169 -5.25508 -0.931531 0
M  V30 3040 O 288.392 -5.27472 -2.17092 0
M  V30 3041 O 287.326 -6.00727 -0.375587 0
M  V30 3042 H 291.152 -2.92407 0.820476 0
M  V30 3043 H 288.737 -1.4193 0.4665 0
M  V30 3044 H 290.619 -3.97635 -1.39514 0
M  V30 3045 H 289.294 -2.80196 -1.62086 0
M  V30 3046 H 288.201 -3.70566 0.512988 0
M  V30 3047 H 289.534 -4.87817 0.655426 0
M  V30 3048 N 291.186 -0.45159 -1.50991 0
M  V30 3049 C 292.134 0.366864 -2.29689 0
M  V30 3050 C 293.128 1.00809 -1.36139 0
M  V30 3051 O 294.334 0.941427 -1.53418 0
M  V30 3052 H 290.709 0.137133 -0.739391 0
M  V30 3053 H 292.68 -0.317538 -2.96706 0
M  V30 3054 C 291.429 1.44751 -3.16137 0
M  V30 3055 H 290.752 0.963473 -3.88017 0
M  V30 3056 H 292.192 1.99315 -3.74232 0
M  V30 3057 C 290.651 2.43869 -2.32442 0
M  V30 3058 O 291.181 3.4872 -1.99392 0
M  V30 3059 N 289.387 2.15105 -1.95392 0
M  V30 3060 H 288.934 1.29866 -2.22469 0
M  V30 3061 H 288.892 2.81661 -1.39693 0
M  V30 3062 N 292.664 1.56529 -0.183458 0
M  V30 3063 C 294.08 1.58664 0.172554 0
M  V30 3064 C 294.28 1.19925 1.61926 0
M  V30 3065 O 293.336 0.916534 2.35278 0
M  V30 3066 C 294.649 3.00463 -0.119262 0
M  V30 3067 C 296.197 3.12945 -0.0584396 0
M  V30 3068 C 296.672 4.56857 -0.323408 0
M  V30 3069 N 298.163 4.62403 -0.271612 0
M  V30 3070 C 298.898 5.71626 -0.450639 0
M  V30 3071 N 298.394 6.89362 -0.689384 0
M  V30 3072 N 300.187 5.60775 -0.385701 0
M  V30 3073 H 292.338 1.79994 -1.12765 0
M  V30 3074 H 294.601 0.834808 -0.449222 0
M  V30 3075 H 294.307 3.33326 -1.12192 0
M  V30 3076 H 294.181 3.72659 0.583544 0
M  V30 3077 H 296.568 2.79902 0.934805 0
M  V30 3078 H 296.649 2.4316 -0.794144 0
M  V30 3079 H 296.293 4.9061 -1.31392 0
M  V30 3080 H 296.223 5.24816 0.43305 0
M  V30 3081 H 298.714 3.77785 -0.0932256 0
M  V30 3082 H 299.027 7.68489 -0.815113 0
M  V30 3083 H 297.372 6.91196 -0.726142 0
M  V30 3084 H 300.563 4.67674 -0.199687 0
M  V30 3085 H 300.736 6.4584 -0.528646 0
M  V30 3086 N 294.142 -0.090211 1.57342 0
M  V30 3087 C 295.105 -1.09335 2.01441 0
M  V30 3088 C 296.105 -1.32666 0.908641 0
M  V30 3089 O 297.295 -1.28697 1.174 0
M  V30 3090 C 294.427 -2.44136 2.3793 0
M  V30 3091 H 295.62 -0.713662 2.91285 0
M  V30 3092 H 293.173 -0.335404 1.52659 0
M  V30 3093 H 293.908 -2.86972 1.51055 0
M  V30 3094 H 293.693 -2.28548 3.18603 0
M  V30 3095 H 295.183 -3.16277 2.72688 0
M  V30 3096 N 295.62 -1.53406 -0.361157 0
M  V30 3097 C 297.036 -1.43277 -0.703124 0
M  V30 3098 C 297.236 -0.575384 -1.9311 0
M  V30 3099 O 296.292 -0.0595362 -2.5243 0
M  V30 3100 C 297.605 -2.8653 -0.9122 0
M  V30 3101 C 299.153 -2.96191 -1.01193 0
M  V30 3102 C 299.628 -4.40514 -1.25345 0
M  V30 3103 N 301.119 -4.43962 -1.32105 0
M  V30 3104 C 301.854 -5.52746 -1.5251 0
M  V30 3105 N 301.35 -6.71567 -1.70203 0
M  V30 3106 N 303.143 -5.40331 -1.54916 0
M  V30 3107 H 295.294 -2.07654 0.446475 0
M  V30 3108 H 297.557 -0.937944 0.137715 0
M  V30 3109 H 297.263 -3.51605 -0.0816414 0
M  V30 3110 H 297.137 -3.30441 -1.81903 0
M  V30 3111 H 299.524 -2.31266 -1.83303 0
M  V30 3112 H 299.605 -2.55667 -0.0823929 0
M  V30 3113 H 299.249 -5.06014 -0.437346 0
M  V30 3114 H 299.179 -4.78614 -2.19627 0
M  V30 3115 H 301.67 -3.58332 -1.20028 0
M  V30 3116 H 301.983 -7.50241 -1.85359 0
M  V30 3117 H 300.328 -6.74545 -1.67373 0
M  V30 3118 H 303.519 -4.46465 -1.40663 0
M  V30 3119 H 303.692 -6.25173 -1.70477 0
M  V30 3120 N 297.098 0.621204 -1.44841 0
M  V30 3121 C 298.345 1.38055 -1.48145 0
M  V30 3122 C 298.673 1.94143 -0.117867 0
M  V30 3123 O 297.928 1.74713 0.881694 0
M  V30 3124 C 298.227 2.55675 -2.4973 0
M  V30 3125 C 297.893 2.17817 -3.94799 0
M  V30 3126 C 296.555 2.07205 -4.34303 0
M  V30 3127 C 298.907 1.88065 -4.86087 0
M  V30 3128 C 296.235 1.65045 -5.63007 0
M  V30 3129 C 298.587 1.47394 -6.15189 0
M  V30 3130 C 297.251 1.35331 -6.53637 0
M  V30 3131 H 296.521 0.505181 -0.542101 0
M  V30 3132 H 299.168 0.703477 -1.78111 0
M  V30 3133 H 297.473 3.2866 -2.13284 0
M  V30 3134 H 299.17 3.13904 -2.4953 0
M  V30 3135 H 295.76 2.26998 -3.63552 0
M  V30 3136 H 299.944 1.95168 -4.56315 0
M  V30 3137 H 295.2 1.54317 -5.91605 0
M  V30 3138 H 299.374 1.23415 -6.85377 0
M  V30 3139 H 297.001 1.02435 -7.53267 0
M  V30 3140 N 298.576 1.31904 0.862503 0
M  V30 3141 C 299.822 1.23207 1.61838 0
M  V30 3142 C 300.177 -0.206062 1.91293 0
M  V30 3143 O 299.47 -1.14162 1.53875 0
M  V30 3144 C 299.664 2.01713 2.95037 0
M  V30 3145 C 299.493 3.53014 2.78588 0
M  V30 3146 C 298.263 4.22359 2.77382 0
M  V30 3147 C 300.461 4.47819 2.52909 0
M  V30 3148 N 298.443 5.59766 2.52062 0
M  V30 3149 C 299.814 5.72947 2.36922 0
M  V30 3150 C 301.869 4.37162 2.38314 0
M  V30 3151 C 300.572 6.88623 2.07823 0
M  V30 3152 C 302.598 5.5263 2.10604 0
M  V30 3153 C 301.96 6.76752 1.95411 0
M  V30 3154 H 298.059 0.505984 0.596242 0
M  V30 3155 H 300.643 1.66179 1.01452 0
M  V30 3156 H 298.814 1.61098 3.53415 0
M  V30 3157 H 300.546 1.84975 3.59953 0
M  V30 3158 H 297.301 3.74401 2.90036 0
M  V30 3159 H 297.725 6.32135 2.42352 0
M  V30 3160 H 302.367 3.41857 2.48784 0
M  V30 3161 H 300.085 7.83948 1.9609 0
M  V30 3162 H 303.671 5.46307 2.00101 0
M  V30 3163 H 302.551 7.6459 1.74274 0
M  V30 3164 N 300.054 -1.07777 1.14986 0
M  V30 3165 C 300.984 -2.16865 0.865557 0
M  V30 3166 C 301.965 -1.69123 -0.182083 0
M  V30 3167 O 303.15 -1.94164 -0.0373815 0
M  V30 3168 C 300.28 -3.45539 0.349313 0
M  V30 3169 C 299.234 -4.06708 1.33313 0
M  V30 3170 C 298.56 -5.30411 0.675918 0
M  V30 3171 C 299.86 -4.47241 2.69764 0
M  V30 3172 H 301.554 -2.40905 1.77778 0
M  V30 3173 H 299.1 -1.15781 0.856203 0
M  V30 3174 H 301.053 -4.21174 0.137983 0
M  V30 3175 H 299.777 -3.21072 -0.598362 0
M  V30 3176 H 298.436 -3.33112 1.53075 0
M  V30 3177 H 298.084 -5.02232 -0.277767 0
M  V30 3178 H 297.784 -5.72293 1.33244 0
M  V30 3179 H 299.308 -6.08755 0.474262 0
M  V30 3180 H 300.722 -5.14025 2.53873 0
M  V30 3181 H 299.119 -5.00062 3.3175 0
M  V30 3182 H 300.189 -3.58818 3.26156 0
M  V30 3183 N 301.532 -0.945985 -1.26051 0
M  V30 3184 C 302.442 -0.465633 -2.29933 0
M  V30 3185 C 303.458 0.462761 -1.67733 0
M  V30 3186 O 304.634 0.341118 -1.9849 0
M  V30 3187 C 301.699 0.256994 -3.45746 0
M  V30 3188 C 300.76 -0.708549 -4.23412 0
M  V30 3189 C 299.993 -0.0203135 -5.33696 0
M  V30 3190 O 300.216 1.19571 -5.57726 0
M  V30 3191 O 299.15 -0.701459 -5.97799 0
M  V30 3192 H 302.976 -1.32866 -2.73094 0
M  V30 3193 H 300.561 -0.712071 -1.31339 0
M  V30 3194 H 302.443 0.663852 -4.16138 0
M  V30 3195 H 301.118 1.09533 -3.04605 0
M  V30 3196 H 300.025 -1.16545 -3.55483 0
M  V30 3197 H 301.358 -1.51465 -4.68315 0
M  V30 3198 N 303.011 1.40521 -0.713556 0
M  V30 3199 C 304.239 2.05237 -0.261775 0
M  V30 3200 C 304.654 1.53755 1.09567 0
M  V30 3201 O 304.011 0.693268 1.6882 0
M  V30 3202 C 304.062 3.60763 -0.230706 0
M  V30 3203 O 303.783 4.10345 -1.53455 0
M  V30 3204 C 305.284 4.42651 0.239874 0
M  V30 3205 H 302.504 0.660533 -0.118057 0
M  V30 3206 H 305.048 1.79967 -0.971192 0
M  V30 3207 H 303.203 3.8501 0.429661 0
M  V30 3208 H 303.617 5.04526 -1.43366 0
M  V30 3209 H 305.091 5.51599 0.210468 0
M  V30 3210 H 305.568 4.20082 1.28171 0
M  V30 3211 H 306.174 4.23507 -0.390142 0
M  V30 3212 N 304.489 0.459591 1.5075 0
M  V30 3213 C 305.419 -0.330644 2.31147 0
M  V30 3214 C 306.4 -1.00087 1.37538 0
M  V30 3215 O 307.585 -1.00025 1.66459 0
M  V30 3216 C 304.715 -1.41958 3.16962 0
M  V30 3217 C 303.669 -0.871608 4.19031 0
M  V30 3218 C 302.995 -2.05797 4.9351 0
M  V30 3219 C 304.295 0.109251 5.22186 0
M  V30 3220 H 305.989 0.340336 2.97459 0
M  V30 3221 H 303.535 0.165119 1.4305 0
M  V30 3222 H 305.488 -1.9798 3.71997 0
M  V30 3223 H 304.212 -2.11917 2.48513 0
M  V30 3224 H 302.871 -0.333442 3.6508 0
M  V30 3225 H 302.519 -2.74427 4.21544 0
M  V30 3226 H 302.219 -1.6976 5.62544 0
M  V30 3227 H 303.743 -2.62331 5.51375 0
M  V30 3228 H 305.157 -0.361405 5.7216 0
M  V30 3229 H 303.554 0.383316 5.98875 0
M  V30 3230 H 304.624 1.03887 4.73641 0
M  V30 3231 N 305.967 -1.56429 0.191757 0
M  V30 3232 C 306.877 -2.22541 -0.742481 0
M  V30 3233 C 307.893 -1.22342 -1.23727 0
M  V30 3234 O 309.069 -1.55069 -1.28513 0
M  V30 3235 C 306.134 -2.8692 -1.94623 0
M  V30 3236 C 305.195 -4.02378 -1.49633 0
M  V30 3237 C 304.428 -4.63678 -2.6427 0
M  V30 3238 O 304.651 -4.23895 -3.81666 0
M  V30 3239 O 303.585 -5.53202 -2.37174 0
M  V30 3240 H 307.411 -3.02977 -0.209462 0
M  V30 3241 H 304.996 -1.49353 -0.0373832 0
M  V30 3242 H 306.878 -3.27663 -2.64982 0
M  V30 3243 H 305.553 -2.09466 -2.46791 0
M  V30 3244 H 304.46 -3.66265 -0.761636 0
M  V30 3245 H 305.793 -4.81487 -1.02134 0
M  V30 3246 N 307.445 0.0818655 -1.57387 0
M  V30 3247 C 308.392 1.09834 -2.0299 0
M  V30 3248 C 309.362 1.39043 -0.908639 0
M  V30 3249 O 310.547 1.50282 -1.17559 0
M  V30 3250 C 307.687 2.40971 -2.47037 0
M  V30 3251 C 306.8 2.18379 -3.7274 0
M  V30 3252 C 305.935 3.43008 -4.0561 0
M  V30 3253 C 304.974 3.15736 -5.24383 0
M  V30 3254 N 304.111 4.32667 -5.52941 0
M  V30 3255 H 308.951 0.702472 -2.89602 0
M  V30 3256 H 306.488 0.33531 -1.43227 0
M  V30 3257 H 308.446 3.1752 -2.70623 0
M  V30 3258 H 307.076 2.78379 -1.63417 0
M  V30 3259 H 306.128 1.32569 -3.56552 0
M  V30 3260 H 307.44 1.94227 -4.59431 0
M  V30 3261 H 306.594 4.27958 -4.30043 0
M  V30 3262 H 305.333 3.70225 -3.17466 0
M  V30 3263 H 304.338 2.2918 -4.99757 0
M  V30 3264 H 305.563 2.8985 -6.14136 0
M  V30 3265 H 303.509 4.59935 -4.67756 0
M  V30 3266 H 303.426 4.11753 -6.34031 0
M  V30 3267 H 304.694 5.18644 -5.81918 0
M  V30 3268 N 308.923 1.53595 0.353017 0
M  V30 3269 C 310.169 1.70638 1.09593 0
M  V30 3270 C 310.502 0.463286 1.88593 0
M  V30 3271 O 309.777 -0.539597 1.86865 0
M  V30 3272 C 310.06 2.96406 2.04489 0
M  V30 3273 C 309.913 4.30901 1.29014 0
M  V30 3274 C 311.232 3.17812 3.0444 0
M  V30 3275 H 308.351 0.620913 0.397034 0
M  V30 3276 H 310.993 1.86254 0.375446 0
M  V30 3277 H 309.143 2.83223 2.65927 0
M  V30 3278 H 310.815 4.55917 0.702638 0
M  V30 3279 H 309.058 4.29741 0.592071 0
M  V30 3280 H 309.729 5.1506 1.98537 0
M  V30 3281 H 312.205 3.30263 2.53112 0
M  V30 3282 H 311.081 4.07223 3.6805 0
M  V30 3283 H 311.342 2.33669 3.75301 0
M  V30 3284 N 310.401 -0.613514 1.45168 0
M  V30 3285 C 311.348 -1.72456 1.53387 0
M  V30 3286 C 312.318 -1.6169 0.380191 0
M  V30 3287 O 313.503 -1.81356 0.592836 0
M  V30 3288 C 310.643 -3.10753 1.50088 0
M  V30 3289 C 309.756 -3.32368 2.75963 0
M  V30 3290 C 308.891 -4.60737 2.64376 0
M  V30 3291 C 307.93 -4.7559 3.85332 0
M  V30 3292 N 307.067 -5.95253 3.72315 0
M  V30 3293 H 311.907 -1.64768 2.48305 0
M  V30 3294 H 309.444 -0.803503 1.23216 0
M  V30 3295 H 311.402 -3.90758 1.46164 0
M  V30 3296 H 310.032 -3.17413 0.587243 0
M  V30 3297 H 309.084 -2.4618 2.89999 0
M  V30 3298 H 310.396 -3.39218 3.65695 0
M  V30 3299 H 309.55 -5.48928 2.58385 0
M  V30 3300 H 308.289 -4.56275 1.72233 0
M  V30 3301 H 307.294 -3.85824 3.91688 0
M  V30 3302 H 308.519 -4.81854 4.78533 0
M  V30 3303 H 306.465 -5.91847 2.82937 0
M  V30 3304 H 306.382 -6.03236 4.55677 0
M  V30 3305 H 307.65 -6.85958 3.70246 0
M  V30 3306 N 311.879 -1.3236 -0.855495 0
M  V30 3307 C 312.829 -1.17809 -1.95205 0
M  V30 3308 C 313.813 -0.0852319 -1.60674 0
M  V30 3309 O 315.005 -0.311651 -1.74235 0
M  V30 3310 C 312.134 -0.902437 -3.31226 0
M  V30 3311 C 311.22 -2.03695 -3.7198 0
M  V30 3312 N 311.611 -3.28544 -3.84568 0
M  V30 3313 C 309.909 -1.93993 -4.016 0
M  V30 3314 C 310.61 -4.02847 -4.19629 0
M  V30 3315 N 309.586 -3.31138 -4.31102 0
M  V30 3316 H 313.388 -2.12462 -2.0307 0
M  V30 3317 H 310.902 -1.24127 -1.0472 0
M  V30 3318 H 312.899 -0.77915 -4.09554 0
M  V30 3319 H 311.559 0.0357267 -3.2468 0
M  V30 3320 H 312.57 -3.6349 -3.68911 0
M  V30 3321 H 309.247 -1.07733 -4.03361 0
M  V30 3322 H 310.637 -5.10506 -4.36845 0
M  V30 3323 N 313.357 1.07166 -1.15556 0
M  V30 3324 C 314.32 2.12589 -0.856644 0
M  V30 3325 C 315.32 1.6015 0.14444 0
M  V30 3326 O 316.51 1.7399 -0.0854163 0
M  V30 3327 C 313.642 3.39753 -0.279405 0
M  V30 3328 H 314.835 2.40539 -1.79112 0
M  V30 3329 H 312.388 1.23086 -0.963298 0
M  V30 3330 H 313.123 3.17447 0.663174 0
M  V30 3331 H 312.908 3.79117 -1.00063 0
M  V30 3332 H 314.398 4.17507 -0.0879113 0
M  V30 3333 N 314.835 0.952656 1.25548 0
M  V30 3334 C 316.081 0.607272 1.93494 0
M  V30 3335 C 316.414 -0.853245 1.74452 0
M  V30 3336 O 315.689 -1.61194 1.08843 0
M  V30 3337 C 315.972 0.96435 3.46947 0
M  V30 3338 C 315.825 2.48045 3.75225 0
M  V30 3339 C 317.144 0.487987 4.37386 0
M  V30 3340 H 314.263 0.222096 0.702739 0
M  V30 3341 H 316.905 1.18895 1.48203 0
M  V30 3342 H 315.055 0.469361 3.85654 0
M  V30 3343 H 316.727 3.04905 3.46166 0
M  V30 3344 H 314.97 2.919 3.209 0
M  V30 3345 H 315.641 2.6808 4.82532 0
M  V30 3346 H 318.117 0.912558 4.0597 0
M  V30 3347 H 316.993 0.766547 5.43521 0
M  V30 3348 H 317.254 -0.612063 4.37843 0
M  V30 3349 N 316.313 -1.40141 0.720998 0
M  V30 3350 C 317.561 -2.0039 0.262323 0
M  V30 3351 C 317.882 -1.57469 -1.15015 0
M  V30 3352 O 317.152 -0.816582 -1.78069 0
M  V30 3353 H 315.732 -0.741063 0.093996 0
M  V30 3354 H 318.394 -1.71398 0.927835 0
M  V30 3355 H 317.49 -3.10658 0.299671 0
M  V30 3356 N 317.792 -0.46758 -1.50504 0
M  V30 3357 C 319.017 0.0886943 -2.0721 0
M  V30 3358 C 319.442 1.33057 -1.32956 0
M  V30 3359 O 318.8 1.77354 -0.376197 0
M  V30 3360 C 318.848 0.359202 -3.58806 0
M  V30 3361 O 317.952 1.44034 -3.8643 0
M  V30 3362 H 317.293 -0.0114349 -0.663902 0
M  V30 3363 H 319.823 -0.657613 -1.93744 0
M  V30 3364 H 319.833 0.600742 -4.03553 0
M  V30 3365 H 318.508 -0.548311 -4.1227 0
M  V30 3366 H 317.085 1.18638 -3.53524 0
M  V30 3367 N 319.27 1.56325 -0.20005 0
M  V30 3368 C 320.547 1.89484 0.48529 0
M  V30 3369 C 320.927 1.1143 1.79294 0
M  V30 3370 O 320.275 0.216919 2.27468 0
M  V30 3371 C 320.485 3.41923 0.699243 0
M  V30 3372 C 321.833 4.12256 1.01638 0
M  V30 3373 O 322.857 3.47402 0.786792 0
M  V30 3374 O 321.716 5.26887 1.45095 0
M  V30 3375 H 318.81 0.787144 0.253639 0
M  V30 3376 H 321.356 1.67985 -0.240633 0
M  V30 3377 H 320.128 3.90658 -0.224008 0
M  V30 3378 H 319.751 3.69131 1.47744 0
M  V30 3379 N 320.748 -0.0735177 1.57428 0
M  V30 3380 C 321.988 -0.778363 1.89 0
M  V30 3381 C 322.352 -1.7483 0.793634 0
M  V30 3382 O 323.553 -2.49811 0.992367 0
M  V30 3383 C 321.824 -1.46929 3.25802 0
M  V30 3384 S 323.383 -2.20943 3.79117 0
M  V30 3385 H 320.201 -0.258874 0.662197 0
M  V30 3386 H 322.803 -0.0345338 1.95469 0
M  V30 3387 H 321.507 -0.749532 4.03497 0
M  V30 3388 H 321.038 -2.25258 3.22525 0
M  V30 3389 H 323.053 -3.47435 3.54265 0
M  V30 3390 N 322.226 -1.5378 -0.344866 0
M  V30 3391 C 323.189 -1.80981 -1.40637 0
M  V30 3392 C 324.189 -0.680816 -1.45676 0
M  V30 3393 O 325.379 -0.949095 -1.46075 0
M  V30 3394 C 322.511 -1.95063 -2.79577 0
M  V30 3395 H 323.704 -2.75803 -1.17783 0
M  V30 3396 H 321.257 -1.45173 -0.579181 0
M  V30 3397 H 321.992 -1.02379 -3.07716 0
M  V30 3398 H 321.777 -2.77198 -2.77315 0
M  V30 3399 H 323.267 -2.17629 -3.56409 0
M  V30 3400 N 323.704 0.605807 -1.45491 0
M  V30 3401 C 324.953 1.36086 -1.48874 0
M  V30 3402 C 325.266 1.95131 -0.135333 0
M  V30 3403 O 326.472 2.7146 -0.0468144 0
M  V30 3404 C 324.928 2.46518 -2.62215 0
M  V30 3405 C 324.536 1.93877 -4.03876 0
M  V30 3406 C 326.28 3.23512 -2.74846 0
M  V30 3407 C 324.187 3.01801 -5.08596 0
M  V30 3408 H 323.117 0.511497 -0.553974 0
M  V30 3409 H 325.768 0.649089 -1.71636 0
M  V30 3410 H 324.15 3.20388 -2.32739 0
M  V30 3411 H 325.324 1.26704 -4.43038 0
M  V30 3412 H 323.639 1.29622 -3.95711 0
M  V30 3413 H 326.236 4.04013 -3.50253 0
M  V30 3414 H 326.579 3.74631 -1.81542 0
M  V30 3415 H 327.112 2.56742 -3.03856 0
M  V30 3416 H 323.851 2.55597 -6.03614 0
M  V30 3417 H 323.371 3.67535 -4.74002 0
M  V30 3418 H 325.05 3.66152 -5.33424 0
M  V30 3419 N 325.182 1.32811 0.848464 0
M  V30 3420 C 326.145 1.22194 1.9391 0
M  V30 3421 C 327.145 0.143404 1.60159 0
M  V30 3422 O 328.335 0.394253 1.6968 0
M  V30 3423 C 325.467 0.88067 3.29328 0
M  V30 3424 H 326.66 2.19127 2.04752 0
M  V30 3425 H 324.213 1.16731 1.0394 0
M  V30 3426 H 324.948 -0.0865776 3.24184 0
M  V30 3427 H 324.733 1.66052 3.55203 0
M  V30 3428 H 326.223 0.830871 4.09251 0
M  V30 3429 N 326.66 -1.06551 1.16123 0
M  V30 3430 C 327.888 -1.83005 0.965237 0
M  V30 3431 C 328.303 -1.82423 -0.486542 0
M  V30 3432 O 327.66 -1.24152 -1.33763 0
M  V30 3433 C 327.711 -3.29733 1.48183 0
M  V30 3434 O 327.432 -3.30416 2.87674 0
M  V30 3435 C 328.933 -4.22926 1.32848 0
M  V30 3436 H 326.153 -0.577118 0.342309 0
M  V30 3437 H 328.697 -1.3445 1.54089 0
M  V30 3438 H 326.852 -3.75609 0.948517 0
M  V30 3439 H 327.266 -4.22149 3.11272 0
M  V30 3440 H 328.74 -5.23916 1.73827 0
M  V30 3441 H 329.217 -4.38346 0.273692 0
M  V30 3442 H 329.823 -3.82894 1.85127 0
M  V30 3443 N 328.138 -0.959301 -1.25041 0
M  V30 3444 C 329.554 -0.664474 -1.4511 0
M  V30 3445 C 329.754 0.776481 -1.85938 0
M  V30 3446 O 328.81 1.55128 -1.99227 0
M  V30 3447 C 330.123 -1.64139 -2.5195 0
M  V30 3448 C 331.671 -1.65309 -2.65786 0
M  V30 3449 C 332.146 -2.61777 -3.75815 0
M  V30 3450 N 333.637 -2.60169 -3.83231 0
M  V30 3451 C 334.372 -3.31489 -4.6787 0
M  V30 3452 N 333.868 -4.12298 -5.56761 0
M  V30 3453 N 335.661 -3.20354 -4.61876 0
M  V30 3454 H 327.812 -1.89043 -0.968332 0
M  V30 3455 H 330.075 -0.813408 -0.4869 0
M  V30 3456 H 329.781 -2.67086 -2.28819 0
M  V30 3457 H 329.655 -1.40756 -3.49954 0
M  V30 3458 H 332.042 -0.630778 -2.8828 0
M  V30 3459 H 332.123 -1.92753 -1.68167 0
M  V30 3460 H 331.767 -3.64137 -3.54071 0
M  V30 3461 H 331.697 -2.31616 -4.72929 0
M  V30 3462 H 334.188 -2.01507 -3.19692 0
M  V30 3463 H 334.501 -4.63625 -6.18281 0
M  V30 3464 H 332.846 -4.16395 -5.56454 0
M  V30 3465 H 336.037 -2.56692 -3.91442 0
M  V30 3466 H 336.21 -3.76201 -5.27614 0
M  V30 3467 N 329.616 1.39756 -0.72842 0
M  V30 3468 C 330.863 2.00645 -0.273487 0
M  V30 3469 C 331.191 1.57786 1.13727 0
M  V30 3470 O 330.446 0.794886 1.7883 0
M  V30 3471 C 330.745 3.56002 -0.315776 0
M  V30 3472 C 330.411 4.18489 -1.67863 0
M  V30 3473 C 329.073 4.3527 -2.05166 0
M  V30 3474 C 331.425 4.53219 -2.57375 0
M  V30 3475 C 328.753 4.84069 -3.31503 0
M  V30 3476 C 331.105 5.03423 -3.83077 0
M  V30 3477 C 329.769 5.18413 -4.20481 0
M  V30 3478 H 329.039 0.734211 -0.100076 0
M  V30 3479 H 331.686 1.6718 -0.933972 0
M  V30 3480 H 329.991 3.89452 0.428285 0
M  V30 3481 H 331.688 4.00963 0.0542575 0
M  V30 3482 H 328.278 4.05824 -1.37858 0
M  V30 3483 H 332.462 4.39878 -2.29827 0
M  V30 3484 H 327.718 4.93859 -3.60435 0
M  V30 3485 H 331.892 5.2927 -4.52599 0
M  V30 3486 H 329.519 5.55987 -5.18443 0
M  V30 3487 N 331.094 0.475555 1.50254 0
M  V30 3488 C 332.342 -0.077738 2.0195 0
M  V30 3489 C 332.663 -1.39813 1.35931 0
M  V30 3490 O 331.933 -1.89249 0.506123 0
M  V30 3491 H 330.513 -0.031719 0.746326 0
M  V30 3492 H 333.175 0.626995 1.84539 0
M  V30 3493 H 332.271 -0.225995 3.11281 0
M  V30 3494 N 332.573 -1.56217 0.208337 0
M  V30 3495 C 333.819 -1.98242 -0.427552 0
M  V30 3496 C 334.152 -1.09554 -1.60348 0
M  V30 3497 O 333.427 -0.15035 -1.93918 0
M  V30 3498 C 333.71 -3.4931 -0.874907 0
M  V30 3499 C 333.563 -4.48773 0.303751 0
M  V30 3500 C 334.882 -4.04424 -1.73577 0
M  V30 3501 H 332.001 -0.720744 -0.153936 0
M  V30 3502 H 334.643 -1.87586 0.30192 0
M  V30 3503 H 332.793 -3.58522 -1.49648 0
M  V30 3504 H 334.465 -4.51586 0.941682 0
M  V30 3505 H 332.708 -4.23194 0.953375 0
M  V30 3506 H 333.379 -5.51976 -0.0519883 0
M  V30 3507 H 335.855 -3.98075 -1.21143 0
M  V30 3508 H 334.731 -5.1047 -2.01771 0
M  V30 3509 H 334.992 -3.50494 -2.69456 0
M  V30 3510 N 334.051 0.0651679 -1.57465 0
M  V30 3511 C 335.328 0.79644 -1.78651 0
M  V30 3512 C 335.708 1.95454 -0.797566 0
M  V30 3513 O 335.056 2.27882 0.167946 0
M  V30 3514 C 335.266 1.26322 -3.25337 0
M  V30 3515 C 336.614 1.6939 -3.89348 0
M  V30 3516 O 337.638 1.35872 -3.29268 0
M  V30 3517 O 336.497 2.31471 -4.95059 0
M  V30 3518 H 333.591 0.382157 -0.733407 0
M  V30 3519 H 336.137 0.0447311 -1.69641 0
M  V30 3520 H 334.909 0.434859 -3.88876 0
M  V30 3521 H 334.532 2.07604 -3.39096 0
M  V30 3522 N 335.529 1.53961 0.336706 0
M  V30 3523 C 336.757 1.75483 1.09605 0
M  V30 3524 C 337.172 0.4972 1.82136 0
M  V30 3525 O 336.529 -0.53149 1.74589 0
M  V30 3526 C 336.58 2.93943 2.10428 0
M  V30 3527 O 336.301 4.14842 1.40846 0
M  V30 3528 C 337.802 3.27571 2.98684 0
M  V30 3529 H 335.022 0.586166 0.326574 0
M  V30 3530 H 337.566 2.00808 0.38683 0
M  V30 3531 H 335.721 2.70929 2.76905 0
M  V30 3532 H 336.135 4.81383 2.08255 0
M  V30 3533 H 337.609 4.13791 3.6535 0
M  V30 3534 H 338.086 2.44168 3.65074 0
M  V30 3535 H 338.692 3.52615 2.37787 0
M  V30 3536 N 337.007 -0.598083 1.45811 0
M  V30 3537 C 338.253 -1.35882 1.50545 0
M  V30 3538 C 338.586 -1.93616 0.150445 0
M  V30 3539 O 337.861 -1.75604 -0.83628 0
M  V30 3540 C 338.144 -2.49966 2.59208 0
M  V30 3541 C 337.997 -1.97367 4.04186 0
M  V30 3542 C 339.316 -3.52068 2.64076 0
M  V30 3543 H 336.435 -0.492717 0.548087 0
M  V30 3544 H 339.077 -0.673319 1.77669 0
M  V30 3545 H 337.227 -3.08443 2.3621 0
M  V30 3546 H 338.899 -1.43466 4.38423 0
M  V30 3547 H 337.142 -1.283 4.14393 0
M  V30 3548 H 337.813 -2.79649 4.75921 0
M  V30 3549 H 340.289 -3.03448 2.84708 0
M  V30 3550 H 339.165 -4.2937 3.41954 0
M  V30 3551 H 339.426 -4.08304 1.69531 0
M  V30 3552 N 338.485 -1.33259 -0.841409 0
M  V30 3553 C 339.715 -1.2742 -1.62628 0
M  V30 3554 C 340.123 0.157604 -1.88542 0
M  V30 3555 O 339.466 1.10938 -1.46419 0
M  V30 3556 C 339.528 -1.97797 -3.00194 0
M  V30 3557 C 339.192 -3.47109 -2.97261 0
M  V30 3558 C 340.189 -4.42358 -2.73159 0
M  V30 3559 C 337.874 -3.89247 -3.17478 0
M  V30 3560 C 339.868 -5.77718 -2.69296 0
M  V30 3561 C 337.555 -5.24713 -3.13241 0
M  V30 3562 C 338.553 -6.1876 -2.89181 0
M  V30 3563 O 338.241 -7.51745 -2.84843 0
M  V30 3564 H 337.973 -0.440436 -0.512827 0
M  V30 3565 H 340.527 -1.76153 -1.05638 0
M  V30 3566 H 338.757 -1.43652 -3.59028 0
M  V30 3567 H 340.446 -1.8549 -3.61038 0
M  V30 3568 H 341.212 -4.11127 -2.57294 0
M  V30 3569 H 337.091 -3.16456 -3.35226 0
M  V30 3570 H 340.635 -6.51097 -2.50436 0
M  V30 3571 H 336.532 -5.55569 -3.28654 0
M  V30 3572 H 337.3 -7.61262 -3.00702 0
M  V30 3573 N 339.963 1.05934 -1.16686 0
M  V30 3574 C 341.211 1.78447 -0.948744 0
M  V30 3575 C 341.532 1.87813 0.524523 0
M  V30 3576 O 340.802 1.38945 1.38098 0
M  V30 3577 H 339.382 0.660971 -0.348033 0
M  V30 3578 H 342.044 1.27947 -1.47022 0
M  V30 3579 H 341.14 2.80394 -1.37061 0
M  V30 3580 N 341.441 0.965919 1.2453 0
M  V30 3581 C 342.852 0.665929 1.7442 0
M  V30 3582 C 343.203 -0.818407 1.78316 0
M  V30 3583 O 342.328 -1.64037 1.41141 0
M  V30 3584 C 342.923 1.20211 3.16757 0
M  V30 3585 C 341.482 0.952059 3.6416 0
M  V30 3586 C 340.629 1.33848 2.42858 0
M  V30 3587 H 343.58 1.14144 1.10258 0
M  V30 3588 H 343.601 0.567544 3.76244 0
M  V30 3589 H 343.113 2.28244 3.13889 0
M  V30 3590 H 341.214 -0.112821 3.72429 0
M  V30 3591 H 341.327 1.59645 4.51719 0
M  V30 3592 H 339.691 0.756864 2.43195 0
M  V30 3593 H 340.474 2.42827 2.42673 0
M  V30 3594 N 342.919 -1.39368 0.735821 0
M  V30 3595 C 344.167 -2.00101 0.283562 0
M  V30 3596 C 344.488 -1.5868 -1.13338 0
M  V30 3597 O 343.758 -0.835423 -1.77193 0
M  V30 3598 H 342.338 -0.740024 0.101851 0
M  V30 3599 H 345 -1.70404 0.945962 0
M  V30 3600 H 344.096 -3.10323 0.332604 0
M  V30 3601 N 344.397 -0.483516 -1.5 0
M  V30 3602 C 345.329 0.340634 -2.26655 0
M  V30 3603 C 346.342 0.946152 -1.32483 0
M  V30 3604 O 347.531 0.832453 -1.579 0
M  V30 3605 C 344.631 1.4929 -3.04246 0
M  V30 3606 C 343.804 0.997903 -4.25865 0
M  V30 3607 C 342.863 2.02569 -4.85646 0
M  V30 3608 O 341.889 1.60128 -5.46212 0
M  V30 3609 N 343.091 3.3548 -4.73744 0
M  V30 3610 H 345.856 -0.316577 -2.98023 0
M  V30 3611 H 343.417 -0.315024 -1.58806 0
M  V30 3612 H 345.409 2.17766 -3.41116 0
M  V30 3613 H 343.979 2.05458 -2.35597 0
M  V30 3614 H 343.199 0.138617 -3.93956 0
M  V30 3615 H 344.487 0.645305 -5.04691 0
M  V30 3616 H 343.885 3.72661 -4.25605 0
M  V30 3617 H 342.442 3.99718 -5.14848 0
M  V30 3618 N 345.875 1.56104 -0.216619 0
M  V30 3619 C 347.124 1.97348 0.416744 0
M  V30 3620 C 347.437 1.10715 1.6125 0
M  V30 3621 O 348.643 1.41836 2.31506 0
M  V30 3622 C 347.099 3.51059 0.792835 0
M  V30 3623 C 346.707 4.46387 -0.379828 0
M  V30 3624 C 348.451 4.01026 1.39208 0
M  V30 3625 C 346.358 5.91397 0.0184223 0
M  V30 3626 H 345.288 0.736942 0.159475 0
M  V30 3627 H 347.939 1.80827 -0.31205 0
M  V30 3628 H 346.321 3.63162 1.57891 0
M  V30 3629 H 347.495 4.46029 -1.15737 0
M  V30 3630 H 345.81 4.06734 -0.891979 0
M  V30 3631 H 348.407 5.0686 1.70286 0
M  V30 3632 H 348.75 3.46587 2.30614 0
M  V30 3633 H 349.283 3.92125 0.669537 0
M  V30 3634 H 346.022 6.49807 -0.862002 0
M  V30 3635 H 345.542 5.94961 0.760384 0
M  V30 3636 H 347.221 6.45455 0.446818 0
M  V30 3637 N 347.353 -0.0568162 1.57498 0
M  V30 3638 C 348.263 -1.08346 2.08083 0
M  V30 3639 C 349.279 -1.41439 1.01346 0
M  V30 3640 O 350.455 -1.51316 1.32912 0
M  V30 3641 C 347.52 -2.37352 2.52715 0
M  V30 3642 C 346.581 -2.11093 3.73816 0
M  V30 3643 C 345.814 -3.33949 4.1631 0
M  V30 3644 O 346.037 -4.43622 3.58547 0
M  V30 3645 O 344.971 -3.21279 5.08983 0
M  V30 3646 H 348.797 -0.683667 2.95905 0
M  V30 3647 H 346.382 -0.271965 1.46904 0
M  V30 3648 H 348.264 -3.13246 2.81877 0
M  V30 3649 H 346.939 -2.76681 1.68016 0
M  V30 3650 H 345.846 -1.32856 3.49714 0
M  V30 3651 H 347.179 -1.76637 4.59413 0
M  V30 3652 N 348.832 -1.54138 -0.328536 0
M  V30 3653 C 349.795 -1.82462 -1.38709 0
M  V30 3654 C 350.795 -0.696229 -1.44946 0
M  V30 3655 O 351.985 -0.964535 -1.4506 0
M  V30 3656 C 349.117 -1.98018 -2.77492 0
M  V30 3657 H 350.31 -2.77037 -1.14851 0
M  V30 3658 H 347.863 -1.45779 -0.563751 0
M  V30 3659 H 348.598 -1.05637 -3.06613 0
M  V30 3660 H 348.383 -2.80124 -2.74359 0
M  V30 3661 H 349.873 -2.21396 -3.54081 0
M  V30 3662 N 350.31 0.590341 -1.46126 0
M  V30 3663 C 351.22 1.72793 -1.58681 0
M  V30 3664 C 352.236 1.67516 -0.470566 0
M  V30 3665 O 353.412 1.87562 -0.733642 0
M  V30 3666 C 350.477 3.09287 -1.5666 0
M  V30 3667 C 349.538 3.25886 -2.79458 0
M  V30 3668 C 348.771 4.55869 -2.77524 0
M  V30 3669 O 348.994 5.3928 -1.85832 0
M  V30 3670 O 347.928 4.75552 -3.68964 0
M  V30 3671 H 351.754 1.65149 -2.54872 0
M  V30 3672 H 349.339 0.756486 -1.28832 0
M  V30 3673 H 351.221 3.90577 -1.58202 0
M  V30 3674 H 349.896 3.17385 -0.636271 0
M  V30 3675 H 348.803 2.44119 -2.83472 0
M  V30 3676 H 350.136 3.22675 -3.71674 0
M  V30 3677 N 351.788 1.33704 0.83433 0
M  V30 3678 C 353.034 1.25603 1.59222 0
M  V30 3679 C 353.367 -0.176659 1.93395 0
M  V30 3680 O 352.642 -1.11915 1.59076 0
M  V30 3681 C 352.925 2.13576 2.89926 0
M  V30 3682 C 352.778 3.65326 2.62406 0
M  V30 3683 C 354.097 2.01238 3.91397 0
M  V30 3684 H 351.216 0.457613 0.577719 0
M  V30 3685 H 353.858 1.63848 0.961972 0
M  V30 3686 H 352.008 1.8109 3.43713 0
M  V30 3687 H 353.68 4.08124 2.15017 0
M  V30 3688 H 351.923 3.8698 1.96033 0
M  V30 3689 H 352.594 4.22232 3.55562 0
M  V30 3690 H 355.07 2.29738 3.46929 0
M  V30 3691 H 353.946 2.65036 4.80673 0
M  V30 3692 H 354.207 0.985951 4.30966 0
M  V30 3693 N 353.266 -1.05314 1.17247 0
M  V30 3694 C 354.543 -1.75184 0.87005 0
M  V30 3695 C 354.923 -2.01481 -0.629965 0
M  V30 3696 O 354.271 -1.64988 -1.58086 0
M  V30 3697 C 354.481 -3.04594 1.70363 0
M  V30 3698 C 355.829 -3.78567 1.92281 0
M  V30 3699 O 356.853 -3.14461 1.67311 0
M  V30 3700 O 355.712 -4.93755 2.3424 0
M  V30 3701 H 352.806 -0.761729 0.322021 0
M  V30 3702 H 355.352 -1.11493 1.27935 0
M  V30 3703 H 354.124 -2.81201 2.72106 0
M  V30 3704 H 353.747 -3.76022 1.29202 0
M  V30 3705 N 354.744 -0.972509 -1.24016 0
M  V30 3706 C 355.992 -0.635776 -1.91839 0
M  V30 3707 C 356.313 0.832312 -1.76345 0
M  V30 3708 O 355.583 1.5946 -1.13795 0
M  V30 3709 H 354.163 -0.232157 -0.710009 0
M  V30 3710 H 356.825 -1.23462 -1.50809 0
M  V30 3711 H 355.921 -0.880545 -2.99421 0
M  V30 3712 N 356.222 1.38976 -0.743202 0
M  V30 3713 C 357.154 2.29096 -0.0689228 0
M  V30 3714 C 358.167 1.47229 0.694791 0
M  V30 3715 O 359.356 1.70212 0.537597 0
M  V30 3716 C 356.456 3.25988 0.926548 0
M  V30 3717 C 355.629 4.36833 0.222647 0
M  V30 3718 C 354.688 5.13981 1.12739 0
M  V30 3719 O 353.714 5.6601 0.601795 0
M  V30 3720 N 354.916 5.25966 2.45641 0
M  V30 3721 H 357.681 2.87604 -0.842846 0
M  V30 3722 H 355.242 1.50645 -0.593109 0
M  V30 3723 H 357.234 3.74476 1.5346 0
M  V30 3724 H 355.804 2.68453 1.60162 0
M  V30 3725 H 355.024 3.90116 -0.565983 0
M  V30 3726 H 356.312 5.0811 -0.264841 0
M  V30 3727 H 355.71 4.85228 2.9081 0
M  V30 3728 H 354.267 5.77865 3.01522 0
M  V30 3729 N 357.7 0.491464 1.49741 0
M  V30 3730 C 358.647 -0.292027 2.28945 0
M  V30 3731 C 359.617 -0.968973 1.34908 0
M  V30 3732 O 360.802 -0.97748 1.6386 0
M  V30 3733 C 357.942 -1.35617 3.17336 0
M  V30 3734 C 357.055 -0.691957 4.26422 0
M  V30 3735 C 356.19 -1.73572 5.02042 0
M  V30 3736 C 355.229 -1.05286 6.02977 0
M  V30 3737 N 354.366 -2.0404 6.71798 0
M  V30 3738 H 359.206 0.389654 2.95442 0
M  V30 3739 H 356.743 0.204003 1.45679 0
M  V30 3740 H 358.701 -1.98502 3.66951 0
M  V30 3741 H 357.331 -2.00674 2.52844 0
M  V30 3742 H 356.383 0.0499523 3.80367 0
M  V30 3743 H 357.695 -0.153946 4.98562 0
M  V30 3744 H 356.849 -2.43987 5.55478 0
M  V30 3745 H 355.588 -2.30757 4.29654 0
M  V30 3746 H 354.593 -0.334446 5.48782 0
M  V30 3747 H 355.818 -0.487636 6.77347 0
M  V30 3748 H 353.764 -2.60205 6.02187 0
M  V30 3749 H 353.681 -1.55279 7.39881 0
M  V30 3750 H 354.949 -2.73772 7.29842 0
M  V30 3751 N 359.178 -1.55987 0.224894 0
M  V30 3752 C 360.425 -1.9839 -0.4059 0
M  V30 3753 C 360.753 -1.11261 -1.59535 0
M  V30 3754 O 360.008 -0.158314 -1.95059 0
M  V30 3755 C 360.307 -3.46394 -0.880106 0
M  V30 3756 C 359.973 -4.5046 0.19918 0
M  V30 3757 C 358.635 -4.7864 0.495661 0
M  V30 3758 C 360.987 -5.12855 0.928939 0
M  V30 3759 C 358.315 -5.66497 1.52636 0
M  V30 3760 C 360.667 -6.01828 1.949 0
M  V30 3761 C 359.331 -6.28351 2.25236 0
M  V30 3762 H 358.601 -0.725961 -0.148529 0
M  V30 3763 H 361.248 -1.88668 0.328113 0
M  V30 3764 H 359.553 -3.53337 -1.69294 0
M  V30 3765 H 361.25 -3.76577 -1.37808 0
M  V30 3766 H 357.84 -4.28579 -0.0420526 0
M  V30 3767 H 362.024 -4.9115 0.713129 0
M  V30 3768 H 357.28 -5.8531 1.76698 0
M  V30 3769 H 361.454 -6.49225 2.51951 0
M  V30 3770 H 359.081 -6.96226 3.05244 0
M  V30 3771 N 360.656 0.0484629 -1.57525 0
M  V30 3772 C 361.902 0.744226 -1.88651 0
M  V30 3773 C 362.235 1.76029 -0.820212 0
M  V30 3774 O 361.51 1.93782 0.166985 0
M  V30 3775 C 361.793 1.43128 -3.30434 0
M  V30 3776 C 361.646 0.43005 -4.47739 0
M  V30 3777 C 362.965 2.37031 -3.70816 0
M  V30 3778 H 360.084 0.269089 -0.68612 0
M  V30 3779 H 362.726 0.00713532 -1.89999 0
M  V30 3780 H 360.876 2.05956 -3.29415 0
M  V30 3781 H 362.548 -0.194816 -4.60888 0
M  V30 3782 H 360.791 -0.252522 -4.33064 0
M  V30 3783 H 361.462 0.948874 -5.43783 0
M  V30 3784 H 363.938 1.84263 -3.73077 0
M  V30 3785 H 362.814 2.82094 -4.70865 0
M  V30 3786 H 363.075 3.22864 -3.02012 0
M  V30 3787 N 362.134 1.5431 0.320358 0
M  V30 3788 C 363.044 1.86946 1.41734 0
M  V30 3789 C 364.06 0.761689 1.56443 0
M  V30 3790 O 365.236 1.05629 1.71477 0
M  V30 3791 C 362.301 2.09293 2.76401 0
M  V30 3792 C 361.362 3.33082 2.70841 0
M  V30 3793 C 360.595 3.54353 3.99086 0
M  V30 3794 O 360.818 2.79002 4.97508 0
M  V30 3795 O 359.752 4.47838 4.0215 0
M  V30 3796 H 363.578 2.80232 1.17062 0
M  V30 3797 H 361.163 1.40255 0.514673 0
M  V30 3798 H 363.045 2.25303 3.56113 0
M  V30 3799 H 361.72 1.19194 3.00956 0
M  V30 3800 H 360.627 3.22454 1.89668 0
M  V30 3801 H 361.96 4.23249 2.5124 0
M  V30 3802 N 363.613 -0.582584 1.46437 0
M  V30 3803 C 364.546 -1.70633 1.51524 0
M  V30 3804 C 365.524 -1.58349 0.369351 0
M  V30 3805 O 366.708 -1.79563 0.573516 0
M  V30 3806 C 363.835 -3.08687 1.39392 0
M  V30 3807 C 362.881 -3.3949 2.58164 0
M  V30 3808 S 363.714 -3.31548 4.20519 0
M  V30 3809 C 364.87 -4.72139 4.10896 0
M  V30 3810 H 365.103 -1.66058 2.46601 0
M  V30 3811 H 362.636 -0.761337 1.34324 0
M  V30 3812 H 364.594 -3.8833 1.33079 0
M  V30 3813 H 363.255 -3.10751 0.457436 0
M  V30 3814 H 362.448 -4.40071 2.45669 0
M  V30 3815 H 362.05 -2.67415 2.61468 0
M  V30 3816 H 364.342 -5.62527 3.77584 0
M  V30 3817 H 365.285 -4.89692 5.11476 0
M  V30 3818 H 365.693 -4.48995 3.42146 0
M  V30 3819 N 365.091 -1.34144 -0.827227 0
M  V30 3820 C 366.054 -1.25264 -1.91942 0
M  V30 3821 C 367.054 -0.168866 -1.59911 0
M  V30 3822 O 368.244 -0.421198 -1.69031 0
M  V30 3823 C 365.376 -0.932952 -3.27885 0
M  V30 3824 H 366.569 -2.22357 -2.0124 0
M  V30 3825 H 364.122 -1.1837 -1.0207 0
M  V30 3826 H 364.857 0.0349917 -3.24281 0
M  V30 3827 H 364.642 -1.71682 -3.52516 0
M  V30 3828 H 366.132 -0.895874 -4.07877 0
M  V30 3829 N 366.569 1.04691 -1.17803 0
M  V30 3830 C 367.846 1.7472 -0.879328 0
M  V30 3831 C 368.226 2.01812 0.619271 0
M  V30 3832 O 367.574 1.65824 1.57209 0
M  V30 3833 C 367.784 3.03686 -1.71976 0
M  V30 3834 C 369.132 3.77542 -1.94286 0
M  V30 3835 O 370.156 3.13569 -1.68976 0
M  V30 3836 O 369.015 4.92506 -2.36855 0
M  V30 3837 H 366.109 0.760011 -0.326056 0
M  V30 3838 H 368.655 1.10813 -1.28525 0
M  V30 3839 H 367.427 2.79754 -2.73594 0
M  V30 3840 H 367.05 3.75332 -1.31194 0
M  V30 3841 N 368.047 0.979072 1.23499 0
M  V30 3842 C 369.272 0.664845 1.96455 0
M  V30 3843 C 369.697 -0.761287 1.72006 0
M  V30 3844 O 369.055 -1.51837 0.990713 0
M  V30 3845 C 369.103 0.959479 3.47601 0
M  V30 3846 O 368.207 0.0508168 4.12369 0
M  V30 3847 H 367.548 0.250185 0.615064 0
M  V30 3848 H 370.078 1.31231 1.5697 0
M  V30 3849 H 370.088 0.895642 3.98048 0
M  V30 3850 H 368.763 1.99876 3.64723 0
M  V30 3851 H 367.34 0.16895 3.72517 0
M  V30 3852 N 369.525 -1.3858 0.750561 0
M  V30 3853 C 370.455 -2.33102 0.136237 0
M  V30 3854 C 371.436 -1.54713 -0.706965 0
M  V30 3855 O 372.621 -1.83043 -0.648769 0
M  V30 3856 C 369.751 -3.38882 -0.760017 0
M  V30 3857 C 368.705 -4.27995 -0.0197785 0
M  V30 3858 C 368.031 -5.24605 -1.03408 0
M  V30 3859 C 369.331 -5.09554 1.14684 0
M  V30 3860 H 371.025 -2.84726 0.925822 0
M  V30 3861 H 368.571 -1.36898 0.446654 0
M  V30 3862 H 370.524 -4.0397 -1.19943 0
M  V30 3863 H 369.248 -2.85734 -1.58189 0
M  V30 3864 H 367.907 -3.64409 0.400184 0
M  V30 3865 H 367.555 -4.67746 -1.84994 0
M  V30 3866 H 367.255 -5.85081 -0.543464 0
M  V30 3867 H 368.779 -5.9257 -1.47288 0
M  V30 3868 H 370.193 -5.67899 0.785118 0
M  V30 3869 H 368.59 -5.7925 1.56812 0
M  V30 3870 H 369.66 -4.4347 1.96118 0
M  V30 3871 N 371.003 -0.499398 -1.49478 0
M  V30 3872 C 372.249 0.0457576 -2.02748 0
M  V30 3873 C 372.582 1.36793 -1.37846 0
M  V30 3874 O 371.857 1.87596 -0.513601 0
M  V30 3875 C 372.14 0.199986 -3.59544 0
M  V30 3876 C 371.993 -1.1452 -4.34977 0
M  V30 3877 C 373.312 0.94137 -4.29914 0
M  V30 3878 H 370.431 0.0151552 -0.736844 0
M  V30 3879 H 373.073 -0.650498 -1.78518 0
M  V30 3880 H 371.223 0.793007 -3.8032 0
M  V30 3881 H 372.895 -1.77697 -4.25701 0
M  V30 3882 H 371.138 -1.73488 -3.97598 0
M  V30 3883 H 371.809 -0.990607 -5.43039 0
M  V30 3884 H 374.285 0.43844 -4.13784 0
M  V30 3885 H 373.161 1.01812 -5.39375 0
M  V30 3886 H 373.422 1.98471 -3.95046 0
M  V30 3887 N 372.481 1.55866 -0.233164 0
M  V30 3888 C 373.758 1.90471 0.444988 0
M  V30 3889 C 374.138 1.15209 1.7689 0
M  V30 3890 O 373.486 0.265119 2.26957 0
M  V30 3891 C 373.696 3.4333 0.626559 0
M  V30 3892 C 375.044 4.14319 0.92871 0
M  V30 3893 O 376.068 3.48993 0.712926 0
M  V30 3894 O 374.927 5.29846 1.33887 0
M  V30 3895 H 372.021 0.792347 0.236885 0
M  V30 3896 H 374.567 1.67437 -0.276211 0
M  V30 3897 H 373.339 3.90095 -0.306822 0
M  V30 3898 H 372.962 3.72181 1.39881 0
M  V30 3899 N 373.959 -0.0401083 1.57549 0
M  V30 3900 C 374.892 -1.07689 2.01192 0
M  V30 3901 C 375.87 -1.358 0.894273 0
M  V30 3902 O 377.054 -1.48642 1.15921 0
M  V30 3903 C 374.181 -2.41418 2.3756 0
M  V30 3904 C 373.227 -2.29237 3.59656 0
M  V30 3905 S 374.06 -1.65628 5.09242 0
M  V30 3906 C 375.216 -3.0087 5.48843 0
M  V30 3907 H 375.449 -0.705108 2.88817 0
M  V30 3908 H 372.982 -0.249724 1.52367 0
M  V30 3909 H 374.94 -3.18329 2.59186 0
M  V30 3910 H 373.601 -2.75747 1.50407 0
M  V30 3911 H 372.794 -3.27932 3.82722 0
M  V30 3912 H 372.396 -1.60469 3.37825 0
M  V30 3913 H 374.688 -3.97201 5.48851 0
M  V30 3914 H 375.631 -2.82549 6.49286 0
M  V30 3915 H 376.039 -3.02934 4.76331 0
M  V30 3916 N 375.437 -1.54477 -0.31217 0
M  V30 3917 C 376.683 -1.74417 -1.04644 0
M  V30 3918 C 377.038 -0.517641 -1.85306 0
M  V30 3919 O 376.331 0.489973 -1.85229 0
M  V30 3920 C 376.525 -2.967 -1.99258 0
M  V30 3921 C 376.354 -4.31128 -1.27901 0
M  V30 3922 C 375.124 -4.95087 -1.01079 0
M  V30 3923 C 377.322 -5.09662 -0.689119 0
M  V30 3924 N 375.304 -6.13322 -0.266323 0
M  V30 3925 C 376.675 -6.19952 -0.0768523 0
M  V30 3926 C 378.73 -4.94355 -0.593061 0
M  V30 3927 C 377.433 -7.16604 0.622165 0
M  V30 3928 C 379.459 -5.91328 0.0922792 0
M  V30 3929 C 378.821 -7.00978 0.693443 0
M  V30 3930 H 374.92 -0.69094 -0.366231 0
M  V30 3931 H 377.504 -1.91946 -0.326319 0
M  V30 3932 H 375.675 -2.80616 -2.68532 0
M  V30 3933 H 377.407 -3.05216 -2.65755 0
M  V30 3934 H 374.162 -4.55235 -1.30607 0
M  V30 3935 H 374.586 -6.76937 0.0920973 0
M  V30 3936 H 379.228 -4.09719 -1.04355 0
M  V30 3937 H 376.946 -8.0079 1.08445 0
M  V30 3938 H 380.532 -5.81562 0.166396 0
M  V30 3939 H 379.412 -7.74725 1.21533 0
M  V30 3940 N 376.915 0.57481 -1.46744 0
M  V30 3941 C 378.192 1.3352 -1.4294 0
M  V30 3942 C 378.572 2.10775 -0.117009 0
M  V30 3943 O 377.92 2.09966 0.901474 0
M  V30 3944 C 378.13 2.25456 -2.66403 0
M  V30 3945 C 379.478 2.87035 -3.12883 0
M  V30 3946 O 380.502 2.35766 -2.67007 0
M  V30 3947 O 379.361 3.80179 -3.92589 0
M  V30 3948 H 376.455 0.600318 -0.568812 0
M  V30 3949 H 379.001 0.595171 -1.58921 0
M  V30 3950 H 377.773 1.67851 -3.53471 0
M  V30 3951 H 377.396 3.06785 -2.52921 0
M  V30 3952 N 378.394 1.34581 0.820102 0
M  V30 3953 C 379.643 1.26437 1.57151 0
M  V30 3954 C 379.956 -0.163111 1.94919 0
M  V30 3955 O 381.162 -0.366722 2.69012 0
M  V30 3956 C 379.618 2.21658 2.83541 0
M  V30 3957 C 379.226 3.69679 2.53065 0
M  V30 3958 C 380.97 2.22428 3.61561 0
M  V30 3959 C 378.877 4.56761 3.75664 0
M  V30 3960 H 377.807 0.469707 0.589823 0
M  V30 3961 H 380.458 1.59763 0.902656 0
M  V30 3962 H 378.84 1.81287 3.52067 0
M  V30 3963 H 380.014 4.18605 1.92631 0
M  V30 3964 H 378.329 3.71384 1.88316 0
M  V30 3965 H 380.926 2.8471 4.52597 0
M  V30 3966 H 381.269 1.22434 3.97889 0
M  V30 3967 H 381.802 2.61259 2.99981 0
M  V30 3968 H 378.541 5.57702 3.44454 0
M  V30 3969 H 378.061 4.12568 4.35371 0
M  V30 3970 H 379.74 4.71509 4.43044 0
M  V30 3971 N 379.872 -1.04064 1.18357 0
M  V30 3972 C 381.1 -1.80916 1.00384 0
M  V30 3973 C 381.515 -1.83414 -0.447738 0
M  V30 3974 O 380.872 -1.26962 -1.31099 0
M  V30 3975 C 380.923 -3.26516 1.55144 0
M  V30 3976 O 380.644 -3.2424 2.94618 0
M  V30 3977 C 382.145 -4.20013 1.41789 0
M  V30 3978 H 379.365 -0.569728 0.354474 0
M  V30 3979 H 381.909 -1.31151 1.56906 0
M  V30 3980 H 380.064 -3.73512 1.02798 0
M  V30 3981 H 380.478 -4.15452 3.20156 0
M  V30 3982 H 381.952 -5.20111 1.84901 0
M  V30 3983 H 382.429 -4.37667 0.36661 0
M  V30 3984 H 383.035 -3.78881 1.93207 0
M  V30 3985 N 381.35 -0.985608 -1.22978 0
M  V30 3986 C 382.599 -0.652881 -1.90841 0
M  V30 3987 C 382.912 0.817842 -1.77681 0
M  V30 3988 O 384.118 1.26185 -2.40395 0
M  V30 3989 C 382.574 -1.11717 -3.42122 0
M  V30 3990 C 382.182 -2.6126 -3.63933 0
M  V30 3991 C 383.926 -0.85843 -4.1573 0
M  V30 3992 C 381.833 -3.0133 -5.08876 0
M  V30 3993 H 380.763 -0.240491 -0.714619 0
M  V30 3994 H 383.414 -1.1942 -1.39324 0
M  V30 3995 H 381.796 -0.504027 -3.92779 0
M  V30 3996 H 382.97 -3.27858 -3.23799 0
M  V30 3997 H 381.285 -2.84937 -3.03644 0
M  V30 3998 H 383.882 -1.13359 -5.22546 0
M  V30 3999 H 384.225 0.205461 -4.15793 0
M  V30 4000 H 384.758 -1.43341 -3.71077 0
M  V30 4001 H 381.497 -4.06864 -5.13947 0
M  V30 4002 H 381.017 -2.3943 -5.49939 0
M  V30 4003 H 382.696 -2.92224 -5.77247 0
M  V30 4004 N 382.828 1.3818 -0.7579 0
M  V30 4005 C 384.076 1.99624 -0.315361 0
M  V30 4006 C 384.397 1.60464 1.10799 0
M  V30 4007 O 383.667 0.863507 1.75842 0
M  V30 4008 H 382.247 0.73831 -0.113611 0
M  V30 4009 H 384.909 1.68878 -0.972952 0
M  V30 4010 H 384.005 3.09754 -0.381931 0
M  V30 4011 N 384.306 0.507319 1.49211 0
M  V30 4012 C 385.583 -0.0982702 1.95353 0
M  V30 4013 C 385.963 -1.53516 1.449 0
M  V30 4014 O 385.311 -2.18594 0.66551 0
M  V30 4015 C 385.521 -0.00440283 3.49 0
M  V30 4016 C 386.869 -0.175147 4.24239 0
M  V30 4017 O 387.893 -0.0792891 3.56112 0
M  V30 4018 O 386.752 -0.37276 5.45227 0
M  V30 4019 H 383.846 -0.0918236 0.821887 0
M  V30 4020 H 386.392 0.570307 1.5983 0
M  V30 4021 H 385.164 0.997402 3.78375 0
M  V30 4022 H 384.787 -0.712845 3.91158 0
M  V30 4023 N 385.784 -1.5574 0.241426 0
M  V30 4024 C 387.033 -1.97986 -0.385295 0
M  V30 4025 C 387.346 -1.13267 -1.59468 0
M  V30 4026 O 388.552 -1.45501 -2.2922 0
M  V30 4027 C 387.008 -3.52275 -0.736884 0
M  V30 4028 C 386.616 -4.45726 0.450796 0
M  V30 4029 C 388.36 -4.03189 -1.3281 0
M  V30 4030 C 386.267 -5.91352 0.0756662 0
M  V30 4031 H 385.197 -0.739386 -0.147731 0
M  V30 4032 H 387.848 -1.80308 0.340779 0
M  V30 4033 H 386.23 -3.65628 -1.52094 0
M  V30 4034 H 387.404 -4.44131 1.22819 0
M  V30 4035 H 385.719 -4.05264 0.956573 0
M  V30 4036 H 388.316 -5.09505 -1.62201 0
M  V30 4037 H 388.659 -3.50212 -2.25071 0
M  V30 4038 H 389.192 -3.93141 -0.607069 0
M  V30 4039 H 385.931 -6.48354 0.965272 0
M  V30 4040 H 385.451 -5.96095 -0.665635 0
M  V30 4041 H 387.13 -6.46084 -0.344075 0
M  V30 4042 N 387.262 0.0317525 -1.57568 0
M  V30 4043 C 388.225 1.01783 -2.0536 0
M  V30 4044 C 389.225 1.29203 -0.957253 0
M  V30 4045 O 390.415 1.24251 -1.22095 0
M  V30 4046 C 387.547 2.35137 -2.46827 0
M  V30 4047 H 388.74 0.605062 -2.93733 0
M  V30 4048 H 386.293 0.278514 -1.53799 0
M  V30 4049 H 387.028 2.81168 -1.61602 0
M  V30 4050 H 386.813 2.16566 -3.26866 0
M  V30 4051 H 388.303 3.05938 -2.84239 0
M  V30 4052 N 388.74 1.54641 0.303973 0
M  V30 4053 C 389.65 1.88439 1.39743 0
M  V30 4054 C 390.666 0.778239 1.55626 0
M  V30 4055 O 391.842 1.07442 1.70347 0
M  V30 4056 C 388.907 2.12212 2.74166 0
M  V30 4057 C 387.968 3.35936 2.67293 0
M  V30 4058 C 387.201 3.58566 3.95305 0
M  V30 4059 O 387.424 2.84263 4.9452 0
M  V30 4060 O 386.358 4.52078 3.97378 0
M  V30 4061 H 390.184 2.81458 1.14083 0
M  V30 4062 H 387.769 1.40793 0.499768 0
M  V30 4063 H 389.651 2.29067 3.53704 0
M  V30 4064 H 388.326 1.22379 2.99675 0
M  V30 4065 H 387.233 3.24448 1.86237 0
M  V30 4066 H 388.566 4.2589 2.46736 0
M  V30 4067 N 390.218 -0.567019 1.47046 0
M  V30 4068 C 391.464 -1.32434 1.54379 0
M  V30 4069 C 391.819 -1.91365 0.199276 0
M  V30 4070 O 391.112 -1.74378 -0.793915 0
M  V30 4071 C 391.306 -2.4623 2.59047 0
M  V30 4072 C 391.135 -1.98448 4.03545 0
M  V30 4073 C 389.905 -1.82741 4.71098 0
M  V30 4074 C 392.103 -1.53477 4.90866 0
M  V30 4075 N 390.085 -1.29196 6.00151 0
M  V30 4076 C 391.456 -1.1163 6.09868 0
M  V30 4077 C 393.511 -1.41438 4.77388 0
M  V30 4078 C 392.214 -0.589425 7.16881 0
M  V30 4079 C 394.24 -0.901528 5.84488 0
M  V30 4080 C 393.602 -0.492932 7.02673 0
M  V30 4081 H 389.701 -0.477005 0.61967 0
M  V30 4082 H 392.285 -0.643856 1.83746 0
M  V30 4083 H 390.456 -3.11821 2.31564 0
M  V30 4084 H 392.188 -3.13213 2.56281 0
M  V30 4085 H 388.943 -2.05162 4.26855 0
M  V30 4086 H 389.367 -1.0454 6.6888 0
M  V30 4087 H 394.009 -1.71643 3.86392 0
M  V30 4088 H 391.727 -0.274994 8.07632 0
M  V30 4089 H 395.313 -0.812071 5.76105 0
M  V30 4090 H 394.193 -0.102227 7.84133 0
M  V30 4091 N 391.696 -1.35014 -0.812953 0
M  V30 4092 C 392.944 -1.27678 -1.56661 0
M  V30 4093 C 393.265 0.150359 -1.94419 0
M  V30 4094 O 392.535 1.08532 -1.63088 0
M  V30 4095 H 391.115 -0.469602 -0.580933 0
M  V30 4096 H 393.777 -1.69043 -0.970076 0
M  V30 4097 H 392.873 -1.88833 -2.48492 0
M  V30 4098 N 393.175 1.03435 -1.18907 0
M  V30 4099 C 394.085 2.15075 -0.937015 0
M  V30 4100 C 395.101 1.73706 0.101085 0
M  V30 4101 O 396.277 2.01232 -0.0822948 0
M  V30 4102 C 393.342 3.43458 -0.473057 0
M  V30 4103 C 392.403 3.99172 -1.57989 0
M  V30 4104 C 391.636 5.21427 -1.13797 0
M  V30 4105 O 391.859 5.704 0.000725941 0
M  V30 4106 O 390.793 5.69837 -1.9383 0
M  V30 4107 H 394.619 2.39198 -1.87131 0
M  V30 4108 H 392.204 1.13506 -0.971427 0
M  V30 4109 H 394.086 4.20811 -0.222702 0
M  V30 4110 H 392.761 3.20793 0.432869 0
M  V30 4111 H 391.668 3.23178 -1.88433 0
M  V30 4112 H 393.001 4.2619 -2.46217 0
M  V30 4113 N 394.653 0.992116 1.22453 0
M  V30 4114 C 395.93 0.583508 1.86694 0
M  V30 4115 C 396.31 -0.9392 1.89056 0
M  V30 4116 O 395.658 -1.82081 1.38053 0
M  V30 4117 C 395.868 1.20304 3.2761 0
M  V30 4118 C 397.216 1.30308 4.0411 0
M  V30 4119 O 398.24 1.15737 3.36873 0
M  V30 4120 O 397.099 1.53615 5.24466 0
M  V30 4121 H 394.193 0.198129 0.802916 0
M  V30 4122 H 396.739 1.08794 1.30238 0
M  V30 4123 H 395.511 2.24461 3.2052 0
M  V30 4124 H 395.134 0.684144 3.9167 0
M  V30 4125 N 396.131 -1.37776 0.765217 0
M  V30 4126 C 397.094 -2.28686 0.153416 0
M  V30 4127 C 398.094 -1.47727 -0.635081 0
M  V30 4128 O 399.284 -1.68027 -0.459632 0
M  V30 4129 C 396.416 -3.31608 -0.790495 0
M  V30 4130 H 397.609 -2.84297 0.954723 0
M  V30 4131 H 395.162 -1.46932 0.53299 0
M  V30 4132 H 395.897 -2.81109 -1.61705 0
M  V30 4133 H 395.682 -3.9144 -0.227348 0
M  V30 4134 H 397.172 -3.99559 -1.21419 0
M  V30 4135 N 397.609 -0.515225 -1.4894 0
M  V30 4136 C 398.857 0.0241671 -2.02086 0
M  V30 4137 C 399.178 1.3616 -1.3959 0
M  V30 4138 O 398.448 1.87841 -0.556121 0
M  V30 4139 H 397.028 0.0119203 -0.746905 0
M  V30 4140 H 399.69 -0.675702 -1.82812 0
M  V30 4141 H 398.786 0.143385 -3.1177 0
M  V30 4142 N 399.087 1.5561 -0.249682 0
M  V30 4143 C 400.498 1.84979 0.252949 0
M  V30 4144 C 400.849 1.17153 1.57384 0
M  V30 4145 O 399.974 0.450884 2.11651 0
M  V30 4146 C 400.569 3.35584 0.465732 0
M  V30 4147 C 399.128 3.65169 0.912624 0
M  V30 4148 C 398.275 2.77299 -0.00859085 0
M  V30 4149 H 401.226 1.51513 -0.47217 0
M  V30 4150 H 401.247 3.57313 1.30795 0
M  V30 4151 H 400.759 3.8492 -0.49579 0
M  V30 4152 H 398.86 3.21312 1.88652 0
M  V30 4153 H 398.973 4.72912 0.767559 0
M  V30 4154 H 397.337 2.49678 0.50327 0
M  V30 4155 H 398.12 3.29442 -0.965537 0
M  V30 4156 N 400.565 -0.0233959 1.57583 0
M  V30 4157 C 401.79 -0.728376 1.94189 0
M  V30 4158 C 402.215 -1.67793 0.850119 0
M  V30 4159 O 401.573 -1.80262 -0.19371 0
M  V30 4160 C 401.621 -1.45669 3.29868 0
M  V30 4161 O 400.725 -2.57013 3.22518 0
M  V30 4162 H 400.066 -0.195493 0.63457 0
M  V30 4163 H 402.596 0.0228214 2.04587 0
M  V30 4164 H 402.606 -1.82535 3.6489 0
M  V30 4165 H 401.281 -0.760314 4.08891 0
M  V30 4166 H 399.858 -2.22648 2.99136 0
M  V30 4167 N 402.043 -1.548 -0.295768 0
M  V30 4168 C 403.459 -1.4613 -0.641722 0
M  V30 4169 C 403.659 -0.656771 -1.90496 0
M  V30 4170 O 402.715 -0.166547 -2.5195 0
M  V30 4171 C 404.028 -2.90141 -0.789852 0
M  V30 4172 C 405.576 -3.00216 -0.885396 0
M  V30 4173 C 406.051 -4.45434 -1.06548 0
M  V30 4174 N 407.542 -4.49166 -1.13156 0
M  V30 4175 C 408.277 -5.58717 -1.28929 0
M  V30 4176 N 407.773 -6.78182 -1.41567 0
M  V30 4177 N 409.566 -5.46415 -1.31859 0
M  V30 4178 H 401.717 -2.05574 0.534147 0
M  V30 4179 H 403.98 -0.931259 0.177372 0
M  V30 4180 H 403.686 -3.51635 0.0675598 0
M  V30 4181 H 403.56 -3.37859 -1.67724 0
M  V30 4182 H 405.947 -2.38833 -1.73329 0
M  V30 4183 H 406.028 -2.55787 0.0261185 0
M  V30 4184 H 405.672 -5.07413 -0.222335 0
M  V30 4185 H 405.602 -4.87499 -1.9913 0
M  V30 4186 H 408.093 -3.631 -1.04721 0
M  V30 4187 H 408.406 -7.57428 -1.53372 0
M  V30 4188 H 406.751 -6.81037 -1.38613 0
M  V30 4189 H 409.942 -4.5203 -1.21601 0
M  V30 4190 H 410.115 -6.31841 -1.43808 0
M  V30 4191 N 403.521 0.559213 -1.47345 0
M  V30 4192 C 404.768 1.31648 -1.53867 0
M  V30 4193 C 405.096 1.93468 -0.200104 0
M  V30 4194 O 404.351 1.78295 0.806799 0
M  V30 4195 C 404.65 2.44853 -2.6035 0
M  V30 4196 C 404.316 2.00876 -4.03683 0
M  V30 4197 C 402.978 1.88599 -4.42701 0
M  V30 4198 C 405.33 1.67279 -4.93626 0
M  V30 4199 C 402.658 1.41017 -5.69501 0
M  V30 4200 C 405.01 1.21169 -6.20887 0
M  V30 4201 C 403.674 1.07487 -6.58789 0
M  V30 4202 H 402.944 0.481734 -0.56304 0
M  V30 4203 H 405.591 0.627301 -1.80934 0
M  V30 4204 H 403.896 3.19318 -2.27032 0
M  V30 4205 H 405.593 3.03039 -2.62619 0
M  V30 4206 H 402.183 2.11374 -3.72853 0
M  V30 4207 H 406.367 1.75638 -4.64182 0
M  V30 4208 H 401.623 1.29086 -5.97618 0
M  V30 4209 H 405.797 0.942345 -6.89995 0
M  V30 4210 H 403.424 0.703946 -7.56934 0
M  V30 4211 N 404.999 1.35443 0.805782 0
M  V30 4212 C 406.229 1.31687 1.59192 0
M  V30 4213 C 406.637 -0.10756 1.88894 0
M  V30 4214 O 405.98 -1.07017 1.49309 0
M  V30 4215 C 406.042 2.05686 2.94845 0
M  V30 4216 C 405.706 3.54868 2.87954 0
M  V30 4217 C 406.703 4.49444 2.61335 0
M  V30 4218 C 404.388 3.97528 3.07046 0
M  V30 4219 C 406.382 5.84655 2.53885 0
M  V30 4220 C 404.069 5.32833 2.99219 0
M  V30 4221 C 405.067 6.26209 2.72674 0
M  V30 4222 O 404.755 7.59032 2.64811 0
M  V30 4223 H 404.487 0.453878 0.50097 0
M  V30 4224 H 407.041 1.78892 1.0093 0
M  V30 4225 H 405.271 1.5312 3.55093 0
M  V30 4226 H 406.96 1.94998 3.55993 0
M  V30 4227 H 407.726 4.17804 2.46303 0
M  V30 4228 H 403.605 3.25233 3.26718 0
M  V30 4229 H 407.149 6.57508 2.33086 0
M  V30 4230 H 403.046 5.64087 3.13809 0
M  V30 4231 H 403.814 7.68967 2.80413 0
M  V30 4232 N 406.477 -1.02803 1.19454 0
M  V30 4233 C 407.409 -2.11181 0.890807 0
M  V30 4234 C 408.422 -1.6238 -0.116829 0
M  V30 4235 O 409.611 -1.78144 0.112694 0
M  V30 4236 C 406.711 -3.37461 0.311942 0
M  V30 4237 C 405.884 -4.15446 1.36834 0
M  V30 4238 C 404.943 -5.20039 0.802864 0
M  V30 4239 O 403.969 -5.49602 1.48077 0
M  V30 4240 N 405.171 -5.79165 -0.393417 0
M  V30 4241 H 407.936 -2.37827 1.82369 0
M  V30 4242 H 405.497 -1.19101 1.09666 0
M  V30 4243 H 407.489 -4.0462 -0.0802225 0
M  V30 4244 H 406.059 -3.08156 -0.52524 0
M  V30 4245 H 405.279 -3.43423 1.93531 0
M  V30 4246 H 406.567 -4.64335 2.08015 0
M  V30 4247 H 405.965 -5.57466 -0.961658 0
M  V30 4248 H 404.522 -6.47729 -0.727351 0
M  V30 4249 N 407.956 -0.998596 -1.21925 0
M  V30 4250 C 408.888 -0.511879 -2.23411 0
M  V30 4251 C 409.901 0.396094 -1.57908 0
M  V30 4252 O 411.09 0.197316 -1.77406 0
M  V30 4253 C 408.19 0.276802 -3.37768 0
M  V30 4254 C 407.363 -0.628687 -4.32858 0
M  V30 4255 C 406.422 0.109272 -5.26087 0
M  V30 4256 O 405.448 -0.507237 -5.66935 0
M  V30 4257 N 406.65 1.38983 -5.63617 0
M  V30 4258 H 409.415 -1.38457 -2.658 0
M  V30 4259 H 406.976 -0.873981 -1.36283 0
M  V30 4260 H 408.968 0.77928 -3.97126 0
M  V30 4261 H 407.538 1.05063 -2.94415 0
M  V30 4262 H 406.758 -1.31175 -3.71735 0
M  V30 4263 H 408.046 -1.24514 -4.93329 0
M  V30 4264 H 407.444 1.91194 -5.32411 0
M  V30 4265 H 406.001 1.83739 -6.25367 0
M  V30 4266 N 409.434 1.37368 -0.772513 0
M  V30 4267 C 410.682 1.99279 -0.336516 0
M  V30 4268 C 411.003 1.6163 1.09091 0
M  V30 4269 O 410.273 0.882109 1.74916 0
M  V30 4270 H 408.853 0.737063 -0.121435 0
M  V30 4271 H 411.515 1.67836 -0.990809 0
M  V30 4272 H 410.611 3.09332 -0.414763 0
M  V30 4273 N 410.912 0.523116 1.48665 0
M  V30 4274 C 411.862 -0.263106 2.26477 0
M  V30 4275 C 412.846 -0.916005 1.32281 0
M  V30 4276 O 414.038 -0.819946 1.56863 0
M  V30 4277 C 411.167 -1.31361 3.17174 0
M  V30 4278 C 410.253 -0.665849 4.1884 0
M  V30 4279 N 410.644 0.244434 5.05209 0
M  V30 4280 C 408.942 -0.923863 4.36326 0
M  V30 4281 C 409.643 0.617443 5.78414 0
M  V30 4282 N 408.619 -0.0198686 5.43596 0
M  V30 4283 H 412.421 0.437295 2.90629 0
M  V30 4284 H 409.935 0.340675 1.58787 0
M  V30 4285 H 411.932 -1.89052 3.71571 0
M  V30 4286 H 410.592 -2.01546 2.54576 0
M  V30 4287 H 411.603 0.616621 5.14216 0
M  V30 4288 H 408.28 -1.6168 3.84923 0
M  V30 4289 H 409.67 1.36346 6.57921 0
M  V30 4290 N 412.39 -1.55475 0.257931 0
M  V30 4291 C 413.618 -2.03609 -0.367559 0
M  V30 4292 C 414.033 -1.13687 -1.50734 0
M  V30 4293 O 413.39 -0.153479 -1.81853 0
M  V30 4294 C 413.441 -3.51001 -0.864908 0
M  V30 4295 O 413.162 -4.37499 0.229465 0
M  V30 4296 C 414.663 -4.14946 -1.55997 0
M  V30 4297 H 411.883 -0.665459 -0.0860521 0
M  V30 4298 H 414.427 -2.00843 0.385014 0
M  V30 4299 H 412.582 -3.54266 -1.56762 0
M  V30 4300 H 412.996 -5.24286 -0.14998 0
M  V30 4301 H 414.47 -5.19735 -1.85956 0
M  V30 4302 H 414.947 -3.6209 -2.4857 0
M  V30 4303 H 415.553 -4.15635 -0.901543 0
M  V30 4304 N 413.868 0.0150385 -1.57593 0
M  V30 4305 C 415.117 0.702115 -1.89085 0
M  V30 4306 C 415.43 1.75764 -0.858277 0
M  V30 4307 O 416.636 2.49829 -1.0629 0
M  V30 4308 C 415.092 1.29992 -3.35604 0
M  V30 4309 C 414.7 0.280007 -4.47124 0
M  V30 4310 C 416.444 1.96606 -3.76227 0
M  V30 4311 C 414.351 0.886949 -5.84711 0
M  V30 4312 H 413.281 0.265997 -0.705522 0
M  V30 4313 H 415.932 -0.0430408 -1.8345 0
M  V30 4314 H 414.314 2.09525 -3.36029 0
M  V30 4315 H 415.488 -0.489631 -4.58191 0
M  V30 4316 H 413.803 -0.284835 -4.15425 0
M  V30 4317 H 416.4 2.42893 -4.76347 0
M  V30 4318 H 416.743 2.79024 -3.08952 0
M  V30 4319 H 417.276 1.23828 -3.78036 0
M  V30 4320 H 414.015 0.101876 -6.55421 0
M  V30 4321 H 413.535 1.6261 -5.77337 0
M  V30 4322 H 415.214 1.39011 -6.3189 0
M  V30 4323 N 415.346 1.54954 0.287554 0
M  V30 4324 C 416.757 1.65732 0.859634 0
M  V30 4325 C 417.108 0.574767 1.87592 0
M  V30 4326 O 416.233 -0.286299 2.14498 0
M  V30 4327 C 416.828 3.00438 1.56597 0
M  V30 4328 C 415.387 3.13292 2.08627 0
M  V30 4329 C 414.534 2.61473 0.923416 0
M  V30 4330 H 417.485 1.5857 0.0642338 0
M  V30 4331 H 417.506 2.92613 2.43224 0
M  V30 4332 H 417.018 3.79207 0.826053 0
M  V30 4333 H 415.119 2.39268 2.85625 0
M  V30 4334 H 415.232 4.19647 2.31157 0
M  V30 4335 H 413.596 2.18264 1.31275 0
M  V30 4336 H 414.379 3.42733 0.197241 0
M  V30 4337 N 416.824 -0.551391 1.4764 0
M  V30 4338 C 418.07 -1.30789 1.55774 0
M  V30 4339 C 418.425 -1.91143 0.219562 0
M  V30 4340 O 417.718 -1.7521 -0.775375 0
M  V30 4341 C 417.912 -2.43469 2.61644 0
M  V30 4342 C 417.741 -1.94157 4.05627 0
M  V30 4343 C 416.511 -1.77734 4.7301 0
M  V30 4344 C 418.709 -1.48262 4.92466 0
M  V30 4345 N 416.691 -1.22823 6.01488 0
M  V30 4346 C 418.062 -1.05156 6.11017 0
M  V30 4347 C 420.117 -1.36367 4.78862 0
M  V30 4348 C 418.82 -0.513357 7.17466 0
M  V30 4349 C 420.846 -0.839484 5.85411 0
M  V30 4350 C 420.208 -0.418377 7.03156 0
M  V30 4351 H 416.307 -0.470406 0.624694 0
M  V30 4352 H 418.891 -0.624331 1.84419 0
M  V30 4353 H 417.062 -3.09348 2.34859 0
M  V30 4354 H 418.794 -3.10477 2.59589 0
M  V30 4355 H 415.549 -2.00623 4.29007 0
M  V30 4356 H 415.973 -0.974393 6.69951 0
M  V30 4357 H 420.615 -1.67535 3.88191 0
M  V30 4358 H 418.333 -0.189318 8.07878 0
M  V30 4359 H 421.919 -0.750921 5.76934 0
M  V30 4360 H 420.799 -0.0190538 7.84198 0
M  V30 4361 N 418.302 -1.35869 -0.798587 0
M  V30 4362 C 419.548 -1.2978 -1.55836 0
M  V30 4363 C 419.881 0.125322 -1.93795 0
M  V30 4364 O 419.156 1.07658 -1.61987 0
M  V30 4365 C 419.439 -2.21188 -2.84162 0
M  V30 4366 C 419.292 -3.72155 -2.52628 0
M  V30 4367 C 420.611 -2.11545 -3.85923 0
M  V30 4368 H 417.73 -0.472769 -0.565383 0
M  V30 4369 H 420.372 -1.66341 -0.918192 0
M  V30 4370 H 418.522 -1.90139 -3.38791 0
M  V30 4371 H 420.194 -4.13682 -2.04121 0
M  V30 4372 H 418.437 -3.92042 -1.85704 0
M  V30 4373 H 419.108 -4.31511 -3.44242 0
M  V30 4374 H 421.584 -2.38855 -3.40716 0
M  V30 4375 H 420.46 -2.77688 -4.73477 0
M  V30 4376 H 420.721 -1.09987 -4.282 0
M  V30 4377 N 419.78 1.02168 -1.19998 0
M  V30 4378 C 420.727 2.10601 -0.944228 0
M  V30 4379 C 421.697 1.65639 0.123664 0
M  V30 4380 O 422.882 1.9079 -0.0199941 0
M  V30 4381 C 420.022 3.41504 -0.496865 0
M  V30 4382 C 419.135 3.99973 -1.63234 0
M  V30 4383 C 418.27 5.18915 -1.13579 0
M  V30 4384 C 417.309 5.69456 -2.24468 0
M  V30 4385 N 416.446 6.79665 -1.76068 0
M  V30 4386 H 421.286 2.31814 -1.8726 0
M  V30 4387 H 418.823 1.13686 -0.933483 0
M  V30 4388 H 420.781 4.16626 -0.218843 0
M  V30 4389 H 419.411 3.2038 0.394508 0
M  V30 4390 H 418.463 3.21997 -2.0254 0
M  V30 4391 H 419.775 4.33492 -2.46752 0
M  V30 4392 H 418.929 6.01222 -0.813429 0
M  V30 4393 H 417.668 4.8695 -0.270434 0
M  V30 4394 H 416.673 4.85757 -2.57526 0
M  V30 4395 H 417.898 6.03459 -3.11472 0
M  V30 4396 H 415.844 6.49538 -0.918516 0
M  V30 4397 H 415.761 7.12349 -2.5317 0
M  V30 4398 H 417.029 7.65549 -1.46817 0
M  V30 4399 N 421.258 1.00505 1.21394 0
M  V30 4400 C 422.188 0.585684 2.26035 0
M  V30 4401 C 423.169 -0.393525 1.65485 0
M  V30 4402 O 424.354 -0.281497 1.92149 0
M  V30 4403 C 421.484 -0.0884283 3.47187 0
M  V30 4404 C 420.438 0.810567 4.20254 0
M  V30 4405 C 419.764 0.00286382 5.347 0
M  V30 4406 C 421.064 2.1132 4.77641 0
M  V30 4407 H 422.758 1.46039 2.61368 0
M  V30 4408 H 420.304 0.703648 1.25638 0
M  V30 4409 H 422.257 -0.393286 4.19561 0
M  V30 4410 H 420.981 -0.997766 3.10986 0
M  V30 4411 H 419.64 1.09925 3.49731 0
M  V30 4412 H 419.288 -0.907765 4.94741 0
M  V30 4413 H 418.988 0.601444 5.84514 0
M  V30 4414 H 420.512 -0.295808 6.09883 0
M  V30 4415 H 421.926 1.87148 5.41893 0
M  V30 4416 H 420.323 2.66164 5.37845 0
M  V30 4417 H 421.393 2.78393 3.9702 0
M  V30 4418 N 422.737 -1.36956 0.779787 0
M  V30 4419 C 423.983 -1.99787 0.348281 0
M  V30 4420 C 424.316 -1.61756 -1.07465 0
M  V30 4421 O 423.591 -0.867639 -1.74075 0
M  V30 4422 C 423.874 -3.56597 0.50104 0
M  V30 4423 C 423.727 -4.04513 1.96697 0
M  V30 4424 C 425.046 -4.40008 -0.0898097 0
M  V30 4425 H 422.165 -0.725796 0.128022 0
M  V30 4426 H 424.807 -1.62514 0.984331 0
M  V30 4427 H 422.957 -3.88479 -0.0404347 0
M  V30 4428 H 424.629 -3.83161 2.56876 0
M  V30 4429 H 422.872 -3.56408 2.47297 0
M  V30 4430 H 423.543 -5.1352 2.02486 0
M  V30 4431 H 426.019 -4.14431 0.372293 0
M  V30 4432 H 424.895 -5.4888 0.0471605 0
M  V30 4433 H 425.156 -4.26035 -1.18096 0
M  V30 4434 N 424.215 -0.530993 -1.48385 0
M  V30 4435 C 425.162 0.231223 -2.29639 0
M  V30 4436 C 426.132 0.932864 -1.37429 0
M  V30 4437 O 427.317 0.933692 -1.66394 0
M  V30 4438 C 424.457 1.27155 -3.2082 0
M  V30 4439 C 423.57 0.578655 -4.28107 0
M  V30 4440 C 422.705 1.602 -5.06467 0
M  V30 4441 C 421.744 0.892625 -6.05556 0
M  V30 4442 N 420.881 1.86157 -6.76971 0
M  V30 4443 H 425.721 -0.467848 -2.94305 0
M  V30 4444 H 423.258 -0.242556 -1.45086 0
M  V30 4445 H 425.216 1.88703 -3.72085 0
M  V30 4446 H 423.846 1.939 -2.58075 0
M  V30 4447 H 422.898 -0.150782 -3.80101 0
M  V30 4448 H 424.21 0.0217065 -4.98795 0
M  V30 4449 H 423.364 2.29173 -5.61751 0
M  V30 4450 H 422.103 2.19285 -4.35621 0
M  V30 4451 H 421.108 0.188829 -5.49476 0
M  V30 4452 H 422.333 0.307878 -6.78402 0
M  V30 4453 H 420.279 2.44147 -6.08875 0
M  V30 4454 H 420.196 1.35608 -7.43738 0
M  V30 4455 H 421.464 2.54325 -7.36844 0
M  V30 4456 N 425.693 1.55336 -0.266172 0
M  V30 4457 C 426.625 2.19544 0.658247 0
M  V30 4458 C 427.638 1.17746 1.12427 0
M  V30 4459 O 428.827 1.44517 1.04772 0
M  V30 4460 C 425.927 2.80032 1.9088 0
M  V30 4461 C 425.1 4.07436 1.59106 0
M  V30 4462 C 424.159 4.52056 2.69317 0
M  V30 4463 O 423.185 5.18023 2.35883 0
M  V30 4464 N 424.387 4.21448 3.99201 0
M  V30 4465 H 427.152 2.99503 0.108754 0
M  V30 4466 H 424.713 1.61667 -0.0869059 0
M  V30 4467 H 426.705 3.06831 2.63888 0
M  V30 4468 H 425.275 2.04119 2.36758 0
M  V30 4469 H 424.495 3.88021 0.695243 0
M  V30 4470 H 425.783 4.90462 1.35367 0
M  V30 4471 H 425.181 3.68528 4.29189 0
M  V30 4472 H 423.738 4.53039 4.68614 0
M  V30 4473 N 427.171 -0.0066808 1.57599 0
M  V30 4474 C 428.417 -0.693947 1.90558 0
M  V30 4475 C 428.75 -1.73792 0.866594 0
M  V30 4476 O 428.025 -1.94156 -0.115548 0
M  V30 4477 C 428.308 -1.34317 3.34112 0
M  V30 4478 C 428.161 -0.311189 4.48722 0
M  V30 4479 C 429.48 -2.27116 3.7697 0
M  V30 4480 H 426.599 -0.250803 0.693013 0
M  V30 4481 H 429.241 0.043242 1.89951 0
M  V30 4482 H 427.391 -1.9715 3.3476 0
M  V30 4483 H 429.063 0.316944 4.6021 0
M  V30 4484 H 427.306 0.367253 4.32243 0
M  V30 4485 H 427.977 -0.804366 5.46108 0
M  V30 4486 H 430.453 -1.74306 3.77831 0
M  V30 4487 H 429.329 -2.69511 4.78179 0
M  V30 4488 H 429.59 -3.14743 3.10466 0
M  V30 4489 N 428.649 -1.55105 -0.279332 0
M  V30 4490 C 429.874 -1.7976 -1.03446 0
M  V30 4491 C 430.299 -0.565952 -1.79384 0
M  V30 4492 O 429.657 0.484259 -1.74713 0
M  V30 4493 C 429.705 -3.0179 -1.97371 0
M  V30 4494 O 428.809 -2.76432 -3.06038 0
M  V30 4495 H 428.15 -0.594334 -0.29608 0
M  V30 4496 H 430.68 -2.02235 -0.310165 0
M  V30 4497 H 430.69 -3.30351 -2.39441 0
M  V30 4498 H 429.365 -3.91085 -1.4151 0
M  V30 4499 H 427.942 -2.58949 -2.68328 0
M  V30 4500 N 430.127 0.543554 -1.4793 0
M  V30 4501 C 431.074 1.64942 -1.6144 0
M  V30 4502 C 432.044 1.59692 -0.456903 0
M  V30 4503 O 433.229 1.78321 -0.678688 0
M  V30 4504 C 430.369 3.03238 -1.64744 0
M  V30 4505 C 429.482 3.18823 -2.91506 0
M  V30 4506 C 428.617 4.47599 -2.86057 0
M  V30 4507 C 427.656 4.56664 -4.07584 0
M  V30 4508 N 426.793 5.76811 -4.00292 0
M  V30 4509 H 431.633 1.52733 -2.55884 0
M  V30 4510 H 429.17 0.7438 -1.2691 0
M  V30 4511 H 431.128 3.83339 -1.64641 0
M  V30 4512 H 429.758 3.1425 -0.738017 0
M  V30 4513 H 428.81 2.32064 -3.01414 0
M  V30 4514 H 430.122 3.21384 -3.81463 0
M  V30 4515 H 429.276 5.35975 -2.84281 0
M  V30 4516 H 428.015 4.47538 -1.93807 0
M  V30 4517 H 427.02 3.66697 -4.09651 0
M  V30 4518 H 428.245 4.58474 -5.00978 0
M  V30 4519 H 426.191 5.77673 -3.10853 0
M  V30 4520 H 426.108 5.80808 -4.8394 0
M  V30 4521 H 427.376 6.67512 -4.02553 0
M  V30 4522 N 431.605 1.3629 0.791371 0
M  V30 4523 C 432.552 1.30458 1.90393 0
M  V30 4524 C 433.522 0.173632 1.6519 0
M  V30 4525 O 434.707 0.35983 1.87376 0
M  V30 4526 C 431.847 1.09777 3.27174 0
M  V30 4527 C 430.96 2.31929 3.64462 0
M  V30 4528 C 430.095 2.04276 4.90352 0
M  V30 4529 C 429.134 3.224 5.20312 0
M  V30 4530 N 428.271 2.94424 6.37385 0
M  V30 4531 H 433.111 2.25589 1.94714 0
M  V30 4532 H 430.648 1.12122 0.952216 0
M  V30 4533 H 432.606 0.958133 4.06049 0
M  V30 4534 H 431.236 0.183014 3.22281 0
M  V30 4535 H 430.288 2.56703 2.80727 0
M  V30 4536 H 431.6 3.20085 3.82553 0
M  V30 4537 H 430.754 1.87231 5.77087 0
M  V30 4538 H 429.493 1.13428 4.74326 0
M  V30 4539 H 428.498 3.40005 4.32061 0
M  V30 4540 H 429.723 4.14071 5.38258 0
M  V30 4541 H 427.669 2.06185 6.22755 0
M  V30 4542 H 427.586 3.76118 6.55798 0
M  V30 4543 H 428.854 2.80953 7.27108 0
M  V30 4544 N 433.083 -1.0153 1.20538 0
M  V30 4545 C 434.494 -1.56598 1.01657 0
M  V30 4546 C 434.845 -1.91505 -0.426668 0
M  V30 4547 O 433.97 -1.72375 -1.30827 0
M  V30 4548 C 434.565 -2.84542 1.83905 0
M  V30 4549 C 433.124 -3.36133 1.69386 0
M  V30 4550 C 432.271 -2.09427 1.81757 0
M  V30 4551 H 435.222 -0.838974 1.34711 0
M  V30 4552 H 435.243 -3.56004 1.34319 0
M  V30 4553 H 434.755 -2.59105 2.8894 0
M  V30 4554 H 432.856 -3.66528 0.669933 0
M  V30 4555 H 432.969 -4.08248 2.50739 0
M  V30 4556 H 431.333 -2.21941 1.24957 0
M  V30 4557 H 432.116 -1.86414 2.88279 0
M  V30 4558 N 434.561 -1.01147 -1.20859 0
M  V30 4559 C 435.807 -0.698899 -1.90377 0
M  V30 4560 C 436.14 0.76904 -1.78324 0
M  V30 4561 O 435.415 1.55817 -1.16409 0
M  V30 4562 C 435.698 -1.12878 -3.41951 0
M  V30 4563 C 435.551 -2.65665 -3.62963 0
M  V30 4564 C 436.87 -0.696114 -4.3456 0
M  V30 4565 H 433.989 -0.255372 -0.691342 0
M  V30 4566 H 436.631 -1.25831 -1.42361 0
M  V30 4567 H 434.781 -0.652827 -3.82976 0
M  V30 4568 H 436.453 -3.21074 -3.31224 0
M  V30 4569 H 434.696 -3.06878 -3.06608 0
M  V30 4570 H 435.367 -2.90797 -4.69192 0
M  V30 4571 H 437.843 -1.10521 -4.01154 0
M  V30 4572 H 436.719 -1.025 -5.39245 0
M  V30 4573 H 436.98 0.402465 -4.40264 0
M  V30 4574 N 436.039 1.36541 -0.78704 0
M  V30 4575 C 436.969 2.32659 -0.197992 0
M  V30 4576 C 437.95 1.56533 0.665697 0
M  V30 4577 O 439.135 1.84698 0.60001 0
M  V30 4578 C 436.265 3.40778 0.669901 0
M  V30 4579 C 435.219 4.27897 -0.0937039 0
M  V30 4580 C 434.545 5.27163 0.894629 0
M  V30 4581 C 435.845 5.06334 -1.28154 0
M  V30 4582 H 437.539 2.82171 -1.00099 0
M  V30 4583 H 435.085 1.35665 -0.482793 0
M  V30 4584 H 437.038 4.07008 1.09191 0
M  V30 4585 H 435.762 2.89827 1.50558 0
M  V30 4586 H 434.421 3.6322 -0.49666 0
M  V30 4587 H 434.069 4.72486 1.72527 0
M  V30 4588 H 433.769 5.86317 0.388149 0
M  V30 4589 H 435.293 5.96266 1.31525 0
M  V30 4590 H 436.707 5.65617 -0.93541 0
M  V30 4591 H 435.104 5.74888 -1.72115 0
M  V30 4592 H 436.174 4.38114 -2.07807 0
M  V30 4593 N 437.518 0.538854 1.48102 0
M  V30 4594 C 438.766 0.00798599 2.02098 0
M  V30 4595 C 439.087 -1.33922 1.41739 0
M  V30 4596 O 438.357 -1.86932 0.585934 0
M  V30 4597 H 436.937 -3.62179e-05 0.747 0
M  V30 4598 H 439.599 0.7047 1.81714 0
M  V30 4599 H 438.695 -0.0937672 3.11959 0
M  V30 4600 N 438.996 -1.55193 0.274407 0
M  V30 4601 C 440.242 -1.99877 -0.343086 0
M  V30 4602 C 440.575 -1.16256 -1.55558 0
M  V30 4603 O 439.85 -0.232462 -1.93106 0
M  V30 4604 C 440.133 -3.52706 -0.725965 0
M  V30 4605 C 439.986 -4.47081 0.493818 0
M  V30 4606 C 441.305 -4.11422 -1.56268 0
M  V30 4607 H 438.424 -0.726625 -0.123229 0
M  V30 4608 H 441.066 -1.86136 0.38121 0
M  V30 4609 H 439.216 -3.64546 -1.34307 0
M  V30 4610 H 440.888 -4.47186 1.13237 0
M  V30 4611 H 439.131 -4.1877 1.13201 0
M  V30 4612 H 439.802 -5.51699 0.18217 0
M  V30 4613 H 442.278 -4.02855 -1.04151 0
M  V30 4614 H 441.154 -5.18568 -1.79939 0
M  V30 4615 H 441.415 -3.61607 -2.54348 0
M  V30 4616 N 440.474 -0.00167713 -1.576 0
M  V30 4617 C 441.722 0.681471 -1.90264 0
M  V30 4618 C 442.043 1.7422 -0.875924 0
M  V30 4619 O 441.313 1.95709 0.0864412 0
M  V30 4620 H 439.893 0.254696 -0.702239 0
M  V30 4621 H 442.555 -0.0429996 -1.94853 0
M  V30 4622 H 441.651 1.15166 -2.90075 0
M  V30 4623 N 441.952 1.55251 0.271103 0
M  V30 4624 C 443.368 1.47133 0.618393 0
M  V30 4625 C 443.568 0.686994 1.89427 0
M  V30 4626 O 442.624 0.206609 2.51653 0
M  V30 4627 C 443.937 2.91361 0.743593 0
M  V30 4628 C 445.485 3.01587 0.837522 0
M  V30 4629 C 445.96 4.47073 0.994483 0
M  V30 4630 N 447.451 4.50909 1.05996 0
M  V30 4631 C 448.186 5.60698 1.20024 0
M  V30 4632 N 447.682 6.80348 1.30759 0
M  V30 4633 N 449.475 5.48444 1.23149 0
M  V30 4634 H 441.626 2.04698 -0.566784 0
M  V30 4635 H 443.889 0.928319 -0.192165 0
M  V30 4636 H 443.595 3.51483 -0.123493 0
M  V30 4637 H 443.469 3.40484 1.62328 0
M  V30 4638 H 445.856 2.4156 1.69507 0
M  V30 4639 H 445.937 2.55713 -0.0668086 0
M  V30 4640 H 445.581 5.07703 0.141582 0
M  V30 4641 H 445.511 4.90605 1.91349 0
M  V30 4642 H 448.002 3.6472 0.989316 0
M  V30 4643 H 448.315 7.59772 1.41303 0
M  V30 4644 H 446.66 6.83156 1.27761 0
M  V30 4645 H 449.851 4.53907 1.14394 0
M  V30 4646 H 450.024 6.34049 1.33738 0
M  V30 4647 N 443.43 -0.535701 1.48216 0
M  V30 4648 C 444.66 -1.3148 1.59363 0
M  V30 4649 C 445.068 -1.8753 0.250844 0
M  V30 4650 O 444.411 -1.66821 -0.769174 0
M  V30 4651 C 444.473 -2.50731 2.57632 0
M  V30 4652 C 444.137 -2.15811 4.02833 0
M  V30 4653 C 445.134 -1.71822 4.90686 0
M  V30 4654 C 442.819 -2.26509 4.48329 0
M  V30 4655 C 444.813 -1.3899 6.22062 0
M  V30 4656 C 442.5 -1.93289 5.79726 0
M  V30 4657 C 443.498 -1.49599 6.66415 0
M  V30 4658 O 443.186 -1.16812 7.95368 0
M  V30 4659 H 442.918 -0.406315 0.540263 0
M  V30 4660 H 445.472 -0.653569 1.94725 0
M  V30 4661 H 443.702 -3.19817 2.1738 0
M  V30 4662 H 445.391 -3.12797 2.58675 0
M  V30 4663 H 446.157 -1.63031 4.56778 0
M  V30 4664 H 442.036 -2.59471 3.81045 0
M  V30 4665 H 445.58 -1.04816 6.89681 0
M  V30 4666 H 441.477 -2.01718 6.13172 0
M  V30 4667 H 442.245 -1.30259 8.08069 0
M  V30 4668 N 444.908 -1.36708 -0.784132 0
M  V30 4669 C 446.136 -1.34398 -1.57305 0
M  V30 4670 C 446.551 0.0735577 -1.88657 0
M  V30 4671 O 445.908 1.03193 -1.50524 0
M  V30 4672 C 445.959 -2.17053 -2.89085 0
M  V30 4673 O 445.68 -3.53281 -2.59083 0
M  V30 4674 C 447.181 -2.22583 -3.83369 0
M  V30 4675 H 444.401 -0.460819 -0.487736 0
M  V30 4676 H 446.945 -1.79879 -0.972819 0
M  V30 4677 H 445.1 -1.75113 -3.45564 0
M  V30 4678 H 445.514 -3.9647 -3.43383 0
M  V30 4679 H 446.988 -2.84763 -4.72878 0
M  V30 4680 H 447.465 -1.23075 -4.21603 0
M  V30 4681 H 448.071 -2.64781 -3.32823 0
M  V30 4682 N 446.386 1.0089 -1.21074 0
M  V30 4683 C 447.663 1.71834 -0.934469 0
M  V30 4684 C 448.043 2.0368 0.554753 0
M  V30 4685 O 447.391 1.70742 1.51854 0
M  V30 4686 C 447.601 2.98061 -1.8155 0
M  V30 4687 C 448.949 3.7117 -2.06199 0
M  V30 4688 O 449.973 3.08034 -1.78867 0
M  V30 4689 O 448.832 4.84721 -2.52404 0
M  V30 4690 H 445.926 0.749253 -0.35007 0
M  V30 4691 H 448.472 1.06668 -1.31985 0
M  V30 4692 H 447.244 2.70908 -2.82355 0
M  V30 4693 H 446.867 3.70968 -1.43068 0
M  V30 4694 N 447.864 1.01787 1.20321 0
M  V30 4695 C 449.275 0.739307 1.71438 0
M  V30 4696 C 449.626 -0.742041 1.81627 0
M  V30 4697 O 448.751 -1.57903 1.47971 0
M  V30 4698 C 449.346 1.33538 3.11373 0
M  V30 4699 C 447.905 1.10566 3.59795 0
M  V30 4700 C 447.052 1.44028 2.36962 0
M  V30 4701 H 450.003 1.18718 1.05317 0
M  V30 4702 H 450.024 0.726611 3.73498 0
M  V30 4703 H 449.536 2.41352 3.03926 0
M  V30 4704 H 447.637 0.0452405 3.72573 0
M  V30 4705 H 447.75 1.78661 4.44542 0
M  V30 4706 H 446.114 0.85933 2.39766 0
M  V30 4707 H 446.897 2.52901 2.32155 0
M  V30 4708 N 449.342 -1.36122 0.79427 0
M  V30 4709 C 450.252 -2.33769 0.197296 0
M  V30 4710 C 451.268 -1.61276 -0.653153 0
M  V30 4711 O 452.444 -1.9323 -0.5678 0
M  V30 4712 C 449.509 -3.40474 -0.654098 0
M  V30 4713 C 448.57 -4.28759 0.215411 0
M  V30 4714 C 447.803 -5.30368 -0.595443 0
M  V30 4715 O 448.026 -5.40211 -1.83107 0
M  V30 4716 O 446.96 -6.019 0.00721351 0
M  V30 4717 H 450.786 -2.86597 1.00478 0
M  V30 4718 H 448.371 -1.38676 0.555818 0
M  V30 4719 H 450.253 -4.05703 -1.13944 0
M  V30 4720 H 448.928 -2.89937 -1.43938 0
M  V30 4721 H 447.835 -3.66554 0.747615 0
M  V30 4722 H 449.168 -4.82661 0.964332 0
M  V30 4723 N 450.82 -0.546701 -1.47814 0
M  V30 4724 C 451.767 0.206854 -2.29871 0
M  V30 4725 C 452.737 0.918235 -1.38411 0
M  V30 4726 O 453.922 0.915991 -1.67375 0
M  V30 4727 C 451.062 1.23746 -3.22151 0
M  V30 4728 C 450.175 0.533216 -4.28697 0
M  V30 4729 C 449.31 1.5482 -5.08138 0
M  V30 4730 C 448.349 0.828347 -6.06469 0
M  V30 4731 N 447.486 1.78966 -6.78908 0
M  V30 4732 H 452.326 -0.499037 -2.93792 0
M  V30 4733 H 449.863 -0.25793 -1.44821 0
M  V30 4734 H 451.821 1.84746 -3.74065 0
M  V30 4735 H 450.451 1.91151 -2.60117 0
M  V30 4736 H 449.503 -0.191089 -3.7992 0
M  V30 4737 H 450.815 -0.0311987 -4.9879 0
M  V30 4738 H 449.969 2.23202 -5.6415 0
M  V30 4739 H 448.708 2.14652 -4.37922 0
M  V30 4740 H 447.713 0.130539 -5.49645 0
M  V30 4741 H 448.938 0.235907 -6.7869 0
M  V30 4742 H 446.884 2.37675 -6.1143 0
M  V30 4743 H 446.801 1.27712 -7.45135 0
M  V30 4744 H 448.069 2.46496 -7.395 0
M  V30 4745 N 452.299 1.55045 -0.282633 0
M  V30 4746 C 453.232 2.18951 0.64311 0
M  V30 4747 C 454.21 1.15287 1.14664 0
M  V30 4748 O 455.394 1.43846 1.21822 0
M  V30 4749 C 452.521 2.81874 1.87789 0
M  V30 4750 C 451.567 3.98906 1.50919 0
M  V30 4751 S 452.4 5.3234 0.580884 0
M  V30 4752 C 453.556 5.98737 1.82387 0
M  V30 4753 H 453.789 2.97131 0.100138 0
M  V30 4754 H 451.322 1.54255 -0.0668514 0
M  V30 4755 H 453.28 3.18757 2.58658 0
M  V30 4756 H 451.941 2.03573 2.392 0
M  V30 4757 H 451.134 4.4165 2.42819 0
M  V30 4758 H 450.736 3.63485 0.88061 0
M  V30 4759 H 453.028 6.18427 2.76684 0
M  V30 4760 H 453.971 6.93318 1.4393 0
M  V30 4761 H 454.379 5.28177 1.99223 0
M  V30 4762 N 453.777 0.010035 1.57597 0
M  V30 4763 C 455.026 -0.671945 1.90178 0
M  V30 4764 C 455.339 -1.74376 0.886131 0
M  V30 4765 O 456.545 -2.48107 1.10252 0
M  V30 4766 C 455.001 -1.24636 3.3763 0
M  V30 4767 C 454.609 -0.208838 4.47513 0
M  V30 4768 C 456.353 -1.90595 3.79307 0
M  V30 4769 C 454.26 -0.793814 5.86048 0
M  V30 4770 H 453.19 -0.25474 0.709665 0
M  V30 4771 H 455.841 0.0722206 1.83358 0
M  V30 4772 H 454.223 -2.04152 3.3932 0
M  V30 4773 H 455.397 0.562463 4.57354 0
M  V30 4774 H 453.712 0.350889 4.14919 0
M  V30 4775 H 456.309 -2.35284 4.80151 0
M  V30 4776 H 456.652 -2.74074 3.13352 0
M  V30 4777 H 457.185 -1.17798 3.79958 0
M  V30 4778 H 453.924 0.00240855 6.555 0
M  V30 4779 H 453.444 -1.53404 5.79851 0
M  V30 4780 H 455.123 -1.2894 6.34022 0
M  V30 4781 N 455.255 -1.55392 -0.262866 0
M  V30 4782 C 456.165 -1.92077 -1.34698 0
M  V30 4783 C 457.181 -0.819227 -1.53508 0
M  V30 4784 O 458.357 -1.11921 -1.67439 0
M  V30 4785 C 455.422 -2.19407 -2.68443 0
M  V30 4786 C 454.483 -3.42905 -2.58292 0
M  V30 4787 C 453.716 -3.68921 -3.85659 0
M  V30 4788 O 453.939 -2.97275 -4.8681 0
M  V30 4789 O 452.873 -4.62455 -3.85252 0
M  V30 4790 H 456.699 -2.84384 -1.06581 0
M  V30 4791 H 454.284 -1.42069 -0.462264 0
M  V30 4792 H 456.166 -2.38365 -3.47506 0
M  V30 4793 H 454.841 -1.30282 -2.96325 0
M  V30 4794 H 453.748 -3.29272 -1.7757 0
M  V30 4795 H 455.081 -4.32282 -2.35358 0
M  V30 4796 N 456.733 0.527833 -1.48498 0
M  V30 4797 C 457.982 1.28003 -1.55878 0
M  V30 4798 C 458.295 1.9414 -0.238577 0
M  V30 4799 O 459.501 2.7083 -0.190643 0
M  V30 4800 C 457.957 2.32272 -2.74914 0
M  V30 4801 C 457.565 1.72196 -4.13585 0
M  V30 4802 C 459.309 3.08488 -2.91608 0
M  V30 4803 C 457.216 2.74417 -5.23879 0
M  V30 4804 H 456.146 0.481413 -0.580308 0
M  V30 4805 H 458.797 0.557195 -1.74836 0
M  V30 4806 H 457.179 3.07601 -2.49395 0
M  V30 4807 H 458.353 1.03041 -4.49132 0
M  V30 4808 H 456.668 1.08464 -4.02025 0
M  V30 4809 H 459.265 3.84879 -3.71177 0
M  V30 4810 H 459.608 3.64481 -2.01145 0
M  V30 4811 H 460.141 2.40274 -3.17038 0
M  V30 4812 H 456.88 2.23242 -6.16314 0
M  V30 4813 H 456.4 3.41893 -4.92818 0
M  V30 4814 H 458.079 3.37362 -5.52083 0
M  V30 4815 N 458.211 1.37122 0.776871 0
M  V30 4816 C 459.457 1.32243 1.53752 0
M  V30 4817 C 459.79 -0.0944745 1.9397 0
M  V30 4818 O 459.065 -1.05068 1.6368 0
M  V30 4819 C 459.348 2.25681 2.80607 0
M  V30 4820 C 459.201 3.76127 2.46676 0
M  V30 4821 C 460.52 2.17657 3.82509 0
M  V30 4822 H 457.639 0.481704 0.557791 0
M  V30 4823 H 460.281 1.6778 0.891612 0
M  V30 4824 H 458.431 1.95505 3.35723 0
M  V30 4825 H 460.103 4.16877 1.97513 0
M  V30 4826 H 458.346 3.94946 1.79443 0
M  V30 4827 H 459.017 4.36933 3.37333 0
M  V30 4828 H 461.493 2.44245 3.36873 0
M  V30 4829 H 460.369 2.85185 4.69 0
M  V30 4830 H 460.63 1.16785 4.26396 0
M  V30 4831 N 459.689 -1.00246 1.21608 0
M  V30 4832 C 460.917 -1.77631 1.06089 0
M  V30 4833 C 461.332 -1.84746 -0.38916 0
M  V30 4834 O 460.689 -1.31068 -1.26994 0
M  V30 4835 C 460.74 -3.21415 1.65453 0
M  V30 4836 O 460.461 -3.14703 3.04785 0
M  V30 4837 C 461.962 -4.15289 1.55079 0
M  V30 4838 H 459.182 -0.558162 0.37242 0
M  V30 4839 H 461.726 -1.26093 1.60999 0
M  V30 4840 H 459.881 -3.70053 1.14629 0
M  V30 4841 H 460.295 -4.05056 3.33212 0
M  V30 4842 H 461.769 -5.13965 2.01355 0
M  V30 4843 H 462.246 -4.36279 0.505665 0
M  V30 4844 H 462.852 -3.72543 2.05163 0
M  V30 4845 N 461.167 -1.02423 -1.1978 0
M  V30 4846 C 462.114 -0.601023 -2.22837 0
M  V30 4847 C 463.084 0.382801 -1.61629 0
M  V30 4848 O 464.269 0.280514 -1.88727 0
M  V30 4849 C 461.409 0.0467755 -3.45068 0
M  V30 4850 C 460.522 -0.98253 -4.20678 0
M  V30 4851 C 459.657 -0.304982 -5.30324 0
M  V30 4852 C 458.696 -1.32052 -5.97686 0
M  V30 4853 N 457.833 -0.669105 -6.98904 0
M  V30 4854 H 462.673 -1.48444 -2.58396 0
M  V30 4855 H 460.21 -0.742936 -1.2696 0
M  V30 4856 H 462.168 0.439556 -4.14878 0
M  V30 4857 H 460.798 0.893796 -3.10179 0
M  V30 4858 H 459.85 -1.49341 -3.49859 0
M  V30 4859 H 461.162 -1.75455 -4.66923 0
M  V30 4860 H 460.316 0.142893 -6.06532 0
M  V30 4861 H 459.055 0.499283 -4.85138 0
M  V30 4862 H 458.06 -1.7787 -5.20233 0
M  V30 4863 H 459.285 -2.1262 -6.44957 0
M  V30 4864 H 457.231 0.115152 -6.55899 0
M  V30 4865 H 457.148 -1.37908 -7.43315 0
M  V30 4866 H 458.416 -0.245076 -7.79115 0
M  V30 4867 N 462.645 1.35699 -0.801477 0
M  V30 4868 C 463.893 1.9852 -0.37871 0
M  V30 4869 C 464.214 1.63907 1.05638 0
M  V30 4870 O 463.484 0.919013 1.73006 0
M  V30 4871 H 462.064 0.734322 -0.137042 0
M  V30 4872 H 464.726 1.65697 -1.02619 0
M  V30 4873 H 463.822 3.08382 -0.480284 0
M  V30 4874 N 464.123 0.554532 1.47522 0
M  V30 4875 C 465.353 0.0342074 2.06572 0
M  V30 4876 C 465.761 -1.26375 1.40805 0
M  V30 4877 O 465.104 -1.7683 0.49769 0
M  V30 4878 C 465.166 -0.235096 3.5873 0
M  V30 4879 C 464.83 0.973024 4.46521 0
M  V30 4880 C 465.827 1.8779 4.848 0
M  V30 4881 C 463.512 1.18694 4.88075 0
M  V30 4882 C 465.506 2.98039 5.63428 0
M  V30 4883 C 463.193 2.29254 5.66468 0
M  V30 4884 C 464.191 3.18757 6.04055 0
M  V30 4885 O 463.879 4.27401 6.8087 0
M  V30 4886 H 463.611 0.041587 0.67472 0
M  V30 4887 H 466.165 0.766748 1.90552 0
M  V30 4888 H 464.395 -1.02191 3.72953 0
M  V30 4889 H 466.084 -0.700477 3.9981 0
M  V30 4890 H 466.85 1.72467 4.53299 0
M  V30 4891 H 462.729 0.49947 4.58286 0
M  V30 4892 H 466.273 3.67926 5.92685 0
M  V30 4893 H 462.17 2.4455 5.97382 0
M  V30 4894 H 462.938 4.25415 6.9926 0
M  V30 4895 N 465.601 -1.54893 0.290851 0
M  V30 4896 C 466.564 -2.21824 -0.576784 0
M  V30 4897 C 467.564 -1.20104 -1.06919 0
M  V30 4898 O 468.754 -1.44906 -0.966843 0
M  V30 4899 C 465.886 -2.89662 -1.79747 0
M  V30 4900 H 467.079 -2.99899 0.00784051 0
M  V30 4901 H 464.632 -1.56245 0.0415934 0
M  V30 4902 H 465.367 -2.15639 -2.42219 0
M  V30 4903 H 465.152 -3.64219 -1.45214 0
M  V30 4904 H 466.642 -3.4075 -2.4141 0
M  V30 4905 N 467.08 -0.0183926 -1.57589 0
M  V30 4906 C 468.357 0.700621 -1.82622 0
M  V30 4907 C 468.737 1.90951 -0.90005 0
M  V30 4908 O 468.085 2.28452 0.0469145 0
M  V30 4909 C 468.295 1.08899 -3.31575 0
M  V30 4910 C 469.643 1.48514 -3.9778 0
M  V30 4911 O 470.667 1.18227 -3.36007 0
M  V30 4912 O 469.526 2.04903 -5.06633 0
M  V30 4913 H 466.62 0.342743 -0.752633 0
M  V30 4914 H 469.166 -0.0452548 -1.6964 0
M  V30 4915 H 467.938 0.228113 -3.90635 0
M  V30 4916 H 467.561 1.89338 -3.49624 0
M  V30 4917 N 468.558 1.5553 0.254621 0
M  V30 4918 C 469.807 1.76202 0.981612 0
M  V30 4919 C 470.12 0.580883 1.86776 0
M  V30 4920 O 471.326 0.670448 2.63092 0
M  V30 4921 C 469.782 3.11921 1.79537 0
M  V30 4922 C 469.39 4.37659 0.956991 0
M  V30 4923 C 471.134 3.41936 2.51555 0
M  V30 4924 C 469.041 5.64411 1.76619 0
M  V30 4925 H 467.971 0.656841 0.370237 0
M  V30 4926 H 470.622 1.81969 0.236556 0
M  V30 4927 H 469.004 3.00241 2.58208 0
M  V30 4928 H 470.178 4.60307 0.21315 0
M  V30 4929 H 468.493 4.14922 0.350497 0
M  V30 4930 H 471.09 4.33849 3.12536 0
M  V30 4931 H 471.433 2.62905 3.22779 0
M  V30 4932 H 471.966 3.54797 1.799 0
M  V30 4933 H 468.705 6.46241 1.09783 0
M  V30 4934 H 468.225 5.45877 2.48551 0
M  V30 4935 H 469.904 6.03386 2.33527 0
M  V30 4936 N 470.036 -0.519951 1.48776 0
M  V30 4937 C 471.285 -1.27175 1.56555 0
M  V30 4938 C 471.598 -1.9401 0.248869 0
M  V30 4939 O 472.804 -2.70725 0.205004 0
M  V30 4940 C 471.26 -2.30811 2.76142 0
M  V30 4941 C 470.868 -1.7 4.14493 0
M  V30 4942 C 472.612 -3.06937 2.9324 0
M  V30 4943 C 470.519 -2.71635 5.25327 0
M  V30 4944 H 469.449 -0.478329 0.582853 0
M  V30 4945 H 472.1 -0.547916 1.75129 0
M  V30 4946 H 470.482 -3.06274 2.51023 0
M  V30 4947 H 471.656 -1.00658 4.49672 0
M  V30 4948 H 469.971 -1.06331 4.02595 0
M  V30 4949 H 472.568 -3.82905 3.73213 0
M  V30 4950 H 472.911 -3.63409 2.03075 0
M  V30 4951 H 473.444 -2.38589 3.18308 0
M  V30 4952 H 470.183 -2.1997 6.1749 0
M  V30 4953 H 469.703 -3.39275 4.94624 0
M  V30 4954 H 471.382 -3.34429 5.53865 0
M  V30 4955 N 471.514 -1.37532 -0.769588 0
M  V30 4956 C 472.762 -1.32597 -1.5252 0
M  V30 4957 C 473.083 0.0884294 -1.94799 0
M  V30 4958 O 472.353 1.03289 -1.66458 0
M  V30 4959 H 470.933 -0.487846 -0.565699 0
M  V30 4960 H 473.595 -1.72044 -0.915806 0
M  V30 4961 H 472.691 -1.96643 -2.42359 0
M  V30 4962 N 472.992 0.995999 -1.22138 0
M  V30 4963 C 474.232 1.75032 -1.05561 0
M  V30 4964 C 474.596 1.87729 0.402698 0
M  V30 4965 O 475.797 2.59813 0.689234 0
M  V30 4966 C 474.068 3.11973 -1.74379 0
M  V30 4967 S 475.627 4.03182 -1.73175 0
M  V30 4968 H 472.445 0.602137 -0.37809 0
M  V30 4969 H 475.047 1.19107 -1.55028 0
M  V30 4970 H 473.751 3.00371 -2.79652 0
M  V30 4971 H 473.282 3.7297 -1.25128 0
M  V30 4972 H 475.297 4.90043 -0.77923 0
M  V30 4973 N 474.47 1.03057 1.19235 0
M  V30 4974 C 475.433 0.617418 2.20727 0
M  V30 4975 C 476.433 -0.319856 1.57587 0
M  V30 4976 O 477.623 -0.106633 1.73873 0
M  V30 4977 C 474.755 -0.096296 3.40764 0
M  V30 4978 H 475.948 1.51544 2.58794 0
M  V30 4979 H 473.501 0.821949 1.32942 0
M  V30 4980 H 474.236 -1.00859 3.08217 0
M  V30 4981 H 474.021 0.577217 3.87828 0
M  V30 4982 H 475.511 -0.372219 4.15938 0
M  V30 4983 N 475.948 -1.35272 0.808662 0
M  V30 4984 C 477.364 -1.51806 0.492653 0
M  V30 4985 C 477.564 -1.7574 -0.985778 0
M  V30 4986 O 476.62 -1.80003 -1.77074 0
M  V30 4987 C 477.933 -2.69202 1.33981 0
M  V30 4988 C 479.481 -2.8308 1.33547 0
M  V30 4989 C 479.956 -4.03502 2.16679 0
M  V30 4990 N 481.447 -4.10684 2.14227 0
M  V30 4991 C 482.182 -5.02984 2.75308 0
M  V30 4992 N 481.678 -6.00603 3.45323 0
M  V30 4993 N 483.471 -4.95746 2.64938 0
M  V30 4994 H 475.622 -1.17993 1.76611 0
M  V30 4995 H 477.885 -0.577476 0.751814 0
M  V30 4996 H 477.591 -2.581 2.38909 0
M  V30 4997 H 477.465 -3.63854 0.994491 0
M  V30 4998 H 479.852 -2.93631 0.294036 0
M  V30 4999 H 479.933 -1.89278 1.72068 0
M  V30 5000 H 479.577 -3.93711 3.20864 0
M  V30 5001 H 479.507 -4.96489 1.75517 0
M  V30 5002 H 481.998 -3.40802 1.63285 0
M  V30 5003 H 482.311 -6.67633 3.89212 0
M  V30 5004 H 480.656 -6.0077 3.49428 0
M  V30 5005 H 483.847 -4.18439 2.09825 0
M  V30 5006 H 484.02 -5.67487 3.12829 0
M  V30 5007 N 477.426 -0.562348 -1.47226 0
M  V30 5008 C 478.837 -0.130325 -1.86245 0
M  V30 5009 C 479.188 1.30128 -1.46838 0
M  V30 5010 O 478.313 1.97974 -0.873805 0
M  V30 5011 C 478.908 -0.229738 -3.3802 0
M  V30 5012 C 477.467 0.14728 -3.76112 0
M  V30 5013 C 476.614 -0.574971 -2.71274 0
M  V30 5014 H 479.565 -0.771773 -1.3867 0
M  V30 5015 H 479.586 0.550316 -3.76499 0
M  V30 5016 H 479.098 -1.27178 -3.66671 0
M  V30 5017 H 477.199 1.19023 -3.53078 0
M  V30 5018 H 477.312 -0.214858 -4.78618 0
M  V30 5019 H 475.676 -0.0174756 -2.54694 0
M  V30 5020 H 476.459 -1.61827 -3.02766 0
M  V30 5021 N 478.904 1.54736 -0.299062 0
M  V30 5022 C 480.129 2.04975 0.316254 0
M  V30 5023 C 480.554 1.17501 1.46885 0
M  V30 5024 O 479.912 0.178678 1.80417 0
M  V30 5025 C 479.96 3.52672 0.751997 0
M  V30 5026 O 479.064 3.68226 1.85697 0
M  V30 5027 H 478.405 0.661126 0.0617175 0
M  V30 5028 H 480.935 1.99805 -0.440341 0
M  V30 5029 H 480.945 3.94488 1.04133 0
M  V30 5030 H 479.62 4.158 -0.0911482 0
M  V30 5031 H 478.197 3.38316 1.56834 0
M  V30 5032 N 480.382 0.0267497 1.57577 0
M  V30 5033 C 481.631 -0.651736 1.9088 0
M  V30 5034 C 481.944 -1.73427 0.904576 0
M  V30 5035 O 483.15 -2.46923 1.12877 0
M  V30 5036 C 481.606 -1.21048 3.38933 0
M  V30 5037 C 481.214 -0.161362 4.47709 0
M  V30 5038 C 482.958 -1.86562 3.81307 0
M  V30 5039 C 480.865 -0.731611 5.86857 0
M  V30 5040 H 479.795 -0.247198 0.712326 0
M  V30 5041 H 482.446 0.0916641 1.83271 0
M  V30 5042 H 480.828 -2.00542 3.41466 0
M  V30 5043 H 482.002 0.61094 4.56732 0
M  V30 5044 H 480.317 0.394877 4.14523 0
M  V30 5045 H 482.914 -2.30178 4.8262 0
M  V30 5046 H 483.257 -2.70735 3.16241 0
M  V30 5047 H 483.79 -1.13762 3.81186 0
M  V30 5048 H 480.529 0.0719329 6.55461 0
M  V30 5049 H 480.049 -1.47245 5.81445 0
M  V30 5050 H 481.728 -1.22208 6.35354 0
M  V30 5051 N 481.861 -1.55662 -0.24637 0
M  V30 5052 C 482.824 -1.89558 -1.28842 0
M  V30 5053 C 483.824 -0.772082 -1.41052 0
M  V30 5054 O 485.014 -1.04007 -1.39743 0
M  V30 5055 C 482.146 -2.12449 -2.66605 0
M  V30 5056 H 483.339 -2.82735 -1.00004 0
M  V30 5057 H 480.892 -1.48562 -0.485684 0
M  V30 5058 H 481.627 -1.21742 -3.00582 0
M  V30 5059 H 481.412 -2.94273 -2.59125 0
M  V30 5060 H 482.902 -2.39854 -3.41847 0
M  V30 5061 N 483.339 0.512053 -1.4905 0
M  V30 5062 C 484.616 1.27337 -1.48474 0
M  V30 5063 C 484.996 2.1009 -0.206301 0
M  V30 5064 O 484.344 2.136 0.811609 0
M  V30 5065 C 484.554 2.13954 -2.75726 0
M  V30 5066 C 485.902 2.73507 -3.24776 0
M  V30 5067 O 486.926 2.24229 -2.76767 0
M  V30 5068 O 485.785 3.63186 -4.08361 0
M  V30 5069 H 482.879 0.575652 -0.593762 0
M  V30 5070 H 485.425 0.527232 -1.61302 0
M  V30 5071 H 484.197 1.52709 -3.60272 0
M  V30 5072 H 483.82 2.95782 -2.65705 0
M  V30 5073 N 484.817 1.37938 0.762283 0
M  V30 5074 C 486.228 1.30094 1.33912 0
M  V30 5075 C 486.579 -0.0472026 1.96143 0
M  V30 5076 O 485.704 -0.94917 1.94473 0
M  V30 5077 C 486.299 2.35592 2.43478 0
M  V30 5078 C 484.858 2.31353 2.96905 0
M  V30 5079 C 484.005 2.18919 1.70205 0
M  V30 5080 H 486.956 1.48423 0.561816 0
M  V30 5081 H 486.977 2.00806 3.23199 0
M  V30 5082 H 486.489 3.33701 1.98155 0
M  V30 5083 H 484.59 1.36799 3.46579 0
M  V30 5084 H 484.703 3.25147 3.51875 0
M  V30 5085 H 483.067 1.65624 1.93496 0
M  V30 5086 H 483.85 3.18956 1.26973 0
M  V30 5087 N 486.295 -0.989507 1.22664 0
M  V30 5088 C 487.542 -1.72953 1.05325 0
M  V30 5089 C 487.87 -1.90104 -0.411168 0
M  V30 5090 O 487.125 -1.44386 -1.32103 0
M  V30 5091 C 487.424 -3.13649 1.71345 0
M  V30 5092 C 487.09 -3.16403 3.21248 0
M  V30 5093 C 485.752 -3.16862 3.62149 0
M  V30 5094 C 488.104 -3.12428 4.17179 0
M  V30 5095 C 485.432 -3.11051 4.97458 0
M  V30 5096 C 487.784 -3.08159 5.52468 0
M  V30 5097 C 486.448 -3.06935 5.92746 0
M  V30 5098 H 485.718 -0.632881 0.385412 0
M  V30 5099 H 488.365 -1.15863 1.52473 0
M  V30 5100 H 486.67 -3.74069 1.16532 0
M  V30 5101 H 488.367 -3.69658 1.55416 0
M  V30 5102 H 484.957 -3.16798 2.88682 0
M  V30 5103 H 489.141 -3.11221 3.86595 0
M  V30 5104 H 484.397 -3.0845 5.27891 0
M  V30 5105 H 488.571 -3.04039 6.26525 0
M  V30 5106 H 486.198 -3.02186 6.97558 0
M  V30 5107 N 487.773 -1.03688 -1.18687 0
M  V30 5108 C 488.703 -0.645407 -2.24403 0
M  V30 5109 C 489.684 0.349511 -1.66471 0
M  V30 5110 O 490.869 0.230453 -1.92828 0
M  V30 5111 C 487.999 -0.00365337 -3.473 0
M  V30 5112 C 486.953 -0.921705 -4.17958 0
M  V30 5113 C 486.279 -0.144629 -5.34504 0
M  V30 5114 C 487.579 -2.23909 -4.71871 0
M  V30 5115 H 489.273 -1.52917 -2.57404 0
M  V30 5116 H 486.819 -0.736711 -1.23728 0
M  V30 5117 H 488.772 0.281908 -4.20456 0
M  V30 5118 H 487.496 0.914963 -3.13522 0
M  V30 5119 H 486.155 -1.19159 -3.46694 0
M  V30 5120 H 485.803 0.776274 -4.96974 0
M  V30 5121 H 485.503 -0.756206 -5.82714 0
M  V30 5122 H 487.027 0.134004 -6.10453 0
M  V30 5123 H 488.441 -2.0145 -5.36741 0
M  V30 5124 H 486.838 -2.8033 -5.30599 0
M  V30 5125 H 487.908 -2.88822 -3.895 0
M  V30 5126 N 489.251 1.34841 -0.815825 0
M  V30 5127 C 490.662 1.80937 -0.46029 0
M  V30 5128 C 491.013 1.67685 1.01863 0
M  V30 5129 O 490.138 1.21277 1.79223 0
M  V30 5130 C 490.733 3.28509 -0.828708 0
M  V30 5131 C 489.292 3.72712 -0.525644 0
M  V30 5132 C 488.439 2.56676 -1.04941 0
M  V30 5133 H 491.39 1.22688 -1.00664 0
M  V30 5134 H 491.411 3.80279 -0.129757 0
M  V30 5135 H 490.923 3.38122 -1.90513 0
M  V30 5136 H 489.024 3.68642 0.541666 0
M  V30 5137 H 489.137 4.67119 -1.06474 0
M  V30 5138 H 487.501 2.50302 -0.471286 0
M  V30 5139 H 488.284 2.69063 -2.13214 0
M  V30 5140 N 490.729 0.570148 1.46925 0
M  V30 5141 C 491.661 -0.207909 2.28255 0
M  V30 5142 C 492.674 -0.867301 1.37774 0
M  V30 5143 O 493.863 -0.738976 1.62485 0
M  V30 5144 C 490.963 -1.31298 3.12433 0
M  V30 5145 C 490.136 -0.747915 4.30958 0
M  V30 5146 C 489.195 -1.7391 4.9663 0
M  V30 5147 O 488.221 -1.2801 5.54619 0
M  V30 5148 N 489.423 -3.07288 4.92498 0
M  V30 5149 H 492.188 0.489794 2.95671 0
M  V30 5150 H 489.749 0.407076 1.56699 0
M  V30 5151 H 491.741 -1.97507 3.53232 0
M  V30 5152 H 490.311 -1.91373 2.47175 0
M  V30 5153 H 489.531 0.0913066 3.94094 0
M  V30 5154 H 490.819 -0.349958 5.07595 0
M  V30 5155 H 490.217 -3.47213 4.46609 0
M  V30 5156 H 488.774 -3.69021 5.37277 0
M  V30 5157 N 492.207 -1.54576 0.307264 0
M  V30 5158 C 493.154 -2.23751 -0.56604 0
M  V30 5159 C 494.124 -1.22235 -1.12462 0
M  V30 5160 O 495.309 -1.50873 -1.16799 0
M  V30 5161 C 492.449 -2.98661 -1.72903 0
M  V30 5162 C 491.562 -4.14963 -1.20124 0
M  V30 5163 C 490.697 -4.77441 -2.3286 0
M  V30 5164 C 489.736 -5.85875 -1.77247 0
M  V30 5165 N 488.873 -6.42282 -2.8358 0
M  V30 5166 H 493.713 -2.97984 0.0304578 0
M  V30 5167 H 491.25 -1.47076 0.0268015 0
M  V30 5168 H 493.208 -3.40329 -2.41313 0
M  V30 5169 H 491.838 -2.26793 -2.29706 0
M  V30 5170 H 490.89 -3.78193 -0.409198 0
M  V30 5171 H 492.202 -4.93066 -0.754171 0
M  V30 5172 H 491.356 -5.21993 -3.09205 0
M  V30 5173 H 490.095 -3.98684 -2.80896 0
M  V30 5174 H 489.1 -5.40741 -0.993926 0
M  V30 5175 H 490.325 -6.6652 -1.30107 0
M  V30 5176 H 488.271 -5.66406 -3.30939 0
M  V30 5177 H 488.188 -7.1575 -2.43388 0
M  V30 5178 H 489.456 -6.91492 -3.59804 0
M  V30 5179 N 493.685 -0.035106 -1.57561 0
M  V30 5180 C 494.931 0.64318 -1.92331 0
M  V30 5181 C 495.264 1.71434 -0.912368 0
M  V30 5182 O 494.539 1.94395 0.0640303 0
M  V30 5183 C 494.822 1.25411 -3.37556 0
M  V30 5184 C 494.675 0.192109 -4.4939 0
M  V30 5185 C 495.994 2.17041 -3.82859 0
M  V30 5186 H 493.113 0.232341 -0.699419 0
M  V30 5187 H 495.755 -0.0935889 -1.89769 0
M  V30 5188 H 493.905 1.88205 -3.39869 0
M  V30 5189 H 495.577 -0.438849 -4.59208 0
M  V30 5190 H 493.82 -0.481725 -4.31117 0
M  V30 5191 H 494.491 0.659292 -5.48049 0
M  V30 5192 H 496.967 1.64228 -3.8232 0
M  V30 5193 H 495.843 2.56738 -4.85157 0
M  V30 5194 H 496.104 3.06401 -3.18702 0
M  V30 5195 N 495.163 1.55791 0.238111 0
M  V30 5196 C 496.073 1.94196 1.31625 0
M  V30 5197 C 497.089 0.843545 1.52185 0
M  V30 5198 O 498.265 1.1457 1.65637 0
M  V30 5199 C 495.33 2.2365 2.64918 0
M  V30 5200 C 494.391 3.46971 2.52804 0
M  V30 5201 C 493.624 3.7501 3.79741 0
M  V30 5202 O 493.847 3.04982 4.82019 0
M  V30 5203 O 492.781 4.68525 3.77846 0
M  V30 5204 H 496.607 2.86044 1.02043 0
M  V30 5205 H 494.192 1.42786 0.439603 0
M  V30 5206 H 496.074 2.43863 3.4367 0
M  V30 5207 H 494.749 1.34979 2.94215 0
M  V30 5208 H 493.656 3.32055 1.72309 0
M  V30 5209 H 494.989 4.35971 2.28451 0
M  V30 5210 N 496.642 -0.504142 1.49319 0
M  V30 5211 C 497.574 -1.62265 1.61872 0
M  V30 5212 C 498.587 -1.54881 0.501573 0
M  V30 5213 O 499.776 -1.6087 0.773497 0
M  V30 5214 C 496.876 -3.01042 1.55651 0
M  V30 5215 C 496.049 -3.33642 2.82845 0
M  V30 5216 C 495.108 -4.51816 2.69719 0
M  V30 5217 O 494.134 -4.53755 3.4365 0
M  V30 5218 N 495.336 -5.51543 1.81055 0
M  V30 5219 H 498.101 -1.51924 2.58339 0
M  V30 5220 H 495.662 -0.691954 1.46368 0
M  V30 5221 H 497.654 -3.78013 1.44528 0
M  V30 5222 H 496.224 -3.05323 0.670546 0
M  V30 5223 H 495.444 -2.45598 3.08343 0
M  V30 5224 H 496.732 -3.5222 3.67177 0
M  V30 5225 H 496.13 -5.52774 1.20241 0
M  V30 5226 H 494.687 -6.27629 1.75856 0
M  V30 5227 N 498.12 -1.38341 -0.754957 0
M  V30 5228 C 499.368 -1.34208 -1.51105 0
M  V30 5229 C 499.689 0.0677634 -1.94882 0
M  V30 5230 O 498.959 1.01517 -1.67544 0
M  V30 5231 H 497.539 -0.493819 -0.560493 0
M  V30 5232 H 500.201 -1.73005 -0.897507 0
M  V30 5233 H 499.297 -1.99203 -2.4026 0
M  V30 5234 N 499.598 0.982988 -1.23187 0
M  V30 5235 C 501.014 1.2487 -0.993967 0
M  V30 5236 C 501.214 1.99155 0.306498 0
M  V30 5237 O 500.27 2.30688 1.0266 0
M  V30 5238 C 501.583 2.05078 -2.19917 0
M  V30 5239 C 503.131 2.18227 -2.2438 0
M  V30 5240 C 503.606 3.01825 -3.44479 0
M  V30 5241 N 505.097 3.09411 -3.44702 0
M  V30 5242 C 505.832 3.74412 -4.34285 0
M  V30 5243 N 505.328 4.41259 -5.341 0
M  V30 5244 N 507.121 3.71273 -4.22035 0
M  V30 5245 H 499.272 0.485253 -2.06783 0
M  V30 5246 H 501.535 0.276979 -0.906635 0
M  V30 5247 H 501.241 1.57867 -3.14279 0
M  V30 5248 H 501.115 3.05829 -2.2079 0
M  V30 5249 H 503.502 2.64648 -1.30559 0
M  V30 5250 H 503.583 1.16873 -2.2754 0
M  V30 5251 H 503.227 2.56102 -4.38605 0
M  V30 5252 H 503.157 4.03342 -3.38559 0
M  V30 5253 H 505.648 2.61845 -2.7248 0
M  V30 5254 H 505.961 4.88629 -5.98717 0
M  V30 5255 H 504.306 4.39975 -5.38002 0
M  V30 5256 H 507.497 3.18217 -3.43301 0
M  V30 5257 H 507.67 4.21649 -4.92053 0
M  V30 5258 N 501.076 1.04316 1.18135 0
M  V30 5259 C 502.306 0.767003 1.91835 0
M  V30 5260 C 502.714 -0.68002 1.76557 0
M  V30 5261 O 502.057 -1.47548 1.09432 0
M  V30 5262 C 502.119 1.05674 3.43618 0
M  V30 5263 C 501.783 2.49818 3.82675 0
M  V30 5264 C 502.78 3.48003 3.86251 0
M  V30 5265 C 500.465 2.84596 4.13897 0
M  V30 5266 C 502.459 4.79016 4.20503 0
M  V30 5267 C 500.146 4.15813 4.4782 0
M  V30 5268 C 501.144 5.12834 4.51099 0
M  V30 5269 O 500.832 6.41699 4.84229 0
M  V30 5270 H 500.564 0.278948 0.615763 0
M  V30 5271 H 503.118 1.3946 1.50798 0
M  V30 5272 H 501.348 0.372029 3.84906 0
M  V30 5273 H 503.037 0.767994 3.98568 0
M  V30 5274 H 503.803 3.22475 3.62264 0
M  V30 5275 H 499.682 2.09748 4.1052 0
M  V30 5276 H 503.226 5.54739 4.22978 0
M  V30 5277 H 499.123 4.41109 4.71268 0
M  V30 5278 H 499.891 6.46387 5.02121 0
M  V30 5279 N 502.554 -1.34406 0.822964 0
M  V30 5280 C 503.831 -1.92733 0.333641 0
M  V30 5281 C 504.211 -1.75107 -1.17901 0
M  V30 5282 O 503.559 -1.12983 -1.98613 0
M  V30 5283 C 503.769 -3.40557 0.763023 0
M  V30 5284 C 505.117 -4.17709 0.761879 0
M  V30 5285 O 506.141 -3.49141 0.705606 0
M  V30 5286 O 505 -5.40082 0.835109 0
M  V30 5287 H 502.094 -0.821964 0.0911249 0
M  V30 5288 H 504.64 -1.4338 0.907757 0
M  V30 5289 H 503.412 -3.47187 1.8049 0
M  V30 5290 H 503.035 -3.97259 0.164605 0
M  V30 5291 N 504.032 -0.577932 -1.46621 0
M  V30 5292 C 505.309 0.00495287 -1.95599 0
M  V30 5293 C 505.689 1.46428 -1.5206 0
M  V30 5294 O 505.037 2.1517 -0.769046 0
M  V30 5295 C 505.247 -0.162114 -3.48623 0
M  V30 5296 C 506.595 -0.0274623 -4.24591 0
M  V30 5297 O 507.619 -0.0907067 -3.56084 0
M  V30 5298 O 506.478 0.1122 -5.46385 0
M  V30 5299 H 503.572 0.0525057 -0.825332 0
M  V30 5300 H 506.118 -0.645914 -1.56927 0
M  V30 5301 H 504.89 -1.17679 -3.73185 0
M  V30 5302 H 504.513 0.525407 -3.94113 0
M  V30 5303 N 505.51 1.54411 -0.315457 0
M  V30 5304 C 506.759 1.99599 0.290395 0
M  V30 5305 C 507.072 1.20746 1.53882 0
M  V30 5306 O 508.278 1.56272 2.22017 0
M  V30 5307 C 506.734 3.5539 0.56797 0
M  V30 5308 C 506.342 4.43068 -0.662945 0
M  V30 5309 C 508.086 4.09067 1.13422 0
M  V30 5310 C 505.993 5.90317 -0.357722 0
M  V30 5311 H 504.923 0.745592 0.112286 0
M  V30 5312 H 507.574 1.78477 -0.426418 0
M  V30 5313 H 505.956 3.72468 1.34476 0
M  V30 5314 H 507.13 4.37765 -1.43869 0
M  V30 5315 H 505.445 4.00238 -1.14884 0
M  V30 5316 H 508.042 5.16663 1.37707 0
M  V30 5317 H 508.385 3.60552 2.08106 0
M  V30 5318 H 508.918 3.95589 0.418805 0
M  V30 5319 H 505.657 6.4301 -1.27351 0
M  V30 5320 H 505.177 5.98592 0.380472 0
M  V30 5321 H 506.856 6.4699 0.0354284 0
M  V30 5322 N 506.988 0.0434614 1.5754 0
M  V30 5323 C 508.404 -0.313039 1.565 0
M  V30 5324 C 508.604 -1.71954 1.05043 0
M  V30 5325 O 507.66 -2.425 0.703564 0
M  V30 5326 C 508.973 -0.148544 3.00333 0
M  V30 5327 C 510.521 -0.220231 3.12224 0
M  V30 5328 C 510.996 -0.0843565 4.57922 0
M  V30 5329 N 512.487 -0.140881 4.62986 0
M  V30 5330 C 513.222 -0.0597443 5.73369 0
M  V30 5331 N 512.718 0.0733004 6.92761 0
M  V30 5332 N 514.511 -0.11477 5.61983 0
M  V30 5333 H 506.662 0.96303 1.89313 0
M  V30 5334 H 508.925 0.373164 0.871466 0
M  V30 5335 H 508.631 0.820894 3.41986 0
M  V30 5336 H 508.505 -0.912798 3.65989 0
M  V30 5337 H 510.892 -1.18014 2.70475 0
M  V30 5338 H 510.973 0.574646 2.49262 0
M  V30 5339 H 510.617 0.872192 5.00355 0
M  V30 5340 H 510.547 -0.898281 5.18882 0
M  V30 5341 H 513.038 -0.243273 3.77116 0
M  V30 5342 H 513.351 0.128128 7.72694 0
M  V30 5343 H 511.696 0.10828 6.94916 0
M  V30 5344 H 514.887 -0.217212 4.67596 0
M  V30 5345 H 515.06 -0.0480779 6.47982 0
M  V30 5346 N 508.466 -1.55915 -0.229846 0
M  V30 5347 C 509.712 -1.78807 -0.956868 0
M  V30 5348 C 510.045 -0.611687 -1.84315 0
M  V30 5349 O 509.32 0.389398 -1.90562 0
M  V30 5350 C 509.603 -3.11718 -1.80288 0
M  V30 5351 C 509.456 -4.3979 -0.943649 0
M  V30 5352 C 510.775 -3.40999 -2.78222 0
M  V30 5353 H 507.894 -0.6505 -0.346437 0
M  V30 5354 H 510.536 -1.88648 -0.226252 0
M  V30 5355 H 508.686 -3.03459 -2.42579 0
M  V30 5356 H 510.358 -4.60059 -0.338121 0
M  V30 5357 H 508.601 -4.33086 -0.248705 0
M  V30 5358 H 509.272 -5.29208 -1.5698 0
M  V30 5359 H 511.748 -3.49332 -2.26067 0
M  V30 5360 H 510.624 -4.35183 -3.34526 0
M  V30 5361 H 510.885 -2.62754 -3.55546 0
M  V30 5362 N 509.944 0.496216 -1.49584 0
M  V30 5363 C 511.184 1.26015 -1.60933 0
M  V30 5364 C 511.548 1.89772 -0.291646 0
M  V30 5365 O 512.749 2.67334 -0.280357 0
M  V30 5366 C 511.02 2.29506 -2.73974 0
M  V30 5367 S 512.579 3.15175 -3.05303 0
M  V30 5368 H 509.397 0.428194 -0.567601 0
M  V30 5369 H 511.999 0.561484 -1.87263 0
M  V30 5370 H 510.703 1.81205 -3.68229 0
M  V30 5371 H 510.234 3.04036 -2.49651 0
M  V30 5372 H 512.249 4.30244 -2.47193 0
M  V30 5373 N 511.423 1.38739 0.74761 0
M  V30 5374 C 512.672 1.3459 1.50228 0
M  V30 5375 C 512.985 -0.0595592 1.95509 0
M  V30 5376 O 514.191 -0.22361 2.70578 0
M  V30 5377 C 512.647 2.36377 2.71393 0
M  V30 5378 C 512.255 3.82573 2.33113 0
M  V30 5379 C 513.999 2.41281 3.49262 0
M  V30 5380 C 511.906 4.76032 3.50924 0
M  V30 5381 H 510.836 0.500312 0.564096 0
M  V30 5382 H 513.487 1.64324 0.8167 0
M  V30 5383 H 511.869 1.99694 3.41962 0
M  V30 5384 H 513.043 4.28227 1.70171 0
M  V30 5385 H 511.358 3.80844 1.68365 0
M  V30 5386 H 513.955 3.08301 4.36869 0
M  V30 5387 H 514.298 1.43353 3.9084 0
M  V30 5388 H 514.831 2.76793 2.85711 0
M  V30 5389 H 511.57 5.75177 3.14408 0
M  V30 5390 H 511.09 4.35066 4.12889 0
M  V30 5391 H 512.769 4.94331 4.17427 0
M  V30 5392 N 512.901 -0.976442 1.23707 0
M  V30 5393 C 514.149 -1.71487 1.06942 0
M  V30 5394 C 514.47 -1.9098 -0.393897 0
M  V30 5395 O 513.74 -1.48128 -1.28198 0
M  V30 5396 H 512.32 -0.635425 0.392739 0
M  V30 5397 H 514.982 -1.17515 1.55487 0
M  V30 5398 H 514.078 -2.70286 1.56051 0
M  V30 5399 N 514.379 -1.04941 -1.1758 0
M  V30 5400 C 515.619 -0.766996 -1.89464 0
M  V30 5401 C 515.983 0.693123 -1.79053 0
M  V30 5402 O 517.184 1.08953 -2.45729 0
M  V30 5403 C 515.455 -1.23108 -3.35528 0
M  V30 5404 S 517.014 -1.07565 -4.25412 0
M  V30 5405 H 513.832 -0.278616 -0.654136 0
M  V30 5406 H 516.434 -1.34352 -1.4202 0
M  V30 5407 H 515.138 -2.28896 -3.40639 0
M  V30 5408 H 514.669 -0.648724 -3.88014 0
M  V30 5409 H 516.684 0.00169467 -4.962 0
M  V30 5410 N 515.857 1.33968 -0.830081 0
M  V30 5411 C 516.805 2.31301 -0.245435 0
M  V30 5412 C 517.799 1.57734 0.617762 0
M  V30 5413 O 519.005 1.72674 0.508303 0
M  V30 5414 H 515.38 0.749552 -0.0606316 0
M  V30 5415 H 517.351 2.78129 -1.08105 0
M  V30 5416 C 516.1 3.42961 0.572084 0
M  V30 5417 H 515.423 3.99714 -0.0828118 0
M  V30 5418 H 516.863 4.13286 0.94715 0
M  V30 5419 C 515.322 2.88043 1.74737 0
M  V30 5420 O 515.852 2.83508 2.8458 0
M  V30 5421 N 514.058 2.44768 1.56642 0
M  V30 5422 H 513.605 2.48656 0.672901 0
M  V30 5423 H 513.563 2.08375 2.3543 0
M  V30 5424 N 517.335 0.585699 1.46312 0
M  V30 5425 C 518.581 0.0725284 2.0267 0
M  V30 5426 C 518.914 -1.28523 1.45586 0
M  V30 5427 O 518.189 -1.84283 0.622101 0
M  V30 5428 C 518.472 0.0099788 3.60099 0
M  V30 5429 C 518.325 1.39685 4.27561 0
M  V30 5430 C 519.644 -0.689117 4.34671 0
M  V30 5431 H 516.763 0.0278307 0.736474 0
M  V30 5432 H 519.405 0.753472 1.74421 0
M  V30 5433 H 517.555 -0.56992 3.84297 0
M  V30 5434 H 519.227 2.02215 4.14617 0
M  V30 5435 H 517.47 1.96374 3.86807 0
M  V30 5436 H 518.141 1.30553 5.36339 0
M  V30 5437 H 520.617 -0.196446 4.15636 0
M  V30 5438 H 519.493 -0.701921 5.44393 0
M  V30 5439 H 519.754 -1.75101 4.05946 0
M  V30 5440 N 518.813 -1.54241 0.323641 0
M  V30 5441 C 520.053 -2.0248 -0.279502 0
M  V30 5442 C 520.417 -1.20672 -1.49339 0
M  V30 5443 O 521.618 -1.58715 -2.1694 0
M  V30 5444 C 519.889 -3.52238 -0.605266 0
M  V30 5445 S 521.448 -4.22411 -1.18805 0
M  V30 5446 H 518.266 -0.705957 -0.0845313 0
M  V30 5447 H 520.868 -1.90089 0.456781 0
M  V30 5448 H 519.572 -4.094 0.286339 0
M  V30 5449 H 519.103 -3.6871 -1.37174 0
M  V30 5450 H 521.118 -4.30075 -2.47487 0
M  V30 5451 N 520.291 -0.0518155 -1.57515 0
M  V30 5452 C 521.54 0.621286 -1.91893 0
M  V30 5453 C 521.853 1.71966 -0.932052 0
M  V30 5454 O 523.059 2.45096 -1.16791 0
M  V30 5455 C 521.515 1.15641 -3.40816 0
M  V30 5456 C 521.123 0.0901146 -4.47909 0
M  V30 5457 C 522.867 1.80472 -3.84227 0
M  V30 5458 C 520.774 0.638154 -5.87947 0
M  V30 5459 H 519.704 0.235835 -0.716169 0
M  V30 5460 H 522.355 -0.120809 -1.83102 0
M  V30 5461 H 520.737 1.95084 -3.44613 0
M  V30 5462 H 521.911 -0.683525 -4.55702 0
M  V30 5463 H 520.226 -0.460774 -4.13843 0
M  V30 5464 H 522.823 2.22471 -4.86221 0
M  V30 5465 H 523.166 2.65669 -3.20508 0
M  V30 5466 H 523.699 1.07683 -3.82948 0
M  V30 5467 H 520.438 -0.176202 -6.55263 0
M  V30 5468 H 519.958 1.37976 -5.83714 0
M  V30 5469 H 521.637 1.12085 -6.37217 0
M  V30 5470 N 521.769 1.56035 0.221574 0
M  V30 5471 C 522.994 1.83476 0.967026 0
M  V30 5472 C 523.419 0.632139 1.7716 0
M  V30 5473 O 522.777 -0.419082 1.7639 0
M  V30 5474 C 522.825 3.08907 1.86034 0
M  V30 5475 O 521.929 2.876 2.95567 0
M  V30 5476 H 521.27 0.604913 0.273817 0
M  V30 5477 H 523.8 2.03247 0.234893 0
M  V30 5478 H 523.81 3.3901 2.27016 0
M  V30 5479 H 522.485 3.96068 1.26898 0
M  V30 5480 H 521.062 2.6873 2.58532 0
M  V30 5481 N 523.247 -0.488276 1.49845 0
M  V30 5482 C 524.663 -0.820566 1.3689 0
M  V30 5483 C 524.863 -1.97248 0.411752 0
M  V30 5484 O 523.919 -2.52042 -0.151931 0
M  V30 5485 C 525.232 -1.1488 2.77891 0
M  V30 5486 C 526.78 -1.25626 2.86683 0
M  V30 5487 C 527.255 -1.61772 4.28479 0
M  V30 5488 N 528.746 -1.68797 4.31349 0
M  V30 5489 C 529.481 -1.98235 5.38043 0
M  V30 5490 N 528.977 -2.2581 6.54967 0
M  V30 5491 N 530.77 -1.99593 5.2547 0
M  V30 5492 H 522.921 0.271123 2.10662 0
M  V30 5493 H 525.184 0.058735 0.946179 0
M  V30 5494 H 524.89 -0.375614 3.49688 0
M  V30 5495 H 524.764 -2.08919 3.14058 0
M  V30 5496 H 527.151 -2.02014 2.15114 0
M  V30 5497 H 527.232 -0.296072 2.54081 0
M  V30 5498 H 526.876 -0.859295 5.00578 0
M  V30 5499 H 526.806 -2.58912 4.58554 0
M  V30 5500 H 529.297 -1.49595 3.4703 0
M  V30 5501 H 529.61 -2.47497 7.32096 0
M  V30 5502 H 527.955 -2.23239 6.58171 0
M  V30 5503 H 531.146 -1.77535 4.33127 0
M  V30 5504 H 531.319 -2.222 6.08713 0
M  V30 5505 N 524.725 -1.39134 -0.740242 0
M  V30 5506 C 525.971 -1.37278 -1.50088 0
M  V30 5507 C 526.326 0.0329967 -1.92372 0
M  V30 5508 O 525.619 0.998447 -1.63529 0
M  V30 5509 C 525.813 -2.27457 -2.75678 0
M  V30 5510 C 525.642 -3.76662 -2.45674 0
M  V30 5511 C 524.412 -4.45617 -2.38229 0
M  V30 5512 C 526.61 -4.6877 -2.11563 0
M  V30 5513 N 524.592 -5.80187 -2.00641 0
M  V30 5514 C 525.963 -5.91951 -1.84376 0
M  V30 5515 C 528.018 -4.56843 -1.97987 0
M  V30 5516 C 526.721 -7.04538 -1.4498 0
M  V30 5517 C 528.747 -5.69347 -1.59994 0
M  V30 5518 C 528.109 -6.91597 -1.33687 0
M  V30 5519 H 524.208 -0.557611 -0.548265 0
M  V30 5520 H 526.792 -1.74638 -0.860784 0
M  V30 5521 H 524.963 -1.92263 -3.37475 0
M  V30 5522 H 526.695 -2.16631 -3.41838 0
M  V30 5523 H 523.45 -3.98993 -2.5515 0
M  V30 5524 H 523.874 -6.51387 -1.84454 0
M  V30 5525 H 528.516 -3.62868 -2.16995 0
M  V30 5526 H 526.234 -7.98419 -1.24712 0
M  V30 5527 H 529.82 -5.62104 -1.50102 0
M  V30 5528 H 528.7 -7.77176 -1.04728 0
M  V30 5529 N 526.204 0.969867 -1.24223 0
M  V30 5530 C 527.114 2.09806 -1.0497 0
M  V30 5531 C 528.13 1.73998 0.00886455 0
M  V30 5532 O 529.306 2.00513 -0.188848 0
M  V30 5533 C 526.371 3.40467 -0.654452 0
M  V30 5534 C 525.432 3.90236 -1.78926 0
M  V30 5535 C 524.665 5.14662 -1.41277 0
M  V30 5536 O 524.888 5.69602 -0.301632 0
M  V30 5537 O 523.822 5.58761 -2.23763 0
M  V30 5538 H 527.648 2.28942 -1.99548 0
M  V30 5539 H 525.233 1.08197 -1.03023 0
M  V30 5540 H 527.115 4.19039 -0.445452 0
M  V30 5541 H 525.79 3.22636 0.262216 0
M  V30 5542 H 524.697 3.12735 -2.05299 0
M  V30 5543 H 526.03 4.1254 -2.68462 0
M  V30 5544 N 527.682 1.05563 1.17022 0
M  V30 5545 C 528.931 0.763036 1.8671 0
M  V30 5546 C 529.244 -0.712857 1.82147 0
M  V30 5547 O 530.45 -1.11955 2.47343 0
M  V30 5548 C 528.906 1.31474 3.35026 0
M  V30 5549 C 528.514 2.82034 3.48081 0
M  V30 5550 C 530.258 1.09935 4.10018 0
M  V30 5551 C 528.165 3.30486 4.90442 0
M  V30 5552 H 527.095 0.281747 0.699382 0
M  V30 5553 H 529.746 1.2734 1.32124 0
M  V30 5554 H 528.128 0.732171 3.89173 0
M  V30 5555 H 529.302 3.46178 3.04133 0
M  V30 5556 H 527.617 3.02156 2.86515 0
M  V30 5557 H 530.214 1.43632 5.15048 0
M  V30 5558 H 530.557 0.0373072 4.16283 0
M  V30 5559 H 531.09 1.64732 3.62089 0
M  V30 5560 H 527.829 4.36137 4.89352 0
M  V30 5561 H 527.349 2.71086 5.35044 0
M  V30 5562 H 529.028 3.25382 5.59227 0
M  V30 5563 N 529.16 -1.33526 0.837174 0
M  V30 5564 C 530.408 -1.97446 0.431211 0
M  V30 5565 C 530.729 -1.6665 -1.01255 0
M  V30 5566 O 529.999 -0.964559 -1.70508 0
M  V30 5567 H 528.579 -0.73043 0.156463 0
M  V30 5568 H 531.241 -1.62918 1.06976 0
M  V30 5569 H 530.337 -3.07001 0.561877 0
M  V30 5570 N 530.638 -0.59345 -1.46 0
M  V30 5571 C 531.886 -0.082988 -2.0193 0
M  V30 5572 C 532.207 1.28569 -1.46612 0
M  V30 5573 O 531.477 1.84629 -0.654909 0
M  V30 5574 H 530.057 -0.0276882 -0.746487 0
M  V30 5575 H 532.719 -0.771657 -1.78973 0
M  V30 5576 H 531.815 -0.022079 -3.12092 0
M  V30 5577 N 532.116 1.54067 -0.331816 0
M  V30 5578 C 533.527 1.86059 0.15454 0
M  V30 5579 C 533.878 1.25331 1.50952 0
M  V30 5580 O 533.003 0.562441 2.08963 0
M  V30 5581 C 533.598 3.37581 0.287192 0
M  V30 5582 C 532.157 3.69493 0.717773 0
M  V30 5583 C 531.304 2.76863 -0.155569 0
M  V30 5584 H 534.255 1.48797 -0.55182 0
M  V30 5585 H 534.276 3.63744 1.11671 0
M  V30 5586 H 533.788 3.81751 -0.699131 0
M  V30 5587 H 531.889 3.3086 1.71354 0
M  V30 5588 H 532.002 4.76315 0.5158 0
M  V30 5589 H 530.366 2.51995 0.370213 0
M  V30 5590 H 531.149 3.23861 -1.13881 0
M  V30 5591 N 533.594 0.0601682 1.57485 0
M  V30 5592 C 535.005 -0.474217 1.80577 0
M  V30 5593 C 535.356 -1.70365 0.973147 0
M  V30 5594 O 534.481 -2.15544 0.192306 0
M  V30 5595 C 535.076 -0.867102 3.27516 0
M  V30 5596 C 533.635 -1.34642 3.51495 0
M  V30 5597 C 532.782 -0.32594 2.75378 0
M  V30 5598 H 535.733 0.285973 1.56102 0
M  V30 5599 H 535.754 -1.72938 3.38929 0
M  V30 5600 H 535.266 0.0278927 3.8809 0
M  V30 5601 H 533.367 -2.2603 2.96212 0
M  V30 5602 H 533.48 -1.33237 4.60201 0
M  V30 5603 H 531.844 -0.800749 2.41785 0
M  V30 5604 H 532.627 0.561125 3.38683 0
M  V30 5605 N 535.072 -1.5615 -0.213296 0
M  V30 5606 C 536.005 -1.88115 -1.29182 0
M  V30 5607 C 536.983 -0.739348 -1.44819 0
M  V30 5608 O 538.167 -0.988541 -1.605 0
M  V30 5609 C 535.294 -2.09541 -2.66102 0
M  V30 5610 C 534.34 -3.32236 -2.67436 0
M  V30 5611 S 535.173 -4.87915 -2.20679 0
M  V30 5612 C 536.329 -5.12387 -3.59458 0
M  V30 5613 H 536.562 -2.793 -1.01876 0
M  V30 5614 H 534.095 -1.48692 -0.415934 0
M  V30 5615 H 536.053 -2.22568 -3.44925 0
M  V30 5616 H 534.714 -1.19138 -2.90628 0
M  V30 5617 H 533.907 -3.44297 -3.6807 0
M  V30 5618 H 533.509 -3.18108 -1.96681 0
M  V30 5619 H 535.801 -5.01791 -4.55205 0
M  V30 5620 H 536.744 -6.14236 -3.52306 0
M  V30 5621 H 537.152 -4.40089 -3.53528 0
M  V30 5622 N 536.55 0.480323 -1.50102 0
M  V30 5623 C 537.799 1.22979 -1.59872 0
M  V30 5624 C 538.112 1.93282 -0.30022 0
M  V30 5625 O 539.318 2.70086 -0.276709 0
M  V30 5626 C 537.774 2.23408 -2.82164 0
M  V30 5627 C 537.382 1.5895 -4.18854 0
M  V30 5628 C 539.126 2.99055 -3.01275 0
M  V30 5629 C 537.033 2.57611 -5.32344 0
M  V30 5630 H 535.963 0.462707 -0.59533 0
M  V30 5631 H 538.614 0.501291 -1.7652 0
M  V30 5632 H 536.996 2.99511 -2.59055 0
M  V30 5633 H 538.17 0.887 -4.52182 0
M  V30 5634 H 536.485 0.956191 -4.05273 0
M  V30 5635 H 539.082 3.72876 -3.83233 0
M  V30 5636 H 539.425 3.57897 -2.12639 0
M  V30 5637 H 539.958 2.30066 -3.24522 0
M  V30 5638 H 536.697 2.03521 -6.23105 0
M  V30 5639 H 536.217 3.26041 -5.03445 0
M  V30 5640 H 537.896 3.19627 -5.62537 0
M  V30 5641 N 538.028 1.39524 0.732853 0
M  V30 5642 C 539.268 1.383 1.50508 0
M  V30 5643 C 539.632 -0.0208271 1.91989 0
M  V30 5644 O 540.833 -0.158091 2.68335 0
M  V30 5645 C 539.104 2.33007 2.71003 0
M  V30 5646 S 540.663 2.49989 3.60626 0
M  V30 5647 H 537.481 0.490417 0.514794 0
M  V30 5648 H 540.083 1.75641 0.858524 0
M  V30 5649 H 538.787 3.33862 2.38672 0
M  V30 5650 H 538.318 1.96889 3.40585 0
M  V30 5651 H 540.333 1.7394 4.64714 0
M  V30 5652 N 539.506 -0.963266 1.24736 0
M  V30 5653 C 540.734 -1.74166 1.11686 0
M  V30 5654 C 541.149 -1.8589 -0.330187 0
M  V30 5655 O 540.506 -1.35042 -1.2276 0
M  V30 5656 C 540.557 -3.15989 1.75595 0
M  V30 5657 O 540.278 -3.04847 3.14642 0
M  V30 5658 C 541.779 -4.10145 1.68213 0
M  V30 5659 H 538.999 -0.546031 0.389989 0
M  V30 5660 H 541.543 -1.20907 1.64929 0
M  V30 5661 H 539.698 -3.66219 1.26343 0
M  V30 5662 H 540.112 -3.9425 3.4593 0
M  V30 5663 H 541.586 -5.07299 2.17604 0
M  V30 5664 H 542.063 -4.3445 0.644208 0
M  V30 5665 H 542.669 -3.65827 2.16912 0
M  V30 5666 N 540.985 -1.06182 -1.16461 0
M  V30 5667 C 541.917 -0.629584 -2.20383 0
M  V30 5668 C 542.93 0.311834 -1.59786 0
M  V30 5669 O 544.119 0.103 -1.78203 0
M  V30 5670 C 541.219 0.0973695 -3.3876 0
M  V30 5671 C 540.392 -0.857252 -4.28917 0
M  V30 5672 C 539.451 -0.169749 -5.25926 0
M  V30 5673 O 538.477 -0.807044 -5.6345 0
M  V30 5674 N 539.679 1.08911 -5.70192 0
M  V30 5675 H 542.444 -1.52352 -2.58087 0
M  V30 5676 H 540.005 -0.944993 -1.31459 0
M  V30 5677 H 541.997 0.567676 -4.00699 0
M  V30 5678 H 540.567 0.893093 -2.99571 0
M  V30 5679 H 539.787 -1.50696 -3.64259 0
M  V30 5680 H 541.075 -1.50489 -4.86035 0
M  V30 5681 H 540.473 1.62703 -5.41797 0
M  V30 5682 H 539.03 1.50331 -6.34227 0
M  V30 5683 N 542.463 1.3308 -0.844243 0
M  V30 5684 C 543.411 2.31028 -0.269954 0
M  V30 5685 C 544.405 1.58381 0.600997 0
M  V30 5686 O 545.611 1.73203 0.48996 0
M  V30 5687 H 541.986 0.748866 -0.0685782 0
M  V30 5688 H 543.957 2.76967 -1.11049 0
M  V30 5689 C 542.706 3.43549 0.535676 0
M  V30 5690 H 542.029 3.99604 -0.125202 0
M  V30 5691 H 543.469 4.14267 0.903262 0
M  V30 5692 C 541.928 2.8988 1.71672 0
M  V30 5693 O 542.458 2.86511 2.81557 0
M  V30 5694 N 540.664 2.46416 1.54037 0
M  V30 5695 H 540.211 2.49356 0.64649 0
M  V30 5696 H 540.169 2.1086 2.33207 0
M  V30 5697 N 543.941 0.601185 1.45683 0
M  V30 5698 C 544.904 -0.111398 2.28929 0
M  V30 5699 C 545.904 -0.801246 1.39416 0
M  V30 5700 O 547.094 -0.650383 1.61603 0
M  V30 5701 C 544.226 -1.16773 3.20276 0
M  V30 5702 H 545.419 0.620412 2.93413 0
M  V30 5703 H 542.972 0.359946 1.52099 0
M  V30 5704 H 543.707 -1.93051 2.60579 0
M  V30 5705 H 543.492 -0.677358 3.86205 0
M  V30 5706 H 544.982 -1.66698 3.82886 0
M  V30 5707 N 545.419 -1.53889 0.339982 0
M  V30 5708 C 546.647 -2.05271 -0.259114 0
M  V30 5709 C 547.062 -1.21517 -1.44496 0
M  V30 5710 O 546.419 -0.24966 -1.80784 0
M  V30 5711 C 546.47 -3.55092 -0.677634 0
M  V30 5712 O 546.191 -4.35667 0.461051 0
M  V30 5713 C 547.692 -4.22631 -1.33782 0
M  V30 5714 H 544.912 -0.669085 -0.0506566 0
M  V30 5715 H 547.456 -1.9852 0.490935 0
M  V30 5716 H 545.611 -3.62077 -1.37763 0
M  V30 5717 H 546.025 -5.24343 0.128144 0
M  V30 5718 H 547.499 -5.28861 -1.58145 0
M  V30 5719 H 547.976 -3.74758 -2.29027 0
M  V30 5720 H 548.582 -4.19829 -0.679957 0
M  V30 5721 N 546.897 -0.0685191 -1.57451 0
M  V30 5722 C 547.86 0.885173 -2.11417 0
M  V30 5723 C 548.86 1.22853 -1.03748 0
M  V30 5724 O 550.05 1.16235 -1.2975 0
M  V30 5725 C 547.182 2.18964 -2.61281 0
M  V30 5726 H 548.375 0.417034 -2.96986 0
M  V30 5727 H 545.928 0.18014 -1.55258 0
M  V30 5728 H 546.663 2.70321 -1.79156 0
M  V30 5729 H 546.448 1.9534 -3.39977 0
M  V30 5730 H 547.938 2.87242 -3.0312 0
M  V30 5731 N 548.375 1.56261 0.205012 0
M  V30 5732 C 549.623 1.79684 0.925096 0
M  V30 5733 C 549.944 0.63989 1.84202 0
M  V30 5734 O 549.214 -0.342345 1.92885 0
M  V30 5735 H 547.794 0.662774 0.344587 0
M  V30 5736 H 550.456 1.93734 0.212899 0
M  V30 5737 H 549.552 2.72467 1.52211 0
M  V30 5738 N 549.853 -0.472356 1.50355 0
M  V30 5739 C 550.763 -1.59637 1.7191 0
M  V30 5740 C 551.779 -1.63247 0.602195 0
M  V30 5741 O 552.955 -1.81139 0.880369 0
M  V30 5742 C 550.02 -2.9586 1.80742 0
M  V30 5743 C 549.081 -3.02649 3.04471 0
M  V30 5744 C 548.314 -4.32374 3.12872 0
M  V30 5745 O 548.537 -5.22807 2.28099 0
M  V30 5746 O 547.471 -4.44728 4.05587 0
M  V30 5747 H 551.297 -1.44373 2.67189 0
M  V30 5748 H 548.882 -0.651717 1.34436 0
M  V30 5749 H 550.764 -3.7677 1.88739 0
M  V30 5750 H 549.439 -3.11325 0.88647 0
M  V30 5751 H 548.346 -2.20821 3.01975 0
M  V30 5752 H 549.679 -2.92119 3.9614 0
M  V30 5753 N 551.331 -1.39911 -0.725443 0
M  V30 5754 C 552.241 -1.41688 -1.8698 0
M  V30 5755 C 553.257 -0.310579 -1.71206 0
M  V30 5756 O 554.433 -0.55359 -1.93642 0
M  V30 5757 C 551.498 -1.26811 -3.22676 0
M  V30 5758 C 550.559 -2.47497 -3.50776 0
M  V30 5759 C 549.792 -2.3332 -4.79997 0
M  V30 5760 O 550.015 -1.34175 -5.54394 0
M  V30 5761 O 548.949 -3.22498 -5.08211 0
M  V30 5762 H 552.775 -2.38171 -1.88436 0
M  V30 5763 H 550.36 -1.21128 -0.874548 0
M  V30 5764 H 552.242 -1.20684 -4.03749 0
M  V30 5765 H 550.917 -0.334289 -3.21969 0
M  V30 5766 H 549.824 -2.59201 -2.69751 0
M  V30 5767 H 551.157 -3.39606 -3.5627 0
M  V30 5768 N 552.809 0.956637 -1.25245 0
M  V30 5769 C 554.039 1.7332 -1.12445 0
M  V30 5770 C 554.447 1.86392 0.324732 0
M  V30 5771 O 553.79 1.35967 1.23526 0
M  V30 5772 C 553.852 3.16603 -1.70303 0
M  V30 5773 C 553.516 3.26966 -3.19284 0
M  V30 5774 C 554.513 3.11434 -4.16299 0
M  V30 5775 C 552.198 3.50851 -3.59456 0
M  V30 5776 C 554.192 3.1963 -5.51467 0
M  V30 5777 C 551.879 3.58684 -4.94761 0
M  V30 5778 C 552.877 3.43087 -5.90576 0
M  V30 5779 O 552.565 3.50598 -7.2342 0
M  V30 5780 H 552.297 0.549981 -0.393061 0
M  V30 5781 H 554.851 1.20892 -1.66055 0
M  V30 5782 H 553.081 3.70385 -1.11138 0
M  V30 5783 H 554.77 3.76109 -1.52632 0
M  V30 5784 H 555.536 2.92853 -3.86604 0
M  V30 5785 H 551.415 3.62053 -2.85375 0
M  V30 5786 H 554.959 3.07373 -6.26233 0
M  V30 5787 H 550.856 3.76782 -5.24124 0
M  V30 5788 H 551.624 3.67242 -7.31489 0
M  V30 5789 N 554.287 1.06798 1.15896 0
M  V30 5790 C 555.703 0.792423 1.38538 0
M  V30 5791 C 555.903 -0.60592 1.92174 0
M  V30 5792 O 554.959 -1.36561 2.12385 0
M  V30 5793 C 556.272 1.86157 2.36149 0
M  V30 5794 C 557.82 1.88567 2.49823 0
M  V30 5795 C 558.295 2.9455 3.5072 0
M  V30 5796 N 559.786 2.93616 3.58251 0
M  V30 5797 C 560.521 3.72267 4.36125 0
M  V30 5798 N 560.017 4.60751 5.17379 0
M  V30 5799 N 561.81 3.60637 4.31158 0
M  V30 5800 H 553.961 1.96993 0.794198 0
M  V30 5801 H 556.224 0.853942 0.411688 0
M  V30 5802 H 555.93 2.86603 2.03843 0
M  V30 5803 H 555.804 1.71692 3.3586 0
M  V30 5804 H 558.191 0.887765 2.8143 0
M  V30 5805 H 558.272 2.0711 1.5013 0
M  V30 5806 H 557.916 3.94537 3.19849 0
M  V30 5807 H 557.846 2.73255 4.50155 0
M  V30 5808 H 560.337 2.29472 3.00252 0
M  V30 5809 H 560.65 5.17408 5.74028 0
M  V30 5810 H 558.995 4.64803 5.16704 0
M  V30 5811 H 562.186 2.90892 3.66742 0
M  V30 5812 H 562.359 4.22176 4.91601 0
M  V30 5813 N 555.766 -1.3263 0.851289 0
M  V30 5814 C 557.182 -1.50162 0.5407 0
M  V30 5815 C 557.382 -1.78788 -0.929369 0
M  V30 5816 O 556.438 -1.85545 -1.71258 0
M  V30 5817 C 557.751 -2.64803 1.42478 0
M  V30 5818 C 559.299 -2.78688 1.42485 0
M  V30 5819 C 559.774 -3.96405 2.29407 0
M  V30 5820 N 561.265 -4.0366 2.27184 0
M  V30 5821 C 562 -4.93971 2.9117 0
M  V30 5822 N 561.496 -5.89313 3.64256 0
M  V30 5823 N 563.289 -4.87066 2.80576 0
M  V30 5824 H 555.44 -1.12315 1.80275 0
M  V30 5825 H 557.703 -0.553266 0.769806 0
M  V30 5826 H 557.409 -2.50368 2.46999 0
M  V30 5827 H 557.283 -3.60506 1.10974 0
M  V30 5828 H 559.67 -2.92547 0.387304 0
M  V30 5829 H 559.751 -1.83708 1.78002 0
M  V30 5830 H 559.395 -3.83304 3.33228 0
M  V30 5831 H 559.325 -4.90654 1.91224 0
M  V30 5832 H 561.816 -3.35435 1.74045 0
M  V30 5833 H 562.129 -6.54913 4.10255 0
M  V30 5834 H 560.474 -5.8935 3.68364 0
M  V30 5835 H 563.665 -4.11552 2.23031 0
M  V30 5836 H 563.838 -5.57248 3.30725 0
M  V30 5837 N 557.244 -0.608902 -1.45362 0
M  V30 5838 C 558.492 -0.104401 -2.0183 0
M  V30 5839 C 558.813 1.27007 -1.47967 0
M  V30 5840 O 558.083 1.83924 -0.674455 0
M  V30 5841 H 556.663 -0.0356042 -0.746151 0
M  V30 5842 H 559.325 -0.790596 -1.78145 0
M  V30 5843 H 558.421 -0.0551793 -3.12051 0
M  V30 5844 N 558.722 1.53707 -0.348139 0
M  V30 5845 C 559.968 2.01979 0.239986 0
M  V30 5846 C 560.323 1.23141 1.47831 0
M  V30 5847 O 559.616 0.311936 1.89044 0
M  V30 5848 C 559.81 3.52292 0.602061 0
M  V30 5849 C 559.639 4.45684 -0.599625 0
M  V30 5850 C 558.409 4.9304 -1.10635 0
M  V30 5851 C 560.607 4.93156 -1.4595 0
M  V30 5852 N 558.589 5.70394 -2.26988 0
M  V30 5853 C 559.96 5.6868 -2.46988 0
M  V30 5854 C 562.015 4.75257 -1.48441 0
M  V30 5855 C 560.718 6.28208 -3.50353 0
M  V30 5856 C 562.744 5.35639 -2.50689 0
M  V30 5857 C 562.106 6.11034 -3.50453 0
M  V30 5858 H 558.205 0.780335 0.0509992 0
M  V30 5859 H 560.789 1.88466 -0.488742 0
M  V30 5860 H 558.96 3.66002 1.29989 0
M  V30 5861 H 560.692 3.87304 1.17377 0
M  V30 5862 H 557.447 4.68784 -0.67371 0
M  V30 5863 H 557.871 6.13741 -2.85747 0
M  V30 5864 H 562.513 4.16508 -0.726707 0
M  V30 5865 H 560.231 6.86064 -4.27015 0
M  V30 5866 H 563.817 5.23693 -2.53449 0
M  V30 5867 H 562.697 6.56925 -4.28275 0
M  V30 5868 N 560.2 0.0768682 1.57412 0
M  V30 5869 C 561.15 -0.898795 2.09537 0
M  V30 5870 C 562.134 -1.25556 1.0062 0
M  V30 5871 O 563.326 -1.23369 1.26921 0
M  V30 5872 C 560.455 -2.16453 2.66464 0
M  V30 5873 C 559.541 -1.83401 3.82393 0
M  V30 5874 N 559.932 -1.20823 4.91157 0
M  V30 5875 C 558.23 -2.13121 3.91785 0
M  V30 5876 C 558.931 -1.05976 5.71965 0
M  V30 5877 N 557.907 -1.57113 5.204 0
M  V30 5878 H 561.709 -0.410718 2.91016 0
M  V30 5879 H 559.223 -0.126878 1.61904 0
M  V30 5880 H 561.22 -2.87274 3.02125 0
M  V30 5881 H 559.88 -2.65844 1.86433 0
M  V30 5882 H 560.891 -0.877249 5.10416 0
M  V30 5883 H 557.568 -2.64854 3.22736 0
M  V30 5884 H 558.958 -0.571809 6.69462 0
M  V30 5885 N 561.678 -1.56367 -0.196722 0
M  V30 5886 C 563.089 -1.70462 -0.761545 0
M  V30 5887 C 563.44 -0.683161 -1.83922 0
M  V30 5888 O 562.565 0.160753 -2.15802 0
M  V30 5889 C 563.16 -3.09057 -1.38814 0
M  V30 5890 C 561.719 -3.24922 -1.90007 0
M  V30 5891 C 560.866 -2.66412 -0.769399 0
M  V30 5892 H 563.817 -1.58675 0.0283263 0
M  V30 5893 H 563.838 -3.06296 -2.2575 0
M  V30 5894 H 563.35 -3.83378 -0.603559 0
M  V30 5895 H 561.451 -2.55514 -2.71189 0
M  V30 5896 H 561.564 -4.3241 -2.06297 0
M  V30 5897 H 559.928 -2.25546 -1.18326 0
M  V30 5898 H 560.711 -3.433 0.00291773 0
M  V30 5899 N 563.156 0.464375 -1.50603 0
M  V30 5900 C 564.066 1.58723 -1.72754 0
M  V30 5901 C 565.082 1.62925 -0.610844 0
M  V30 5902 O 566.258 1.8067 -0.889963 0
M  V30 5903 C 563.323 2.94897 -1.82309 0
M  V30 5904 C 562.384 3.0103 -3.06071 0
M  V30 5905 C 561.617 4.30708 -3.1516 0
M  V30 5906 O 561.84 5.2159 -2.30868 0
M  V30 5907 O 560.774 4.42571 -4.0794 0
M  V30 5908 H 564.6 1.42954 -2.67951 0
M  V30 5909 H 562.185 0.644579 -1.3478 0
M  V30 5910 H 564.067 3.75764 -1.90735 0
M  V30 5911 H 562.742 3.10851 -0.902967 0
M  V30 5912 H 561.649 2.19217 -3.03142 0
M  V30 5913 H 562.982 2.90014 -3.97684 0
M  V30 5914 N 564.634 1.40294 0.718013 0
M  V30 5915 C 565.581 1.40367 1.8321 0
M  V30 5916 C 566.551 0.260952 1.64037 0
M  V30 5917 O 567.736 0.458648 1.85205 0
M  V30 5918 C 564.876 1.26965 3.20895 0
M  V30 5919 C 563.989 2.50922 3.51656 0
M  V30 5920 C 563.124 2.29981 4.78834 0
M  V30 5921 C 562.163 3.49527 5.02491 0
M  V30 5922 N 561.3 3.27796 6.20882 0
M  V30 5923 H 566.14 2.35593 1.82482 0
M  V30 5924 H 563.677 1.17012 0.891444 0
M  V30 5925 H 565.635 1.17202 4.00399 0
M  V30 5926 H 564.265 0.353591 3.20858 0
M  V30 5927 H 563.317 2.71223 2.66725 0
M  V30 5928 H 564.629 3.39913 3.65048 0
M  V30 5929 H 563.783 2.17558 5.66351 0
M  V30 5930 H 562.522 1.38411 4.67647 0
M  V30 5931 H 561.527 3.6243 4.1343 0
M  V30 5932 H 562.752 4.42021 5.15553 0
M  V30 5933 H 560.698 2.38906 6.1095 0
M  V30 5934 H 560.615 4.10351 6.34939 0
M  V30 5935 H 561.883 3.19101 7.11193 0
M  V30 5936 N 566.112 -0.949982 1.2575 0
M  V30 5937 C 567.359 -1.69515 1.10774 0
M  V30 5938 C 567.687 -1.91316 -0.350479 0
M  V30 5939 O 566.942 -1.48515 -1.27443 0
M  V30 5940 C 567.241 -3.08039 1.81237 0
M  V30 5941 C 566.907 -3.06023 3.31151 0
M  V30 5942 C 565.569 -3.0518 3.72047 0
M  V30 5943 C 567.921 -2.98998 4.26907 0
M  V30 5944 C 565.249 -2.95067 5.07102 0
M  V30 5945 C 567.601 -2.90426 5.61992 0
M  V30 5946 C 566.265 -2.87922 6.0221 0
M  V30 5947 H 565.535 -0.6203 0.405351 0
M  V30 5948 H 568.182 -1.10953 1.56082 0
M  V30 5949 H 566.487 -3.70172 1.28373 0
M  V30 5950 H 568.184 -3.64526 1.67098 0
M  V30 5951 H 564.774 -3.07453 2.98614 0
M  V30 5952 H 568.958 -2.98764 3.963 0
M  V30 5953 H 564.214 -2.915 5.37436 0
M  V30 5954 H 568.388 -2.83952 6.35881 0
M  V30 5955 H 566.015 -2.79841 7.06819 0
M  V30 5956 N 567.59 -1.07411 -1.15328 0
M  V30 5957 C 569.006 -0.799759 -1.38116 0
M  V30 5958 C 569.206 0.59572 -1.92493 0
M  V30 5959 O 568.262 1.35433 -2.13106 0
M  V30 5960 C 569.575 -1.87407 -2.35158 0
M  V30 5961 C 571.123 -1.89889 -2.48819 0
M  V30 5962 C 571.598 -2.96406 -3.49153 0
M  V30 5963 N 573.089 -2.95512 -3.56689 0
M  V30 5964 C 573.824 -3.74575 -4.34144 0
M  V30 5965 N 573.32 -4.63488 -5.14928 0
M  V30 5966 N 575.113 -3.62919 -4.29239 0
M  V30 5967 H 567.264 -1.97411 -0.78374 0
M  V30 5968 H 569.527 -0.856113 -0.407154 0
M  V30 5969 H 569.233 -2.8768 -2.0232 0
M  V30 5970 H 569.107 -1.73471 -3.34944 0
M  V30 5971 H 571.494 -0.902677 -2.80955 0
M  V30 5972 H 571.575 -2.07904 -1.49029 0
M  V30 5973 H 571.219 -3.96227 -3.17752 0
M  V30 5974 H 571.149 -2.75638 -4.48699 0
M  V30 5975 H 573.64 -2.31061 -2.99031 0
M  V30 5976 H 573.953 -5.20445 -5.71276 0
M  V30 5977 H 572.298 -4.67537 -5.14232 0
M  V30 5978 H 575.489 -2.92833 -3.65194 0
M  V30 5979 H 575.662 -4.24777 -4.89355 0
M  V30 5980 N 569.068 1.32177 -0.85831 0
M  V30 5981 C 570 2.27688 -0.262835 0
M  V30 5982 C 571.013 1.52588 0.567513 0
M  V30 5983 O 572.202 1.74156 0.391407 0
M  V30 5984 C 569.302 3.32668 0.646937 0
M  V30 5985 C 568.475 4.37148 -0.148372 0
M  V30 5986 C 567.534 5.21686 0.687728 0
M  V30 5987 O 566.56 5.69074 0.119934 0
M  V30 5988 N 567.762 5.44892 2.00182 0
M  V30 5989 H 570.527 2.79426 -1.08356 0
M  V30 5990 H 568.088 1.45076 -0.718647 0
M  V30 5991 H 570.08 3.86134 1.2117 0
M  V30 5992 H 568.65 2.81061 1.36834 0
M  V30 5993 H 567.87 3.83915 -0.894572 0
M  V30 5994 H 569.158 5.04038 -0.694514 0
M  V30 5995 H 568.556 5.08128 2.4864 0
M  V30 5996 H 567.113 6.0134 2.51463 0
M  V30 5997 N 570.547 0.616602 1.45037 0
M  V30 5998 C 571.775 0.121968 2.0654 0
M  V30 5999 C 572.19 -1.19743 1.45969 0
M  V30 6000 O 571.547 -1.73133 0.577168 0
M  V30 6001 C 571.598 -0.0145171 3.61497 0
M  V30 6002 O 571.319 1.25269 4.19809 0
M  V30 6003 C 572.82 -0.539555 4.40004 0
M  V30 6004 H 570.04 0.0729837 0.667019 0
M  V30 6005 H 572.584 0.846891 1.8614 0
M  V30 6006 H 570.739 -0.689809 3.81209 0
M  V30 6007 H 571.153 1.08816 5.13088 0
M  V30 6008 H 572.627 -0.584112 5.48901 0
M  V30 6009 H 573.104 -1.56368 4.10421 0
M  V30 6010 H 573.71 0.101995 4.25178 0
M  V30 6011 N 572.025 -1.5352 0.356285 0
M  V30 6012 C 572.972 -2.25439 -0.494569 0
M  V30 6013 C 573.942 -1.25752 -1.08516 0
M  V30 6014 O 575.127 -1.54513 -1.1194 0
M  V30 6015 C 572.267 -3.04011 -1.63313 0
M  V30 6016 C 571.38 -4.18574 -1.06862 0
M  V30 6017 C 570.515 -4.84607 -2.17552 0
M  V30 6018 C 569.554 -5.91218 -1.58518 0
M  V30 6019 N 568.691 -6.50979 -2.63003 0
M  V30 6020 H 573.531 -2.97737 0.125244 0
M  V30 6021 H 571.068 -1.46916 0.0735789 0
M  V30 6022 H 573.026 -3.47834 -2.30363 0
M  V30 6023 H 571.656 -2.33986 -2.22374 0
M  V30 6024 H 570.708 -3.79303 -0.288672 0
M  V30 6025 H 572.02 -4.95215 -0.596924 0
M  V30 6026 H 571.174 -5.31566 -2.92442 0
M  V30 6027 H 569.913 -4.07418 -2.6807 0
M  V30 6028 H 568.918 -5.4363 -0.821391 0
M  V30 6029 H 570.143 -6.70322 -1.08836 0
M  V30 6030 H 568.089 -5.76648 -3.12751 0
M  V30 6031 H 568.006 -7.23131 -2.20493 0
M  V30 6032 H 569.274 -7.02589 -3.37623 0
M  V30 6033 N 573.503 -0.0852151 -1.57369 0
M  V30 6034 C 574.451 0.894856 -2.14698 0
M  V30 6035 C 575.445 1.29903 -1.08727 0
M  V30 6036 O 576.651 1.27471 -1.27088 0
M  V30 6037 H 573.026 0.306569 -0.686673 0
M  V30 6038 H 574.997 0.386542 -2.95886 0
M  V30 6039 C 573.746 2.14798 -2.73417 0
M  V30 6040 H 573.069 1.84585 -3.54638 0
M  V30 6041 H 574.509 2.81456 -3.1711 0
M  V30 6042 C 572.968 2.91546 -1.68828 0
M  V30 6043 O 573.498 3.85733 -1.12129 0
M  V30 6044 N 571.704 2.54901 -1.39549 0
M  V30 6045 H 571.251 1.7838 -1.85845 0
M  V30 6046 H 571.209 3.06553 -0.698054 0
M  V30 6047 N 574.981 1.5647 0.188427 0
M  V30 6048 C 575.928 1.95073 1.23349 0
M  V30 6049 C 576.898 0.812238 1.44886 0
M  V30 6050 O 578.083 1.07095 1.57909 0
M  V30 6051 C 575.223 2.30124 2.57171 0
M  V30 6052 C 574.336 3.57069 2.43157 0
M  V30 6053 C 573.471 3.81411 3.69729 0
M  V30 6054 C 572.51 5.0176 3.50575 0
M  V30 6055 N 571.647 5.22321 4.69175 0
M  V30 6056 H 576.487 2.84171 0.89728 0
M  V30 6057 H 574.024 1.40623 0.431683 0
M  V30 6058 H 575.982 2.48463 3.35145 0
M  V30 6059 H 574.612 1.44159 2.88822 0
M  V30 6060 H 573.664 3.4674 1.56447 0
M  V30 6061 H 574.976 4.452 2.24942 0
M  V30 6062 H 574.13 4.00026 4.56141 0
M  V30 6063 H 572.869 2.91624 3.90905 0
M  V30 6064 H 571.874 4.83061 2.62549 0
M  V30 6065 H 573.099 5.93063 3.30837 0
M  V30 6066 H 571.045 4.35483 4.90602 0
M  V30 6067 H 570.962 6.04643 4.53809 0
M  V30 6068 H 572.23 5.45401 5.56919 0
M  V30 6069 N 576.459 -0.456382 1.50847 0
M  V30 6070 C 577.736 -1.21739 1.53098 0
M  V30 6071 C 578.116 -2.09179 0.284132 0
M  V30 6072 O 577.464 -2.16466 -0.731773 0
M  V30 6073 C 577.674 -2.03573 2.83477 0
M  V30 6074 C 579.022 -2.61264 3.34703 0
M  V30 6075 O 580.046 -2.13802 2.84898 0
M  V30 6076 O 578.905 -3.47779 4.21559 0
M  V30 6077 H 575.999 -0.553219 0.614718 0
M  V30 6078 H 578.545 -0.467003 1.63148 0
M  V30 6079 H 577.317 -1.39232 3.65691 0
M  V30 6080 H 576.94 -2.85716 2.76499 0
M  V30 6081 N 577.937 -1.40673 -0.710563 0
M  V30 6082 C 579.162 -1.42741 -1.50465 0
M  V30 6083 C 579.587 -0.0302116 -1.88076 0
M  V30 6084 O 578.945 0.962945 -1.53613 0
M  V30 6085 C 578.993 -2.32873 -2.75322 0
M  V30 6086 O 578.097 -1.77544 -3.72226 0
M  V30 6087 H 577.438 -0.485056 -0.45345 0
M  V30 6088 H 579.968 -1.84961 -0.874681 0
M  V30 6089 H 579.978 -2.48233 -3.23797 0
M  V30 6090 H 578.653 -3.34401 -2.47283 0
M  V30 6091 H 577.23 -1.71556 -3.31093 0
M  V30 6092 N 579.415 0.9433 -1.26252 0
M  V30 6093 C 580.661 1.69175 -1.11837 0
M  V30 6094 C 580.994 1.91238 0.337891 0
M  V30 6095 O 580.269 1.49152 1.24836 0
M  V30 6096 C 580.552 3.06783 -1.88563 0
M  V30 6097 C 580.405 2.9206 -3.42083 0
M  V30 6098 C 581.724 4.06865 -1.67776 0
M  V30 6099 H 578.843 0.61399 -0.407658 0
M  V30 6100 H 581.485 1.09572 -1.55222 0
M  V30 6101 H 579.635 3.57663 -1.51689 0
M  V30 6102 H 581.307 2.48419 -3.88698 0
M  V30 6103 H 579.55 2.27731 -3.69217 0
M  V30 6104 H 580.221 3.89651 -3.90994 0
M  V30 6105 H 582.697 3.64939 -1.99897 0
M  V30 6106 H 581.573 5.01168 -2.23879 0
M  V30 6107 H 581.834 4.37705 -0.621816 0
M  V30 6108 N 580.893 1.08022 1.14757 0
M  V30 6109 C 581.823 0.728248 2.21853 0
M  V30 6110 C 582.804 -0.287486 1.67653 0
M  V30 6111 O 583.989 -0.158727 1.9355 0
M  V30 6112 C 581.119 0.132549 3.47047 0
M  V30 6113 C 580.073 1.07619 4.14249 0
M  V30 6114 C 579.399 0.342907 5.33599 0
M  V30 6115 C 580.699 2.41268 4.63235 0
M  V30 6116 H 582.393 1.62365 2.51551 0
M  V30 6117 H 579.939 0.782125 1.20908 0
M  V30 6118 H 581.892 -0.125665 4.21213 0
M  V30 6119 H 580.616 -0.797971 3.16702 0
M  V30 6120 H 579.275 1.31944 3.42033 0
M  V30 6121 H 578.923 -0.59129 4.99513 0
M  V30 6122 H 578.623 0.971955 5.79506 0
M  V30 6123 H 580.147 0.0926538 6.1053 0
M  V30 6124 H 581.561 2.21232 5.28894 0
M  V30 6125 H 579.958 2.9983 5.19829 0
M  V30 6126 H 581.028 3.03079 3.78512 0
M  V30 6127 N 582.371 -1.3172 0.865308 0
M  V30 6128 C 583.62 -1.96145 0.470098 0
M  V30 6129 C 583.933 -1.69182 -0.981674 0
M  V30 6130 O 585.139 -2.27431 -1.48281 0
M  V30 6131 C 583.595 -3.51129 0.789732 0
M  V30 6132 C 583.203 -3.86938 2.25795 0
M  V30 6133 C 584.947 -4.2197 0.462765 0
M  V30 6134 C 582.854 -5.35012 2.52024 0
M  V30 6135 H 581.784 -0.734105 0.172065 0
M  V30 6136 H 584.435 -1.49959 1.05757 0
M  V30 6137 H 582.817 -3.95781 0.131571 0
M  V30 6138 H 583.991 -3.5326 2.95879 0
M  V30 6139 H 582.306 -3.29149 2.55049 0
M  V30 6140 H 584.903 -5.30904 0.636019 0
M  V30 6141 H 585.246 -4.12005 -0.59645 0
M  V30 6142 H 585.779 -3.82936 1.07727 0
M  V30 6143 H 582.518 -5.50008 3.56611 0
M  V30 6144 H 582.038 -5.70058 1.8653 0
M  V30 6145 H 583.717 -6.0222 2.36515 0
M  V30 6146 N 583.85 -0.624285 -1.44708 0
M  V30 6147 C 585.096 -0.126237 -2.02407 0
M  V30 6148 C 585.428 1.24618 -1.48943 0
M  V30 6149 O 584.704 1.82569 -0.670742 0
M  V30 6150 C 584.986 -0.105449 -3.59946 0
M  V30 6151 C 584.84 -1.50972 -4.23707 0
M  V30 6152 C 586.159 0.573629 -4.36346 0
M  V30 6153 H 583.278 -0.0473472 -0.735478 0
M  V30 6154 H 585.92 -0.799452 -1.72362 0
M  V30 6155 H 584.07 0.46783 -3.85673 0
M  V30 6156 H 585.742 -2.13136 -4.0911 0
M  V30 6157 H 583.985 -2.0656 -3.81465 0
M  V30 6158 H 584.656 -1.44727 -5.32689 0
M  V30 6159 H 587.132 0.0861787 -4.16011 0
M  V30 6160 H 586.008 0.557338 -5.46063 0
M  V30 6161 H 586.269 1.64276 -4.10446 0
M  V30 6162 N 585.328 1.53329 -0.364422 0
M  V30 6163 C 586.576 2.00842 0.225189 0
M  V30 6164 C 586.897 1.25345 1.49378 0
M  V30 6165 O 586.167 0.366396 1.92443 0
M  V30 6166 H 584.747 0.742009 0.0862027 0
M  V30 6167 H 587.409 1.8863 -0.490389 0
M  V30 6168 H 586.505 3.08795 0.452987 0
M  V30 6169 N 586.806 0.0935595 1.57322 0
M  V30 6170 C 587.769 -0.851426 2.12799 0
M  V30 6171 C 588.769 -1.21187 1.0569 0
M  V30 6172 O 589.959 -1.14156 1.31583 0
M  V30 6173 C 587.091 -2.14779 2.64731 0
M  V30 6174 H 588.284 -0.369733 2.97612 0
M  V30 6175 H 585.837 -0.155417 1.55525 0
M  V30 6176 H 586.572 -2.67437 1.83434 0
M  V30 6177 H 586.357 -1.89907 3.43042 0
M  V30 6178 H 587.847 -2.82383 3.07651 0
M  V30 6179 N 588.284 -1.56567 -0.180126 0
M  V30 6180 C 589.532 -1.81133 -0.896392 0
M  V30 6181 C 589.853 -0.669114 -1.83161 0
M  V30 6182 O 589.123 0.311616 -1.93406 0
M  V30 6183 H 587.703 -0.668172 -0.333999 0
M  V30 6184 H 590.365 -1.94048 -0.182051 0
M  V30 6185 H 589.461 -2.74854 -1.47857 0
M  V30 6186 N 589.762 0.448376 -1.51087 0
M  V30 6187 C 591.173 1.0286 -1.5581 0
M  V30 6188 C 591.524 1.92583 -0.374989 0
M  V30 6189 O 590.649 2.10316 0.509533 0
M  V30 6190 C 591.244 1.87223 -2.8237 0
M  V30 6191 C 589.803 2.40314 -2.897 0
M  V30 6192 C 588.95 1.19238 -2.50355 0
M  V30 6193 H 591.901 0.230075 -1.57023 0
M  V30 6194 H 591.922 2.72553 -2.6551 0
M  V30 6195 H 591.434 1.21894 -3.68461 0
M  V30 6196 H 589.535 3.09129 -2.08014 0
M  V30 6197 H 589.648 2.73866 -3.93108 0
M  V30 6198 H 588.012 1.53428 -2.03303 0
M  V30 6199 H 588.795 0.555367 -3.38778 0
M  V30 6200 N 591.24 1.41047 0.703093 0
M  V30 6201 C 592.465 1.43537 1.49706 0
M  V30 6202 C 592.89 0.0401853 1.88057 0
M  V30 6203 O 592.248 -0.954785 1.54122 0
M  V30 6204 C 592.296 2.3433 2.74084 0
M  V30 6205 O 591.4 1.79515 3.71279 0
M  V30 6206 H 590.741 0.487454 0.450871 0
M  V30 6207 H 593.271 1.85422 0.86486 0
M  V30 6208 H 593.281 2.49947 3.22476 0
M  V30 6209 H 591.956 3.35708 2.45506 0
M  V30 6210 H 590.533 1.7331 3.30179 0
M  V30 6211 N 592.718 -0.936591 1.26751 0
M  V30 6212 C 593.966 -1.67998 1.12343 0
M  V30 6213 C 594.287 -1.92137 -0.332938 0
M  V30 6214 O 593.557 -1.52132 -1.23421 0
M  V30 6215 H 592.137 -0.622609 0.412756 0
M  V30 6216 H 594.799 -1.12509 1.59147 0
M  V30 6217 H 593.895 -2.65185 1.64571 0
M  V30 6218 N 594.196 -1.08629 -1.14182 0
M  V30 6219 C 595.421 -0.83902 -1.89671 0
M  V30 6220 C 595.846 0.603332 -1.78161 0
M  V30 6221 O 595.204 1.42301 -1.12339 0
M  V30 6222 C 595.252 -1.26854 -3.37551 0
M  V30 6223 O 594.356 -0.42188 -4.10236 0
M  V30 6224 H 593.697 -0.304545 -0.590041 0
M  V30 6225 H 596.227 -1.4483 -1.44518 0
M  V30 6226 H 596.237 -1.25038 -3.88368 0
M  V30 6227 H 594.912 -2.31901 -3.45246 0
M  V30 6228 H 593.489 -0.503654 -3.69483 0
M  V30 6229 N 595.674 1.31259 -0.872281 0
M  V30 6230 C 596.584 2.32221 -0.333255 0
M  V30 6231 C 597.6 1.6481 0.558013 0
M  V30 6232 O 598.776 1.96212 0.454175 0
M  V30 6233 C 595.841 3.43708 0.454479 0
M  V30 6234 C 594.902 4.26774 -0.465024 0
M  V30 6235 C 594.135 5.32937 0.28521 0
M  V30 6236 O 594.358 5.49968 1.513 0
M  V30 6237 O 593.292 6.00834 -0.358126 0
M  V30 6238 H 597.118 2.80252 -1.17016 0
M  V30 6239 H 594.703 1.352 -0.635724 0
M  V30 6240 H 596.585 4.11656 0.900963 0
M  V30 6241 H 595.26 2.97836 1.26789 0
M  V30 6242 H 594.167 3.61571 -0.960055 0
M  V30 6243 H 595.5 4.76217 -1.2441 0
M  V30 6244 N 597.152 0.631951 1.44375 0
M  V30 6245 C 598.115 -0.0628142 2.29114 0
M  V30 6246 C 599.115 -0.771494 1.41084 0
M  V30 6247 O 600.305 -0.615959 1.62947 0
M  V30 6248 C 597.437 -1.09953 3.22681 0
M  V30 6249 H 598.63 0.682509 2.92031 0
M  V30 6250 H 596.183 0.392128 1.51301 0
M  V30 6251 H 596.918 -1.87481 2.64616 0
M  V30 6252 H 596.703 -0.595286 3.87555 0
M  V30 6253 H 598.193 -1.58538 3.86336 0
M  V30 6254 N 598.631 -1.53133 0.372548 0
M  V30 6255 C 599.594 -2.24569 -0.458389 0
M  V30 6256 C 600.594 -1.25603 -1.00402 0
M  V30 6257 O 601.784 -1.49827 -0.888672 0
M  V30 6258 C 598.916 -2.98783 -1.6414 0
M  V30 6259 H 600.109 -2.99436 0.166799 0
M  V30 6260 H 597.662 -1.55805 0.124357 0
M  V30 6261 H 598.397 -2.28176 -2.30448 0
M  V30 6262 H 598.182 -3.71404 -1.25704 0
M  V30 6263 H 599.672 -3.53068 -2.23008 0
M  V30 6264 N 600.109 -0.101901 -1.5727 0
M  V30 6265 C 601.525 0.254739 -1.57554 0
M  V30 6266 C 601.725 1.67937 -1.11352 0
M  V30 6267 O 600.781 2.39722 -0.793081 0
M  V30 6268 C 602.094 0.036975 -3.00677 0
M  V30 6269 C 603.642 0.104199 -3.12827 0
M  V30 6270 C 604.117 -0.0856565 -4.5792 0
M  V30 6271 N 605.608 -0.0310498 -4.6319 0
M  V30 6272 C 606.343 -0.153099 -5.73196 0
M  V30 6273 N 605.839 -0.330364 -6.92012 0
M  V30 6274 N 607.632 -0.0938854 -5.62022 0
M  V30 6275 H 599.783 -1.03263 -1.85609 0
M  V30 6276 H 602.046 -0.405251 -0.857016 0
M  V30 6277 H 601.752 -0.947254 -3.38703 0
M  V30 6278 H 601.626 0.776335 -3.69124 0
M  V30 6279 H 604.013 1.07894 -2.74669 0
M  V30 6280 H 604.094 -0.666762 -2.46957 0
M  V30 6281 H 603.738 -1.05729 -4.96773 0
M  V30 6282 H 603.668 0.705082 -5.21858 0
M  V30 6283 H 606.159 0.103141 -3.77759 0
M  V30 6284 H 606.472 -0.41482 -7.71686 0
M  V30 6285 H 604.817 -0.366119 -6.94035 0
M  V30 6286 H 608.008 0.0435168 -4.6808 0
M  V30 6287 H 608.181 -0.19245 -6.47714 0
M  V30 6288 N 601.587 1.56661 0.17182 0
M  V30 6289 C 602.833 1.82235 0.889845 0
M  V30 6290 C 603.166 0.679673 1.81918 0
M  V30 6291 O 602.441 -0.318404 1.91876 0
M  V30 6292 C 602.724 3.18195 1.68595 0
M  V30 6293 C 602.577 4.42989 0.779773 0
M  V30 6294 C 603.896 3.5109 2.65375 0
M  V30 6295 H 601.015 0.66291 0.322056 0
M  V30 6296 H 603.657 1.89358 0.15608 0
M  V30 6297 H 601.807 3.12253 2.3115 0
M  V30 6298 H 603.479 4.60997 0.16714 0
M  V30 6299 H 601.722 4.33711 0.0877964 0
M  V30 6300 H 602.393 5.3467 1.3723 0
M  V30 6301 H 604.869 3.57482 2.12946 0
M  V30 6302 H 603.745 4.47298 3.18144 0
M  V30 6303 H 604.006 2.75768 3.45549 0
M  V30 6304 N 603.065 -0.440357 1.51323 0
M  V30 6305 C 603.995 -1.54174 1.75364 0
M  V30 6306 C 604.976 -1.59039 0.603375 0
M  V30 6307 O 606.161 -1.74815 0.845774 0
M  V30 6308 C 603.291 -2.92277 1.87593 0
M  V30 6309 C 602.245 -3.02274 3.03009 0
M  V30 6310 C 601.571 -4.42327 3.00418 0
M  V30 6311 C 602.871 -2.76634 4.43024 0
M  V30 6312 H 604.565 -1.34307 2.67585 0
M  V30 6313 H 602.111 -0.644678 1.28763 0
M  V30 6314 H 604.064 -3.69284 2.02995 0
M  V30 6315 H 602.788 -3.13369 0.920179 0
M  V30 6316 H 601.447 -2.27706 2.87307 0
M  V30 6317 H 601.095 -4.60382 2.02626 0
M  V30 6318 H 600.795 -4.49946 3.77918 0
M  V30 6319 H 602.319 -5.21312 3.17909 0
M  V30 6320 H 603.733 -3.43376 4.59093 0
M  V30 6321 H 602.13 -2.95666 5.22208 0
M  V30 6322 H 603.2 -1.72262 4.5327 0
M  V30 6323 N 604.543 -1.41418 -0.695603 0
M  V30 6324 C 605.476 -1.3768 -1.81988 0
M  V30 6325 C 606.454 -0.244061 -1.60758 0
M  V30 6326 O 607.638 -0.430965 -1.83507 0
M  V30 6327 C 604.765 -1.1476 -3.18666 0
M  V30 6328 C 603.811 -2.30752 -3.58686 0
M  V30 6329 S 604.644 -3.9323 -3.63498 0
M  V30 6330 C 605.8 -3.72613 -5.02902 0
M  V30 6331 H 606.033 -2.32822 -1.84882 0
M  V30 6332 H 603.566 -1.27942 -0.86431 0
M  V30 6333 H 605.524 -1.02223 -3.97569 0
M  V30 6334 H 604.185 -0.212385 -3.13381 0
M  V30 6335 H 603.378 -2.10409 -4.57978 0
M  V30 6336 H 602.98 -2.39696 -2.87092 0
M  V30 6337 H 605.272 -3.32317 -5.904 0
M  V30 6338 H 606.215 -4.71507 -5.28286 0
M  V30 6339 H 606.623 -3.0589 -4.74438 0
M  V30 6340 N 606.021 0.929856 -1.27246 0
M  V30 6341 C 606.931 2.0636 -1.11592 0
M  V30 6342 C 607.947 1.73938 -0.046496 0
M  V30 6343 O 609.123 1.9981 -0.252544 0
M  V30 6344 C 606.188 3.38213 -0.762437 0
M  V30 6345 C 605.249 3.84346 -1.9125 0
M  V30 6346 C 604.482 5.09906 -1.57579 0
M  V30 6347 O 604.705 5.68354 -0.482694 0
M  V30 6348 O 603.639 5.51359 -2.41426 0
M  V30 6349 H 607.465 2.22478 -2.0673 0
M  V30 6350 H 605.05 1.04865 -1.06413 0
M  V30 6351 H 606.932 4.1741 -0.57854 0
M  V30 6352 H 605.607 3.23307 0.159439 0
M  V30 6353 H 604.514 3.06045 -2.15144 0
M  V30 6354 H 605.847 4.0379 -2.81451 0
M  V30 6355 N 607.499 1.09233 1.13605 0
M  V30 6356 C 608.724 0.849067 1.89224 0
M  V30 6357 C 609.149 -0.593875 1.78479 0
M  V30 6358 O 608.507 -1.41703 1.13092 0
M  V30 6359 C 608.555 1.28642 3.36873 0
M  V30 6360 O 607.659 0.44363 4.10007 0
M  V30 6361 H 607 0.30767 0.588417 0
M  V30 6362 H 609.53 1.45595 1.43748 0
M  V30 6363 H 609.54 1.27096 3.87699 0
M  V30 6364 H 608.215 2.33729 3.44011 0
M  V30 6365 H 606.792 0.523241 3.69211 0
M  V30 6366 N 608.977 -1.30795 0.87923 0
M  V30 6367 C 610.225 -1.95974 0.493809 0
M  V30 6368 C 610.546 -1.69787 -0.959021 0
M  V30 6369 O 609.816 -1.01832 -1.67353 0
M  V30 6370 H 608.396 -0.725083 0.179622 0
M  V30 6371 H 611.058 -1.59432 1.12105 0
M  V30 6372 H 610.154 -3.05058 0.659263 0
M  V30 6373 N 610.455 -0.639598 -1.44038 0
M  V30 6374 C 611.685 -0.154586 -2.06021 0
M  V30 6375 C 612.093 1.17951 -1.47933 0
M  V30 6376 O 611.436 1.73627 -0.59994 0
M  V30 6377 C 611.498 0.0255459 -3.59491 0
M  V30 6378 C 611.162 -1.2317 -4.40089 0
M  V30 6379 C 612.159 -2.15735 -4.73027 0
M  V30 6380 C 609.844 -1.46949 -4.80324 0
M  V30 6381 C 611.838 -3.30382 -5.45093 0
M  V30 6382 C 609.525 -2.61891 -5.52138 0
M  V30 6383 C 610.523 -3.53433 -5.84443 0
M  V30 6384 O 610.211 -4.6637 -6.54793 0
M  V30 6385 H 609.943 -0.0808543 -0.671147 0
M  V30 6386 H 612.497 -0.876541 -1.85758 0
M  V30 6387 H 610.727 0.802733 -3.78276 0
M  V30 6388 H 612.416 0.466184 -4.03214 0
M  V30 6389 H 613.182 -1.98602 -4.42473 0
M  V30 6390 H 609.061 -0.765815 -4.54595 0
M  V30 6391 H 612.605 -4.01856 -5.70226 0
M  V30 6392 H 608.502 -2.78964 -5.82108 0
M  V30 6393 H 609.27 -4.6546 -6.73267 0
M  V30 6394 N 611.933 1.52934 -0.380664 0
M  V30 6395 C 613.161 2.05886 0.204599 0
M  V30 6396 C 613.576 1.25305 1.41223 0
M  V30 6397 O 612.933 0.297504 1.80059 0
M  V30 6398 C 612.984 3.56764 0.583249 0
M  V30 6399 O 612.705 4.34292 -0.576398 0
M  V30 6400 C 614.206 4.2603 1.2253 0
M  V30 6401 H 611.426 0.670193 0.0328991 0
M  V30 6402 H 613.97 1.97148 -0.543397 0
M  V30 6403 H 612.125 3.65603 1.28115 0
M  V30 6404 H 612.539 5.23819 -0.267119 0
M  V30 6405 H 614.013 5.32868 1.44068 0
M  V30 6406 H 614.49 3.80698 2.19011 0
M  V30 6407 H 615.096 4.21485 0.568407 0
M  V30 6408 N 613.412 0.11024 1.57214 0
M  V30 6409 C 614.658 -0.550684 1.9518 0
M  V30 6410 C 614.991 -1.66885 0.993122 0
M  V30 6411 O 614.266 -1.94479 0.0287907 0
M  V30 6412 C 614.549 -1.09163 3.43155 0
M  V30 6413 C 614.402 0.0225198 4.49794 0
M  V30 6414 C 615.721 -1.98527 3.92778 0
M  V30 6415 H 612.84 -0.198706 0.709708 0
M  V30 6416 H 615.482 0.184024 1.89107 0
M  V30 6417 H 613.632 -1.71775 3.48462 0
M  V30 6418 H 615.304 0.657443 4.56591 0
M  V30 6419 H 613.547 0.686868 4.28328 0
M  V30 6420 H 614.218 -0.39706 5.5057 0
M  V30 6421 H 616.694 -1.458 3.8972 0
M  V30 6422 H 615.57 -2.33298 4.96853 0
M  V30 6423 H 615.831 -2.90846 3.32958 0
M  V30 6424 N 614.89 -1.56749 -0.16351 0
M  V30 6425 C 615.84 -1.93424 -1.20712 0
M  V30 6426 C 616.824 -0.803469 -1.39403 0
M  V30 6427 O 618.016 -1.06675 -1.41243 0
M  V30 6428 C 615.145 -2.30431 -2.54473 0
M  V30 6429 C 614.231 -3.5004 -2.39443 0
M  V30 6430 N 614.622 -4.67058 -1.9414 0
M  V30 6431 C 612.92 -3.548 -2.70246 0
M  V30 6432 C 613.621 -5.49184 -1.9176 0
M  V30 6433 N 612.597 -4.9044 -2.34457 0
M  V30 6434 H 616.399 -2.8138 -0.848681 0
M  V30 6435 H 613.913 -1.58089 -0.371717 0
M  V30 6436 H 615.91 -2.54903 -3.29894 0
M  V30 6437 H 614.57 -1.43818 -2.91112 0
M  V30 6438 H 615.581 -4.91128 -1.64357 0
M  V30 6439 H 612.258 -2.78685 -3.10871 0
M  V30 6440 H 613.648 -6.5297 -1.58366 0
M  V30 6441 N 616.368 0.432326 -1.51554 0
M  V30 6442 C 617.298 1.53242 -1.76179 0
M  V30 6443 C 618.279 1.58717 -0.611801 0
M  V30 6444 O 619.464 1.74364 -0.855033 0
M  V30 6445 C 616.594 2.91278 -1.89141 0
M  V30 6446 C 615.548 3.00663 -3.04608 0
M  V30 6447 C 614.874 4.40728 -3.02759 0
M  V30 6448 C 616.174 2.74281 -4.44485 0
M  V30 6449 H 617.868 1.32886 -2.68294 0
M  V30 6450 H 615.414 0.637841 -1.29103 0
M  V30 6451 H 617.367 3.68203 -2.04951 0
M  V30 6452 H 616.091 3.12877 -0.936785 0
M  V30 6453 H 614.75 2.26179 -2.88511 0
M  V30 6454 H 614.398 4.59301 -2.05065 0
M  V30 6455 H 614.098 4.47936 -3.80299 0
M  V30 6456 H 615.622 5.19619 -3.20669 0
M  V30 6457 H 617.036 3.40936 -4.60907 0
M  V30 6458 H 615.433 2.92893 -5.23769 0
M  V30 6459 H 616.503 1.69856 -4.54177 0
M  V30 6460 N 617.846 1.41785 0.688094 0
M  V30 6461 C 619.074 1.44915 1.47673 0
M  V30 6462 C 619.489 0.0565786 1.88715 0
M  V30 6463 O 618.846 -0.92579 1.57275 0
M  V30 6464 C 618.897 2.36452 2.73446 0
M  V30 6465 O 618.618 3.7029 2.34131 0
M  V30 6466 C 620.119 2.48463 3.67125 0
M  V30 6467 H 617.339 0.493324 0.454832 0
M  V30 6468 H 619.883 1.86153 0.846594 0
M  V30 6469 H 618.038 1.98502 3.3268 0
M  V30 6470 H 618.452 4.19183 3.15255 0
M  V30 6471 H 619.926 3.16662 4.52138 0
M  V30 6472 H 620.403 1.51826 4.12123 0
M  V30 6473 H 621.009 2.8708 3.13792 0
M  V30 6474 N 619.324 -0.923095 1.27737 0
M  V30 6475 C 620.601 -1.64989 1.05062 0
M  V30 6476 C 620.981 -2.07018 -0.413124 0
M  V30 6477 O 620.329 -1.80797 -1.39731 0
M  V30 6478 C 620.539 -2.84847 2.01652 0
M  V30 6479 C 621.887 -3.56083 2.31279 0
M  V30 6480 O 622.911 -2.94981 1.99662 0
M  V30 6481 O 621.77 -4.66182 2.85196 0
M  V30 6482 H 618.864 -0.723357 0.400853 0
M  V30 6483 H 621.41 -0.973224 1.3902 0
M  V30 6484 H 620.182 -2.50814 3.00347 0
M  V30 6485 H 619.805 -3.60231 1.68284 0
M  V30 6486 N 620.802 -1.09834 -1.13024 0
M  V30 6487 C 622.03 -0.858902 -1.8823 0
M  V30 6488 C 622.445 0.590164 -1.79339 0
M  V30 6489 O 621.802 1.4065 -1.16292 0
M  V30 6490 C 621.853 -1.29066 -3.37675 0
M  V30 6491 O 621.574 -2.6829 -3.46341 0
M  V30 6492 C 623.075 -1.08421 -4.29837 0
M  V30 6493 H 620.295 -0.308713 -0.595766 0
M  V30 6494 H 622.839 -1.4614 -1.4305 0
M  V30 6495 H 620.994 -0.731961 -3.80422 0
M  V30 6496 H 621.408 -2.86598 -4.39274 0
M  V30 6497 H 622.882 -1.43553 -5.33007 0
M  V30 6498 H 623.359 -0.0223315 -4.39194 0
M  V30 6499 H 623.965 -1.62907 -3.92863 0
M  V30 6500 N 622.28 1.30327 -0.886154 0
M  V30 6501 C 623.243 2.26376 -0.358687 0
M  V30 6502 C 624.243 1.52845 0.499498 0
M  V30 6503 O 625.433 1.71483 0.306485 0
M  V30 6504 C 622.565 3.37379 0.488726 0
M  V30 6505 H 623.758 2.74547 -1.20681 0
M  V30 6506 H 621.311 1.41536 -0.663113 0
M  V30 6507 H 622.046 2.94526 1.35739 0
M  V30 6508 H 621.831 3.91897 -0.126003 0
M  V30 6509 H 623.321 4.08868 0.84952 0
M  V30 6510 N 623.758 0.647228 1.43697 0
M  V30 6511 C 624.668 -0.0487997 2.34549 0
M  V30 6512 C 625.684 -0.818586 1.53542 0
M  V30 6513 O 626.86 -0.767195 1.86215 0
M  V30 6514 C 623.925 -1.00734 3.31743 0
M  V30 6515 C 622.986 -0.23515 4.28655 0
M  V30 6516 C 622.219 -1.14803 5.21206 0
M  V30 6517 O 622.442 -2.38717 5.18045 0
M  V30 6518 O 621.376 -0.623667 5.9866 0
M  V30 6519 H 625.202 0.698863 2.9555 0
M  V30 6520 H 622.787 0.407412 1.43738 0
M  V30 6521 H 624.669 -1.55837 3.91526 0
M  V30 6522 H 623.344 -1.73534 2.73254 0
M  V30 6523 H 622.251 0.359319 3.7237 0
M  V30 6524 H 623.584 0.453152 4.9011 0
M  V30 6525 N 625.236 -1.5273 0.388769 0
M  V30 6526 C 626.183 -2.26437 -0.446639 0
M  V30 6527 C 627.153 -1.28025 -1.05824 0
M  V30 6528 O 628.338 -1.56852 -1.08637 0
M  V30 6529 C 625.478 -3.07407 -1.56828 0
M  V30 6530 C 624.591 -4.20747 -0.979589 0
M  V30 6531 C 623.726 -4.89113 -2.07224 0
M  V30 6532 C 622.765 -5.94447 -1.45942 0
M  V30 6533 N 621.902 -6.56411 -2.49135 0
M  V30 6534 H 626.742 -2.97404 0.18837 0
M  V30 6535 H 624.279 -1.46727 0.104725 0
M  V30 6536 H 626.237 -3.52642 -2.22934 0
M  V30 6537 H 624.867 -2.3865 -2.17361 0
M  V30 6538 H 623.919 -3.7983 -0.208151 0
M  V30 6539 H 625.231 -4.9637 -0.491747 0
M  V30 6540 H 624.385 -5.3765 -2.81101 0
M  V30 6541 H 623.124 -4.13013 -2.59368 0
M  V30 6542 H 622.129 -5.4525 -0.705894 0
M  V30 6543 H 623.354 -6.7248 -0.945932 0
M  V30 6544 H 621.3 -5.83152 -3.00449 0
M  V30 6545 H 621.217 -7.27645 -2.05105 0
M  V30 6546 H 622.485 -7.09592 -3.22644 0
M  V30 6547 N 626.714 -0.118576 -1.57153 0
M  V30 6548 C 627.963 0.539339 -1.94355 0
M  V30 6549 C 628.276 1.67858 -1.00415 0
M  V30 6550 O 629.482 2.39922 -1.27081 0
M  V30 6551 C 627.938 1.01082 -3.45414 0
M  V30 6552 C 627.546 -0.0999402 -4.47889 0
M  V30 6553 C 629.29 1.64013 -3.91535 0
M  V30 6554 C 627.197 0.388212 -5.90124 0
M  V30 6555 H 626.127 0.205247 -0.725527 0
M  V30 6556 H 628.778 -0.19836 -1.82425 0
M  V30 6557 H 627.16 1.80292 -3.52577 0
M  V30 6558 H 628.334 -0.876189 -4.52393 0
M  V30 6559 H 626.649 -0.635885 -4.11516 0
M  V30 6560 H 629.246 2.01649 -4.95219 0
M  V30 6561 H 629.589 2.51836 -3.31488 0
M  V30 6562 H 630.122 0.913439 -3.87171 0
M  V30 6563 H 626.861 -0.453963 -6.53926 0
M  V30 6564 H 626.381 1.13095 -5.89041 0
M  V30 6565 H 628.06 0.849574 -6.41398 0
M  V30 6566 N 628.193 1.56834 0.155195 0
M  V30 6567 C 629.441 1.82536 0.867462 0
M  V30 6568 C 629.762 0.698168 1.82073 0
M  V30 6569 O 629.032 -0.280807 1.93877 0
M  V30 6570 H 627.612 0.673401 0.323327 0
M  V30 6571 H 630.274 1.94313 0.151156 0
M  V30 6572 H 629.37 2.77171 1.43466 0
M  V30 6573 N 629.671 -0.424282 1.51781 0
M  V30 6574 C 630.919 -1.17028 1.64769 0
M  V30 6575 C 631.24 -1.91409 0.372523 0
M  V30 6576 O 630.51 -1.86091 -0.612108 0
M  V30 6577 H 629.09 -0.434992 0.607282 0
M  V30 6578 H 631.752 -0.485169 1.88765 0
M  V30 6579 H 630.848 -1.8927 2.4816 0
M  V30 6580 N 631.149 -1.42148 -0.680565 0
M  V30 6581 C 632.099 -1.41634 -1.78672 0
M  V30 6582 C 633.083 -0.288494 -1.58293 0
M  V30 6583 O 634.275 -0.530295 -1.68869 0
M  V30 6584 C 631.404 -1.31558 -3.17092 0
M  V30 6585 C 630.49 -2.49265 -3.43115 0
M  V30 6586 N 630.881 -3.74702 -3.39753 0
M  V30 6587 C 629.179 -2.43401 -3.73727 0
M  V30 6588 C 629.88 -4.52854 -3.651 0
M  V30 6589 N 628.856 -3.83181 -3.85582 0
M  V30 6590 H 632.658 -2.3652 -1.74458 0
M  V30 6591 H 630.172 -1.36415 -0.881171 0
M  V30 6592 H 632.169 -1.29272 -3.96351 0
M  V30 6593 H 630.829 -0.376696 -3.22508 0
M  V30 6594 H 631.84 -4.07378 -3.19787 0
M  V30 6595 H 628.517 -1.58062 -3.86423 0
M  V30 6596 H 629.907 -5.61827 -3.6851 0
M  V30 6597 N 632.627 0.916307 -1.28225 0
M  V30 6598 C 633.557 2.0352 -1.14464 0
M  V30 6599 C 634.538 1.70045 -0.0430844 0
M  V30 6600 O 635.723 1.92954 -0.219619 0
M  V30 6601 C 632.853 3.37889 -0.803027 0
M  V30 6602 C 631.807 3.85516 -1.85908 0
M  V30 6603 C 631.133 5.1682 -1.37116 0
M  V30 6604 C 632.433 4.07655 -3.26519 0
M  V30 6605 H 634.127 2.1529 -2.08064 0
M  V30 6606 H 631.673 1.03446 -1.00174 0
M  V30 6607 H 633.626 4.15654 -0.693537 0
M  V30 6608 H 632.35 3.26164 0.168674 0
M  V30 6609 H 631.009 3.09953 -1.95767 0
M  V30 6610 H 630.657 5.01497 -0.38859 0
M  V30 6611 H 630.357 5.49657 -2.07728 0
M  V30 6612 H 631.881 5.97143 -1.27484 0
M  V30 6613 H 633.295 4.75953 -3.19596 0
M  V30 6614 H 631.692 4.51818 -3.94943 0
M  V30 6615 H 632.762 3.12553 -3.70727 0
M  V30 6616 N 634.105 1.10431 1.1244 0
M  V30 6617 C 635.053 0.747974 2.20246 0
M  V30 6618 C 636.047 -0.255848 1.67457 0
M  V30 6619 O 637.253 -0.116221 1.79624 0
M  V30 6620 H 633.628 0.223946 0.71788 0
M  V30 6621 H 635.599 1.6661 2.47556 0
M  V30 6622 C 634.348 0.195957 3.47147 0
M  V30 6623 H 633.671 0.959606 3.88113 0
M  V30 6624 H 635.111 -0.0153154 4.23997 0
M  V30 6625 C 633.57 -1.07132 3.19413 0
M  V30 6626 O 634.1 -2.15284 3.3914 0
M  V30 6627 N 632.306 -0.98994 2.73219 0
M  V30 6628 H 631.853 -0.109736 2.57366 0
M  V30 6629 H 631.811 -1.83856 2.55038 0
M  V30 6630 N 635.583 -1.29855 0.893053 0
M  V30 6631 C 636.515 -2.26911 0.32311 0
M  V30 6632 C 637.528 -1.54039 -0.526858 0
M  V30 6633 O 638.717 -1.75132 -0.345095 0
M  V30 6634 C 635.817 -3.34266 -0.558509 0
M  V30 6635 C 634.99 -4.36601 0.264222 0
M  V30 6636 C 634.049 -5.23326 -0.549171 0
M  V30 6637 O 633.075 -5.69192 0.0309883 0
M  V30 6638 N 634.277 -5.50008 -1.85664 0
M  V30 6639 H 637.042 -2.76455 1.15726 0
M  V30 6640 H 634.603 -1.4312 0.756859 0
M  V30 6641 H 636.595 -3.89211 -1.1089 0
M  V30 6642 H 635.165 -2.8459 -1.29334 0
M  V30 6643 H 634.385 -3.81409 0.996046 0
M  V30 6644 H 635.673 -5.02019 0.827906 0
M  V30 6645 H 635.071 -5.14542 -2.35081 0
M  V30 6646 H 633.628 -6.07796 -2.35431 0
M  V30 6647 N 637.061 -0.65484 -1.43351 0
M  V30 6648 C 638.307 -0.169142 -2.02093 0
M  V30 6649 C 638.64 1.21431 -1.51553 0
M  V30 6650 O 637.915 1.81105 -0.709317 0
M  V30 6651 C 638.198 -0.181775 -3.59641 0
M  V30 6652 C 638.051 -1.59926 -4.20409 0
M  V30 6653 C 639.37 0.480945 -4.37464 0
M  V30 6654 H 636.489 -0.0629371 -0.734308 0
M  V30 6655 H 639.131 -0.835833 -1.70628 0
M  V30 6656 H 637.281 0.385918 -3.86578 0
M  V30 6657 H 638.953 -2.21766 -4.04497 0
M  V30 6658 H 637.196 -2.14605 -3.76998 0
M  V30 6659 H 637.867 -1.55994 -5.295 0
M  V30 6660 H 640.343 -0.00208273 -4.161 0
M  V30 6661 H 639.219 0.441384 -5.47122 0
M  V30 6662 H 639.48 1.55533 -4.13838 0
M  V30 6663 N 638.539 1.52521 -0.396863 0
M  V30 6664 C 639.502 2.2527 0.422604 0
M  V30 6665 C 640.502 1.27184 0.983913 0
M  V30 6666 O 641.692 1.51222 0.864723 0
M  V30 6667 C 638.824 3.01356 1.59365 0
M  V30 6668 H 640.017 2.99133 -0.214416 0
M  V30 6669 H 637.57 1.55587 -0.149128 0
M  V30 6670 H 638.305 2.31813 2.26789 0
M  V30 6671 H 638.09 3.73357 1.19779 0
M  V30 6672 H 639.58 3.56571 2.17363 0
M  V30 6673 N 640.017 0.126909 1.57088 0
M  V30 6674 C 640.98 -0.806097 2.14557 0
M  V30 6675 C 641.98 -1.18918 1.08236 0
M  V30 6676 O 643.17 -1.11339 1.33975 0
M  V30 6677 C 640.302 -2.09116 2.69227 0
M  V30 6678 H 641.495 -0.306522 2.98329 0
M  V30 6679 H 639.048 -0.122393 1.5582 0
M  V30 6680 H 639.783 -2.63486 1.89065 0
M  V30 6681 H 639.568 -1.82588 3.46993 0
M  V30 6682 H 641.058 -2.75794 3.13572 0
M  V30 6683 N 641.495 -1.56914 -0.146875 0
M  V30 6684 C 642.425 -2.01308 -1.1831 0
M  V30 6685 C 643.406 -0.892664 -1.44795 0
M  V30 6686 O 644.591 -1.16048 -1.55713 0
M  V30 6687 C 641.721 -2.3938 -2.51624 0
M  V30 6688 C 640.675 -3.54608 -2.3966 0
M  V30 6689 C 640.001 -3.78493 -3.77686 0
M  V30 6690 C 641.301 -4.87269 -1.88058 0
M  V30 6691 H 642.995 -2.88123 -0.813964 0
M  V30 6692 H 640.541 -1.38615 -0.3901 0
M  V30 6693 H 642.494 -2.69037 -3.24341 0
M  V30 6694 H 641.218 -1.49502 -2.90373 0
M  V30 6695 H 639.877 -3.25116 -1.69396 0
M  V30 6696 H 639.525 -2.85866 -4.13871 0
M  V30 6697 H 639.225 -4.56039 -3.70543 0
M  V30 6698 H 640.749 -4.10576 -4.51951 0
M  V30 6699 H 642.163 -5.15644 -2.50568 0
M  V30 6700 H 640.56 -5.68622 -1.91805 0
M  V30 6701 H 641.63 -4.77634 -0.836277 0
M  V30 6702 N 642.974 0.416227 -1.52004 0
M  V30 6703 C 644.385 0.995319 -1.57957 0
M  V30 6704 C 644.736 1.91744 -0.415754 0
M  V30 6705 O 643.861 2.11349 0.464808 0
M  V30 6706 C 644.456 1.81191 -2.86278 0
M  V30 6707 C 643.015 2.34115 -2.94732 0
M  V30 6708 C 642.162 1.139 -2.52828 0
M  V30 6709 H 645.113 0.196716 -1.57476 0
M  V30 6710 H 645.134 2.66859 -2.71231 0
M  V30 6711 H 644.646 1.14051 -3.70963 0
M  V30 6712 H 642.747 3.04647 -2.14525 0
M  V30 6713 H 642.86 2.65466 -3.98829 0
M  V30 6714 H 641.224 1.49081 -2.06511 0
M  V30 6715 H 642.007 0.483383 -3.3988 0
M  V30 6716 N 644.452 1.42507 0.673017 0
M  V30 6717 C 645.7 1.42789 1.43023 0
M  V30 6718 C 646.021 0.0459738 1.94946 0
M  V30 6719 O 645.291 -0.915765 1.73178 0
M  V30 6720 H 643.871 0.525657 0.530748 0
M  V30 6721 H 646.533 1.77944 0.795113 0
M  V30 6722 H 645.629 2.12872 2.28237 0
M  V30 6723 N 645.93 -0.909495 1.28709 0
M  V30 6724 C 646.86 -2.0291 1.15542 0
M  V30 6725 C 647.841 -1.7002 0.0521017 0
M  V30 6726 O 649.026 -1.92835 0.229849 0
M  V30 6727 C 646.156 -3.37458 0.820935 0
M  V30 6728 C 645.11 -3.84524 1.87949 0
M  V30 6729 C 644.436 -5.16086 1.39854 0
M  V30 6730 C 645.736 -4.05918 3.28676 0
M  V30 6731 H 647.43 -2.14183 2.09203 0
M  V30 6732 H 644.976 -1.02913 1.00722 0
M  V30 6733 H 646.929 -4.1528 0.715571 0
M  V30 6734 H 645.653 -3.26249 -0.151374 0
M  V30 6735 H 644.312 -3.08911 1.97408 0
M  V30 6736 H 643.96 -5.01284 0.41518 0
M  V30 6737 H 643.66 -5.48547 2.1064 0
M  V30 6738 H 645.184 -5.96459 1.30649 0
M  V30 6739 H 646.598 -4.74252 3.22115 0
M  V30 6740 H 644.995 -4.49717 3.97334 0
M  V30 6741 H 646.065 -3.10583 3.72379 0
M  V30 6742 N 647.408 -1.11026 -1.11852 0
M  V30 6743 C 648.656 -0.854769 -1.83134 0
M  V30 6744 C 648.977 0.621375 -1.84835 0
M  V30 6745 O 648.247 1.45129 -1.31584 0
M  V30 6746 H 646.827 -0.313229 -0.678157 0
M  V30 6747 H 649.489 -1.40178 -1.35411 0
M  V30 6748 H 648.585 -1.22311 -2.87135 0
M  V30 6749 N 648.886 1.2938 -0.899927 0
M  V30 6750 C 649.796 2.31462 -0.382437 0
M  V30 6751 C 650.812 1.65956 0.522929 0
M  V30 6752 O 651.988 1.97131 0.412454 0
M  V30 6753 C 649.053 3.44595 0.381472 0
M  V30 6754 C 648.114 4.25692 -0.555444 0
M  V30 6755 C 647.347 5.33422 0.172102 0
M  V30 6756 O 647.57 5.53053 1.396 0
M  V30 6757 O 646.504 5.99939 -0.485491 0
M  V30 6758 H 650.33 2.77706 -1.22934 0
M  V30 6759 H 647.915 1.33821 -0.664259 0
M  V30 6760 H 649.797 4.13474 0.813442 0
M  V30 6761 H 648.472 3.00458 1.20443 0
M  V30 6762 H 647.379 3.59453 -1.03653 0
M  V30 6763 H 648.712 4.73471 -1.34483 0
M  V30 6764 N 650.364 0.662433 1.43002 0
M  V30 6765 C 651.61 0.188492 2.02525 0
M  V30 6766 C 651.965 -1.18752 1.51379 0
M  V30 6767 O 651.258 -1.78313 0.701065 0
M  V30 6768 C 651.452 0.149363 3.57088 0
M  V30 6769 C 651.281 1.52004 4.23231 0
M  V30 6770 C 650.051 2.11473 4.5892 0
M  V30 6771 C 652.249 2.46028 4.51635 0
M  V30 6772 N 650.231 3.4145 5.10181 0
M  V30 6773 C 651.602 3.60647 5.04315 0
M  V30 6774 C 653.657 2.44715 4.33612 0
M  V30 6775 C 652.36 4.74189 5.40867 0
M  V30 6776 C 654.386 3.57344 4.71232 0
M  V30 6777 C 653.748 4.70689 5.24053 0
M  V30 6778 H 649.847 0.113615 0.773703 0
M  V30 6779 H 652.431 0.872738 1.74044 0
M  V30 6780 H 650.602 -0.504255 3.85113 0
M  V30 6781 H 652.334 -0.336307 4.033 0
M  V30 6782 H 649.089 1.64087 4.44266 0
M  V30 6783 H 649.513 4.07987 5.40255 0
M  V30 6784 H 654.155 1.58318 3.9204 0
M  V30 6785 H 651.873 5.61271 5.81378 0
M  V30 6786 H 655.459 3.5754 4.58973 0
M  V30 6787 H 654.339 5.56398 5.52621 0
M  V30 6788 N 651.842 -1.52309 0.404946 0
M  V30 6789 C 653.067 -2.06666 -0.1743 0
M  V30 6790 C 653.492 -1.27341 -1.38441 0
M  V30 6791 O 652.85 -0.302539 -1.78758 0
M  V30 6792 C 652.898 -3.57014 -0.507262 0
M  V30 6793 O 652.002 -3.80144 -1.59889 0
M  V30 6794 H 651.343 -0.663807 -0.0160273 0
M  V30 6795 H 653.873 -1.96297 0.576937 0
M  V30 6796 H 653.883 -4.00724 -0.767098 0
M  V30 6797 H 652.558 -4.14184 0.377368 0
M  V30 6798 H 651.135 -3.48316 -1.33155 0
M  V30 6799 N 653.32 -0.135238 -1.57019 0
M  V30 6800 C 654.55 0.525303 -1.9981 0
M  V30 6801 C 654.958 1.59724 -1.01415 0
M  V30 6802 O 654.301 1.837 -0.00130938 0
M  V30 6803 C 654.363 1.19578 -3.3903 0
M  V30 6804 C 654.027 0.269855 -4.56203 0
M  V30 6805 C 655.024 -0.497905 -5.1751 0
M  V30 6806 C 652.709 0.176188 -5.01991 0
M  V30 6807 C 654.703 -1.3469 -6.23007 0
M  V30 6808 C 652.39 -0.676422 -6.07345 0
M  V30 6809 C 653.388 -1.43658 -6.67721 0
M  V30 6810 O 653.076 -2.27501 -7.71037 0
M  V30 6811 H 652.808 0.142296 -0.660854 0
M  V30 6812 H 655.362 -0.223272 -2.04183 0
M  V30 6813 H 653.592 1.99176 -3.3146 0
M  V30 6814 H 655.281 1.75486 -3.66005 0
M  V30 6815 H 656.047 -0.435507 -4.83041 0
M  V30 6816 H 651.926 0.757583 -4.54733 0
M  V30 6817 H 655.47 -1.9407 -6.70062 0
M  V30 6818 H 651.367 -0.740154 -6.41243 0
M  V30 6819 H 652.135 -2.20619 -7.88206 0
M  V30 6820 N 654.798 1.5699 0.138552 0
M  V30 6821 C 655.748 1.9532 1.17619 0
M  V30 6822 C 656.732 0.825545 1.38107 0
M  V30 6823 O 657.924 1.08908 1.39528 0
M  V30 6824 C 655.053 2.34451 2.50774 0
M  V30 6825 C 654.139 3.53805 2.33844 0
M  V30 6826 N 654.53 4.70088 1.86685 0
M  V30 6827 C 652.828 3.59055 2.64567 0
M  V30 6828 C 653.529 5.52165 1.82998 0
M  V30 6829 N 652.505 4.94108 2.26624 0
M  V30 6830 H 656.307 2.82694 0.803809 0
M  V30 6831 H 653.821 1.5866 0.346519 0
M  V30 6832 H 655.818 2.60119 3.25797 0
M  V30 6833 H 654.478 1.48431 2.88788 0
M  V30 6834 H 655.489 4.93681 1.56523 0
M  V30 6835 H 652.166 2.83596 3.06398 0
M  V30 6836 H 653.556 6.55407 1.47957 0
M  V30 6837 N 656.276 -0.40816 1.52223 0
M  V30 6838 C 657.692 -0.74685 1.41047 0
M  V30 6839 C 657.892 -1.94788 0.51573 0
M  V30 6840 O 656.948 -2.52494 -0.0181156 0
M  V30 6841 C 658.261 -0.999878 2.83589 0
M  V30 6842 C 659.809 -1.10253 2.92939 0
M  V30 6843 C 660.284 -1.38832 4.36451 0
M  V30 6844 N 661.775 -1.45694 4.3969 0
M  V30 6845 C 662.51 -1.69435 5.47795 0
M  V30 6846 N 662.006 -1.90774 6.66016 0
M  V30 6847 N 663.799 -1.71458 5.35312 0
M  V30 6848 H 655.95 0.382409 2.08929 0
M  V30 6849 H 658.213 0.108807 0.941735 0
M  V30 6850 H 657.919 -0.189723 3.51188 0
M  V30 6851 H 657.793 -1.91978 3.24691 0
M  V30 6852 H 660.18 -1.90328 2.2552 0
M  V30 6853 H 660.261 -0.160973 2.55293 0
M  V30 6854 H 659.905 -0.592741 5.04429 0
M  V30 6855 H 659.835 -2.34241 4.71634 0
M  V30 6856 H 662.326 -1.3099 3.54472 0
M  V30 6857 H 662.639 -2.08342 7.44186 0
M  V30 6858 H 660.984 -1.88037 6.69079 0
M  V30 6859 H 664.175 -1.54326 4.41929 0
M  V30 6860 H 664.348 -1.89621 6.19635 0
M  V30 6861 N 657.755 -1.42862 -0.66545 0
M  V30 6862 C 659.032 -1.3431 -1.42197 0
M  V30 6863 C 659.412 0.0150265 -2.11095 0
M  V30 6864 O 658.76 1.03101 -2.03918 0
M  V30 6865 C 658.97 -2.51783 -2.41674 0
M  V30 6866 C 660.318 -2.94321 -3.0604 0
M  V30 6867 O 661.342 -2.51741 -2.52001 0
M  V30 6868 O 660.201 -3.68047 -4.03985 0
M  V30 6869 H 657.295 -0.530159 -0.634713 0
M  V30 6870 H 659.841 -1.54888 -0.693386 0
M  V30 6871 H 658.613 -3.42282 -1.89627 0
M  V30 6872 H 658.236 -2.33241 -3.22001 0
M  V30 6873 N 659.233 0.902656 -1.29189 0
M  V30 6874 C 660.463 1.68394 -1.19695 0
M  V30 6875 C 660.871 1.87602 0.245384 0
M  V30 6876 O 660.214 1.41084 1.17648 0
M  V30 6877 C 660.276 3.09094 -1.83578 0
M  V30 6878 C 659.94 3.1313 -3.32864 0
M  V30 6879 C 660.937 2.93497 -4.29134 0
M  V30 6880 C 658.622 3.3529 -3.74013 0
M  V30 6881 C 660.616 2.95953 -5.64527 0
M  V30 6882 C 658.303 3.37377 -5.09529 0
M  V30 6883 C 659.301 3.1773 -6.04596 0
M  V30 6884 O 658.989 3.196 -7.37639 0
M  V30 6885 H 658.721 0.532815 -0.416034 0
M  V30 6886 H 661.275 1.1374 -1.71033 0
M  V30 6887 H 659.505 3.65338 -1.26747 0
M  V30 6888 H 661.194 3.69297 -1.68447 0
M  V30 6889 H 661.96 2.76192 -3.98677 0
M  V30 6890 H 657.839 3.49623 -3.00474 0
M  V30 6891 H 661.383 2.80536 -6.38706 0
M  V30 6892 H 657.28 3.54213 -5.39633 0
M  V30 6893 H 658.048 3.35887 -7.46406 0
M  V30 6894 N 660.711 1.11618 1.11262 0
M  V30 6895 C 662.127 0.850468 1.35053 0
M  V30 6896 C 662.327 -0.523868 1.94571 0
M  V30 6897 O 661.383 -1.2743 2.17986 0
M  V30 6898 C 662.696 1.96005 2.28041 0
M  V30 6899 C 664.244 1.98993 2.416 0
M  V30 6900 C 664.719 3.0916 3.37911 0
M  V30 6901 N 666.21 3.08547 3.45475 0
M  V30 6902 C 666.945 3.9043 4.19943 0
M  V30 6903 N 666.441 4.8228 4.97371 0
M  V30 6904 N 668.234 3.786 4.15474 0
M  V30 6905 H 660.385 2.00184 0.709932 0
M  V30 6906 H 662.648 0.870635 0.375099 0
M  V30 6907 H 662.354 2.9499 1.91503 0
M  V30 6908 H 662.228 1.85782 3.28275 0
M  V30 6909 H 664.615 1.00633 2.77411 0
M  V30 6910 H 664.696 2.13292 1.4121 0
M  V30 6911 H 664.34 4.07748 3.02827 0
M  V30 6912 H 664.27 2.92102 4.3816 0
M  V30 6913 H 666.761 2.42 2.90249 0
M  V30 6914 H 667.074 5.41289 5.51567 0
M  V30 6915 H 665.419 4.863 4.96525 0
M  V30 6916 H 668.61 3.06185 3.54074 0
M  V30 6917 H 668.783 4.42647 4.73253 0
M  V30 6918 N 662.189 -1.289 0.906776 0
M  V30 6919 C 663.099 -2.31256 0.394707 0
M  V30 6920 C 664.115 -1.66231 -0.514121 0
M  V30 6921 O 665.291 -1.97347 -0.401994 0
M  V30 6922 C 662.356 -3.44792 -0.363191 0
M  V30 6923 C 661.417 -4.25391 0.578012 0
M  V30 6924 C 660.65 -5.33506 -0.143811 0
M  V30 6925 O 660.873 -5.53786 -1.36665 0
M  V30 6926 O 659.807 -5.99673 0.5173 0
M  V30 6927 H 663.633 -2.77051 1.24405 0
M  V30 6928 H 661.218 -1.33466 0.671346 0
M  V30 6929 H 663.1 -4.139 -0.791503 0
M  V30 6930 H 661.775 -3.01093 -1.18848 0
M  V30 6931 H 660.682 -3.58899 1.05558 0
M  V30 6932 H 662.015 -4.72752 1.36992 0
M  V30 6933 N 663.667 -0.670007 -1.42649 0
M  V30 6934 C 664.895 -0.19854 -2.05945 0
M  V30 6935 C 665.31 1.14243 -1.50313 0
M  V30 6936 O 664.667 1.70872 -0.641027 0
M  V30 6937 C 664.718 -0.11966 -3.61302 0
M  V30 6938 O 664.439 -1.40764 -4.1487 0
M  V30 6939 C 665.94 0.375878 -4.41704 0
M  V30 6940 H 663.16 -0.0976894 -0.663851 0
M  V30 6941 H 665.704 -0.915392 -1.82868 0
M  V30 6942 H 663.859 0.547851 -3.83507 0
M  V30 6943 H 664.273 -1.27784 -5.08696 0
M  V30 6944 H 665.747 0.379988 -5.50691 0
M  V30 6945 H 666.224 1.41028 -4.15942 0
M  V30 6946 H 666.83 -0.259727 -4.24506 0
M  V30 6947 N 665.145 1.52092 -0.413018 0
M  V30 6948 C 666.077 2.24819 0.445994 0
M  V30 6949 C 667.09 1.27925 1.00692 0
M  V30 6950 O 668.279 1.53845 0.905204 0
M  V30 6951 C 665.379 2.96951 1.6332 0
M  V30 6952 C 664.552 4.20746 1.19548 0
M  V30 6953 C 663.611 4.75668 2.25003 0
M  V30 6954 O 662.637 5.38148 1.85434 0
M  V30 6955 N 663.839 4.57579 3.57214 0
M  V30 6956 H 666.604 2.99176 -0.177209 0
M  V30 6957 H 664.165 1.60102 -0.240601 0
M  V30 6958 H 666.157 3.30586 2.33441 0
M  V30 6959 H 664.727 2.25756 2.16225 0
M  V30 6960 H 663.947 3.92881 0.32224 0
M  V30 6961 H 665.235 5.01132 0.880033 0
M  V30 6962 H 664.633 4.07758 3.92109 0
M  V30 6963 H 663.19 4.95642 4.23299 0
M  V30 6964 N 666.623 0.143563 1.56945 0
M  V30 6965 C 667.872 -0.50835 1.95189 0
M  V30 6966 C 668.185 -1.66239 1.03073 0
M  V30 6967 O 669.391 -2.3787 1.30882 0
M  V30 6968 C 667.847 -0.955735 3.46978 0
M  V30 6969 C 667.455 0.171183 4.47673 0
M  V30 6970 C 669.199 -1.57763 3.94095 0
M  V30 6971 C 667.106 -0.294279 5.90667 0
M  V30 6972 H 666.036 -0.193679 0.728701 0
M  V30 6973 H 668.687 0.227357 1.82086 0
M  V30 6974 H 667.069 -1.7466 3.55401 0
M  V30 6975 H 668.243 0.948049 4.50942 0
M  V30 6976 H 666.558 0.701273 4.10452 0
M  V30 6977 H 669.155 -1.93745 4.98364 0
M  V30 6978 H 669.498 -2.46531 3.35452 0
M  V30 6979 H 670.031 -0.851728 3.88575 0
M  V30 6980 H 666.77 0.557939 6.53121 0
M  V30 6981 H 666.29 -1.0371 5.90766 0
M  V30 6982 H 667.969 -0.747426 6.42668 0
M  V30 6983 N 668.101 -1.57061 -0.130224 0
M  V30 6984 C 669.329 -1.88432 -0.854456 0
M  V30 6985 C 669.744 -0.733608 -1.73964 0
M  V30 6986 O 669.101 0.296029 -1.80083 0
M  V30 6987 C 669.152 -3.1918 -1.69724 0
M  V30 6988 O 668.873 -4.2982 -0.847705 0
M  V30 6989 C 670.374 -3.6418 -2.5276 0
M  V30 6990 H 667.594 -0.624193 -0.246221 0
M  V30 6991 H 670.138 -2.04159 -0.11798 0
M  V30 6992 H 668.293 -3.05156 -2.3866 0
M  V30 6993 H 668.707 -5.04689 -1.42792 0
M  V30 6994 H 670.181 -4.58457 -3.07443 0
M  V30 6995 H 670.658 -2.90285 -3.29592 0
M  V30 6996 H 671.264 -3.80954 -1.89087 0
M  V30 6997 N 669.579 0.400081 -1.52437 0
M  V30 6998 C 670.526 1.48803 -1.76426 0
M  V30 6999 C 671.496 1.5461 -0.607032 0
M  V30 7000 O 672.681 1.71041 -0.845563 0
M  V30 7001 C 669.821 2.86156 -1.92896 0
M  V30 7002 C 668.934 2.89587 -3.20567 0
M  V30 7003 C 668.069 4.18296 -3.27417 0
M  V30 7004 C 667.108 4.15736 -4.49255 0
M  V30 7005 N 666.245 5.36032 -4.53447 0
M  V30 7006 H 671.085 1.27649 -2.69276 0
M  V30 7007 H 668.622 0.619451 -1.33421 0
M  V30 7008 H 670.58 3.65901 -2.00429 0
M  V30 7009 H 669.21 3.05785 -1.03418 0
M  V30 7010 H 668.262 2.02278 -3.22161 0
M  V30 7011 H 669.574 2.83562 -4.10358 0
M  V30 7012 H 668.728 5.06439 -3.34072 0
M  V30 7013 H 667.467 4.27028 -2.35581 0
M  V30 7014 H 666.472 3.25982 -4.42737 0
M  V30 7015 H 667.697 4.08636 -5.42396 0
M  V30 7016 H 665.643 5.45415 -3.64498 0
M  V30 7017 H 665.56 5.32038 -5.37096 0
M  V30 7018 H 666.828 6.26104 -4.64343 0
M  V30 7019 N 671.057 1.43213 0.657864 0
M  V30 7020 C 671.987 1.50815 1.78262 0
M  V30 7021 C 672.968 0.363211 1.66177 0
M  V30 7022 O 674.153 0.579806 1.85343 0
M  V30 7023 C 671.283 1.42625 3.16663 0
M  V30 7024 C 670.237 2.5532 3.43505 0
M  V30 7025 C 669.563 2.32184 4.81658 0
M  V30 7026 C 670.863 3.97583 3.38711 0
M  V30 7027 H 672.557 2.44954 1.72157 0
M  V30 7028 H 670.103 1.17896 0.82683 0
M  V30 7029 H 672.056 1.46548 3.95097 0
M  V30 7030 H 670.78 0.449877 3.23487 0
M  V30 7031 H 669.439 2.50742 2.6744 0
M  V30 7032 H 669.087 1.32801 4.85153 0
M  V30 7033 H 668.787 3.07724 5.00579 0
M  V30 7034 H 670.311 2.37883 5.62356 0
M  V30 7035 H 671.725 4.03673 4.07089 0
M  V30 7036 H 670.122 4.73112 3.69168 0
M  V30 7037 H 671.192 4.23049 2.36976 0
M  V30 7038 N 672.536 -0.895792 1.29666 0
M  V30 7039 C 673.466 -2.01673 1.17688 0
M  V30 7040 C 674.447 -1.69955 0.0701317 0
M  V30 7041 O 675.632 -1.9258 0.250289 0
M  V30 7042 C 672.762 -3.36568 0.856681 0
M  V30 7043 C 671.716 -3.82509 1.92017 0
M  V30 7044 C 671.042 -5.14574 1.4532 0
M  V30 7045 C 672.342 -4.02409 3.32963 0
M  V30 7046 H 674.036 -2.11953 2.11463 0
M  V30 7047 H 671.582 -1.01839 1.01807 0
M  V30 7048 H 673.535 -4.14498 0.759577 0
M  V30 7049 H 672.259 -3.26391 -0.116763 0
M  V30 7050 H 670.918 -3.068 2.00673 0
M  V30 7051 H 670.566 -5.00815 0.468325 0
M  V30 7052 H 670.266 -5.46283 2.16447 0
M  V30 7053 H 671.79 -5.9504 1.36968 0
M  V30 7054 H 673.204 -4.70808 3.27127 0
M  V30 7055 H 671.601 -4.45478 4.02082 0
M  V30 7056 H 672.671 -3.06616 3.75652 0
M  V30 7057 N 674.014 -1.12206 -1.10668 0
M  V30 7058 C 674.961 -0.787716 -2.16942 0
M  V30 7059 C 675.931 0.244442 -1.64291 0
M  V30 7060 O 677.116 0.119558 -1.90425 0
M  V30 7061 C 674.256 -0.24584 -3.44223 0
M  V30 7062 C 673.369 -1.33552 -4.10838 0
M  V30 7063 C 672.504 -0.753337 -5.25831 0
M  V30 7064 C 671.543 -1.82231 -5.84344 0
M  V30 7065 N 670.68 -1.25902 -6.90719 0
M  V30 7066 H 675.52 -1.69809 -2.44885 0
M  V30 7067 H 673.057 -0.847862 -1.20207 0
M  V30 7068 H 675.015 0.0863639 -4.17111 0
M  V30 7069 H 673.645 0.627702 -3.16638 0
M  V30 7070 H 672.697 -1.78454 -3.35944 0
M  V30 7071 H 674.009 -2.14396 -4.50373 0
M  V30 7072 H 673.163 -0.37166 -6.05561 0
M  V30 7073 H 671.902 0.0863297 -4.87624 0
M  V30 7074 H 670.907 -2.2132 -5.03287 0
M  V30 7075 H 672.132 -2.66515 -6.24617 0
M  V30 7076 H 670.078 -0.44114 -6.54515 0
M  V30 7077 H 669.995 -2.00408 -7.28953 0
M  V30 7078 H 671.263 -0.904498 -7.74235 0
M  V30 7079 N 675.492 1.28418 -0.913599 0
M  V30 7080 C 676.439 2.27301 -0.400373 0
M  V30 7081 C 677.409 1.57582 0.52509 0
M  V30 7082 O 678.594 1.85482 0.447318 0
M  V30 7083 C 675.734 3.43284 0.35361 0
M  V30 7084 C 674.847 4.27752 -0.604341 0
M  V30 7085 C 673.982 5.30934 0.168075 0
M  V30 7086 C 673.021 6.07065 -0.783499 0
M  V30 7087 N 672.158 7.02086 -0.0446112 0
M  V30 7088 H 676.998 2.70579 -1.24865 0
M  V30 7089 H 674.535 1.33067 -0.627028 0
M  V30 7090 H 676.493 4.09322 0.806945 0
M  V30 7091 H 675.123 3.00997 1.16623 0
M  V30 7092 H 674.175 3.61759 -1.17621 0
M  V30 7093 H 675.487 4.80682 -1.33216 0
M  V30 7094 H 674.641 6.02855 0.681979 0
M  V30 7095 H 673.38 4.78771 0.928947 0
M  V30 7096 H 672.385 5.33995 -1.30878 0
M  V30 7097 H 673.61 6.61317 -1.54392 0
M  V30 7098 H 671.556 6.52273 0.698272 0
M  V30 7099 H 671.473 7.52637 -0.712258 0
M  V30 7100 H 672.741 7.78205 0.449102 0
M  V30 7101 N 676.97 0.677563 1.42291 0
M  V30 7102 C 677.918 -0.0106755 2.32598 0
M  V30 7103 C 678.912 -0.787643 1.49975 0
M  V30 7104 O 680.118 -0.695295 1.66029 0
M  V30 7105 H 676.493 -0.0222482 0.751671 0
M  V30 7106 H 678.464 0.768312 2.88339 0
M  V30 7107 C 677.213 -0.946142 3.3458 0
M  V30 7108 H 676.536 -0.357701 3.98197 0
M  V30 7109 H 677.976 -1.39634 4.00348 0
M  V30 7110 C 676.435 -2.05383 2.67057 0
M  V30 7111 O 676.965 -3.1406 2.50458 0
M  V30 7112 N 675.171 -1.82635 2.26038 0
M  V30 7113 H 674.718 -0.942534 2.39737 0
M  V30 7114 H 674.676 -2.56937 1.81192 0
M  V30 7115 N 678.448 -1.51871 0.421078 0
M  V30 7116 C 679.395 -2.27334 -0.398508 0
M  V30 7117 C 680.365 -1.30241 -1.03085 0
M  V30 7118 O 681.55 -1.59121 -1.05285 0
M  V30 7119 C 678.69 -3.10664 -1.50272 0
M  V30 7120 C 677.803 -4.2273 -0.890122 0
M  V30 7121 C 676.938 -4.93399 -1.96803 0
M  V30 7122 C 675.977 -5.97409 -1.333 0
M  V30 7123 N 675.114 -6.61548 -2.35156 0
M  V30 7124 H 679.954 -2.96938 0.251411 0
M  V30 7125 H 677.491 -1.46472 0.135825 0
M  V30 7126 H 679.449 -3.57292 -2.15403 0
M  V30 7127 H 678.079 -2.43207 -2.1225 0
M  V30 7128 H 677.131 -3.80186 -0.127537 0
M  V30 7129 H 678.443 -4.97302 -0.386349 0
M  V30 7130 H 677.597 -5.43491 -2.69633 0
M  V30 7131 H 676.336 -4.18421 -2.50549 0
M  V30 7132 H 675.341 -5.46624 -0.59008 0
M  V30 7133 H 676.566 -6.74335 -0.803076 0
M  V30 7134 H 674.512 -5.89394 -2.88012 0
M  V30 7135 H 674.429 -7.31832 -1.89624 0
M  V30 7136 H 675.697 -7.16276 -3.0752 0
M  V30 7137 N 679.926 -0.151884 -1.56866 0
M  V30 7138 C 680.836 0.798876 -2.20579 0
M  V30 7139 C 681.852 1.268 -1.19154 0
M  V30 7140 O 683.028 1.32418 -1.51748 0
M  V30 7141 C 680.093 2.01861 -2.81874 0
M  V30 7142 C 679.154 1.59825 -3.9844 0
M  V30 7143 C 678.387 2.75984 -4.56802 0
M  V30 7144 O 678.61 3.92331 -4.14044 0
M  V30 7145 O 677.544 2.51175 -5.46987 0
M  V30 7146 H 681.37 0.2865 -3.02346 0
M  V30 7147 H 678.955 0.0753806 -1.4921 0
M  V30 7148 H 680.837 2.73235 -3.20813 0
M  V30 7149 H 679.512 2.52042 -2.03117 0
M  V30 7150 H 678.419 0.854601 -3.64208 0
M  V30 7151 H 679.752 1.14355 -4.78731 0
M  V30 7152 N 681.404 1.57128 0.121893 0
M  V30 7153 C 682.629 1.89254 0.848385 0
M  V30 7154 C 683.054 0.743527 1.72781 0
M  V30 7155 O 682.412 -0.306056 1.78698 0
M  V30 7156 C 682.46 3.20113 1.66012 0
M  V30 7157 O 681.564 3.05815 2.76679 0
M  V30 7158 H 680.905 0.621103 0.234793 0
M  V30 7159 H 683.435 2.0433 0.10516 0
M  V30 7160 H 683.445 3.52761 2.04996 0
M  V30 7161 H 682.12 4.03336 1.01452 0
M  V30 7162 H 680.697 2.84627 2.40918 0
M  V30 7163 N 682.882 -0.391992 1.52647 0
M  V30 7164 C 683.814 -1.49811 1.73463 0
M  V30 7165 C 684.827 -1.50734 0.615078 0
M  V30 7166 O 686.016 -1.5469 0.890696 0
M  V30 7167 C 683.116 -2.88667 1.77552 0
M  V30 7168 C 682.289 -3.11743 3.06815 0
M  V30 7169 C 681.348 -4.30564 3.02491 0
M  V30 7170 O 680.374 -4.27014 3.76361 0
M  V30 7171 N 681.576 -5.36593 2.21468 0
M  V30 7172 H 684.341 -1.32343 2.68897 0
M  V30 7173 H 681.902 -0.581475 1.51098 0
M  V30 7174 H 683.894 -3.66251 1.7217 0
M  V30 7175 H 682.464 -2.99508 0.895181 0
M  V30 7176 H 681.684 -2.2205 3.25711 0
M  V30 7177 H 682.972 -3.24013 3.92292 0
M  V30 7178 H 682.37 -5.42332 1.60913 0
M  V30 7179 H 680.927 -6.12855 2.21928 0
M  V30 7180 N 684.36 -1.4356 -0.65026 0
M  V30 7181 C 685.29 -1.51758 -1.77459 0
M  V30 7182 C 686.271 -0.372019 -1.65982 0
M  V30 7183 O 687.456 -0.589627 -1.85033 0
M  V30 7184 C 684.586 -1.44302 -3.15902 0
M  V30 7185 C 683.54 -2.57138 -3.42146 0
M  V30 7186 C 682.866 -2.34735 -4.8042 0
M  V30 7187 C 684.166 -3.99373 -3.36598 0
M  V30 7188 H 685.86 -2.45863 -1.70855 0
M  V30 7189 H 683.406 -1.18333 -0.820566 0
M  V30 7190 H 685.359 -1.48641 -3.94314 0
M  V30 7191 H 684.083 -0.467026 -3.23244 0
M  V30 7192 H 682.742 -2.52157 -2.66106 0
M  V30 7193 H 682.39 -1.35372 -4.84441 0
M  V30 7194 H 682.09 -3.10375 -4.9894 0
M  V30 7195 H 683.614 -2.40862 -5.61086 0
M  V30 7196 H 685.028 -4.05826 -4.04942 0
M  V30 7197 H 683.425 -4.75063 -3.66654 0
M  V30 7198 H 684.495 -4.243 -2.34729 0
M  V30 7199 N 685.838 0.888903 -1.30139 0
M  V30 7200 C 686.801 1.97576 -1.16174 0
M  V30 7201 C 687.801 1.60525 -0.094086 0
M  V30 7202 O 688.991 1.70812 -0.341889 0
M  V30 7203 C 686.123 3.3188 -0.778983 0
M  V30 7204 H 687.316 2.11393 -2.12728 0
M  V30 7205 H 684.869 1.0748 -1.1348 0
M  V30 7206 H 685.604 3.23765 0.186225 0
M  V30 7207 H 685.389 3.60141 -1.55051 0
M  V30 7208 H 686.879 4.11612 -0.704631 0
M  V30 7209 N 687.317 1.12792 1.10072 0
M  V30 7210 C 688.247 0.821688 2.18565 0
M  V30 7211 C 689.228 -0.21612 1.68721 0
M  V30 7212 O 690.413 -0.0764932 1.94049 0
M  V30 7213 C 687.543 0.279624 3.46172 0
M  V30 7214 C 686.497 1.25092 4.09312 0
M  V30 7215 C 685.823 0.568916 5.31665 0
M  V30 7216 C 687.123 2.60699 4.52585 0
M  V30 7217 H 688.817 1.72888 2.44438 0
M  V30 7218 H 686.363 0.832702 1.17482 0
M  V30 7219 H 688.316 0.053099 4.21367 0
M  V30 7220 H 687.04 -0.662929 3.19801 0
M  V30 7221 H 685.699 1.46332 3.36129 0
M  V30 7222 H 685.347 -0.378898 5.01571 0
M  V30 7223 H 685.047 1.21687 5.74862 0
M  V30 7224 H 686.571 0.351517 6.09587 0
M  V30 7225 H 687.985 2.43465 5.19035 0
M  V30 7226 H 686.382 3.21608 5.06644 0
M  V30 7227 H 687.452 3.1886 3.65317 0
M  V30 7228 N 688.795 -1.27931 0.920396 0
M  V30 7229 C 690.043 -1.94304 0.555906 0
M  V30 7230 C 690.364 -1.72753 -0.904519 0
M  V30 7231 O 689.634 -1.07104 -1.64029 0
M  V30 7232 H 688.214 -0.719001 0.202599 0
M  V30 7233 H 690.876 -1.55785 1.1712 0
M  V30 7234 H 689.972 -3.02806 0.755981 0
M  V30 7235 N 690.273 -0.685099 -1.4193 0
M  V30 7236 C 691.205 0.0258679 -2.29185 0
M  V30 7237 C 692.218 0.755076 -1.44231 0
M  V30 7238 O 693.407 0.60752 -1.67844 0
M  V30 7239 C 690.507 1.06055 -3.21878 0
M  V30 7240 C 689.68 0.403088 -4.35539 0
M  V30 7241 C 688.739 1.33895 -5.0888 0
M  V30 7242 O 687.765 0.835326 -5.63037 0
M  V30 7243 N 688.967 2.6718 -5.15359 0
M  V30 7244 H 691.732 -0.723201 -2.90843 0
M  V30 7245 H 689.293 -0.53031 -1.52968 0
M  V30 7246 H 691.285 1.68813 -3.6781 0
M  V30 7247 H 689.855 1.71126 -2.616 0
M  V30 7248 H 689.075 -0.404185 -3.92122 0
M  V30 7249 H 690.363 -0.0545098 -5.08771 0
M  V30 7250 H 689.761 3.10626 -4.72788 0
M  V30 7251 H 688.318 3.25159 -5.64903 0
M  V30 7252 N 691.751 1.51645 -0.429126 0
M  V30 7253 C 692.698 2.27542 0.386446 0
M  V30 7254 C 693.668 1.30786 1.02393 0
M  V30 7255 O 694.853 1.59678 1.0444 0
M  V30 7256 C 691.993 3.11457 1.48623 0
M  V30 7257 C 691.106 4.23196 0.867691 0
M  V30 7258 C 690.241 4.94435 1.94183 0
M  V30 7259 C 689.28 5.98108 1.30129 0
M  V30 7260 N 688.417 6.62786 2.31644 0
M  V30 7261 H 693.257 2.968 -0.267155 0
M  V30 7262 H 690.794 1.46397 -0.143591 0
M  V30 7263 H 692.752 3.58429 2.13506 0
M  V30 7264 H 691.382 2.44329 2.10957 0
M  V30 7265 H 690.434 3.80248 0.107373 0
M  V30 7266 H 691.746 4.97499 0.35997 0
M  V30 7267 H 690.9 5.44914 2.66747 0
M  V30 7268 H 689.639 4.19744 2.48326 0
M  V30 7269 H 688.644 5.4693 0.561082 0
M  V30 7270 H 689.869 6.74751 0.767303 0
M  V30 7271 H 687.815 5.90913 2.84883 0
M  V30 7272 H 687.732 7.32828 1.85741 0
M  V30 7273 H 689 7.17897 3.03717 0
M  V30 7274 N 693.229 0.160201 1.56784 0
M  V30 7275 C 694.64 -0.358417 1.83227 0
M  V30 7276 C 694.991 -1.63831 1.07952 0
M  V30 7277 O 694.116 -2.13885 0.328995 0
M  V30 7278 C 694.711 -0.657058 3.32368 0
M  V30 7279 C 693.27 -1.12015 3.59346 0
M  V30 7280 C 692.417 -0.15015 2.76893 0
M  V30 7281 H 695.368 0.384669 1.53967 0
M  V30 7282 H 695.389 -1.51033 3.49241 0
M  V30 7283 H 694.901 0.274647 3.87127 0
M  V30 7284 H 693.002 -2.06734 3.09987 0
M  V30 7285 H 693.115 -1.037 4.67743 0
M  V30 7286 H 691.479 -0.645361 2.46388 0
M  V30 7287 H 692.262 0.775379 3.34429 0
M  V30 7288 N 694.707 -1.5719 -0.113559 0
M  V30 7289 C 695.64 -1.9595 -1.16957 0
M  V30 7290 C 696.618 -0.829951 -1.39823 0
M  V30 7291 O 697.802 -1.08861 -1.53888 0
M  V30 7292 C 694.929 -2.2604 -2.52237 0
M  V30 7293 C 693.975 -3.48571 -2.45765 0
M  V30 7294 S 694.808 -5.00962 -1.89203 0
M  V30 7295 C 695.964 -5.3421 -3.26145 0
M  V30 7296 H 696.197 -2.85214 -0.839069 0
M  V30 7297 H 693.73 -1.51036 -0.320529 0
M  V30 7298 H 695.688 -2.44054 -3.30073 0
M  V30 7299 H 694.349 -1.3738 -2.82463 0
M  V30 7300 H 693.542 -3.67008 -3.45429 0
M  V30 7301 H 693.144 -3.29972 -1.76053 0
M  V30 7302 H 695.436 -5.29725 -4.22371 0
M  V30 7303 H 696.379 -6.35398 -3.12529 0
M  V30 7304 H 696.787 -4.61681 -3.24825 0
M  V30 7305 N 696.185 0.383891 -1.52853 0
M  V30 7306 C 697.413 1.1495 -1.7203 0
M  V30 7307 C 697.828 1.83578 -0.440957 0
M  V30 7308 O 697.185 1.72872 0.584925 0
M  V30 7309 C 697.236 2.19368 -2.87333 0
M  V30 7310 O 696.957 1.53536 -4.10315 0
M  V30 7311 C 698.458 3.08616 -3.18231 0
M  V30 7312 H 695.678 0.344445 -0.575846 0
M  V30 7313 H 698.222 0.448397 -1.99524 0
M  V30 7314 H 696.377 2.85105 -2.62286 0
M  V30 7315 H 696.791 2.2296 -4.74752 0
M  V30 7316 H 698.265 3.77902 -4.02361 0
M  V30 7317 H 698.742 3.72409 -2.32826 0
M  V30 7318 H 699.348 2.48518 -3.45136 0
M  V30 7319 N 697.663 1.43903 0.642637 0
M  V30 7320 C 698.626 1.49538 1.73698 0
M  V30 7321 C 699.626 0.378776 1.56275 0
M  V30 7322 O 700.816 0.64095 1.6198 0
M  V30 7323 C 697.948 1.35821 3.12675 0
M  V30 7324 H 699.141 2.47008 1.70079 0
M  V30 7325 H 696.694 1.30824 0.85526 0
M  V30 7326 H 697.429 0.393994 3.21898 0
M  V30 7327 H 697.214 2.16776 3.26727 0
M  V30 7328 H 698.704 1.4272 3.92455 0
M  V30 7329 N 699.141 -0.881989 1.30609 0
M  V30 7330 C 700.418 -1.61563 1.10258 0
M  V30 7331 C 700.798 -2.08228 -0.347053 0
M  V30 7332 O 700.146 -1.85151 -1.33908 0
M  V30 7333 C 700.356 -2.78287 2.10612 0
M  V30 7334 C 701.704 -3.48545 2.4249 0
M  V30 7335 O 702.728 -2.88479 2.08945 0
M  V30 7336 O 701.587 -4.56873 2.99883 0
M  V30 7337 H 698.681 -0.710238 0.423663 0
M  V30 7338 H 701.227 -0.928503 1.42045 0
M  V30 7339 H 699.999 -2.41131 3.08174 0
M  V30 7340 H 699.622 -3.54695 1.79659 0
M  V30 7341 N 700.619 -1.13374 -1.09472 0
M  V30 7342 C 701.896 -0.806329 -1.78207 0
M  V30 7343 C 702.276 0.702191 -1.99079 0
M  V30 7344 O 701.624 1.63931 -1.59182 0
M  V30 7345 C 701.834 -1.59271 -3.10538 0
M  V30 7346 C 703.182 -1.78509 -3.85253 0
M  V30 7347 O 704.206 -1.55866 -3.20288 0
M  V30 7348 O 703.065 -2.16287 -5.01879 0
M  V30 7349 H 700.159 -0.29435 -0.772843 0
M  V30 7350 H 702.705 -1.23833 -1.16033 0
M  V30 7351 H 701.477 -2.61792 -2.90828 0
M  V30 7352 H 701.1 -1.15562 -3.80436 0
M  V30 7353 N 702.098 1.27442 -0.927168 0
M  V30 7354 C 703.344 1.94679 -0.568164 0
M  V30 7355 C 703.677 1.72697 0.888219 0
M  V30 7356 O 702.952 1.05573 1.63354 0
M  V30 7357 C 703.235 3.4882 -0.894253 0
M  V30 7358 C 703.088 3.80146 -2.40435 0
M  V30 7359 C 704.407 4.38281 -0.399766 0
M  V30 7360 H 701.526 0.707071 -0.207892 0
M  V30 7361 H 704.168 1.50568 -1.15885 0
M  V30 7362 H 702.318 3.86522 -0.391566 0
M  V30 7363 H 703.99 3.52238 -2.97869 0
M  V30 7364 H 702.233 3.26716 -2.85375 0
M  V30 7365 H 702.904 4.87835 -2.58304 0
M  V30 7366 H 705.38 4.07726 -0.83058 0
M  V30 7367 H 704.256 5.44955 -0.656885 0
M  V30 7368 H 704.517 4.36521 0.700153 0
M  V30 7369 N 703.576 0.692616 1.41565 0
M  V30 7370 C 704.506 0.0397325 2.33466 0
M  V30 7371 C 705.487 -0.770334 1.51657 0
M  V30 7372 O 706.672 -0.723903 1.80203 0
M  V30 7373 C 703.802 -0.899495 3.3545 0
M  V30 7374 C 702.756 -0.196738 4.27548 0
M  V30 7375 C 702.082 -1.25012 5.19881 0
M  V30 7376 C 703.382 0.935158 5.1386 0
M  V30 7377 H 705.076 0.807296 2.88311 0
M  V30 7378 H 702.622 0.389665 1.38628 0
M  V30 7379 H 704.575 -1.36545 3.98665 0
M  V30 7380 H 703.299 -1.69869 2.78948 0
M  V30 7381 H 701.958 0.249158 3.65752 0
M  V30 7382 H 701.606 -2.04177 4.59696 0
M  V30 7383 H 701.306 -0.784931 5.82334 0
M  V30 7384 H 702.83 -1.71665 5.85972 0
M  V30 7385 H 704.244 0.549619 5.70659 0
M  V30 7386 H 702.641 1.32726 5.85238 0
M  V30 7387 H 703.711 1.77613 4.512 0
M  V30 7388 N 705.054 -1.51416 0.437162 0
M  V30 7389 C 705.986 -2.255 -0.410171 0
M  V30 7390 C 706.999 -1.29511 -0.986444 0
M  V30 7391 O 708.188 -1.55266 -0.880614 0
M  V30 7392 C 705.288 -2.99511 -1.58575 0
M  V30 7393 C 704.461 -4.22595 -1.12839 0
M  V30 7394 C 703.52 -4.79187 -2.17407 0
M  V30 7395 O 702.546 -5.4103 -1.76849 0
M  V30 7396 N 703.748 -4.63204 -3.49889 0
M  V30 7397 H 706.513 -2.98856 0.224783 0
M  V30 7398 H 704.074 -1.59699 0.266041 0
M  V30 7399 H 706.066 -3.34258 -2.28152 0
M  V30 7400 H 704.636 -2.29167 -2.12606 0
M  V30 7401 H 703.856 -3.93344 -0.259695 0
M  V30 7402 H 705.144 -5.02468 -0.800196 0
M  V30 7403 H 704.542 -4.13945 -3.85573 0
M  V30 7404 H 703.099 -5.02313 -4.15361 0
M  V30 7405 N 706.532 -0.168513 -1.56696 0
M  V30 7406 C 707.762 0.482802 -2.0088 0
M  V30 7407 C 708.17 1.57537 -1.0478 0
M  V30 7408 O 707.513 1.83656 -0.0402746 0
M  V30 7409 C 707.575 1.1236 -3.4149 0
M  V30 7410 C 707.239 0.173027 -4.56672 0
M  V30 7411 C 708.236 -0.607565 -5.16338 0
M  V30 7412 C 705.921 0.0696691 -5.02252 0
M  V30 7413 C 707.915 -1.47874 -6.2001 0
M  V30 7414 C 705.602 -0.805096 -6.05773 0
M  V30 7415 C 706.6 -1.57789 -6.64524 0
M  V30 7416 O 706.288 -2.43804 -7.66038 0
M  V30 7417 H 706.02 0.128246 -0.663723 0
M  V30 7418 H 708.574 -0.266532 -2.03663 0
M  V30 7419 H 706.804 1.921 -3.35611 0
M  V30 7420 H 708.493 1.67683 -3.69645 0
M  V30 7421 H 709.259 -0.53787 -4.82008 0
M  V30 7422 H 705.138 0.660957 -4.56237 0
M  V30 7423 H 708.682 -2.0824 -6.65794 0
M  V30 7424 H 704.579 -0.876005 -6.39528 0
M  V30 7425 H 705.347 -2.37289 -7.83349 0
M  V30 7426 N 708.01 1.57248 0.105221 0
M  V30 7427 C 709.258 1.85204 0.808951 0
M  V30 7428 C 709.579 0.75574 1.7976 0
M  V30 7429 O 708.849 -0.218984 1.94672 0
M  V30 7430 H 707.429 0.683346 0.301739 0
M  V30 7431 H 710.091 1.94695 0.0892605 0
M  V30 7432 H 709.187 2.81595 1.34575 0
M  V30 7433 N 709.488 -0.375779 1.53054 0
M  V30 7434 C 710.451 -1.44254 1.7811 0
M  V30 7435 C 711.451 -1.47018 0.651328 0
M  V30 7436 O 712.641 -1.47957 0.919472 0
M  V30 7437 C 709.773 -2.8345 1.89391 0
M  V30 7438 H 710.966 -1.23316 2.73374 0
M  V30 7439 H 708.519 -0.608312 1.43977 0
M  V30 7440 H 709.254 -3.09716 0.961589 0
M  V30 7441 H 709.039 -2.82844 2.71555 0
M  V30 7442 H 710.529 -3.60722 2.10404 0
M  V30 7443 N 710.966 -1.44241 -0.634997 0
M  V30 7444 C 712.243 -1.37296 -1.39317 0
M  V30 7445 C 712.623 -0.0297532 -2.11079 0
M  V30 7446 O 711.971 0.987524 -2.06059 0
M  V30 7447 C 712.181 -2.56853 -2.36279 0
M  V30 7448 C 713.529 -3.00747 -2.99728 0
M  V30 7449 O 714.553 -2.5703 -2.46605 0
M  V30 7450 O 713.412 -3.76533 -3.96087 0
M  V30 7451 H 710.506 -0.543503 -0.623325 0
M  V30 7452 H 713.052 -1.56324 -0.660376 0
M  V30 7453 H 711.824 -3.46228 -1.82324 0
M  V30 7454 H 711.447 -2.40019 -3.16981 0
M  V30 7455 N 712.444 0.87505 -1.31075 0
M  V30 7456 C 713.391 1.98178 -1.18296 0
M  V30 7457 C 714.361 1.65952 -0.0699923 0
M  V30 7458 O 715.546 1.8926 -0.241951 0
M  V30 7459 C 712.686 3.33399 -0.891024 0
M  V30 7460 C 711.799 3.78253 -2.08684 0
M  V30 7461 C 710.934 5.02166 -1.73212 0
M  V30 7462 C 709.973 5.39455 -2.89231 0
M  V30 7463 N 709.11 6.54549 -2.53989 0
M  V30 7464 H 713.95 2.0844 -2.12971 0
M  V30 7465 H 711.487 1.02047 -1.05948 0
M  V30 7466 H 713.445 4.11246 -0.702338 0
M  V30 7467 H 712.075 3.22794 0.0188799 0
M  V30 7468 H 711.127 2.9623 -2.38646 0
M  V30 7469 H 712.439 4.01821 -2.95536 0
M  V30 7470 H 711.593 5.87666 -1.50777 0
M  V30 7471 H 710.332 4.80491 -0.83544 0
M  V30 7472 H 709.337 4.52477 -3.12321 0
M  V30 7473 H 710.562 5.63098 -3.79601 0
M  V30 7474 H 708.508 6.3443 -1.66838 0
M  V30 7475 H 708.425 6.78035 -3.34372 0
M  V30 7476 H 709.693 7.43254 -2.34934 0
M  V30 7477 N 713.922 1.13953 1.08869 0
M  V30 7478 C 715.168 0.906151 1.8143 0
M  V30 7479 C 715.501 -0.566089 1.85766 0
M  V30 7480 O 714.776 -1.41915 1.33006 0
M  V30 7481 C 715.059 1.50183 3.27287 0
M  V30 7482 C 714.912 3.04359 3.31189 0
M  V30 7483 C 716.231 1.17477 4.24131 0
M  V30 7484 H 713.35 0.330624 0.658678 0
M  V30 7485 H 715.992 1.40873 1.27495 0
M  V30 7486 H 714.142 1.07442 3.73348 0
M  V30 7487 H 715.814 3.55896 2.93488 0
M  V30 7488 H 714.057 3.39053 2.70602 0
M  V30 7489 H 714.728 3.41141 4.33966 0
M  V30 7490 H 717.204 1.5442 3.86385 0
M  V30 7491 H 716.08 1.61795 5.24513 0
M  V30 7492 H 716.341 0.0893312 4.4201 0
M  V30 7493 N 715.4 -1.26948 0.933913 0
M  V30 7494 C 716.649 -1.93378 0.573409 0
M  V30 7495 C 716.962 -1.74148 -0.890614 0
M  V30 7496 O 718.168 -2.34971 -1.36017 0
M  V30 7497 C 716.624 -3.46449 0.974747 0
M  V30 7498 C 716.232 -3.74425 2.45988 0
M  V30 7499 C 717.976 -4.18924 0.685791 0
M  V30 7500 C 715.883 -5.209 2.8003 0
M  V30 7501 H 714.813 -0.723952 0.210736 0
M  V30 7502 H 717.464 -1.44143 1.13557 0
M  V30 7503 H 715.846 -3.94528 0.341181 0
M  V30 7504 H 717.02 -3.37079 3.14188 0
M  V30 7505 H 715.335 -3.15167 2.72138 0
M  V30 7506 H 717.932 -5.26786 0.916546 0
M  V30 7507 H 718.275 -4.14587 -0.377217 0
M  V30 7508 H 718.808 -3.76687 1.27874 0
M  V30 7509 H 715.547 -5.30332 3.85264 0
M  V30 7510 H 715.067 -5.59369 2.16485 0
M  V30 7511 H 716.746 -5.88837 2.68105 0
M  V30 7512 N 716.879 -0.700114 -1.41195 0
M  V30 7513 C 718.128 -0.230082 -2.00383 0
M  V30 7514 C 718.441 1.17857 -1.56106 0
M  V30 7515 O 719.647 1.74631 -2.07885 0
M  V30 7516 C 718.103 -0.360447 -3.5809 0
M  V30 7517 C 717.711 -1.77475 -4.11347 0
M  V30 7518 C 719.455 0.0495799 -4.24471 0
M  V30 7519 C 717.362 -1.85653 -5.61504 0
M  V30 7520 H 716.292 -0.0822633 -0.749499 0
M  V30 7521 H 718.943 -0.868969 -1.6162 0
M  V30 7522 H 717.325 0.346768 -3.94479 0
M  V30 7523 H 718.499 -2.51109 -3.86369 0
M  V30 7524 H 716.814 -2.13486 -3.57509 0
M  V30 7525 H 719.411 0.00898219 -5.34699 0
M  V30 7526 H 719.754 1.08904 -4.01803 0
M  V30 7527 H 720.287 -0.607521 -3.93134 0
M  V30 7528 H 717.026 -2.87667 -5.89006 0
M  V30 7529 H 716.546 -1.1641 -5.88395 0
M  V30 7530 H 718.225 -1.62151 -6.26351 0
M  V30 7531 N 718.357 1.51182 -0.445186 0
M  V30 7532 C 719.32 2.26501 0.350722 0
M  V30 7533 C 720.32 1.3025 0.942952 0
M  V30 7534 O 721.51 1.53897 0.816175 0
M  V30 7535 C 718.642 3.06274 1.49697 0
M  V30 7536 H 719.835 2.98299 -0.309474 0
M  V30 7537 H 717.388 1.55034 -0.198551 0
M  V30 7538 H 718.123 2.38911 2.19299 0
M  V30 7539 H 717.908 3.76979 1.0784 0
M  V30 7540 H 719.398 3.63306 2.05909 0
M  V30 7541 N 719.835 0.176821 1.56605 0
M  V30 7542 C 721.063 -0.472828 2.01425 0
M  V30 7543 C 721.478 -1.56436 1.05703 0
M  V30 7544 O 720.835 -1.82405 0.058808 0
M  V30 7545 C 720.886 -1.04607 3.46034 0
M  V30 7546 O 720.607 0.00189608 4.381 0
M  V30 7547 C 722.108 -1.7734 4.06282 0
M  V30 7548 H 719.328 -0.120503 0.660091 0
M  V30 7549 H 721.872 0.280166 2.02572 0
M  V30 7550 H 720.027 -1.74953 3.45645 0
M  V30 7551 H 720.441 -0.422118 5.22799 0
M  V30 7552 H 721.915 -2.12703 5.09374 0
M  V30 7553 H 722.392 -2.67043 3.4869 0
M  V30 7554 H 722.998 -1.11623 4.10391 0
M  V30 7555 N 721.313 -1.57302 -0.09688 0
M  V30 7556 C 722.561 -1.8563 -0.799117 0
M  V30 7557 C 722.882 -0.765263 -1.79356 0
M  V30 7558 O 722.152 0.208657 -1.94786 0
M  V30 7559 H 720.732 -0.684937 -0.298111 0
M  V30 7560 H 723.394 -1.9474 -0.0789341 0
M  V30 7561 H 722.49 -2.82305 -1.3308 0
M  V30 7562 N 722.791 0.367657 -1.53252 0
M  V30 7563 C 723.754 1.43308 -1.78873 0
M  V30 7564 C 724.754 1.46671 -0.659115 0
M  V30 7565 O 725.944 1.47468 -0.927306 0
M  V30 7566 C 723.076 2.82442 -1.90892 0
M  V30 7567 H 724.269 1.21864 -2.74024 0
M  V30 7568 H 721.822 0.600668 -1.44297 0
M  V30 7569 H 722.557 3.09202 -0.978 0
M  V30 7570 H 722.342 2.81399 -2.73051 0
M  V30 7571 H 723.832 3.59601 -2.12314 0
M  V30 7572 N 724.269 1.44576 0.627338 0
M  V30 7573 C 725.685 1.28546 0.945938 0
M  V30 7574 C 725.885 0.224003 2.00251 0
M  V30 7575 O 724.941 -0.388817 2.49488 0
M  V30 7576 C 726.254 2.65825 1.40561 0
M  V30 7577 C 727.802 2.73566 1.52088 0
M  V30 7578 C 728.277 4.11323 2.01438 0
M  V30 7579 N 729.768 4.13519 2.08702 0
M  V30 7580 C 730.503 5.16964 2.48065 0
M  V30 7581 N 729.999 6.30768 2.86538 0
M  V30 7582 N 731.792 5.04319 2.48232 0
M  V30 7583 H 723.943 2.1228 -0.0713567 0
M  V30 7584 H 726.206 0.947503 0.0307081 0
M  V30 7585 H 725.912 3.44591 0.703539 0
M  V30 7586 H 725.786 2.92969 2.37591 0
M  V30 7587 H 728.173 1.95116 2.21391 0
M  V30 7588 H 728.254 2.50159 0.534237 0
M  V30 7589 H 727.898 4.9025 1.32729 0
M  V30 7590 H 727.828 4.32109 3.0098 0
M  V30 7591 H 730.319 3.31385 1.81638 0
M  V30 7592 H 730.632 7.0551 3.15398 0
M  V30 7593 H 728.977 6.342 2.84281 0
M  V30 7594 H 732.168 4.14465 2.17569 0
M  V30 7595 H 732.341 5.85059 2.78585 0
M  V30 7596 N 725.747 -0.868086 1.31537 0
M  V30 7597 C 726.993 -1.62359 1.2252 0
M  V30 7598 C 727.348 -1.91204 -0.214169 0
M  V30 7599 O 726.641 -1.5339 -1.14813 0
M  V30 7600 C 726.835 -2.95889 2.0046 0
M  V30 7601 C 726.664 -2.80082 3.5183 0
M  V30 7602 C 725.434 -2.7917 4.21179 0
M  V30 7603 C 727.632 -2.54805 4.46743 0
M  V30 7604 N 725.614 -2.54433 5.58692 0
M  V30 7605 C 726.985 -2.39349 5.71937 0
M  V30 7606 C 729.04 -2.40165 4.36148 0
M  V30 7607 C 727.743 -2.1074 6.87736 0
M  V30 7608 C 729.769 -2.12945 5.51732 0
M  V30 7609 C 729.131 -1.98278 6.75918 0
M  V30 7610 H 725.23 -0.598381 0.503452 0
M  V30 7611 H 727.814 -1.02156 1.65748 0
M  V30 7612 H 725.985 -3.54095 1.59598 0
M  V30 7613 H 727.717 -3.60734 1.83447 0
M  V30 7614 H 724.472 -2.91621 3.73168 0
M  V30 7615 H 724.896 -2.45029 6.31102 0
M  V30 7616 H 729.538 -2.50231 3.408 0
M  V30 7617 H 727.256 -1.99412 7.8311 0
M  V30 7618 H 730.842 -2.02415 5.45454 0
M  V30 7619 H 729.722 -1.77514 7.63845 0
M  V30 7620 N 727.225 -1.14528 -1.08264 0
M  V30 7621 C 728.173 -0.829201 -2.17318 0
M  V30 7622 C 729.167 0.193521 -1.68291 0
M  V30 7623 O 730.373 0.0494744 -1.79932 0
M  V30 7624 H 726.748 -0.250435 -0.709074 0
M  V30 7625 H 728.719 -1.75683 -2.41201 0
M  V30 7626 C 727.468 -0.324663 -3.46181 0
M  V30 7627 H 726.791 -1.10299 -3.84284 0
M  V30 7628 H 728.231 -0.142059 -4.23762 0
M  V30 7629 C 726.69 0.952033 -3.23169 0
M  V30 7630 O 727.22 2.02549 -3.46896 0
M  V30 7631 N 725.426 0.887854 -2.76705 0
M  V30 7632 H 724.973 0.0141402 -2.57596 0
M  V30 7633 H 724.931 1.74263 -2.61686 0
M  V30 7634 N 728.703 1.26451 -0.940633 0
M  V30 7635 C 729.931 1.97868 -0.604642 0
M  V30 7636 C 730.346 1.70051 0.820251 0
M  V30 7637 O 729.703 0.96843 1.54686 0
M  V30 7638 C 729.754 3.51684 -0.836689 0
M  V30 7639 O 729.475 3.78533 -2.20554 0
M  V30 7640 C 730.976 4.40343 -0.511169 0
M  V30 7641 H 728.196 0.631105 -0.227919 0
M  V30 7642 H 730.74 1.60979 -1.26119 0
M  V30 7643 H 728.895 3.86736 -0.226759 0
M  V30 7644 H 729.309 4.73065 -2.26517 0
M  V30 7645 H 730.783 5.47229 -0.724157 0
M  V30 7646 H 731.26 4.35694 0.553815 0
M  V30 7647 H 731.866 4.10834 -1.0998 0
M  V30 7648 N 730.181 0.707592 1.40822 0
M  V30 7649 C 731.458 0.171172 1.9485 0
M  V30 7650 C 731.838 -1.32143 1.64625 0
M  V30 7651 O 731.186 -2.07372 0.959647 0
M  V30 7652 C 731.396 0.475334 3.45748 0
M  V30 7653 C 732.744 0.409625 4.22619 0
M  V30 7654 O 733.768 0.410934 3.53822 0
M  V30 7655 O 732.627 0.380185 5.45176 0
M  V30 7656 H 729.721 0.022015 0.826707 0
M  V30 7657 H 732.267 0.784577 1.50474 0
M  V30 7658 H 731.039 1.50801 3.61075 0
M  V30 7659 H 730.662 -0.168439 3.97243 0
M  V30 7660 N 731.66 -1.50943 0.453197 0
M  V30 7661 C 732.908 -2.01813 -0.107709 0
M  V30 7662 C 733.229 -1.33841 -1.41816 0
M  V30 7663 O 732.499 -0.477973 -1.8998 0
M  V30 7664 H 731.079 -0.745773 -0.0427948 0
M  V30 7665 H 733.741 -1.8545 0.599531 0
M  V30 7666 H 732.837 -3.10911 -0.27218 0
M  V30 7667 N 733.138 -0.185124 -1.56509 0
M  V30 7668 C 734.366 0.462139 -2.01673 0
M  V30 7669 C 734.781 1.55873 -1.06532 0
M  V30 7670 O 734.138 1.82371 -0.0684805 0
M  V30 7671 C 734.189 1.0277 -3.46584 0
M  V30 7672 O 733.91 -0.0251296 -4.38093 0
M  V30 7673 C 735.411 1.75183 -4.07217 0
M  V30 7674 H 732.631 0.117001 -0.660721 0
M  V30 7675 H 735.175 -0.290905 -2.0242 0
M  V30 7676 H 733.33 1.73118 -3.46568 0
M  V30 7677 H 733.744 0.394387 -5.23015 0
M  V30 7678 H 735.218 2.09999 -5.10494 0
M  V30 7679 H 735.695 2.6519 -3.50101 0
M  V30 7680 H 736.301 1.09445 -4.10977 0
M  V30 7681 N 734.616 1.57351 0.0885366 0
M  V30 7682 C 735.564 2.03542 1.12576 0
M  V30 7683 C 736.558 0.937668 1.41082 0
M  V30 7684 O 737.764 1.12283 1.40686 0
M  V30 7685 H 734.139 0.648752 0.380296 0
M  V30 7686 H 736.11 2.89833 0.709906 0
M  V30 7687 C 734.859 2.4811 2.43591 0
M  V30 7688 H 734.182 3.32164 2.22502 0
M  V30 7689 H 735.622 2.842 3.14653 0
M  V30 7690 C 734.081 1.35708 3.08359 0
M  V30 7691 O 734.611 0.689852 3.95732 0
M  V30 7692 N 732.817 1.10641 2.68713 0
M  V30 7693 H 732.364 1.6508 1.97753 0
M  V30 7694 H 732.322 0.356355 3.12374 0
M  V30 7695 N 736.094 -0.359525 1.53444 0
M  V30 7696 C 737.334 -1.11014 1.71625 0
M  V30 7697 C 737.698 -1.86376 0.46132 0
M  V30 7698 O 738.899 -2.63724 0.519908 0
M  V30 7699 C 737.17 -2.03907 2.93524 0
M  V30 7700 S 738.729 -2.86408 3.3244 0
M  V30 7701 H 735.547 -0.375352 0.603847 0
M  V30 7702 H 738.149 -0.390604 1.91558 0
M  V30 7703 H 736.853 -1.47316 3.83048 0
M  V30 7704 H 736.384 -2.80324 2.76011 0
M  V30 7705 H 738.399 -4.06241 2.84926 0
M  V30 7706 N 737.572 -1.44907 -0.619662 0
M  V30 7707 C 738.502 -1.55488 -1.742 0
M  V30 7708 C 739.483 -0.407143 -1.65156 0
M  V30 7709 O 740.668 -0.628743 -1.8374 0
M  V30 7710 C 737.798 -1.5097 -3.1277 0
M  V30 7711 C 736.752 -2.64337 -3.36615 0
M  V30 7712 C 736.078 -2.44872 -4.75333 0
M  V30 7713 C 737.378 -4.06423 -3.28051 0
M  V30 7714 H 739.072 -2.49432 -1.65602 0
M  V30 7715 H 736.618 -1.20047 -0.795281 0
M  V30 7716 H 738.571 -1.56971 -3.91073 0
M  V30 7717 H 737.295 -0.535486 -3.2218 0
M  V30 7718 H 735.954 -2.57744 -2.60698 0
M  V30 7719 H 735.602 -1.45617 -4.81461 0
M  V30 7720 H 735.302 -3.20888 -4.92244 0
M  V30 7721 H 736.826 -2.52709 -5.55851 0
M  V30 7722 H 738.24 -4.14324 -3.96243 0
M  V30 7723 H 736.637 -4.82733 -3.56495 0
M  V30 7724 H 737.707 -4.29183 -2.25676 0
M  V30 7725 N 739.05 0.861098 -1.31996 0
M  V30 7726 C 740.278 1.6474 -1.25173 0
M  V30 7727 C 740.693 1.87926 0.181425 0
M  V30 7728 O 740.05 1.4437 1.1164 0
M  V30 7729 C 740.101 3.01036 -2.0015 0
M  V30 7730 O 739.822 2.7888 -3.37872 0
M  V30 7731 C 741.323 3.95481 -2.00273 0
M  V30 7732 H 738.543 0.513314 -0.432146 0
M  V30 7733 H 741.087 1.07419 -1.74016 0
M  V30 7734 H 739.242 3.55021 -1.55046 0
M  V30 7735 H 739.656 3.65514 -3.76165 0
M  V30 7736 H 741.13 4.88403 -2.57229 0
M  V30 7737 H 741.607 4.27957 -0.987407 0
M  V30 7738 H 742.213 3.47433 -2.45296 0
M  V30 7739 N 740.528 1.15101 1.07655 0
M  V30 7740 C 741.478 0.813448 2.12995 0
M  V30 7741 C 742.462 -0.200899 1.59641 0
M  V30 7742 O 743.654 -0.00209918 1.77 0
M  V30 7743 C 740.783 0.301078 3.41977 0
M  V30 7744 C 739.869 1.3454 4.02194 0
M  V30 7745 N 740.26 2.55181 4.36711 0
M  V30 7746 C 738.558 1.19742 4.29625 0
M  V30 7747 C 739.259 3.22094 4.84387 0
M  V30 7748 N 738.235 2.49486 4.82968 0
M  V30 7749 H 742.037 1.73105 2.37511 0
M  V30 7750 H 739.551 1.03601 1.25063 0
M  V30 7751 H 741.548 0.040914 4.1688 0
M  V30 7752 H 740.208 -0.610629 3.18907 0
M  V30 7753 H 741.219 2.92349 4.27496 0
M  V30 7754 H 737.896 0.345353 4.16069 0
M  V30 7755 H 739.286 4.24996 5.20411 0
M  V30 7756 N 742.006 -1.2595 0.947325 0
M  V30 7757 C 743.283 -1.88676 0.515824 0
M  V30 7758 C 743.663 -1.85547 -1.00675 0
M  V30 7759 O 743.011 -1.31399 -1.8694 0
M  V30 7760 C 743.221 -3.31734 1.08415 0
M  V30 7761 C 744.569 -4.08545 1.15654 0
M  V30 7762 O 745.593 -3.40826 1.03517 0
M  V30 7763 O 744.452 -5.29663 1.34608 0
M  V30 7764 H 741.546 -0.809537 0.169055 0
M  V30 7765 H 744.092 -1.34075 1.04029 0
M  V30 7766 H 742.864 -3.28404 2.1276 0
M  V30 7767 H 742.487 -3.93882 0.542499 0
M  V30 7768 N 743.484 -0.715051 -1.40445 0
M  V30 7769 C 744.895 -0.326763 -1.83818 0
M  V30 7770 C 745.246 1.13851 -1.59789 0
M  V30 7771 O 744.371 1.87611 -1.07848 0
M  V30 7772 C 744.966 -0.586297 -3.33688 0
M  V30 7773 C 743.525 -0.251724 -3.75557 0
M  V30 7774 C 742.672 -0.858928 -2.63662 0
M  V30 7775 H 745.623 -0.914241 -1.2972 0
M  V30 7776 H 745.644 0.148636 -3.8021 0
M  V30 7777 H 745.156 -1.65281 -3.51146 0
M  V30 7778 H 743.257 0.809754 -3.63695 0
M  V30 7779 H 743.37 -0.720348 -4.73654 0
M  V30 7780 H 741.734 -0.287013 -2.53078 0
M  V30 7781 H 742.517 -1.9297 -2.83932 0
M  V30 7782 N 744.962 1.50701 -0.461195 0
M  V30 7783 C 746.211 2.01458 0.0988277 0
M  V30 7784 C 746.524 1.34863 1.41673 0
M  V30 7785 O 747.73 1.76721 2.06111 0
M  V30 7786 C 746.186 3.59186 0.226648 0
M  V30 7787 C 745.794 4.34732 -1.08223 0
M  V30 7788 C 747.538 4.18015 0.73916 0
M  V30 7789 C 745.445 5.8422 -0.918747 0
M  V30 7790 H 744.375 0.7529 0.040709 0
M  V30 7791 H 747.026 1.736 -0.594589 0
M  V30 7792 H 745.408 3.83589 0.983621 0
M  V30 7793 H 746.582 4.22059 -1.84939 0
M  V30 7794 H 744.897 3.87466 -1.52509 0
M  V30 7795 H 747.494 5.27436 0.878347 0
M  V30 7796 H 747.837 3.78746 1.72793 0
M  V30 7797 H 748.37 3.9778 0.0398469 0
M  V30 7798 H 745.109 6.27944 -1.88059 0
M  V30 7799 H 744.629 5.99493 -0.191801 0
M  V30 7800 H 746.308 6.44382 -0.581405 0
M  V30 7801 N 746.441 0.193421 1.56409 0
M  V30 7802 C 747.852 -0.319471 1.83946 0
M  V30 7803 C 748.203 -1.61505 1.11403 0
M  V30 7804 O 747.328 -2.13139 0.374289 0
M  V30 7805 C 747.923 -0.586411 3.33686 0
M  V30 7806 C 746.482 -1.04368 3.61641 0
M  V30 7807 C 745.629 -0.0913834 2.77149 0
M  V30 7808 H 748.58 0.417242 1.53117 0
M  V30 7809 H 748.601 -1.43591 3.52366 0
M  V30 7810 H 748.113 0.356701 3.86457 0
M  V30 7811 H 746.214 -2.00113 3.14302 0
M  V30 7812 H 746.327 -0.937549 4.69837 0
M  V30 7813 H 744.691 -0.592954 2.47702 0
M  V30 7814 H 745.474 0.846142 3.32709 0
M  V30 7815 N 747.919 -1.57396 -0.0801906 0
M  V30 7816 C 749.167 -1.86467 -0.779384 0
M  V30 7817 C 749.488 -0.784243 -1.78535 0
M  V30 7818 O 748.758 0.187986 -1.94996 0
M  V30 7819 H 747.338 -0.68806 -0.29083 0
M  V30 7820 H 750 -1.94813 -0.0582749 0
M  V30 7821 H 749.096 -2.83701 -1.30078 0
M  V30 7822 N 749.397 0.351382 -1.53633 0
M  V30 7823 C 750.36 1.41403 -1.80383 0
M  V30 7824 C 751.36 1.45963 -0.674635 0
M  V30 7825 O 752.55 1.46476 -0.942895 0
M  V30 7826 C 749.682 2.80401 -1.93876 0
M  V30 7827 H 750.875 1.18951 -2.75301 0
M  V30 7828 H 748.428 0.58533 -1.44926 0
M  V30 7829 H 749.163 3.08147 -1.01074 0
M  V30 7830 H 748.948 2.78488 -2.7602 0
M  V30 7831 H 750.438 3.57329 -2.16116 0
M  V30 7832 N 750.875 1.45233 0.611969 0
M  V30 7833 C 752.152 1.39495 1.37115 0
M  V30 7834 C 752.532 0.0633303 2.11005 0
M  V30 7835 O 751.88 -0.954617 2.07604 0
M  V30 7836 C 752.09 2.60579 2.32163 0
M  V30 7837 C 753.438 3.05477 2.94905 0
M  V30 7838 O 754.462 2.60921 2.42485 0
M  V30 7839 O 753.321 3.82787 3.90047 0
M  V30 7840 H 750.415 0.55335 0.614599 0
M  V30 7841 H 752.961 1.57355 0.635423 0
M  V30 7842 H 751.733 3.49085 1.76793 0
M  V30 7843 H 751.356 2.45031 3.13122 0
M  V30 7844 N 752.353 -0.854086 1.3245 0
M  V30 7845 C 753.316 -1.94427 1.21371 0
M  V30 7846 C 754.316 -1.60219 0.136613 0
M  V30 7847 O 755.506 -1.69846 0.387057 0
M  V30 7848 C 752.638 -3.29698 0.866701 0
M  V30 7849 H 753.831 -2.05679 2.18257 0
M  V30 7850 H 751.384 -1.04434 1.1629 0
M  V30 7851 H 752.119 -3.24145 -0.100319 0
M  V30 7852 H 751.904 -3.55903 1.64545 0
M  V30 7853 H 753.394 -4.09599 0.813515 0
M  V30 7854 N 753.831 -1.1567 -1.07043 0
M  V30 7855 C 755.056 -0.957946 -1.83952 0
M  V30 7856 C 755.481 0.488807 -1.81638 0
M  V30 7857 O 754.839 1.34869 -1.21162 0
M  V30 7858 C 754.887 -1.48064 -3.288 0
M  V30 7859 O 753.991 -0.681921 -4.06723 0
M  V30 7860 H 753.332 -0.341453 -0.569479 0
M  V30 7861 H 755.862 -1.53728 -1.35015 0
M  V30 7862 H 755.872 -1.49484 -3.7963 0
M  V30 7863 H 754.547 -2.53388 -3.29799 0
M  V30 7864 H 753.124 -0.737612 -3.65532 0
M  V30 7865 N 755.309 1.25446 -0.953992 0
M  V30 7866 C 756.239 2.28264 -0.491717 0
M  V30 7867 C 757.22 1.63717 0.461617 0
M  V30 7868 O 758.405 1.90821 0.36071 0
M  V30 7869 C 755.535 3.46525 0.231915 0
M  V30 7870 C 754.489 4.23247 -0.636098 0
M  V30 7871 C 753.815 5.34254 0.218238 0
M  V30 7872 C 755.115 4.85971 -1.91389 0
M  V30 7873 H 756.809 2.67183 -1.35106 0
M  V30 7874 H 754.355 1.2844 -0.651095 0
M  V30 7875 H 756.308 4.17576 0.566439 0
M  V30 7876 H 755.032 3.06594 1.12551 0
M  V30 7877 H 753.691 3.53978 -0.953696 0
M  V30 7878 H 753.339 4.90564 1.11156 0
M  V30 7879 H 753.039 5.86501 -0.359232 0
M  V30 7880 H 754.563 6.08138 0.547743 0
M  V30 7881 H 755.977 5.49168 -1.64581 0
M  V30 7882 H 754.374 5.48391 -2.43696 0
M  V30 7883 H 755.444 4.08192 -2.61738 0
M  V30 7884 N 756.787 0.722489 1.40064 0
M  V30 7885 C 758.198 0.336507 1.83642 0
M  V30 7886 C 758.549 -1.13002 1.6039 0
M  V30 7887 O 757.674 -1.87036 1.08842 0
M  V30 7888 C 758.269 0.603985 3.33373 0
M  V30 7889 C 756.828 0.271637 3.75419 0
M  V30 7890 C 755.975 0.872898 2.63203 0
M  V30 7891 H 758.926 0.921108 1.29233 0
M  V30 7892 H 758.947 -0.128471 3.80283 0
M  V30 7893 H 758.459 1.67141 3.50265 0
M  V30 7894 H 756.56 -0.790455 3.64119 0
M  V30 7895 H 756.673 0.745457 4.73265 0
M  V30 7896 H 755.037 0.300431 2.52922 0
M  V30 7897 H 755.82 1.94473 2.82905 0
M  V30 7898 N 758.265 -1.50454 0.469181 0
M  V30 7899 C 759.542 -1.9504 -0.147955 0
M  V30 7900 C 759.922 -1.40946 -1.57154 0
M  V30 7901 O 759.27 -0.609663 -2.20217 0
M  V30 7902 C 759.48 -3.48875 -0.0932198 0
M  V30 7903 C 760.828 -4.23655 -0.283056 0
M  V30 7904 O 761.852 -3.55795 -0.169892 0
M  V30 7905 O 760.711 -5.44102 -0.511396 0
M  V30 7906 H 757.805 -0.819283 -0.11271 0
M  V30 7907 H 760.351 -1.6123 0.529446 0
M  V30 7908 H 759.123 -3.80791 0.900784 0
M  V30 7909 H 758.746 -3.89217 -0.812161 0
M  V30 7910 N 759.743 -0.201713 -1.56304 0
M  V30 7911 C 760.675 0.748466 -2.16635 0
M  V30 7912 C 761.688 1.172 -1.12996 0
M  V30 7913 O 762.877 1.10658 -1.40061 0
M  V30 7914 C 759.977 2.02296 -2.719 0
M  V30 7915 C 759.15 1.75818 -4.00508 0
M  V30 7916 C 758.209 2.87779 -4.40533 0
M  V30 7917 O 757.235 2.57101 -5.07826 0
M  V30 7918 N 758.437 4.16287 -4.04581 0
M  V30 7919 H 761.202 0.232505 -2.98797 0
M  V30 7920 H 758.763 -0.0199822 -1.61888 0
M  V30 7921 H 760.755 2.7635 -2.95657 0
M  V30 7922 H 759.325 2.44996 -1.94154 0
M  V30 7923 H 758.545 0.855095 -3.84814 0
M  V30 7924 H 759.833 1.55532 -4.84445 0
M  V30 7925 H 759.231 4.44061 -3.50466 0
M  V30 7926 H 757.788 4.86946 -4.33274 0
M  V30 7927 N 761.222 1.57436 0.0718424 0
M  V30 7928 C 762.152 2.06724 1.08571 0
M  V30 7929 C 763.133 0.960731 1.40371 0
M  V30 7930 O 764.318 1.23345 1.49999 0
M  V30 7931 C 761.448 2.51112 2.39916 0
M  V30 7932 C 760.402 3.65639 2.22469 0
M  V30 7933 C 759.728 3.96082 3.59198 0
M  V30 7934 C 761.028 4.95687 1.64596 0
M  V30 7935 H 762.722 2.91679 0.675569 0
M  V30 7936 H 760.268 1.40319 0.32352 0
M  V30 7937 H 762.221 2.84206 3.11135 0
M  V30 7938 H 760.945 1.63186 2.8291 0
M  V30 7939 H 759.604 3.32828 1.53691 0
M  V30 7940 H 759.252 3.05287 3.99761 0
M  V30 7941 H 758.952 4.73199 3.48362 0
M  V30 7942 H 760.476 4.31672 4.31847 0
M  V30 7943 H 761.89 5.27011 2.25681 0
M  V30 7944 H 760.287 5.77126 1.64457 0
M  V30 7945 H 761.357 4.8108 0.60744 0
M  V30 7946 N 762.7 -0.34323 1.53817 0
M  V30 7947 C 763.928 -1.10348 1.75017 0
M  V30 7948 C 764.343 -1.82345 0.489475 0
M  V30 7949 O 763.7 -1.74362 -0.538886 0
M  V30 7950 C 763.751 -2.11672 2.93048 0
M  V30 7951 O 763.472 -1.42603 4.14241 0
M  V30 7952 C 764.973 -3.0007 3.26301 0
M  V30 7953 H 762.193 -0.329056 0.584776 0
M  V30 7954 H 764.737 -0.395339 2.00642 0
M  V30 7955 H 762.892 -2.78051 2.69753 0
M  V30 7956 H 763.306 -2.10294 4.80496 0
M  V30 7957 H 764.78 -3.67101 4.12239 0
M  V30 7958 H 765.257 -3.66105 2.42618 0
M  V30 7959 H 765.863 -2.3928 3.51604 0
M  V30 7960 N 764.178 -1.45556 -0.604258 0
M  V30 7961 C 765.589 -1.44171 -1.18624 0
M  V30 7962 C 765.94 -0.171081 -1.95453 0
M  V30 7963 O 765.065 0.727156 -2.03817 0
M  V30 7964 C 765.66 -2.61193 -2.15786 0
M  V30 7965 C 764.219 -2.62918 -2.69353 0
M  V30 7966 C 763.366 -2.36479 -1.4482 0
M  V30 7967 H 766.317 -1.53747 -0.393381 0
M  V30 7968 H 766.338 -2.35481 -2.98879 0
M  V30 7969 H 765.85 -3.53656 -1.59841 0
M  V30 7970 H 763.951 -1.7447 -3.29228 0
M  V30 7971 H 764.064 -3.6224 -3.13559 0
M  V30 7972 H 762.428 -1.86103 -1.73891 0
M  V30 7973 H 763.211 -3.31091 -0.907376 0
M  V30 7974 N 765.656 0.84705 -1.32902 0
M  V30 7975 C 766.566 1.98845 -1.2449 0
M  V30 7976 C 767.582 1.7329 -0.15702 0
M  V30 7977 O 768.758 1.978 -0.379104 0
M  V30 7978 C 765.823 3.32679 -0.975985 0
M  V30 7979 C 764.884 3.71405 -2.15306 0
M  V30 7980 C 764.117 4.98853 -1.89688 0
M  V30 7981 O 764.34 5.64134 -0.843168 0
M  V30 7982 O 763.274 5.34889 -2.76002 0
M  V30 7983 H 767.1 2.0888 -2.2046 0
M  V30 7984 H 764.685 0.978852 -1.12867 0
M  V30 7985 H 766.567 4.12885 -0.842826 0
M  V30 7986 H 765.242 3.23667 -0.0464954 0
M  V30 7987 H 764.149 2.91743 -2.34172 0
M  V30 7988 H 765.482 3.85073 -3.06561 0
M  V30 7989 N 767.134 1.16236 1.06428 0
M  V30 7990 C 768.066 0.825446 2.1382 0
M  V30 7991 C 769.079 -0.166707 1.61944 0
M  V30 7992 O 770.268 0.0578606 1.78406 0
M  V30 7993 C 767.368 0.208023 3.38261 0
M  V30 7994 C 766.541 1.23994 4.19457 0
M  V30 7995 C 765.6 0.642569 5.22262 0
M  V30 7996 O 764.626 1.31106 5.53895 0
M  V30 7997 N 765.828 -0.571327 5.77682 0
M  V30 7998 H 768.593 1.7497 2.43322 0
M  V30 7999 H 766.154 1.05951 1.22417 0
M  V30 8000 H 768.146 -0.204608 4.04182 0
M  V30 8001 H 766.716 -0.619752 3.06395 0
M  V30 8002 H 765.936 1.82879 3.49212 0
M  V30 8003 H 767.224 1.93638 4.70512 0
M  V30 8004 H 766.622 -1.13263 5.54245 0
M  V30 8005 H 765.179 -0.926187 6.45186 0
M  V30 8006 N 768.612 -1.24939 0.960631 0
M  V30 8007 C 769.858 -1.93104 0.61958 0
M  V30 8008 C 770.191 -1.74991 -0.84212 0
M  V30 8009 O 769.466 -1.09867 -1.60498 0
M  V30 8010 C 769.749 -3.46326 0.986422 0
M  V30 8011 C 769.602 -3.73638 2.50429 0
M  V30 8012 C 770.921 -4.37067 0.515827 0
M  V30 8013 H 768.04 -0.701311 0.226566 0
M  V30 8014 H 770.682 -1.47442 1.19836 0
M  V30 8015 H 768.832 -3.85348 0.493907 0
M  V30 8016 H 770.504 -3.44217 3.07103 0
M  V30 8017 H 768.747 -3.19035 2.93937 0
M  V30 8018 H 769.418 -4.80815 2.71147 0
M  V30 8019 H 771.894 -4.05381 0.938389 0
M  V30 8020 H 770.77 -5.43022 0.80114 0
M  V30 8021 H 771.031 -4.38224 -0.584171 0
M  V30 8022 N 770.09 -0.729906 -1.39679 0
M  V30 8023 C 771.023 -0.0354454 -2.28172 0
M  V30 8024 C 772.001 0.752968 -1.44115 0
M  V30 8025 O 773.185 0.736599 -1.73512 0
M  V30 8026 C 770.312 0.957047 -3.24897 0
M  V30 8027 C 769.358 0.257734 -4.25721 0
M  V30 8028 S 770.191 -1.02466 -5.25605 0
M  V30 8029 C 771.347 -0.0346322 -6.2589 0
M  V30 8030 H 771.58 -0.785922 -2.86724 0
M  V30 8031 H 769.113 -0.521497 -1.45326 0
M  V30 8032 H 771.071 1.52441 -3.81146 0
M  V30 8033 H 769.732 1.68033 -2.65375 0
M  V30 8034 H 768.925 1.00854 -4.93806 0
M  V30 8035 H 768.527 -0.237454 -3.73245 0
M  V30 8036 H 770.819 0.807464 -6.72671 0
M  V30 8037 H 771.762 -0.682491 -7.04803 0
M  V30 8038 H 772.17 0.335492 -5.63502 0
M  V30 8039 N 771.568 1.50203 -0.477153 0
M  V30 8040 C 772.845 1.95115 0.137609 0
M  V30 8041 C 773.225 1.41778 1.56404 0
M  V30 8042 O 772.573 0.621333 2.1989 0
M  V30 8043 C 772.783 3.4892 0.0747168 0
M  V30 8044 C 774.131 4.238 0.260585 0
M  V30 8045 O 775.155 3.5588 0.151021 0
M  V30 8046 O 774.014 5.44366 0.482534 0
M  V30 8047 H 771.108 0.81987 0.108364 0
M  V30 8048 H 773.654 1.60946 -0.537989 0
M  V30 8049 H 772.426 3.80308 -0.920966 0
M  V30 8050 H 772.049 3.89642 0.791509 0
M  V30 8051 N 773.046 0.209999 1.56195 0
M  V30 8052 C 774.294 -0.423974 1.97603 0
M  V30 8053 C 774.615 -1.61112 1.09854 0
M  V30 8054 O 773.885 -1.95134 0.173032 0
M  V30 8055 H 772.465 -0.159629 0.729745 0
M  V30 8056 H 775.127 0.300205 1.92574 0
M  V30 8057 H 774.223 -0.75809 3.02753 0
M  V30 8058 N 774.524 -1.57472 -0.0634922 0
M  V30 8059 C 775.471 -2.04258 -1.07457 0
M  V30 8060 C 776.441 -0.924804 -1.37973 0
M  V30 8061 O 777.626 -1.19305 -1.48899 0
M  V30 8062 C 774.766 -2.49832 -2.38071 0
M  V30 8063 C 773.879 -3.75263 -2.14014 0
M  V30 8064 C 773.014 -4.09585 -3.38251 0
M  V30 8065 C 772.053 -5.28032 -3.09594 0
M  V30 8066 N 771.19 -5.57953 -4.26185 0
M  V30 8067 H 776.03 -2.90402 -0.668626 0
M  V30 8068 H 773.567 -1.43609 -0.318572 0
M  V30 8069 H 775.525 -2.7431 -3.14341 0
M  V30 8070 H 774.155 -1.66654 -2.76453 0
M  V30 8071 H 773.207 -3.58075 -1.28399 0
M  V30 8072 H 774.519 -4.61667 -1.88852 0
M  V30 8073 H 773.673 -4.35008 -4.2291 0
M  V30 8074 H 772.412 -3.21765 -3.66495 0
M  V30 8075 H 771.417 -5.02397 -2.23332 0
M  V30 8076 H 772.642 -6.17477 -2.82663 0
M  V30 8077 H 770.588 -4.73092 -4.54445 0
M  V30 8078 H 770.505 -6.38793 -4.04326 0
M  V30 8079 H 771.773 -5.87931 -5.11817 0
M  V30 8080 N 776.003 0.335068 -1.53997 0
M  V30 8081 C 776.95 1.41187 -1.82579 0
M  V30 8082 C 777.92 1.51897 -0.672061 0
M  V30 8083 O 779.105 1.673 -0.917346 0
M  V30 8084 C 776.245 2.77717 -2.0486 0
M  V30 8085 C 775.358 2.7573 -3.32561 0
M  V30 8086 C 774.493 4.04032 -3.44864 0
M  V30 8087 C 773.532 3.96308 -4.66483 0
M  V30 8088 N 772.669 5.16317 -4.75774 0
M  V30 8089 H 777.509 1.16113 -2.74448 0
M  V30 8090 H 775.046 0.562305 -1.35928 0
M  V30 8091 H 777.004 3.57071 -2.15768 0
M  V30 8092 H 775.634 3.01124 -1.16294 0
M  V30 8093 H 774.686 1.88432 -3.3045 0
M  V30 8094 H 775.998 2.65902 -4.22016 0
M  V30 8095 H 775.152 4.91814 -3.55251 0
M  V30 8096 H 773.891 4.16652 -2.53481 0
M  V30 8097 H 772.896 3.06911 -4.56164 0
M  V30 8098 H 774.121 3.85263 -5.5924 0
M  V30 8099 H 772.067 5.29464 -3.87303 0
M  V30 8100 H 771.984 5.08779 -5.59178 0
M  V30 8101 H 773.252 6.05846 -4.9048 0
M  V30 8102 N 777.481 1.45874 0.596531 0
M  V30 8103 C 778.428 1.55389 1.70655 0
M  V30 8104 C 779.398 0.399036 1.61236 0
M  V30 8105 O 780.583 0.61396 1.80652 0
M  V30 8106 C 777.723 1.53705 3.0898 0
M  V30 8107 C 776.836 2.79823 3.29125 0
M  V30 8108 C 775.971 2.69735 4.5762 0
M  V30 8109 C 775.01 3.90856 4.71061 0
M  V30 8110 N 774.147 3.79237 5.90867 0
M  V30 8111 H 778.987 2.50211 1.61859 0
M  V30 8112 H 776.524 1.24146 0.789069 0
M  V30 8113 H 778.482 1.50715 3.89026 0
M  V30 8114 H 777.112 0.624247 3.16706 0
M  V30 8115 H 776.164 2.92852 2.42779 0
M  V30 8116 H 777.476 3.69628 3.34927 0
M  V30 8117 H 776.63 2.64773 5.45875 0
M  V30 8118 H 775.369 1.77547 4.54234 0
M  V30 8119 H 774.374 3.96164 3.81227 0
M  V30 8120 H 775.599 4.84124 4.76236 0
M  V30 8121 H 773.545 2.89825 5.88504 0
M  V30 8122 H 773.462 4.62686 5.97877 0
M  V30 8123 H 774.73 3.78227 6.8159 0
M  V30 8124 N 778.959 -0.83999 1.33349 0
M  V30 8125 C 780.208 -1.59011 1.2409 0
M  V30 8126 C 780.521 -1.94655 -0.192029 0
M  V30 8127 O 781.727 -2.68438 -0.406617 0
M  V30 8128 C 780.183 -2.86801 2.17425 0
M  V30 8129 C 779.791 -2.58525 3.65881 0
M  V30 8130 C 781.535 -3.64823 2.17036 0
M  V30 8131 C 779.442 -3.82404 4.51133 0
M  V30 8132 H 778.372 -0.596731 0.460899 0
M  V30 8133 H 781.023 -0.926274 1.58406 0
M  V30 8134 H 779.405 -3.54719 1.7604 0
M  V30 8135 H 780.579 -1.98824 4.15699 0
M  V30 8136 H 778.894 -1.93808 3.68548 0
M  V30 8137 H 781.491 -4.56774 2.7796 0
M  V30 8138 H 781.834 -3.99663 1.16513 0
M  V30 8139 H 782.367 -3.03826 2.56777 0
M  V30 8140 H 779.106 -3.52696 5.52527 0
M  V30 8141 H 778.626 -4.41447 4.0606 0
M  V30 8142 H 780.305 -4.49995 4.6488 0
M  V30 8143 N 780.437 -1.16799 -1.0581 0
M  V30 8144 C 781.685 -0.950642 -1.78346 0
M  V30 8145 C 782.006 0.522524 -1.87869 0
M  V30 8146 O 781.276 1.3795 -1.39092 0
M  V30 8147 H 779.856 -0.348736 -0.6606 0
M  V30 8148 H 782.518 -1.47158 -1.27791 0
M  V30 8149 H 781.614 -1.37359 -2.80248 0
M  V30 8150 N 781.915 1.24427 -0.967243 0
M  V30 8151 C 782.862 2.25398 -0.496419 0
M  V30 8152 C 783.832 1.59667 0.457781 0
M  V30 8153 O 785.017 1.87213 0.368246 0
M  V30 8154 C 782.157 3.44474 0.207693 0
M  V30 8155 C 781.27 4.24804 -0.785221 0
M  V30 8156 C 780.405 5.31169 -0.0572631 0
M  V30 8157 C 779.444 6.03195 -1.04027 0
M  V30 8158 N 778.581 7.01265 -0.34235 0
M  V30 8159 H 783.421 2.65039 -1.36229 0
M  V30 8160 H 780.958 1.30288 -0.682902 0
M  V30 8161 H 782.916 4.12376 0.632612 0
M  V30 8162 H 781.546 3.05672 1.03752 0
M  V30 8163 H 780.598 3.56445 -1.32858 0
M  V30 8164 H 781.91 4.74599 -1.53483 0
M  V30 8165 H 781.064 6.05205 0.425674 0
M  V30 8166 H 779.803 4.8228 0.725047 0
M  V30 8167 H 778.808 5.27964 -1.53409 0
M  V30 8168 H 780.033 6.54173 -1.82302 0
M  V30 8169 H 777.979 6.54648 0.420993 0
M  V30 8170 H 777.896 7.48939 -1.03084 0
M  V30 8171 H 779.164 7.7941 0.118634 0
M  V30 8172 N 783.393 0.737304 1.3929 0
M  V30 8173 C 784.809 0.413132 1.5416 0
M  V30 8174 C 785.009 -1.07574 1.70382 0
M  V30 8175 O 784.065 -1.86185 1.70562 0
M  V30 8176 C 785.378 1.19817 2.75798 0
M  V30 8177 C 786.926 1.18662 2.89635 0
M  V30 8178 C 787.401 1.95427 4.14213 0
M  V30 8179 N 788.892 1.92605 4.21257 0
M  V30 8180 C 789.627 2.48808 5.16606 0
M  V30 8181 N 789.123 3.13659 6.1773 0
M  V30 8182 N 790.916 2.38829 5.08839 0
M  V30 8183 H 783.067 1.70243 1.27008 0
M  V30 8184 H 785.33 0.720802 0.61575 0
M  V30 8185 H 785.036 2.25179 2.70161 0
M  V30 8186 H 784.91 0.804144 3.68529 0
M  V30 8187 H 787.297 0.141112 2.94762 0
M  V30 8188 H 787.378 1.62003 1.97961 0
M  V30 8189 H 787.022 2.9998 4.09847 0
M  V30 8190 H 786.952 1.4949 5.04936 0
M  V30 8191 H 789.443 1.45362 3.48824 0
M  V30 8192 H 789.756 3.54006 6.8695 0
M  V30 8193 H 788.101 3.17749 6.1811 0
M  V30 8194 H 791.292 1.87806 4.28773 0
M  V30 8195 H 791.465 2.82929 5.82971 0
M  V30 8196 N 784.871 -1.49948 0.485112 0
M  V30 8197 C 786.117 -2.02695 -0.0651022 0
M  V30 8198 C 786.45 -1.36534 -1.38102 0
M  V30 8199 O 785.725 -0.495677 -1.88078 0
M  V30 8200 C 786.008 -3.59337 -0.234285 0
M  V30 8201 C 785.861 -4.3605 1.10364 0
M  V30 8202 C 787.18 -4.28996 -0.982351 0
M  V30 8203 H 784.299 -0.736666 -0.0221856 0
M  V30 8204 H 786.941 -1.7913 0.633433 0
M  V30 8205 H 785.091 -3.79546 -0.829262 0
M  V30 8206 H 786.763 -4.27377 1.73627 0
M  V30 8207 H 785.006 -3.99236 1.69686 0
M  V30 8208 H 785.677 -5.43959 0.938743 0
M  V30 8209 H 788.153 -4.13346 -0.477904 0
M  V30 8210 H 787.029 -5.38379 -1.06955 0
M  V30 8211 H 787.29 -3.93135 -2.02231 0
M  V30 8212 N 786.349 -0.21828 -1.56081 0
M  V30 8213 C 787.595 0.414921 -1.9851 0
M  V30 8214 C 787.928 1.59648 -1.10573 0
M  V30 8215 O 787.203 1.93818 -0.162695 0
M  V30 8216 C 787.486 0.852647 -3.4986 0
M  V30 8217 C 787.339 -0.33232 -4.48571 0
M  V30 8218 C 788.658 1.70998 -4.05521 0
M  V30 8219 H 785.777 0.149344 -0.72171 0
M  V30 8220 H 788.419 -0.313858 -1.8739 0
M  V30 8221 H 786.569 1.47362 -3.59467 0
M  V30 8222 H 788.241 -0.970418 -4.50977 0
M  V30 8223 H 786.484 -0.980302 -4.22578 0
M  V30 8224 H 787.155 0.0168407 -5.51997 0
M  V30 8225 H 789.631 1.18606 -3.98838 0
M  V30 8226 H 788.507 1.98517 -5.11744 0
M  V30 8227 H 788.768 2.67219 -3.52202 0
M  V30 8228 N 787.827 1.57504 0.0551401 0
M  V30 8229 C 789.076 1.87237 0.750009 0
M  V30 8230 C 789.389 0.813268 1.77891 0
M  V30 8231 O 790.595 0.99898 2.52453 0
M  V30 8232 C 789.051 3.32187 1.38491 0
M  V30 8233 C 788.659 4.46267 0.393707 0
M  V30 8234 C 790.403 3.71101 2.06117 0
M  V30 8235 C 788.31 5.82265 1.03547 0
M  V30 8236 H 787.24 0.698524 0.283866 0
M  V30 8237 H 789.891 1.835 0.00365997 0
M  V30 8238 H 788.273 3.30588 2.18008 0
M  V30 8239 H 789.447 4.59289 -0.372865 0
M  V30 8240 H 787.762 4.16015 -0.17902 0
M  V30 8241 H 790.359 4.70012 2.54937 0
M  V30 8242 H 790.702 3.01751 2.86796 0
M  V30 8243 H 791.235 3.74762 1.33409 0
M  V30 8244 H 787.974 6.54949 0.268644 0
M  V30 8245 H 787.494 5.73012 1.7725 0
M  V30 8246 H 789.173 6.28148 1.55047 0
M  V30 8247 N 789.305 -0.326896 1.54172 0
M  V30 8248 C 790.235 -1.40741 1.86317 0
M  V30 8249 C 791.216 -1.54125 0.719684 0
M  V30 8250 O 792.401 -1.6806 0.973117 0
M  V30 8251 C 789.531 -2.77557 2.08757 0
M  V30 8252 C 788.485 -2.78965 3.24596 0
M  V30 8253 C 787.811 -4.18824 3.32401 0
M  V30 8254 C 789.111 -2.4301 4.62324 0
M  V30 8255 H 790.805 -1.14088 2.76811 0
M  V30 8256 H 788.351 -0.547389 1.3319 0
M  V30 8257 H 790.304 -3.53209 2.29829 0
M  V30 8258 H 789.028 -3.0568 1.15009 0
M  V30 8259 H 787.687 -2.05767 3.03406 0
M  V30 8260 H 787.335 -4.44083 2.36218 0
M  V30 8261 H 787.035 -4.20673 4.10253 0
M  V30 8262 H 788.559 -4.96294 3.55703 0
M  V30 8263 H 789.973 -3.08375 4.83299 0
M  V30 8264 H 788.37 -2.56116 5.42701 0
M  V30 8265 H 789.44 -1.38165 4.64799 0
M  V30 8266 N 790.784 -1.46188 -0.588786 0
M  V30 8267 C 791.732 -1.56653 -1.71938 0
M  V30 8268 C 792.726 -0.435354 -1.6371 0
M  V30 8269 O 793.932 -0.611996 -1.69277 0
M  V30 8270 H 790.307 -0.492408 -0.568365 0
M  V30 8271 H 792.278 -2.51724 -1.60242 0
M  V30 8272 C 791.027 -1.56822 -3.10326 0
M  V30 8273 H 790.35 -2.43198 -3.17325 0
M  V30 8274 H 791.79 -1.68199 -3.89211 0
M  V30 8275 C 790.249 -0.295802 -3.35599 0
M  V30 8276 O 790.779 0.616515 -3.96941 0
M  V30 8277 N 788.985 -0.185609 -2.90007 0
M  V30 8278 H 788.532 -0.928914 -2.40269 0
M  V30 8279 H 788.49 0.664883 -3.07289 0
M  V30 8280 N 792.262 0.832906 -1.33792 0
M  V30 8281 C 793.225 1.92471 -1.24449 0
M  V30 8282 C 794.225 1.59981 -0.162085 0
M  V30 8283 O 795.415 1.69208 -0.414029 0
M  V30 8284 C 792.547 3.28278 -0.919044 0
M  V30 8285 H 793.74 2.0218 -2.21502 0
M  V30 8286 H 791.293 1.0257 -1.17936 0
M  V30 8287 H 792.028 3.24263 0.048738 0
M  V30 8288 H 791.813 3.53241 -1.70187 0
M  V30 8289 H 793.303 4.08253 -0.878576 0
M  V30 8290 N 793.74 1.17359 1.05189 0
M  V30 8291 C 795.017 0.871914 1.75091 0
M  V30 8292 C 795.397 -0.627821 2.01548 0
M  V30 8293 O 794.745 -1.5791 1.65156 0
M  V30 8294 C 794.955 1.70687 3.04413 0
M  V30 8295 C 796.303 1.92684 3.78362 0
M  V30 8296 O 797.327 1.67645 3.14282 0
M  V30 8297 O 796.186 2.34765 4.93505 0
M  V30 8298 H 793.28 0.322831 0.761386 0
M  V30 8299 H 795.826 1.28054 1.11357 0
M  V30 8300 H 794.598 2.72405 2.80911 0
M  V30 8301 H 794.221 1.29602 3.75884 0
M  V30 8302 N 795.218 -1.23913 0.973828 0
M  V30 8303 C 796.446 -1.96195 0.656891 0
M  V30 8304 C 796.861 -1.72166 -0.774876 0
M  V30 8305 O 796.218 -1.0091 -1.52064 0
M  V30 8306 C 796.269 -3.49342 0.929638 0
M  V30 8307 O 795.99 -3.72553 2.30512 0
M  V30 8308 C 797.491 -4.38833 0.627739 0
M  V30 8309 H 794.711 -0.624841 0.244572 0
M  V30 8310 H 797.255 -1.57579 1.30343 0
M  V30 8311 H 795.41 -3.85999 0.329216 0
M  V30 8312 H 795.824 -4.66893 2.3898 0
M  V30 8313 H 797.298 -5.45117 0.868991 0
M  V30 8314 H 797.775 -4.37009 -0.438104 0
M  V30 8315 H 798.381 -4.07773 1.20834 0
M  V30 8316 N 796.696 -0.74468 -1.38897 0
M  V30 8317 C 797.926 -0.306982 -2.04307 0
M  V30 8318 C 798.334 1.06652 -1.56275 0
M  V30 8319 O 797.677 1.68699 -0.72708 0
M  V30 8320 C 797.739 -0.241186 -3.5869 0
M  V30 8321 C 797.403 -1.55476 -4.2974 0
M  V30 8322 C 798.4 -2.50229 -4.55721 0
M  V30 8323 C 796.085 -1.82173 -4.68101 0
M  V30 8324 C 798.079 -3.69905 -5.19085 0
M  V30 8325 C 795.766 -3.02125 -5.31191 0
M  V30 8326 C 796.764 -3.95812 -5.56616 0
M  V30 8327 O 796.452 -5.13656 -6.18395 0
M  V30 8328 H 796.184 -0.130416 -0.663301 0
M  V30 8329 H 798.738 -1.01192 -1.78744 0
M  V30 8330 H 796.968 0.519925 -3.83189 0
M  V30 8331 H 798.657 0.165806 -4.05561 0
M  V30 8332 H 799.423 -2.30877 -4.26522 0
M  V30 8333 H 795.302 -1.10091 -4.47662 0
M  V30 8334 H 798.846 -4.43047 -5.38846 0
M  V30 8335 H 794.743 -3.21374 -5.59811 0
M  V30 8336 H 795.511 -5.14119 -6.36886 0
M  V30 8337 N 798.174 1.49689 -0.493057 0
M  V30 8338 C 799.421 2.02427 0.0542714 0
M  V30 8339 C 799.749 1.37339 1.37725 0
M  V30 8340 O 799.004 0.495523 1.89323 0
M  V30 8341 C 799.303 3.56427 0.263536 0
M  V30 8342 C 798.969 4.40111 -0.98046 0
M  V30 8343 C 797.631 4.62699 -1.32148 0
M  V30 8344 C 799.983 4.88847 -1.80771 0
M  V30 8345 C 797.311 5.31268 -2.48941 0
M  V30 8346 C 799.663 5.587 -2.96711 0
M  V30 8347 C 798.327 5.79536 -3.31202 0
M  V30 8348 H 797.597 0.740734 0.0198593 0
M  V30 8349 H 800.244 1.80073 -0.651603 0
M  V30 8350 H 798.549 3.77416 1.05186 0
M  V30 8351 H 800.246 3.94819 0.701348 0
M  V30 8352 H 796.836 4.22765 -0.704814 0
M  V30 8353 H 801.02 4.71231 -1.55741 0
M  V30 8354 H 796.276 5.45603 -2.75911 0
M  V30 8355 H 800.45 5.9544 -3.61143 0
M  V30 8356 H 798.077 6.32443 -4.21805 0
M  V30 8357 N 799.652 0.226554 1.55963 0
M  V30 8358 C 800.585 -0.721625 2.1649 0
M  V30 8359 C 801.563 -1.18745 1.11078 0
M  V30 8360 O 802.747 -1.26929 1.3936 0
M  V30 8361 C 799.874 -1.97828 2.74921 0
M  V30 8362 C 798.92 -1.65202 3.93206 0
M  V30 8363 S 799.753 -0.772419 5.299 0
M  V30 8364 C 800.909 -2.03853 5.91773 0
M  V30 8365 H 801.142 -0.207192 2.96577 0
M  V30 8366 H 798.675 0.0111976 1.54396 0
M  V30 8367 H 800.633 -2.69982 3.09225 0
M  V30 8368 H 799.294 -2.46384 1.94817 0
M  V30 8369 H 798.487 -2.58583 4.32609 0
M  V30 8370 H 798.089 -1.01108 3.60074 0
M  V30 8371 H 800.381 -2.98799 6.08051 0
M  V30 8372 H 801.324 -1.68831 6.87678 0
M  V30 8373 H 801.732 -2.18134 5.20651 0
M  V30 8374 N 801.13 -1.57531 -0.0467866 0
M  V30 8375 C 802.093 -2.04379 -1.03738 0
M  V30 8376 C 803.093 -0.944881 -1.3011 0
M  V30 8377 O 804.283 -1.20904 -1.25411 0
M  V30 8378 C 801.415 -2.44572 -2.37482 0
M  V30 8379 H 802.608 -2.93142 -0.633063 0
M  V30 8380 H 800.161 -1.53526 -0.293177 0
M  V30 8381 H 800.896 -1.58911 -2.82697 0
M  V30 8382 H 800.681 -3.24785 -2.19675 0
M  V30 8383 H 802.171 -2.81307 -3.08636 0
M  V30 8384 N 802.608 0.318715 -1.54344 0
M  V30 8385 C 804.019 0.89285 -1.63967 0
M  V30 8386 C 804.37 1.88712 -0.536855 0
M  V30 8387 O 803.495 2.13877 0.329457 0
M  V30 8388 C 804.09 1.62618 -2.97222 0
M  V30 8389 C 802.649 2.14897 -3.09025 0
M  V30 8390 C 801.796 0.975909 -2.5956 0
M  V30 8391 H 804.747 0.0961687 -1.58408 0
M  V30 8392 H 804.768 2.4907 -2.87653 0
M  V30 8393 H 804.28 0.902286 -3.77466 0
M  V30 8394 H 802.381 2.90387 -2.33465 0
M  V30 8395 H 802.494 2.39565 -4.14904 0
M  V30 8396 H 800.858 1.35646 -2.15574 0
M  V30 8397 H 801.641 0.266253 -3.42266 0
M  V30 8398 N 804.086 1.46499 0.581025 0
M  V30 8399 C 805.311 1.55708 1.37002 0
M  V30 8400 C 805.736 0.19942 1.8704 0
M  V30 8401 O 805.094 -0.820731 1.61659 0
M  V30 8402 C 805.142 2.56716 2.53238 0
M  V30 8403 O 804.246 2.10336 3.54729 0
M  V30 8404 H 803.587 0.523912 0.407937 0
M  V30 8405 H 806.117 1.92085 0.704602 0
M  V30 8406 H 806.127 2.76378 3.00132 0
M  V30 8407 H 804.802 3.55307 2.16171 0
M  V30 8408 H 803.379 2.00669 3.14303 0
M  V30 8409 N 805.565 -0.825799 1.34232 0
M  V30 8410 C 806.495 -1.95151 1.28212 0
M  V30 8411 C 807.476 -1.69345 0.160123 0
M  V30 8412 O 808.661 -1.90983 0.352019 0
M  V30 8413 C 805.791 -3.31554 1.03388 0
M  V30 8414 C 804.745 -3.71793 2.12023 0
M  V30 8415 C 804.071 -5.06147 1.72392 0
M  V30 8416 C 805.371 -3.84193 3.53826 0
M  V30 8417 H 807.065 -2.00445 2.22401 0
M  V30 8418 H 804.611 -0.962996 1.07063 0
M  V30 8419 H 806.564 -4.09889 0.978225 0
M  V30 8420 H 805.288 -3.26551 0.0564142 0
M  V30 8421 H 803.947 -2.95731 2.16654 0
M  V30 8422 H 803.595 -4.97628 0.733137 0
M  V30 8423 H 803.295 -5.34041 2.451 0
M  V30 8424 H 804.819 -5.86943 1.68317 0
M  V30 8425 H 806.233 -4.52806 3.51624 0
M  V30 8426 H 804.63 -4.23538 4.2513 0
M  V30 8427 H 805.7 -2.86272 3.91377 0
M  V30 8428 N 807.043 -1.17915 -1.04565 0
M  V30 8429 C 808.006 -0.903787 -2.10628 0
M  V30 8430 C 809.006 0.10873 -1.60432 0
M  V30 8431 O 810.196 -0.124152 -1.73757 0
M  V30 8432 C 807.328 -0.355017 -3.39046 0
M  V30 8433 H 808.521 -1.84425 -2.3649 0
M  V30 8434 H 806.074 -0.990477 -1.2091 0
M  V30 8435 H 806.809 0.592297 -3.18845 0
M  V30 8436 H 806.594 -1.08484 -3.76794 0
M  V30 8437 H 808.084 -0.180891 -4.17208 0
M  V30 8438 N 808.521 1.23394 -0.980386 0
M  V30 8439 C 809.431 2.28561 -0.528864 0
M  V30 8440 C 810.447 1.68946 0.416329 0
M  V30 8441 O 811.623 1.99355 0.286251 0
M  V30 8442 C 808.688 3.46323 0.16155 0
M  V30 8443 C 807.749 4.21297 -0.825044 0
M  V30 8444 C 806.982 5.33437 -0.167483 0
M  V30 8445 O 807.205 5.60812 1.04146 0
M  V30 8446 O 806.139 5.95637 -0.866047 0
M  V30 8447 H 809.965 2.69326 -1.40346 0
M  V30 8448 H 807.55 1.29325 -0.748019 0
M  V30 8449 H 809.432 4.17811 0.548841 0
M  V30 8450 H 808.107 3.0751 1.01092 0
M  V30 8451 H 807.014 3.52134 -1.26303 0
M  V30 8452 H 808.347 4.6396 -1.64322 0
M  V30 8453 N 809.999 0.752036 1.385 0
M  V30 8454 C 810.946 0.123288 2.3047 0
M  V30 8455 C 811.916 -0.711326 1.50098 0
M  V30 8456 O 813.101 -0.667775 1.78733 0
M  V30 8457 C 810.241 -0.765085 3.36512 0
M  V30 8458 C 809.354 0.0839885 4.31918 0
M  V30 8459 C 808.489 -0.807243 5.25031 0
M  V30 8460 C 807.528 0.0455583 6.12083 0
M  V30 8461 N 806.665 -0.802547 6.97498 0
M  V30 8462 H 811.505 0.913169 2.83664 0
M  V30 8463 H 809.042 0.46195 1.39658 0
M  V30 8464 H 811 -1.29476 3.966 0
M  V30 8465 H 809.63 -1.52077 2.84732 0
M  V30 8466 H 808.682 0.731276 3.73305 0
M  V30 8467 H 809.994 0.74265 4.9324 0
M  V30 8468 H 809.148 -1.40414 5.90228 0
M  V30 8469 H 807.887 -1.49964 4.64071 0
M  V30 8470 H 806.892 0.655137 5.45883 0
M  V30 8471 H 808.117 0.734994 6.75111 0
M  V30 8472 H 806.063 -1.47992 6.39089 0
M  V30 8473 H 805.98 -0.200747 7.55733 0
M  V30 8474 H 807.248 -1.38447 7.67107 0
M  V30 8475 N 811.477 -1.49425 0.500989 0
M  V30 8476 C 812.407 -2.31971 -0.266775 0
M  V30 8477 C 813.388 -1.40245 -0.962563 0
M  V30 8478 O 814.573 -1.69154 -0.953968 0
M  V30 8479 C 811.703 -3.20757 -1.33163 0
M  V30 8480 C 810.657 -4.21275 -0.75572 0
M  V30 8481 C 809.983 -4.98997 -1.92109 0
M  V30 8482 C 811.283 -5.21686 0.253213 0
M  V30 8483 H 812.977 -2.96408 0.422237 0
M  V30 8484 H 810.523 -1.4254 0.204505 0
M  V30 8485 H 812.476 -3.77315 -1.87646 0
M  V30 8486 H 811.2 -2.54263 -2.04983 0
M  V30 8487 H 809.859 -3.65861 -0.232637 0
M  V30 8488 H 809.507 -4.28951 -2.62698 0
M  V30 8489 H 809.207 -5.67011 -1.54182 0
M  V30 8490 H 810.731 -5.584 -2.47026 0
M  V30 8491 H 812.145 -5.72939 -0.203483 0
M  V30 8492 H 810.542 -5.9759 0.548322 0
M  V30 8493 H 811.612 -4.70596 1.16909 0
M  V30 8494 N 812.955 -0.234822 -1.55841 0
M  V30 8495 C 813.918 0.656378 -2.196 0
M  V30 8496 C 814.918 1.11179 -1.16171 0
M  V30 8497 O 816.108 1.01845 -1.41326 0
M  V30 8498 C 813.24 1.90072 -2.82993 0
M  V30 8499 H 814.433 0.100281 -2.99732 0
M  V30 8500 H 811.986 0.0147613 -1.56293 0
M  V30 8501 H 812.721 2.49836 -2.06767 0
M  V30 8502 H 812.506 1.5825 -3.58747 0
M  V30 8503 H 813.996 2.53538 -3.31826 0
M  V30 8504 N 814.433 1.57553 0.0384317 0
M  V30 8505 C 815.661 1.93093 0.743141 0
M  V30 8506 C 816.076 0.833787 1.69391 0
M  V30 8507 O 815.433 -0.190532 1.81503 0
M  V30 8508 C 815.484 3.28533 1.50826 0
M  V30 8509 O 815.205 4.34032 0.595665 0
M  V30 8510 C 816.706 3.78297 2.31098 0
M  V30 8511 H 813.926 0.637486 0.20941 0
M  V30 8512 H 816.47 2.045 -0.00125154 0
M  V30 8513 H 814.625 3.18552 2.20462 0
M  V30 8514 H 815.039 5.12155 1.13124 0
M  V30 8515 H 816.513 4.75602 2.80191 0
M  V30 8516 H 816.99 3.09008 3.12107 0
M  V30 8517 H 817.596 3.91331 1.66555 0
M  V30 8518 N 815.911 -0.310526 1.54511 0
M  V30 8519 C 816.874 -1.3657 1.84068 0
M  V30 8520 C 817.874 -1.44123 0.713097 0
M  V30 8521 O 819.064 -1.43924 0.981399 0
M  V30 8522 C 816.196 -2.75162 2.01243 0
M  V30 8523 H 817.389 -1.1161 2.78358 0
M  V30 8524 H 814.942 -0.546699 1.46427 0
M  V30 8525 H 815.677 -3.05359 1.09208 0
M  V30 8526 H 815.462 -2.71071 2.83307 0
M  V30 8527 H 816.952 -3.51473 2.25514 0
M  V30 8528 N 817.389 -1.46805 -0.573248 0
M  V30 8529 C 818.637 -1.52302 -1.32847 0
M  V30 8530 C 818.958 -0.180159 -1.94166 0
M  V30 8531 O 818.228 0.794291 -1.79075 0
M  V30 8532 H 816.808 -0.56097 -0.493276 0
M  V30 8533 H 819.47 -1.82998 -0.670642 0
M  V30 8534 H 818.566 -2.28089 -2.13031 0
M  V30 8535 N 818.867 0.818669 -1.34668 0
M  V30 8536 C 819.817 1.91882 -1.23147 0
M  V30 8537 C 820.801 1.60378 -0.129509 0
M  V30 8538 O 821.993 1.73309 -0.359581 0
M  V30 8539 C 819.122 3.28612 -0.993436 0
M  V30 8540 C 818.208 3.66221 -2.13876 0
M  V30 8541 N 818.599 3.75361 -3.39024 0
M  V30 8542 C 816.897 3.96098 -2.04994 0
M  V30 8543 C 817.598 4.0836 -4.14266 0
M  V30 8544 N 816.574 4.21806 -3.429 0
M  V30 8545 H 820.376 1.97133 -2.17981 0
M  V30 8546 H 817.89 1.01257 -1.26967 0
M  V30 8547 H 819.887 4.0725 -0.891797 0
M  V30 8548 H 818.547 3.24655 -0.053824 0
M  V30 8549 H 819.558 3.58747 -3.73525 0
M  V30 8550 H 816.235 4.00236 -1.18816 0
M  V30 8551 H 817.625 4.226 -5.22359 0
M  V30 8552 N 820.346 1.18468 1.03938 0
M  V30 8553 C 821.256 0.927889 2.1547 0
M  V30 8554 C 822.272 -0.108447 1.73662 0
M  V30 8555 O 823.448 0.0737636 2.01265 0
M  V30 8556 C 820.513 0.458494 3.43655 0
M  V30 8557 C 819.574 1.56295 3.99838 0
M  V30 8558 C 818.807 1.11586 5.21904 0
M  V30 8559 O 819.03 -0.0249057 5.70395 0
M  V30 8560 O 817.964 1.91412 5.70653 0
M  V30 8561 H 821.79 1.86116 2.39989 0
M  V30 8562 H 819.375 0.966607 1.13917 0
M  V30 8563 H 821.257 0.204861 4.20902 0
M  V30 8564 H 819.932 -0.446464 3.20606 0
M  V30 8565 H 818.839 1.87061 3.23974 0
M  V30 8566 H 820.172 2.44408 4.2723 0
M  V30 8567 N 821.824 -1.22873 0.986916 0
M  V30 8568 C 823.07 -1.91746 0.660401 0
M  V30 8569 C 823.403 -1.76738 -0.804812 0
M  V30 8570 O 822.678 -1.13246 -1.58131 0
M  V30 8571 C 822.961 -3.44156 1.05966 0
M  V30 8572 C 822.814 -3.68242 2.58298 0
M  V30 8573 C 824.133 -4.35874 0.60842 0
M  V30 8574 H 821.252 -0.696347 0.241391 0
M  V30 8575 H 823.894 -1.44867 1.22937 0
M  V30 8576 H 822.044 -3.84213 0.575534 0
M  V30 8577 H 823.716 -3.37626 3.14335 0
M  V30 8578 H 821.959 -3.12728 3.00638 0
M  V30 8579 H 822.63 -4.74956 2.81285 0
M  V30 8580 H 825.106 -4.03299 1.02417 0
M  V30 8581 H 823.982 -5.41201 0.916142 0
M  V30 8582 H 824.243 -4.39364 -0.491086 0
M  V30 8583 N 823.302 -0.75937 -1.38099 0
M  V30 8584 C 824.53 -0.329111 -2.04266 0
M  V30 8585 C 824.945 1.04453 -1.57274 0
M  V30 8586 O 824.302 1.66449 -0.748397 0
M  V30 8587 C 824.353 -0.349192 -3.5981 0
M  V30 8588 O 824.074 -1.66863 -4.05078 0
M  V30 8589 C 825.575 0.0942106 -4.432 0
M  V30 8590 H 822.795 -0.13971 -0.656294 0
M  V30 8591 H 825.339 -1.02984 -1.76677 0
M  V30 8592 H 823.494 0.302846 -3.86214 0
M  V30 8593 H 823.908 -1.59877 -4.9954 0
M  V30 8594 H 825.382 0.0290004 -5.51992 0
M  V30 8595 H 825.859 1.1429 -4.24069 0
M  V30 8596 H 826.465 -0.529171 -4.21995 0
M  V30 8597 N 824.78 1.49157 -0.508906 0
M  V30 8598 C 826.029 2.0167 0.0346854 0
M  V30 8599 C 826.342 1.39302 1.37311 0
M  V30 8600 O 827.548 1.83189 2.00385 0
M  V30 8601 C 826.004 3.59725 0.112261 0
M  V30 8602 C 825.612 4.31069 -1.21999 0
M  V30 8603 C 827.356 4.20155 0.605798 0
M  V30 8604 C 825.263 5.81001 -1.10415 0
M  V30 8605 H 824.193 0.753814 0.0167355 0
M  V30 8606 H 826.844 1.7162 -0.649518 0
M  V30 8607 H 825.226 3.86525 0.861087 0
M  V30 8608 H 826.4 4.15962 -1.98273 0
M  V30 8609 H 824.715 3.82418 -1.64759 0
M  V30 8610 H 827.312 5.29964 0.710102 0
M  V30 8611 H 827.655 3.84051 1.60656 0
M  V30 8612 H 828.188 3.97705 -0.0867239 0
M  V30 8613 H 824.927 6.21643 -2.07941 0
M  V30 8614 H 824.447 5.9858 -0.382428 0
M  V30 8615 H 826.126 6.42207 -0.786116 0
M  V30 8616 N 826.258 0.243083 1.55714 0
M  V30 8617 C 827.504 -0.383287 1.99145 0
M  V30 8618 C 827.837 -1.57868 1.13098 0
M  V30 8619 O 827.112 -1.93535 0.193509 0
M  V30 8620 C 827.395 -0.796879 3.51172 0
M  V30 8621 C 827.248 0.403642 4.47985 0
M  V30 8622 C 828.567 -1.64525 4.08191 0
M  V30 8623 H 825.686 -0.137843 0.723995 0
M  V30 8624 H 828.328 0.343631 1.86867 0
M  V30 8625 H 826.478 -1.41625 3.61766 0
M  V30 8626 H 828.15 1.04204 4.49376 0
M  V30 8627 H 826.393 1.04741 4.20965 0
M  V30 8628 H 827.064 0.0709794 5.51954 0
M  V30 8629 H 829.54 -1.12246 4.00674 0
M  V30 8630 H 828.416 -1.9035 5.14838 0
M  V30 8631 H 828.677 -2.61582 3.56409 0
M  V30 8632 N 827.736 -1.57571 -0.0300757 0
M  V30 8633 C 828.961 -1.93879 -0.736601 0
M  V30 8634 C 829.386 -0.842998 -1.68152 0
M  V30 8635 O 828.744 0.20135 -1.80178 0
M  V30 8636 C 828.792 -3.29247 -1.47066 0
M  V30 8637 O 827.896 -3.21426 -2.58378 0
M  V30 8638 H 827.237 -0.633735 -0.198181 0
M  V30 8639 H 829.767 -2.04595 0.0141485 0
M  V30 8640 H 829.777 -3.64113 -1.84081 0
M  V30 8641 H 828.452 -4.08565 -0.77764 0
M  V30 8642 H 827.029 -2.98189 -2.23914 0
M  V30 8643 N 829.214 0.302327 -1.54673 0
M  V30 8644 C 830.462 1.03565 -1.73547 0
M  V30 8645 C 830.783 1.87843 -0.523448 0
M  V30 8646 O 830.053 1.90367 0.462295 0
M  V30 8647 H 828.633 0.385358 -0.639928 0
M  V30 8648 H 831.295 0.333632 -1.92023 0
M  V30 8649 H 830.391 1.68952 -2.62415 0
M  V30 8650 N 830.692 1.47107 0.565454 0
M  V30 8651 C 831.938 1.53535 1.32495 0
M  V30 8652 C 832.271 0.193537 1.93233 0
M  V30 8653 O 831.546 -0.796956 1.77423 0
M  V30 8654 C 831.829 2.64712 2.4413 0
M  V30 8655 C 831.682 4.08482 1.88314 0
M  V30 8656 C 833.001 2.71853 3.46098 0
M  V30 8657 H 830.12 0.558926 0.480386 0
M  V30 8658 H 832.762 1.79125 0.633575 0
M  V30 8659 H 830.912 2.43023 3.03104 0
M  V30 8660 H 832.584 4.4151 1.33665 0
M  V30 8661 H 830.827 4.17148 1.19037 0
M  V30 8662 H 831.498 4.82032 2.68978 0
M  V30 8663 H 833.974 2.91397 2.97031 0
M  V30 8664 H 832.85 3.51433 4.21646 0
M  V30 8665 H 833.111 1.78584 4.04426 0
M  V30 8666 N 832.17 -0.811516 1.35101 0
M  V30 8667 C 833.12 -1.91227 1.24163 0
M  V30 8668 C 834.104 -1.60307 0.138012 0
M  V30 8669 O 835.296 -1.73116 0.368767 0
M  V30 8670 C 832.425 -3.2808 1.01085 0
M  V30 8671 C 831.511 -3.65082 2.15815 0
M  V30 8672 N 831.902 -3.73558 3.4101 0
M  V30 8673 C 830.2 -3.95005 2.07092 0
M  V30 8674 C 830.901 -4.06158 4.16426 0
M  V30 8675 N 829.877 -4.19982 3.45132 0
M  V30 8676 H 833.679 -1.95975 2.19023 0
M  V30 8677 H 831.193 -1.00583 1.27503 0
M  V30 8678 H 833.19 -4.06771 0.913382 0
M  V30 8679 H 831.85 -3.24622 0.0710406 0
M  V30 8680 H 832.861 -3.56761 3.75423 0
M  V30 8681 H 829.538 -3.99601 1.20937 0
M  V30 8682 H 830.928 -4.19824 5.24592 0
M  V30 8683 N 833.648 -1.19017 -1.03309 0
M  V30 8684 C 834.578 -0.94772 -2.13402 0
M  V30 8685 C 835.559 0.117383 -1.69694 0
M  V30 8686 O 836.744 -0.0367733 -1.94165 0
M  V30 8687 C 833.874 -0.480977 -3.43953 0
M  V30 8688 C 832.828 -1.48743 -4.01322 0
M  V30 8689 C 832.154 -0.877924 -5.27443 0
M  V30 8690 C 833.454 -2.86642 -4.36616 0
M  V30 8691 H 835.148 -1.86846 -2.33942 0
M  V30 8692 H 832.694 -0.899781 -1.12427 0
M  V30 8693 H 834.647 -0.298677 -4.2034 0
M  V30 8694 H 833.371 0.475348 -3.23122 0
M  V30 8695 H 832.03 -1.65681 -3.27025 0
M  V30 8696 H 831.678 0.0858232 -5.02927 0
M  V30 8697 H 831.378 -1.54996 -5.66789 0
M  V30 8698 H 832.902 -0.706326 -6.06501 0
M  V30 8699 H 834.316 -2.73312 -5.03958 0
M  V30 8700 H 832.713 -3.50599 -4.87032 0
M  V30 8701 H 833.783 -3.39617 -3.46105 0
M  V30 8702 N 835.127 1.22348 -0.993418 0
M  V30 8703 C 836.09 2.22522 -0.549251 0
M  V30 8704 C 837.09 1.56529 0.368164 0
M  V30 8705 O 838.28 1.73463 0.16005 0
M  V30 8706 C 835.412 3.40307 0.201037 0
M  V30 8707 H 836.605 2.63332 -1.43515 0
M  V30 8708 H 834.158 1.35407 -0.78068 0
M  V30 8709 H 834.893 3.0497 1.10289 0
M  V30 8710 H 834.678 3.8942 -0.457685 0
M  V30 8711 H 836.168 4.14597 0.499946 0
M  V30 8712 N 836.605 0.766683 1.37694 0
M  V30 8713 C 837.553 0.137269 2.32195 0
M  V30 8714 C 838.547 -0.69067 1.54681 0
M  V30 8715 O 839.753 -0.588299 1.70115 0
M  V30 8716 H 836.128 0.0256003 0.751564 0
M  V30 8717 H 838.099 0.950129 2.82869 0
M  V30 8718 C 836.848 -0.731446 3.39919 0
M  V30 8719 H 836.171 -0.103738 3.99665 0
M  V30 8720 H 837.611 -1.13891 4.08417 0
M  V30 8721 C 836.07 -1.87984 2.79578 0
M  V30 8722 O 836.6 -2.97496 2.69924 0
M  V30 8723 N 834.806 -1.6789 2.37195 0
M  V30 8724 H 834.353 -0.788162 2.45246 0
M  V30 8725 H 834.311 -2.44894 1.97165 0
M  V30 8726 N 838.083 -1.48885 0.516809 0
M  V30 8727 C 839.313 -2.06592 -0.018375 0
M  V30 8728 C 839.721 -1.37543 -1.29917 0
M  V30 8729 O 839.064 -0.452527 -1.78039 0
M  V30 8730 C 839.126 -3.58016 -0.326315 0
M  V30 8731 C 838.79 -4.48853 0.859072 0
M  V30 8732 C 839.787 -4.89422 1.75391 0
M  V30 8733 C 837.472 -4.90937 1.06235 0
M  V30 8734 C 839.466 -5.70831 2.83604 0
M  V30 8735 C 837.153 -5.72119 2.14763 0
M  V30 8736 C 838.151 -6.11972 3.03281 0
M  V30 8737 O 837.839 -6.91527 4.09934 0
M  V30 8738 H 837.571 -0.675559 0.0244023 0
M  V30 8739 H 840.125 -1.92442 0.718005 0
M  V30 8740 H 838.355 -3.70231 -1.1165 0
M  V30 8741 H 840.044 -3.97898 -0.801999 0
M  V30 8742 H 840.81 -4.57542 1.60875 0
M  V30 8743 H 836.689 -4.59409 0.382677 0
M  V30 8744 H 840.233 -6.01857 3.52724 0
M  V30 8745 H 836.13 -6.03412 2.29268 0
M  V30 8746 H 836.898 -7.0986 4.07482 0
M  V30 8747 N 839.561 -0.251338 -1.55583 0
M  V30 8748 C 840.494 0.687092 -2.1761 0
M  V30 8749 C 841.472 1.16963 -1.12953 0
M  V30 8750 O 842.656 1.24696 -1.41362 0
M  V30 8751 C 839.783 1.93429 -2.78034 0
M  V30 8752 C 838.829 1.58925 -3.95784 0
M  V30 8753 S 839.662 0.688019 -5.31062 0
M  V30 8754 C 840.818 1.94413 -5.94941 0
M  V30 8755 H 841.051 0.159982 -2.96869 0
M  V30 8756 H 838.584 -0.0357593 -1.54359 0
M  V30 8757 H 840.542 2.65028 -3.13481 0
M  V30 8758 H 839.203 2.43253 -1.98713 0
M  V30 8759 H 838.396 2.51668 -4.36668 0
M  V30 8760 H 837.998 0.953664 -3.61637 0
M  V30 8761 H 840.29 2.89087 -6.12727 0
M  V30 8762 H 841.233 1.5787 -6.90277 0
M  V30 8763 H 841.641 2.09824 -5.24056 0
M  V30 8764 N 841.039 1.57585 0.0217189 0
M  V30 8765 C 841.989 2.03506 1.02807 0
M  V30 8766 C 842.973 0.925716 1.31603 0
M  V30 8767 O 844.165 1.18958 1.31065 0
M  V30 8768 C 841.294 2.52407 2.32693 0
M  V30 8769 C 840.38 3.70176 2.06955 0
M  V30 8770 N 840.771 4.82641 1.513 0
M  V30 8771 C 839.069 3.77691 2.37204 0
M  V30 8772 C 839.77 5.64218 1.41536 0
M  V30 8773 N 838.746 5.09557 1.89348 0
M  V30 8774 H 842.548 2.87878 0.591899 0
M  V30 8775 H 840.062 1.60793 0.227875 0
M  V30 8776 H 842.059 2.83569 3.05605 0
M  V30 8777 H 840.719 1.69444 2.76982 0
M  V30 8778 H 841.73 5.03931 1.19472 0
M  V30 8779 H 838.407 3.05542 2.84517 0
M  V30 8780 H 839.797 6.64576 0.989333 0
M  V30 8781 N 842.517 -0.29412 1.54831 0
M  V30 8782 C 843.764 -1.02846 1.74439 0
M  V30 8783 C 844.092 -1.87029 0.533905 0
M  V30 8784 O 843.347 -1.8962 -0.484035 0
M  V30 8785 C 843.646 -1.95782 2.99006 0
M  V30 8786 C 843.312 -1.2752 4.32492 0
M  V30 8787 C 841.974 -1.08637 4.68777 0
M  V30 8788 C 844.326 -0.787761 5.15212 0
M  V30 8789 C 841.654 -0.39704 5.85355 0
M  V30 8790 C 844.006 -0.112123 6.32501 0
M  V30 8791 C 842.67 0.0886071 6.67441 0
M  V30 8792 H 841.94 -0.376341 0.638317 0
M  V30 8793 H 844.587 -0.302684 1.89093 0
M  V30 8794 H 842.892 -2.74911 2.79162 0
M  V30 8795 H 844.589 -2.52684 3.11371 0
M  V30 8796 H 841.179 -1.43226 4.03961 0
M  V30 8797 H 845.363 -0.921341 4.87673 0
M  V30 8798 H 840.619 -0.230597 6.10965 0
M  V30 8799 H 844.793 0.27344 6.95863 0
M  V30 8800 H 842.42 0.624748 7.57628 0
M  V30 8801 N 843.995 -1.47404 -0.557645 0
M  V30 8802 C 845.223 -1.57622 -1.34026 0
M  V30 8803 C 845.638 -0.226256 -1.87439 0
M  V30 8804 O 844.995 0.78043 -1.64971 0
M  V30 8805 C 845.046 -2.60111 -2.51047 0
M  V30 8806 O 844.767 -3.89866 -1.99841 0
M  V30 8807 C 846.268 -2.80508 -3.43264 0
M  V30 8808 H 843.488 -0.532271 -0.40857 0
M  V30 8809 H 846.032 -1.93019 -0.675555 0
M  V30 8810 H 844.187 -2.27648 -3.13457 0
M  V30 8811 H 844.601 -4.45864 -2.76234 0
M  V30 8812 H 846.075 -3.56084 -4.21792 0
M  V30 8813 H 846.552 -1.88314 -3.9678 0
M  V30 8814 H 847.158 -3.14166 -2.86671 0
M  V30 8815 N 845.473 0.80434 -1.35529 0
M  V30 8816 C 846.403 1.93086 -1.31301 0
M  V30 8817 C 847.384 1.69068 -0.187044 0
M  V30 8818 O 848.569 1.90399 -0.382359 0
M  V30 8819 C 845.699 3.29867 -1.0865 0
M  V30 8820 C 844.653 3.68373 -2.17911 0
M  V30 8821 C 843.979 5.0334 -1.80423 0
M  V30 8822 C 845.279 3.78516 -3.59893 0
M  V30 8823 H 846.973 1.96882 -2.25561 0
M  V30 8824 H 844.519 0.945841 -1.08581 0
M  V30 8825 H 846.472 4.08281 -1.04331 0
M  V30 8826 H 845.196 3.2642 -0.108359 0
M  V30 8827 H 843.855 2.92247 -2.21331 0
M  V30 8828 H 843.503 4.96399 -0.812213 0
M  V30 8829 H 843.203 5.30074 -2.53565 0
M  V30 8830 H 844.727 5.84191 -1.77633 0
M  V30 8831 H 846.141 4.47155 -3.58783 0
M  V30 8832 H 844.538 4.16721 -4.31814 0
M  V30 8833 H 845.608 2.8001 -3.95882 0
M  V30 8834 N 846.951 1.19563 1.02676 0
M  V30 8835 C 847.861 0.950691 2.14474 0
M  V30 8836 C 848.877 -0.0900219 1.73767 0
M  V30 8837 O 850.053 0.0951063 2.01175 0
M  V30 8838 C 847.118 0.494917 3.43149 0
M  V30 8839 C 846.179 1.60527 3.98158 0
M  V30 8840 C 845.412 1.17115 5.20692 0
M  V30 8841 O 845.635 0.0355937 5.70389 0
M  V30 8842 O 844.569 1.97454 5.68591 0
M  V30 8843 H 848.395 1.88651 2.38001 0
M  V30 8844 H 845.98 0.978635 1.12885 0
M  V30 8845 H 847.862 0.249492 4.20661 0
M  V30 8846 H 846.537 -0.412434 3.21062 0
M  V30 8847 H 845.444 1.90487 3.21971 0
M  V30 8848 H 846.777 2.48925 4.24614 0
M  V30 8849 N 848.429 -1.21819 0.999893 0
M  V30 8850 C 849.659 -1.94475 0.697346 0
M  V30 8851 C 850.067 -1.73991 -0.743228 0
M  V30 8852 O 849.41 -1.04042 -1.51397 0
M  V30 8853 C 849.472 -3.47204 0.932181 0
M  V30 8854 C 849.136 -3.91432 2.3586 0
M  V30 8855 C 850.133 -3.98545 3.33853 0
M  V30 8856 C 847.818 -4.23888 2.69489 0
M  V30 8857 C 849.812 -4.37499 4.63545 0
M  V30 8858 C 847.499 -4.62519 3.99399 0
M  V30 8859 C 848.497 -4.69294 4.96238 0
M  V30 8860 O 848.185 -5.07048 6.23825 0
M  V30 8861 H 847.917 -0.625419 0.256567 0
M  V30 8862 H 850.471 -1.55728 1.33933 0
M  V30 8863 H 848.701 -3.85997 0.233025 0
M  V30 8864 H 850.39 -4.01078 0.623807 0
M  V30 8865 H 851.156 -3.73654 3.09205 0
M  V30 8866 H 847.035 -4.17815 1.94812 0
M  V30 8867 H 850.579 -4.42702 5.3913 0
M  V30 8868 H 846.476 -4.86864 4.23833 0
M  V30 8869 H 847.244 -5.25098 6.27865 0
M  V30 8870 N 849.908 -0.773975 -1.37286 0
M  V30 8871 C 851.319 -0.404433 -1.82267 0
M  V30 8872 C 851.67 1.06971 -1.64474 0
M  V30 8873 O 850.795 1.82867 -1.15708 0
M  V30 8874 C 851.39 -0.727298 -3.30902 0
M  V30 8875 C 849.949 -0.410784 -3.74152 0
M  V30 8876 C 849.096 -0.969983 -2.59782 0
M  V30 8877 H 852.047 -0.968437 -1.25726 0
M  V30 8878 H 852.068 -0.0127575 -3.80498 0
M  V30 8879 H 851.58 -1.80026 -3.4382 0
M  V30 8880 H 849.681 0.65477 -3.66802 0
M  V30 8881 H 849.794 -0.920592 -4.70172 0
M  V30 8882 H 848.158 -0.394094 -2.51633 0
M  V30 8883 H 848.941 -2.04839 -2.75492 0
M  V30 8884 N 851.386 1.48609 -0.524698 0
M  V30 8885 C 852.334 2.31205 0.254398 0
M  V30 8886 C 853.328 1.40894 0.940491 0
M  V30 8887 O 854.534 1.57827 0.865478 0
M  V30 8888 H 850.909 0.745199 0.100907 0
M  V30 8889 H 852.88 2.94804 -0.461876 0
M  V30 8890 C 851.629 3.2282 1.2916 0
M  V30 8891 H 850.952 3.92255 0.773074 0
M  V30 8892 H 852.392 3.83508 1.80825 0
M  V30 8893 C 850.851 2.4406 2.32242 0
M  V30 8894 O 851.381 2.16163 3.3858 0
M  V30 8895 N 849.587 2.05651 2.05319 0
M  V30 8896 H 849.134 2.28539 1.18861 0
M  V30 8897 H 849.092 1.53265 2.74513 0
M  V30 8898 N 852.864 0.259585 1.55447 0
M  V30 8899 C 853.797 -0.675542 2.17972 0
M  V30 8900 C 854.775 -1.16362 1.13572 0
M  V30 8901 O 855.959 -1.23944 1.42021 0
M  V30 8902 C 853.086 -1.91952 2.79056 0
M  V30 8903 C 852.132 -1.56824 3.96621 0
M  V30 8904 S 852.965 -0.659846 5.31419 0
M  V30 8905 C 854.121 -1.91255 5.95963 0
M  V30 8906 H 854.354 -0.144236 2.9695 0
M  V30 8907 H 851.887 0.0439448 1.54337 0
M  V30 8908 H 853.845 -2.63362 3.14882 0
M  V30 8909 H 852.506 -2.42196 2 0
M  V30 8910 H 851.699 -2.49348 4.37997 0
M  V30 8911 H 851.301 -0.934472 3.62138 0
M  V30 8912 H 853.593 -2.85834 6.14252 0
M  V30 8913 H 854.536 -1.54207 6.91105 0
M  V30 8914 H 854.944 -2.07042 5.25161 0
M  V30 8915 N 854.342 -1.57594 -0.0133615 0
M  V30 8916 C 855.275 -2.02991 -1.04259 0
M  V30 8917 C 856.253 -0.917193 -1.34262 0
M  V30 8918 O 857.437 -1.18428 -1.46653 0
M  V30 8919 C 854.564 -2.41624 -2.37351 0
M  V30 8920 C 853.61 -3.63495 -2.231 0
M  V30 8921 S 854.443 -5.1198 -1.5696 0
M  V30 8922 C 855.599 -5.5387 -2.91511 0
M  V30 8923 H 855.832 -2.89973 -0.655985 0
M  V30 8924 H 853.365 -1.52769 -0.223827 0
M  V30 8925 H 855.323 -2.64551 -3.13884 0
M  V30 8926 H 853.984 -1.55065 -2.73155 0
M  V30 8927 H 853.177 -3.88233 -3.21389 0
M  V30 8928 H 852.779 -3.405 -1.54711 0
M  V30 8929 H 855.071 -5.55514 -3.87828 0
M  V30 8930 H 856.014 -6.53988 -2.71488 0
M  V30 8931 H 856.422 -4.81404 -2.94806 0
M  V30 8932 N 855.82 0.285905 -1.54985 0
M  V30 8933 C 857.236 0.632405 -1.46536 0
M  V30 8934 C 857.436 1.90074 -0.668888 0
M  V30 8935 O 856.492 2.51839 -0.182586 0
M  V30 8936 C 857.805 0.771361 -2.90638 0
M  V30 8937 C 859.353 0.866262 -3.00774 0
M  V30 8938 C 859.828 1.0371 -4.46103 0
M  V30 8939 N 861.319 1.10294 -4.49877 0
M  V30 8940 C 862.054 1.25369 -5.59527 0
M  V30 8941 N 861.55 1.37246 -6.7907 0
M  V30 8942 N 863.343 1.28377 -5.47244 0
M  V30 8943 H 855.494 -0.547226 -2.0523 0
M  V30 8944 H 857.757 -0.183298 -0.930111 0
M  V30 8945 H 857.463 -0.0899485 -3.51585 0
M  V30 8946 H 857.337 1.65569 -3.3892 0
M  V30 8947 H 859.724 1.71805 -2.39931 0
M  V30 8948 H 859.805 -0.0424049 -2.55765 0
M  V30 8949 H 859.449 0.190021 -5.07544 0
M  V30 8950 H 859.379 1.96022 -4.88757 0
M  V30 8951 H 861.87 1.02407 -3.6376 0
M  V30 8952 H 862.183 1.48546 -7.58389 0
M  V30 8953 H 860.528 1.34274 -6.81906 0
M  V30 8954 H 863.719 1.1872 -4.52795 0
M  V30 8955 H 863.892 1.39782 -6.32744 0
M  V30 8956 N 857.298 1.47698 0.54982 0
M  V30 8957 C 858.714 1.3338 0.876468 0
M  V30 8958 C 858.914 0.329837 1.98782 0
M  V30 8959 O 857.97 -0.256022 2.51199 0
M  V30 8960 C 859.283 2.72903 1.26272 0
M  V30 8961 C 860.831 2.81243 1.37373 0
M  V30 8962 C 861.306 4.21423 1.79351 0
M  V30 8963 N 862.797 4.24 1.86489 0
M  V30 8964 C 863.532 5.29386 2.20313 0
M  V30 8965 N 863.028 6.4507 2.527 0
M  V30 8966 N 864.821 5.16768 2.2115 0
M  V30 8967 H 856.972 2.11603 -0.183781 0
M  V30 8968 H 859.235 0.947798 -0.0195601 0
M  V30 8969 H 858.941 3.47836 0.519889 0
M  V30 8970 H 858.815 3.05151 2.21727 0
M  V30 8971 H 861.202 2.06577 2.10737 0
M  V30 8972 H 861.283 2.52639 0.400882 0
M  V30 8973 H 860.927 4.96597 1.06555 0
M  V30 8974 H 860.857 4.47456 2.77652 0
M  V30 8975 H 863.348 3.40547 1.63817 0
M  V30 8976 H 863.661 7.21236 2.77557 0
M  V30 8977 H 862.006 6.48377 2.50263 0
M  V30 8978 H 865.197 4.25416 1.95293 0
M  V30 8979 H 865.37 5.99004 2.4718 0
M  V30 8980 N 858.776 -0.797141 1.35954 0
M  V30 8981 C 859.706 -1.92387 1.32323 0
M  V30 8982 C 860.687 -1.68967 0.196007 0
M  V30 8983 O 861.872 -1.90193 0.39245 0
M  V30 8984 C 859.002 -3.29286 1.10398 0
M  V30 8985 C 857.956 -3.67212 2.19862 0
M  V30 8986 C 857.282 -5.02377 1.8309 0
M  V30 8987 C 858.582 -3.76602 3.61896 0
M  V30 8988 H 860.276 -1.95683 2.26602 0
M  V30 8989 H 857.822 -0.94007 1.09081 0
M  V30 8990 H 859.775 -4.07721 1.06495 0
M  V30 8991 H 858.499 -3.26358 0.125668 0
M  V30 8992 H 857.158 -2.91069 2.22878 0
M  V30 8993 H 856.806 -4.95961 0.838527 0
M  V30 8994 H 856.506 -5.28722 2.56372 0
M  V30 8995 H 858.03 -5.8324 1.80729 0
M  V30 8996 H 859.444 -4.45246 3.6115 0
M  V30 8997 H 857.841 -4.14425 4.34018 0
M  V30 8998 H 858.911 -2.77906 3.97361 0
M  V30 8999 N 860.254 -1.20106 -1.0204 0
M  V30 9000 C 861.204 -0.914145 -2.08872 0
M  V30 9001 C 862.188 0.124503 -1.60418 0
M  V30 9002 O 863.38 -0.0823521 -1.76808 0
M  V30 9003 C 860.509 -0.463897 -3.40151 0
M  V30 9004 C 859.595 -1.53576 -3.95317 0
M  V30 9005 N 859.986 -2.75726 -4.24038 0
M  V30 9006 C 858.284 -1.40103 -4.23423 0
M  V30 9007 C 858.985 -3.44838 -4.68468 0
M  V30 9008 N 857.961 -2.72245 -4.70514 0
M  V30 9009 H 861.763 -1.8424 -2.28982 0
M  V30 9010 H 859.277 -1.0945 -1.19977 0
M  V30 9011 H 861.274 -0.239766 -4.1621 0
M  V30 9012 H 859.934 0.457779 -3.21457 0
M  V30 9013 H 860.945 -3.12412 -4.13061 0
M  V30 9014 H 857.622 -0.543472 -4.13948 0
M  V30 9015 H 859.012 -4.49342 -4.99541 0
M  V30 9016 N 861.732 1.21287 -1.00634 0
M  V30 9017 C 862.642 2.27388 -0.577226 0
M  V30 9018 C 863.658 1.69791 0.380399 0
M  V30 9019 O 864.834 1.99918 0.2439 0
M  V30 9020 C 861.899 3.46588 0.0880532 0
M  V30 9021 C 860.96 4.19453 -0.914222 0
M  V30 9022 C 860.193 5.32962 -0.280596 0
M  V30 9023 O 860.416 5.62895 0.922265 0
M  V30 9024 O 859.35 5.93666 -0.992196 0
M  V30 9025 H 863.176 2.66289 -1.46028 0
M  V30 9026 H 860.761 1.2771 -0.775283 0
M  V30 9027 H 862.643 4.18881 0.460094 0
M  V30 9028 H 861.318 3.09585 0.945461 0
M  V30 9029 H 860.225 3.49376 -1.33744 0
M  V30 9030 H 861.558 4.6037 -1.74126 0
M  V30 9031 N 863.21 0.781244 1.36873 0
M  V30 9032 C 864.14 0.188128 2.32741 0
M  V30 9033 C 865.121 -0.672326 1.56249 0
M  V30 9034 O 866.306 -0.607835 1.84442 0
M  V30 9035 C 863.436 -0.684341 3.40491 0
M  V30 9036 C 862.39 0.0755641 4.27933 0
M  V30 9037 C 861.716 -0.916968 5.26779 0
M  V30 9038 C 863.016 1.26006 5.06873 0
M  V30 9039 H 864.71 0.989016 2.82593 0
M  V30 9040 H 862.256 0.477038 1.35869 0
M  V30 9041 H 864.209 -1.10915 4.06541 0
M  V30 9042 H 862.933 -1.51785 2.89187 0
M  V30 9043 H 861.592 0.481258 3.63427 0
M  V30 9044 H 861.24 -1.74528 4.71751 0
M  V30 9045 H 860.94 -0.413 5.86147 0
M  V30 9046 H 862.464 -1.34052 5.95703 0
M  V30 9047 H 863.878 0.911425 5.66009 0
M  V30 9048 H 862.275 1.69676 5.75613 0
M  V30 9049 H 863.345 2.05948 4.38991 0
M  V30 9050 N 864.689 -1.48329 0.532571 0
M  V30 9051 C 865.639 -2.2664 -0.24868 0
M  V30 9052 C 866.623 -1.32861 -0.907563 0
M  V30 9053 O 867.815 -1.57382 -0.809942 0
M  V30 9054 C 864.944 -3.18004 -1.29339 0
M  V30 9055 C 864.03 -4.19256 -0.639166 0
M  V30 9056 N 864.421 -5.05043 0.276597 0
M  V30 9057 C 862.719 -4.36906 -0.896062 0
M  V30 9058 C 863.42 -5.78009 0.654261 0
M  V30 9059 N 862.396 -5.43598 0.0147447 0
M  V30 9060 H 866.198 -2.90344 0.455792 0
M  V30 9061 H 863.712 -1.58566 0.350778 0
M  V30 9062 H 865.709 -3.72767 -1.86682 0
M  V30 9063 H 864.369 -2.55855 -1.99921 0
M  V30 9064 H 865.38 -5.13813 0.649351 0
M  V30 9065 H 862.057 -3.85945 -1.59226 0
M  V30 9066 H 863.447 -6.57039 1.40532 0
M  V30 9067 N 866.167 -0.267825 -1.55308 0
M  V30 9068 C 867.413 0.351556 -1.9973 0
M  V30 9069 C 867.746 1.56049 -1.15596 0
M  V30 9070 O 867.021 1.93203 -0.224274 0
M  V30 9071 C 867.304 0.74091 -3.52395 0
M  V30 9072 C 867.157 -0.474861 -4.47286 0
M  V30 9073 C 868.476 1.5801 -4.10756 0
M  V30 9074 H 865.595 0.126308 -0.726096 0
M  V30 9075 H 868.237 -0.373316 -1.86296 0
M  V30 9076 H 866.387 1.35851 -3.63973 0
M  V30 9077 H 868.059 -1.1134 -4.47662 0
M  V30 9078 H 866.302 -1.11425 -4.19246 0
M  V30 9079 H 866.973 -0.158782 -5.51772 0
M  V30 9080 H 869.449 1.05857 -4.0241 0
M  V30 9081 H 868.325 1.82135 -5.17801 0
M  V30 9082 H 868.586 2.55878 -3.60526 0
M  V30 9083 N 867.645 1.57599 0.00500368 0
M  V30 9084 C 868.555 2.11532 1.01446 0
M  V30 9085 C 869.571 1.05941 1.3803 0
M  V30 9086 O 870.747 1.37815 1.46864 0
M  V30 9087 C 867.812 2.60382 2.28915 0
M  V30 9088 C 866.873 3.80554 1.98689 0
M  V30 9089 C 866.106 4.27064 3.20081 0
M  V30 9090 O 866.329 3.72939 4.31593 0
M  V30 9091 O 865.263 5.1927 3.04371 0
M  V30 9092 H 869.089 2.97993 0.586011 0
M  V30 9093 H 866.674 1.47718 0.223519 0
M  V30 9094 H 868.556 2.92024 3.03809 0
M  V30 9095 H 867.231 1.77022 2.71007 0
M  V30 9096 H 866.138 3.53893 1.21286 0
M  V30 9097 H 867.471 4.64972 1.61437 0
M  V30 9098 N 869.123 -0.277682 1.55134 0
M  V30 9099 C 870.033 -1.36524 1.90783 0
M  V30 9100 C 871.049 -1.54283 0.804542 0
M  V30 9101 O 872.225 -1.68499 1.10318 0
M  V30 9102 C 869.29 -2.70524 2.16835 0
M  V30 9103 C 868.351 -2.61552 3.40424 0
M  V30 9104 C 867.584 -3.89162 3.65224 0
M  V30 9105 O 867.807 -4.89624 2.92616 0
M  V30 9106 O 866.741 -3.89647 4.58758 0
M  V30 9107 H 870.567 -1.0929 2.83354 0
M  V30 9108 H 868.152 -0.475799 1.41621 0
M  V30 9109 H 870.034 -3.49765 2.35038 0
M  V30 9110 H 868.709 -2.97555 1.27448 0
M  V30 9111 H 867.616 -1.80704 3.27562 0
M  V30 9112 H 868.949 -2.39472 4.30016 0
M  V30 9113 N 870.601 -1.47988 -0.541979 0
M  V30 9114 C 871.531 -1.64503 -1.65713 0
M  V30 9115 C 872.512 -0.494116 -1.62765 0
M  V30 9116 O 873.697 -0.725256 -1.80149 0
M  V30 9117 C 870.827 -1.67337 -3.04328 0
M  V30 9118 C 869.781 -2.81809 -3.2213 0
M  V30 9119 C 869.107 -2.69724 -4.61685 0
M  V30 9120 C 870.407 -4.23241 -3.06046 0
M  V30 9121 H 872.101 -2.5786 -1.52147 0
M  V30 9122 H 869.647 -1.24094 -0.730529 0
M  V30 9123 H 871.6 -1.77481 -3.82202 0
M  V30 9124 H 870.324 -0.705514 -3.18889 0
M  V30 9125 H 868.983 -2.71201 -2.46669 0
M  V30 9126 H 868.631 -1.70934 -4.73065 0
M  V30 9127 H 868.331 -3.4653 -4.74543 0
M  V30 9128 H 869.855 -2.81818 -5.41674 0
M  V30 9129 H 871.269 -4.34746 -3.73723 0
M  V30 9130 H 869.666 -5.00952 -3.30405 0
M  V30 9131 H 870.736 -4.40543 -2.02609 0
M  V30 9132 N 872.079 0.78992 -1.36375 0
M  V30 9133 C 873.327 1.54472 -1.30319 0
M  V30 9134 C 873.648 1.94647 0.117338 0
M  V30 9135 O 872.918 1.64906 1.05748 0
M  V30 9136 H 871.498 0.572879 -0.479394 0
M  V30 9137 H 874.16 0.941245 -1.70665 0
M  V30 9138 H 873.256 2.45252 -1.93024 0
M  V30 9139 N 873.557 1.20646 1.01402 0
M  V30 9140 C 874.834 0.927176 1.72229 0
M  V30 9141 C 875.214 -0.563382 2.03443 0
M  V30 9142 O 874.562 -1.52576 1.70096 0
M  V30 9143 C 874.772 1.80285 2.98828 0
M  V30 9144 C 876.12 2.04624 3.72041 0
M  V30 9145 O 877.144 1.77559 3.0879 0
M  V30 9146 O 876.003 2.50347 4.85787 0
M  V30 9147 H 873.097 0.346891 0.75073 0
M  V30 9148 H 875.643 1.31532 1.07227 0
M  V30 9149 H 874.415 2.81204 2.72102 0
M  V30 9150 H 874.038 1.41495 3.71571 0
M  V30 9151 N 875.035 -1.20752 1.01276 0
M  V30 9152 C 875.985 -2.21252 0.550602 0
M  V30 9153 C 876.969 -1.56052 -0.391985 0
M  V30 9154 O 878.161 -1.75682 -0.215575 0
M  V30 9155 C 875.29 -3.43112 -0.113601 0
M  V30 9156 C 874.376 -4.15485 0.850465 0
M  V30 9157 N 874.767 -4.64301 2.00643 0
M  V30 9158 C 873.065 -4.40932 0.670476 0
M  V30 9159 C 873.766 -5.197 2.61317 0
M  V30 9160 N 872.742 -5.09534 1.8941 0
M  V30 9161 H 876.544 -2.56657 1.43194 0
M  V30 9162 H 874.058 -1.36646 0.877597 0
M  V30 9163 H 876.055 -4.1433 -0.462211 0
M  V30 9164 H 874.715 -3.09213 -0.990825 0
M  V30 9165 H 875.726 -4.59637 2.38651 0
M  V30 9166 H 872.403 -4.17197 -0.159016 0
M  V30 9167 H 873.793 -5.67873 3.59123 0
M  V30 9168 N 876.513 -0.788492 -1.36457 0
M  V30 9169 C 877.76 -0.360461 -1.99266 0
M  V30 9170 C 878.088 1.0676 -1.62581 0
M  V30 9171 O 877.343 1.75205 -0.871884 0
M  V30 9172 C 877.642 -0.470255 -3.54293 0
M  V30 9173 C 877.308 -1.85899 -4.10795 0
M  V30 9174 C 875.97 -2.23896 -4.25939 0
M  V30 9175 C 878.322 -2.76836 -4.41601 0
M  V30 9176 C 875.65 -3.52235 -4.69199 0
M  V30 9177 C 878.002 -4.04602 -4.86292 0
M  V30 9178 C 876.666 -4.42623 -4.99641 0
M  V30 9179 H 875.936 -0.131902 -0.729166 0
M  V30 9180 H 878.583 -1.00577 -1.62962 0
M  V30 9181 H 876.888 0.258559 -3.90946 0
M  V30 9182 H 878.585 -0.120119 -4.0082 0
M  V30 9183 H 875.175 -1.55372 -3.99447 0
M  V30 9184 H 879.359 -2.48735 -4.2947 0
M  V30 9185 H 874.615 -3.81565 -4.77722 0
M  V30 9186 H 878.789 -4.75182 -5.09092 0
M  V30 9187 H 876.416 -5.42125 -5.32921 0
M  V30 9188 N 877.991 1.48044 -0.54043 0
M  V30 9189 C 879.231 2.04396 -0.012296 0
M  V30 9190 C 879.595 1.40748 1.30591 0
M  V30 9191 O 880.796 1.88048 1.92072 0
M  V30 9192 C 879.067 3.5727 0.0964302 0
M  V30 9193 S 880.626 4.35041 0.573117 0
M  V30 9194 H 877.444 0.710795 -0.0170735 0
M  V30 9195 H 880.046 1.81625 -0.723362 0
M  V30 9196 H 878.75 4.01124 -0.86762 0
M  V30 9197 H 878.281 3.84511 0.83156 0
M  V30 9198 H 880.296 4.6099 1.83583 0
M  V30 9199 N 879.47 0.276058 1.55163 0
M  V30 9200 C 880.695 -0.346648 2.04483 0
M  V30 9201 C 881.12 -1.48613 1.15308 0
M  V30 9202 O 880.478 -1.80663 0.151875 0
M  V30 9203 C 880.526 -0.804268 3.51517 0
M  V30 9204 O 879.63 -1.91143 3.65429 0
M  V30 9205 H 878.971 -0.0715251 0.660136 0
M  V30 9206 H 881.501 0.410631 2.00437 0
M  V30 9207 H 881.511 -1.09977 3.92898 0
M  V30 9208 H 880.186 0.0294123 4.1589 0
M  V30 9209 H 878.763 -1.61839 3.3595 0
M  V30 9210 N 880.948 -1.576 0.00335426 0
M  V30 9211 C 882.364 -1.55653 -0.352766 0
M  V30 9212 C 882.564 -1.00632 -1.74572 0
M  V30 9213 O 881.62 -0.641621 -2.44212 0
M  V30 9214 C 882.933 -2.99858 -0.224929 0
M  V30 9215 C 884.481 -3.11563 -0.299619 0
M  V30 9216 C 884.956 -4.57559 -0.200868 0
M  V30 9217 N 886.447 -4.62477 -0.258663 0
M  V30 9218 C 887.182 -5.73031 -0.205644 0
M  V30 9219 N 886.678 -6.92723 -0.103027 0
M  V30 9220 N 888.471 -5.61509 -0.257754 0
M  V30 9221 H 880.622 -1.91703 0.914539 0
M  V30 9222 H 882.885 -0.88068 0.350865 0
M  V30 9223 H 882.591 -3.43964 0.733595 0
M  V30 9224 H 882.465 -3.63547 -1.00564 0
M  V30 9225 H 884.852 -2.67384 -1.24859 0
M  V30 9226 H 884.933 -2.50644 0.511025 0
M  V30 9227 H 884.577 -5.02413 0.744572 0
M  V30 9228 H 884.507 -5.16428 -1.03004 0
M  V30 9229 H 886.998 -3.76375 -0.339168 0
M  V30 9230 H 887.311 -7.7277 -0.0685593 0
M  V30 9231 H 885.656 -6.94966 -0.0686069 0
M  V30 9232 H 888.847 -4.66892 -0.336142 0
M  V30 9233 H 889.02 -6.4765 -0.21297 0
M  V30 9234 N 882.426 0.269451 -1.5528 0
M  V30 9235 C 883.675 0.998381 -1.75258 0
M  V30 9236 C 883.988 1.87321 -0.563034 0
M  V30 9237 O 885.194 2.63719 -0.645313 0
M  V30 9238 C 883.65 1.82505 -3.10193 0
M  V30 9239 C 883.258 0.99871 -4.36726 0
M  V30 9240 C 885.002 2.54807 -3.3952 0
M  V30 9241 C 882.909 1.81997 -5.627 0
M  V30 9242 H 881.839 0.376488 -0.653278 0
M  V30 9243 H 884.49 0.253909 -1.81735 0
M  V30 9244 H 882.872 2.61061 -2.97763 0
M  V30 9245 H 884.046 0.257064 -4.60082 0
M  V30 9246 H 882.361 0.390074 -4.14569 0
M  V30 9247 H 884.958 3.16662 -4.30847 0
M  V30 9248 H 885.301 3.25273 -2.59813 0
M  V30 9249 H 885.834 1.83278 -3.53064 0
M  V30 9250 H 882.573 1.15945 -6.45164 0
M  V30 9251 H 882.093 2.53749 -5.43481 0
M  V30 9252 H 883.772 2.39274 -6.0113 0
M  V30 9253 N 883.904 1.48273 0.534124 0
M  V30 9254 C 884.814 1.65162 1.66609 0
M  V30 9255 C 885.83 0.534177 1.65598 0
M  V30 9256 O 887.006 0.804715 1.84625 0
M  V30 9257 C 884.071 1.68354 3.03081 0
M  V30 9258 C 883.132 2.91696 3.1498 0
M  V30 9259 C 882.365 2.94725 4.44941 0
M  V30 9260 O 882.588 2.06285 5.31792 0
M  V30 9261 O 881.522 3.8685 4.61119 0
M  V30 9262 H 885.348 2.60991 1.55298 0
M  V30 9263 H 882.933 1.31626 0.706749 0
M  V30 9264 H 884.815 1.72998 3.84252 0
M  V30 9265 H 883.49 0.756978 3.14725 0
M  V30 9266 H 882.397 2.92586 2.33119 0
M  V30 9267 H 883.73 3.83722 3.0825 0
M  V30 9268 N 885.382 -0.782676 1.36792 0
M  V30 9269 C 886.793 -1.35828 1.28092 0
M  V30 9270 C 887.144 -1.96052 -0.076315 0
M  V30 9271 O 886.269 -1.93042 -0.977935 0
M  V30 9272 C 886.864 -2.46949 2.31952 0
M  V30 9273 C 885.423 -3.00307 2.2692 0
M  V30 9274 C 884.57 -1.73436 2.16368 0
M  V30 9275 H 887.521 -0.583788 1.47572 0
M  V30 9276 H 887.542 -3.26144 1.95986 0
M  V30 9277 H 887.054 -2.03087 3.30722 0
M  V30 9278 H 885.155 -3.48571 1.31639 0
M  V30 9279 H 885.268 -3.56663 3.19887 0
M  V30 9280 H 883.632 -1.95934 1.62733 0
M  V30 9281 H 884.415 -1.31693 3.17036 0
M  V30 9282 N 886.86 -1.21182 -1.00761 0
M  V30 9283 C 888.108 -1.02543 -1.74153 0
M  V30 9284 C 888.429 0.442372 -1.89916 0
M  V30 9285 O 887.699 1.31927 -1.44818 0
M  V30 9286 H 886.279 -0.37644 -0.645214 0
M  V30 9287 H 888.941 -1.52446 -1.21434 0
M  V30 9288 H 888.037 -1.49122 -2.7417 0
M  V30 9289 N 888.338 1.20213 -1.01915 0
M  V30 9290 C 889.754 1.41696 -0.734459 0
M  V30 9291 C 889.954 1.89504 0.684867 0
M  V30 9292 O 889.01 2.06556 1.45227 0
M  V30 9293 C 890.323 2.43644 -1.76233 0
M  V30 9294 C 891.871 2.57406 -1.78076 0
M  V30 9295 C 892.346 3.626 -2.79796 0
M  V30 9296 N 893.837 3.70086 -2.78551 0
M  V30 9297 C 894.572 4.51145 -3.53915 0
M  V30 9298 N 894.068 5.35988 -4.38963 0
M  V30 9299 N 895.861 4.45702 -3.425 0
M  V30 9300 H 888.012 0.874976 -1.93541 0
M  V30 9301 H 890.275 0.446647 -0.836188 0
M  V30 9302 H 889.981 2.15519 -2.77929 0
M  V30 9303 H 889.855 3.42672 -1.57657 0
M  V30 9304 H 892.242 2.8486 -0.770634 0
M  V30 9305 H 892.323 1.58565 -2.00725 0
M  V30 9306 H 891.967 3.35889 -3.80973 0
M  V30 9307 H 891.897 4.61069 -2.54407 0
M  V30 9308 H 894.388 3.09484 -2.1686 0
M  V30 9309 H 894.701 5.94932 -4.9323 0
M  V30 9310 H 893.046 5.35482 -4.4304 0
M  V30 9311 H 896.237 3.78456 -2.75478 0
M  V30 9312 H 896.41 5.08637 -4.01487 0
M  V30 9313 N 889.816 0.795718 1.36037 0
M  V30 9314 C 890.749 0.144269 2.27744 0
M  V30 9315 C 891.727 -0.683351 1.47543 0
M  V30 9316 O 892.911 -0.652976 1.76829 0
M  V30 9317 C 890.038 -0.800944 3.29094 0
M  V30 9318 C 889.084 -0.0543234 4.26465 0
M  V30 9319 S 889.917 1.27426 5.20118 0
M  V30 9320 C 891.073 0.333213 6.25012 0
M  V30 9321 H 891.306 0.921827 2.82648 0
M  V30 9322 H 888.839 0.590241 1.42673 0
M  V30 9323 H 890.797 -1.34082 3.87985 0
M  V30 9324 H 889.458 -1.5518 2.7309 0
M  V30 9325 H 888.651 -0.771788 4.98056 0
M  V30 9326 H 888.253 0.415264 3.71687 0
M  V30 9327 H 890.545 -0.485604 6.75757 0
M  V30 9328 H 891.488 1.01798 7.00744 0
M  V30 9329 H 891.896 -0.066256 5.64461 0
M  V30 9330 N 891.294 -1.47756 0.548274 0
M  V30 9331 C 892.204 -2.33678 -0.207773 0
M  V30 9332 C 893.22 -1.47636 -0.920843 0
M  V30 9333 O 894.396 -1.80583 -0.89173 0
M  V30 9334 C 891.461 -3.24147 -1.23003 0
M  V30 9335 C 890.522 -4.26073 -0.52535 0
M  V30 9336 C 889.755 -5.12219 -1.4989 0
M  V30 9337 O 889.978 -5.0066 -2.73305 0
M  V30 9338 O 888.912 -5.93051 -1.02828 0
M  V30 9339 H 892.738 -2.99609 0.496794 0
M  V30 9340 H 890.323 -1.4617 0.308982 0
M  V30 9341 H 892.205 -3.80055 -1.82034 0
M  V30 9342 H 890.88 -2.60855 -1.91668 0
M  V30 9343 H 889.787 -3.7395 0.105927 0
M  V30 9344 H 891.12 -4.92054 0.119686 0
M  V30 9345 N 892.772 -0.284283 -1.55015 0
M  V30 9346 C 894.021 0.33055 -1.98973 0
M  V30 9347 C 894.334 1.56284 -1.17621 0
M  V30 9348 O 895.54 2.2512 -1.51767 0
M  V30 9349 C 893.996 0.639457 -3.54174 0
M  V30 9350 C 893.604 -0.573543 -4.44313 0
M  V30 9351 C 895.348 1.21641 -4.06699 0
M  V30 9352 C 893.255 -0.238715 -5.90918 0
M  V30 9353 H 892.185 0.127285 -0.743179 0
M  V30 9354 H 894.836 -0.390372 -1.793 0
M  V30 9355 H 893.218 1.41953 -3.69683 0
M  V30 9356 H 894.392 -1.3502 -4.40575 0
M  V30 9357 H 892.707 -1.06797 -4.02472 0
M  V30 9358 H 895.304 1.48088 -5.13784 0
M  V30 9359 H 895.647 2.15328 -3.56286 0
M  V30 9360 H 896.18 0.498422 -3.94665 0
M  V30 9361 H 892.919 -1.1437 -6.45445 0
M  V30 9362 H 892.439 0.500997 -5.97704 0
M  V30 9363 H 894.118 0.165774 -6.46788 0
M  V30 9364 N 894.251 1.57596 -0.0117121 0
M  V30 9365 C 895.481 1.95077 0.680346 0
M  V30 9366 C 895.889 0.885793 1.67184 0
M  V30 9367 O 895.232 -0.142723 1.83145 0
M  V30 9368 C 895.294 3.28611 1.45791 0
M  V30 9369 C 894.958 4.52682 0.626706 0
M  V30 9370 C 895.955 5.19821 -0.0906223 0
M  V30 9371 C 893.64 4.99064 0.569229 0
M  V30 9372 C 895.634 6.31649 -0.854289 0
M  V30 9373 C 893.321 6.10779 -0.198155 0
M  V30 9374 C 894.319 6.76929 -0.908636 0
M  V30 9375 O 894.007 7.86501 -1.66348 0
M  V30 9376 H 893.739 0.647663 0.193672 0
M  V30 9377 H 896.293 2.05305 -0.0624969 0
M  V30 9378 H 894.523 3.14824 2.2455 0
M  V30 9379 H 896.212 3.51119 2.03642 0
M  V30 9380 H 896.978 4.84968 -0.0554421 0
M  V30 9381 H 892.857 4.47393 1.11178 0
M  V30 9382 H 896.401 6.83215 -1.40937 0
M  V30 9383 H 892.298 6.45072 -0.235114 0
M  V30 9384 H 893.066 8.03078 -1.58141 0
M  V30 9385 N 895.729 -0.261212 1.5542 0
M  V30 9386 C 896.677 -1.34298 1.89913 0
M  V30 9387 C 897.671 -1.50547 0.776665 0
M  V30 9388 O 898.877 -1.52191 0.961139 0
M  V30 9389 H 895.252 -0.4494 0.602946 0
M  V30 9390 H 897.223 -1.02464 2.80256 0
M  V30 9391 C 895.972 -2.69423 2.19788 0
M  V30 9392 H 895.295 -2.57715 3.05652 0
M  V30 9393 H 896.735 -3.44026 2.47835 0
M  V30 9394 C 895.194 -3.21423 1.00939 0
M  V30 9395 O 895.724 -4.00921 0.250034 0
M  V30 9396 N 893.93 -2.7926 0.803883 0
M  V30 9397 H 893.477 -2.14724 1.42308 0
M  V30 9398 H 893.435 -3.14398 0.0103257 0
M  V30 9399 N 897.207 -1.48554 -0.526253 0
M  V30 9400 C 898.456 -1.56014 -1.27837 0
M  V30 9401 C 898.769 -0.240643 -1.94114 0
M  V30 9402 O 899.975 -0.193525 -2.70809 0
M  V30 9403 C 898.431 -2.75161 -2.31979 0
M  V30 9404 C 898.039 -4.13768 -1.71755 0
M  V30 9405 C 899.783 -2.91936 -3.08178 0
M  V30 9406 C 897.69 -5.24171 -2.7386 0
M  V30 9407 H 896.62 -0.58082 -0.480795 0
M  V30 9408 H 899.271 -1.74895 -0.555335 0
M  V30 9409 H 897.653 -2.49722 -3.07335 0
M  V30 9410 H 898.827 -4.49241 -1.02563 0
M  V30 9411 H 897.142 -4.02141 -1.08036 0
M  V30 9412 H 899.739 -3.71586 -3.84484 0
M  V30 9413 H 900.082 -2.01533 -3.64267 0
M  V30 9414 H 900.615 -3.17294 -2.39937 0
M  V30 9415 H 897.354 -6.16552 -2.22586 0
M  V30 9416 H 896.874 -4.93181 -3.41368 0
M  V30 9417 H 898.553 -5.52442 -3.36774 0
M  V30 9418 N 898.685 0.775411 -1.37205 0
M  V30 9419 C 899.931 1.53533 -1.33414 0
M  V30 9420 C 900.286 1.92225 0.0819435 0
M  V30 9421 O 899.579 1.60935 1.03974 0
M  V30 9422 C 899.773 2.81377 -2.20367 0
M  V30 9423 C 899.602 2.5518 -3.70288 0
M  V30 9424 C 898.372 2.49493 -4.3941 0
M  V30 9425 C 900.57 2.23425 -4.63234 0
M  V30 9426 N 898.552 2.15341 -5.74892 0
M  V30 9427 C 899.923 1.99381 -5.87067 0
M  V30 9428 C 901.978 2.09549 -4.51657 0
M  V30 9429 C 900.681 1.62863 -7.0062 0
M  V30 9430 C 902.707 1.74431 -5.65091 0
M  V30 9431 C 902.069 1.51245 -6.87971 0
M  V30 9432 H 898.168 0.562278 -0.543477 0
M  V30 9433 H 900.752 0.90495 -1.72391 0
M  V30 9434 H 898.923 3.42259 -1.83612 0
M  V30 9435 H 900.655 3.4724 -2.07861 0
M  V30 9436 H 897.41 2.65221 -3.9237 0
M  V30 9437 H 897.834 2.00972 -6.46482 0
M  V30 9438 H 902.476 2.26159 -3.57228 0
M  V30 9439 H 900.194 1.44991 -7.94986 0
M  V30 9440 H 903.78 1.64359 -5.58102 0
M  V30 9441 H 902.66 1.24472 -7.74259 0
M  V30 9442 N 900.163 1.21714 1.00117 0
M  V30 9443 C 901.411 1.03465 1.73607 0
M  V30 9444 C 901.732 -0.432295 1.90148 0
M  V30 9445 O 901.002 -1.31157 1.45515 0
M  V30 9446 H 899.582 0.379857 0.643209 0
M  V30 9447 H 902.244 1.53088 1.20624 0
M  V30 9448 H 901.34 1.50574 2.73375 0
M  V30 9449 N 901.641 -1.19671 1.02551 0
M  V30 9450 C 902.918 -1.85014 0.634771 0
M  V30 9451 C 903.298 -1.91574 -0.886706 0
M  V30 9452 O 902.646 -1.43022 -1.78205 0
M  V30 9453 C 902.856 -3.24167 1.29292 0
M  V30 9454 C 904.204 -4.00363 1.41402 0
M  V30 9455 O 905.228 -3.33553 1.24983 0
M  V30 9456 O 904.087 -5.2003 1.6802 0
M  V30 9457 H 901.181 -0.797147 0.220196 0
M  V30 9458 H 903.727 -1.27188 1.12345 0
M  V30 9459 H 902.499 -3.14208 2.33215 0
M  V30 9460 H 902.122 -3.89634 0.791895 0
M  V30 9461 N 903.119 -0.802921 -1.35613 0
M  V30 9462 C 904.367 -0.380822 -1.9848 0
M  V30 9463 C 904.688 1.05464 -1.6402 0
M  V30 9464 O 903.958 1.72908 -0.920854 0
M  V30 9465 H 902.538 -0.137824 -0.734176 0
M  V30 9466 H 905.2 -1.02795 -1.65587 0
M  V30 9467 H 904.296 -0.483565 -3.08331 0
M  V30 9468 N 904.597 1.47463 -0.556102 0
M  V30 9469 C 905.822 2.07371 -0.0344729 0
M  V30 9470 C 906.247 1.40621 1.2493 0
M  V30 9471 O 905.605 0.48082 1.74808 0
M  V30 9472 C 905.653 3.60306 0.145563 0
M  V30 9473 O 904.757 3.94299 1.20839 0
M  V30 9474 H 904.098 0.662052 -0.0508274 0
M  V30 9475 H 906.628 1.89498 -0.771469 0
M  V30 9476 H 906.638 4.06408 0.360112 0
M  V30 9477 H 905.313 4.08288 -0.792089 0
M  V30 9478 H 903.89 3.59944 0.97442 0
M  V30 9479 N 906.075 0.2925 1.54862 0
M  V30 9480 C 907.022 -0.587365 2.23201 0
M  V30 9481 C 907.992 -1.13623 1.21157 0
M  V30 9482 O 909.177 -1.18233 1.49752 0
M  V30 9483 C 906.317 -1.75745 2.96998 0
M  V30 9484 C 905.43 -1.24078 4.13798 0
M  V30 9485 C 904.565 -2.37405 4.75197 0
M  V30 9486 C 903.604 -1.82829 5.84157 0
M  V30 9487 N 902.741 -2.89696 6.39547 0
M  V30 9488 H 907.581 0.00202207 2.98 0
M  V30 9489 H 905.118 0.012766 1.47094 0
M  V30 9490 H 907.076 -2.44549 3.38011 0
M  V30 9491 H 905.706 -2.3186 2.24591 0
M  V30 9492 H 904.758 -0.445268 3.77785 0
M  V30 9493 H 906.07 -0.801186 4.92324 0
M  V30 9494 H 905.224 -3.14172 5.19019 0
M  V30 9495 H 903.963 -2.84688 3.95985 0
M  V30 9496 H 902.968 -1.04548 5.39768 0
M  V30 9497 H 904.193 -1.36461 6.65248 0
M  V30 9498 H 902.139 -3.36328 5.63222 0
M  V30 9499 H 902.056 -2.50206 7.13395 0
M  V30 9500 H 903.324 -3.66386 6.88027 0
M  V30 9501 N 907.553 -1.57587 0.0200696 0
M  V30 9502 C 908.969 -1.56018 -0.336237 0
M  V30 9503 C 909.169 -1.02478 -1.73495 0
M  V30 9504 O 908.225 -0.667487 -2.43518 0
M  V30 9505 C 909.538 -3.00079 -0.193112 0
M  V30 9506 C 911.086 -3.11863 -0.266557 0
M  V30 9507 C 911.561 -4.57747 -0.152326 0
M  V30 9508 N 913.052 -4.62726 -0.209596 0
M  V30 9509 C 913.787 -5.73217 -0.144855 0
M  V30 9510 N 913.283 -6.92794 -0.0295487 0
M  V30 9511 N 915.076 -5.61751 -0.198184 0
M  V30 9512 H 907.227 -1.90722 0.93482 0
M  V30 9513 H 909.49 -0.876909 0.360186 0
M  V30 9514 H 909.196 -3.43167 0.770036 0
M  V30 9515 H 909.07 -3.64593 -0.967029 0
M  V30 9516 H 911.457 -2.68693 -1.22016 0
M  V30 9517 H 911.538 -2.50087 0.53758 0
M  V30 9518 H 911.182 -5.01595 0.797817 0
M  V30 9519 H 911.112 -5.17491 -0.97521 0
M  V30 9520 H 913.603 -3.76713 -0.299229 0
M  V30 9521 H 913.916 -7.72799 0.0134071 0
M  V30 9522 H 912.261 -6.95 0.00510737 0
M  V30 9523 H 915.452 -4.67222 -0.286603 0
M  V30 9524 H 915.625 -6.47839 -0.144266 0
M  V30 9525 N 909.032 0.252966 -1.55557 0
M  V30 9526 C 910.26 0.999565 -1.81153 0
M  V30 9527 C 910.675 1.79181 -0.594955 0
M  V30 9528 O 910.032 1.77208 0.436311 0
M  V30 9529 C 910.083 1.94227 -3.04891 0
M  V30 9530 O 909.804 1.18209 -4.21851 0
M  V30 9531 C 911.305 2.80536 -3.43241 0
M  V30 9532 H 908.525 0.294402 -0.602966 0
M  V30 9533 H 911.069 0.277686 -2.02606 0
M  V30 9534 H 909.224 2.6185 -2.85505 0
M  V30 9535 H 909.638 1.81922 -4.9194 0
M  V30 9536 H 911.112 3.42442 -4.32941 0
M  V30 9537 H 911.589 3.51337 -2.6355 0
M  V30 9538 H 912.195 2.18373 -3.64956 0
M  V30 9539 N 910.51 1.48831 0.518367 0
M  V30 9540 C 911.74 1.60886 1.29612 0
M  V30 9541 C 912.148 0.272713 1.87224 0
M  V30 9542 O 911.491 -0.749653 1.67708 0
M  V30 9543 C 911.553 2.60541 2.47707 0
M  V30 9544 C 911.217 4.05324 2.11095 0
M  V30 9545 C 912.214 4.92658 1.66084 0
M  V30 9546 C 909.899 4.50942 2.21262 0
M  V30 9547 C 911.893 6.23641 1.3172 0
M  V30 9548 C 909.58 5.81943 1.8651 0
M  V30 9549 C 910.578 6.68116 1.41812 0
M  V30 9550 O 910.266 7.96677 1.07522 0
M  V30 9551 H 909.998 0.544968 0.399982 0
M  V30 9552 H 912.552 1.95474 0.630799 0
M  V30 9553 H 910.782 2.21098 3.17258 0
M  V30 9554 H 912.471 2.62308 3.09757 0
M  V30 9555 H 913.237 4.58649 1.5769 0
M  V30 9556 H 909.116 3.84048 2.55007 0
M  V30 9557 H 912.66 6.90857 0.967598 0
M  V30 9558 H 908.557 6.15484 1.94549 0
M  V30 9559 H 909.325 8.09534 1.2082 0
M  V30 9560 N 911.988 -0.768124 1.37614 0
M  V30 9561 C 913.404 -1.06919 1.18493 0
M  V30 9562 C 913.604 -2.01486 0.0235753 0
M  V30 9563 O 912.66 -2.4438 -0.635209 0
M  V30 9564 C 913.973 -1.66321 2.50515 0
M  V30 9565 C 915.521 -1.78562 2.57069 0
M  V30 9566 C 915.996 -2.41377 3.89231 0
M  V30 9567 N 917.487 -2.48824 3.90693 0
M  V30 9568 C 918.222 -2.98288 4.89706 0
M  V30 9569 N 917.718 -3.47897 5.99115 0
M  V30 9570 N 919.511 -2.97196 4.77107 0
M  V30 9571 H 911.662 -0.140286 2.11936 0
M  V30 9572 H 913.925 -0.124863 0.939741 0
M  V30 9573 H 913.631 -1.04303 3.35878 0
M  V30 9574 H 913.505 -2.65571 2.67866 0
M  V30 9575 H 915.892 -2.39712 1.72111 0
M  V30 9576 H 915.973 -0.780574 2.43599 0
M  V30 9577 H 915.617 -1.80866 4.74605 0
M  V30 9578 H 915.547 -3.42495 4.00006 0
M  V30 9579 H 918.038 -2.1372 3.1166 0
M  V30 9580 H 918.351 -3.84053 6.70614 0
M  V30 9581 H 916.696 -3.45993 6.02755 0
M  V30 9582 H 919.887 -2.57741 3.90752 0
M  V30 9583 H 920.06 -3.35434 5.54426 0
M  V30 9584 N 913.466 -1.22244 -0.994698 0
M  V30 9585 C 914.714 -1.04384 -1.73056 0
M  V30 9586 C 915.035 0.422204 -1.90374 0
M  V30 9587 O 914.305 1.30383 -1.46209 0
M  V30 9588 H 912.885 -0.383263 -0.641185 0
M  V30 9589 H 915.547 -1.53725 -1.1981 0
M  V30 9590 H 914.643 -1.52021 -2.72573 0
M  V30 9591 N 914.944 1.19125 -1.03184 0
M  V30 9592 C 916.355 1.70564 -0.759264 0
M  V30 9593 C 916.706 1.8248 0.720794 0
M  V30 9594 O 915.831 1.49804 1.56166 0
M  V30 9595 C 916.426 3.09793 -1.37163 0
M  V30 9596 C 914.985 3.5848 -1.14757 0
M  V30 9597 C 914.132 2.35265 -1.46784 0
M  V30 9598 H 917.083 1.03925 -1.19939 0
M  V30 9599 H 917.104 3.72624 -0.77015 0
M  V30 9600 H 916.616 3.01088 -2.44882 0
M  V30 9601 H 914.717 3.72494 -0.0887182 0
M  V30 9602 H 914.83 4.42426 -1.83836 0
M  V30 9603 H 913.194 2.38747 -0.887254 0
M  V30 9604 H 913.977 2.29188 -2.55593 0
M  V30 9605 N 916.422 0.810101 1.35185 0
M  V30 9606 C 917.67 0.391343 1.98275 0
M  V30 9607 C 917.991 -1.04592 1.64577 0
M  V30 9608 O 917.261 -1.72417 0.93001 0
M  V30 9609 H 915.841 0.141715 0.733434 0
M  V30 9610 H 918.503 1.03672 1.6504 0
M  V30 9611 H 917.599 0.49991 3.0807 0
M  V30 9612 N 917.9 -1.47166 0.563914 0
M  V30 9613 C 919.146 -2.02756 0.0424338 0
M  V30 9614 C 919.479 -1.43662 -1.3067 0
M  V30 9615 O 918.754 -0.594676 -1.85186 0
M  V30 9616 C 919.037 -3.60074 -0.0434793 0
M  V30 9617 C 918.89 -4.29587 1.33323 0
M  V30 9618 C 920.209 -4.336 -0.753568 0
M  V30 9619 H 917.328 -0.736806 0.0168946 0
M  V30 9620 H 919.97 -1.75521 0.727496 0
M  V30 9621 H 918.12 -3.83409 -0.626906 0
M  V30 9622 H 919.792 -4.17573 1.96037 0
M  V30 9623 H 918.035 -3.8968 1.9061 0
M  V30 9624 H 918.706 -5.38218 1.22576 0
M  V30 9625 H 921.182 -4.15299 -0.258126 0
M  V30 9626 H 920.058 -5.43291 -0.782659 0
M  V30 9627 H 920.319 -4.03302 -1.81108 0
M  V30 9628 N 919.378 -0.300708 -1.54705 0
M  V30 9629 C 920.603 0.314073 -2.05008 0
M  V30 9630 C 921.028 1.46759 -1.17657 0
M  V30 9631 O 920.386 1.80398 -0.180598 0
M  V30 9632 C 920.434 0.748243 -3.52752 0
M  V30 9633 O 919.538 1.85305 -3.68424 0
M  V30 9634 H 918.879 0.0610139 -0.661191 0
M  V30 9635 H 921.409 -0.442467 -1.99758 0
M  V30 9636 H 921.419 1.03713 -3.94598 0
M  V30 9637 H 920.094 -0.095573 -4.1579 0
M  V30 9638 H 918.671 1.56473 -3.38483 0
M  V30 9639 N 920.856 1.57574 -0.0284266 0
M  V30 9640 C 922.267 1.79585 0.510502 0
M  V30 9641 C 922.618 0.938625 1.72291 0
M  V30 9642 O 921.743 0.14884 2.15888 0
M  V30 9643 C 922.338 3.25703 0.932912 0
M  V30 9644 C 920.897 3.48711 1.41696 0
M  V30 9645 C 920.044 2.74665 0.381356 0
M  V30 9646 H 922.995 1.56647 -0.254464 0
M  V30 9647 H 923.016 3.35376 1.79731 0
M  V30 9648 H 922.528 3.88067 0.0503036 0
M  V30 9649 H 920.629 2.91597 2.31952 0
M  V30 9650 H 920.742 4.57423 1.42481 0
M  V30 9651 H 919.106 2.40123 0.8493 0
M  V30 9652 H 919.889 3.39745 -0.492775 0
M  V30 9653 N 922.334 -0.244713 1.55689 0
M  V30 9654 C 923.75 -0.593331 1.48161 0
M  V30 9655 C 923.95 -1.88234 0.719047 0
M  V30 9656 O 923.006 -2.51266 0.249292 0
M  V30 9657 C 924.319 -0.694032 2.92581 0
M  V30 9658 C 925.867 -0.786213 3.02965 0
M  V30 9659 C 926.342 -0.918457 4.48696 0
M  V30 9660 N 927.833 -0.983272 4.52643 0
M  V30 9661 C 928.568 -1.1049 5.62654 0
M  V30 9662 N 928.064 -1.19193 6.8247 0
M  V30 9663 N 929.857 -1.13823 5.50455 0
M  V30 9664 H 922.008 0.601446 2.03707 0
M  V30 9665 H 924.271 0.207894 0.924924 0
M  V30 9666 H 923.977 0.183133 3.51223 0
M  V30 9667 H 923.851 -1.56525 3.4319 0
M  V30 9668 H 926.238 -1.65383 2.44402 0
M  V30 9669 H 926.319 0.110202 2.55563 0
M  V30 9670 H 925.963 -0.0553881 5.0787 0
M  V30 9671 H 925.893 -1.82994 4.93782 0
M  V30 9672 H 928.384 -0.927269 3.66347 0
M  V30 9673 H 928.697 -1.28387 7.62061 0
M  V30 9674 H 927.042 -1.16147 6.85226 0
M  V30 9675 H 930.233 -1.06673 4.55783 0
M  V30 9676 H 930.406 -1.22957 6.36228 0
M  V30 9677 N 923.813 -1.49104 -0.510467 0
M  V30 9678 C 925.09 -1.48609 -1.27179 0
M  V30 9679 C 925.47 -0.208537 -2.10067 0
M  V30 9680 O 924.818 0.809335 -2.13687 0
M  V30 9681 C 925.028 -2.75953 -2.1366 0
M  V30 9682 C 926.376 -3.25067 -2.73161 0
M  V30 9683 O 927.4 -2.77005 -2.23934 0
M  V30 9684 O 926.259 -4.08747 -3.62751 0
M  V30 9685 H 923.353 -0.594374 -0.57502 0
M  V30 9686 H 925.899 -1.61358 -0.525515 0
M  V30 9687 H 924.671 -3.60434 -1.52325 0
M  V30 9688 H 924.294 -2.66019 -2.95499 0
M  V30 9689 N 925.291 0.760815 -1.38019 0
M  V30 9690 C 926.254 1.85604 -1.34476 0
M  V30 9691 C 927.254 1.58897 -0.24666 0
M  V30 9692 O 928.444 1.66776 -0.50314 0
M  V30 9693 C 925.576 3.22945 -1.09176 0
M  V30 9694 H 926.769 1.90155 -2.31908 0
M  V30 9695 H 924.322 0.961746 -1.23208 0
M  V30 9696 H 925.057 3.24066 -0.123216 0
M  V30 9697 H 924.842 3.43723 -1.88672 0
M  V30 9698 H 926.332 4.03022 -1.09375 0
M  V30 9699 N 926.769 1.22769 0.988202 0
M  V30 9700 C 927.717 0.999271 2.10041 0
M  V30 9701 C 928.711 -0.0591767 1.69297 0
M  V30 9702 O 929.917 0.0936653 1.79756 0
M  V30 9703 H 926.292 0.30599 0.686931 0
M  V30 9704 H 928.263 1.94294 2.26478 0
M  V30 9705 C 927.012 0.59873 3.42506 0
M  V30 9706 H 926.335 1.40487 3.74304 0
M  V30 9707 H 927.775 0.478353 4.21293 0
M  V30 9708 C 926.234 -0.692216 3.29712 0
M  V30 9709 O 926.764 -1.74342 3.61895 0
M  V30 9710 N 924.97 -0.665163 2.82885 0
M  V30 9711 H 924.517 0.190604 2.56894 0
M  V30 9712 H 924.475 -1.52917 2.74706 0
M  V30 9713 N 928.247 -1.18576 1.03814 0
M  V30 9714 C 929.475 -1.92437 0.759966 0
M  V30 9715 C 929.89 -1.76031 -0.682526 0
M  V30 9716 O 929.247 -1.08829 -1.46501 0
M  V30 9717 C 929.298 -3.43923 1.11351 0
M  V30 9718 O 929.019 -3.5981 2.49937 0
M  V30 9719 C 930.52 -4.34888 0.859472 0
M  V30 9720 H 927.74 -0.610998 0.277349 0
M  V30 9721 H 930.284 -1.50448 1.38512 0
M  V30 9722 H 928.439 -3.83711 0.533362 0
M  V30 9723 H 928.853 -4.53569 2.63393 0
M  V30 9724 H 930.327 -5.39744 1.15672 0
M  V30 9725 H 930.804 -4.38717 -0.205839 0
M  V30 9726 H 931.41 -4.00795 1.42279 0
M  V30 9727 N 929.725 -0.817259 -1.34754 0
M  V30 9728 C 930.95 -0.414423 -2.03217 0
M  V30 9729 C 931.375 0.970037 -1.61158 0
M  V30 9730 O 930.733 1.63016 -0.793436 0
M  V30 9731 C 930.781 -0.518087 -3.56859 0
M  V30 9732 O 929.885 0.464314 -4.09778 0
M  V30 9733 H 929.226 -0.171454 -0.641482 0
M  V30 9734 H 931.756 -1.10611 -1.72123 0
M  V30 9735 H 931.766 -0.391779 -4.06115 0
M  V30 9736 H 930.441 -1.52786 -3.86819 0
M  V30 9737 H 929.018 0.297361 -3.71712 0
M  V30 9738 N 931.203 1.46865 -0.571711 0
M  V30 9739 C 932.153 2.27219 0.188503 0
M  V30 9740 C 933.137 1.35221 0.872019 0
M  V30 9741 O 934.329 1.59474 0.76793 0
M  V30 9742 C 931.458 3.21321 1.20862 0
M  V30 9743 C 930.544 4.20803 0.527783 0
M  V30 9744 N 930.935 5.04132 -0.410403 0
M  V30 9745 C 929.233 4.39128 0.779909 0
M  V30 9746 C 929.934 5.76071 -0.80728 0
M  V30 9747 N 928.91 5.43368 -0.158865 0
M  V30 9748 H 932.712 2.89034 -0.532611 0
M  V30 9749 H 930.226 1.57581 -0.392696 0
M  V30 9750 H 932.223 3.77586 1.76733 0
M  V30 9751 H 930.883 2.61065 1.93067 0
M  V30 9752 H 931.894 5.11911 -0.785351 0
M  V30 9753 H 928.571 3.90031 1.48937 0
M  V30 9754 H 929.961 6.53082 -1.57903 0
M  V30 9755 N 932.681 0.308908 1.54543 0
M  V30 9756 C 934.097 -0.0442273 1.59539 0
M  V30 9757 C 934.297 -1.51743 1.32575 0
M  V30 9758 O 933.353 -2.27134 1.10302 0
M  V30 9759 C 934.666 0.360826 2.98527 0
M  V30 9760 C 936.214 0.310252 3.11459 0
M  V30 9761 C 936.689 0.690246 4.52769 0
M  V30 9762 N 938.18 0.643084 4.58714 0
M  V30 9763 C 938.915 0.909483 5.66141 0
M  V30 9764 N 938.411 1.24226 6.81572 0
M  V30 9765 N 940.204 0.836018 5.55848 0
M  V30 9766 H 932.355 1.26893 1.70329 0
M  V30 9767 H 934.618 0.514986 0.795923 0
M  V30 9768 H 934.324 1.38669 3.23209 0
M  V30 9769 H 934.198 -0.281563 3.76148 0
M  V30 9770 H 936.585 -0.706375 2.86521 0
M  V30 9771 H 936.666 0.987373 2.35976 0
M  V30 9772 H 936.31 1.70472 4.78437 0
M  V30 9773 H 936.24 -0.00903075 5.26599 0
M  V30 9774 H 938.731 0.397138 3.75807 0
M  V30 9775 H 939.044 1.4313 7.5943 0
M  V30 9776 H 937.389 1.28038 6.83104 0
M  V30 9777 H 940.58 0.575637 4.64547 0
M  V30 9778 H 940.753 1.047 6.39486 0
M  V30 9779 N 934.159 -1.57557 0.0367827 0
M  V30 9780 C 935.405 -1.93224 -0.635306 0
M  V30 9781 C 935.76 -0.914194 -1.69293 0
M  V30 9782 O 935.053 0.0686974 -1.91477 0
M  V30 9783 C 935.247 -3.33387 -1.28794 0
M  V30 9784 C 935.076 -4.48731 -0.295055 0
M  V30 9785 C 933.846 -5.05185 0.10783 0
M  V30 9786 C 936.044 -5.12294 0.453749 0
M  V30 9787 N 934.026 -6.04054 1.09508 0
M  V30 9788 C 935.397 -6.06335 1.29452 0
M  V30 9789 C 937.452 -4.95244 0.513622 0
M  V30 9790 C 936.155 -6.85158 2.18977 0
M  V30 9791 C 938.181 -5.74682 1.39624 0
M  V30 9792 C 937.543 -6.68344 2.22477 0
M  V30 9793 H 933.642 -0.754772 -0.204555 0
M  V30 9794 H 936.226 -1.94413 0.105751 0
M  V30 9795 H 934.397 -3.33002 -1.9991 0
M  V30 9796 H 936.129 -3.56381 -1.91767 0
M  V30 9797 H 932.884 -4.7284 -0.268192 0
M  V30 9798 H 933.308 -6.5818 1.58518 0
M  V30 9799 H 937.95 -4.2265 -0.112699 0
M  V30 9800 H 935.668 -7.57052 2.82661 0
M  V30 9801 H 939.254 -5.6352 1.44696 0
M  V30 9802 H 938.134 -7.2874 2.89668 0
M  V30 9803 N 935.637 0.236453 -1.55816 0
M  V30 9804 C 936.886 0.960981 -1.77336 0
M  V30 9805 C 937.199 1.86085 -0.602641 0
M  V30 9806 O 938.405 2.62291 -0.701106 0
M  V30 9807 C 936.861 1.75884 -3.13995 0
M  V30 9808 C 936.469 0.905849 -4.38746 0
M  V30 9809 C 938.213 2.47548 -3.44848 0
M  V30 9810 C 936.12 1.7002 -5.66434 0
M  V30 9811 H 935.05 0.362547 -0.661117 0
M  V30 9812 H 937.701 0.215303 -1.82233 0
M  V30 9813 H 936.083 2.54687 -3.03234 0
M  V30 9814 H 937.257 0.159415 -4.60524 0
M  V30 9815 H 935.572 0.30205 -4.15303 0
M  V30 9816 H 938.169 3.07452 -4.37467 0
M  V30 9817 H 938.512 3.19689 -2.66655 0
M  V30 9818 H 939.045 1.75747 -3.56872 0
M  V30 9819 H 935.784 1.02234 -6.47479 0
M  V30 9820 H 935.304 2.42164 -5.48741 0
M  V30 9821 H 936.983 2.26469 -6.0607 0
M  V30 9822 N 937.115 1.49373 0.502552 0
M  V30 9823 C 938.025 1.68659 1.63068 0
M  V30 9824 C 939.041 0.569182 1.64427 0
M  V30 9825 O 940.217 0.843695 1.82876 0
M  V30 9826 C 937.282 1.74745 2.99441 0
M  V30 9827 C 936.343 2.98311 3.08721 0
M  V30 9828 C 935.576 3.04097 4.38589 0
M  V30 9829 O 935.799 2.17519 5.27297 0
M  V30 9830 O 934.733 3.96544 4.52809 0
M  V30 9831 H 938.559 2.64226 1.49727 0
M  V30 9832 H 936.144 1.33096 0.67867 0
M  V30 9833 H 938.026 1.8111 3.80496 0
M  V30 9834 H 936.701 0.823565 3.13048 0
M  V30 9835 H 935.608 2.97465 2.2686 0
M  V30 9836 H 936.941 3.90174 3.00041 0
M  V30 9837 N 938.594 -0.753485 1.38421 0
M  V30 9838 C 939.841 -1.51261 1.34634 0
M  V30 9839 C 940.169 -1.94396 -0.0635771 0
M  V30 9840 O 939.424 -1.65736 -1.04068 0
M  V30 9841 C 939.723 -2.77836 2.24816 0
M  V30 9842 C 939.389 -2.53662 3.72782 0
M  V30 9843 C 938.051 -2.46779 4.13103 0
M  V30 9844 C 940.403 -2.32548 4.66445 0
M  V30 9845 C 937.731 -2.16796 5.45176 0
M  V30 9846 C 940.083 -2.04085 5.98775 0
M  V30 9847 C 938.747 -1.95658 6.3818 0
M  V30 9848 H 938.017 -0.553503 0.492661 0
M  V30 9849 H 940.664 -0.866406 1.7078 0
M  V30 9850 H 938.969 -3.47106 1.81726 0
M  V30 9851 H 940.666 -3.35793 2.19189 0
M  V30 9852 H 937.256 -2.59891 3.40815 0
M  V30 9853 H 941.44 -2.36845 4.3614 0
M  V30 9854 H 936.696 -2.0878 5.74648 0
M  V30 9855 H 940.87 -1.86751 6.70893 0
M  V30 9856 H 938.497 -1.7219 7.40442 0
M  V30 9857 N 940.072 -1.23292 -0.981677 0
M  V30 9858 C 941.349 -0.972514 -1.6971 0
M  V30 9859 C 941.729 0.509244 -2.04866 0
M  V30 9860 O 941.077 1.48013 -1.74082 0
M  V30 9861 C 941.287 -1.88144 -2.93943 0
M  V30 9862 C 942.635 -2.14416 -3.66485 0
M  V30 9863 O 943.659 -1.85684 -3.03974 0
M  V30 9864 O 942.518 -2.63139 -4.78978 0
M  V30 9865 H 939.612 -0.366673 -0.741269 0
M  V30 9866 H 942.158 -1.34328 -1.03701 0
M  V30 9867 H 940.93 -2.8832 -2.64551 0
M  V30 9868 H 940.553 -1.51296 -3.67689 0
M  V30 9869 N 941.55 1.18024 -1.04442 0
M  V30 9870 C 942.775 1.92573 -0.770097 0
M  V30 9871 C 943.2 1.75871 0.667169 0
M  V30 9872 O 942.558 1.07136 1.46258 0
M  V30 9873 C 942.606 3.41904 -1.14602 0
M  V30 9874 O 941.71 4.11491 -0.273712 0
M  V30 9875 H 941.051 0.600636 -0.283076 0
M  V30 9876 H 943.581 1.49645 -1.39526 0
M  V30 9877 H 943.591 3.92623 -1.10956 0
M  V30 9878 H 942.266 3.53382 -2.19304 0
M  V30 9879 H 940.843 3.71059 -0.370124 0
M  V30 9880 N 943.028 0.824394 1.34319 0
M  V30 9881 C 943.958 0.262077 2.32025 0
M  V30 9882 C 944.939 -0.622277 1.58309 0
M  V30 9883 O 946.124 -0.548848 1.86283 0
M  V30 9884 C 943.254 -0.57567 3.42496 0
M  V30 9885 C 942.208 0.21167 4.27476 0
M  V30 9886 C 941.534 -0.748913 5.29429 0
M  V30 9887 C 942.834 1.42068 5.02607 0
M  V30 9888 H 944.528 1.07842 2.79304 0
M  V30 9889 H 942.074 0.520022 1.34282 0
M  V30 9890 H 944.027 -0.979251 4.09864 0
M  V30 9891 H 942.751 -1.42508 2.93869 0
M  V30 9892 H 941.41 0.596636 3.61712 0
M  V30 9893 H 941.058 -1.59432 4.77064 0
M  V30 9894 H 940.758 -0.226313 5.87164 0
M  V30 9895 H 942.282 -1.15032 5.99667 0
M  V30 9896 H 943.696 1.09103 5.62823 0
M  V30 9897 H 942.093 1.87903 5.69923 0
M  V30 9898 H 943.163 2.1981 4.32217 0
M  V30 9899 N 944.506 -1.46559 0.579492 0
M  V30 9900 C 945.752 -2.02699 0.0639363 0
M  V30 9901 C 946.085 -1.4504 -1.29139 0
M  V30 9902 O 945.36 -0.614284 -1.84545 0
M  V30 9903 C 945.643 -3.601 -0.00528618 0
M  V30 9904 C 945.496 -4.28149 1.37871 0
M  V30 9905 C 946.815 -4.34375 -0.707537 0
M  V30 9906 H 943.934 -0.736586 0.0247085 0
M  V30 9907 H 946.576 -1.74739 0.746071 0
M  V30 9908 H 944.726 -3.84052 -0.586206 0
M  V30 9909 H 946.398 -4.1547 2.00455 0
M  V30 9910 H 944.641 -3.87636 1.94732 0
M  V30 9911 H 945.312 -5.36888 1.28278 0
M  V30 9912 H 947.788 -4.15549 -0.214064 0
M  V30 9913 H 946.664 -5.44091 -0.724992 0
M  V30 9914 H 946.925 -4.052 -1.7682 0
M  V30 9915 N 945.984 -0.3171 -1.54377 0
M  V30 9916 C 946.914 0.544623 -2.2706 0
M  V30 9917 C 947.895 1.12469 -1.27611 0
M  V30 9918 O 949.08 1.15103 -1.56413 0
M  V30 9919 C 946.21 1.70879 -3.02353 0
M  V30 9920 C 945.164 1.25833 -4.09084 0
M  V30 9921 C 944.49 2.50894 -4.72182 0
M  V30 9922 C 945.79 0.377876 -5.20931 0
M  V30 9923 H 947.484 -0.0616372 -2.99337 0
M  V30 9924 H 945.03 -0.0310848 -1.43966 0
M  V30 9925 H 946.983 2.31787 -3.51927 0
M  V30 9926 H 945.707 2.34155 -2.27682 0
M  V30 9927 H 944.366 0.672228 -3.60384 0
M  V30 9928 H 944.014 3.12518 -3.94134 0
M  V30 9929 H 943.714 2.21447 -5.44275 0
M  V30 9930 H 945.238 3.12575 -5.24528 0
M  V30 9931 H 946.652 0.893056 -5.66302 0
M  V30 9932 H 945.049 0.176474 -5.9984 0
M  V30 9933 H 946.119 -0.592943 -4.81261 0
M  V30 9934 N 947.462 1.57535 -0.0451378 0
M  V30 9935 C 948.708 1.92736 0.630921 0
M  V30 9936 C 949.041 0.923265 1.70849 0
M  V30 9937 O 948.316 -0.0516512 1.94431 0
M  V30 9938 C 948.599 3.38348 1.23259 0
M  V30 9939 C 948.452 4.49503 0.16349 0
M  V30 9940 C 949.771 3.84233 2.14599 0
M  V30 9941 H 946.89 0.700884 0.227883 0
M  V30 9942 H 949.532 1.89706 -0.10567 0
M  V30 9943 H 947.682 3.41061 1.86037 0
M  V30 9944 H 949.354 4.58919 -0.46808 0
M  V30 9945 H 947.597 4.30802 -0.509166 0
M  V30 9946 H 948.268 5.48457 0.624382 0
M  V30 9947 H 950.744 3.83358 1.6179 0
M  V30 9948 H 949.62 4.86781 2.53644 0
M  V30 9949 H 949.881 3.20646 3.04366 0
M  V30 9950 N 948.94 -0.228186 1.55939 0
M  V30 9951 C 950.168 -0.970618 1.8272 0
M  V30 9952 C 950.583 -1.78212 0.623385 0
M  V30 9953 O 949.94 -1.77879 -0.408063 0
M  V30 9954 C 949.991 -1.89352 3.07942 0
M  V30 9955 O 949.712 -1.11483 4.23678 0
M  V30 9956 C 951.213 -2.75039 3.47661 0
M  V30 9957 H 948.433 -0.284772 0.607574 0
M  V30 9958 H 950.977 -0.245419 2.03022 0
M  V30 9959 H 949.132 -2.57275 2.89635 0
M  V30 9960 H 949.546 -1.74073 4.94772 0
M  V30 9961 H 951.02 -3.35511 4.38334 0
M  V30 9962 H 951.497 -3.471 2.69106 0
M  V30 9963 H 952.103 -2.1254 3.68384 0
M  V30 9964 N 950.418 -1.49637 -0.494624 0
M  V30 9965 C 951.666 -1.5913 -1.24587 0
M  V30 9966 C 951.987 -0.282828 -1.92938 0
M  V30 9967 O 951.257 0.69825 -1.83034 0
M  V30 9968 H 949.837 -0.586329 -0.462847 0
M  V30 9969 H 952.499 -1.86296 -0.572696 0
M  V30 9970 H 951.595 -2.3906 -2.00641 0
M  V30 9971 N 951.896 0.746133 -1.38819 0
M  V30 9972 C 953.312 1.0502 -1.20179 0
M  V30 9973 C 953.512 2.01423 -0.0556271 0
M  V30 9974 O 952.568 2.45359 0.59625 0
M  V30 9975 C 953.881 1.62315 -2.53129 0
M  V30 9976 C 955.429 1.74449 -2.59878 0
M  V30 9977 C 955.904 2.35155 -3.93022 0
M  V30 9978 N 957.395 2.42577 -3.94602 0
M  V30 9979 C 958.13 2.9046 -4.94389 0
M  V30 9980 N 957.626 3.38322 -6.04574 0
M  V30 9981 N 959.419 2.89568 -4.81775 0
M  V30 9982 H 951.57 0.106551 -2.12133 0
M  V30 9983 H 953.833 0.109897 -0.941609 0
M  V30 9984 H 953.539 0.98946 -3.37495 0
M  V30 9985 H 953.413 2.61276 -2.72057 0
M  V30 9986 H 955.8 2.36943 -1.75903 0
M  V30 9987 H 955.881 0.741721 -2.4481 0
M  V30 9988 H 955.525 1.73292 -4.77422 0
M  V30 9989 H 955.455 3.36088 -4.05404 0
M  V30 9990 H 957.946 2.08735 -3.15021 0
M  V30 9991 H 958.259 3.73336 -6.76639 0
M  V30 9992 H 956.604 3.3636 -6.08184 0
M  V30 9993 H 959.795 2.51492 -3.94803 0
M  V30 9994 H 959.968 3.26571 -5.59692 0
M  V30 9995 N 953.375 1.23811 0.975125 0
M  V30 9996 C 954.325 0.991036 2.05335 0
M  V30 9997 C 955.309 -0.0648793 1.60769 0
M  V30 9998 O 956.501 0.147917 1.76381 0
M  V30 9999 C 953.63 0.589822 3.38195 0
M  V30 10000 C 952.716 1.68142 3.89344 0
M  V30 10001 N 953.107 2.91274 4.13513 0
M  V30 10002 C 951.405 1.55722 4.17931 0
M  V30 10003 C 952.106 3.61987 4.55347 0
M  V30 10004 N 951.082 2.8952 4.60086 0
M  V30 10005 H 954.884 1.92612 2.21986 0
M  V30 10006 H 952.398 1.13827 1.15832 0
M  V30 10007 H 954.395 0.394075 4.15033 0
M  V30 10008 H 953.055 -0.338157 3.22934 0
M  V30 10009 H 954.066 3.27528 4.01181 0
M  V30 10010 H 950.743 0.696732 4.11645 0
M  V30 10011 H 952.133 4.67572 4.8252 0
M  V30 10012 N 954.853 -1.17469 1.05066 0
M  V30 10013 C 956.078 -1.92162 0.780298 0
M  V30 10014 C 956.503 -1.76222 -0.657832 0
M  V30 10015 O 955.861 -1.0791 -1.45688 0
M  V30 10016 C 955.909 -3.41292 1.16414 0
M  V30 10017 O 955.013 -4.1134 0.295531 0
M  V30 10018 H 954.354 -0.599127 0.286257 0
M  V30 10019 H 956.884 -1.48903 1.40318 0
M  V30 10020 H 956.894 -3.92029 1.13036 0
M  V30 10021 H 955.569 -3.52214 2.21175 0
M  V30 10022 H 954.146 -3.70857 0.389797 0
M  V30 10023 N 956.331 -0.831506 -1.3388 0
M  V30 10024 C 957.241 -0.261688 -2.33136 0
M  V30 10025 C 958.257 0.608429 -1.63016 0
M  V30 10026 O 959.433 0.514297 -1.94723 0
M  V30 10027 C 956.498 0.559957 -3.42148 0
M  V30 10028 C 955.559 -0.333569 -4.28002 0
M  V30 10029 C 954.792 0.448956 -5.31808 0
M  V30 10030 O 955.015 1.6814 -5.45055 0
M  V30 10031 O 953.949 -0.173197 -6.01651 0
M  V30 10032 H 957.775 -1.08343 -2.83717 0
M  V30 10033 H 955.36 -0.593849 -1.3709 0
M  V30 10034 H 957.242 1.02712 -4.08691 0
M  V30 10035 H 955.917 1.35888 -2.93796 0
M  V30 10036 H 954.824 -0.848416 -3.64352 0
M  V30 10037 H 956.157 -1.09707 -4.79818 0
M  V30 10038 N 957.809 1.4625 -0.587256 0
M  V30 10039 C 959.049 2.04254 -0.0773169 0
M  V30 10040 C 959.413 1.44831 1.26047 0
M  V30 10041 O 960.614 1.94063 1.85992 0
M  V30 10042 C 958.885 3.57396 -0.0172813 0
M  V30 10043 S 960.444 4.36644 0.434422 0
M  V30 10044 H 957.262 0.709892 -0.0396783 0
M  V30 10045 H 959.864 1.79232 -0.780779 0
M  V30 10046 H 958.568 3.98161 -0.994795 0
M  V30 10047 H 958.099 3.86962 0.70881 0
M  V30 10048 H 960.114 4.66597 1.68824 0
M  V30 10049 N 959.287 0.325282 1.54207 0
M  V30 10050 C 960.515 -0.27869 2.05014 0
M  V30 10051 C 960.93 -1.45649 1.20133 0
M  V30 10052 O 960.287 -1.81014 0.232398 0
M  V30 10053 C 960.338 -0.711486 3.54429 0
M  V30 10054 O 960.059 0.419458 4.36087 0
M  V30 10055 C 961.56 -1.37809 4.21336 0
M  V30 10056 H 958.78 -0.0570388 0.668571 0
M  V30 10057 H 961.324 0.47197 1.98979 0
M  V30 10058 H 959.479 -1.41212 3.60746 0
M  V30 10059 H 959.893 0.0781037 5.24442 0
M  V30 10060 H 961.367 -1.63184 5.27328 0
M  V30 10061 H 961.844 -2.32593 3.72555 0
M  V30 10062 H 962.45 -0.719987 4.19161 0
M  V30 10063 N 960.765 -1.57509 0.0534917 0
M  V30 10064 C 961.695 -2.14698 -0.917999 0
M  V30 10065 C 962.676 -1.06924 -1.32292 0
M  V30 10066 O 963.861 -1.34875 -1.39723 0
M  V30 10067 C 960.991 -2.69383 -2.19203 0
M  V30 10068 C 959.945 -3.82161 -1.9271 0
M  V30 10069 C 959.271 -4.23373 -3.26587 0
M  V30 10070 C 960.571 -5.07199 -1.24686 0
M  V30 10071 H 962.265 -2.96125 -0.44165 0
M  V30 10072 H 959.811 -1.42446 -0.210993 0
M  V30 10073 H 961.764 -3.08031 -2.87567 0
M  V30 10074 H 960.488 -1.85151 -2.69048 0
M  V30 10075 H 959.147 -3.43989 -1.26757 0
M  V30 10076 H 958.795 -3.36089 -3.74237 0
M  V30 10077 H 958.495 -4.99385 -3.09658 0
M  V30 10078 H 960.019 -4.64623 -3.96178 0
M  V30 10079 H 961.433 -5.43279 -1.83088 0
M  V30 10080 H 959.83 -5.88369 -1.18076 0
M  V30 10081 H 960.9 -4.84386 -0.223227 0
M  V30 10082 N 962.243 0.219913 -1.56058 0
M  V30 10083 C 963.489 0.941055 -1.80321 0
M  V30 10084 C 963.844 1.81906 -0.626735 0
M  V30 10085 O 963.137 1.87811 0.379147 0
M  V30 10086 C 963.331 1.81293 -3.08006 0
M  V30 10087 C 963.16 1.02082 -4.37961 0
M  V30 10088 C 961.93 0.715096 -5.00214 0
M  V30 10089 C 964.128 0.385342 -5.12854 0
M  V30 10090 N 962.11 -0.098246 -6.13821 0
M  V30 10091 C 963.481 -0.291319 -6.19315 0
M  V30 10092 C 965.536 0.29854 -4.97004 0
M  V30 10093 C 964.239 -1.04648 -7.11647 0
M  V30 10094 C 966.265 -0.443159 -5.89737 0
M  V30 10095 C 965.627 -1.10836 -6.95625 0
M  V30 10096 H 961.726 0.324568 -0.711463 0
M  V30 10097 H 964.31 0.211795 -1.93545 0
M  V30 10098 H 962.481 2.51399 -2.96063 0
M  V30 10099 H 964.213 2.47167 -3.20454 0
M  V30 10100 H 960.968 1.03352 -4.62185 0
M  V30 10101 H 961.392 -0.4938 -6.75197 0
M  V30 10102 H 966.034 0.798478 -4.15192 0
M  V30 10103 H 963.752 -1.55793 -7.9294 0
M  V30 10104 H 967.338 -0.511348 -5.79549 0
M  V30 10105 H 966.218 -1.6731 -7.66144 0
M  V30 10106 N 963.721 1.49897 0.486681 0
M  V30 10107 C 964.669 1.68125 1.60738 0
M  V30 10108 C 965.663 0.547097 1.60322 0
M  V30 10109 O 966.869 0.727153 1.64659 0
M  V30 10110 H 963.244 0.530391 0.533094 0
M  V30 10111 H 965.215 2.62165 1.42521 0
M  V30 10112 C 963.964 1.77827 2.98786 0
M  V30 10113 H 963.287 2.6448 2.99818 0
M  V30 10114 H 964.727 1.94611 3.76699 0
M  V30 10115 C 963.186 0.526287 3.32764 0
M  V30 10116 O 963.716 -0.341607 4.00245 0
M  V30 10117 N 961.922 0.384947 2.88039 0
M  V30 10118 H 961.469 1.09222 2.33299 0
M  V30 10119 H 961.427 -0.451618 3.11139 0
M  V30 10120 N 965.199 -0.738761 1.39212 0
M  V30 10121 C 966.109 -1.88324 1.39897 0
M  V30 10122 C 967.125 -1.71494 0.294229 0
M  V30 10123 O 968.301 -1.94162 0.535087 0
M  V30 10124 C 965.366 -3.23871 1.23726 0
M  V30 10125 C 964.427 -3.53121 2.44139 0
M  V30 10126 C 963.66 -4.82202 2.2873 0
M  V30 10127 O 963.883 -5.55649 1.28879 0
M  V30 10128 O 962.817 -5.11265 3.17634 0
M  V30 10129 H 966.643 -1.90701 2.36362 0
M  V30 10130 H 964.228 -0.886067 1.20288 0
M  V30 10131 H 966.11 -4.04882 1.16826 0
M  V30 10132 H 964.785 -3.22274 0.303551 0
M  V30 10133 H 963.692 -2.72212 2.56615 0
M  V30 10134 H 965.025 -3.59495 3.36191 0
M  V30 10135 N 966.677 -1.24326 -0.968545 0
M  V30 10136 C 967.607 -1.05951 -2.08079 0
M  V30 10137 C 968.588 0.0272666 -1.70078 0
M  V30 10138 O 969.773 -0.139644 -1.93697 0
M  V30 10139 C 966.903 -0.662623 -3.4092 0
M  V30 10140 C 965.857 -1.69807 -3.92873 0
M  V30 10141 C 965.183 -1.15628 -5.22048 0
M  V30 10142 C 966.483 -3.09383 -4.20808 0
M  V30 10143 H 968.177 -1.98984 -2.23709 0
M  V30 10144 H 965.723 -0.958112 -1.075 0
M  V30 10145 H 967.676 -0.521071 -4.18166 0
M  V30 10146 H 966.4 0.303399 -3.25188 0
M  V30 10147 H 965.059 -1.82783 -3.17783 0
M  V30 10148 H 964.707 -0.180888 -5.02675 0
M  V30 10149 H 964.407 -1.84822 -5.57776 0
M  V30 10150 H 965.931 -1.02683 -6.01904 0
M  V30 10151 H 967.345 -2.99642 -4.88761 0
M  V30 10152 H 965.742 -3.75923 -4.67763 0
M  V30 10153 H 966.812 -3.57486 -3.27616 0
M  V30 10154 N 968.156 1.1691 -1.05688 0
M  V30 10155 C 969.103 2.21095 -0.662246 0
M  V30 10156 C 970.073 1.62623 0.338083 0
M  V30 10157 O 971.258 1.89428 0.228362 0
M  V30 10158 C 968.398 3.45066 -0.0484018 0
M  V30 10159 C 967.511 4.17809 -1.09817 0
M  V30 10160 C 966.646 5.29281 -0.451114 0
M  V30 10161 C 965.685 5.93817 -1.48484 0
M  V30 10162 N 964.822 6.96793 -0.861588 0
M  V30 10163 H 969.662 2.54204 -1.55513 0
M  V30 10164 H 967.199 1.24863 -0.777665 0
M  V30 10165 H 969.157 4.15932 0.324978 0
M  V30 10166 H 967.787 3.12526 0.807918 0
M  V30 10167 H 966.839 3.45608 -1.58932 0
M  V30 10168 H 968.151 4.61907 -1.88265 0
M  V30 10169 H 967.305 6.06695 -0.0244251 0
M  V30 10170 H 966.044 4.8633 0.365306 0
M  V30 10171 H 965.049 5.1513 -1.92149 0
M  V30 10172 H 966.274 6.38848 -2.30325 0
M  V30 10173 H 964.22 6.55967 -0.0657688 0
M  V30 10174 H 964.137 7.39229 -1.58354 0
M  V30 10175 H 965.405 7.78142 -0.45984 0
M  V30 10176 N 969.634 0.838594 1.33437 0
M  V30 10177 C 970.597 0.276843 2.27522 0
M  V30 10178 C 971.597 -0.554275 1.50945 0
M  V30 10179 O 972.787 -0.368107 1.70266 0
M  V30 10180 C 969.919 -0.610036 3.35397 0
M  V30 10181 H 971.112 1.10705 2.78719 0
M  V30 10182 H 968.665 0.611657 1.43835 0
M  V30 10183 H 969.4 -1.46269 2.89441 0
M  V30 10184 H 969.185 -0.0153615 3.92097 0
M  V30 10185 H 970.675 -0.996368 4.05539 0
M  V30 10186 N 971.112 -1.45937 0.595003 0
M  V30 10187 C 972.528 -1.57507 0.257641 0
M  V30 10188 C 972.728 -1.58829 -1.23998 0
M  V30 10189 O 971.784 -1.51183 -2.02237 0
M  V30 10190 C 973.097 -2.86354 0.917708 0
M  V30 10191 C 974.645 -3.00007 0.892446 0
M  V30 10192 C 975.12 -4.31607 1.53229 0
M  V30 10193 N 976.611 -4.38336 1.49719 0
M  V30 10194 C 977.346 -5.38805 1.96154 0
M  V30 10195 N 976.842 -6.45882 2.50617 0
M  V30 10196 N 978.635 -5.30084 1.86997 0
M  V30 10197 H 970.786 -1.43322 1.56756 0
M  V30 10198 H 973.049 -0.684436 0.655936 0
M  V30 10199 H 972.755 -2.91233 1.97171 0
M  V30 10200 H 972.629 -3.74703 0.433344 0
M  V30 10201 H 975.016 -2.94703 -0.152975 0
M  V30 10202 H 975.097 -2.13103 1.41495 0
M  V30 10203 H 974.741 -4.3767 2.57697 0
M  V30 10204 H 974.671 -5.17308 0.984903 0
M  V30 10205 H 977.162 -3.6156 1.09921 0
M  V30 10206 H 977.475 -7.18774 2.83874 0
M  V30 10207 H 975.82 -6.46668 2.54649 0
M  V30 10208 H 979.011 -4.45337 1.44196 0
M  V30 10209 H 979.184 -6.08237 2.23499 0
M  V30 10210 N 972.59 -0.333456 -1.54032 0
M  V30 10211 C 973.5 0.536674 -2.28379 0
M  V30 10212 C 974.516 1.12068 -1.33104 0
M  V30 10213 O 975.692 1.13853 -1.66131 0
M  V30 10214 C 972.757 1.67677 -3.03456 0
M  V30 10215 C 971.818 1.12357 -4.14336 0
M  V30 10216 C 971.051 2.20933 -4.85823 0
M  V30 10217 O 971.274 3.41466 -4.569 0
M  V30 10218 O 970.208 1.85795 -5.72507 0
M  V30 10219 H 974.034 -0.0674003 -3.03625 0
M  V30 10220 H 971.619 -0.098823 -1.49073 0
M  V30 10221 H 973.501 2.34032 -3.50438 0
M  V30 10222 H 972.176 2.26684 -2.31076 0
M  V30 10223 H 971.083 0.424827 -3.7168 0
M  V30 10224 H 972.416 0.578497 -4.88789 0
M  V30 10225 N 974.068 1.57479 -0.061844 0
M  V30 10226 C 975.293 1.97843 0.622311 0
M  V30 10227 C 975.718 0.939602 1.62951 0
M  V30 10228 O 975.076 -0.095958 1.81046 0
M  V30 10229 C 975.124 3.37262 1.2762 0
M  V30 10230 O 974.228 3.35943 2.39199 0
M  V30 10231 H 973.569 0.644212 0.160896 0
M  V30 10232 H 976.099 2.04165 -0.133409 0
M  V30 10233 H 976.109 3.74226 1.62539 0
M  V30 10234 H 974.784 4.12404 0.538112 0
M  V30 10235 H 973.361 3.10737 2.06148 0
M  V30 10236 N 975.546 -0.211634 1.56173 0
M  V30 10237 C 976.456 -1.2831 1.96402 0
M  V30 10238 C 977.472 -1.50731 0.869254 0
M  V30 10239 O 978.648 -1.63669 1.17365 0
M  V30 10240 C 975.713 -2.61084 2.28114 0
M  V30 10241 C 974.774 -2.46879 3.51211 0
M  V30 10242 C 974.007 -3.73321 3.81401 0
M  V30 10243 O 974.23 -4.76773 3.13119 0
M  V30 10244 O 973.164 -3.69839 4.74871 0
M  V30 10245 H 976.99 -0.971733 2.87734 0
M  V30 10246 H 974.575 -0.415305 1.43512 0
M  V30 10247 H 976.457 -3.39481 2.49661 0
M  V30 10248 H 975.132 -2.91881 1.39954 0
M  V30 10249 H 974.039 -1.66648 3.34932 0
M  V30 10250 H 975.372 -2.21018 4.39786 0
M  V30 10251 N 977.024 -1.50153 -0.478725 0
M  V30 10252 C 978.27 -1.61968 -1.23036 0
M  V30 10253 C 978.625 -0.312529 -1.89845 0
M  V30 10254 O 977.918 0.688995 -1.78783 0
M  V30 10255 C 978.112 -2.73208 -2.30417 0
M  V30 10256 C 977.941 -4.14614 -1.74142 0
M  V30 10257 C 976.711 -4.81116 -1.54452 0
M  V30 10258 C 978.909 -4.99111 -1.24066 0
M  V30 10259 N 976.891 -6.06763 -0.933399 0
M  V30 10260 C 978.262 -6.15419 -0.752286 0
M  V30 10261 C 980.317 -4.84943 -1.12849 0
M  V30 10262 C 979.02 -7.19116 -0.162808 0
M  V30 10263 C 981.046 -5.88809 -0.552955 0
M  V30 10264 C 980.408 -7.0436 -0.0749195 0
M  V30 10265 H 976.507 -0.646894 -0.439377 0
M  V30 10266 H 979.091 -1.87244 -0.53364 0
M  V30 10267 H 977.262 -2.49667 -2.97525 0
M  V30 10268 H 978.994 -2.74423 -2.97446 0
M  V30 10269 H 975.749 -4.38282 -1.7946 0
M  V30 10270 H 976.173 -6.73906 -0.64647 0
M  V30 10271 H 980.815 -3.959 -1.48402 0
M  V30 10272 H 978.533 -8.0784 0.204943 0
M  V30 10273 H 982.119 -5.7991 -0.468633 0
M  V30 10274 H 980.999 -7.83357 0.363455 0
M  V30 10275 N 978.502 0.731368 -1.39602 0
M  V30 10276 C 979.465 1.8271 -1.38383 0
M  V30 10277 C 980.465 1.58338 -0.280309 0
M  V30 10278 O 981.655 1.65671 -0.538402 0
M  V30 10279 C 978.787 3.20556 -1.16002 0
M  V30 10280 H 979.98 1.85193 -2.35889 0
M  V30 10281 H 977.533 0.935396 -1.2522 0
M  V30 10282 H 978.268 3.23732 -0.191927 0
M  V30 10283 H 978.053 3.39643 -1.9592 0
M  V30 10284 H 979.543 4.00612 -1.17899 0
M  V30 10285 N 979.98 1.24838 0.961938 0
M  V30 10286 C 980.89 1.06304 2.09133 0
M  V30 10287 C 981.906 0.00221475 1.74 0
M  V30 10288 O 983.082 0.201611 2.00388 0
M  V30 10289 C 980.147 0.676117 3.40043 0
M  V30 10290 C 979.208 1.81407 3.89089 0
M  V30 10291 C 978.441 1.44551 5.13752 0
M  V30 10292 O 978.664 0.337894 5.69398 0
M  V30 10293 O 977.598 2.27316 5.57325 0
M  V30 10294 H 981.424 2.01001 2.27667 0
M  V30 10295 H 979.009 1.0371 1.07539 0
M  V30 10296 H 980.891 0.472124 4.18747 0
M  V30 10297 H 979.566 -0.241667 3.22797 0
M  V30 10298 H 978.473 2.07286 3.11421 0
M  V30 10299 H 979.806 2.71083 4.10822 0
M  V30 10300 N 981.458 -1.16348 1.06306 0
M  V30 10301 C 982.406 -2.22799 0.668087 0
M  V30 10302 C 983.4 -1.66426 -0.316051 0
M  V30 10303 O 984.606 -1.79089 -0.180902 0
M  V30 10304 H 980.981 -0.725487 0.19792 0
M  V30 10305 H 982.952 -2.53401 1.57577 0
M  V30 10306 C 981.701 -3.47628 0.0706797 0
M  V30 10307 H 981.024 -3.9132 0.819064 0
M  V30 10308 H 982.464 -4.23666 -0.16816 0
M  V30 10309 C 980.923 -3.15343 -1.18577 0
M  V30 10310 O 981.453 -3.31158 -2.27371 0
M  V30 10311 N 979.659 -2.69472 -1.08779 0
M  V30 10312 H 979.206 -2.56803 -0.202447 0
M  V30 10313 H 979.164 -2.48244 -1.92931 0
M  V30 10314 N 982.937 -0.845659 -1.3299 0
M  V30 10315 C 984.214 -0.366306 -1.92139 0
M  V30 10316 C 984.594 1.14912 -1.77083 0
M  V30 10317 O 983.942 1.96667 -1.16338 0
M  V30 10318 C 984.152 -0.820716 -3.39213 0
M  V30 10319 C 985.5 -0.832667 -4.16355 0
M  V30 10320 O 986.524 -0.764764 -3.47893 0
M  V30 10321 O 985.383 -0.926658 -5.38586 0
M  V30 10322 H 982.477 -0.105063 -0.820299 0
M  V30 10323 H 985.023 -0.931962 -1.41819 0
M  V30 10324 H 983.795 -1.86357 -3.44074 0
M  V30 10325 H 983.418 -0.232009 -3.96923 0
M  V30 10326 N 984.415 1.45619 -0.602734 0
M  V30 10327 C 985.664 2.01483 -0.0936395 0
M  V30 10328 C 985.977 1.47753 1.28173 0
M  V30 10329 O 987.183 1.95562 1.88329 0
M  V30 10330 C 985.639 3.59711 -0.116738 0
M  V30 10331 C 985.247 4.22437 -1.49166 0
M  V30 10332 C 986.991 4.23157 0.337368 0
M  V30 10333 C 984.898 5.72803 -1.47141 0
M  V30 10334 H 983.828 0.753353 -0.0312382 0
M  V30 10335 H 986.479 1.67142 -0.757347 0
M  V30 10336 H 984.861 3.91218 0.613529 0
M  V30 10337 H 986.035 4.02511 -2.24325 0
M  V30 10338 H 984.35 3.71166 -1.88746 0
M  V30 10339 H 986.947 5.33407 0.371628 0
M  V30 10340 H 987.29 3.93491 1.35906 0
M  V30 10341 H 987.823 3.96349 -0.339474 0
M  V30 10342 H 984.562 6.07161 -2.47055 0
M  V30 10343 H 984.082 5.94936 -0.762329 0
M  V30 10344 H 985.761 6.35907 -1.19294 0
M  V30 10345 N 985.893 0.34162 1.53853 0
M  V30 10346 C 986.84 -0.516058 2.24957 0
M  V30 10347 C 987.81 -1.09711 1.2471 0
M  V30 10348 O 988.995 -1.13409 1.53438 0
M  V30 10349 C 986.135 -1.66207 3.02439 0
M  V30 10350 C 985.248 -1.10851 4.17536 0
M  V30 10351 C 984.383 -2.22167 4.82509 0
M  V30 10352 C 983.422 -1.64152 5.89678 0
M  V30 10353 N 982.559 -2.69203 6.4844 0
M  V30 10354 H 987.399 0.0968275 2.97843 0
M  V30 10355 H 984.936 0.0595565 1.46979 0
M  V30 10356 H 986.894 -2.33672 3.4562 0
M  V30 10357 H 985.524 -2.24597 2.31853 0
M  V30 10358 H 984.576 -0.324853 3.7901 0
M  V30 10359 H 985.888 -0.644151 4.94623 0
M  V30 10360 H 985.042 -2.97501 5.28751 0
M  V30 10361 H 983.781 -2.71946 4.04842 0
M  V30 10362 H 982.786 -0.873228 5.42821 0
M  V30 10363 H 984.011 -1.15228 6.69253 0
M  V30 10364 H 981.957 -3.1824 5.73637 0
M  V30 10365 H 981.874 -2.27383 7.20994 0
M  V30 10366 H 983.142 -3.44312 6.99335 0
M  V30 10367 N 987.371 -1.57444 0.0701946 0
M  V30 10368 C 988.619 -1.93047 -0.598106 0
M  V30 10369 C 988.94 -0.950841 -1.70247 0
M  V30 10370 O 988.21 0.00127177 -1.959 0
M  V30 10371 H 986.79 -0.712648 -0.223924 0
M  V30 10372 H 989.452 -1.94481 0.127674 0
M  V30 10373 H 988.548 -2.94807 -1.02445 0
M  V30 10374 N 988.849 0.203349 -1.56283 0
M  V30 10375 C 990.098 0.92315 -1.79334 0
M  V30 10376 C 990.411 1.84765 -0.641977 0
M  V30 10377 O 991.617 2.60745 -0.756584 0
M  V30 10378 C 990.073 1.69184 -3.17655 0
M  V30 10379 C 989.681 0.812581 -4.40569 0
M  V30 10380 C 991.425 2.40177 -3.50022 0
M  V30 10381 C 989.332 1.57967 -5.69913 0
M  V30 10382 H 988.262 0.348442 -0.668659 0
M  V30 10383 H 990.913 0.1766 -1.82648 0
M  V30 10384 H 989.295 2.48197 -3.08568 0
M  V30 10385 H 990.469 0.0616956 -4.60759 0
M  V30 10386 H 988.784 0.21389 -4.1585 0
M  V30 10387 H 991.381 2.98103 -4.4389 0
M  V30 10388 H 991.724 3.13961 -2.73376 0
M  V30 10389 H 992.257 1.68138 -3.6052 0
M  V30 10390 H 988.996 0.884767 -6.49501 0
M  V30 10391 H 988.516 2.3047 -5.53754 0
M  V30 10392 H 990.195 2.13562 -6.10737 0
M  V30 10393 N 990.327 1.50405 0.470755 0
M  V30 10394 C 991.557 1.64928 1.24428 0
M  V30 10395 C 991.965 0.332139 1.86262 0
M  V30 10396 O 991.308 -0.695919 1.70008 0
M  V30 10397 C 991.37 2.6829 2.39293 0
M  V30 10398 C 991.034 4.11835 1.98093 0
M  V30 10399 C 992.031 4.97693 1.50326 0
M  V30 10400 C 989.716 4.57753 2.06803 0
M  V30 10401 C 991.71 6.27516 1.11813 0
M  V30 10402 C 989.397 5.87582 1.67902 0
M  V30 10403 C 990.395 6.72289 1.20485 0
M  V30 10404 O 990.083 7.99694 0.821219 0
M  V30 10405 H 989.815 0.557418 0.382442 0
M  V30 10406 H 992.369 1.97382 0.568292 0
M  V30 10407 H 990.599 2.31079 3.10063 0
M  V30 10408 H 992.288 2.7203 3.01255 0
M  V30 10409 H 993.054 4.63434 1.43018 0
M  V30 10410 H 988.933 3.91966 2.42659 0
M  V30 10411 H 992.477 6.93586 0.747317 0
M  V30 10412 H 988.374 6.21362 1.74869 0
M  V30 10413 H 989.142 8.12968 0.950038 0
M  V30 10414 N 991.805 -0.723954 1.39988 0
M  V30 10415 C 992.735 -1.85103 1.42335 0
M  V30 10416 C 993.716 -1.6769 0.285297 0
M  V30 10417 O 994.901 -1.87846 0.492716 0
M  V30 10418 C 992.031 -3.22972 1.27697 0
M  V30 10419 C 990.985 -3.55041 2.39018 0
M  V30 10420 C 990.311 -4.91965 2.09462 0
M  V30 10421 C 991.611 -3.56889 3.8135 0
M  V30 10422 H 993.305 -1.83396 2.36656 0
M  V30 10423 H 990.851 -0.880926 1.13911 0
M  V30 10424 H 992.804 -4.01503 1.27958 0
M  V30 10425 H 991.528 -3.25233 0.298487 0
M  V30 10426 H 990.187 -2.78845 2.37993 0
M  V30 10427 H 989.835 -4.90819 1.10025 0
M  V30 10428 H 989.535 -5.14389 2.84038 0
M  V30 10429 H 991.059 -5.7284 2.11391 0
M  V30 10430 H 992.473 -4.25476 3.84243 0
M  V30 10431 H 990.87 -3.90836 4.55376 0
M  V30 10432 H 991.94 -2.56452 4.11534 0
M  V30 10433 N 993.283 -1.25346 -0.955304 0
M  V30 10434 C 994.532 -1.0945 -1.69421 0
M  V30 10435 C 994.845 0.364459 -1.92175 0
M  V30 10436 O 996.051 0.643843 -2.63755 0
M  V30 10437 C 994.507 -1.91045 -3.05008 0
M  V30 10438 C 994.115 -3.41428 -2.90053 0
M  V30 10439 C 995.859 -1.83716 -3.82686 0
M  V30 10440 C 993.766 -4.1532 -4.21026 0
M  V30 10441 H 992.696 -0.405978 -0.635372 0
M  V30 10442 H 995.347 -1.49536 -1.06354 0
M  V30 10443 H 993.729 -1.43781 -3.68975 0
M  V30 10444 H 994.903 -3.9636 -2.35022 0
M  V30 10445 H 993.218 -3.49842 -2.25831 0
M  V30 10446 H 995.815 -2.36217 -4.79693 0
M  V30 10447 H 996.158 -0.804919 -4.08444 0
M  V30 10448 H 996.691 -2.28726 -3.25468 0
M  V30 10449 H 993.43 -5.18955 -4.00457 0
M  V30 10450 H 992.95 -3.65172 -4.75825 0
M  V30 10451 H 994.629 -4.22999 -4.89572 0
M  V30 10452 N 994.761 1.15782 -1.06922 0
M  V30 10453 C 996.009 1.86097 -0.788192 0
M  V30 10454 C 996.33 1.82475 0.687606 0
M  V30 10455 O 995.6 1.26266 1.49778 0
M  V30 10456 H 994.18 0.689008 -0.288577 0
M  V30 10457 H 996.842 1.40377 -1.35205 0
M  V30 10458 H 995.938 2.91358 -1.1188 0
M  V30 10459 N 996.239 0.8527 1.3254 0
M  V30 10460 C 997.516 0.376491 1.91942 0
M  V30 10461 C 997.896 -1.13972 1.7769 0
M  V30 10462 O 997.244 -1.96047 1.17379 0
M  V30 10463 C 997.454 0.838694 3.38773 0
M  V30 10464 C 998.802 0.854736 4.15908 0
M  V30 10465 O 999.826 0.783203 3.47483 0
M  V30 10466 O 998.685 0.955207 5.38087 0
M  V30 10467 H 995.779 0.109412 0.81973 0
M  V30 10468 H 998.325 0.93947 1.41322 0
M  V30 10469 H 997.097 1.88179 3.43081 0
M  V30 10470 H 996.72 0.253055 3.96794 0
M  V30 10471 N 997.718 -1.45297 0.610449 0
M  V30 10472 C 998.681 -2.28995 -0.0968194 0
M  V30 10473 C 999.681 -1.39923 -0.792353 0
M  V30 10474 O 1000.87 -1.62014 -0.64008 0
M  V30 10475 C 998.003 -3.21013 -1.14731 0
M  V30 10476 H 999.196 -2.93012 0.639082 0
M  V30 10477 H 996.749 -1.51867 0.369624 0
M  V30 10478 H 997.484 -2.61803 -1.91388 0
M  V30 10479 H 997.269 -3.86628 -0.652753 0
M  V30 10480 H 998.759 -3.8394 -1.64256 0
M  V30 10481 N 999.196 -0.349774 -1.5367 0
M  V30 10482 C 1000.11 0.512421 -2.28935 0
M  V30 10483 C 1001.12 1.1065 -1.34286 0
M  V30 10484 O 1002.3 1.12084 -1.67329 0
M  V30 10485 C 999.363 1.64449 -3.05217 0
M  V30 10486 C 998.424 1.07956 -4.15505 0
M  V30 10487 C 997.657 2.15768 -4.88139 0
M  V30 10488 O 997.88 3.366 -4.60496 0
M  V30 10489 O 996.814 1.79712 -5.74445 0
M  V30 10490 H 1000.64 -0.0996001 -3.03537 0
M  V30 10491 H 998.225 -0.114629 -1.4896 0
M  V30 10492 H 1000.11 2.30302 -3.52901 0
M  V30 10493 H 998.782 2.24221 -2.33467 0
M  V30 10494 H 997.689 0.385381 -3.7211 0
M  V30 10495 H 999.022 0.526621 -4.89375 0
M  V30 10496 N 1000.67 1.57404 -0.0785433 0
M  V30 10497 C 1001.64 2.11977 0.871693 0
M  V30 10498 C 1002.64 1.04529 1.2219 0
M  V30 10499 O 1003.83 1.30488 1.15406 0
M  V30 10500 C 1000.96 2.6267 2.17296 0
M  V30 10501 H 1002.15 2.97246 0.398115 0
M  V30 10502 H 999.705 1.5537 0.170251 0
M  V30 10503 H 1000.44 1.80873 2.69175 0
M  V30 10504 H 1000.22 3.41214 1.93171 0
M  V30 10505 H 1001.71 3.04943 2.85306 0
M  V30 10506 N 1002.15 -0.195058 1.56388 0
M  V30 10507 C 1003.56 -0.75973 1.70543 0
M  V30 10508 C 1003.91 -1.83849 0.685118 0
M  V30 10509 O 1003.04 -2.15819 -0.158457 0
M  V30 10510 C 1003.63 -1.38485 3.09204 0
M  V30 10511 C 1002.19 -1.89661 3.25124 0
M  V30 10512 C 1001.34 -0.766563 2.66494 0
M  V30 10513 H 1004.29 0.0300148 1.58672 0
M  V30 10514 H 1004.31 -2.25424 3.06536 0
M  V30 10515 H 1003.82 -0.599479 3.83442 0
M  V30 10516 H 1001.92 -2.70917 2.55802 0
M  V30 10517 H 1002.04 -2.05837 4.32629 0
M  V30 10518 H 1000.4 -1.18086 2.25672 0
M  V30 10519 H 1001.18 0.00657102 3.43299 0
M  V30 10520 N 1003.63 -1.50653 -0.462772 0
M  V30 10521 C 1005.05 -1.38263 -0.797213 0
M  V30 10522 C 1005.25 -0.445172 -1.96521 0
M  V30 10523 O 1004.3 0.10913 -2.52264 0
M  V30 10524 C 1005.61 -2.798 -1.10146 0
M  V30 10525 C 1007.16 -2.88774 -1.20742 0
M  V30 10526 C 1007.64 -4.31163 -1.54476 0
M  V30 10527 N 1009.13 -4.34152 -1.61451 0
M  V30 10528 C 1009.86 -5.4133 -1.89074 0
M  V30 10529 N 1009.36 -6.58705 -2.1466 0
M  V30 10530 N 1011.15 -5.28783 -1.90645 0
M  V30 10531 H 1003.3 -2.10172 0.30684 0
M  V30 10532 H 1005.57 -0.945046 0.0747862 0
M  V30 10533 H 1005.27 -3.50276 -0.316207 0
M  V30 10534 H 1005.15 -3.17559 -2.03559 0
M  V30 10535 H 1007.53 -2.18512 -1.98334 0
M  V30 10536 H 1007.61 -2.54547 -0.252904 0
M  V30 10537 H 1007.26 -5.01965 -0.774207 0
M  V30 10538 H 1007.19 -4.62883 -2.51092 0
M  V30 10539 H 1009.68 -3.49519 -1.43684 0
M  V30 10540 H 1009.99 -7.36192 -2.35035 0
M  V30 10541 H 1008.34 -6.61866 -2.12035 0
M  V30 10542 H 1011.53 -4.36078 -1.70158 0
M  V30 10543 H 1011.7 -6.12396 -2.11836 0
M  V30 10544 N 1005.11 0.71652 -1.4037 0
M  V30 10545 C 1006.04 1.84345 -1.43315 0
M  V30 10546 C 1007.02 1.67537 -0.294186 0
M  V30 10547 O 1008.2 1.87582 -0.502671 0
M  V30 10548 C 1005.33 3.2229 -1.29408 0
M  V30 10549 C 1004.29 3.53769 -2.40897 0
M  V30 10550 C 1003.61 4.90847 -2.12068 0
M  V30 10551 C 1004.91 3.54862 -3.83237 0
M  V30 10552 H 1006.61 1.82138 -2.37626 0
M  V30 10553 H 1004.15 0.874873 -1.14376 0
M  V30 10554 H 1006.11 4.00819 -1.30085 0
M  V30 10555 H 1004.83 3.2507 -0.31573 0
M  V30 10556 H 1003.49 2.77579 -2.39469 0
M  V30 10557 H 1003.14 4.90229 -1.12626 0
M  V30 10558 H 1002.84 5.12875 -2.86762 0
M  V30 10559 H 1004.36 5.71711 -2.14426 0
M  V30 10560 H 1005.78 4.23432 -3.86494 0
M  V30 10561 H 1004.17 3.88416 -4.57442 0
M  V30 10562 H 1005.24 2.54266 -4.12888 0
M  V30 10563 N 1006.59 1.25851 0.948643 0
M  V30 10564 C 1007.84 1.10347 1.68838 0
M  V30 10565 C 1008.15 -0.354262 1.92365 0
M  V30 10566 O 1009.35 -0.629847 2.64093 0
M  V30 10567 C 1007.81 1.92659 3.03991 0
M  V30 10568 C 1007.42 3.42962 2.88238 0
M  V30 10569 C 1009.16 1.85743 3.81707 0
M  V30 10570 C 1007.07 4.17547 4.18818 0
M  V30 10571 H 1006 0.409342 0.63321 0
M  V30 10572 H 1008.65 1.50098 1.05559 0
M  V30 10573 H 1007.03 1.45736 3.68208 0
M  V30 10574 H 1008.21 3.97601 2.32917 0
M  V30 10575 H 1006.52 3.51035 2.23972 0
M  V30 10576 H 1009.12 2.38758 4.78434 0
M  V30 10577 H 1009.46 0.826568 4.08012 0
M  V30 10578 H 1009.99 2.30449 3.2425 0
M  V30 10579 H 1006.73 5.21072 3.97699 0
M  V30 10580 H 1006.25 3.6769 4.73882 0
M  V30 10581 H 1007.93 4.25589 4.87322 0
M  V30 10582 N 1008.06 -1.15214 1.07534 0
M  V30 10583 C 1009.03 -2.18209 0.701237 0
M  V30 10584 C 1010.03 -1.58693 -0.25946 0
M  V30 10585 O 1011.22 -1.74154 -0.0401744 0
M  V30 10586 C 1008.35 -3.40883 0.0338703 0
M  V30 10587 H 1009.54 -2.5282 1.61314 0
M  V30 10588 H 1007.1 -1.29707 0.872105 0
M  V30 10589 H 1007.83 -3.11843 -0.890187 0
M  V30 10590 H 1007.62 -3.85342 0.72486 0
M  V30 10591 H 1009.11 -4.17056 -0.213152 0
M  V30 10592 N 1009.54 -0.859717 -1.32086 0
M  V30 10593 C 1010.82 -0.386665 -1.9174 0
M  V30 10594 C 1011.2 1.13028 -1.78292 0
M  V30 10595 O 1010.55 1.95422 -1.18417 0
M  V30 10596 C 1010.76 -0.856648 -3.38323 0
M  V30 10597 C 1012.11 -0.87678 -4.15449 0
M  V30 10598 O 1013.13 -0.80162 -3.47063 0
M  V30 10599 O 1011.99 -0.98373 -5.37573 0
M  V30 10600 H 1009.08 -0.113758 -0.819139 0
M  V30 10601 H 1011.63 -0.946952 -1.40822 0
M  V30 10602 H 1010.4 -1.89996 -3.42078 0
M  V30 10603 H 1010.02 -0.274095 -3.96654 0
M  V30 10604 N 1011.02 1.44971 -0.618145 0
M  V30 10605 C 1011.98 2.29044 0.0846739 0
M  V30 10606 C 1012.98 1.40341 0.784921 0
M  V30 10607 O 1014.17 1.62351 0.631479 0
M  V30 10608 C 1011.31 3.21617 1.13027 0
M  V30 10609 H 1012.5 2.92668 -0.654612 0
M  V30 10610 H 1010.05 1.51668 -0.377672 0
M  V30 10611 H 1010.79 2.62815 1.89997 0
M  V30 10612 H 1010.57 3.86969 0.63224 0
M  V30 10613 H 1012.06 3.84805 1.62218 0
M  V30 10614 N 1012.5 0.357919 1.53482 0
M  V30 10615 C 1013.73 -0.23514 2.05559 0
M  V30 10616 C 1014.14 -1.43068 1.23195 0
M  V30 10617 O 1013.5 -1.80481 0.270741 0
M  V30 10618 C 1013.55 -0.636147 3.55859 0
M  V30 10619 O 1013.27 0.511864 4.35099 0
M  V30 10620 C 1014.77 -1.28841 4.24164 0
M  V30 10621 H 1011.99 -0.0428446 0.669631 0
M  V30 10622 H 1014.54 0.51407 1.97933 0
M  V30 10623 H 1012.69 -1.33528 3.63661 0
M  V30 10624 H 1013.1 0.189328 5.24158 0
M  V30 10625 H 1014.58 -1.51962 5.30671 0
M  V30 10626 H 1015.06 -2.24638 3.77405 0
M  V30 10627 H 1015.66 -0.630914 4.20594 0
M  V30 10628 N 1013.98 -1.5736 0.0868897 0
M  V30 10629 C 1015.22 -1.94054 -0.578741 0
M  V30 10630 C 1015.55 -0.968047 -1.68698 0
M  V30 10631 O 1014.81 0.0137824 -1.95695 0
M  V30 10632 C 1015.11 -3.37316 -1.18123 0
M  V30 10633 C 1014.77 -4.50467 -0.197607 0
M  V30 10634 C 1013.43 -4.81145 0.072952 0
M  V30 10635 C 1015.79 -5.19036 0.474473 0
M  V30 10636 C 1013.11 -5.77723 1.02242 0
M  V30 10637 C 1015.47 -6.16632 1.41236 0
M  V30 10638 C 1014.13 -6.45719 1.69124 0
M  V30 10639 H 1013.4 -0.710093 -0.211776 0
M  V30 10640 H 1016.05 -1.90822 0.160978 0
M  V30 10641 H 1014.35 -3.37085 -1.99701 0
M  V30 10642 H 1016.05 -3.63003 -1.7038 0
M  V30 10643 H 1012.64 -4.2655 -0.418669 0
M  V30 10644 H 1016.82 -4.95518 0.278581 0
M  V30 10645 H 1012.08 -5.98578 1.24557 0
M  V30 10646 H 1016.25 -6.68862 1.939 0
M  V30 10647 H 1013.88 -7.20365 2.42855 0
M  V30 10648 N 1015.45 0.186762 -1.56489 0
M  V30 10649 C 1016.68 0.921832 -1.85229 0
M  V30 10650 C 1017.1 1.76496 -0.670416 0
M  V30 10651 O 1016.45 1.78899 0.360758 0
M  V30 10652 C 1016.51 1.81121 -3.12854 0
M  V30 10653 O 1016.23 1.00211 -4.26485 0
M  V30 10654 C 1017.73 2.65725 -3.54831 0
M  V30 10655 H 1014.95 0.268563 -0.61491 0
M  V30 10656 H 1017.49 0.191505 -2.03601 0
M  V30 10657 H 1015.65 2.49506 -2.96354 0
M  V30 10658 H 1016.06 1.60893 -4.99213 0
M  V30 10659 H 1017.53 3.23771 -4.47075 0
M  V30 10660 H 1018.01 3.39843 -2.78215 0
M  V30 10661 H 1018.62 2.02698 -3.7389 0
M  V30 10662 N 1016.93 1.50896 0.454776 0
M  V30 10663 C 1018.18 1.62378 1.20324 0
M  V30 10664 C 1018.5 0.333883 1.9212 0
M  V30 10665 O 1017.77 -0.649477 1.8482 0
M  V30 10666 H 1016.35 0.598395 0.447139 0
M  V30 10667 H 1019.01 1.87749 0.523102 0
M  V30 10668 H 1018.11 2.44296 1.94232 0
M  V30 10669 N 1018.41 -0.709066 1.40748 0
M  V30 10670 C 1019.36 -1.8149 1.38005 0
M  V30 10671 C 1020.34 -1.58842 0.256544 0
M  V30 10672 O 1021.54 -1.69904 0.496164 0
M  V30 10673 C 1018.67 -3.19678 1.25143 0
M  V30 10674 C 1017.75 -3.48067 2.42301 0
M  V30 10675 N 1018.14 -3.47234 3.6778 0
M  V30 10676 C 1016.44 -3.78555 2.35822 0
M  V30 10677 C 1017.14 -3.74149 4.45407 0
M  V30 10678 N 1016.12 -3.93224 3.75335 0
M  V30 10679 H 1019.92 -1.79188 2.32957 0
M  V30 10680 H 1017.43 -0.908477 1.34612 0
M  V30 10681 H 1019.43 -3.98875 1.2126 0
M  V30 10682 H 1018.09 -3.23201 0.311642 0
M  V30 10683 H 1019.1 -3.2793 4.00852 0
M  V30 10684 H 1015.78 -3.89529 1.50245 0
M  V30 10685 H 1017.17 -3.79755 5.54289 0
M  V30 10686 N 1019.89 -1.26353 -0.941956 0
M  V30 10687 C 1021.31 -1.03448 -1.21534 0
M  V30 10688 C 1021.51 0.240855 -2.00055 0
M  V30 10689 O 1020.56 0.950199 -2.33939 0
M  V30 10690 C 1021.87 -2.2654 -1.97737 0
M  V30 10691 C 1023.42 -2.31433 -2.10731 0
M  V30 10692 C 1023.9 -3.54216 -2.90336 0
M  V30 10693 N 1025.39 -3.54688 -2.9791 0
M  V30 10694 C 1026.12 -4.4636 -3.59931 0
M  V30 10695 N 1025.62 -5.48319 -4.2346 0
M  V30 10696 N 1027.41 -4.34013 -3.57196 0
M  V30 10697 H 1019.56 -2.08266 -0.417005 0
M  V30 10698 H 1021.83 -0.915251 -0.247021 0
M  V30 10699 H 1021.53 -3.19299 -1.47449 0
M  V30 10700 H 1021.41 -2.30726 -2.98405 0
M  V30 10701 H 1023.79 -1.3919 -2.60212 0
M  V30 10702 H 1023.87 -2.31259 -1.09329 0
M  V30 10703 H 1023.52 -4.46788 -2.41543 0
M  V30 10704 H 1023.45 -3.51637 -3.91993 0
M  V30 10705 H 1025.94 -2.80942 -2.52745 0
M  V30 10706 H 1026.25 -6.14458 -4.6868 0
M  V30 10707 H 1024.6 -5.52177 -4.22049 0
M  V30 10708 H 1027.79 -3.53578 -3.06758 0
M  V30 10709 H 1027.96 -5.0565 -4.05244 0
M  V30 10710 N 1021.37 1.14642 -1.08144 0
M  V30 10711 C 1022.61 1.85892 -0.810683 0
M  V30 10712 C 1022.95 1.82575 0.661821 0
M  V30 10713 O 1022.22 1.25454 1.48632 0
M  V30 10714 C 1022.5 3.34647 -1.32979 0
M  V30 10715 C 1022.36 3.46551 -2.86744 0
M  V30 10716 C 1023.68 4.29661 -0.952864 0
M  V30 10717 H 1020.8 0.674963 -0.295963 0
M  V30 10718 H 1023.44 1.3464 -1.3406 0
M  V30 10719 H 1021.59 3.78425 -0.87903 0
M  V30 10720 H 1023.26 3.11579 -3.40171 0
M  V30 10721 H 1021.5 2.87849 -3.24539 0
M  V30 10722 H 1022.17 4.51101 -3.18138 0
M  V30 10723 H 1024.65 3.93885 -1.34141 0
M  V30 10724 H 1023.53 5.32209 -1.34331 0
M  V30 10725 H 1023.79 4.41877 0.140392 0
M  V30 10726 N 1022.85 0.866709 1.31628 0
M  V30 10727 C 1023.81 0.325041 2.26883 0
M  V30 10728 C 1024.81 -0.522133 1.52087 0
M  V30 10729 O 1026 -0.331908 1.71009 0
M  V30 10730 C 1023.13 -0.538756 3.36616 0
M  V30 10731 H 1024.32 1.16592 2.76308 0
M  V30 10732 H 1021.88 0.642029 1.42505 0
M  V30 10733 H 1022.61 -1.40096 2.92478 0
M  V30 10734 H 1022.4 0.0678115 3.92041 0
M  V30 10735 H 1023.89 -0.910123 4.07562 0
M  V30 10736 N 1024.32 -1.44642 0.625825 0
M  V30 10737 C 1025.74 -1.56925 0.290992 0
M  V30 10738 C 1025.94 -1.61424 -1.20601 0
M  V30 10739 O 1025 -1.55439 -1.98985 0
M  V30 10740 C 1026.31 -2.84343 0.978242 0
M  V30 10741 C 1027.86 -2.98047 0.955882 0
M  V30 10742 C 1028.33 -4.2826 1.62349 0
M  V30 10743 N 1029.82 -4.35062 1.58983 0
M  V30 10744 C 1030.56 -5.34524 2.07538 0
M  V30 10745 N 1030.05 -6.4042 2.6426 0
M  V30 10746 N 1031.85 -5.25998 1.98198 0
M  V30 10747 H 1024 -1.39965 1.59761 0
M  V30 10748 H 1026.26 -0.670368 0.670306 0
M  V30 10749 H 1025.97 -2.86985 2.03304 0
M  V30 10750 H 1025.84 -3.73699 0.512726 0
M  V30 10751 H 1028.23 -2.94961 -0.0904292 0
M  V30 10752 H 1028.31 -2.10053 1.45984 0
M  V30 10753 H 1027.95 -4.32105 2.66923 0
M  V30 10754 H 1027.88 -5.15102 1.09441 0
M  V30 10755 H 1030.37 -3.59147 1.17565 0
M  V30 10756 H 1030.69 -7.1259 2.99056 0
M  V30 10757 H 1029.03 -6.41121 2.68308 0
M  V30 10758 H 1032.22 -4.42178 1.5361 0
M  V30 10759 H 1032.4 -6.03359 2.3635 0
M  V30 10760 N 1025.8 -0.366053 -1.5329 0
M  V30 10761 C 1026.71 0.488111 -2.29466 0
M  V30 10762 C 1027.73 1.09219 -1.35452 0
M  V30 10763 O 1028.9 1.10303 -1.68509 0
M  V30 10764 C 1025.97 1.61202 -3.06944 0
M  V30 10765 C 1025.03 1.03543 -4.16626 0
M  V30 10766 C 1024.26 2.10578 -4.904 0
M  V30 10767 O 1024.49 3.31697 -4.6404 0
M  V30 10768 O 1023.42 1.73609 -5.76319 0
M  V30 10769 H 1027.25 -0.131789 -3.03414 0
M  V30 10770 H 1024.83 -0.130421 -1.4883 0
M  V30 10771 H 1026.71 2.26546 -3.55324 0
M  V30 10772 H 1025.39 2.21732 -2.35832 0
M  V30 10773 H 1024.29 0.345892 -3.72498 0
M  V30 10774 H 1025.63 0.474687 -4.89906 0
M  V30 10775 N 1027.28 1.57312 -0.0952337 0
M  V30 10776 C 1028.53 1.93533 0.568131 0
M  V30 10777 C 1028.84 0.979121 1.6933 0
M  V30 10778 O 1030.05 1.23506 2.41782 0
M  V30 10779 C 1028.5 3.43875 1.06198 0
M  V30 10780 C 1028.11 4.47988 -0.0334397 0
M  V30 10781 C 1029.86 3.89057 1.69807 0
M  V30 10782 C 1027.76 5.89483 0.475774 0
M  V30 10783 H 1026.69 0.7224 0.215995 0
M  V30 10784 H 1029.34 1.82699 -0.171257 0
M  V30 10785 H 1027.73 3.49862 1.85506 0
M  V30 10786 H 1028.9 4.53644 -0.808934 0
M  V30 10787 H 1027.21 4.12415 -0.574725 0
M  V30 10788 H 1029.81 4.92171 2.08978 0
M  V30 10789 H 1030.15 3.27713 2.5673 0
M  V30 10790 H 1030.69 3.85772 0.970815 0
M  V30 10791 H 1027.43 6.54528 -0.356837 0
M  V30 10792 H 1026.95 5.87297 1.21827 0
M  V30 10793 H 1028.63 6.40066 0.944697 0
M  V30 10794 N 1028.76 -0.17846 1.56586 0
M  V30 10795 C 1029.67 -1.24115 1.9908 0
M  V30 10796 C 1030.68 -1.48854 0.901031 0
M  V30 10797 O 1031.86 -1.61142 1.2081 0
M  V30 10798 C 1028.92 -2.56187 2.33601 0
M  V30 10799 C 1027.99 -2.39373 3.56369 0
M  V30 10800 C 1027.22 -3.65147 3.89234 0
M  V30 10801 O 1027.44 -4.70024 3.23162 0
M  V30 10802 O 1026.38 -3.59683 4.82609 0
M  V30 10803 H 1030.2 -0.910482 2.89731 0
M  V30 10804 H 1027.79 -0.38477 1.4436 0
M  V30 10805 H 1029.67 -3.34109 2.56806 0
M  V30 10806 H 1028.34 -2.88847 1.46113 0
M  V30 10807 H 1027.25 -1.59506 3.38391 0
M  V30 10808 H 1028.58 -2.1164 4.44375 0
M  V30 10809 N 1030.24 -1.51135 -0.446768 0
M  V30 10810 C 1031.15 -1.74595 -1.56696 0
M  V30 10811 C 1032.16 -0.629816 -1.62201 0
M  V30 10812 O 1033.34 -0.910987 -1.79619 0
M  V30 10813 C 1030.4 -1.85738 -2.9275 0
M  V30 10814 C 1029.46 -3.09564 -2.97437 0
M  V30 10815 C 1028.7 -3.20165 -4.27001 0
M  V30 10816 O 1028.92 -2.36939 -5.1886 0
M  V30 10817 O 1027.85 -4.13077 -4.3778 0
M  V30 10818 H 1031.68 -2.69601 -1.39817 0
M  V30 10819 H 1029.26 -1.35523 -0.628805 0
M  V30 10820 H 1031.15 -1.95107 -3.73512 0
M  V30 10821 H 1029.82 -0.939184 -3.09776 0
M  V30 10822 H 1028.73 -3.05679 -2.15664 0
M  V30 10823 H 1030.06 -4.01041 -2.85353 0
M  V30 10824 N 1031.71 0.701592 -1.41122 0
M  V30 10825 C 1032.68 1.79733 -1.42227 0
M  V30 10826 C 1033.68 1.57708 -0.313831 0
M  V30 10827 O 1034.87 1.64492 -0.573423 0
M  V30 10828 C 1032 3.18024 -1.22775 0
M  V30 10829 H 1033.19 1.80148 -2.39764 0
M  V30 10830 H 1030.74 0.908624 -1.27176 0
M  V30 10831 H 1031.48 3.23252 -0.260552 0
M  V30 10832 H 1031.26 3.35411 -2.0308 0
M  V30 10833 H 1032.75 3.98021 -1.2637 0
M  V30 10834 N 1033.19 1.2685 0.935242 0
M  V30 10835 C 1034.14 1.08746 2.05614 0
M  V30 10836 C 1035.13 0.012681 1.69395 0
M  V30 10837 O 1036.34 0.169822 1.79197 0
M  V30 10838 H 1032.71 0.33485 0.673335 0
M  V30 10839 H 1034.69 2.03725 2.18033 0
M  V30 10840 C 1033.43 0.74346 3.39659 0
M  V30 10841 H 1032.76 1.56236 3.68008 0
M  V30 10842 H 1034.2 0.656607 4.18885 0
M  V30 10843 C 1032.66 -0.551751 3.32351 0
M  V30 10844 O 1033.19 -1.58836 3.68963 0
M  V30 10845 N 1031.39 -0.544583 2.85452 0
M  V30 10846 H 1030.94 0.29939 2.55854 0
M  V30 10847 H 1030.9 -1.41129 2.80945 0
M  V30 10848 N 1034.67 -1.14067 1.0875 0
M  V30 10849 C 1036.08 -1.66747 0.839778 0
M  V30 10850 C 1036.43 -1.85711 -0.632909 0
M  V30 10851 O 1035.56 -1.57084 -1.48841 0
M  V30 10852 C 1036.15 -3.02896 1.51787 0
M  V30 10853 C 1034.71 -3.52596 1.3173 0
M  V30 10854 C 1033.86 -2.27994 1.57841 0
M  V30 10855 H 1036.81 -0.980838 1.24761 0
M  V30 10856 H 1036.83 -3.68526 0.947057 0
M  V30 10857 H 1036.34 -2.89062 2.58969 0
M  V30 10858 H 1034.44 -3.71647 0.266339 0
M  V30 10859 H 1034.56 -4.33151 2.04736 0
M  V30 10860 H 1032.92 -2.34241 1.00015 0
M  V30 10861 H 1033.7 -2.16732 2.66237 0
M  V30 10862 N 1036.15 -0.873678 -1.31166 0
M  V30 10863 C 1037.08 -0.289389 -2.27366 0
M  V30 10864 C 1038.09 0.549667 -1.5324 0
M  V30 10865 O 1039.28 0.371056 -1.74601 0
M  V30 10866 C 1036.38 0.60807 -3.334 0
M  V30 10867 C 1035.56 -0.199379 -4.36945 0
M  V30 10868 C 1034.61 0.626798 -5.22454 0
M  V30 10869 O 1033.64 0.0535121 -5.69175 0
M  V30 10870 N 1034.84 1.93809 -5.47191 0
M  V30 10871 H 1037.61 -1.1161 -2.78143 0
M  V30 10872 H 1035.17 -0.735529 -1.44228 0
M  V30 10873 H 1037.16 1.16656 -3.87522 0
M  V30 10874 H 1035.73 1.33545 -2.82638 0
M  V30 10875 H 1034.95 -0.939316 -3.82845 0
M  V30 10876 H 1036.24 -0.75329 -5.03193 0
M  V30 10877 H 1035.64 2.42693 -5.10995 0
M  V30 10878 H 1034.19 2.44428 -6.04234 0
M  V30 10879 N 1037.63 1.44308 -0.633487 0
M  V30 10880 C 1038.88 2.01239 -0.136356 0
M  V30 10881 C 1039.19 1.50438 1.25011 0
M  V30 10882 O 1040.39 1.99513 1.84138 0
M  V30 10883 C 1038.85 3.59382 -0.193011 0
M  V30 10884 C 1038.46 4.19178 -1.58093 0
M  V30 10885 C 1040.2 4.23778 0.247534 0
M  V30 10886 C 1038.11 5.69553 -1.59258 0
M  V30 10887 H 1037.04 0.752521 -0.0472109 0
M  V30 10888 H 1039.69 1.65498 -0.79263 0
M  V30 10889 H 1038.07 3.92432 0.530408 0
M  V30 10890 H 1039.25 3.97662 -2.32813 0
M  V30 10891 H 1037.56 3.67079 -1.96576 0
M  V30 10892 H 1040.16 5.34075 0.258401 0
M  V30 10893 H 1040.5 3.96285 1.27529 0
M  V30 10894 H 1041.03 3.9554 -0.423469 0
M  V30 10895 H 1037.77 6.01784 -2.59878 0
M  V30 10896 H 1037.29 5.93185 -0.888352 0
M  V30 10897 H 1038.97 6.33234 -1.32756 0
M  V30 10898 N 1039.1 0.374177 1.53094 0
M  V30 10899 C 1040.07 -0.455999 2.24618 0
M  V30 10900 C 1041.07 -1.00269 1.25709 0
M  V30 10901 O 1042.26 -0.887077 1.49922 0
M  V30 10902 C 1039.39 -1.63822 2.98957 0
M  V30 10903 H 1040.58 0.169986 2.99418 0
M  V30 10904 H 1038.14 0.126015 1.55791 0
M  V30 10905 H 1038.87 -2.30205 2.28421 0
M  V30 10906 H 1038.66 -1.25308 3.71538 0
M  V30 10907 H 1040.15 -2.22633 3.53305 0
M  V30 10908 N 1040.58 -1.57259 0.103575 0
M  V30 10909 C 1041.83 -1.93832 -0.55786 0
M  V30 10910 C 1042.14 -0.988087 -1.68808 0
M  V30 10911 O 1043.35 -1.24786 -2.41124 0
M  V30 10912 C 1041.81 -3.44433 -1.04373 0
M  V30 10913 C 1041.41 -4.47963 0.0571971 0
M  V30 10914 C 1043.16 -3.89953 -1.67742 0
M  V30 10915 C 1041.07 -5.89727 -0.444505 0
M  V30 10916 H 1040 -0.723536 -0.212161 0
M  V30 10917 H 1042.65 -1.82606 0.180944 0
M  V30 10918 H 1041.03 -3.50841 -1.83648 0
M  V30 10919 H 1042.2 -4.53209 0.83298 0
M  V30 10920 H 1040.52 -4.12104 0.596588 0
M  V30 10921 H 1043.11 -4.93272 -2.06365 0
M  V30 10922 H 1043.46 -3.2907 -2.54988 0
M  V30 10923 H 1043.99 -3.86281 -0.950342 0
M  V30 10924 H 1040.73 -6.5433 0.391543 0
M  V30 10925 H 1040.25 -5.87935 -1.18711 0
M  V30 10926 H 1041.93 -6.40558 -0.910739 0
M  V30 10927 N 1042.06 0.170153 -1.56679 0
M  V30 10928 C 1043.47 0.732502 -1.7173 0
M  V30 10929 C 1043.82 1.82736 -0.71428 0
M  V30 10930 O 1042.95 2.16044 0.124102 0
M  V30 10931 C 1043.54 1.33548 -3.11368 0
M  V30 10932 C 1042.1 1.84464 -3.281 0
M  V30 10933 C 1041.25 0.724069 -2.6768 0
M  V30 10934 H 1044.2 -0.0552543 -1.58604 0
M  V30 10935 H 1044.22 2.20519 -3.10083 0
M  V30 10936 H 1043.73 0.5384 -3.84347 0
M  V30 10937 H 1041.83 2.66813 -2.6008 0
M  V30 10938 H 1041.95 1.98928 -4.35849 0
M  V30 10939 H 1040.31 1.14481 -2.27522 0
M  V30 10940 H 1041.09 -0.0611861 -3.43245 0
M  V30 10941 N 1043.54 1.5137 0.438746 0
M  V30 10942 C 1044.77 1.6753 1.20901 0
M  V30 10943 C 1045.18 0.371573 1.85515 0
M  V30 10944 O 1044.52 -0.659701 1.71446 0
M  V30 10945 C 1044.58 2.73305 2.33548 0
M  V30 10946 C 1044.25 4.15944 1.89313 0
M  V30 10947 C 1045.24 5.00769 1.39736 0
M  V30 10948 C 1042.93 4.62036 1.97047 0
M  V30 10949 C 1044.92 6.29747 0.984773 0
M  V30 10950 C 1042.61 5.91011 1.554 0
M  V30 10951 C 1043.61 6.74693 1.06197 0
M  V30 10952 O 1043.29 8.01256 0.651407 0
M  V30 10953 H 1043.03 0.565404 0.370532 0
M  V30 10954 H 1045.58 1.98543 0.526296 0
M  V30 10955 H 1043.81 2.37604 3.05092 0
M  V30 10956 H 1045.5 2.78359 2.95417 0
M  V30 10957 H 1046.27 4.66363 1.33156 0
M  V30 10958 H 1042.14 3.97025 2.34291 0
M  V30 10959 H 1045.69 6.95015 0.600029 0
M  V30 10960 H 1041.59 6.24932 1.6165 0
M  V30 10961 H 1042.35 8.148 0.777382 0
M  V30 10962 N 1045.02 -0.694098 1.41492 0
M  V30 10963 C 1045.96 -1.80801 1.43456 0
M  V30 10964 C 1046.93 -1.63571 0.288757 0
M  V30 10965 O 1048.12 -1.844 0.490017 0
M  V30 10966 C 1045.26 -3.18694 1.32394 0
M  V30 10967 C 1044.37 -3.47346 2.56855 0
M  V30 10968 C 1043.51 -4.74862 2.38075 0
M  V30 10969 C 1042.55 -4.96486 3.58005 0
M  V30 10970 N 1041.68 -6.15229 3.38287 0
M  V30 10971 H 1046.52 -1.78457 2.38657 0
M  V30 10972 H 1044.06 -0.871455 1.18508 0
M  V30 10973 H 1046.02 -3.98352 1.23982 0
M  V30 10974 H 1044.65 -3.20211 0.407999 0
M  V30 10975 H 1043.7 -2.62083 2.75711 0
M  V30 10976 H 1045.01 -3.59226 3.4606 0
M  V30 10977 H 1044.17 -5.62577 2.27139 0
M  V30 10978 H 1042.9 -4.6523 1.46329 0
M  V30 10979 H 1041.91 -4.07219 3.69395 0
M  V30 10980 H 1043.13 -5.07976 4.50708 0
M  V30 10981 H 1041.08 -6.06807 2.49242 0
M  V30 10982 H 1041 -6.27883 4.21069 0
M  V30 10983 H 1042.27 -7.05674 3.31126 0
M  V30 10984 N 1046.49 -1.27344 -0.928501 0
M  V30 10985 C 1047.91 -1.04732 -1.2043 0
M  V30 10986 C 1048.11 0.219623 -2.003 0
M  V30 10987 O 1047.17 0.925333 -2.34934 0
M  V30 10988 C 1048.48 -2.28625 -1.95323 0
M  V30 10989 C 1050.03 -2.33655 -2.08265 0
M  V30 10990 C 1050.5 -3.57275 -2.86563 0
M  V30 10991 N 1051.99 -3.57828 -2.94132 0
M  V30 10992 C 1052.73 -4.50152 -3.55177 0
M  V30 10993 N 1052.22 -5.52779 -4.17621 0
M  V30 10994 N 1054.02 -4.37777 -3.52573 0
M  V30 10995 H 1046.17 -2.08697 -0.394892 0
M  V30 10996 H 1048.43 -0.91782 -0.2373 0
M  V30 10997 H 1048.14 -3.20845 -1.44054 0
M  V30 10998 H 1048.01 -2.33878 -2.95941 0
M  V30 10999 H 1050.4 -1.41942 -2.58721 0
M  V30 11000 H 1050.48 -2.32406 -1.0687 0
M  V30 11001 H 1050.12 -4.49325 -2.3679 0
M  V30 11002 H 1050.05 -3.55775 -3.88242 0
M  V30 11003 H 1052.54 -2.83607 -2.49751 0
M  V30 11004 H 1052.86 -6.19394 -4.62137 0
M  V30 11005 H 1051.2 -5.56622 -4.16169 0
M  V30 11006 H 1054.39 -3.56811 -3.02991 0
M  V30 11007 H 1054.57 -5.09919 -3.99858 0
M  V30 11008 N 1047.97 1.13488 -1.09353 0
M  V30 11009 C 1048.88 2.2248 -0.744307 0
M  V30 11010 C 1049.9 1.72145 0.253404 0
M  V30 11011 O 1051.07 2.01176 0.0949339 0
M  V30 11012 C 1048.14 3.46286 -0.16928 0
M  V30 11013 C 1047.2 4.11516 -1.22284 0
M  V30 11014 C 1046.43 5.29412 -0.675161 0
M  V30 11015 O 1046.66 5.68185 0.502182 0
M  V30 11016 O 1045.59 5.8467 -1.42983 0
M  V30 11017 H 1049.42 2.54723 -1.65378 0
M  V30 11018 H 1047 1.21607 -0.867879 0
M  V30 11019 H 1048.88 4.2114 0.14811 0
M  V30 11020 H 1047.56 3.15745 0.713214 0
M  V30 11021 H 1046.47 3.38492 -1.59292 0
M  V30 11022 H 1047.8 4.46186 -2.07796 0
M  V30 11023 N 1049.45 0.880621 1.30701 0
M  V30 11024 C 1050.68 0.511682 2.00473 0
M  V30 11025 C 1051.09 -0.898684 1.6604 0
M  V30 11026 O 1050.45 -1.59035 0.895218 0
M  V30 11027 C 1050.5 0.671723 3.55204 0
M  V30 11028 O 1050.22 2.02656 3.8841 0
M  V30 11029 C 1051.72 0.3052 4.42248 0
M  V30 11030 H 1048.94 0.198231 0.64105 0
M  V30 11031 H 1051.49 1.18472 1.66687 0
M  V30 11032 H 1049.64 0.0461066 3.87373 0
M  V30 11033 H 1050.06 2.04202 4.83117 0
M  V30 11034 H 1051.53 0.468095 5.50012 0
M  V30 11035 H 1052.01 -0.756456 4.32637 0
M  V30 11036 H 1052.61 0.906959 4.15517 0
M  V30 11037 N 1050.93 -1.4397 0.641131 0
M  V30 11038 C 1052.18 -2.01163 0.147026 0
M  V30 11039 C 1052.49 -1.51099 -1.24211 0
M  V30 11040 O 1053.7 -2.00487 -1.83078 0
M  V30 11041 C 1052.15 -3.59275 0.212068 0
M  V30 11042 C 1051.76 -4.18334 1.60314 0
M  V30 11043 C 1053.51 -4.23903 -0.225057 0
M  V30 11044 C 1051.41 -5.68701 1.62276 0
M  V30 11045 H 1050.34 -0.75226 0.051201 0
M  V30 11046 H 1052.99 -1.65075 0.801396 0
M  V30 11047 H 1051.38 -3.92708 -0.509589 0
M  V30 11048 H 1052.55 -3.96422 2.34918 0
M  V30 11049 H 1050.86 -3.66031 1.9852 0
M  V30 11050 H 1053.46 -5.34205 -0.230074 0
M  V30 11051 H 1053.8 -3.96956 -1.25426 0
M  V30 11052 H 1054.34 -3.95309 0.44444 0
M  V30 11053 H 1051.08 -6.00397 2.63066 0
M  V30 11054 H 1050.6 -5.92705 0.919797 0
M  V30 11055 H 1052.28 -6.32521 1.36112 0
M  V30 11056 N 1052.41 -0.382291 -1.52893 0
M  V30 11057 C 1053.37 0.44408 -2.24857 0
M  V30 11058 C 1054.37 0.996004 -1.26239 0
M  V30 11059 O 1055.56 0.879114 -1.5039 0
M  V30 11060 C 1052.69 1.62234 -2.99822 0
M  V30 11061 H 1053.89 -0.185862 -2.99324 0
M  V30 11062 H 1051.44 -0.134275 -1.55722 0
M  V30 11063 H 1052.17 2.28991 -2.29638 0
M  V30 11064 H 1051.96 1.23336 -3.72197 0
M  V30 11065 H 1053.45 2.20756 -3.54481 0
M  V30 11066 N 1053.89 1.57202 -0.111913 0
M  V30 11067 C 1055.13 1.96035 0.542393 0
M  V30 11068 C 1055.49 0.993925 1.64739 0
M  V30 11069 O 1054.78 0.0227369 1.91587 0
M  V30 11070 C 1054.97 3.39152 1.12741 0
M  V30 11071 C 1054.8 4.49628 0.0806232 0
M  V30 11072 C 1053.57 5.04095 -0.348737 0
M  V30 11073 C 1055.77 5.09546 -0.697655 0
M  V30 11074 N 1053.75 5.98141 -1.38204 0
M  V30 11075 C 1055.12 5.99468 -1.58234 0
M  V30 11076 C 1057.18 4.92229 -0.749324 0
M  V30 11077 C 1055.88 6.7393 -2.51418 0
M  V30 11078 C 1057.91 5.67366 -1.66884 0
M  V30 11079 C 1057.27 6.56968 -2.54112 0
M  V30 11080 H 1053.37 0.763672 0.168311 0
M  V30 11081 H 1055.95 1.93687 -0.198387 0
M  V30 11082 H 1054.12 3.42161 1.83794 0
M  V30 11083 H 1055.86 3.65125 1.74546 0
M  V30 11084 H 1052.61 4.73581 0.042288 0
M  V30 11085 H 1053.03 6.49868 -1.8974 0
M  V30 11086 H 1057.68 4.22706 -0.0890808 0
M  V30 11087 H 1055.39 7.42704 -3.18459 0
M  V30 11088 H 1058.98 5.55974 -1.71417 0
M  V30 11089 H 1057.86 7.1409 -3.24107 0
M  V30 11090 N 1055.36 -0.161842 1.56767 0
M  V30 11091 C 1056.61 -0.875192 1.82167 0
M  V30 11092 C 1056.93 -1.82367 0.690444 0
M  V30 11093 O 1056.2 -1.93756 -0.289023 0
M  V30 11094 H 1054.78 -0.326178 0.672024 0
M  V30 11095 H 1057.44 -0.159392 1.94247 0
M  V30 11096 H 1056.54 -1.44639 2.76561 0
M  V30 11097 N 1056.84 -1.516 -0.430713 0
M  V30 11098 C 1058.07 -1.68414 -1.20185 0
M  V30 11099 C 1058.48 -0.384297 -1.84847 0
M  V30 11100 O 1057.84 0.637808 -1.70992 0
M  V30 11101 C 1057.89 -2.80451 -2.28099 0
M  V30 11102 O 1057.61 -4.05399 -1.66081 0
M  V30 11103 C 1059.11 -3.0859 -3.18256 0
M  V30 11104 H 1056.33 -0.564982 -0.361989 0
M  V30 11105 H 1058.88 -1.9805 -0.50954 0
M  V30 11106 H 1057.03 -2.53395 -2.93036 0
M  V30 11107 H 1057.45 -4.67671 -2.37453 0
M  V30 11108 H 1058.92 -3.9055 -3.90096 0
M  V30 11109 H 1059.4 -2.21264 -3.79393 0
M  V30 11110 H 1060 -3.37331 -2.59014 0
M  V30 11111 N 1058.32 0.686584 -1.41858 0
M  V30 11112 C 1059.73 1.26682 -1.37145 0
M  V30 11113 C 1060.08 1.96112 -0.058922 0
M  V30 11114 O 1059.21 1.99321 0.842629 0
M  V30 11115 C 1059.8 2.30383 -2.48413 0
M  V30 11116 C 1058.36 2.83961 -2.47069 0
M  V30 11117 C 1057.51 1.58119 -2.27802 0
M  V30 11118 H 1060.46 0.480742 -1.51243 0
M  V30 11119 H 1060.48 3.11868 -2.17987 0
M  V30 11120 H 1059.99 1.79822 -3.43927 0
M  V30 11121 H 1058.09 3.38675 -1.55338 0
M  V30 11122 H 1058.21 3.3378 -3.43697 0
M  V30 11123 H 1056.57 1.84258 -1.75844 0
M  V30 11124 H 1057.35 1.09541 -3.25355 0
M  V30 11125 N 1059.8 1.27835 0.921735 0
M  V30 11126 C 1060.75 1.07723 2.00947 0
M  V30 11127 C 1061.73 0.00336676 1.609 0
M  V30 11128 O 1062.92 0.222593 1.75595 0
M  V30 11129 C 1060.05 0.732732 3.35389 0
M  V30 11130 C 1059.14 1.84504 3.81863 0
M  V30 11131 N 1059.53 3.08551 4.00787 0
M  V30 11132 C 1057.83 1.73308 4.10951 0
M  V30 11133 C 1058.53 3.80974 4.39584 0
M  V30 11134 N 1057.5 3.08773 4.47393 0
M  V30 11135 H 1061.31 2.01854 2.13617 0
M  V30 11136 H 1058.82 1.18637 1.109 0
M  V30 11137 H 1060.82 0.56975 4.12988 0
M  V30 11138 H 1059.48 -0.200885 3.24078 0
M  V30 11139 H 1060.49 3.44248 3.86928 0
M  V30 11140 H 1057.17 0.870698 4.0832 0
M  V30 11141 H 1058.56 4.87617 4.62255 0
M  V30 11142 N 1061.28 -1.12907 1.09954 0
M  V30 11143 C 1062.21 -2.17589 0.687769 0
M  V30 11144 C 1063.19 -1.59648 -0.308444 0
M  V30 11145 O 1064.37 -1.87343 -0.208527 0
M  V30 11146 C 1061.5 -3.38697 0.0140519 0
M  V30 11147 C 1060.54 -4.15254 0.972942 0
M  V30 11148 S 1061.38 -4.74205 2.48777 0
M  V30 11149 C 1062.53 -5.98653 1.82662 0
M  V30 11150 H 1062.77 -2.52181 1.57455 0
M  V30 11151 H 1060.3 -1.24289 0.916051 0
M  V30 11152 H 1062.26 -4.08844 -0.368343 0
M  V30 11153 H 1060.92 -3.02396 -0.849456 0
M  V30 11154 H 1060.11 -5.01999 0.448715 0
M  V30 11155 H 1059.71 -3.5079 1.297 0
M  V30 11156 H 1062 -6.67602 1.15388 0
M  V30 11157 H 1062.95 -6.55693 2.67343 0
M  V30 11158 H 1063.36 -5.49486 1.29325 0
M  V30 11159 N 1062.75 -0.88754 -1.30232 0
M  V30 11160 C 1064.16 -0.55745 -1.78184 0
M  V30 11161 C 1064.52 0.926474 -1.72948 0
M  V30 11162 O 1063.64 1.72403 -1.3079 0
M  V30 11163 C 1064.24 -1.00512 -3.23547 0
M  V30 11164 C 1062.79 -0.726402 -3.69324 0
M  V30 11165 C 1061.94 -1.18666 -2.50627 0
M  V30 11166 H 1064.89 -1.07151 -1.17066 0
M  V30 11167 H 1064.91 -0.335185 -3.79021 0
M  V30 11168 H 1064.43 -2.08517 -3.27326 0
M  V30 11169 H 1062.53 0.341548 -3.71031 0
M  V30 11170 H 1062.64 -1.31575 -4.60679 0
M  V30 11171 H 1061 -0.605936 -2.47387 0
M  V30 11172 H 1061.79 -2.2745 -2.57141 0
M  V30 11173 N 1064.23 1.43628 -0.648757 0
M  V30 11174 C 1065.48 2.01465 -0.16002 0
M  V30 11175 C 1065.8 1.51413 1.22878 0
M  V30 11176 O 1065.07 0.724919 1.81994 0
M  V30 11177 H 1063.65 0.744885 -0.0561672 0
M  V30 11178 H 1066.31 1.75897 -0.839422 0
M  V30 11179 H 1065.41 3.1178 -0.141213 0
M  V30 11180 N 1065.71 0.390394 1.52688 0
M  V30 11181 C 1066.96 -0.191067 2.01195 0
M  V30 11182 C 1067.28 -1.47229 1.27862 0
M  V30 11183 O 1066.55 -1.91793 0.399007 0
M  V30 11184 H 1065.13 -0.073596 0.743366 0
M  V30 11185 H 1067.79 0.522334 1.8777 0
M  V30 11186 H 1066.89 -0.40051 3.0952 0
M  V30 11187 N 1067.19 -1.57141 0.120249 0
M  V30 11188 C 1068.14 -2.16638 -0.846809 0
M  V30 11189 C 1069.13 -1.11594 -1.27449 0
M  V30 11190 O 1070.34 -1.29895 -1.24608 0
M  V30 11191 H 1066.71 -0.693331 -0.291197 0
M  V30 11192 H 1068.68 -2.96673 -0.320536 0
M  V30 11193 C 1067.43 -2.78134 -2.08655 0
M  V30 11194 H 1066.75 -3.58662 -1.76639 0
M  V30 11195 H 1068.19 -3.23301 -2.74322 0
M  V30 11196 C 1066.65 -1.7528 -2.87713 0
M  V30 11197 O 1067.18 -1.20693 -3.8314 0
M  V30 11198 N 1065.39 -1.45192 -2.51729 0
M  V30 11199 H 1064.94 -1.89773 -1.74195 0
M  V30 11200 H 1064.89 -0.766166 -3.04922 0
M  V30 11201 N 1068.67 0.153526 -1.5685 0
M  V30 11202 C 1069.91 0.867232 -1.8299 0
M  V30 11203 C 1070.24 1.81462 -0.700125 0
M  V30 11204 O 1069.5 1.93207 0.311348 0
M  V30 11205 C 1069.8 1.68066 -3.15418 0
M  V30 11206 C 1069.46 0.880635 -4.42217 0
M  V30 11207 C 1068.12 0.659899 -4.76654 0
M  V30 11208 C 1070.48 0.320698 -5.20212 0
M  V30 11209 C 1067.8 -0.131588 -5.86552 0
M  V30 11210 C 1070.16 -0.457794 -6.30941 0
M  V30 11211 C 1068.82 -0.689168 -6.63933 0
M  V30 11212 H 1068.09 0.317343 -0.669608 0
M  V30 11213 H 1070.74 0.131208 -1.9105 0
M  V30 11214 H 1069.04 2.4866 -3.02779 0
M  V30 11215 H 1070.74 2.23623 -3.32857 0
M  V30 11216 H 1067.33 1.06274 -4.15215 0
M  V30 11217 H 1071.51 0.47853 -4.93988 0
M  V30 11218 H 1066.77 -0.320413 -6.1056 0
M  V30 11219 H 1070.94 -0.898839 -6.90575 0
M  V30 11220 H 1068.57 -1.30433 -7.48927 0
M  V30 11221 N 1070.14 1.51827 0.422667 0
M  V30 11222 C 1071.09 1.74198 1.51406 0
M  V30 11223 C 1072.06 0.584013 1.55494 0
M  V30 11224 O 1073.25 0.820079 1.72277 0
M  V30 11225 C 1070.39 1.88627 2.88988 0
M  V30 11226 C 1069.5 3.16233 2.94314 0
M  V30 11227 C 1068.63 3.21172 4.2311 0
M  V30 11228 C 1067.67 4.43033 4.2236 0
M  V30 11229 N 1066.81 4.4544 5.42704 0
M  V30 11230 H 1071.65 2.67352 1.31632 0
M  V30 11231 H 1069.19 1.32487 0.63919 0
M  V30 11232 H 1071.15 1.94976 3.68837 0
M  V30 11233 H 1069.78 0.988673 3.07287 0
M  V30 11234 H 1068.83 3.19123 2.07039 0
M  V30 11235 H 1070.14 4.06104 2.89623 0
M  V30 11236 H 1069.29 3.26517 5.11343 0
M  V30 11237 H 1068.03 2.29216 4.30478 0
M  V30 11238 H 1067.04 4.37849 3.32518 0
M  V30 11239 H 1068.26 5.3627 4.16643 0
M  V30 11240 H 1066.21 3.56361 5.50766 0
M  V30 11241 H 1066.13 5.29138 5.39953 0
M  V30 11242 H 1067.39 4.54997 6.32928 0
M  V30 11243 N 1071.62 -0.679052 1.4222 0
M  V30 11244 C 1072.87 -1.43485 1.41757 0
M  V30 11245 C 1073.18 -1.95567 0.0358698 0
M  V30 11246 O 1074.39 -2.71346 -0.0913713 0
M  V30 11247 C 1072.85 -2.59541 2.49332 0
M  V30 11248 C 1072.45 -2.14176 3.93488 0
M  V30 11249 C 1074.2 -3.37078 2.58029 0
M  V30 11250 C 1072.11 -3.27289 4.92581 0
M  V30 11251 H 1071.04 -0.539022 0.52723 0
M  V30 11252 H 1073.69 -0.735581 1.68111 0
M  V30 11253 H 1072.07 -3.31815 2.16135 0
M  V30 11254 H 1073.24 -1.49082 4.36017 0
M  V30 11255 H 1071.56 -1.49589 3.88603 0
M  V30 11256 H 1074.15 -4.21312 3.29242 0
M  V30 11257 H 1074.5 -3.83383 1.62245 0
M  V30 11258 H 1075.03 -2.7187 2.90399 0
M  V30 11259 H 1071.77 -2.8598 5.89827 0
M  V30 11260 H 1071.29 -3.91178 4.54687 0
M  V30 11261 H 1072.97 -3.9282 5.14103 0
M  V30 11262 N 1073.1 -1.28322 -0.914942 0
M  V30 11263 C 1074.01 -1.13993 -2.05043 0
M  V30 11264 C 1075.03 -0.0667921 -1.73872 0
M  V30 11265 O 1076.2 -0.275845 -1.99502 0
M  V30 11266 C 1073.27 -0.801856 -3.373 0
M  V30 11267 C 1072.33 -1.95723 -3.82088 0
M  V30 11268 C 1071.56 -1.63519 -5.08033 0
M  V30 11269 O 1071.78 -0.54899 -5.67752 0
M  V30 11270 O 1070.72 -2.47844 -5.48504 0
M  V30 11271 H 1074.54 -2.09313 -2.2005 0
M  V30 11272 H 1072.13 -1.0763 -1.03616 0
M  V30 11273 H 1074.01 -0.627214 -4.16706 0
M  V30 11274 H 1072.69 0.121696 -3.23471 0
M  V30 11275 H 1071.59 -2.18702 -3.03514 0
M  V30 11276 H 1072.93 -2.86144 -4.00478 0
M  V30 11277 N 1074.58 1.12322 -1.10551 0
M  V30 11278 C 1075.81 1.87407 -0.869607 0
M  V30 11279 C 1076.22 1.79976 0.58356 0
M  V30 11280 O 1075.56 1.1725 1.41415 0
M  V30 11281 C 1075.62 3.37401 -1.24099 0
M  V30 11282 C 1075.29 3.68607 -2.70144 0
M  V30 11283 C 1076.28 3.66869 -3.68379 0
M  V30 11284 C 1073.97 3.97903 -3.06559 0
M  V30 11285 C 1075.96 3.93987 -5.01052 0
M  V30 11286 C 1073.65 4.24681 -4.39419 0
M  V30 11287 C 1074.65 4.2271 -5.36475 0
M  V30 11288 O 1074.33 4.48823 -6.66943 0
M  V30 11289 H 1074.07 0.59978 -0.311834 0
M  V30 11290 H 1076.62 1.43037 -1.4741 0
M  V30 11291 H 1074.85 3.82332 -0.579606 0
M  V30 11292 H 1076.54 3.93833 -0.982378 0
M  V30 11293 H 1077.31 3.44297 -3.41591 0
M  V30 11294 H 1073.18 3.98578 -2.31638 0
M  V30 11295 H 1076.73 3.92364 -5.76798 0
M  V30 11296 H 1072.63 4.46727 -4.65945 0
M  V30 11297 H 1073.39 4.66436 -6.72592 0
M  V30 11298 N 1076.06 0.894434 1.2976 0
M  V30 11299 C 1077 0.366586 2.2787 0
M  V30 11300 C 1077.97 -0.548425 1.56785 0
M  V30 11301 O 1079.16 -0.474804 1.84798 0
M  V30 11302 C 1076.3 -0.404531 3.42721 0
M  V30 11303 C 1075.41 0.540774 4.28602 0
M  V30 11304 C 1074.55 -0.246875 5.30626 0
M  V30 11305 C 1073.59 0.693294 6.08161 0
M  V30 11306 N 1072.72 -0.059619 7.02075 0
M  V30 11307 H 1077.56 1.20834 2.72402 0
M  V30 11308 H 1075.1 0.607205 1.33983 0
M  V30 11309 H 1077.06 -0.86762 4.08079 0
M  V30 11310 H 1075.69 -1.21078 2.99232 0
M  V30 11311 H 1074.74 1.12237 3.63465 0
M  V30 11312 H 1076.05 1.26065 4.82606 0
M  V30 11313 H 1075.21 -0.771398 6.01776 0
M  V30 11314 H 1073.94 -0.999918 4.77339 0
M  V30 11315 H 1072.95 1.22936 5.35879 0
M  V30 11316 H 1074.17 1.44558 6.63536 0
M  V30 11317 H 1072.12 -0.795026 6.51165 0
M  V30 11318 H 1072.04 0.60045 7.53612 0
M  V30 11319 H 1073.31 -0.564577 7.77453 0
M  V30 11320 N 1077.53 -1.43282 0.656365 0
M  V30 11321 C 1078.78 -2.02075 0.171293 0
M  V30 11322 C 1079.11 -1.51682 -1.21269 0
M  V30 11323 O 1078.39 -0.711243 -1.81029 0
M  V30 11324 C 1078.67 -3.59621 0.185602 0
M  V30 11325 C 1078.52 -4.20239 1.60373 0
M  V30 11326 C 1079.84 -4.37515 -0.476289 0
M  V30 11327 H 1076.96 -0.73424 0.0637185 0
M  V30 11328 H 1079.6 -1.70539 0.837648 0
M  V30 11329 H 1077.75 -3.86619 -0.381804 0
M  V30 11330 H 1079.43 -4.0426 2.22197 0
M  V30 11331 H 1077.67 -3.76769 2.15006 0
M  V30 11332 H 1078.34 -5.29333 1.56557 0
M  V30 11333 H 1080.82 -4.16099 0.00651073 0
M  V30 11334 H 1079.69 -5.47169 -0.435562 0
M  V30 11335 H 1079.95 -4.14003 -1.55093 0
M  V30 11336 O 1079.05 -0.540653 -1.52181 0
M  V30 11337 H 1079.74 -0.0336266 -1.93671 0
M  V30 END ATOM
M  V30 BEGIN BOND
M  V30 END BOND
M  V30 END CTAB
M  END
$$$$
