drugbank_target|P16006 Deoxycytidylate deaminase (DB04280)
 OpenBabel12092119583D

  0  0  0     0  0            999 V3000
M  V30 BEGIN CTAB
M  V30 COUNTS 2951 2983 0 0 0
M  V30 BEGIN ATOM
M  V30 1 H -0.908 1.98254 -0.117106 0
M  V30 2 N 0 1.576 0 0
M  V30 3 C 0.933 2.03868 1.02534 0
M  V30 4 C 1.911 0.928543 1.3348 0
M  V30 5 O 3.095 1.19667 1.45644 0
M  V30 6 C 0.222 2.43627 2.35294 0
M  V30 7 C -0.732 3.65373 2.2001 0
M  V30 8 S 0.101 5.13292 1.52614 0
M  V30 9 C 1.257 5.56322 2.86805 0
M  V30 10 H 1.49 2.90518 0.631377 0
M  V30 11 H -0.977 1.52953 0.210867 0
M  V30 12 H 0.981 2.67203 3.11629 0
M  V30 13 H -0.358 1.57376 2.7183 0
M  V30 14 H -1.165 3.90944 3.18086 0
M  V30 15 H -1.563 3.418 1.51819 0
M  V30 16 H 0.729 5.58782 3.83104 0
M  V30 17 H 1.672 6.56266 2.65933 0
M  V30 18 H 2.08 4.83886 2.90714 0
M  V30 19 N 1.4781 -0.272755 1.55222 0
M  V30 20 C 2.4251 -1.33716 1.88119 0
M  V30 21 C 3.3951 -1.49066 0.73271 0
M  V30 22 O 4.5801 -1.63469 0.984002 0
M  V30 23 C 1.7201 -2.69238 2.15882 0
M  V30 24 C 0.8331 -2.62108 3.43399 0
M  V30 25 C -0.0319 -3.89811 3.60861 0
M  V30 26 C -0.9929 -3.77193 4.8207 0
M  V30 27 N -1.8559 -4.9673 4.96189 0
M  V30 28 H 2.9841 -1.04962 2.78903 0
M  V30 29 H 0.5211 -0.507088 1.38083 0
M  V30 30 H 2.4791 -3.48089 2.29978 0
M  V30 31 H 1.1091 -2.96194 1.28331 0
M  V30 32 H 0.1611 -1.74967 3.37773 0
M  V30 33 H 1.4731 -2.48685 4.32386 0
M  V30 34 H 0.6271 -4.77103 3.74777 0
M  V30 35 H -0.6339 -4.06102 2.7006 0
M  V30 36 H -1.6289 -2.88284 4.68159 0
M  V30 37 H -0.4039 -3.62421 5.74307 0
M  V30 38 H -2.4579 -5.13431 4.08319 0
M  V30 39 H -2.5409 -4.85839 5.79221 0
M  V30 40 H -1.2729 -5.85594 5.1449 0
M  V30 41 N 2.9562 -1.48159 -0.537278 0
M  V30 42 C 3.9192 -1.61665 -1.62472 0
M  V30 43 C 4.9192 -0.490395 -1.5314 0
M  V30 44 O 6.1092 -0.755998 -1.5694 0
M  V30 45 C 3.2412 -1.57997 -3.02076 0
M  V30 46 H 4.4342 -2.58621 -1.51839 0
M  V30 47 H 1.9872 -1.36647 -0.758771 0
M  V30 48 H 2.7222 -0.624913 -3.18222 0
M  V30 49 H 2.5072 -2.39755 -3.10258 0
M  V30 50 H 3.9972 -1.70627 -3.81151 0
M  V30 51 N 4.4343 0.785586 -1.36625 0
M  V30 52 C 5.6593 1.57963 -1.34397 0
M  V30 53 C 6.0843 1.87964 0.071526 0
M  V30 54 O 5.4423 1.48182 1.0446 0
M  V30 55 C 5.4903 2.87511 -2.17646 0
M  V30 56 O 4.5943 3.81281 -1.57158 0
M  V30 57 H 3.9353 0.479014 -0.459828 0
M  V30 58 H 6.4653 0.973411 -1.79961 0
M  V30 59 H 6.4753 3.36745 -2.30362 0
M  V30 60 H 5.1503 2.65002 -3.20541 0
M  V30 61 H 3.7273 3.39885 -1.53403 0
M  V30 62 N 5.9124 1.20967 1.01018 0
M  V30 63 C 7.1404 1.04956 1.78303 0
M  V30 64 C 7.5554 -0.400915 1.84494 0
M  V30 65 O 6.9124 -1.27826 1.30257 0
M  V30 66 C 6.9634 1.63403 3.22462 0
M  V30 67 O 6.6844 3.02775 3.16637 0
M  V30 68 C 8.1854 1.52432 4.16268 0
M  V30 69 H 5.4054 0.368858 0.560522 0
M  V30 70 H 7.9494 1.60193 1.27116 0
M  V30 71 H 6.1044 1.1227 3.70775 0
M  V30 72 H 6.5184 3.30626 4.07169 0
M  V30 73 H 7.9924 1.98078 5.15237 0
M  V30 74 H 8.4694 0.477875 4.36592 0
M  V30 75 H 9.0754 2.02787 3.73841 0
M  V30 76 N 7.3905 -1.2043 1.01659 0
M  V30 77 C 8.6365 -1.90079 0.706963 0
M  V30 78 C 8.9695 -1.78648 -0.761474 0
M  V30 79 O 8.2445 -1.17069 -1.55323 0
M  V30 80 C 8.5275 -3.41469 1.14327 0
M  V30 81 C 8.3805 -3.61833 2.67201 0
M  V30 82 C 9.6995 -4.34261 0.714529 0
M  V30 83 H 6.8185 -0.690254 0.2583 0
M  V30 84 H 9.4605 -1.41826 1.26433 0
M  V30 85 H 7.6105 -3.82696 0.669056 0
M  V30 86 H 9.2825 -3.2986 3.22475 0
M  V30 87 H 7.5255 -3.05304 3.08175 0
M  V30 88 H 8.1965 -4.67955 2.92783 0
M  V30 89 H 10.6725 -4.00682 1.12221 0
M  V30 90 H 9.5485 -5.38806 1.04784 0
M  V30 91 H 9.8095 -4.40431 -0.383799 0
M  V30 92 N 8.8686 -0.792821 -1.36206 0
M  V30 93 C 9.7986 -0.207853 -2.32573 0
M  V30 94 C 10.7796 0.659055 -1.56813 0
M  V30 95 O 11.9646 0.592176 -1.84951 0
M  V30 96 C 9.0946 0.655449 -3.41059 0
M  V30 97 C 8.0486 -0.111842 -4.27854 0
M  V30 98 C 7.3746 0.872274 -5.27537 0
M  V30 99 C 8.6746 -1.30299 -5.05786 0
M  V30 100 H 10.3686 -1.01294 -2.81744 0
M  V30 101 H 7.9146 -0.48854 -1.3546 0
M  V30 102 H 9.8676 1.07464 -4.07467 0
M  V30 103 H 8.5916 1.49328 -2.90463 0
M  V30 104 H 7.2506 -0.512053 -3.63006 0
M  V30 105 H 6.8986 1.70523 -4.73214 0
M  V30 106 H 6.5986 0.363291 -5.86476 0
M  V30 107 H 8.1226 1.28996 -5.96818 0
M  V30 108 H 9.5366 -0.959379 -5.65216 0
M  V30 109 H 7.9336 -1.7455 -5.74154 0
M  V30 110 H 9.0036 -2.09663 -4.37229 0
M  V30 111 N 10.3467 1.47872 -0.545128 0
M  V30 112 C 11.2787 2.27869 0.246621 0
M  V30 113 C 12.2917 1.36282 0.890561 0
M  V30 114 O 13.4807 1.61207 0.766449 0
M  V30 115 C 10.5807 3.10159 1.36582 0
M  V30 116 C 9.7537 4.29627 0.820954 0
M  V30 117 C 8.8127 4.93607 1.82314 0
M  V30 118 O 7.8387 5.52366 1.37406 0
M  V30 119 N 9.0407 4.87211 3.15603 0
M  V30 120 H 11.8057 2.96459 -0.439539 0
M  V30 121 H 9.3667 1.57367 -0.380421 0
M  V30 122 H 11.3587 3.49829 2.03474 0
M  V30 123 H 9.9287 2.43891 1.9554 0
M  V30 124 H 9.1487 3.94192 -0.0244032 0
M  V30 125 H 10.4367 5.06928 0.436063 0
M  V30 126 H 9.8347 4.40651 3.54744 0
M  V30 127 H 8.3917 5.30937 3.78087 0
M  V30 128 N 11.8248 0.280983 1.55075 0
M  V30 129 C 13.0738 -0.334784 1.98902 0
M  V30 130 C 13.3868 -1.56534 1.17288 0
M  V30 131 O 14.5928 -2.25443 1.51287 0
M  V30 132 C 13.0488 -0.646994 3.54037 0
M  V30 133 C 12.6568 0.564085 4.44435 0
M  V30 134 C 14.4008 -1.22506 4.06439 0
M  V30 135 C 12.3078 0.226137 5.90967 0
M  V30 136 H 11.2378 -0.128866 0.742906 0
M  V30 137 H 13.8888 0.386556 1.79382 0
M  V30 138 H 12.2708 -1.42739 3.6938 0
M  V30 139 H 13.4448 1.34082 4.40861 0
M  V30 140 H 11.7598 1.0594 4.02698 0
M  V30 141 H 14.3568 -1.49182 5.13468 0
M  V30 142 H 14.6998 -2.16085 3.55827 0
M  V30 143 H 15.2328 -0.50682 3.94558 0
M  V30 144 H 11.9718 1.12996 6.45687 0
M  V30 145 H 11.4918 -0.513717 5.97596 0
M  V30 146 H 13.1708 -0.179539 6.46751 0
M  V30 147 N 13.3029 -1.57598 0.00835791 0
M  V30 148 C 14.2659 -2.07884 -0.965242 0
M  V30 149 C 15.2659 -0.989825 -1.26725 0
M  V30 150 O 16.4559 -1.25218 -1.21104 0
M  V30 151 C 13.5879 -2.52731 -2.28779 0
M  V30 152 H 14.7809 -2.95178 -0.530112 0
M  V30 153 H 12.3339 -1.54458 -0.239283 0
M  V30 154 H 13.0689 -1.68705 -2.76964 0
M  V30 155 H 12.8539 -3.32272 -2.08177 0
M  V30 156 H 14.3439 -2.91933 -2.98605 0
M  V30 157 N 14.781 0.264519 -1.55364 0
M  V30 158 C 16.011 1.01153 -1.80143 0
M  V30 159 C 16.419 1.80115 -0.579253 0
M  V30 160 O 15.762 1.77813 0.46132 0
M  V30 161 C 15.824 2.01098 -2.97993 0
M  V30 162 C 15.488 1.40995 -4.34706 0
M  V30 163 C 16.485 0.821316 -5.13372 0
M  V30 164 C 14.17 1.43461 -4.81378 0
M  V30 165 C 16.164 0.265339 -6.36847 0
M  V30 166 C 13.851 0.874771 -6.04807 0
M  V30 167 C 14.849 0.291146 -6.82379 0
M  V30 168 O 14.537 -0.260093 -8.03479 0
M  V30 169 H 14.269 0.304125 -0.603725 0
M  V30 170 H 16.823 0.298089 -2.03225 0
M  V30 171 H 15.053 2.76224 -2.70623 0
M  V30 172 H 16.742 2.61997 -3.1002 0
M  V30 173 H 17.508 0.794903 -4.78442 0
M  V30 174 H 13.387 1.87826 -4.21002 0
M  V30 175 H 16.931 -0.190837 -6.97339 0
M  V30 176 H 12.828 0.898452 -6.39217 0
M  V30 177 H 13.596 -0.150265 -8.18362 0
M  V30 178 N 16.2591 1.48442 0.529413 0
M  V30 179 C 17.1891 1.65902 1.64313 0
M  V30 180 C 18.1701 0.507897 1.6234 0
M  V30 181 O 19.3551 0.740503 1.79528 0
M  V30 182 C 16.4851 1.69911 3.02898 0
M  V30 183 C 15.4391 2.8453 3.19729 0
M  V30 184 C 14.7651 2.73629 4.59381 0
M  V30 185 C 16.0651 4.25821 3.02447 0
M  V30 186 H 17.7591 2.5914 1.49955 0
M  V30 187 H 15.3051 1.24709 0.719982 0
M  V30 188 H 17.2581 1.80715 3.80684 0
M  V30 189 H 15.9821 0.732524 3.18279 0
M  V30 190 H 14.6411 2.73283 2.44361 0
M  V30 191 H 14.2891 1.74938 4.71599 0
M  V30 192 H 13.9891 3.50541 4.71588 0
M  V30 193 H 15.5131 2.86401 5.39265 0
M  V30 194 H 16.9271 4.37898 3.70024 0
M  V30 195 H 15.3241 5.03735 3.26146 0
M  V30 196 H 16.3941 4.42244 1.98867 0
M  V30 197 N 17.7372 -0.778329 1.37039 0
M  V30 198 C 18.9832 -1.53892 1.32079 0
M  V30 199 C 19.3162 -1.9396 -0.0965386 0
M  V30 200 O 18.5912 -1.63568 -1.05242 0
M  V30 201 C 18.8742 -2.80847 2.25382 0
M  V30 202 C 18.7272 -2.47076 3.75864 0
M  V30 203 C 20.0462 -3.82741 2.1725 0
M  V30 204 H 17.1652 -0.558303 0.48111 0
M  V30 205 H 19.8072 -0.893397 1.67685 0
M  V30 206 H 17.9572 -3.35931 1.95148 0
M  V30 207 H 19.6292 -1.97957 4.16666 0
M  V30 208 H 17.8722 -1.79863 3.94755 0
M  V30 209 H 18.5432 -3.37798 4.36574 0
M  V30 210 H 21.0192 -3.37133 2.43887 0
M  V30 211 H 19.8952 -4.69303 2.84686 0
M  V30 212 H 20.1562 -4.2652 1.16331 0
M  V30 213 N 19.2153 -1.21501 -1.00376 0
M  V30 214 C 20.4403 -1.05977 -1.78279 0
M  V30 215 C 20.8653 0.385994 -1.84097 0
M  V30 216 O 20.2233 1.27849 -1.28547 0
M  V30 217 C 20.2713 -1.66302 -3.19963 0
M  V30 218 O 19.3753 -0.909333 -4.0225 0
M  V30 219 H 18.7163 -0.372906 -0.549397 0
M  V30 220 H 21.2463 -1.6107 -1.26165 0
M  V30 221 H 21.2563 -1.70574 -3.70632 0
M  V30 222 H 19.9313 -2.71515 -3.15043 0
M  V30 223 H 18.5083 -0.941795 -3.60811 0
M  V30 224 N 20.6934 1.19889 -1.02296 0
M  V30 225 C 21.6254 2.22334 -0.556787 0
M  V30 226 C 22.6384 1.58674 0.364199 0
M  V30 227 O 23.8274 1.77768 0.161533 0
M  V30 228 C 20.9274 3.38257 0.208694 0
M  V30 229 C 20.1004 4.31504 -0.71577 0
M  V30 230 C 19.1594 5.262 0.00325597 0
M  V30 231 O 18.1854 5.65798 -0.621357 0
M  V30 232 N 19.3874 5.66303 1.27599 0
M  V30 233 H 22.1524 2.62957 -1.43784 0
M  V30 234 H 19.7134 1.34495 -0.901261 0
M  V30 235 H 21.7054 3.98616 0.699111 0
M  V30 236 H 20.2754 2.96472 0.991102 0
M  V30 237 H 19.4954 3.69016 -1.38638 0
M  V30 238 H 20.7834 4.9072 -1.34428 0
M  V30 239 H 20.1814 5.36155 1.80429 0
M  V30 240 H 18.7384 6.28942 1.71102 0
M  V30 241 N 22.1715 0.800033 1.35784 0
M  V30 242 C 23.0815 0.207204 2.33683 0
M  V30 243 C 24.0975 -0.64631 1.61551 0
M  V30 244 O 25.2735 -0.559604 1.93469 0
M  V30 245 C 22.3385 -0.639659 3.40748 0
M  V30 246 C 21.3995 0.233585 4.28664 0
M  V30 247 C 20.6325 -0.572954 5.30616 0
M  V30 248 O 20.8555 -1.80816 5.40982 0
M  V30 249 O 19.7895 0.0327285 6.01891 0
M  V30 250 H 23.6155 1.01692 2.86169 0
M  V30 251 H 21.2005 0.561691 1.38439 0
M  V30 252 H 23.0825 -1.12223 4.06182 0
M  V30 253 H 21.7575 -1.42708 2.90544 0
M  V30 254 H 20.6645 0.763147 3.66233 0
M  V30 255 H 21.9975 0.984784 4.82248 0
M  V30 256 N 23.6496 -1.47581 0.552962 0
M  V30 257 C 24.8746 -2.07378 0.0300593 0
M  V30 258 C 25.2996 -1.40355 -1.25229 0
M  V30 259 O 24.6576 -0.477099 -1.7491 0
M  V30 260 C 24.7056 -3.60274 -0.153231 0
M  V30 261 O 23.8096 -3.94041 -1.21678 0
M  V30 262 H 23.1506 -0.662158 0.0494182 0
M  V30 263 H 25.6806 -1.89662 0.767434 0
M  V30 264 H 25.6906 -4.0633 -0.368761 0
M  V30 265 H 24.3656 -4.08455 0.783397 0
M  V30 266 H 22.9426 -3.59735 -0.982079 0
M  V30 267 N 25.1277 -0.289203 -1.54924 0
M  V30 268 C 26.0747 0.592115 -2.23075 0
M  V30 269 C 27.0447 1.13881 -1.20915 0
M  V30 270 O 28.2297 1.18551 -1.495 0
M  V30 271 C 25.3697 1.76376 -2.96623 0
M  V30 272 C 24.4827 1.24959 -4.13533 0
M  V30 273 C 23.6177 2.38416 -4.74691 0
M  V30 274 C 22.6567 1.84072 -5.83767 0
M  V30 275 N 21.7937 2.91057 -6.38929 0
M  V30 276 H 26.6337 0.00432038 -2.98 0
M  V30 277 H 24.1707 -0.00963529 -1.47097 0
M  V30 278 H 26.1287 2.45268 -3.3749 0
M  V30 279 H 24.7587 2.32337 -2.24097 0
M  V30 280 H 23.8107 0.453307 -3.77689 0
M  V30 281 H 25.1227 0.811662 -4.92152 0
M  V30 282 H 24.2767 3.15276 -5.18349 0
M  V30 283 H 23.0157 2.8553 -3.95378 0
M  V30 284 H 22.0207 1.05697 -5.39545 0
M  V30 285 H 23.2457 1.37877 -6.64956 0
M  V30 286 H 21.1917 3.37526 -5.62505 0
M  V30 287 H 21.1087 2.51724 -7.12861 0
M  V30 288 H 22.3767 3.6785 -6.87246 0
M  V30 289 N 26.6058 1.57591 -0.0167156 0
M  V30 290 C 27.8458 1.93145 0.668902 0
M  V30 291 C 28.2098 0.892406 1.7 0
M  V30 292 O 29.4108 1.13373 2.43721 0
M  V30 293 C 27.6818 3.33678 1.28039 0
M  V30 294 S 29.2408 3.91142 1.9888 0
M  V30 295 H 26.0588 0.67593 0.220545 0
M  V30 296 H 28.6608 1.95347 -0.0774105 0
M  V30 297 H 27.3648 4.07126 0.517339 0
M  V30 298 H 26.8958 3.3489 2.06427 0
M  V30 299 H 28.9108 3.73571 3.26587 0
M  V30 300 N 28.0839 -0.256276 1.55502 0
M  V30 301 C 29.3239 -0.993081 1.78654 0
M  V30 302 C 29.6879 -1.8288 0.584724 0
M  V30 303 O 30.8889 -2.59665 0.694822 0
M  V30 304 C 29.1599 -1.83856 3.06483 0
M  V30 305 S 30.7189 -2.63573 3.5082 0
M  V30 306 H 27.5369 -0.334199 0.62756 0
M  V30 307 H 30.1389 -0.26184 1.93739 0
M  V30 308 H 28.8429 -1.21414 3.92029 0
M  V30 309 H 28.3739 -2.61271 2.94111 0
M  V30 310 H 30.3889 -3.86312 3.11412 0
M  V30 311 N 29.562 -1.4872 -0.521534 0
M  V30 312 C 30.787 -1.61101 -1.30618 0
M  V30 313 C 31.212 -0.274611 -1.86085 0
M  V30 314 O 30.57 0.754937 -1.64834 0
M  V30 315 C 30.618 -2.66709 -2.4269 0
M  V30 316 O 29.722 -2.24456 -3.45967 0
M  V30 317 H 29.063 -0.539921 -0.386499 0
M  V30 318 H 31.593 -1.94767 -0.626645 0
M  V30 319 H 31.603 -2.88245 -2.88754 0
M  V30 320 H 30.278 -3.63727 -2.01682 0
M  V30 321 H 28.855 -2.13168 -3.05964 0
M  V30 322 N 31.0401 0.771051 -1.3745 0
M  V30 323 C 32.2861 1.53109 -1.339 0
M  V30 324 C 32.6411 1.9225 0.0758401 0
M  V30 325 O 31.9341 1.61264 1.03463 0
M  V30 326 C 32.1281 2.80676 -2.2126 0
M  V30 327 C 31.9571 2.54003 -3.71096 0
M  V30 328 C 30.7271 2.48097 -4.402 0
M  V30 329 C 32.9251 2.21953 -4.63941 0
M  V30 330 N 30.9071 2.13515 -5.75573 0
M  V30 331 C 32.2781 1.97516 -5.87697 0
M  V30 332 C 34.3331 2.08114 -4.5232 0
M  V30 333 C 33.0361 1.60638 -7.01133 0
M  V30 334 C 35.0621 1.72636 -5.65642 0
M  V30 335 C 34.4241 1.4906 -6.88448 0
M  V30 336 H 30.5231 0.56055 -0.54526 0
M  V30 337 H 33.1071 0.899472 -1.72678 0
M  V30 338 H 31.2781 3.41674 -1.84698 0
M  V30 339 H 33.0101 3.46578 -2.08963 0
M  V30 340 H 29.7651 2.63974 -3.93211 0
M  V30 341 H 30.1891 1.98919 -6.47117 0
M  V30 342 H 34.8311 2.25024 -3.57944 0
M  V30 343 H 32.5491 1.42467 -7.95443 0
M  V30 344 H 36.1351 1.62586 -5.58621 0
M  V30 345 H 35.0151 1.22014 -7.7465 0
M  V30 346 N 32.5182 1.22032 0.997298 0
M  V30 347 C 33.4652 0.986467 2.08656 0
M  V30 348 C 34.4352 -0.0902671 1.65855 0
M  V30 349 O 35.6202 0.0584294 1.90711 0
M  V30 350 C 32.7602 0.565569 3.40434 0
M  V30 351 C 31.8732 1.71259 3.96604 0
M  V30 352 C 31.0082 1.24011 5.16522 0
M  V30 353 C 30.0472 2.35896 5.64818 0
M  V30 354 N 29.1842 1.89726 6.7598 0
M  V30 355 H 34.0242 1.91892 2.27994 0
M  V30 356 H 31.5612 0.956199 1.11782 0
M  V30 357 H 33.5192 0.302738 4.161 0
M  V30 358 H 32.1492 -0.329879 3.2111 0
M  V30 359 H 31.2012 2.08986 3.17851 0
M  V30 360 H 32.5132 2.55436 4.28432 0
M  V30 361 H 31.6672 0.934395 5.99461 0
M  V30 362 H 30.4062 0.368487 4.86306 0
M  V30 363 H 29.4112 2.67261 4.8047 0
M  V30 364 H 30.6362 3.23567 5.97061 0
M  V30 365 H 28.5822 1.0492 6.47555 0
M  V30 366 H 28.4992 2.67471 7.07103 0
M  V30 367 H 29.7672 1.62211 7.62435 0
M  V30 368 N 33.9963 -1.19345 1.0293 0
M  V30 369 C 35.2423 -1.89318 0.727083 0
M  V30 370 C 35.5753 -1.79446 -0.742483 0
M  V30 371 O 34.8503 -1.1871 -1.54072 0
M  V30 372 C 35.1333 -3.40238 1.17942 0
M  V30 373 C 34.9863 -3.58979 2.71024 0
M  V30 374 C 36.3053 -4.33479 0.760548 0
M  V30 375 H 33.4243 -0.687475 0.265606 0
M  V30 376 H 36.0663 -1.40477 1.2793 0
M  V30 377 H 34.2163 -3.81964 0.709608 0
M  V30 378 H 35.8883 -3.26421 3.25955 0
M  V30 379 H 34.1313 -3.02018 3.11396 0
M  V30 380 H 34.8023 -4.64823 2.9773 0
M  V30 381 H 37.2783 -3.99469 1.16464 0
M  V30 382 H 36.1543 -5.37664 1.10493 0
M  V30 383 H 36.4153 -4.40813 -0.337063 0
M  V30 384 N 35.4744 -0.807222 -1.35358 0
M  V30 385 C 36.7224 -0.387122 -1.98358 0
M  V30 386 C 37.0434 1.04942 -1.64354 0
M  V30 387 O 36.3134 1.72615 -0.926339 0
M  V30 388 H 34.8934 -0.140154 -0.733734 0
M  V30 389 H 37.5554 -1.0332 -1.6526 0
M  V30 390 H 36.6514 -0.493352 -3.08176 0
M  V30 391 N 36.9525 1.47285 -0.560781 0
M  V30 392 C 37.9155 2.28535 0.174488 0
M  V30 393 C 38.9155 1.37153 0.839388 0
M  V30 394 O 40.1055 1.59748 0.694702 0
M  V30 395 C 37.2375 3.16934 1.25561 0
M  V30 396 H 38.4305 2.95012 -0.539262 0
M  V30 397 H 35.9835 1.53034 -0.317865 0
M  V30 398 H 36.7185 2.55157 2.00164 0
M  V30 399 H 36.5035 3.8419 0.783604 0
M  V30 400 H 37.9935 3.78143 1.77193 0
M  V30 401 N 38.4306 0.297415 1.54768 0
M  V30 402 C 39.6766 -0.313376 2.00364 0
M  V30 403 C 40.0096 -1.53815 1.18553 0
M  V30 404 O 39.2846 -1.92739 0.261103 0
M  V30 405 C 39.5676 -0.673525 3.53745 0
M  V30 406 C 39.4206 0.560133 4.46299 0
M  V30 407 C 40.7396 -1.50143 4.13697 0
M  V30 408 H 37.8586 -0.112428 0.728374 0
M  V30 409 H 40.5006 0.4088 1.8555 0
M  V30 410 H 38.6506 -1.28881 3.665 0
M  V30 411 H 40.3226 1.19863 4.45455 0
M  V30 412 H 38.5656 1.19405 4.17043 0
M  V30 413 H 39.2366 0.26405 5.51368 0
M  V30 414 H 41.7126 -0.981588 4.04356 0
M  V30 415 H 40.5886 -1.72221 5.21182 0
M  V30 416 H 40.8496 -2.48952 3.65343 0
M  V30 417 N 39.9087 -1.5758 0.0250728 0
M  V30 418 C 41.1577 -1.90811 -0.653767 0
M  V30 419 C 41.4707 -0.90273 -1.73523 0
M  V30 420 O 42.6767 -1.12614 -2.47043 0
M  V30 421 C 41.1327 -3.38804 -1.21409 0
M  V30 422 C 40.7407 -4.47692 -0.166126 0
M  V30 423 C 42.4847 -3.81108 -1.86967 0
M  V30 424 C 40.3917 -5.86779 -0.737856 0
M  V30 425 H 39.3217 -0.712063 -0.247956 0
M  V30 426 H 41.9727 -1.83281 0.0897137 0
M  V30 427 H 40.3547 -3.41252 -2.00905 0
M  V30 428 H 41.5287 -4.56797 0.606079 0
M  V30 429 H 39.8437 -4.14565 0.390466 0
M  V30 430 H 42.4407 -4.82375 -2.30692 0
M  V30 431 H 42.7837 -3.15953 -2.71071 0
M  V30 432 H 43.3167 -3.81065 -1.14167 0
M  V30 433 H 40.0557 -6.55468 0.0649577 0
M  V30 434 H 39.5757 -5.81288 -1.47864 0
M  V30 435 H 41.2547 -6.35223 -1.22884 0
M  V30 436 N 41.3868 0.248026 -1.55636 0
M  V30 437 C 42.2968 1.32859 -1.93354 0
M  V30 438 C 43.3128 1.52719 -0.833838 0
M  V30 439 O 44.4888 1.66363 -1.13513 0
M  V30 440 C 41.5538 2.66337 -2.21958 0
M  V30 441 C 40.6148 2.55008 -3.45354 0
M  V30 442 C 39.8478 3.82121 -3.72584 0
M  V30 443 O 40.0708 4.83951 -3.01907 0
M  V30 444 O 39.0048 3.80822 -4.6611 0
M  V30 445 H 42.8308 1.03862 -2.85388 0
M  V30 446 H 40.4158 0.448686 -1.42503 0
M  V30 447 H 42.2978 3.45216 -2.4167 0
M  V30 448 H 40.9728 2.95068 -1.33103 0
M  V30 449 H 39.8798 1.7442 -3.30951 0
M  V30 450 H 41.2128 2.31222 -4.34508 0
M  V30 451 N 42.8649 1.48995 0.513639 0
M  V30 452 C 43.8119 1.6473 1.61656 0
M  V30 453 C 44.7819 0.488984 1.58739 0
M  V30 454 O 45.9669 0.714478 1.76918 0
M  V30 455 C 43.1069 1.7082 2.99858 0
M  V30 456 C 42.2199 2.9787 3.12885 0
M  V30 457 C 41.3549 2.95017 4.41744 0
M  V30 458 C 40.3939 4.16702 4.48359 0
M  V30 459 N 39.5309 4.11832 5.68629 0
M  V30 460 H 44.3709 2.58909 1.47547 0
M  V30 461 H 41.9079 1.28382 0.71808 0
M  V30 462 H 43.8659 1.72331 3.79944 0
M  V30 463 H 42.4959 0.801181 3.12699 0
M  V30 464 H 41.5479 3.06029 2.25944 0
M  V30 465 H 42.8599 3.8786 3.13633 0
M  V30 466 H 42.0139 2.95021 5.30139 0
M  V30 467 H 40.7529 2.02784 4.43542 0
M  V30 468 H 39.7579 4.16955 3.58369 0
M  V30 469 H 40.9829 5.10113 4.48287 0
M  V30 470 H 38.9289 3.22428 5.71293 0
M  V30 471 H 38.8459 4.95543 5.7094 0
M  V30 472 H 40.1139 4.1592 6.59266 0
M  V30 473 N 44.343 -0.763751 1.37857 0
M  V30 474 C 45.291 -1.89864 1.34367 0
M  V30 475 C 46.285 -1.67816 0.231143 0
M  V30 476 O 47.491 -1.75508 0.399617 0
M  V30 477 H 43.866 -0.624501 0.41893 0
M  V30 478 H 45.837 -1.89925 2.30155 0
M  V30 479 C 44.586 -3.27227 1.1755 0
M  V30 480 H 43.909 -3.44773 2.02414 0
M  V30 481 H 45.349 -4.06911 1.1916 0
M  V30 482 C 43.808 -3.36692 -0.118311 0
M  V30 483 O 44.338 -3.86374 -1.09902 0
M  V30 484 N 42.544 -2.90092 -0.171717 0
M  V30 485 H 42.091 -2.49853 0.627012 0
M  V30 486 H 42.049 -2.96806 -1.03699 0
M  V30 487 N 45.8211 -1.22559 -0.990812 0
M  V30 488 C 47.0691 -1.04933 -1.72724 0
M  V30 489 C 47.3901 0.416158 -1.90508 0
M  V30 490 O 46.6601 1.29918 -1.46622 0
M  V30 491 H 45.2401 -0.385296 -0.639965 0
M  V30 492 H 47.9021 -1.54105 -1.19322 0
M  V30 493 H 46.9981 -1.52886 -2.72089 0
M  V30 494 N 47.2992 1.18797 -1.03562 0
M  V30 495 C 48.7152 1.40671 -0.753917 0
M  V30 496 C 48.9152 1.9043 0.658686 0
M  V30 497 O 47.9712 2.08538 1.42366 0
M  V30 498 C 49.2842 2.41192 -1.79574 0
M  V30 499 C 50.8322 2.54928 -1.81606 0
M  V30 500 C 51.3072 3.58709 -2.84766 0
M  V30 501 N 52.7982 3.66212 -2.83625 0
M  V30 502 C 53.5332 4.46225 -3.60098 0
M  V30 503 N 53.0292 5.29888 -4.46308 0
M  V30 504 N 54.8222 4.40939 -3.4861 0
M  V30 505 H 46.9732 0.848221 -1.94728 0
M  V30 506 H 49.2362 0.435081 -0.842264 0
M  V30 507 H 48.9422 2.11669 -2.80872 0
M  V30 508 H 48.8162 3.40467 -1.62365 0
M  V30 509 H 51.2032 2.83771 -0.809817 0
M  V30 510 H 51.2842 1.55784 -2.02891 0
M  V30 511 H 50.9282 3.30607 -3.85566 0
M  V30 512 H 50.8582 4.57519 -2.60737 0
M  V30 513 H 53.3492 3.06466 -2.21105 0
M  V30 514 H 53.6622 5.88078 -5.01382 0
M  V30 515 H 52.0072 5.29326 -4.50377 0
M  V30 516 H 55.1982 3.74624 -2.80668 0
M  V30 517 H 55.3712 5.03056 -4.08459 0
M  V30 518 N 48.7773 0.814389 1.34928 0
M  V30 519 C 50.0263 0.394871 1.97797 0
M  V30 520 C 50.3393 -1.04555 1.65311 0
M  V30 521 O 51.5453 -1.56856 2.21604 0
M  V30 522 C 50.0013 0.655103 3.53888 0
M  V30 523 C 49.6093 2.10858 3.95276 0
M  V30 524 C 51.3533 0.301329 4.23429 0
M  V30 525 C 49.2603 2.31415 5.44244 0
M  V30 526 H 48.1903 0.143913 0.740139 0
M  V30 527 H 50.8413 0.999544 1.53888 0
M  V30 528 H 49.2233 -0.0196253 3.95995 0
M  V30 529 H 50.3973 2.82176 3.64298 0
M  V30 530 H 48.7123 2.42297 3.38646 0
M  V30 531 H 51.3093 0.432869 5.32945 0
M  V30 532 H 51.6523 -0.75331 4.09428 0
M  V30 533 H 52.1853 0.930288 3.86769 0
M  V30 534 H 48.9243 3.35353 5.63222 0
M  V30 535 H 48.4443 1.6463 5.76764 0
M  V30 536 H 50.1233 2.13352 6.10811 0
M  V30 537 N 50.2554 -1.46986 0.568584 0
M  V30 538 C 51.5044 -2.01646 0.0465894 0
M  V30 539 C 51.8174 -1.44721 -1.31587 0
M  V30 540 O 53.0234 -1.91113 -1.92842 0
M  V30 541 C 51.4794 -3.59885 0.032752 0
M  V30 542 C 51.0874 -4.25804 1.39266 0
M  V30 543 C 52.8314 -4.22255 -0.436038 0
M  V30 544 C 50.7384 -5.76081 1.33732 0
M  V30 545 H 49.6684 -0.753876 0.013647 0
M  V30 546 H 52.3194 -1.68864 0.718131 0
M  V30 547 H 50.7014 -3.8968 -0.704669 0
M  V30 548 H 51.8754 -4.07637 2.1487 0
M  V30 549 H 50.1904 -3.7547 1.80032 0
M  V30 550 H 52.7874 -5.32394 -0.49602 0
M  V30 551 H 53.1304 -3.90212 -1.45053 0
M  V30 552 H 53.6634 -3.97033 0.246877 0
M  V30 553 H 50.4024 -6.12761 2.32817 0
M  V30 554 H 49.9224 -5.96553 0.623267 0
M  V30 555 H 51.6014 -6.38518 1.0442 0
M  V30 556 N 51.7335 -0.305618 -1.54608 0
M  V30 557 C 52.9585 0.307562 -2.05107 0
M  V30 558 C 53.3835 1.46385 -1.18123 0
M  V30 559 O 52.7415 1.8034 -0.186324 0
M  V30 560 C 52.7895 0.73704 -3.52987 0
M  V30 561 O 51.8935 1.84134 -3.6901 0
M  V30 562 H 51.2345 0.0589143 -0.661381 0
M  V30 563 H 53.7645 -0.448807 -1.99617 0
M  V30 564 H 53.7745 1.02459 -3.94925 0
M  V30 565 H 52.4495 -0.108773 -4.15758 0
M  V30 566 H 51.0265 1.55398 -3.38978 0
M  V30 567 N 53.2116 1.57565 -0.0334293 0
M  V30 568 C 54.4396 1.9628 0.654347 0
M  V30 569 C 54.8546 0.910138 1.65414 0
M  V30 570 O 54.2116 -0.107595 1.82183 0
M  V30 571 C 54.2626 3.35067 1.35693 0
M  V30 572 O 53.9836 4.36296 0.397191 0
M  V30 573 C 55.4846 3.88439 2.13613 0
M  V30 574 H 52.7046 0.646369 0.180132 0
M  V30 575 H 55.2486 2.04282 -0.0944721 0
M  V30 576 H 53.4036 3.2827 2.05712 0
M  V30 577 H 53.8176 5.1678 0.896597 0
M  V30 578 H 55.2916 4.8788 2.58219 0
M  V30 579 H 55.7686 3.22914 2.97696 0
M  V30 580 H 56.3746 3.98516 1.48543 0
M  V30 581 N 54.6897 -0.239769 1.55765 0
M  V30 582 C 55.9377 -0.964892 1.77579 0
M  V30 583 C 56.2587 -1.85582 0.598699 0
M  V30 584 O 55.5287 -1.92075 -0.385226 0
M  V30 585 H 54.1087 -0.359265 0.654933 0
M  V30 586 H 56.7707 -0.256001 1.93211 0
M  V30 587 H 55.8667 -1.58243 2.69009 0
M  V30 588 N 56.1678 -1.49265 -0.50573 0
M  V30 589 C 57.3978 -1.61979 -1.28243 0
M  V30 590 C 57.8058 -0.288576 -1.86986 0
M  V30 591 O 57.1488 0.735408 -1.68337 0
M  V30 592 C 57.2108 -2.62632 -2.45489 0
M  V30 593 C 56.8748 -4.071 -2.07651 0
M  V30 594 C 57.8718 -4.94049 -1.61901 0
M  V30 595 C 55.5568 -4.52801 -2.17431 0
M  V30 596 C 57.5508 -6.24736 -1.26428 0
M  V30 597 C 55.2378 -5.83503 -1.8157 0
M  V30 598 C 56.2358 -6.69294 -1.36142 0
M  V30 599 O 55.9238 -7.9756 -1.00764 0
M  V30 600 H 55.6558 -0.54834 -0.395347 0
M  V30 601 H 58.2098 -1.96002 -0.614204 0
M  V30 602 H 56.4398 -2.2378 -3.15372 0
M  V30 603 H 58.1288 -2.64925 -3.07522 0
M  V30 604 H 58.8948 -4.5997 -1.53795 0
M  V30 605 H 54.7738 -3.86196 -2.51742 0
M  V30 606 H 58.3178 -6.91652 -0.908992 0
M  V30 607 H 54.2148 -6.17112 -1.89324 0
M  V30 608 H 54.9828 -8.10529 -1.13952 0
M  V30 609 N 57.6459 0.756429 -1.3826 0
M  V30 610 C 58.5939 1.89149 -1.35372 0
M  V30 611 C 59.5879 1.67691 -0.24004 0
M  V30 612 O 60.7939 1.75294 -0.408919 0
M  V30 613 H 57.1689 0.622271 -0.422236 0
M  V30 614 H 59.1399 1.88701 -2.31159 0
M  V30 615 C 57.8889 3.26599 -1.19284 0
M  V30 616 H 57.2119 3.43695 -2.0424 0
M  V30 617 H 58.6519 4.06274 -1.21316 0
M  V30 618 C 57.1109 3.3675 0.100454 0
M  V30 619 O 57.6409 3.86951 1.07851 0
M  V30 620 N 55.8469 2.90179 0.15633 0
M  V30 621 H 55.3939 2.49517 -0.640253 0
M  V30 622 H 55.3519 2.97352 1.02123 0
M  V30 623 N 59.124 1.23083 0.984299 0
M  V30 624 C 60.372 1.05848 1.72165 0
M  V30 625 C 60.693 -0.406049 1.90726 0
M  V30 626 O 59.963 -1.29139 1.47309 0
M  V30 627 H 58.543 0.388685 0.637913 0
M  V30 628 H 61.205 1.54736 1.18503 0
M  V30 629 H 60.301 1.54327 2.71274 0
M  V30 630 N 60.6021 -1.18246 1.0419 0
M  V30 631 C 61.8271 -1.92736 0.765996 0
M  V30 632 C 62.2521 -1.75728 -0.67091 0
M  V30 633 O 61.6101 -1.06825 -1.46486 0
M  V30 634 C 61.6581 -3.42148 1.13875 0
M  V30 635 O 60.7621 -4.11548 0.264954 0
M  V30 636 H 60.1031 -0.601238 0.281797 0
M  V30 637 H 62.6331 -1.49942 1.39207 0
M  V30 638 H 62.6431 -3.92858 1.1012 0
M  V30 639 H 61.3181 -3.53848 2.18551 0
M  V30 640 H 59.8951 -3.71137 0.362226 0
M  V30 641 N 62.0802 -0.821533 -1.34494 0
M  V30 642 C 63.4912 -0.467956 -1.8074 0
M  V30 643 C 63.8422 1.01151 -1.68116 0
M  V30 644 O 62.9672 1.78707 -1.22036 0
M  V30 645 C 63.5622 -0.842627 -3.28154 0
M  V30 646 C 62.1212 -0.541439 -3.72485 0
M  V30 647 C 61.2682 -1.06028 -2.56229 0
M  V30 648 H 64.2192 -1.01183 -1.22261 0
M  V30 649 H 64.2402 -0.145876 -3.8022 0
M  V30 650 H 63.7522 -1.91945 -3.37311 0
M  V30 651 H 61.8532 0.526034 -3.68868 0
M  V30 652 H 61.9662 -1.08453 -4.66663 0
M  V30 653 H 60.3302 -0.481892 -2.501 0
M  V30 654 H 61.1132 -2.14352 -2.68157 0
M  V30 655 N 63.5583 1.46682 -0.576371 0
M  V30 656 C 64.5213 2.28707 0.150239 0
M  V30 657 C 65.5213 1.38035 0.824794 0
M  V30 658 O 66.7113 1.60476 0.677719 0
M  V30 659 C 63.8433 3.18248 1.22192 0
M  V30 660 H 65.0363 2.94423 -0.570521 0
M  V30 661 H 62.5893 1.52688 -0.334078 0
M  V30 662 H 63.3243 2.57265 1.97447 0
M  V30 663 H 63.1093 3.85 0.742812 0
M  V30 664 H 64.5993 3.80001 1.73172 0
M  V30 665 N 65.0364 0.313813 1.54444 0
M  V30 666 C 66.2844 -0.291099 1.99993 0
M  V30 667 C 66.6054 -1.53418 1.20366 0
M  V30 668 O 65.8754 -1.93544 0.302927 0
M  V30 669 H 64.4554 -0.110552 0.738774 0
M  V30 670 H 67.1174 0.428106 1.9014 0
M  V30 671 H 66.2134 -0.554268 3.07139 0
M  V30 672 N 66.5145 -1.57545 0.0417849 0
M  V30 673 C 67.7625 -1.91937 -0.632829 0
M  V30 674 C 68.0835 -0.919978 -1.71934 0
M  V30 675 O 67.3535 0.0366064 -1.95866 0
M  V30 676 H 65.9335 -0.708493 -0.236742 0
M  V30 677 H 68.5955 -1.9468 0.0925745 0
M  V30 678 H 67.6915 -2.92912 -1.07746 0
M  V30 679 N 67.9926 0.231505 -1.5589 0
M  V30 680 C 69.2386 0.95877 -1.78705 0
M  V30 681 C 69.5716 1.8438 -0.609725 0
M  V30 682 O 68.8466 1.90521 0.391426 0
M  V30 683 C 69.1296 1.8062 -3.11526 0
M  V30 684 C 68.9826 0.948328 -4.39689 0
M  V30 685 C 70.3016 2.78585 -3.40703 0
M  V30 686 H 67.4206 0.347129 -0.650131 0
M  V30 687 H 70.0626 0.228259 -1.88624 0
M  V30 688 H 68.2126 2.42902 -3.03201 0
M  V30 689 H 69.8846 0.343016 -4.60023 0
M  V30 690 H 68.1276 0.253314 -4.3306 0
M  V30 691 H 68.7986 1.57543 -5.29041 0
M  V30 692 H 71.2746 2.26439 -3.49091 0
M  V30 693 H 70.1506 3.34988 -4.34826 0
M  V30 694 H 70.4116 3.55825 -2.62375 0
M  V30 695 N 69.4707 1.49531 0.497807 0
M  V30 696 C 70.4187 1.66926 1.61983 0
M  V30 697 C 71.4127 0.535167 1.60724 0
M  V30 698 O 72.6187 0.714896 1.65195 0
M  V30 699 H 68.9937 0.526415 0.537021 0
M  V30 700 H 70.9647 2.61098 1.44465 0
M  V30 701 C 69.7137 1.75602 3.00099 0
M  V30 702 H 69.0367 2.62244 3.01775 0
M  V30 703 H 70.4767 1.91807 3.78135 0
M  V30 704 C 68.9357 0.501543 3.33146 0
M  V30 705 O 69.4657 -0.371342 3.9998 0
M  V30 706 N 67.6717 0.363531 2.88317 0
M  V30 707 H 67.2187 1.07485 2.34104 0
M  V30 708 H 67.1767 -0.474728 3.10795 0
M  V30 709 N 70.9488 -0.749086 1.3866 0
M  V30 710 C 72.1888 -1.52112 1.36534 0
M  V30 711 C 72.5528 -1.91951 -0.0432316 0
M  V30 712 O 73.7538 -2.68132 -0.189396 0
M  V30 713 C 72.0248 -2.73704 2.29828 0
M  V30 714 S 73.5838 -3.63519 2.45763 0
M  V30 715 H 70.4018 -0.520482 0.484375 0
M  V30 716 H 73.0038 -0.878963 1.74627 0
M  V30 717 H 71.7078 -2.42552 3.31054 0
M  V30 718 H 71.2388 -3.4286 1.929 0
M  V30 719 H 73.2538 -4.66712 1.68505 0
M  V30 720 N 72.4269 -1.23603 -0.977757 0
M  V30 721 C 73.6669 -1.08148 -1.73446 0
M  V30 722 C 74.0309 0.374785 -1.88307 0
M  V30 723 O 75.2319 0.650588 -2.60808 0
M  V30 724 C 73.5029 -1.78991 -3.0935 0
M  V30 725 S 75.0619 -1.79141 -4.00567 0
M  V30 726 H 71.8799 -0.386987 -0.596458 0
M  V30 727 H 74.4819 -1.5678 -1.16792 0
M  V30 728 H 73.1859 -2.8408 -2.96187 0
M  V30 729 H 72.7169 -1.30651 -3.71071 0
M  V30 730 H 74.7319 -0.851892 -4.88833 0
M  V30 731 N 73.905 1.17692 -1.04816 0
M  V30 732 C 75.182 1.83768 -0.669963 0
M  V30 733 C 75.562 1.93232 0.849986 0
M  V30 734 O 74.91 1.46397 1.75443 0
M  V30 735 C 75.12 3.21641 -1.35455 0
M  V30 736 C 76.468 3.97592 -1.49017 0
M  V30 737 O 77.492 3.31107 -1.31326 0
M  V30 738 O 76.351 5.16729 -1.77914 0
M  V30 739 H 73.445 0.792799 -0.235368 0
M  V30 740 H 75.991 1.25021 -1.14751 0
M  V30 741 H 74.763 3.097 -2.39168 0
M  V30 742 H 74.386 3.88052 -0.866107 0
M  V30 743 N 75.3831 0.828654 1.34056 0
M  V30 744 C 76.6131 0.431993 2.02033 0
M  V30 745 C 77.0211 -0.96844 1.62536 0
M  V30 746 O 76.3641 -1.6391 0.829408 0
M  V30 747 C 76.4261 0.461224 3.56529 0
M  V30 748 C 76.0901 1.81599 4.1937 0
M  V30 749 C 77.0871 2.7777 4.39477 0
M  V30 750 C 74.7721 2.10604 4.56017 0
M  V30 751 C 76.7661 4.01115 4.95364 0
M  V30 752 C 74.4531 3.34207 5.11614 0
M  V30 753 C 75.4511 4.2928 5.31232 0
M  V30 754 O 75.1391 5.50699 5.8565 0
M  V30 755 H 74.8711 0.170943 0.654029 0
M  V30 756 H 77.4251 1.11988 1.72185 0
M  V30 757 H 75.6551 -0.283388 3.8566 0
M  V30 758 H 77.3441 0.0838149 4.05813 0
M  V30 759 H 78.1101 2.56659 4.11523 0
M  V30 760 H 73.9891 1.37402 4.40047 0
M  V30 761 H 77.5331 4.75333 5.10592 0
M  V30 762 H 73.4301 3.55179 5.38997 0
M  V30 763 H 74.1981 5.52298 6.04077 0
M  V30 764 N 76.8612 -1.46375 0.584142 0
M  V30 765 C 77.8242 -2.28784 -0.138108 0
M  V30 766 C 78.8242 -1.38471 -0.817462 0
M  V30 767 O 80.0142 -1.60833 -0.669199 0
M  V30 768 C 77.1462 -3.18892 -1.20503 0
M  V30 769 H 78.3392 -2.94117 0.586127 0
M  V30 770 H 75.8922 -1.52509 0.342171 0
M  V30 771 H 76.6272 -2.58309 -1.96079 0
M  V30 772 H 76.4122 -3.85388 -0.722384 0
M  V30 773 H 77.9022 -3.80914 -1.71155 0
M  V30 774 N 78.3393 -0.321999 -1.54275 0
M  V30 775 C 79.3023 0.531975 -2.22941 0
M  V30 776 C 80.3023 1.04478 -1.22234 0
M  V30 777 O 81.4923 0.937452 -1.46825 0
M  V30 778 C 78.6243 1.73874 -2.93224 0
M  V30 779 H 79.8173 -0.0682612 -2.99822 0
M  V30 780 H 77.3703 -0.0730644 -1.56129 0
M  V30 781 H 78.1053 2.37825 -2.20476 0
M  V30 782 H 77.8903 1.37847 -3.6707 0
M  V30 783 H 79.3803 2.34496 -3.45545 0
M  V30 784 N 79.8174 1.5752 -0.0501392 0
M  V30 785 C 80.7274 2.14952 0.939827 0
M  V30 786 C 81.7434 1.10706 1.34239 0
M  V30 787 O 82.9194 1.42869 1.41952 0
M  V30 788 C 79.9844 2.68232 2.19665 0
M  V30 789 C 79.0454 3.87272 1.85253 0
M  V30 790 C 78.2784 4.38002 3.04943 0
M  V30 791 O 78.5014 3.87811 4.18281 0
M  V30 792 O 77.4354 5.29602 2.86017 0
M  V30 793 H 81.2614 2.9986 0.481392 0
M  V30 794 H 78.8464 1.4841 0.171699 0
M  V30 795 H 80.7284 3.02475 2.93406 0
M  V30 796 H 79.4034 1.86395 2.64648 0
M  V30 797 H 78.3104 3.5792 1.0883 0
M  V30 798 H 79.6434 4.70336 1.4507 0
M  V30 799 N 81.2955 -0.223234 1.56011 0
M  V30 800 C 82.2275 -1.30006 1.88762 0
M  V30 801 C 83.2405 -1.43129 0.775746 0
M  V30 802 O 84.4295 -1.44057 1.05403 0
M  V30 803 C 81.5295 -2.67589 2.07965 0
M  V30 804 C 80.7025 -2.76434 3.38973 0
M  V30 805 C 79.7615 -3.95019 3.47629 0
M  V30 806 O 78.7875 -3.83436 4.20672 0
M  V30 807 N 79.9895 -5.09249 2.78649 0
M  V30 808 H 82.7545 -1.02238 2.81722 0
M  V30 809 H 80.3155 -0.413278 1.56536 0
M  V30 810 H 82.3075 -3.45297 2.11073 0
M  V30 811 H 80.8775 -2.87964 1.21638 0
M  V30 812 H 80.0975 -1.85216 3.47978 0
M  V30 813 H 81.3855 -2.79313 4.25278 0
M  V30 814 H 80.7835 -5.21556 2.19081 0
M  V30 815 H 79.3405 -5.85007 2.8742 0
M  V30 816 N 82.7736 -1.49793 -0.48987 0
M  V30 817 C 84.0216 -1.59525 -1.24081 0
M  V30 818 C 84.3426 -0.288953 -1.92847 0
M  V30 819 O 83.6126 0.692436 -1.83254 0
M  V30 820 H 82.1926 -0.587796 -0.460983 0
M  V30 821 H 84.8546 -1.86477 -0.566778 0
M  V30 822 H 83.9506 -2.39696 -1.99881 0
M  V30 823 N 84.2517 0.741722 -1.39055 0
M  V30 824 C 85.4977 1.50234 -1.37118 0
M  V30 825 C 85.8527 1.92368 0.0350439 0
M  V30 826 O 85.1457 1.63422 1.00019 0
M  V30 827 C 85.3397 2.7592 -2.27163 0
M  V30 828 C 85.1687 2.46074 -3.76401 0
M  V30 829 C 83.9387 2.38704 -4.45364 0
M  V30 830 C 86.1367 2.12062 -4.68545 0
M  V30 831 N 84.1187 2.01258 -5.79973 0
M  V30 832 C 85.4897 1.85005 -5.91754 0
M  V30 833 C 87.5447 1.98473 -4.56632 0
M  V30 834 C 86.2477 1.4573 -7.04383 0
M  V30 835 C 88.2737 1.60599 -5.69176 0
M  V30 836 C 87.6357 1.34423 -6.91455 0
M  V30 837 H 83.7347 0.548858 -0.557027 0
M  V30 838 H 86.3187 0.862642 -1.74547 0
M  V30 839 H 84.4897 3.3768 -1.91904 0
M  V30 840 H 86.2217 3.42068 -2.16267 0
M  V30 841 H 82.9767 2.55574 -3.98721 0
M  V30 842 H 83.4007 1.85147 -6.51191 0
M  V30 843 H 88.0427 2.17381 -3.62637 0
M  V30 844 H 85.7607 1.25562 -7.98286 0
M  V30 845 H 89.3467 1.507 -5.61944 0
M  V30 846 H 88.2267 1.05555 -7.77064 0
M  V30 847 N 85.7298 1.2412 0.971189 0
M  V30 848 C 86.6598 1.05508 2.08304 0
M  V30 849 C 87.6408 -0.0308864 1.70072 0
M  V30 850 O 88.8258 0.135521 1.93727 0
M  V30 851 C 85.9558 0.655365 3.4106 0
M  V30 852 C 84.9098 1.68971 3.93234 0
M  V30 853 C 84.2358 1.14516 5.22293 0
M  V30 854 C 85.5358 3.08487 4.21465 0
M  V30 855 H 87.2298 1.98507 2.24132 0
M  V30 856 H 84.7758 0.955821 1.07704 0
M  V30 857 H 86.7288 0.51217 4.18276 0
M  V30 858 H 85.4528 -0.31032 3.25122 0
M  V30 859 H 84.1118 1.82106 3.18171 0
M  V30 860 H 83.7598 0.170189 5.02712 0
M  V30 861 H 83.4598 1.83635 5.58168 0
M  V30 862 H 84.9838 1.01401 6.02121 0
M  V30 863 H 86.3978 2.98601 4.89398 0
M  V30 864 H 84.7948 3.74926 4.68562 0
M  V30 865 H 85.8648 3.56787 3.28376 0
M  V30 866 N 87.2079 -1.17134 1.05439 0
M  V30 867 C 88.1379 -2.2342 0.678649 0
M  V30 868 C 89.1189 -1.66971 -0.32476 0
M  V30 869 O 90.3039 -1.93149 -0.201802 0
M  V30 870 C 87.4339 -3.47256 0.0552099 0
M  V30 871 C 86.3879 -4.16543 0.98365 0
M  V30 872 C 85.7139 -5.34231 0.223961 0
M  V30 873 C 87.0139 -4.68495 2.3089 0
M  V30 874 H 88.7079 -2.55105 1.56722 0
M  V30 875 H 86.2539 -1.2262 0.754998 0
M  V30 876 H 88.2069 -4.20828 -0.21946 0
M  V30 877 H 86.9309 -3.14846 -0.868319 0
M  V30 878 H 85.5899 -3.44887 1.24293 0
M  V30 879 H 85.2379 -4.98071 -0.702412 0
M  V30 880 H 84.9379 -5.81527 0.842627 0
M  V30 881 H 86.4619 -6.10585 -0.0433671 0
M  V30 882 H 87.8759 -5.33691 2.09396 0
M  V30 883 H 86.2729 -5.26379 2.88176 0
M  V30 884 H 87.3429 -3.85169 2.94572 0
M  V30 885 N 88.686 -0.835752 -1.33615 0
M  V30 886 C 89.634 -0.255238 -2.31195 0
M  V30 887 C 90.628 0.61107 -1.57995 0
M  V30 888 O 91.834 0.500979 -1.72888 0
M  V30 889 H 88.209 -0.0638085 -0.749288 0
M  V30 890 H 90.18 -1.09283 -2.77669 0
M  V30 891 C 88.929 0.55754 -3.43201 0
M  V30 892 H 88.252 -0.0997553 -3.99676 0
M  V30 893 H 89.692 0.929622 -4.13683 0
M  V30 894 C 88.151 1.73515 -2.88781 0
M  V30 895 O 88.681 2.83376 -2.84712 0
M  V30 896 N 86.887 1.55603 -2.4543 0
M  V30 897 H 86.434 0.662354 -2.48939 0
M  V30 898 H 86.392 2.34545 -2.09371 0
M  V30 899 N 90.1641 1.46063 -0.591896 0
M  V30 900 C 91.1111 2.30399 0.136069 0
M  V30 901 C 92.0811 1.41169 0.875238 0
M  V30 902 O 93.2661 1.70112 0.86409 0
M  V30 903 C 90.4061 3.25804 1.13781 0
M  V30 904 C 89.5191 4.30134 0.401137 0
M  V30 905 C 88.6541 5.12659 1.39121 0
M  V30 906 C 87.6931 6.0873 0.641462 0
M  V30 907 N 86.8301 6.8409 1.58004 0
M  V30 908 H 91.6701 2.92118 -0.589144 0
M  V30 909 H 89.2071 1.43959 -0.302342 0
M  V30 910 H 91.1651 3.79569 1.73156 0
M  V30 911 H 89.7951 2.65872 1.83062 0
M  V30 912 H 88.8471 3.79152 -0.307826 0
M  V30 913 H 90.1591 4.98458 -0.184565 0
M  V30 914 H 89.3131 5.70747 2.05749 0
M  V30 915 H 88.0521 4.44316 2.01084 0
M  V30 916 H 87.0571 5.49786 -0.0385419 0
M  V30 917 H 88.2821 6.79095 0.0270945 0
M  V30 918 H 86.2281 6.18449 2.18761 0
M  V30 919 H 86.1451 7.48709 1.04738 0
M  V30 920 H 87.4131 7.4673 2.23639 0
M  V30 921 N 91.6422 0.330177 1.54103 0
M  V30 922 C 93.0532 -0.15652 1.86043 0
M  V30 923 C 93.4042 -1.51086 1.2517 0
M  V30 924 O 92.5292 -2.09023 0.560217 0
M  V30 925 C 93.1242 -0.290784 3.3755 0
M  V30 926 C 91.6832 -0.721705 3.69416 0
M  V30 927 C 90.8302 0.152622 2.7688 0
M  V30 928 H 93.7812 0.550237 1.48856 0
M  V30 929 H 93.8022 -1.12058 3.63625 0
M  V30 930 H 93.3142 0.695068 3.81825 0
M  V30 931 H 91.4152 -1.71706 3.30678 0
M  V30 932 H 91.5282 -0.520869 4.7626 0
M  V30 933 H 89.8922 -0.372894 2.51956 0
M  V30 934 H 90.6752 1.13536 3.23982 0
M  V30 935 N 93.1203 -1.57491 0.0584922 0
M  V30 936 C 94.0673 -2.11958 -0.913376 0
M  V30 937 C 95.0373 -1.02875 -1.30407 0
M  V30 938 O 96.2223 -1.30464 -1.39226 0
M  V30 939 C 93.3623 -2.67497 -2.18035 0
M  V30 940 C 92.4753 -3.90691 -1.84349 0
M  V30 941 C 91.6103 -4.3452 -3.05559 0
M  V30 942 C 90.6493 -5.50395 -2.67827 0
M  V30 943 N 89.7863 -5.89244 -3.81754 0
M  V30 944 H 94.6263 -2.94704 -0.442017 0
M  V30 945 H 92.1633 -1.45643 -0.206545 0
M  V30 946 H 94.1213 -2.978 -2.92183 0
M  V30 947 H 92.7513 -1.87537 -2.62735 0
M  V30 948 H 91.8033 -3.66934 -1.00319 0
M  V30 949 H 93.1153 -4.7489 -1.5258 0
M  V30 950 H 92.2693 -4.66414 -3.87998 0
M  V30 951 H 91.0083 -3.49147 -3.40511 0
M  V30 952 H 90.0133 -5.18165 -1.83806 0
M  V30 953 H 91.2383 -6.3749 -2.34059 0
M  V30 954 H 89.1843 -5.06823 -4.16493 0
M  V30 955 H 89.1013 -6.68151 -3.53708 0
M  V30 956 H 90.3693 -6.25756 -4.64811 0
M  V30 957 N 94.5984 0.214957 -1.56127 0
M  V30 958 C 95.5484 1.27006 -1.8935 0
M  V30 959 C 96.5324 1.41969 -0.757202 0
M  V30 960 O 97.7244 1.44673 -1.01973 0
M  V30 961 C 94.8534 2.61911 -2.2194 0
M  V30 962 C 93.9394 2.50822 -3.41978 0
M  V30 963 N 94.3304 2.09391 -4.60423 0
M  V30 964 C 92.6284 2.81765 -3.45723 0
M  V30 965 C 93.3294 2.09712 -5.42582 0
M  V30 966 N 92.3054 2.50454 -4.82466 0
M  V30 967 H 96.1074 0.940734 -2.78437 0
M  V30 968 H 93.6214 0.423492 -1.56781 0
M  V30 969 H 95.6184 3.38096 -2.43919 0
M  V30 970 H 94.2784 2.95684 -1.34169 0
M  V30 971 H 95.2894 1.80416 -4.85459 0
M  V30 972 H 91.9664 3.19865 -2.68314 0
M  V30 973 H 93.3564 1.79748 -6.4741 0
M  V30 974 N 96.0765 1.50051 0.48192 0
M  V30 975 C 97.0395 1.67584 1.5636 0
M  V30 976 C 98.0395 0.546894 1.51214 0
M  V30 977 O 99.2295 0.813725 1.54026 0
M  V30 978 C 96.3615 1.691 2.96003 0
M  V30 979 H 97.5545 2.64078 1.42136 0
M  V30 980 H 95.1075 1.39369 0.707533 0
M  V30 981 H 95.8425 0.742589 3.15684 0
M  V30 982 H 95.6275 2.51105 3.01146 0
M  V30 983 H 97.1175 1.84656 3.74556 0
M  V30 984 N 97.5546 -0.734337 1.39446 0
M  V30 985 C 98.8036 -1.48937 1.36017 0
M  V30 986 C 99.1166 -1.95557 -0.0409005 0
M  V30 987 O 100.323 -2.70779 -0.19778 0
M  V30 988 C 98.7786 -2.69125 2.38955 0
M  V30 989 C 98.3866 -2.29452 3.8478 0
M  V30 990 C 100.131 -3.46944 2.44603 0
M  V30 991 C 98.0376 -3.46366 4.79358 0
M  V30 992 H 96.9676 -0.559296 0.505672 0
M  V30 993 H 99.6186 -0.800983 1.65095 0
M  V30 994 H 98.0006 -3.40041 2.02948 0
M  V30 995 H 99.1746 -1.66077 4.29831 0
M  V30 996 H 97.4896 -1.64723 3.82433 0
M  V30 997 H 100.087 -4.33907 3.12456 0
M  V30 998 H 100.43 -3.89454 1.47076 0
M  V30 999 H 100.963 -2.83056 2.79507 0
M  V30 1000 H 97.7016 -3.08905 5.78151 0
M  V30 1001 H 97.2216 -4.08719 4.38986 0
M  V30 1002 H 98.9006 -4.12691 4.98292 0
M  V30 1003 N 99.0327 -1.24633 -0.964593 0
M  V30 1004 C 100.282 -1.08188 -1.7023 0
M  V30 1005 C 100.595 0.37873 -1.91898 0
M  V30 1006 O 101.801 0.663427 -2.6327 0
M  V30 1007 C 100.257 -1.88773 -3.06419 0
M  V30 1008 C 99.8647 -3.39263 -2.92582 0
M  V30 1009 C 101.609 -1.80867 -3.84041 0
M  V30 1010 C 99.5157 -4.1218 -4.24101 0
M  V30 1011 H 98.4457 -0.401245 -0.638372 0
M  V30 1012 H 101.097 -1.48742 -1.07462 0
M  V30 1013 H 99.4787 -1.41035 -3.70034 0
M  V30 1014 H 100.653 -3.94603 -2.37961 0
M  V30 1015 H 98.9677 -3.48154 -2.28424 0
M  V30 1016 H 101.565 -2.32646 -4.81435 0
M  V30 1017 H 101.908 -0.774543 -4.09031 0
M  V30 1018 H 102.441 -2.26301 -3.27159 0
M  V30 1019 H 99.1797 -5.15965 -4.04303 0
M  V30 1020 H 98.6997 -3.61626 -4.78526 0
M  V30 1021 H 100.379 -4.19349 -4.92702 0
M  V30 1022 N 100.511 1.16574 -1.06058 0
M  V30 1023 C 101.443 2.2045 -0.627239 0
M  V30 1024 C 102.456 1.59752 0.313534 0
M  V30 1025 O 103.645 1.78192 0.104896 0
M  V30 1026 C 100.745 3.3875 0.100974 0
M  V30 1027 C 99.9178 4.29008 -0.852687 0
M  V30 1028 C 98.9768 5.25944 -0.164152 0
M  V30 1029 O 98.0028 5.63535 -0.801047 0
M  V30 1030 N 99.2048 5.70075 1.09518 0
M  V30 1031 H 101.97 2.58249 -1.52077 0
M  V30 1032 H 99.5308 1.3156 -0.943594 0
M  V30 1033 H 101.523 4.00638 0.57194 0
M  V30 1034 H 100.093 2.99476 0.89628 0
M  V30 1035 H 99.3128 3.64419 -1.50308 0
M  V30 1036 H 100.601 4.86195 -1.49972 0
M  V30 1037 H 99.9988 5.41624 1.6328 0
M  V30 1038 H 98.5558 6.34067 1.51006 0
M  V30 1039 N 101.989 0.842826 1.3317 0
M  V30 1040 C 103.237 0.439577 1.97262 0
M  V30 1041 C 103.558 -1.00548 1.67078 0
M  V30 1042 O 102.828 -1.70098 0.971779 0
M  V30 1043 H 101.408 0.159558 0.72976 0
M  V30 1044 H 104.07 1.07665 1.62463 0
M  V30 1045 H 103.166 0.574886 3.0676 0
M  V30 1046 N 103.467 -1.45747 0.599634 0
M  V30 1047 C 104.417 -2.27538 -0.145107 0
M  V30 1048 C 105.401 -1.3686 -0.846055 0
M  V30 1049 O 106.593 -1.6091 -0.737357 0
M  V30 1050 C 103.722 -3.23569 -1.14708 0
M  V30 1051 C 102.808 -4.21734 -0.447383 0
M  V30 1052 N 103.199 -5.03257 0.506535 0
M  V30 1053 C 101.497 -4.40536 -0.695966 0
M  V30 1054 C 102.198 -5.74426 0.917068 0
M  V30 1055 N 101.174 -5.42966 0.26253 0
M  V30 1056 H 104.976 -2.87965 0.587672 0
M  V30 1057 H 102.49 -1.56803 0.422697 0
M  V30 1058 H 104.487 -3.8089 -1.69495 0
M  V30 1059 H 103.147 -2.64702 -1.8805 0
M  V30 1060 H 104.158 -5.10319 0.882899 0
M  V30 1061 H 100.835 -3.92802 -1.41467 0
M  V30 1062 H 102.225 -6.4995 1.70338 0
M  V30 1063 N 104.945 -0.338344 -1.53925 0
M  V30 1064 C 105.892 0.520845 -2.24846 0
M  V30 1065 C 106.862 1.09976 -1.24477 0
M  V30 1066 O 108.047 1.13735 -1.53196 0
M  V30 1067 C 105.187 1.6685 -3.02084 0
M  V30 1068 C 104.3 1.11739 -4.17299 0
M  V30 1069 C 103.435 2.23193 -4.82036 0
M  V30 1070 C 102.474 1.65407 -5.89328 0
M  V30 1071 N 101.611 2.70582 -6.47866 0
M  V30 1072 H 106.451 -0.0904881 -2.97863 0
M  V30 1073 H 103.988 -0.0564282 -1.46992 0
M  V30 1074 H 105.946 2.34407 -3.45122 0
M  V30 1075 H 104.576 2.2509 -2.31375 0
M  V30 1076 H 103.628 0.332919 -3.7894 0
M  V30 1077 H 104.94 0.654677 -4.94485 0
M  V30 1078 H 104.094 2.98626 -5.28117 0
M  V30 1079 H 102.833 2.72807 -4.04262 0
M  V30 1080 H 101.838 0.884779 -5.42634 0
M  V30 1081 H 103.063 1.16652 -6.69006 0
M  V30 1082 H 101.009 3.1946 -5.72959 0
M  V30 1083 H 100.926 2.28917 -7.20509 0
M  V30 1084 H 102.194 3.45799 -6.98601 0
M  V30 1085 N 106.423 1.57458 -0.0668435 0
M  V30 1086 C 107.834 1.80776 0.466558 0
M  V30 1087 C 108.185 0.980361 1.69951 0
M  V30 1088 O 107.31 0.201441 2.1546 0
M  V30 1089 C 107.905 3.27881 0.85321 0
M  V30 1090 C 106.464 3.52062 1.3315 0
M  V30 1091 C 105.611 2.75513 0.314264 0
M  V30 1092 H 108.562 1.5598 -0.292588 0
M  V30 1093 H 108.583 3.39659 1.715 0
M  V30 1094 H 108.095 3.88075 -0.0443439 0
M  V30 1095 H 106.196 2.97167 2.24772 0
M  V30 1096 H 106.309 4.60762 1.31285 0
M  V30 1097 H 104.673 2.42123 0.790492 0
M  V30 1098 H 105.456 3.38442 -0.575477 0
M  V30 1099 N 107.901 -0.206675 1.56239 0
M  V30 1100 C 108.811 -1.27686 1.96808 0
M  V30 1101 C 109.827 -1.50455 0.874035 0
M  V30 1102 O 111.003 -1.63295 1.17884 0
M  V30 1103 C 108.068 -2.60358 2.28942 0
M  V30 1104 C 107.129 -2.45762 3.51994 0
M  V30 1105 C 106.362 -3.72108 3.82585 0
M  V30 1106 O 106.585 -4.75776 3.14631 0
M  V30 1107 O 105.519 -3.6833 4.76043 0
M  V30 1108 H 109.345 -0.962593 2.88041 0
M  V30 1109 H 106.93 -0.410746 1.43643 0
M  V30 1110 H 108.812 -3.38687 2.50737 0
M  V30 1111 H 107.487 -2.91435 1.4088 0
M  V30 1112 H 106.394 -1.65584 3.35459 0
M  V30 1113 H 107.727 -2.19621 4.40486 0
M  V30 1114 N 109.379 -1.50304 -0.473955 0
M  V30 1115 C 110.619 -1.62786 -1.23612 0
M  V30 1116 C 110.983 -0.319786 -1.89318 0
M  V30 1117 O 112.184 -0.320012 -2.66888 0
M  V30 1118 C 110.455 -2.77351 -2.25414 0
M  V30 1119 S 112.014 -3.09948 -3.10608 0
M  V30 1120 H 108.832 -0.573895 -0.419721 0
M  V30 1121 H 111.434 -1.88076 -0.533623 0
M  V30 1122 H 110.138 -3.70879 -1.75719 0
M  V30 1123 H 109.669 -2.54137 -3.00296 0
M  V30 1124 H 111.684 -2.53553 -4.26527 0
M  V30 1125 N 110.857 0.726932 -1.39834 0
M  V30 1126 C 112.103 1.48884 -1.377 0
M  V30 1127 C 112.436 1.94185 0.0244852 0
M  V30 1128 O 111.711 1.67361 0.990986 0
M  V30 1129 C 111.994 2.72288 -2.3565 0
M  V30 1130 C 111.847 2.32956 -3.84775 0
M  V30 1131 C 113.166 3.74414 -2.31306 0
M  V30 1132 H 110.285 0.540062 -0.5015 0
M  V30 1133 H 112.927 0.830547 -1.70886 0
M  V30 1134 H 111.077 3.28457 -2.07481 0
M  V30 1135 H 112.749 1.82356 -4.23726 0
M  V30 1136 H 110.992 1.65088 -4.01159 0
M  V30 1137 H 111.663 3.21362 -4.4881 0
M  V30 1138 H 114.139 3.27849 -2.56231 0
M  V30 1139 H 113.015 4.58414 -3.01907 0
M  V30 1140 H 113.276 4.21909 -1.32081 0
M  V30 1141 N 112.336 1.25143 0.95797 0
M  V30 1142 C 113.561 1.12521 1.74223 0
M  V30 1143 C 113.986 -0.317402 1.85403 0
M  V30 1144 O 113.344 -1.2299 1.33204 0
M  V30 1145 C 113.392 1.78062 3.1357 0
M  V30 1146 O 112.496 1.058 3.98598 0
M  V30 1147 H 111.837 0.39304 0.535178 0
M  V30 1148 H 114.367 1.65641 1.201 0
M  V30 1149 H 114.377 1.84213 3.64046 0
M  V30 1150 H 113.052 2.83021 3.04749 0
M  V30 1151 H 111.629 1.07506 3.57067 0
M  V30 1152 N 113.814 -1.1601 1.06675 0
M  V30 1153 C 115.061 -1.86633 0.785781 0
M  V30 1154 C 115.389 -1.81929 -0.687896 0
M  V30 1155 O 114.644 -1.23253 -1.52011 0
M  V30 1156 C 114.943 -3.35547 1.23057 0
M  V30 1157 C 114.609 -3.60448 2.70902 0
M  V30 1158 C 113.271 -3.66954 3.11285 0
M  V30 1159 C 115.623 -3.7071 3.66365 0
M  V30 1160 C 112.951 -3.81225 4.45965 0
M  V30 1161 C 115.303 -3.86503 5.00797 0
M  V30 1162 C 113.967 -3.91252 5.40813 0
M  V30 1163 H 113.237 -0.682937 0.287538 0
M  V30 1164 H 115.884 -1.37146 1.33654 0
M  V30 1165 H 114.189 -3.87193 0.59907 0
M  V30 1166 H 115.886 -3.88583 0.990163 0
M  V30 1167 H 112.476 -3.56021 2.38636 0
M  V30 1168 H 116.66 -3.64991 3.36296 0
M  V30 1169 H 111.916 -3.83155 4.76447 0
M  V30 1170 H 116.09 -3.93385 5.74649 0
M  V30 1171 H 113.717 -4.02062 6.45174 0
M  V30 1172 N 115.292 -0.849877 -1.32721 0
M  V30 1173 C 116.54 -0.450032 -1.97026 0
M  V30 1174 C 116.861 0.996604 -1.67609 0
M  V30 1175 O 116.131 1.6958 -0.980786 0
M  V30 1176 H 114.711 -0.163426 -0.728904 0
M  V30 1177 H 117.373 -1.08526 -1.6189 0
M  V30 1178 H 116.469 -0.591146 -3.0645 0
M  V30 1179 N 116.77 1.45427 -0.607355 0
M  V30 1180 C 117.995 2.07124 -0.107006 0
M  V30 1181 C 118.42 1.44906 1.19933 0
M  V30 1182 O 117.778 0.541687 1.73019 0
M  V30 1183 C 117.826 3.60595 0.0194119 0
M  V30 1184 O 116.93 3.98285 1.0697 0
M  V30 1185 H 116.271 0.659868 -0.0739597 0
M  V30 1186 H 118.801 1.86683 -0.837297 0
M  V30 1187 H 118.811 4.07419 0.2177 0
M  V30 1188 H 117.486 4.05266 -0.934453 0
M  V30 1189 H 116.063 3.63133 0.847889 0
M  V30 1190 N 118.248 0.346503 1.53744 0
M  V30 1191 C 119.476 -0.25041 2.05379 0
M  V30 1192 C 119.891 -1.43979 1.22129 0
M  V30 1193 O 119.248 -1.80677 0.257321 0
M  V30 1194 C 119.299 -0.662575 3.55376 0
M  V30 1195 O 119.02 0.479515 4.35468 0
M  V30 1196 C 120.521 -1.31989 4.23195 0
M  V30 1197 H 117.741 -0.0478198 0.669294 0
M  V30 1198 H 120.285 0.499346 1.9831 0
M  V30 1199 H 118.44 -1.36227 3.62658 0
M  V30 1200 H 118.854 0.15037 5.24284 0
M  V30 1201 H 120.328 -1.55902 5.29527 0
M  V30 1202 H 120.805 -2.27436 3.75725 0
M  V30 1203 H 121.411 -0.662154 4.20114 0
M  V30 1204 N 119.726 -1.57421 0.075193 0
M  V30 1205 C 121.003 -1.85029 -0.634329 0
M  V30 1206 C 121.383 -0.968305 -1.87582 0
M  V30 1207 O 120.731 -0.0354749 -2.28472 0
M  V30 1208 C 120.941 -3.35286 -0.968742 0
M  V30 1209 C 122.289 -4.02875 -1.34077 0
M  V30 1210 O 123.313 -3.40051 -1.06037 0
M  V30 1211 O 122.172 -5.13691 -1.86506 0
M  V30 1212 H 119.266 -0.7645 -0.315387 0
M  V30 1213 H 121.812 -1.69366 0.106382 0
M  V30 1214 H 120.584 -3.91203 -0.0871376 0
M  V30 1215 H 120.207 -3.56223 -1.7661 0
M  V30 1216 N 121.204 0.198386 -1.56346 0
M  V30 1217 C 122.62 0.549085 -1.49857 0
M  V30 1218 C 122.82 1.86016 -0.774611 0
M  V30 1219 O 121.876 2.50416 -0.323776 0
M  V30 1220 C 123.189 0.606868 -2.94512 0
M  V30 1221 C 124.737 0.695925 -3.05165 0
M  V30 1222 C 125.212 0.784848 -4.51225 0
M  V30 1223 N 126.703 0.848463 -4.55363 0
M  V30 1224 C 127.438 0.937378 -5.65686 0
M  V30 1225 N 126.934 0.9888 -6.85707 0
M  V30 1226 N 128.727 0.974312 -5.53592 0
M  V30 1227 H 120.878 -0.661655 -2.01831 0
M  V30 1228 H 123.141 -0.235261 -0.918344 0
M  V30 1229 H 122.847 -0.28732 -3.50524 0
M  V30 1230 H 122.721 1.46268 -3.47686 0
M  V30 1231 H 125.108 1.58055 -2.49204 0
M  V30 1232 H 125.189 -0.186022 -2.55123 0
M  V30 1233 H 124.833 -0.0954072 -5.0781 0
M  V30 1234 H 124.763 1.68255 -4.98997 0
M  V30 1235 H 127.254 0.818103 -3.68938 0
M  V30 1236 H 127.567 1.05707 -7.65536 0
M  V30 1237 H 125.912 0.957534 -6.88372 0
M  V30 1238 H 129.103 0.930954 -4.58749 0
M  V30 1239 H 129.276 1.04015 -6.39597 0
M  V30 1240 N 122.682 1.50554 0.465978 0
M  V30 1241 C 123.929 1.61798 1.21768 0
M  V30 1242 C 124.257 0.320696 1.91838 0
M  V30 1243 O 123.512 -0.693724 1.82992 0
M  V30 1244 C 123.811 2.75152 2.28093 0
M  V30 1245 C 123.477 4.15454 1.75239 0
M  V30 1246 C 122.139 4.53628 1.60546 0
M  V30 1247 C 124.491 5.03121 1.36083 0
M  V30 1248 C 121.819 5.77204 1.05128 0
M  V30 1249 C 124.171 6.27249 0.821056 0
M  V30 1250 C 122.835 6.64221 0.660795 0
M  V30 1251 H 122.105 0.592063 0.445582 0
M  V30 1252 H 124.752 1.84503 0.512927 0
M  V30 1253 H 123.057 2.46556 3.04496 0
M  V30 1254 H 124.754 2.81055 2.86023 0
M  V30 1255 H 121.344 3.85341 1.87644 0
M  V30 1256 H 125.528 4.74257 1.46267 0
M  V30 1257 H 120.784 6.0452 0.91462 0
M  V30 1258 H 124.958 6.94537 0.509018 0
M  V30 1259 H 122.585 7.59854 0.229226 0
M  V30 1260 N 124.16 -0.719506 1.40217 0
M  V30 1261 C 125.406 -1.48152 1.38488 0
M  V30 1262 C 125.739 -1.94195 -0.0141867 0
M  V30 1263 O 125.014 -1.67884 -0.982096 0
M  V30 1264 C 125.297 -2.71035 2.37091 0
M  V30 1265 C 125.15 -2.30912 3.86005 0
M  V30 1266 C 126.469 -3.73182 2.33288 0
M  V30 1267 H 123.588 -0.537395 0.504357 0
M  V30 1268 H 126.23 -0.821472 1.71324 0
M  V30 1269 H 124.38 -3.27352 2.0922 0
M  V30 1270 H 126.052 -1.80107 4.24687 0
M  V30 1271 H 124.295 -1.62958 4.02029 0
M  V30 1272 H 124.966 -3.18978 4.50508 0
M  V30 1273 H 127.442 -3.26485 2.57966 0
M  V30 1274 H 126.318 -4.56806 3.04334 0
M  V30 1275 H 126.579 -4.21202 1.34317 0
M  V30 1276 N 125.638 -1.25649 -0.95132 0
M  V30 1277 C 126.568 -1.08808 -2.06599 0
M  V30 1278 C 127.549 0.00382547 -1.701 0
M  V30 1279 O 128.734 -0.166325 -1.93486 0
M  V30 1280 C 125.864 -0.709542 -3.39975 0
M  V30 1281 C 124.818 -1.75206 -3.90496 0
M  V30 1282 C 124.144 -1.22811 -5.20405 0
M  V30 1283 C 125.444 -3.15153 -4.16504 0
M  V30 1284 H 127.138 -2.02048 -2.20946 0
M  V30 1285 H 124.684 -0.972835 -1.06169 0
M  V30 1286 H 126.637 -0.578649 -4.17408 0
M  V30 1287 H 125.361 0.258556 -3.25575 0
M  V30 1288 H 124.02 -1.87145 -3.15234 0
M  V30 1289 H 123.668 -0.250145 -5.02378 0
M  V30 1290 H 123.368 -1.92492 -5.55176 0
M  V30 1291 H 124.892 -1.10968 -6.00432 0
M  V30 1292 H 126.306 -3.06349 -4.84586 0
M  V30 1293 H 124.703 -3.82333 -4.62538 0
M  V30 1294 H 125.773 -3.61966 -3.22658 0
M  V30 1295 N 127.117 1.15442 -1.07289 0
M  V30 1296 C 128.08 2.18358 -0.696591 0
M  V30 1297 C 129.08 1.58637 0.262837 0
M  V30 1298 O 130.27 1.74145 0.0438809 0
M  V30 1299 C 127.402 3.4089 -0.0266151 0
M  V30 1300 H 128.595 2.53162 -1.60776 0
M  V30 1301 H 126.148 1.29893 -0.869342 0
M  V30 1302 H 126.883 3.11653 0.896822 0
M  V30 1303 H 126.668 3.85495 -0.716657 0
M  V30 1304 H 128.158 4.17009 0.222028 0
M  V30 1305 N 128.595 0.856903 1.32268 0
M  V30 1306 C 129.542 0.301172 2.28827 0
M  V30 1307 C 130.512 -0.593104 1.5515 0
M  V30 1308 O 131.697 -0.527537 1.83362 0
M  V30 1309 C 128.837 -0.502523 3.41422 0
M  V30 1310 C 127.95 0.417797 4.29975 0
M  V30 1311 C 127.085 -0.398749 5.29701 0
M  V30 1312 C 126.124 0.518827 6.09897 0
M  V30 1313 N 125.261 -0.260674 7.01616 0
M  V30 1314 H 130.101 1.12983 2.75751 0
M  V30 1315 H 127.638 0.568582 1.35667 0
M  V30 1316 H 129.596 -0.984141 4.05426 0
M  V30 1317 H 128.226 -1.29599 2.95642 0
M  V30 1318 H 127.278 1.01781 3.66531 0
M  V30 1319 H 128.59 1.12191 4.86019 0
M  V30 1320 H 127.744 -0.943435 5.9932 0
M  V30 1321 H 126.483 -1.13622 4.7428 0
M  V30 1322 H 125.488 1.07538 5.39181 0
M  V30 1323 H 126.713 1.25495 6.67404 0
M  V30 1324 H 124.659 -0.981198 6.4862 0
M  V30 1325 H 124.576 0.384364 7.55022 0
M  V30 1326 H 125.844 -0.787014 7.75517 0
M  V30 1327 N 130.073 -1.45103 0.615059 0
M  V30 1328 C 130.983 -2.34382 -0.101034 0
M  V30 1329 C 131.999 -1.51681 -0.852585 0
M  V30 1330 O 133.175 -1.8446 -0.808484 0
M  V30 1331 C 130.24 -3.29417 -1.08099 0
M  V30 1332 C 129.301 -4.28025 -0.330577 0
M  V30 1333 C 128.534 -5.1852 -1.26385 0
M  V30 1334 O 128.757 -5.12598 -2.50198 0
M  V30 1335 O 127.691 -5.97122 -0.756866 0
M  V30 1336 H 131.517 -2.97033 0.632855 0
M  V30 1337 H 129.102 -1.4461 0.375293 0
M  V30 1338 H 130.984 -3.87958 -1.6452 0
M  V30 1339 H 129.659 -2.69321 -1.79577 0
M  V30 1340 H 128.566 -3.73078 0.276283 0
M  V30 1341 H 129.899 -4.90997 0.343866 0
M  V30 1342 N 131.551 -0.354651 -1.53558 0
M  V30 1343 C 132.501 0.513179 -2.2215 0
M  V30 1344 C 133.485 1.05734 -1.21281 0
M  V30 1345 O 134.677 0.989202 -1.46778 0
M  V30 1346 C 131.806 1.65798 -3.00609 0
M  V30 1347 C 130.892 1.12722 -4.08845 0
M  V30 1348 N 131.283 0.318563 -5.04796 0
M  V30 1349 C 129.581 1.40307 -4.23356 0
M  V30 1350 C 130.282 0.0292224 -5.81693 0
M  V30 1351 N 129.258 0.623891 -5.40008 0
M  V30 1352 H 133.06 -0.111586 -2.93688 0
M  V30 1353 H 130.574 -0.162091 -1.61589 0
M  V30 1354 H 132.571 2.29176 -3.48258 0
M  V30 1355 H 131.231 2.28591 -2.306 0
M  V30 1356 H 132.242 -0.0413091 -5.17884 0
M  V30 1357 H 128.919 2.03458 -3.6457 0
M  V30 1358 H 130.309 -0.623808 -6.68998 0
M  V30 1359 N 133.029 1.57378 -0.0835403 0
M  V30 1360 C 134.445 1.57246 0.273109 0
M  V30 1361 C 134.645 1.09385 1.69225 0
M  V30 1362 O 133.701 0.765051 2.40631 0
M  V30 1363 C 135.014 3.00614 0.0720628 0
M  V30 1364 C 136.562 3.12684 0.1407 0
M  V30 1365 C 137.037 4.57989 -0.0322094 0
M  V30 1366 N 138.528 4.63194 0.0230085 0
M  V30 1367 C 139.263 5.73335 -0.0861941 0
M  V30 1368 N 138.759 6.9235 -0.24958 0
M  V30 1369 N 140.552 5.62093 -0.0282886 0
M  V30 1370 H 132.703 1.86801 -1.0109 0
M  V30 1371 H 134.966 0.861687 -0.395222 0
M  V30 1372 H 134.672 3.39786 -0.907662 0
M  V30 1373 H 134.546 3.68193 0.81936 0
M  V30 1374 H 136.933 2.73391 1.11092 0
M  V30 1375 H 137.014 2.47719 -0.637896 0
M  V30 1376 H 136.658 4.97973 -0.999247 0
M  V30 1377 H 136.588 5.21 0.765937 0
M  V30 1378 H 139.079 3.77613 0.14722 0
M  V30 1379 H 139.392 7.72117 -0.324733 0
M  V30 1380 H 137.737 6.94415 -0.285097 0
M  V30 1381 H 140.928 4.67997 0.0981408 0
M  V30 1382 H 141.101 6.47895 -0.116845 0
M  V30 1383 N 134.507 -0.190092 1.56449 0
M  V30 1384 C 135.732 -0.929864 1.85387 0
M  V30 1385 C 136.157 -1.7585 0.667704 0
M  V30 1386 O 135.515 -1.77198 -0.383459 0
M  V30 1387 C 135.563 -1.79773 3.12593 0
M  V30 1388 O 134.667 -2.89713 2.93496 0
M  V30 1389 H 134.008 -0.261574 0.610307 0
M  V30 1390 H 136.538 -0.193896 2.03679 0
M  V30 1391 H 136.548 -2.20139 3.43515 0
M  V30 1392 H 135.223 -1.18892 3.98544 0
M  V30 1393 H 133.8 -2.53065 2.73884 0
M  V30 1394 N 135.985 -1.50799 -0.457987 0
M  V30 1395 C 136.948 -1.7005 -1.53674 0
M  V30 1396 C 137.948 -0.570881 -1.50325 0
M  V30 1397 O 139.138 -0.838126 -1.52712 0
M  V30 1398 C 136.27 -1.73788 -2.93276 0
M  V30 1399 H 137.463 -2.66306 -1.37917 0
M  V30 1400 H 135.016 -1.40477 -0.685271 0
M  V30 1401 H 135.751 -0.792717 -3.14462 0
M  V30 1402 H 135.536 -2.55864 -2.97113 0
M  V30 1403 H 137.026 -1.90591 -3.71571 0
M  V30 1404 N 137.463 0.71206 -1.40597 0
M  V30 1405 C 138.413 1.81783 -1.37619 0
M  V30 1406 C 139.397 1.58896 -0.253162 0
M  V30 1407 O 140.589 1.70009 -0.492547 0
M  V30 1408 C 137.718 3.19944 -1.24462 0
M  V30 1409 C 136.804 3.48582 -2.4156 0
M  V30 1410 N 137.195 3.48016 -3.67041 0
M  V30 1411 C 135.493 3.79056 -2.35016 0
M  V30 1412 C 136.194 3.75096 -4.44609 0
M  V30 1413 N 135.17 3.94022 -3.74497 0
M  V30 1414 H 138.972 1.79683 -2.32575 0
M  V30 1415 H 136.486 0.91134 -1.34419 0
M  V30 1416 H 138.483 3.99133 -1.20411 0
M  V30 1417 H 137.143 3.23267 -0.304762 0
M  V30 1418 H 138.154 3.28782 -4.00153 0
M  V30 1419 H 134.831 3.89848 -1.49415 0
M  V30 1420 H 136.221 3.80934 -5.53479 0
M  V30 1421 N 138.941 1.26152 0.944643 0
M  V30 1422 C 140.166 1.14363 1.7302 0
M  V30 1423 C 140.591 -0.29772 1.85729 0
M  V30 1424 O 139.949 -1.2157 1.34501 0
M  V30 1425 C 139.997 1.81378 3.11664 0
M  V30 1426 O 139.101 1.10022 3.97453 0
M  V30 1427 H 138.442 0.398694 0.53098 0
M  V30 1428 H 140.972 1.66906 1.18337 0
M  V30 1429 H 140.982 1.88064 3.62072 0
M  V30 1430 H 139.657 2.86237 3.0173 0
M  V30 1431 H 138.234 1.11287 3.55907 0
M  V30 1432 N 140.419 -1.14872 1.07899 0
M  V30 1433 C 141.329 -2.2341 0.715915 0
M  V30 1434 C 142.345 -1.71808 -0.275306 0
M  V30 1435 O 143.521 -2.01039 -0.120545 0
M  V30 1436 C 140.586 -3.46474 0.125168 0
M  V30 1437 C 139.647 -4.13039 1.17034 0
M  V30 1438 C 138.88 -5.30229 0.607688 0
M  V30 1439 O 139.103 -5.675 -0.574497 0
M  V30 1440 O 138.037 -5.86444 1.35526 0
M  V30 1441 H 141.863 -2.56808 1.62121 0
M  V30 1442 H 139.448 -1.22702 0.852322 0
M  V30 1443 H 141.33 -4.20917 -0.201729 0
M  V30 1444 H 140.005 -3.14811 -0.753364 0
M  V30 1445 H 138.912 -3.40493 1.54968 0
M  V30 1446 H 140.245 -4.48796 2.02097 0
M  V30 1447 N 141.898 -0.863906 -1.31812 0
M  V30 1448 C 143.144 -0.481841 -1.9761 0
M  V30 1449 C 143.499 0.954048 -1.6708 0
M  V30 1450 O 142.792 1.66182 -0.953624 0
M  V30 1451 C 142.986 -0.668547 -3.51091 0
M  V30 1452 C 142.815 -2.12103 -3.96538 0
M  V30 1453 C 141.585 -2.76141 -4.23171 0
M  V30 1454 C 143.783 -3.09265 -4.10925 0
M  V30 1455 N 141.765 -4.12205 -4.54929 0
M  V30 1456 C 143.136 -4.30341 -4.46326 0
M  V30 1457 C 145.191 -3.05337 -3.93286 0
M  V30 1458 C 143.894 -5.48 -4.65928 0
M  V30 1459 C 145.92 -4.22248 -4.14078 0
M  V30 1460 C 145.282 -5.42085 -4.49804 0
M  V30 1461 H 141.381 -0.225238 -0.74886 0
M  V30 1462 H 143.965 -1.11723 -1.59455 0
M  V30 1463 H 142.136 -0.0627898 -3.88349 0
M  V30 1464 H 143.868 -0.255467 -4.03893 0
M  V30 1465 H 140.623 -2.27125 -4.15585 0
M  V30 1466 H 141.047 -4.82416 -4.74978 0
M  V30 1467 H 145.689 -2.138 -3.64759 0
M  V30 1468 H 143.407 -6.40059 -4.93305 0
M  V30 1469 H 146.993 -4.20654 -4.01922 0
M  V30 1470 H 145.873 -6.31044 -4.65567 0
M  V30 1471 N 143.376 1.44774 -0.622745 0
M  V30 1472 C 144.601 2.06999 -0.128968 0
M  V30 1473 C 145.026 1.4617 1.1839 0
M  V30 1474 O 144.384 0.560007 1.72434 0
M  V30 1475 C 144.432 3.60595 -0.0188351 0
M  V30 1476 O 143.536 3.99398 1.02739 0
M  V30 1477 H 142.877 0.659047 -0.0809544 0
M  V30 1478 H 145.407 1.85784 -0.85705 0
M  V30 1479 H 145.417 4.07627 0.174476 0
M  V30 1480 H 144.092 4.04252 -0.977384 0
M  V30 1481 H 142.669 3.64011 0.809326 0
M  V30 1482 N 144.854 0.36279 1.53368 0
M  V30 1483 C 146.079 -0.231226 2.06107 0
M  V30 1484 C 146.504 -1.419 1.23474 0
M  V30 1485 O 145.862 -1.79524 0.253128 0
M  V30 1486 C 145.91 -0.605523 3.5548 0
M  V30 1487 O 145.014 -1.70312 3.7559 0
M  V30 1488 H 144.355 -0.034327 0.663112 0
M  V30 1489 H 146.885 0.522584 1.97814 0
M  V30 1490 H 146.895 -0.877314 3.98456 0
M  V30 1491 H 145.57 0.263004 4.15068 0
M  V30 1492 H 144.147 -1.4271 3.44512 0
M  V30 1493 N 146.332 -1.57332 0.0918853 0
M  V30 1494 C 147.279 -2.13847 -0.868211 0
M  V30 1495 C 148.249 -1.05618 -1.28196 0
M  V30 1496 O 149.434 -1.33387 -1.36427 0
M  V30 1497 C 146.574 -2.72062 -2.12312 0
M  V30 1498 C 145.687 -3.94514 -1.7602 0
M  V30 1499 C 144.822 -4.40903 -2.96273 0
M  V30 1500 C 143.861 -5.55953 -2.56092 0
M  V30 1501 N 142.998 -5.97209 -3.69169 0
M  V30 1502 H 147.838 -2.95575 -0.379406 0
M  V30 1503 H 145.375 -1.46048 -0.175606 0
M  V30 1504 H 147.333 -3.03931 -2.858 0
M  V30 1505 H 145.963 -1.93068 -2.58698 0
M  V30 1506 H 145.015 -3.68979 -0.925135 0
M  V30 1507 H 146.327 -4.7802 -1.42472 0
M  V30 1508 H 145.481 -4.74539 -3.78018 0
M  V30 1509 H 144.22 -3.56291 -3.33029 0
M  V30 1510 H 143.225 -5.21948 -1.72773 0
M  V30 1511 H 144.45 -6.42311 -2.20484 0
M  V30 1512 H 142.396 -5.15543 -4.05649 0
M  V30 1513 H 142.313 -6.75504 -3.39456 0
M  V30 1514 H 143.581 -6.35475 -4.51434 0
M  V30 1515 N 147.81 0.181792 -1.56548 0
M  V30 1516 C 148.758 1.24461 -1.965 0
M  V30 1517 C 149.752 1.464 -0.852261 0
M  V30 1518 O 150.958 1.47103 -1.03733 0
M  V30 1519 H 147.333 0.418138 -0.625031 0
M  V30 1520 H 149.304 0.880714 -2.85107 0
M  V30 1521 C 148.053 2.57891 -2.33212 0
M  V30 1522 H 147.376 2.41829 -3.18369 0
M  V30 1523 H 148.816 3.3097 -2.65019 0
M  V30 1524 C 147.275 3.15871 -1.17163 0
M  V30 1525 O 147.805 3.9913 -0.453708 0
M  V30 1526 N 146.011 2.74808 -0.944936 0
M  V30 1527 H 145.558 2.07205 -1.53049 0
M  V30 1528 H 145.516 3.13939 -0.170286 0
M  V30 1529 N 149.288 1.51039 0.449983 0
M  V30 1530 C 150.198 1.74261 1.57067 0
M  V30 1531 C 151.214 0.626363 1.62335 0
M  V30 1532 O 152.39 0.907162 1.79812 0
M  V30 1533 C 149.455 1.85114 2.93144 0
M  V30 1534 C 148.516 3.0893 2.98095 0
M  V30 1535 C 147.749 3.19256 4.27681 0
M  V30 1536 O 147.972 2.35835 5.19363 0
M  V30 1537 O 146.906 4.12144 4.38658 0
M  V30 1538 H 150.732 2.69303 1.40391 0
M  V30 1539 H 148.317 1.35389 0.631688 0
M  V30 1540 H 150.199 1.94311 3.73926 0
M  V30 1541 H 148.874 0.932588 3.09975 0
M  V30 1542 H 147.781 3.0522 2.16314 0
M  V30 1543 H 149.114 4.00433 2.86206 0
M  V30 1544 N 150.766 -0.704594 1.40972 0
M  V30 1545 C 152.015 -1.46018 1.39146 0
M  V30 1546 C 152.328 -1.956 0.000589254 0
M  V30 1547 O 153.534 -2.71137 -0.1403 0
M  V30 1548 C 151.99 -2.63996 2.4461 0
M  V30 1549 C 151.598 -2.21238 3.89561 0
M  V30 1550 C 153.342 -3.41677 2.51907 0
M  V30 1551 C 151.249 -3.3612 4.86598 0
M  V30 1552 H 150.179 -0.548444 0.517422 0
M  V30 1553 H 152.83 -0.765784 1.66757 0
M  V30 1554 H 151.212 -3.3566 2.10115 0
M  V30 1555 H 152.386 -1.56923 4.33257 0
M  V30 1556 H 150.701 -1.56574 3.85841 0
M  V30 1557 H 153.298 -4.27182 3.2159 0
M  V30 1558 H 153.641 -3.86247 1.55303 0
M  V30 1559 H 154.174 -2.77064 2.85448 0
M  V30 1560 H 150.913 -2.96572 5.84573 0
M  V30 1561 H 150.433 -3.99315 4.47557 0
M  V30 1562 H 152.112 -4.02029 5.06934 0
M  V30 1563 N 152.244 -1.26651 -0.937939 0
M  V30 1564 C 153.194 -1.05156 -2.02302 0
M  V30 1565 C 154.178 0.0171233 -1.60891 0
M  V30 1566 O 155.37 -0.200213 -1.75864 0
M  V30 1567 C 152.499 -0.689962 -3.36295 0
M  V30 1568 C 151.585 -1.79626 -3.84181 0
M  V30 1569 N 151.976 -3.03422 -4.04684 0
M  V30 1570 C 150.274 -1.6806 -4.13124 0
M  V30 1571 C 150.975 -3.75345 -4.444 0
M  V30 1572 N 149.951 -3.03051 -4.51288 0
M  V30 1573 H 153.753 -1.99117 -2.1617 0
M  V30 1574 H 151.267 -1.17216 -1.12402 0
M  V30 1575 H 153.264 -0.517112 -4.13681 0
M  V30 1576 H 151.924 0.242139 -3.23796 0
M  V30 1577 H 152.935 -3.39293 -3.91281 0
M  V30 1578 H 149.612 -0.818629 -4.09396 0
M  V30 1579 H 151.002 -4.81691 -4.68427 0
M  V30 1580 N 153.722 1.14298 -1.08507 0
M  V30 1581 C 154.685 2.17607 -0.719711 0
M  V30 1582 C 155.685 1.58907 0.245997 0
M  V30 1583 O 156.875 1.74181 0.0254081 0
M  V30 1584 C 154.007 3.40842 -0.0627695 0
M  V30 1585 H 155.2 2.51443 -1.63452 0
M  V30 1586 H 152.753 1.28963 -0.88307 0
M  V30 1587 H 153.488 3.12587 0.863716 0
M  V30 1588 H 153.273 3.84713 -0.757504 0
M  V30 1589 H 154.763 4.17221 0.177786 0
M  V30 1590 N 155.201 0.870884 1.31352 0
M  V30 1591 C 156.111 0.330783 2.32256 0
M  V30 1592 C 157.127 -0.559767 1.6475 0
M  V30 1593 O 158.303 -0.456263 1.96164 0
M  V30 1594 C 155.368 -0.458137 3.4366 0
M  V30 1595 C 154.429 0.460482 4.26823 0
M  V30 1596 C 153.662 -0.290881 5.32907 0
M  V30 1597 O 153.885 -1.51885 5.49806 0
M  V30 1598 O 152.819 0.351732 6.00871 0
M  V30 1599 H 156.645 1.16718 2.80376 0
M  V30 1600 H 154.23 0.634285 1.35267 0
M  V30 1601 H 156.112 -0.905343 4.1156 0
M  V30 1602 H 154.787 -1.27106 2.97701 0
M  V30 1603 H 153.694 0.956207 3.61673 0
M  V30 1604 H 155.027 1.23903 4.7635 0
M  V30 1605 N 156.679 -1.44442 0.630414 0
M  V30 1606 C 157.609 -2.33418 -0.0618083 0
M  V30 1607 C 158.59 -1.48165 -0.835541 0
M  V30 1608 O 159.775 -1.76886 -0.801564 0
M  V30 1609 C 156.905 -3.31222 -1.04449 0
M  V30 1610 C 155.859 -4.26288 -0.382436 0
M  V30 1611 C 155.185 -5.13954 -1.47497 0
M  V30 1612 C 156.485 -5.1744 0.710865 0
M  V30 1613 H 158.179 -2.91548 0.681184 0
M  V30 1614 H 155.725 -1.40191 0.329026 0
M  V30 1615 H 157.678 -3.92351 -1.53748 0
M  V30 1616 H 156.402 -2.71299 -1.81836 0
M  V30 1617 H 155.061 -3.6649 0.0899054 0
M  V30 1618 H 154.709 -4.50385 -2.2397 0
M  V30 1619 H 154.409 -5.7837 -1.03737 0
M  V30 1620 H 155.933 -5.77955 -1.96979 0
M  V30 1621 H 157.347 -5.72509 0.300996 0
M  V30 1622 H 155.744 -5.90455 1.07156 0
M  V30 1623 H 156.814 -4.58496 1.57829 0
M  V30 1624 N 158.157 -0.370918 -1.53173 0
M  V30 1625 C 159.105 0.488101 -2.27421 0
M  V30 1626 C 160.099 1.07884 -1.30604 0
M  V30 1627 O 161.305 1.02143 -1.48212 0
M  V30 1628 H 157.68 0.176134 -0.731082 0
M  V30 1629 H 159.651 -0.159815 -2.97972 0
M  V30 1630 C 158.4 1.61306 -3.08019 0
M  V30 1631 H 157.723 1.1678 -3.82364 0
M  V30 1632 H 159.163 2.18872 -3.63141 0
M  V30 1633 C 157.622 2.55848 -2.19188 0
M  V30 1634 O 158.152 3.58799 -1.80626 0
M  V30 1635 N 156.358 2.2516 -1.83715 0
M  V30 1636 H 155.905 1.41476 -2.15273 0
M  V30 1637 H 155.863 2.8867 -1.24567 0
M  V30 1638 N 159.635 1.57281 -0.100228 0
M  V30 1639 C 160.598 2.13158 0.842398 0
M  V30 1640 C 161.598 1.06202 1.20738 0
M  V30 1641 O 162.788 1.32066 1.13597 0
M  V30 1642 C 159.92 2.65639 2.13655 0
M  V30 1643 H 161.113 2.97766 0.357114 0
M  V30 1644 H 158.666 1.5559 0.148823 0
M  V30 1645 H 159.401 1.84566 2.66657 0
M  V30 1646 H 159.186 3.43844 1.88451 0
M  V30 1647 H 160.676 3.08846 2.81077 0
M  V30 1648 N 161.113 -0.173488 1.56642 0
M  V30 1649 C 162.362 -0.888758 1.81063 0
M  V30 1650 C 162.675 -1.83506 0.67712 0
M  V30 1651 O 163.881 -2.59254 0.806206 0
M  V30 1652 C 162.337 -1.63091 3.20826 0
M  V30 1653 C 161.945 -0.728357 4.4204 0
M  V30 1654 C 163.689 -2.33454 3.54541 0
M  V30 1655 C 161.596 -1.47062 5.72823 0
M  V30 1656 H 160.526 -0.335618 0.675186 0
M  V30 1657 H 163.177 -0.141712 1.82952 0
M  V30 1658 H 161.559 -2.42263 3.13248 0
M  V30 1659 H 162.733 0.0262449 4.60793 0
M  V30 1660 H 161.048 -0.134492 4.16183 0
M  V30 1661 H 163.645 -2.89578 4.49498 0
M  V30 1662 H 163.988 -3.08687 2.79317 0
M  V30 1663 H 164.521 -1.61227 3.63663 0
M  V30 1664 H 161.26 -0.760658 6.51072 0
M  V30 1665 H 160.78 -2.1986 5.58052 0
M  V30 1666 H 162.459 -2.01868 6.14702 0
M  V30 1667 N 162.591 -1.51276 -0.441967 0
M  V30 1668 C 163.521 -1.752 -1.54361 0
M  V30 1669 C 164.502 -0.601682 -1.59103 0
M  V30 1670 O 165.687 -0.843913 -1.74905 0
M  V30 1671 C 162.817 -1.87282 -2.92477 0
M  V30 1672 C 161.771 -3.02687 -3.02596 0
M  V30 1673 C 161.097 -2.99947 -4.42647 0
M  V30 1674 C 162.397 -4.4273 -2.77106 0
M  V30 1675 H 164.091 -2.67442 -1.34592 0
M  V30 1676 H 161.637 -1.28694 -0.646048 0
M  V30 1677 H 163.59 -2.02602 -3.695 0
M  V30 1678 H 162.314 -0.916844 -3.13467 0
M  V30 1679 H 160.973 -2.87065 -2.28012 0
M  V30 1680 H 160.621 -2.02136 -4.60597 0
M  V30 1681 H 160.321 -3.77439 -4.50348 0
M  V30 1682 H 161.845 -3.17354 -5.2165 0
M  V30 1683 H 163.259 -4.58727 -3.43864 0
M  V30 1684 H 161.656 -5.21893 -2.96222 0
M  V30 1685 H 162.726 -4.53087 -1.72744 0
M  V30 1686 N 164.069 0.697108 -1.41344 0
M  V30 1687 C 165.316 1.45714 -1.40619 0
M  V30 1688 C 165.644 1.94494 -0.0147907 0
M  V30 1689 O 164.899 1.69794 0.973066 0
M  V30 1690 C 165.198 2.68553 -2.35826 0
M  V30 1691 C 164.864 2.38438 -3.82698 0
M  V30 1692 C 163.526 2.29936 -4.22709 0
M  V30 1693 C 165.878 2.13567 -4.75435 0
M  V30 1694 C 163.206 1.94656 -5.53467 0
M  V30 1695 C 165.558 1.79797 -6.06511 0
M  V30 1696 C 164.222 1.69789 -6.45545 0
M  V30 1697 H 163.492 0.533206 -0.51456 0
M  V30 1698 H 166.139 0.796901 -1.74131 0
M  V30 1699 H 164.444 3.39503 -1.95563 0
M  V30 1700 H 166.141 3.2669 -2.32539 0
M  V30 1701 H 162.731 2.4595 -3.51008 0
M  V30 1702 H 166.915 2.19082 -4.45328 0
M  V30 1703 H 162.171 1.8546 -5.82593 0
M  V30 1704 H 166.345 1.59572 -6.77872 0
M  V30 1705 H 163.972 1.4222 -7.46778 0
M  V30 1706 N 165.547 1.27147 0.931209 0
M  V30 1707 C 166.51 1.09615 2.01289 0
M  V30 1708 C 167.51 0.0412581 1.60747 0
M  V30 1709 O 168.7 0.285545 1.71844 0
M  V30 1710 C 165.832 0.669447 3.34262 0
M  V30 1711 H 167.025 2.05662 2.18273 0
M  V30 1712 H 164.578 1.09885 1.11153 0
M  V30 1713 H 165.313 -0.292572 3.22978 0
M  V30 1714 H 165.098 1.43127 3.65044 0
M  V30 1715 H 166.588 0.568921 4.13706 0
M  V30 1716 N 167.025 -1.13721 1.09112 0
M  V30 1717 C 167.988 -2.17222 0.731241 0
M  V30 1718 C 168.988 -1.59035 -0.237566 0
M  V30 1719 O 170.178 -1.74192 -0.0161704 0
M  V30 1720 C 167.31 -3.40804 0.0808443 0
M  V30 1721 H 168.503 -2.50573 1.64783 0
M  V30 1722 H 166.056 -1.28493 0.889897 0
M  V30 1723 H 166.791 -3.1304 -0.847127 0
M  V30 1724 H 166.576 -3.84306 0.777896 0
M  V30 1725 H 168.066 -4.1731 -0.155657 0
M  V30 1726 N 168.503 -0.877838 -1.30888 0
M  V30 1727 C 169.919 -0.570844 -1.49042 0
M  V30 1728 C 170.119 0.893159 -1.80624 0
M  V30 1729 O 169.175 1.67485 -1.88958 0
M  V30 1730 C 170.488 -1.47784 -2.61878 0
M  V30 1731 C 172.036 -1.48071 -2.75761 0
M  V30 1732 C 172.511 -2.37347 -3.91702 0
M  V30 1733 N 174.002 -2.35271 -3.99001 0
M  V30 1734 C 174.737 -3.01063 -4.88004 0
M  V30 1735 N 174.233 -3.76055 -5.81854 0
M  V30 1736 N 176.026 -2.90332 -4.81315 0
M  V30 1737 H 168.177 -1.82502 -1.0866 0
M  V30 1738 H 170.44 -0.780797 -0.537644 0
M  V30 1739 H 170.146 -2.51993 -2.45341 0
M  V30 1740 H 170.02 -1.18215 -3.58197 0
M  V30 1741 H 172.407 -0.446166 -2.91708 0
M  V30 1742 H 172.488 -1.81668 -1.80085 0
M  V30 1743 H 172.132 -3.40883 -3.76512 0
M  V30 1744 H 172.062 -2.01071 -4.86701 0
M  V30 1745 H 174.553 -1.80768 -3.3186 0
M  V30 1746 H 174.866 -4.23366 -6.46514 0
M  V30 1747 H 173.211 -3.80163 -5.81808 0
M  V30 1748 H 176.402 -2.31278 -4.06974 0
M  V30 1749 H 176.575 -3.41885 -5.50471 0
M  V30 1750 N 169.982 1.44106 -0.638065 0
M  V30 1751 C 170.93 2.3248 0.0748149 0
M  V30 1752 C 171.924 1.47746 0.828702 0
M  V30 1753 O 173.13 1.64049 0.740816 0
M  V30 1754 H 169.505 0.750771 0.0429686 0
M  V30 1755 H 171.476 2.90348 -0.688504 0
M  V30 1756 C 170.225 3.31843 1.03805 0
M  V30 1757 H 169.548 3.97059 0.467375 0
M  V30 1758 H 170.988 3.96345 1.50622 0
M  V30 1759 C 169.447 2.61291 2.1267 0
M  V30 1760 O 169.977 2.41702 3.20847 0
M  V30 1761 N 168.183 2.20915 1.88798 0
M  V30 1762 H 167.73 2.37047 1.00829 0
M  V30 1763 H 167.688 1.74038 2.61836 0
M  V30 1764 N 171.46 0.379036 1.52974 0
M  V30 1765 C 172.708 -0.206014 2.01047 0
M  V30 1766 C 173.029 -1.48175 1.26765 0
M  V30 1767 O 172.299 -1.92085 0.384743 0
M  V30 1768 H 170.879 -0.0791184 0.742798 0
M  V30 1769 H 173.541 0.508366 1.88153 0
M  V30 1770 H 172.637 -0.423501 3.09213 0
M  V30 1771 N 172.938 -1.57226 0.108567 0
M  V30 1772 C 174.163 -1.99604 -0.563303 0
M  V30 1773 C 174.588 -0.987563 -1.6009 0
M  V30 1774 O 173.946 0.0421687 -1.81251 0
M  V30 1775 C 173.994 -3.40902 -1.17552 0
M  V30 1776 O 173.098 -3.42896 -2.2912 0
M  V30 1777 H 172.439 -0.648704 -0.1417 0
M  V30 1778 H 174.969 -2.03679 0.193961 0
M  V30 1779 H 174.979 -3.78886 -1.51357 0
M  V30 1780 H 173.654 -4.1382 -0.415445 0
M  V30 1781 H 172.231 -3.1672 -1.96832 0
M  V30 1782 N 174.416 0.165178 -1.56732 0
M  V30 1783 C 175.641 0.900253 -1.86843 0
M  V30 1784 C 176.066 1.74766 -0.695596 0
M  V30 1785 O 175.424 1.77786 0.35522 0
M  V30 1786 C 175.472 1.74777 -3.15413 0
M  V30 1787 O 174.576 2.85007 -2.98068 0
M  V30 1788 H 173.917 0.251832 -0.614391 0
M  V30 1789 H 176.447 0.161468 -2.03962 0
M  V30 1790 H 176.457 2.14646 -3.46974 0
M  V30 1791 H 175.132 1.12537 -4.00385 0
M  V30 1792 H 173.709 2.48676 -2.77875 0
M  V30 1793 N 175.894 1.51508 0.433938 0
M  V30 1794 C 177.143 1.63578 1.18005 0
M  V30 1795 C 177.456 0.359514 1.92268 0
M  V30 1796 O 178.662 0.359632 2.69108 0
M  V30 1797 C 177.118 2.88901 2.14626 0
M  V30 1798 C 176.726 4.23544 1.45995 0
M  V30 1799 C 178.47 3.10328 2.89649 0
M  V30 1800 C 176.377 5.40014 2.4112 0
M  V30 1801 H 175.307 0.609277 0.444182 0
M  V30 1802 H 177.958 1.77978 0.446773 0
M  V30 1803 H 176.34 2.68142 2.91403 0
M  V30 1804 H 177.514 4.54696 0.747532 0
M  V30 1805 H 175.829 4.08021 0.831115 0
M  V30 1806 H 178.426 3.94518 3.60915 0
M  V30 1807 H 178.769 2.23544 3.51189 0
M  V30 1808 H 179.302 3.31443 2.19978 0
M  V30 1809 H 176.041 6.29068 1.84264 0
M  V30 1810 H 175.561 5.13233 3.10406 0
M  V30 1811 H 177.24 5.72099 3.02177 0
M  V30 1812 N 177.372 -0.689602 1.41712 0
M  V30 1813 C 178.282 -1.83314 1.46401 0
M  V30 1814 C 179.298 -1.7036 0.35405 0
M  V30 1815 O 180.474 -1.92171 0.602692 0
M  V30 1816 C 177.539 -3.19344 1.34982 0
M  V30 1817 C 176.6 -3.44363 2.56344 0
M  V30 1818 C 175.833 -4.73904 2.45461 0
M  V30 1819 O 176.056 -5.508 1.48241 0
M  V30 1820 O 174.99 -4.99839 3.35328 0
M  V30 1821 H 178.816 -1.82314 2.42889 0
M  V30 1822 H 176.401 -0.843438 1.23315 0
M  V30 1823 H 178.283 -4.00547 1.3092 0
M  V30 1824 H 176.958 -3.21014 0.41612 0
M  V30 1825 H 175.865 -2.63067 2.65982 0
M  V30 1826 H 177.198 -3.47512 3.48563 0
M  V30 1827 N 178.85 -1.27639 -0.924453 0
M  V30 1828 C 180.098 -1.13941 -1.66918 0
M  V30 1829 C 180.419 0.314589 -1.92446 0
M  V30 1830 O 179.689 1.21964 -1.53303 0
M  V30 1831 H 178.269 -0.418678 -0.618642 0
M  V30 1832 H 180.931 -1.60213 -1.10985 0
M  V30 1833 H 180.027 -1.67094 -2.63602 0
M  V30 1834 N 180.328 1.1314 -1.09713 0
M  V30 1835 C 181.291 2.16831 -0.742751 0
M  V30 1836 C 182.291 1.59159 0.229129 0
M  V30 1837 O 183.481 1.74199 0.00693237 0
M  V30 1838 C 180.613 3.40756 -0.0989168 0
M  V30 1839 H 181.806 2.49695 -1.66109 0
M  V30 1840 H 179.359 1.2802 -0.896699 0
M  V30 1841 H 180.094 3.13485 0.830514 0
M  V30 1842 H 179.879 3.83888 -0.798265 0
M  V30 1843 H 181.369 4.17386 0.133524 0
M  V30 1844 N 181.806 0.884767 1.30421 0
M  V30 1845 C 183.034 0.518044 2.0031 0
M  V30 1846 C 183.449 -0.893408 1.66324 0
M  V30 1847 O 182.806 -1.5875 0.900262 0
M  V30 1848 C 182.857 0.682997 3.54989 0
M  V30 1849 O 182.578 2.03888 3.87764 0
M  V30 1850 C 184.079 0.31924 4.42149 0
M  V30 1851 H 181.299 0.200265 0.640418 0
M  V30 1852 H 183.843 1.19001 1.6631 0
M  V30 1853 H 181.998 0.0584052 3.87356 0
M  V30 1854 H 182.412 2.05735 4.82466 0
M  V30 1855 H 183.886 0.485555 5.4986 0
M  V30 1856 H 184.363 -0.742717 4.32875 0
M  V30 1857 H 184.969 0.920147 4.15227 0
M  V30 1858 N 183.284 -1.43765 0.645699 0
M  V30 1859 C 184.217 -2.2798 -0.100072 0
M  V30 1860 C 185.195 -1.39391 -0.837194 0
M  V30 1861 O 186.379 -1.68833 -0.838306 0
M  V30 1862 C 183.506 -3.18643 -1.14823 0
M  V30 1863 C 182.552 -4.2344 -0.510009 0
M  V30 1864 S 183.385 -5.30761 0.710824 0
M  V30 1865 C 184.541 -6.24992 -0.33699 0
M  V30 1866 H 184.774 -2.90884 0.614322 0
M  V30 1867 H 182.307 -1.48166 0.434304 0
M  V30 1868 H 184.265 -3.71424 -1.74799 0
M  V30 1869 H 182.926 -2.54932 -1.8349 0
M  V30 1870 H 182.119 -4.86948 -1.29991 0
M  V30 1871 H 181.721 -3.73997 0.0154577 0
M  V30 1872 H 184.013 -6.66691 -1.20537 0
M  V30 1873 H 184.956 -7.07612 0.262879 0
M  V30 1874 H 185.364 -5.60517 -0.669425 0
M  V30 1875 N 184.763 -0.387143 -1.52771 0
M  V30 1876 C 185.993 0.195585 -2.05672 0
M  V30 1877 C 186.401 1.41241 -1.25887 0
M  V30 1878 O 185.744 1.81265 -0.298081 0
M  V30 1879 C 185.806 0.632327 -3.53895 0
M  V30 1880 C 185.47 -0.470739 -4.54569 0
M  V30 1881 C 186.467 -1.32746 -5.02667 0
M  V30 1882 C 184.152 -0.637151 -4.98243 0
M  V30 1883 C 186.146 -2.33574 -5.93061 0
M  V30 1884 C 183.833 -1.64877 -5.88438 0
M  V30 1885 C 184.831 -2.49649 -6.35739 0
M  V30 1886 O 184.519 -3.49082 -7.24153 0
M  V30 1887 H 184.251 0.033658 -0.675162 0
M  V30 1888 H 186.805 -0.550221 -1.97893 0
M  V30 1889 H 185.035 1.43008 -3.59285 0
M  V30 1890 H 186.724 1.14048 -3.89548 0
M  V30 1891 H 187.49 -1.21019 -4.69659 0
M  V30 1892 H 183.369 0.0129567 -4.60998 0
M  V30 1893 H 186.913 -2.99777 -6.29904 0
M  V30 1894 H 182.81 -1.76643 -6.2086 0
M  V30 1895 H 183.578 -3.45065 -7.42208 0
M  V30 1896 N 186.241 1.57166 -0.116904 0
M  V30 1897 C 187.487 1.95412 0.542405 0
M  V30 1898 C 187.82 1.00019 1.66463 0
M  V30 1899 O 187.095 0.0370346 1.94465 0
M  V30 1900 C 187.378 3.43615 1.07708 0
M  V30 1901 C 187.231 4.49781 -0.0415868 0
M  V30 1902 C 188.55 3.93616 1.96861 0
M  V30 1903 H 185.669 0.710543 0.195696 0
M  V30 1904 H 188.311 1.89027 -0.192038 0
M  V30 1905 H 186.461 3.49187 1.70296 0
M  V30 1906 H 188.133 4.56308 -0.676793 0
M  V30 1907 H 186.376 4.28033 -0.705019 0
M  V30 1908 H 187.047 5.50733 0.373717 0
M  V30 1909 H 189.523 3.90335 1.44146 0
M  V30 1910 H 188.399 4.97838 2.3119 0
M  V30 1911 H 188.66 3.34188 2.89432 0
M  V30 1912 N 187.719 -0.156864 1.56817 0
M  V30 1913 C 188.947 -0.886316 1.86955 0
M  V30 1914 C 189.362 -1.75185 0.703975 0
M  V30 1915 O 188.719 -1.79555 -0.326552 0
M  V30 1916 C 188.77 -1.75117 3.16253 0
M  V30 1917 O 188.491 -0.920537 4.2832 0
M  V30 1918 C 189.992 -2.58905 3.59837 0
M  V30 1919 H 187.212 -0.25678 0.619923 0
M  V30 1920 H 189.756 -0.152615 2.0393 0
M  V30 1921 H 187.911 -2.43805 3.01062 0
M  V30 1922 H 188.325 -1.51337 5.02192 0
M  V30 1923 H 189.799 -3.1518 4.53172 0
M  V30 1924 H 190.276 -3.34472 2.84649 0
M  V30 1925 H 190.882 -1.95526 3.7769 0
M  V30 1926 N 189.197 -1.51736 -0.425897 0
M  V30 1927 C 190.127 -1.76827 -1.52494 0
M  V30 1928 C 191.108 -0.618524 -1.58456 0
M  V30 1929 O 192.293 -0.862416 -1.74 0
M  V30 1930 C 189.423 -1.90374 -2.90474 0
M  V30 1931 C 188.377 -3.0588 -2.99369 0
M  V30 1932 C 187.703 -3.04625 -4.3944 0
M  V30 1933 C 189.003 -4.45644 -2.72394 0
M  V30 1934 H 190.697 -2.68855 -1.31748 0
M  V30 1935 H 188.243 -1.29372 -0.632362 0
M  V30 1936 H 190.196 -2.0651 -3.6733 0
M  V30 1937 H 188.92 -0.95004 -3.12477 0
M  V30 1938 H 187.579 -2.89467 -2.24954 0
M  V30 1939 H 187.227 -2.0701 -4.58428 0
M  V30 1940 H 186.927 -3.82195 -4.46319 0
M  V30 1941 H 188.451 -3.22869 -5.18255 0
M  V30 1942 H 189.865 -4.62348 -3.38979 0
M  V30 1943 H 188.262 -5.25006 -2.9067 0
M  V30 1944 H 189.332 -4.54893 -1.67929 0
M  V30 1945 N 190.675 0.682077 -1.42076 0
M  V30 1946 C 191.9 1.47558 -1.45744 0
M  V30 1947 C 192.325 1.87977 -0.0680981 0
M  V30 1948 O 191.683 1.55522 0.9318 0
M  V30 1949 C 191.731 2.70575 -2.38373 0
M  V30 1950 O 190.835 3.68573 -1.85007 0
M  V30 1951 H 190.176 0.443585 -0.494093 0
M  V30 1952 H 192.706 0.837238 -1.86686 0
M  V30 1953 H 192.716 3.18729 -2.54707 0
M  V30 1954 H 191.391 2.40495 -3.39315 0
M  V30 1955 H 189.968 3.2757 -1.78192 0
M  V30 1956 N 192.153 1.28127 0.917671 0
M  V30 1957 C 193.564 1.13622 1.48145 0
M  V30 1958 C 193.915 -0.275207 1.9426 0
M  V30 1959 O 193.04 -1.1691 1.82102 0
M  V30 1960 C 193.635 2.05648 2.69248 0
M  V30 1961 C 192.194 1.95219 3.21818 0
M  V30 1962 C 191.341 1.97618 1.94532 0
M  V30 1963 H 194.292 1.40874 0.730772 0
M  V30 1964 H 194.313 1.61818 3.44377 0
M  V30 1965 H 193.825 3.08365 2.35653 0
M  V30 1966 H 191.926 0.955244 3.60147 0
M  V30 1967 H 192.039 2.81976 3.87333 0
M  V30 1968 H 190.403 1.41973 2.11461 0
M  V30 1969 H 191.186 3.02007 1.63238 0
M  V30 1970 N 193.631 -1.12557 1.10312 0
M  V30 1971 C 194.871 -1.8568 0.854543 0
M  V30 1972 C 195.235 -1.82091 -0.608843 0
M  V30 1973 O 196.436 -2.50544 -0.973717 0
M  V30 1974 C 194.707 -3.2942 1.38626 0
M  V30 1975 S 196.266 -4.19931 1.27293 0
M  V30 1976 H 193.084 -0.640427 0.308827 0
M  V30 1977 H 195.686 -1.35599 1.40831 0
M  V30 1978 H 194.39 -3.2959 2.44537 0
M  V30 1979 H 193.921 -3.84566 0.82902 0
M  V30 1980 H 195.936 -4.95668 0.229776 0
M  V30 1981 N 195.109 -0.891671 -1.2995 0
M  V30 1982 C 196.52 -0.563104 -1.78006 0
M  V30 1983 C 196.871 0.920978 -1.73241 0
M  V30 1984 O 195.996 1.71987 -1.31337 0
M  V30 1985 C 196.591 -1.01539 -3.23226 0
M  V30 1986 C 195.15 -0.738124 -3.69092 0
M  V30 1987 C 194.297 -1.19461 -2.50249 0
M  V30 1988 H 197.248 -1.07522 -1.16725 0
M  V30 1989 H 197.269 -0.347217 -3.78912 0
M  V30 1990 H 196.781 -2.09555 -3.26662 0
M  V30 1991 H 194.882 0.329766 -3.71138 0
M  V30 1992 H 194.995 -1.33037 -4.60259 0
M  V30 1993 H 193.359 -0.613787 -2.47194 0
M  V30 1994 H 194.142 -2.28265 -2.56417 0
M  V30 1995 N 196.587 1.43421 -0.653314 0
M  V30 1996 C 197.864 1.95361 -0.0966581 0
M  V30 1997 C 198.244 1.59461 1.38331 0
M  V30 1998 O 197.592 0.879777 2.10884 0
M  V30 1999 C 197.802 3.47311 -0.342988 0
M  V30 2000 C 199.15 4.23875 -0.24798 0
M  V30 2001 O 200.174 3.55133 -0.275553 0
M  V30 2002 O 199.033 5.4623 -0.171771 0
M  V30 2003 H 196.127 0.826945 0.00956291 0
M  V30 2004 H 198.673 1.5336 -0.726558 0
M  V30 2005 H 197.445 3.66569 -1.36906 0
M  V30 2006 H 197.068 3.9631 0.319975 0
M  V30 2007 N 198.065 0.39524 1.52563 0
M  V30 2008 C 199.305 -0.184744 2.03563 0
M  V30 2009 C 199.669 -1.43548 1.27507 0
M  V30 2010 O 200.87 -2.093 1.68662 0
M  V30 2011 C 199.141 -0.440294 3.54678 0
M  V30 2012 S 200.7 -0.989712 4.27493 0
M  V30 2013 H 197.518 -0.0515075 0.709132 0
M  V30 2014 H 200.12 0.544957 1.87751 0
M  V30 2015 H 198.824 0.477005 4.07618 0
M  V30 2016 H 198.355 -1.19825 3.74707 0
M  V30 2017 H 200.37 -2.27155 4.41152 0
M  V30 2018 N 199.544 -1.57102 0.125237 0
M  V30 2019 C 200.507 -2.14471 -0.80838 0
M  V30 2020 C 201.507 -1.0811 -1.19033 0
M  V30 2021 O 202.697 -1.33856 -1.11482 0
M  V30 2022 C 199.829 -2.69005 -2.09402 0
M  V30 2023 H 201.022 -2.98297 -0.309696 0
M  V30 2024 H 198.575 -1.55807 -0.124051 0
M  V30 2025 H 199.31 -1.88785 -2.63687 0
M  V30 2026 H 199.095 -3.46799 -1.82957 0
M  V30 2027 H 200.585 -3.13278 -2.76128 0
M  V30 2028 N 201.022 0.148545 -1.56898 0
M  V30 2029 C 201.969 1.18345 -1.98149 0
M  V30 2030 C 202.939 1.42772 -0.848848 0
M  V30 2031 O 204.124 1.55132 -1.11079 0
M  V30 2032 C 201.264 2.51231 -2.36594 0
M  V30 2033 C 200.377 2.33991 -3.63142 0
M  V30 2034 C 199.512 3.59902 -3.90697 0
M  V30 2035 C 198.551 3.37692 -5.1052 0
M  V30 2036 N 197.688 4.5573 -5.34092 0
M  V30 2037 H 202.528 0.82467 -2.86362 0
M  V30 2038 H 200.065 0.395756 -1.41676 0
M  V30 2039 H 202.023 3.28713 -2.56912 0
M  V30 2040 H 200.653 2.85059 -1.51463 0
M  V30 2041 H 199.705 1.47572 -3.50609 0
M  V30 2042 H 201.017 2.13539 -4.5078 0
M  V30 2043 H 200.171 4.45813 -4.11505 0
M  V30 2044 H 198.91 3.83357 -3.01477 0
M  V30 2045 H 197.915 2.5017 -4.89587 0
M  V30 2046 H 199.14 3.15637 -6.0129 0
M  V30 2047 H 197.086 4.79361 -4.47827 0
M  V30 2048 H 197.003 4.38274 -6.15996 0
M  V30 2049 H 198.271 5.42858 -5.59397 0
M  V30 2050 N 202.5 1.5196 0.417844 0
M  V30 2051 C 203.463 1.74065 1.49111 0
M  V30 2052 C 204.463 0.610537 1.48758 0
M  V30 2053 O 205.653 0.87832 1.50437 0
M  V30 2054 C 202.785 1.81502 2.88565 0
M  V30 2055 H 203.978 2.69869 1.30807 0
M  V30 2056 H 201.531 1.42244 0.647785 0
M  V30 2057 H 202.266 0.875813 3.1225 0
M  V30 2058 H 202.051 2.63651 2.90225 0
M  V30 2059 H 203.541 2.00376 3.66387 0
M  V30 2060 N 203.978 -0.674533 1.42435 0
M  V30 2061 C 205.227 -1.43034 1.42212 0
M  V30 2062 C 205.54 -1.95555 0.0420788 0
M  V30 2063 O 206.746 -2.71374 -0.0827558 0
M  V30 2064 C 205.202 -2.58748 2.50155 0
M  V30 2065 C 204.81 -2.12925 3.94166 0
M  V30 2066 C 206.554 -3.36257 2.59098 0
M  V30 2067 C 204.461 -3.25723 4.93618 0
M  V30 2068 H 203.391 -0.537345 0.528939 0
M  V30 2069 H 206.042 -0.73024 1.68344 0
M  V30 2070 H 204.424 -3.31128 2.17188 0
M  V30 2071 H 205.598 -1.47697 4.36488 0
M  V30 2072 H 203.913 -1.48354 3.89076 0
M  V30 2073 H 206.51 -4.20264 3.30578 0
M  V30 2074 H 206.853 -3.82866 1.63461 0
M  V30 2075 H 207.386 -2.70947 2.9126 0
M  V30 2076 H 204.125 -2.84105 5.90732 0
M  V30 2077 H 203.645 -3.89732 4.55926 0
M  V30 2078 H 205.324 -3.91186 5.15347 0
M  V30 2079 N 205.456 -1.28612 -0.910864 0
M  V30 2080 C 206.419 -1.12803 -1.9952 0
M  V30 2081 C 207.419 -0.0668264 -1.60661 0
M  V30 2082 O 208.609 -0.312847 -1.71368 0
M  V30 2083 C 205.741 -0.72254 -3.33155 0
M  V30 2084 H 206.934 -2.09109 -2.14973 0
M  V30 2085 H 204.487 -1.11639 -1.09391 0
M  V30 2086 H 205.222 0.241152 -3.23402 0
M  V30 2087 H 205.007 -1.48916 -3.62721 0
M  V30 2088 H 206.497 -0.634666 -4.12749 0
M  V30 2089 N 206.934 1.1197 -1.10907 0
M  V30 2090 C 207.866 2.17592 -0.720175 0
M  V30 2091 C 208.879 1.60938 0.245495 0
M  V30 2092 O 210.068 1.78476 0.0292245 0
M  V30 2093 C 207.168 3.38873 -0.0427917 0
M  V30 2094 C 206.341 4.25006 -1.03388 0
M  V30 2095 C 205.4 5.24774 -0.387075 0
M  V30 2096 O 204.426 5.59631 -1.03934 0
M  V30 2097 N 205.628 5.74208 0.852407 0
M  V30 2098 H 208.393 2.51567 -1.62893 0
M  V30 2099 H 205.954 1.27439 -0.998543 0
M  V30 2100 H 207.946 4.02703 0.401501 0
M  V30 2101 H 206.516 3.03007 0.768456 0
M  V30 2102 H 205.736 3.57716 -1.65629 0
M  V30 2103 H 207.024 4.79397 -1.70458 0
M  V30 2104 H 206.422 5.48062 1.40161 0
M  V30 2105 H 204.979 6.39901 1.23977 0
M  V30 2106 N 208.412 0.89855 1.29475 0
M  V30 2107 C 209.637 0.538561 2.00285 0
M  V30 2108 C 210.062 -0.869135 1.66816 0
M  V30 2109 O 209.42 -1.57831 0.892145 0
M  V30 2110 C 209.468 0.736475 3.52999 0
M  V30 2111 O 208.572 -0.211537 4.11857 0
M  V30 2112 H 207.913 0.210563 0.62973 0
M  V30 2113 H 210.443 1.20982 1.64998 0
M  V30 2114 H 210.453 0.640685 4.02938 0
M  V30 2115 H 209.128 1.76276 3.76696 0
M  V30 2116 H 207.705 -0.0682991 3.72837 0
M  V30 2117 N 209.89 -1.43072 0.660911 0
M  V30 2118 C 211.138 -2.01323 0.177094 0
M  V30 2119 C 211.459 -1.5245 -1.2159 0
M  V30 2120 O 210.729 -0.740322 -1.81373 0
M  V30 2121 H 209.309 -0.744382 0.0624804 0
M  V30 2122 H 211.971 -1.75179 0.854305 0
M  V30 2123 H 211.067 -3.11649 0.167641 0
M  V30 2124 N 211.368 -0.403325 -1.52352 0
M  V30 2125 C 212.617 0.175668 -2.00934 0
M  V30 2126 C 212.93 1.46718 -1.29356 0
M  V30 2127 O 214.136 2.12708 -1.68724 0
M  V30 2128 C 212.592 0.363612 -3.58058 0
M  V30 2129 C 212.2 -0.915472 -4.38547 0
M  V30 2130 C 213.944 0.89821 -4.14888 0
M  V30 2131 C 211.851 -0.695035 -5.87302 0
M  V30 2132 H 210.781 0.0694234 -0.750797 0
M  V30 2133 H 213.432 -0.527879 -1.75743 0
M  V30 2134 H 211.814 1.12935 -3.79555 0
M  V30 2135 H 212.988 -1.68691 -4.28812 0
M  V30 2136 H 211.303 -1.37606 -3.93006 0
M  V30 2137 H 213.9 1.07907 -5.23699 0
M  V30 2138 H 214.243 1.87126 -3.71873 0
M  V30 2139 H 214.776 0.191681 -3.97338 0
M  V30 2140 H 211.515 -1.63948 -6.34666 0
M  V30 2141 H 211.035 0.0372116 -5.99788 0
M  V30 2142 H 212.714 -0.33497 -6.46132 0
M  V30 2143 N 212.846 1.57033 -0.133567 0
M  V30 2144 C 213.793 2.16074 0.811208 0
M  V30 2145 C 214.763 1.08979 1.2535 0
M  V30 2146 O 215.948 1.36958 1.32843 0
M  V30 2147 C 213.088 2.77595 2.05024 0
M  V30 2148 C 212.201 3.99042 1.65498 0
M  V30 2149 C 211.336 4.48603 2.84479 0
M  V30 2150 C 210.375 5.62547 2.41262 0
M  V30 2151 N 209.512 6.06787 3.53206 0
M  V30 2152 H 214.352 2.96477 0.300906 0
M  V30 2153 H 211.889 1.46462 0.136822 0
M  V30 2154 H 213.847 3.11402 2.77642 0
M  V30 2155 H 212.477 1.99859 2.53488 0
M  V30 2156 H 211.529 3.71302 0.826981 0
M  V30 2157 H 212.841 4.81629 1.29748 0
M  V30 2158 H 211.995 4.84395 3.65303 0
M  V30 2159 H 210.734 3.64995 3.23465 0
M  V30 2160 H 209.739 5.26345 1.58874 0
M  V30 2161 H 210.964 6.47931 2.03377 0
M  V30 2162 H 208.91 5.26117 3.91838 0
M  V30 2163 H 208.827 6.84266 3.21427 0
M  V30 2164 H 210.095 6.4722 4.34427 0
M  V30 2165 N 214.325 -0.140222 1.56975 0
M  V30 2166 C 215.272 -1.17292 1.98774 0
M  V30 2167 C 216.242 -1.4232 0.856408 0
M  V30 2168 O 217.427 -1.54541 1.119 0
M  V30 2169 C 214.567 -2.49973 2.37923 0
M  V30 2170 C 213.68 -2.32062 3.64378 0
M  V30 2171 C 212.815 -3.57825 3.926 0
M  V30 2172 C 211.854 -3.3498 5.12303 0
M  V30 2173 N 210.991 -4.52891 5.36502 0
M  V30 2174 H 215.831 -0.809472 2.86795 0
M  V30 2175 H 213.368 -0.388237 1.41884 0
M  V30 2176 H 215.326 -3.27346 2.58652 0
M  V30 2177 H 213.956 -2.84252 1.52972 0
M  V30 2178 H 213.008 -1.45711 3.51387 0
M  V30 2179 H 214.32 -2.11145 4.51906 0
M  V30 2180 H 213.474 -4.43624 4.13863 0
M  V30 2181 H 212.213 -3.81753 3.03506 0
M  V30 2182 H 211.218 -2.4757 4.90906 0
M  V30 2183 H 212.443 -3.12444 6.02956 0
M  V30 2184 H 210.389 -4.76979 4.50363 0
M  V30 2185 H 210.306 -4.35001 6.18312 0
M  V30 2186 H 211.574 -5.39884 5.62268 0
M  V30 2187 N 215.803 -1.52179 -0.40978 0
M  V30 2188 C 216.733 -1.78435 -1.5061 0
M  V30 2189 C 217.714 -0.635295 -1.57791 0
M  V30 2190 O 218.899 -0.880823 -1.73076 0
M  V30 2191 C 216.029 -1.93444 -2.88439 0
M  V30 2192 C 214.983 -3.09038 -2.96108 0
M  V30 2193 C 214.309 -3.09268 -4.36185 0
M  V30 2194 C 215.609 -4.48508 -2.67652 0
M  V30 2195 H 217.303 -2.70237 -1.28889 0
M  V30 2196 H 214.849 -1.30036 -0.618605 0
M  V30 2197 H 216.802 -2.10394 -3.65119 0
M  V30 2198 H 215.526 -0.983129 -3.11452 0
M  V30 2199 H 214.185 -2.91837 -2.21872 0
M  V30 2200 H 213.833 -2.11861 -4.56206 0
M  V30 2201 H 213.533 -3.86907 -4.42241 0
M  V30 2202 H 215.057 -3.28348 -5.14801 0
M  V30 2203 H 216.471 -4.65918 -3.34056 0
M  V30 2204 H 214.868 -5.28059 -2.85085 0
M  V30 2205 H 215.938 -4.56649 -1.63095 0
M  V30 2206 N 217.281 0.66697 -1.42791 0
M  V30 2207 C 218.527 1.4291 -1.43891 0
M  V30 2208 C 218.86 1.94114 -0.0578972 0
M  V30 2209 O 218.135 1.71414 0.91911 0
M  V30 2210 C 218.418 2.62049 -2.46987 0
M  V30 2211 C 218.271 2.16426 -3.94309 0
M  V30 2212 C 219.59 3.64266 -2.46978 0
M  V30 2213 H 216.709 0.518306 -0.523954 0
M  V30 2214 H 219.351 0.757321 -1.74255 0
M  V30 2215 H 217.501 3.19361 -2.21225 0
M  V30 2216 H 219.173 1.64221 -4.31079 0
M  V30 2217 H 217.416 1.47925 -4.078 0
M  V30 2218 H 218.087 3.02038 -4.62036 0
M  V30 2219 H 220.563 3.16686 -2.69906 0
M  V30 2220 H 219.439 4.45196 -3.21079 0
M  V30 2221 H 219.7 4.15927 -1.49857 0
M  V30 2222 N 218.759 1.29093 0.90403 0
M  V30 2223 C 219.989 1.19516 1.68522 0
M  V30 2224 C 220.397 -0.24738 1.87576 0
M  V30 2225 O 219.74 -1.17798 1.40959 0
M  V30 2226 C 219.802 1.83249 3.0929 0
M  V30 2227 C 219.466 3.32531 3.13484 0
M  V30 2228 C 220.463 4.28821 2.93953 0
M  V30 2229 C 218.148 3.73656 3.35688 0
M  V30 2230 C 220.142 5.64212 2.96553 0
M  V30 2231 C 217.829 5.0917 3.37919 0
M  V30 2232 C 218.827 6.04258 3.18373 0
M  V30 2233 O 218.515 7.37298 3.20385 0
M  V30 2234 H 218.247 0.415467 0.533257 0
M  V30 2235 H 220.801 1.70912 1.13922 0
M  V30 2236 H 219.031 1.26358 3.65473 0
M  V30 2237 H 220.72 1.68054 3.69476 0
M  V30 2238 H 221.486 3.98382 2.76616 0
M  V30 2239 H 217.365 3.00101 3.49943 0
M  V30 2240 H 220.909 6.38407 2.81216 0
M  V30 2241 H 216.806 5.39256 3.54787 0
M  V30 2242 H 217.574 7.46048 3.36681 0
M  V30 2243 N 220.237 -1.11381 1.11499 0
M  V30 2244 C 221.477 -1.84763 0.874188 0
M  V30 2245 C 221.841 -1.82726 -0.589496 0
M  V30 2246 O 223.042 -2.51562 -0.947089 0
M  V30 2247 C 221.313 -3.27931 1.42112 0
M  V30 2248 S 222.872 -4.18557 1.31739 0
M  V30 2249 H 219.69 -0.637115 0.315603 0
M  V30 2250 H 222.292 -1.34097 1.42261 0
M  V30 2251 H 220.996 -3.26978 2.48019 0
M  V30 2252 H 220.527 -3.83665 0.869761 0
M  V30 2253 H 222.542 -4.95396 0.282335 0
M  V30 2254 N 221.715 -0.905404 -1.28997 0
M  V30 2255 C 222.625 -0.392246 -2.31298 0
M  V30 2256 C 223.641 0.515889 -1.66176 0
M  V30 2257 O 224.817 0.404093 -1.97304 0
M  V30 2258 C 221.882 0.36686 -3.44754 0
M  V30 2259 C 220.943 -0.573485 -4.25452 0
M  V30 2260 C 220.176 0.149488 -5.33491 0
M  V30 2261 O 220.399 1.37255 -5.5364 0
M  V30 2262 O 219.333 -0.510919 -5.99728 0
M  V30 2263 H 223.159 -1.2411 -2.77183 0
M  V30 2264 H 220.744 -0.669926 -1.33538 0
M  V30 2265 H 222.626 0.795907 -4.13816 0
M  V30 2266 H 221.301 1.19169 -3.00966 0
M  V30 2267 H 220.208 -1.05176 -3.59011 0
M  V30 2268 H 221.541 -1.36489 -4.72897 0
M  V30 2269 N 223.193 1.4272 -0.668489 0
M  V30 2270 C 224.421 2.05966 -0.196348 0
M  V30 2271 C 224.836 1.50191 1.14403 0
M  V30 2272 O 224.193 0.639208 1.7094 0
M  V30 2273 C 224.244 3.61314 -0.115815 0
M  V30 2274 O 223.965 4.1502 -1.40322 0
M  V30 2275 C 225.466 4.41663 0.380579 0
M  V30 2276 H 222.686 0.663954 -0.0969829 0
M  V30 2277 H 225.23 1.82966 -0.913446 0
M  V30 2278 H 223.385 3.83448 0.551931 0
M  V30 2279 H 223.799 5.08832 -1.27243 0
M  V30 2280 H 225.273 5.5065 0.385848 0
M  V30 2281 H 225.75 4.15792 1.41471 0
M  V30 2282 H 226.356 4.24534 -0.255209 0
M  V30 2283 N 224.671 0.411399 1.52136 0
M  V30 2284 C 225.901 -0.16284 2.05957 0
M  V30 2285 C 226.309 -1.3922 1.28119 0
M  V30 2286 O 225.652 -1.80768 0.326881 0
M  V30 2287 C 225.714 -0.575946 3.54856 0
M  V30 2288 C 225.378 0.542998 4.53763 0
M  V30 2289 C 226.375 1.40726 5.00492 0
M  V30 2290 C 224.06 0.716337 4.97166 0
M  V30 2291 C 226.054 2.4298 5.8927 0
M  V30 2292 C 223.741 1.74218 5.8574 0
M  V30 2293 C 224.739 2.59731 6.31687 0
M  V30 2294 O 224.427 3.60558 7.18507 0
M  V30 2295 H 224.159 -0.0229125 0.675612 0
M  V30 2296 H 226.713 0.581634 1.96993 0
M  V30 2297 H 224.943 -1.37274 3.61515 0
M  V30 2298 H 226.632 -1.07836 3.91313 0
M  V30 2299 H 227.398 1.28476 4.67674 0
M  V30 2300 H 223.277 0.0603857 4.6096 0
M  V30 2301 H 226.821 3.0976 6.25055 0
M  V30 2302 H 222.718 1.86498 6.17971 0
M  V30 2303 H 223.486 3.56829 7.36624 0
M  V30 2304 N 226.149 -1.5696 0.141893 0
M  V30 2305 C 227.426 -1.87553 -0.555281 0
M  V30 2306 C 227.806 -1.04699 -1.83306 0
M  V30 2307 O 227.154 -0.132346 -2.28116 0
M  V30 2308 C 227.364 -3.39093 -0.825664 0
M  V30 2309 C 228.712 -4.08199 -1.16869 0
M  V30 2310 O 229.736 -3.44242 -0.915185 0
M  V30 2311 O 228.595 -5.21139 -1.6455 0
M  V30 2312 H 225.689 -0.777188 -0.282679 0
M  V30 2313 H 228.235 -1.68763 0.17812 0
M  V30 2314 H 227.007 -3.91221 0.0788633 0
M  V30 2315 H 226.63 -3.63393 -1.61343 0
M  V30 2316 N 227.627 0.131896 -1.57047 0
M  V30 2317 C 228.574 1.16236 -1.99393 0
M  V30 2318 C 229.544 1.41863 -0.863943 0
M  V30 2319 O 230.729 1.53946 -1.12718 0
M  V30 2320 C 227.869 2.48708 -2.39245 0
M  V30 2321 C 226.982 2.30127 -3.65603 0
M  V30 2322 C 226.117 3.55738 -3.94492 0
M  V30 2323 C 225.156 3.32259 -5.14073 0
M  V30 2324 N 224.293 4.50039 -5.38896 0
M  V30 2325 H 229.133 0.794251 -2.87221 0
M  V30 2326 H 226.67 0.380707 -1.42088 0
M  V30 2327 H 228.628 3.25969 -2.60384 0
M  V30 2328 H 227.258 2.83437 -1.54478 0
M  V30 2329 H 226.31 1.43845 -3.52154 0
M  V30 2330 H 227.622 2.08746 -4.5302 0
M  V30 2331 H 226.776 4.41423 -4.1621 0
M  V30 2332 H 225.515 3.80138 -3.05526 0
M  V30 2333 H 224.52 2.44963 -4.92212 0
M  V30 2334 H 225.745 3.09242 -6.04604 0
M  V30 2335 H 223.691 4.74584 -4.52886 0
M  V30 2336 H 223.608 4.31716 -6.2061 0
M  V30 2337 H 224.876 5.36895 -5.65123 0
M  V30 2338 N 229.106 1.52395 0.401703 0
M  V30 2339 C 230.054 1.7689 1.51039 0
M  V30 2340 C 231.048 0.636298 1.56996 0
M  V30 2341 O 232.254 0.818507 1.60314 0
M  V30 2342 H 228.629 0.559502 0.502456 0
M  V30 2343 H 230.6 2.69757 1.27568 0
M  V30 2344 C 229.349 1.94331 2.88324 0
M  V30 2345 H 228.672 2.80905 2.84486 0
M  V30 2346 H 230.112 2.15466 3.65172 0
M  V30 2347 C 228.571 0.712396 3.29282 0
M  V30 2348 O 229.101 -0.116218 4.01532 0
M  V30 2349 N 227.307 0.546154 2.85422 0
M  V30 2350 H 226.854 1.22156 2.26794 0
M  V30 2351 H 226.812 -0.276113 3.13185 0
M  V30 2352 N 230.584 -0.659388 1.43143 0
M  V30 2353 C 231.531 -1.77249 1.47822 0
M  V30 2354 C 232.501 -1.62818 0.328558 0
M  V30 2355 O 233.686 -1.83151 0.534838 0
M  V30 2356 C 230.826 -3.15371 1.40126 0
M  V30 2357 C 229.939 -3.4098 2.65249 0
M  V30 2358 C 229.074 -4.68915 2.49584 0
M  V30 2359 C 228.113 -4.87608 3.70006 0
M  V30 2360 N 227.25 -6.06796 3.53189 0
M  V30 2361 H 232.09 -1.72584 2.42938 0
M  V30 2362 H 229.627 -0.842297 1.20598 0
M  V30 2363 H 231.585 -3.9521 1.33659 0
M  V30 2364 H 230.215 -3.19121 0.485964 0
M  V30 2365 H 229.267 -2.55282 2.8202 0
M  V30 2366 H 230.579 -3.50681 3.54717 0
M  V30 2367 H 229.733 -5.56871 2.4079 0
M  V30 2368 H 228.472 -4.61524 1.5763 0
M  V30 2369 H 227.477 -3.9809 3.79215 0
M  V30 2370 H 228.702 -4.96834 4.62961 0
M  V30 2371 H 226.648 -6.00549 2.63965 0
M  V30 2372 H 226.565 -6.17428 4.36255 0
M  V30 2373 H 227.833 -6.9739 3.48236 0
M  V30 2374 N 232.062 -1.29571 -0.897171 0
M  V30 2375 C 233.473 -1.15964 -1.46319 0
M  V30 2376 C 233.824 0.244267 -1.94674 0
M  V30 2377 O 232.949 1.13998 -1.83939 0
M  V30 2378 C 233.544 -2.09906 -2.65942 0
M  V30 2379 C 232.103 -2.00314 -3.18671 0
M  V30 2380 C 231.25 -2.00687 -1.91363 0
M  V30 2381 H 234.201 -1.42019 -0.708268 0
M  V30 2382 H 234.222 -1.67276 -3.41759 0
M  V30 2383 H 233.734 -3.12075 -2.30718 0
M  V30 2384 H 231.835 -1.01242 -3.58582 0
M  V30 2385 H 231.948 -2.88102 -3.82798 0
M  V30 2386 H 230.312 -1.45319 -2.09175 0
M  V30 2387 H 231.095 -3.04566 -1.58413 0
M  V30 2388 N 233.54 1.10788 -1.12088 0
M  V30 2389 C 234.788 1.8231 -0.872205 0
M  V30 2390 C 235.109 1.85419 0.603709 0
M  V30 2391 O 234.379 1.32963 1.43867 0
M  V30 2392 H 232.959 0.675137 -0.319686 0
M  V30 2393 H 235.621 1.34068 -1.41463 0
M  V30 2394 H 234.717 2.85955 -1.25045 0
M  V30 2395 N 235.018 0.912232 1.28515 0
M  V30 2396 C 236.264 0.554851 1.95686 0
M  V30 2397 C 236.619 -0.89138 1.70506 0
M  V30 2398 O 235.912 -1.62529 1.01464 0
M  V30 2399 C 236.106 0.798392 3.48368 0
M  V30 2400 C 235.935 2.26674 3.88393 0
M  V30 2401 C 234.705 2.91657 4.12631 0
M  V30 2402 C 236.903 3.24303 3.99164 0
M  V30 2403 N 234.885 4.28805 4.39317 0
M  V30 2404 C 236.256 4.4661 4.30046 0
M  V30 2405 C 238.311 3.19723 3.81683 0
M  V30 2406 C 237.014 5.64915 4.45268 0
M  V30 2407 C 239.04 4.37325 3.98121 0
M  V30 2408 C 238.402 5.58406 4.29375 0
M  V30 2409 H 234.501 0.252876 0.739985 0
M  V30 2410 H 237.085 1.17565 1.55199 0
M  V30 2411 H 235.256 0.20688 3.87849 0
M  V30 2412 H 236.988 0.405193 4.02666 0
M  V30 2413 H 233.743 2.42393 4.06869 0
M  V30 2414 H 234.167 4.99712 4.56746 0
M  V30 2415 H 238.809 2.27191 3.56573 0
M  V30 2416 H 236.527 6.57927 4.6921 0
M  V30 2417 H 240.113 4.35282 3.86033 0
M  V30 2418 H 238.993 6.47889 4.41825 0
M  V30 2419 N 236.496 -1.42363 0.676048 0
M  V30 2420 C 237.773 -1.95183 0.127726 0
M  V30 2421 C 238.153 -1.61641 -1.35777 0
M  V30 2422 O 237.501 -0.913216 -2.09458 0
M  V30 2423 C 237.711 -3.46721 0.398199 0
M  V30 2424 C 239.059 -4.23427 0.315383 0
M  V30 2425 O 240.083 -3.54649 0.332016 0
M  V30 2426 O 238.942 -5.45888 0.25865 0
M  V30 2427 H 236.036 -0.826992 0.00359427 0
M  V30 2428 H 238.582 -1.52184 0.750864 0
M  V30 2429 H 237.354 -3.64344 1.4272 0
M  V30 2430 H 236.977 -3.96769 -0.256885 0
M  V30 2431 N 237.974 -0.419461 -1.51915 0
M  V30 2432 C 239.251 0.211999 -1.94448 0
M  V30 2433 C 239.631 1.61703 -1.35703 0
M  V30 2434 O 238.979 2.22102 -0.536931 0
M  V30 2435 C 239.189 0.207872 -3.4838 0
M  V30 2436 C 240.537 0.422192 -4.22496 0
M  V30 2437 O 241.561 0.286778 -3.55044 0
M  V30 2438 O 240.42 0.690009 -5.42126 0
M  V30 2439 H 237.514 0.139586 -0.815135 0
M  V30 2440 H 240.06 -0.476151 -1.62883 0
M  V30 2441 H 238.832 -0.775102 -3.83546 0
M  V30 2442 H 238.455 0.939688 -3.86336 0
M  V30 2443 N 239.452 1.56882 -0.150215 0
M  V30 2444 C 240.701 1.95403 0.500071 0
M  V30 2445 C 241.014 1.03777 1.658 0
M  V30 2446 O 242.22 1.31889 2.37313 0
M  V30 2447 C 240.676 3.4738 0.941018 0
M  V30 2448 C 240.284 4.47596 -0.190158 0
M  V30 2449 C 242.028 3.9476 1.56091 0
M  V30 2450 C 239.935 5.90787 0.269237 0
M  V30 2451 H 238.865 0.729515 0.190588 0
M  V30 2452 H 241.516 1.81988 -0.235074 0
M  V30 2453 H 239.898 3.56138 1.73152 0
M  V30 2454 H 241.072 4.50536 -0.967157 0
M  V30 2455 H 239.387 4.10151 -0.718666 0
M  V30 2456 H 241.984 4.99181 1.9163 0
M  V30 2457 H 242.327 3.36494 2.45107 0
M  V30 2458 H 242.86 3.88932 0.835249 0
M  V30 2459 H 239.599 6.52879 -0.585621 0
M  V30 2460 H 239.119 5.912 1.01204 0
M  V30 2461 H 240.798 6.42979 0.720176 0
M  V30 2462 N 240.93 -0.123565 1.57115 0
M  V30 2463 C 241.86 -1.15309 2.03042 0
M  V30 2464 C 242.841 -1.43454 0.914061 0
M  V30 2465 O 244.026 -1.53973 1.18347 0
M  V30 2466 C 241.156 -2.48043 2.43089 0
M  V30 2467 C 240.11 -2.3437 3.58127 0
M  V30 2468 C 239.436 -3.72026 3.84059 0
M  V30 2469 C 240.736 -1.80804 4.90007 0
M  V30 2470 H 242.43 -0.771102 2.893 0
M  V30 2471 H 239.976 -0.369479 1.39179 0
M  V30 2472 H 241.929 -3.20311 2.73823 0
M  V30 2473 H 240.653 -2.88122 1.53796 0
M  V30 2474 H 239.312 -1.64551 3.27595 0
M  V30 2475 H 238.96 -4.09582 2.91979 0
M  V30 2476 H 238.66 -3.63732 4.6149 0
M  V30 2477 H 240.184 -4.45806 4.1724 0
M  V30 2478 H 241.598 -2.42886 5.19307 0
M  V30 2479 H 239.995 -1.83343 5.71407 0
M  V30 2480 H 241.065 -0.76528 4.78823 0
M  V30 2481 N 242.408 -1.52605 -0.393616 0
M  V30 2482 C 243.824 -1.41753 -0.733357 0
M  V30 2483 C 244.024 -0.534293 -1.94287 0
M  V30 2484 O 243.08 -0.0059787 -2.52499 0
M  V30 2485 C 244.393 -2.84531 -0.972772 0
M  V30 2486 C 245.941 -2.93978 -1.07453 0
M  V30 2487 C 246.416 -4.37756 -1.3466 0
M  V30 2488 N 247.907 -4.4106 -1.41492 0
M  V30 2489 C 248.642 -5.49387 -1.642 0
M  V30 2490 N 248.138 -6.67806 -1.8441 0
M  V30 2491 N 249.931 -5.36923 -1.66342 0
M  V30 2492 H 242.082 -2.08555 0.402328 0
M  V30 2493 H 244.345 -0.940654 0.117789 0
M  V30 2494 H 244.051 -3.51353 -0.156204 0
M  V30 2495 H 243.925 -3.26508 -1.88871 0
M  V30 2496 H 246.312 -2.27326 -1.88167 0
M  V30 2497 H 246.393 -2.55435 -0.136605 0
M  V30 2498 H 246.037 -5.04972 -0.544581 0
M  V30 2499 H 245.967 -4.73848 -2.2973 0
M  V30 2500 H 248.458 -3.55705 -1.27601 0
M  V30 2501 H 248.771 -7.46141 -2.01231 0
M  V30 2502 H 247.116 -6.70843 -1.81644 0
M  V30 2503 H 250.307 -4.43381 -1.50102 0
M  V30 2504 H 250.48 -6.21416 -1.837 0
M  V30 2505 N 243.887 0.651787 -1.4349 0
M  V30 2506 C 244.835 1.78586 -1.49029 0
M  V30 2507 C 245.829 1.65448 -0.363767 0
M  V30 2508 O 247.035 1.71777 -0.537821 0
M  V30 2509 H 243.41 0.589236 -0.467231 0
M  V30 2510 H 245.381 1.71035 -2.44519 0
M  V30 2511 C 244.13 3.16851 -1.43181 0
M  V30 2512 H 243.453 3.27598 -2.29171 0
M  V30 2513 H 244.893 3.96156 -1.51118 0
M  V30 2514 C 243.352 3.36568 -0.149616 0
M  V30 2515 O 243.882 3.93885 0.788509 0
M  V30 2516 N 242.088 2.90539 -0.0593484 0
M  V30 2517 H 241.635 2.4408 -0.823575 0
M  V30 2518 H 241.593 3.04108 0.797853 0
M  V30 2519 N 245.365 1.30045 0.890287 0
M  V30 2520 C 246.328 1.15963 1.977 0
M  V30 2521 C 247.328 0.0923777 1.60534 0
M  V30 2522 O 248.518 0.340071 1.70848 0
M  V30 2523 C 245.65 0.775451 3.31963 0
M  V30 2524 H 246.843 2.12502 2.11619 0
M  V30 2525 H 244.396 1.13366 1.07601 0
M  V30 2526 H 245.131 -0.189671 3.23745 0
M  V30 2527 H 244.916 1.54668 3.60306 0
M  V30 2528 H 246.406 0.700251 4.11687 0
M  V30 2529 N 246.843 -1.10192 1.12674 0
M  V30 2530 C 248.091 -1.81845 0.881861 0
M  V30 2531 C 248.412 -1.85737 -0.593867 0
M  V30 2532 O 247.682 -1.33724 -1.4316 0
M  V30 2533 H 246.262 -0.673432 0.323261 0
M  V30 2534 H 248.924 -1.33316 1.42172 0
M  V30 2535 H 248.02 -2.85288 1.2656 0
M  V30 2536 N 248.321 -0.919034 -1.28029 0
M  V30 2537 C 249.57 -0.550802 -1.94034 0
M  V30 2538 C 249.883 0.910877 -1.73096 0
M  V30 2539 O 251.089 1.3875 -2.33368 0
M  V30 2540 C 249.545 -0.934249 -3.47563 0
M  V30 2541 C 249.153 -2.41602 -3.7727 0
M  V30 2542 C 250.897 -0.636854 -4.19696 0
M  V30 2543 C 248.804 -2.73932 -5.24133 0
M  V30 2544 H 247.734 -0.202273 -0.726362 0
M  V30 2545 H 250.385 -1.11867 -1.45458 0
M  V30 2546 H 248.767 -0.295115 -3.94899 0
M  V30 2547 H 249.941 -3.10233 -3.40723 0
M  V30 2548 H 248.256 -2.68441 -3.18321 0
M  V30 2549 H 250.853 -0.855005 -5.2782 0
M  V30 2550 H 251.196 0.425575 -4.14119 0
M  V30 2551 H 251.729 -1.23469 -3.78154 0
M  V30 2552 H 248.468 -3.79049 -5.34792 0
M  V30 2553 H 247.988 -2.09942 -5.61858 0
M  V30 2554 H 249.667 -2.61215 -5.91925 0
M  V30 2555 N 249.799 1.42003 -0.683588 0
M  V30 2556 C 250.709 2.34597 -0.0109075 0
M  V30 2557 C 251.725 1.55576 0.779245 0
M  V30 2558 O 252.901 1.88107 0.719555 0
M  V30 2559 C 249.966 3.34199 0.922588 0
M  V30 2560 C 249.027 4.29115 0.125984 0
M  V30 2561 C 248.26 5.23959 1.01502 0
M  V30 2562 O 248.483 5.23952 2.25456 0
M  V30 2563 O 247.417 6.00053 0.47111 0
M  V30 2564 H 251.243 2.93675 -0.773853 0
M  V30 2565 H 248.828 1.42654 -0.443861 0
M  V30 2566 H 250.71 3.95365 1.45823 0
M  V30 2567 H 249.385 2.77582 1.66523 0
M  V30 2568 H 248.292 3.71335 -0.453969 0
M  V30 2569 H 249.625 4.88798 -0.577736 0
M  V30 2570 N 251.277 0.427512 1.51691 0
M  V30 2571 C 252.523 -0.142439 2.02299 0
M  V30 2572 C 252.856 -1.43214 1.31162 0
M  V30 2573 O 252.131 -1.89833 0.423511 0
M  V30 2574 C 252.414 -0.371301 3.58181 0
M  V30 2575 C 252.267 0.936358 4.39946 0
M  V30 2576 C 253.586 -1.14542 4.24933 0
M  V30 2577 H 250.705 -0.0502937 0.735282 0
M  V30 2578 H 253.347 0.564584 1.81418 0
M  V30 2579 H 251.497 -0.973559 3.76104 0
M  V30 2580 H 253.169 1.57184 4.33694 0
M  V30 2581 H 251.412 1.5432 4.05423 0
M  V30 2582 H 252.083 0.730388 5.47147 0
M  V30 2583 H 254.559 -0.635362 4.11221 0
M  V30 2584 H 253.435 -1.27431 5.33903 0
M  V30 2585 H 253.696 -2.17093 3.85127 0
M  V30 2586 N 252.755 -1.56801 0.158532 0
M  V30 2587 C 254.002 -1.9649 -0.489679 0
M  V30 2588 C 254.33 -1.04394 -1.6411 0
M  V30 2589 O 253.585 -0.0754401 -1.95555 0
M  V30 2590 C 253.884 -3.4235 -1.02623 0
M  V30 2591 C 253.55 -4.50899 0.00794526 0
M  V30 2592 C 252.212 -4.80312 0.292207 0
M  V30 2593 C 254.564 -5.16333 0.710584 0
M  V30 2594 C 251.892 -5.72461 1.28472 0
M  V30 2595 C 254.244 -6.09553 1.69199 0
M  V30 2596 C 252.908 -6.37339 1.98383 0
M  V30 2597 H 252.178 -0.719009 -0.179186 0
M  V30 2598 H 254.825 -1.8989 0.247798 0
M  V30 2599 H 253.13 -3.45838 -1.84128 0
M  V30 2600 H 254.827 -3.70393 -1.53656 0
M  V30 2601 H 251.417 -4.28015 -0.22379 0
M  V30 2602 H 255.601 -4.93732 0.504174 0
M  V30 2603 H 250.857 -5.92278 1.51714 0
M  V30 2604 H 255.031 -6.59327 2.24189 0
M  V30 2605 H 252.658 -7.08546 2.7544 0
M  V30 2606 N 254.233 0.115231 -1.57178 0
M  V30 2607 C 255.181 1.16014 -2.01602 0
M  V30 2608 C 256.175 1.42653 -0.913587 0
M  V30 2609 O 257.381 1.42571 -1.09879 0
M  V30 2610 H 253.756 0.391252 -0.642204 0
M  V30 2611 H 255.727 0.758998 -2.88586 0
M  V30 2612 C 254.476 2.47767 -2.4394 0
M  V30 2613 H 253.799 2.28108 -3.28339 0
M  V30 2614 H 255.239 3.19432 -2.78818 0
M  V30 2615 C 253.698 3.10617 -1.30455 0
M  V30 2616 O 254.228 3.96846 -0.622585 0
M  V30 2617 N 252.434 2.70553 -1.06064 0
M  V30 2618 H 251.981 2.00527 -1.61699 0
M  V30 2619 H 251.939 3.12934 -0.303284 0
M  V30 2620 N 255.711 1.52812 0.385517 0
M  V30 2621 C 256.957 1.68275 1.13188 0
M  V30 2622 C 257.29 0.423179 1.89533 0
M  V30 2623 O 256.565 -0.579113 1.85679 0
M  V30 2624 C 256.848 2.92001 2.1073 0
M  V30 2625 C 256.701 4.28067 1.38125 0
M  V30 2626 C 258.02 3.11283 3.11113 0
M  V30 2627 H 255.139 0.612352 0.410115 0
M  V30 2628 H 257.781 1.85415 0.414869 0
M  V30 2629 H 255.931 2.77519 2.71874 0
M  V30 2630 H 257.603 4.54324 0.799187 0
M  V30 2631 H 255.846 4.28388 0.683092 0
M  V30 2632 H 256.517 5.10733 2.09417 0
M  V30 2633 H 258.993 3.2482 2.6006 0
M  V30 2634 H 257.869 3.99325 3.76605 0
M  V30 2635 H 258.13 2.25656 3.80173 0
M  V30 2636 N 257.189 -0.644168 1.43834 0
M  V30 2637 C 258.6 -1.22554 1.40845 0
M  V30 2638 C 258.951 -1.9585 0.117115 0
M  V30 2639 O 258.076 -2.01734 -0.783086 0
M  V30 2640 C 258.671 -2.22907 2.55143 0
M  V30 2641 C 257.23 -2.76501 2.5539 0
M  V30 2642 C 256.377 -1.51287 2.32396 0
M  V30 2643 H 259.328 -0.43563 1.52604 0
M  V30 2644 H 259.349 -3.05259 2.2715 0
M  V30 2645 H 258.861 -1.69533 3.49114 0
M  V30 2646 H 256.962 -3.33914 1.65324 0
M  V30 2647 H 257.075 -3.23429 3.53455 0
M  V30 2648 H 255.439 -1.78957 1.81236 0
M  V30 2649 H 256.222 -0.998336 3.28463 0
M  V30 2650 N 258.668 -1.30515 -0.883378 0
M  V30 2651 C 259.615 -1.17032 -1.98927 0
M  V30 2652 C 260.585 -0.0594241 -1.65994 0
M  V30 2653 O 261.77 -0.229895 -1.8941 0
M  V30 2654 C 258.91 -0.869777 -3.33959 0
M  V30 2655 C 258.023 -2.06271 -3.79574 0
M  V30 2656 C 257.158 -1.70011 -5.03259 0
M  V30 2657 C 256.197 -2.8579 -5.41286 0
M  V30 2658 N 255.334 -2.49816 -6.56153 0
M  V30 2659 H 260.174 -2.1164 -2.09792 0
M  V30 2660 H 257.711 -1.05296 -1.02719 0
M  V30 2661 H 259.669 -0.676138 -4.11685 0
M  V30 2662 H 258.299 0.0394332 -3.22776 0
M  V30 2663 H 257.351 -2.36755 -2.97744 0
M  V30 2664 H 258.663 -2.92971 -4.03694 0
M  V30 2665 H 257.817 -1.47032 -5.88614 0
M  V30 2666 H 256.556 -0.804829 -4.81013 0
M  V30 2667 H 255.561 -3.09434 -4.54456 0
M  V30 2668 H 256.786 -3.76008 -5.65504 0
M  V30 2669 H 254.732 -1.62795 -6.35479 0
M  V30 2670 H 254.649 -3.30048 -6.8015 0
M  V30 2671 H 255.917 -2.30197 -7.44735 0
M  V30 2672 N 260.146 1.09593 -1.13257 0
M  V30 2673 C 261.093 2.1618 -0.808381 0
M  V30 2674 C 262.063 1.64517 0.228754 0
M  V30 2675 O 263.248 1.9053 0.101381 0
M  V30 2676 C 260.388 3.43973 -0.278675 0
M  V30 2677 C 259.501 4.09545 -1.37466 0
M  V30 2678 C 258.636 5.25088 -0.803479 0
M  V30 2679 C 257.675 5.82579 -1.87799 0
M  V30 2680 N 256.812 6.89486 -1.32488 0
M  V30 2681 H 261.652 2.43254 -1.72138 0
M  V30 2682 H 259.189 1.19392 -0.859294 0
M  V30 2683 H 261.147 4.17174 0.0465583 0
M  V30 2684 H 259.777 3.17223 0.597459 0
M  V30 2685 H 258.829 3.34226 -1.81652 0
M  V30 2686 H 260.141 4.48307 -2.18684 0
M  V30 2687 H 259.295 6.05178 -0.429427 0
M  V30 2688 H 258.034 4.87684 0.0397956 0
M  V30 2689 H 257.039 5.01152 -2.26113 0
M  V30 2690 H 258.264 6.22045 -2.72463 0
M  V30 2691 H 256.21 6.54064 -0.503575 0
M  V30 2692 H 256.127 7.27007 -2.07355 0
M  V30 2693 H 257.395 7.73336 -0.978336 0
M  V30 2694 N 261.624 0.925811 1.2754 0
M  V30 2695 C 262.572 0.413897 2.28888 0
M  V30 2696 C 263.566 -0.500779 1.61829 0
M  V30 2697 O 264.772 -0.38069 1.75928 0
M  V30 2698 H 261.147 0.115274 0.743112 0
M  V30 2699 H 263.118 1.28151 2.69481 0
M  V30 2700 C 261.867 -0.319792 3.46226 0
M  V30 2701 H 261.19 0.374846 3.98039 0
M  V30 2702 H 262.63 -0.642435 4.19105 0
M  V30 2703 C 261.089 -1.53209 3.00048 0
M  V30 2704 O 261.619 -2.6309 3.03557 0
M  V30 2705 N 259.825 -1.38326 2.55566 0
M  V30 2706 H 259.372 -0.489292 2.5291 0
M  V30 2707 H 259.33 -2.19564 2.25031 0
M  V30 2708 N 263.102 -1.41638 0.69111 0
M  V30 2709 C 264.032 -2.3347 0.037248 0
M  V30 2710 C 265.013 -1.51575 -0.771947 0
M  V30 2711 O 266.198 -1.80126 -0.72582 0
M  V30 2712 C 263.328 -3.35354 -0.903064 0
M  V30 2713 C 262.282 -4.27526 -0.201288 0
M  V30 2714 C 261.608 -5.19747 -1.25565 0
M  V30 2715 C 262.908 -5.13959 0.929689 0
M  V30 2716 H 264.602 -2.88397 0.804227 0
M  V30 2717 H 262.148 -1.38669 0.388189 0
M  V30 2718 H 264.101 -3.98519 -1.36969 0
M  V30 2719 H 262.825 -2.78767 -1.70166 0
M  V30 2720 H 261.484 -3.65779 0.245265 0
M  V30 2721 H 261.132 -4.59479 -2.04666 0
M  V30 2722 H 260.832 -5.8225 -0.791128 0
M  V30 2723 H 262.356 -5.85789 -1.72288 0
M  V30 2724 H 263.77 -5.70718 0.543546 0
M  V30 2725 H 262.167 -5.85379 1.32103 0
M  V30 2726 H 263.237 -4.51389 1.77133 0
M  V30 2727 N 264.58 -0.43555 -1.51462 0
M  V30 2728 C 265.528 0.391205 -2.29287 0
M  V30 2729 C 266.522 1.02247 -1.35062 0
M  V30 2730 O 267.728 0.957646 -1.52411 0
M  V30 2731 H 264.103 0.144968 -0.737895 0
M  V30 2732 H 266.074 -0.286051 -2.97026 0
M  V30 2733 C 264.823 1.48096 -3.14583 0
M  V30 2734 H 264.146 1.00457 -3.86973 0
M  V30 2735 H 265.586 2.03273 -3.72097 0
M  V30 2736 C 264.045 2.46321 -2.29843 0
M  V30 2737 O 264.575 3.50815 -1.95682 0
M  V30 2738 N 262.781 2.17166 -1.931 0
M  V30 2739 H 262.328 1.32218 -2.21079 0
M  V30 2740 H 262.286 2.83127 -1.36698 0
M  V30 2741 N 266.058 1.56714 -0.166846 0
M  V30 2742 C 267.005 2.17746 0.765193 0
M  V30 2743 C 267.975 1.11614 1.23011 0
M  V30 2744 O 269.16 1.39745 1.29908 0
M  V30 2745 C 266.3 2.81882 1.9909 0
M  V30 2746 C 265.413 4.02462 1.56997 0
M  V30 2747 C 264.548 4.54537 2.749 0
M  V30 2748 C 263.587 5.67538 2.29275 0
M  V30 2749 N 262.724 6.14142 3.40255 0
M  V30 2750 H 267.564 2.97048 0.237952 0
M  V30 2751 H 265.101 1.4672 0.105725 0
M  V30 2752 H 267.059 3.17221 2.70974 0
M  V30 2753 H 265.689 2.05191 2.49192 0
M  V30 2754 H 264.741 3.72973 0.748037 0
M  V30 2755 H 266.053 4.84273 1.19503 0
M  V30 2756 H 265.207 4.92035 3.54946 0
M  V30 2757 H 263.946 3.71774 3.1565 0
M  V30 2758 H 262.951 5.29597 1.47674 0
M  V30 2759 H 264.176 6.52099 1.89588 0
M  V30 2760 H 262.122 5.3431 3.8059 0
M  V30 2761 H 262.039 6.9093 3.06841 0
M  V30 2762 H 263.307 6.56289 4.206 0
M  V30 2763 N 267.536 -0.106894 1.57237 0
M  V30 2764 C 268.466 -1.13148 2.04254 0
M  V30 2765 C 269.447 -1.42476 0.929224 0
M  V30 2766 O 270.632 -1.52709 1.19973 0
M  V30 2767 C 267.762 -2.4545 2.45706 0
M  V30 2768 C 266.716 -2.30558 3.60592 0
M  V30 2769 C 266.042 -3.67931 3.87983 0
M  V30 2770 C 267.342 -1.75597 4.91897 0
M  V30 2771 H 269.036 -0.740374 2.90101 0
M  V30 2772 H 266.582 -0.354696 1.39563 0
M  V30 2773 H 268.535 -3.17389 2.77205 0
M  V30 2774 H 267.259 -2.86475 1.56843 0
M  V30 2775 H 265.918 -1.61067 3.29322 0
M  V30 2776 H 265.566 -4.06462 2.96306 0
M  V30 2777 H 265.266 -3.58817 4.65322 0
M  V30 2778 H 266.79 -4.41356 4.21945 0
M  V30 2779 H 268.204 -2.37364 5.21854 0
M  V30 2780 H 266.601 -1.77272 5.73319 0
M  V30 2781 H 267.671 -0.714451 4.79608 0
M  V30 2782 N 269.014 -1.53014 -0.377408 0
M  V30 2783 C 269.962 -1.7927 -1.48206 0
M  V30 2784 C 270.956 -0.661195 -1.55963 0
M  V30 2785 O 272.162 -0.843908 -1.58991 0
M  V30 2786 H 268.537 -0.567425 -0.493491 0
M  V30 2787 H 270.508 -2.71753 -1.2326 0
M  V30 2788 C 269.257 -1.98894 -2.85196 0
M  V30 2789 H 268.58 -2.85395 -2.79981 0
M  V30 2790 H 270.02 -2.21249 -3.61698 0
M  V30 2791 C 268.479 -0.764691 -3.28107 0
M  V30 2792 O 269.009 0.0523226 -4.01666 0
M  V30 2793 N 267.215 -0.591493 -2.84517 0
M  V30 2794 H 266.762 -1.25749 -2.24822 0
M  V30 2795 H 266.72 0.226253 -3.13585 0
M  V30 2796 N 270.492 0.636531 -1.44174 0
M  V30 2797 C 271.738 1.39649 -1.47884 0
M  V30 2798 C 272.093 1.92098 -0.107747 0
M  V30 2799 O 271.386 1.70391 0.876208 0
M  V30 2800 C 271.58 2.58309 -2.47005 0
M  V30 2801 C 271.409 2.17476 -3.93617 0
M  V30 2802 C 270.179 2.0501 -4.61843 0
M  V30 2803 C 272.377 1.76722 -4.82984 0
M  V30 2804 N 270.359 1.57683 -5.93304 0
M  V30 2805 C 271.73 1.40601 -6.03847 0
M  V30 2806 C 273.785 1.64054 -4.70096 0
M  V30 2807 C 272.488 0.930787 -7.13252 0
M  V30 2808 C 274.514 1.17937 -5.79521 0
M  V30 2809 C 273.876 0.827625 -6.99521 0
M  V30 2810 H 269.975 0.506027 -0.596205 0
M  V30 2811 H 272.559 0.730791 -1.80465 0
M  V30 2812 H 270.73 3.22514 -2.16423 0
M  V30 2813 H 272.462 3.25083 -2.41045 0
M  V30 2814 H 269.217 2.25294 -4.16581 0
M  V30 2815 H 269.641 1.36334 -6.63131 0
M  V30 2816 H 274.283 1.89882 -3.77762 0
M  V30 2817 H 272.001 0.660012 -8.054 0
M  V30 2818 H 275.587 1.08601 -5.71574 0
M  V30 2819 H 274.467 0.476231 -7.82753 0
M  V30 2820 N 271.97 1.30982 0.876444 0
M  V30 2821 C 272.88 1.2003 2.01569 0
M  V30 2822 C 273.896 0.11838 1.73597 0
M  V30 2823 O 275.072 0.33495 1.98595 0
M  V30 2824 C 272.137 0.901637 3.34771 0
M  V30 2825 C 271.198 2.06979 3.76109 0
M  V30 2826 C 270.431 1.78529 5.02954 0
M  V30 2827 O 270.654 0.717296 5.65872 0
M  V30 2828 O 269.588 2.64019 5.40905 0
M  V30 2829 H 273.414 2.15753 2.13739 0
M  V30 2830 H 270.999 1.10658 1.00375 0
M  V30 2831 H 272.881 0.750645 4.1466 0
M  V30 2832 H 271.556 -0.0256141 3.2369 0
M  V30 2833 H 270.463 2.27616 2.96887 0
M  V30 2834 H 271.796 2.97907 3.91807 0
M  V30 2835 N 273.449 -1.08991 1.13837 0
M  V30 2836 C 274.397 -2.17841 0.815347 0
M  V30 2837 C 275.391 -1.68164 -0.204233 0
M  V30 2838 O 276.597 -1.79897 -0.0609304 0
M  V30 2839 H 272.972 -0.710654 0.245915 0
M  V30 2840 H 274.943 -2.42315 1.74143 0
M  V30 2841 C 273.692 -3.46381 0.302614 0
M  V30 2842 H 273.015 -3.84979 1.0785 0
M  V30 2843 H 274.455 -4.23844 0.115074 0
M  V30 2844 C 272.914 -3.22556 -0.972591 0
M  V30 2845 O 273.444 -3.45599 -2.04754 0
M  V30 2846 N 271.65 -2.76134 -0.905455 0
M  V30 2847 H 271.197 -2.57582 -0.0305421 0
M  V30 2848 H 271.155 -2.60571 -1.75926 0
M  V30 2849 N 274.927 -0.932562 -1.27047 0
M  V30 2850 C 276.176 -0.571351 -1.93439 0
M  V30 2851 C 276.489 0.892467 -1.74053 0
M  V30 2852 O 277.695 1.36267 -2.34826 0
M  V30 2853 C 276.151 -0.97106 -3.46552 0
M  V30 2854 C 275.759 -2.4559 -3.74686 0
M  V30 2855 C 277.503 -0.681333 -4.18997 0
M  V30 2856 C 275.41 -2.79475 -5.21198 0
M  V30 2857 H 274.34 -0.209966 -0.724176 0
M  V30 2858 H 276.991 -1.13403 -1.44263 0
M  V30 2859 H 275.373 -0.336983 -3.94564 0
M  V30 2860 H 276.547 -3.13829 -3.37414 0
M  V30 2861 H 274.862 -2.71802 -3.15456 0
M  V30 2862 H 277.459 -0.910939 -5.26883 0
M  V30 2863 H 277.802 0.381628 -4.14547 0
M  V30 2864 H 278.335 -1.27473 -3.76823 0
M  V30 2865 H 275.074 -3.847 -5.30741 0
M  V30 2866 H 274.594 -2.1589 -5.596 0
M  V30 2867 H 276.273 -2.67478 -5.89122 0
M  V30 2868 N 276.405 1.4127 -0.698611 0
M  V30 2869 C 277.353 2.32588 -0.023855 0
M  V30 2870 C 278.347 1.51128 0.765292 0
M  V30 2871 O 279.553 1.67043 0.670571 0
M  V30 2872 H 275.928 0.751918 0.0110871 0
M  V30 2873 H 277.899 2.87167 -0.811031 0
M  V30 2874 C 276.648 3.35947 0.896369 0
M  V30 2875 H 275.971 3.98684 0.298548 0
M  V30 2876 H 277.411 4.02376 1.33676 0
M  V30 2877 C 275.87 2.70076 2.01396 0
M  V30 2878 O 276.4 2.55093 3.10307 0
M  V30 2879 N 274.606 2.28724 1.79259 0
M  V30 2880 H 274.153 2.4111 0.906841 0
M  V30 2881 H 274.111 1.84986 2.54219 0
M  V30 2882 N 277.883 0.443576 1.51229 0
M  V30 2883 C 278.793 -0.370721 2.31652 0
M  V30 2884 C 279.809 -1.02186 1.40833 0
M  V30 2885 O 280.985 -1.01586 1.73903 0
M  V30 2886 C 278.05 -1.45376 3.14749 0
M  V30 2887 C 277.111 -0.822099 4.21355 0
M  V30 2888 C 276.344 -1.85353 5.0048 0
M  V30 2889 O 276.567 -3.07656 4.80316 0
M  V30 2890 O 275.501 -1.4406 5.84406 0
M  V30 2891 H 279.327 0.286002 3.0235 0
M  V30 2892 H 276.912 0.20598 1.47973 0
M  V30 2893 H 278.794 -2.08173 3.66391 0
M  V30 2894 H 277.469 -2.09445 2.46809 0
M  V30 2895 H 276.376 -0.155909 3.73775 0
M  V30 2896 H 277.709 -0.224797 4.91686 0
M  V30 2897 N 279.361 -1.56624 0.175154 0
M  V30 2898 C 280.608 -1.96999 -0.468811 0
M  V30 2899 C 280.936 -1.06129 -1.62994 0
M  V30 2900 O 280.191 -0.0961771 -1.95464 0
M  V30 2901 C 280.49 -3.43419 -0.989864 0
M  V30 2902 C 280.156 -4.50866 0.0557687 0
M  V30 2903 C 278.818 -4.79975 0.343134 0
M  V30 2904 C 281.17 -5.15551 0.765308 0
M  V30 2905 C 278.498 -5.71066 1.34536 0
M  V30 2906 C 280.85 -6.07724 1.75654 0
M  V30 2907 C 279.514 -6.35199 2.05132 0
M  V30 2908 H 278.784 -0.720869 -0.17155 0
M  V30 2909 H 281.431 -1.89616 0.267924 0
M  V30 2910 H 279.736 -3.47772 -1.80449 0
M  V30 2911 H 281.433 -3.72002 -1.49719 0
M  V30 2912 H 278.023 -4.28229 -0.178381 0
M  V30 2913 H 282.207 -4.9317 0.556513 0
M  V30 2914 H 277.463 -5.90635 1.57988 0
M  V30 2915 H 281.637 -6.56912 2.31169 0
M  V30 2916 H 279.264 -7.05584 2.8294 0
M  V30 2917 N 280.839 0.0985539 -1.57292 0
M  V30 2918 C 282.079 0.808332 -1.87737 0
M  V30 2919 C 282.443 1.7607 -0.76572 0
M  V30 2920 O 283.644 2.51358 -0.952499 0
M  V30 2921 C 281.915 1.52093 -3.23423 0
M  V30 2922 S 283.474 2.26947 -3.75554 0
M  V30 2923 H 280.292 0.269377 -0.657995 0
M  V30 2924 H 282.894 0.0656269 -1.9539 0
M  V30 2925 H 281.598 0.81363 -4.02254 0
M  V30 2926 H 281.129 2.30361 -3.189 0
M  V30 2927 H 283.144 3.53027 -3.48692 0
M  V30 2928 N 282.317 1.53212 0.369288 0
M  V30 2929 C 283.565 1.68881 1.11012 0
M  V30 2930 C 283.886 0.441285 1.89941 0
M  V30 2931 O 283.156 -0.544623 1.88177 0
M  V30 2932 H 281.736 0.622569 0.412816 0
M  V30 2933 H 284.398 1.90391 0.416802 0
M  V30 2934 H 283.494 2.54822 1.80201 0
M  V30 2935 N 283.795 -0.628877 1.44509 0
M  V30 2936 C 284.705 -1.7694 1.54044 0
M  V30 2937 C 285.721 -1.68705 0.425987 0
M  V30 2938 O 286.897 -1.89442 0.683656 0
M  V30 2939 C 283.962 -3.13332 1.48405 0
M  V30 2940 C 283.023 -3.33181 2.70719 0
M  V30 2941 C 282.256 -4.63067 2.6534 0
M  V30 2942 O 282.479 -5.44017 1.71469 0
M  V30 2943 O 281.413 -4.85167 3.56226 0
M  V30 2944 H 285.239 -1.71848 2.50403 0
M  V30 2945 H 282.824 -0.790378 1.26781 0
M  V30 2946 H 284.706 -3.94634 1.47791 0
M  V30 2947 H 283.381 -3.1896 0.551898 0
M  V30 2948 H 282.288 -2.51549 2.769 0
M  V30 2949 H 283.621 -3.32416 3.62988 0
M  V30 2950 O 285.312 -1.41833 -0.772381 0
M  V30 2951 H 286.003 -1.31768 -1.41975 0
M  V30 END ATOM
M  V30 BEGIN BOND
M  V30 END BOND
M  V30 END CTAB
M  END
$$$$
