drugbank_target|P16109 P-selectin (DB01109; DB03721; DB06779; DB08813; DB15271)
 OpenBabel12092119483D

  0  0  0     0  0            999 V3000
M  V30 BEGIN CTAB
M  V30 COUNTS 12371 12545 0 0 0
M  V30 BEGIN ATOM
M  V30 1 H -0.908 1.98254 -0.117106 0
M  V30 2 N 0 1.576 0 0
M  V30 3 C 0.933 2.03868 1.02534 0
M  V30 4 C 1.911 0.928543 1.3348 0
M  V30 5 O 3.095 1.19667 1.45644 0
M  V30 6 C 0.222 2.43627 2.35294 0
M  V30 7 C -0.732 3.65373 2.2001 0
M  V30 8 S 0.101 5.13292 1.52614 0
M  V30 9 C 1.257 5.56322 2.86805 0
M  V30 10 H 1.49 2.90518 0.631377 0
M  V30 11 H -0.977 1.52953 0.210867 0
M  V30 12 H 0.981 2.67203 3.11629 0
M  V30 13 H -0.358 1.57376 2.7183 0
M  V30 14 H -1.165 3.90944 3.18086 0
M  V30 15 H -1.563 3.418 1.51819 0
M  V30 16 H 0.729 5.58782 3.83104 0
M  V30 17 H 1.672 6.56266 2.65933 0
M  V30 18 H 2.08 4.83886 2.90714 0
M  V30 19 N 1.4781 -0.272755 1.55222 0
M  V30 20 C 2.4411 -1.32041 1.87344 0
M  V30 21 C 3.4411 -1.42342 0.74803 0
M  V30 22 O 4.6311 -1.41488 1.0162 0
M  V30 23 C 1.7631 -2.70173 2.07893 0
M  V30 24 H 2.9561 -1.04789 2.80997 0
M  V30 25 H 0.5091 -0.51083 1.47717 0
M  V30 26 H 1.2441 -3.02605 1.16622 0
M  V30 27 H 1.0291 -2.64082 2.89833 0
M  V30 28 H 2.5191 -3.45869 2.34017 0
M  V30 29 N 2.9562 -1.48159 -0.537278 0
M  V30 30 C 3.9042 -1.62573 -1.66352 0
M  V30 31 C 4.8982 -0.492366 -1.62087 0
M  V30 32 O 6.1042 -0.670847 -1.67032 0
M  V30 33 H 2.4792 -0.511992 -0.550789 0
M  V30 34 H 4.4502 -2.57176 -1.51337 0
M  V30 35 C 3.1992 -1.67583 -3.04649 0
M  V30 36 H 2.5222 -2.54151 -3.08622 0
M  V30 37 H 3.9622 -1.81713 -3.83088 0
M  V30 38 C 2.4212 -0.413039 -3.34358 0
M  V30 39 O 2.9512 0.477259 -3.98855 0
M  V30 40 N 1.1572 -0.286961 -2.8918 0
M  V30 41 H 0.7042 -1.01241 -2.36871 0
M  V30 42 H 0.6622 0.556963 -3.09427 0
M  V30 43 N 4.4343 0.785586 -1.36625 0
M  V30 44 C 5.6743 1.55678 -1.32453 0
M  V30 45 C 6.0383 1.91769 0.0941089 0
M  V30 46 O 7.2393 2.67536 0.26042 0
M  V30 47 C 5.5103 2.79701 -2.22491 0
M  V30 48 S 7.0693 3.69907 -2.36038 0
M  V30 49 H 3.8873 0.533141 -0.470405 0
M  V30 50 H 6.4893 0.924953 -1.72235 0
M  V30 51 H 5.1933 2.51244 -3.24507 0
M  V30 52 H 4.7243 3.47854 -1.83742 0
M  V30 53 H 6.7393 4.71016 -1.56072 0
M  V30 54 N 5.9124 1.20967 1.01018 0
M  V30 55 C 6.8444 0.922059 2.09835 0
M  V30 56 C 7.8574 -0.0927106 1.62536 0
M  V30 57 O 9.0464 0.139127 1.77957 0
M  V30 58 C 6.1464 0.362004 3.36961 0
M  V30 59 C 5.3194 1.42986 4.13369 0
M  V30 60 C 4.3784 0.879976 5.1879 0
M  V30 61 O 3.4044 1.56219 5.47343 0
M  V30 62 N 4.6064 -0.307396 5.79686 0
M  V30 63 H 7.3714 1.8588 2.35093 0
M  V30 64 H 4.9324 1.11422 1.1746 0
M  V30 65 H 6.9244 -0.0201474 4.04695 0
M  V30 66 H 5.4944 -0.479437 3.08902 0
M  V30 67 H 4.7144 1.98608 3.40512 0
M  V30 68 H 6.0024 2.14885 4.61196 0
M  V30 69 H 5.4004 -0.878796 5.58832 0
M  V30 70 H 3.9574 -0.631115 6.48737 0
M  V30 71 N 7.3905 -1.2043 1.01659 0
M  V30 72 C 8.6395 -1.89118 0.701237 0
M  V30 73 C 8.9525 -1.79705 -0.772358 0
M  V30 74 O 10.1585 -2.43528 -1.20026 0
M  V30 75 C 8.6145 -3.39168 1.20388 0
M  V30 76 C 8.2225 -3.57166 2.70438 0
M  V30 77 C 9.9665 -4.1341 0.963953 0
M  V30 78 C 7.8735 -5.01042 3.14183 0
M  V30 79 H 6.8035 -0.708267 0.2586 0
M  V30 80 H 9.4545 -1.36239 1.22927 0
M  V30 81 H 7.8365 -3.91369 0.603824 0
M  V30 82 H 9.0105 -3.15351 3.35992 0
M  V30 83 H 7.3255 -2.96294 2.92572 0
M  V30 84 H 9.9225 -5.19491 1.26621 0
M  V30 85 H 10.2655 -4.16181 -0.099578 0
M  V30 86 H 10.7985 -3.67309 1.52738 0
M  V30 87 H 7.5375 -5.03426 4.19812 0
M  V30 88 H 7.0575 -5.43668 2.53348 0
M  V30 89 H 8.7365 -5.69623 3.0682 0
M  V30 90 N 8.8686 -0.792821 -1.36206 0
M  V30 91 C 9.8316 -0.199459 -2.2833 0
M  V30 92 C 10.8316 0.605189 -1.48977 0
M  V30 93 O 12.0216 0.425685 -1.68919 0
M  V30 94 C 9.1536 0.723523 -3.33134 0
M  V30 95 H 10.3466 -1.01181 -2.82316 0
M  V30 96 H 7.8996 -0.562485 -1.45828 0
M  V30 97 H 8.6346 1.56008 -2.84309 0
M  V30 98 H 8.4196 0.148436 -3.91819 0
M  V30 99 H 9.9096 1.13344 -4.01924 0
M  V30 100 N 10.3467 1.47872 -0.545128 0
M  V30 101 C 11.5957 2.01695 -0.0145033 0
M  V30 102 C 11.9087 1.42609 1.33873 0
M  V30 103 O 13.1147 1.88021 1.95858 0
M  V30 104 C 11.5707 3.59892 0.0245068 0
M  V30 105 C 11.1787 4.27966 -1.32475 0
M  V30 106 C 12.9227 4.21507 0.50316 0
M  V30 107 C 10.8297 5.78136 -1.2455 0
M  V30 108 H 9.7597 0.753998 -0.00165172 0
M  V30 109 H 12.4107 1.69985 -0.691175 0
M  V30 110 H 10.7927 3.88509 0.766575 0
M  V30 111 H 11.9667 4.11003 -2.08357 0
M  V30 112 H 10.2817 3.78286 -1.74036 0
M  V30 113 H 12.8787 5.31538 0.580656 0
M  V30 114 H 13.2217 3.87855 1.51243 0
M  V30 115 H 13.7547 3.97376 -0.183681 0
M  V30 116 H 10.4937 6.16388 -2.23039 0
M  V30 117 H 10.0137 5.97469 -0.528282 0
M  V30 118 H 11.6927 6.40099 -0.942488 0
M  V30 119 N 11.8248 0.280983 1.55075 0
M  V30 120 C 12.7548 -0.597469 2.25727 0
M  V30 121 C 13.7358 -1.15417 1.24952 0
M  V30 122 O 14.9208 -1.18722 1.53684 0
M  V30 123 C 12.0508 -1.7789 2.98283 0
M  V30 124 C 11.0048 -1.35347 4.06036 0
M  V30 125 C 10.3308 -2.61846 4.66198 0
M  V30 126 C 11.6308 -0.499354 5.19907 0
M  V30 127 H 13.3248 -0.00824265 2.99399 0
M  V30 128 H 10.8708 -0.0025244 1.44 0
M  V30 129 H 12.8238 -2.39937 3.46422 0
M  V30 130 H 11.5478 -2.39405 2.22155 0
M  V30 131 H 10.2068 -0.756156 3.58717 0
M  V30 132 H 9.8548 -3.21632 3.86732 0
M  V30 133 H 9.5548 -2.3409 5.38958 0
M  V30 134 H 11.0788 -3.24732 5.1709 0
M  V30 135 H 12.4928 -1.02498 5.64063 0
M  V30 136 H 10.8898 -0.316424 5.99265 0
M  V30 137 H 11.9598 0.480459 4.82514 0
M  V30 138 N 13.3029 -1.57598 0.00835791 0
M  V30 139 C 14.5329 -1.94931 -0.684496 0
M  V30 140 C 14.9409 -0.882233 -1.67372 0
M  V30 141 O 14.2839 0.146621 -1.83114 0
M  V30 142 C 14.3459 -3.283 -1.4649 0
M  V30 143 C 14.0099 -4.52548 -0.63634 0
M  V30 144 C 15.0069 -5.19839 0.0795586 0
M  V30 145 C 12.6919 -4.98942 -0.579849 0
M  V30 146 C 14.6859 -6.3183 0.840843 0
M  V30 147 C 12.3729 -6.10819 0.185155 0
M  V30 148 C 13.3709 -6.77121 0.894227 0
M  V30 149 O 13.0589 -7.86853 1.64673 0
M  V30 150 H 12.7909 -0.647249 -0.19505 0
M  V30 151 H 15.3449 -2.05318 0.0581272 0
M  V30 152 H 13.5749 -3.14345 -2.2522 0
M  V30 153 H 15.2639 -3.50685 -2.04389 0
M  V30 154 H 16.0299 -4.84979 0.0451202 0
M  V30 155 H 11.9089 -4.47155 -1.1213 0
M  V30 156 H 15.4529 -6.83513 1.39483 0
M  V30 157 H 11.3499 -6.4512 0.221384 0
M  V30 158 H 12.1179 -8.03412 1.56432 0
M  V30 159 N 14.781 0.264519 -1.55364 0
M  V30 160 C 15.713 1.34965 -1.85248 0
M  V30 161 C 16.726 1.45136 -0.737525 0
M  V30 162 O 17.915 1.46801 -1.01547 0
M  V30 163 C 15.015 2.73008 -2.00797 0
M  V30 164 C 14.188 2.85324 -3.31525 0
M  V30 165 C 13.247 4.04097 -3.37034 0
M  V30 166 O 12.273 3.94455 -4.10358 0
M  V30 167 N 13.475 5.16458 -2.65049 0
M  V30 168 H 16.24 1.09672 -2.78913 0
M  V30 169 H 13.801 0.454635 -1.55386 0
M  V30 170 H 15.793 3.50772 -2.01844 0
M  V30 171 H 14.363 2.91087 -1.1396 0
M  V30 172 H 13.583 1.94377 -3.42945 0
M  V30 173 H 14.871 2.9049 -4.17724 0
M  V30 174 H 14.269 5.27181 -2.05175 0
M  V30 175 H 12.826 5.92422 -2.71809 0
M  V30 176 N 16.2591 1.48442 0.529413 0
M  V30 177 C 17.6751 1.34575 0.858004 0
M  V30 178 C 17.8751 0.3572 1.98309 0
M  V30 179 O 16.9311 -0.221379 2.51528 0
M  V30 180 C 18.2441 2.74617 1.22499 0
M  V30 181 C 19.7921 2.83109 1.33484 0
M  V30 182 C 20.2671 4.23854 1.73526 0
M  V30 183 N 21.7581 4.2653 1.80628 0
M  V30 184 C 22.4931 5.32372 2.12997 0
M  V30 185 N 21.9891 6.48491 2.43786 0
M  V30 186 N 23.7821 5.19766 2.14008 0
M  V30 187 H 15.9331 2.1133 -0.212925 0
M  V30 188 H 18.1961 0.947439 -0.0326199 0
M  V30 189 H 17.9021 3.4852 0.471905 0
M  V30 190 H 17.7761 3.08177 2.17501 0
M  V30 191 H 20.1631 2.09462 2.0787 0
M  V30 192 H 20.2441 2.53168 0.366027 0
M  V30 193 H 19.8881 4.98018 0.997013 0
M  V30 194 H 19.8181 4.5124 2.71459 0
M  V30 195 H 22.3091 3.42772 1.59108 0
M  V30 196 H 22.6221 7.24993 2.67592 0
M  V30 197 H 20.9671 6.51765 2.41304 0
M  V30 198 H 24.1581 4.28066 1.89412 0
M  V30 199 H 24.3311 6.02354 2.38902 0
M  V30 200 N 17.7372 -0.778329 1.37039 0
M  V30 201 C 18.9842 -1.53665 1.31884 0
M  V30 202 C 19.3122 -1.9425 -0.0986303 0
M  V30 203 O 18.5672 -1.63832 -1.07041 0
M  V30 204 C 18.8662 -2.81845 2.19768 0
M  V30 205 C 18.5322 -2.60345 3.68146 0
M  V30 206 C 17.1942 -2.5419 4.08584 0
M  V30 207 C 19.5462 -2.40923 4.62175 0
M  V30 208 C 16.8742 -2.26594 5.41177 0
M  V30 209 C 19.2262 -2.14852 5.94997 0
M  V30 210 C 17.8902 -2.07137 6.34547 0
M  V30 211 H 17.1602 -0.562299 0.482598 0
M  V30 212 H 19.8072 -0.897069 1.69189 0
M  V30 213 H 18.1122 -3.50328 1.75436 0
M  V30 214 H 19.8092 -3.39692 2.13097 0
M  V30 215 H 16.3992 -2.65996 3.36072 0
M  V30 216 H 20.5832 -2.44673 4.31797 0
M  V30 217 H 15.8392 -2.19111 5.70789 0
M  V30 218 H 20.0132 -1.98822 6.67415 0
M  V30 219 H 17.6402 -1.85518 7.37216 0
M  V30 220 N 19.2153 -1.21501 -1.00376 0
M  V30 221 C 20.1473 -0.933174 -2.09343 0
M  V30 222 C 21.1603 0.0840896 -1.62583 0
M  V30 223 O 22.3493 -0.148563 -1.77881 0
M  V30 224 C 19.4493 -0.379869 -3.36764 0
M  V30 225 C 18.6223 -1.45176 -4.12605 0
M  V30 226 C 17.6813 -0.907476 -5.18316 0
M  V30 227 O 16.7073 -1.5912 -5.46507 0
M  V30 228 N 17.9093 0.276649 -5.7984 0
M  V30 229 H 20.6743 -1.87124 -2.34104 0
M  V30 230 H 18.2353 -1.12043 -1.16867 0
M  V30 231 H 20.2273 -0.00131488 -4.047 0
M  V30 232 H 18.7973 0.463048 -3.09151 0
M  V30 233 H 18.0173 -2.00411 -3.39454 0
M  V30 234 H 19.3053 -2.17328 -4.6005 0
M  V30 235 H 18.7033 0.849147 -5.59291 0
M  V30 236 H 17.2603 0.596702 -6.49063 0
M  V30 237 N 20.6934 1.19889 -1.02296 0
M  V30 238 C 22.1094 1.41462 -0.738954 0
M  V30 239 C 22.3094 1.89721 0.678846 0
M  V30 240 O 21.3654 2.07016 1.4457 0
M  V30 241 C 22.6784 2.43083 -1.77005 0
M  V30 242 C 24.2264 2.5684 -1.78892 0
M  V30 243 C 24.7014 3.61709 -2.80945 0
M  V30 244 N 26.1924 3.69199 -2.79725 0
M  V30 245 C 26.9274 4.50019 -3.55345 0
M  V30 246 N 26.4234 5.34592 -4.40662 0
M  V30 247 N 28.2164 4.44612 -3.43914 0
M  V30 248 H 20.3674 0.868827 -1.93817 0
M  V30 249 H 22.6304 0.44399 -0.837602 0
M  V30 250 H 22.3364 2.14636 -2.78612 0
M  V30 251 H 22.2104 3.4217 -1.58744 0
M  V30 252 H 24.5974 2.84614 -0.779674 0
M  V30 253 H 24.6784 1.57927 -2.01228 0
M  V30 254 H 24.3224 3.34678 -3.82038 0
M  V30 255 H 24.2524 4.60259 -2.5587 0
M  V30 256 H 26.7434 3.08794 -2.17842 0
M  V30 257 H 27.0564 5.93363 -4.95116 0
M  V30 258 H 25.4014 5.34073 -4.44737 0
M  V30 259 H 28.5924 3.7758 -2.76679 0
M  V30 260 H 28.7654 5.0736 -4.031 0
M  V30 261 N 22.1715 0.800033 1.35784 0
M  V30 262 C 23.4175 0.377901 1.99248 0
M  V30 263 C 23.7505 -1.05052 1.63333 0
M  V30 264 O 23.0255 -1.72768 0.893385 0
M  V30 265 C 23.3085 0.553922 3.55814 0
M  V30 266 C 23.1615 2.0268 4.01548 0
M  V30 267 C 24.4805 -0.0244802 4.40093 0
M  V30 268 H 21.5995 0.138782 0.723815 0
M  V30 269 H 24.2415 1.00835 1.61035 0
M  V30 270 H 22.3915 0.0172398 3.88496 0
M  V30 271 H 24.0635 2.62536 3.79305 0
M  V30 272 H 22.3065 2.5256 3.52698 0
M  V30 273 H 22.9775 2.10087 5.10458 0
M  V30 274 H 25.4535 0.433775 4.13833 0
M  V30 275 H 24.3295 0.128637 5.48749 0
M  V30 276 H 24.5905 -1.11758 4.27741 0
M  V30 277 N 23.6496 -1.47581 0.552962 0
M  V30 278 C 24.8956 -2.02782 0.0273648 0
M  V30 279 C 25.2286 -1.42687 -1.31734 0
M  V30 280 O 24.5036 -0.580897 -1.85623 0
M  V30 281 C 24.7866 -3.60031 -0.0702371 0
M  V30 282 C 24.6396 -4.30566 1.30126 0
M  V30 283 C 25.9586 -4.33028 -0.785771 0
M  V30 284 H 23.0776 -0.736912 0.0114185 0
M  V30 285 H 25.7196 -1.76056 0.714432 0
M  V30 286 H 23.8696 -3.82932 -0.655382 0
M  V30 287 H 25.5416 -4.19018 1.92929 0
M  V30 288 H 23.7846 -3.91086 1.87709 0
M  V30 289 H 24.4556 -5.39114 1.18573 0
M  V30 290 H 26.9316 -4.15095 -0.288982 0
M  V30 291 H 25.8076 -5.42695 -0.823013 0
M  V30 292 H 26.0686 -4.01945 -1.841 0
M  V30 293 N 25.1277 -0.289203 -1.54924 0
M  V30 294 C 26.3747 0.323519 -1.99899 0
M  V30 295 C 26.7027 1.54797 -1.17762 0
M  V30 296 O 25.9577 1.94237 -0.238835 0
M  V30 297 C 26.2567 0.736119 -3.49737 0
M  V30 298 C 25.9227 -0.385276 -4.49251 0
M  V30 299 C 24.5847 -0.693156 -4.76181 0
M  V30 300 C 26.9367 -1.14021 -5.08575 0
M  V30 301 C 24.2647 -1.7593 -5.59701 0
M  V30 302 C 26.6167 -2.19619 -5.93254 0
M  V30 303 C 25.2807 -2.51026 -6.185 0
M  V30 304 H 24.5507 0.118384 -0.731482 0
M  V30 305 H 27.1977 -0.405847 -1.8715 0
M  V30 306 H 25.5027 1.54539 -3.60035 0
M  V30 307 H 27.1997 1.22118 -3.81953 0
M  V30 308 H 23.7897 -0.135202 -4.28387 0
M  V30 309 H 27.9737 -0.915611 -4.87781 0
M  V30 310 H 23.2297 -2.0075 -5.77503 0
M  V30 311 H 27.4037 -2.78581 -6.38252 0
M  V30 312 H 25.0307 -3.33772 -6.83008 0
M  V30 313 N 26.6058 1.57591 -0.0167156 0
M  V30 314 C 27.8538 1.90906 0.663285 0
M  V30 315 C 28.1748 0.892509 1.73376 0
M  V30 316 O 27.4448 -0.0677623 1.95783 0
M  V30 317 H 26.0248 0.704637 0.247983 0
M  V30 318 H 28.6868 1.94803 -0.0615909 0
M  V30 319 H 27.7828 2.9116 1.12393 0
M  V30 320 N 28.0839 -0.256276 1.55502 0
M  V30 321 C 29.3329 -0.983486 1.76098 0
M  V30 322 C 29.6459 -1.86837 0.578896 0
M  V30 323 O 30.8519 -2.63163 0.667648 0
M  V30 324 C 29.3079 -1.79868 3.1173 0
M  V30 325 C 28.9159 -0.961648 4.37557 0
M  V30 326 C 30.6599 -2.51919 3.41668 0
M  V30 327 C 28.5669 -1.77219 5.64223 0
M  V30 328 H 27.4969 -0.370936 0.656447 0
M  V30 329 H 30.1479 -0.238492 1.81944 0
M  V30 330 H 28.5299 -2.58527 2.99966 0
M  V30 331 H 29.7039 -0.218048 4.60284 0
M  V30 332 H 28.0189 -0.354913 4.14885 0
M  V30 333 H 30.6159 -3.12998 4.33516 0
M  V30 334 H 30.9589 -3.23059 2.62562 0
M  V30 335 H 31.4919 -1.80278 3.54605 0
M  V30 336 H 28.2309 -1.10471 6.46124 0
M  V30 337 H 27.7509 -2.49132 5.45613 0
M  V30 338 H 29.4299 -2.34169 6.03137 0
M  V30 339 N 29.562 -1.4872 -0.521534 0
M  V30 340 C 30.787 -1.61101 -1.30618 0
M  V30 341 C 31.212 -0.274611 -1.86085 0
M  V30 342 O 30.57 0.754937 -1.64834 0
M  V30 343 C 30.618 -2.66709 -2.4269 0
M  V30 344 O 29.722 -2.24456 -3.45967 0
M  V30 345 H 29.063 -0.539921 -0.386499 0
M  V30 346 H 31.593 -1.94767 -0.626645 0
M  V30 347 H 31.603 -2.88245 -2.88754 0
M  V30 348 H 30.278 -3.63727 -2.01682 0
M  V30 349 H 28.855 -2.13168 -3.05964 0
M  V30 350 N 31.0401 0.771051 -1.3745 0
M  V30 351 C 31.9721 1.89352 -1.29146 0
M  V30 352 C 32.9851 1.61477 -0.207124 0
M  V30 353 O 34.1741 1.72382 -0.463324 0
M  V30 354 C 31.2741 3.24596 -0.974195 0
M  V30 355 C 30.4471 3.80111 -2.16413 0
M  V30 356 C 29.5061 4.93832 -1.81703 0
M  V30 357 O 28.5321 5.09382 -2.54006 0
M  V30 358 N 29.7341 5.75483 -0.761573 0
M  V30 359 H 32.4991 1.96991 -2.25864 0
M  V30 360 H 30.0601 0.950191 -1.31084 0
M  V30 361 H 32.0521 3.98193 -0.722828 0
M  V30 362 H 30.6221 3.12454 -0.0955527 0
M  V30 363 H 29.8421 2.98284 -2.57721 0
M  V30 364 H 31.1301 4.13932 -2.95867 0
M  V30 365 H 30.5281 5.65469 -0.161609 0
M  V30 366 H 29.0851 6.49302 -0.570064 0
M  V30 367 N 32.5182 1.22032 0.997298 0
M  V30 368 C 33.4482 1.01065 2.10495 0
M  V30 369 C 34.4292 -0.0669542 1.69968 0
M  V30 370 O 35.6142 0.0943987 1.9397 0
M  V30 371 C 32.7442 0.582874 3.42374 0
M  V30 372 C 31.6982 1.60592 3.96729 0
M  V30 373 C 31.0242 1.03412 5.24605 0
M  V30 374 C 32.3242 2.99478 4.27914 0
M  V30 375 H 34.0182 1.93708 2.28292 0
M  V30 376 H 31.5642 0.932761 1.09707 0
M  V30 377 H 33.5172 0.423332 4.19268 0
M  V30 378 H 32.2412 -0.379213 3.24391 0
M  V30 379 H 30.9002 1.75316 3.21963 0
M  V30 380 H 30.5482 0.063518 5.0296 0
M  V30 381 H 30.2482 1.71754 5.61938 0
M  V30 382 H 31.7722 0.886066 6.04137 0
M  V30 383 H 33.1862 2.88153 4.95622 0
M  V30 384 H 31.5832 3.64903 4.76409 0
M  V30 385 H 32.6532 3.49742 3.3587 0
M  V30 386 N 33.9963 -1.19345 1.0293 0
M  V30 387 C 34.9263 -2.2481 0.631105 0
M  V30 388 C 35.9073 -1.66245 -0.360104 0
M  V30 389 O 37.0923 -1.92677 -0.242726 0
M  V30 390 C 34.2223 -3.47295 -0.0184607 0
M  V30 391 C 33.1763 -4.18536 0.895073 0
M  V30 392 C 32.5023 -5.34586 0.110592 0
M  V30 393 C 33.8023 -4.73287 2.209 0
M  V30 394 H 35.4963 -2.58372 1.51275 0
M  V30 395 H 33.0423 -1.24194 0.728818 0
M  V30 396 H 34.9953 -4.20268 -0.308675 0
M  V30 397 H 33.7193 -3.12933 -0.934907 0
M  V30 398 H 32.3783 -3.47446 1.16949 0
M  V30 399 H 32.0263 -4.96469 -0.807902 0
M  V30 400 H 31.7263 -5.83183 0.719087 0
M  V30 401 H 33.2503 -6.10355 -0.172871 0
M  V30 402 H 34.6643 -5.38013 1.98028 0
M  V30 403 H 33.0613 -5.32373 2.76946 0
M  V30 404 H 34.1313 -3.91331 2.86336 0
M  V30 405 N 35.4744 -0.807222 -1.35358 0
M  V30 406 C 36.7144 -0.393534 -2.00576 0
M  V30 407 C 37.0784 1.0203 -1.62647 0
M  V30 408 O 38.2794 1.53603 -2.20589 0
M  V30 409 C 36.5504 -0.572017 -3.52793 0
M  V30 410 S 38.1094 -0.248845 -4.38094 0
M  V30 411 H 34.9274 -0.149425 -0.695121 0
M  V30 412 H 37.5294 -1.04961 -1.64935 0
M  V30 413 H 36.2334 -1.60097 -3.77885 0
M  V30 414 H 35.7644 0.099359 -3.93275 0
M  V30 415 H 37.7794 0.943253 -4.87152 0
M  V30 416 N 36.9525 1.47285 -0.560781 0
M  V30 417 C 38.1995 2.02464 -0.038062 0
M  V30 418 C 38.5275 1.43474 1.31322 0
M  V30 419 O 37.7825 0.581311 1.86867 0
M  V30 420 C 38.0815 3.57258 0.100784 0
M  V30 421 C 37.7475 4.35184 -1.18007 0
M  V30 422 C 36.4095 4.56194 -1.53103 0
M  V30 423 C 38.7615 4.80098 -2.02867 0
M  V30 424 C 36.0895 5.19367 -2.729 0
M  V30 425 C 38.4415 5.44593 -3.21871 0
M  V30 426 C 37.1055 5.63835 -3.57276 0
M  V30 427 H 36.3755 0.740869 -0.0139279 0
M  V30 428 H 39.0225 1.76916 -0.733012 0
M  V30 429 H 37.3275 3.81819 0.878724 0
M  V30 430 H 39.0245 3.97606 0.520639 0
M  V30 431 H 35.6145 4.19113 -0.8968 0
M  V30 432 H 39.7985 4.63642 -1.7706 0
M  V30 433 H 35.0545 5.32459 -3.00496 0
M  V30 434 H 39.2285 5.78358 -3.87911 0
M  V30 435 H 36.8555 6.12557 -4.50197 0
M  V30 436 N 38.4306 0.297415 1.54768 0
M  V30 437 C 39.6556 -0.318435 2.04941 0
M  V30 438 C 40.0806 -1.4701 1.17345 0
M  V30 439 O 39.4386 -1.80436 0.176758 0
M  V30 440 C 39.4866 -0.755749 3.52592 0
M  V30 441 O 38.5906 -1.86088 3.68028 0
M  V30 442 H 37.9316 -0.062421 0.661059 0
M  V30 443 H 40.4616 0.438215 1.99852 0
M  V30 444 H 40.4716 -1.04552 3.94376 0
M  V30 445 H 39.1466 0.0867233 4.1581 0
M  V30 446 H 37.7236 -1.57193 3.38149 0
M  V30 447 N 39.9087 -1.5758 0.0250728 0
M  V30 448 C 40.8717 -2.08896 -0.943139 0
M  V30 449 C 41.8717 -1.00321 -1.25668 0
M  V30 450 O 43.0617 -1.26495 -1.19769 0
M  V30 451 C 40.1937 -2.55143 -2.26086 0
M  V30 452 H 41.3867 -2.95723 -0.498775 0
M  V30 453 H 38.9397 -1.54703 -0.222888 0
M  V30 454 H 39.6747 -1.71633 -2.75159 0
M  V30 455 H 39.4597 -3.34461 -2.04641 0
M  V30 456 H 40.9497 -2.95083 -2.95492 0
M  V30 457 N 41.3868 0.248026 -1.55636 0
M  V30 458 C 42.3168 1.31079 -1.93237 0
M  V30 459 C 43.2978 1.50264 -0.797174 0
M  V30 460 O 44.4828 1.62891 -1.05737 0
M  V30 461 C 41.6128 2.66575 -2.22609 0
M  V30 462 C 40.5668 2.62087 -3.3837 0
M  V30 463 C 39.8928 4.01369 -3.53281 0
M  V30 464 C 41.1928 2.19171 -4.7409 0
M  V30 465 H 42.8868 0.998556 -2.82257 0
M  V30 466 H 40.4328 0.47891 -1.35803 0
M  V30 467 H 42.3858 3.41057 -2.47503 0
M  V30 468 H 41.1098 2.99432 -1.30414 0
M  V30 469 H 39.7688 1.90063 -3.13483 0
M  V30 470 H 39.4168 4.31489 -2.58508 0
M  V30 471 H 39.1168 3.99254 -4.31127 0
M  V30 472 H 40.6408 4.77552 -3.80495 0
M  V30 473 H 42.0548 2.83384 -4.98363 0
M  V30 474 H 40.4518 2.2817 -5.5503 0
M  V30 475 H 41.5218 1.14336 -4.71227 0
M  V30 476 N 42.8649 1.48995 0.513639 0
M  V30 477 C 44.1139 1.57093 1.2651 0
M  V30 478 C 44.4269 0.257091 1.93903 0
M  V30 479 O 45.6329 0.216478 2.70636 0
M  V30 480 C 44.0889 2.77118 2.29638 0
M  V30 481 C 43.6969 4.15209 1.68241 0
M  V30 482 C 45.4409 2.94538 3.05692 0
M  V30 483 C 43.3479 5.26474 2.69406 0
M  V30 484 H 42.2779 0.584876 0.475854 0
M  V30 485 H 44.9289 1.7536 0.540487 0
M  V30 486 H 43.3109 2.52319 3.05207 0
M  V30 487 H 44.4849 4.50094 0.987505 0
M  V30 488 H 42.7999 4.03042 1.04623 0
M  V30 489 H 45.3969 3.74832 3.8132 0
M  V30 490 H 45.7399 2.04614 3.62545 0
M  V30 491 H 46.2729 3.19316 2.37238 0
M  V30 492 H 43.0119 6.18417 2.17351 0
M  V30 493 H 42.5319 4.96058 3.37175 0
M  V30 494 H 44.2109 5.55277 3.32078 0
M  V30 495 N 44.343 -0.763751 1.37857 0
M  V30 496 C 45.568 -1.55805 1.36893 0
M  V30 497 C 45.993 -1.88054 -0.0416135 0
M  V30 498 O 45.351 -1.49825 -1.02089 0
M  V30 499 C 45.399 -2.84012 2.22192 0
M  V30 500 O 44.503 -3.78732 1.63204 0
M  V30 501 H 43.844 -0.471638 0.46739 0
M  V30 502 H 46.374 -0.944657 1.81487 0
M  V30 503 H 46.384 -3.33037 2.35691 0
M  V30 504 H 45.059 -2.59869 3.24716 0
M  V30 505 H 43.636 -3.37402 1.58791 0
M  V30 506 N 45.8211 -1.22559 -0.990812 0
M  V30 507 C 46.7311 -1.01394 -2.11557 0
M  V30 508 C 47.7471 0.0383962 -1.73958 0
M  V30 509 O 48.9231 -0.154787 -2.00804 0
M  V30 510 C 45.9881 -0.596569 -3.41529 0
M  V30 511 C 45.0491 -1.72276 -3.93217 0
M  V30 512 C 44.2821 -1.32521 -5.16985 0
M  V30 513 O 44.5051 -0.204909 -5.70032 0
M  V30 514 O 43.4391 -2.14247 -5.62478 0
M  V30 515 H 47.2651 -1.95633 -2.32296 0
M  V30 516 H 44.8501 -1.01172 -1.0993 0
M  V30 517 H 46.7321 -0.374263 -4.19735 0
M  V30 518 H 45.4071 0.316939 -3.22145 0
M  V30 519 H 44.3141 -1.99961 -3.16174 0
M  V30 520 H 45.6471 -2.61421 -4.17037 0
M  V30 521 N 47.2992 1.18797 -1.03562 0
M  V30 522 C 48.2292 2.24472 -0.643019 0
M  V30 523 C 49.2102 1.66433 0.351283 0
M  V30 524 O 50.3952 1.92803 0.232505 0
M  V30 525 C 47.5252 3.473 4.24935e-05 0
M  V30 526 C 46.4792 4.18055 -0.917257 0
M  V30 527 C 45.8052 5.34519 -0.138941 0
M  V30 528 C 47.1052 4.72109 -2.23407 0
M  V30 529 H 48.7992 2.57566 -1.52643 0
M  V30 530 H 46.3452 1.23806 -0.735394 0
M  V30 531 H 48.2982 4.20426 0.286383 0
M  V30 532 H 47.0222 3.13424 0.918299 0
M  V30 533 H 45.6812 3.46821 -1.1879 0
M  V30 534 H 45.3292 4.96891 0.781562 0
M  V30 535 H 45.0292 5.82794 -0.750005 0
M  V30 536 H 46.5532 6.10438 0.1405 0
M  V30 537 H 47.9672 5.36955 -2.00879 0
M  V30 538 H 46.3642 5.30897 -2.79765 0
M  V30 539 H 47.4342 3.89807 -2.88407 0
M  V30 540 N 48.7773 0.814389 1.34928 0
M  V30 541 C 50.0053 0.411136 2.02774 0
M  V30 542 C 50.4203 -0.980316 1.61354 0
M  V30 543 O 49.7773 -1.63299 0.814847 0
M  V30 544 C 49.8283 0.493865 3.58111 0
M  V30 545 O 49.5493 1.83047 3.98027 0
M  V30 546 C 51.0503 0.0844174 4.4322 0
M  V30 547 H 48.2703 0.166037 0.650133 0
M  V30 548 H 50.8143 1.10018 1.72384 0
M  V30 549 H 48.9693 -0.147006 3.87121 0
M  V30 550 H 49.3833 1.79872 4.92693 0
M  V30 551 H 50.8573 0.193404 5.51661 0
M  V30 552 H 51.3343 -0.97113 4.28329 0
M  V30 553 H 51.9403 0.69875 4.19521 0
M  V30 554 N 50.2554 -1.46986 0.568584 0
M  V30 555 C 51.2034 -2.31858 -0.185649 0
M  V30 556 C 52.1974 -1.43624 -0.898249 0
M  V30 557 O 53.4034 -1.60327 -0.818242 0
M  V30 558 H 49.7784 -0.747866 -0.0787399 0
M  V30 559 H 51.7494 -2.93303 0.549191 0
M  V30 560 C 50.4984 -3.26513 -1.19519 0
M  V30 561 H 49.8214 -3.94377 -0.656285 0
M  V30 562 H 51.2614 -3.88707 -1.6936 0
M  V30 563 C 49.7204 -2.50847 -2.24894 0
M  V30 564 O 50.2504 -2.26119 -3.32014 0
M  V30 565 N 48.4564 -2.11656 -1.99124 0
M  V30 566 H 48.0034 -2.31966 -1.12024 0
M  V30 567 H 47.9614 -1.61347 -2.69842 0
M  V30 568 N 51.7335 -0.305618 -1.54608 0
M  V30 569 C 52.6655 0.602161 -2.21149 0
M  V30 570 C 53.6785 1.09394 -1.20569 0
M  V30 571 O 54.8675 1.0106 -1.47136 0
M  V30 572 C 51.9675 1.83692 -2.84799 0
M  V30 573 C 51.1405 1.48686 -4.11353 0
M  V30 574 C 50.1995 2.57725 -4.58764 0
M  V30 575 O 49.2255 2.22623 -5.23858 0
M  V30 576 N 50.4275 3.88346 -4.31471 0
M  V30 577 H 53.1925 0.0324966 -2.99682 0
M  V30 578 H 50.7535 -0.128021 -1.61393 0
M  V30 579 H 52.7455 2.55994 -3.13448 0
M  V30 580 H 51.3155 2.31486 -2.10078 0
M  V30 581 H 50.5355 0.596269 -3.89664 0
M  V30 582 H 51.8235 1.22842 -4.93748 0
M  V30 583 H 51.2215 4.19671 -3.79331 0
M  V30 584 H 49.7785 4.56932 -4.64818 0
M  V30 585 N 53.2116 1.57565 -0.0334293 0
M  V30 586 C 54.1586 2.10478 0.946981 0
M  V30 587 C 55.1286 1.00787 1.32027 0
M  V30 588 O 56.3136 1.28232 1.41284 0
M  V30 589 C 53.4536 2.63994 2.22263 0
M  V30 590 C 52.5666 3.87709 1.90541 0
M  V30 591 C 51.7016 4.29604 3.12433 0
M  V30 592 C 50.7406 5.46065 2.76549 0
M  V30 593 N 49.8776 5.83096 3.9108 0
M  V30 594 H 54.7176 2.93963 0.488846 0
M  V30 595 H 52.2546 1.45296 0.22969 0
M  V30 596 H 54.2126 2.93114 2.96884 0
M  V30 597 H 52.8426 1.83333 2.65685 0
M  V30 598 H 51.8946 3.65291 1.06144 0
M  V30 599 H 53.2066 4.72403 1.60116 0
M  V30 600 H 52.3606 4.60182 3.9537 0
M  V30 601 H 51.0996 3.43685 3.46023 0
M  V30 602 H 50.1046 5.15176 1.92026 0
M  V30 603 H 51.3296 6.33685 2.44171 0
M  V30 604 H 49.2756 5.00132 4.24504 0
M  V30 605 H 49.1926 6.6244 3.64293 0
M  V30 606 H 50.4606 6.18282 4.74708 0
M  V30 607 N 54.6897 -0.239769 1.55765 0
M  V30 608 C 55.5997 -1.31831 1.94056 0
M  V30 609 C 56.6157 -1.52275 0.841925 0
M  V30 610 O 57.7917 -1.65759 1.14394 0
M  V30 611 C 54.8567 -2.65156 2.23368 0
M  V30 612 C 53.9177 -2.53173 3.46701 0
M  V30 613 C 53.1507 -3.8014 3.74606 0
M  V30 614 O 53.3737 -4.82343 3.04469 0
M  V30 615 O 52.3077 -3.78344 4.68123 0
M  V30 616 H 56.1337 -1.02347 2.85935 0
M  V30 617 H 53.7187 -0.441123 1.42739 0
M  V30 618 H 55.6007 -3.43929 2.43497 0
M  V30 619 H 54.2757 -2.94358 1.34666 0
M  V30 620 H 53.1827 -1.72662 3.31871 0
M  V30 621 H 54.5157 -2.28915 4.35728 0
M  V30 622 N 56.1678 -1.49265 -0.50573 0
M  V30 623 C 57.4138 -1.58748 -1.26202 0
M  V30 624 C 57.7468 -0.271227 -1.92297 0
M  V30 625 O 57.0218 0.724831 -1.80489 0
M  V30 626 C 57.3048 -2.74332 -2.33268 0
M  V30 627 C 57.1578 -4.15737 -1.71705 0
M  V30 628 C 58.4768 -2.85576 -3.34865 0
M  V30 629 H 55.5958 -0.577826 -0.457478 0
M  V30 630 H 58.2378 -1.81532 -0.560897 0
M  V30 631 H 56.3878 -2.55036 -2.93068 0
M  V30 632 H 58.0598 -4.46537 -1.15769 0
M  V30 633 H 56.3028 -4.21605 -1.02135 0
M  V30 634 H 56.9738 -4.92477 -2.49341 0
M  V30 635 H 59.4498 -3.03127 -2.8505 0
M  V30 636 H 58.3258 -3.68135 -4.07146 0
M  V30 637 H 58.5868 -1.94732 -3.96903 0
M  V30 638 N 57.6459 0.756429 -1.3826 0
M  V30 639 C 58.6089 1.85176 -1.35065 0
M  V30 640 C 59.6089 1.58818 -0.251703 0
M  V30 641 O 60.7989 1.66615 -0.508433 0
M  V30 642 C 57.9309 3.22596 -1.10201 0
M  V30 643 H 59.1239 1.89417 -2.3251 0
M  V30 644 H 56.6769 0.95783 -1.23512 0
M  V30 645 H 57.4119 3.24025 -0.133504 0
M  V30 646 H 57.1969 3.43122 -1.89762 0
M  V30 647 H 58.6869 4.02673 -1.10654 0
M  V30 648 N 59.124 1.23083 0.984299 0
M  V30 649 C 60.087 1.00979 2.05757 0
M  V30 650 C 61.087 -0.0269573 1.60777 0
M  V30 651 O 62.277 0.212403 1.729 0
M  V30 652 C 59.409 0.527072 3.36801 0
M  V30 653 H 60.602 1.9622 2.26799 0
M  V30 654 H 58.155 1.05072 1.15714 0
M  V30 655 H 58.89 -0.429294 3.21446 0
M  V30 656 H 58.675 1.27515 3.70786 0
M  V30 657 H 60.165 0.392942 4.15747 0
M  V30 658 N 60.6021 -1.18246 1.0419 0
M  V30 659 C 61.8481 -1.88793 0.75689 0
M  V30 660 C 62.2031 -1.78909 -0.707767 0
M  V30 661 O 61.4961 -1.1794 -1.50999 0
M  V30 662 C 61.6901 -3.38082 1.15911 0
M  V30 663 C 61.5191 -3.62496 2.66133 0
M  V30 664 C 60.2891 -3.7979 3.33298 0
M  V30 665 C 62.4871 -3.62976 3.64353 0
M  V30 666 N 60.4691 -3.91955 4.72487 0
M  V30 667 C 61.8401 -3.80869 4.89222 0
M  V30 668 C 63.8951 -3.46071 3.57965 0
M  V30 669 C 62.5981 -3.83608 6.08471 0
M  V30 670 C 64.6241 -3.50093 4.76643 0
M  V30 671 C 63.9861 -3.68484 6.00332 0
M  V30 672 H 60.0851 -0.709406 0.32904 0
M  V30 673 H 62.6691 -1.42022 1.33183 0
M  V30 674 H 60.8401 -3.83544 0.612238 0
M  V30 675 H 62.5721 -3.96202 0.824989 0
M  V30 676 H 59.3271 -3.79224 2.83701 0
M  V30 677 H 59.7511 -4.01857 5.44831 0
M  V30 678 H 64.3931 -3.30797 2.63311 0
M  V30 679 H 62.1111 -3.97669 7.0348 0
M  V30 680 H 65.6971 -3.38285 4.73344 0
M  V30 681 H 64.5771 -3.71488 6.90627 0
M  V30 682 N 62.0802 -0.821533 -1.34494 0
M  V30 683 C 63.3082 -0.421884 -2.02553 0
M  V30 684 C 63.7232 0.971745 -1.61872 0
M  V30 685 O 63.0802 1.62864 -0.823496 0
M  V30 686 C 63.1312 -0.51285 -3.57844 0
M  V30 687 O 62.8522 -1.85155 -3.97051 0
M  V30 688 C 64.3532 -0.107921 -4.43169 0
M  V30 689 H 61.5732 -0.169482 -0.649243 0
M  V30 690 H 64.1172 -1.1093 -1.71798 0
M  V30 691 H 62.2722 0.126474 -3.87193 0
M  V30 692 H 62.6862 -1.82482 -4.91732 0
M  V30 693 H 64.1602 -0.222657 -5.51551 0
M  V30 694 H 64.6372 0.948401 -4.28838 0
M  V30 695 H 65.2432 -0.720989 -4.19144 0
M  V30 696 N 63.5583 1.46682 -0.576371 0
M  V30 697 C 64.7883 2.06498 -0.0648694 0
M  V30 698 C 65.1963 1.42665 1.24271 0
M  V30 699 O 64.5393 0.523886 1.76071 0
M  V30 700 C 64.6013 3.5904 0.181816 0
M  V30 701 C 64.2653 4.45028 -1.0392 0
M  V30 702 C 65.2623 4.81959 -1.94966 0
M  V30 703 C 62.9473 4.86259 -1.25927 0
M  V30 704 C 64.9413 5.58942 -3.06371 0
M  V30 705 C 62.6283 5.63002 -2.37638 0
M  V30 706 C 63.6263 5.99257 -3.2769 0
M  V30 707 O 63.3143 6.7445 -4.37461 0
M  V30 708 H 63.0463 0.674028 -0.0515987 0
M  V30 709 H 65.6003 1.89393 -0.794951 0
M  V30 710 H 63.8303 3.74429 0.966436 0
M  V30 711 H 65.5193 4.00806 0.641047 0
M  V30 712 H 66.2853 4.50689 -1.79177 0
M  V30 713 H 62.1643 4.57494 -0.567448 0
M  V30 714 H 65.7083 5.87158 -3.76684 0
M  V30 715 H 61.6053 5.93686 -2.53392 0
M  V30 716 H 62.3733 6.92867 -4.35749 0
M  V30 717 N 65.0364 0.313813 1.54444 0
M  V30 718 C 65.9864 -0.571898 2.20711 0
M  V30 719 C 66.9704 -1.08913 1.18435 0
M  V30 720 O 68.1624 -1.02777 1.44104 0
M  V30 721 C 65.2914 -1.7371 2.96108 0
M  V30 722 C 64.3774 -1.23522 4.05713 0
M  V30 723 N 64.7684 -0.452288 5.03774 0
M  V30 724 C 63.0664 -1.51482 4.19487 0
M  V30 725 C 63.7674 -0.183438 5.81411 0
M  V30 726 N 62.7434 -0.766845 5.38164 0
M  V30 727 H 66.5454 0.0336802 2.93881 0
M  V30 728 H 64.0594 0.119192 1.61962 0
M  V30 729 H 66.0564 -2.38329 3.4206 0
M  V30 730 H 64.7164 -2.34625 2.24458 0
M  V30 731 H 65.7274 -0.0960131 5.17811 0
M  V30 732 H 62.4044 -2.13053 3.59047 0
M  V30 733 H 63.7944 0.446216 6.70417 0
M  V30 734 N 66.5145 -1.57545 0.0417849 0
M  V30 735 C 67.7445 -1.96339 -0.642995 0
M  V30 736 C 68.1525 -0.917536 -1.65463 0
M  V30 737 O 67.4955 0.107747 -1.83384 0
M  V30 738 C 67.5575 -3.31333 -1.39494 0
M  V30 739 C 67.2215 -4.53796 -0.540204 0
M  V30 740 C 68.2185 -5.19553 0.189806 0
M  V30 741 C 65.9035 -5.0006 -0.473886 0
M  V30 742 C 67.8975 -6.29904 0.974674 0
M  V30 743 C 65.5845 -6.10289 0.314677 0
M  V30 744 C 66.5825 -6.75072 1.03765 0
M  V30 745 O 66.2705 -7.83183 1.81327 0
M  V30 746 H 66.0025 -0.651241 -0.181277 0
M  V30 747 H 68.5565 -2.05148 0.101665 0
M  V30 748 H 66.7865 -3.19052 -2.18502 0
M  V30 749 H 68.4755 -3.54942 -1.96904 0
M  V30 750 H 69.2415 -4.84774 0.147981 0
M  V30 751 H 65.1205 -4.49433 -1.0262 0
M  V30 752 H 68.6645 -6.80401 1.5395 0
M  V30 753 H 64.5615 -6.44506 0.358174 0
M  V30 754 H 65.3295 -7.99913 1.73438 0
M  V30 755 N 67.9926 0.231505 -1.5589 0
M  V30 756 C 69.2176 0.978689 -1.82856 0
M  V30 757 C 69.6426 1.77559 -0.620846 0
M  V30 758 O 69.0006 1.76119 0.430305 0
M  V30 759 C 69.0486 1.87997 -3.07716 0
M  V30 760 O 68.1526 2.97393 -2.85712 0
M  V30 761 H 67.4936 0.277663 -0.603158 0
M  V30 762 H 70.0236 0.24783 -2.03093 0
M  V30 763 H 70.0336 2.2917 -3.37558 0
M  V30 764 H 68.7086 1.29417 -3.95252 0
M  V30 765 H 67.2856 2.60238 -2.67078 0
M  V30 766 N 69.4707 1.49531 0.497807 0
M  V30 767 C 70.6987 1.62893 1.27567 0
M  V30 768 C 71.1137 0.301585 1.86376 0
M  V30 769 O 70.4707 -0.713335 1.67982 0
M  V30 770 C 70.5217 2.70013 2.40364 0
M  V30 771 O 70.2427 3.976 1.83972 0
M  V30 772 C 71.7437 2.94109 3.31685 0
M  V30 773 H 68.9637 0.548298 0.386794 0
M  V30 774 H 71.5077 1.95584 0.597245 0
M  V30 775 H 69.6627 2.40092 3.04031 0
M  V30 776 H 70.0767 4.56631 2.58047 0
M  V30 777 H 71.5507 3.72788 4.07104 0
M  V30 778 H 72.0277 2.04147 3.88871 0
M  V30 779 H 72.6337 3.2546 2.73781 0
M  V30 780 N 70.9488 -0.749086 1.3866 0
M  V30 781 C 71.8958 -1.86291 1.36251 0
M  V30 782 C 72.8658 -1.64578 0.224347 0
M  V30 783 O 74.0508 -1.86181 0.417279 0
M  V30 784 C 71.1908 -3.23644 1.19786 0
M  V30 785 C 70.3038 -3.57158 2.43027 0
M  V30 786 C 69.4388 -4.83838 2.19258 0
M  V30 787 C 68.4778 -5.10152 3.38247 0
M  V30 788 N 67.6148 -6.28029 3.13884 0
M  V30 789 H 72.4548 -1.87685 2.3147 0
M  V30 790 H 69.9918 -0.917287 1.14997 0
M  V30 791 H 71.9498 -4.0291 1.08254 0
M  V30 792 H 70.5798 -3.21566 0.282031 0
M  V30 793 H 69.6318 -2.72701 2.65214 0
M  V30 794 H 70.9438 -3.7253 3.31697 0
M  V30 795 H 70.0978 -5.71057 2.04888 0
M  V30 796 H 68.8368 -4.70614 1.2796 0
M  V30 797 H 67.8418 -4.21401 3.53131 0
M  V30 798 H 69.0668 -5.25271 4.30427 0
M  V30 799 H 67.0128 -6.1612 2.25238 0
M  V30 800 H 66.9298 -6.43922 3.96106 0
M  V30 801 H 68.1978 -7.18124 3.03179 0
M  V30 802 N 72.4269 -1.23603 -0.977757 0
M  V30 803 C 73.3899 -1.02069 -2.05218 0
M  V30 804 C 74.3899 0.0184305 -1.60789 0
M  V30 805 O 75.5799 -0.221569 -1.72785 0
M  V30 806 C 72.7119 -0.544926 -3.36517 0
M  V30 807 H 73.9049 -1.9742 -2.25755 0
M  V30 808 H 71.4579 -1.05684 -1.15155 0
M  V30 809 H 72.1929 0.412241 -3.21669 0
M  V30 810 H 71.9779 -1.2948 -3.70105 0
M  V30 811 H 73.4679 -0.414985 -4.15533 0
M  V30 812 N 73.905 1.17692 -1.04816 0
M  V30 813 C 75.135 1.91508 -0.775128 0
M  V30 814 C 75.543 1.76844 0.67253 0
M  V30 815 O 74.886 1.10057 1.47082 0
M  V30 816 C 74.948 3.43167 -1.0713 0
M  V30 817 C 74.612 3.81612 -2.51438 0
M  V30 818 C 75.609 3.84772 -3.49638 0
M  V30 819 C 73.294 4.12687 -2.86348 0
M  V30 820 C 75.288 4.18469 -4.80794 0
M  V30 821 C 72.975 4.46053 -4.17708 0
M  V30 822 C 73.973 4.48921 -5.14741 0
M  V30 823 O 73.661 4.81504 -6.43746 0
M  V30 824 H 73.393 0.614575 -0.281555 0
M  V30 825 H 75.947 1.50206 -1.40098 0
M  V30 826 H 74.177 3.84745 -0.388342 0
M  V30 827 H 75.866 3.98239 -0.784883 0
M  V30 828 H 76.632 3.60893 -3.24008 0
M  V30 829 H 72.511 4.09627 -2.11486 0
M  V30 830 H 76.055 4.20623 -5.56527 0
M  V30 831 H 71.952 4.69393 -4.43103 0
M  V30 832 H 72.72 4.99377 -6.4851 0
M  V30 833 N 75.3831 0.828654 1.34056 0
M  V30 834 C 76.6081 0.431637 2.02859 0
M  V30 835 C 77.0331 -0.956339 1.61975 0
M  V30 836 O 76.3911 -1.62338 0.807228 0
M  V30 837 C 76.4391 0.548323 3.56407 0
M  V30 838 O 75.5431 -0.429556 4.10157 0
M  V30 839 H 74.8841 0.176886 0.640006 0
M  V30 840 H 77.4141 1.12066 1.71179 0
M  V30 841 H 77.4241 0.426196 4.05768 0
M  V30 842 H 76.0991 1.5606 3.8551 0
M  V30 843 H 74.6761 -0.265836 3.71951 0
M  V30 844 N 76.8612 -1.46375 0.584142 0
M  V30 845 C 78.1072 -2.03248 0.0787103 0
M  V30 846 C 78.4622 -1.44737 -1.26763 0
M  V30 847 O 77.7552 -0.603625 -1.81843 0
M  V30 848 C 77.9492 -3.57373 -0.0439342 0
M  V30 849 C 77.7782 -4.30831 1.28897 0
M  V30 850 C 76.5482 -4.69683 1.8635 0
M  V30 851 C 78.7462 -4.64278 2.21248 0
M  V30 852 N 76.7282 -5.27898 3.13365 0
M  V30 853 C 78.0992 -5.23078 3.32851 0
M  V30 854 C 80.1542 -4.46209 2.20911 0
M  V30 855 C 78.8572 -5.65715 4.44251 0
M  V30 856 C 80.8832 -4.89864 3.31341 0
M  V30 857 C 80.2452 -5.48736 4.41665 0
M  V30 858 H 76.3442 -0.778714 0.0716144 0
M  V30 859 H 78.9282 -1.78509 0.777355 0
M  V30 860 H 77.0992 -3.81823 -0.711749 0
M  V30 861 H 78.8312 -4.00892 -0.553881 0
M  V30 862 H 75.5862 -4.52488 1.39826 0
M  V30 863 H 76.0102 -5.61525 3.78178 0
M  V30 864 H 80.6522 -4.00027 1.36888 0
M  V30 865 H 78.3702 -6.10875 5.29015 0
M  V30 866 H 81.9562 -4.77634 3.322 0
M  V30 867 H 80.8362 -5.81898 5.25704 0
M  V30 868 N 78.3393 -0.321999 -1.54275 0
M  V30 869 C 79.2873 0.560206 -2.25753 0
M  V30 870 C 80.2813 1.11984 -1.27106 0
M  V30 871 O 81.4873 1.06806 -1.44888 0
M  V30 872 H 77.8623 0.199304 -0.725108 0
M  V30 873 H 79.8333 -0.0649365 -2.98329 0
M  V30 874 C 78.5823 1.71023 -3.02731 0
M  V30 875 H 77.9053 1.28885 -3.78456 0
M  V30 876 H 79.3453 2.30314 -3.55993 0
M  V30 877 C 77.8043 2.62692 -2.10938 0
M  V30 878 O 78.3343 3.64364 -1.6912 0
M  V30 879 N 76.5403 2.30891 -1.76459 0
M  V30 880 H 76.0873 1.48253 -2.10663 0
M  V30 881 H 76.0453 2.92487 -1.1532 0
M  V30 882 N 79.8174 1.5752 -0.0501392 0
M  V30 883 C 81.0664 1.91827 0.623328 0
M  V30 884 C 81.3794 0.930222 1.72065 0
M  V30 885 O 82.5854 1.1653 2.4522 0
M  V30 886 C 81.0414 3.40692 1.16003 0
M  V30 887 C 80.6494 4.479 0.0948811 0
M  V30 888 C 82.3934 3.84034 1.80881 0
M  V30 889 C 80.3004 5.87879 0.644411 0
M  V30 890 H 79.2304 0.715918 0.236596 0
M  V30 891 H 81.8814 1.83115 -0.118861 0
M  V30 892 H 80.2634 3.44405 1.9545 0
M  V30 893 H 81.4374 4.55775 -0.678675 0
M  V30 894 H 79.7524 4.13892 -0.45637 0
M  V30 895 H 82.3494 4.85984 2.22988 0
M  V30 896 H 82.6924 3.20225 2.6601 0
M  V30 897 H 83.2254 3.82833 1.0809 0
M  V30 898 H 79.9644 6.55282 -0.169229 0
M  V30 899 H 79.4844 5.83567 1.38598 0
M  V30 900 H 81.1634 6.37098 1.12763 0
M  V30 901 N 81.2955 -0.223234 1.56011 0
M  V30 902 C 82.5205 -0.968978 1.83373 0
M  V30 903 C 82.9455 -1.77227 0.630254 0
M  V30 904 O 82.3035 -1.76345 -0.420959 0
M  V30 905 C 82.3515 -1.86363 3.08709 0
M  V30 906 O 81.4555 -2.95873 2.87285 0
M  V30 907 H 80.7965 -0.274461 0.604622 0
M  V30 908 H 83.3265 -0.237056 2.03222 0
M  V30 909 H 83.3365 -2.27376 3.38768 0
M  V30 910 H 82.0115 -1.27319 3.95933 0
M  V30 911 H 80.5885 -2.58818 2.68454 0
M  V30 912 N 82.7736 -1.49793 -0.48987 0
M  V30 913 C 84.1896 -1.36803 -0.822022 0
M  V30 914 C 84.3896 -0.409652 -1.97292 0
M  V30 915 O 83.4456 0.154614 -2.52026 0
M  V30 916 C 84.7586 -2.77768 -1.15175 0
M  V30 917 C 86.3066 -2.86549 -1.25931 0
M  V30 918 C 86.7816 -4.28306 -1.62228 0
M  V30 919 N 88.2726 -4.31169 -1.69256 0
M  V30 920 C 89.0076 -5.37832 -1.98807 0
M  V30 921 N 88.5036 -6.54726 -2.26507 0
M  V30 922 N 90.2966 -5.25258 -2.00152 0
M  V30 923 H 82.4476 -2.10691 0.268881 0
M  V30 924 H 84.7106 -0.946241 0.057728 0
M  V30 925 H 84.4166 -3.49648 -0.379335 0
M  V30 926 H 84.2906 -3.13836 -2.09253 0
M  V30 927 H 86.6776 -2.14899 -2.02243 0
M  V30 928 H 86.7586 -2.54049 -0.298776 0
M  V30 929 H 86.4026 -5.00486 -0.864622 0
M  V30 930 H 86.3326 -4.58279 -2.594 0
M  V30 931 H 88.8236 -3.4687 -1.49965 0
M  V30 932 H 89.1366 -7.31833 -2.48276 0
M  V30 933 H 87.4816 -6.57933 -2.23939 0
M  V30 934 H 90.6726 -4.32938 -1.77996 0
M  V30 935 H 90.8456 -6.08476 -2.22848 0
M  V30 936 N 84.2517 0.741722 -1.39055 0
M  V30 937 C 85.1987 1.85566 -1.37237 0
M  V30 938 C 86.1687 1.64457 -0.233072 0
M  V30 939 O 87.3537 1.85957 -0.427147 0
M  V30 940 C 84.4937 3.23004 -1.215 0
M  V30 941 C 83.6067 3.55864 -2.44918 0
M  V30 942 C 82.7417 4.82669 -2.21821 0
M  V30 943 C 81.7807 5.08351 -3.40948 0
M  V30 944 N 80.9177 6.26356 -3.17211 0
M  V30 945 H 85.7577 1.86455 -2.32462 0
M  V30 946 H 83.2947 0.911176 -1.15482 0
M  V30 947 H 85.2527 4.02331 -1.10389 0
M  V30 948 H 83.8827 3.21411 -0.29908 0
M  V30 949 H 82.9347 2.7129 -2.66657 0
M  V30 950 H 84.2467 3.70765 -3.33668 0
M  V30 951 H 83.4007 5.69962 -2.07914 0
M  V30 952 H 82.1397 4.69929 -1.30454 0
M  V30 953 H 81.1447 4.19522 -3.55361 0
M  V30 954 H 82.3697 5.22981 -4.33207 0
M  V30 955 H 80.3157 6.14917 -2.28502 0
M  V30 956 H 80.2327 6.41813 -3.99515 0
M  V30 957 H 81.5007 7.16506 -3.06984 0
M  V30 958 N 85.7298 1.2412 0.971189 0
M  V30 959 C 86.9598 1.10415 1.7462 0
M  V30 960 C 87.3678 -0.346462 1.86001 0
M  V30 961 O 86.7108 -1.25104 1.34517 0
M  V30 962 C 86.7728 1.66596 3.18568 0
M  V30 963 C 86.4368 3.15446 3.3067 0
M  V30 964 C 87.4338 4.12636 3.16271 0
M  V30 965 C 85.1188 3.55337 3.55022 0
M  V30 966 C 87.1128 5.47699 3.26044 0
M  V30 967 C 84.7998 4.90542 3.64434 0
M  V30 968 C 85.7978 5.86532 3.49956 0
M  V30 969 O 85.4858 7.19279 3.59017 0
M  V30 970 H 85.2178 0.386616 0.55453 0
M  V30 971 H 87.7718 1.64633 1.22821 0
M  V30 972 H 86.0018 1.06808 3.71657 0
M  V30 973 H 87.6908 1.48232 3.77865 0
M  V30 974 H 88.4568 3.8316 2.97344 0
M  V30 975 H 84.3358 2.8113 3.65359 0
M  V30 976 H 87.8798 6.22603 3.14661 0
M  V30 977 H 83.7768 5.19691 3.82873 0
M  V30 978 H 84.5448 7.27153 3.75754 0
M  V30 979 N 87.2079 -1.17134 1.05439 0
M  V30 980 C 88.4479 -1.89137 0.77502 0
M  V30 981 C 88.8119 -1.79345 -0.685526 0
M  V30 982 O 90.0129 -2.46188 -1.0791 0
M  V30 983 C 88.2839 -3.35003 1.2453 0
M  V30 984 S 89.8429 -4.24952 1.09367 0
M  V30 985 H 86.6609 -0.652949 0.281387 0
M  V30 986 H 89.2629 -1.4145 1.34953 0
M  V30 987 H 87.9669 -3.39666 2.30338 0
M  V30 988 H 87.4979 -3.87736 0.665166 0
M  V30 989 H 89.5129 -4.96196 0.0193397 0
M  V30 990 N 88.686 -0.835752 -1.33615 0
M  V30 991 C 89.618 -0.224151 -2.28101 0
M  V30 992 C 90.631 0.593331 -1.51603 0
M  V30 993 O 91.82 0.420911 -1.73466 0
M  V30 994 C 88.92 0.703309 -3.31522 0
M  V30 995 C 88.093 -0.0741528 -4.37337 0
M  V30 996 C 87.152 0.776176 -5.20444 0
M  V30 997 O 86.178 0.216506 -5.68788 0
M  V30 998 N 87.38 2.09401 -5.41416 0
M  V30 999 H 90.145 -1.03598 -2.81225 0
M  V30 1000 H 87.706 -0.69392 -1.46275 0
M  V30 1001 H 89.698 1.27707 -3.84022 0
M  V30 1002 H 88.268 1.41585 -2.78698 0
M  V30 1003 H 87.488 -0.82928 -3.85378 0
M  V30 1004 H 88.776 -0.608863 -5.05144 0
M  V30 1005 H 88.174 2.57229 -5.03835 0
M  V30 1006 H 86.731 2.61633 -5.96985 0
M  V30 1007 N 90.1641 1.46063 -0.591896 0
M  V30 1008 C 91.1121 2.32124 0.148739 0
M  V30 1009 C 92.1061 1.45035 0.875286 0
M  V30 1010 O 93.3121 1.61609 0.792632 0
M  V30 1011 H 89.6871 0.749024 0.066832 0
M  V30 1012 H 91.6581 2.92392 -0.595783 0
M  V30 1013 C 90.4071 3.28373 1.1431 0
M  V30 1014 H 89.7301 3.95371 0.59346 0
M  V30 1015 H 91.1701 3.91352 1.63155 0
M  V30 1016 C 89.6291 2.54393 2.20875 0
M  V30 1017 O 90.1591 2.31373 3.28374 0
M  V30 1018 N 88.3651 2.14797 1.95731 0
M  V30 1019 H 87.9121 2.33719 1.08319 0
M  V30 1020 H 87.8701 1.65619 2.67241 0
M  V30 1021 N 91.6422 0.330177 1.54103 0
M  V30 1022 C 93.0582 -0.0222371 1.59585 0
M  V30 1023 C 93.2582 -1.49902 1.34654 0
M  V30 1024 O 92.3142 -2.25592 1.13421 0
M  V30 1025 C 93.6272 0.401932 2.98002 0
M  V30 1026 C 95.1752 0.353145 3.11001 0
M  V30 1027 C 95.6502 0.752576 4.51775 0
M  V30 1028 N 97.1412 0.706239 4.57784 0
M  V30 1029 C 97.8762 0.987417 5.64834 0
M  V30 1030 N 97.3722 1.33607 6.79795 0
M  V30 1031 N 99.1652 0.91254 5.54643 0
M  V30 1032 H 91.3162 1.29228 1.68564 0
M  V30 1033 H 93.5792 0.525906 0.78875 0
M  V30 1034 H 93.2852 1.4311 3.21267 0
M  V30 1035 H 93.1592 -0.229699 3.765 0
M  V30 1036 H 95.5462 -0.666822 2.87467 0
M  V30 1037 H 95.6272 1.0198 2.34593 0
M  V30 1038 H 95.2712 1.77049 4.76042 0
M  V30 1039 H 95.2012 0.0635409 5.26562 0
M  V30 1040 H 97.6922 0.44889 3.75224 0
M  V30 1041 H 98.0052 1.53582 7.57385 0
M  V30 1042 H 96.3502 1.37439 6.81275 0
M  V30 1043 H 99.5412 0.639601 4.6371 0
M  V30 1044 H 99.7142 1.13503 6.37982 0
M  V30 1045 N 93.1203 -1.57491 0.0584922 0
M  V30 1046 C 94.3503 -1.9701 -0.622134 0
M  V30 1047 C 94.7583 -0.935034 -1.6448 0
M  V30 1048 O 94.1013 0.0882904 -1.83488 0
M  V30 1049 C 94.1633 -3.32794 -1.35972 0
M  V30 1050 C 93.8273 -4.54343 -0.492043 0
M  V30 1051 C 94.8243 -5.19323 0.244901 0
M  V30 1052 C 92.5093 -5.00534 -0.420821 0
M  V30 1053 C 94.5033 -6.28835 1.04143 0
M  V30 1054 C 92.1903 -6.09921 0.379389 0
M  V30 1055 C 93.1883 -6.73933 1.10919 0
M  V30 1056 O 92.8763 -7.81216 1.89623 0
M  V30 1057 H 92.6083 -0.653127 -0.174359 0
M  V30 1058 H 95.1623 -2.05029 0.123418 0
M  V30 1059 H 93.3923 -3.21351 -2.15105 0
M  V30 1060 H 95.0813 -3.5701 -1.93129 0
M  V30 1061 H 95.8473 -4.8459 0.19939 0
M  V30 1062 H 91.7263 -4.50496 -0.978474 0
M  V30 1063 H 95.2703 -6.7873 1.61157 0
M  V30 1064 H 91.1673 -6.44089 0.426512 0
M  V30 1065 H 91.9353 -7.98029 1.81913 0
M  V30 1066 N 94.5984 0.214957 -1.56127 0
M  V30 1067 C 95.8264 0.955092 -1.83536 0
M  V30 1068 C 96.2414 1.77677 -0.638472 0
M  V30 1069 O 95.5984 1.78219 0.392968 0
M  V30 1070 C 95.6494 1.86734 -3.09536 0
M  V30 1071 O 95.3704 1.07887 -4.24608 0
M  V30 1072 C 96.8714 2.72082 -3.4998 0
M  V30 1073 H 94.0914 0.279611 -0.609966 0
M  V30 1074 H 96.6354 0.228197 -2.03223 0
M  V30 1075 H 94.7904 2.5481 -2.91806 0
M  V30 1076 H 95.2044 1.69872 -4.9623 0
M  V30 1077 H 96.6784 3.31782 -4.41163 0
M  V30 1078 H 97.1554 3.44806 -2.7204 0
M  V30 1079 H 97.7614 2.09409 -3.70173 0
M  V30 1080 N 96.0765 1.50051 0.48192 0
M  V30 1081 C 97.3535 1.51009 1.2432 0
M  V30 1082 C 97.7335 0.248587 2.09631 0
M  V30 1083 O 97.0815 -0.768409 2.15192 0
M  V30 1084 C 97.2915 2.79981 2.08355 0
M  V30 1085 C 98.6395 3.3022 2.66908 0
M  V30 1086 O 99.6635 2.81228 2.18607 0
M  V30 1087 O 98.5225 4.15595 3.54884 0
M  V30 1088 H 95.6165 0.605239 0.563573 0
M  V30 1089 H 98.1625 1.62332 0.494627 0
M  V30 1090 H 96.9345 3.63275 1.45419 0
M  V30 1091 H 96.5575 2.7161 2.90368 0
M  V30 1092 N 97.5546 -0.734337 1.39446 0
M  V30 1093 C 98.4846 -1.86155 1.40955 0
M  V30 1094 C 99.4656 -1.67898 0.272827 0
M  V30 1095 O 100.651 -1.88207 0.478743 0
M  V30 1096 C 97.7806 -3.23912 1.25294 0
M  V30 1097 C 96.7346 -3.56808 2.36373 0
M  V30 1098 C 96.0606 -4.93508 2.058 0
M  V30 1099 C 97.3606 -3.59713 3.78687 0
M  V30 1100 H 99.0546 -1.8515 2.35287 0
M  V30 1101 H 96.6006 -0.889367 1.13253 0
M  V30 1102 H 98.5536 -4.02443 1.2497 0
M  V30 1103 H 97.2776 -3.25446 0.274308 0
M  V30 1104 H 95.9366 -2.80606 2.35914 0
M  V30 1105 H 95.5846 -4.91623 1.06374 0
M  V30 1106 H 95.2846 -5.16486 2.80208 0
M  V30 1107 H 96.8086 -5.74396 2.07128 0
M  V30 1108 H 98.2226 -4.2832 3.81071 0
M  V30 1109 H 96.6196 -3.94209 4.52459 0
M  V30 1110 H 97.6896 -2.59504 4.09617 0
M  V30 1111 N 99.0327 -1.24633 -0.964593 0
M  V30 1112 C 100.279 -1.08949 -1.71049 0
M  V30 1113 C 100.612 0.370302 -1.90637 0
M  V30 1114 O 99.8867 1.27349 -1.47011 0
M  V30 1115 C 100.17 -1.83329 -3.0994 0
M  V30 1116 C 100.023 -3.37077 -2.97824 0
M  V30 1117 C 101.342 -1.60846 -4.09654 0
M  V30 1118 H 98.4607 -0.397178 -0.620821 0
M  V30 1119 H 101.103 -1.5334 -1.12191 0
M  V30 1120 H 99.2527 -1.45597 -3.60186 0
M  V30 1121 H 100.925 -3.84425 -2.5498 0
M  V30 1122 H 99.1677 -3.65298 -2.33965 0
M  V30 1123 H 99.8387 -3.84324 -3.96231 0
M  V30 1124 H 102.315 -1.93674 -3.68279 0
M  V30 1125 H 101.191 -2.1534 -5.04896 0
M  V30 1126 H 101.452 -0.547434 -4.38698 0
M  V30 1127 N 100.511 1.16574 -1.06058 0
M  V30 1128 C 101.474 2.19085 -0.673392 0
M  V30 1129 C 102.474 1.5835 0.279648 0
M  V30 1130 O 103.664 1.74088 0.0623488 0
M  V30 1131 C 100.796 3.40899 0.00954234 0
M  V30 1132 H 101.989 2.54853 -1.58081 0
M  V30 1133 H 99.5418 1.30808 -0.855516 0
M  V30 1134 H 100.277 3.10684 0.929826 0
M  V30 1135 H 100.062 3.86233 -0.67573 0
M  V30 1136 H 101.552 4.1675 0.266245 0
M  V30 1137 N 101.989 0.842826 1.3317 0
M  V30 1138 C 103.238 0.436738 1.96915 0
M  V30 1139 C 103.551 -1.01025 1.67491 0
M  V30 1140 O 104.757 -1.5212 2.24881 0
M  V30 1141 C 103.213 0.730021 3.52418 0
M  V30 1142 C 102.821 2.19195 3.90714 0
M  V30 1143 C 104.565 0.391076 4.22695 0
M  V30 1144 C 102.472 2.42907 5.39212 0
M  V30 1145 H 101.402 0.15958 0.736919 0
M  V30 1146 H 104.053 1.03196 1.51733 0
M  V30 1147 H 102.435 0.0643755 3.95948 0
M  V30 1148 H 103.609 2.8984 3.58231 0
M  V30 1149 H 101.924 2.49425 3.33431 0
M  V30 1150 H 104.521 0.545817 5.31907 0
M  V30 1151 H 104.864 -0.666294 4.10933 0
M  V30 1152 H 105.397 1.01212 3.84709 0
M  V30 1153 H 102.136 3.47224 5.55982 0
M  V30 1154 H 101.656 1.76827 5.73142 0
M  V30 1155 H 103.335 2.2626 6.06148 0
M  V30 1156 N 103.467 -1.45747 0.599634 0
M  V30 1157 C 104.399 -2.28628 -0.161879 0
M  V30 1158 C 105.412 -1.39494 -0.839367 0
M  V30 1159 O 106.601 -1.63941 -0.706089 0
M  V30 1160 C 103.701 -3.15014 -1.24976 0
M  V30 1161 C 102.874 -4.32378 -0.660935 0
M  V30 1162 C 101.933 -5.00033 -1.63869 0
M  V30 1163 O 100.959 -5.57085 -1.1681 0
M  V30 1164 N 102.161 -4.98589 -2.97303 0
M  V30 1165 H 104.926 -2.94624 0.549265 0
M  V30 1166 H 102.487 -1.55847 0.438565 0
M  V30 1167 H 104.479 -3.5714 -1.9035 0
M  V30 1168 H 103.049 -2.5098 -1.86354 0
M  V30 1169 H 102.269 -3.9383 0.170688 0
M  V30 1170 H 103.557 -5.08197 -0.247619 0
M  V30 1171 H 102.955 -4.53514 -3.38145 0
M  V30 1172 H 101.512 -5.44603 -3.58121 0
M  V30 1173 N 104.945 -0.338344 -1.53925 0
M  V30 1174 C 105.893 0.536231 -2.26335 0
M  V30 1175 C 106.887 1.1063 -1.28286 0
M  V30 1176 O 108.093 1.05264 -1.46012 0
M  V30 1177 H 104.468 0.191602 -0.727181 0
M  V30 1178 H 106.439 -0.0965747 -2.98244 0
M  V30 1179 C 105.188 1.67803 -3.04528 0
M  V30 1180 H 104.511 1.24864 -3.79801 0
M  V30 1181 H 105.951 2.26526 -3.58416 0
M  V30 1182 C 104.41 2.60439 -2.13712 0
M  V30 1183 O 104.94 3.6255 -1.72975 0
M  V30 1184 N 103.146 2.29006 -1.78898 0
M  V30 1185 H 102.693 1.46011 -2.12223 0
M  V30 1186 H 102.651 2.91248 -1.18416 0
M  V30 1187 N 106.423 1.57458 -0.0668435 0
M  V30 1188 C 107.37 2.12439 0.902122 0
M  V30 1189 C 108.34 1.03565 1.2986 0
M  V30 1190 O 109.525 1.312 1.38532 0
M  V30 1191 C 106.665 2.6865 2.16614 0
M  V30 1192 C 105.778 3.91663 1.82274 0
M  V30 1193 C 104.913 4.36134 3.0325 0
M  V30 1194 C 103.952 5.51808 2.64904 0
M  V30 1195 N 103.089 5.9126 3.78624 0
M  V30 1196 H 107.929 2.94934 0.426382 0
M  V30 1197 H 105.466 1.4575 0.198819 0
M  V30 1198 H 107.424 2.99346 2.90599 0
M  V30 1199 H 106.054 1.88928 2.61737 0
M  V30 1200 H 105.106 3.6746 0.983719 0
M  V30 1201 H 106.418 4.75693 1.50059 0
M  V30 1202 H 105.572 4.68465 3.85519 0
M  V30 1203 H 104.311 3.50948 3.38655 0
M  V30 1204 H 103.316 5.19133 1.81055 0
M  V30 1205 H 104.541 6.38722 2.30675 0
M  V30 1206 H 102.487 5.09024 4.138 0
M  V30 1207 H 102.404 6.70018 3.5016 0
M  V30 1208 H 103.672 6.28212 4.61486 0
M  V30 1209 N 107.901 -0.206675 1.56239 0
M  V30 1210 C 108.849 -1.27571 1.94495 0
M  V30 1211 C 109.843 -1.47737 0.828862 0
M  V30 1212 O 111.049 -1.48735 1.0138 0
M  V30 1213 H 107.424 -0.428029 0.6183 0
M  V30 1214 H 109.395 -0.925961 2.8367 0
M  V30 1215 C 108.144 -2.61568 2.29079 0
M  V30 1216 H 107.467 -2.46863 3.14482 0
M  V30 1217 H 108.907 -3.35144 2.5972 0
M  V30 1218 C 107.366 -3.17695 1.12123 0
M  V30 1219 O 107.896 -3.99801 0.390153 0
M  V30 1220 N 106.102 -2.76276 0.901097 0
M  V30 1221 H 105.649 -2.09613 1.49733 0
M  V30 1222 H 105.607 -3.1417 0.120319 0
M  V30 1223 N 109.379 -1.50304 -0.473955 0
M  V30 1224 C 110.289 -1.7174 -1.5982 0
M  V30 1225 C 111.305 -0.600457 -1.63311 0
M  V30 1226 O 112.481 -0.878441 -1.81233 0
M  V30 1227 C 109.546 -1.80427 -2.96052 0
M  V30 1228 C 108.607 -3.04148 -3.02972 0
M  V30 1229 C 107.84 -3.12411 -4.32706 0
M  V30 1230 O 108.063 -2.27542 -5.23049 0
M  V30 1231 O 106.997 -4.05113 -4.45159 0
M  V30 1232 H 110.823 -2.67035 -1.44657 0
M  V30 1233 H 108.408 -1.34366 -0.653148 0
M  V30 1234 H 110.29 -1.88338 -3.7697 0
M  V30 1235 H 108.965 -0.883156 -3.11419 0
M  V30 1236 H 107.872 -3.0174 -2.21142 0
M  V30 1237 H 109.205 -3.95829 -2.92541 0
M  V30 1238 N 110.857 0.726932 -1.39834 0
M  V30 1239 C 112.106 1.48214 -1.36805 0
M  V30 1240 C 112.419 1.95576 0.0305291 0
M  V30 1241 O 113.625 2.7088 0.183417 0
M  V30 1242 C 112.081 2.67854 -2.40379 0
M  V30 1243 C 111.689 2.27408 -3.85992 0
M  V30 1244 C 113.433 3.45641 -2.46439 0
M  V30 1245 C 111.34 3.43819 -4.81189 0
M  V30 1246 H 110.27 0.556606 -0.508631 0
M  V30 1247 H 112.921 0.792216 -1.65518 0
M  V30 1248 H 111.303 3.3896 -2.04749 0
M  V30 1249 H 112.477 1.63795 -4.30706 0
M  V30 1250 H 110.792 1.62692 -3.83302 0
M  V30 1251 H 113.389 4.32244 -3.14753 0
M  V30 1252 H 113.732 3.88669 -1.49139 0
M  V30 1253 H 114.265 2.8157 -2.81004 0
M  V30 1254 H 111.004 3.05834 -5.79781 0
M  V30 1255 H 110.524 4.06385 -4.41148 0
M  V30 1256 H 112.203 4.10043 -5.00474 0
M  V30 1257 N 112.336 1.25143 0.95797 0
M  V30 1258 C 113.613 1.00472 1.67823 0
M  V30 1259 C 113.993 -0.470056 2.058 0
M  V30 1260 O 113.341 -1.44663 1.76875 0
M  V30 1261 C 113.551 1.9372 2.90299 0
M  V30 1262 C 114.899 2.21371 3.62326 0
M  V30 1263 O 115.923 1.91451 3.00375 0
M  V30 1264 O 114.782 2.72231 4.7387 0
M  V30 1265 H 111.876 0.380752 0.734137 0
M  V30 1266 H 114.422 1.36283 1.01119 0
M  V30 1267 H 113.194 2.93316 2.59001 0
M  V30 1268 H 112.817 1.58286 3.64735 0
M  V30 1269 N 113.814 -1.1601 1.06675 0
M  V30 1270 C 115.044 -1.90251 0.805497 0
M  V30 1271 C 115.452 -1.77891 -0.64431 0
M  V30 1272 O 114.795 -1.12383 -1.45313 0
M  V30 1273 C 114.857 -3.41419 1.12576 0
M  V30 1274 C 114.521 -3.77564 2.57477 0
M  V30 1275 C 115.518 -3.79161 3.55715 0
M  V30 1276 C 113.203 -4.08079 2.92877 0
M  V30 1277 C 115.197 -4.10767 4.8739 0
M  V30 1278 C 112.884 -4.39351 4.24751 0
M  V30 1279 C 113.882 -4.40675 5.21818 0
M  V30 1280 O 113.57 -4.71202 6.51325 0
M  V30 1281 H 113.302 -0.610018 0.291297 0
M  V30 1282 H 115.856 -1.47958 1.4247 0
M  V30 1283 H 114.086 -3.84079 0.449503 0
M  V30 1284 H 115.775 -3.9694 0.84814 0
M  V30 1285 H 116.541 -3.55693 3.29708 0
M  V30 1286 H 112.42 -4.06211 2.17976 0
M  V30 1287 H 115.964 -4.11715 5.63148 0
M  V30 1288 H 111.861 -4.62285 4.50514 0
M  V30 1289 H 112.629 -4.88996 6.56373 0
M  V30 1290 N 115.292 -0.849877 -1.32721 0
M  V30 1291 C 116.222 -0.306308 -2.31482 0
M  V30 1292 C 117.203 0.591952 -1.59468 0
M  V30 1293 O 118.388 0.513199 -1.87296 0
M  V30 1294 C 115.518 0.510204 -3.43532 0
M  V30 1295 C 114.472 -0.293209 -4.26994 0
M  V30 1296 C 113.798 0.647743 -5.30762 0
M  V30 1297 C 115.098 -1.51634 -4.99804 0
M  V30 1298 H 116.792 -1.13153 -2.77195 0
M  V30 1299 H 114.338 -0.545553 -1.33266 0
M  V30 1300 H 116.291 0.900856 -4.11658 0
M  V30 1301 H 115.015 1.36874 -2.96535 0
M  V30 1302 H 113.674 -0.665555 -3.60508 0
M  V30 1303 H 113.322 1.50299 -4.8002 0
M  V30 1304 H 113.022 0.11422 -5.87489 0
M  V30 1305 H 114.546 1.03567 -6.01753 0
M  V30 1306 H 115.96 -1.19824 -5.60638 0
M  V30 1307 H 114.357 -1.98745 -5.66234 0
M  V30 1308 H 115.427 -2.28018 -4.27943 0
M  V30 1309 N 116.77 1.45427 -0.607355 0
M  V30 1310 C 117.718 2.32269 0.12411 0
M  V30 1311 C 118.712 1.45955 0.859854 0
M  V30 1312 O 119.918 1.6244 0.775447 0
M  V30 1313 H 116.293 0.749691 0.0588839 0
M  V30 1314 H 118.264 2.91743 -0.626762 0
M  V30 1315 C 117.013 3.29567 1.1082 0
M  V30 1316 H 116.336 3.95978 0.551492 0
M  V30 1317 H 117.776 3.93061 1.58995 0
M  V30 1318 C 116.235 2.56722 2.18164 0
M  V30 1319 O 116.765 2.34842 3.25902 0
M  V30 1320 N 114.971 2.16861 1.93442 0
M  V30 1321 H 114.518 2.34855 1.05834 0
M  V30 1322 H 114.476 1.68444 2.65469 0
M  V30 1323 N 118.248 0.346503 1.53744 0
M  V30 1324 C 119.195 -0.508914 2.25119 0
M  V30 1325 C 120.165 -1.09315 1.25058 0
M  V30 1326 O 121.35 -1.12921 1.53797 0
M  V30 1327 C 118.49 -1.65246 3.02965 0
M  V30 1328 C 117.603 -1.09525 4.17886 0
M  V30 1329 C 116.738 -2.20634 4.83212 0
M  V30 1330 C 115.777 -1.62279 5.90196 0
M  V30 1331 N 114.914 -2.67143 6.49291 0
M  V30 1332 H 119.754 0.106283 2.9781 0
M  V30 1333 H 117.291 0.0642227 1.4696 0
M  V30 1334 H 119.249 -2.32574 3.4636 0
M  V30 1335 H 117.879 -2.2386 2.32565 0
M  V30 1336 H 116.931 -0.312818 3.79112 0
M  V30 1337 H 118.243 -0.628444 4.94825 0
M  V30 1338 H 117.397 -2.95821 5.29693 0
M  V30 1339 H 116.136 -2.70659 4.05703 0
M  V30 1340 H 115.141 -0.855989 5.43096 0
M  V30 1341 H 116.366 -1.13102 6.69615 0
M  V30 1342 H 114.312 -3.16417 5.74645 0
M  V30 1343 H 114.229 -2.25093 7.21713 0
M  V30 1344 H 115.497 -3.4209 7.00425 0
M  V30 1345 N 119.726 -1.57421 0.075193 0
M  V30 1346 C 120.972 -1.93905 -0.594025 0
M  V30 1347 C 121.305 -0.955701 -1.69056 0
M  V30 1348 O 120.58 0.0145373 -1.94495 0
M  V30 1349 C 120.863 -3.40638 -1.1678 0
M  V30 1350 C 120.716 -4.49733 -0.0776792 0
M  V30 1351 C 122.035 -3.88259 -2.07228 0
M  V30 1352 H 119.154 -0.705105 -0.214466 0
M  V30 1353 H 121.796 -1.8947 0.141854 0
M  V30 1354 H 119.946 -3.44549 -1.79494 0
M  V30 1355 H 121.618 -4.57942 0.555573 0
M  V30 1356 H 119.861 -4.29751 0.591286 0
M  V30 1357 H 120.532 -5.49549 -0.519603 0
M  V30 1358 H 123.008 -3.86376 -1.54445 0
M  V30 1359 H 121.884 -4.91533 -2.44308 0
M  V30 1360 H 122.145 -3.26396 -2.98191 0
M  V30 1361 N 121.204 0.198386 -1.56346 0
M  V30 1362 C 122.134 1.24865 -1.9731 0
M  V30 1363 C 123.115 1.47651 -0.844576 0
M  V30 1364 O 124.3 1.59444 -1.10866 0
M  V30 1365 C 121.43 2.59358 -2.30977 0
M  V30 1366 C 120.384 2.5119 -3.46537 0
M  V30 1367 C 119.71 3.89926 -3.65871 0
M  V30 1368 C 121.01 2.03977 -4.80823 0
M  V30 1369 H 122.704 0.908252 -2.85291 0
M  V30 1370 H 120.25 0.435462 -1.37258 0
M  V30 1371 H 122.203 3.33011 -2.58228 0
M  V30 1372 H 120.927 2.95132 -1.39874 0
M  V30 1373 H 119.586 1.79993 -3.19371 0
M  V30 1374 H 119.234 4.23046 -2.72105 0
M  V30 1375 H 118.934 3.85336 -4.4361 0
M  V30 1376 H 120.458 4.65205 -3.95495 0
M  V30 1377 H 121.872 2.67386 -5.07127 0
M  V30 1378 H 120.269 2.10397 -5.62008 0
M  V30 1379 H 121.339 0.992861 -4.74626 0
M  V30 1380 N 122.682 1.50554 0.465978 0
M  V30 1381 C 124.093 1.54599 1.04671 0
M  V30 1382 C 124.444 0.352488 1.93008 0
M  V30 1383 O 123.569 -0.534044 2.09707 0
M  V30 1384 C 124.164 2.80166 1.90505 0
M  V30 1385 C 122.723 2.86876 2.43678 0
M  V30 1386 C 121.87 2.48947 1.22151 0
M  V30 1387 H 124.821 1.56744 0.248384 0
M  V30 1388 H 124.842 2.62311 2.75633 0
M  V30 1389 H 124.354 3.67013 1.26186 0
M  V30 1390 H 122.455 2.04393 3.11536 0
M  V30 1391 H 122.568 3.89885 2.78436 0
M  V30 1392 H 120.932 2.01498 1.5579 0
M  V30 1393 H 121.715 3.38107 0.594866 0
M  V30 1394 N 124.16 -0.719506 1.40217 0
M  V30 1395 C 125.39 -1.50646 1.41384 0
M  V30 1396 C 125.798 -1.89197 0.0107743 0
M  V30 1397 O 125.141 -1.55709 -0.974708 0
M  V30 1398 C 125.203 -2.81405 2.23722 0
M  V30 1399 C 124.867 -2.65199 3.72181 0
M  V30 1400 C 125.864 -2.32717 4.64907 0
M  V30 1401 C 123.549 -2.81586 4.1595 0
M  V30 1402 C 125.543 -2.16827 5.99387 0
M  V30 1403 C 123.23 -2.65313 5.50502 0
M  V30 1404 C 124.228 -2.32981 6.42035 0
M  V30 1405 O 123.916 -2.16827 7.74107 0
M  V30 1406 H 123.648 -0.471606 0.484318 0
M  V30 1407 H 126.202 -0.895456 1.84853 0
M  V30 1408 H 124.432 -3.44823 1.75026 0
M  V30 1409 H 126.121 -3.43102 2.16878 0
M  V30 1410 H 126.887 -2.19694 4.32388 0
M  V30 1411 H 122.766 -3.0574 3.45027 0
M  V30 1412 H 126.31 -1.91513 6.70797 0
M  V30 1413 H 122.207 -2.7792 5.82607 0
M  V30 1414 H 122.975 -2.31778 7.84998 0
M  V30 1415 N 125.638 -1.25649 -0.95132 0
M  V30 1416 C 126.868 -1.13179 -1.72841 0
M  V30 1417 C 127.276 0.316827 -1.86528 0
M  V30 1418 O 126.619 1.22948 -1.3649 0
M  V30 1419 C 126.681 -1.71644 -3.15878 0
M  V30 1420 C 126.345 -3.20667 -3.25609 0
M  V30 1421 C 127.342 -4.17616 -3.09666 0
M  V30 1422 C 125.027 -3.6094 -3.49324 0
M  V30 1423 C 127.021 -5.52817 -3.17289 0
M  V30 1424 C 124.708 -4.96278 -3.56584 0
M  V30 1425 C 125.706 -5.92025 -3.40581 0
M  V30 1426 O 125.394 -7.24899 -3.47528 0
M  V30 1427 H 125.126 -0.395389 -0.54831 0
M  V30 1428 H 127.68 -1.66566 -1.20187 0
M  V30 1429 H 125.91 -1.12707 -3.69911 0
M  V30 1430 H 127.599 -1.54225 -3.75459 0
M  V30 1431 H 128.365 -3.87842 -2.91211 0
M  V30 1432 H 124.244 -2.86907 -3.6084 0
M  V30 1433 H 127.788 -6.2753 -3.04716 0
M  V30 1434 H 123.685 -5.25716 -3.74556 0
M  V30 1435 H 124.453 -7.33039 -3.64138 0
M  V30 1436 N 127.117 1.15442 -1.07289 0
M  V30 1437 C 128.342 1.90638 -0.816828 0
M  V30 1438 C 128.767 1.77445 0.624083 0
M  V30 1439 O 128.125 1.10671 1.43602 0
M  V30 1440 C 128.173 3.39008 -1.22906 0
M  V30 1441 O 127.277 4.10701 -0.373975 0
M  V30 1442 H 126.618 0.593555 -0.297638 0
M  V30 1443 H 129.148 1.46198 -1.43134 0
M  V30 1444 H 129.158 3.89801 -1.20497 0
M  V30 1445 H 127.833 3.47929 -2.27856 0
M  V30 1446 H 126.41 3.70046 -0.460499 0
M  V30 1447 N 128.595 0.856903 1.32268 0
M  V30 1448 C 129.82 0.474569 2.01897 0
M  V30 1449 C 130.245 -0.921766 1.63967 0
M  V30 1450 O 129.603 -1.60589 0.84148 0
M  V30 1451 C 129.651 0.623799 3.55164 0
M  V30 1452 O 128.755 -0.342459 4.10976 0
M  V30 1453 H 128.096 0.190422 0.63611 0
M  V30 1454 H 130.626 1.15672 1.68764 0
M  V30 1455 H 130.636 0.512169 4.04773 0
M  V30 1456 H 129.311 1.64202 3.82113 0
M  V30 1457 H 127.888 -0.18688 3.72431 0
M  V30 1458 N 130.073 -1.45103 0.615059 0
M  V30 1459 C 131.303 -2.06254 0.119596 0
M  V30 1460 C 131.711 -1.4591 -1.20445 0
M  V30 1461 O 131.054 -0.570384 -1.7462 0
M  V30 1462 C 131.116 -3.59396 -0.0865591 0
M  V30 1463 C 130.78 -4.42116 1.15683 0
M  V30 1464 C 131.777 -4.7662 2.07676 0
M  V30 1465 C 129.462 -4.82749 1.38775 0
M  V30 1466 C 131.456 -5.50622 3.21082 0
M  V30 1467 C 129.143 -5.56504 2.52481 0
M  V30 1468 C 130.141 -5.90358 3.43463 0
M  V30 1469 O 129.829 -6.62615 4.55189 0
M  V30 1470 H 129.561 -0.672423 0.0694512 0
M  V30 1471 H 132.115 -1.87219 0.844885 0
M  V30 1472 H 130.345 -3.76859 -0.866823 0
M  V30 1473 H 132.034 -4.02365 -0.534555 0
M  V30 1474 H 132.8 -4.4578 1.91063 0
M  V30 1475 H 128.679 -4.55829 0.688545 0
M  V30 1476 H 132.223 -5.76965 3.92119 0
M  V30 1477 H 128.12 -5.86759 2.69043 0
M  V30 1478 H 128.888 -6.81071 4.53966 0
M  V30 1479 N 131.551 -0.354651 -1.53558 0
M  V30 1480 C 132.781 0.239167 -2.05211 0
M  V30 1481 C 133.189 1.43879 -1.22863 0
M  V30 1482 O 132.532 1.81857 -0.259565 0
M  V30 1483 C 132.594 0.707251 -3.52474 0
M  V30 1484 C 132.258 -0.374212 -4.55465 0
M  V30 1485 C 133.255 -1.22054 -5.0537 0
M  V30 1486 C 130.94 -0.531323 -4.99482 0
M  V30 1487 C 132.934 -2.20942 -5.97882 0
M  V30 1488 C 130.621 -1.52358 -5.91802 0
M  V30 1489 C 131.619 -2.36108 -6.40892 0
M  V30 1490 O 131.307 -3.33643 -7.31394 0
M  V30 1491 H 131.039 0.0479716 -0.674296 0
M  V30 1492 H 133.593 -0.508121 -1.99016 0
M  V30 1493 H 131.823 1.50596 -3.56171 0
M  V30 1494 H 133.512 1.22285 -3.87042 0
M  V30 1495 H 134.278 -1.1103 -4.7212 0
M  V30 1496 H 130.157 0.110738 -4.60867 0
M  V30 1497 H 133.701 -2.86348 -6.36121 0
M  V30 1498 H 129.598 -1.63434 -6.24467 0
M  V30 1499 H 130.366 -3.29244 -7.4936 0
M  V30 1500 N 133.029 1.57378 -0.0835403 0
M  V30 1501 C 134.275 1.95025 0.577664 0
M  V30 1502 C 134.63 0.964049 1.66505 0
M  V30 1503 O 133.923 -0.0118235 1.91596 0
M  V30 1504 C 134.117 3.37063 1.1884 0
M  V30 1505 C 133.946 4.49409 0.16171 0
M  V30 1506 C 132.716 5.04642 -0.257756 0
M  V30 1507 C 134.914 5.10722 -0.605634 0
M  V30 1508 N 132.896 6.00537 -1.27393 0
M  V30 1509 C 134.267 6.02225 -1.47395 0
M  V30 1510 C 136.322 4.93501 -0.660418 0
M  V30 1511 C 135.025 6.78355 -2.39221 0
M  V30 1512 C 137.051 5.70283 -1.56623 0
M  V30 1513 C 136.413 6.61444 -2.4222 0
M  V30 1514 H 132.512 0.760512 0.182058 0
M  V30 1515 H 135.096 1.94013 -0.163419 0
M  V30 1516 H 133.267 3.3879 1.89936 0
M  V30 1517 H 134.999 3.61917 1.81103 0
M  V30 1518 H 131.754 4.73428 0.127702 0
M  V30 1519 H 132.178 6.53184 -1.77987 0
M  V30 1520 H 136.82 4.22798 -0.0128221 0
M  V30 1521 H 134.538 7.48327 -3.05011 0
M  V30 1522 H 138.124 5.58976 -1.61361 0
M  V30 1523 H 137.004 7.1982 -3.11174 0
M  V30 1524 N 134.507 -0.190092 1.56449 0
M  V30 1525 C 135.756 -0.907912 1.80111 0
M  V30 1526 C 136.069 -1.84214 0.657619 0
M  V30 1527 O 137.275 -2.60094 0.778663 0
M  V30 1528 C 135.731 -1.66485 3.19078 0
M  V30 1529 C 135.339 -0.7752 4.41242 0
M  V30 1530 C 137.083 -2.37201 3.52045 0
M  V30 1531 C 134.99 -1.53129 5.71231 0
M  V30 1532 H 133.92 -0.34276 0.671589 0
M  V30 1533 H 136.571 -0.161109 1.82791 0
M  V30 1534 H 134.953 -2.45572 3.10661 0
M  V30 1535 H 136.127 -0.0226298 4.60794 0
M  V30 1536 H 134.442 -0.178627 4.16017 0
M  V30 1537 H 137.039 -2.94329 4.46402 0
M  V30 1538 H 137.382 -3.11632 2.76028 0
M  V30 1539 H 137.915 -1.65075 3.61932 0
M  V30 1540 H 134.654 -0.82967 6.50228 0
M  V30 1541 H 134.174 -2.25767 5.55688 0
M  V30 1542 H 135.853 -2.08377 6.12526 0
M  V30 1543 N 135.985 -1.50799 -0.457987 0
M  V30 1544 C 137.233 -1.62121 -1.2067 0
M  V30 1545 C 137.554 -0.329793 -1.92191 0
M  V30 1546 O 136.824 0.653409 -1.84682 0
M  V30 1547 H 135.404 -0.597441 -0.448411 0
M  V30 1548 H 138.066 -1.87637 -0.527096 0
M  V30 1549 H 137.162 -2.43882 -1.94751 0
M  V30 1550 N 137.463 0.71206 -1.40597 0
M  V30 1551 C 138.712 1.46754 -1.38369 0
M  V30 1552 C 139.025 1.95598 0.0097839 0
M  V30 1553 O 140.231 2.71059 0.154677 0
M  V30 1554 C 138.687 2.65289 -2.43207 0
M  V30 1555 C 138.295 2.23301 -3.88382 0
M  V30 1556 C 140.039 3.43008 -2.50091 0
M  V30 1557 C 137.946 3.38696 -4.84808 0
M  V30 1558 H 136.876 0.55118 -0.514506 0
M  V30 1559 H 139.527 0.774616 -1.66349 0
M  V30 1560 H 137.909 3.36769 -2.08332 0
M  V30 1561 H 139.083 1.59218 -4.32419 0
M  V30 1562 H 137.398 1.58618 -3.85006 0
M  V30 1563 H 139.995 4.28881 -3.1932 0
M  V30 1564 H 140.338 3.87065 -1.53253 0
M  V30 1565 H 140.871 2.78574 -2.83974 0
M  V30 1566 H 137.61 2.99668 -5.82992 0
M  V30 1567 H 137.13 4.01683 -4.45433 0
M  V30 1568 H 138.809 4.04712 -5.04794 0
M  V30 1569 N 138.941 1.26152 0.944643 0
M  V30 1570 C 140.357 1.03189 1.21754 0
M  V30 1571 C 140.557 -0.245112 2.00004 0
M  V30 1572 O 139.613 -0.955176 2.33736 0
M  V30 1573 C 140.926 2.26119 1.98219 0
M  V30 1574 C 142.474 2.30984 2.11224 0
M  V30 1575 C 142.949 3.53597 2.91089 0
M  V30 1576 N 144.44 3.54053 2.98664 0
M  V30 1577 C 145.175 4.45593 3.60881 0
M  V30 1578 N 144.671 5.47416 4.24626 0
M  V30 1579 N 146.464 4.33252 3.58119 0
M  V30 1580 H 138.615 2.08177 0.421437 0
M  V30 1581 H 140.878 0.914723 0.248969 0
M  V30 1582 H 140.584 3.18984 1.48128 0
M  V30 1583 H 140.458 2.3009 2.98895 0
M  V30 1584 H 142.845 1.38635 2.60508 0
M  V30 1585 H 142.926 2.31026 1.09821 0
M  V30 1586 H 142.57 4.46273 2.42493 0
M  V30 1587 H 142.5 3.50802 3.92741 0
M  V30 1588 H 144.991 2.80403 2.53343 0
M  V30 1589 H 145.304 6.13459 4.69987 0
M  V30 1590 H 143.649 5.51278 4.23223 0
M  V30 1591 H 146.84 3.52924 3.0751 0
M  V30 1592 H 147.013 5.04786 4.06319 0
M  V30 1593 N 140.419 -1.14872 1.07899 0
M  V30 1594 C 141.366 -2.19791 0.704319 0
M  V30 1595 C 142.336 -1.63238 -0.306987 0
M  V30 1596 O 143.521 -1.8983 -0.192171 0
M  V30 1597 C 140.661 -3.44911 0.114244 0
M  V30 1598 C 139.774 -4.15637 1.1777 0
M  V30 1599 C 138.909 -5.28324 0.552037 0
M  V30 1600 C 137.948 -5.90875 1.59789 0
M  V30 1601 N 137.085 -6.95022 0.994404 0
M  V30 1602 H 141.925 -2.5119 1.60336 0
M  V30 1603 H 139.462 -1.23356 0.801352 0
M  V30 1604 H 141.42 -4.16477 -0.245544 0
M  V30 1605 H 140.05 -3.14011 -0.74813 0
M  V30 1606 H 139.102 -3.42512 1.65499 0
M  V30 1607 H 140.414 -4.5823 1.97046 0
M  V30 1608 H 139.568 -6.06538 0.1402 0
M  V30 1609 H 138.307 -4.86939 -0.272431 0
M  V30 1610 H 137.312 -5.11369 2.01945 0
M  V30 1611 H 138.537 -6.34337 2.42474 0
M  V30 1612 H 136.483 -6.55722 0.190939 0
M  V30 1613 H 136.4 -7.36073 1.72432 0
M  V30 1614 H 137.668 -7.77123 0.608253 0
M  V30 1615 N 141.898 -0.863906 -1.31812 0
M  V30 1616 C 142.846 -0.30422 -2.30602 0
M  V30 1617 C 143.84 0.577419 -1.59255 0
M  V30 1618 O 145.046 0.464194 -1.73912 0
M  V30 1619 H 141.421 -0.0796877 -0.747766 0
M  V30 1620 H 143.392 -1.15148 -2.75288 0
M  V30 1621 C 142.141 0.484617 -3.44306 0
M  V30 1622 H 141.464 -0.18451 -3.99374 0
M  V30 1623 H 142.904 0.841664 -4.15562 0
M  V30 1624 C 141.363 1.6735 -2.92396 0
M  V30 1625 O 141.893 2.77273 -2.90659 0
M  V30 1626 N 140.099 1.50362 -2.48676 0
M  V30 1627 H 139.646 0.609402 -2.50288 0
M  V30 1628 H 139.604 2.30051 -2.14299 0
M  V30 1629 N 143.376 1.44774 -0.622745 0
M  V30 1630 C 144.324 2.32387 0.0994683 0
M  V30 1631 C 145.318 1.46859 0.844326 0
M  V30 1632 O 146.524 1.63254 0.758174 0
M  V30 1633 H 142.899 0.750273 0.0509291 0
M  V30 1634 H 144.87 2.91062 -0.65767 0
M  V30 1635 C 143.619 3.30723 1.07319 0
M  V30 1636 H 142.942 3.96541 0.509462 0
M  V30 1637 H 144.382 3.94725 1.54817 0
M  V30 1638 C 142.841 2.59021 2.15429 0
M  V30 1639 O 143.371 2.38286 3.23393 0
M  V30 1640 N 141.577 2.189 1.91131 0
M  V30 1641 H 141.124 2.35964 1.03337 0
M  V30 1642 H 141.082 1.71251 2.63668 0
M  V30 1643 N 144.854 0.36279 1.53368 0
M  V30 1644 C 145.801 -0.485008 2.25646 0
M  V30 1645 C 146.771 -1.07982 1.2621 0
M  V30 1646 O 147.956 -1.11284 1.54986 0
M  V30 1647 C 145.096 -1.62023 3.04701 0
M  V30 1648 C 144.209 -1.05086 4.19024 0
M  V30 1649 C 143.344 -2.15496 4.85525 0
M  V30 1650 C 142.383 -1.5601 5.91884 0
M  V30 1651 N 141.52 -2.60241 6.52088 0
M  V30 1652 H 146.36 0.137864 2.97681 0
M  V30 1653 H 143.897 0.0798061 1.46883 0
M  V30 1654 H 145.855 -2.28887 3.48807 0
M  V30 1655 H 144.485 -2.2138 2.34927 0
M  V30 1656 H 143.537 -0.27259 3.79422 0
M  V30 1657 H 144.849 -0.575926 4.95464 0
M  V30 1658 H 144.003 -2.90186 5.32801 0
M  V30 1659 H 142.742 -2.66341 4.08551 0
M  V30 1660 H 141.747 -0.798338 5.43973 0
M  V30 1661 H 142.972 -1.05994 6.70777 0
M  V30 1662 H 140.918 -3.10304 5.77968 0
M  V30 1663 H 140.835 -2.17426 7.24059 0
M  V30 1664 H 142.103 -3.34641 7.04014 0
M  V30 1665 N 146.332 -1.57332 0.0918853 0
M  V30 1666 C 147.56 -1.98574 -0.581048 0
M  V30 1667 C 147.975 -0.970903 -1.61923 0
M  V30 1668 O 147.332 0.0399054 -1.82456 0
M  V30 1669 C 147.383 -3.39872 -1.23164 0
M  V30 1670 O 147.104 -4.37469 -0.234989 0
M  V30 1671 C 148.605 -3.96099 -1.99049 0
M  V30 1672 H 145.825 -0.65261 -0.156018 0
M  V30 1673 H 148.369 -2.0379 0.170225 0
M  V30 1674 H 146.524 -3.35679 -1.93386 0
M  V30 1675 H 146.938 -5.19751 -0.70418 0
M  V30 1676 H 148.412 -4.97127 -2.39934 0
M  V30 1677 H 148.889 -3.3374 -2.85507 0
M  V30 1678 H 149.495 -4.03755 -1.3365 0
M  V30 1679 N 147.81 0.181792 -1.56548 0
M  V30 1680 C 149.056 0.896803 -1.82562 0
M  V30 1681 C 149.411 1.80324 -0.670908 0
M  V30 1682 O 148.704 1.8868 0.333235 0
M  V30 1683 C 148.898 1.73728 -3.12335 0
M  V30 1684 C 148.727 0.913714 -4.4032 0
M  V30 1685 C 147.497 0.592903 -5.01809 0
M  V30 1686 C 149.695 0.260164 -5.13642 0
M  V30 1687 N 147.677 -0.247901 -6.13399 0
M  V30 1688 C 149.048 -0.442256 -6.18421 0
M  V30 1689 C 151.103 0.177253 -4.97584 0
M  V30 1690 C 149.806 -1.21971 -7.08883 0
M  V30 1691 C 151.832 -0.586839 -5.88481 0
M  V30 1692 C 151.194 -1.27766 -6.92716 0
M  V30 1693 H 147.293 0.307122 -0.719166 0
M  V30 1694 H 149.877 0.164535 -1.94004 0
M  V30 1695 H 148.048 2.44105 -3.02105 0
M  V30 1696 H 149.78 2.39279 -3.26386 0
M  V30 1697 H 146.535 0.920502 -4.64568 0
M  V30 1698 H 146.959 -0.658304 -6.73792 0
M  V30 1699 H 151.601 0.696993 -4.17015 0
M  V30 1700 H 149.319 -1.75083 -7.88905 0
M  V30 1701 H 152.905 -0.652522 -5.78129 0
M  V30 1702 H 151.785 -1.85943 -7.61836 0
M  V30 1703 N 149.288 1.51039 0.449983 0
M  V30 1704 C 150.516 1.66869 1.2232 0
M  V30 1705 C 150.931 0.360727 1.85322 0
M  V30 1706 O 150.288 -0.659531 1.70166 0
M  V30 1707 C 150.339 2.77524 2.31652 0
M  V30 1708 O 150.06 4.03252 1.7123 0
M  V30 1709 C 151.561 3.04512 3.2216 0
M  V30 1710 H 148.781 0.560326 0.369155 0
M  V30 1711 H 151.325 1.97385 0.534719 0
M  V30 1712 H 149.48 2.49642 2.96239 0
M  V30 1713 H 149.894 4.64609 2.43389 0
M  V30 1714 H 151.368 3.85551 3.95038 0
M  V30 1715 H 151.845 2.16415 3.8218 0
M  V30 1716 H 152.451 3.34005 2.63288 0
M  V30 1717 N 150.766 -0.704594 1.40972 0
M  V30 1718 C 152.012 -1.46546 1.41053 0
M  V30 1719 C 152.367 -1.92393 0.0159714 0
M  V30 1720 O 151.66 -1.66017 -0.956506 0
M  V30 1721 C 151.854 -2.698 2.34399 0
M  V30 1722 C 151.683 -2.36008 3.82793 0
M  V30 1723 C 150.453 -2.26812 4.51536 0
M  V30 1724 C 152.651 -1.99565 4.74003 0
M  V30 1725 N 150.633 -1.8581 5.85105 0
M  V30 1726 C 152.004 -1.69251 5.96451 0
M  V30 1727 C 154.059 -1.86296 4.61734 0
M  V30 1728 C 152.762 -1.27003 7.07999 0
M  V30 1729 C 154.788 -1.45452 5.73234 0
M  V30 1730 C 154.15 -1.16043 6.94776 0
M  V30 1731 H 150.249 -0.533896 0.571383 0
M  V30 1732 H 152.833 -0.816061 1.76773 0
M  V30 1733 H 151.004 -3.32473 2.00789 0
M  V30 1734 H 152.736 -3.36214 2.25261 0
M  V30 1735 H 149.491 -2.44913 4.05357 0
M  V30 1736 H 149.915 -1.67817 6.55871 0
M  V30 1737 H 154.557 -2.0769 3.68273 0
M  V30 1738 H 152.275 -1.04353 8.01334 0
M  V30 1739 H 155.861 -1.35748 5.65742 0
M  V30 1740 H 154.741 -0.84915 7.79589 0
M  V30 1741 N 152.244 -1.26651 -0.937939 0
M  V30 1742 C 153.49 -1.12553 -1.687 0
M  V30 1743 C 153.823 0.329782 -1.91379 0
M  V30 1744 O 153.098 1.24202 -1.4968 0
M  V30 1745 C 153.381 -1.89862 -3.05981 0
M  V30 1746 C 153.234 -3.43318 -2.90607 0
M  V30 1747 C 154.553 -1.69499 -4.0615 0
M  V30 1748 H 151.672 -0.410257 -0.612257 0
M  V30 1749 H 154.314 -1.55685 -1.08913 0
M  V30 1750 H 152.464 -1.53204 -3.57017 0
M  V30 1751 H 154.136 -3.89747 -2.46769 0
M  V30 1752 H 152.379 -3.70179 -2.26164 0
M  V30 1753 H 153.05 -3.92642 -3.8799 0
M  V30 1754 H 155.526 -2.01442 -3.64088 0
M  V30 1755 H 154.402 -2.26002 -5.00214 0
M  V30 1756 H 154.663 -0.640365 -4.37438 0
M  V30 1757 N 153.722 1.14298 -1.08507 0
M  V30 1758 C 154.97 1.84993 -0.813763 0
M  V30 1759 C 155.291 1.83405 0.662393 0
M  V30 1760 O 154.561 1.28319 1.48024 0
M  V30 1761 H 153.141 0.684966 -0.298045 0
M  V30 1762 H 155.803 1.385 -1.37126 0
M  V30 1763 H 154.899 2.89788 -1.15884 0
M  V30 1764 N 155.201 0.870884 1.31352 0
M  V30 1765 C 156.429 0.49677 2.00848 0
M  V30 1766 C 156.844 -0.910998 1.65367 0
M  V30 1767 O 156.201 -1.59696 0.883374 0
M  V30 1768 C 156.252 0.645308 3.55694 0
M  V30 1769 O 155.973 1.99764 3.89905 0
M  V30 1770 C 157.474 0.272326 4.42463 0
M  V30 1771 H 154.694 0.193462 0.642506 0
M  V30 1772 H 157.238 1.1723 1.67563 0
M  V30 1773 H 155.393 0.0173176 3.87396 0
M  V30 1774 H 155.807 2.00607 4.84621 0
M  V30 1775 H 157.281 0.427208 5.50344 0
M  V30 1776 H 157.758 -0.788587 4.32062 0
M  V30 1777 H 158.364 0.876054 4.1618 0
M  V30 1778 N 156.679 -1.44442 0.630414 0
M  V30 1779 C 157.626 -2.30678 -0.0749355 0
M  V30 1780 C 158.596 -1.4344 -0.837502 0
M  V30 1781 O 159.781 -1.72343 -0.818684 0
M  V30 1782 C 156.921 -3.28706 -1.05103 0
M  V30 1783 C 156.034 -4.31046 -0.286954 0
M  V30 1784 C 155.169 -5.16167 -1.2548 0
M  V30 1785 C 154.208 -6.10216 -0.479843 0
M  V30 1786 N 153.345 -6.88039 -1.39811 0
M  V30 1787 H 158.185 -2.90454 0.666386 0
M  V30 1788 H 155.722 -1.43107 0.340404 0
M  V30 1789 H 157.68 -3.84027 -1.63031 0
M  V30 1790 H 156.31 -2.70632 -1.75949 0
M  V30 1791 H 155.362 -3.78203 0.408243 0
M  V30 1792 H 156.674 -4.97794 0.316657 0
M  V30 1793 H 155.828 -5.76002 -1.90544 0
M  V30 1794 H 154.567 -4.49491 -1.89233 0
M  V30 1795 H 153.572 -5.49491 0.184295 0
M  V30 1796 H 154.797 -6.78928 0.152965 0
M  V30 1797 H 152.743 -6.24032 -2.02287 0
M  V30 1798 H 152.66 -7.51223 -0.848508 0
M  V30 1799 H 153.928 -7.52397 -2.03762 0
M  V30 1800 N 158.157 -0.370918 -1.53173 0
M  V30 1801 C 159.104 0.473035 -2.259 0
M  V30 1802 C 160.074 1.07311 -1.26781 0
M  V30 1803 O 161.259 1.1046 -1.55574 0
M  V30 1804 C 158.399 1.60405 -3.05556 0
M  V30 1805 C 157.512 1.02863 -4.19575 0
M  V30 1806 C 156.647 2.12918 -4.86661 0
M  V30 1807 C 155.686 1.52869 -5.92704 0
M  V30 1808 N 154.823 2.56779 -6.53459 0
M  V30 1809 H 159.663 -0.153649 -2.97604 0
M  V30 1810 H 157.2 -0.0875946 -1.46839 0
M  V30 1811 H 159.158 2.27034 -3.50016 0
M  V30 1812 H 157.788 2.20131 -2.36097 0
M  V30 1813 H 156.84 0.252465 -3.79561 0
M  V30 1814 H 158.152 0.549642 -4.95762 0
M  V30 1815 H 157.306 2.87356 -5.34333 0
M  V30 1816 H 156.045 2.6417 -4.09958 0
M  V30 1817 H 155.05 0.769479 -5.44389 0
M  V30 1818 H 156.275 1.02435 -6.7133 0
M  V30 1819 H 154.221 3.07235 -5.79606 0
M  V30 1820 H 154.138 2.13583 -7.25202 0
M  V30 1821 H 155.406 3.30903 -7.05779 0
M  V30 1822 N 159.635 1.57281 -0.100228 0
M  V30 1823 C 160.598 2.13158 0.842398 0
M  V30 1824 C 161.598 1.06202 1.20738 0
M  V30 1825 O 162.788 1.32066 1.13597 0
M  V30 1826 C 159.92 2.65639 2.13655 0
M  V30 1827 H 161.113 2.97766 0.357114 0
M  V30 1828 H 158.666 1.5559 0.148823 0
M  V30 1829 H 159.401 1.84566 2.66657 0
M  V30 1830 H 159.186 3.43844 1.88451 0
M  V30 1831 H 160.676 3.08846 2.81077 0
M  V30 1832 N 161.113 -0.173488 1.56642 0
M  V30 1833 C 162.043 -1.2171 1.99271 0
M  V30 1834 C 163.024 -1.46289 0.867959 0
M  V30 1835 O 164.209 -1.5766 1.13388 0
M  V30 1836 C 161.339 -2.55651 2.35074 0
M  V30 1837 C 160.293 -2.45645 3.50489 0
M  V30 1838 C 159.619 -3.84056 3.72028 0
M  V30 1839 C 160.919 -1.96302 4.84007 0
M  V30 1840 H 162.613 -0.86275 2.867 0
M  V30 1841 H 160.159 -0.413571 1.37933 0
M  V30 1842 H 162.112 -3.2886 2.63494 0
M  V30 1843 H 160.836 -2.92869 1.44552 0
M  V30 1844 H 159.495 -1.7489 3.22194 0
M  V30 1845 H 159.143 -4.18664 2.788 0
M  V30 1846 H 158.843 -3.7823 4.49684 0
M  V30 1847 H 160.367 -4.58854 4.02846 0
M  V30 1848 H 161.781 -2.59284 5.11317 0
M  V30 1849 H 160.178 -2.01429 5.65284 0
M  V30 1850 H 161.248 -0.917226 4.76146 0
M  V30 1851 N 162.591 -1.51276 -0.441967 0
M  V30 1852 C 163.819 -1.67516 -1.21434 0
M  V30 1853 C 164.234 -0.37055 -1.85128 0
M  V30 1854 O 163.591 0.650498 -1.70513 0
M  V30 1855 C 163.642 -2.78748 -2.30177 0
M  V30 1856 O 163.363 -4.04154 -1.69089 0
M  V30 1857 C 164.864 -3.06217 -3.20541 0
M  V30 1858 H 162.084 -0.562276 -0.366178 0
M  V30 1859 H 164.628 -1.97666 -0.524244 0
M  V30 1860 H 162.783 -2.5121 -2.94911 0
M  V30 1861 H 163.197 -4.65894 -2.40922 0
M  V30 1862 H 164.671 -3.8764 -3.92987 0
M  V30 1863 H 165.148 -2.18439 -3.81026 0
M  V30 1864 H 165.754 -3.35397 -2.61513 0
M  V30 1865 N 164.069 0.697108 -1.41344 0
M  V30 1866 C 165.017 1.83237 -1.43272 0
M  V30 1867 C 166.011 1.66522 -0.310947 0
M  V30 1868 O 167.217 1.73402 -0.482899 0
M  V30 1869 H 163.592 0.603802 -0.448249 0
M  V30 1870 H 165.563 1.78727 -2.38954 0
M  V30 1871 C 164.312 3.21245 -1.33029 0
M  V30 1872 H 163.635 3.34723 -2.18633 0
M  V30 1873 H 165.075 4.00763 -1.38439 0
M  V30 1874 C 163.534 3.36873 -0.0424635 0
M  V30 1875 O 164.064 3.91177 0.913421 0
M  V30 1876 N 162.27 2.90581 0.0331145 0
M  V30 1877 H 161.817 2.46577 -0.745506 0
M  V30 1878 H 161.775 3.01416 0.894199 0
M  V30 1879 N 165.547 1.27147 0.931209 0
M  V30 1880 C 166.457 1.11372 2.06478 0
M  V30 1881 C 167.473 0.044645 1.73943 0
M  V30 1882 O 168.649 0.250417 1.99837 0
M  V30 1883 C 165.714 0.758838 3.38294 0
M  V30 1884 C 164.775 1.90841 3.84549 0
M  V30 1885 C 164.008 1.57036 5.10074 0
M  V30 1886 O 164.231 0.476645 5.68405 0
M  V30 1887 O 163.165 2.40839 5.51616 0
M  V30 1888 H 166.991 2.06493 2.22698 0
M  V30 1889 H 164.576 1.06301 1.04978 0
M  V30 1890 H 166.458 0.574098 4.17471 0
M  V30 1891 H 165.133 -0.162879 3.2329 0
M  V30 1892 H 164.04 2.14819 3.06274 0
M  V30 1893 H 165.373 2.81021 4.04089 0
M  V30 1894 N 167.025 -1.13721 1.09112 0
M  V30 1895 C 167.988 -2.17222 0.731241 0
M  V30 1896 C 168.988 -1.59035 -0.237566 0
M  V30 1897 O 170.178 -1.74192 -0.0161704 0
M  V30 1898 C 167.31 -3.40804 0.0808443 0
M  V30 1899 H 168.503 -2.50573 1.64783 0
M  V30 1900 H 166.056 -1.28493 0.889897 0
M  V30 1901 H 166.791 -3.1304 -0.847127 0
M  V30 1902 H 166.576 -3.84306 0.777896 0
M  V30 1903 H 168.066 -4.1731 -0.155657 0
M  V30 1904 N 168.503 -0.877838 -1.30888 0
M  V30 1905 C 169.413 -0.343096 -2.32078 0
M  V30 1906 C 170.429 0.551022 -1.65045 0
M  V30 1907 O 171.605 0.445854 -1.96403 0
M  V30 1908 C 168.67 0.439905 -3.43898 0
M  V30 1909 C 167.731 -0.483111 -4.26573 0
M  V30 1910 C 166.964 0.262616 -5.33053 0
M  V30 1911 O 167.187 1.48967 -5.50604 0
M  V30 1912 O 166.121 -0.383593 -6.00676 0
M  V30 1913 H 169.947 -1.18203 -2.79753 0
M  V30 1914 H 167.532 -0.64145 -1.34929 0
M  V30 1915 H 169.414 0.883504 -4.12034 0
M  V30 1916 H 168.089 1.25526 -2.98371 0
M  V30 1917 H 166.996 -0.975374 -3.61161 0
M  V30 1918 H 168.329 -1.26427 -4.75686 0
M  V30 1919 N 169.982 1.44106 -0.638065 0
M  V30 1920 C 170.93 2.3248 0.0748149 0
M  V30 1921 C 171.924 1.47746 0.828702 0
M  V30 1922 O 173.13 1.64049 0.740816 0
M  V30 1923 H 169.505 0.750771 0.0429686 0
M  V30 1924 H 171.476 2.90348 -0.688504 0
M  V30 1925 C 170.225 3.31843 1.03805 0
M  V30 1926 H 169.548 3.97059 0.467375 0
M  V30 1927 H 170.988 3.96345 1.50622 0
M  V30 1928 C 169.447 2.61291 2.1267 0
M  V30 1929 O 169.977 2.41702 3.20847 0
M  V30 1930 N 168.183 2.20915 1.88798 0
M  V30 1931 H 167.73 2.37047 1.00829 0
M  V30 1932 H 167.688 1.74038 2.61836 0
M  V30 1933 N 171.46 0.379036 1.52974 0
M  V30 1934 C 172.706 -0.199244 2.02422 0
M  V30 1935 C 173.061 -1.4532 1.26095 0
M  V30 1936 O 172.354 -1.88377 0.34996 0
M  V30 1937 C 172.548 -0.53096 3.53434 0
M  V30 1938 C 172.377 0.689298 4.44386 0
M  V30 1939 C 171.147 1.20546 4.9071 0
M  V30 1940 C 173.345 1.55856 4.90116 0
M  V30 1941 N 171.327 2.38434 5.65705 0
M  V30 1942 C 172.698 2.58396 5.63588 0
M  V30 1943 C 174.753 1.57986 4.7217 0
M  V30 1944 C 173.456 3.62939 6.21022 0
M  V30 1945 C 175.482 2.6143 5.30479 0
M  V30 1946 C 174.844 3.62693 6.03849 0
M  V30 1947 H 170.943 -0.0352671 0.781204 0
M  V30 1948 H 173.527 0.526614 1.87443 0
M  V30 1949 H 171.698 -1.22588 3.68547 0
M  V30 1950 H 173.43 -1.0955 3.89591 0
M  V30 1951 H 170.185 0.768022 4.67331 0
M  V30 1952 H 170.609 2.98055 6.07859 0
M  V30 1953 H 175.251 0.810475 4.14959 0
M  V30 1954 H 172.969 4.40751 6.77321 0
M  V30 1955 H 176.555 2.63949 5.18481 0
M  V30 1956 H 175.435 4.41424 6.48163 0
M  V30 1957 N 172.938 -1.57226 0.108567 0
M  V30 1958 C 173.901 -2.13602 -0.831082 0
M  V30 1959 C 174.901 -1.06841 -1.20173 0
M  V30 1960 O 176.091 -1.32666 -1.12895 0
M  V30 1961 C 173.223 -2.66769 -2.12243 0
M  V30 1962 H 174.416 -2.97951 -0.341317 0
M  V30 1963 H 171.969 -1.55667 -0.14057 0
M  V30 1964 H 172.704 -1.85977 -2.65675 0
M  V30 1965 H 172.489 -3.44839 -1.86625 0
M  V30 1966 H 173.979 -3.10332 -2.79435 0
M  V30 1967 N 174.416 0.165178 -1.56732 0
M  V30 1968 C 175.693 0.908443 -1.73224 0
M  V30 1969 C 176.073 2.0013 -0.67165 0
M  V30 1970 O 175.421 2.26353 0.31253 0
M  V30 1971 C 175.631 1.46756 -3.16644 0
M  V30 1972 C 176.979 1.93809 -3.77787 0
M  V30 1973 O 178.003 1.56537 -3.1996 0
M  V30 1974 O 176.862 2.62486 -4.79336 0
M  V30 1975 H 173.956 0.428025 -0.707618 0
M  V30 1976 H 176.502 0.152526 -1.69013 0
M  V30 1977 H 175.274 0.68129 -3.85323 0
M  V30 1978 H 174.897 2.28749 -3.25207 0
M  V30 1979 N 175.894 1.51508 0.433938 0
M  V30 1980 C 176.842 1.73646 1.54757 0
M  V30 1981 C 177.836 0.602854 1.5831 0
M  V30 1982 O 179.042 0.784318 1.62014 0
M  V30 1983 H 175.417 0.548718 0.51421 0
M  V30 1984 H 177.388 2.66991 1.33261 0
M  V30 1985 C 176.137 1.88172 2.92381 0
M  V30 1986 H 175.46 2.74808 2.90381 0
M  V30 1987 H 176.9 2.07672 3.6966 0
M  V30 1988 C 175.359 0.64239 3.30719 0
M  V30 1989 O 175.889 -0.201362 4.01195 0
M  V30 1990 N 174.095 0.485489 2.86516 0
M  V30 1991 H 173.642 1.17318 2.29334 0
M  V30 1992 H 173.6 -0.342482 3.12529 0
M  V30 1993 N 177.372 -0.689602 1.41712 0
M  V30 1994 C 178.282 -1.83314 1.46401 0
M  V30 1995 C 179.298 -1.7036 0.35405 0
M  V30 1996 O 180.474 -1.92171 0.602692 0
M  V30 1997 C 177.539 -3.19344 1.34982 0
M  V30 1998 C 176.6 -3.44363 2.56344 0
M  V30 1999 C 175.833 -4.73904 2.45461 0
M  V30 2000 O 176.056 -5.508 1.48241 0
M  V30 2001 O 174.99 -4.99839 3.35328 0
M  V30 2002 H 178.816 -1.82314 2.42889 0
M  V30 2003 H 176.401 -0.843438 1.23315 0
M  V30 2004 H 178.283 -4.00547 1.3092 0
M  V30 2005 H 176.958 -3.21014 0.41612 0
M  V30 2006 H 175.865 -2.63067 2.65982 0
M  V30 2007 H 177.198 -3.47512 3.48563 0
M  V30 2008 N 178.85 -1.27639 -0.924453 0
M  V30 2009 C 180.261 -1.12834 -1.48746 0
M  V30 2010 C 180.612 0.285505 -1.94112 0
M  V30 2011 O 179.737 1.17874 -1.81479 0
M  V30 2012 C 180.332 -2.04217 -2.70334 0
M  V30 2013 C 178.891 -1.93509 -3.22848 0
M  V30 2014 C 178.038 -1.96583 -1.95577 0
M  V30 2015 H 180.989 -1.40484 -0.738233 0
M  V30 2016 H 181.01 -1.59989 -3.4523 0
M  V30 2017 H 180.522 -3.07111 -2.37285 0
M  V30 2018 H 178.623 -0.936131 -3.60649 0
M  V30 2019 H 178.736 -2.79917 -3.88823 0
M  V30 2020 H 177.1 -1.4085 -2.12211 0
M  V30 2021 H 177.883 -3.01137 -1.64837 0
M  V30 2022 N 180.328 1.1314 -1.09713 0
M  V30 2023 C 181.276 2.20717 -0.733934 0
M  V30 2024 C 182.27 1.6729 0.266506 0
M  V30 2025 O 183.476 1.79547 0.127656 0
M  V30 2026 H 179.851 0.719292 -0.21937 0
M  V30 2027 H 181.822 2.48611 -1.6503 0
M  V30 2028 C 180.571 3.47265 -0.173849 0
M  V30 2029 H 179.894 3.88716 -0.934873 0
M  V30 2030 H 181.334 4.23979 0.0423126 0
M  V30 2031 C 179.793 3.18724 1.09164 0
M  V30 2032 O 180.323 3.37762 2.17439 0
M  V30 2033 N 178.529 2.72583 1.00732 0
M  V30 2034 H 178.076 2.57291 0.126121 0
M  V30 2035 H 178.034 2.53862 1.85476 0
M  V30 2036 N 181.806 0.884767 1.30421 0
M  V30 2037 C 182.754 0.340869 2.30089 0
M  V30 2038 C 183.748 -0.55201 1.60154 0
M  V30 2039 O 184.954 -0.436467 1.74628 0
M  V30 2040 H 181.329 0.0915739 0.746404 0
M  V30 2041 H 183.3 1.19513 2.73421 0
M  V30 2042 C 182.049 -0.429779 3.45034 0
M  V30 2043 H 181.372 0.248024 3.9903 0
M  V30 2044 H 182.812 -0.775445 4.16849 0
M  V30 2045 C 181.271 -1.62677 2.95022 0
M  V30 2046 O 181.801 -2.72614 2.95033 0
M  V30 2047 N 180.007 -1.46387 2.51036 0
M  V30 2048 H 179.554 -0.569506 2.51226 0
M  V30 2049 H 179.512 -2.26612 2.17932 0
M  V30 2050 N 183.284 -1.43765 0.645699 0
M  V30 2051 C 184.231 -2.30745 -0.0504648 0
M  V30 2052 C 185.201 -1.4432 -0.822241 0
M  V30 2053 O 186.386 -1.73202 -0.800358 0
M  V30 2054 C 183.526 -3.29802 -1.0161 0
M  V30 2055 C 182.639 -4.31326 -0.241219 0
M  V30 2056 C 181.774 -5.17469 -1.19998 0
M  V30 2057 C 180.813 -6.10691 -0.415094 0
M  V30 2058 N 179.95 -6.89483 -1.32506 0
M  V30 2059 H 184.79 -2.8973 0.697155 0
M  V30 2060 H 182.327 -1.42738 0.355563 0
M  V30 2061 H 184.285 -3.85734 -1.58949 0
M  V30 2062 H 182.915 -2.72483 -1.73069 0
M  V30 2063 H 181.967 -3.77749 0.448334 0
M  V30 2064 H 183.279 -4.9743 0.369437 0
M  V30 2065 H 182.433 -5.7799 -1.84424 0
M  V30 2066 H 181.172 -4.51473 -1.84455 0
M  V30 2067 H 180.177 -5.49265 0.242565 0
M  V30 2068 H 181.402 -6.78727 0.224966 0
M  V30 2069 H 179.348 -6.26142 -1.95657 0
M  V30 2070 H 179.265 -7.52081 -0.768783 0
M  V30 2071 H 180.533 -7.54516 -1.9577 0
M  V30 2072 N 184.763 -0.387143 -1.52771 0
M  V30 2073 C 186.179 -0.037007 -1.59557 0
M  V30 2074 C 186.379 1.44801 -1.40124 0
M  V30 2075 O 185.435 2.21227 -1.21716 0
M  V30 2076 C 186.748 -0.512256 -2.96305 0
M  V30 2077 C 188.296 -0.468328 -3.09476 0
M  V30 2078 C 188.771 -0.919731 -4.4867 0
M  V30 2079 N 190.262 -0.875656 -4.54848 0
M  V30 2080 C 190.997 -1.19637 -5.6078 0
M  V30 2081 N 190.493 -1.58745 -6.74368 0
M  V30 2082 N 192.286 -1.11776 -5.50874 0
M  V30 2083 H 184.437 -1.35395 -1.63652 0
M  V30 2084 H 186.7 -0.554818 -0.768688 0
M  V30 2085 H 186.406 -1.54935 -3.15734 0
M  V30 2086 H 186.28 0.089805 -3.77093 0
M  V30 2087 H 188.667 0.559671 -2.89744 0
M  V30 2088 H 188.748 -1.10616 -2.30646 0
M  V30 2089 H 188.392 -1.94595 -4.69143 0
M  V30 2090 H 188.322 -0.258927 -5.25963 0
M  V30 2091 H 190.813 -0.587843 -3.733 0
M  V30 2092 H 191.126 -1.81586 -7.51163 0
M  V30 2093 H 189.471 -1.6263 -6.75705 0
M  V30 2094 H 192.662 -0.811264 -4.61016 0
M  V30 2095 H 192.835 -1.37103 -6.3333 0
M  V30 2096 N 186.241 1.57166 -0.116904 0
M  V30 2097 C 187.189 2.16457 0.851418 0
M  V30 2098 C 188.183 1.11323 1.27686 0
M  V30 2099 O 189.389 1.2963 1.24884 0
M  V30 2100 H 185.764 0.69271 0.292672 0
M  V30 2101 H 187.735 2.96605 0.32685 0
M  V30 2102 C 186.484 2.77689 2.09246 0
M  V30 2103 H 185.807 3.58285 1.77402 0
M  V30 2104 H 187.247 3.22716 2.7501 0
M  V30 2105 C 185.706 1.74667 2.88085 0
M  V30 2106 O 186.236 1.19877 3.83396 0
M  V30 2107 N 184.442 1.44656 2.52038 0
M  V30 2108 H 183.989 1.89402 1.74599 0
M  V30 2109 H 183.947 0.759675 3.05084 0
M  V30 2110 N 187.719 -0.156864 1.56817 0
M  V30 2111 C 188.667 -1.21319 1.98455 0
M  V30 2112 C 189.661 -1.45025 0.875444 0
M  V30 2113 O 190.867 -1.45435 1.0606 0
M  V30 2114 H 187.242 -0.408142 0.631605 0
M  V30 2115 H 189.213 -0.835244 2.86472 0
M  V30 2116 C 187.962 -2.54148 2.37285 0
M  V30 2117 H 187.285 -2.36733 3.22176 0
M  V30 2118 H 188.725 -3.26712 2.70251 0
M  V30 2119 C 187.184 -3.13967 1.22173 0
M  V30 2120 O 187.714 -3.98357 0.517149 0
M  V30 2121 N 185.92 -2.7327 0.988536 0
M  V30 2122 H 185.467 -2.04744 1.56326 0
M  V30 2123 H 185.425 -3.13628 0.220209 0
M  V30 2124 N 189.197 -1.51736 -0.425897 0
M  V30 2125 C 190.107 -1.76738 -1.54275 0
M  V30 2126 C 191.123 -0.65211 -1.61318 0
M  V30 2127 O 192.299 -0.935654 -1.78346 0
M  V30 2128 C 189.364 -1.89755 -2.90162 0
M  V30 2129 C 188.425 -3.13633 -2.93143 0
M  V30 2130 C 187.658 -3.2602 -4.22548 0
M  V30 2131 O 187.881 -2.44067 -5.15546 0
M  V30 2132 O 186.815 -4.19071 -4.32046 0
M  V30 2133 H 190.641 -2.71502 -1.36089 0
M  V30 2134 H 188.226 -1.36376 -0.610069 0
M  V30 2135 H 190.108 -2.00236 -3.70788 0
M  V30 2136 H 188.783 -0.981785 -3.08452 0
M  V30 2137 H 187.69 -3.08622 -2.11431 0
M  V30 2138 H 189.023 -4.04936 -2.798 0
M  V30 2139 N 190.675 0.682077 -1.42076 0
M  V30 2140 C 191.952 1.43755 -1.32642 0
M  V30 2141 C 192.332 2.11063 0.0396611 0
M  V30 2142 O 191.68 2.02701 1.05474 0
M  V30 2143 C 191.89 2.44596 -2.48946 0
M  V30 2144 C 193.238 3.09454 -2.9073 0
M  V30 2145 O 194.262 2.54922 -2.48783 0
M  V30 2146 O 193.121 4.08253 -3.63307 0
M  V30 2147 H 190.215 0.640857 -0.522715 0
M  V30 2148 H 192.761 0.711415 -1.54068 0
M  V30 2149 H 191.533 1.93609 -3.40046 0
M  V30 2150 H 191.156 3.24701 -2.29467 0
M  V30 2151 N 192.153 1.28127 0.917671 0
M  V30 2152 C 193.393 1.163 1.68088 0
M  V30 2153 C 193.757 -0.284515 1.8988 0
M  V30 2154 O 194.958 -0.525413 2.63615 0
M  V30 2155 C 193.229 1.93546 3.00457 0
M  V30 2156 S 194.788 1.98048 3.91564 0
M  V30 2157 H 191.606 0.415005 0.577315 0
M  V30 2158 H 194.208 1.62173 1.09179 0
M  V30 2159 H 192.912 2.97888 2.82295 0
M  V30 2160 H 192.443 1.48207 3.64415 0
M  V30 2161 H 194.458 1.08415 4.84211 0
M  V30 2162 N 193.631 -1.12557 1.10312 0
M  V30 2163 C 194.877 -1.84311 0.846011 0
M  V30 2164 C 195.21 -1.83805 -0.626859 0
M  V30 2165 O 194.485 -1.28268 -1.46211 0
M  V30 2166 C 194.768 -3.32048 1.39341 0
M  V30 2167 C 194.621 -3.41016 2.93305 0
M  V30 2168 C 195.94 -4.27764 1.03468 0
M  V30 2169 H 193.059 -0.669192 0.30879 0
M  V30 2170 H 195.701 -1.32057 1.36605 0
M  V30 2171 H 193.851 -3.76678 0.951087 0
M  V30 2172 H 195.523 -3.05031 3.46055 0
M  V30 2173 H 193.766 -2.81603 3.29973 0
M  V30 2174 H 194.437 -4.44948 3.26689 0
M  V30 2175 H 196.913 -3.91253 1.41633 0
M  V30 2176 H 195.789 -5.29549 1.44463 0
M  V30 2177 H 196.05 -4.42064 -0.0560404 0
M  V30 2178 N 195.109 -0.891671 -1.2995 0
M  V30 2179 C 196.019 -0.367691 -2.31701 0
M  V30 2180 C 197.035 0.533486 -1.6562 0
M  V30 2181 O 198.211 0.424997 -1.96865 0
M  V30 2182 C 195.276 0.403406 -3.44345 0
M  V30 2183 C 194.337 -0.528328 -4.26037 0
M  V30 2184 C 193.57 0.206063 -5.33302 0
M  V30 2185 O 193.793 1.43119 -5.52153 0
M  V30 2186 O 192.727 -0.447281 -6.00236 0
M  V30 2187 H 196.553 -1.21163 -2.78484 0
M  V30 2188 H 194.138 -0.655725 -1.34241 0
M  V30 2189 H 196.02 0.839753 -4.12948 0
M  V30 2190 H 194.695 1.22354 -2.99685 0
M  V30 2191 H 193.602 -1.01362 -3.60106 0
M  V30 2192 H 194.935 -1.31465 -4.74318 0
M  V30 2193 N 196.587 1.43421 -0.653314 0
M  V30 2194 C 197.836 2.01032 -0.164076 0
M  V30 2195 C 198.149 1.52147 1.22926 0
M  V30 2196 O 199.355 2.02031 1.81371 0
M  V30 2197 C 197.811 3.59082 -0.24252 0
M  V30 2198 C 197.419 4.1696 -1.63855 0
M  V30 2199 C 199.163 4.24079 0.18911 0
M  V30 2200 C 197.07 5.67304 -1.67092 0
M  V30 2201 H 196 0.751798 -0.0575769 0
M  V30 2202 H 198.651 1.6439 -0.815362 0
M  V30 2203 H 197.033 3.93125 0.476276 0
M  V30 2204 H 198.207 3.94416 -2.38271 0
M  V30 2205 H 196.522 3.64335 -2.01616 0
M  V30 2206 H 199.119 5.34381 0.184775 0
M  V30 2207 H 199.462 3.98005 1.22056 0
M  V30 2208 H 199.995 3.94918 -0.477938 0
M  V30 2209 H 196.734 5.98145 -2.68146 0
M  V30 2210 H 196.254 5.91904 -0.970014 0
M  V30 2211 H 197.933 6.31344 -1.4147 0
M  V30 2212 N 198.065 0.39524 1.52563 0
M  V30 2213 C 199.295 -0.184675 2.05773 0
M  V30 2214 C 199.703 -1.40571 1.26635 0
M  V30 2215 O 199.046 -1.81105 0.30769 0
M  V30 2216 C 199.108 -0.613551 3.54226 0
M  V30 2217 C 198.772 0.49484 4.54313 0
M  V30 2218 C 199.769 1.3541 5.01956 0
M  V30 2219 C 197.454 0.663565 4.97898 0
M  V30 2220 C 199.448 2.36716 5.91814 0
M  V30 2221 C 197.135 1.67996 5.87555 0
M  V30 2222 C 198.133 2.53017 6.34406 0
M  V30 2223 O 197.821 3.52917 7.22291 0
M  V30 2224 H 197.553 -0.030077 0.675331 0
M  V30 2225 H 200.107 0.560708 1.97599 0
M  V30 2226 H 198.337 -1.411 3.60038 0
M  V30 2227 H 200.026 -1.11981 3.90148 0
M  V30 2228 H 200.792 1.23509 4.6901 0
M  V30 2229 H 196.671 0.0114913 4.60999 0
M  V30 2230 H 200.215 3.03113 6.28306 0
M  V30 2231 H 196.112 1.79933 6.19915 0
M  V30 2232 H 196.88 3.48996 7.40367 0
M  V30 2233 N 199.544 -1.57102 0.125237 0
M  V30 2234 C 200.793 -1.94582 -0.531095 0
M  V30 2235 C 201.106 -1.01126 -1.6743 0
M  V30 2236 O 202.312 -1.28097 -2.39381 0
M  V30 2237 C 200.768 -3.45839 -0.996164 0
M  V30 2238 C 200.376 -4.47842 0.118926 0
M  V30 2239 C 202.12 -3.92227 -1.62352 0
M  V30 2240 C 200.027 -5.90284 -0.363192 0
M  V30 2241 H 198.957 -0.726391 -0.20217 0
M  V30 2242 H 201.608 -1.82339 0.206092 0
M  V30 2243 H 199.99 -3.53338 -1.78796 0
M  V30 2244 H 201.164 -4.52018 0.895358 0
M  V30 2245 H 199.479 -4.11243 0.653324 0
M  V30 2246 H 202.076 -4.96069 -1.99548 0
M  V30 2247 H 202.419 -3.32552 -2.50429 0
M  V30 2248 H 202.952 -3.87554 -0.897019 0
M  V30 2249 H 199.691 -6.53728 0.481679 0
M  V30 2250 H 199.211 -5.89515 -1.10597 0
M  V30 2251 H 200.89 -6.41752 -0.822377 0
M  V30 2252 N 201.022 0.148545 -1.56898 0
M  V30 2253 C 201.969 1.18345 -1.98149 0
M  V30 2254 C 202.939 1.42772 -0.848848 0
M  V30 2255 O 204.124 1.55132 -1.11079 0
M  V30 2256 C 201.264 2.51231 -2.36594 0
M  V30 2257 C 200.377 2.33991 -3.63142 0
M  V30 2258 C 199.512 3.59902 -3.90697 0
M  V30 2259 C 198.551 3.37692 -5.1052 0
M  V30 2260 N 197.688 4.5573 -5.34092 0
M  V30 2261 H 202.528 0.82467 -2.86362 0
M  V30 2262 H 200.065 0.395756 -1.41676 0
M  V30 2263 H 202.023 3.28713 -2.56912 0
M  V30 2264 H 200.653 2.85059 -1.51463 0
M  V30 2265 H 199.705 1.47572 -3.50609 0
M  V30 2266 H 201.017 2.13539 -4.5078 0
M  V30 2267 H 200.171 4.45813 -4.11505 0
M  V30 2268 H 198.91 3.83357 -3.01477 0
M  V30 2269 H 197.915 2.5017 -4.89587 0
M  V30 2270 H 199.14 3.15637 -6.0129 0
M  V30 2271 H 197.086 4.79361 -4.47827 0
M  V30 2272 H 197.003 4.38274 -6.15996 0
M  V30 2273 H 198.271 5.42858 -5.59397 0
M  V30 2274 N 202.5 1.5196 0.417844 0
M  V30 2275 C 203.725 1.69717 1.1921 0
M  V30 2276 C 204.15 0.402148 1.83751 0
M  V30 2277 O 203.508 -0.639593 1.69643 0
M  V30 2278 C 203.556 2.82794 2.2374 0
M  V30 2279 O 202.66 2.47756 3.29683 0
M  V30 2280 H 202.001 0.565263 0.348387 0
M  V30 2281 H 204.531 1.98621 0.490985 0
M  V30 2282 H 204.541 3.07452 2.68212 0
M  V30 2283 H 203.216 3.76756 1.76146 0
M  V30 2284 H 201.793 2.33739 2.90552 0
M  V30 2285 N 203.978 -0.674533 1.42435 0
M  V30 2286 C 205.389 -1.25514 1.38214 0
M  V30 2287 C 205.74 -1.96055 0.0755464 0
M  V30 2288 O 204.865 -2.00028 -0.8257 0
M  V30 2289 C 205.46 -2.28269 2.50357 0
M  V30 2290 C 204.019 -2.81856 2.49467 0
M  V30 2291 C 203.166 -1.56182 2.29134 0
M  V30 2292 H 206.117 -0.467902 1.51646 0
M  V30 2293 H 206.138 -3.10009 2.20624 0
M  V30 2294 H 205.65 -1.769 3.45439 0
M  V30 2295 H 203.751 -3.37346 1.58204 0
M  V30 2296 H 203.864 -3.30854 3.46515 0
M  V30 2297 H 202.228 -1.82761 1.774 0
M  V30 2298 H 203.011 -1.06778 3.26272 0
M  V30 2299 N 205.456 -1.28612 -0.910864 0
M  V30 2300 C 206.681 -1.1891 -1.69927 0
M  V30 2301 C 207.106 0.248372 -1.86453 0
M  V30 2302 O 206.464 1.17961 -1.37676 0
M  V30 2303 C 206.512 -1.89578 -3.06745 0
M  V30 2304 O 205.616 -1.20521 -3.94396 0
M  V30 2305 H 204.957 -0.412632 -0.520222 0
M  V30 2306 H 207.487 -1.69985 -1.1387 0
M  V30 2307 H 207.497 -1.97597 -3.56958 0
M  V30 2308 H 206.172 -2.94136 -2.94035 0
M  V30 2309 H 204.749 -1.20684 -3.52831 0
M  V30 2310 N 206.934 1.1197 -1.10907 0
M  V30 2311 C 207.897 2.16031 -0.765707 0
M  V30 2312 C 208.897 1.59393 0.212235 0
M  V30 2313 O 210.087 1.74196 -0.0115441 0
M  V30 2314 C 207.219 3.40632 -0.135053 0
M  V30 2315 H 208.412 2.47919 -1.68748 0
M  V30 2316 H 205.965 1.27061 -0.910226 0
M  V30 2317 H 206.7 3.14348 0.797218 0
M  V30 2318 H 206.485 3.8302 -0.838937 0
M  V30 2319 H 207.975 4.17505 0.0892469 0
M  V30 2320 N 208.412 0.89855 1.29475 0
M  V30 2321 C 209.823 0.572537 1.77705 0
M  V30 2322 C 210.174 -0.911778 1.73727 0
M  V30 2323 O 209.299 -1.71288 1.32247 0
M  V30 2324 C 209.894 1.03252 3.22683 0
M  V30 2325 C 208.453 0.757687 3.68695 0
M  V30 2326 C 207.6 1.20787 2.49612 0
M  V30 2327 H 210.551 1.08139 1.16153 0
M  V30 2328 H 210.572 0.367307 3.78723 0
M  V30 2329 H 210.084 2.11285 3.25546 0
M  V30 2330 H 208.185 -0.310079 3.71308 0
M  V30 2331 H 208.298 1.35476 4.59547 0
M  V30 2332 H 206.662 0.626888 2.46865 0
M  V30 2333 H 207.445 2.29622 2.55203 0
M  V30 2334 N 209.89 -1.43072 0.660911 0
M  V30 2335 C 211.138 -2.01323 0.177094 0
M  V30 2336 C 211.459 -1.5245 -1.2159 0
M  V30 2337 O 210.729 -0.740322 -1.81373 0
M  V30 2338 H 209.309 -0.744382 0.0624804 0
M  V30 2339 H 211.971 -1.75179 0.854305 0
M  V30 2340 H 211.067 -3.11649 0.167641 0
M  V30 2341 N 211.368 -0.403325 -1.52352 0
M  V30 2342 C 212.315 0.425011 -2.26853 0
M  V30 2343 C 213.285 1.04598 -1.29029 0
M  V30 2344 O 214.47 1.07135 -1.57882 0
M  V30 2345 C 211.61 1.53888 -3.08889 0
M  V30 2346 C 210.723 0.939396 -4.21663 0
M  V30 2347 C 209.858 2.02547 -4.91068 0
M  V30 2348 C 208.897 1.40263 -5.95813 0
M  V30 2349 N 208.034 2.4286 -6.58759 0
M  V30 2350 H 212.874 -0.21674 -2.97211 0
M  V30 2351 H 210.411 -0.118722 -1.4662 0
M  V30 2352 H 212.369 2.19558 -3.54753 0
M  V30 2353 H 210.999 2.15074 -2.40714 0
M  V30 2354 H 210.051 0.171898 -3.80011 0
M  V30 2355 H 211.363 0.44436 -4.96817 0
M  V30 2356 H 210.517 2.75958 -5.40308 0
M  V30 2357 H 209.256 2.55415 -4.15469 0
M  V30 2358 H 208.261 0.653833 -5.45898 0
M  V30 2359 H 209.486 0.881719 -6.73352 0
M  V30 2360 H 207.432 2.94871 -5.85992 0
M  V30 2361 H 207.349 1.98152 -7.2957 0
M  V30 2362 H 208.617 3.15858 -7.12639 0
M  V30 2363 N 212.846 1.57033 -0.133567 0
M  V30 2364 C 214.092 1.96764 0.515326 0
M  V30 2365 C 214.447 1.01653 1.63353 0
M  V30 2366 O 213.74 0.0491374 1.91537 0
M  V30 2367 C 213.934 3.40674 1.08057 0
M  V30 2368 C 213.763 4.49696 0.0186522 0
M  V30 2369 C 212.533 5.03567 -0.418174 0
M  V30 2370 C 214.731 5.08536 -0.767809 0
M  V30 2371 N 212.713 5.9618 -1.46434 0
M  V30 2372 C 214.084 5.97231 -1.6648 0
M  V30 2373 C 216.139 4.9115 -0.817087 0
M  V30 2374 C 214.842 6.70401 -2.60681 0
M  V30 2375 C 216.868 5.65012 -1.74687 0
M  V30 2376 C 216.23 6.53403 -2.63141 0
M  V30 2377 H 212.329 0.765919 0.157771 0
M  V30 2378 H 214.913 1.93395 -0.22506 0
M  V30 2379 H 213.084 3.44662 1.79061 0
M  V30 2380 H 214.816 3.67495 1.69497 0
M  V30 2381 H 211.571 4.73594 -0.0229803 0
M  V30 2382 H 211.995 6.47191 -1.98678 0
M  V30 2383 H 216.637 4.22543 -0.147326 0
M  V30 2384 H 214.355 7.38245 -3.28664 0
M  V30 2385 H 217.941 5.53559 -1.79063 0
M  V30 2386 H 216.821 7.09556 -3.33917 0
M  V30 2387 N 214.325 -0.140222 1.56975 0
M  V30 2388 C 215.273 -1.19207 1.99731 0
M  V30 2389 C 216.267 -1.44089 0.890777 0
M  V30 2390 O 217.473 -1.44301 1.07597 0
M  V30 2391 H 213.848 -0.40142 0.635898 0
M  V30 2392 H 215.819 -0.804813 2.87342 0
M  V30 2393 C 214.568 -2.51617 2.39967 0
M  V30 2394 H 213.891 -2.33303 3.24669 0
M  V30 2395 H 215.331 -3.23827 2.73701 0
M  V30 2396 C 213.79 -3.12654 1.25496 0
M  V30 2397 O 214.32 -3.97786 0.559371 0
M  V30 2398 N 212.526 -2.72206 1.01746 0
M  V30 2399 H 212.073 -2.03074 1.58489 0
M  V30 2400 H 212.031 -3.13377 0.253461 0
M  V30 2401 N 215.803 -1.52179 -0.40978 0
M  V30 2402 C 217.08 -1.56769 -1.16974 0
M  V30 2403 C 217.46 -0.348322 -2.08206 0
M  V30 2404 O 216.808 0.664862 -2.18613 0
M  V30 2405 C 217.018 -2.89603 -1.9476 0
M  V30 2406 C 218.366 -3.42579 -2.50849 0
M  V30 2407 O 219.39 -2.91338 -2.04941 0
M  V30 2408 O 218.249 -4.32054 -3.34652 0
M  V30 2409 H 215.343 -0.631439 -0.534054 0
M  V30 2410 H 217.889 -1.64507 -0.416613 0
M  V30 2411 H 216.661 -3.698 -1.27921 0
M  V30 2412 H 216.284 -2.85155 -2.77079 0
M  V30 2413 N 217.281 0.66697 -1.42791 0
M  V30 2414 C 218.191 1.80962 -1.49299 0
M  V30 2415 C 219.207 1.69775 -0.381108 0
M  V30 2416 O 220.383 1.91188 -0.633188 0
M  V30 2417 C 217.448 3.17156 -1.40045 0
M  V30 2418 C 216.509 3.40242 -2.6179 0
M  V30 2419 C 215.742 4.69939 -2.52969 0
M  V30 2420 O 215.965 5.48372 -1.56985 0
M  V30 2421 O 214.899 4.94441 -3.43237 0
M  V30 2422 H 218.725 1.78427 -2.45759 0
M  V30 2423 H 216.31 0.823713 -1.24641 0
M  V30 2424 H 218.192 3.98413 -1.37276 0
M  V30 2425 H 216.867 3.20312 -0.467138 0
M  V30 2426 H 215.774 2.58802 -2.70134 0
M  V30 2427 H 217.107 3.41923 -3.54047 0
M  V30 2428 N 218.759 1.29093 0.90403 0
M  V30 2429 C 219.709 1.10482 1.99443 0
M  V30 2430 C 220.693 0.0255401 1.6088 0
M  V30 2431 O 221.885 0.24677 1.75271 0
M  V30 2432 C 219.014 0.778882 3.34348 0
M  V30 2433 C 218.1 1.89749 3.79284 0
M  V30 2434 N 218.491 3.14045 3.96497 0
M  V30 2435 C 216.789 1.78955 4.08523 0
M  V30 2436 C 217.49 3.86996 4.34292 0
M  V30 2437 N 216.466 3.14909 4.43095 0
M  V30 2438 H 220.268 2.04778 2.10815 0
M  V30 2439 H 217.782 1.20155 1.09255 0
M  V30 2440 H 219.779 0.62661 4.12164 0
M  V30 2441 H 218.439 -0.156205 3.24324 0
M  V30 2442 H 219.45 3.49548 3.82148 0
M  V30 2443 H 216.127 0.926886 4.07081 0
M  V30 2444 H 217.517 4.93941 4.55491 0
M  V30 2445 N 220.237 -1.11381 1.11499 0
M  V30 2446 C 221.477 -1.84763 0.874188 0
M  V30 2447 C 221.841 -1.82726 -0.589496 0
M  V30 2448 O 223.042 -2.51562 -0.947089 0
M  V30 2449 C 221.313 -3.27931 1.42112 0
M  V30 2450 S 222.872 -4.18557 1.31739 0
M  V30 2451 H 219.69 -0.637115 0.315603 0
M  V30 2452 H 222.292 -1.34097 1.42261 0
M  V30 2453 H 220.996 -3.26978 2.48019 0
M  V30 2454 H 220.527 -3.83665 0.869761 0
M  V30 2455 H 222.542 -4.95396 0.282335 0
M  V30 2456 N 221.715 -0.905404 -1.28997 0
M  V30 2457 C 222.645 -0.404212 -2.29975 0
M  V30 2458 C 223.626 0.523784 -1.61835 0
M  V30 2459 O 224.811 0.433298 -1.89304 0
M  V30 2460 C 221.941 0.364042 -3.45387 0
M  V30 2461 C 220.895 -0.474048 -4.25367 0
M  V30 2462 C 220.221 0.422045 -5.33032 0
M  V30 2463 C 221.521 -1.72696 -4.92923 0
M  V30 2464 H 223.215 -1.24807 -2.72146 0
M  V30 2465 H 220.761 -0.601585 -1.30832 0
M  V30 2466 H 222.714 0.725447 -4.15109 0
M  V30 2467 H 221.438 1.24174 -3.02074 0
M  V30 2468 H 220.097 -0.81786 -3.57361 0
M  V30 2469 H 219.745 1.29804 -4.85963 0
M  V30 2470 H 219.445 -0.135057 -5.87445 0
M  V30 2471 H 220.969 0.779517 -6.05604 0
M  V30 2472 H 222.383 -1.43495 -5.55051 0
M  V30 2473 H 220.78 -2.22582 -5.57295 0
M  V30 2474 H 221.85 -2.45964 -4.17887 0
M  V30 2475 N 223.193 1.4272 -0.668489 0
M  V30 2476 C 224.14 2.30796 0.0137489 0
M  V30 2477 C 225.11 1.4561 0.799177 0
M  V30 2478 O 226.295 1.74453 0.772702 0
M  V30 2479 C 223.435 3.31377 0.963507 0
M  V30 2480 C 222.548 4.31655 0.172569 0
M  V30 2481 C 221.683 5.19312 1.1175 0
M  V30 2482 C 220.722 6.11274 0.317886 0
M  V30 2483 N 219.859 6.91504 1.2152 0
M  V30 2484 H 224.699 2.88585 -0.743161 0
M  V30 2485 H 222.236 1.42154 -0.378226 0
M  V30 2486 H 224.194 3.88214 1.52792 0
M  V30 2487 H 222.824 2.75202 1.68712 0
M  V30 2488 H 221.876 3.76988 -0.508374 0
M  V30 2489 H 223.188 4.96779 -0.448527 0
M  V30 2490 H 222.342 5.80851 1.75206 0
M  V30 2491 H 221.081 4.5435 1.77249 0
M  V30 2492 H 220.086 5.48809 -0.329918 0
M  V30 2493 H 221.311 6.78283 -0.332917 0
M  V30 2494 H 219.257 6.29176 1.85671 0
M  V30 2495 H 219.174 7.53209 0.649036 0
M  V30 2496 H 220.442 7.57535 1.83742 0
M  V30 2497 N 224.671 0.411399 1.52136 0
M  V30 2498 C 225.618 -0.412975 2.27075 0
M  V30 2499 C 226.588 -1.03912 1.29582 0
M  V30 2500 O 227.773 -1.06296 1.58448 0
M  V30 2501 C 224.913 -1.52247 3.09701 0
M  V30 2502 C 224.026 -0.917021 4.22155 0
M  V30 2503 C 223.161 -1.9994 4.92135 0
M  V30 2504 C 222.2 -1.37101 5.96548 0
M  V30 2505 N 221.337 -2.39364 6.60038 0
M  V30 2506 H 226.177 0.232499 2.97092 0
M  V30 2507 H 223.714 0.126496 1.46555 0
M  V30 2508 H 225.672 -2.17674 3.55913 0
M  V30 2509 H 224.302 -2.13794 2.41851 0
M  V30 2510 H 223.354 -0.151742 3.80097 0
M  V30 2511 H 224.666 -0.418006 4.97045 0
M  V30 2512 H 223.82 -2.73088 5.41763 0
M  V30 2513 H 222.559 -2.53208 4.16818 0
M  V30 2514 H 221.564 -0.624873 5.46237 0
M  V30 2515 H 222.789 -0.845998 6.7381 0
M  V30 2516 H 220.735 -2.91759 5.87548 0
M  V30 2517 H 220.652 -1.9428 7.3061 0
M  V30 2518 H 221.92 -3.12074 7.14304 0
M  V30 2519 N 226.149 -1.5696 0.141893 0
M  V30 2520 C 227.096 -2.16501 -0.799737 0
M  V30 2521 C 228.066 -1.09643 -1.24771 0
M  V30 2522 O 229.251 -1.3766 -1.32115 0
M  V30 2523 C 226.391 -2.78679 -2.03549 0
M  V30 2524 C 225.504 -3.99914 -1.6338 0
M  V30 2525 C 224.639 -4.50106 -2.82096 0
M  V30 2526 C 223.678 -5.63819 -2.38275 0
M  V30 2527 N 222.815 -6.08651 -3.49983 0
M  V30 2528 H 227.655 -2.96632 -0.285179 0
M  V30 2529 H 225.192 -1.46533 -0.129053 0
M  V30 2530 H 227.15 -3.1287 -2.75986 0
M  V30 2531 H 225.78 -2.012 -2.52425 0
M  V30 2532 H 224.832 -3.71735 -0.807279 0
M  V30 2533 H 226.144 -4.82311 -1.27192 0
M  V30 2534 H 225.298 -4.86325 -3.62729 0
M  V30 2535 H 224.037 -3.66706 -3.21525 0
M  V30 2536 H 223.042 -5.2718 -1.56081 0
M  V30 2537 H 224.267 -6.49 -1.99938 0
M  V30 2538 H 222.213 -5.28188 -3.89042 0
M  V30 2539 H 222.13 -6.85961 -3.17794 0
M  V30 2540 H 223.398 -6.49515 -4.30988 0
M  V30 2541 N 227.627 0.131896 -1.57047 0
M  V30 2542 C 228.577 1.1679 -1.95816 0
M  V30 2543 C 229.561 1.37756 -0.831393 0
M  V30 2544 O 230.753 1.39065 -1.09499 0
M  V30 2545 C 227.882 2.49778 -2.35512 0
M  V30 2546 C 226.968 2.32342 -3.54793 0
M  V30 2547 N 227.359 1.8469 -4.70875 0
M  V30 2548 C 225.657 2.63043 -3.60173 0
M  V30 2549 C 226.358 1.80656 -5.52936 0
M  V30 2550 N 225.334 2.24528 -4.95064 0
M  V30 2551 H 229.136 0.791818 -2.83033 0
M  V30 2552 H 226.65 0.339791 -1.58805 0
M  V30 2553 H 228.647 3.24692 -2.61498 0
M  V30 2554 H 227.307 2.88156 -1.49654 0
M  V30 2555 H 228.318 1.54429 -4.9434 0
M  V30 2556 H 224.995 3.05193 -2.84892 0
M  V30 2557 H 226.385 1.45178 -6.56028 0
M  V30 2558 N 229.106 1.52395 0.401703 0
M  V30 2559 C 230.069 1.75636 1.47257 0
M  V30 2560 C 231.069 0.62628 1.48103 0
M  V30 2561 O 232.259 0.894227 1.49497 0
M  V30 2562 C 229.391 1.84553 2.86624 0
M  V30 2563 H 230.584 2.71241 1.27938 0
M  V30 2564 H 228.137 1.42923 0.632662 0
M  V30 2565 H 228.872 0.908882 3.11303 0
M  V30 2566 H 228.657 2.66715 2.87412 0
M  V30 2567 H 230.147 2.04251 3.64241 0
M  V30 2568 N 230.584 -0.659388 1.43143 0
M  V30 2569 C 231.514 -1.78422 1.50625 0
M  V30 2570 C 232.495 -1.66216 0.361443 0
M  V30 2571 O 233.68 -1.85404 0.577834 0
M  V30 2572 C 230.81 -3.16815 1.42287 0
M  V30 2573 C 229.764 -3.43777 2.54954 0
M  V30 2574 C 229.09 -4.81905 2.31671 0
M  V30 2575 C 230.39 -3.39134 3.97222 0
M  V30 2576 H 232.084 -1.72417 2.44771 0
M  V30 2577 H 229.63 -0.828084 1.17808 0
M  V30 2578 H 231.583 -3.95253 1.46127 0
M  V30 2579 H 230.307 -3.23534 0.446435 0
M  V30 2580 H 228.966 -2.67707 2.50457 0
M  V30 2581 H 228.614 -4.85294 1.32284 0
M  V30 2582 H 228.314 -5.00906 3.07192 0
M  V30 2583 H 229.838 -5.62609 2.37284 0
M  V30 2584 H 231.252 -4.07518 4.03239 0
M  V30 2585 H 229.649 -3.69671 4.72719 0
M  V30 2586 H 230.719 -2.37426 4.22797 0
M  V30 2587 N 232.062 -1.29571 -0.897171 0
M  V30 2588 C 233.302 -1.18959 -1.66217 0
M  V30 2589 C 233.666 0.254271 -1.90309 0
M  V30 2590 O 234.867 0.483407 -2.64417 0
M  V30 2591 C 233.138 -1.98302 -2.9734 0
M  V30 2592 S 234.697 -2.04253 -3.88364 0
M  V30 2593 H 231.515 -0.424137 -0.570639 0
M  V30 2594 H 234.117 -1.6389 -1.06585 0
M  V30 2595 H 232.821 -3.02342 -2.77521 0
M  V30 2596 H 232.352 -1.53986 -3.62011 0
M  V30 2597 H 234.367 -1.16105 -4.82425 0
M  V30 2598 N 233.54 1.10788 -1.12088 0
M  V30 2599 C 234.77 1.86191 -0.895351 0
M  V30 2600 C 235.178 1.80763 0.558702 0
M  V30 2601 O 234.521 1.19188 1.39785 0
M  V30 2602 C 234.583 3.35659 -1.28737 0
M  V30 2603 C 234.247 3.64849 -2.75198 0
M  V30 2604 C 235.244 3.61757 -3.734 0
M  V30 2605 C 232.929 3.93641 -3.12013 0
M  V30 2606 C 234.923 3.87045 -5.06434 0
M  V30 2607 C 232.61 4.18585 -4.4523 0
M  V30 2608 C 233.608 4.15277 -5.42249 0
M  V30 2609 O 233.296 4.3959 -6.73065 0
M  V30 2610 H 233.028 0.595425 -0.32007 0
M  V30 2611 H 235.582 1.40992 -1.49367 0
M  V30 2612 H 233.812 3.81497 -0.63224 0
M  V30 2613 H 235.501 3.92441 -1.03656 0
M  V30 2614 H 236.267 3.39557 -3.46303 0
M  V30 2615 H 232.146 3.95348 -2.37109 0
M  V30 2616 H 235.69 3.84378 -5.82151 0
M  V30 2617 H 231.587 4.40264 -4.72057 0
M  V30 2618 H 232.355 4.57123 -6.78956 0
M  V30 2619 N 235.018 0.912232 1.28515 0
M  V30 2620 C 236.246 0.560416 1.99166 0
M  V30 2621 C 236.661 -0.857927 1.68182 0
M  V30 2622 O 236.018 -1.56805 0.933733 0
M  V30 2623 C 236.069 0.758142 3.53461 0
M  V30 2624 O 235.79 2.12067 3.83352 0
M  V30 2625 C 237.291 0.412954 4.41372 0
M  V30 2626 H 234.511 0.213805 0.636026 0
M  V30 2627 H 237.055 1.22502 1.63749 0
M  V30 2628 H 235.21 0.140556 3.87145 0
M  V30 2629 H 235.624 2.15923 4.77993 0
M  V30 2630 H 237.098 0.60208 5.48707 0
M  V30 2631 H 237.575 -0.65073 4.34353 0
M  V30 2632 H 238.181 1.00802 4.13182 0
M  V30 2633 N 236.496 -1.42363 0.676048 0
M  V30 2634 C 237.459 -2.29199 0.00766941 0
M  V30 2635 C 238.459 -1.43389 -0.727745 0
M  V30 2636 O 239.649 -1.64764 -0.56556 0
M  V30 2637 C 236.781 -3.2591 -0.999785 0
M  V30 2638 H 237.974 -2.89794 0.771988 0
M  V30 2639 H 235.527 -1.50024 0.438468 0
M  V30 2640 H 236.262 -2.70256 -1.79255 0
M  V30 2641 H 236.047 -3.89202 -0.475829 0
M  V30 2642 H 237.537 -3.91028 -1.46583 0
M  V30 2643 N 237.974 -0.419461 -1.51915 0
M  V30 2644 C 239.199 0.154572 -2.06823 0
M  V30 2645 C 239.624 1.3722 -1.28656 0
M  V30 2646 O 238.982 1.78461 -0.319583 0
M  V30 2647 C 239.03 0.473172 -3.57482 0
M  V30 2648 O 238.134 1.56255 -3.81652 0
M  V30 2649 H 237.475 0.0096924 -0.663929 0
M  V30 2650 H 240.005 -0.595642 -1.95738 0
M  V30 2651 H 240.015 0.728825 -4.01438 0
M  V30 2652 H 238.69 -0.416873 -4.13805 0
M  V30 2653 H 237.267 1.29825 -3.49571 0
M  V30 2654 N 239.452 1.56882 -0.150215 0
M  V30 2655 C 240.692 1.98119 0.502804 0
M  V30 2656 C 241.056 1.03327 1.61826 0
M  V30 2657 O 242.257 1.33621 2.33236 0
M  V30 2658 C 240.528 3.43329 0.992988 0
M  V30 2659 S 242.087 4.0659 1.65015 0
M  V30 2660 H 238.905 0.692189 0.162467 0
M  V30 2661 H 241.507 1.93988 -0.242689 0
M  V30 2662 H 240.211 4.10046 0.170436 0
M  V30 2663 H 239.742 3.5118 1.77303 0
M  V30 2664 H 241.757 3.99906 2.93752 0
M  V30 2665 N 240.93 -0.123565 1.57115 0
M  V30 2666 C 241.862 -1.17739 1.96648 0
M  V30 2667 C 242.875 -1.37906 0.865201 0
M  V30 2668 O 244.064 -1.37062 1.14351 0
M  V30 2669 C 241.164 -2.53821 2.24562 0
M  V30 2670 C 240.337 -2.54317 3.55867 0
M  V30 2671 C 239.396 -3.72112 3.72047 0
M  V30 2672 O 238.422 -3.55907 4.44206 0
M  V30 2673 N 239.624 -4.90498 3.10471 0
M  V30 2674 H 242.389 -0.841147 2.87654 0
M  V30 2675 H 239.95 -0.31289 1.58848 0
M  V30 2676 H 241.942 -3.31175 2.32606 0
M  V30 2677 H 240.512 -2.79645 1.39705 0
M  V30 2678 H 239.732 -1.62711 3.59053 0
M  V30 2679 H 241.02 -2.51701 4.42181 0
M  V30 2680 H 240.418 -5.06567 2.51806 0
M  V30 2681 H 238.975 -5.65544 3.24043 0
M  V30 2682 N 242.408 -1.52605 -0.393616 0
M  V30 2683 C 243.685 -1.58001 -1.15304 0
M  V30 2684 C 244.065 -0.370385 -2.07825 0
M  V30 2685 O 243.413 0.641638 -2.19306 0
M  V30 2686 C 243.623 -2.91652 -1.91677 0
M  V30 2687 C 244.971 -3.4522 -2.47201 0
M  V30 2688 O 245.995 -2.93495 -2.01839 0
M  V30 2689 O 244.854 -4.35579 -3.3005 0
M  V30 2690 H 241.948 -0.637068 -0.527327 0
M  V30 2691 H 244.494 -1.64939 -0.399141 0
M  V30 2692 H 243.266 -3.71136 -1.23992 0
M  V30 2693 H 242.889 -2.88077 -2.74039 0
M  V30 2694 N 243.887 0.651787 -1.4349 0
M  V30 2695 C 244.82 1.77668 -1.43211 0
M  V30 2696 C 245.798 1.59931 -0.29338 0
M  V30 2697 O 246.982 1.82095 -0.487191 0
M  V30 2698 C 244.109 3.14986 -1.24505 0
M  V30 2699 C 243.155 3.51421 -2.41673 0
M  V30 2700 S 243.988 3.51234 -4.04222 0
M  V30 2701 C 245.144 4.91206 -3.87902 0
M  V30 2702 H 245.377 1.77635 -2.38397 0
M  V30 2703 H 242.91 0.824558 -1.30539 0
M  V30 2704 H 244.868 3.94237 -1.144 0
M  V30 2705 H 243.529 3.1258 -0.308651 0
M  V30 2706 H 242.722 4.51291 -2.24393 0
M  V30 2707 H 242.324 2.79585 -2.48411 0
M  V30 2708 H 244.616 5.79902 -3.50315 0
M  V30 2709 H 245.559 5.13537 -4.8753 0
M  V30 2710 H 245.967 4.64808 -3.20334 0
M  V30 2711 N 245.365 1.30045 0.890287 0
M  V30 2712 C 246.59 1.21598 1.68014 0
M  V30 2713 C 247.015 -0.218678 1.86825 0
M  V30 2714 O 246.373 -1.15756 1.39536 0
M  V30 2715 C 246.421 1.94434 3.03691 0
M  V30 2716 O 245.525 1.2678 3.92429 0
M  V30 2717 H 244.866 0.420856 0.513592 0
M  V30 2718 H 247.396 1.71775 1.11151 0
M  V30 2719 H 247.406 2.03251 3.5377 0
M  V30 2720 H 246.081 2.98777 2.89318 0
M  V30 2721 H 244.658 1.26282 3.50866 0
M  V30 2722 N 246.843 -1.10192 1.12674 0
M  V30 2723 C 248.083 -1.83825 0.893736 0
M  V30 2724 C 248.447 -1.83341 -0.570082 0
M  V30 2725 O 249.648 -2.52553 -0.920354 0
M  V30 2726 C 247.919 -3.26405 1.45582 0
M  V30 2727 S 249.478 -4.17136 1.36171 0
M  V30 2728 H 246.296 -0.633732 0.322342 0
M  V30 2729 H 248.898 -1.32581 1.43675 0
M  V30 2730 H 247.602 -3.24329 2.51473 0
M  V30 2731 H 247.133 -3.82721 0.910405 0
M  V30 2732 H 249.148 -4.95069 0.334863 0
M  V30 2733 N 248.321 -0.919034 -1.28029 0
M  V30 2734 C 249.546 -0.570357 -1.99403 0
M  V30 2735 C 249.971 0.842486 -1.68178 0
M  V30 2736 O 249.329 1.56391 -0.917141 0
M  V30 2737 C 249.377 -0.792541 -3.51783 0
M  V30 2738 O 248.481 0.145988 -4.12142 0
M  V30 2739 H 247.822 -0.220555 -0.6263 0
M  V30 2740 H 250.352 -1.23592 -1.63053 0
M  V30 2741 H 250.362 -0.704708 -4.01868 0
M  V30 2742 H 249.037 -1.82247 -3.73844 0
M  V30 2743 H 247.614 0.00897528 -3.72899 0
M  V30 2744 N 249.799 1.42003 -0.683588 0
M  V30 2745 C 250.746 2.30798 -0.0107309 0
M  V30 2746 C 251.716 1.4645 0.783688 0
M  V30 2747 O 252.901 1.75263 0.754156 0
M  V30 2748 C 250.041 3.3238 0.928306 0
M  V30 2749 C 249.154 4.31814 0.126776 0
M  V30 2750 C 248.289 5.20468 1.06236 0
M  V30 2751 C 247.328 6.11577 0.253035 0
M  V30 2752 N 246.465 6.92754 1.14179 0
M  V30 2753 H 251.305 2.8778 -0.773727 0
M  V30 2754 H 248.842 1.41745 -0.393283 0
M  V30 2755 H 250.8 3.89813 1.48666 0
M  V30 2756 H 249.43 2.76976 1.65783 0
M  V30 2757 H 248.482 3.76427 -0.54833 0
M  V30 2758 H 249.794 4.96276 -0.501192 0
M  V30 2759 H 248.948 5.82677 1.69035 0
M  V30 2760 H 247.687 4.56204 1.7242 0
M  V30 2761 H 246.692 5.48428 -0.388108 0
M  V30 2762 H 247.917 6.77892 -0.404839 0
M  V30 2763 H 245.863 6.3111 1.78987 0
M  V30 2764 H 245.78 7.53855 0.569111 0
M  V30 2765 H 247.048 7.59441 1.75697 0
M  V30 2766 N 251.277 0.427512 1.51691 0
M  V30 2767 C 252.209 -0.424521 2.25234 0
M  V30 2768 C 253.222 -0.994671 1.2888 0
M  V30 2769 O 254.411 -0.890483 1.54702 0
M  V30 2770 C 251.511 -1.60479 2.98496 0
M  V30 2771 C 250.684 -1.15527 4.21868 0
M  V30 2772 C 249.743 -2.20454 4.77793 0
M  V30 2773 O 248.769 -1.8029 5.39893 0
M  V30 2774 N 249.971 -3.52831 4.60967 0
M  V30 2775 H 252.736 0.205749 2.98993 0
M  V30 2776 H 250.297 0.255867 1.59865 0
M  V30 2777 H 252.289 -2.30276 3.32799 0
M  V30 2778 H 250.859 -2.14061 2.27809 0
M  V30 2779 H 250.079 -0.284736 3.9317 0
M  V30 2780 H 251.367 -0.832173 5.01949 0
M  V30 2781 H 250.765 -3.88201 4.11481 0
M  V30 2782 H 249.322 -4.18551 4.99658 0
M  V30 2783 N 252.755 -1.56801 0.158532 0
M  V30 2784 C 254.003 -1.96102 -0.488712 0
M  V30 2785 C 254.324 -1.04498 -1.64636 0
M  V30 2786 O 253.594 -0.108783 -1.95598 0
M  V30 2787 H 252.174 -0.724102 -0.183535 0
M  V30 2788 H 254.836 -1.93457 0.236728 0
M  V30 2789 H 253.932 -3.00097 -0.857219 0
M  V30 2790 N 254.233 0.115231 -1.57178 0
M  V30 2791 C 255.143 1.15994 -2.03918 0
M  V30 2792 C 256.159 1.45103 -0.960268 0
M  V30 2793 O 257.335 1.56144 -1.27204 0
M  V30 2794 C 254.4 2.46568 -2.43732 0
M  V30 2795 C 253.461 2.24822 -3.65723 0
M  V30 2796 C 252.694 3.4917 -4.03629 0
M  V30 2797 O 252.917 4.56623 -3.41835 0
M  V30 2798 O 251.851 3.39949 -4.96708 0
M  V30 2799 H 255.677 0.793019 -2.93164 0
M  V30 2800 H 253.262 0.3263 -1.45793 0
M  V30 2801 H 255.144 3.23492 -2.70057 0
M  V30 2802 H 253.819 2.82726 -1.57631 0
M  V30 2803 H 252.726 1.45744 -3.44542 0
M  V30 2804 H 254.059 1.93566 -4.52541 0
M  V30 2805 N 255.711 1.52812 0.385517 0
M  V30 2806 C 256.951 1.69716 1.13911 0
M  V30 2807 C 257.315 0.42962 1.87132 0
M  V30 2808 O 258.516 0.475071 2.64569 0
M  V30 2809 C 256.787 2.90021 2.0886 0
M  V30 2810 S 258.346 3.27531 2.92009 0
M  V30 2811 H 255.164 0.59739 0.385547 0
M  V30 2812 H 257.766 1.90868 0.423061 0
M  V30 2813 H 256.47 3.80493 1.53797 0
M  V30 2814 H 256.001 2.71213 2.84969 0
M  V30 2815 H 258.016 2.77989 4.11019 0
M  V30 2816 N 257.189 -0.644168 1.43834 0
M  V30 2817 C 258.119 -1.76814 1.52509 0
M  V30 2818 C 259.1 -1.65823 0.379052 0
M  V30 2819 O 260.285 -1.84781 0.597466 0
M  V30 2820 C 257.415 -3.15288 1.4564 0
M  V30 2821 C 256.369 -3.41053 2.58586 0
M  V30 2822 C 255.695 -4.79421 2.36769 0
M  V30 2823 C 256.995 -3.34902 4.00797 0
M  V30 2824 H 258.689 -1.69812 2.46586 0
M  V30 2825 H 256.235 -0.815542 1.1868 0
M  V30 2826 H 258.188 -3.93681 1.50311 0
M  V30 2827 H 256.912 -3.23043 0.480725 0
M  V30 2828 H 255.571 -2.65035 2.53282 0
M  V30 2829 H 255.219 -4.83863 1.37424 0
M  V30 2830 H 254.919 -4.9762 3.12487 0
M  V30 2831 H 256.443 -5.6006 2.43238 0
M  V30 2832 H 257.857 -4.03218 4.07539 0
M  V30 2833 H 256.254 -3.64637 4.76613 0
M  V30 2834 H 257.324 -2.32928 4.25291 0
M  V30 2835 N 258.668 -1.30515 -0.883378 0
M  V30 2836 C 259.578 -1.18959 -2.02203 0
M  V30 2837 C 260.594 -0.109172 -1.73657 0
M  V30 2838 O 261.77 -0.324413 -1.9877 0
M  V30 2839 C 258.835 -0.883871 -3.35244 0
M  V30 2840 C 257.896 -2.04982 -3.77201 0
M  V30 2841 C 257.129 -1.75859 -5.03894 0
M  V30 2842 O 257.352 -0.687276 -5.66244 0
M  V30 2843 O 256.286 -2.61146 -5.42297 0
M  V30 2844 H 260.112 -2.14616 -2.1488 0
M  V30 2845 H 257.697 -1.10124 -1.0096 0
M  V30 2846 H 259.579 -0.728644 -4.15053 0
M  V30 2847 H 258.254 0.0427798 -3.23672 0
M  V30 2848 H 257.161 -2.26038 -2.9809 0
M  V30 2849 H 258.494 -2.95825 -3.93381 0
M  V30 2850 N 260.146 1.09593 -1.13257 0
M  V30 2851 C 261.374 1.855 -0.916378 0
M  V30 2852 C 261.789 1.81069 0.534738 0
M  V30 2853 O 261.146 1.20562 1.37007 0
M  V30 2854 C 261.197 3.33546 -1.39388 0
M  V30 2855 O 260.918 3.37927 -2.78813 0
M  V30 2856 C 262.419 4.26299 -1.21588 0
M  V30 2857 H 259.639 0.585991 -0.326887 0
M  V30 2858 H 262.183 1.38488 -1.5047 0
M  V30 2859 H 260.338 3.77992 -0.848597 0
M  V30 2860 H 260.752 4.30254 -2.9997 0
M  V30 2861 H 262.226 5.28341 -1.59876 0
M  V30 2862 H 262.703 4.38918 -0.157376 0
M  V30 2863 H 263.309 3.87668 -1.7491 0
M  V30 2864 N 261.624 0.925811 1.2754 0
M  V30 2865 C 262.873 0.561084 1.93739 0
M  V30 2866 C 263.186 -0.901685 1.73577 0
M  V30 2867 O 264.392 -1.37511 2.34101 0
M  V30 2868 C 262.848 0.952668 3.47062 0
M  V30 2869 C 262.456 2.43599 3.75983 0
M  V30 2870 C 264.2 0.659103 4.19352 0
M  V30 2871 C 262.107 2.76707 5.22673 0
M  V30 2872 H 261.037 0.206122 0.725279 0
M  V30 2873 H 263.688 1.12637 1.44863 0
M  V30 2874 H 262.07 0.316053 3.94737 0
M  V30 2875 H 263.244 3.12035 3.39073 0
M  V30 2876 H 261.559 2.70125 3.16893 0
M  V30 2877 H 264.156 0.882985 5.27359 0
M  V30 2878 H 264.499 -0.403607 4.14339 0
M  V30 2879 H 265.032 1.25473 3.77494 0
M  V30 2880 H 261.771 3.8188 5.32774 0
M  V30 2881 H 261.291 2.12919 5.60737 0
M  V30 2882 H 262.97 2.6435 5.90532 0
M  V30 2883 N 263.102 -1.41638 0.69111 0
M  V30 2884 C 264.35 -2.00902 0.219758 0
M  V30 2885 C 264.671 -1.54994 -1.18329 0
M  V30 2886 O 263.941 -0.778628 -1.79762 0
M  V30 2887 H 262.521 -0.74289 0.0782558 0
M  V30 2888 H 265.183 -1.73327 0.891271 0
M  V30 2889 H 264.279 -3.11224 0.233708 0
M  V30 2890 N 264.58 -0.43555 -1.51462 0
M  V30 2891 C 265.528 0.391205 -2.29287 0
M  V30 2892 C 266.522 1.02247 -1.35062 0
M  V30 2893 O 267.728 0.957646 -1.52411 0
M  V30 2894 H 264.103 0.144968 -0.737895 0
M  V30 2895 H 266.074 -0.286051 -2.97026 0
M  V30 2896 C 264.823 1.48096 -3.14583 0
M  V30 2897 H 264.146 1.00457 -3.86973 0
M  V30 2898 H 265.586 2.03273 -3.72097 0
M  V30 2899 C 264.045 2.46321 -2.29843 0
M  V30 2900 O 264.575 3.50815 -1.95682 0
M  V30 2901 N 262.781 2.17166 -1.931 0
M  V30 2902 H 262.328 1.32218 -2.21079 0
M  V30 2903 H 262.286 2.83127 -1.36698 0
M  V30 2904 N 266.058 1.56714 -0.166846 0
M  V30 2905 C 267.288 2.00828 0.48494 0
M  V30 2906 C 267.696 1.04612 1.57648 0
M  V30 2907 O 267.039 0.0383201 1.8366 0
M  V30 2908 C 267.101 3.4137 1.12723 0
M  V30 2909 C 266.765 4.56654 0.177886 0
M  V30 2910 C 267.762 5.16402 -0.60207 0
M  V30 2911 C 265.447 5.02244 0.0750139 0
M  V30 2912 C 267.441 6.20167 -1.47215 0
M  V30 2913 C 265.128 6.05859 -0.798649 0
M  V30 2914 C 266.126 6.64691 -1.57082 0
M  V30 2915 O 265.814 7.66297 -2.42989 0
M  V30 2916 H 265.546 0.663587 0.128953 0
M  V30 2917 H 268.1 2.03692 -0.264365 0
M  V30 2918 H 266.33 3.35406 1.92457 0
M  V30 2919 H 268.019 3.69466 1.68076 0
M  V30 2920 H 268.785 4.82065 -0.53274 0
M  V30 2921 H 264.664 4.56167 0.665812 0
M  V30 2922 H 268.208 6.66016 -2.07531 0
M  V30 2923 H 264.105 6.39621 -0.869199 0
M  V30 2924 H 264.873 7.83601 -2.36455 0
M  V30 2925 N 267.536 -0.106894 1.57237 0
M  V30 2926 C 268.764 -0.826389 1.8968 0
M  V30 2927 C 269.179 -1.72856 0.759353 0
M  V30 2928 O 268.536 -1.80503 -0.269263 0
M  V30 2929 C 268.587 -1.64967 3.21665 0
M  V30 2930 O 268.308 -0.783804 4.31031 0
M  V30 2931 C 269.809 -2.47326 3.67892 0
M  V30 2932 H 267.029 -0.236927 0.627779 0
M  V30 2933 H 269.573 -0.0876593 2.04312 0
M  V30 2934 H 267.728 -2.34103 3.08666 0
M  V30 2935 H 268.142 -1.35284 5.06753 0
M  V30 2936 H 269.616 -3.00604 4.6297 0
M  V30 2937 H 270.093 -3.25247 2.95146 0
M  V30 2938 H 270.699 -1.83411 3.83719 0
M  V30 2939 N 269.014 -1.53014 -0.377408 0
M  V30 2940 C 270.254 -1.70318 -1.1301 0
M  V30 2941 C 270.618 -0.439538 -1.86901 0
M  V30 2942 O 271.819 -0.489095 -2.64313 0
M  V30 2943 C 270.09 -2.91125 -2.07319 0
M  V30 2944 S 271.649 -3.29075 -2.90268 0
M  V30 2945 H 268.467 -0.599426 -0.382374 0
M  V30 2946 H 271.069 -1.91089 -0.412933 0
M  V30 2947 H 269.773 -3.81303 -1.51777 0
M  V30 2948 H 269.304 -2.7272 -2.83526 0
M  V30 2949 H 271.319 -2.80165 -4.09539 0
M  V30 2950 N 270.492 0.636531 -1.44174 0
M  V30 2951 C 271.717 1.42847 -1.50364 0
M  V30 2952 C 272.142 1.87665 -0.127867 0
M  V30 2953 O 271.5 1.58408 0.88185 0
M  V30 2954 C 271.548 2.62854 -2.4686 0
M  V30 2955 O 270.652 3.62501 -1.9664 0
M  V30 2956 H 269.993 0.427642 -0.507955 0
M  V30 2957 H 272.523 0.777422 -1.89255 0
M  V30 2958 H 272.533 3.10465 -2.64718 0
M  V30 2959 H 271.208 2.29578 -3.46795 0
M  V30 2960 H 269.785 3.21735 -1.88523 0
M  V30 2961 N 271.97 1.30982 0.876444 0
M  V30 2962 C 273.21 1.21589 1.64303 0
M  V30 2963 C 273.574 -0.223962 1.90689 0
M  V30 2964 O 274.775 -0.44128 2.65153 0
M  V30 2965 C 273.046 2.03007 2.94148 0
M  V30 2966 S 274.605 2.10405 3.85065 0
M  V30 2967 H 271.423 0.433161 0.563819 0
M  V30 2968 H 274.025 1.65565 1.03964 0
M  V30 2969 H 272.729 3.06719 2.72675 0
M  V30 2970 H 272.26 1.59725 3.59515 0
M  V30 2971 H 274.275 1.23765 4.80517 0
M  V30 2972 N 273.449 -1.08991 1.13837 0
M  V30 2973 C 274.679 -1.84743 0.924859 0
M  V30 2974 C 275.087 -1.81629 -0.529874 0
M  V30 2975 O 274.43 -1.21397 -1.37872 0
M  V30 2976 C 274.492 -3.33568 1.34061 0
M  V30 2977 C 274.156 -3.60425 2.80968 0
M  V30 2978 C 275.153 -3.55771 3.79108 0
M  V30 2979 C 272.838 -3.88627 3.18236 0
M  V30 2980 C 274.832 -3.78939 5.12527 0
M  V30 2981 C 272.519 -4.11449 4.51833 0
M  V30 2982 C 273.517 -4.06598 5.48787 0
M  V30 2983 O 273.205 -4.28826 6.79973 0
M  V30 2984 H 272.937 -0.590258 0.329502 0
M  V30 2985 H 275.491 -1.38598 1.51591 0
M  V30 2986 H 273.721 -3.80442 0.692853 0
M  V30 2987 H 275.41 -3.90743 1.09886 0
M  V30 2988 H 276.176 -3.34005 3.51661 0
M  V30 2989 H 272.055 -3.91526 2.43369 0
M  V30 2990 H 275.599 -3.75068 5.88192 0
M  V30 2991 H 271.496 -4.32698 4.79002 0
M  V30 2992 H 272.264 -4.46264 6.86142 0
M  V30 2993 N 274.927 -0.932562 -1.27047 0
M  V30 2994 C 276.338 -0.619451 -1.76124 0
M  V30 2995 C 276.689 0.865397 -1.76083 0
M  V30 2996 O 275.814 1.67722 -1.36742 0
M  V30 2997 C 276.409 -1.11771 -3.19832 0
M  V30 2998 C 274.968 -0.855174 -3.66557 0
M  V30 2999 C 274.115 -1.27362 -2.46321 0
M  V30 3000 H 277.066 -1.11181 -1.13245 0
M  V30 3001 H 277.087 -0.46759 -3.77616 0
M  V30 3002 H 276.599 -2.19842 -3.1983 0
M  V30 3003 H 274.7 0.211524 -3.71999 0
M  V30 3004 H 274.813 -1.47613 -4.55793 0
M  V30 3005 H 273.177 -0.692119 -2.45116 0
M  V30 3006 H 273.96 -2.36307 -2.49025 0
M  V30 3007 N 276.405 1.4127 -0.698611 0
M  V30 3008 C 277.653 2.00782 -0.230409 0
M  V30 3009 C 277.974 1.5562 1.17505 0
M  V30 3010 O 277.244 0.78815 1.79346 0
M  V30 3011 H 275.824 0.742464 -0.0821944 0
M  V30 3012 H 278.486 1.72852 -0.90045 0
M  V30 3013 H 277.582 3.11095 -0.25021 0
M  V30 3014 N 277.883 0.443576 1.51229 0
M  V30 3015 C 279.13 -0.120796 2.02139 0
M  V30 3016 C 279.458 -1.42166 1.32736 0
M  V30 3017 O 278.713 -1.90849 0.43301 0
M  V30 3018 C 279.012 -0.380579 3.55368 0
M  V30 3019 C 278.678 0.83523 4.43097 0
M  V30 3020 C 277.34 1.16864 4.66794 0
M  V30 3021 C 279.692 1.64601 4.94526 0
M  V30 3022 C 277.02 2.31339 5.39165 0
M  V30 3023 C 279.372 2.78181 5.68153 0
M  V30 3024 C 278.036 3.11969 5.90112 0
M  V30 3025 H 277.306 -0.0442023 0.73968 0
M  V30 3026 H 279.953 0.592046 1.82118 0
M  V30 3027 H 278.258 -1.17538 3.73754 0
M  V30 3028 H 279.955 -0.830777 3.923 0
M  V30 3029 H 276.545 0.565437 4.24854 0
M  V30 3030 H 280.729 1.40163 4.76097 0
M  V30 3031 H 275.985 2.57823 5.5438 0
M  V30 3032 H 280.159 3.41371 6.06992 0
M  V30 3033 H 277.786 4.00784 6.45969 0
M  V30 3034 N 279.361 -1.56624 0.175154 0
M  V30 3035 C 280.591 -2.01082 -0.474283 0
M  V30 3036 C 280.999 -1.05447 -1.57091 0
M  V30 3037 O 280.342 -0.0480595 -1.83637 0
M  V30 3038 C 280.404 -3.41963 -1.10911 0
M  V30 3039 C 280.068 -4.56742 -0.153666 0
M  V30 3040 C 281.065 -5.16076 0.629448 0
M  V30 3041 C 278.75 -5.02277 -0.0483776 0
M  V30 3042 C 280.744 -6.19377 1.50501 0
M  V30 3043 C 278.431 -6.05427 0.830768 0
M  V30 3044 C 279.429 -6.63849 1.60605 0
M  V30 3045 O 279.117 -7.64998 2.47049 0
M  V30 3046 H 278.849 -0.664261 -0.125432 0
M  V30 3047 H 281.403 -2.03549 0.275163 0
M  V30 3048 H 279.633 -3.36422 -1.90676 0
M  V30 3049 H 281.322 -3.70352 -1.66114 0
M  V30 3050 H 282.088 -4.81776 0.558297 0
M  V30 3051 H 277.967 -4.56513 -0.641611 0
M  V30 3052 H 281.511 -6.64906 2.1106 0
M  V30 3053 H 277.408 -6.39151 0.903107 0
M  V30 3054 H 278.176 -7.82336 2.40607 0
M  V30 3055 N 280.839 0.0985539 -1.57292 0
M  V30 3056 C 282.087 0.801092 -1.85545 0
M  V30 3057 C 282.408 1.79438 -0.763353 0
M  V30 3058 O 281.678 1.94763 0.21073 0
M  V30 3059 H 280.258 0.29884 -0.684619 0
M  V30 3060 H 282.92 0.0810064 -1.94732 0
M  V30 3061 H 282.016 1.3338 -2.82163 0
M  V30 3062 N 282.317 1.53212 0.369288 0
M  V30 3063 C 283.728 1.60943 0.946276 0
M  V30 3064 C 284.079 0.47452 1.90375 0
M  V30 3065 O 283.204 -0.399597 2.12679 0
M  V30 3066 C 283.799 2.91715 1.72302 0
M  V30 3067 C 282.358 3.01792 2.24941 0
M  V30 3068 C 281.505 2.56211 1.06072 0
M  V30 3069 H 284.456 1.58007 0.148198 0
M  V30 3070 H 284.477 2.79309 2.58393 0
M  V30 3071 H 283.989 3.74295 1.0259 0
M  V30 3072 H 282.09 2.23791 2.97906 0
M  V30 3073 H 282.203 4.06803 2.53077 0
M  V30 3074 H 280.567 2.10998 1.4266 0
M  V30 3075 H 281.35 3.41206 0.378639 0
M  V30 3076 N 283.795 -0.628877 1.44509 0
M  V30 3077 C 284.705 -1.7694 1.54044 0
M  V30 3078 C 285.721 -1.68705 0.425987 0
M  V30 3079 O 286.897 -1.89442 0.683656 0
M  V30 3080 C 283.962 -3.13332 1.48405 0
M  V30 3081 C 283.023 -3.33181 2.70719 0
M  V30 3082 C 282.256 -4.63067 2.6534 0
M  V30 3083 O 282.479 -5.44017 1.71469 0
M  V30 3084 O 281.413 -4.85167 3.56226 0
M  V30 3085 H 285.239 -1.71848 2.50403 0
M  V30 3086 H 282.824 -0.790378 1.26781 0
M  V30 3087 H 284.706 -3.94634 1.47791 0
M  V30 3088 H 283.381 -3.1896 0.551898 0
M  V30 3089 H 282.288 -2.51549 2.769 0
M  V30 3090 H 283.621 -3.32416 3.62988 0
M  V30 3091 N 285.273 -1.31445 -0.869486 0
M  V30 3092 C 286.513 -1.22458 -1.63656 0
M  V30 3093 C 286.877 0.213846 -1.90805 0
M  V30 3094 O 288.078 0.427212 -2.65383 0
M  V30 3095 C 286.349 -2.04564 -2.93067 0
M  V30 3096 S 287.908 -2.12445 -3.83944 0
M  V30 3097 H 284.726 -0.436145 -0.561514 0
M  V30 3098 H 287.328 -1.66114 -1.03085 0
M  V30 3099 H 286.032 -3.0816 -2.71045 0
M  V30 3100 H 285.563 -1.6163 -3.58663 0
M  V30 3101 H 287.578 -1.26312 -4.79854 0
M  V30 3102 N 286.751 1.08385 -1.14413 0
M  V30 3103 C 287.661 2.18856 -0.844951 0
M  V30 3104 C 288.677 1.73121 0.174668 0
M  V30 3105 O 289.853 2.014 0.00312857 0
M  V30 3106 C 286.918 3.45155 -0.32696 0
M  V30 3107 C 285.979 4.05513 -1.40916 0
M  V30 3108 C 285.212 5.25784 -0.915793 0
M  V30 3109 O 285.435 5.69884 0.242651 0
M  V30 3110 O 284.369 5.77545 -1.69487 0
M  V30 3111 H 288.195 2.46919 -1.76818 0
M  V30 3112 H 285.78 1.17524 -0.922411 0
M  V30 3113 H 287.662 4.21377 -0.0440211 0
M  V30 3114 H 286.337 3.18668 0.568539 0
M  V30 3115 H 285.244 3.30879 -1.74556 0
M  V30 3116 H 286.577 4.3625 -2.27919 0
M  V30 3117 N 288.23 0.939286 1.26551 0
M  V30 3118 C 289.46 0.601663 1.97645 0
M  V30 3119 C 289.868 -0.827206 1.70159 0
M  V30 3120 O 289.211 -1.56291 0.965338 0
M  V30 3121 C 289.273 0.761725 3.51337 0
M  V30 3122 C 288.937 2.16487 4.0247 0
M  V30 3123 C 289.934 3.14016 4.14355 0
M  V30 3124 C 287.619 2.48494 4.36527 0
M  V30 3125 C 289.613 4.41654 4.59587 0
M  V30 3126 C 287.3 3.76364 4.81449 0
M  V30 3127 C 288.298 4.72758 4.92939 0
M  V30 3128 O 287.986 5.98352 5.36871 0
M  V30 3129 H 287.718 0.225758 0.637189 0
M  V30 3130 H 290.272 1.26178 1.62075 0
M  V30 3131 H 288.502 0.0444808 3.86674 0
M  V30 3132 H 290.191 0.427442 4.03643 0
M  V30 3133 H 290.957 2.90613 3.8829 0
M  V30 3134 H 286.836 1.74202 4.26819 0
M  V30 3135 H 290.38 5.16896 4.68471 0
M  V30 3136 H 286.277 3.99582 5.06956 0
M  V30 3137 H 287.045 6.01507 5.55096 0
M  V30 3138 N 289.708 -1.40897 0.706093 0
M  V30 3139 C 290.954 -2.01352 0.241889 0
M  V30 3140 C 291.287 -1.55832 -1.15888 0
M  V30 3141 O 290.562 -0.774145 -1.7843 0
M  V30 3142 C 290.845 -3.58752 0.311311 0
M  V30 3143 C 290.698 -4.1437 1.74978 0
M  V30 3144 C 292.017 -4.38914 -0.322922 0
M  V30 3145 H 289.136 -0.731562 0.0893687 0
M  V30 3146 H 291.778 -1.67504 0.896802 0
M  V30 3147 H 289.928 -3.87718 -0.246302 0
M  V30 3148 H 291.6 -3.96239 2.36205 0
M  V30 3149 H 289.843 -3.69016 2.28057 0
M  V30 3150 H 290.514 -5.23532 1.74981 0
M  V30 3151 H 292.99 -4.15822 0.152089 0
M  V30 3152 H 291.866 -5.48358 -0.243855 0
M  V30 3153 H 292.127 -4.19176 -1.40513 0
M  V30 3154 N 291.186 -0.45159 -1.50991 0
M  V30 3155 C 292.602 -0.104647 -1.59257 0
M  V30 3156 C 292.802 1.38728 -1.4614 0
M  V30 3157 O 291.858 2.15866 -1.30989 0
M  V30 3158 C 293.171 -0.637468 -2.93865 0
M  V30 3159 C 294.719 -0.599166 -3.07212 0
M  V30 3160 C 295.194 -1.1092 -4.44366 0
M  V30 3161 N 296.685 -1.06778 -4.50725 0
M  V30 3162 C 297.42 -1.43314 -5.55201 0
M  V30 3163 N 296.916 -1.87204 -6.67028 0
M  V30 3164 N 298.709 -1.3504 -5.45638 0
M  V30 3165 H 290.86 -1.42214 -1.57762 0
M  V30 3166 H 293.123 -0.586921 -0.744465 0
M  V30 3167 H 292.829 -1.68187 -3.08879 0
M  V30 3168 H 292.703 -0.0702139 -3.77135 0
M  V30 3169 H 295.09 0.436277 -2.91857 0
M  V30 3170 H 295.171 -1.20299 -2.25747 0
M  V30 3171 H 294.815 -2.14318 -4.60467 0
M  V30 3172 H 294.745 -0.481773 -5.24392 0
M  V30 3173 H 297.236 -0.745643 -3.70471 0
M  V30 3174 H 297.549 -2.13282 -7.42786 0
M  V30 3175 H 295.894 -1.91142 -6.68199 0
M  V30 3176 H 299.085 -1.00607 -4.57161 0
M  V30 3177 H 299.258 -1.63841 -6.26945 0
M  V30 3178 N 292.664 1.56529 -0.183458 0
M  V30 3179 C 293.574 2.22144 0.754272 0
M  V30 3180 C 294.59 1.21684 1.24374 0
M  V30 3181 O 295.766 1.54385 1.29333 0
M  V30 3182 C 292.831 2.85884 1.96141 0
M  V30 3183 C 291.892 4.01579 1.51765 0
M  V30 3184 C 291.125 4.6227 2.66725 0
M  V30 3185 O 291.348 4.21865 3.83909 0
M  V30 3186 O 290.282 5.51936 2.40104 0
M  V30 3187 H 294.108 3.02861 0.225527 0
M  V30 3188 H 291.693 1.49331 0.0453032 0
M  V30 3189 H 293.575 3.26253 2.66715 0
M  V30 3190 H 292.25 2.08154 2.47899 0
M  V30 3191 H 291.157 3.65856 0.781049 0
M  V30 3192 H 292.49 4.80938 1.04686 0
M  V30 3193 N 294.142 -0.090211 1.57342 0
M  V30 3194 C 295.382 -0.798365 1.88163 0
M  V30 3195 C 295.746 -1.75662 0.775046 0
M  V30 3196 O 296.947 -2.50849 0.965816 0
M  V30 3197 C 295.218 -1.50376 3.24225 0
M  V30 3198 S 296.777 -2.24952 3.76752 0
M  V30 3199 H 293.595 -0.265883 0.659414 0
M  V30 3200 H 296.197 -0.055264 1.95422 0
M  V30 3201 H 294.901 -0.792286 4.0268 0
M  V30 3202 H 294.432 -2.28666 3.20118 0
M  V30 3203 H 296.447 -3.51173 3.5056 0
M  V30 3204 N 295.62 -1.53406 -0.361157 0
M  V30 3205 C 296.868 -1.69467 -1.10115 0
M  V30 3206 C 297.189 -0.451352 -1.89705 0
M  V30 3207 O 296.459 0.534636 -1.88463 0
M  V30 3208 H 295.039 -0.624749 -0.409508 0
M  V30 3209 H 297.701 -1.90609 -0.406699 0
M  V30 3210 H 296.797 -2.55774 -1.78847 0
M  V30 3211 N 297.098 0.621204 -1.44841 0
M  V30 3212 C 298.008 1.7612 -1.5498 0
M  V30 3213 C 299.024 1.68477 -0.434927 0
M  V30 3214 O 300.2 1.89076 -0.693693 0
M  V30 3215 C 297.265 3.1254 -1.50065 0
M  V30 3216 C 296.326 3.31741 -2.72482 0
M  V30 3217 C 295.559 4.61653 -2.67792 0
M  V30 3218 O 295.782 5.431 -1.74352 0
M  V30 3219 O 294.716 4.83271 -3.58794 0
M  V30 3220 H 298.542 1.70518 -2.51311 0
M  V30 3221 H 296.127 0.783643 -1.27198 0
M  V30 3222 H 298.009 3.93844 -1.49882 0
M  V30 3223 H 296.684 3.18663 -0.568806 0
M  V30 3224 H 295.591 2.50077 -2.7823 0
M  V30 3225 H 296.924 3.30486 -3.64746 0
M  V30 3226 N 298.576 1.31904 0.862503 0
M  V30 3227 C 299.506 1.22782 1.98612 0
M  V30 3228 C 300.487 0.113362 1.69722 0
M  V30 3229 O 301.672 0.299218 1.91881 0
M  V30 3230 C 298.802 0.942058 3.34279 0
M  V30 3231 C 297.756 2.0169 3.77499 0
M  V30 3232 C 297.082 1.58369 5.10709 0
M  V30 3233 C 298.382 3.43096 3.93805 0
M  V30 3234 H 300.076 2.16788 2.06502 0
M  V30 3235 H 297.622 1.04366 0.992154 0
M  V30 3236 H 299.575 0.864818 4.1243 0
M  V30 3237 H 298.299 -0.0336603 3.26583 0
M  V30 3238 H 296.958 2.08416 3.01593 0
M  V30 3239 H 296.606 0.595628 4.99461 0
M  V30 3240 H 296.306 2.30279 5.40597 0
M  V30 3241 H 297.83 1.52067 5.91361 0
M  V30 3242 H 299.244 3.39003 4.62331 0
M  V30 3243 H 297.641 4.13288 4.35101 0
M  V30 3244 H 298.711 3.83334 2.96957 0
M  V30 3245 N 300.054 -1.07777 1.14986 0
M  V30 3246 C 300.964 -2.18404 0.856546 0
M  V30 3247 C 301.98 -1.73211 -0.165485 0
M  V30 3248 O 303.156 -2.01399 0.00755219 0
M  V30 3249 C 300.221 -3.44977 0.34526 0
M  V30 3250 C 299.282 -4.0476 1.43065 0
M  V30 3251 C 298.515 -5.25291 0.943663 0
M  V30 3252 O 298.738 -5.70004 -0.212426 0
M  V30 3253 O 297.672 -5.76638 1.72547 0
M  V30 3254 H 301.498 -2.45978 1.78125 0
M  V30 3255 H 299.083 -1.17033 0.928631 0
M  V30 3256 H 300.965 -4.21348 0.0663671 0
M  V30 3257 H 299.64 -3.18965 -0.551631 0
M  V30 3258 H 298.547 -3.29949 1.76309 0
M  V30 3259 H 299.88 -4.35035 2.30229 0
M  V30 3260 N 301.532 -0.945985 -1.26051 0
M  V30 3261 C 302.462 -0.477172 -2.28572 0
M  V30 3262 C 303.443 0.472032 -1.63419 0
M  V30 3263 O 304.628 0.372853 -1.90587 0
M  V30 3264 C 301.758 0.253975 -3.4637 0
M  V30 3265 C 300.712 -0.609135 -4.23643 0
M  V30 3266 C 300.038 0.252252 -5.34105 0
M  V30 3267 C 301.338 -1.8829 -4.8718 0
M  V30 3268 H 303.032 -1.33402 -2.68038 0
M  V30 3269 H 300.578 -0.642904 -1.28852 0
M  V30 3270 H 302.531 0.593016 -4.17207 0
M  V30 3271 H 301.255 1.145 -3.05871 0
M  V30 3272 H 299.914 -0.931138 -3.54578 0
M  V30 3273 H 299.562 1.14278 -4.89846 0
M  V30 3274 H 299.262 -0.32188 -5.86718 0
M  V30 3275 H 300.786 0.586454 -6.07777 0
M  V30 3276 H 302.2 -1.61081 -5.50205 0
M  V30 3277 H 300.597 -2.40199 -5.49931 0
M  V30 3278 H 301.667 -2.59134 -4.09851 0
M  V30 3279 N 303.011 1.40521 -0.713556 0
M  V30 3280 C 304.422 1.83853 -0.324807 0
M  V30 3281 C 304.773 1.59667 1.14021 0
M  V30 3282 O 303.898 1.07649 1.87725 0
M  V30 3283 C 304.493 3.33751 -0.582746 0
M  V30 3284 C 303.052 3.75584 -0.247727 0
M  V30 3285 C 302.199 2.63753 -0.856121 0
M  V30 3286 H 305.15 1.29817 -0.91286 0
M  V30 3287 H 305.171 3.80194 0.152682 0
M  V30 3288 H 304.683 3.51322 -1.64908 0
M  V30 3289 H 302.784 3.63608 0.813624 0
M  V30 3290 H 302.897 4.7373 -0.715307 0
M  V30 3291 H 301.261 2.53108 -0.28432 0
M  V30 3292 H 302.044 2.84137 -1.92668 0
M  V30 3293 N 304.489 0.459591 1.5075 0
M  V30 3294 C 305.421 -0.37665 2.26084 0
M  V30 3295 C 306.434 -0.967109 1.30961 0
M  V30 3296 O 307.623 -0.857468 1.56556 0
M  V30 3297 C 304.723 -1.54112 3.01832 0
M  V30 3298 C 303.896 -1.06553 4.24223 0
M  V30 3299 C 302.955 -2.1027 4.82362 0
M  V30 3300 O 301.981 -1.68798 5.43595 0
M  V30 3301 N 303.183 -3.42974 4.68347 0
M  V30 3302 H 305.948 0.269124 2.98489 0
M  V30 3303 H 303.509 0.28972 1.59287 0
M  V30 3304 H 305.501 -2.23165 3.37608 0
M  V30 3305 H 304.071 -2.0918 2.32298 0
M  V30 3306 H 303.291 -0.201274 3.93686 0
M  V30 3307 H 304.579 -0.725516 5.03601 0
M  V30 3308 H 303.977 -3.79385 4.19623 0
M  V30 3309 H 302.534 -4.07858 5.08424 0
M  V30 3310 N 305.967 -1.56429 0.191757 0
M  V30 3311 C 306.917 -2.15548 -0.743184 0
M  V30 3312 C 307.901 -1.09531 -1.17863 0
M  V30 3313 O 309.093 -1.35602 -1.13759 0
M  V30 3314 C 306.222 -2.81577 -1.96391 0
M  V30 3315 C 305.308 -3.9478 -1.54951 0
M  V30 3316 N 305.699 -4.98677 -0.845876 0
M  V30 3317 C 303.997 -4.06319 -1.83905 0
M  V30 3318 C 304.698 -5.78183 -0.638724 0
M  V30 3319 N 303.674 -5.30495 -1.18643 0
M  V30 3320 H 307.476 -2.9324 -0.196839 0
M  V30 3321 H 304.99 -1.62398 -0.0081603 0
M  V30 3322 H 306.987 -3.22321 -2.64415 0
M  V30 3323 H 305.647 -2.05371 -2.51501 0
M  V30 3324 H 306.658 -5.15464 -0.501704 0
M  V30 3325 H 303.335 -3.41238 -2.40548 0
M  V30 3326 H 304.725 -6.71851 -0.0807929 0
M  V30 3327 N 307.445 0.0818655 -1.57387 0
M  V30 3328 C 308.691 0.784074 -1.8703 0
M  V30 3329 C 309.024 1.77729 -0.782689 0
M  V30 3330 O 308.299 1.93384 0.208051 0
M  V30 3331 C 308.582 1.50105 -3.27323 0
M  V30 3332 C 308.435 0.524925 -4.46727 0
M  V30 3333 C 309.754 2.44843 -3.65705 0
M  V30 3334 H 306.873 0.283582 -0.680257 0
M  V30 3335 H 309.515 0.0474352 -1.89941 0
M  V30 3336 H 307.665 2.12897 -3.24972 0
M  V30 3337 H 309.337 -0.0970111 -4.61198 0
M  V30 3338 H 307.58 -0.160606 -4.33503 0
M  V30 3339 H 308.251 1.064 -5.41648 0
M  V30 3340 H 310.727 1.92135 -3.69085 0
M  V30 3341 H 309.603 2.92018 -4.64776 0
M  V30 3342 H 309.864 3.29197 -2.95096 0
M  V30 3343 N 308.923 1.53595 0.353017 0
M  V30 3344 C 309.853 1.83902 1.43883 0
M  V30 3345 C 310.834 0.693421 1.55324 0
M  V30 3346 O 312.019 0.944452 1.69687 0
M  V30 3347 C 309.149 2.04016 2.8106 0
M  V30 3348 C 308.103 3.19814 2.84434 0
M  V30 3349 C 307.429 3.25244 4.24406 0
M  V30 3350 C 308.729 4.58133 2.50822 0
M  V30 3351 H 310.423 2.74835 1.1877 0
M  V30 3352 H 307.969 1.32242 0.569917 0
M  V30 3353 H 309.922 2.238 3.57059 0
M  V30 3354 H 308.646 1.09804 3.07588 0
M  V30 3355 H 307.305 2.9987 2.10887 0
M  V30 3356 H 306.953 2.28646 4.48029 0
M  V30 3357 H 306.653 4.03054 4.27576 0
M  V30 3358 H 308.177 3.47228 5.0226 0
M  V30 3359 H 309.591 4.77995 3.16534 0
M  V30 3360 H 307.988 5.38276 2.6529 0
M  V30 3361 H 309.058 4.62387 1.46034 0
M  V30 3362 N 310.401 -0.613514 1.45168 0
M  V30 3363 C 311.334 -1.73809 1.47871 0
M  V30 3364 C 312.312 -1.59097 0.33568 0
M  V30 3365 O 313.496 -1.8074 0.535299 0
M  V30 3366 C 310.623 -3.11574 1.32813 0
M  V30 3367 C 309.669 -3.4489 2.50905 0
M  V30 3368 S 310.502 -3.40393 4.13392 0
M  V30 3369 C 311.658 -4.80749 4.00789 0
M  V30 3370 H 311.891 -1.71252 2.43023 0
M  V30 3371 H 309.424 -0.789658 1.32679 0
M  V30 3372 H 311.382 -3.91065 1.24812 0
M  V30 3373 H 310.043 -3.11652 0.391418 0
M  V30 3374 H 309.236 -4.45183 2.36279 0
M  V30 3375 H 308.838 -2.72901 2.55736 0
M  V30 3376 H 311.13 -5.7041 3.65567 0
M  V30 3377 H 312.073 -5.00431 5.00974 0
M  V30 3378 H 312.481 -4.56151 3.32545 0
M  V30 3379 N 311.879 -1.3236 -0.855495 0
M  V30 3380 C 312.827 -1.2118 -1.9854 0
M  V30 3381 C 313.821 -0.116788 -1.68997 0
M  V30 3382 O 315.027 -0.279657 -1.77814 0
M  V30 3383 H 311.402 -0.375608 -0.651477 0
M  V30 3384 H 313.373 -2.16743 -2.05098 0
M  V30 3385 C 312.122 -0.950849 -3.34446 0
M  V30 3386 H 311.445 -1.78563 -3.57708 0
M  V30 3387 H 312.885 -0.912863 -4.14057 0
M  V30 3388 C 311.344 0.346404 -3.35114 0
M  V30 3389 O 311.874 1.35855 -3.7803 0
M  V30 3390 N 310.08 0.36808 -2.88259 0
M  V30 3391 H 309.627 -0.456102 -2.5353 0
M  V30 3392 H 309.585 1.23591 -2.89089 0
M  V30 3393 N 313.357 1.07166 -1.15556 0
M  V30 3394 C 314.597 1.81391 -0.94216 0
M  V30 3395 C 314.961 1.84788 0.521272 0
M  V30 3396 O 316.162 2.54904 0.85307 0
M  V30 3397 C 314.433 3.22431 -1.54185 0
M  V30 3398 S 315.992 4.13379 -1.47183 0
M  V30 3399 H 312.81 0.624963 -0.339031 0
M  V30 3400 H 315.412 1.28725 -1.4714 0
M  V30 3401 H 314.116 3.17548 -2.59984 0
M  V30 3402 H 313.647 3.80172 -1.01156 0
M  V30 3403 H 315.662 4.94007 -0.466004 0
M  V30 3404 N 314.835 0.952656 1.25548 0
M  V30 3405 C 316.06 0.623025 1.97821 0
M  V30 3406 C 316.485 -0.7976 1.70352 0
M  V30 3407 O 315.843 -1.53905 0.958283 0
M  V30 3408 C 315.891 0.885532 3.49558 0
M  V30 3409 O 314.995 -0.0366641 4.12384 0
M  V30 3410 H 314.336 0.237082 0.620232 0
M  V30 3411 H 316.866 1.27871 1.59719 0
M  V30 3412 H 316.876 0.811009 3.99858 0
M  V30 3413 H 315.551 1.92094 3.6888 0
M  V30 3414 H 314.128 0.0898954 3.72792 0
M  V30 3415 N 316.313 -1.40141 0.720998 0
M  V30 3416 C 317.263 -2.27949 0.0482544 0
M  V30 3417 C 318.247 -1.43538 -0.727021 0
M  V30 3418 O 319.439 -1.6658 -0.598332 0
M  V30 3419 C 316.568 -3.32126 -0.868729 0
M  V30 3420 C 315.654 -4.24008 -0.0883515 0
M  V30 3421 N 316.045 -4.97154 0.931226 0
M  V30 3422 C 314.343 -4.4485 -0.320105 0
M  V30 3423 C 315.044 -5.64587 1.4006 0
M  V30 3424 N 314.02 -5.38787 0.721752 0
M  V30 3425 H 317.822 -2.81948 0.829609 0
M  V30 3426 H 315.336 -1.52656 0.554067 0
M  V30 3427 H 317.333 -3.93884 -1.36605 0
M  V30 3428 H 315.993 -2.79687 -1.6494 0
M  V30 3429 H 317.004 -5.01 1.31222 0
M  V30 3430 H 313.681 -4.03378 -1.07668 0
M  V30 3431 H 315.071 -6.33175 2.24808 0
M  V30 3432 N 317.792 -0.46758 -1.50504 0
M  V30 3433 C 319.203 -0.0116166 -1.86696 0
M  V30 3434 C 319.554 1.39202 -1.38265 0
M  V30 3435 O 318.679 2.0313 -0.746132 0
M  V30 3436 C 319.274 -0.0143044 -3.38797 0
M  V30 3437 C 317.833 0.386175 -3.74414 0
M  V30 3438 C 316.98 -0.401287 -2.74381 0
M  V30 3439 H 319.931 -0.682022 -1.43297 0
M  V30 3440 H 319.952 0.788641 -3.72237 0
M  V30 3441 H 319.464 -1.03602 -3.74016 0
M  V30 3442 H 317.565 1.41237 -3.44794 0
M  V30 3443 H 317.678 0.0899596 -4.79016 0
M  V30 3444 H 316.042 0.144536 -2.5429 0
M  V30 3445 H 316.825 -1.42244 -3.12444 0
M  V30 3446 N 319.27 1.56325 -0.20005 0
M  V30 3447 C 320.2 2.22318 0.713916 0
M  V30 3448 C 321.181 1.18788 1.21752 0
M  V30 3449 O 322.366 1.47309 1.26545 0
M  V30 3450 C 319.496 2.88639 1.93144 0
M  V30 3451 C 318.45 3.98457 1.56255 0
M  V30 3452 C 317.776 4.51967 2.85709 0
M  V30 3453 C 319.076 5.16612 0.768747 0
M  V30 3454 H 320.77 2.98952 0.163755 0
M  V30 3455 H 318.316 1.43792 0.0773219 0
M  V30 3456 H 320.269 3.33491 2.57608 0
M  V30 3457 H 318.993 2.09419 2.50621 0
M  V30 3458 H 317.652 3.54305 0.941471 0
M  V30 3459 H 317.3 3.69503 3.41287 0
M  V30 3460 H 317 5.26071 2.6177 0
M  V30 3461 H 318.524 4.99523 3.51154 0
M  V30 3462 H 319.938 5.57977 1.3166 0
M  V30 3463 H 318.335 5.96812 0.627286 0
M  V30 3464 H 319.405 4.84358 -0.229168 0
M  V30 3465 N 320.748 -0.0735177 1.57428 0
M  V30 3466 C 321.996 -0.771472 1.86796 0
M  V30 3467 C 322.317 -1.78201 0.791804 0
M  V30 3468 O 321.587 -1.95074 -0.179718 0
M  V30 3469 H 320.167 -0.28791 0.689287 0
M  V30 3470 H 322.829 -0.0500161 1.94836 0
M  V30 3471 H 321.925 -1.28874 2.8425 0
M  V30 3472 N 322.226 -1.5378 -0.344866 0
M  V30 3473 C 323.174 -1.82373 -1.4437 0
M  V30 3474 C 324.168 -0.694128 -1.54526 0
M  V30 3475 O 325.374 -0.877442 -1.57165 0
M  V30 3476 H 321.749 -0.577765 -0.481344 0
M  V30 3477 H 323.72 -2.74306 -1.17468 0
M  V30 3478 C 322.469 -2.04898 -2.80913 0
M  V30 3479 H 321.792 -2.9127 -2.73865 0
M  V30 3480 H 323.232 -2.28871 -3.56923 0
M  V30 3481 C 321.691 -0.834116 -3.26411 0
M  V30 3482 O 322.221 -0.0328885 -4.01687 0
M  V30 3483 N 320.427 -0.65171 -2.83198 0
M  V30 3484 H 319.974 -1.30489 -2.22104 0
M  V30 3485 H 319.932 0.159686 -3.13994 0
M  V30 3486 N 323.704 0.605807 -1.45491 0
M  V30 3487 C 324.951 1.36476 -1.49601 0
M  V30 3488 C 325.279 1.94007 -0.138452 0
M  V30 3489 O 324.534 1.75638 0.863114 0
M  V30 3490 C 324.833 2.53012 -2.52428 0
M  V30 3491 C 324.499 2.13617 -3.97087 0
M  V30 3492 C 323.161 2.02587 -4.36477 0
M  V30 3493 C 325.513 1.82899 -4.88055 0
M  V30 3494 C 322.841 1.59064 -5.64726 0
M  V30 3495 C 325.193 1.40861 -6.16718 0
M  V30 3496 C 323.857 1.28391 -6.55036 0
M  V30 3497 H 323.127 0.499402 -0.547429 0
M  V30 3498 H 325.774 0.684546 -1.78847 0
M  V30 3499 H 324.079 3.26379 -2.16758 0
M  V30 3500 H 325.776 3.1124 -2.52845 0
M  V30 3501 H 322.366 2.23129 -3.65939 0
M  V30 3502 H 326.55 1.90317 -4.58359 0
M  V30 3503 H 321.806 1.48034 -5.93208 0
M  V30 3504 H 325.98 1.16138 -6.86648 0
M  V30 3505 H 323.607 0.944403 -7.54311 0
M  V30 3506 N 325.182 1.32811 0.848464 0
M  V30 3507 C 326.407 1.26882 1.6406 0
M  V30 3508 C 326.832 -0.15913 1.87426 0
M  V30 3509 O 326.19 -1.11258 1.43148 0
M  V30 3510 C 326.238 2.03997 2.97351 0
M  V30 3511 O 325.342 1.39201 3.88197 0
M  V30 3512 H 324.683 0.436982 0.499943 0
M  V30 3513 H 327.213 1.75224 1.0563 0
M  V30 3514 H 327.223 2.14403 3.47124 0
M  V30 3515 H 325.898 3.0783 2.79666 0
M  V30 3516 H 324.475 1.37381 3.46671 0
M  V30 3517 N 326.66 -1.06551 1.16123 0
M  V30 3518 C 327.907 -1.79302 0.941126 0
M  V30 3519 C 328.235 -1.87105 -0.531235 0
M  V30 3520 O 327.49 -1.35692 -1.41018 0
M  V30 3521 C 327.789 -3.23911 1.51052 0
M  V30 3522 C 327.455 -3.36193 3.00475 0
M  V30 3523 C 326.117 -3.39252 3.41265 0
M  V30 3524 C 328.469 -3.38326 3.96465 0
M  V30 3525 C 325.797 -3.42057 4.76669 0
M  V30 3526 C 328.149 -3.4267 5.31752 0
M  V30 3527 C 326.813 -3.4401 5.72026 0
M  V30 3528 H 326.083 -0.656111 0.344382 0
M  V30 3529 H 328.73 -1.25325 1.44796 0
M  V30 3530 H 327.035 -3.80723 0.925063 0
M  V30 3531 H 328.732 -3.78793 1.31593 0
M  V30 3532 H 325.322 -3.34516 2.6795 0
M  V30 3533 H 329.506 -3.35176 3.6602 0
M  V30 3534 H 324.762 -3.41398 5.07206 0
M  V30 3535 H 328.936 -3.43268 6.05921 0
M  V30 3536 H 326.563 -3.45937 6.76928 0
M  V30 3537 N 328.138 -0.959301 -1.25041 0
M  V30 3538 C 329.086 -0.474437 -2.2771 0
M  V30 3539 C 330.08 0.457697 -1.631 0
M  V30 3540 O 331.286 0.333912 -1.76876 0
M  V30 3541 H 327.661 -0.134936 -0.739795 0
M  V30 3542 H 329.632 -1.35251 -2.65988 0
M  V30 3543 C 328.381 0.227884 -3.46952 0
M  V30 3544 H 327.704 -0.480248 -3.96905 0
M  V30 3545 H 329.144 0.531091 -4.20661 0
M  V30 3546 C 327.603 1.452 -3.04004 0
M  V30 3547 O 328.133 2.54949 -3.10426 0
M  V30 3548 N 326.339 1.31502 -2.59144 0
M  V30 3549 H 325.886 0.422065 -2.54119 0
M  V30 3550 H 325.844 2.13521 -2.30773 0
M  V30 3551 N 329.616 1.39756 -0.72842 0
M  V30 3552 C 330.841 2.05472 -0.282159 0
M  V30 3553 C 331.266 1.54549 1.07221 0
M  V30 3554 O 330.624 0.686372 1.67805 0
M  V30 3555 C 330.672 3.59462 -0.286264 0
M  V30 3556 O 329.776 4.05918 0.728298 0
M  V30 3557 H 329.117 0.651226 -0.129618 0
M  V30 3558 H 331.647 1.78915 -0.992499 0
M  V30 3559 H 331.657 4.07798 -0.128373 0
M  V30 3560 H 330.332 3.95889 -1.27456 0
M  V30 3561 H 328.909 3.69012 0.537081 0
M  V30 3562 N 331.094 0.475555 1.50254 0
M  V30 3563 C 332.026 -0.352649 2.26471 0
M  V30 3564 C 333.039 -0.953165 1.3198 0
M  V30 3565 O 334.228 -0.840815 1.57457 0
M  V30 3566 C 331.328 -1.50902 3.0345 0
M  V30 3567 C 330.501 -1.02047 4.25329 0
M  V30 3568 C 329.56 -2.05142 4.84565 0
M  V30 3569 O 328.586 -1.63023 5.45355 0
M  V30 3570 N 329.788 -3.37987 4.71959 0
M  V30 3571 H 332.553 0.300767 2.98187 0
M  V30 3572 H 330.114 0.306598 1.5897 0
M  V30 3573 H 332.106 -2.19572 3.39956 0
M  V30 3574 H 330.676 -2.06705 2.34504 0
M  V30 3575 H 329.896 -0.159507 3.93877 0
M  V30 3576 H 331.184 -0.672061 5.04342 0
M  V30 3577 H 330.582 -3.74913 4.23623 0
M  V30 3578 H 329.139 -4.02443 5.12721 0
M  V30 3579 N 332.573 -1.56217 0.208337 0
M  V30 3580 C 333.813 -1.99849 -0.428927 0
M  V30 3581 C 334.177 -1.09262 -1.57879 0
M  V30 3582 O 335.378 -1.42185 -2.28116 0
M  V30 3583 C 333.649 -3.46777 -0.864879 0
M  V30 3584 S 335.208 -4.12434 -1.49811 0
M  V30 3585 H 332.026 -0.697742 -0.136665 0
M  V30 3586 H 334.628 -1.92953 0.314519 0
M  V30 3587 H 333.332 -4.10396 -0.0181326 0
M  V30 3588 H 332.863 -3.57518 -1.64147 0
M  V30 3589 H 334.878 -4.10532 -2.78707 0
M  V30 3590 N 334.051 0.0651679 -1.57465 0
M  V30 3591 C 335.276 0.779605 -1.9219 0
M  V30 3592 C 335.701 1.69988 -0.805333 0
M  V30 3593 O 335.059 1.79685 0.241435 0
M  V30 3594 C 335.107 1.54364 -3.2589 0
M  V30 3595 O 334.211 2.65474 -3.1559 0
M  V30 3596 H 333.552 0.212249 -0.629163 0
M  V30 3597 H 336.082 0.0314294 -2.04576 0
M  V30 3598 H 336.092 1.92146 -3.59922 0
M  V30 3599 H 334.767 0.868457 -4.06732 0
M  V30 3600 H 333.344 2.30501 -2.93128 0
M  V30 3601 N 335.529 1.53961 0.336706 0
M  V30 3602 C 336.776 1.71536 1.07618 0
M  V30 3603 C 337.104 0.482125 1.8843 0
M  V30 3604 O 336.359 -0.536142 1.88213 0
M  V30 3605 C 336.658 2.93493 2.03953 0
M  V30 3606 C 336.324 4.28811 1.39399 0
M  V30 3607 C 334.986 4.65602 1.21523 0
M  V30 3608 C 337.338 5.12844 0.929541 0
M  V30 3609 C 334.666 5.84037 0.558312 0
M  V30 3610 C 337.018 6.31951 0.286505 0
M  V30 3611 C 335.682 6.67432 0.0954869 0
M  V30 3612 H 334.952 0.627696 0.393801 0
M  V30 3613 H 337.599 1.88186 0.354715 0
M  V30 3614 H 335.904 2.71475 2.82504 0
M  V30 3615 H 337.601 3.04285 2.61174 0
M  V30 3616 H 334.191 3.99858 1.54311 0
M  V30 3617 H 338.375 4.84947 1.05548 0
M  V30 3618 H 333.631 6.10097 0.398995 0
M  V30 3619 H 337.805 6.96352 -0.0814376 0
M  V30 3620 H 335.432 7.59063 -0.415579 0
M  V30 3621 N 337.007 -0.598083 1.45811 0
M  V30 3622 C 337.957 -1.70272 1.51629 0
M  V30 3623 C 338.941 -1.56382 0.378629 0
M  V30 3624 O 340.133 -1.65557 0.626087 0
M  V30 3625 C 337.262 -3.09042 1.49493 0
M  V30 3626 C 336.348 -3.28284 2.68496 0
M  V30 3627 N 336.739 -3.17748 3.93535 0
M  V30 3628 C 335.037 -3.59182 2.64394 0
M  V30 3629 C 335.738 -3.38579 4.7301 0
M  V30 3630 N 334.714 -3.63016 4.04624 0
M  V30 3631 H 338.516 -1.60634 2.46118 0
M  V30 3632 H 336.03 -0.801642 1.41235 0
M  V30 3633 H 338.027 -3.88302 1.51747 0
M  V30 3634 H 336.687 -3.19823 0.560683 0
M  V30 3635 H 337.698 -2.95944 4.25014 0
M  V30 3636 H 334.375 -3.76742 1.79922 0
M  V30 3637 H 335.765 -3.35747 5.82 0
M  V30 3638 N 338.485 -1.33259 -0.841409 0
M  V30 3639 C 339.725 -1.25902 -1.61022 0
M  V30 3640 C 340.089 0.173325 -1.91216 0
M  V30 3641 O 341.29 0.370824 -2.6623 0
M  V30 3642 C 339.561 -2.10735 -2.88662 0
M  V30 3643 S 341.12 -2.20541 -3.79351 0
M  V30 3644 H 337.938 -0.447958 -0.552137 0
M  V30 3645 H 340.54 -1.68263 -0.995382 0
M  V30 3646 H 339.244 -3.1384 -2.64448 0
M  V30 3647 H 338.775 -1.69201 -3.55154 0
M  V30 3648 H 340.79 -1.36462 -4.77067 0
M  V30 3649 N 339.963 1.05934 -1.16686 0
M  V30 3650 C 341.191 1.8249 -0.974929 0
M  V30 3651 C 341.606 1.82679 0.476861 0
M  V30 3652 O 340.963 1.2486 1.33103 0
M  V30 3653 C 341.014 3.28943 -1.49929 0
M  V30 3654 O 340.735 3.28886 -2.89423 0
M  V30 3655 C 342.236 4.22215 -1.35089 0
M  V30 3656 H 339.456 0.575295 -0.345365 0
M  V30 3657 H 342 1.33631 -1.548 0
M  V30 3658 H 340.155 3.751 -0.968423 0
M  V30 3659 H 340.569 4.20493 -3.13506 0
M  V30 3660 H 342.043 5.22987 -1.76603 0
M  V30 3661 H 342.52 4.38195 -0.296935 0
M  V30 3662 H 343.126 3.81907 -1.87155 0
M  V30 3663 N 341.441 0.965919 1.2453 0
M  V30 3664 C 342.718 0.543777 1.87889 0
M  V30 3665 C 343.098 -0.97909 1.87021 0
M  V30 3666 O 342.446 -1.84969 1.3416 0
M  V30 3667 C 342.656 1.13327 3.30088 0
M  V30 3668 C 344.004 1.21707 4.06783 0
M  V30 3669 O 345.028 1.08566 3.39252 0
M  V30 3670 O 343.887 1.42456 5.27606 0
M  V30 3671 H 340.981 0.181054 0.806938 0
M  V30 3672 H 343.527 1.06007 1.32516 0
M  V30 3673 H 342.299 2.17612 3.25209 0
M  V30 3674 H 341.922 0.600911 3.93033 0
M  V30 3675 N 342.919 -1.39368 0.735821 0
M  V30 3676 C 344.167 -2.00101 0.283562 0
M  V30 3677 C 344.488 -1.5868 -1.13338 0
M  V30 3678 O 343.758 -0.835423 -1.77193 0
M  V30 3679 H 342.338 -0.740024 0.101851 0
M  V30 3680 H 345 -1.70404 0.945962 0
M  V30 3681 H 344.096 -3.10323 0.332604 0
M  V30 3682 N 344.397 -0.483516 -1.5 0
M  V30 3683 C 345.627 0.0643896 -2.065 0
M  V30 3684 C 346.035 1.32949 -1.34615 0
M  V30 3685 O 345.378 1.79003 -0.412756 0
M  V30 3686 C 345.44 0.405983 -3.572 0
M  V30 3687 C 345.104 -0.758875 -4.50655 0
M  V30 3688 C 346.101 -1.64445 -4.93208 0
M  V30 3689 C 343.786 -0.952725 -4.93182 0
M  V30 3690 C 345.78 -2.70818 -5.77006 0
M  V30 3691 C 343.467 -2.01966 -5.76761 0
M  V30 3692 C 344.465 -2.89574 -6.18576 0
M  V30 3693 O 344.153 -3.94429 -7.00486 0
M  V30 3694 H 343.885 -0.00934786 -0.675935 0
M  V30 3695 H 346.439 -0.674959 -1.93993 0
M  V30 3696 H 344.669 1.19869 -3.67652 0
M  V30 3697 H 346.358 0.890433 -3.96013 0
M  V30 3698 H 347.124 -1.50643 -4.61012 0
M  V30 3699 H 343.003 -0.280247 -4.60147 0
M  V30 3700 H 346.547 -3.3923 -6.09565 0
M  V30 3701 H 342.444 -2.1577 -6.0837 0
M  V30 3702 H 343.212 -3.91568 -7.1876 0
M  V30 3703 N 345.875 1.56104 -0.216619 0
M  V30 3704 C 346.807 2.17339 0.72776 0
M  V30 3705 C 347.82 1.14109 1.16116 0
M  V30 3706 O 349.009 1.4111 1.09317 0
M  V30 3707 C 346.109 2.73818 1.99693 0
M  V30 3708 C 345.282 4.02168 1.71988 0
M  V30 3709 C 344.341 4.43259 2.83562 0
M  V30 3710 O 343.367 5.10257 2.52244 0
M  V30 3711 N 344.569 4.08535 4.12407 0
M  V30 3712 H 347.334 2.99005 0.203983 0
M  V30 3713 H 344.895 1.61861 -0.0354289 0
M  V30 3714 H 346.887 2.9828 2.73516 0
M  V30 3715 H 345.457 1.96483 2.43132 0
M  V30 3716 H 344.677 3.85612 0.818337 0
M  V30 3717 H 345.965 4.85907 1.50903 0
M  V30 3718 H 345.363 3.54687 4.40696 0
M  V30 3719 H 343.92 4.37901 4.8279 0
M  V30 3720 N 347.353 -0.0568162 1.57498 0
M  V30 3721 C 348.599 -0.75422 1.88253 0
M  V30 3722 C 348.932 -1.76461 0.810865 0
M  V30 3723 O 348.207 -1.93691 -0.177259 0
M  V30 3724 C 348.49 -1.44878 3.2967 0
M  V30 3725 C 348.343 -0.453789 4.47505 0
M  V30 3726 C 349.662 -2.38994 3.69554 0
M  V30 3727 H 346.781 -0.272724 0.684683 0
M  V30 3728 H 349.423 -0.0172113 1.89992 0
M  V30 3729 H 347.573 -2.077 3.28318 0
M  V30 3730 H 349.245 0.170371 4.60985 0
M  V30 3731 H 347.488 0.229552 4.33192 0
M  V30 3732 H 348.159 -0.977699 5.43273 0
M  V30 3733 H 350.635 -1.86239 3.72095 0
M  V30 3734 H 349.511 -2.84587 4.69363 0
M  V30 3735 H 349.772 -3.24461 3.00296 0
M  V30 3736 N 348.832 -1.54138 -0.328536 0
M  V30 3737 C 349.78 -1.83894 -1.42428 0
M  V30 3738 C 350.774 -0.710478 -1.53781 0
M  V30 3739 O 351.98 -0.894062 -1.56226 0
M  V30 3740 H 348.355 -0.582837 -0.475189 0
M  V30 3741 H 350.326 -2.75537 -1.14552 0
M  V30 3742 C 349.075 -2.07866 -2.78724 0
M  V30 3743 H 348.398 -2.94158 -2.7076 0
M  V30 3744 H 349.838 -2.32644 -3.54476 0
M  V30 3745 C 348.297 -0.868689 -3.25508 0
M  V30 3746 O 348.827 -0.0754908 -4.01629 0
M  V30 3747 N 347.033 -0.681711 -2.82491 0
M  V30 3748 H 346.58 -1.32838 -2.20708 0
M  V30 3749 H 346.538 0.126374 -3.14146 0
M  V30 3750 N 350.31 0.590341 -1.46126 0
M  V30 3751 C 351.558 1.34616 -1.50742 0
M  V30 3752 C 351.879 1.94363 -0.157486 0
M  V30 3753 O 351.149 1.78136 0.815136 0
M  V30 3754 H 349.729 0.499789 -0.555175 0
M  V30 3755 H 352.391 0.691953 -1.82203 0
M  V30 3756 H 351.487 2.15678 -2.25587 0
M  V30 3757 N 351.788 1.33704 0.83433 0
M  V30 3758 C 353.199 1.22813 1.4062 0
M  V30 3759 C 353.55 -0.151107 1.95617 0
M  V30 3760 O 352.675 -1.05092 1.89168 0
M  V30 3761 C 353.27 2.22355 2.55624 0
M  V30 3762 C 351.829 2.1529 3.08751 0
M  V30 3763 C 350.976 2.09589 1.8157 0
M  V30 3764 H 353.927 1.45236 0.639702 0
M  V30 3765 H 353.948 1.83391 3.33389 0
M  V30 3766 H 353.46 3.22728 2.15566 0
M  V30 3767 H 351.561 1.18235 3.53343 0
M  V30 3768 H 351.674 3.06038 3.68616 0
M  V30 3769 H 350.038 1.55134 2.02004 0
M  V30 3770 H 350.821 3.11777 1.43701 0
M  V30 3771 N 353.266 -1.05314 1.17247 0
M  V30 3772 C 354.491 -1.82509 0.985148 0
M  V30 3773 C 354.916 -1.82343 -0.461788 0
M  V30 3774 O 354.274 -1.23151 -1.33055 0
M  V30 3775 C 354.322 -3.26566 1.52929 0
M  V30 3776 O 353.426 -4.05666 0.742225 0
M  V30 3777 H 352.767 -0.564347 0.349869 0
M  V30 3778 H 355.297 -1.32718 1.55715 0
M  V30 3779 H 355.307 -3.77369 1.55103 0
M  V30 3780 H 353.982 -3.26001 2.58256 0
M  V30 3781 H 352.559 -3.64397 0.791794 0
M  V30 3782 N 354.744 -0.972509 -1.24016 0
M  V30 3783 C 355.691 -0.505969 -2.25186 0
M  V30 3784 C 356.661 0.451009 -1.5986 0
M  V30 3785 O 357.846 0.360307 -1.87367 0
M  V30 3786 C 354.986 0.193089 -3.44559 0
M  V30 3787 C 354.099 -0.803222 -4.24467 0
M  V30 3788 C 353.234 -0.0797793 -5.3114 0
M  V30 3789 C 352.273 -1.06583 -6.02749 0
M  V30 3790 N 351.41 -0.372074 -7.01113 0
M  V30 3791 H 356.25 -1.37351 -2.64459 0
M  V30 3792 H 353.787 -0.688419 -1.29997 0
M  V30 3793 H 355.745 0.615125 -4.1264 0
M  V30 3794 H 354.375 1.02455 -3.06109 0
M  V30 3795 H 353.427 -1.34368 -3.55878 0
M  V30 3796 H 354.739 -1.55494 -4.73944 0
M  V30 3797 H 353.893 0.400015 -6.0538 0
M  V30 3798 H 352.632 0.704597 -4.82583 0
M  V30 3799 H 351.637 -1.55645 -5.27309 0
M  V30 3800 H 352.862 -1.85074 -6.53395 0
M  V30 3801 H 350.808 0.393238 -6.5482 0
M  V30 3802 H 350.725 -1.06258 -7.48495 0
M  V30 3803 H 351.993 0.0855932 -7.79453 0
M  V30 3804 N 356.222 1.38976 -0.743202 0
M  V30 3805 C 357.152 2.33171 -0.123873 0
M  V30 3806 C 358.133 1.54336 0.71516 0
M  V30 3807 O 359.318 1.82696 0.658467 0
M  V30 3808 C 356.448 3.38474 0.777978 0
M  V30 3809 C 355.402 4.27979 0.0424758 0
M  V30 3810 C 354.728 5.2405 1.06189 0
M  V30 3811 C 356.028 5.10155 -1.1198 0
M  V30 3812 H 357.722 2.85213 -0.910709 0
M  V30 3813 H 355.268 1.37133 -0.439388 0
M  V30 3814 H 357.221 4.03328 1.22084 0
M  V30 3815 H 355.945 2.84891 1.59702 0
M  V30 3816 H 354.604 3.64616 -0.380853 0
M  V30 3817 H 354.252 4.66758 1.87472 0
M  V30 3818 H 353.952 5.84785 0.574485 0
M  V30 3819 H 355.476 5.9178 1.50428 0
M  V30 3820 H 356.89 5.68307 -0.75499 0
M  V30 3821 H 355.287 5.80073 -1.53738 0
M  V30 3822 H 356.357 4.44504 -1.93764 0
M  V30 3823 N 357.7 0.491464 1.49741 0
M  V30 3824 C 358.61 -0.296835 2.32715 0
M  V30 3825 C 359.626 -0.976536 1.44013 0
M  V30 3826 O 360.802 -0.960023 1.77047 0
M  V30 3827 C 357.867 -1.35288 3.19215 0
M  V30 3828 C 356.928 -0.687632 4.23757 0
M  V30 3829 C 356.161 -1.69336 5.06123 0
M  V30 3830 O 356.384 -2.92219 4.89861 0
M  V30 3831 O 355.318 -1.25394 5.88693 0
M  V30 3832 H 359.144 0.382048 3.01287 0
M  V30 3833 H 356.729 0.252953 1.47243 0
M  V30 3834 H 358.611 -1.96411 3.72828 0
M  V30 3835 H 357.286 -2.01487 2.53347 0
M  V30 3836 H 356.193 -0.0369159 3.74082 0
M  V30 3837 H 357.526 -0.0682566 4.92153 0
M  V30 3838 N 359.178 -1.55987 0.224894 0
M  V30 3839 C 360.418 -2.00293 -0.407706 0
M  V30 3840 C 360.782 -1.1093 -1.56711 0
M  V30 3841 O 361.983 -1.44597 -2.26595 0
M  V30 3842 C 360.254 -3.47675 -0.82805 0
M  V30 3843 S 361.813 -4.14 -1.45429 0
M  V30 3844 H 358.631 -0.699152 -0.129256 0
M  V30 3845 H 361.233 -1.92609 0.334967 0
M  V30 3846 H 359.937 -4.10392 0.0253964 0
M  V30 3847 H 359.468 -3.59239 -1.60345 0
M  V30 3848 H 361.483 -4.13465 -2.74337 0
M  V30 3849 N 360.656 0.0484629 -1.57525 0
M  V30 3850 C 361.586 1.0549 -2.08313 0
M  V30 3851 C 362.567 1.38929 -0.981463 0
M  V30 3852 O 363.752 1.48151 -1.25558 0
M  V30 3853 C 360.882 2.36162 -2.54646 0
M  V30 3854 C 359.836 2.17016 -3.68901 0
M  V30 3855 C 359.162 3.53278 -4.01371 0
M  V30 3856 C 360.462 1.57219 -4.98076 0
M  V30 3857 H 362.156 0.632195 -2.92649 0
M  V30 3858 H 359.702 0.302654 -1.40784 0
M  V30 3859 H 361.655 3.06882 -2.88793 0
M  V30 3860 H 360.379 2.80456 -1.67368 0
M  V30 3861 H 359.038 1.48733 -3.35073 0
M  V30 3862 H 358.686 3.95185 -3.11188 0
M  V30 3863 H 358.386 3.41299 -4.78318 0
M  V30 3864 H 359.91 4.25391 -4.38035 0
M  V30 3865 H 361.324 2.17832 -5.30304 0
M  V30 3866 H 359.721 1.55871 -5.79503 0
M  V30 3867 H 360.791 0.535956 -4.81929 0
M  V30 3868 N 362.134 1.5431 0.320358 0
M  V30 3869 C 363.097 1.83195 1.3774 0
M  V30 3870 C 364.097 0.703906 1.44575 0
M  V30 3871 O 365.287 0.972214 1.44546 0
M  V30 3872 C 362.419 1.99487 2.76438 0
M  V30 3873 H 363.612 2.77642 1.1338 0
M  V30 3874 H 361.165 1.46076 0.556012 0
M  V30 3875 H 361.9 1.07262 3.06048 0
M  V30 3876 H 361.685 2.81575 2.7287 0
M  V30 3877 H 363.175 2.23271 3.52902 0
M  V30 3878 N 363.613 -0.582584 1.46437 0
M  V30 3879 C 364.838 -1.37168 1.55563 0
M  V30 3880 C 365.263 -1.87061 0.19743 0
M  V30 3881 O 364.621 -1.61572 -0.822451 0
M  V30 3882 C 364.669 -2.53511 2.56446 0
M  V30 3883 O 363.773 -3.54953 2.09958 0
M  V30 3884 H 363.114 -0.408494 0.523477 0
M  V30 3885 H 365.644 -0.706646 1.9201 0
M  V30 3886 H 365.654 -3.00426 2.76058 0
M  V30 3887 H 364.329 -2.16549 3.55076 0
M  V30 3888 H 362.906 -3.14516 2.00334 0
M  V30 3889 N 365.091 -1.34144 -0.827227 0
M  V30 3890 C 366.339 -1.26009 -1.58007 0
M  V30 3891 C 366.66 0.170971 -1.94249 0
M  V30 3892 O 365.93 1.10256 -1.61927 0
M  V30 3893 H 364.51 -0.463414 -0.585881 0
M  V30 3894 H 367.172 -1.68005 -0.987951 0
M  V30 3895 H 366.268 -1.86187 -2.50481 0
M  V30 3896 N 366.569 1.04691 -1.17803 0
M  V30 3897 C 367.818 1.77176 -0.963931 0
M  V30 3898 C 368.131 1.88888 0.508015 0
M  V30 3899 O 369.337 2.58164 0.840465 0
M  V30 3900 C 367.793 3.18518 -1.67555 0
M  V30 3901 C 367.401 3.14919 -3.18637 0
M  V30 3902 C 369.145 3.95424 -1.54402 0
M  V30 3903 C 367.052 4.51081 -3.82466 0
M  V30 3904 H 365.982 0.664116 -0.357023 0
M  V30 3905 H 368.633 1.17303 -1.4111 0
M  V30 3906 H 367.015 3.78748 -1.15613 0
M  V30 3907 H 368.189 2.64178 -3.77554 0
M  V30 3908 H 366.504 2.51512 -3.31859 0
M  V30 3909 H 369.101 4.96106 -1.99456 0
M  V30 3910 H 369.444 4.13343 -0.495329 0
M  V30 3911 H 369.977 3.41754 -2.0359 0
M  V30 3912 H 366.716 4.38368 -4.87354 0
M  V30 3913 H 366.236 5.01951 -3.28337 0
M  V30 3914 H 367.915 5.2001 -3.84965 0
M  V30 3915 N 368.047 0.979072 1.23499 0
M  V30 3916 C 369.293 0.6578 1.9247 0
M  V30 3917 C 369.648 -0.799746 1.74991 0
M  V30 3918 O 368.941 -1.56922 1.09937 0
M  V30 3919 C 369.135 0.981932 3.43646 0
M  V30 3920 C 368.964 2.46944 3.75831 0
M  V30 3921 C 367.734 3.13119 3.96591 0
M  V30 3922 C 369.932 3.45006 3.81412 0
M  V30 3923 N 367.914 4.51489 4.15969 0
M  V30 3924 C 369.285 4.68778 4.05768 0
M  V30 3925 C 371.34 3.39505 3.64198 0
M  V30 3926 C 370.043 5.87723 4.14697 0
M  V30 3927 C 372.069 4.57814 3.7438 0
M  V30 3928 C 371.431 5.80381 3.99171 0
M  V30 3929 H 367.53 0.291746 0.72554 0
M  V30 3930 H 370.114 1.25626 1.48749 0
M  V30 3931 H 368.285 0.412179 3.86207 0
M  V30 3932 H 370.017 0.618068 3.99953 0
M  V30 3933 H 366.772 2.63619 3.93449 0
M  V30 3934 H 367.196 5.23221 4.29615 0
M  V30 3935 H 371.838 2.45773 3.44029 0
M  V30 3936 H 369.556 6.81874 4.33675 0
M  V30 3937 H 373.142 4.55132 3.62417 0
M  V30 3938 H 372.022 6.70398 4.06861 0
M  V30 3939 N 369.525 -1.3858 0.750561 0
M  V30 3940 C 370.753 -2.04471 0.316098 0
M  V30 3941 C 371.168 -1.56606 -1.05452 0
M  V30 3942 O 370.525 -0.737784 -1.66922 0
M  V30 3943 C 370.576 -3.60025 0.326275 0
M  V30 3944 O 370.297 -4.06133 1.6428 0
M  V30 3945 C 371.798 -4.43131 -0.122429 0
M  V30 3946 H 369.018 -0.65717 0.135528 0
M  V30 3947 H 371.562 -1.77329 1.01857 0
M  V30 3948 H 369.717 -3.86014 -0.327431 0
M  V30 3949 H 370.131 -5.00547 1.56693 0
M  V30 3950 H 371.605 -5.51963 -0.0641473 0
M  V30 3951 H 372.082 -4.23333 -1.16988 0
M  V30 3952 H 372.688 -4.22323 0.50229 0
M  V30 3953 N 371.003 -0.499398 -1.49478 0
M  V30 3954 C 371.951 0.293604 -2.3074 0
M  V30 3955 C 372.945 0.96427 -1.39277 0
M  V30 3956 O 374.151 0.892141 -1.56336 0
M  V30 3957 H 370.526 0.113541 -0.743379 0
M  V30 3958 H 372.497 -0.411772 -2.95545 0
M  V30 3959 C 371.246 1.3462 -3.20582 0
M  V30 3960 H 370.569 0.83954 -3.90886 0
M  V30 3961 H 372.009 1.87308 -3.80384 0
M  V30 3962 C 370.468 2.36351 -2.40083 0
M  V30 3963 O 370.998 3.422 -2.10385 0
M  V30 3964 N 369.204 2.0878 -2.02137 0
M  V30 3965 H 368.751 1.22723 -2.26488 0
M  V30 3966 H 368.709 2.77075 -1.48583 0
M  V30 3967 N 372.481 1.55866 -0.233164 0
M  V30 3968 C 373.428 2.20796 0.67215 0
M  V30 3969 C 374.398 1.16731 1.18166 0
M  V30 3970 O 375.583 1.45129 1.23864 0
M  V30 3971 C 372.723 2.90072 1.86955 0
M  V30 3972 C 371.836 4.08759 1.39786 0
M  V30 3973 C 370.971 4.65787 2.55374 0
M  V30 3974 C 370.01 5.76752 2.04998 0
M  V30 3975 N 369.147 6.28021 3.13901 0
M  V30 3976 H 373.987 2.9779 0.111749 0
M  V30 3977 H 371.524 1.47036 0.0434007 0
M  V30 3978 H 373.482 3.28428 2.57276 0
M  V30 3979 H 372.112 2.15575 2.40265 0
M  V30 3980 H 371.164 3.7581 0.589173 0
M  V30 3981 H 372.476 4.88906 0.98856 0
M  V30 3982 H 371.63 5.06646 3.33758 0
M  V30 3983 H 370.369 3.84828 2.99598 0
M  V30 3984 H 369.374 5.35383 1.25079 0
M  V30 3985 H 370.599 6.59553 1.61759 0
M  V30 3986 H 368.545 5.49971 3.57586 0
M  V30 3987 H 368.462 7.03323 2.7726 0
M  V30 3988 H 369.73 6.73538 3.92386 0
M  V30 3989 N 373.959 -0.0401083 1.57549 0
M  V30 3990 C 375.37 -0.588097 1.77196 0
M  V30 3991 C 375.721 -1.76209 0.862832 0
M  V30 3992 O 374.846 -2.16331 0.0548389 0
M  V30 3993 C 375.441 -1.07363 3.21339 0
M  V30 3994 C 374 -1.56723 3.42221 0
M  V30 3995 C 373.147 -0.50041 2.72747 0
M  V30 3996 H 376.098 0.186119 1.57605 0
M  V30 3997 H 376.119 -1.94143 3.27244 0
M  V30 3998 H 375.631 -0.218975 3.87482 0
M  V30 3999 H 373.732 -2.4441 2.81237 0
M  V30 4000 H 373.845 -1.62234 4.50796 0
M  V30 4001 H 372.209 -0.952894 2.36203 0
M  V30 4002 H 372.992 0.344599 3.41566 0
M  V30 4003 N 375.437 -1.54477 -0.31217 0
M  V30 4004 C 376.848 -1.64344 -0.885891 0
M  V30 4005 C 377.199 -0.54485 -1.88483 0
M  V30 4006 O 376.324 0.320387 -2.14015 0
M  V30 4007 C 376.919 -2.97908 -1.61357 0
M  V30 4008 C 375.478 -3.09933 -2.13585 0
M  V30 4009 C 374.625 -2.59971 -0.964897 0
M  V30 4010 H 377.576 -1.58448 -0.0894528 0
M  V30 4011 H 377.597 -2.88706 -2.47848 0
M  V30 4012 H 377.109 -3.77845 -0.886277 0
M  V30 4013 H 375.21 -2.34694 -2.89395 0
M  V30 4014 H 375.323 -4.15916 -2.37804 0
M  V30 4015 H 373.687 -2.16147 -1.34731 0
M  V30 4016 H 374.47 -3.42376 -0.251742 0
M  V30 4017 N 376.915 0.57481 -1.46744 0
M  V30 4018 C 377.847 1.69804 -1.53946 0
M  V30 4019 C 378.86 1.57098 -0.427106 0
M  V30 4020 O 380.049 1.64378 -0.695863 0
M  V30 4021 C 377.149 3.08125 -1.4111 0
M  V30 4022 C 376.322 3.46757 -2.66605 0
M  V30 4023 C 375.381 4.6417 -2.47855 0
M  V30 4024 O 374.407 4.69634 -3.21609 0
M  V30 4025 N 375.609 5.59553 -1.54534 0
M  V30 4026 H 378.374 1.64077 -2.50796 0
M  V30 4027 H 375.935 0.761 -1.429 0
M  V30 4028 H 377.927 3.84478 -1.26328 0
M  V30 4029 H 376.497 3.08175 -0.524109 0
M  V30 4030 H 375.717 2.6003 -2.96274 0
M  V30 4031 H 377.005 3.69337 -3.49954 0
M  V30 4032 H 376.403 5.57881 -0.937304 0
M  V30 4033 H 374.96 6.35304 -1.45711 0
M  V30 4034 N 378.394 1.34581 0.820102 0
M  V30 4035 C 379.634 1.28448 1.58998 0
M  V30 4036 C 379.998 -0.142883 1.91468 0
M  V30 4037 O 381.199 -0.328422 2.66786 0
M  V30 4038 C 379.47 2.153 2.85273 0
M  V30 4039 S 381.029 2.26548 3.75794 0
M  V30 4040 H 377.847 0.456685 0.54494 0
M  V30 4041 H 380.449 1.69825 0.968487 0
M  V30 4042 H 379.153 3.18008 2.59421 0
M  V30 4043 H 378.684 1.7483 3.52417 0
M  V30 4044 H 380.699 1.44034 4.74835 0
M  V30 4045 N 379.872 -1.04064 1.18357 0
M  V30 4046 C 380.802 -2.14001 0.934113 0
M  V30 4047 C 381.783 -1.69616 -0.128186 0
M  V30 4048 O 382.968 -1.94185 0.0244093 0
M  V30 4049 C 380.098 -3.44253 0.459066 0
M  V30 4050 C 379.052 -4.02261 1.46185 0
M  V30 4051 C 378.378 -5.27992 0.844322 0
M  V30 4052 C 379.678 -4.38432 2.83856 0
M  V30 4053 H 381.372 -2.35127 1.85352 0
M  V30 4054 H 378.918 -1.12998 0.892604 0
M  V30 4055 H 380.871 -4.20522 0.271907 0
M  V30 4056 H 379.595 -3.22813 -0.495912 0
M  V30 4057 H 378.254 -3.28074 1.63595 0
M  V30 4058 H 377.902 -5.02862 -0.117845 0
M  V30 4059 H 377.602 -5.67765 1.51384 0
M  V30 4060 H 379.126 -6.06938 0.667693 0
M  V30 4061 H 380.54 -5.05688 2.70098 0
M  V30 4062 H 378.937 -4.89254 3.47491 0
M  V30 4063 H 380.007 -3.4826 3.37406 0
M  V30 4064 N 381.35 -0.985608 -1.22978 0
M  V30 4065 C 382.313 -0.535071 -2.22867 0
M  V30 4066 C 383.313 0.378123 -1.56291 0
M  V30 4067 O 384.503 0.171092 -1.73358 0
M  V30 4068 C 381.635 0.222702 -3.40172 0
M  V30 4069 H 382.828 -1.41835 -2.6424 0
M  V30 4070 H 380.381 -0.772042 -1.35901 0
M  V30 4071 H 381.116 1.12229 -3.04262 0
M  V30 4072 H 380.901 -0.43288 -3.89703 0
M  V30 4073 H 382.391 0.526335 -4.1427 0
M  V30 4074 N 382.828 1.3818 -0.7579 0
M  V30 4075 C 383.791 2.28764 -0.141286 0
M  V30 4076 C 384.791 1.47388 0.642907 0
M  V30 4077 O 385.981 1.67781 0.468536 0
M  V30 4078 C 383.113 3.31184 0.808069 0
M  V30 4079 H 384.306 2.848 -0.939633 0
M  V30 4080 H 381.859 1.47212 -0.525191 0
M  V30 4081 H 382.594 2.80247 1.63193 0
M  V30 4082 H 382.379 3.91314 0.248104 0
M  V30 4083 H 383.869 3.98909 1.23536 0
M  V30 4084 N 384.306 0.507319 1.49211 0
M  V30 4085 C 385.238 -0.304532 2.27168 0
M  V30 4086 C 386.251 -0.924956 1.33972 0
M  V30 4087 O 387.44 -0.807227 1.59205 0
M  V30 4088 C 384.54 -1.44431 3.06583 0
M  V30 4089 C 383.713 -0.930026 4.27398 0
M  V30 4090 C 382.772 -1.94817 4.88807 0
M  V30 4091 O 381.798 -1.51418 5.4869 0
M  V30 4092 N 383 -3.279 4.79022 0
M  V30 4093 H 385.765 0.36395 2.97482 0
M  V30 4094 H 383.326 0.340249 1.58284 0
M  V30 4095 H 385.318 -2.12311 3.44537 0
M  V30 4096 H 383.888 -2.01684 2.38835 0
M  V30 4097 H 383.108 -0.0759244 3.94127 0
M  V30 4098 H 384.396 -0.564932 5.05654 0
M  V30 4099 H 383.794 -3.65843 4.3148 0
M  V30 4100 H 382.351 -3.91476 5.21142 0
M  V30 4101 N 385.784 -1.5574 0.241426 0
M  V30 4102 C 387.024 -2.00714 -0.38644 0
M  V30 4103 C 387.388 -1.12586 -1.55526 0
M  V30 4104 O 388.589 -1.46992 -2.25048 0
M  V30 4105 C 386.86 -3.48534 -0.791128 0
M  V30 4106 S 388.419 -4.15519 -1.41029 0
M  V30 4107 H 385.237 -0.700484 -0.121834 0
M  V30 4108 H 387.839 -1.92243 0.355377 0
M  V30 4109 H 386.543 -4.10342 0.0689225 0
M  V30 4110 H 386.074 -3.6092 -1.56526 0
M  V30 4111 H 388.089 -4.16352 -2.69936 0
M  V30 4112 N 387.262 0.0317525 -1.57568 0
M  V30 4113 C 388.673 0.578692 -1.77505 0
M  V30 4114 C 389.024 1.75749 -0.872164 0
M  V30 4115 O 388.149 2.16298 -0.0663106 0
M  V30 4116 C 388.744 1.05658 -3.21904 0
M  V30 4117 C 387.303 1.54906 -3.43047 0
M  V30 4118 C 386.45 0.485939 -2.73009 0
M  V30 4119 H 389.401 -0.194475 -1.57504 0
M  V30 4120 H 389.422 1.92404 -3.28269 0
M  V30 4121 H 388.934 0.198422 -3.87592 0
M  V30 4122 H 387.035 2.42915 -2.82529 0
M  V30 4123 H 387.148 1.59841 -4.5165 0
M  V30 4124 H 385.512 0.940354 -2.36705 0
M  V30 4125 H 386.295 -0.362709 -3.41379 0
M  V30 4126 N 388.74 1.54641 0.303973 0
M  V30 4127 C 390.151 1.64811 0.877163 0
M  V30 4128 C 390.502 0.554838 1.88191 0
M  V30 4129 O 389.627 -0.309033 2.14182 0
M  V30 4130 C 390.222 2.9876 1.59775 0
M  V30 4131 C 388.781 3.11061 2.11938 0
M  V30 4132 C 387.928 2.60479 0.951097 0
M  V30 4133 H 390.879 1.58493 0.0810486 0
M  V30 4134 H 390.9 2.90017 2.46314 0
M  V30 4135 H 390.412 3.7831 0.866226 0
M  V30 4136 H 388.513 2.36225 2.88146 0
M  V30 4137 H 388.626 4.17171 2.35595 0
M  V30 4138 H 386.99 2.16859 1.33583 0
M  V30 4139 H 387.773 3.42504 0.233581 0
M  V30 4140 N 390.218 -0.567019 1.47046 0
M  V30 4141 C 391.148 -1.68482 1.61667 0
M  V30 4142 C 392.129 -1.6358 0.466418 0
M  V30 4143 O 393.314 -1.81354 0.694574 0
M  V30 4144 C 390.444 -3.07124 1.62148 0
M  V30 4145 C 389.398 -3.26867 2.76301 0
M  V30 4146 C 388.724 -4.66196 2.61849 0
M  V30 4147 C 390.024 -3.13186 4.17986 0
M  V30 4148 H 391.718 -1.56502 2.5524 0
M  V30 4149 H 389.264 -0.751486 1.22836 0
M  V30 4150 H 391.217 -3.8516 1.70968 0
M  V30 4151 H 389.941 -3.2004 0.651287 0
M  V30 4152 H 388.6 -2.51237 2.66975 0
M  V30 4153 H 388.248 -4.75898 1.62879 0
M  V30 4154 H 387.948 -4.80356 3.38425 0
M  V30 4155 H 389.472 -5.46379 2.72584 0
M  V30 4156 H 390.886 -3.81049 4.2834 0
M  V30 4157 H 389.283 -3.3886 4.95272 0
M  V30 4158 H 390.353 -2.10057 4.3704 0
M  V30 4159 N 391.696 -1.35014 -0.812953 0
M  V30 4160 C 392.643 -1.27412 -1.92444 0
M  V30 4161 C 393.613 -0.14733 -1.65445 0
M  V30 4162 O 394.798 -0.329974 -1.87925 0
M  V30 4163 C 391.938 -1.04558 -3.28879 0
M  V30 4164 C 391.051 -2.26101 -3.68106 0
M  V30 4165 C 390.186 -1.96449 -4.9354 0
M  V30 4166 C 389.225 -3.14081 -5.25376 0
M  V30 4167 N 388.362 -2.84246 -6.41988 0
M  V30 4168 H 393.202 -2.22463 -1.98278 0
M  V30 4169 H 390.739 -1.10593 -0.969933 0
M  V30 4170 H 392.697 -0.893413 -4.07522 0
M  V30 4171 H 391.327 -0.131719 -3.22531 0
M  V30 4172 H 390.379 -2.52204 -2.84775 0
M  V30 4173 H 391.691 -3.13959 -3.87597 0
M  V30 4174 H 390.845 -1.78026 -5.79993 0
M  V30 4175 H 389.584 -1.05867 -4.76071 0
M  V30 4176 H 388.589 -3.33089 -4.37415 0
M  V30 4177 H 389.814 -4.05455 -5.44778 0
M  V30 4178 H 387.76 -1.96252 -6.25956 0
M  V30 4179 H 387.677 -3.65637 -6.61699 0
M  V30 4180 H 388.945 -2.6935 -7.31485 0
M  V30 4181 N 393.175 1.03435 -1.18907 0
M  V30 4182 C 394.424 1.76143 -0.982669 0
M  V30 4183 C 394.737 1.89416 0.487953 0
M  V30 4184 O 395.943 2.59041 0.813036 0
M  V30 4185 C 394.399 3.16722 -1.70924 0
M  V30 4186 C 394.007 3.11522 -3.21959 0
M  V30 4187 C 395.751 3.93764 -1.58588 0
M  V30 4188 C 393.658 4.46999 -3.87228 0
M  V30 4189 H 392.588 0.660292 -0.364047 0
M  V30 4190 H 395.239 1.158 -1.42347 0
M  V30 4191 H 393.621 3.775 -1.19623 0
M  V30 4192 H 394.795 2.60158 -3.80335 0
M  V30 4193 H 393.11 2.47978 -3.34508 0
M  V30 4194 H 395.707 4.93963 -2.04707 0
M  V30 4195 H 396.05 4.12794 -0.539142 0
M  V30 4196 H 396.583 3.39576 -2.07203 0
M  V30 4197 H 393.322 4.33174 -4.91976 0
M  V30 4198 H 392.842 4.98441 -3.33642 0
M  V30 4199 H 394.521 5.15898 -3.90459 0
M  V30 4200 N 394.653 0.992116 1.22453 0
M  V30 4201 C 396.064 0.702776 1.72968 0
M  V30 4202 C 396.415 -0.780399 1.80012 0
M  V30 4203 O 395.54 -1.61007 1.44589 0
M  V30 4204 C 396.135 1.26903 3.14135 0
M  V30 4205 C 394.694 1.02909 3.62059 0
M  V30 4206 C 393.841 1.38969 2.39964 0
M  V30 4207 H 396.792 1.16457 1.07812 0
M  V30 4208 H 396.813 0.647223 3.74955 0
M  V30 4209 H 396.325 2.34851 3.08977 0
M  V30 4210 H 394.426 -0.0337979 3.72585 0
M  V30 4211 H 394.539 1.69191 4.48231 0
M  V30 4212 H 392.903 0.808279 2.41535 0
M  V30 4213 H 393.686 2.4792 2.37467 0
M  V30 4214 N 396.131 -1.37776 0.765217 0
M  V30 4215 C 397.041 -2.34135 0.147666 0
M  V30 4216 C 398.057 -1.59854 -0.687215 0
M  V30 4217 O 399.233 -1.91983 -0.608659 0
M  V30 4218 C 396.298 -3.3901 -0.72617 0
M  V30 4219 C 395.359 -4.2912 0.124417 0
M  V30 4220 C 394.592 -5.28986 -0.707807 0
M  V30 4221 O 394.815 -5.36205 -1.94525 0
M  V30 4222 O 393.749 -6.01779 -0.12046 0
M  V30 4223 H 397.575 -2.88664 0.943758 0
M  V30 4224 H 395.16 -1.39824 0.526277 0
M  V30 4225 H 397.042 -4.03195 -1.22524 0
M  V30 4226 H 395.717 -2.86819 -1.50056 0
M  V30 4227 H 394.624 -3.68057 0.669696 0
M  V30 4228 H 395.957 -4.84598 0.861736 0
M  V30 4229 N 397.609 -0.515225 -1.4894 0
M  V30 4230 C 399.025 -0.172099 -1.58669 0
M  V30 4231 C 399.225 1.32405 -1.51892 0
M  V30 4232 O 398.281 2.10116 -1.40027 0
M  V30 4233 C 399.594 -0.761533 -2.90897 0
M  V30 4234 C 401.142 -0.728926 -3.04394 0
M  V30 4235 C 401.617 -1.29667 -4.39261 0
M  V30 4236 N 403.108 -1.25799 -4.4579 0
M  V30 4237 C 403.843 -1.66733 -5.48623 0
M  V30 4238 N 403.339 -2.15327 -6.58488 0
M  V30 4239 N 405.132 -1.58061 -5.39419 0
M  V30 4240 H 397.283 -1.48778 -1.51588 0
M  V30 4241 H 399.546 -0.617968 -0.718901 0
M  V30 4242 H 399.252 -1.81136 -3.01468 0
M  V30 4243 H 399.126 -0.230106 -3.76497 0
M  V30 4244 H 401.513 0.312098 -2.93445 0
M  V30 4245 H 401.594 -1.29766 -2.20442 0
M  V30 4246 H 401.238 -2.33655 -4.50963 0
M  V30 4247 H 401.168 -0.703752 -5.21876 0
M  V30 4248 H 403.659 -0.902102 -3.66975 0
M  V30 4249 H 403.972 -2.44594 -7.33071 0
M  V30 4250 H 402.317 -2.19311 -6.59491 0
M  V30 4251 H 405.508 -1.19906 -4.52482 0
M  V30 4252 H 405.681 -1.90284 -6.19432 0
M  V30 4253 N 399.087 1.5561 -0.249682 0
M  V30 4254 C 400.335 1.98618 0.373548 0
M  V30 4255 C 400.656 1.13919 1.58264 0
M  V30 4256 O 399.926 0.222637 1.94631 0
M  V30 4257 H 398.506 0.733571 0.141006 0
M  V30 4258 H 401.168 1.91748 -0.349117 0
M  V30 4259 H 400.264 3.04584 0.680796 0
M  V30 4260 N 400.565 -0.0233959 1.57583 0
M  V30 4261 C 401.513 -1.04063 2.08023 0
M  V30 4262 C 402.507 -1.37084 0.995204 0
M  V30 4263 O 403.713 -1.35923 1.18004 0
M  V30 4264 H 400.088 -0.353144 0.663922 0
M  V30 4265 H 402.059 -0.589453 2.9252 0
M  V30 4266 C 400.808 -2.33123 2.57971 0
M  V30 4267 H 400.131 -2.08577 3.4108 0
M  V30 4268 H 401.571 -3.02632 2.96967 0
M  V30 4269 C 400.03 -3.02483 1.48342 0
M  V30 4270 O 400.56 -3.92541 0.852898 0
M  V30 4271 N 398.766 -2.63909 1.21658 0
M  V30 4272 H 398.313 -1.90758 1.73116 0
M  V30 4273 H 398.271 -3.10633 0.485218 0
M  V30 4274 N 402.043 -1.548 -0.295768 0
M  V30 4275 C 402.976 -1.81003 -1.38972 0
M  V30 4276 C 403.954 -0.661544 -1.48534 0
M  V30 4277 O 405.138 -0.902074 -1.65514 0
M  V30 4278 C 402.265 -1.95141 -2.76835 0
M  V30 4279 C 401.311 -3.17592 -2.84671 0
M  V30 4280 S 402.144 -4.75531 -2.46232 0
M  V30 4281 C 403.3 -4.92613 -3.86114 0
M  V30 4282 H 403.533 -2.73507 -1.16537 0
M  V30 4283 H 401.066 -1.46278 -0.494168 0
M  V30 4284 H 403.024 -2.03972 -3.56238 0
M  V30 4285 H 401.685 -1.03565 -2.96535 0
M  V30 4286 H 400.878 -3.24303 -3.85803 0
M  V30 4287 H 400.48 -3.07235 -2.13267 0
M  V30 4288 H 402.772 -4.76957 -4.81164 0
M  V30 4289 H 403.715 -5.94698 -3.8437 0
M  V30 4290 H 404.123 -4.2073 -3.76359 0
M  V30 4291 N 403.521 0.559213 -1.47345 0
M  V30 4292 C 404.749 1.34194 -1.57479 0
M  V30 4293 C 405.164 1.87463 -0.224261 0
M  V30 4294 O 404.521 1.64888 0.782185 0
M  V30 4295 C 404.572 2.51324 -2.59843 0
M  V30 4296 O 404.293 2.00256 -3.89653 0
M  V30 4297 C 405.794 3.43563 -2.80142 0
M  V30 4298 H 403.014 0.409136 -0.531835 0
M  V30 4299 H 405.558 0.677609 -1.92947 0
M  V30 4300 H 403.713 3.13699 -2.27314 0
M  V30 4301 H 404.127 2.76708 -4.4557 0
M  V30 4302 H 405.601 4.2217 -3.55635 0
M  V30 4303 H 406.078 3.9698 -1.87892 0
M  V30 4304 H 406.684 2.87005 -3.1386 0
M  V30 4305 N 404.999 1.35443 0.805782 0
M  V30 4306 C 406.239 1.30127 1.57627 0
M  V30 4307 C 406.603 -0.122567 1.91608 0
M  V30 4308 O 407.804 -0.300107 2.67119 0
M  V30 4309 C 406.075 2.18314 2.82973 0
M  V30 4310 S 407.634 2.30521 3.7337 0
M  V30 4311 H 404.452 0.462439 0.540066 0
M  V30 4312 H 407.054 1.70843 0.95042 0
M  V30 4313 H 405.758 3.20741 2.56034 0
M  V30 4314 H 405.289 1.78558 3.50543 0
M  V30 4315 H 407.304 1.49062 4.73281 0
M  V30 4316 N 406.477 -1.02803 1.19454 0
M  V30 4317 C 407.407 -2.12999 0.956758 0
M  V30 4318 C 408.388 -1.69743 -0.110188 0
M  V30 4319 O 409.573 -1.94148 0.0450038 0
M  V30 4320 C 406.703 -3.43746 0.495553 0
M  V30 4321 C 405.657 -4.00688 1.50443 0
M  V30 4322 C 404.983 -5.27067 0.900275 0
M  V30 4323 C 406.283 -4.35397 2.8849 0
M  V30 4324 H 407.977 -2.33148 1.87836 0
M  V30 4325 H 405.523 -1.12045 0.904539 0
M  V30 4326 H 407.476 -4.2021 0.316493 0
M  V30 4327 H 406.2 -3.23321 -0.461646 0
M  V30 4328 H 404.859 -3.2632 1.67065 0
M  V30 4329 H 404.507 -5.02959 -0.064503 0
M  V30 4330 H 404.207 -5.66127 1.57397 0
M  V30 4331 H 405.731 -6.06196 0.73203 0
M  V30 4332 H 407.145 -5.02795 2.75446 0
M  V30 4333 H 405.542 -4.85541 3.52661 0
M  V30 4334 H 406.612 -3.44662 3.41081 0
M  V30 4335 N 407.956 -0.998596 -1.21925 0
M  V30 4336 C 408.906 -0.524743 -2.21879 0
M  V30 4337 C 409.89 0.41017 -1.55584 0
M  V30 4338 O 411.082 0.236063 -1.75419 0
M  V30 4339 C 408.211 0.153636 -3.42956 0
M  V30 4340 C 407.297 -0.801918 -4.16449 0
M  V30 4341 N 407.688 -1.95211 -4.66611 0
M  V30 4342 C 405.986 -0.618972 -4.41684 0
M  V30 4343 C 406.687 -2.55234 -5.22715 0
M  V30 4344 N 405.663 -1.83451 -5.1171 0
M  V30 4345 H 409.465 -1.40189 -2.58311 0
M  V30 4346 H 406.979 -0.86159 -1.3766 0
M  V30 4347 H 408.976 0.510534 -4.13762 0
M  V30 4348 H 407.636 1.02684 -3.08036 0
M  V30 4349 H 408.647 -2.33271 -4.62391 0
M  V30 4350 H 405.324 0.207694 -4.16983 0
M  V30 4351 H 406.714 -3.52471 -5.72026 0
M  V30 4352 N 409.434 1.37368 -0.772513 0
M  V30 4353 C 410.659 2.0447 -0.347386 0
M  V30 4354 C 411.084 1.57882 1.0225 0
M  V30 4355 O 410.442 0.73941 1.65537 0
M  V30 4356 C 410.49 3.58369 -0.400479 0
M  V30 4357 O 409.594 4.0803 0.598789 0
M  V30 4358 H 408.935 0.646773 -0.15027 0
M  V30 4359 H 411.465 1.75667 -1.04892 0
M  V30 4360 H 411.475 4.07183 -0.258045 0
M  V30 4361 H 410.15 3.91633 -1.39986 0
M  V30 4362 H 408.727 3.70534 0.419411 0
M  V30 4363 N 410.912 0.523116 1.48665 0
M  V30 4364 C 411.875 -0.232592 2.28017 0
M  V30 4365 C 412.875 -0.874021 1.34972 0
M  V30 4366 O 414.065 -0.735132 1.57929 0
M  V30 4367 C 411.197 -1.33586 3.13636 0
M  V30 4368 H 412.39 0.464008 2.96289 0
M  V30 4369 H 409.943 0.278816 1.53793 0
M  V30 4370 H 410.678 -2.06593 2.4998 0
M  V30 4371 H 410.463 -0.881125 3.82071 0
M  V30 4372 H 411.953 -1.86759 3.73511 0
M  V30 4373 N 412.39 -1.55475 0.257931 0
M  V30 4374 C 413.337 -2.21837 -0.636939 0
M  V30 4375 C 414.307 -1.18596 -1.16294 0
M  V30 4376 O 415.492 -1.47081 -1.21539 0
M  V30 4377 C 412.632 -2.9301 -1.82317 0
M  V30 4378 C 411.745 -4.10931 -1.33265 0
M  V30 4379 C 410.88 -4.69791 -2.47931 0
M  V30 4380 C 409.919 -5.7994 -1.95796 0
M  V30 4381 N 409.056 -6.32935 -3.0387 0
M  V30 4382 H 413.896 -2.9793 -0.0643591 0
M  V30 4383 H 411.433 -1.47086 -0.0200031 0
M  V30 4384 H 413.391 -3.3248 -2.52018 0
M  V30 4385 H 412.021 -2.1937 -2.36805 0
M  V30 4386 H 411.073 -3.76699 -0.52931 0
M  V30 4387 H 412.385 -4.90417 -0.910654 0
M  V30 4388 H 411.539 -5.11892 -3.25656 0
M  V30 4389 H 410.278 -3.89545 -2.93438 0
M  V30 4390 H 409.283 -5.37305 -1.16546 0
M  V30 4391 H 410.508 -6.62043 -1.51246 0
M  V30 4392 H 408.454 -5.55591 -3.48791 0
M  V30 4393 H 408.371 -7.07645 -2.66035 0
M  V30 4394 H 409.639 -6.79695 -3.81621 0
M  V30 4395 N 413.868 0.0150385 -1.57593 0
M  V30 4396 C 414.831 0.995996 -2.06428 0
M  V30 4397 C 415.831 1.2818 -0.970903 0
M  V30 4398 O 417.021 1.22949 -1.23406 0
M  V30 4399 C 414.153 2.32506 -2.49307 0
M  V30 4400 H 415.346 0.573873 -2.94358 0
M  V30 4401 H 412.899 0.262186 -1.54085 0
M  V30 4402 H 413.634 2.79438 -1.64575 0
M  V30 4403 H 413.419 2.13087 -3.29145 0
M  V30 4404 H 414.909 3.02906 -2.87468 0
M  V30 4405 N 415.346 1.54954 0.287554 0
M  V30 4406 C 416.593 1.74873 1.02106 0
M  V30 4407 C 416.921 0.541829 1.86801 0
M  V30 4408 O 416.176 -0.475992 1.89823 0
M  V30 4409 C 416.475 2.99833 1.94512 0
M  V30 4410 C 416.141 4.33029 1.25686 0
M  V30 4411 C 414.803 4.69233 1.06649 0
M  V30 4412 C 417.155 5.15542 0.765913 0
M  V30 4413 C 414.483 5.85518 0.372222 0
M  V30 4414 C 416.835 6.32542 0.0853101 0
M  V30 4415 C 415.499 6.67398 -0.1169 0
M  V30 4416 H 414.769 0.639906 0.373632 0
M  V30 4417 H 417.416 1.89219 0.294665 0
M  V30 4418 H 415.721 2.80325 2.73725 0
M  V30 4419 H 417.418 3.1244 2.51361 0
M  V30 4420 H 414.008 4.04564 1.41512 0
M  V30 4421 H 418.192 4.88059 0.90066 0
M  V30 4422 H 413.448 6.11057 0.204695 0
M  V30 4423 H 417.622 6.95741 -0.302936 0
M  V30 4424 H 415.249 7.57357 -0.656859 0
M  V30 4425 N 416.824 -0.551391 1.4764 0
M  V30 4426 C 417.756 -1.67333 1.56628 0
M  V30 4427 C 418.769 -1.56398 0.452045 0
M  V30 4428 O 419.958 -1.6325 0.721926 0
M  V30 4429 C 417.058 -3.05841 1.45994 0
M  V30 4430 C 416.231 -3.42472 2.72088 0
M  V30 4431 C 415.29 -4.60168 2.55209 0
M  V30 4432 O 414.316 -4.64458 3.2904 0
M  V30 4433 N 415.518 -5.57024 1.63416 0
M  V30 4434 H 418.283 -1.60066 2.53375 0
M  V30 4435 H 415.844 -0.738169 1.44093 0
M  V30 4436 H 417.836 -3.8242 1.32428 0
M  V30 4437 H 416.406 -3.07302 0.573071 0
M  V30 4438 H 415.626 -2.55284 3.00373 0
M  V30 4439 H 416.914 -3.63723 3.55785 0
M  V30 4440 H 416.312 -5.56319 1.02594 0
M  V30 4441 H 414.869 -6.32906 1.558 0
M  V30 4442 N 418.302 -1.35869 -0.798587 0
M  V30 4443 C 419.252 -1.25982 -1.90033 0
M  V30 4444 C 420.236 -0.153303 -1.60168 0
M  V30 4445 O 421.428 -0.38527 -1.72756 0
M  V30 4446 C 418.557 -1.04211 -3.27101 0
M  V30 4447 C 417.643 -2.19289 -3.63006 0
M  V30 4448 N 418.034 -3.44559 -3.70287 0
M  V30 4449 C 416.332 -2.10852 -3.93011 0
M  V30 4450 C 417.033 -4.20283 -4.02166 0
M  V30 4451 N 416.009 -3.49124 -4.16669 0
M  V30 4452 H 419.811 -2.20883 -1.93876 0
M  V30 4453 H 417.325 -1.28457 -0.993614 0
M  V30 4454 H 419.322 -0.952155 -4.05881 0
M  V30 4455 H 417.982 -0.102013 -3.2454 0
M  V30 4456 H 418.993 -3.7881 -3.53162 0
M  V30 4457 H 415.67 -1.24744 -3.98428 0
M  V30 4458 H 417.06 -5.28575 -4.14799 0
M  V30 4459 N 419.78 1.02168 -1.19998 0
M  V30 4460 C 420.712 2.10705 -0.901994 0
M  V30 4461 C 421.725 1.6244 0.108216 0
M  V30 4462 O 422.914 1.78082 -0.12214 0
M  V30 4463 C 420.014 3.37291 -0.329834 0
M  V30 4464 C 419.187 4.14714 -1.39035 0
M  V30 4465 C 418.246 5.19606 -0.830432 0
M  V30 4466 O 417.272 5.48809 -1.50989 0
M  V30 4467 N 418.474 5.79366 0.362696 0
M  V30 4468 H 421.239 2.36856 -1.83628 0
M  V30 4469 H 418.8 1.18518 -1.10296 0
M  V30 4470 H 420.792 4.04657 0.0587633 0
M  V30 4471 H 419.362 3.0843 0.508891 0
M  V30 4472 H 418.582 3.42392 -1.9535 0
M  V30 4473 H 419.87 4.63226 -2.10474 0
M  V30 4474 H 419.268 5.57968 0.932081 0
M  V30 4475 H 417.825 6.48106 0.69299 0
M  V30 4476 N 421.258 1.00505 1.21394 0
M  V30 4477 C 422.483 0.706367 1.95001 0
M  V30 4478 C 422.908 -0.72463 1.73582 0
M  V30 4479 O 422.266 -1.49702 1.0227 0
M  V30 4480 C 422.314 1.03299 3.45487 0
M  V30 4481 O 421.418 0.138275 4.12168 0
M  V30 4482 H 420.759 0.263175 0.609619 0
M  V30 4483 H 423.289 1.34531 1.54151 0
M  V30 4484 H 423.299 0.979872 3.96059 0
M  V30 4485 H 421.974 2.07567 3.60401 0
M  V30 4486 H 420.551 0.247928 3.72075 0
M  V30 4487 N 422.737 -1.36956 0.779787 0
M  V30 4488 C 423.962 -2.04283 0.358224 0
M  V30 4489 C 424.387 -1.58422 -1.01411 0
M  V30 4490 O 423.745 -0.748179 -1.65142 0
M  V30 4491 C 423.793 -3.58152 0.419479 0
M  V30 4492 O 422.897 -4.08342 -0.577142 0
M  V30 4493 H 422.238 -0.645967 0.153698 0
M  V30 4494 H 424.768 -1.75108 1.05822 0
M  V30 4495 H 424.778 -4.07041 0.279636 0
M  V30 4496 H 423.453 -3.90886 1.42061 0
M  V30 4497 H 422.03 -3.70751 -0.399755 0
M  V30 4498 N 424.215 -0.530993 -1.48385 0
M  V30 4499 C 425.455 0.000718982 -2.044 0
M  V30 4500 C 425.819 1.31485 -1.39913 0
M  V30 4501 O 427.02 1.93265 -1.86821 0
M  V30 4502 C 425.291 0.119177 -3.57201 0
M  V30 4503 S 426.85 0.600806 -4.34667 0
M  V30 4504 H 423.668 -0.0125473 -0.710889 0
M  V30 4505 H 426.27 -0.711783 -1.82082 0
M  V30 4506 H 424.974 -0.842061 -4.01668 0
M  V30 4507 H 424.505 0.856026 -3.83974 0
M  V30 4508 H 426.52 1.86514 -4.59812 0
M  V30 4509 N 425.693 1.55336 -0.266172 0
M  V30 4510 C 426.918 2.04258 0.359661 0
M  V30 4511 C 427.343 1.14359 1.49344 0
M  V30 4512 O 426.701 0.140369 1.80756 0
M  V30 4513 C 426.749 3.50997 0.826635 0
M  V30 4514 O 425.853 3.64204 1.93466 0
M  V30 4515 H 425.194 0.659668 0.075727 0
M  V30 4516 H 427.724 2.00694 -0.39786 0
M  V30 4517 H 427.734 3.9219 1.12477 0
M  V30 4518 H 426.409 4.159 -0.00293032 0
M  V30 4519 H 424.986 3.34913 1.63974 0
M  V30 4520 N 427.171 -0.0066808 1.57599 0
M  V30 4521 C 428.418 -0.69292 1.90276 0
M  V30 4522 C 428.746 -1.74148 0.866192 0
M  V30 4523 O 428.001 -1.95268 -0.129933 0
M  V30 4524 C 428.3 -1.37939 3.29708 0
M  V30 4525 C 427.966 -0.464679 4.48499 0
M  V30 4526 C 426.628 -0.212809 4.80729 0
M  V30 4527 C 428.98 0.16551 5.20937 0
M  V30 4528 C 426.308 0.677653 5.82773 0
M  V30 4529 C 428.66 1.04381 6.23929 0
M  V30 4530 C 427.324 1.30492 6.54621 0
M  V30 4531 H 426.594 -0.253558 0.696268 0
M  V30 4532 H 429.241 0.0474123 1.91441 0
M  V30 4533 H 427.546 -2.1936 3.24636 0
M  V30 4534 H 429.243 -1.9163 3.52249 0
M  V30 4535 H 425.833 -0.671153 4.23313 0
M  V30 4536 H 430.017 -0.0160756 4.96297 0
M  V30 4537 H 425.273 0.88803 6.04917 0
M  V30 4538 H 429.447 1.53851 6.79193 0
M  V30 4539 H 427.074 1.99662 7.33512 0
M  V30 4540 N 428.649 -1.55105 -0.279332 0
M  V30 4541 C 429.874 -1.7976 -1.03446 0
M  V30 4542 C 430.299 -0.565952 -1.79384 0
M  V30 4543 O 429.657 0.484259 -1.74713 0
M  V30 4544 C 429.705 -3.0179 -1.97371 0
M  V30 4545 O 428.809 -2.76432 -3.06038 0
M  V30 4546 H 428.15 -0.594334 -0.29608 0
M  V30 4547 H 430.68 -2.02235 -0.310165 0
M  V30 4548 H 430.69 -3.30351 -2.39441 0
M  V30 4549 H 429.365 -3.91085 -1.4151 0
M  V30 4550 H 427.942 -2.58949 -2.68328 0
M  V30 4551 N 430.127 0.543554 -1.4793 0
M  V30 4552 C 431.367 1.31072 -1.56843 0
M  V30 4553 C 431.731 1.90604 -0.231124 0
M  V30 4554 O 432.932 2.68091 -0.195165 0
M  V30 4555 C 431.203 2.38106 -2.66533 0
M  V30 4556 S 432.762 3.24729 -2.95122 0
M  V30 4557 H 429.58 0.446035 -0.553691 0
M  V30 4558 H 432.182 0.620777 -1.85382 0
M  V30 4559 H 430.886 1.92828 -3.62278 0
M  V30 4560 H 430.417 3.11824 -2.39852 0
M  V30 4561 H 432.432 4.37891 -2.3338 0
M  V30 4562 N 431.605 1.3629 0.791371 0
M  V30 4563 C 432.515 1.32606 1.93527 0
M  V30 4564 C 433.531 0.228541 1.72493 0
M  V30 4565 O 434.707 0.460571 1.96063 0
M  V30 4566 C 431.772 1.11271 3.28359 0
M  V30 4567 C 430.833 2.3048 3.62185 0
M  V30 4568 C 430.066 2.10154 4.90583 0
M  V30 4569 O 430.289 1.07572 5.60165 0
M  V30 4570 O 429.223 2.97884 5.23019 0
M  V30 4571 H 433.049 2.28909 1.99585 0
M  V30 4572 H 430.634 1.16818 0.931344 0
M  V30 4573 H 432.516 1.01283 4.09047 0
M  V30 4574 H 431.191 0.180292 3.23198 0
M  V30 4575 H 430.098 2.46036 2.81811 0
M  V30 4576 H 431.431 3.22221 3.72068 0
M  V30 4577 N 433.083 -1.0153 1.20538 0
M  V30 4578 C 433.993 -2.13557 0.971113 0
M  V30 4579 C 435.009 -1.73845 -0.0734366 0
M  V30 4580 O 436.185 -2.01075 0.114299 0
M  V30 4581 C 433.25 -3.42661 0.527639 0
M  V30 4582 C 432.311 -3.96608 1.64319 0
M  V30 4583 C 431.544 -5.1955 1.22078 0
M  V30 4584 O 431.767 -5.70329 0.0900198 0
M  V30 4585 O 430.701 -5.66681 2.02871 0
M  V30 4586 H 434.527 -2.3619 1.90913 0
M  V30 4587 H 432.112 -1.11946 0.989362 0
M  V30 4588 H 433.994 -4.20404 0.289621 0
M  V30 4589 H 432.669 -3.21441 -0.381779 0
M  V30 4590 H 431.576 -3.20139 1.93551 0
M  V30 4591 H 432.909 -4.22219 2.52966 0
M  V30 4592 N 434.561 -1.01147 -1.20859 0
M  V30 4593 C 435.809 -0.696486 -1.89719 0
M  V30 4594 C 436.13 0.775788 -1.78904 0
M  V30 4595 O 435.4 1.55759 -1.18811 0
M  V30 4596 H 433.98 -0.254628 -0.702263 0
M  V30 4597 H 436.642 -1.28197 -1.46804 0
M  V30 4598 H 435.738 -0.975357 -2.96468 0
M  V30 4599 N 436.039 1.36541 -0.78704 0
M  V30 4600 C 437.286 1.99304 -0.358341 0
M  V30 4601 C 437.614 1.62467 1.06933 0
M  V30 4602 O 436.869 0.870019 1.75297 0
M  V30 4603 C 437.168 3.54343 -0.466485 0
M  V30 4604 C 436.834 4.10993 -1.85461 0
M  V30 4605 C 435.496 4.26177 -2.23443 0
M  V30 4606 C 437.848 4.41895 -2.76366 0
M  V30 4607 C 435.176 4.69573 -3.51736 0
M  V30 4608 C 437.528 4.86722 -4.04084 0
M  V30 4609 C 436.192 5.00112 -4.42091 0
M  V30 4610 H 435.462 0.729306 -0.131126 0
M  V30 4611 H 438.109 1.63068 -1.00404 0
M  V30 4612 H 436.414 3.90918 0.262719 0
M  V30 4613 H 438.111 4.00833 -0.115854 0
M  V30 4614 H 434.701 3.99612 -1.54946 0
M  V30 4615 H 438.885 4.29735 -2.48277 0
M  V30 4616 H 434.141 4.78127 -3.81057 0
M  V30 4617 H 438.315 5.09598 -4.7464 0
M  V30 4618 H 435.942 5.33498 -5.41557 0
M  V30 4619 N 437.518 0.538854 1.48102 0
M  V30 4620 C 438.481 -0.208395 2.28251 0
M  V30 4621 C 439.481 -0.859656 1.35892 0
M  V30 4622 O 440.671 -0.71834 1.58699 0
M  V30 4623 C 437.803 -1.30252 3.15035 0
M  V30 4624 H 438.996 0.495407 2.9578 0
M  V30 4625 H 436.549 0.295112 1.53489 0
M  V30 4626 H 437.284 -2.0393 2.52157 0
M  V30 4627 H 437.069 -0.840551 3.82985 0
M  V30 4628 H 438.559 -1.82787 3.75471 0
M  V30 4629 N 438.996 -1.55193 0.274407 0
M  V30 4630 C 439.926 -2.25471 -0.607032 0
M  V30 4631 C 440.907 -1.24461 -1.15946 0
M  V30 4632 O 442.092 -1.53179 -1.19373 0
M  V30 4633 C 439.222 -2.97526 -1.79153 0
M  V30 4634 C 438.176 -4.05459 -1.37067 0
M  V30 4635 C 437.502 -4.65084 -2.6382 0
M  V30 4636 C 438.802 -5.19691 -0.521389 0
M  V30 4637 H 440.496 -2.99393 -0.0209343 0
M  V30 4638 H 438.042 -1.43997 -0.00862866 0
M  V30 4639 H 439.995 -3.45402 -2.41404 0
M  V30 4640 H 438.719 -2.21138 -2.40344 0
M  V30 4641 H 437.378 -3.58393 -0.771355 0
M  V30 4642 H 437.026 -3.85365 -3.23268 0
M  V30 4643 H 436.726 -5.37961 -2.36372 0
M  V30 4644 H 438.25 -5.15708 -3.26921 0
M  V30 4645 H 439.664 -5.63623 -1.04889 0
M  V30 4646 H 438.061 -5.99126 -0.341825 0
M  V30 4647 H 439.131 -4.82713 0.46 0
M  V30 4648 N 440.474 -0.00167713 -1.576 0
M  V30 4649 C 441.72 0.683832 -1.90923 0
M  V30 4650 C 442.053 1.7333 -0.875799 0
M  V30 4651 O 441.328 1.94215 0.10525 0
M  V30 4652 C 441.611 1.32543 -3.3482 0
M  V30 4653 C 441.464 0.287387 -4.48881 0
M  V30 4654 C 442.783 2.25114 -3.78169 0
M  V30 4655 H 439.902 0.247125 -0.694333 0
M  V30 4656 H 442.544 -0.0533149 -1.89925 0
M  V30 4657 H 440.694 1.95372 -3.35801 0
M  V30 4658 H 442.366 -0.341346 -4.60035 0
M  V30 4659 H 440.609 -0.39017 -4.32042 0
M  V30 4660 H 441.28 0.775393 -5.46527 0
M  V30 4661 H 443.756 1.723 -3.7875 0
M  V30 4662 H 442.632 2.66971 -4.79602 0
M  V30 4663 H 442.893 3.13092 -3.12131 0
M  V30 4664 N 441.952 1.55251 0.271103 0
M  V30 4665 C 443.2 1.75599 1.00047 0
M  V30 4666 C 443.521 0.561188 1.8675 0
M  V30 4667 O 442.791 -0.423846 1.9126 0
M  V30 4668 H 441.371 0.647562 0.372387 0
M  V30 4669 H 444.033 1.92656 0.294876 0
M  V30 4670 H 443.129 2.65766 1.6363 0
M  V30 4671 N 443.43 -0.535701 1.48216 0
M  V30 4672 C 444.841 -1.11769 1.49548 0
M  V30 4673 C 445.192 -1.94442 0.26207 0
M  V30 4674 O 444.317 -2.06987 -0.631287 0
M  V30 4675 C 444.912 -2.03367 2.70975 0
M  V30 4676 C 443.471 -2.56795 2.75196 0
M  V30 4677 C 442.618 -1.33631 2.42977 0
M  V30 4678 H 445.569 -0.321232 1.55415 0
M  V30 4679 H 445.59 -2.87569 2.49167 0
M  V30 4680 H 445.102 -1.43169 3.60727 0
M  V30 4681 H 443.203 -3.20731 1.89638 0
M  V30 4682 H 443.316 -2.9632 3.76472 0
M  V30 4683 H 441.68 -1.6502 1.94012 0
M  V30 4684 H 442.463 -0.75194 3.34964 0
M  V30 4685 N 444.908 -1.36708 -0.784132 0
M  V30 4686 C 445.818 -1.3363 -1.92822 0
M  V30 4687 C 446.834 -0.237686 -1.72369 0
M  V30 4688 O 448.01 -0.470962 -1.95816 0
M  V30 4689 C 445.075 -1.13011 -3.27764 0
M  V30 4690 C 444.136 -2.32397 -3.60957 0
M  V30 4691 C 443.369 -2.12752 -4.89461 0
M  V30 4692 O 443.592 -1.10541 -5.59586 0
M  V30 4693 O 442.526 -3.00653 -5.21432 0
M  V30 4694 H 446.352 -2.29964 -1.98369 0
M  V30 4695 H 443.937 -1.1731 -0.925136 0
M  V30 4696 H 445.819 -1.03451 -4.08504 0
M  V30 4697 H 444.494 -0.19743 -3.23097 0
M  V30 4698 H 443.401 -2.47527 -2.80502 0
M  V30 4699 H 444.734 -3.2419 -3.70354 0
M  V30 4700 N 446.386 1.0089 -1.21074 0
M  V30 4701 C 447.632 1.74866 -1.02712 0
M  V30 4702 C 447.965 1.89178 0.438787 0
M  V30 4703 O 447.24 1.42325 1.32567 0
M  V30 4704 C 447.523 3.16347 -1.72036 0
M  V30 4705 C 447.376 3.09782 -3.26121 0
M  V30 4706 C 448.695 4.15187 -1.45973 0
M  V30 4707 H 445.814 0.634736 -0.374539 0
M  V30 4708 H 448.456 1.17646 -1.49196 0
M  V30 4709 H 446.606 3.65201 -1.32517 0
M  V30 4710 H 448.278 2.68673 -3.74983 0
M  V30 4711 H 446.521 2.46982 -3.56626 0
M  V30 4712 H 447.192 4.09829 -3.6979 0
M  V30 4713 H 449.668 3.75022 -1.80272 0
M  V30 4714 H 448.544 5.12331 -1.96999 0
M  V30 4715 H 448.805 4.40386 -0.388924 0
M  V30 4716 N 447.864 1.01787 1.20321 0
M  V30 4717 C 449.11 0.708985 1.90003 0
M  V30 4718 C 449.443 -0.759572 1.78729 0
M  V30 4719 O 448.718 -1.55198 1.17234 0
M  V30 4720 C 449.001 1.1469 3.41348 0
M  V30 4721 C 448.854 2.67586 3.61549 0
M  V30 4722 C 450.173 0.71915 4.34185 0
M  V30 4723 H 447.292 0.259034 0.689978 0
M  V30 4724 H 449.934 1.26584 1.41692 0
M  V30 4725 H 448.084 0.673128 3.82624 0
M  V30 4726 H 449.756 3.22826 3.29517 0
M  V30 4727 H 447.999 3.085 3.04976 0
M  V30 4728 H 448.67 2.93281 4.67643 0
M  V30 4729 H 451.146 1.12647 4.00562 0
M  V30 4730 H 450.022 1.05358 5.38694 0
M  V30 4731 H 450.283 -0.379111 4.40472 0
M  V30 4732 N 449.342 -1.36122 0.79427 0
M  V30 4733 C 450.274 -2.28683 0.153903 0
M  V30 4734 C 451.287 -1.49707 -0.639669 0
M  V30 4735 O 452.476 -1.7209 -0.474054 0
M  V30 4736 C 449.576 -3.29202 -0.804921 0
M  V30 4737 C 448.749 -4.37358 -0.060366 0
M  V30 4738 C 447.808 -5.17811 -0.935849 0
M  V30 4739 O 446.834 -5.67853 -0.391309 0
M  V30 4740 N 448.036 -5.34721 -2.25951 0
M  V30 4741 H 450.801 -2.84278 0.949008 0
M  V30 4742 H 448.362 -1.4834 0.648611 0
M  V30 4743 H 450.354 -3.79914 -1.39455 0
M  V30 4744 H 448.924 -2.74212 -1.50088 0
M  V30 4745 H 448.144 -3.87746 0.710382 0
M  V30 4746 H 449.432 -5.06777 0.45324 0
M  V30 4747 H 448.83 -4.95687 -2.72601 0
M  V30 4748 H 447.387 -5.88657 -2.79867 0
M  V30 4749 N 450.82 -0.546701 -1.47814 0
M  V30 4750 C 452.06 -0.0209604 -2.04389 0
M  V30 4751 C 452.424 1.29993 -1.413 0
M  V30 4752 O 453.625 1.91273 -1.8886 0
M  V30 4753 C 451.896 0.0812844 -3.57308 0
M  V30 4754 S 453.455 0.55467 -4.3528 0
M  V30 4755 H 450.273 -0.0200865 -0.710716 0
M  V30 4756 H 452.875 -0.731055 -1.81317 0
M  V30 4757 H 451.579 -0.884616 -4.00753 0
M  V30 4758 H 451.11 0.815253 -3.8486 0
M  V30 4759 H 453.125 1.81627 -4.61764 0
M  V30 4760 N 452.299 1.55045 -0.282633 0
M  V30 4761 C 453.527 2.04168 0.33512 0
M  V30 4762 C 453.942 1.16071 1.48906 0
M  V30 4763 O 453.299 0.182391 1.81586 0
M  V30 4764 C 453.35 3.52332 0.808957 0
M  V30 4765 O 453.071 4.37078 -0.299038 0
M  V30 4766 C 454.572 4.17375 1.49375 0
M  V30 4767 H 451.792 0.666744 0.0754543 0
M  V30 4768 H 454.336 2.00205 -0.416918 0
M  V30 4769 H 452.491 3.56715 1.51106 0
M  V30 4770 H 452.905 5.24458 0.0665514 0
M  V30 4771 H 454.379 5.22627 1.77664 0
M  V30 4772 H 454.856 3.65999 2.42778 0
M  V30 4773 H 455.462 4.17016 0.835305 0
M  V30 4774 N 453.777 0.010035 1.57597 0
M  V30 4775 C 454.74 -0.963029 2.07986 0
M  V30 4776 C 455.74 -1.26619 0.991173 0
M  V30 4777 O 456.93 -1.2097 1.25347 0
M  V30 4778 C 454.062 -2.2851 2.52974 0
M  V30 4779 H 455.255 -0.526971 2.95234 0
M  V30 4780 H 452.808 -0.237639 1.54483 0
M  V30 4781 H 453.543 -2.76784 1.69 0
M  V30 4782 H 453.328 -2.07824 3.32493 0
M  V30 4783 H 454.818 -2.98294 2.9225 0
M  V30 4784 N 455.255 -1.55392 -0.262866 0
M  V30 4785 C 456.48 -1.80847 -1.01533 0
M  V30 4786 C 456.905 -0.584946 -1.78774 0
M  V30 4787 O 456.263 0.465701 -1.75217 0
M  V30 4788 C 456.311 -3.03866 -1.94159 0
M  V30 4789 O 455.415 -2.79662 -3.03089 0
M  V30 4790 H 454.756 -0.597441 -0.289759 0
M  V30 4791 H 457.286 -2.02553 -0.288698 0
M  V30 4792 H 457.296 -3.32872 -2.35924 0
M  V30 4793 H 455.971 -3.92564 -1.37354 0
M  V30 4794 H 454.548 -2.61781 -2.65566 0
M  V30 4795 N 456.733 0.527833 -1.48498 0
M  V30 4796 C 457.981 1.28101 -1.56316 0
M  V30 4797 C 458.302 1.9352 -0.239781 0
M  V30 4798 O 457.572 1.81433 0.738849 0
M  V30 4799 H 456.152 0.475793 -0.575873 0
M  V30 4800 H 458.814 0.614052 -1.84974 0
M  V30 4801 H 457.91 2.05916 -2.34532 0
M  V30 4802 N 458.211 1.37122 0.776871 0
M  V30 4803 C 459.457 1.32243 1.53752 0
M  V30 4804 C 459.79 -0.0944745 1.9397 0
M  V30 4805 O 459.065 -1.05068 1.6368 0
M  V30 4806 C 459.348 2.25681 2.80607 0
M  V30 4807 C 459.201 3.76127 2.46676 0
M  V30 4808 C 460.52 2.17657 3.82509 0
M  V30 4809 H 457.639 0.481704 0.557791 0
M  V30 4810 H 460.281 1.6778 0.891612 0
M  V30 4811 H 458.431 1.95505 3.35723 0
M  V30 4812 H 460.103 4.16877 1.97513 0
M  V30 4813 H 458.346 3.94946 1.79443 0
M  V30 4814 H 459.017 4.36933 3.37333 0
M  V30 4815 H 461.493 2.44245 3.36873 0
M  V30 4816 H 460.369 2.85185 4.69 0
M  V30 4817 H 460.63 1.16785 4.26396 0
M  V30 4818 N 459.689 -1.00246 1.21608 0
M  V30 4819 C 460.935 -1.74417 1.04643 0
M  V30 4820 C 461.29 -1.87862 -0.415387 0
M  V30 4821 O 460.583 -1.40373 -1.30407 0
M  V30 4822 C 460.777 -3.15448 1.68009 0
M  V30 4823 C 460.606 -3.15755 3.20201 0
M  V30 4824 C 459.376 -3.2219 3.89258 0
M  V30 4825 C 461.574 -3.00668 4.17257 0
M  V30 4826 N 459.556 -3.1215 5.28617 0
M  V30 4827 C 460.927 -2.98553 5.43384 0
M  V30 4828 C 462.982 -2.84989 4.08272 0
M  V30 4829 C 461.685 -2.82364 6.61561 0
M  V30 4830 C 463.711 -2.70158 5.26088 0
M  V30 4831 C 463.073 -2.68721 6.51128 0
M  V30 4832 H 459.172 -0.648317 0.437274 0
M  V30 4833 H 461.756 -1.19129 1.54001 0
M  V30 4834 H 459.927 -3.69001 1.21215 0
M  V30 4835 H 461.659 -3.78128 1.44226 0
M  V30 4836 H 458.414 -3.29488 3.40198 0
M  V30 4837 H 458.838 -3.10465 6.01615 0
M  V30 4838 H 463.48 -2.84904 3.12393 0
M  V30 4839 H 461.198 -2.81196 7.57598 0
M  V30 4840 H 464.784 -2.59022 5.20959 0
M  V30 4841 H 463.664 -2.57382 7.40759 0
M  V30 4842 N 461.167 -1.02423 -1.1978 0
M  V30 4843 C 462.395 -0.737456 -1.93311 0
M  V30 4844 C 462.81 0.703023 -1.75223 0
M  V30 4845 O 462.167 1.47761 -1.07112 0
M  V30 4846 C 462.218 -1.0733 -3.45199 0
M  V30 4847 O 461.939 -2.4572 -3.62702 0
M  V30 4848 C 463.44 -0.80866 -4.35862 0
M  V30 4849 H 460.66 -0.2702 -0.614193 0
M  V30 4850 H 463.204 -1.36747 -1.52054 0
M  V30 4851 H 461.359 -0.488545 -3.84307 0
M  V30 4852 H 461.773 -2.58081 -4.56612 0
M  V30 4853 H 463.247 -1.09365 -5.41057 0
M  V30 4854 H 463.724 0.257025 -4.38447 0
M  V30 4855 H 464.33 -1.37592 -4.02428 0
M  V30 4856 N 462.645 1.35699 -0.801477 0
M  V30 4857 C 463.608 2.28199 -0.213994 0
M  V30 4858 C 464.608 1.49359 0.595691 0
M  V30 4859 O 465.798 1.69186 0.414921 0
M  V30 4860 C 462.93 3.33587 0.702297 0
M  V30 4861 H 464.123 2.81666 -1.02976 0
M  V30 4862 H 461.676 1.45467 -0.571759 0
M  V30 4863 H 462.411 2.85297 1.54195 0
M  V30 4864 H 462.196 3.91906 0.123484 0
M  V30 4865 H 463.686 4.02638 1.10783 0
M  V30 4866 N 464.123 0.554532 1.47522 0
M  V30 4867 C 465.534 0.120446 1.86311 0
M  V30 4868 C 465.885 -1.30904 1.46145 0
M  V30 4869 O 465.01 -1.98434 0.863294 0
M  V30 4870 C 465.605 0.211808 3.38137 0
M  V30 4871 C 464.164 -0.167224 3.76028 0
M  V30 4872 C 463.311 0.560576 2.71575 0
M  V30 4873 H 466.262 0.764408 1.39077 0
M  V30 4874 H 466.283 -0.570275 3.76202 0
M  V30 4875 H 465.795 1.25232 3.6734 0
M  V30 4876 H 463.896 -1.20894 3.52442 0
M  V30 4877 H 464.009 0.189473 4.78725 0
M  V30 4878 H 462.373 0.00396836 2.547 0
M  V30 4879 H 463.156 1.60219 3.0362 0
M  V30 4880 N 465.601 -1.54893 0.290851 0
M  V30 4881 C 466.564 -2.21824 -0.576784 0
M  V30 4882 C 467.564 -1.20104 -1.06919 0
M  V30 4883 O 468.754 -1.44906 -0.966843 0
M  V30 4884 C 465.886 -2.89662 -1.79747 0
M  V30 4885 H 467.079 -2.99899 0.00784051 0
M  V30 4886 H 464.632 -1.56245 0.0415934 0
M  V30 4887 H 465.367 -2.15639 -2.42219 0
M  V30 4888 H 465.152 -3.64219 -1.45214 0
M  V30 4889 H 466.642 -3.4075 -2.4141 0
M  V30 4890 N 467.08 -0.0183926 -1.57589 0
M  V30 4891 C 468.491 0.521927 -1.79256 0
M  V30 4892 C 468.842 1.72885 -0.927636 0
M  V30 4893 O 467.967 2.15978 -0.135091 0
M  V30 4894 C 468.562 0.953632 -3.25102 0
M  V30 4895 C 467.121 1.43913 -3.47801 0
M  V30 4896 C 466.268 0.398837 -2.74417 0
M  V30 4897 H 469.219 -0.244485 -1.56805 0
M  V30 4898 H 469.24 1.81863 -3.34224 0
M  V30 4899 H 468.752 0.0750123 -3.88028 0
M  V30 4900 H 466.853 2.33804 -2.90115 0
M  V30 4901 H 466.966 1.45391 -4.56507 0
M  V30 4902 H 465.33 0.864572 -2.39577 0
M  V30 4903 H 466.113 -0.471132 -3.40052 0
M  V30 4904 N 468.558 1.5553 0.254621 0
M  V30 4905 C 469.804 1.77262 0.985193 0
M  V30 4906 C 470.137 0.582286 1.85265 0
M  V30 4907 O 469.412 -0.419666 1.89919 0
M  V30 4908 C 469.695 3.0881 1.85225 0
M  V30 4909 C 469.548 4.38233 1.0135 0
M  V30 4910 C 470.867 3.3653 2.83612 0
M  V30 4911 H 467.986 0.644906 0.356742 0
M  V30 4912 H 470.628 1.88264 0.256236 0
M  V30 4913 H 468.778 2.99562 2.47376 0
M  V30 4914 H 470.45 4.59463 0.411269 0
M  V30 4915 H 468.693 4.32636 0.317574 0
M  V30 4916 H 469.364 5.26644 1.65379 0
M  V30 4917 H 471.84 3.45691 2.31596 0
M  V30 4918 H 470.716 4.29805 3.41407 0
M  V30 4919 H 470.977 2.57064 3.59681 0
M  V30 4920 N 470.036 -0.519951 1.48776 0
M  V30 4921 C 471.276 -1.2856 1.58908 0
M  V30 4922 C 471.64 -1.90212 0.261418 0
M  V30 4923 O 472.841 -2.67746 0.237791 0
M  V30 4924 C 471.112 -2.33836 2.70288 0
M  V30 4925 S 472.671 -3.19992 3.0025 0
M  V30 4926 H 469.489 -0.43717 0.560717 0
M  V30 4927 H 472.091 -0.591205 1.86346 0
M  V30 4928 H 470.795 -1.87041 3.653 0
M  V30 4929 H 470.326 -3.07969 2.44783 0
M  V30 4930 H 472.341 -4.34122 2.40317 0
M  V30 4931 N 471.514 -1.37532 -0.769588 0
M  V30 4932 C 472.461 -1.3347 -1.88293 0
M  V30 4933 C 473.431 -0.199891 -1.64893 0
M  V30 4934 O 474.616 -0.389594 -1.8678 0
M  V30 4935 C 471.756 -1.14968 -3.25387 0
M  V30 4936 C 470.869 -2.37698 -3.60727 0
M  V30 4937 C 470.004 -2.12051 -4.8704 0
M  V30 4938 C 469.043 -3.30636 -5.15117 0
M  V30 4939 N 468.18 -3.04527 -6.3262 0
M  V30 4940 H 473.02 -2.28658 -1.911 0
M  V30 4941 H 470.557 -1.13622 -0.934257 0
M  V30 4942 H 472.515 -1.02261 -4.04473 0
M  V30 4943 H 471.145 -0.234263 -3.21949 0
M  V30 4944 H 470.197 -2.61137 -2.76608 0
M  V30 4945 H 471.509 -3.26131 -3.77413 0
M  V30 4946 H 470.663 -1.96388 -5.74035 0
M  V30 4947 H 469.402 -1.20959 -4.72462 0
M  V30 4948 H 468.407 -3.46836 -4.26597 0
M  V30 4949 H 469.632 -4.22582 -5.31603 0
M  V30 4950 H 467.578 -2.16067 -6.19396 0
M  V30 4951 H 467.495 -3.86503 -6.49732 0
M  V30 4952 H 468.763 -2.92485 -7.22546 0
M  V30 4953 N 472.992 0.995999 -1.22138 0
M  V30 4954 C 473.955 2.06711 -0.990109 0
M  V30 4955 C 474.955 1.60744 0.0422978 0
M  V30 4956 O 476.145 1.73095 -0.195895 0
M  V30 4957 C 473.277 3.37288 -0.49491 0
M  V30 4958 H 474.47 2.28661 -1.94047 0
M  V30 4959 H 472.023 1.16711 -1.03963 0
M  V30 4960 H 472.758 3.21022 0.459948 0
M  V30 4961 H 472.543 3.71986 -1.23971 0
M  V30 4962 H 474.033 4.16103 -0.353253 0
M  V30 4963 N 474.47 1.03057 1.19235 0
M  V30 4964 C 475.716 0.729098 1.89241 0
M  V30 4965 C 476.049 -0.740573 1.79525 0
M  V30 4966 O 475.324 -1.53946 1.18874 0
M  V30 4967 C 475.607 1.18304 3.40112 0
M  V30 4968 C 475.46 2.71406 3.5869 0
M  V30 4969 C 476.779 0.765161 4.33397 0
M  V30 4970 H 473.898 0.266338 0.687192 0
M  V30 4971 H 476.54 1.28079 1.40341 0
M  V30 4972 H 474.69 0.713672 3.81889 0
M  V30 4973 H 476.362 3.26303 3.26074 0
M  V30 4974 H 474.605 3.11717 3.01687 0
M  V30 4975 H 475.276 2.98225 4.64506 0
M  V30 4976 H 477.752 1.16889 3.99345 0
M  V30 4977 H 476.628 1.11065 5.37546 0
M  V30 4978 H 476.889 -0.332372 4.40849 0
M  V30 4979 N 475.948 -1.35272 0.808662 0
M  V30 4980 C 476.88 -2.28507 0.178149 0
M  V30 4981 C 477.893 -1.50377 -0.623754 0
M  V30 4982 O 479.082 -1.72583 -0.455774 0
M  V30 4983 C 476.182 -3.30038 -0.769959 0
M  V30 4984 C 475.355 -4.37398 -0.0139749 0
M  V30 4985 C 474.414 -5.18775 -0.880875 0
M  V30 4986 O 473.44 -5.68236 -0.331059 0
M  V30 4987 N 474.642 -5.37087 -2.20267 0
M  V30 4988 H 477.407 -2.83255 0.979106 0
M  V30 4989 H 474.968 -1.47643 0.664308 0
M  V30 4990 H 476.96 -3.81371 -1.35418 0
M  V30 4991 H 475.53 -2.75789 -1.47171 0
M  V30 4992 H 474.75 -3.86971 0.751468 0
M  V30 4993 H 476.038 -5.06268 0.506965 0
M  V30 4994 H 475.436 -4.9855 -2.67328 0
M  V30 4995 H 473.993 -5.91593 -2.73608 0
M  V30 4996 N 477.426 -0.562348 -1.47226 0
M  V30 4997 C 478.666 -0.0426374 -2.04356 0
M  V30 4998 C 479.03 1.28487 -1.42671 0
M  V30 4999 O 480.231 1.89259 -1.90878 0
M  V30 5000 C 478.502 0.0433826 -3.57374 0
M  V30 5001 S 480.061 0.508472 -4.35844 0
M  V30 5002 H 476.879 -0.0276234 -0.710463 0
M  V30 5003 H 479.481 -0.750245 -1.80531 0
M  V30 5004 H 478.185 -0.927072 -3.99792 0
M  V30 5005 H 477.716 0.774387 -3.85703 0
M  V30 5006 H 479.731 1.76719 -4.63665 0
M  V30 5007 N 478.904 1.54736 -0.299062 0
M  V30 5008 C 479.836 2.20891 0.61153 0
M  V30 5009 C 480.849 1.20104 1.09904 0
M  V30 5010 O 482.038 1.46707 1.01683 0
M  V30 5011 C 479.138 2.84018 1.84897 0
M  V30 5012 C 478.311 4.10719 1.50428 0
M  V30 5013 C 477.37 4.57667 2.59667 0
M  V30 5014 O 476.396 5.2291 2.24842 0
M  V30 5015 N 477.598 4.29821 3.90172 0
M  V30 5016 H 480.363 2.99666 0.0452001 0
M  V30 5017 H 477.924 1.61446 -0.121178 0
M  V30 5018 H 479.916 3.1236 2.5732 0
M  V30 5019 H 478.486 2.09095 2.32375 0
M  V30 5020 H 477.706 3.89408 0.612781 0
M  V30 5021 H 478.994 4.93223 1.24934 0
M  V30 5022 H 478.392 3.77549 4.21276 0
M  V30 5023 H 476.949 4.62877 4.58899 0
M  V30 5024 N 480.382 0.0267497 1.57577 0
M  V30 5025 C 481.332 -0.965003 2.06571 0
M  V30 5026 C 482.316 -1.28694 0.965746 0
M  V30 5027 O 483.508 -1.27345 1.22932 0
M  V30 5028 C 480.637 -2.24821 2.59443 0
M  V30 5029 C 479.723 -1.95474 3.76365 0
M  V30 5030 N 480.114 -1.36387 4.87065 0
M  V30 5031 C 478.412 -2.25478 3.84806 0
M  V30 5032 C 479.113 -1.24119 5.68304 0
M  V30 5033 N 478.089 -1.7359 5.15138 0
M  V30 5034 H 481.891 -0.503095 2.89562 0
M  V30 5035 H 479.405 -0.178322 1.61418 0
M  V30 5036 H 481.402 -2.9674 2.92833 0
M  V30 5037 H 480.062 -2.7164 1.77881 0
M  V30 5038 H 481.073 -1.03919 5.07367 0
M  V30 5039 H 477.75 -2.74987 3.14147 0
M  V30 5040 H 479.14 -0.784504 6.67304 0
M  V30 5041 N 481.861 -1.55662 -0.24637 0
M  V30 5042 C 482.791 -1.93377 -1.30873 0
M  V30 5043 C 483.772 -0.798773 -1.50179 0
M  V30 5044 O 484.957 -1.0591 -1.62778 0
M  V30 5045 C 482.087 -2.22893 -2.66338 0
M  V30 5046 C 481.041 -3.38649 -2.61727 0
M  V30 5047 C 480.367 -3.53708 -4.00992 0
M  V30 5048 C 481.667 -4.74323 -2.18666 0
M  V30 5049 H 483.361 -2.82363 -0.995552 0
M  V30 5050 H 480.907 -1.35854 -0.477464 0
M  V30 5051 H 482.86 -2.47866 -3.40794 0
M  V30 5052 H 481.584 -1.30733 -2.99293 0
M  V30 5053 H 480.243 -3.13685 -1.89729 0
M  V30 5054 H 479.891 -2.58967 -4.31214 0
M  V30 5055 H 479.591 -4.31551 -3.98795 0
M  V30 5056 H 481.115 -3.81003 -4.77147 0
M  V30 5057 H 482.529 -4.98665 -2.82854 0
M  V30 5058 H 480.926 -5.55273 -2.27579 0
M  V30 5059 H 481.996 -4.71349 -1.13834 0
M  V30 5060 N 483.339 0.512053 -1.4905 0
M  V30 5061 C 484.249 1.64139 -1.67617 0
M  V30 5062 C 485.265 1.64786 -0.558701 0
M  V30 5063 O 486.441 1.8341 -0.832034 0
M  V30 5064 C 483.506 3.00548 -1.72835 0
M  V30 5065 C 482.567 3.10615 -2.96339 0
M  V30 5066 C 481.8 4.40517 -3.01298 0
M  V30 5067 O 482.023 5.28671 -2.14157 0
M  V30 5068 O 480.957 4.55325 -3.93653 0
M  V30 5069 H 484.783 1.51407 -2.63267 0
M  V30 5070 H 482.368 0.687131 -1.32661 0
M  V30 5071 H 484.25 3.81641 -1.78683 0
M  V30 5072 H 482.925 3.13566 -0.803616 0
M  V30 5073 H 481.832 2.2875 -2.96014 0
M  V30 5074 H 483.165 3.0252 -3.88256 0
M  V30 5075 N 484.817 1.37938 0.762283 0
M  V30 5076 C 485.78 1.34279 1.85747 0
M  V30 5077 C 486.78 0.244969 1.58923 0
M  V30 5078 O 487.97 0.501365 1.66829 0
M  V30 5079 C 485.102 1.08833 3.23061 0
M  V30 5080 H 486.295 2.31705 1.90401 0
M  V30 5081 H 483.848 1.23105 0.963057 0
M  V30 5082 H 484.583 0.119767 3.24079 0
M  V30 5083 H 484.368 1.88306 3.43923 0
M  V30 5084 H 485.858 1.08946 4.03138 0
M  V30 5085 N 486.295 -0.989507 1.22664 0
M  V30 5086 C 487.706 -1.54406 1.04955 0
M  V30 5087 C 488.057 -1.92366 -0.385951 0
M  V30 5088 O 487.182 -1.75111 -1.27142 0
M  V30 5089 C 487.777 -2.80578 1.89899 0
M  V30 5090 C 486.336 -3.32464 1.76478 0
M  V30 5091 C 485.483 -2.05524 1.86159 0
M  V30 5092 H 488.434 -0.810211 1.3646 0
M  V30 5093 H 488.455 -3.53075 1.4184 0
M  V30 5094 H 487.967 -2.52918 2.94371 0
M  V30 5095 H 486.068 -3.65024 0.747528 0
M  V30 5096 H 486.181 -4.02838 2.59342 0
M  V30 5097 H 484.545 -2.19241 1.29636 0
M  V30 5098 H 485.328 -1.80258 2.92168 0
M  V30 5099 N 487.773 -1.03688 -1.18687 0
M  V30 5100 C 488.998 -0.757819 -1.93059 0
M  V30 5101 C 489.423 0.678353 -1.75442 0
M  V30 5102 O 488.781 1.46938 -1.06203 0
M  V30 5103 C 488.829 -1.12423 -3.42627 0
M  V30 5104 O 487.933 -0.247505 -4.11657 0
M  V30 5105 H 487.274 -0.279245 -0.602427 0
M  V30 5106 H 489.804 -1.3857 -1.5053 0
M  V30 5107 H 489.814 -1.08454 -3.93322 0
M  V30 5108 H 488.489 -2.17049 -3.54771 0
M  V30 5109 H 487.066 -0.34649 -3.71287 0
M  V30 5110 N 489.251 1.34841 -0.815825 0
M  V30 5111 C 490.161 2.33425 -0.234462 0
M  V30 5112 C 491.177 1.62295 0.627413 0
M  V30 5113 O 492.353 1.94109 0.536987 0
M  V30 5114 C 489.418 3.41471 0.599849 0
M  V30 5115 C 488.479 4.28362 -0.283596 0
M  V30 5116 C 487.712 5.31248 0.51099 0
M  V30 5117 O 487.935 5.43056 1.7449 0
M  V30 5118 O 486.869 6.01812 -0.10297 0
M  V30 5119 H 490.695 2.84962 -1.05024 0
M  V30 5120 H 488.28 1.37774 -0.577809 0
M  V30 5121 H 490.162 4.07464 1.07475 0
M  V30 5122 H 488.837 2.9219 1.39308 0
M  V30 5123 H 487.744 3.65318 -0.805836 0
M  V30 5124 H 489.077 4.81066 -1.041 0
M  V30 5125 N 490.729 0.570148 1.46925 0
M  V30 5126 C 491.977 0.0508523 2.02036 0
M  V30 5127 C 492.298 -1.30885 1.44548 0
M  V30 5128 O 491.568 -1.85647 0.625453 0
M  V30 5129 H 490.148 0.0158088 0.746833 0
M  V30 5130 H 492.81 0.743086 1.80178 0
M  V30 5131 H 491.906 -0.027575 3.12088 0
M  V30 5132 N 492.207 -1.54576 0.307264 0
M  V30 5133 C 493.435 -2.04675 -0.302597 0
M  V30 5134 C 493.85 -1.18425 -1.47041 0
M  V30 5135 O 493.207 -0.211257 -1.81273 0
M  V30 5136 C 493.258 -3.53575 -0.752801 0
M  V30 5137 O 492.979 -4.36547 0.368536 0
M  V30 5138 C 494.48 -4.19699 -1.42717 0
M  V30 5139 H 491.7 -0.66786 -0.0648374 0
M  V30 5140 H 494.244 -1.99516 0.448716 0
M  V30 5141 H 492.399 -3.59074 -1.45412 0
M  V30 5142 H 492.813 -5.24497 0.0168937 0
M  V30 5143 H 494.287 -5.25388 -1.69327 0
M  V30 5144 H 494.764 -3.69815 -2.36925 0
M  V30 5145 H 495.37 -4.18293 -0.768856 0
M  V30 5146 N 493.685 -0.035106 -1.57561 0
M  V30 5147 C 494.618 0.979673 -2.06101 0
M  V30 5148 C 495.596 1.31378 -0.958046 0
M  V30 5149 O 496.78 1.42942 -1.22881 0
M  V30 5150 C 493.907 2.29809 -2.48808 0
M  V30 5151 C 492.953 2.11817 -3.70184 0
M  V30 5152 S 493.786 1.41143 -5.16565 0
M  V30 5153 C 494.942 2.74341 -5.62572 0
M  V30 5154 H 495.175 0.566506 -2.91853 0
M  V30 5155 H 492.708 0.176744 -1.53385 0
M  V30 5156 H 494.666 3.056 -2.74078 0
M  V30 5157 H 493.327 2.68257 -1.63392 0
M  V30 5158 H 492.52 3.09299 -3.97933 0
M  V30 5159 H 492.122 1.44168 -3.45097 0
M  V30 5160 H 494.414 3.70562 -5.67177 0
M  V30 5161 H 495.357 2.51249 -6.62027 0
M  V30 5162 H 495.765 2.79863 -4.90242 0
M  V30 5163 N 495.163 1.55791 0.238111 0
M  V30 5164 C 496.44 1.68798 0.98826 0
M  V30 5165 C 496.82 0.577562 2.03045 0
M  V30 5166 O 496.168 -0.41778 2.24648 0
M  V30 5167 C 496.378 3.09454 1.61367 0
M  V30 5168 C 497.726 3.68335 2.11221 0
M  V30 5169 O 498.75 3.1231 1.71292 0
M  V30 5170 O 497.609 4.6657 2.84561 0
M  V30 5171 H 494.703 0.686881 0.460568 0
M  V30 5172 H 497.249 1.68118 0.231202 0
M  V30 5173 H 496.021 3.81726 0.860295 0
M  V30 5174 H 495.644 3.14182 2.4367 0
M  V30 5175 N 496.642 -0.504142 1.49319 0
M  V30 5176 C 497.882 -1.26867 1.60263 0
M  V30 5177 C 498.246 -1.89924 0.281578 0
M  V30 5178 O 499.447 -2.67479 0.266176 0
M  V30 5179 C 497.718 -2.30956 2.72753 0
M  V30 5180 S 499.277 -3.1679 3.03628 0
M  V30 5181 H 496.095 -0.431198 0.565322 0
M  V30 5182 H 498.697 -0.571407 1.86963 0
M  V30 5183 H 497.401 -1.83156 3.67263 0
M  V30 5184 H 496.932 -3.05356 2.48035 0
M  V30 5185 H 498.947 -4.31549 2.44908 0
M  V30 5186 N 498.12 -1.38341 -0.754957 0
M  V30 5187 C 499.366 -1.34672 -1.51628 0
M  V30 5188 C 499.699 0.0636036 -1.94096 0
M  V30 5189 O 498.974 1.0245 -1.6533 0
M  V30 5190 C 499.257 -2.30116 -2.76981 0
M  V30 5191 C 499.11 -3.80003 -2.4066 0
M  V30 5192 C 500.429 -2.23715 -3.78998 0
M  V30 5193 H 497.548 -0.490517 -0.550056 0
M  V30 5194 H 500.19 -1.69178 -0.864807 0
M  V30 5195 H 498.34 -2.00821 -3.3257 0
M  V30 5196 H 500.012 -4.19966 -1.90856 0
M  V30 5197 H 498.255 -3.97751 -1.73137 0
M  V30 5198 H 498.926 -4.42244 -3.30339 0
M  V30 5199 H 501.402 -2.49574 -3.32945 0
M  V30 5200 H 500.278 -2.9261 -4.64403 0
M  V30 5201 H 500.539 -1.23554 -4.24484 0
M  V30 5202 N 499.598 0.982988 -1.23187 0
M  V30 5203 C 500.548 2.05962 -0.977942 0
M  V30 5204 C 501.532 1.60725 0.0751148 0
M  V30 5205 O 502.724 1.76471 -0.136683 0
M  V30 5206 C 499.853 3.38564 -0.568276 0
M  V30 5207 C 498.939 3.90407 -1.6566 0
M  V30 5208 N 499.33 4.15359 -2.88635 0
M  V30 5209 C 497.628 4.18915 -1.53058 0
M  V30 5210 C 498.329 4.57642 -3.5908 0
M  V30 5211 N 497.305 4.6192 -2.86584 0
M  V30 5212 H 501.107 2.23208 -1.91195 0
M  V30 5213 H 498.621 1.16555 -1.13087 0
M  V30 5214 H 500.618 4.15276 -0.36764 0
M  V30 5215 H 499.278 3.22712 0.358713 0
M  V30 5216 H 500.289 4.03258 -3.24966 0
M  V30 5217 H 496.966 4.12081 -0.670506 0
M  V30 5218 H 498.356 4.85488 -4.6449 0
M  V30 5219 N 501.076 1.04316 1.18135 0
M  V30 5220 C 502.487 0.775505 1.69832 0
M  V30 5221 C 502.838 -0.703348 1.8316 0
M  V30 5222 O 501.963 -1.54729 1.51287 0
M  V30 5223 C 502.558 1.40112 3.0847 0
M  V30 5224 C 501.117 1.18172 3.57368 0
M  V30 5225 C 500.264 1.49022 2.33854 0
M  V30 5226 H 503.215 1.20925 1.02775 0
M  V30 5227 H 503.236 0.805672 3.71873 0
M  V30 5228 H 502.748 2.47744 2.98738 0
M  V30 5229 H 500.849 0.124258 3.72393 0
M  V30 5230 H 500.962 1.8805 4.40652 0
M  V30 5231 H 499.326 0.909995 2.37889 0
M  V30 5232 H 500.109 2.57768 2.26738 0
M  V30 5233 N 502.554 -1.34406 0.822964 0
M  V30 5234 C 503.484 -2.32052 0.259608 0
M  V30 5235 C 504.465 -1.58243 -0.623961 0
M  V30 5236 O 505.65 -1.86224 -0.55083 0
M  V30 5237 C 502.78 -3.42434 -0.579314 0
M  V30 5238 C 501.734 -4.27499 0.20712 0
M  V30 5239 C 501.06 -5.29349 -0.754547 0
M  V30 5240 C 502.36 -5.02758 1.41533 0
M  V30 5241 H 504.054 -2.79418 1.07545 0
M  V30 5242 H 501.6 -1.34338 0.518593 0
M  V30 5243 H 503.553 -4.0976 -0.983612 0
M  V30 5244 H 502.277 -2.93717 -1.4282 0
M  V30 5245 H 500.936 -3.61776 0.592787 0
M  V30 5246 H 500.584 -4.76895 -1.59939 0
M  V30 5247 H 500.284 -5.8714 -0.232561 0
M  V30 5248 H 501.808 -5.99544 -1.1567 0
M  V30 5249 H 503.222 -5.62938 1.08504 0
M  V30 5250 H 501.619 -5.70123 1.87296 0
M  V30 5251 H 502.689 -4.32451 2.1935 0
M  V30 5252 N 504.032 -0.577932 -1.46621 0
M  V30 5253 C 505.26 -0.0671642 -2.06791 0
M  V30 5254 C 505.675 1.23571 -1.42743 0
M  V30 5255 O 505.032 1.74602 -0.531062 0
M  V30 5256 C 505.083 0.110357 -3.61332 0
M  V30 5257 O 504.804 -1.14095 -4.22982 0
M  V30 5258 C 506.305 0.656025 -4.38419 0
M  V30 5259 H 503.525 -0.0552732 -0.66872 0
M  V30 5260 H 506.069 -0.797242 -1.8832 0
M  V30 5261 H 504.224 0.790637 -3.79246 0
M  V30 5262 H 504.638 -0.951742 -5.15793 0
M  V30 5263 H 506.112 0.729438 -5.47159 0
M  V30 5264 H 506.589 1.67195 -4.06131 0
M  V30 5265 H 507.195 0.0107692 -4.25299 0
M  V30 5266 N 505.51 1.54411 -0.315457 0
M  V30 5267 C 506.473 2.22713 0.54142 0
M  V30 5268 C 507.473 1.2179 1.04995 0
M  V30 5269 O 508.663 1.46426 0.943667 0
M  V30 5270 C 505.795 2.92485 1.75116 0
M  V30 5271 H 506.988 2.99849 -0.0555508 0
M  V30 5272 H 504.541 1.56159 -0.0664453 0
M  V30 5273 H 505.276 2.19466 2.38758 0
M  V30 5274 H 505.061 3.66483 1.39401 0
M  V30 5275 H 506.551 3.44548 2.35959 0
M  V30 5276 N 506.988 0.0434614 1.5754 0
M  V30 5277 C 508.235 -0.632035 1.92384 0
M  V30 5278 C 508.563 -1.71304 0.921157 0
M  V30 5279 O 507.818 -1.95583 -0.067744 0
M  V30 5280 C 508.117 -1.2738 3.3393 0
M  V30 5281 C 507.783 -0.321757 4.49751 0
M  V30 5282 C 506.445 -0.0597611 4.81163 0
M  V30 5283 C 508.797 0.331158 5.20147 0
M  V30 5284 C 506.125 0.862715 5.80322 0
M  V30 5285 C 508.477 1.24178 6.20292 0
M  V30 5286 C 507.141 1.51252 6.50138 0
M  V30 5287 H 506.411 -0.231278 0.703983 0
M  V30 5288 H 509.058 0.108294 1.91194 0
M  V30 5289 H 507.363 -2.08921 3.3145 0
M  V30 5290 H 509.06 -1.80326 3.58167 0
M  V30 5291 H 505.65 -0.53614 4.25233 0
M  V30 5292 H 509.834 0.141826 4.96097 0
M  V30 5293 H 505.09 1.08003 6.01785 0
M  V30 5294 H 509.264 1.75381 6.73954 0
M  V30 5295 H 506.891 2.22897 7.26788 0
M  V30 5296 N 508.466 -1.55915 -0.229846 0
M  V30 5297 C 509.429 -1.90914 -1.26824 0
M  V30 5298 C 510.429 -0.786999 -1.40225 0
M  V30 5299 O 511.619 -1.05484 -1.38632 0
M  V30 5300 C 508.751 -2.15264 -2.64337 0
M  V30 5301 H 509.944 -2.8378 -0.969998 0
M  V30 5302 H 507.497 -1.49069 -0.4699 0
M  V30 5303 H 508.232 -1.24923 -2.99274 0
M  V30 5304 H 508.017 -2.97005 -2.55989 0
M  V30 5305 H 509.507 -2.43467 -3.39284 0
M  V30 5306 N 509.944 0.496216 -1.49584 0
M  V30 5307 C 511.174 1.27209 -1.62793 0
M  V30 5308 C 511.582 1.86799 -0.300476 0
M  V30 5309 O 510.925 1.68802 0.724674 0
M  V30 5310 C 510.987 2.43812 -2.64189 0
M  V30 5311 C 510.651 2.05055 -4.08414 0
M  V30 5312 C 511.648 1.58752 -4.9507 0
M  V30 5313 C 509.333 2.14543 -4.54177 0
M  V30 5314 C 511.327 1.22448 -6.25528 0
M  V30 5315 C 509.014 1.77851 -5.84647 0
M  V30 5316 C 510.012 1.31878 -6.70147 0
M  V30 5317 O 509.7 0.956834 -7.98185 0
M  V30 5318 H 509.432 0.391848 -0.550846 0
M  V30 5319 H 511.986 0.601712 -1.96389 0
M  V30 5320 H 510.216 3.13941 -2.25783 0
M  V30 5321 H 511.905 3.05829 -2.66877 0
M  V30 5322 H 512.671 1.50863 -4.60939 0
M  V30 5323 H 508.55 2.49277 -3.87791 0
M  V30 5324 H 512.094 0.864933 -6.92217 0
M  V30 5325 H 507.991 1.8539 -6.18305 0
M  V30 5326 H 508.759 1.08789 -8.11238 0
M  V30 5327 N 511.423 1.38739 0.74761 0
M  V30 5328 C 512.671 1.35007 1.50391 0
M  V30 5329 C 512.992 -0.0574274 1.94915 0
M  V30 5330 O 512.262 -1.00628 1.6808 0
M  V30 5331 H 510.842 0.496784 0.557866 0
M  V30 5332 H 513.504 1.73479 0.888319 0
M  V30 5333 H 512.6 2.00474 2.392 0
M  V30 5334 N 512.901 -0.976442 1.23707 0
M  V30 5335 C 514.126 -1.75875 1.09922 0
M  V30 5336 C 514.551 -1.84911 -0.34489 0
M  V30 5337 O 513.909 -1.31363 -1.24954 0
M  V30 5338 C 513.957 -3.16179 1.73388 0
M  V30 5339 O 513.061 -4.00124 0.99871 0
M  V30 5340 H 512.402 -0.540954 0.385052 0
M  V30 5341 H 514.932 -1.22546 1.6384 0
M  V30 5342 H 514.942 -3.66741 1.78788 0
M  V30 5343 H 513.617 -3.08917 2.78466 0
M  V30 5344 H 512.194 -3.58624 1.02193 0
M  V30 5345 N 514.379 -1.04941 -1.1758 0
M  V30 5346 C 515.604 -0.778253 -1.92245 0
M  V30 5347 C 516.029 0.659707 -1.76152 0
M  V30 5348 O 515.387 1.45803 -1.07755 0
M  V30 5349 C 515.435 -1.16051 -3.41416 0
M  V30 5350 O 514.539 -0.291153 -4.11371 0
M  V30 5351 H 513.88 -0.285619 -0.599431 0
M  V30 5352 H 516.41 -1.40159 -1.49052 0
M  V30 5353 H 516.42 -1.12619 -3.92149 0
M  V30 5354 H 515.095 -2.208 -3.52449 0
M  V30 5355 H 513.672 -0.385851 -3.70898 0
M  V30 5356 N 515.857 1.33968 -0.830081 0
M  V30 5357 C 517.097 1.99879 -0.427521 0
M  V30 5358 C 517.461 1.64355 0.992546 0
M  V30 5359 O 518.662 2.23164 1.49837 0
M  V30 5360 C 516.933 3.51771 -0.631815 0
M  V30 5361 S 518.492 4.37608 -0.323168 0
M  V30 5362 H 515.31 0.692485 -0.161202 0
M  V30 5363 H 517.912 1.63129 -1.07745 0
M  V30 5364 H 516.616 3.75113 -1.66488 0
M  V30 5365 H 516.147 3.93386 0.0325936 0
M  V30 5366 H 518.162 4.88683 0.860432 0
M  V30 5367 N 517.335 0.585699 1.46312 0
M  V30 5368 C 518.282 -0.145835 2.30339 0
M  V30 5369 C 519.252 -0.881215 1.40797 0
M  V30 5370 O 520.437 -0.871293 1.69744 0
M  V30 5371 C 517.577 -1.15161 3.25318 0
M  V30 5372 C 516.69 -0.419367 4.2996 0
M  V30 5373 C 515.825 -1.41293 5.12064 0
M  V30 5374 C 514.864 -0.667261 6.08452 0
M  V30 5375 N 514.001 -1.60903 6.83414 0
M  V30 5376 H 518.841 0.576755 2.92365 0
M  V30 5377 H 516.378 0.296237 1.44086 0
M  V30 5378 H 518.336 -1.74763 3.78832 0
M  V30 5379 H 516.966 -1.84188 2.65094 0
M  V30 5380 H 516.018 0.291751 3.7928 0
M  V30 5381 H 517.33 0.163433 4.98532 0
M  V30 5382 H 516.484 -2.08167 5.6987 0
M  V30 5383 H 515.223 -2.02966 4.43459 0
M  V30 5384 H 514.228 0.0152356 5.49798 0
M  V30 5385 H 515.453 -0.0558817 6.79077 0
M  V30 5386 H 513.399 -2.21381 6.17516 0
M  V30 5387 H 513.316 -1.07911 7.48259 0
M  V30 5388 H 514.584 -2.26802 7.45775 0
M  V30 5389 N 518.813 -1.54241 0.323641 0
M  V30 5390 C 520.06 -2.0057 -0.27891 0
M  V30 5391 C 520.388 -1.21181 -1.52136 0
M  V30 5392 O 519.643 -0.282043 -1.93657 0
M  V30 5393 C 519.942 -3.5129 -0.658031 0
M  V30 5394 C 519.608 -4.48281 0.485252 0
M  V30 5395 C 518.27 -4.74519 0.799055 0
M  V30 5396 C 520.622 -5.05909 1.25322 0
M  V30 5397 C 517.95 -5.55643 1.88354 0
M  V30 5398 C 520.302 -5.88215 2.32779 0
M  V30 5399 C 518.966 -6.12755 2.64741 0
M  V30 5400 H 518.236 -0.733938 -0.10206 0
M  V30 5401 H 520.883 -1.862 0.447435 0
M  V30 5402 H 519.188 -3.63388 -1.4648 0
M  V30 5403 H 520.885 -3.84578 -1.1358 0
M  V30 5404 H 517.475 -4.27979 0.230593 0
M  V30 5405 H 521.659 -4.8562 1.02404 0
M  V30 5406 H 516.915 -5.72888 2.13564 0
M  V30 5407 H 521.089 -6.31888 2.92729 0
M  V30 5408 H 518.716 -6.75404 3.48904 0
M  V30 5409 N 520.291 -0.0518155 -1.57515 0
M  V30 5410 C 521.201 0.937539 -2.15052 0
M  V30 5411 C 522.217 1.34121 -1.10849 0
M  V30 5412 O 523.393 1.418 -1.4302 0
M  V30 5413 C 520.458 2.19379 -2.68466 0
M  V30 5414 C 519.519 1.84841 -3.87469 0
M  V30 5415 C 518.752 3.04477 -4.38326 0
M  V30 5416 O 518.975 4.17868 -3.88256 0
M  V30 5417 O 517.909 2.85453 -5.29906 0
M  V30 5418 H 521.735 0.478201 -2.99912 0
M  V30 5419 H 519.32 0.17012 -1.48428 0
M  V30 5420 H 521.202 2.93084 -3.02787 0
M  V30 5421 H 519.877 2.64449 -1.86677 0
M  V30 5422 H 518.784 1.08449 -3.58036 0
M  V30 5423 H 520.117 1.44569 -4.7049 0
M  V30 5424 N 521.769 1.56035 0.221574 0
M  V30 5425 C 523.009 1.80822 0.953038 0
M  V30 5426 C 523.373 0.625316 1.81532 0
M  V30 5427 O 524.574 0.752491 2.58052 0
M  V30 5428 C 522.845 3.10503 1.76983 0
M  V30 5429 S 524.404 3.56604 2.55693 0
M  V30 5430 H 521.222 0.634849 0.320137 0
M  V30 5431 H 523.824 1.94274 0.218619 0
M  V30 5432 H 522.528 3.94636 1.12651 0
M  V30 5433 H 522.059 2.99858 2.54655 0
M  V30 5434 H 524.074 3.1994 3.79279 0
M  V30 5435 N 523.247 -0.488276 1.49845 0
M  V30 5436 C 524.179 -1.60539 1.63584 0
M  V30 5437 C 525.192 -1.5434 0.517972 0
M  V30 5438 O 526.381 -1.60041 0.790516 0
M  V30 5439 C 523.481 -2.99374 1.58835 0
M  V30 5440 C 522.654 -3.30624 2.86368 0
M  V30 5441 C 521.713 -4.4893 2.74496 0
M  V30 5442 O 520.739 -4.50085 3.48443 0
M  V30 5443 N 521.941 -5.49591 1.86894 0
M  V30 5444 H 524.706 -1.49176 2.59936 0
M  V30 5445 H 522.267 -0.67639 1.47094 0
M  V30 5446 H 524.259 -3.76459 1.48529 0
M  V30 5447 H 522.829 -3.04595 0.702892 0
M  V30 5448 H 522.049 -2.42314 3.1093 0
M  V30 5449 H 523.337 -3.48305 3.70892 0
M  V30 5450 H 522.735 -5.51467 1.26097 0
M  V30 5451 H 521.292 -6.25728 1.82503 0
M  V30 5452 N 524.725 -1.39134 -0.740242 0
M  V30 5453 C 526.136 -1.32208 -1.31825 0
M  V30 5454 C 526.487 0.0159919 -1.96193 0
M  V30 5455 O 525.612 0.918111 -1.95958 0
M  V30 5456 C 526.207 -2.39436 -2.39699 0
M  V30 5457 C 524.766 -2.36048 -2.93187 0
M  V30 5458 C 523.913 -2.21599 -1.66701 0
M  V30 5459 H 526.864 -1.49298 -0.538133 0
M  V30 5460 H 526.885 -2.05922 -3.19963 0
M  V30 5461 H 526.397 -3.36811 -1.92821 0
M  V30 5462 H 524.498 -1.42295 -3.44359 0
M  V30 5463 H 524.611 -3.30704 -3.46658 0
M  V30 5464 H 522.975 -1.68681 -1.90837 0
M  V30 5465 H 523.758 -3.20936 -1.21882 0
M  V30 5466 N 526.204 0.969867 -1.24223 0
M  V30 5467 C 527.452 1.70918 -1.0785 0
M  V30 5468 C 527.773 1.91186 0.383763 0
M  V30 5469 O 527.043 1.48806 1.27411 0
M  V30 5470 H 525.623 0.633334 -0.396103 0
M  V30 5471 H 528.285 1.16689 -1.56108 0
M  V30 5472 H 527.381 2.69455 -1.57482 0
M  V30 5473 N 527.682 1.05563 1.17022 0
M  V30 5474 C 528.912 0.787307 1.91011 0
M  V30 5475 C 529.32 -0.661256 1.77268 0
M  V30 5476 O 528.663 -1.46379 1.10991 0
M  V30 5477 C 528.725 1.09313 3.42478 0
M  V30 5478 C 528.389 2.53863 3.80004 0
M  V30 5479 C 529.386 3.52081 3.82538 0
M  V30 5480 C 527.071 2.88969 4.10855 0
M  V30 5481 C 529.065 4.83449 4.15399 0
M  V30 5482 C 526.752 4.2054 4.43384 0
M  V30 5483 C 527.75 5.17589 4.45635 0
M  V30 5484 O 527.438 6.46799 4.77395 0
M  V30 5485 H 527.17 0.285463 0.61277 0
M  V30 5486 H 529.724 1.41051 1.49311 0
M  V30 5487 H 527.954 0.412833 3.8449 0
M  V30 5488 H 529.643 0.810224 3.97731 0
M  V30 5489 H 530.409 3.26299 3.58823 0
M  V30 5490 H 526.288 2.1409 4.08272 0
M  V30 5491 H 529.832 5.59194 4.1707 0
M  V30 5492 H 525.729 4.46083 4.66563 0
M  V30 5493 H 526.497 6.51677 4.95237 0
M  V30 5494 N 529.16 -1.33526 0.837174 0
M  V30 5495 C 530.576 -1.50727 0.524743 0
M  V30 5496 C 530.776 -1.77792 -0.948279 0
M  V30 5497 O 529.832 -1.83719 -1.73216 0
M  V30 5498 C 531.145 -2.66299 1.39661 0
M  V30 5499 C 532.693 -2.80183 1.39521 0
M  V30 5500 C 533.168 -3.98815 2.25189 0
M  V30 5501 N 534.659 -4.06047 2.2289 0
M  V30 5502 C 535.394 -4.97032 2.85915 0
M  V30 5503 N 534.89 -5.93143 3.57985 0
M  V30 5504 N 536.683 -4.90015 2.75394 0
M  V30 5505 H 528.834 -1.1422 1.79074 0
M  V30 5506 H 531.097 -0.561399 0.763894 0
M  V30 5507 H 530.803 -2.52974 2.4433 0
M  V30 5508 H 530.677 -3.61663 1.07145 0
M  V30 5509 H 533.064 -2.92942 0.356253 0
M  V30 5510 H 533.145 -1.85586 1.76044 0
M  V30 5511 H 532.789 -3.86817 3.29143 0
M  V30 5512 H 532.719 -4.92654 1.86009 0
M  V30 5513 H 535.21 -3.37262 1.70478 0
M  V30 5514 H 535.523 -6.59227 4.03286 0
M  V30 5515 H 533.868 -5.93223 3.62093 0
M  V30 5516 H 537.059 -4.13894 2.18654 0
M  V30 5517 H 537.232 -5.60724 3.24796 0
M  V30 5518 N 530.638 -0.59345 -1.46 0
M  V30 5519 C 531.884 -0.0832754 -2.02629 0
M  V30 5520 C 532.217 1.27749 -1.46266 0
M  V30 5521 O 531.492 1.8395 -0.631866 0
M  V30 5522 C 531.775 -0.0290756 -3.60088 0
M  V30 5523 C 531.628 -1.41951 -4.26814 0
M  V30 5524 C 532.947 0.666055 -4.35031 0
M  V30 5525 H 530.066 -0.031736 -0.736316 0
M  V30 5526 H 532.708 -0.762711 -1.74019 0
M  V30 5527 H 530.858 0.549532 -3.84594 0
M  V30 5528 H 532.53 -2.04411 -4.13538 0
M  V30 5529 H 530.773 -1.98422 -3.8576 0
M  V30 5530 H 531.444 -1.33395 -5.3564 0
M  V30 5531 H 533.92 0.174401 -4.15734 0
M  V30 5532 H 532.796 0.673041 -5.44758 0
M  V30 5533 H 533.057 1.72946 -4.06869 0
M  V30 5534 N 532.116 1.54067 -0.331816 0
M  V30 5535 C 533.532 1.59587 0.0205388 0
M  V30 5536 C 533.732 1.34813 1.49759 0
M  V30 5537 O 532.788 1.13661 2.25471 0
M  V30 5538 C 534.101 2.97959 -0.405103 0
M  V30 5539 C 535.649 3.10964 -0.356454 0
M  V30 5540 C 536.124 4.51694 -0.757384 0
M  V30 5541 N 537.615 4.57709 -0.71111 0
M  V30 5542 C 538.35 5.64729 -0.993427 0
M  V30 5543 N 537.846 6.79652 -1.3433 0
M  V30 5544 N 539.639 5.54546 -0.918442 0
M  V30 5545 H 531.79 1.68426 -1.29407 0
M  V30 5546 H 534.053 0.78819 -0.526745 0
M  V30 5547 H 533.759 3.21115 -1.43451 0
M  V30 5548 H 533.633 3.76524 0.225692 0
M  V30 5549 H 536.02 2.87538 0.663763 0
M  V30 5550 H 536.101 2.34484 -1.02229 0
M  V30 5551 H 535.745 4.75853 -1.77555 0
M  V30 5552 H 535.675 5.26555 -0.0691444 0
M  V30 5553 H 538.166 3.75176 -0.452883 0
M  V30 5554 H 538.479 7.57221 -1.54388 0
M  V30 5555 H 536.824 6.81128 -1.38164 0
M  V30 5556 H 540.015 4.63641 -0.644536 0
M  V30 5557 H 540.188 6.37861 -1.14181 0
M  V30 5558 N 533.594 0.0601682 1.57485 0
M  V30 5559 C 534.842 -0.610386 1.92662 0
M  V30 5560 C 535.163 -1.70849 0.939981 0
M  V30 5561 O 534.433 -1.95895 -0.0137455 0
M  V30 5562 H 533.013 -0.228457 0.711208 0
M  V30 5563 H 535.675 0.115288 1.94559 0
M  V30 5564 H 534.771 -1.0432 2.94149 0
M  V30 5565 N 535.072 -1.5615 -0.213296 0
M  V30 5566 C 536.002 -1.96109 -1.26742 0
M  V30 5567 C 536.983 -0.830448 -1.48451 0
M  V30 5568 O 538.168 -1.09339 -1.60495 0
M  V30 5569 C 535.298 -2.28492 -2.61551 0
M  V30 5570 C 534.252 -3.44124 -2.54485 0
M  V30 5571 C 533.578 -3.62134 -3.93399 0
M  V30 5572 C 534.878 -4.78855 -2.08556 0
M  V30 5573 H 536.572 -2.84412 -0.935434 0
M  V30 5574 H 534.118 -1.36836 -0.44854 0
M  V30 5575 H 536.071 -2.55039 -3.3546 0
M  V30 5576 H 534.795 -1.37052 -2.96453 0
M  V30 5577 H 533.454 -3.17639 -1.83033 0
M  V30 5578 H 533.102 -2.68055 -4.25623 0
M  V30 5579 H 532.802 -4.39913 -3.89551 0
M  V30 5580 H 534.326 -3.91038 -4.68958 0
M  V30 5581 H 535.74 -5.04552 -2.72213 0
M  V30 5582 H 534.137 -5.59975 -2.1575 0
M  V30 5583 H 535.207 -4.73657 -1.03811 0
M  V30 5584 N 536.55 0.480323 -1.50102 0
M  V30 5585 C 537.827 1.24159 -1.51142 0
M  V30 5586 C 538.207 2.09605 -0.250818 0
M  V30 5587 O 537.555 2.15274 0.766118 0
M  V30 5588 C 537.765 2.08057 -2.80202 0
M  V30 5589 C 539.113 2.66556 -3.30504 0
M  V30 5590 O 540.137 2.18308 -2.81461 0
M  V30 5591 O 538.996 3.54442 -4.15973 0
M  V30 5592 H 536.09 0.562928 -0.605839 0
M  V30 5593 H 538.636 0.492899 -1.62384 0
M  V30 5594 H 537.408 1.45032 -3.6343 0
M  V30 5595 H 537.031 2.90079 -2.71919 0
M  V30 5596 N 538.028 1.39524 0.732853 0
M  V30 5597 C 538.961 1.32806 1.85574 0
M  V30 5598 C 539.939 0.201354 1.61348 0
M  V30 5599 O 541.123 0.38216 1.84585 0
M  V30 5600 C 538.25 1.06271 3.21596 0
M  V30 5601 C 537.296 2.21161 3.64678 0
M  V30 5602 S 538.129 3.83454 3.73796 0
M  V30 5603 C 539.285 3.59149 5.12604 0
M  V30 5604 H 539.518 2.27838 1.9099 0
M  V30 5605 H 537.051 1.25605 0.897927 0
M  V30 5606 H 539.009 0.916461 4.00139 0
M  V30 5607 H 537.67 0.129223 3.13834 0
M  V30 5608 H 536.863 1.98193 4.63396 0
M  V30 5609 H 536.465 2.32 2.93346 0
M  V30 5610 H 538.757 3.16547 5.99003 0
M  V30 5611 H 539.7 4.57335 5.40602 0
M  V30 5612 H 540.108 2.93203 4.82382 0
M  V30 5613 N 539.506 -0.963266 1.24736 0
M  V30 5614 C 540.436 -2.07628 1.06832 0
M  V30 5615 C 541.417 -1.70088 -0.0200566 0
M  V30 5616 O 542.602 -1.93636 0.147854 0
M  V30 5617 C 539.732 -3.40636 0.677069 0
M  V30 5618 C 538.686 -3.9215 1.71471 0
M  V30 5619 C 538.012 -5.21553 1.1784 0
M  V30 5620 C 539.312 -4.19493 3.11164 0
M  V30 5621 H 541.006 -2.22864 1.9993 0
M  V30 5622 H 538.552 -1.07093 0.96266 0
M  V30 5623 H 540.505 -4.17941 0.538792 0
M  V30 5624 H 539.229 -3.25313 -0.289612 0
M  V30 5625 H 537.888 -3.17005 1.84128 0
M  V30 5626 H 537.536 -5.02593 0.202195 0
M  V30 5627 H 537.236 -5.56988 1.87185 0
M  V30 5628 H 538.76 -6.01463 1.05233 0
M  V30 5629 H 540.174 -4.87487 3.01711 0
M  V30 5630 H 538.571 -4.66165 3.77902 0
M  V30 5631 H 539.641 -3.26097 3.58871 0
M  V30 5632 N 540.985 -1.06182 -1.16461 0
M  V30 5633 C 542.401 -0.785065 -1.38956 0
M  V30 5634 C 542.601 0.616103 -1.9185 0
M  V30 5635 O 541.657 1.37686 -2.11657 0
M  V30 5636 C 542.97 -1.84902 -2.37132 0
M  V30 5637 C 544.518 -1.8724 -2.50819 0
M  V30 5638 C 544.993 -2.92686 -3.52277 0
M  V30 5639 N 546.484 -2.91712 -3.59803 0
M  V30 5640 C 547.219 -3.69949 -4.38093 0
M  V30 5641 N 546.715 -4.58 -5.19815 0
M  V30 5642 N 548.508 -3.58346 -4.33064 0
M  V30 5643 H 540.659 -1.96569 -0.804634 0
M  V30 5644 H 542.922 -0.851747 -0.416211 0
M  V30 5645 H 542.628 -2.85518 -2.0536 0
M  V30 5646 H 542.502 -1.69908 -3.36766 0
M  V30 5647 H 544.889 -0.872827 -2.81897 0
M  V30 5648 H 544.97 -2.06311 -1.51226 0
M  V30 5649 H 544.614 -3.92835 -3.21937 0
M  V30 5650 H 544.544 -2.70864 -4.51598 0
M  V30 5651 H 547.035 -2.27876 -3.01464 0
M  V30 5652 H 547.348 -5.14357 -5.76764 0
M  V30 5653 H 545.693 -4.62056 -5.19162 0
M  V30 5654 H 548.884 -2.88943 -3.68279 0
M  V30 5655 H 549.057 -4.19563 -4.93833 0
M  V30 5656 N 542.463 1.3308 -0.844243 0
M  V30 5657 C 543.703 1.99414 -0.448697 0
M  V30 5658 C 544.067 1.65398 0.975058 0
M  V30 5659 O 545.268 2.24741 1.47461 0
M  V30 5660 C 543.539 3.51081 -0.669089 0
M  V30 5661 S 545.098 4.37241 -0.369564 0
M  V30 5662 H 541.916 0.690736 -0.168538 0
M  V30 5663 H 544.518 1.61977 -1.0947 0
M  V30 5664 H 543.222 3.73326 -1.70457 0
M  V30 5665 H 542.753 3.93399 -0.00913211 0
M  V30 5666 H 544.768 4.89568 0.808552 0
M  V30 5667 N 543.941 0.601185 1.45683 0
M  V30 5668 C 545.19 0.0914953 2.01492 0
M  V30 5669 C 545.503 -1.28331 1.47616 0
M  V30 5670 O 546.709 -1.88537 1.95362 0
M  V30 5671 C 545.165 0.11291 3.59723 0
M  V30 5672 C 544.773 1.48717 4.22596 0
M  V30 5673 C 546.517 -0.341871 4.23121 0
M  V30 5674 C 544.424 1.46531 5.7296 0
M  V30 5675 H 543.354 0.0304365 0.753385 0
M  V30 5676 H 546.005 0.755568 1.67223 0
M  V30 5677 H 544.387 -0.617692 3.91153 0
M  V30 5678 H 545.561 2.23897 4.02749 0
M  V30 5679 H 543.876 1.88351 3.71366 0
M  V30 5680 H 546.473 -0.377304 5.33367 0
M  V30 5681 H 546.816 -1.36325 3.93346 0
M  V30 5682 H 547.349 0.335256 3.96385 0
M  V30 5683 H 544.088 2.46408 6.07423 0
M  V30 5684 H 543.608 0.755997 5.95017 0
M  V30 5685 H 545.287 1.18618 6.36034 0
M  V30 5686 N 545.419 -1.53889 0.339982 0
M  V30 5687 C 546.696 -1.93084 -0.312719 0
M  V30 5688 C 547.076 -1.2712 -1.68534 0
M  V30 5689 O 546.424 -0.420835 -2.24591 0
M  V30 5690 C 546.634 -3.4683 -0.388558 0
M  V30 5691 C 547.982 -4.19732 -0.641088 0
M  V30 5692 O 549.006 -3.53075 -0.470818 0
M  V30 5693 O 547.865 -5.3781 -0.970685 0
M  V30 5694 H 544.959 -0.806784 -0.18174 0
M  V30 5695 H 547.505 -1.65137 0.390898 0
M  V30 5696 H 546.277 -3.87055 0.574821 0
M  V30 5697 H 545.9 -3.80933 -1.1391 0
M  V30 5698 N 546.897 -0.0685191 -1.57451 0
M  V30 5699 C 548.122 0.613919 -1.98106 0
M  V30 5700 C 548.547 1.62551 -0.946501 0
M  V30 5701 O 547.905 1.81085 0.0882824 0
M  V30 5702 C 547.953 1.26189 -3.378 0
M  V30 5703 O 547.057 2.37773 -3.36954 0
M  V30 5704 H 546.398 0.158163 -0.644888 0
M  V30 5705 H 548.928 -0.142063 -2.04106 0
M  V30 5706 H 548.938 1.60951 -3.74912 0
M  V30 5707 H 547.613 0.520625 -4.12629 0
M  V30 5708 H 546.19 2.04829 -3.11608 0
M  V30 5709 N 548.375 1.56261 0.205012 0
M  V30 5710 C 549.623 1.79684 0.925096 0
M  V30 5711 C 549.944 0.63989 1.84202 0
M  V30 5712 O 549.214 -0.342345 1.92885 0
M  V30 5713 H 547.794 0.662774 0.344587 0
M  V30 5714 H 550.456 1.93734 0.212899 0
M  V30 5715 H 549.552 2.72467 1.52211 0
M  V30 5716 N 549.853 -0.472356 1.50355 0
M  V30 5717 C 550.803 -1.56809 1.65514 0
M  V30 5718 C 551.787 -1.5261 0.509801 0
M  V30 5719 O 552.979 -1.59655 0.764145 0
M  V30 5720 C 550.108 -2.9526 1.75146 0
M  V30 5721 C 549.194 -3.04348 2.95353 0
M  V30 5722 N 549.585 -2.83253 4.19048 0
M  V30 5723 C 547.883 -3.35482 2.93884 0
M  V30 5724 C 548.584 -2.97273 5.00003 0
M  V30 5725 N 547.56 -3.27418 4.33934 0
M  V30 5726 H 551.362 -1.39197 2.58846 0
M  V30 5727 H 548.876 -0.67906 1.47521 0
M  V30 5728 H 550.873 -3.74044 1.8411 0
M  V30 5729 H 549.533 -3.1392 0.829717 0
M  V30 5730 H 550.544 -2.5886 4.48567 0
M  V30 5731 H 547.221 -3.60138 2.11204 0
M  V30 5732 H 548.611 -2.85214 6.08361 0
M  V30 5733 N 551.331 -1.39911 -0.725443 0
M  V30 5734 C 552.577 -1.38862 -1.48624 0
M  V30 5735 C 552.932 0.0125913 -1.92396 0
M  V30 5736 O 552.225 0.981046 -1.64578 0
M  V30 5737 C 552.419 -2.30368 -2.7325 0
M  V30 5738 C 552.248 -3.79247 -2.41665 0
M  V30 5739 C 551.018 -4.48119 -2.3349 0
M  V30 5740 C 553.216 -4.70988 -2.06579 0
M  V30 5741 N 551.198 -5.82282 -1.94476 0
M  V30 5742 C 552.569 -5.93873 -1.78087 0
M  V30 5743 C 554.624 -4.58917 -1.9313 0
M  V30 5744 C 553.327 -7.06036 -1.37499 0
M  V30 5745 C 555.353 -5.71012 -1.53946 0
M  V30 5746 C 554.715 -6.92976 -1.26345 0
M  V30 5747 H 550.814 -0.563394 -0.54232 0
M  V30 5748 H 553.398 -1.75542 -0.842213 0
M  V30 5749 H 551.569 -1.95831 -3.35417 0
M  V30 5750 H 553.301 -2.20245 -3.39521 0
M  V30 5751 H 550.056 -4.01677 -2.50904 0
M  V30 5752 H 550.48 -6.53307 -1.77535 0
M  V30 5753 H 555.122 -3.65149 -2.13134 0
M  V30 5754 H 552.84 -7.99697 -1.16237 0
M  V30 5755 H 556.426 -5.63664 -1.44132 0
M  V30 5756 H 555.306 -7.78243 -0.964787 0
M  V30 5757 N 552.809 0.956637 -1.25245 0
M  V30 5758 C 554.034 1.74104 -1.12706 0
M  V30 5759 C 554.459 1.85436 0.315429 0
M  V30 5760 O 553.817 1.33334 1.22848 0
M  V30 5761 C 553.865 3.1338 -1.78396 0
M  V30 5762 O 552.969 3.98485 -1.06224 0
M  V30 5763 H 552.31 0.53476 -0.393609 0
M  V30 5764 H 554.84 1.19924 -1.65769 0
M  V30 5765 H 554.85 3.6385 -1.846 0
M  V30 5766 H 553.525 3.04448 -2.83345 0
M  V30 5767 H 552.102 3.56952 -1.07886 0
M  V30 5768 N 554.287 1.06798 1.15896 0
M  V30 5769 C 555.25 0.687328 2.18651 0
M  V30 5770 C 556.25 -0.269559 1.58524 0
M  V30 5771 O 557.44 -0.0512627 1.74125 0
M  V30 5772 C 554.572 0.0121642 3.40898 0
M  V30 5773 H 555.765 1.59701 2.53842 0
M  V30 5774 H 553.318 0.863828 1.3026 0
M  V30 5775 H 554.053 -0.910025 3.1127 0
M  V30 5776 H 553.838 0.700309 3.85795 0
M  V30 5777 H 555.328 -0.239703 4.16911 0
M  V30 5778 N 555.766 -1.3263 0.851289 0
M  V30 5779 C 557.177 -1.79653 0.5081 0
M  V30 5780 C 557.528 -1.70327 -0.973815 0
M  V30 5781 O 556.653 -1.25986 -1.75944 0
M  V30 5782 C 557.248 -3.26196 0.915515 0
M  V30 5783 C 555.807 -3.71187 0.624277 0
M  V30 5784 C 554.954 -2.53804 1.11709 0
M  V30 5785 H 557.905 -1.19976 1.03882 0
M  V30 5786 H 557.926 -3.79801 0.230535 0
M  V30 5787 H 557.438 -3.32952 1.99411 0
M  V30 5788 H 555.539 -3.69948 -0.443737 0
M  V30 5789 H 555.652 -4.64132 1.18821 0
M  V30 5790 H 554.016 -2.48964 0.537484 0
M  V30 5791 H 554.799 -2.63315 2.20272 0
M  V30 5792 N 557.244 -0.608902 -1.45362 0
M  V30 5793 C 558.174 0.0964526 -2.33301 0
M  V30 5794 C 559.155 0.857444 -1.46908 0
M  V30 5795 O 560.34 0.827735 -1.75676 0
M  V30 5796 C 557.47 1.09354 -3.29635 0
M  V30 5797 C 556.424 0.445676 -4.25673 0
M  V30 5798 C 555.75 1.5511 -5.11708 0
M  V30 5799 C 557.05 -0.633972 -5.18438 0
M  V30 5800 H 558.744 -0.637829 -2.92527 0
M  V30 5801 H 556.29 -0.308178 -1.40664 0
M  V30 5802 H 558.243 1.59556 -3.90025 0
M  V30 5803 H 556.967 1.85843 -2.6857 0
M  V30 5804 H 555.626 -0.0354897 -3.66583 0
M  V30 5805 H 555.274 2.30631 -4.4701 0
M  V30 5806 H 554.974 1.12311 -5.76767 0
M  V30 5807 H 556.498 2.05537 -5.74967 0
M  V30 5808 H 557.912 -0.215974 -5.72893 0
M  V30 5809 H 556.309 -0.983789 -5.91981 0
M  V30 5810 H 557.379 -1.51005 -4.60788 0
M  V30 5811 N 558.722 1.53707 -0.348139 0
M  V30 5812 C 560.133 1.86213 0.134797 0
M  V30 5813 C 560.484 1.26925 1.49614 0
M  V30 5814 O 559.609 0.584573 2.08355 0
M  V30 5815 C 560.204 3.37866 0.251371 0
M  V30 5816 C 558.763 3.70233 0.678543 0
M  V30 5817 C 557.91 2.76683 -0.184925 0
M  V30 5818 H 560.861 1.48204 -0.567571 0
M  V30 5819 H 560.882 3.64908 1.07806 0
M  V30 5820 H 560.394 3.80988 -0.739581 0
M  V30 5821 H 558.495 3.32659 1.67835 0
M  V30 5822 H 558.608 4.76836 0.465251 0
M  V30 5823 H 556.972 2.52374 0.343465 0
M  V30 5824 H 557.755 3.22635 -1.1731 0
M  V30 5825 N 560.2 0.0768682 1.57412 0
M  V30 5826 C 561.428 -0.59997 1.9801 0
M  V30 5827 C 561.843 -1.62842 0.955408 0
M  V30 5828 O 561.2 -1.8241 -0.057314 0
M  V30 5829 C 561.251 -1.26401 3.38681 0
M  V30 5830 O 560.972 -0.276723 4.37225 0
M  V30 5831 C 562.473 -2.0282 3.94182 0
M  V30 5832 H 559.693 -0.162239 0.651091 0
M  V30 5833 H 562.237 0.150771 2.03943 0
M  V30 5834 H 560.392 -1.96581 3.33819 0
M  V30 5835 H 560.806 -0.753744 5.19056 0
M  V30 5836 H 562.28 -2.44667 4.94815 0
M  V30 5837 H 562.757 -2.88678 3.31001 0
M  V30 5838 H 563.363 -1.37496 4.02461 0
M  V30 5839 N 561.678 -1.56367 -0.196722 0
M  V30 5840 C 562.918 -1.82315 -0.92415 0
M  V30 5841 C 563.282 -0.654117 -1.80514 0
M  V30 5842 O 564.483 -0.79345 -2.56823 0
M  V30 5843 C 562.754 -3.13279 -1.72021 0
M  V30 5844 S 564.313 -3.60627 -2.49988 0
M  V30 5845 H 561.131 -0.639862 -0.309997 0
M  V30 5846 H 563.733 -1.94597 -0.187684 0
M  V30 5847 H 562.437 -3.96379 -1.06358 0
M  V30 5848 H 561.968 -3.03871 -2.49852 0
M  V30 5849 H 563.983 -3.25934 -3.74141 0
M  V30 5850 N 563.156 0.464375 -1.50603 0
M  V30 5851 C 564.066 1.58723 -1.72754 0
M  V30 5852 C 565.082 1.62925 -0.610844 0
M  V30 5853 O 566.258 1.8067 -0.889963 0
M  V30 5854 C 563.323 2.94897 -1.82309 0
M  V30 5855 C 562.384 3.0103 -3.06071 0
M  V30 5856 C 561.617 4.30708 -3.1516 0
M  V30 5857 O 561.84 5.2159 -2.30868 0
M  V30 5858 O 560.774 4.42571 -4.0794 0
M  V30 5859 H 564.6 1.42954 -2.67951 0
M  V30 5860 H 562.185 0.644579 -1.3478 0
M  V30 5861 H 564.067 3.75764 -1.90735 0
M  V30 5862 H 562.742 3.10851 -0.902967 0
M  V30 5863 H 561.649 2.19217 -3.03142 0
M  V30 5864 H 562.982 2.90014 -3.97684 0
M  V30 5865 N 564.634 1.40294 0.718013 0
M  V30 5866 C 565.597 1.4012 1.81381 0
M  V30 5867 C 566.597 0.295405 1.58063 0
M  V30 5868 O 567.787 0.554187 1.6515 0
M  V30 5869 C 564.919 1.19056 3.19435 0
M  V30 5870 H 566.112 2.37645 1.82933 0
M  V30 5871 H 563.665 1.26107 0.923405 0
M  V30 5872 H 564.4 0.222809 3.23534 0
M  V30 5873 H 564.185 1.99152 3.37758 0
M  V30 5874 H 565.675 1.21716 3.99468 0
M  V30 5875 N 566.112 -0.949982 1.2575 0
M  V30 5876 C 567.361 -1.68956 1.10168 0
M  V30 5877 C 567.674 -1.92327 -0.356309 0
M  V30 5878 O 568.88 -2.64026 -0.632657 0
M  V30 5879 C 567.336 -3.04196 1.92336 0
M  V30 5880 C 566.944 -2.88603 3.42655 0
M  V30 5881 C 568.688 -3.81904 1.85336 0
M  V30 5882 C 566.595 -4.19262 4.17101 0
M  V30 5883 H 565.525 -0.633645 0.408668 0
M  V30 5884 H 568.176 -1.05719 1.49986 0
M  V30 5885 H 566.558 -3.68363 1.45344 0
M  V30 5886 H 567.732 -2.3334 3.97353 0
M  V30 5887 H 566.047 -2.24345 3.50796 0
M  V30 5888 H 568.644 -4.78688 2.38248 0
M  V30 5889 H 568.987 -4.08099 0.822226 0
M  V30 5890 H 569.52 -3.24495 2.30104 0
M  V30 5891 H 566.259 -3.98254 5.20648 0
M  V30 5892 H 565.779 -4.74273 3.67186 0
M  V30 5893 H 567.458 -4.87775 4.25071 0
M  V30 5894 N 567.59 -1.07411 -1.15328 0
M  V30 5895 C 568.815 -0.818856 -1.90551 0
M  V30 5896 C 569.24 0.622194 -1.77512 0
M  V30 5897 O 568.598 1.43484 -1.10824 0
M  V30 5898 C 568.646 -1.23267 -3.38877 0
M  V30 5899 O 567.75 -0.378345 -4.10661 0
M  V30 5900 H 567.091 -0.29827 -0.593238 0
M  V30 5901 H 569.621 -1.43289 -1.46046 0
M  V30 5902 H 569.631 -1.20912 -3.89672 0
M  V30 5903 H 568.306 -2.28226 -3.47686 0
M  V30 5904 H 566.883 -0.464437 -3.69996 0
M  V30 5905 N 569.068 1.32177 -0.85831 0
M  V30 5906 C 570.308 1.98927 -0.469822 0
M  V30 5907 C 570.672 1.66423 0.95746 0
M  V30 5908 O 571.873 2.26293 1.45069 0
M  V30 5909 C 570.144 3.50352 -0.706288 0
M  V30 5910 S 571.703 4.36824 -0.415918 0
M  V30 5911 H 568.521 0.688909 -0.175855 0
M  V30 5912 H 571.123 1.60807 -1.11181 0
M  V30 5913 H 569.827 3.71497 -1.74407 0
M  V30 5914 H 569.358 3.93367 -0.0508568 0
M  V30 5915 H 571.373 4.90398 0.756581 0
M  V30 5916 N 570.547 0.616602 1.45037 0
M  V30 5917 C 571.457 -0.0985401 2.34393 0
M  V30 5918 C 572.473 -0.850971 1.51771 0
M  V30 5919 O 573.649 -0.806521 1.84546 0
M  V30 5920 C 570.714 -1.07748 3.29532 0
M  V30 5921 C 569.775 -0.326022 4.2806 0
M  V30 5922 C 569.008 -1.25833 5.18654 0
M  V30 5923 O 569.231 -2.49652 5.12864 0
M  V30 5924 O 568.165 -0.750512 5.97203 0
M  V30 5925 H 571.991 0.636016 2.96966 0
M  V30 5926 H 569.576 0.376832 1.44569 0
M  V30 5927 H 571.458 -1.64107 3.88133 0
M  V30 5928 H 570.133 -1.79291 2.69512 0
M  V30 5929 H 569.04 0.280253 3.73049 0
M  V30 5930 H 570.373 0.349091 4.9096 0
M  V30 5931 N 572.025 -1.5352 0.356285 0
M  V30 5932 C 573.436 -1.86282 -0.12492 0
M  V30 5933 C 573.787 -1.27717 -1.48939 0
M  V30 5934 O 572.912 -0.595614 -2.08042 0
M  V30 5935 C 573.507 -3.37995 -0.23345 0
M  V30 5936 C 572.066 -3.70588 -0.658899 0
M  V30 5937 C 571.213 -2.76581 0.199596 0
M  V30 5938 H 574.164 -1.47901 0.575423 0
M  V30 5939 H 574.185 -3.65475 -1.0587 0
M  V30 5940 H 573.697 -3.8059 0.759776 0
M  V30 5941 H 571.798 -3.33544 -1.66069 0
M  V30 5942 H 571.911 -4.77076 -0.439957 0
M  V30 5943 H 570.275 -2.52552 -0.330076 0
M  V30 5944 H 571.058 -3.22008 1.19019 0
M  V30 5945 N 573.503 -0.0852151 -1.57369 0
M  V30 5946 C 574.433 0.874556 -2.16503 0
M  V30 5947 C 575.414 1.30111 -1.09568 0
M  V30 5948 O 576.599 1.36977 -1.37662 0
M  V30 5949 C 573.729 2.13731 -2.73745 0
M  V30 5950 C 572.683 1.84971 -3.85966 0
M  V30 5951 C 572.009 3.17991 -4.29867 0
M  V30 5952 C 573.309 1.14442 -5.09608 0
M  V30 5953 H 575.003 0.381899 -2.96954 0
M  V30 5954 H 572.549 0.18225 -1.42842 0
M  V30 5955 H 574.502 2.81302 -3.13763 0
M  V30 5956 H 573.226 2.65263 -1.90534 0
M  V30 5957 H 571.885 1.19801 -3.46473 0
M  V30 5958 H 571.533 3.6739 -3.4356 0
M  V30 5959 H 571.233 2.99534 -5.05523 0
M  V30 5960 H 572.757 3.86737 -4.72511 0
M  V30 5961 H 574.171 1.72105 -5.46857 0
M  V30 5962 H 572.568 1.06197 -5.90629 0
M  V30 5963 H 573.638 0.12559 -4.84737 0
M  V30 5964 N 574.981 1.5647 0.188427 0
M  V30 5965 C 575.891 1.98285 1.2538 0
M  V30 5966 C 576.907 0.891535 1.49424 0
M  V30 5967 O 578.083 1.19782 1.61908 0
M  V30 5968 C 575.148 2.31965 2.57669 0
M  V30 5969 C 574.209 3.54838 2.41638 0
M  V30 5970 C 573.442 3.86901 3.67618 0
M  V30 5971 O 573.665 3.20163 4.72072 0
M  V30 5972 O 572.599 4.80309 3.62749 0
M  V30 5973 H 576.425 2.89145 0.928912 0
M  V30 5974 H 574.01 1.44112 0.393955 0
M  V30 5975 H 575.892 2.54673 3.35737 0
M  V30 5976 H 574.567 1.44271 2.89771 0
M  V30 5977 H 573.474 3.37369 1.61658 0
M  V30 5978 H 574.807 4.43019 2.14465 0
M  V30 5979 N 576.459 -0.456382 1.50847 0
M  V30 5980 C 577.684 -1.2349 1.66628 0
M  V30 5981 C 578.109 -1.84715 0.355254 0
M  V30 5982 O 577.467 -1.67961 -0.682559 0
M  V30 5983 C 577.515 -2.30865 2.77009 0
M  V30 5984 O 576.619 -3.35882 2.39285 0
M  V30 5985 H 575.96 -0.36266 0.556214 0
M  V30 5986 H 578.49 -0.541374 1.97308 0
M  V30 5987 H 578.5 -2.75949 3.00526 0
M  V30 5988 H 577.175 -1.85677 3.72152 0
M  V30 5989 H 575.752 -2.96406 2.26269 0
M  V30 5990 N 577.937 -1.40673 -0.710563 0
M  V30 5991 C 579.348 -1.34975 -1.28991 0
M  V30 5992 C 579.699 -0.0256272 -1.96183 0
M  V30 5993 O 578.824 0.876339 -1.97862 0
M  V30 5994 C 579.419 -2.44467 -2.34567 0
M  V30 5995 C 577.978 -2.42213 -2.88114 0
M  V30 5996 C 577.125 -2.25085 -1.61963 0
M  V30 5997 H 580.076 -1.50406 -0.506343 0
M  V30 5998 H 580.097 -2.12663 -3.15523 0
M  V30 5999 H 579.609 -3.40825 -1.85634 0
M  V30 6000 H 577.71 -1.49568 -3.41263 0
M  V30 6001 H 577.823 -3.37983 -3.39565 0
M  V30 6002 H 576.187 -1.72691 -1.87216 0
M  V30 6003 H 576.97 -3.23449 -1.15047 0
M  V30 6004 N 579.415 0.9433 -1.26252 0
M  V30 6005 C 580.661 1.69175 -1.11837 0
M  V30 6006 C 580.994 1.91238 0.337891 0
M  V30 6007 O 580.269 1.49152 1.24836 0
M  V30 6008 C 580.552 3.06783 -1.88563 0
M  V30 6009 C 580.405 2.9206 -3.42083 0
M  V30 6010 C 581.724 4.06865 -1.67776 0
M  V30 6011 H 578.843 0.61399 -0.407658 0
M  V30 6012 H 581.485 1.09572 -1.55222 0
M  V30 6013 H 579.635 3.57663 -1.51689 0
M  V30 6014 H 581.307 2.48419 -3.88698 0
M  V30 6015 H 579.55 2.27731 -3.69217 0
M  V30 6016 H 580.221 3.89651 -3.90994 0
M  V30 6017 H 582.697 3.64939 -1.99897 0
M  V30 6018 H 581.573 5.01168 -2.23879 0
M  V30 6019 H 581.834 4.37705 -0.621816 0
M  V30 6020 N 580.893 1.08022 1.14757 0
M  V30 6021 C 581.843 0.676345 2.17737 0
M  V30 6022 C 582.827 -0.302018 1.5804 0
M  V30 6023 O 584.019 -0.11466 1.76628 0
M  V30 6024 C 581.148 0.082984 3.432 0
M  V30 6025 C 580.234 1.0869 4.09936 0
M  V30 6026 N 580.625 2.26891 4.52055 0
M  V30 6027 C 578.923 0.921768 4.36371 0
M  V30 6028 C 579.624 2.90636 5.0389 0
M  V30 6029 N 578.6 2.18266 4.97856 0
M  V30 6030 H 582.402 1.5765 2.4804 0
M  V30 6031 H 579.916 0.954374 1.31398 0
M  V30 6032 H 581.913 -0.224289 4.16296 0
M  V30 6033 H 580.573 -0.812206 3.14378 0
M  V30 6034 H 581.584 2.6457 4.45223 0
M  V30 6035 H 578.261 0.0800499 4.17423 0
M  V30 6036 H 579.651 3.9104 5.46386 0
M  V30 6037 N 582.371 -1.3172 0.865308 0
M  V30 6038 C 583.619 -1.96487 0.472995 0
M  V30 6039 C 583.94 -1.68761 -0.976975 0
M  V30 6040 O 583.21 -1.00051 -1.68424 0
M  V30 6041 H 581.79 -0.726947 0.171922 0
M  V30 6042 H 584.452 -1.60612 1.10407 0
M  V30 6043 H 583.548 -3.0574 0.62687 0
M  V30 6044 N 583.85 -0.624285 -1.44708 0
M  V30 6045 C 585.075 -0.131171 -2.06985 0
M  V30 6046 C 585.5 1.18234 -1.46295 0
M  V30 6047 O 584.858 1.72375 -0.561842 0
M  V30 6048 C 584.906 -0.0226724 -3.60593 0
M  V30 6049 O 584.01 1.02314 -3.99507 0
M  V30 6050 H 583.351 -0.0816556 -0.65896 0
M  V30 6051 H 585.88 -0.859027 -1.85693 0
M  V30 6052 H 585.891 0.170138 -4.07645 0
M  V30 6053 H 584.566 -0.981685 -4.04148 0
M  V30 6054 H 583.143 0.805452 -3.64097 0
M  V30 6055 N 585.328 1.53329 -0.364422 0
M  V30 6056 C 586.261 2.22052 0.526145 0
M  V30 6057 C 587.239 1.21203 1.08391 0
M  V30 6058 O 588.423 1.50101 1.14026 0
M  V30 6059 C 585.55 2.91432 1.72583 0
M  V30 6060 C 584.596 4.06345 1.29562 0
M  V30 6061 S 585.429 5.34671 0.297885 0
M  V30 6062 C 586.585 6.07563 1.50392 0
M  V30 6063 H 586.818 2.97244 -0.0575055 0
M  V30 6064 H 584.351 1.53684 -0.148525 0
M  V30 6065 H 586.309 3.3202 2.41398 0
M  V30 6066 H 584.97 2.15966 2.28073 0
M  V30 6067 H 584.163 4.53901 2.19067 0
M  V30 6068 H 583.765 3.67642 0.686696 0
M  V30 6069 H 586.057 6.32224 2.43513 0
M  V30 6070 H 587 6.99973 1.06977 0
M  V30 6071 H 587.408 5.37994 1.70945 0
M  V30 6072 N 586.806 0.0935595 1.57322 0
M  V30 6073 C 588.083 -0.612692 1.85756 0
M  V30 6074 C 588.463 -1.86439 0.99013 0
M  V30 6075 O 587.811 -2.28416 0.0621362 0
M  V30 6076 C 588.021 -0.929547 3.36393 0
M  V30 6077 C 589.369 -1.29366 4.04413 0
M  V30 6078 O 590.393 -1.02061 3.41265 0
M  V30 6079 O 589.252 -1.80498 5.15832 0
M  V30 6080 H 586.346 -0.306444 0.768128 0
M  V30 6081 H 588.892 0.126141 1.69231 0
M  V30 6082 H 587.664 -0.0414766 3.91278 0
M  V30 6083 H 587.287 -1.72441 3.5826 0
M  V30 6084 N 588.284 -1.56567 -0.180126 0
M  V30 6085 C 589.524 -1.83285 -0.904761 0
M  V30 6086 C 589.888 -0.673226 -1.7981 0
M  V30 6087 O 591.089 -0.820645 -2.55967 0
M  V30 6088 C 589.36 -3.15086 -1.68688 0
M  V30 6089 S 590.919 -3.63258 -2.46149 0
M  V30 6090 H 587.737 -0.643114 -0.303193 0
M  V30 6091 H 590.339 -1.94785 -0.167034 0
M  V30 6092 H 589.043 -3.97484 -1.02148 0
M  V30 6093 H 588.574 -3.06504 -2.46615 0
M  V30 6094 H 590.589 -3.29884 -3.70663 0
M  V30 6095 N 589.762 0.448376 -1.51087 0
M  V30 6096 C 590.987 1.22605 -1.6728 0
M  V30 6097 C 591.412 1.84524 -0.365045 0
M  V30 6098 O 590.77 1.6832 0.673642 0
M  V30 6099 C 590.818 2.29393 -2.78229 0
M  V30 6100 O 589.922 3.34608 -2.41063 0
M  V30 6101 H 589.263 0.359705 -0.558129 0
M  V30 6102 H 591.793 0.530903 -1.97592 0
M  V30 6103 H 591.803 2.74352 -3.01986 0
M  V30 6104 H 590.478 1.83701 -3.73131 0
M  V30 6105 H 589.055 2.95202 -2.27838 0
M  V30 6106 N 591.24 1.41047 0.703093 0
M  V30 6107 C 592.651 1.35657 1.28274 0
M  V30 6108 C 593.002 0.0360309 1.96167 0
M  V30 6109 O 592.127 -0.865833 1.98324 0
M  V30 6110 C 592.722 2.45707 2.33267 0
M  V30 6111 C 591.281 2.43738 2.86825 0
M  V30 6112 C 590.428 2.25941 1.60767 0
M  V30 6113 H 593.379 1.50672 0.49836 0
M  V30 6114 H 593.4 2.14333 3.14391 0
M  V30 6115 H 592.912 3.41805 1.83824 0
M  V30 6116 H 591.013 1.51375 3.40465 0
M  V30 6117 H 591.126 3.39779 3.37768 0
M  V30 6118 H 589.49 1.73681 1.86298 0
M  V30 6119 H 590.273 3.24054 1.1333 0
M  V30 6120 N 592.718 -0.936591 1.26751 0
M  V30 6121 C 593.943 -1.72288 1.15462 0
M  V30 6122 C 594.368 -1.85915 -0.285887 0
M  V30 6123 O 593.726 -1.35272 -1.20711 0
M  V30 6124 C 593.774 -3.10503 1.83359 0
M  V30 6125 O 592.878 -3.96745 1.1255 0
M  V30 6126 H 592.219 -0.52843 0.402067 0
M  V30 6127 H 594.749 -1.17271 1.67656 0
M  V30 6128 H 594.759 -3.60867 1.90365 0
M  V30 6129 H 593.434 -2.99901 2.88153 0
M  V30 6130 H 592.011 -3.55191 1.13551 0
M  V30 6131 N 594.196 -1.08629 -1.14182 0
M  V30 6132 C 595.126 -0.740003 -2.21464 0
M  V30 6133 C 596.107 0.278591 -1.67803 0
M  V30 6134 O 597.292 0.148461 -1.93632 0
M  V30 6135 C 594.422 -0.150952 -3.46972 0
M  V30 6136 C 593.376 -1.09815 -4.13672 0
M  V30 6137 C 592.702 -0.3712 -5.3341 0
M  V30 6138 C 594.002 -2.43722 -4.61949 0
M  V30 6139 H 595.696 -1.63697 -2.50686 0
M  V30 6140 H 593.242 -0.788526 -1.20492 0
M  V30 6141 H 595.195 0.103325 -4.21273 0
M  V30 6142 H 593.919 0.781164 -3.1712 0
M  V30 6143 H 592.578 -1.33756 -3.41328 0
M  V30 6144 H 592.226 0.564792 -4.99819 0
M  V30 6145 H 591.926 -1.00267 -5.78982 0
M  V30 6146 H 593.45 -0.12503 -6.10472 0
M  V30 6147 H 594.864 -2.24034 -5.27714 0
M  V30 6148 H 593.261 -3.02582 -5.18232 0
M  V30 6149 H 594.331 -3.05082 -3.76899 0
M  V30 6150 N 595.674 1.31259 -0.872281 0
M  V30 6151 C 597.09 1.49283 -0.564521 0
M  V30 6152 C 597.29 1.80243 0.900807 0
M  V30 6153 O 596.346 1.88246 1.68284 0
M  V30 6154 C 597.659 2.62503 -1.46673 0
M  V30 6155 C 599.207 2.76386 -1.46901 0
M  V30 6156 C 599.682 3.92705 -2.35684 0
M  V30 6157 N 601.173 3.99995 -2.33577 0
M  V30 6158 C 601.908 4.89276 -2.98992 0
M  V30 6159 N 601.404 5.83443 -3.73585 0
M  V30 6160 N 603.197 4.82541 -2.88289 0
M  V30 6161 H 595.348 1.09432 -1.82039 0
M  V30 6162 H 597.611 0.540949 -0.77851 0
M  V30 6163 H 597.317 2.46407 -2.50951 0
M  V30 6164 H 597.191 3.58695 -1.16696 0
M  V30 6165 H 599.578 2.91894 -0.433796 0
M  V30 6166 H 599.659 1.80853 -1.80903 0
M  V30 6167 H 599.303 3.77954 -3.39283 0
M  V30 6168 H 599.233 4.87549 -1.99006 0
M  V30 6169 H 601.724 3.32624 -1.7936 0
M  V30 6170 H 602.037 6.48303 -4.20622 0
M  V30 6171 H 600.382 5.83415 -3.77694 0
M  V30 6172 H 603.573 4.07951 -2.2955 0
M  V30 6173 H 603.746 5.51916 -3.39549 0
M  V30 6174 N 597.152 0.631951 1.44375 0
M  V30 6175 C 598.115 -0.0628142 2.29114 0
M  V30 6176 C 599.115 -0.771494 1.41084 0
M  V30 6177 O 600.305 -0.615959 1.62947 0
M  V30 6178 C 597.437 -1.09953 3.22681 0
M  V30 6179 H 598.63 0.682509 2.92031 0
M  V30 6180 H 596.183 0.392128 1.51301 0
M  V30 6181 H 596.918 -1.87481 2.64616 0
M  V30 6182 H 596.703 -0.595286 3.87555 0
M  V30 6183 H 598.193 -1.58538 3.86336 0
M  V30 6184 N 598.631 -1.53133 0.372548 0
M  V30 6185 C 599.878 -2.01356 -0.214959 0
M  V30 6186 C 600.206 -1.2596 -1.48204 0
M  V30 6187 O 599.461 -0.343511 -1.92662 0
M  V30 6188 C 599.76 -3.53206 -0.545938 0
M  V30 6189 C 599.426 -4.46511 0.627624 0
M  V30 6190 C 598.088 -4.71737 0.949615 0
M  V30 6191 C 600.44 -5.01666 1.41353 0
M  V30 6192 C 597.768 -5.4937 2.05936 0
M  V30 6193 C 600.12 -5.80511 2.51375 0
M  V30 6194 C 598.784 -6.04022 2.84101 0
M  V30 6195 H 598.054 -0.736813 -0.078659 0
M  V30 6196 H 600.701 -1.84682 0.506447 0
M  V30 6197 H 599.006 -3.67864 -1.34845 0
M  V30 6198 H 600.703 -3.87997 -1.01287 0
M  V30 6199 H 597.293 -4.27029 0.366635 0
M  V30 6200 H 601.477 -4.82117 1.17802 0
M  V30 6201 H 596.733 -5.65803 2.31682 0
M  V30 6202 H 600.907 -6.22255 3.12684 0
M  V30 6203 H 598.534 -6.63962 3.70214 0
M  V30 6204 N 600.109 -0.101901 -1.5727 0
M  V30 6205 C 601.041 0.884723 -2.11436 0
M  V30 6206 C 602.054 1.24149 -1.05314 0
M  V30 6207 O 603.243 1.19341 -1.3274 0
M  V30 6208 C 600.343 2.19179 -2.58484 0
M  V30 6209 C 599.516 2.00933 -3.88516 0
M  V30 6210 C 598.575 3.15213 -4.2134 0
M  V30 6211 O 597.601 2.88877 -4.90448 0
M  V30 6212 N 598.803 4.41174 -3.77288 0
M  V30 6213 H 601.568 0.422058 -2.96713 0
M  V30 6214 H 599.129 0.0830128 -1.61687 0
M  V30 6215 H 601.121 2.94593 -2.77484 0
M  V30 6216 H 599.691 2.56847 -1.7818 0
M  V30 6217 H 598.911 1.09809 -3.78597 0
M  V30 6218 H 600.199 1.86026 -4.73573 0
M  V30 6219 H 599.597 4.6545 -3.21516 0
M  V30 6220 H 598.154 5.13515 -4.01429 0
M  V30 6221 N 601.587 1.56661 0.17182 0
M  V30 6222 C 602.817 1.85831 0.902804 0
M  V30 6223 C 603.225 0.685157 1.76358 0
M  V30 6224 O 602.568 -0.354947 1.80238 0
M  V30 6225 C 602.63 3.09406 1.83053 0
M  V30 6226 C 602.294 4.4231 1.1494 0
M  V30 6227 C 603.291 5.17342 0.515104 0
M  V30 6228 C 600.976 4.89045 1.14631 0
M  V30 6229 C 602.97 6.37299 -0.113194 0
M  V30 6230 C 600.657 6.08933 0.514184 0
M  V30 6231 C 601.655 6.82904 -0.114463 0
M  V30 6232 O 601.343 8.00518 -0.736622 0
M  V30 6233 H 601.075 0.620715 0.267748 0
M  V30 6234 H 603.629 2.04637 0.176918 0
M  V30 6235 H 601.859 2.86544 2.59672 0
M  V30 6236 H 603.548 3.25027 2.4313 0
M  V30 6237 H 604.314 4.82317 0.509474 0
M  V30 6238 H 600.193 4.31409 1.62502 0
M  V30 6239 H 603.737 6.94976 -0.604477 0
M  V30 6240 H 599.634 6.43423 0.517395 0
M  V30 6241 H 600.402 8.16027 -0.635822 0
M  V30 6242 N 603.065 -0.440357 1.51323 0
M  V30 6243 C 604.342 -1.20109 1.5438 0
M  V30 6244 C 604.722 -2.08866 0.306303 0
M  V30 6245 O 604.07 -2.1723 -0.708773 0
M  V30 6246 C 604.28 -2.00555 2.8562 0
M  V30 6247 C 605.628 -2.577 3.37455 0
M  V30 6248 O 606.652 -2.10769 2.8715 0
M  V30 6249 O 605.511 -3.43289 4.25224 0
M  V30 6250 H 602.605 -0.546668 0.620551 0
M  V30 6251 H 605.151 -0.449672 1.63634 0
M  V30 6252 H 603.923 -1.35346 3.67147 0
M  V30 6253 H 603.546 -2.82768 2.79514 0
M  V30 6254 N 604.543 -1.41418 -0.695603 0
M  V30 6255 C 605.771 -1.4413 -1.48439 0
M  V30 6256 C 606.186 -0.0465698 -1.88743 0
M  V30 6257 O 605.543 0.934117 -1.56782 0
M  V30 6258 C 605.594 -2.34998 -2.74696 0
M  V30 6259 O 605.315 -3.69043 -2.36091 0
M  V30 6260 C 606.816 -2.46513 -3.68438 0
M  V30 6261 H 604.036 -0.490905 -0.457442 0
M  V30 6262 H 606.58 -1.85702 -0.856454 0
M  V30 6263 H 604.735 -1.96735 -3.33728 0
M  V30 6264 H 605.149 -4.17505 -3.17474 0
M  V30 6265 H 606.623 -3.1426 -4.53811 0
M  V30 6266 H 607.1 -1.49638 -4.12922 0
M  V30 6267 H 607.706 -2.85412 -3.1531 0
M  V30 6268 N 606.021 0.929856 -1.27246 0
M  V30 6269 C 606.969 2.05151 -1.09616 0
M  V30 6270 C 607.963 1.69388 -0.0198617 0
M  V30 6271 O 609.169 1.79124 -0.177417 0
M  V30 6272 H 605.544 0.671909 -0.337701 0
M  V30 6273 H 607.515 2.17168 -2.04648 0
M  V30 6274 C 606.264 3.3934 -0.757851 0
M  V30 6275 H 605.587 3.67343 -1.57795 0
M  V30 6276 H 607.027 4.18603 -0.674358 0
M  V30 6277 C 605.486 3.32582 0.537658 0
M  V30 6278 O 606.016 3.69633 1.57271 0
M  V30 6279 N 604.222 2.8568 0.532478 0
M  V30 6280 H 603.769 2.55725 -0.310233 0
M  V30 6281 H 603.727 2.81541 1.39936 0
M  V30 6282 N 607.499 1.09233 1.13605 0
M  V30 6283 C 608.739 0.836786 1.86487 0
M  V30 6284 C 609.103 -0.626191 1.81502 0
M  V30 6285 O 610.304 -0.99758 2.49603 0
M  V30 6286 C 608.575 1.35476 3.30728 0
M  V30 6287 S 610.134 1.2328 4.21126 0
M  V30 6288 H 606.952 0.302702 0.643345 0
M  V30 6289 H 609.554 1.3953 1.36936 0
M  V30 6290 H 608.258 2.41381 3.31909 0
M  V30 6291 H 607.789 0.792286 3.85339 0
M  V30 6292 H 609.804 0.182468 4.95864 0
M  V30 6293 N 608.977 -1.30795 0.87923 0
M  V30 6294 C 610.202 -2.01063 0.508769 0
M  V30 6295 C 610.627 -1.65508 -0.893803 0
M  V30 6296 O 609.985 -0.868616 -1.59138 0
M  V30 6297 C 610.033 -3.54054 0.683991 0
M  V30 6298 O 609.137 -4.11498 -0.272654 0
M  V30 6299 H 608.478 -0.632786 0.201191 0
M  V30 6300 H 611.008 -1.66776 1.18519 0
M  V30 6301 H 611.018 -4.03845 0.580798 0
M  V30 6302 H 609.693 -3.79271 1.70665 0
M  V30 6303 H 608.27 -3.72695 -0.12364 0
M  V30 6304 N 610.455 -0.639598 -1.44038 0
M  V30 6305 C 611.702 -0.14748 -2.01962 0
M  V30 6306 C 612.03 1.23372 -1.50365 0
M  V30 6307 O 611.285 1.8345 -0.681501 0
M  V30 6308 C 611.584 -0.0925348 -3.5728 0
M  V30 6309 C 611.25 -1.41365 -4.28167 0
M  V30 6310 C 609.912 -1.77545 -4.47248 0
M  V30 6311 C 612.264 -2.2853 -4.68427 0
M  V30 6312 C 609.592 -3.00583 -5.03852 0
M  V30 6313 C 611.944 -3.50846 -5.26393 0
M  V30 6314 C 610.608 -3.8724 -5.43692 0
M  V30 6315 H 609.878 -0.0539666 -0.739032 0
M  V30 6316 H 612.525 -0.827599 -1.72694 0
M  V30 6317 H 610.83 0.670987 -3.86012 0
M  V30 6318 H 612.527 0.304891 -3.99839 0
M  V30 6319 H 609.117 -1.1221 -4.13651 0
M  V30 6320 H 613.301 -2.0187 -4.5339 0
M  V30 6321 H 608.557 -3.28846 -5.15432 0
M  V30 6322 H 612.731 -4.18616 -5.56537 0
M  V30 6323 H 610.358 -4.8266 -5.87319 0
M  V30 6324 N 611.933 1.52934 -0.380664 0
M  V30 6325 C 613.349 1.59571 -0.0302429 0
M  V30 6326 C 613.549 1.39509 1.45394 0
M  V30 6327 O 612.605 1.20777 2.21741 0
M  V30 6328 C 613.918 2.96519 -0.499691 0
M  V30 6329 C 615.466 3.09672 -0.455204 0
M  V30 6330 C 615.941 4.49056 -0.900703 0
M  V30 6331 N 617.432 4.55215 -0.856367 0
M  V30 6332 C 618.167 5.61282 -1.17259 0
M  V30 6333 N 617.663 6.75035 -1.55885 0
M  V30 6334 N 619.456 5.51343 -1.0944 0
M  V30 6335 H 611.607 1.64224 -1.347 0
M  V30 6336 H 613.87 0.771033 -0.551554 0
M  V30 6337 H 613.576 3.16388 -1.53595 0
M  V30 6338 H 613.45 3.77052 0.105789 0
M  V30 6339 H 615.837 2.89504 0.571949 0
M  V30 6340 H 615.918 2.31113 -1.09638 0
M  V30 6341 H 615.562 4.69964 -1.92604 0
M  V30 6342 H 615.492 5.26068 -0.236629 0
M  V30 6343 H 617.983 3.73546 -0.572013 0
M  V30 6344 H 618.296 7.51926 -1.784 0
M  V30 6345 H 616.641 6.76388 -1.59764 0
M  V30 6346 H 619.832 4.61356 -0.791713 0
M  V30 6347 H 620.005 6.33905 -1.34417 0
M  V30 6348 N 613.412 0.11024 1.57214 0
M  V30 6349 C 614.652 -0.553061 1.96775 0
M  V30 6350 C 615.016 -1.64403 0.991753 0
M  V30 6351 O 616.217 -2.36561 1.27642 0
M  V30 6352 C 614.488 -1.08004 3.4069 0
M  V30 6353 S 616.047 -1.75309 4.02259 0
M  V30 6354 H 612.865 -0.18003 0.68783 0
M  V30 6355 H 615.467 0.193242 1.94543 0
M  V30 6356 H 614.171 -0.274735 4.09479 0
M  V30 6357 H 613.702 -1.86182 3.46554 0
M  V30 6358 H 615.717 -3.03834 3.923 0
M  V30 6359 N 614.89 -1.56749 -0.16351 0
M  V30 6360 C 615.853 -1.96121 -1.18613 0
M  V30 6361 C 616.853 -0.845765 -1.36761 0
M  V30 6362 O 618.043 -1.11268 -1.34033 0
M  V30 6363 C 615.175 -2.26282 -2.54969 0
M  V30 6364 H 616.368 -2.87639 -0.848764 0
M  V30 6365 H 613.921 -1.50928 -0.406251 0
M  V30 6366 H 614.656 -1.37504 -2.93706 0
M  V30 6367 H 614.441 -3.07595 -2.43162 0
M  V30 6368 H 615.931 -2.57638 -3.28653 0
M  V30 6369 N 616.368 0.432326 -1.51554 0
M  V30 6370 C 617.278 1.55023 -1.76082 0
M  V30 6371 C 618.294 1.61593 -0.645265 0
M  V30 6372 O 619.47 1.78742 -0.928086 0
M  V30 6373 C 616.535 2.90964 -1.88523 0
M  V30 6374 C 615.596 2.9447 -3.12388 0
M  V30 6375 C 614.829 4.23926 -3.24225 0
M  V30 6376 O 615.052 5.16576 -2.4188 0
M  V30 6377 O 613.986 4.33818 -4.17235 0
M  V30 6378 H 617.812 1.37238 -2.70923 0
M  V30 6379 H 615.397 0.615845 -1.36117 0
M  V30 6380 H 617.279 3.71633 -1.98662 0
M  V30 6381 H 615.954 3.08865 -0.9687 0
M  V30 6382 H 614.861 2.12737 -3.07723 0
M  V30 6383 H 616.194 2.81514 -4.03746 0
M  V30 6384 N 617.846 1.41785 0.688094 0
M  V30 6385 C 619.094 1.41264 1.4453 0
M  V30 6386 C 619.415 0.0252946 1.94984 0
M  V30 6387 O 618.685 -0.934081 1.72197 0
M  V30 6388 H 617.265 0.519998 0.536294 0
M  V30 6389 H 619.927 1.7709 0.813941 0
M  V30 6390 H 619.023 2.10439 2.30482 0
M  V30 6391 N 619.324 -0.923095 1.27737 0
M  V30 6392 C 620.571 -1.67127 1.14345 0
M  V30 6393 C 620.899 -1.92017 -0.30982 0
M  V30 6394 O 620.154 -1.51185 -1.24264 0
M  V30 6395 C 620.453 -3.04125 1.8773 0
M  V30 6396 C 620.119 -2.98929 3.37568 0
M  V30 6397 C 618.781 -2.9722 3.78436 0
M  V30 6398 C 621.133 -2.89875 4.33154 0
M  V30 6399 C 618.461 -2.84244 5.13247 0
M  V30 6400 C 620.813 -2.7844 5.68026 0
M  V30 6401 C 619.477 -2.75083 6.08182 0
M  V30 6402 H 618.747 -0.611562 0.418417 0
M  V30 6403 H 621.394 -1.07618 1.584 0
M  V30 6404 H 619.699 -3.67366 1.36196 0
M  V30 6405 H 621.396 -3.609 1.74792 0
M  V30 6406 H 617.986 -3.0105 3.05069 0
M  V30 6407 H 622.17 -2.9029 4.02548 0
M  V30 6408 H 617.426 -2.80034 5.43499 0
M  V30 6409 H 621.6 -2.70401 6.4176 0
M  V30 6410 H 619.227 -2.64786 7.12596 0
M  V30 6411 N 620.802 -1.09834 -1.13024 0
M  V30 6412 C 621.735 -0.685453 -2.17662 0
M  V30 6413 C 622.713 0.310142 -1.59615 0
M  V30 6414 O 623.897 0.21052 -1.87321 0
M  V30 6415 C 621.024 -0.0104476 -3.38698 0
M  V30 6416 C 620.07 -0.968522 -4.15358 0
M  V30 6417 S 620.903 -2.48272 -4.74469 0
M  V30 6418 C 622.059 -1.82025 -5.98847 0
M  V30 6419 H 622.292 -1.57187 -2.52348 0
M  V30 6420 H 619.825 -0.914728 -1.24387 0
M  V30 6421 H 621.783 0.372694 -4.08805 0
M  V30 6422 H 620.444 0.852673 -3.02305 0
M  V30 6423 H 619.637 -0.443373 -5.02046 0
M  V30 6424 H 619.239 -1.29327 -3.50928 0
M  V30 6425 H 621.531 -1.14678 -6.67724 0
M  V30 6426 H 622.474 -2.66645 -6.55977 0
M  V30 6427 H 622.882 -1.2874 -5.49624 0
M  V30 6428 N 622.28 1.30327 -0.886154 0
M  V30 6429 C 623.21 2.30549 -0.370028 0
M  V30 6430 C 624.191 1.61039 0.547751 0
M  V30 6431 O 625.376 1.8864 0.461353 0
M  V30 6432 C 622.506 3.44808 0.415275 0
M  V30 6433 C 621.46 4.26024 -0.41085 0
M  V30 6434 C 620.786 5.32347 0.501128 0
M  V30 6435 C 622.086 4.95433 -1.65359 0
M  V30 6436 H 623.78 2.73969 -1.20754 0
M  V30 6437 H 621.326 1.3171 -0.582097 0
M  V30 6438 H 623.279 4.13986 0.78699 0
M  V30 6439 H 622.003 3.00197 1.28644 0
M  V30 6440 H 620.662 3.58535 -0.764719 0
M  V30 6441 H 620.31 4.83982 1.37004 0
M  V30 6442 H 620.01 5.87581 -0.0478356 0
M  V30 6443 H 621.534 6.0438 0.869333 0
M  V30 6444 H 622.948 5.5712 -1.35239 0
M  V30 6445 H 621.345 5.60537 -2.14284 0
M  V30 6446 H 622.415 4.21493 -2.39733 0
M  V30 6447 N 623.758 0.647228 1.43697 0
M  V30 6448 C 625.174 0.314256 1.56476 0
M  V30 6449 C 625.374 -1.18191 1.63196 0
M  V30 6450 O 624.43 -1.96655 1.58376 0
M  V30 6451 C 625.743 1.02034 2.82859 0
M  V30 6452 C 627.291 1.00002 2.96595 0
M  V30 6453 C 627.766 1.68689 4.25803 0
M  V30 6454 N 629.257 1.65424 4.32654 0
M  V30 6455 C 629.992 2.1545 5.31384 0
M  V30 6456 N 629.488 2.73738 6.36427 0
M  V30 6457 N 631.281 2.05985 5.22998 0
M  V30 6458 H 623.432 1.61821 1.37578 0
M  V30 6459 H 625.695 0.680184 0.660344 0
M  V30 6460 H 625.401 2.07542 2.83935 0
M  V30 6461 H 625.275 0.568146 3.72897 0
M  V30 6462 H 627.662 -0.0466319 2.95063 0
M  V30 6463 H 627.743 1.49086 2.07863 0
M  V30 6464 H 627.387 2.73308 4.28095 0
M  V30 6465 H 627.317 1.17076 5.13421 0
M  V30 6466 H 629.808 1.22884 3.57363 0
M  V30 6467 H 630.121 3.09602 7.08072 0
M  V30 6468 H 628.466 2.77796 6.37067 0
M  V30 6469 H 631.657 1.60157 4.39849 0
M  V30 6470 H 631.83 2.45281 5.99784 0
M  V30 6471 N 625.236 -1.5273 0.388769 0
M  V30 6472 C 626.484 -2.01174 -0.193208 0
M  V30 6473 C 626.805 -1.27705 -1.47365 0
M  V30 6474 O 626.075 -0.396966 -1.91836 0
M  V30 6475 H 624.655 -0.743287 -0.0743871 0
M  V30 6476 H 627.317 -1.87826 0.520336 0
M  V30 6477 H 626.413 -3.09477 -0.403803 0
M  V30 6478 N 626.714 -0.118576 -1.57153 0
M  V30 6479 C 627.677 0.817464 -2.14127 0
M  V30 6480 C 628.677 1.1949 -1.07604 0
M  V30 6481 O 629.867 1.12048 -1.33382 0
M  V30 6482 C 626.999 2.10541 -2.68115 0
M  V30 6483 H 628.192 0.322339 -2.98163 0
M  V30 6484 H 625.745 0.130655 -1.55753 0
M  V30 6485 H 626.48 2.64485 -1.87665 0
M  V30 6486 H 626.265 1.84425 -3.4602 0
M  V30 6487 H 627.755 2.77453 -3.12105 0
M  V30 6488 N 628.193 1.56834 0.155195 0
M  V30 6489 C 629.47 1.73799 0.897395 0
M  V30 6490 C 629.85 0.684379 1.99698 0
M  V30 6491 O 629.198 -0.298111 2.26547 0
M  V30 6492 C 629.408 3.17572 1.44737 0
M  V30 6493 C 630.756 3.79014 1.91399 0
M  V30 6494 O 631.78 3.20951 1.54496 0
M  V30 6495 O 630.639 4.80998 2.59429 0
M  V30 6496 H 627.733 0.710329 0.423511 0
M  V30 6497 H 630.279 1.69107 0.141761 0
M  V30 6498 H 629.051 3.85749 0.656741 0
M  V30 6499 H 628.674 3.26657 2.26674 0
M  V30 6500 N 629.671 -0.424282 1.51781 0
M  V30 6501 C 630.92 -1.16961 1.64326 0
M  V30 6502 C 631.233 -1.92035 0.371749 0
M  V30 6503 O 632.439 -2.68873 0.37676 0
M  V30 6504 C 630.895 -2.12782 2.90262 0
M  V30 6505 C 630.503 -1.43295 4.24465 0
M  V30 6506 C 632.247 -2.87667 3.12166 0
M  V30 6507 C 630.154 -2.37676 5.41538 0
M  V30 6508 H 629.084 -0.440293 0.612093 0
M  V30 6509 H 631.735 -0.435431 1.78259 0
M  V30 6510 H 630.117 -2.8969 2.69992 0
M  V30 6511 H 631.291 -0.718564 4.55163 0
M  V30 6512 H 629.606 -0.805118 4.08542 0
M  V30 6513 H 632.203 -3.58395 3.96808 0
M  V30 6514 H 632.546 -3.49758 2.25776 0
M  V30 6515 H 633.079 -2.17863 3.32837 0
M  V30 6516 H 629.818 -1.80255 6.30229 0
M  V30 6517 H 629.338 -3.07132 5.15199 0
M  V30 6518 H 631.017 -2.98529 5.74012 0
M  V30 6519 N 631.149 -1.42148 -0.680565 0
M  V30 6520 C 632.395 -1.42521 -1.44277 0
M  V30 6521 C 632.728 -0.0393718 -1.9416 0
M  V30 6522 O 632.003 0.935425 -1.70529 0
M  V30 6523 C 632.286 -2.44475 -2.64394 0
M  V30 6524 C 632.139 -3.92226 -2.20179 0
M  V30 6525 C 633.458 -2.43491 -3.66606 0
M  V30 6526 H 630.577 -0.518985 -0.523282 0
M  V30 6527 H 633.219 -1.73524 -0.773914 0
M  V30 6528 H 631.369 -2.18168 -3.21458 0
M  V30 6529 H 633.041 -4.29493 -1.68327 0
M  V30 6530 H 631.284 -4.0637 -1.5181 0
M  V30 6531 H 631.955 -4.59133 -3.06433 0
M  V30 6532 H 634.431 -2.66872 -3.19247 0
M  V30 6533 H 633.307 -3.16816 -4.4824 0
M  V30 6534 H 633.568 -1.45881 -4.17338 0
M  V30 6535 N 632.627 0.916307 -1.28225 0
M  V30 6536 C 634.043 1.19425 -1.05876 0
M  V30 6537 C 634.243 2.005 0.2005 0
M  V30 6538 O 633.299 2.35806 0.902873 0
M  V30 6539 C 634.612 1.93133 -2.30478 0
M  V30 6540 C 636.16 2.06026 -2.35632 0
M  V30 6541 C 636.635 2.83141 -3.59994 0
M  V30 6542 N 638.126 2.90704 -3.60618 0
M  V30 6543 C 638.861 3.50865 -4.53521 0
M  V30 6544 N 638.357 4.12327 -5.56739 0
M  V30 6545 N 640.15 3.48379 -4.41122 0
M  V30 6546 H 632.301 0.37496 -2.09064 0
M  V30 6547 H 634.564 0.228531 -0.920042 0
M  V30 6548 H 634.27 1.40985 -3.22205 0
M  V30 6549 H 634.144 2.93696 -2.36691 0
M  V30 6550 H 636.531 2.57355 -1.44404 0
M  V30 6551 H 636.612 1.04647 -2.33415 0
M  V30 6552 H 636.256 2.32492 -4.51564 0
M  V30 6553 H 636.186 3.84829 -3.59464 0
M  V30 6554 H 638.677 2.47034 -2.85977 0
M  V30 6555 H 638.99 4.56205 -6.23776 0
M  V30 6556 H 637.335 4.10839 -5.60568 0
M  V30 6557 H 640.526 2.99572 -3.59686 0
M  V30 6558 H 640.699 3.94974 -5.13712 0
M  V30 6559 N 634.105 1.10431 1.1244 0
M  V30 6560 C 635.345 0.856518 1.85589 0
M  V30 6561 C 635.709 -0.606905 1.82156 0
M  V30 6562 O 636.91 -0.97105 2.50647 0
M  V30 6563 C 635.181 1.38977 3.29272 0
M  V30 6564 S 636.74 1.27739 4.19795 0
M  V30 6565 H 633.558 0.309509 0.640098 0
M  V30 6566 H 636.16 1.40975 1.35449 0
M  V30 6567 H 634.864 2.44887 3.2933 0
M  V30 6568 H 634.395 0.833112 3.84477 0
M  V30 6569 H 636.41 0.235051 4.95643 0
M  V30 6570 N 635.583 -1.29855 0.893053 0
M  V30 6571 C 636.86 -1.90694 0.435336 0
M  V30 6572 C 637.24 -1.8111 -1.08454 0
M  V30 6573 O 636.588 -1.23352 -1.92345 0
M  V30 6574 C 636.798 -3.36033 0.942472 0
M  V30 6575 C 638.146 -4.13083 0.982226 0
M  V30 6576 O 639.17 -3.4491 0.889686 0
M  V30 6577 O 638.029 -5.34896 1.12022 0
M  V30 6578 H 635.123 -0.815978 0.134567 0
M  V30 6579 H 637.669 -1.38367 0.982484 0
M  V30 6580 H 636.441 -3.37132 1.9864 0
M  V30 6581 H 636.064 -3.95828 0.374952 0
M  V30 6582 N 637.061 -0.65484 -1.43351 0
M  V30 6583 C 638.009 0.0476784 -2.32551 0
M  V30 6584 C 639.003 0.811403 -1.48703 0
M  V30 6585 O 640.209 0.721621 -1.64902 0
M  V30 6586 H 636.584 0.0342038 -0.751222 0
M  V30 6587 H 638.555 -0.722342 -2.89525 0
M  V30 6588 C 637.304 0.999251 -3.33032 0
M  V30 6589 H 636.627 0.421005 -3.97577 0
M  V30 6590 H 638.067 1.45986 -3.98076 0
M  V30 6591 C 636.526 2.09606 -2.63756 0
M  V30 6592 O 637.056 3.18004 -2.4543 0
M  V30 6593 N 635.262 1.86207 -2.23103 0
M  V30 6594 H 634.809 0.980555 -2.38208 0
M  V30 6595 H 634.767 2.59787 -1.77081 0
M  V30 6596 N 638.539 1.52521 -0.396863 0
M  V30 6597 C 639.469 2.29582 0.425941 0
M  V30 6598 C 640.45 1.33281 1.05689 0
M  V30 6599 O 641.635 1.62181 1.06823 0
M  V30 6600 C 638.765 3.10821 1.54943 0
M  V30 6601 C 637.719 4.15069 1.04413 0
M  V30 6602 C 637.045 4.84578 2.26028 0
M  V30 6603 C 638.345 5.22191 0.106767 0
M  V30 6604 H 640.039 2.98612 -0.217045 0
M  V30 6605 H 637.585 1.43611 -0.105826 0
M  V30 6606 H 639.538 3.63492 2.13193 0
M  V30 6607 H 638.262 2.39538 2.22011 0
M  V30 6608 H 636.921 3.63389 0.484118 0
M  V30 6609 H 636.569 4.09835 2.91623 0
M  V30 6610 H 636.269 5.55043 1.92876 0
M  V30 6611 H 637.793 5.40056 2.84906 0
M  V30 6612 H 639.207 5.70176 0.597685 0
M  V30 6613 H 637.604 5.99947 -0.135352 0
M  V30 6614 H 638.674 4.77531 -0.842134 0
M  V30 6615 N 640.017 0.126909 1.57088 0
M  V30 6616 C 641.265 -0.528123 1.95078 0
M  V30 6617 C 641.586 -1.66708 1.0116 0
M  V30 6618 O 640.856 -1.95777 0.0693527 0
M  V30 6619 H 639.436 -0.198087 0.720257 0
M  V30 6620 H 642.098 0.197703 1.93895 0
M  V30 6621 H 641.194 -0.917507 2.98309 0
M  V30 6622 N 641.495 -1.56914 -0.146875 0
M  V30 6623 C 642.427 -1.94878 -1.20645 0
M  V30 6624 C 643.44 -0.844633 -1.39175 0
M  V30 6625 O 644.629 -1.12304 -1.38744 0
M  V30 6626 C 641.729 -2.20769 -2.57127 0
M  V30 6627 C 640.902 -3.52053 -2.59572 0
M  V30 6628 C 639.961 -3.66482 -3.77594 0
M  V30 6629 O 638.987 -4.38873 -3.62462 0
M  V30 6630 N 640.189 -3.03156 -4.95052 0
M  V30 6631 H 642.954 -2.86374 -0.883757 0
M  V30 6632 H 640.515 -1.58366 -0.336436 0
M  V30 6633 H 642.507 -2.27664 -3.34591 0
M  V30 6634 H 641.077 -1.35538 -2.81688 0
M  V30 6635 H 640.297 -3.56598 -1.68023 0
M  V30 6636 H 641.585 -4.38396 -2.58238 0
M  V30 6637 H 640.983 -2.44258 -5.10249 0
M  V30 6638 H 639.54 -3.15611 -5.70292 0
M  V30 6639 N 642.974 0.416227 -1.52004 0
M  V30 6640 C 644.22 1.16233 -1.66917 0
M  V30 6641 C 644.575 1.8839 -0.390763 0
M  V30 6642 O 643.868 1.81479 0.614478 0
M  V30 6643 C 644.062 2.18923 -2.82502 0
M  V30 6644 C 643.891 1.56849 -4.2146 0
M  V30 6645 C 642.661 1.34426 -4.87091 0
M  V30 6646 C 644.859 1.03322 -5.03815 0
M  V30 6647 N 642.841 0.681703 -6.10103 0
M  V30 6648 C 644.212 0.497165 -6.18003 0
M  V30 6649 C 646.267 0.926997 -4.89194 0
M  V30 6650 C 644.97 -0.134687 -7.19174 0
M  V30 6651 C 646.996 0.309009 -5.90592 0
M  V30 6652 C 646.358 -0.216399 -7.04068 0
M  V30 6653 H 642.457 0.412252 -0.664509 0
M  V30 6654 H 645.041 0.455758 -1.89291 0
M  V30 6655 H 643.212 2.86946 -2.61756 0
M  V30 6656 H 644.944 2.85844 -2.86488 0
M  V30 6657 H 641.699 1.61183 -4.45328 0
M  V30 6658 H 642.123 0.367256 -6.76003 0
M  V30 6659 H 646.765 1.31904 -4.01698 0
M  V30 6660 H 644.483 -0.538811 -8.06302 0
M  V30 6661 H 648.069 0.228438 -5.81351 0
M  V30 6662 H 646.949 -0.687064 -7.81184 0
M  V30 6663 N 644.452 1.42507 0.673017 0
M  V30 6664 C 645.68 1.46473 1.46128 0
M  V30 6665 C 646.095 0.0765912 1.88645 0
M  V30 6666 O 645.452 -0.909057 1.58248 0
M  V30 6667 C 645.503 2.39339 2.70923 0
M  V30 6668 O 645.224 3.72752 2.3019 0
M  V30 6669 C 646.725 2.52343 3.64469 0
M  V30 6670 H 643.945 0.49812 0.449575 0
M  V30 6671 H 646.489 1.87041 0.826802 0
M  V30 6672 H 644.644 2.02019 3.30556 0
M  V30 6673 H 645.058 4.22503 3.10791 0
M  V30 6674 H 646.532 3.2144 4.48754 0
M  V30 6675 H 647.009 1.56189 4.1049 0
M  V30 6676 H 647.615 2.90392 3.10729 0
M  V30 6677 N 645.93 -0.909495 1.28709 0
M  V30 6678 C 646.893 -1.99399 1.13016 0
M  V30 6679 C 647.893 -1.60654 0.068536 0
M  V30 6680 O 649.083 -1.71334 0.314671 0
M  V30 6681 C 646.215 -3.33078 0.726085 0
M  V30 6682 H 647.408 -2.14751 2.09338 0
M  V30 6683 H 644.961 -1.09272 1.11756 0
M  V30 6684 H 645.696 -3.23428 -0.23771 0
M  V30 6685 H 645.481 -3.62562 1.49302 0
M  V30 6686 H 646.971 -4.12681 0.639058 0
M  V30 6687 N 647.408 -1.11026 -1.11852 0
M  V30 6688 C 648.819 -0.873203 -1.65021 0
M  V30 6689 C 649.17 0.595364 -1.86949 0
M  V30 6690 O 648.295 1.45645 -1.60051 0
M  V30 6691 C 648.89 -1.57859 -2.99777 0
M  V30 6692 C 647.449 -1.38807 -3.49871 0
M  V30 6693 C 646.596 -1.62403 -2.24768 0
M  V30 6694 H 649.547 -1.26712 -0.955503 0
M  V30 6695 H 649.568 -1.02111 -3.66543 0
M  V30 6696 H 649.08 -2.6474 -2.83786 0
M  V30 6697 H 647.181 -0.341163 -3.71035 0
M  V30 6698 H 647.294 -2.13421 -4.28938 0
M  V30 6699 H 645.658 -1.04714 -2.32179 0
M  V30 6700 H 646.441 -2.70549 -2.11324 0
M  V30 6701 N 648.886 1.2938 -0.899927 0
M  V30 6702 C 649.849 2.25983 -0.382677 0
M  V30 6703 C 650.849 1.53366 0.483259 0
M  V30 6704 O 652.039 1.71798 0.28828 0
M  V30 6705 C 649.171 3.37878 0.452915 0
M  V30 6706 H 650.364 2.73252 -1.23586 0
M  V30 6707 H 647.917 1.40825 -0.678088 0
M  V30 6708 H 648.652 2.95949 1.32608 0
M  V30 6709 H 648.437 3.91742 -0.167562 0
M  V30 6710 H 649.927 4.09746 0.806107 0
M  V30 6711 N 650.364 0.662433 1.43002 0
M  V30 6712 C 651.775 0.258315 1.84904 0
M  V30 6713 C 652.126 -1.19703 1.55453 0
M  V30 6714 O 651.251 -1.91484 1.00811 0
M  V30 6715 C 651.846 0.462047 3.35635 0
M  V30 6716 C 650.405 0.112165 3.76233 0
M  V30 6717 C 649.552 0.760479 2.66668 0
M  V30 6718 H 652.503 0.865467 1.33024 0
M  V30 6719 H 652.524 -0.289646 3.79396 0
M  V30 6720 H 652.036 1.52135 3.57039 0
M  V30 6721 H 650.137 -0.944179 3.60439 0
M  V30 6722 H 650.25 0.544058 4.76001 0
M  V30 6723 H 648.614 0.192887 2.53969 0
M  V30 6724 H 649.397 1.82299 2.90898 0
M  V30 6725 N 651.842 -1.52309 0.404946 0
M  V30 6726 C 653.088 -2.02065 -0.172455 0
M  V30 6727 C 653.421 -1.29022 -1.45145 0
M  V30 6728 O 652.696 -0.395284 -1.90441 0
M  V30 6729 C 652.979 -3.5759 -0.424433 0
M  V30 6730 C 652.832 -4.41287 0.870945 0
M  V30 6731 C 654.151 -4.23186 -1.20837 0
M  V30 6732 H 651.27 -0.734454 -0.0612035 0
M  V30 6733 H 653.912 -1.82236 0.53759 0
M  V30 6734 H 652.062 -3.74617 -1.02929 0
M  V30 6735 H 653.734 -4.3598 1.50729 0
M  V30 6736 H 651.977 -4.07669 1.48284 0
M  V30 6737 H 652.648 -5.48171 0.649083 0
M  V30 6738 H 655.124 -4.10232 -0.696338 0
M  V30 6739 H 654 -5.31953 -1.35343 0
M  V30 6740 H 654.261 -3.81862 -2.22786 0
M  V30 6741 N 653.32 -0.135238 -1.57019 0
M  V30 6742 C 654.56 0.521686 -1.9763 0
M  V30 6743 C 654.924 1.62804 -1.01778 0
M  V30 6744 O 656.125 2.345 -1.31389 0
M  V30 6745 C 654.396 1.0257 -3.42365 0
M  V30 6746 S 655.955 1.68888 -4.04997 0
M  V30 6747 H 652.773 0.169064 -0.690607 0
M  V30 6748 H 655.375 -0.224168 -1.94211 0
M  V30 6749 H 654.079 0.209556 -4.09865 0
M  V30 6750 H 653.61 1.80645 -3.49472 0
M  V30 6751 H 655.625 2.97554 -3.97084 0
M  V30 6752 N 654.798 1.5699 0.138552 0
M  V30 6753 C 655.73 1.95515 1.1961 0
M  V30 6754 C 656.743 0.852002 1.38726 0
M  V30 6755 O 657.932 1.13038 1.38147 0
M  V30 6756 C 655.032 2.2213 2.55952 0
M  V30 6757 C 654.205 3.53424 2.57702 0
M  V30 6758 C 653.264 3.6848 3.75645 0
M  V30 6759 O 652.29 4.4079 3.60129 0
M  V30 6760 N 653.492 3.05777 4.93438 0
M  V30 6761 H 656.257 2.86838 0.868557 0
M  V30 6762 H 653.818 1.58542 0.328033 0
M  V30 6763 H 655.81 2.29435 3.33379 0
M  V30 6764 H 654.38 1.3703 2.80965 0
M  V30 6765 H 653.6 3.57484 1.6613 0
M  V30 6766 H 654.888 4.39759 2.55909 0
M  V30 6767 H 654.286 2.46961 5.08947 0
M  V30 6768 H 652.843 3.18631 5.6861 0
M  V30 6769 N 656.276 -0.40816 1.52223 0
M  V30 6770 C 657.239 -1.48 1.7501 0
M  V30 6771 C 658.239 -1.48367 0.619996 0
M  V30 6772 O 659.429 -1.49874 0.887881 0
M  V30 6773 C 656.561 -2.87403 1.83336 0
M  V30 6774 H 657.754 -1.29086 2.70697 0
M  V30 6775 H 655.307 -0.638715 1.42654 0
M  V30 6776 H 656.042 -3.11686 0.895677 0
M  V30 6777 H 655.827 -2.8854 2.65494 0
M  V30 6778 H 657.317 -3.65103 2.02705 0
M  V30 6779 N 657.755 -1.42862 -0.66545 0
M  V30 6780 C 658.685 -1.49867 -1.79059 0
M  V30 6781 C 659.666 -0.354394 -1.66367 0
M  V30 6782 O 660.851 -0.569969 -1.85647 0
M  V30 6783 C 657.981 -1.40943 -3.17415 0
M  V30 6784 C 656.935 -2.53495 -3.44854 0
M  V30 6785 C 656.261 -2.29626 -4.82883 0
M  V30 6786 C 657.561 -3.95781 -3.40815 0
M  V30 6787 H 659.255 -2.44037 -1.73453 0
M  V30 6788 H 656.801 -1.17456 -0.833071 0
M  V30 6789 H 658.754 -1.4445 -3.95869 0
M  V30 6790 H 657.478 -0.432716 -3.23721 0
M  V30 6791 H 656.137 -2.4932 -2.68766 0
M  V30 6792 H 655.785 -1.30226 -4.8585 0
M  V30 6793 H 655.485 -3.05065 -5.02204 0
M  V30 6794 H 657.009 -2.34897 -5.63609 0
M  V30 6795 H 658.423 -4.01508 -4.09224 0
M  V30 6796 H 656.82 -4.71148 -3.71672 0
M  V30 6797 H 657.89 -4.21786 -2.39216 0
M  V30 6798 N 659.233 0.902656 -1.29189 0
M  V30 6799 C 660.165 2.01149 -1.09872 0
M  V30 6800 C 661.178 1.62732 -0.0471046 0
M  V30 6801 O 662.367 1.76107 -0.29132 0
M  V30 6802 C 659.467 3.32612 -0.649818 0
M  V30 6803 C 658.64 3.99574 -1.7793 0
M  V30 6804 C 657.699 5.09325 -1.32191 0
M  V30 6805 O 656.725 5.31919 -2.02611 0
M  V30 6806 N 657.927 5.80185 -0.191171 0
M  V30 6807 H 660.692 2.18276 -2.05368 0
M  V30 6808 H 658.253 1.07466 -1.2109 0
M  V30 6809 H 660.245 4.03375 -0.327199 0
M  V30 6810 H 658.815 3.11876 0.212597 0
M  V30 6811 H 658.035 3.22213 -2.27095 0
M  V30 6812 H 659.323 4.41056 -2.53668 0
M  V30 6813 H 658.721 5.64312 0.396016 0
M  V30 6814 H 657.278 6.5176 0.0721001 0
M  V30 6815 N 660.711 1.11618 1.11262 0
M  V30 6816 C 661.951 0.876154 1.8467 0
M  V30 6817 C 662.315 -0.587551 1.82789 0
M  V30 6818 O 663.516 -0.944411 2.51663 0
M  V30 6819 C 661.787 1.42461 3.2778 0
M  V30 6820 S 663.346 1.32185 4.18417 0
M  V30 6821 H 660.164 0.31628 0.636779 0
M  V30 6822 H 662.766 1.42404 1.33946 0
M  V30 6823 H 661.47 2.48367 3.26714 0
M  V30 6824 H 661.001 0.873844 3.83572 0
M  V30 6825 H 663.016 0.287607 4.95366 0
M  V30 6826 N 662.189 -1.289 0.906776 0
M  V30 6827 C 663.121 -2.26556 0.347159 0
M  V30 6828 C 664.134 -1.54589 -0.51049 0
M  V30 6829 O 665.323 -1.75489 -0.326501 0
M  V30 6830 C 662.423 -3.3484 -0.523024 0
M  V30 6831 C 661.596 -4.36296 0.310515 0
M  V30 6832 C 660.655 -5.23879 -0.493634 0
M  V30 6833 O 659.681 -5.69127 0.0913569 0
M  V30 6834 N 660.883 -5.51946 -1.7982 0
M  V30 6835 H 663.648 -2.75212 1.18652 0
M  V30 6836 H 661.209 -1.42309 0.771996 0
M  V30 6837 H 663.201 -3.90366 -1.06756 0
M  V30 6838 H 661.771 -2.85946 -1.26309 0
M  V30 6839 H 660.991 -3.80331 1.03644 0
M  V30 6840 H 662.279 -5.01113 0.881106 0
M  V30 6841 H 661.677 -5.17006 -2.2961 0
M  V30 6842 H 660.234 -6.10258 -2.28971 0
M  V30 6843 N 663.667 -0.670007 -1.42649 0
M  V30 6844 C 664.944 -0.119451 -1.95235 0
M  V30 6845 C 665.324 1.36461 -1.61064 0
M  V30 6846 O 664.672 2.09843 -0.904329 0
M  V30 6847 C 664.882 -0.383498 -3.46887 0
M  V30 6848 C 666.23 -0.297431 -4.23557 0
M  V30 6849 O 667.254 -0.31698 -3.54787 0
M  V30 6850 O 666.113 -0.235507 -5.45992 0
M  V30 6851 H 663.207 -8.85474e-05 -0.827 0
M  V30 6852 H 665.753 -0.744406 -1.52501 0
M  V30 6853 H 664.525 -1.41174 -3.64946 0
M  V30 6854 H 664.148 0.273702 -3.96657 0
M  V30 6855 N 665.145 1.52092 -0.413018 0
M  V30 6856 C 666.075 2.30021 0.401567 0
M  V30 6857 C 667.056 1.34395 1.04269 0
M  V30 6858 O 668.241 1.63304 1.05097 0
M  V30 6859 C 665.371 3.12447 1.51638 0
M  V30 6860 C 664.325 4.16153 1.00005 0
M  V30 6861 C 663.651 4.86948 2.20875 0
M  V30 6862 C 664.951 5.22275 0.0513757 0
M  V30 6863 H 666.645 2.98365 -0.248704 0
M  V30 6864 H 664.191 1.4349 -0.121052 0
M  V30 6865 H 666.144 3.65733 2.09326 0
M  V30 6866 H 664.868 2.41879 2.19458 0
M  V30 6867 H 663.527 3.63882 0.445549 0
M  V30 6868 H 663.175 4.12905 2.8726 0
M  V30 6869 H 662.875 5.57057 1.86978 0
M  V30 6870 H 664.399 5.43048 2.79162 0
M  V30 6871 H 665.813 5.70778 0.537176 0
M  V30 6872 H 664.21 5.9977 -0.198977 0
M  V30 6873 H 665.28 4.76611 -0.892736 0
M  V30 6874 N 666.623 0.143563 1.56945 0
M  V30 6875 C 668.034 -0.37783 1.82837 0
M  V30 6876 C 668.385 -1.64967 1.06209 0
M  V30 6877 O 667.51 -2.14221 0.306291 0
M  V30 6878 C 668.105 -0.692274 3.31652 0
M  V30 6879 C 666.664 -1.1582 3.58138 0
M  V30 6880 C 665.811 -0.17951 2.76718 0
M  V30 6881 H 668.762 0.368317 1.54367 0
M  V30 6882 H 668.783 -1.54729 3.47619 0
M  V30 6883 H 668.295 0.233572 3.87397 0
M  V30 6884 H 666.396 -2.10011 3.07776 0
M  V30 6885 H 666.509 -1.08655 4.66616 0
M  V30 6886 H 664.873 -0.671458 2.4569 0
M  V30 6887 H 665.656 0.739865 3.35233 0
M  V30 6888 N 668.101 -1.57061 -0.130224 0
M  V30 6889 C 669.347 -1.8453 -0.841216 0
M  V30 6890 C 669.68 -0.727666 -1.80052 0
M  V30 6891 O 668.955 0.267419 -1.92653 0
M  V30 6892 C 669.238 -3.22553 -1.60099 0
M  V30 6893 C 669.091 -4.44901 -0.662048 0
M  V30 6894 C 670.41 -3.58003 -2.55973 0
M  V30 6895 H 667.529 -0.671215 -0.304366 0
M  V30 6896 H 670.171 -1.89705 -0.105821 0
M  V30 6897 H 668.321 -3.18272 -2.22789 0
M  V30 6898 H 669.993 -4.61278 -0.0448559 0
M  V30 6899 H 668.236 -4.33791 0.0272253 0
M  V30 6900 H 668.907 -5.3812 -1.23006 0
M  V30 6901 H 671.383 -3.63002 -2.03393 0
M  V30 6902 H 670.259 -4.55576 -3.06172 0
M  V30 6903 H 670.52 -2.84833 -3.38116 0
M  V30 6904 N 669.579 0.400081 -1.52437 0
M  V30 6905 C 670.99 0.97851 -1.59003 0
M  V30 6906 C 671.341 1.91293 -0.436068 0
M  V30 6907 O 670.466 2.1183 0.442365 0
M  V30 6908 C 671.061 1.78145 -2.88184 0
M  V30 6909 C 669.62 2.30976 -2.97199 0
M  V30 6910 C 668.767 1.11212 -2.54022 0
M  V30 6911 H 671.718 0.180002 -1.57676 0
M  V30 6912 H 671.739 2.63968 -2.74046 0
M  V30 6913 H 671.251 1.1011 -3.72152 0
M  V30 6914 H 669.352 3.02355 -2.17744 0
M  V30 6915 H 669.465 2.61221 -4.01622 0
M  V30 6916 H 667.829 1.46882 -2.08081 0
M  V30 6917 H 668.612 0.447307 -3.40373 0
M  V30 6918 N 671.057 1.43213 0.657864 0
M  V30 6919 C 672.005 1.48271 1.79216 0
M  V30 6920 C 672.999 0.35675 1.65601 0
M  V30 6921 O 674.205 0.530535 1.72004 0
M  V30 6922 H 670.58 0.464729 0.591211 0
M  V30 6923 H 672.551 2.43792 1.7207 0
M  V30 6924 C 671.3 1.41837 3.17455 0
M  V30 6925 H 670.623 2.27781 3.28567 0
M  V30 6926 H 672.063 1.49438 3.96793 0
M  V30 6927 C 670.522 0.135347 3.36628 0
M  V30 6928 O 671.052 -0.805199 3.93547 0
M  V30 6929 N 669.258 0.0470316 2.90562 0
M  V30 6930 H 668.805 0.813221 2.44427 0
M  V30 6931 H 668.763 -0.810737 3.03767 0
M  V30 6932 N 672.536 -0.895792 1.29666 0
M  V30 6933 C 673.446 -2.03329 1.17024 0
M  V30 6934 C 674.462 -1.73753 0.0925962 0
M  V30 6935 O 675.638 -1.99071 0.305431 0
M  V30 6936 C 672.703 -3.36072 0.851841 0
M  V30 6937 C 671.764 -3.7914 2.01373 0
M  V30 6938 C 670.997 -5.05549 1.71043 0
M  V30 6939 O 671.22 -5.66874 0.633213 0
M  V30 6940 O 670.154 -5.44764 2.5596 0
M  V30 6941 H 673.98 -2.16918 2.12556 0
M  V30 6942 H 671.565 -1.02007 1.09156 0
M  V30 6943 H 673.447 -4.15729 0.689006 0
M  V30 6944 H 672.122 -3.23616 -0.0736634 0
M  V30 6945 H 671.029 -3.00233 2.23183 0
M  V30 6946 H 672.362 -3.96186 2.92058 0
M  V30 6947 N 674.014 -1.12206 -1.10668 0
M  V30 6948 C 674.977 -0.790867 -2.15123 0
M  V30 6949 C 675.977 0.193618 -1.5963 0
M  V30 6950 O 677.167 -0.0318728 -1.74171 0
M  V30 6951 C 674.299 -0.174797 -3.40452 0
M  V30 6952 H 675.492 -1.7163 -2.45933 0
M  V30 6953 H 673.045 -0.924993 -1.2599 0
M  V30 6954 H 673.78 0.760478 -3.15257 0
M  V30 6955 H 673.565 -0.88358 -3.82015 0
M  V30 6956 H 675.055 0.0405162 -4.1758 0
M  V30 6957 N 675.492 1.28418 -0.913599 0
M  V30 6958 C 676.908 1.47411 -0.611728 0
M  V30 6959 C 677.108 1.83018 0.843008 0
M  V30 6960 O 676.164 1.93505 1.6221 0
M  V30 6961 C 677.477 2.57703 -1.5495 0
M  V30 6962 C 679.025 2.71572 -1.5562 0
M  V30 6963 C 679.5 3.85008 -2.48058 0
M  V30 6964 N 680.991 3.92361 -2.46184 0
M  V30 6965 C 681.726 4.79516 -3.14407 0
M  V30 6966 N 681.222 5.71262 -3.91958 0
M  V30 6967 N 683.015 4.73125 -3.03495 0
M  V30 6968 H 675.166 1.03585 -1.85429 0
M  V30 6969 H 677.429 0.515907 -0.795326 0
M  V30 6970 H 677.135 2.38298 -2.58663 0
M  V30 6971 H 677.009 3.54801 -1.28048 0
M  V30 6972 H 679.396 2.90366 -0.526441 0
M  V30 6973 H 679.477 1.75006 -1.86565 0
M  V30 6974 H 679.121 3.66969 -3.51136 0
M  V30 6975 H 679.051 4.80971 -2.14416 0
M  V30 6976 H 681.542 3.26749 -1.89851 0
M  V30 6977 H 681.855 6.34593 -4.41034 0
M  V30 6978 H 680.2 5.71103 -3.96063 0
M  V30 6979 H 683.391 4.00442 -2.42413 0
M  V30 6980 H 683.564 5.40834 -3.56935 0
M  V30 6981 N 676.97 0.677563 1.42291 0
M  V30 6982 C 678.216 0.201272 2.01799 0
M  V30 6983 C 678.549 -1.19004 1.53465 0
M  V30 6984 O 677.824 -1.79953 0.738039 0
M  V30 6985 C 678.107 0.238968 3.59306 0
M  V30 6986 C 677.96 1.66594 4.17812 0
M  V30 6987 C 679.279 -0.411287 4.38174 0
M  V30 6988 H 676.398 0.0746114 0.733214 0
M  V30 6989 H 679.04 0.862872 1.69276 0
M  V30 6990 H 677.19 -0.324368 3.87144 0
M  V30 6991 H 678.862 2.28173 4.00917 0
M  V30 6992 H 677.105 2.20576 3.73536 0
M  V30 6993 H 677.776 1.64398 5.26951 0
M  V30 6994 H 680.252 0.0682804 4.16044 0
M  V30 6995 H 679.128 -0.354286 5.47755 0
M  V30 6996 H 679.389 -1.4893 4.1626 0
M  V30 6997 N 678.448 -1.51871 0.421078 0
M  V30 6998 C 679.396 -2.28903 -0.413066 0
M  V30 6999 C 680.39 -1.3408 -1.03532 0
M  V30 7000 O 681.596 -1.5149 -0.972146 0
M  V30 7001 H 677.971 -0.736478 -0.152003 0
M  V30 7002 H 679.942 -2.97285 0.257695 0
M  V30 7003 C 678.691 -3.13156 -1.51091 0
M  V30 7004 H 678.014 -3.85997 -1.04145 0
M  V30 7005 H 679.454 -3.7014 -2.06814 0
M  V30 7006 C 677.913 -2.27482 -2.48503 0
M  V30 7007 O 678.443 -1.92325 -3.52667 0
M  V30 7008 N 676.649 -1.91019 -2.18998 0
M  V30 7009 H 676.196 -2.19808 -1.34322 0
M  V30 7010 H 676.154 -1.3399 -2.84419 0
M  V30 7011 N 679.926 -0.151884 -1.56866 0
M  V30 7012 C 681.166 0.500695 -1.98173 0
M  V30 7013 C 681.53 1.61715 -1.03499 0
M  V30 7014 O 682.731 2.33093 -1.33869 0
M  V30 7015 C 681.002 0.989333 -3.43434 0
M  V30 7016 S 682.561 1.64583 -4.06765 0
M  V30 7017 H 679.379 0.16173 -0.692361 0
M  V30 7018 H 681.981 -0.244754 -1.93962 0
M  V30 7019 H 680.685 0.166072 -4.10064 0
M  V30 7020 H 680.216 1.76929 -3.51368 0
M  V30 7021 H 682.231 2.93326 -4.00218 0
M  V30 7022 N 681.404 1.57128 0.121893 0
M  V30 7023 C 682.629 1.89254 0.848385 0
M  V30 7024 C 683.054 0.743527 1.72781 0
M  V30 7025 O 682.412 -0.306056 1.78698 0
M  V30 7026 C 682.46 3.20113 1.66012 0
M  V30 7027 O 681.564 3.05815 2.76679 0
M  V30 7028 H 680.905 0.621103 0.234793 0
M  V30 7029 H 683.435 2.0433 0.10516 0
M  V30 7030 H 683.445 3.52761 2.04996 0
M  V30 7031 H 682.12 4.03336 1.01452 0
M  V30 7032 H 680.697 2.84627 2.40918 0
M  V30 7033 N 682.882 -0.391992 1.52647 0
M  V30 7034 C 683.832 -1.47815 1.73594 0
M  V30 7035 C 684.816 -1.49693 0.589979 0
M  V30 7036 O 686.008 -1.5538 0.847701 0
M  V30 7037 C 683.137 -2.85561 1.90551 0
M  V30 7038 C 682.223 -2.88264 3.1107 0
M  V30 7039 N 682.614 -2.60642 4.33474 0
M  V30 7040 C 680.912 -3.19432 3.11254 0
M  V30 7041 C 681.613 -2.70351 5.15058 0
M  V30 7042 N 680.589 -3.03956 4.50679 0
M  V30 7043 H 684.391 -1.2528 2.65861 0
M  V30 7044 H 681.905 -0.599907 1.50913 0
M  V30 7045 H 683.902 -3.63759 2.03678 0
M  V30 7046 H 682.562 -3.09081 0.994952 0
M  V30 7047 H 683.573 -2.34718 4.61658 0
M  V30 7048 H 680.25 -3.48436 2.29997 0
M  V30 7049 H 681.64 -2.52565 6.22624 0
M  V30 7050 N 684.36 -1.4356 -0.65026 0
M  V30 7051 C 685.771 -1.40324 -1.2315 0
M  V30 7052 C 686.122 -0.108812 -1.95898 0
M  V30 7053 O 685.247 0.79163 -2.01401 0
M  V30 7054 C 685.842 -2.54195 -2.23987 0
M  V30 7055 C 684.401 -2.54215 -2.77582 0
M  V30 7056 C 683.548 -2.31752 -1.5227 0
M  V30 7057 H 686.499 -1.52418 -0.442095 0
M  V30 7058 H 686.52 -2.25854 -3.0622 0
M  V30 7059 H 686.032 -3.48392 -1.71011 0
M  V30 7060 H 684.133 -1.63907 -3.34612 0
M  V30 7061 H 684.246 -3.52081 -3.24925 0
M  V30 7062 H 682.61 -1.80476 -1.79723 0
M  V30 7063 H 683.393 -3.28037 -1.01225 0
M  V30 7064 N 685.838 0.888903 -1.30139 0
M  V30 7065 C 687.085 1.64037 -1.18736 0
M  V30 7066 C 687.413 1.92771 0.258801 0
M  V30 7067 O 686.668 1.54427 1.20212 0
M  V30 7068 C 686.967 2.99041 -1.95728 0
M  V30 7069 C 686.633 2.89874 -3.45375 0
M  V30 7070 C 685.295 2.87082 -3.86183 0
M  V30 7071 C 687.647 2.78289 -4.40687 0
M  V30 7072 C 684.975 2.70536 -5.20603 0
M  V30 7073 C 687.327 2.63282 -5.75209 0
M  V30 7074 C 685.991 2.58861 -6.15262 0
M  V30 7075 H 685.261 0.600253 -0.434485 0
M  V30 7076 H 687.908 1.0338 -1.61198 0
M  V30 7077 H 686.213 3.63626 -1.45888 0
M  V30 7078 H 687.91 3.56139 -1.843 0
M  V30 7079 H 684.5 2.92856 -3.12943 0
M  V30 7080 H 688.684 2.79516 -4.10103 0
M  V30 7081 H 683.94 2.65526 -5.50732 0
M  V30 7082 H 688.114 2.5329 -6.48704 0
M  V30 7083 H 685.741 2.45799 -7.19366 0
M  V30 7084 N 687.317 1.12792 1.10072 0
M  V30 7085 C 688.565 0.883796 1.81751 0
M  V30 7086 C 688.886 -0.591891 1.858 0
M  V30 7087 O 688.156 -1.43017 1.33876 0
M  V30 7088 H 686.736 0.323978 0.673088 0
M  V30 7089 H 689.398 1.42314 1.33164 0
M  V30 7090 H 688.494 1.26863 2.85153 0
M  V30 7091 N 688.795 -1.27931 0.920396 0
M  V30 7092 C 689.758 -2.25345 0.41858 0
M  V30 7093 C 690.758 -1.54116 -0.458798 0
M  V30 7094 O 691.948 -1.72235 -0.260912 0
M  V30 7095 C 689.08 -3.38556 -0.399104 0
M  V30 7096 H 690.273 -2.71251 1.27918 0
M  V30 7097 H 687.826 -1.39728 0.700406 0
M  V30 7098 H 688.561 -2.98021 -1.27882 0
M  V30 7099 H 688.346 -3.91426 0.229863 0
M  V30 7100 H 689.836 -4.10976 -0.740817 0
M  V30 7101 N 690.273 -0.685099 -1.4193 0
M  V30 7102 C 691.52 -0.211658 -2.01391 0
M  V30 7103 C 691.848 1.18526 -1.54214 0
M  V30 7104 O 691.103 1.81189 -0.739519 0
M  V30 7105 C 691.402 -0.206154 -3.56805 0
M  V30 7106 C 691.068 -1.54915 -4.23453 0
M  V30 7107 C 689.73 -1.91684 -4.41373 0
M  V30 7108 C 692.082 -2.43317 -4.60919 0
M  V30 7109 C 689.41 -3.16461 -4.94034 0
M  V30 7110 C 691.762 -3.67415 -5.14965 0
M  V30 7111 C 690.426 -4.04341 -5.31098 0
M  V30 7112 H 689.696 -0.0774511 -0.736941 0
M  V30 7113 H 692.343 -0.882121 -1.69973 0
M  V30 7114 H 690.648 0.547841 -3.87951 0
M  V30 7115 H 692.345 0.17753 -4.00607 0
M  V30 7116 H 688.935 -1.25314 -4.09871 0
M  V30 7117 H 693.119 -2.16192 -4.46738 0
M  V30 7118 H 688.375 -3.45078 -5.04709 0
M  V30 7119 H 692.549 -4.3611 -5.42938 0
M  V30 7120 H 690.176 -5.01101 -5.71666 0
M  V30 7121 N 691.751 1.51645 -0.429126 0
M  V30 7122 C 693.167 1.59394 -0.080994 0
M  V30 7123 C 693.367 1.44064 1.40882 0
M  V30 7124 O 692.423 1.27771 2.17786 0
M  V30 7125 C 693.736 2.94779 -0.593773 0
M  V30 7126 C 695.284 3.08067 -0.553494 0
M  V30 7127 C 695.759 4.45963 -1.04311 0
M  V30 7128 N 697.25 4.5226 -1.00076 0
M  V30 7129 C 697.985 5.57268 -1.35056 0
M  V30 7130 N 697.481 6.69734 -1.77282 0
M  V30 7131 N 699.274 5.47582 -1.26925 0
M  V30 7132 H 691.425 1.59856 -1.39857 0
M  V30 7133 H 693.688 0.753095 -0.575805 0
M  V30 7134 H 693.394 3.11342 -1.63583 0
M  V30 7135 H 693.268 3.77197 -0.0142202 0
M  V30 7136 H 695.655 2.91177 0.479556 0
M  V30 7137 H 695.736 2.27508 -1.16935 0
M  V30 7138 H 695.38 4.63598 -2.07459 0
M  V30 7139 H 695.31 5.25049 -0.403873 0
M  V30 7140 H 697.801 3.71537 -0.690564 0
M  V30 7141 H 698.114 7.4587 -2.02232 0
M  V30 7142 H 696.459 6.70963 -1.81202 0
M  V30 7143 H 699.65 4.58604 -0.93809 0
M  V30 7144 H 699.823 6.29308 -1.54516 0
M  V30 7145 N 693.229 0.160201 1.56784 0
M  V30 7146 C 694.459 -0.493449 2.00621 0
M  V30 7147 C 694.867 -1.5809 1.03943 0
M  V30 7148 O 694.21 -1.83675 0.0305343 0
M  V30 7149 C 694.272 -1.14169 3.4089 0
M  V30 7150 C 693.936 -0.197243 4.56574 0
M  V30 7151 C 694.933 0.580174 5.16653 0
M  V30 7152 C 692.618 -0.0963038 5.02208 0
M  V30 7153 C 694.612 1.44584 6.20785 0
M  V30 7154 C 692.299 0.772959 6.06192 0
M  V30 7155 C 693.297 1.54263 6.65351 0
M  V30 7156 O 692.985 2.39738 7.67321 0
M  V30 7157 H 692.717 -0.131764 0.663034 0
M  V30 7158 H 695.271 0.255728 2.03802 0
M  V30 7159 H 693.501 -1.93877 3.34587 0
M  V30 7160 H 695.19 -1.69641 3.6875 0
M  V30 7161 H 695.956 0.5123 4.82287 0
M  V30 7162 H 691.835 -0.685143 4.5588 0
M  V30 7163 H 695.379 2.04706 6.66889 0
M  V30 7164 H 691.276 0.842077 6.39984 0
M  V30 7165 H 692.044 2.33131 7.84597 0
M  V30 7166 N 694.707 -1.5719 -0.113559 0
M  V30 7167 C 695.639 -1.97393 -1.16484 0
M  V30 7168 C 696.652 -0.873964 -1.37352 0
M  V30 7169 O 697.841 -1.15222 -1.36331 0
M  V30 7170 C 694.941 -2.26174 -2.52386 0
M  V30 7171 C 694.114 -3.57479 -2.52046 0
M  V30 7172 C 693.173 -3.74409 -3.69735 0
M  V30 7173 O 692.199 -4.46463 -3.53071 0
M  V30 7174 N 693.401 -3.13588 -4.88511 0
M  V30 7175 H 696.166 -2.88184 -0.822814 0
M  V30 7176 H 693.727 -1.59044 -0.302769 0
M  V30 7177 H 695.719 -2.3471 -3.29687 0
M  V30 7178 H 694.289 -1.41483 -2.7875 0
M  V30 7179 H 693.509 -3.60081 -1.60421 0
M  V30 7180 H 694.797 -4.43775 -2.48881 0
M  V30 7181 H 694.195 -2.55026 -5.04953 0
M  V30 7182 H 692.752 -3.27637 -5.63469 0
M  V30 7183 N 696.185 0.383891 -1.52853 0
M  V30 7184 C 697.41 1.154 -1.7233 0
M  V30 7185 C 697.835 1.82809 -0.44298 0
M  V30 7186 O 697.193 1.71026 0.601645 0
M  V30 7187 C 697.241 2.17386 -2.87708 0
M  V30 7188 O 696.345 3.24082 -2.55038 0
M  V30 7189 H 695.686 0.335709 -0.572883 0
M  V30 7190 H 698.216 0.44662 -1.99666 0
M  V30 7191 H 698.226 2.61296 -3.1335 0
M  V30 7192 H 696.901 1.6771 -3.80587 0
M  V30 7193 H 695.478 2.85273 -2.40153 0
M  V30 7194 N 697.663 1.43903 0.642637 0
M  V30 7195 C 698.909 1.46296 1.40447 0
M  V30 7196 C 699.242 0.0908361 1.93987 0
M  V30 7197 O 698.517 -0.889884 1.72949 0
M  V30 7198 C 698.8 2.51399 2.57819 0
M  V30 7199 C 698.653 3.97926 2.09702 0
M  V30 7200 C 699.972 2.53125 3.60022 0
M  V30 7201 H 697.091 0.532676 0.509338 0
M  V30 7202 H 699.733 1.75515 0.727635 0
M  V30 7203 H 697.883 2.26614 3.1556 0
M  V30 7204 H 699.555 4.33804 1.5688 0
M  V30 7205 H 697.798 4.10252 1.40982 0
M  V30 7206 H 698.469 4.67096 2.94152 0
M  V30 7207 H 700.945 2.75242 3.12059 0
M  V30 7208 H 699.821 3.28589 4.39682 0
M  V30 7209 H 700.082 1.56895 4.13324 0
M  V30 7210 N 699.141 -0.881989 1.30609 0
M  V30 7211 C 700.381 -1.64817 1.20891 0
M  V30 7212 C 700.745 -1.90593 -0.232043 0
M  V30 7213 O 701.946 -2.64964 -0.452516 0
M  V30 7214 C 700.217 -2.95006 2.01758 0
M  V30 7215 S 701.776 -3.85953 2.08771 0
M  V30 7216 H 698.594 -0.565651 0.430767 0
M  V30 7217 H 701.196 -1.04665 1.65122 0
M  V30 7218 H 699.9 -2.73973 3.0556 0
M  V30 7219 H 699.431 -3.60189 1.582 0
M  V30 7220 H 701.446 -4.81037 1.21727 0
M  V30 7221 N 700.619 -1.13374 -1.09472 0
M  V30 7222 C 701.844 -0.918711 -1.85942 0
M  V30 7223 C 702.269 0.527225 -1.8056 0
M  V30 7224 O 701.627 1.37408 -1.18274 0
M  V30 7225 C 701.675 -1.41056 -3.31867 0
M  V30 7226 O 700.779 -0.595496 -4.08078 0
M  V30 7227 H 700.12 -0.329297 -0.576593 0
M  V30 7228 H 702.65 -1.50829 -1.38245 0
M  V30 7229 H 702.66 -1.41398 -3.82715 0
M  V30 7230 H 701.335 -2.46335 -3.35099 0
M  V30 7231 H 699.912 -0.659911 -3.67014 0
M  V30 7232 N 702.098 1.27442 -0.927168 0
M  V30 7233 C 703.345 1.94391 -0.567324 0
M  V30 7234 C 703.673 1.72875 0.891321 0
M  V30 7235 O 702.928 1.05071 1.65102 0
M  V30 7236 C 703.227 3.47413 -0.838994 0
M  V30 7237 C 702.893 3.89049 -2.2793 0
M  V30 7238 C 701.555 4.00127 -2.67305 0
M  V30 7239 C 703.907 4.10154 -3.21595 0
M  V30 7240 C 701.235 4.29697 -3.99471 0
M  V30 7241 C 703.587 4.41208 -4.53341 0
M  V30 7242 C 702.251 4.50499 -4.92551 0
M  V30 7243 H 701.521 0.711325 -0.207598 0
M  V30 7244 H 704.168 1.51523 -1.17103 0
M  V30 7245 H 702.473 3.91503 -0.152609 0
M  V30 7246 H 704.17 3.97354 -0.53955 0
M  V30 7247 H 700.76 3.80962 -1.96381 0
M  V30 7248 H 704.944 4.01036 -2.92377 0
M  V30 7249 H 700.2 4.35099 -4.29533 0
M  V30 7250 H 704.374 4.56486 -5.25922 0
M  V30 7251 H 702.001 4.73167 -5.94994 0
M  V30 7252 N 703.576 0.692616 1.41565 0
M  V30 7253 C 704.804 0.231279 2.05603 0
M  V30 7254 C 705.219 -1.11837 1.52111 0
M  V30 7255 O 704.576 -1.6983 0.66813 0
M  V30 7256 C 704.627 0.177125 3.61066 0
M  V30 7257 O 704.348 1.47346 4.12578 0
M  V30 7258 C 705.849 -0.30556 4.42246 0
M  V30 7259 H 703.069 0.108238 0.662213 0
M  V30 7260 H 705.613 0.944369 1.81389 0
M  V30 7261 H 703.768 -0.486769 3.8433 0
M  V30 7262 H 704.182 1.35861 5.06599 0
M  V30 7263 H 705.656 -0.29233 5.51225 0
M  V30 7264 H 706.133 -1.34393 4.18133 0
M  V30 7265 H 706.739 0.327229 4.24039 0
M  V30 7266 N 705.054 -1.51416 0.437162 0
M  V30 7267 C 706.294 -2.03995 -0.128538 0
M  V30 7268 C 706.658 -1.31417 -1.39977 0
M  V30 7269 O 707.859 -1.74369 -2.0457 0
M  V30 7270 C 706.13 -3.55757 -0.342317 0
M  V30 7271 S 707.689 -4.3006 -0.871446 0
M  V30 7272 H 704.507 -0.710283 -0.0319322 0
M  V30 7273 H 707.109 -1.86177 0.596526 0
M  V30 7274 H 705.813 -4.06148 0.589233 0
M  V30 7275 H 705.344 -3.77869 -1.09447 0
M  V30 7276 H 707.359 -4.47248 -2.14903 0
M  V30 7277 N 706.532 -0.168513 -1.56696 0
M  V30 7278 C 707.48 0.779791 -2.19139 0
M  V30 7279 C 708.474 1.23957 -1.1546 0
M  V30 7280 O 709.68 1.20555 -1.33666 0
M  V30 7281 H 706.055 0.269739 -0.701958 0
M  V30 7282 H 708.026 0.229156 -2.97519 0
M  V30 7283 C 706.775 2.00003 -2.84419 0
M  V30 7284 H 706.098 1.65527 -3.63924 0
M  V30 7285 H 707.538 2.64251 -3.31583 0
M  V30 7286 C 705.997 2.82187 -1.84044 0
M  V30 7287 O 706.527 3.79247 -1.32418 0
M  V30 7288 N 704.733 2.47145 -1.52864 0
M  V30 7289 H 704.28 1.68277 -1.9504 0
M  V30 7290 H 704.238 3.02422 -0.859569 0
M  V30 7291 N 708.01 1.57248 0.105221 0
M  V30 7292 C 708.92 2.04653 1.14693 0
M  V30 7293 C 709.936 0.969488 1.44489 0
M  V30 7294 O 711.112 1.28196 1.55331 0
M  V30 7295 C 708.177 2.45297 2.45011 0
M  V30 7296 C 707.238 3.67148 2.22489 0
M  V30 7297 C 706.471 4.05844 3.46592 0
M  V30 7298 O 706.694 3.44736 4.54437 0
M  V30 7299 O 705.628 4.98862 3.36779 0
M  V30 7300 H 709.454 2.93663 0.774336 0
M  V30 7301 H 707.039 1.45998 0.31701 0
M  V30 7302 H 708.921 2.72112 3.21766 0
M  V30 7303 H 707.596 1.59429 2.81717 0
M  V30 7304 H 706.503 3.45463 1.43547 0
M  V30 7305 H 707.836 4.53764 1.9068 0
M  V30 7306 N 709.488 -0.375779 1.53054 0
M  V30 7307 C 710.736 -1.11727 1.68409 0
M  V30 7308 C 711.057 -1.90127 0.43323 0
M  V30 7309 O 710.327 -1.87945 -0.552595 0
M  V30 7310 H 708.907 -0.415451 0.620813 0
M  V30 7311 H 711.569 -0.424869 1.90213 0
M  V30 7312 H 710.665 -1.8128 2.54055 0
M  V30 7313 N 710.966 -1.44241 -0.634997 0
M  V30 7314 C 711.896 -1.53632 -1.7584 0
M  V30 7315 C 712.877 -0.389603 -1.65578 0
M  V30 7316 O 714.062 -0.609219 -1.84397 0
M  V30 7317 C 711.192 -1.47644 -3.14354 0
M  V30 7318 C 710.146 -2.60752 -3.394 0
M  V30 7319 C 709.472 -2.39817 -4.77904 0
M  V30 7320 C 710.772 -4.02921 -3.32343 0
M  V30 7321 H 712.466 -2.47662 -1.68238 0
M  V30 7322 H 710.012 -1.19197 -0.807969 0
M  V30 7323 H 711.965 -1.52815 -3.92716 0
M  V30 7324 H 710.689 -0.501284 -3.2273 0
M  V30 7325 H 709.348 -2.54965 -2.63417 0
M  V30 7326 H 708.996 -1.40502 -4.82978 0
M  V30 7327 H 708.696 -3.15649 -4.9562 0
M  V30 7328 H 710.22 -2.46799 -5.585 0
M  V30 7329 H 711.634 -4.10098 -4.00615 0
M  V30 7330 H 710.031 -4.78925 -3.61595 0
M  V30 7331 H 711.101 -4.26766 -2.30215 0
M  V30 7332 N 712.444 0.87505 -1.31075 0
M  V30 7333 C 713.374 1.99775 -1.20881 0
M  V30 7334 C 714.355 1.69822 -0.0971612 0
M  V30 7335 O 715.54 1.92158 -0.280895 0
M  V30 7336 C 712.67 3.35163 -0.910118 0
M  V30 7337 C 711.624 3.79406 -1.98078 0
M  V30 7338 C 710.95 5.12197 -1.53488 0
M  V30 7339 C 712.25 3.97061 -3.39323 0
M  V30 7340 H 713.944 2.08562 -2.14808 0
M  V30 7341 H 711.49 1.00207 -1.03415 0
M  V30 7342 H 713.443 4.13237 -0.825423 0
M  V30 7343 H 712.167 3.26536 0.064822 0
M  V30 7344 H 710.826 3.03568 -2.05528 0
M  V30 7345 H 710.474 5.00007 -0.547941 0
M  V30 7346 H 710.174 5.4277 -2.2511 0
M  V30 7347 H 711.698 5.92785 -1.46417 0
M  V30 7348 H 713.112 4.65545 -3.34576 0
M  V30 7349 H 711.509 4.39025 -4.09118 0
M  V30 7350 H 712.579 3.00601 -3.80483 0
M  V30 7351 N 713.922 1.13953 1.08869 0
M  V30 7352 C 714.852 0.844824 2.17681 0
M  V30 7353 C 715.833 -0.198213 1.68941 0
M  V30 7354 O 717.018 -0.0559073 1.9412 0
M  V30 7355 C 714.148 0.316325 3.45856 0
M  V30 7356 C 713.102 1.29426 4.07962 0
M  V30 7357 C 712.428 0.625275 5.31031 0
M  V30 7358 C 713.728 2.65484 4.49795 0
M  V30 7359 H 715.422 1.75471 2.42591 0
M  V30 7360 H 712.968 0.845116 1.16592 0
M  V30 7361 H 714.921 0.0977876 4.21287 0
M  V30 7362 H 713.645 -0.628972 3.20486 0
M  V30 7363 H 712.304 1.49889 3.34558 0
M  V30 7364 H 711.952 -0.325678 5.01945 0
M  V30 7365 H 711.652 1.27777 5.73539 0
M  V30 7366 H 713.176 0.416152 6.0918 0
M  V30 7367 H 714.59 2.48957 5.16424 0
M  V30 7368 H 712.987 3.26963 5.03205 0
M  V30 7369 H 714.057 3.22717 3.61914 0
M  V30 7370 N 715.4 -1.26948 0.933913 0
M  V30 7371 C 716.646 -1.94374 0.57848 0
M  V30 7372 C 716.979 -1.73166 -0.879048 0
M  V30 7373 O 716.254 -1.06438 -1.62792 0
M  V30 7374 C 716.537 -3.4834 0.912739 0
M  V30 7375 C 716.39 -3.78866 2.42448 0
M  V30 7376 C 717.709 -4.38062 0.423003 0
M  V30 7377 H 714.828 -0.705959 0.211639 0
M  V30 7378 H 717.47 -1.49951 1.16682 0
M  V30 7379 H 715.62 -3.86309 0.412058 0
M  V30 7380 H 717.292 -3.50654 2.99733 0
M  V30 7381 H 715.535 -3.25198 2.87104 0
M  V30 7382 H 716.206 -4.86458 2.60887 0
M  V30 7383 H 718.682 -4.0728 0.852191 0
M  V30 7384 H 717.558 -5.44599 0.685776 0
M  V30 7385 H 717.819 -4.36886 -0.676994 0
M  V30 7386 N 716.879 -0.700114 -1.41195 0
M  V30 7387 C 718.127 -0.232546 -2.00758 0
M  V30 7388 C 718.448 1.1734 -1.55745 0
M  V30 7389 O 717.718 1.79262 -0.790058 0
M  V30 7390 H 716.298 -0.0829845 -0.742376 0
M  V30 7391 H 718.96 -0.902289 -1.72756 0
M  V30 7392 H 718.056 -0.253521 -3.11069 0
M  V30 7393 N 718.357 1.51182 -0.445186 0
M  V30 7394 C 719.32 2.26501 0.350722 0
M  V30 7395 C 720.32 1.3025 0.942952 0
M  V30 7396 O 721.51 1.53897 0.816175 0
M  V30 7397 C 718.642 3.06274 1.49697 0
M  V30 7398 H 719.835 2.98299 -0.309474 0
M  V30 7399 H 717.388 1.55034 -0.198551 0
M  V30 7400 H 718.123 2.38911 2.19299 0
M  V30 7401 H 717.908 3.76979 1.0784 0
M  V30 7402 H 719.398 3.63306 2.05909 0
M  V30 7403 N 719.835 0.176821 1.56605 0
M  V30 7404 C 721.06 -0.47599 2.01864 0
M  V30 7405 C 721.485 -1.55645 1.05623 0
M  V30 7406 O 720.843 -1.81263 0.0366729 0
M  V30 7407 C 720.891 -1.02619 3.4569 0
M  V30 7408 O 719.995 -2.13996 3.52533 0
M  V30 7409 H 719.336 -0.113363 0.654251 0
M  V30 7410 H 721.866 0.28233 2.02643 0
M  V30 7411 H 721.876 -1.34742 3.85109 0
M  V30 7412 H 720.551 -0.235138 4.15235 0
M  V30 7413 H 719.128 -1.82876 3.24978 0
M  V30 7414 N 721.313 -1.57302 -0.09688 0
M  V30 7415 C 722.559 -1.86273 -0.801885 0
M  V30 7416 C 722.892 -0.765694 -1.78468 0
M  V30 7417 O 722.167 0.226495 -1.93177 0
M  V30 7418 C 722.45 -3.25876 -1.53221 0
M  V30 7419 C 722.303 -4.46205 -0.567529 0
M  V30 7420 C 723.622 -3.63352 -2.48321 0
M  V30 7421 H 720.741 -0.67752 -0.29006 0
M  V30 7422 H 723.383 -1.89887 -0.0655577 0
M  V30 7423 H 721.533 -3.22926 -2.15988 0
M  V30 7424 H 723.205 -4.6127 0.0529982 0
M  V30 7425 H 721.448 -4.33636 0.119233 0
M  V30 7426 H 722.119 -5.40608 -1.11564 0
M  V30 7427 H 724.595 -3.67234 -1.95648 0
M  V30 7428 H 723.471 -4.61968 -2.9644 0
M  V30 7429 H 723.732 -2.91941 -3.31998 0
M  V30 7430 N 722.791 0.367657 -1.53252 0
M  V30 7431 C 723.721 1.45632 -1.8252 0
M  V30 7432 C 724.702 1.55979 -0.678568 0
M  V30 7433 O 725.887 1.70581 -0.928217 0
M  V30 7434 C 723.017 2.82994 -2.01325 0
M  V30 7435 C 721.971 2.87473 -3.17086 0
M  V30 7436 C 721.297 4.2749 -3.21179 0
M  V30 7437 C 722.597 2.55182 -4.55719 0
M  V30 7438 H 724.291 1.21387 -2.73689 0
M  V30 7439 H 721.837 0.58251 -1.31692 0
M  V30 7440 H 723.79 3.59179 -2.20383 0
M  V30 7441 H 722.514 3.08622 -1.06864 0
M  V30 7442 H 721.173 2.13739 -2.97844 0
M  V30 7443 H 720.821 4.5019 -2.24361 0
M  V30 7444 H 720.521 4.31403 -3.98955 0
M  V30 7445 H 722.045 5.0555 -3.42419 0
M  V30 7446 H 723.459 3.21081 -4.74953 0
M  V30 7447 H 721.856 2.70414 -5.3572 0
M  V30 7448 H 722.926 1.5044 -4.60973 0
M  V30 7449 N 724.269 1.44576 0.627338 0
M  V30 7450 C 725.201 1.47724 1.75243 0
M  V30 7451 C 726.214 0.370193 1.58535 0
M  V30 7452 O 727.403 0.636151 1.66779 0
M  V30 7453 C 724.503 1.2991 3.13012 0
M  V30 7454 C 723.676 2.5393 3.56143 0
M  V30 7455 C 722.735 2.30961 4.72804 0
M  V30 7456 O 721.761 3.04469 4.80923 0
M  V30 7457 N 722.963 1.34261 5.6476 0
M  V30 7458 H 725.728 2.44718 1.73012 0
M  V30 7459 H 723.289 1.40064 0.812022 0
M  V30 7460 H 725.281 1.12385 3.88782 0
M  V30 7461 H 723.851 0.412668 3.09864 0
M  V30 7462 H 723.071 2.86707 2.70542 0
M  V30 7463 H 724.359 3.36411 3.81713 0
M  V30 7464 H 723.757 0.735573 5.60897 0
M  V30 7465 H 722.314 1.22713 6.40144 0
M  V30 7466 N 725.747 -0.868086 1.31537 0
M  V30 7467 C 726.987 -1.63526 1.22632 0
M  V30 7468 C 727.351 -1.90828 -0.211815 0
M  V30 7469 O 728.552 -2.65429 -0.424387 0
M  V30 7470 C 726.823 -2.92849 2.04876 0
M  V30 7471 S 728.382 -3.83717 2.12853 0
M  V30 7472 H 725.2 -0.56105 0.436743 0
M  V30 7473 H 727.802 -1.02908 1.66223 0
M  V30 7474 H 726.506 -2.70717 3.08449 0
M  V30 7475 H 726.037 -3.58491 1.62011 0
M  V30 7476 H 728.052 -4.79719 1.26822 0
M  V30 7477 N 727.225 -1.14528 -1.08264 0
M  V30 7478 C 728.155 -0.856356 -2.1723 0
M  V30 7479 C 729.136 0.189251 -1.69044 0
M  V30 7480 O 730.321 0.0456119 -1.94146 0
M  V30 7481 C 727.451 -0.334662 -3.45684 0
M  V30 7482 C 726.405 -1.31588 -4.0727 0
M  V30 7483 C 725.731 -0.653428 -5.30692 0
M  V30 7484 C 727.031 -2.67866 -4.48381 0
M  V30 7485 H 728.725 -1.76755 -2.41657 0
M  V30 7486 H 726.271 -0.851287 -1.16143 0
M  V30 7487 H 728.224 -0.120128 -4.21229 0
M  V30 7488 H 726.948 0.611967 -3.20815 0
M  V30 7489 H 725.607 -1.51661 -3.33758 0
M  V30 7490 H 725.255 0.299054 -5.0211 0
M  V30 7491 H 724.955 -1.30817 -5.72853 0
M  V30 7492 H 726.479 -0.448453 -6.08951 0
M  V30 7493 H 727.893 -2.51692 -5.15096 0
M  V30 7494 H 726.29 -3.29627 -5.01464 0
M  V30 7495 H 727.36 -3.24632 -3.60198 0
M  V30 7496 N 728.703 1.26451 -0.940633 0
M  V30 7497 C 729.666 2.24651 -0.454378 0
M  V30 7498 C 730.666 1.54826 0.434222 0
M  V30 7499 O 731.856 1.72628 0.233477 0
M  V30 7500 C 728.988 3.39148 0.345192 0
M  V30 7501 H 730.181 2.69182 -1.32217 0
M  V30 7502 H 727.734 1.38596 -0.722547 0
M  V30 7503 H 728.469 3.00018 1.23125 0
M  V30 7504 H 728.254 3.9101 -0.292107 0
M  V30 7505 H 729.744 4.12103 0.675341 0
M  V30 7506 N 730.181 0.707592 1.40822 0
M  V30 7507 C 731.409 0.253073 2.05346 0
M  V30 7508 C 731.824 -1.10218 1.53289 0
M  V30 7509 O 731.181 -1.69112 0.686105 0
M  V30 7510 C 731.232 0.215411 3.60858 0
M  V30 7511 O 730.953 1.51714 4.10992 0
M  V30 7512 C 732.454 -0.258636 4.42545 0
M  V30 7513 H 729.674 0.115256 0.661027 0
M  V30 7514 H 732.218 0.963555 1.80377 0
M  V30 7515 H 730.373 -0.445978 3.84824 0
M  V30 7516 H 730.787 1.41226 5.05129 0
M  V30 7517 H 732.261 -0.233849 5.51504 0
M  V30 7518 H 732.738 -1.2995 4.19535 0
M  V30 7519 H 733.344 0.372186 4.23668 0
M  V30 7520 N 731.66 -1.50943 0.453197 0
M  V30 7521 C 732.908 -2.01813 -0.107709 0
M  V30 7522 C 733.229 -1.33841 -1.41816 0
M  V30 7523 O 732.499 -0.477973 -1.8998 0
M  V30 7524 H 731.079 -0.745773 -0.0427948 0
M  V30 7525 H 733.741 -1.8545 0.599531 0
M  V30 7526 H 732.837 -3.10911 -0.27218 0
M  V30 7527 N 733.138 -0.185124 -1.56509 0
M  V30 7528 C 734.086 0.756505 -2.19954 0
M  V30 7529 C 735.08 1.22725 -1.16769 0
M  V30 7530 O 736.286 1.1913 -1.34937 0
M  V30 7531 H 732.661 0.262279 -0.704779 0
M  V30 7532 H 734.632 0.197587 -2.97745 0
M  V30 7533 C 733.381 1.96975 -2.86524 0
M  V30 7534 H 732.704 1.61658 -3.65659 0
M  V30 7535 H 734.144 2.60719 -3.34367 0
M  V30 7536 C 732.603 2.80219 -1.87027 0
M  V30 7537 O 733.133 3.77821 -1.36433 0
M  V30 7538 N 731.339 2.4551 -1.55477 0
M  V30 7539 H 730.886 1.66199 -1.96813 0
M  V30 7540 H 730.844 3.01493 -0.891597 0
M  V30 7541 N 734.616 1.57351 0.0885366 0
M  V30 7542 C 735.862 1.87564 0.786842 0
M  V30 7543 C 736.217 0.776774 1.76023 0
M  V30 7544 O 735.51 -0.220637 1.90325 0
M  V30 7545 C 735.704 3.22098 1.5488 0
M  V30 7546 C 735.533 4.44967 0.650706 0
M  V30 7547 C 734.303 5.04444 0.293957 0
M  V30 7548 C 736.501 5.1428 -0.0452187 0
M  V30 7549 N 734.483 6.10846 -0.611609 0
M  V30 7550 C 735.854 6.14704 -0.808603 0
M  V30 7551 C 737.909 4.97759 -0.118451 0
M  V30 7552 C 736.612 7.00392 -1.63839 0
M  V30 7553 C 738.638 5.8396 -0.935157 0
M  V30 7554 C 738 6.83909 -1.68664 0
M  V30 7555 H 734.099 0.73613 0.263887 0
M  V30 7556 H 736.683 1.94638 0.049074 0
M  V30 7557 H 734.854 3.16064 2.2574 0
M  V30 7558 H 736.586 3.40015 2.19481 0
M  V30 7559 H 733.341 4.69214 0.643086 0
M  V30 7560 H 733.765 6.68695 -1.05714 0
M  V30 7561 H 738.407 4.20418 0.448202 0
M  V30 7562 H 736.125 7.7712 -2.21608 0
M  V30 7563 H 739.711 5.73236 -0.994579 0
M  V30 7564 H 738.591 7.49454 -2.30842 0
M  V30 7565 N 736.094 -0.359525 1.53444 0
M  V30 7566 C 737.042 -1.46104 1.80987 0
M  V30 7567 C 738.036 -1.55181 0.679351 0
M  V30 7568 O 739.242 -1.57995 0.862405 0
M  V30 7569 H 735.617 -0.486835 0.573145 0
M  V30 7570 H 737.588 -1.2008 2.73173 0
M  V30 7571 C 736.337 -2.82855 2.02208 0
M  V30 7572 H 735.66 -2.76631 2.88644 0
M  V30 7573 H 737.1 -3.59091 2.25455 0
M  V30 7574 C 735.559 -3.27192 0.802931 0
M  V30 7575 O 736.089 -4.017 -0.00544286 0
M  V30 7576 N 734.295 -2.83807 0.624657 0
M  V30 7577 H 733.842 -2.23339 1.28364 0
M  V30 7578 H 733.8 -3.13828 -0.189641 0
M  V30 7579 N 737.572 -1.44907 -0.619662 0
M  V30 7580 C 738.797 -1.52021 -1.41083 0
M  V30 7581 C 739.222 -0.14976 -1.87503 0
M  V30 7582 O 738.58 0.863303 -1.59426 0
M  V30 7583 C 738.628 -2.49911 -2.59955 0
M  V30 7584 O 737.732 -2.00857 -3.60181 0
M  V30 7585 H 737.073 -0.512912 -0.421684 0
M  V30 7586 H 739.603 -1.90149 -0.755282 0
M  V30 7587 H 739.613 -2.68323 -3.07354 0
M  V30 7588 H 738.288 -3.4945 -2.25516 0
M  V30 7589 H 736.865 -1.92265 -3.19513 0
M  V30 7590 N 739.05 0.861098 -1.31996 0
M  V30 7591 C 740.296 1.61721 -1.22369 0
M  V30 7592 C 740.629 1.93 0.215587 0
M  V30 7593 O 739.904 1.56789 1.15098 0
M  V30 7594 C 740.187 2.9417 -2.07691 0
M  V30 7595 C 740.04 2.69714 -3.59965 0
M  V30 7596 C 741.359 3.95372 -1.93312 0
M  V30 7597 H 738.478 0.586822 -0.44588 0
M  V30 7598 H 741.12 0.994788 -1.61876 0
M  V30 7599 H 739.27 3.47292 -1.74128 0
M  V30 7600 H 740.942 2.23196 -4.03709 0
M  V30 7601 H 739.185 2.03789 -3.82952 0
M  V30 7602 H 739.856 3.63996 -4.14983 0
M  V30 7603 H 742.332 3.51487 -2.22701 0
M  V30 7604 H 741.208 4.85916 -2.55298 0
M  V30 7605 H 741.469 4.32865 -0.898922 0
M  V30 7606 N 740.528 1.15101 1.07655 0
M  V30 7607 C 741.939 0.933848 1.61667 0
M  V30 7608 C 742.29 -0.525569 1.8903 0
M  V30 7609 O 741.415 -1.39605 1.65346 0
M  V30 7610 C 742.01 1.68876 2.93711 0
M  V30 7611 C 740.569 1.51697 3.44478 0
M  V30 7612 C 739.716 1.70633 2.18586 0
M  V30 7613 H 742.667 1.30171 0.907816 0
M  V30 7614 H 742.688 1.15645 3.625 0
M  V30 7615 H 742.2 2.7509 2.73764 0
M  V30 7616 H 740.301 0.478635 3.69513 0
M  V30 7617 H 740.414 2.29194 4.20722 0
M  V30 7618 H 738.778 1.13259 2.28132 0
M  V30 7619 H 739.561 2.78206 2.01137 0
M  V30 7620 N 742.006 -1.2595 0.947325 0
M  V30 7621 C 743.417 -1.75389 0.639963 0
M  V30 7622 C 743.768 -1.77081 -0.844788 0
M  V30 7623 O 742.893 -1.3869 -1.66114 0
M  V30 7624 C 743.488 -3.18506 1.15496 0
M  V30 7625 C 742.047 -3.65534 0.897894 0
M  V30 7626 C 741.194 -2.44818 1.30228 0
M  V30 7627 H 744.145 -1.1194 1.12495 0
M  V30 7628 H 744.166 -3.77045 0.511627 0
M  V30 7629 H 743.678 -3.17243 2.23559 0
M  V30 7630 H 741.779 -3.72221 -0.168096 0
M  V30 7631 H 741.892 -4.54039 1.52922 0
M  V30 7632 H 740.256 -2.44291 0.720678 0
M  V30 7633 H 741.039 -2.46251 2.39198 0
M  V30 7634 N 743.484 -0.715051 -1.40445 0
M  V30 7635 C 744.394 -0.0631624 -2.34515 0
M  V30 7636 C 745.41 0.744397 -1.57273 0
M  V30 7637 O 746.586 0.677475 -1.89663 0
M  V30 7638 C 743.651 0.847915 -3.36172 0
M  V30 7639 C 742.712 0.0303655 -4.29289 0
M  V30 7640 C 741.945 0.898051 -5.2609 0
M  V30 7641 O 742.168 2.13729 -5.28844 0
M  V30 7642 O 741.102 0.337328 -6.00954 0
M  V30 7643 H 744.928 -0.839078 -2.91879 0
M  V30 7644 H 742.513 -0.475527 -1.4163 0
M  V30 7645 H 744.395 1.3698 -3.98515 0
M  V30 7646 H 743.07 1.60299 -2.81222 0
M  V30 7647 H 741.977 -0.536573 -3.70232 0
M  V30 7648 H 743.31 -0.686474 -4.87389 0
M  V30 7649 N 744.962 1.50701 -0.461195 0
M  V30 7650 C 746.202 2.04174 0.0960673 0
M  V30 7651 C 746.566 1.33628 1.37868 0
M  V30 7652 O 747.767 1.77602 2.0177 0
M  V30 7653 C 746.038 3.56256 0.285676 0
M  V30 7654 S 747.597 4.31392 0.802917 0
M  V30 7655 H 744.415 0.710701 0.0206282 0
M  V30 7656 H 747.017 1.85204 -0.62607 0
M  V30 7657 H 745.721 4.05159 -0.653773 0
M  V30 7658 H 745.252 3.79562 1.03421 0
M  V30 7659 H 747.267 4.50611 2.07761 0
M  V30 7660 N 746.441 0.193421 1.56409 0
M  V30 7661 C 747.373 -0.759944 2.16235 0
M  V30 7662 C 748.386 -1.17797 1.12373 0
M  V30 7663 O 749.575 -1.11399 1.39472 0
M  V30 7664 C 746.675 -2.03735 2.70823 0
M  V30 7665 C 745.848 -1.77939 3.9957 0
M  V30 7666 C 744.907 -2.90111 4.39001 0
M  V30 7667 O 743.933 -2.59791 5.06456 0
M  V30 7668 N 745.135 -4.18426 4.02368 0
M  V30 7669 H 747.9 -0.248348 2.98669 0
M  V30 7670 H 745.461 0.0113966 1.61896 0
M  V30 7671 H 747.453 -2.77914 2.94187 0
M  V30 7672 H 746.023 -2.46022 1.92852 0
M  V30 7673 H 745.243 -0.875491 3.84355 0
M  V30 7674 H 746.531 -1.58099 4.83614 0
M  V30 7675 H 745.929 -4.45913 3.48106 0
M  V30 7676 H 744.486 -4.89237 4.30686 0
M  V30 7677 N 747.919 -1.57396 -0.0801906 0
M  V30 7678 C 748.882 -2.02133 -1.0805 0
M  V30 7679 C 749.882 -0.91707 -1.32085 0
M  V30 7680 O 751.072 -1.18217 -1.27947 0
M  V30 7681 C 748.204 -2.39479 -2.42616 0
M  V30 7682 H 749.397 -2.91733 -0.6951 0
M  V30 7683 H 746.95 -1.52869 -0.325677 0
M  V30 7684 H 747.685 -1.52879 -2.86004 0
M  V30 7685 H 747.47 -3.20052 -2.26515 0
M  V30 7686 H 748.96 -2.74697 -3.14534 0
M  V30 7687 N 749.397 0.351382 -1.53633 0
M  V30 7688 C 750.646 1.08988 -1.69719 0
M  V30 7689 C 750.959 1.90043 -0.462948 0
M  V30 7690 O 752.165 2.66769 -0.504613 0
M  V30 7691 C 750.621 1.98691 -3.00083 0
M  V30 7692 C 750.229 1.22881 -4.30818 0
M  V30 7693 C 751.973 2.72446 -3.25536 0
M  V30 7694 C 749.88 2.11568 -5.52262 0
M  V30 7695 H 748.81 0.410588 -0.632403 0
M  V30 7696 H 751.461 0.349886 -1.80133 0
M  V30 7697 H 749.843 2.76478 -2.83506 0
M  V30 7698 H 751.017 0.500582 -4.58073 0
M  V30 7699 H 749.332 0.60928 -4.11918 0
M  V30 7700 H 751.929 3.39055 -4.13456 0
M  V30 7701 H 752.272 3.38588 -2.42206 0
M  V30 7702 H 752.805 2.01735 -3.42852 0
M  V30 7703 H 749.544 1.4998 -6.38111 0
M  V30 7704 H 749.064 2.82201 -5.29266 0
M  V30 7705 H 750.743 2.70802 -5.87601 0
M  V30 7706 N 750.875 1.45233 0.611969 0
M  V30 7707 C 752.286 1.4354 1.19387 0
M  V30 7708 C 752.637 0.160713 1.95541 0
M  V30 7709 O 751.762 -0.737954 2.03429 0
M  V30 7710 C 752.357 2.60045 2.17169 0
M  V30 7711 C 750.916 2.61486 2.70744 0
M  V30 7712 C 750.063 2.35708 1.46072 0
M  V30 7713 H 753.014 1.53536 0.401529 0
M  V30 7714 H 753.035 2.33893 3.00124 0
M  V30 7715 H 752.547 3.52803 1.61714 0
M  V30 7716 H 750.648 1.72721 3.30149 0
M  V30 7717 H 750.761 3.60572 3.15476 0
M  V30 7718 H 749.125 1.85178 1.74875 0
M  V30 7719 H 749.908 3.30606 0.924922 0
M  V30 7720 N 752.353 -0.854086 1.3245 0
M  V30 7721 C 753.593 -1.62216 1.2436 0
M  V30 7722 C 753.957 -1.91042 -0.191564 0
M  V30 7723 O 755.158 -2.65864 -0.396211 0
M  V30 7724 C 753.429 -2.9066 2.0797 0
M  V30 7725 S 754.988 -3.81438 2.16911 0
M  V30 7726 H 751.806 -0.556386 0.442669 0
M  V30 7727 H 754.408 -1.01139 1.67305 0
M  V30 7728 H 753.112 -2.6743 3.11302 0
M  V30 7729 H 752.643 -3.56753 1.65805 0
M  V30 7730 H 754.658 -4.78347 1.31903 0
M  V30 7731 N 753.831 -1.1567 -1.07043 0
M  V30 7732 C 755.059 -0.957471 -1.83412 0
M  V30 7733 C 755.474 0.494271 -1.82215 0
M  V30 7734 O 754.831 1.34288 -1.23584 0
M  V30 7735 C 754.882 -1.46784 -3.30359 0
M  V30 7736 O 754.603 -2.86271 -3.31633 0
M  V30 7737 C 756.104 -1.31054 -4.23485 0
M  V30 7738 H 753.324 -0.33986 -0.578564 0
M  V30 7739 H 755.868 -1.53518 -1.35102 0
M  V30 7740 H 754.023 -0.932586 -3.76007 0
M  V30 7741 H 754.437 -3.0948 -4.23465 0
M  V30 7742 H 755.911 -1.71605 -5.24648 0
M  V30 7743 H 756.388 -0.255107 -4.38458 0
M  V30 7744 H 756.994 -1.83503 -3.83676 0
M  V30 7745 N 755.309 1.25446 -0.953992 0
M  V30 7746 C 756.72 1.75047 -0.649255 0
M  V30 7747 C 757.071 1.77527 0.835385 0
M  V30 7748 O 756.196 1.39569 1.65377 0
M  V30 7749 C 756.791 3.17889 -1.17183 0
M  V30 7750 C 755.35 3.65052 -0.917267 0
M  V30 7751 C 754.497 2.44124 -1.31525 0
M  V30 7752 H 757.448 1.11342 -1.13087 0
M  V30 7753 H 757.469 3.76768 -0.531616 0
M  V30 7754 H 756.981 3.16052 -2.25239 0
M  V30 7755 H 755.082 3.72305 0.148354 0
M  V30 7756 H 755.195 4.53222 -1.55328 0
M  V30 7757 H 753.559 2.43906 -0.733624 0
M  V30 7758 H 754.342 2.44979 -2.405 0
M  V30 7759 N 756.787 0.722489 1.40064 0
M  V30 7760 C 757.717 0.0892452 2.33329 0
M  V30 7761 C 758.698 -0.737992 1.53257 0
M  V30 7762 O 759.883 -0.685516 1.81698 0
M  V30 7763 C 757.013 -0.828139 3.37282 0
M  V30 7764 C 755.967 -0.106005 4.27869 0
M  V30 7765 C 755.293 -1.13957 5.22415 0
M  V30 7766 C 756.593 1.04395 5.11761 0
M  V30 7767 H 758.287 0.868269 2.86534 0
M  V30 7768 H 755.833 0.418982 1.3777 0
M  V30 7769 H 757.786 -1.28058 4.01471 0
M  V30 7770 H 756.51 -1.63914 2.82489 0
M  V30 7771 H 755.169 0.326683 3.65142 0
M  V30 7772 H 754.817 -1.9438 4.63924 0
M  V30 7773 H 754.517 -0.661233 5.83868 0
M  V30 7774 H 756.041 -1.59197 5.89482 0
M  V30 7775 H 757.455 0.670541 5.69365 0
M  V30 7776 H 755.852 1.4511 5.82291 0
M  V30 7777 H 756.922 1.87144 4.47331 0
M  V30 7778 N 758.265 -1.50454 0.469181 0
M  V30 7779 C 759.195 -2.31353 -0.31592 0
M  V30 7780 C 760.176 -1.38172 -0.992094 0
M  V30 7781 O 761.361 -1.67093 -0.989633 0
M  V30 7782 C 758.491 -3.1786 -1.39937 0
M  V30 7783 C 757.445 -4.19578 -0.844909 0
M  V30 7784 C 756.771 -4.9481 -2.0265 0
M  V30 7785 C 758.071 -5.22106 0.142499 0
M  V30 7786 H 759.765 -2.97237 0.359269 0
M  V30 7787 H 757.311 -1.42942 0.174224 0
M  V30 7788 H 759.264 -3.7325 -1.95607 0
M  V30 7789 H 757.988 -2.49858 -2.1033 0
M  V30 7790 H 756.647 -3.65285 -0.310189 0
M  V30 7791 H 756.295 -4.23282 -2.71737 0
M  V30 7792 H 755.995 -5.63613 -1.66174 0
M  V30 7793 H 757.519 -5.53035 -2.58815 0
M  V30 7794 H 758.933 -5.72378 -0.324966 0
M  V30 7795 H 757.33 -5.98618 0.421441 0
M  V30 7796 H 758.4 -4.7297 1.06901 0
M  V30 7797 N 759.743 -0.201713 -1.56304 0
M  V30 7798 C 760.968 0.443815 -2.02596 0
M  V30 7799 C 761.393 1.53945 -1.08086 0
M  V30 7800 O 760.751 1.81182 -0.0655056 0
M  V30 7801 C 760.799 0.971066 -3.47279 0
M  V30 7802 O 759.903 2.0836 -3.55893 0
M  V30 7803 H 759.244 0.10294 -0.655972 0
M  V30 7804 H 761.774 -0.314533 -2.02168 0
M  V30 7805 H 761.784 1.28598 -3.87204 0
M  V30 7806 H 760.459 0.169048 -4.15556 0
M  V30 7807 H 759.036 1.77683 -3.27846 0
M  V30 7808 N 761.222 1.57436 0.0718424 0
M  V30 7809 C 762.633 1.75975 0.623678 0
M  V30 7810 C 762.984 0.827155 1.77912 0
M  V30 7811 O 762.109 0.0112425 2.16397 0
M  V30 7812 C 762.704 3.1911 1.13816 0
M  V30 7813 C 761.263 3.38994 1.63586 0
M  V30 7814 C 760.41 2.71684 0.555261 0
M  V30 7815 H 763.361 1.57948 -0.154328 0
M  V30 7816 H 763.382 3.23267 2.00696 0
M  V30 7817 H 762.894 3.86962 0.296998 0
M  V30 7818 H 760.995 2.76256 2.50027 0
M  V30 7819 H 761.108 4.47436 1.71283 0
M  V30 7820 H 759.472 2.34236 1.00029 0
M  V30 7821 H 760.255 3.42191 -0.275712 0
M  V30 7822 N 762.7 -0.34323 1.53817 0
M  V30 7823 C 763.632 -1.44216 1.78141 0
M  V30 7824 C 764.645 -1.48701 0.662721 0
M  V30 7825 O 765.834 -1.51778 0.939458 0
M  V30 7826 C 762.934 -2.82872 1.86646 0
M  V30 7827 C 762.107 -3.01824 3.16577 0
M  V30 7828 C 761.166 -4.20723 3.16036 0
M  V30 7829 O 760.192 -4.14824 3.89756 0
M  V30 7830 N 761.394 -5.29276 2.38427 0
M  V30 7831 H 764.159 -1.23721 2.72971 0
M  V30 7832 H 761.72 -0.53311 1.52871 0
M  V30 7833 H 763.712 -3.60588 1.83735 0
M  V30 7834 H 762.282 -2.96509 0.990014 0
M  V30 7835 H 761.502 -2.11575 3.3261 0
M  V30 7836 H 762.79 -3.11369 4.02402 0
M  V30 7837 H 762.188 -5.36938 1.78085 0
M  V30 7838 H 760.745 -6.05484 2.41313 0
M  V30 7839 N 764.178 -1.45556 -0.604258 0
M  V30 7840 C 765.126 -1.5482 -1.7359 0
M  V30 7841 C 766.12 -0.417966 -1.64163 0
M  V30 7842 O 767.326 -0.594007 -1.69916 0
M  V30 7843 H 763.701 -0.486352 -0.573556 0
M  V30 7844 H 765.672 -2.5001 -1.62903 0
M  V30 7845 C 764.421 -1.53521 -3.11972 0
M  V30 7846 H 763.744 -2.39818 -3.19886 0
M  V30 7847 H 765.184 -1.64061 -3.90973 0
M  V30 7848 C 763.643 -0.260191 -3.35894 0
M  V30 7849 O 764.173 0.658582 -3.96265 0
M  V30 7850 N 762.379 -0.154839 -2.90187 0
M  V30 7851 H 761.926 -0.903378 -2.4124 0
M  V30 7852 H 761.884 0.697437 -3.06567 0
M  V30 7853 N 765.656 0.84705 -1.32902 0
M  V30 7854 C 766.904 1.5986 -1.2365 0
M  V30 7855 C 767.225 1.93974 0.199789 0
M  V30 7856 O 766.495 1.60273 1.12648 0
M  V30 7857 H 765.075 0.592696 -0.454665 0
M  V30 7858 H 767.737 1.01278 -1.66519 0
M  V30 7859 H 766.833 2.53218 -1.82448 0
M  V30 7860 N 767.134 1.16236 1.06428 0
M  V30 7861 C 768.362 0.967184 1.82902 0
M  V30 7862 C 768.777 -0.484601 1.82475 0
M  V30 7863 O 768.134 -1.33631 1.24294 0
M  V30 7864 C 768.185 1.48534 3.29576 0
M  V30 7865 O 767.906 2.88026 3.3011 0
M  V30 7866 C 769.407 1.33298 4.22784 0
M  V30 7867 H 766.627 0.342923 0.576754 0
M  V30 7868 H 769.171 1.54232 1.34286 0
M  V30 7869 H 767.326 0.952513 3.75508 0
M  V30 7870 H 767.74 3.11721 4.21818 0
M  V30 7871 H 769.214 1.74385 5.23731 0
M  V30 7872 H 769.691 0.278356 4.38317 0
M  V30 7873 H 770.297 1.85535 3.82697 0
M  V30 7874 N 768.612 -1.24939 0.960631 0
M  V30 7875 C 769.545 -2.24116 0.429804 0
M  V30 7876 C 770.523 -1.54972 -0.492188 0
M  V30 7877 O 771.707 -1.83642 -0.42519 0
M  V30 7878 C 768.834 -3.36558 -0.380312 0
M  V30 7879 C 767.88 -4.23757 0.482941 0
M  V30 7880 S 768.713 -4.9994 1.91885 0
M  V30 7881 C 769.869 -6.15846 1.11732 0
M  V30 7882 H 770.102 -2.68795 1.27029 0
M  V30 7883 H 767.635 -1.34108 0.765141 0
M  V30 7884 H 769.593 -4.01777 -0.841764 0
M  V30 7885 H 768.254 -2.90451 -1.19569 0
M  V30 7886 H 767.447 -5.03809 -0.138699 0
M  V30 7887 H 767.049 -3.63504 0.879839 0
M  V30 7888 H 769.341 -6.76495 0.368898 0
M  V30 7889 H 770.284 -6.82356 1.89198 0
M  V30 7890 H 770.692 -5.60805 0.644812 0
M  V30 7891 N 770.09 -0.729906 -1.39679 0
M  V30 7892 C 771.318 -0.285709 -2.04918 0
M  V30 7893 C 771.733 1.07765 -1.55023 0
M  V30 7894 O 771.09 1.67999 -0.712923 0
M  V30 7895 C 771.141 -0.272793 -3.60469 0
M  V30 7896 O 770.862 -1.58233 -4.08527 0
M  V30 7897 C 772.363 0.188199 -4.429 0
M  V30 7898 H 769.583 -0.125758 -0.65911 0
M  V30 7899 H 772.127 -0.992129 -1.78821 0
M  V30 7900 H 770.282 0.384699 -3.85485 0
M  V30 7901 H 770.696 -1.49245 -5.02818 0
M  V30 7902 H 772.17 0.14608 -5.51807 0
M  V30 7903 H 772.647 1.2326 -4.21549 0
M  V30 7904 H 773.253 -0.439541 -4.23023 0
M  V30 7905 N 771.568 1.50203 -0.477153 0
M  V30 7906 C 772.808 2.04265 0.0744065 0
M  V30 7907 C 773.172 1.35082 1.36443 0
M  V30 7908 O 774.373 1.79732 1.99875 0
M  V30 7909 C 772.644 3.56539 0.247874 0
M  V30 7910 S 774.203 4.32219 0.757117 0
M  V30 7911 H 771.021 0.71088 0.0130891 0
M  V30 7912 H 773.623 1.8453 -0.645678 0
M  V30 7913 H 772.327 4.04443 -0.696709 0
M  V30 7914 H 771.858 3.80638 0.993896 0
M  V30 7915 H 773.873 4.52789 2.0297 0
M  V30 7916 N 773.046 0.209999 1.56195 0
M  V30 7917 C 774.292 -0.425442 1.98287 0
M  V30 7918 C 774.625 -1.60232 1.09724 0
M  V30 7919 O 773.9 -1.93902 0.152414 0
M  V30 7920 C 774.183 -0.871189 3.49403 0
M  V30 7921 C 774.036 0.308527 4.48741 0
M  V30 7922 C 775.355 -1.73146 4.04609 0
M  V30 7923 H 772.474 -0.153169 0.720908 0
M  V30 7924 H 775.116 0.303916 1.87554 0
M  V30 7925 H 773.266 -1.49266 3.58681 0
M  V30 7926 H 774.938 0.946487 4.51486 0
M  V30 7927 H 773.181 0.957878 4.23092 0
M  V30 7928 H 773.852 -0.0461143 5.51981 0
M  V30 7929 H 776.328 -1.2072 3.98203 0
M  V30 7930 H 775.204 -2.01228 5.10684 0
M  V30 7931 H 775.465 -2.69083 3.5078 0
M  V30 7932 N 774.524 -1.57472 -0.0634922 0
M  V30 7933 C 775.456 -2.00999 -1.10145 0
M  V30 7934 C 776.469 -0.917219 -1.34503 0
M  V30 7935 O 777.658 -1.19501 -1.32596 0
M  V30 7936 C 774.758 -2.34089 -2.45063 0
M  V30 7937 C 773.931 -3.65317 -2.40546 0
M  V30 7938 C 772.99 -3.85982 -3.57637 0
M  V30 7939 O 772.016 -4.5747 -3.38689 0
M  V30 7940 N 773.218 -3.28971 -4.78287 0
M  V30 7941 H 775.983 -2.90656 -0.730714 0
M  V30 7942 H 773.544 -1.59926 -0.252017 0
M  V30 7943 H 775.536 -2.4508 -3.22053 0
M  V30 7944 H 774.106 -1.50279 -2.74107 0
M  V30 7945 H 773.326 -3.65003 -1.48885 0
M  V30 7946 H 774.614 -4.51468 -2.34636 0
M  V30 7947 H 774.012 -2.70962 -4.96584 0
M  V30 7948 H 772.569 -3.45398 -5.5276 0
M  V30 7949 N 776.003 0.335068 -1.53997 0
M  V30 7950 C 777.414 0.910191 -1.6301 0
M  V30 7951 C 777.765 1.89271 -0.516809 0
M  V30 7952 O 776.89 2.13516 0.352123 0
M  V30 7953 C 777.485 1.65761 -2.9548 0
M  V30 7954 C 776.044 2.18163 -3.06728 0
M  V30 7955 C 775.191 1.00338 -2.5851 0
M  V30 7956 H 778.142 0.112965 -1.58297 0
M  V30 7957 H 778.163 2.52107 -2.84995 0
M  V30 7958 H 777.675 0.94227 -3.76488 0
M  V30 7959 H 775.776 2.92847 -2.30372 0
M  V30 7960 H 775.889 2.43952 -4.1234 0
M  V30 7961 H 774.253 1.37925 -2.14124 0
M  V30 7962 H 775.036 0.30254 -3.41964 0
M  V30 7963 N 777.481 1.45874 0.596531 0
M  V30 7964 C 778.411 1.5824 1.71705 0
M  V30 7965 C 779.392 0.433366 1.64487 0
M  V30 7966 O 780.577 0.657895 1.82717 0
M  V30 7967 C 777.707 1.55927 3.10329 0
M  V30 7968 C 776.661 2.69659 3.32367 0
M  V30 7969 C 775.987 2.52403 4.71377 0
M  V30 7970 C 777.287 4.11591 3.21544 0
M  V30 7971 H 778.981 2.52035 1.61613 0
M  V30 7972 H 776.527 1.21297 0.776082 0
M  V30 7973 H 778.48 1.63173 3.88526 0
M  V30 7974 H 777.204 0.586674 3.21288 0
M  V30 7975 H 775.863 2.61859 2.56564 0
M  V30 7976 H 775.511 1.53258 4.79083 0
M  V30 7977 H 775.211 3.28679 4.87077 0
M  V30 7978 H 776.735 2.6152 5.5176 0
M  V30 7979 H 778.149 4.20576 3.89601 0
M  V30 7980 H 776.546 4.88344 3.4877 0
M  V30 7981 H 777.616 4.32719 2.1882 0
M  V30 7982 N 778.959 -0.83999 1.33349 0
M  V30 7983 C 780.207 -1.59202 1.24496 0
M  V30 7984 C 780.528 -1.94077 -0.189499 0
M  V30 7985 O 779.798 -1.60868 -1.11796 0
M  V30 7986 H 778.378 -0.590276 0.457802 0
M  V30 7987 H 781.04 -1.00394 1.67054 0
M  V30 7988 H 780.136 -2.52247 1.83788 0
M  V30 7989 N 780.437 -1.16799 -1.0581 0
M  V30 7990 C 781.662 -0.977402 -1.82925 0
M  V30 7991 C 782.087 0.469514 -1.82146 0
M  V30 7992 O 781.445 1.33576 -1.22585 0
M  V30 7993 C 781.493 -1.51543 -3.27211 0
M  V30 7994 O 780.597 -0.725021 -4.05977 0
M  V30 7995 H 779.938 -0.347474 -0.565825 0
M  V30 7996 H 782.468 -1.55151 -1.33376 0
M  V30 7997 H 782.478 -1.53502 -3.78023 0
M  V30 7998 H 781.153 -2.56872 -3.27093 0
M  V30 7999 H 779.73 -0.77634 -3.64729 0
M  V30 8000 N 781.915 1.24427 -0.967243 0
M  V30 8001 C 783.14 1.9708 -0.646069 0
M  V30 8002 C 783.565 1.71272 0.777665 0
M  V30 8003 O 782.923 0.976179 1.52776 0
M  V30 8004 C 782.971 3.48501 -0.926266 0
M  V30 8005 O 782.075 4.12398 -0.0114653 0
M  V30 8006 H 781.416 0.617423 -0.244304 0
M  V30 8007 H 783.946 1.58215 -1.29727 0
M  V30 8008 H 783.956 3.98885 -0.857619 0
M  V30 8009 H 782.631 3.66613 -1.96386 0
M  V30 8010 H 781.208 3.72661 -0.133396 0
M  V30 8011 N 783.393 0.737304 1.3929 0
M  V30 8012 C 784.618 0.295237 2.05288 0
M  V30 8013 C 785.043 -1.06235 1.55228 0
M  V30 8014 O 784.401 -1.67365 0.697043 0
M  V30 8015 C 784.449 0.309146 3.59272 0
M  V30 8016 O 783.553 -0.702437 4.06374 0
M  V30 8017 H 782.894 0.133762 0.650387 0
M  V30 8018 H 785.424 1.00387 1.78279 0
M  V30 8019 H 785.434 0.154336 4.07708 0
M  V30 8020 H 784.109 1.29974 3.95069 0
M  V30 8021 H 782.686 -0.513574 3.69346 0
M  V30 8022 N 784.871 -1.49948 0.485112 0
M  V30 8023 C 786.101 -2.06506 -0.0621921 0
M  V30 8024 C 786.509 -1.34756 -1.32806 0
M  V30 8025 O 785.852 -0.41466 -1.78959 0
M  V30 8026 C 785.914 -3.57243 -0.402182 0
M  V30 8027 C 785.578 -4.50574 0.763671 0
M  V30 8028 C 786.575 -4.93032 1.6497 0
M  V30 8029 C 784.26 -4.9308 0.957973 0
M  V30 8030 C 786.254 -5.76718 2.71432 0
M  V30 8031 C 783.941 -5.76546 2.0258 0
M  V30 8032 C 784.939 -6.18267 2.90232 0
M  V30 8033 O 784.627 -7.00066 3.95174 0
M  V30 8034 H 784.359 -0.675925 0.0100672 0
M  V30 8035 H 786.913 -1.93922 0.677023 0
M  V30 8036 H 785.143 -3.6778 -1.19478 0
M  V30 8037 H 786.832 -3.96107 -0.886219 0
M  V30 8038 H 787.598 -4.60851 1.51134 0
M  V30 8039 H 783.477 -4.60117 0.285144 0
M  V30 8040 H 787.021 -6.09203 3.39878 0
M  V30 8041 H 782.918 -6.0814 2.16417 0
M  V30 8042 H 783.686 -7.18343 3.92333 0
M  V30 8043 N 786.349 -0.21828 -1.56081 0
M  V30 8044 C 787.296 0.693189 -2.20144 0
M  V30 8045 C 788.266 1.19274 -1.15598 0
M  V30 8046 O 789.451 1.25243 -1.4394 0
M  V30 8047 C 786.591 1.89715 -2.88275 0
M  V30 8048 C 785.704 1.4368 -4.07407 0
M  V30 8049 C 784.839 2.59807 -4.63329 0
M  V30 8050 C 783.878 2.10492 -5.74769 0
M  V30 8051 N 783.015 3.1988 -6.24997 0
M  V30 8052 H 787.855 0.14016 -2.9767 0
M  V30 8053 H 785.392 0.0574292 -1.46988 0
M  V30 8054 H 787.35 2.60398 -3.25958 0
M  V30 8055 H 785.98 2.42311 -2.13273 0
M  V30 8056 H 785.032 0.625007 -3.7523 0
M  V30 8057 H 786.344 1.03517 -4.8794 0
M  V30 8058 H 785.498 3.38577 -5.03438 0
M  V30 8059 H 784.237 3.03256 -3.81951 0
M  V30 8060 H 783.242 1.30182 -5.34165 0
M  V30 8061 H 784.467 1.68045 -6.5798 0
M  V30 8062 H 782.413 3.62817 -5.46534 0
M  V30 8063 H 782.33 2.83958 -7.00645 0
M  V30 8064 H 783.598 3.98796 -6.69763 0
M  V30 8065 N 787.827 1.57504 0.0551401 0
M  V30 8066 C 789.052 1.92682 0.767352 0
M  V30 8067 C 789.477 0.81614 1.69472 0
M  V30 8068 O 788.835 -0.229989 1.79835 0
M  V30 8069 C 788.883 3.26866 1.52286 0
M  V30 8070 O 787.987 3.17274 2.63459 0
M  V30 8071 H 787.328 0.630502 0.208238 0
M  V30 8072 H 789.858 2.04592 0.0184026 0
M  V30 8073 H 789.868 3.61138 1.8985 0
M  V30 8074 H 788.543 4.07276 0.842541 0
M  V30 8075 H 787.12 2.94589 2.2863 0
M  V30 8076 N 789.305 -0.326896 1.54172 0
M  V30 8077 C 790.533 -1.08486 1.76177 0
M  V30 8078 C 790.948 -1.81815 0.508788 0
M  V30 8079 O 790.305 -1.74924 -0.520362 0
M  V30 8080 C 790.356 -2.08552 2.95276 0
M  V30 8081 O 790.077 -1.38202 4.15731 0
M  V30 8082 C 791.578 -2.96593 3.29466 0
M  V30 8083 H 788.798 -0.322835 0.588233 0
M  V30 8084 H 791.342 -0.374036 2.0105 0
M  V30 8085 H 789.497 -2.75174 2.72687 0
M  V30 8086 H 789.911 -2.05186 4.827 0
M  V30 8087 H 791.385 -3.62708 4.16109 0
M  V30 8088 H 791.862 -3.63511 2.46487 0
M  V30 8089 H 792.468 -2.35537 3.54122 0
M  V30 8090 N 790.784 -1.46188 -0.588786 0
M  V30 8091 C 792.024 -1.52738 -1.35833 0
M  V30 8092 C 792.388 -0.172403 -1.91224 0
M  V30 8093 O 793.589 -0.112633 -2.68564 0
M  V30 8094 C 791.86 -2.59085 -2.4619 0
M  V30 8095 S 793.419 -2.84997 -3.3365 0
M  V30 8096 H 790.237 -0.539713 -0.462851 0
M  V30 8097 H 792.839 -1.83386 -0.677489 0
M  V30 8098 H 791.543 -3.56177 -2.03878 0
M  V30 8099 H 791.074 -2.3015 -3.19053 0
M  V30 8100 H 793.089 -2.19804 -4.4486 0
M  V30 8101 N 792.262 0.832906 -1.33792 0
M  V30 8102 C 793.194 1.95042 -1.2038 0
M  V30 8103 C 794.207 1.62253 -0.133299 0
M  V30 8104 O 795.396 1.74315 -0.384261 0
M  V30 8105 C 792.496 3.287 -0.825215 0
M  V30 8106 C 791.669 3.89581 -1.98861 0
M  V30 8107 C 790.728 5.01602 -1.59003 0
M  V30 8108 O 789.754 5.20431 -2.30522 0
M  V30 8109 N 790.956 5.78356 -0.498446 0
M  V30 8110 H 793.721 2.07083 -2.16649 0
M  V30 8111 H 791.282 1.00896 -1.26616 0
M  V30 8112 H 793.274 4.01074 -0.540559 0
M  V30 8113 H 791.844 3.12565 0.0469796 0
M  V30 8114 H 791.064 3.09723 -2.43856 0
M  V30 8115 H 792.352 4.26989 -2.76691 0
M  V30 8116 H 791.75 5.65618 0.0963297 0
M  V30 8117 H 790.307 6.51226 -0.273485 0
M  V30 8118 N 793.74 1.17359 1.05189 0
M  V30 8119 C 794.987 0.961987 1.78191 0
M  V30 8120 C 795.315 -0.509363 1.87712 0
M  V30 8121 O 794.57 -1.39425 1.37329 0
M  V30 8122 C 794.869 1.54821 3.22126 0
M  V30 8123 C 794.535 3.04378 3.32663 0
M  V30 8124 C 793.197 3.45201 3.35246 0
M  V30 8125 C 795.549 4.00387 3.33677 0
M  V30 8126 C 792.877 4.80629 3.36471 0
M  V30 8127 C 795.229 5.35715 3.36441 0
M  V30 8128 C 793.893 5.76002 3.37311 0
M  V30 8129 H 793.163 0.352016 0.652047 0
M  V30 8130 H 795.81 1.46249 1.23627 0
M  V30 8131 H 794.115 0.969432 3.79617 0
M  V30 8132 H 795.812 1.36004 3.77232 0
M  V30 8133 H 792.402 2.71836 3.31366 0
M  V30 8134 H 796.586 3.69906 3.30882 0
M  V30 8135 H 791.842 5.11155 3.35455 0
M  V30 8136 H 796.016 6.09886 3.36173 0
M  V30 8137 H 793.643 6.80919 3.38013 0
M  V30 8138 N 795.218 -1.23913 0.973828 0
M  V30 8139 C 796.467 -1.91455 0.63464 0
M  V30 8140 C 796.78 -1.76893 -0.834759 0
M  V30 8141 O 797.986 -2.3918 -1.28473 0
M  V30 8142 C 796.442 -3.43172 1.08447 0
M  V30 8143 C 796.05 -3.66409 2.57776 0
M  V30 8144 C 797.794 -4.1653 0.818721 0
M  V30 8145 C 795.701 -5.11728 2.9646 0
M  V30 8146 H 794.631 -0.716881 0.233661 0
M  V30 8147 H 797.282 -1.40457 1.18085 0
M  V30 8148 H 795.664 -3.93242 0.466524 0
M  V30 8149 H 796.838 -3.26913 3.24753 0
M  V30 8150 H 795.153 -3.06349 2.82027 0
M  V30 8151 H 797.75 -5.23603 1.08367 0
M  V30 8152 H 798.093 -4.15578 -0.245128 0
M  V30 8153 H 798.626 -3.72428 1.39793 0
M  V30 8154 H 795.365 -5.17806 4.01941 0
M  V30 8155 H 794.885 -5.52199 2.34172 0
M  V30 8156 H 796.564 -5.80009 2.86703 0
M  V30 8157 N 796.696 -0.74468 -1.38897 0
M  V30 8158 C 797.936 -0.301691 -2.02161 0
M  V30 8159 C 798.3 1.09338 -1.57826 0
M  V30 8160 O 799.501 1.63499 -2.13358 0
M  V30 8161 C 797.772 -0.410601 -3.55034 0
M  V30 8162 S 799.331 -0.0488802 -4.38773 0
M  V30 8163 H 796.149 -0.117583 -0.70121 0
M  V30 8164 H 798.751 -0.973334 -1.69548 0
M  V30 8165 H 797.455 -1.42705 -3.8479 0
M  V30 8166 H 796.986 0.278531 -3.92413 0
M  V30 8167 H 799.001 1.16434 -4.82346 0
M  V30 8168 N 798.174 1.49689 -0.493057 0
M  V30 8169 C 799.451 1.9525 0.116907 0
M  V30 8170 C 799.831 1.43429 1.54892 0
M  V30 8171 O 799.179 0.644621 2.19219 0
M  V30 8172 C 799.389 3.4898 0.037705 0
M  V30 8173 C 800.737 4.24052 0.215621 0
M  V30 8174 O 801.761 3.5602 0.113266 0
M  V30 8175 O 800.62 5.44847 0.42477 0
M  V30 8176 H 797.714 0.820973 0.099662 0
M  V30 8177 H 800.26 1.60367 -0.555029 0
M  V30 8178 H 799.032 3.79309 -0.961251 0
M  V30 8179 H 798.655 3.9046 0.750137 0
M  V30 8180 N 799.652 0.226554 1.55963 0
M  V30 8181 C 800.562 -0.692725 2.24139 0
M  V30 8182 C 801.578 -1.20971 1.25068 0
M  V30 8183 O 802.754 -1.25027 1.57893 0
M  V30 8184 C 799.819 -1.88183 2.91184 0
M  V30 8185 C 798.88 -1.40633 4.05612 0
M  V30 8186 C 798.113 -2.53875 4.6945 0
M  V30 8187 O 798.336 -3.72129 4.32292 0
M  V30 8188 O 797.27 -2.24792 5.58348 0
M  V30 8189 H 801.096 -0.141921 3.03368 0
M  V30 8190 H 798.681 -0.0041049 1.49399 0
M  V30 8191 H 800.563 -2.57617 3.33484 0
M  V30 8192 H 799.238 -2.42064 2.14911 0
M  V30 8193 H 798.145 -0.67986 3.67871 0
M  V30 8194 H 799.478 -0.913838 4.83642 0
M  V30 8195 N 801.13 -1.57531 -0.0467866 0
M  V30 8196 C 802.378 -1.88078 -0.739656 0
M  V30 8197 C 802.699 -0.821936 -1.76831 0
M  V30 8198 O 801.969 0.146582 -1.95351 0
M  V30 8199 H 800.549 -0.694075 -0.276169 0
M  V30 8200 H 803.211 -1.94893 -0.0169391 0
M  V30 8201 H 802.307 -2.86396 -1.24031 0
M  V30 8202 N 802.608 0.318715 -1.54344 0
M  V30 8203 C 803.838 1.07394 -1.76494 0
M  V30 8204 C 804.246 1.82031 -0.515881 0
M  V30 8205 O 803.589 1.7609 0.52325 0
M  V30 8206 C 803.651 2.11401 -2.90775 0
M  V30 8207 C 803.315 1.56118 -4.29507 0
M  V30 8208 C 804.312 1.00043 -5.10184 0
M  V30 8209 C 801.997 1.60215 -4.76063 0
M  V30 8210 C 803.991 0.487993 -6.35529 0
M  V30 8211 C 801.678 1.08584 -6.01376 0
M  V30 8212 C 802.676 0.529714 -6.80943 0
M  V30 8213 O 802.364 0.0211823 -8.03897 0
M  V30 8214 H 802.096 0.325061 -0.592715 0
M  V30 8215 H 804.65 0.36901 -2.02058 0
M  V30 8216 H 802.88 2.85524 -2.60793 0
M  V30 8217 H 804.569 2.72683 -3.00664 0
M  V30 8218 H 805.335 0.961811 -4.75367 0
M  V30 8219 H 801.214 2.02441 -4.14172 0
M  V30 8220 H 804.758 0.0532608 -6.9758 0
M  V30 8221 H 800.655 1.12155 -6.35682 0
M  V30 8222 H 801.423 0.136151 -8.18387 0
M  V30 8223 N 804.086 1.46499 0.581025 0
M  V30 8224 C 805.311 1.55708 1.37002 0
M  V30 8225 C 805.736 0.19942 1.8704 0
M  V30 8226 O 805.094 -0.820731 1.61659 0
M  V30 8227 C 805.142 2.56716 2.53238 0
M  V30 8228 O 804.246 2.10336 3.54729 0
M  V30 8229 H 803.587 0.523912 0.407937 0
M  V30 8230 H 806.117 1.92085 0.704602 0
M  V30 8231 H 806.127 2.76378 3.00132 0
M  V30 8232 H 804.802 3.55307 2.16171 0
M  V30 8233 H 803.379 2.00669 3.14303 0
M  V30 8234 N 805.565 -0.825799 1.34232 0
M  V30 8235 C 806.495 -1.95151 1.28212 0
M  V30 8236 C 807.476 -1.69345 0.160123 0
M  V30 8237 O 808.661 -1.90983 0.352019 0
M  V30 8238 C 805.791 -3.31554 1.03388 0
M  V30 8239 C 804.745 -3.71793 2.12023 0
M  V30 8240 C 804.071 -5.06147 1.72392 0
M  V30 8241 C 805.371 -3.84193 3.53826 0
M  V30 8242 H 807.065 -2.00445 2.22401 0
M  V30 8243 H 804.611 -0.962996 1.07063 0
M  V30 8244 H 806.564 -4.09889 0.978225 0
M  V30 8245 H 805.288 -3.26551 0.0564142 0
M  V30 8246 H 803.947 -2.95731 2.16654 0
M  V30 8247 H 803.595 -4.97628 0.733137 0
M  V30 8248 H 803.295 -5.34041 2.451 0
M  V30 8249 H 804.819 -5.86943 1.68317 0
M  V30 8250 H 806.233 -4.52806 3.51624 0
M  V30 8251 H 804.63 -4.23538 4.2513 0
M  V30 8252 H 805.7 -2.86272 3.91377 0
M  V30 8253 N 807.043 -1.17915 -1.04565 0
M  V30 8254 C 808.268 -0.996749 -1.81878 0
M  V30 8255 C 808.693 0.450169 -1.82634 0
M  V30 8256 O 808.051 1.32268 -1.23995 0
M  V30 8257 C 808.099 -1.55005 -3.25585 0
M  V30 8258 O 807.203 -0.76804 -4.05185 0
M  V30 8259 H 806.544 -0.353456 -0.562108 0
M  V30 8260 H 809.074 -1.56557 -1.31723 0
M  V30 8261 H 809.084 -1.57503 -3.76373 0
M  V30 8262 H 807.759 -2.60327 -3.2435 0
M  V30 8263 H 806.336 -0.81498 -3.63885 0
M  V30 8264 N 808.521 1.23394 -0.980386 0
M  V30 8265 C 809.769 1.91431 -0.647978 0
M  V30 8266 C 810.09 1.76871 0.821066 0
M  V30 8267 O 809.36 1.14808 1.58732 0
M  V30 8268 H 807.94 0.708516 -0.236673 0
M  V30 8269 H 810.602 1.50019 -1.2442 0
M  V30 8270 H 809.698 2.98854 -0.899592 0
M  V30 8271 N 809.999 0.752036 1.385 0
M  V30 8272 C 811.41 0.375385 1.82887 0
M  V30 8273 C 811.761 -1.09575 1.62751 0
M  V30 8274 O 810.886 -1.84685 1.12785 0
M  V30 8275 C 811.481 0.674563 3.32017 0
M  V30 8276 C 810.04 0.351208 3.74758 0
M  V30 8277 C 809.187 0.928531 2.61292 0
M  V30 8278 H 812.138 0.948313 1.27251 0
M  V30 8279 H 812.159 -0.0477781 3.8047 0
M  V30 8280 H 811.671 1.74533 3.46641 0
M  V30 8281 H 809.772 -0.713042 3.65714 0
M  V30 8282 H 809.885 0.845675 4.71577 0
M  V30 8283 H 808.249 0.354012 2.52228 0
M  V30 8284 H 809.032 2.0043 2.78716 0
M  V30 8285 N 811.477 -1.49425 0.500989 0
M  V30 8286 C 812.387 -2.32899 -0.282011 0
M  V30 8287 C 813.403 -1.44632 -0.967346 0
M  V30 8288 O 814.579 -1.77654 -0.94873 0
M  V30 8289 C 811.644 -3.20069 -1.33253 0
M  V30 8290 C 810.705 -4.24186 -0.660636 0
M  V30 8291 C 809.938 -5.07191 -1.6611 0
M  V30 8292 O 810.161 -4.91712 -2.89094 0
M  V30 8293 O 809.095 -5.8948 -1.21643 0
M  V30 8294 H 812.921 -3.01038 0.401224 0
M  V30 8295 H 810.506 -1.47079 0.262323 0
M  V30 8296 H 812.388 -3.74071 -1.94033 0
M  V30 8297 H 811.063 -2.54625 -1.9987 0
M  V30 8298 H 809.97 -3.74098 -0.0130959 0
M  V30 8299 H 811.303 -4.92186 -0.0369179 0
M  V30 8300 N 812.955 -0.234822 -1.55841 0
M  V30 8301 C 814.371 0.120295 -1.59146 0
M  V30 8302 C 814.571 1.57896 -1.25184 0
M  V30 8303 O 813.627 2.32138 -0.993393 0
M  V30 8304 C 814.94 -0.217984 -2.99909 0
M  V30 8305 C 816.488 -0.161298 -3.12584 0
M  V30 8306 C 816.963 -0.473438 -4.55546 0
M  V30 8307 N 818.454 -0.423494 -4.6126 0
M  V30 8308 C 819.189 -0.638334 -5.69836 0
M  V30 8309 N 818.685 -0.915659 -6.86722 0
M  V30 8310 N 820.478 -0.569864 -5.59204 0
M  V30 8311 H 812.629 -1.18622 -1.76189 0
M  V30 8312 H 814.892 -0.476426 -0.819587 0
M  V30 8313 H 814.598 -1.2309 -3.29457 0
M  V30 8314 H 814.472 0.460707 -3.74376 0
M  V30 8315 H 816.859 0.842274 -2.82825 0
M  V30 8316 H 816.94 -0.873661 -2.40418 0
M  V30 8317 H 816.584 -1.47451 -4.86025 0
M  V30 8318 H 816.514 0.260268 -5.25956 0
M  V30 8319 H 819.005 -0.217383 -3.77274 0
M  V30 8320 H 819.318 -1.06734 -7.65394 0
M  V30 8321 H 817.663 -0.953 -6.88435 0
M  V30 8322 H 820.854 -0.35334 -4.66765 0
M  V30 8323 H 821.027 -0.740698 -6.43753 0
M  V30 8324 N 814.433 1.57553 0.0384317 0
M  V30 8325 C 815.363 2.0898 1.04161 0
M  V30 8326 C 816.344 0.99029 1.38301 0
M  V30 8327 O 817.529 1.26499 1.47349 0
M  V30 8328 C 814.659 2.56145 2.34536 0
M  V30 8329 C 813.613 3.70275 2.14663 0
M  V30 8330 C 812.939 4.03612 3.50715 0
M  V30 8331 C 814.239 4.99067 1.54045 0
M  V30 8332 H 815.933 2.93046 0.613548 0
M  V30 8333 H 813.479 1.40973 0.293684 0
M  V30 8334 H 815.432 2.90741 3.05037 0
M  V30 8335 H 814.156 1.6915 2.79385 0
M  V30 8336 H 812.815 3.36013 1.46597 0
M  V30 8337 H 812.463 3.13698 3.93195 0
M  V30 8338 H 812.163 4.80482 3.38247 0
M  V30 8339 H 813.687 4.40735 4.22593 0
M  V30 8340 H 815.101 5.3168 2.14451 0
M  V30 8341 H 813.498 5.80484 1.52178 0
M  V30 8342 H 814.568 4.8226 0.505259 0
M  V30 8343 N 815.911 -0.310526 1.54511 0
M  V30 8344 C 817.188 -1.06593 1.64004 0
M  V30 8345 C 817.568 -2.05519 0.482216 0
M  V30 8346 O 816.916 -2.22455 -0.52212 0
M  V30 8347 C 817.126 -1.75627 3.01589 0
M  V30 8348 C 818.474 -2.28173 3.58081 0
M  V30 8349 O 819.498 -1.85674 3.03979 0
M  V30 8350 O 818.357 -3.06015 4.52788 0
M  V30 8351 H 815.451 -0.492109 0.664649 0
M  V30 8352 H 817.997 -0.309374 1.66856 0
M  V30 8353 H 816.769 -1.03743 3.77297 0
M  V30 8354 H 816.392 -2.58061 3.02473 0
M  V30 8355 N 817.389 -1.46805 -0.573248 0
M  V30 8356 C 818.629 -1.5417 -1.34205 0
M  V30 8357 C 818.993 -0.192675 -1.91031 0
M  V30 8358 O 820.194 -0.141111 -2.68429 0
M  V30 8359 C 818.465 -2.61682 -2.43428 0
M  V30 8360 S 820.024 -2.88519 -3.30609 0
M  V30 8361 H 816.842 -0.544592 -0.4571 0
M  V30 8362 H 819.444 -1.84094 -0.658001 0
M  V30 8363 H 818.148 -3.58319 -2.00088 0
M  V30 8364 H 817.679 -2.33521 -3.16594 0
M  V30 8365 H 819.694 -2.2451 -4.42504 0
M  V30 8366 N 818.867 0.818669 -1.34668 0
M  V30 8367 C 820.095 1.60674 -1.30351 0
M  V30 8368 C 820.51 1.88408 0.121546 0
M  V30 8369 O 819.867 1.47849 1.06991 0
M  V30 8370 C 819.918 2.94516 -2.09625 0
M  V30 8371 O 819.639 2.6799 -3.46573 0
M  V30 8372 C 821.14 3.8891 -2.12754 0
M  V30 8373 H 818.36 0.499306 -0.448258 0
M  V30 8374 H 820.904 1.01828 -1.77345 0
M  V30 8375 H 819.059 3.49908 -1.66262 0
M  V30 8376 H 819.473 3.53361 -3.87603 0
M  V30 8377 H 820.947 4.79972 -2.72637 0
M  V30 8378 H 821.424 4.24599 -1.12306 0
M  V30 8379 H 822.03 3.39453 -2.56225 0
M  V30 8380 N 820.346 1.18468 1.03938 0
M  V30 8381 C 821.762 0.934635 1.29371 0
M  V30 8382 C 821.962 -0.399067 1.97509 0
M  V30 8383 O 821.018 -1.13309 2.25648 0
M  V30 8384 C 822.331 2.10111 2.15114 0
M  V30 8385 C 823.879 2.13955 2.28456 0
M  V30 8386 C 824.354 3.30024 3.17566 0
M  V30 8387 N 825.845 3.29893 3.25153 0
M  V30 8388 C 826.58 4.16346 3.94263 0
M  V30 8389 N 826.076 5.12934 4.65693 0
M  V30 8390 N 827.869 4.04256 3.90556 0
M  V30 8391 H 820.02 2.04294 0.581185 0
M  V30 8392 H 822.283 0.892727 0.318971 0
M  V30 8393 H 821.989 3.06572 1.72355 0
M  V30 8394 H 821.863 2.06283 3.15796 0
M  V30 8395 H 824.25 1.18072 2.7045 0
M  V30 8396 H 824.331 2.2184 1.2736 0
M  V30 8397 H 823.975 4.26181 2.76283 0
M  V30 8398 H 823.905 3.19376 4.18697 0
M  V30 8399 H 826.396 2.59969 2.74271 0
M  V30 8400 H 826.709 5.75271 5.16026 0
M  V30 8401 H 825.054 5.16893 4.64593 0
M  V30 8402 H 828.245 3.28083 3.33885 0
M  V30 8403 H 828.418 4.71848 4.44144 0
M  V30 8404 N 821.824 -1.22873 0.986916 0
M  V30 8405 C 823.049 -1.96028 0.677341 0
M  V30 8406 C 823.474 -1.72487 -0.750319 0
M  V30 8407 O 822.832 -1.00036 -1.51203 0
M  V30 8408 C 822.88 -3.46983 0.981593 0
M  V30 8409 O 821.984 -4.12328 0.0770729 0
M  V30 8410 H 821.325 -0.613458 0.254096 0
M  V30 8411 H 823.855 -1.56132 1.32227 0
M  V30 8412 H 823.865 -3.9747 0.920969 0
M  V30 8413 H 822.54 -3.63442 2.02194 0
M  V30 8414 H 821.117 -3.72402 0.192666 0
M  V30 8415 N 823.302 -0.75937 -1.38099 0
M  V30 8416 C 824.55 -0.317485 -1.99591 0
M  V30 8417 C 824.871 1.10628 -1.60581 0
M  V30 8418 O 824.141 1.7575 -0.865378 0
M  V30 8419 H 822.721 -0.114397 -0.738189 0
M  V30 8420 H 825.383 -0.974749 -1.68774 0
M  V30 8421 H 824.479 -0.385227 -3.09713 0
M  V30 8422 N 824.78 1.49157 -0.508906 0
M  V30 8423 C 826.196 1.58741 -0.165372 0
M  V30 8424 C 826.396 1.5133 1.33047 0
M  V30 8425 O 825.452 1.39135 2.10707 0
M  V30 8426 C 826.765 2.91217 -0.749194 0
M  V30 8427 C 828.313 3.047 -0.716015 0
M  V30 8428 C 828.788 4.39807 -1.27804 0
M  V30 8429 N 830.279 4.46319 -1.23908 0
M  V30 8430 C 831.014 5.49325 -1.64406 0
M  V30 8431 N 830.51 6.59395 -2.12534 0
M  V30 8432 N 832.303 5.40084 -1.55773 0
M  V30 8433 H 824.454 1.52217 -1.48134 0
M  V30 8434 H 826.717 0.721514 -0.614915 0
M  V30 8435 H 826.423 3.02233 -1.79856 0
M  V30 8436 H 826.297 3.76592 -0.214144 0
M  V30 8437 H 828.684 2.9331 0.324535 0
M  V30 8438 H 828.765 2.2099 -1.2883 0
M  V30 8439 H 828.409 4.5195 -2.31741 0
M  V30 8440 H 828.339 5.2217 -0.681623 0
M  V30 8441 H 830.83 3.67354 -0.886537 0
M  V30 8442 H 831.143 7.34102 -2.41485 0
M  V30 8443 H 829.488 6.60414 -2.16513 0
M  V30 8444 H 832.679 4.52986 -1.17987 0
M  V30 8445 H 832.852 6.20233 -1.87657 0
M  V30 8446 N 826.258 0.243083 1.55714 0
M  V30 8447 C 827.504 -0.376428 1.99886 0
M  V30 8448 C 827.859 -1.55843 1.12831 0
M  V30 8449 O 827.152 -1.90724 0.182996 0
M  V30 8450 C 827.346 -0.839621 3.47398 0
M  V30 8451 C 827.175 0.295954 4.48725 0
M  V30 8452 C 825.945 0.769392 4.99408 0
M  V30 8453 C 828.143 1.12165 5.0192 0
M  V30 8454 N 826.125 1.87778 5.84477 0
M  V30 8455 C 827.496 2.07848 5.84123 0
M  V30 8456 C 829.551 1.15864 4.84231 0
M  V30 8457 C 828.254 3.06937 6.50524 0
M  V30 8458 C 830.28 2.13782 5.51409 0
M  V30 8459 C 829.642 3.08202 6.33396 0
M  V30 8460 H 825.741 -0.103809 0.775079 0
M  V30 8461 H 828.325 0.359788 1.91347 0
M  V30 8462 H 826.496 -1.54514 3.56343 0
M  V30 8463 H 828.228 -1.43376 3.78451 0
M  V30 8464 H 824.983 0.354201 4.72274 0
M  V30 8465 H 825.407 2.43462 6.31708 0
M  V30 8466 H 830.049 0.442532 4.20478 0
M  V30 8467 H 827.767 3.79499 7.13447 0
M  V30 8468 H 831.353 2.17345 5.39678 0
M  V30 8469 H 830.233 3.82732 6.8446 0
M  V30 8470 N 827.736 -1.57571 -0.0300757 0
M  V30 8471 C 828.964 -1.93485 -0.732891 0
M  V30 8472 C 829.379 -0.842758 -1.68947 0
M  V30 8473 O 828.736 0.180904 -1.81601 0
M  V30 8474 C 828.787 -3.29328 -1.49082 0
M  V30 8475 O 828.508 -4.34341 -0.572639 0
M  V30 8476 C 830.009 -3.79517 -2.29088 0
M  V30 8477 H 827.229 -0.638588 -0.206026 0
M  V30 8478 H 829.773 -2.04496 0.0120966 0
M  V30 8479 H 827.928 -3.19716 -2.1877 0
M  V30 8480 H 828.342 -5.12748 -1.10406 0
M  V30 8481 H 829.816 -4.77081 -2.77665 0
M  V30 8482 H 830.293 -3.10659 -3.10464 0
M  V30 8483 H 830.899 -3.92208 -1.64477 0
M  V30 8484 N 829.214 0.302327 -1.54673 0
M  V30 8485 C 830.491 1.05721 -1.64567 0
M  V30 8486 C 830.871 2.0526 -0.493108 0
M  V30 8487 O 830.219 2.22729 0.510315 0
M  V30 8488 C 830.429 1.74025 -3.02517 0
M  V30 8489 C 831.777 2.26271 -3.59286 0
M  V30 8490 O 832.801 1.8406 -3.0496 0
M  V30 8491 O 831.66 3.0361 -4.54404 0
M  V30 8492 H 828.754 0.488577 -0.667249 0
M  V30 8493 H 831.3 0.300521 -1.67018 0
M  V30 8494 H 830.072 1.0174 -3.77842 0
M  V30 8495 H 829.695 2.56454 -3.03838 0
M  V30 8496 N 830.692 1.47107 0.565454 0
M  V30 8497 C 831.917 1.57153 1.35343 0
M  V30 8498 C 832.342 0.219247 1.86818 0
M  V30 8499 O 831.7 -0.803539 1.62521 0
M  V30 8500 C 831.748 2.59387 2.50501 0
M  V30 8501 O 830.852 2.14086 3.52478 0
M  V30 8502 H 830.193 0.528209 0.402357 0
M  V30 8503 H 832.723 1.92821 0.684189 0
M  V30 8504 H 832.733 2.79546 2.97184 0
M  V30 8505 H 831.408 3.57579 2.12391 0
M  V30 8506 H 829.985 2.03991 3.12157 0
M  V30 8507 N 832.17 -0.811516 1.35101 0
M  V30 8508 C 833.581 -1.38515 1.25182 0
M  V30 8509 C 833.932 -1.95846 -0.117883 0
M  V30 8510 O 833.057 -1.90925 -1.01866 0
M  V30 8511 C 833.652 -2.51813 2.26662 0
M  V30 8512 C 832.211 -3.05052 2.20499 0
M  V30 8513 C 831.358 -1.77987 2.12641 0
M  V30 8514 H 834.309 -0.614959 1.46301 0
M  V30 8515 H 834.33 -3.30228 1.89023 0
M  V30 8516 H 833.842 -2.10057 3.2634 0
M  V30 8517 H 831.943 -3.51285 1.24215 0
M  V30 8518 H 832.056 -3.63368 3.1225 0
M  V30 8519 H 830.42 -1.99342 1.5854 0
M  V30 8520 H 831.203 -1.38389 3.14171 0
M  V30 8521 N 833.648 -1.19017 -1.03309 0
M  V30 8522 C 835.059 -0.993206 -1.5809 0
M  V30 8523 C 835.41 0.45505 -1.9085 0
M  V30 8524 O 834.535 1.33372 -1.70414 0
M  V30 8525 C 835.13 -1.79661 -2.87241 0
M  V30 8526 C 833.689 -1.64377 -3.38611 0
M  V30 8527 C 832.836 -1.78628 -2.12102 0
M  V30 8528 H 835.787 -1.3345 -0.858879 0
M  V30 8529 H 835.808 -1.29019 -3.57958 0
M  V30 8530 H 835.32 -2.85061 -2.63366 0
M  V30 8531 H 833.421 -0.615447 -3.67482 0
M  V30 8532 H 833.534 -2.44651 -4.11926 0
M  V30 8533 H 831.898 -1.21648 -2.23772 0
M  V30 8534 H 832.681 -2.8548 -1.90673 0
M  V30 8535 N 835.127 1.22348 -0.993418 0
M  V30 8536 C 836.06 2.22898 -0.489073 0
M  V30 8537 C 837.038 1.56222 0.450927 0
M  V30 8538 O 838.222 1.84705 0.376351 0
M  V30 8539 C 835.349 3.37448 0.290946 0
M  V30 8540 C 834.395 4.22328 -0.595123 0
M  V30 8541 S 835.228 4.94677 -2.05072 0
M  V30 8542 C 836.384 6.12667 -1.28021 0
M  V30 8543 H 836.617 2.65333 -1.34111 0
M  V30 8544 H 834.15 1.32032 -0.800429 0
M  V30 8545 H 836.108 4.03867 0.734944 0
M  V30 8546 H 834.769 2.93519 1.11826 0
M  V30 8547 H 833.962 5.04 0.00507413 0
M  V30 8548 H 833.564 3.61043 -0.975906 0
M  V30 8549 H 835.856 6.75279 -0.548129 0
M  V30 8550 H 836.799 6.771 -2.07223 0
M  V30 8551 H 837.207 5.58898 -0.793272 0
M  V30 8552 N 836.605 0.766683 1.37694 0
M  V30 8553 C 837.845 0.333815 2.01656 0
M  V30 8554 C 838.209 -1.06813 1.59546 0
M  V30 8555 O 839.41 -1.60084 2.15932 0
M  V30 8556 C 837.681 0.467032 3.54335 0
M  V30 8557 S 839.24 0.118679 4.38639 0
M  V30 8558 H 836.058 0.128723 0.699251 0
M  V30 8559 H 838.66 1.00018 1.67978 0
M  V30 8560 H 837.364 1.48808 3.82471 0
M  V30 8561 H 836.895 -0.216066 3.92806 0
M  V30 8562 H 838.91 -1.08746 4.84137 0
M  V30 8563 N 838.083 -1.48885 0.516809 0
M  V30 8564 C 838.993 -2.33185 -0.257293 0
M  V30 8565 C 840.009 -1.4565 -0.951952 0
M  V30 8566 O 841.185 -1.78651 -0.929834 0
M  V30 8567 C 838.25 -3.21465 -1.29851 0
M  V30 8568 C 837.311 -4.24863 -0.615608 0
M  V30 8569 C 836.544 -5.08925 -1.60722 0
M  V30 8570 O 836.767 -4.9475 -2.83863 0
M  V30 8571 O 835.701 -5.90737 -1.15384 0
M  V30 8572 H 839.527 -3.00596 0.433131 0
M  V30 8573 H 837.112 -1.46792 0.277908 0
M  V30 8574 H 838.994 -3.76108 -1.90055 0
M  V30 8575 H 837.669 -2.5673 -1.97158 0
M  V30 8576 H 836.576 -3.74091 0.0265829 0
M  V30 8577 H 837.909 -4.92198 0.0152871 0
M  V30 8578 N 839.561 -0.251338 -1.55583 0
M  V30 8579 C 840.524 0.63305 -2.20284 0
M  V30 8580 C 841.524 1.09941 -1.17344 0
M  V30 8581 O 842.714 1.00341 -1.42399 0
M  V30 8582 C 839.846 1.8706 -2.84993 0
M  V30 8583 H 841.039 0.0684846 -2.99822 0
M  V30 8584 H 838.592 -0.00181653 -1.563 0
M  V30 8585 H 839.327 2.47629 -2.09405 0
M  V30 8586 H 839.112 1.54436 -3.60405 0
M  V30 8587 H 840.602 2.50004 -3.34496 0
M  V30 8588 N 841.039 1.57585 0.0217189 0
M  V30 8589 C 842.288 1.88786 0.710125 0
M  V30 8590 C 842.601 0.850819 1.76126 0
M  V30 8591 O 843.807 1.0523 2.50277 0
M  V30 8592 C 842.263 3.3505 1.31413 0
M  V30 8593 C 841.871 4.47001 0.298959 0
M  V30 8594 C 843.615 3.7539 1.98199 0
M  V30 8595 C 841.522 5.8433 0.911727 0
M  V30 8596 H 840.452 0.704388 0.268986 0
M  V30 8597 H 843.103 1.83466 -0.0352638 0
M  V30 8598 H 841.485 3.35138 2.10947 0
M  V30 8599 H 842.659 4.58395 -0.470203 0
M  V30 8600 H 840.974 4.15542 -0.267222 0
M  V30 8601 H 843.571 4.75314 2.4491 0
M  V30 8602 H 843.914 3.07766 2.80331 0
M  V30 8603 H 844.447 3.77508 1.2543 0
M  V30 8604 H 841.186 6.55372 0.129659 0
M  V30 8605 H 840.706 5.76643 1.65056 0
M  V30 8606 H 842.385 6.31295 1.41688 0
M  V30 8607 N 842.517 -0.29412 1.54831 0
M  V30 8608 C 843.464 -1.36296 1.86258 0
M  V30 8609 C 844.434 -1.50061 0.712097 0
M  V30 8610 O 845.619 -1.64809 0.961381 0
M  V30 8611 C 842.759 -2.72187 2.12151 0
M  V30 8612 C 841.872 -2.66816 3.39755 0
M  V30 8613 C 841.007 -3.94747 3.55455 0
M  V30 8614 C 840.046 -3.838 4.76827 0
M  V30 8615 N 839.183 -5.03521 4.89296 0
M  V30 8616 H 844.023 -1.08796 2.7743 0
M  V30 8617 H 841.56 -0.526069 1.37371 0
M  V30 8618 H 843.518 -3.51225 2.25159 0
M  V30 8619 H 842.148 -2.97934 1.24237 0
M  V30 8620 H 841.2 -1.79605 3.3533 0
M  V30 8621 H 842.512 -2.5462 4.28917 0
M  V30 8622 H 841.666 -4.82223 3.68166 0
M  V30 8623 H 840.405 -4.09785 2.64438 0
M  V30 8624 H 839.41 -2.94708 4.64141 0
M  V30 8625 H 840.635 -3.70301 5.69258 0
M  V30 8626 H 838.581 -5.1901 4.01204 0
M  V30 8627 H 838.498 -4.93775 5.72471 0
M  V30 8628 H 839.766 -5.92629 5.06371 0
M  V30 8629 N 843.995 -1.47404 -0.557645 0
M  V30 8630 C 845.235 -1.55585 -1.32562 0
M  V30 8631 C 845.599 -0.212926 -1.90816 0
M  V30 8632 O 846.8 -0.169574 -2.68265 0
M  V30 8633 C 845.071 -2.64249 -2.40639 0
M  V30 8634 S 846.63 -2.9201 -3.2753 0
M  V30 8635 H 843.448 -0.549409 -0.451298 0
M  V30 8636 H 846.05 -1.84782 -0.638438 0
M  V30 8637 H 844.754 -3.60421 -1.96277 0
M  V30 8638 H 844.285 -2.36866 -3.14099 0
M  V30 8639 H 846.3 -2.29191 -4.40098 0
M  V30 8640 N 845.473 0.80434 -1.35529 0
M  V30 8641 C 846.884 1.37849 -1.25915 0
M  V30 8642 C 847.235 1.95905 0.107495 0
M  V30 8643 O 846.36 1.91462 1.00852 0
M  V30 8644 C 846.955 2.50608 -2.27994 0
M  V30 8645 C 845.514 3.03879 -2.22114 0
M  V30 8646 C 844.661 1.76856 -2.13582 0
M  V30 8647 H 847.612 0.607192 -1.46625 0
M  V30 8648 H 847.633 3.29221 -1.90772 0
M  V30 8649 H 847.145 2.08323 -3.27449 0
M  V30 8650 H 845.246 3.50622 -1.26077 0
M  V30 8651 H 845.359 3.61707 -3.14173 0
M  V30 8652 H 843.723 1.98498 -1.59595 0
M  V30 8653 H 844.506 1.36721 -3.14901 0
M  V30 8654 N 846.951 1.19563 1.02676 0
M  V30 8655 C 847.861 0.950691 2.14474 0
M  V30 8656 C 848.877 -0.0900219 1.73767 0
M  V30 8657 O 850.053 0.0951063 2.01175 0
M  V30 8658 C 847.118 0.494917 3.43149 0
M  V30 8659 C 846.179 1.60527 3.98158 0
M  V30 8660 C 845.412 1.17115 5.20692 0
M  V30 8661 O 845.635 0.0355937 5.70389 0
M  V30 8662 O 844.569 1.97454 5.68591 0
M  V30 8663 H 848.395 1.88651 2.38001 0
M  V30 8664 H 845.98 0.978635 1.12885 0
M  V30 8665 H 847.862 0.249492 4.20661 0
M  V30 8666 H 846.537 -0.412434 3.21062 0
M  V30 8667 H 845.444 1.90487 3.21971 0
M  V30 8668 H 846.777 2.48925 4.24614 0
M  V30 8669 N 848.429 -1.21819 0.999893 0
M  V30 8670 C 849.359 -2.26282 0.576096 0
M  V30 8671 C 850.34 -1.65317 -0.400537 0
M  V30 8672 O 851.525 -1.92028 -0.28964 0
M  V30 8673 C 848.655 -3.47147 -0.103145 0
M  V30 8674 C 847.609 -4.20594 0.792745 0
M  V30 8675 C 846.935 -5.34696 -0.0198026 0
M  V30 8676 C 848.235 -4.78533 2.09293 0
M  V30 8677 H 849.929 -2.61984 1.4493 0
M  V30 8678 H 847.475 -1.25935 0.698316 0
M  V30 8679 H 849.428 -4.1939 -0.411068 0
M  V30 8680 H 848.152 -3.1056 -1.01094 0
M  V30 8681 H 846.811 -3.50194 1.08442 0
M  V30 8682 H 846.459 -4.94352 -0.928729 0
M  V30 8683 H 846.159 -5.84764 0.576661 0
M  V30 8684 H 847.683 -6.09752 -0.321659 0
M  V30 8685 H 849.097 -5.42682 1.8485 0
M  V30 8686 H 847.494 -5.38968 2.63881 0
M  V30 8687 H 848.564 -3.98197 2.76708 0
M  V30 8688 N 849.908 -0.773975 -1.37286 0
M  V30 8689 C 851.155 -0.339306 -1.99637 0
M  V30 8690 C 851.483 1.08478 -1.61439 0
M  V30 8691 O 850.738 1.7612 -0.853252 0
M  V30 8692 C 851.037 -0.432651 -3.54772 0
M  V30 8693 C 850.703 -1.81531 -4.12744 0
M  V30 8694 C 849.365 -2.19366 -4.2829 0
M  V30 8695 C 851.717 -2.72137 -4.44512 0
M  V30 8696 C 849.045 -3.47239 -4.72908 0
M  V30 8697 C 851.397 -3.99421 -4.90556 0
M  V30 8698 C 850.061 -4.37298 -5.04308 0
M  V30 8699 H 849.331 -0.124161 -0.730524 0
M  V30 8700 H 851.978 -0.988432 -1.64019 0
M  V30 8701 H 850.283 0.30001 -3.9065 0
M  V30 8702 H 851.98 -0.0776 -4.00925 0
M  V30 8703 H 848.57 -1.51126 -4.01072 0
M  V30 8704 H 852.754 -2.44165 -4.32084 0
M  V30 8705 H 848.01 -3.76477 -4.81742 0
M  V30 8706 H 852.184 -4.69756 -5.14104 0
M  V30 8707 H 849.811 -5.36442 -5.38641 0
M  V30 8708 N 851.386 1.48609 -0.524698 0
M  V30 8709 C 852.349 2.28041 0.230166 0
M  V30 8710 C 853.349 1.35065 0.872584 0
M  V30 8711 O 854.539 1.58007 0.73345 0
M  V30 8712 C 851.671 3.13778 1.33252 0
M  V30 8713 H 852.864 2.96239 -0.467161 0
M  V30 8714 H 850.417 1.53763 -0.280452 0
M  V30 8715 H 851.152 2.502 2.06327 0
M  V30 8716 H 850.937 3.82165 0.877058 0
M  V30 8717 H 852.427 3.7371 1.86362 0
M  V30 8718 N 852.864 0.259585 1.55447 0
M  V30 8719 C 854.275 -0.241165 1.85136 0
M  V30 8720 C 854.626 -1.56634 1.18153 0
M  V30 8721 O 853.751 -2.11359 0.464351 0
M  V30 8722 C 854.346 -0.444355 3.35873 0
M  V30 8723 C 852.905 -0.889354 3.65742 0
M  V30 8724 C 852.052 0.0262474 2.77288 0
M  V30 8725 H 855.003 0.481808 1.51209 0
M  V30 8726 H 855.024 -1.28517 3.58139 0
M  V30 8727 H 854.536 0.520289 3.84597 0
M  V30 8728 H 852.637 -1.86602 3.22507 0
M  V30 8729 H 852.75 -0.737432 4.73391 0
M  V30 8730 H 851.114 -0.487361 2.49994 0
M  V30 8731 H 851.897 0.986494 3.28821 0
M  V30 8732 N 854.342 -1.57594 -0.0133615 0
M  V30 8733 C 855.252 -2.10991 -1.02566 0
M  V30 8734 C 856.268 -1.05208 -1.3859 0
M  V30 8735 O 857.444 -1.37034 -1.47593 0
M  V30 8736 C 854.509 -2.59165 -2.30292 0
M  V30 8737 C 853.57 -3.79495 -2.00704 0
M  V30 8738 C 852.803 -4.25361 -3.22341 0
M  V30 8739 O 853.026 -3.70645 -4.33565 0
M  V30 8740 O 851.96 -5.17649 -3.07121 0
M  V30 8741 H 855.786 -2.97678 -0.601806 0
M  V30 8742 H 853.371 -1.47598 -0.23135 0
M  V30 8743 H 855.253 -2.90409 -3.05354 0
M  V30 8744 H 853.928 -1.75582 -2.71942 0
M  V30 8745 H 852.835 -3.53245 -1.23161 0
M  V30 8746 H 854.168 -4.64109 -1.639 0
M  V30 8747 N 855.82 0.285905 -1.54985 0
M  V30 8748 C 856.752 1.37505 -1.83371 0
M  V30 8749 C 857.765 1.46138 -0.717454 0
M  V30 8750 O 858.954 1.48186 -0.995142 0
M  V30 8751 C 856.054 2.7575 -1.97016 0
M  V30 8752 C 855.227 2.89866 -3.27561 0
M  V30 8753 C 854.286 4.08704 -3.31433 0
M  V30 8754 O 853.312 4.00073 -4.04883 0
M  V30 8755 N 854.514 5.20062 -2.57907 0
M  V30 8756 H 857.279 1.13505 -2.77375 0
M  V30 8757 H 854.84 0.476006 -1.54744 0
M  V30 8758 H 856.832 3.5352 -1.96991 0
M  V30 8759 H 855.402 2.9263 -1.09938 0
M  V30 8760 H 854.622 1.99085 -3.40234 0
M  V30 8761 H 855.91 2.96219 -4.13681 0
M  V30 8762 H 855.308 5.29958 -1.97891 0
M  V30 8763 H 853.865 5.96111 -2.63619 0
M  V30 8764 N 857.298 1.47698 0.54982 0
M  V30 8765 C 858.546 1.54397 1.30407 0
M  V30 8766 C 858.867 0.211026 1.93855 0
M  V30 8767 O 858.137 -0.765701 1.80316 0
M  V30 8768 H 856.717 0.568747 0.484289 0
M  V30 8769 H 859.379 1.84042 0.641444 0
M  V30 8770 H 858.475 2.31449 2.09375 0
M  V30 8771 N 858.776 -0.797141 1.35954 0
M  V30 8772 C 860.001 -1.59097 1.33053 0
M  V30 8773 C 860.426 -1.87897 -0.0874592 0
M  V30 8774 O 859.784 -1.47291 -1.05712 0
M  V30 8775 C 859.832 -2.89346 2.152 0
M  V30 8776 O 858.936 -3.826 1.5392 0
M  V30 8777 H 858.277 -0.482895 0.45575 0
M  V30 8778 H 860.807 -0.988633 1.79129 0
M  V30 8779 H 860.817 -3.38686 2.27499 0
M  V30 8780 H 859.492 -2.6771 3.18283 0
M  V30 8781 H 858.069 -3.41174 1.50516 0
M  V30 8782 N 860.254 -1.20106 -1.0204 0
M  V30 8783 C 861.184 -0.970301 -2.12385 0
M  V30 8784 C 862.165 0.099378 -1.69809 0
M  V30 8785 O 863.35 -0.057365 -1.94115 0
M  V30 8786 C 860.48 -0.517431 -3.43424 0
M  V30 8787 C 859.434 -1.52992 -3.99722 0
M  V30 8788 C 858.76 -0.933817 -5.26483 0
M  V30 8789 C 860.06 -2.91257 -4.33551 0
M  V30 8790 H 861.754 -1.89316 -2.31948 0
M  V30 8791 H 859.3 -0.911655 -1.11467 0
M  V30 8792 H 861.253 -0.343243 -4.2 0
M  V30 8793 H 859.977 0.441049 -3.23608 0
M  V30 8794 H 858.636 -1.6914 -3.2525 0
M  V30 8795 H 858.284 0.0324763 -5.0299 0
M  V30 8796 H 857.984 -1.60999 -5.65113 0
M  V30 8797 H 859.508 -0.770614 -6.05718 0
M  V30 8798 H 860.922 -2.78642 -5.0103 0
M  V30 8799 H 859.319 -3.55745 -4.83286 0
M  V30 8800 H 860.389 -3.43269 -3.42483 0
M  V30 8801 N 861.732 1.21287 -1.00634 0
M  V30 8802 C 863.009 1.86 -0.605257 0
M  V30 8803 C 863.389 1.90139 0.917072 0
M  V30 8804 O 862.737 1.40169 1.80458 0
M  V30 8805 C 862.947 3.26183 -1.24119 0
M  V30 8806 C 864.295 4.02562 -1.35015 0
M  V30 8807 O 865.319 3.35499 -1.19661 0
M  V30 8808 O 864.178 5.22638 -1.59726 0
M  V30 8809 H 861.272 0.800549 -0.207486 0
M  V30 8810 H 863.818 1.28959 -1.10307 0
M  V30 8811 H 862.59 3.17878 -2.28186 0
M  V30 8812 H 862.213 3.90845 -0.729807 0
M  V30 8813 N 863.21 0.781244 1.36873 0
M  V30 8814 C 864.45 0.355185 2.0129 0
M  V30 8815 C 864.814 -1.05115 1.6067 0
M  V30 8816 O 866.015 -1.57785 2.17618 0
M  V30 8817 C 864.286 0.504587 3.5382 0
M  V30 8818 S 865.845 0.165196 4.38489 0
M  V30 8819 H 862.663 0.136133 0.697846 0
M  V30 8820 H 865.265 1.01794 1.66908 0
M  V30 8821 H 863.969 1.52857 3.80871 0
M  V30 8822 H 863.5 -0.174392 3.93013 0
M  V30 8823 H 865.515 -1.03605 4.85263 0
M  V30 8824 N 864.689 -1.48329 0.532571 0
M  V30 8825 C 865.914 -2.074 0.00147755 0
M  V30 8826 C 866.339 -1.38615 -1.27151 0
M  V30 8827 O 865.697 -0.452949 -1.75551 0
M  V30 8828 C 865.745 -3.60029 -0.202866 0
M  V30 8829 O 864.849 -3.92327 -1.27097 0
M  V30 8830 H 864.19 -0.662777 0.0402883 0
M  V30 8831 H 866.72 -1.90701 0.741224 0
M  V30 8832 H 866.73 -4.05783 -0.424722 0
M  V30 8833 H 865.405 -4.09496 0.727033 0
M  V30 8834 H 863.982 -3.58348 -1.03156 0
M  V30 8835 N 866.167 -0.267825 -1.55308 0
M  V30 8836 C 867.444 0.402449 -1.91415 0
M  V30 8837 C 867.824 1.7428 -1.1912 0
M  V30 8838 O 867.172 2.2631 -0.315609 0
M  V30 8839 C 867.382 0.549926 -3.4464 0
M  V30 8840 C 868.73 0.836188 -4.16285 0
M  V30 8841 O 869.754 0.635009 -3.50494 0
M  V30 8842 O 868.613 1.22051 -5.32697 0
M  V30 8843 H 865.707 0.219177 -0.797427 0
M  V30 8844 H 868.253 -0.313439 -1.6678 0
M  V30 8845 H 867.025 -0.393641 -3.89315 0
M  V30 8846 H 866.648 1.31556 -3.75205 0
M  V30 8847 N 867.645 1.57599 0.00500368 0
M  V30 8848 C 868.873 1.94626 0.702016 0
M  V30 8849 C 869.288 0.86953 1.67585 0
M  V30 8850 O 868.645 -0.15199 1.81866 0
M  V30 8851 C 868.696 3.31658 1.43824 0
M  V30 8852 O 868.417 4.35197 0.503467 0
M  V30 8853 C 869.918 3.83114 2.23021 0
M  V30 8854 H 867.138 0.641785 0.195841 0
M  V30 8855 H 869.682 2.04451 -0.0446287 0
M  V30 8856 H 867.837 3.23156 2.13655 0
M  V30 8857 H 868.251 5.1444 1.02235 0
M  V30 8858 H 869.725 4.81438 2.7004 0
M  V30 8859 H 870.202 3.15559 3.05482 0
M  V30 8860 H 870.808 3.94775 1.58216 0
M  V30 8861 N 869.123 -0.277682 1.55134 0
M  V30 8862 C 870.539 -0.624625 1.46869 0
M  V30 8863 C 870.739 -1.89717 0.678958 0
M  V30 8864 O 869.795 -2.51739 0.195939 0
M  V30 8865 C 871.108 -0.755937 2.91043 0
M  V30 8866 C 872.656 -0.850299 3.01229 0
M  V30 8867 C 873.131 -1.01343 4.46647 0
M  V30 8868 N 874.622 -1.07906 4.50456 0
M  V30 8869 C 875.357 -1.224 5.60184 0
M  V30 8870 N 874.853 -1.33642 6.79788 0
M  V30 8871 N 876.646 -1.25473 5.47917 0
M  V30 8872 H 868.797 0.558102 2.04937 0
M  V30 8873 H 871.06 0.188228 0.929125 0
M  V30 8874 H 870.766 0.108593 3.51532 0
M  V30 8875 H 870.64 -1.6377 3.39793 0
M  V30 8876 H 873.027 -1.7053 2.40839 0
M  V30 8877 H 873.108 0.0559681 2.55739 0
M  V30 8878 H 872.752 -0.163102 5.07638 0
M  V30 8879 H 872.682 -1.93427 4.89789 0
M  V30 8880 H 875.173 -1.00477 3.64298 0
M  V30 8881 H 875.486 -1.44522 7.59166 0
M  V30 8882 H 873.831 -1.30655 6.82608 0
M  V30 8883 H 877.022 -1.16317 4.53418 0
M  V30 8884 H 877.195 -1.36424 6.33476 0
M  V30 8885 N 870.601 -1.47988 -0.541979 0
M  V30 8886 C 871.849 -1.55086 -1.29587 0
M  V30 8887 C 872.17 -0.221304 -1.9374 0
M  V30 8888 O 871.44 0.756128 -1.80719 0
M  V30 8889 H 870.02 -0.571307 -0.481266 0
M  V30 8890 H 872.682 -1.8438 -0.631675 0
M  V30 8891 H 871.778 -2.32556 -2.08144 0
M  V30 8892 N 872.079 0.78992 -1.36375 0
M  V30 8893 C 872.989 1.93386 -1.32812 0
M  V30 8894 C 874.005 1.72468 -0.230377 0
M  V30 8895 O 875.181 1.96014 -0.462657 0
M  V30 8896 C 872.246 3.2824 -1.11621 0
M  V30 8897 C 871.307 3.61939 -2.30865 0
M  V30 8898 C 870.54 4.90359 -2.10675 0
M  V30 8899 O 870.763 5.6005 -1.08168 0
M  V30 8900 O 869.697 5.22702 -2.9844 0
M  V30 8901 H 873.523 1.99342 -2.29121 0
M  V30 8902 H 871.108 0.9301 -1.16917 0
M  V30 8903 H 872.99 4.08939 -1.01719 0
M  V30 8904 H 871.665 3.23178 -0.183732 0
M  V30 8905 H 870.572 2.81549 -2.46335 0
M  V30 8906 H 871.905 3.71725 -3.22617 0
M  V30 8907 N 873.557 1.20646 1.01402 0
M  V30 8908 C 874.804 1.01819 1.7504 0
M  V30 8909 C 875.132 -0.449386 1.89237 0
M  V30 8910 O 874.387 -1.34985 1.41695 0
M  V30 8911 C 874.686 1.64991 3.17037 0
M  V30 8912 C 874.352 3.14808 3.22811 0
M  V30 8913 C 873.014 3.55692 3.24094 0
M  V30 8914 C 875.366 4.108 3.2077 0
M  V30 8915 C 872.694 4.9109 3.2101 0
M  V30 8916 C 875.046 5.46147 3.19227 0
M  V30 8917 C 873.71 5.86441 3.18815 0
M  V30 8918 H 872.98 0.372582 0.640518 0
M  V30 8919 H 875.627 1.50108 1.18911 0
M  V30 8920 H 873.932 1.08971 3.76341 0
M  V30 8921 H 875.629 1.47937 3.72714 0
M  V30 8922 H 872.219 2.8224 3.2255 0
M  V30 8923 H 876.403 3.80246 3.18946 0
M  V30 8924 H 871.659 5.21569 3.19023 0
M  V30 8925 H 875.833 6.20272 3.166 0
M  V30 8926 H 873.46 6.91328 3.16179 0
M  V30 8927 N 875.035 -1.20752 1.01276 0
M  V30 8928 C 875.983 -2.25432 0.572989 0
M  V30 8929 C 876.977 -1.64935 -0.386354 0
M  V30 8930 O 878.183 -1.7816 -0.256696 0
M  V30 8931 H 874.558 -0.733229 0.166972 0
M  V30 8932 H 876.529 -2.59856 1.46687 0
M  V30 8933 C 875.278 -3.47615 -0.0768249 0
M  V30 8934 H 874.601 -3.94442 0.652354 0
M  V30 8935 H 876.041 -4.22572 -0.3477 0
M  V30 8936 C 874.5 -3.1003 -1.31845 0
M  V30 8937 O 875.03 -3.21216 -2.41211 0
M  V30 8938 N 873.236 -2.64616 -1.20111 0
M  V30 8939 H 872.783 -2.55714 -0.311184 0
M  V30 8940 H 872.741 -2.39838 -2.03286 0
M  V30 8941 N 876.513 -0.788492 -1.36457 0
M  V30 8942 C 877.759 -0.360995 -1.99561 0
M  V30 8943 C 878.092 1.06433 -1.62437 0
M  V30 8944 O 877.367 1.7352 -0.878705 0
M  V30 8945 C 877.65 -0.523735 -3.56271 0
M  V30 8946 C 877.503 -1.99268 -4.03252 0
M  V30 8947 C 878.822 0.0617908 -4.40057 0
M  V30 8948 H 875.941 -0.13264 -0.724966 0
M  V30 8949 H 878.583 -0.994659 -1.61884 0
M  V30 8950 H 876.733 0.0156979 -3.88497 0
M  V30 8951 H 878.405 -2.59311 -3.81518 0
M  V30 8952 H 876.648 -2.49561 -3.54826 0
M  V30 8953 H 877.319 -2.05752 -5.12221 0
M  V30 8954 H 879.795 -0.398674 -4.14186 0
M  V30 8955 H 878.671 -0.0821089 -5.48839 0
M  V30 8956 H 878.932 1.15381 -4.26778 0
M  V30 8957 N 877.991 1.48044 -0.54043 0
M  V30 8958 C 879.239 2.02097 -0.0101367 0
M  V30 8959 C 879.56 1.41881 1.33771 0
M  V30 8960 O 878.83 0.587923 1.8687 0
M  V30 8961 H 877.41 0.747 -0.000758716 0
M  V30 8962 H 880.072 1.81639 -0.706634 0
M  V30 8963 H 879.168 3.11969 0.0904474 0
M  V30 8964 N 879.47 0.276058 1.55163 0
M  V30 8965 C 880.695 -0.346648 2.04483 0
M  V30 8966 C 881.12 -1.48613 1.15308 0
M  V30 8967 O 880.478 -1.80663 0.151875 0
M  V30 8968 C 880.526 -0.804268 3.51517 0
M  V30 8969 O 879.63 -1.91143 3.65429 0
M  V30 8970 H 878.971 -0.0715251 0.660136 0
M  V30 8971 H 881.501 0.410631 2.00437 0
M  V30 8972 H 881.511 -1.09977 3.92898 0
M  V30 8973 H 880.186 0.0294123 4.1589 0
M  V30 8974 H 878.763 -1.61839 3.3595 0
M  V30 8975 N 880.948 -1.576 0.00335426 0
M  V30 8976 C 882.176 -1.94996 -0.691685 0
M  V30 8977 C 882.591 -0.878405 -1.67121 0
M  V30 8978 O 881.948 0.142343 -1.81944 0
M  V30 8979 C 881.999 -3.32416 -1.42063 0
M  V30 8980 O 881.72 -4.35458 -0.48038 0
M  V30 8981 C 883.221 -3.84291 -2.20987 0
M  V30 8982 H 880.441 -0.642814 -0.192434 0
M  V30 8983 H 882.985 -2.04425 0.0554706 0
M  V30 8984 H 881.14 -3.24285 -2.11939 0
M  V30 8985 H 881.554 -5.14975 -0.995054 0
M  V30 8986 H 883.028 -4.82863 -2.67483 0
M  V30 8987 H 883.505 -3.17174 -3.03805 0
M  V30 8988 H 884.111 -3.95609 -1.56121 0
M  V30 8989 N 882.426 0.269451 -1.5528 0
M  V30 8990 C 883.666 1.00819 -1.77806 0
M  V30 8991 C 884.03 1.83369 -0.569198 0
M  V30 8992 O 885.231 2.60244 -0.672783 0
M  V30 8993 C 883.502 1.86447 -3.04913 0
M  V30 8994 S 885.061 2.66538 -3.48573 0
M  V30 8995 H 881.879 0.339508 -0.624704 0
M  V30 8996 H 884.481 0.278256 -1.9351 0
M  V30 8997 H 883.185 1.24733 -3.90986 0
M  V30 8998 H 882.716 2.63755 -2.91885 0
M  V30 8999 H 884.731 3.88938 -3.08126 0
M  V30 9000 N 883.904 1.48273 0.534124 0
M  V30 9001 C 884.854 1.58889 1.63519 0
M  V30 9002 C 885.838 0.44626 1.54588 0
M  V30 9003 O 887.03 0.697474 1.62679 0
M  V30 9004 C 884.159 1.62787 3.0225 0
M  V30 9005 C 883.245 2.82515 3.16301 0
M  V30 9006 N 883.636 4.06977 3.00338 0
M  V30 9007 C 881.934 2.7976 3.47347 0
M  V30 9008 C 882.635 4.87283 3.17694 0
M  V30 9009 N 881.611 4.20024 3.45081 0
M  V30 9010 H 885.413 2.52869 1.49781 0
M  V30 9011 H 882.927 1.44587 0.739479 0
M  V30 9012 H 884.924 1.68486 3.81337 0
M  V30 9013 H 883.584 0.699201 3.17082 0
M  V30 9014 H 884.595 4.37479 2.77186 0
M  V30 9015 H 881.272 1.96132 3.68563 0
M  V30 9016 H 882.662 5.96047 3.10126 0
M  V30 9017 N 885.382 -0.782676 1.36792 0
M  V30 9018 C 886.629 -1.54083 1.31395 0
M  V30 9019 C 886.957 -1.94217 -0.104797 0
M  V30 9020 O 886.212 -1.63491 -1.0756 0
M  V30 9021 C 886.511 -2.82542 2.18872 0
M  V30 9022 C 886.177 -2.61512 3.67317 0
M  V30 9023 C 884.839 -2.55486 4.07775 0
M  V30 9024 C 887.191 -2.42389 4.61407 0
M  V30 9025 C 884.519 -2.28311 5.40454 0
M  V30 9026 C 886.871 -2.1674 5.94312 0
M  V30 9027 C 885.535 -2.09151 6.33887 0
M  V30 9028 H 884.805 -0.563829 0.48081 0
M  V30 9029 H 887.452 -0.902436 1.68903 0
M  V30 9030 H 885.757 -3.50883 1.74323 0
M  V30 9031 H 887.454 -3.40367 2.12017 0
M  V30 9032 H 884.044 -2.67062 3.35225 0
M  V30 9033 H 888.228 -2.46043 4.31018 0
M  V30 9034 H 883.484 -2.20922 5.70091 0
M  V30 9035 H 887.658 -2.0094 6.6678 0
M  V30 9036 H 885.285 -1.87857 7.36623 0
M  V30 9037 N 886.86 -1.21182 -1.00761 0
M  V30 9038 C 888.085 -1.05411 -1.78615 0
M  V30 9039 C 888.51 0.391837 -1.83973 0
M  V30 9040 O 887.868 1.28256 -1.28141 0
M  V30 9041 C 887.916 -1.65285 -3.20489 0
M  V30 9042 O 887.02 -0.896558 -4.02536 0
M  V30 9043 H 886.361 -0.37116 -0.550578 0
M  V30 9044 H 888.891 -1.60669 -1.26676 0
M  V30 9045 H 888.901 -1.69397 -3.71172 0
M  V30 9046 H 887.576 -2.70514 -3.15904 0
M  V30 9047 H 886.153 -0.930335 -3.61108 0
M  V30 9048 N 888.338 1.20213 -1.01915 0
M  V30 9049 C 889.578 1.91354 -0.71853 0
M  V30 9050 C 889.942 1.77231 0.738466 0
M  V30 9051 O 891.143 2.42876 1.15172 0
M  V30 9052 C 889.414 3.38552 -1.14529 0
M  V30 9053 S 890.973 4.28011 -0.967037 0
M  V30 9054 H 887.791 0.661015 -0.261879 0
M  V30 9055 H 890.393 1.45394 -1.30694 0
M  V30 9056 H 889.097 3.46354 -2.20153 0
M  V30 9057 H 888.628 3.8954 -0.549766 0
M  V30 9058 H 890.643 4.96035 0.127974 0
M  V30 9059 N 889.816 0.795718 1.36037 0
M  V30 9060 C 891.093 0.294743 1.93367 0
M  V30 9061 C 891.473 -1.21406 1.72696 0
M  V30 9062 O 890.821 -2.00849 1.08959 0
M  V30 9063 C 891.031 0.694254 3.42025 0
M  V30 9064 C 892.379 0.677566 4.19159 0
M  V30 9065 O 893.403 0.635119 3.50492 0
M  V30 9066 O 892.262 0.726127 5.41655 0
M  V30 9067 H 889.356 0.0745459 0.823633 0
M  V30 9068 H 891.902 0.878685 1.4518 0
M  V30 9069 H 890.674 1.73458 3.50753 0
M  V30 9070 H 890.297 0.0845338 3.9751 0
M  V30 9071 N 891.294 -1.47756 0.548274 0
M  V30 9072 C 892.242 -2.3158 -0.217584 0
M  V30 9073 C 893.236 -1.42372 -0.917957 0
M  V30 9074 O 894.442 -1.59184 -0.840259 0
M  V30 9075 H 890.817 -0.74671 -0.0890388 0
M  V30 9076 H 892.788 -2.94032 0.508719 0
M  V30 9077 C 891.537 -3.24834 -1.24008 0
M  V30 9078 H 890.86 -3.93435 -0.710572 0
M  V30 9079 H 892.3 -3.86336 -1.74701 0
M  V30 9080 C 890.759 -2.47724 -2.2833 0
M  V30 9081 O 891.289 -2.21522 -3.35098 0
M  V30 9082 N 889.495 -2.08891 -2.02022 0
M  V30 9083 H 889.042 -2.30401 -1.1521 0
M  V30 9084 H 889 -1.57613 -2.7204 0
M  V30 9085 N 892.772 -0.284283 -1.55015 0
M  V30 9086 C 894.02 0.329212 -1.99401 0
M  V30 9087 C 894.341 1.55687 -1.17416 0
M  V30 9088 O 893.611 1.94087 -0.265937 0
M  V30 9089 H 892.191 0.12463 -0.73653 0
M  V30 9090 H 894.853 -0.391743 -1.90922 0
M  V30 9091 H 893.949 0.61278 -3.06025 0
M  V30 9092 N 894.251 1.57596 -0.0117121 0
M  V30 9093 C 895.498 1.91071 0.670667 0
M  V30 9094 C 895.826 0.886457 1.73125 0
M  V30 9095 O 895.081 -0.107135 1.95407 0
M  V30 9096 C 895.38 3.31296 1.34082 0
M  V30 9097 C 895.046 4.49011 0.412305 0
M  V30 9098 C 893.708 4.80945 0.156691 0
M  V30 9099 C 896.06 5.20709 -0.226294 0
M  V30 9100 C 893.388 5.81943 -0.745619 0
M  V30 9101 C 895.74 6.22668 -1.11655 0
M  V30 9102 C 894.404 6.53053 -1.38123 0
M  V30 9103 H 893.674 0.69918 0.245415 0
M  V30 9104 H 896.321 1.91373 -0.0697511 0
M  V30 9105 H 894.626 3.27174 2.15557 0
M  V30 9106 H 896.323 3.54461 1.87506 0
M  V30 9107 H 892.913 4.24067 0.621705 0
M  V30 9108 H 897.097 4.96282 -0.0418456 0
M  V30 9109 H 892.353 6.03839 -0.958566 0
M  V30 9110 H 896.527 6.77351 -1.61767 0
M  V30 9111 H 894.154 7.31132 -2.08208 0
M  V30 9112 N 895.729 -0.261212 1.5542 0
M  V30 9113 C 896.676 -1.32315 1.89107 0
M  V30 9114 C 897.646 -1.48517 0.743767 0
M  V30 9115 O 898.831 -1.62733 0.996123 0
M  V30 9116 C 895.971 -2.67626 2.17877 0
M  V30 9117 C 895.084 -2.59549 3.45338 0
M  V30 9118 C 894.219 -3.87118 3.63748 0
M  V30 9119 C 893.258 -3.736 4.8486 0
M  V30 9120 N 892.395 -4.93029 4.99867 0
M  V30 9121 H 897.235 -1.02886 2.79675 0
M  V30 9122 H 894.772 -0.496812 1.38456 0
M  V30 9123 H 896.73 -3.4637 2.32559 0
M  V30 9124 H 895.36 -2.95232 1.30529 0
M  V30 9125 H 894.412 -1.72452 3.39064 0
M  V30 9126 H 895.724 -2.45465 4.34222 0
M  V30 9127 H 894.878 -4.74305 3.78312 0
M  V30 9128 H 893.617 -4.04084 2.73071 0
M  V30 9129 H 892.622 -2.84797 4.70288 0
M  V30 9130 H 893.847 -3.58143 5.76984 0
M  V30 9131 H 891.793 -5.10383 4.12123 0
M  V30 9132 H 891.71 -4.81521 5.82815 0
M  V30 9133 H 892.978 -5.81754 5.18828 0
M  V30 9134 N 897.207 -1.48554 -0.526253 0
M  V30 9135 C 898.137 -1.66252 -1.63959 0
M  V30 9136 C 899.118 -0.511351 -1.62232 0
M  V30 9137 O 900.303 -0.744322 -1.7937 0
M  V30 9138 C 897.433 -1.70556 -3.02536 0
M  V30 9139 C 896.387 -2.8521 -3.19123 0
M  V30 9140 C 895.713 -2.74606 -4.58798 0
M  V30 9141 C 897.013 -4.26463 -3.0154 0
M  V30 9142 H 898.707 -2.59459 -1.49404 0
M  V30 9143 H 896.253 -1.24862 -0.717326 0
M  V30 9144 H 898.206 -1.81524 -3.80298 0
M  V30 9145 H 896.93 -0.739297 -3.18123 0
M  V30 9146 H 895.589 -2.73802 -2.43779 0
M  V30 9147 H 895.237 -1.75941 -4.71226 0
M  V30 9148 H 894.937 -3.51544 -4.70841 0
M  V30 9149 H 896.461 -2.87548 -5.38655 0
M  V30 9150 H 897.875 -4.38685 -3.69091 0
M  V30 9151 H 896.272 -5.04428 -3.25073 0
M  V30 9152 H 897.342 -4.42667 -1.97925 0
M  V30 9153 N 898.685 0.775411 -1.37205 0
M  V30 9154 C 899.595 1.91967 -1.34855 0
M  V30 9155 C 900.611 1.72214 -0.248656 0
M  V30 9156 O 901.787 1.95512 -0.483421 0
M  V30 9157 C 898.852 3.27038 -1.15096 0
M  V30 9158 C 897.913 3.5947 -2.34691 0
M  V30 9159 C 897.146 4.88097 -2.15865 0
M  V30 9160 O 897.369 5.58871 -1.14102 0
M  V30 9161 O 896.303 5.19507 -3.03967 0
M  V30 9162 H 900.129 1.969 -2.31223 0
M  V30 9163 H 897.714 0.917647 -1.17897 0
M  V30 9164 H 899.596 4.07837 -1.0605 0
M  V30 9165 H 898.271 3.22965 -0.217999 0
M  V30 9166 H 897.178 2.7892 -2.49308 0
M  V30 9167 H 898.511 3.68282 -3.26541 0
M  V30 9168 N 900.163 1.21714 1.00117 0
M  V30 9169 C 901.411 1.03465 1.73607 0
M  V30 9170 C 901.732 -0.432295 1.90148 0
M  V30 9171 O 901.002 -1.31157 1.45515 0
M  V30 9172 H 899.582 0.379857 0.643209 0
M  V30 9173 H 902.244 1.53088 1.20624 0
M  V30 9174 H 901.34 1.50574 2.73375 0
M  V30 9175 N 901.641 -1.19671 1.02551 0
M  V30 9176 C 903.052 -1.70964 0.750208 0
M  V30 9177 C 903.403 -1.82095 -0.730461 0
M  V30 9178 O 902.528 -1.48974 -1.56958 0
M  V30 9179 C 903.123 -3.10516 1.35518 0
M  V30 9180 C 901.682 -3.59083 1.12854 0
M  V30 9181 C 900.829 -2.36041 1.45534 0
M  V30 9182 H 903.78 -1.04559 1.19386 0
M  V30 9183 H 903.801 -3.73028 0.750378 0
M  V30 9184 H 903.313 -3.02383 2.43282 0
M  V30 9185 H 901.414 -3.72536 0.0689627 0
M  V30 9186 H 901.527 -4.43395 1.81488 0
M  V30 9187 H 899.891 -2.39214 0.87458 0
M  V30 9188 H 900.674 -2.3054 2.54374 0
M  V30 9189 N 903.119 -0.802921 -1.35613 0
M  V30 9190 C 904.067 -0.198783 -2.31749 0
M  V30 9191 C 905.061 0.649416 -1.56458 0
M  V30 9192 O 906.267 0.542989 -1.71615 0
M  V30 9193 H 902.642 -0.0455177 -0.750621 0
M  V30 9194 H 904.613 -1.02479 -2.80251 0
M  V30 9195 C 903.362 0.641066 -3.41739 0
M  V30 9196 H 902.685 -0.00226244 -3.998 0
M  V30 9197 H 904.125 1.03022 -4.11294 0
M  V30 9198 C 902.584 1.80505 -2.84464 0
M  V30 9199 O 903.114 2.90235 -2.77717 0
M  V30 9200 N 901.32 1.61542 -2.41563 0
M  V30 9201 H 900.867 0.722863 -2.4725 0
M  V30 9202 H 900.825 2.39581 -2.03589 0
M  V30 9203 N 904.597 1.47463 -0.556102 0
M  V30 9204 C 905.545 2.31692 0.205299 0
M  V30 9205 C 906.539 1.42857 0.910394 0
M  V30 9206 O 907.745 1.59628 0.831806 0
M  V30 9207 H 904.12 0.747172 0.0850775 0
M  V30 9208 H 906.091 2.93758 -0.524305 0
M  V30 9209 C 904.84 3.25487 1.22283 0
M  V30 9210 H 904.163 3.93806 0.689697 0
M  V30 9211 H 905.603 3.87257 1.7265 0
M  V30 9212 C 904.062 2.48931 2.27013 0
M  V30 9213 O 904.592 2.23296 3.33919 0
M  V30 9214 N 902.798 2.0996 2.00911 0
M  V30 9215 H 902.345 2.31008 1.13986 0
M  V30 9216 H 902.303 1.59053 2.712 0
M  V30 9217 N 906.075 0.2925 1.54862 0
M  V30 9218 C 907.321 -0.319736 2.00264 0
M  V30 9219 C 907.654 -1.5419 1.18064 0
M  V30 9220 O 906.929 -1.92821 0.254983 0
M  V30 9221 C 907.212 -0.684753 3.5353 0
M  V30 9222 C 907.065 0.545961 4.46474 0
M  V30 9223 C 908.384 -1.51456 4.13218 0
M  V30 9224 H 905.503 -0.11474 0.728014 0
M  V30 9225 H 908.145 0.402907 1.85679 0
M  V30 9226 H 906.295 -1.30044 3.66089 0
M  V30 9227 H 907.967 1.18448 4.45834 0
M  V30 9228 H 906.21 1.1808 4.1742 0
M  V30 9229 H 906.881 0.246544 5.51449 0
M  V30 9230 H 909.357 -0.994421 4.04043 0
M  V30 9231 H 908.233 -1.73875 5.20633 0
M  V30 9232 H 908.494 -2.5011 3.64551 0
M  V30 9233 N 907.553 -1.57587 0.0200696 0
M  V30 9234 C 908.463 -2.13119 -0.980676 0
M  V30 9235 C 909.479 -1.08124 -1.36328 0
M  V30 9236 O 910.655 -1.40134 -1.44653 0
M  V30 9237 C 907.72 -2.63991 -2.24743 0
M  V30 9238 C 906.781 -3.83667 -1.9261 0
M  V30 9239 C 906.014 -4.32103 -3.13246 0
M  V30 9240 O 906.237 -3.79758 -4.25606 0
M  V30 9241 O 905.171 -5.24047 -2.96072 0
M  V30 9242 H 908.997 -2.98887 -0.538528 0
M  V30 9243 H 906.582 -1.48055 -0.19999 0
M  V30 9244 H 908.464 -2.9682 -2.99125 0
M  V30 9245 H 907.139 -1.81311 -2.68157 0
M  V30 9246 H 906.046 -3.55778 -1.15641 0
M  V30 9247 H 907.379 -4.67482 -1.54019 0
M  V30 9248 N 909.032 0.252966 -1.55557 0
M  V30 9249 C 910.272 0.989276 -1.78865 0
M  V30 9250 C 910.636 1.82755 -0.588615 0
M  V30 9251 O 911.837 2.59516 -0.700347 0
M  V30 9252 C 910.108 1.83203 -3.06874 0
M  V30 9253 S 911.667 2.62826 -3.5138 0
M  V30 9254 H 908.485 0.332863 -0.62827 0
M  V30 9255 H 911.087 0.257716 -1.93794 0
M  V30 9256 H 909.791 1.20579 -3.92287 0
M  V30 9257 H 909.322 2.60644 -2.94666 0
M  V30 9258 H 911.337 3.85648 -3.12234 0
M  V30 9259 N 910.51 1.48831 0.518367 0
M  V30 9260 C 911.738 1.6112 1.298 0
M  V30 9261 C 912.153 0.275872 1.86774 0
M  V30 9262 O 911.51 -0.736416 1.66983 0
M  V30 9263 C 911.561 2.66675 2.44063 0
M  V30 9264 O 911.282 3.95027 1.89434 0
M  V30 9265 C 912.783 2.8951 3.35706 0
M  V30 9266 H 910.003 0.542916 0.394314 0
M  V30 9267 H 912.547 1.94743 0.624142 0
M  V30 9268 H 910.702 2.35879 3.07311 0
M  V30 9269 H 911.116 4.53031 2.64316 0
M  V30 9270 H 912.59 3.67142 4.12202 0
M  V30 9271 H 913.067 1.98768 3.91648 0
M  V30 9272 H 913.673 3.21656 2.7824 0
M  V30 9273 N 911.988 -0.768124 1.37614 0
M  V30 9274 C 913.216 -1.55726 1.36224 0
M  V30 9275 C 913.631 -1.8873 -0.0515357 0
M  V30 9276 O 912.988 -1.51718 -1.0143 0
M  V30 9277 C 913.039 -2.86533 2.20412 0
M  V30 9278 O 912.76 -2.54942 3.56281 0
M  V30 9279 C 914.261 -3.80745 2.27041 0
M  V30 9280 H 911.481 -0.482325 0.46648 0
M  V30 9281 H 914.025 -0.95176 1.81002 0
M  V30 9282 H 912.18 -3.43496 1.79134 0
M  V30 9283 H 912.594 -3.38732 4.00451 0
M  V30 9284 H 914.068 -4.69523 2.90263 0
M  V30 9285 H 914.545 -4.20138 1.27987 0
M  V30 9286 H 915.151 -3.2971 2.68647 0
M  V30 9287 N 913.466 -1.22244 -0.994698 0
M  V30 9288 C 914.691 -1.07299 -1.77487 0
M  V30 9289 C 915.116 0.372302 -1.84379 0
M  V30 9290 O 914.474 1.2689 -1.29494 0
M  V30 9291 C 914.522 -1.68675 -3.18718 0
M  V30 9292 O 913.626 -0.939202 -4.01563 0
M  V30 9293 H 912.967 -0.376979 -0.546611 0
M  V30 9294 H 915.497 -1.62003 -1.24965 0
M  V30 9295 H 915.507 -1.73324 -3.69354 0
M  V30 9296 H 914.182 -2.73849 -3.13017 0
M  V30 9297 H 912.759 -0.968583 -3.60101 0
M  V30 9298 N 914.944 1.19125 -1.03184 0
M  V30 9299 C 916.192 1.8851 -0.728587 0
M  V30 9300 C 916.513 1.80195 0.74531 0
M  V30 9301 O 915.783 1.21437 1.5372 0
M  V30 9302 H 914.363 0.69784 -0.266511 0
M  V30 9303 H 917.025 1.44607 -1.3067 0
M  V30 9304 H 916.121 2.9477 -1.02554 0
M  V30 9305 N 916.422 0.810101 1.35185 0
M  V30 9306 C 917.838 0.494269 1.51754 0
M  V30 9307 C 918.038 -0.983907 1.75845 0
M  V30 9308 O 917.094 -1.76882 1.80191 0
M  V30 9309 C 918.407 1.34268 2.69059 0
M  V30 9310 C 919.955 1.33848 2.82938 0
M  V30 9311 C 920.43 2.17109 4.03271 0
M  V30 9312 N 921.921 2.14664 4.10456 0
M  V30 9313 C 922.656 2.75843 5.02691 0
M  V30 9314 N 922.152 3.45962 6.00235 0
M  V30 9315 N 923.945 2.65465 4.95464 0
M  V30 9316 H 916.096 1.76736 1.17805 0
M  V30 9317 H 918.359 0.752429 0.576676 0
M  V30 9318 H 918.065 2.39183 2.57845 0
M  V30 9319 H 917.939 0.998362 3.63748 0
M  V30 9320 H 920.326 0.29716 2.936 0
M  V30 9321 H 920.407 1.72269 1.89095 0
M  V30 9322 H 920.051 3.21283 3.93369 0
M  V30 9323 H 919.981 1.76046 4.96302 0
M  V30 9324 H 922.472 1.63648 3.40628 0
M  V30 9325 H 922.785 3.89922 6.67219 0
M  V30 9326 H 921.13 3.50067 6.00398 0
M  V30 9327 H 924.321 2.1027 4.18215 0
M  V30 9328 H 924.494 3.13433 5.67154 0
M  V30 9329 N 917.9 -1.47166 0.563914 0
M  V30 9330 C 919.146 -2.03337 0.0506932 0
M  V30 9331 C 919.501 -1.42976 -1.28746 0
M  V30 9332 O 918.794 -0.578508 -1.82658 0
M  V30 9333 C 918.988 -3.57279 -0.0931797 0
M  V30 9334 C 918.817 -4.32567 1.22948 0
M  V30 9335 C 917.587 -4.72206 1.79859 0
M  V30 9336 C 919.785 -4.67282 2.14829 0
M  V30 9337 N 917.767 -5.32166 3.0606 0
M  V30 9338 C 919.138 -5.27615 3.25611 0
M  V30 9339 C 921.193 -4.49211 2.14741 0
M  V30 9340 C 919.896 -5.71784 4.36412 0
M  V30 9341 C 921.922 -4.94384 3.24559 0
M  V30 9342 C 921.284 -5.54771 4.34061 0
M  V30 9343 H 917.383 -0.779627 0.0608761 0
M  V30 9344 H 919.967 -1.79563 0.75268 0
M  V30 9345 H 918.138 -3.80806 -0.764301 0
M  V30 9346 H 919.87 -4.0009 -0.609075 0
M  V30 9347 H 916.625 -4.54372 1.33577 0
M  V30 9348 H 917.049 -5.66684 3.70404 0
M  V30 9349 H 921.691 -4.01875 1.31362 0
M  V30 9350 H 919.409 -6.18108 5.20546 0
M  V30 9351 H 922.995 -4.82167 3.25586 0
M  V30 9352 H 921.875 -5.89087 5.17635 0
M  V30 9353 N 919.378 -0.300708 -1.54705 0
M  V30 9354 C 920.603 0.314073 -2.05008 0
M  V30 9355 C 921.028 1.46759 -1.17657 0
M  V30 9356 O 920.386 1.80398 -0.180598 0
M  V30 9357 C 920.434 0.748243 -3.52752 0
M  V30 9358 O 919.538 1.85305 -3.68424 0
M  V30 9359 H 918.879 0.0610139 -0.661191 0
M  V30 9360 H 921.409 -0.442467 -1.99758 0
M  V30 9361 H 921.419 1.03713 -3.94598 0
M  V30 9362 H 920.094 -0.095573 -4.1579 0
M  V30 9363 H 918.671 1.56473 -3.38483 0
M  V30 9364 N 920.856 1.57574 -0.0284266 0
M  V30 9365 C 921.819 2.09096 0.938691 0
M  V30 9366 C 922.819 1.00588 1.25454 0
M  V30 9367 O 924.009 1.2675 1.19499 0
M  V30 9368 C 921.141 2.55624 2.25542 0
M  V30 9369 H 922.334 2.95829 0.49248 0
M  V30 9370 H 919.887 1.5475 0.219594 0
M  V30 9371 H 920.622 1.72218 2.74793 0
M  V30 9372 H 920.407 3.34896 2.03929 0
M  V30 9373 H 921.897 2.95712 2.94863 0
M  V30 9374 N 922.334 -0.244713 1.55689 0
M  V30 9375 C 923.562 -0.989944 1.8168 0
M  V30 9376 C 923.977 -1.78863 0.604449 0
M  V30 9377 O 923.334 -1.77437 -0.426907 0
M  V30 9378 C 923.385 -1.92607 3.05916 0
M  V30 9379 O 923.106 -1.1597 4.22472 0
M  V30 9380 C 924.607 -2.78711 3.44724 0
M  V30 9381 H 921.827 -0.2912 0.604519 0
M  V30 9382 H 924.371 -0.266938 2.0275 0
M  V30 9383 H 922.526 -2.60333 2.8689 0
M  V30 9384 H 922.94 -1.79311 4.92898 0
M  V30 9385 H 924.414 -3.40141 4.34751 0
M  V30 9386 H 924.891 -3.49935 2.6541 0
M  V30 9387 H 925.497 -2.16435 3.66109 0
M  V30 9388 N 923.813 -1.49104 -0.510467 0
M  V30 9389 C 925.224 -1.51423 -1.09215 0
M  V30 9390 C 925.575 -0.295035 -1.93969 0
M  V30 9391 O 924.7 0.596064 -2.08029 0
M  V30 9392 C 925.295 -2.74387 -1.98739 0
M  V30 9393 C 923.854 -2.79515 -2.52088 0
M  V30 9394 C 923.001 -2.4521 -1.29488 0
M  V30 9395 H 925.952 -1.55938 -0.294807 0
M  V30 9396 H 925.973 -2.54012 -2.83298 0
M  V30 9397 H 925.485 -3.63105 -1.37026 0
M  V30 9398 H 923.586 -1.95054 -3.17466 0
M  V30 9399 H 923.699 -3.81447 -2.89887 0
M  V30 9400 H 922.063 -1.96785 -1.61703 0
M  V30 9401 H 922.846 -3.36192 -0.694978 0
M  V30 9402 N 925.291 0.760815 -1.38019 0
M  V30 9403 C 926.702 1.33773 -1.30237 0
M  V30 9404 C 927.053 1.96148 0.0451153 0
M  V30 9405 O 926.178 1.94574 0.9471 0
M  V30 9406 C 926.773 2.43227 -2.35851 0
M  V30 9407 C 925.332 2.96659 -2.31669 0
M  V30 9408 C 924.479 1.69972 -2.191 0
M  V30 9409 H 927.43 0.560237 -1.48482 0
M  V30 9410 H 927.451 3.22985 -2.01149 0
M  V30 9411 H 926.963 1.978 -3.33911 0
M  V30 9412 H 925.064 3.46433 -1.37167 0
M  V30 9413 H 925.177 3.51529 -3.25521 0
M  V30 9414 H 923.541 1.9332 -1.65829 0
M  V30 9415 H 924.324 1.26633 -3.19091 0
M  V30 9416 N 926.769 1.22769 0.988202 0
M  V30 9417 C 927.997 1.08155 1.76381 0
M  V30 9418 C 928.412 -0.367573 1.85187 0
M  V30 9419 O 927.769 -1.25455 1.32541 0
M  V30 9420 C 927.82 1.69193 3.19462 0
M  V30 9421 O 927.541 3.08437 3.11125 0
M  V30 9422 C 929.042 1.59915 4.13451 0
M  V30 9423 H 926.262 0.378908 0.553778 0
M  V30 9424 H 928.806 1.6246 1.24206 0
M  V30 9425 H 926.961 1.18939 3.6869 0
M  V30 9426 H 927.375 3.37916 4.0114 0
M  V30 9427 H 928.849 2.07339 5.1158 0
M  V30 9428 H 929.326 0.556546 4.3566 0
M  V30 9429 H 929.932 2.09497 3.70123 0
M  V30 9430 N 928.247 -1.18576 1.03814 0
M  V30 9431 C 929.487 -1.90187 0.748882 0
M  V30 9432 C 929.851 -1.78383 -0.710177 0
M  V30 9433 O 931.052 -2.44678 -1.11293 0
M  V30 9434 C 929.323 -3.36688 1.19901 0
M  V30 9435 S 930.882 -4.26419 1.03501 0
M  V30 9436 H 927.7 -0.656765 0.272362 0
M  V30 9437 H 930.302 -1.43296 1.32991 0
M  V30 9438 H 929.006 -3.42808 2.25635 0
M  V30 9439 H 928.537 -3.88616 0.611669 0
M  V30 9440 H 930.552 -4.96176 -0.0490431 0
M  V30 9441 N 929.725 -0.817259 -1.34754 0
M  V30 9442 C 930.672 -0.233108 -2.2962 0
M  V30 9443 C 931.642 0.638902 -1.53321 0
M  V30 9444 O 932.827 0.581739 -1.81715 0
M  V30 9445 C 929.967 0.603659 -3.39779 0
M  V30 9446 C 929.08 -0.289967 -4.31026 0
M  V30 9447 C 928.215 0.555825 -5.28284 0
M  V30 9448 C 927.254 -0.337539 -6.11169 0
M  V30 9449 N 926.391 0.468847 -7.00533 0
M  V30 9450 H 931.231 -1.04747 -2.78984 0
M  V30 9451 H 928.768 -0.528056 -1.37295 0
M  V30 9452 H 930.726 1.10407 -4.02326 0
M  V30 9453 H 929.356 1.38319 -2.91664 0
M  V30 9454 H 928.408 -0.908552 -3.69391 0
M  V30 9455 H 929.72 -0.977136 -4.89135 0
M  V30 9456 H 928.874 1.12094 -5.96255 0
M  V30 9457 H 927.613 1.27652 -4.70698 0
M  V30 9458 H 926.618 -0.914839 -5.42135 0
M  V30 9459 H 927.843 -1.05626 -6.70835 0
M  V30 9460 H 925.789 1.17332 -6.45422 0
M  V30 9461 H 925.706 -0.160052 -7.55831 0
M  V30 9462 H 926.974 1.01689 -7.72839 0
M  V30 9463 N 931.203 1.46865 -0.571711 0
M  V30 9464 C 932.451 2.0203 -0.0530022 0
M  V30 9465 C 932.772 1.44687 1.30731 0
M  V30 9466 O 932.042 0.627429 1.85581 0
M  V30 9467 H 930.622 0.746815 -0.0166035 0
M  V30 9468 H 933.284 1.80099 -0.745003 0
M  V30 9469 H 932.38 3.12091 0.0242538 0
M  V30 9470 N 932.681 0.308908 1.54543 0
M  V30 9471 C 933.93 -0.298854 1.99474 0
M  V30 9472 C 934.243 -1.54393 1.20093 0
M  V30 9473 O 935.449 -2.22677 1.55329 0
M  V30 9474 C 933.905 -0.58303 3.55146 0
M  V30 9475 C 933.513 0.644157 4.43345 0
M  V30 9476 C 935.257 -1.15155 4.08582 0
M  V30 9477 C 933.164 0.332694 5.90463 0
M  V30 9478 H 932.094 -0.115445 0.74511 0
M  V30 9479 H 934.745 0.418848 1.78656 0
M  V30 9480 H 933.127 -1.36053 3.71894 0
M  V30 9481 H 934.301 1.42012 4.38371 0
M  V30 9482 H 932.616 1.13186 4.00722 0
M  V30 9483 H 935.213 -1.39896 5.16075 0
M  V30 9484 H 935.556 -2.09632 3.59667 0
M  V30 9485 H 936.089 -0.435571 3.95408 0
M  V30 9486 H 932.828 1.24624 6.43544 0
M  V30 9487 H 932.348 -0.405844 5.98425 0
M  V30 9488 H 934.027 -0.0628545 6.46969 0
M  V30 9489 N 934.159 -1.57557 0.0367827 0
M  V30 9490 C 935.122 -2.09591 -0.927589 0
M  V30 9491 C 936.122 -1.01252 -1.24919 0
M  V30 9492 O 937.312 -1.27382 -1.18825 0
M  V30 9493 C 934.444 -2.56816 -2.24184 0
M  V30 9494 H 935.637 -2.96086 -0.476784 0
M  V30 9495 H 933.19 -1.54864 -0.211385 0
M  V30 9496 H 933.925 -1.73673 -2.73876 0
M  V30 9497 H 933.71 -3.35973 -2.0215 0
M  V30 9498 H 935.2 -2.97271 -2.93291 0
M  V30 9499 N 935.637 0.236453 -1.55816 0
M  V30 9500 C 936.862 0.98449 -1.82545 0
M  V30 9501 C 937.287 1.77755 -0.615206 0
M  V30 9502 O 936.645 1.75982 0.435895 0
M  V30 9503 C 936.693 1.88973 -3.07118 0
M  V30 9504 O 935.797 2.98298 -2.84766 0
M  V30 9505 H 935.138 0.279577 -0.602273 0
M  V30 9506 H 937.668 0.254277 -2.03014 0
M  V30 9507 H 937.678 2.3024 -3.36829 0
M  V30 9508 H 936.353 1.30671 -3.94839 0
M  V30 9509 H 934.93 2.61085 -2.6625 0
M  V30 9510 N 937.115 1.49373 0.502552 0
M  V30 9511 C 938.045 1.68839 1.61294 0
M  V30 9512 C 939.026 0.537096 1.61398 0
M  V30 9513 O 940.211 0.772764 1.78163 0
M  V30 9514 C 937.341 1.75347 2.99784 0
M  V30 9515 C 936.295 2.90251 3.14545 0
M  V30 9516 C 935.621 2.8187 4.54371 0
M  V30 9517 C 936.921 4.31207 2.94717 0
M  V30 9518 H 938.615 2.61803 1.45257 0
M  V30 9519 H 936.161 1.25987 0.697371 0
M  V30 9520 H 938.114 1.87552 3.77362 0
M  V30 9521 H 936.838 0.789814 3.16906 0
M  V30 9522 H 935.497 2.77646 2.39392 0
M  V30 9523 H 935.145 1.83416 4.68367 0
M  V30 9524 H 934.845 3.5899 4.65188 0
M  V30 9525 H 936.369 2.96081 5.34012 0
M  V30 9526 H 937.783 4.44501 3.62065 0
M  V30 9527 H 936.18 5.09536 3.17007 0
M  V30 9528 H 937.25 4.45759 1.90857 0
M  V30 9529 N 938.594 -0.753485 1.38421 0
M  V30 9530 C 940.005 -1.33081 1.30944 0
M  V30 9531 C 940.356 -1.96169 -0.0347124 0
M  V30 9532 O 939.481 -1.95073 -0.936768 0
M  V30 9533 C 940.076 -2.41973 2.37138 0
M  V30 9534 C 938.635 -2.95426 2.33239 0
M  V30 9535 C 937.782 -1.68808 2.19998 0
M  V30 9536 H 940.733 -0.552354 1.48777 0
M  V30 9537 H 940.754 -3.21913 2.02859 0
M  V30 9538 H 940.266 -1.96027 3.34956 0
M  V30 9539 H 938.367 -3.45701 1.39003 0
M  V30 9540 H 938.48 -3.49798 3.27381 0
M  V30 9541 H 936.844 -1.92438 1.66852 0
M  V30 9542 H 937.627 -1.24939 3.19758 0
M  V30 9543 N 940.072 -1.23292 -0.981677 0
M  V30 9544 C 941.3 -1.09088 -1.75805 0
M  V30 9545 C 941.715 0.357746 -1.8538 0
M  V30 9546 O 941.072 1.24751 -1.33205 0
M  V30 9547 C 941.123 -1.70885 -3.1856 0
M  V30 9548 O 940.844 -3.10082 -3.09484 0
M  V30 9549 C 942.345 -1.62106 -4.12597 0
M  V30 9550 H 939.565 -0.38184 -0.55176 0
M  V30 9551 H 942.109 -1.63116 -1.23342 0
M  V30 9552 H 940.264 -1.20893 -3.68054 0
M  V30 9553 H 940.678 -3.40039 -3.99342 0
M  V30 9554 H 942.152 -2.10049 -5.10474 0
M  V30 9555 H 942.629 -0.579642 -4.35358 0
M  V30 9556 H 943.235 -2.11457 -3.69007 0
M  V30 9557 N 941.55 1.18024 -1.04442 0
M  V30 9558 C 942.961 1.69749 -0.777312 0
M  V30 9559 C 943.312 1.83234 0.701399 0
M  V30 9560 O 942.437 1.51452 1.54568 0
M  V30 9561 C 943.032 3.08321 -1.40441 0
M  V30 9562 C 941.591 3.57243 -1.18553 0
M  V30 9563 C 940.738 2.33695 -1.49271 0
M  V30 9564 H 943.689 1.02647 -1.21035 0
M  V30 9565 H 943.71 3.71787 -0.809628 0
M  V30 9566 H 943.222 2.98474 -2.48062 0
M  V30 9567 H 941.323 3.72379 -0.128221 0
M  V30 9568 H 941.436 4.40451 -1.88519 0
M  V30 9569 H 939.8 2.37792 -0.912526 0
M  V30 9570 H 940.583 2.26464 -2.5801 0
M  V30 9571 N 943.028 0.824394 1.34319 0
M  V30 9572 C 944.276 0.41235 1.97849 0
M  V30 9573 C 944.597 -1.02841 1.65677 0
M  V30 9574 O 943.867 -1.71421 0.948245 0
M  V30 9575 H 942.447 0.149486 0.73189 0
M  V30 9576 H 945.109 1.05416 1.63931 0
M  V30 9577 H 944.205 0.532557 3.07523 0
M  V30 9578 N 944.506 -1.46559 0.579492 0
M  V30 9579 C 945.436 -2.33059 -0.143437 0
M  V30 9580 C 946.417 -1.4515 -0.886868 0
M  V30 9581 O 947.602 -1.73973 -0.862961 0
M  V30 9582 C 944.732 -3.27364 -1.15973 0
M  V30 9583 C 943.686 -4.24689 -0.531348 0
M  V30 9584 C 943.012 -5.08479 -1.65388 0
M  V30 9585 C 944.312 -5.1961 0.529391 0
M  V30 9586 H 946.006 -2.93753 0.578762 0
M  V30 9587 H 943.552 -1.41256 0.279775 0
M  V30 9588 H 945.505 -3.86732 -1.67382 0
M  V30 9589 H 944.229 -2.64771 -1.91217 0
M  V30 9590 H 942.888 -3.6658 -0.0383749 0
M  V30 9591 H 942.536 -4.42273 -2.3959 0
M  V30 9592 H 942.236 -5.74387 -1.23909 0
M  V30 9593 H 943.76 -5.70709 -2.17079 0
M  V30 9594 H 945.174 -5.73212 0.100506 0
M  V30 9595 H 943.571 -5.93843 0.86432 0
M  V30 9596 H 944.641 -4.63737 1.4169 0
M  V30 9597 N 945.984 -0.3171 -1.54377 0
M  V30 9598 C 946.916 0.58571 -2.2159 0
M  V30 9599 C 947.929 1.08495 -1.21378 0
M  V30 9600 O 949.118 0.999638 -1.47883 0
M  V30 9601 C 946.218 1.8157 -2.86156 0
M  V30 9602 C 945.391 1.45625 -4.12447 0
M  V30 9603 C 944.45 2.54308 -4.60667 0
M  V30 9604 O 943.476 2.18724 -5.25498 0
M  V30 9605 N 944.678 3.85129 -4.34345 0
M  V30 9606 H 947.443 0.0102247 -2.99698 0
M  V30 9607 H 945.004 -0.140011 -1.61293 0
M  V30 9608 H 946.996 2.53657 -3.15341 0
M  V30 9609 H 945.566 2.29919 -2.11793 0
M  V30 9610 H 944.786 0.567294 -3.90097 0
M  V30 9611 H 946.074 1.19169 -4.94648 0
M  V30 9612 H 945.472 4.16841 -3.8244 0
M  V30 9613 H 944.029 4.53466 -4.68201 0
M  V30 9614 N 947.462 1.57535 -0.0451378 0
M  V30 9615 C 948.702 1.9432 0.633955 0
M  V30 9616 C 949.066 0.922924 1.68363 0
M  V30 9617 O 950.267 1.17751 2.41636 0
M  V30 9618 C 948.538 3.35933 1.21999 0
M  V30 9619 S 950.097 3.94666 1.91793 0
M  V30 9620 H 946.915 0.679798 0.208318 0
M  V30 9621 H 949.517 1.95175 -0.112633 0
M  V30 9622 H 948.221 4.07993 0.443821 0
M  V30 9623 H 947.752 3.38559 2.00353 0
M  V30 9624 H 949.767 3.79401 3.19796 0
M  V30 9625 N 948.94 -0.228186 1.55939 0
M  V30 9626 C 950.351 -0.795734 1.68893 0
M  V30 9627 C 950.702 -1.85261 0.645967 0
M  V30 9628 O 949.827 -2.15434 -0.2042 0
M  V30 9629 C 950.422 -1.45013 3.06197 0
M  V30 9630 C 948.981 -1.96514 3.21028 0
M  V30 9631 C 948.128 -0.822918 2.64808 0
M  V30 9632 H 951.079 -0.0036485 1.587 0
M  V30 9633 H 951.1 -2.31875 3.01685 0
M  V30 9634 H 950.612 -0.680678 3.82084 0
M  V30 9635 H 948.713 -2.76282 2.49998 0
M  V30 9636 H 948.826 -2.14967 4.28166 0
M  V30 9637 H 947.19 -1.22846 2.23116 0
M  V30 9638 H 947.973 -0.0662493 3.43236 0
M  V30 9639 N 950.418 -1.49637 -0.494624 0
M  V30 9640 C 951.381 -1.66252 -1.57775 0
M  V30 9641 C 952.381 -0.534054 -1.51672 0
M  V30 9642 O 953.571 -0.800637 -1.54711 0
M  V30 9643 C 950.703 -1.66584 -2.97426 0
M  V30 9644 H 951.896 -2.62864 -1.4437 0
M  V30 9645 H 949.449 -1.38764 -0.719323 0
M  V30 9646 H 950.184 -0.715798 -3.16302 0
M  V30 9647 H 949.969 -2.48543 -3.03264 0
M  V30 9648 H 951.459 -1.81474 -3.76108 0
M  V30 9649 N 951.896 0.746133 -1.38819 0
M  V30 9650 C 952.826 1.87344 -1.39372 0
M  V30 9651 C 953.807 1.68123 -0.258583 0
M  V30 9652 O 954.992 1.88606 -0.462769 0
M  V30 9653 C 952.122 3.24962 -1.22543 0
M  V30 9654 C 951.076 3.58799 -2.33339 0
M  V30 9655 C 950.402 4.95235 -2.01609 0
M  V30 9656 C 951.702 3.62911 -3.75624 0
M  V30 9657 H 953.396 1.87138 -2.33709 0
M  V30 9658 H 950.942 0.898937 -1.12495 0
M  V30 9659 H 952.895 4.03488 -1.21554 0
M  V30 9660 H 951.619 3.25667 -0.246707 0
M  V30 9661 H 950.278 2.82596 -2.33527 0
M  V30 9662 H 949.926 4.92508 -1.02202 0
M  V30 9663 H 949.626 5.18843 -2.75819 0
M  V30 9664 H 951.15 5.76131 -2.02251 0
M  V30 9665 H 952.564 4.31535 -3.77426 0
M  V30 9666 H 950.961 3.98031 -4.491 0
M  V30 9667 H 952.031 2.62967 -4.07402 0
M  V30 9668 N 953.375 1.23811 0.975125 0
M  V30 9669 C 954.603 1.10019 1.75224 0
M  V30 9670 C 955.018 -0.34791 1.85567 0
M  V30 9671 O 954.375 -1.24043 1.33864 0
M  V30 9672 C 954.426 1.72572 3.1765 0
M  V30 9673 O 954.147 3.11719 3.07836 0
M  V30 9674 C 955.648 1.64292 4.11732 0
M  V30 9675 H 952.868 0.38476 0.549728 0
M  V30 9676 H 955.412 1.63768 1.22476 0
M  V30 9677 H 953.567 1.22843 3.67408 0
M  V30 9678 H 953.981 3.42152 3.97533 0
M  V30 9679 H 955.455 2.12754 5.09352 0
M  V30 9680 H 955.932 0.602722 4.35045 0
M  V30 9681 H 956.538 2.13411 3.6788 0
M  V30 9682 N 954.853 -1.17469 1.05066 0
M  V30 9683 C 956.081 -1.9162 0.780334 0
M  V30 9684 C 956.496 -1.76745 -0.663817 0
M  V30 9685 O 955.853 -1.10377 -1.45338 0
M  V30 9686 C 955.904 -3.42723 1.14992 0
M  V30 9687 O 955.625 -3.57139 2.53739 0
M  V30 9688 C 957.126 -4.33952 0.905549 0
M  V30 9689 H 954.346 -0.608022 0.283814 0
M  V30 9690 H 956.89 -1.4897 1.401 0
M  V30 9691 H 955.045 -3.83124 0.57403 0
M  V30 9692 H 955.459 -4.5075 2.68189 0
M  V30 9693 H 956.933 -5.38487 1.21391 0
M  V30 9694 H 957.41 -4.38911 -0.159295 0
M  V30 9695 H 958.016 -3.99263 1.46522 0
M  V30 9696 N 956.331 -0.831506 -1.3388 0
M  V30 9697 C 957.742 -0.481375 -1.80388 0
M  V30 9698 C 958.093 0.998993 -1.68863 0
M  V30 9699 O 957.218 1.77795 -1.2336 0
M  V30 9700 C 957.813 -0.86699 -3.27519 0
M  V30 9701 C 956.372 -0.569105 -3.72073 0
M  V30 9702 C 955.519 -1.07929 -2.55434 0
M  V30 9703 H 958.47 -1.02089 -1.21505 0
M  V30 9704 H 958.491 -0.174128 -3.80101 0
M  V30 9705 H 958.003 -1.94447 -3.35875 0
M  V30 9706 H 956.104 0.498607 -3.69249 0
M  V30 9707 H 956.217 -1.11918 -4.65845 0
M  V30 9708 H 954.581 -0.500465 -2.49735 0
M  V30 9709 H 955.364 -2.16339 -2.66556 0
M  V30 9710 N 957.809 1.4625 -0.587256 0
M  V30 9711 C 959.057 2.01963 -0.0744273 0
M  V30 9712 C 959.378 1.46065 1.29189 0
M  V30 9713 O 958.648 0.647077 1.84905 0
M  V30 9714 H 957.228 0.746597 -0.0245236 0
M  V30 9715 H 959.89 1.79299 -0.764063 0
M  V30 9716 H 958.986 3.12099 -0.00884894 0
M  V30 9717 N 959.287 0.325282 1.54207 0
M  V30 9718 C 960.219 -0.57395 2.21897 0
M  V30 9719 C 961.232 -1.0785 1.21952 0
M  V30 9720 O 962.421 -0.991782 1.48411 0
M  V30 9721 C 959.521 -1.8005 2.87115 0
M  V30 9722 C 958.694 -1.43435 4.13213 0
M  V30 9723 C 957.753 -2.51862 4.62009 0
M  V30 9724 O 956.779 -2.15934 5.26651 0
M  V30 9725 N 957.981 -3.8282 4.36382 0
M  V30 9726 H 960.746 0.00566918 2.99699 0
M  V30 9727 H 958.307 0.148563 1.61217 0
M  V30 9728 H 960.299 -2.51981 3.16682 0
M  V30 9729 H 958.869 -2.28792 2.13009 0
M  V30 9730 H 958.089 -0.546598 3.90392 0
M  V30 9731 H 959.377 -1.16544 4.95273 0
M  V30 9732 H 958.775 -4.14807 3.84645 0
M  V30 9733 H 957.332 -4.50976 4.70599 0
M  V30 9734 N 960.765 -1.57509 0.0534917 0
M  V30 9735 C 962.013 -1.92402 -0.618548 0
M  V30 9736 C 962.334 -0.93273 -1.71246 0
M  V30 9737 O 961.604 0.0220495 -1.95888 0
M  V30 9738 H 960.184 -0.710233 -0.23147 0
M  V30 9739 H 962.846 -1.94606 0.10704 0
M  V30 9740 H 961.942 -2.93704 -1.05566 0
M  V30 9741 N 962.243 0.219913 -1.56058 0
M  V30 9742 C 963.471 0.960915 -1.83232 0
M  V30 9743 C 963.886 1.77878 -0.632828 0
M  V30 9744 O 963.243 1.78093 0.398624 0
M  V30 9745 C 963.294 1.87716 -3.08942 0
M  V30 9746 O 963.015 1.09235 -4.24263 0
M  V30 9747 C 964.516 2.73192 -3.49115 0
M  V30 9748 H 961.736 0.281546 -0.609075 0
M  V30 9749 H 964.28 0.234648 -2.03149 0
M  V30 9750 H 962.435 2.55736 -2.90995 0
M  V30 9751 H 962.849 1.71446 -4.95688 0
M  V30 9752 H 964.323 3.33181 -4.40107 0
M  V30 9753 H 964.8 3.45668 -2.70943 0
M  V30 9754 H 965.406 2.10583 -3.69506 0
M  V30 9755 N 963.721 1.49897 0.486681 0
M  V30 9756 C 964.654 1.6224 1.60479 0
M  V30 9757 C 965.632 0.470964 1.5563 0
M  V30 9758 O 966.816 0.688418 1.75479 0
M  V30 9759 C 963.943 1.59059 2.99028 0
M  V30 9760 C 962.989 2.79575 3.22087 0
M  V30 9761 S 963.822 4.41077 3.03664 0
M  V30 9762 C 964.978 4.40564 4.44583 0
M  V30 9763 H 965.211 2.56822 1.49766 0
M  V30 9764 H 962.744 1.38966 0.672893 0
M  V30 9765 H 964.702 1.5791 3.78913 0
M  V30 9766 H 963.363 0.657405 3.07143 0
M  V30 9767 H 962.556 2.73609 4.23266 0
M  V30 9768 H 962.158 2.78211 2.49949 0
M  V30 9769 H 964.45 4.13166 5.36936 0
M  V30 9770 H 965.393 5.42068 4.55596 0
M  V30 9771 H 965.801 3.70461 4.25933 0
M  V30 9772 N 965.199 -0.738761 1.39212 0
M  V30 9773 C 966.429 -1.5258 1.39295 0
M  V30 9774 C 966.837 -1.89194 -0.0153 0
M  V30 9775 O 966.18 -1.5435 -0.996073 0
M  V30 9776 C 966.242 -2.84462 2.19822 0
M  V30 9777 C 965.906 -2.70303 3.68491 0
M  V30 9778 C 966.903 -2.39102 4.61656 0
M  V30 9779 C 964.588 -2.87291 4.1203 0
M  V30 9780 C 966.582 -2.25066 5.96342 0
M  V30 9781 C 964.269 -2.72874 5.46793 0
M  V30 9782 C 965.267 -2.41807 6.38763 0
M  V30 9783 O 964.955 -2.27475 7.71045 0
M  V30 9784 H 964.687 -0.478236 0.477772 0
M  V30 9785 H 967.241 -0.920846 1.83602 0
M  V30 9786 H 965.471 -3.47202 1.70257 0
M  V30 9787 H 967.16 -3.46058 2.12129 0
M  V30 9788 H 967.926 -2.25632 4.2932 0
M  V30 9789 H 963.805 -3.10466 3.40781 0
M  V30 9790 H 967.349 -2.00739 6.68094 0
M  V30 9791 H 963.246 -2.85922 5.78722 0
M  V30 9792 H 964.014 -2.42574 7.81729 0
M  V30 9793 N 966.677 -1.24326 -0.968545 0
M  V30 9794 C 967.917 -1.09434 -1.72637 0
M  V30 9795 C 968.281 0.360781 -1.8858 0
M  V30 9796 O 969.482 0.631188 -2.61284 0
M  V30 9797 C 967.753 -1.81285 -3.08011 0
M  V30 9798 S 969.312 -1.82113 -3.99225 0
M  V30 9799 H 966.13 -0.391409 -0.593565 0
M  V30 9800 H 968.732 -1.57643 -1.15624 0
M  V30 9801 H 967.436 -2.86274 -2.94067 0
M  V30 9802 H 966.967 -1.33405 -3.7009 0
M  V30 9803 H 968.982 -0.888196 -4.88186 0
M  V30 9804 N 968.156 1.1691 -1.05688 0
M  V30 9805 C 969.572 1.39288 -0.779167 0
M  V30 9806 C 969.772 1.91587 0.624231 0
M  V30 9807 O 968.828 2.11072 1.38582 0
M  V30 9808 C 970.141 2.37914 -1.83895 0
M  V30 9809 C 971.689 2.51611 -1.86175 0
M  V30 9810 C 972.164 3.53514 -2.9119 0
M  V30 9811 N 973.655 3.61036 -2.90184 0
M  V30 9812 C 974.39 4.39657 -3.68088 0
M  V30 9813 N 973.886 5.21752 -4.55793 0
M  V30 9814 N 975.679 4.3458 -3.56507 0
M  V30 9815 H 967.83 0.81296 -1.96226 0
M  V30 9816 H 970.093 0.419818 -0.849975 0
M  V30 9817 H 969.799 2.06568 -2.84645 0
M  V30 9818 H 969.673 3.37483 -1.68479 0
M  V30 9819 H 972.06 2.82264 -0.86087 0
M  V30 9820 H 972.141 1.52099 -2.05668 0
M  V30 9821 H 971.785 3.23599 -3.91467 0
M  V30 9822 H 971.715 4.52742 -2.68947 0
M  V30 9823 H 974.206 3.02428 -2.26596 0
M  V30 9824 H 974.519 5.78939 -5.11907 0
M  V30 9825 H 972.864 5.21116 -4.59851 0
M  V30 9826 H 976.055 3.69501 -2.87379 0
M  V30 9827 H 976.228 4.95607 -4.17466 0
M  V30 9828 N 969.634 0.838594 1.33437 0
M  V30 9829 C 970.584 0.243681 2.26694 0
M  V30 9830 C 971.568 -0.601168 1.49247 0
M  V30 9831 O 972.76 -0.453181 1.711 0
M  V30 9832 C 969.889 -0.580525 3.38356 0
M  V30 9833 C 968.975 0.275819 4.23202 0
M  V30 9834 N 969.366 1.3544 4.87329 0
M  V30 9835 C 967.664 0.0628047 4.45956 0
M  V30 9836 C 968.365 1.87991 5.50486 0
M  V30 9837 N 967.341 1.18143 5.30607 0
M  V30 9838 H 971.143 1.06849 2.73789 0
M  V30 9839 H 968.657 0.683019 1.47338 0
M  V30 9840 H 970.654 -1.02301 4.04153 0
M  V30 9841 H 969.314 -1.40331 2.92809 0
M  V30 9842 H 970.325 1.73729 4.87892 0
M  V30 9843 H 967.002 -0.726563 4.11129 0
M  V30 9844 H 968.392 2.78312 6.11549 0
M  V30 9845 N 971.112 -1.45937 0.595003 0
M  V30 9846 C 972.062 -2.27491 -0.152331 0
M  V30 9847 C 973.046 -1.36591 -0.850396 0
M  V30 9848 O 974.238 -1.60675 -0.742462 0
M  V30 9849 C 971.367 -3.23203 -1.15735 0
M  V30 9850 C 970.453 -4.2159 -0.46077 0
M  V30 9851 N 970.844 -5.03416 0.490555 0
M  V30 9852 C 969.142 -4.40313 -0.709949 0
M  V30 9853 C 969.843 -5.74714 0.898825 0
M  V30 9854 N 968.819 -5.43046 0.24529 0
M  V30 9855 H 972.621 -2.8815 0.578526 0
M  V30 9856 H 970.135 -1.56936 0.417716 0
M  V30 9857 H 972.132 -3.8035 -1.70704 0
M  V30 9858 H 970.792 -2.64104 -1.8889 0
M  V30 9859 H 971.803 -5.10597 0.866692 0
M  V30 9860 H 968.48 -3.92351 -1.42713 0
M  V30 9861 H 969.87 -6.50487 1.68273 0
M  V30 9862 N 972.59 -0.333456 -1.54032 0
M  V30 9863 C 974.001 0.15256 -1.86076 0
M  V30 9864 C 974.352 1.50819 -1.25492 0
M  V30 9865 O 973.477 2.08903 -0.564665 0
M  V30 9866 C 974.072 0.283599 -3.37611 0
M  V30 9867 C 972.631 0.713841 -3.69569 0
M  V30 9868 C 971.778 -0.158515 -2.76847 0
M  V30 9869 H 974.729 -0.553404 -1.48738 0
M  V30 9870 H 974.75 1.11284 -3.63863 0
M  V30 9871 H 974.262 -0.703193 -3.81676 0
M  V30 9872 H 972.363 1.71002 -3.31042 0
M  V30 9873 H 972.476 0.510731 -4.7637 0
M  V30 9874 H 970.84 0.367531 -2.52034 0
M  V30 9875 H 971.623 -1.14226 -3.2374 0
M  V30 9876 N 974.068 1.57479 -0.061844 0
M  V30 9877 C 975.316 1.92727 0.608336 0
M  V30 9878 C 975.637 0.941799 1.70749 0
M  V30 9879 O 974.907 -0.0116608 1.95897 0
M  V30 9880 H 973.487 0.71145 0.2277 0
M  V30 9881 H 976.149 1.94546 -0.117359 0
M  V30 9882 H 975.245 2.9426 1.04007 0
M  V30 9883 N 975.546 -0.211634 1.56173 0
M  V30 9884 C 976.774 -0.951184 1.83739 0
M  V30 9885 C 977.189 -1.7754 0.642252 0
M  V30 9886 O 976.546 -1.78302 -0.389174 0
M  V30 9887 C 976.597 -1.86075 3.09933 0
M  V30 9888 O 976.318 -1.06983 4.24837 0
M  V30 9889 C 977.819 -2.71337 3.50559 0
M  V30 9890 H 975.039 -0.278312 0.61056 0
M  V30 9891 H 977.583 -0.223871 2.03271 0
M  V30 9892 H 975.738 -2.54189 2.92347 0
M  V30 9893 H 976.152 -1.68815 4.9659 0
M  V30 9894 H 977.626 -3.30843 4.41868 0
M  V30 9895 H 978.103 -3.44226 2.72773 0
M  V30 9896 H 978.709 -2.0862 3.70618 0
M  V30 9897 N 977.024 -1.50153 -0.478725 0
M  V30 9898 C 978.271 -1.6076 -1.23136 0
M  V30 9899 C 978.599 -0.30442 -1.92103 0
M  V30 9900 O 977.854 0.709213 -1.82397 0
M  V30 9901 C 978.153 -2.73208 -2.30417 0
M  V30 9902 C 977.819 -4.13953 -1.78755 0
M  V30 9903 C 976.481 -4.52251 -1.64386 0
M  V30 9904 C 978.833 -5.01949 -1.40344 0
M  V30 9905 C 976.161 -5.76292 -1.10018 0
M  V30 9906 C 978.513 -6.2653 -0.874206 0
M  V30 9907 C 977.177 -6.63637 -0.717085 0
M  V30 9908 H 976.447 -0.588264 -0.450585 0
M  V30 9909 H 979.094 -1.84061 -0.528551 0
M  V30 9910 H 977.399 -2.43965 -3.06575 0
M  V30 9911 H 979.096 -2.7862 -2.88395 0
M  V30 9912 H 975.686 -3.83736 -1.90904 0
M  V30 9913 H 979.87 -4.73 -1.50283 0
M  V30 9914 H 975.126 -6.03723 -0.965838 0
M  V30 9915 H 979.3 -6.94081 -0.567883 0
M  V30 9916 H 976.927 -7.59633 -0.293639 0
M  V30 9917 N 978.502 0.731368 -1.39602 0
M  V30 9918 C 979.75 1.48805 -1.36753 0
M  V30 9919 C 980.071 1.94969 0.034676 0
M  V30 9920 O 979.341 1.69243 0.986591 0
M  V30 9921 H 977.921 0.55203 -0.503261 0
M  V30 9922 H 980.583 0.868013 -1.74504 0
M  V30 9923 H 979.679 2.36844 -2.03252 0
M  V30 9924 N 979.98 1.24838 0.961938 0
M  V30 9925 C 981.227 1.09151 1.70564 0
M  V30 9926 C 981.555 -0.368719 1.90973 0
M  V30 9927 O 980.81 -1.28854 1.47293 0
M  V30 9928 C 981.109 1.78289 3.09754 0
M  V30 9929 C 980.775 3.28216 3.09169 0
M  V30 9930 C 979.437 3.69118 3.08716 0
M  V30 9931 C 981.789 4.24035 3.03058 0
M  V30 9932 C 979.117 5.04263 2.99892 0
M  V30 9933 C 981.469 5.59195 2.95776 0
M  V30 9934 C 980.133 5.99436 2.93655 0
M  V30 9935 H 979.403 0.399414 0.624139 0
M  V30 9936 H 982.05 1.55016 1.12438 0
M  V30 9937 H 980.355 1.24835 3.7138 0
M  V30 9938 H 982.052 1.63612 3.66104 0
M  V30 9939 H 978.642 2.95667 3.10289 0
M  V30 9940 H 982.826 3.93431 3.02532 0
M  V30 9941 H 978.082 5.3463 2.96615 0
M  V30 9942 H 982.256 6.33142 2.90007 0
M  V30 9943 H 979.883 7.04116 2.86573 0
M  V30 9944 N 981.458 -1.16348 1.06306 0
M  V30 9945 C 982.406 -2.22799 0.668087 0
M  V30 9946 C 983.4 -1.66426 -0.316051 0
M  V30 9947 O 984.606 -1.79089 -0.180902 0
M  V30 9948 H 980.981 -0.725487 0.19792 0
M  V30 9949 H 982.952 -2.53401 1.57577 0
M  V30 9950 C 981.701 -3.47628 0.0706797 0
M  V30 9951 H 981.024 -3.9132 0.819064 0
M  V30 9952 H 982.464 -4.23666 -0.16816 0
M  V30 9953 C 980.923 -3.15343 -1.18577 0
M  V30 9954 O 981.453 -3.31158 -2.27371 0
M  V30 9955 N 979.659 -2.69472 -1.08779 0
M  V30 9956 H 979.206 -2.56803 -0.202447 0
M  V30 9957 H 979.164 -2.48244 -1.92931 0
M  V30 9958 N 982.937 -0.845659 -1.3299 0
M  V30 9959 C 984.165 -0.45835 -2.01759 0
M  V30 9960 C 984.58 0.94239 -1.63598 0
M  V30 9961 O 983.937 1.61353 -0.852738 0
M  V30 9962 C 983.988 -0.577311 -3.5686 0
M  V30 9963 O 983.709 -1.92287 -3.93646 0
M  V30 9964 C 985.21 -0.187839 -4.42902 0
M  V30 9965 H 982.43 -0.181165 -0.646081 0
M  V30 9966 H 984.974 -1.14011 -1.6977 0
M  V30 9967 H 983.129 0.0566146 -3.87359 0
M  V30 9968 H 983.543 -1.91322 -4.88361 0
M  V30 9969 H 985.017 -0.322105 -5.51059 0
M  V30 9970 H 985.494 0.870896 -4.30479 0
M  V30 9971 H 986.1 -0.796473 -4.17776 0
M  V30 9972 N 984.415 1.45619 -0.602734 0
M  V30 9973 C 985.643 2.06647 -0.102253 0
M  V30 9974 C 986.058 1.4482 1.21131 0
M  V30 9975 O 985.415 0.560621 1.73676 0
M  V30 9976 C 985.466 3.61467 0.0490113 0
M  V30 9977 O 985.187 4.20985 -1.21257 0
M  V30 9978 C 986.688 4.39469 0.581517 0
M  V30 9979 H 983.908 0.667685 -0.0666155 0
M  V30 9980 H 986.452 1.86939 -0.829091 0
M  V30 9981 H 984.607 3.80534 0.726153 0
M  V30 9982 H 985.021 5.14103 -1.03915 0
M  V30 9983 H 986.495 5.48318 0.636462 0
M  V30 9984 H 986.972 4.0891 1.60277 0
M  V30 9985 H 987.578 4.25256 -0.061419 0
M  V30 9986 N 985.893 0.34162 1.53853 0
M  V30 9987 C 987.133 -0.255853 2.02792 0
M  V30 9988 C 987.497 -1.47921 1.22407 0
M  V30 9989 O 988.698 -2.15073 1.61236 0
M  V30 9990 C 986.969 -0.564117 3.5292 0
M  V30 9991 S 988.528 -1.13868 4.23768 0
M  V30 9992 H 985.346 -0.0762867 0.706896 0
M  V30 9993 H 987.948 0.478934 1.89543 0
M  V30 9994 H 986.652 0.334098 4.09038 0
M  V30 9995 H 986.183 -1.32862 3.70285 0
M  V30 9996 H 988.198 -2.42451 4.32934 0
M  V30 9997 N 987.371 -1.57444 0.0701946 0
M  V30 9998 C 988.601 -1.97467 -0.607476 0
M  V30 9999 C 989.009 -0.947232 -1.63781 0
M  V30 10000 O 988.352 0.074652 -1.83548 0
M  V30 10001 C 988.414 -3.33795 -1.33495 0
M  V30 10002 C 988.078 -4.54697 -0.458265 0
M  V30 10003 C 989.075 -5.19127 0.283488 0
M  V30 10004 C 986.76 -5.00833 -0.383612 0
M  V30 10005 C 988.754 -6.28043 1.08813 0
M  V30 10006 C 986.441 -6.09622 0.424705 0
M  V30 10007 C 987.439 -6.7309 1.15925 0
M  V30 10008 O 987.127 -7.79785 1.95423 0
M  V30 10009 H 986.859 -0.654405 -0.169501 0
M  V30 10010 H 989.413 -2.04931 0.138651 0
M  V30 10011 H 987.643 -3.22941 -2.12711 0
M  V30 10012 H 989.332 -3.58435 -1.9047 0
M  V30 10013 H 990.098 -4.84428 0.235397 0
M  V30 10014 H 985.977 -4.51211 -0.944968 0
M  V30 10015 H 989.521 -6.77513 1.66197 0
M  V30 10016 H 985.418 -6.43755 0.474366 0
M  V30 10017 H 986.186 -7.96655 1.87838 0
M  V30 10018 N 988.849 0.203349 -1.56283 0
M  V30 10019 C 990.096 0.92501 -1.80138 0
M  V30 10020 C 990.424 1.83598 -0.64204 0
M  V30 10021 O 989.679 1.92119 0.372658 0
M  V30 10022 C 989.978 1.78016 -3.09912 0
M  V30 10023 C 989.644 1.02088 -4.39191 0
M  V30 10024 C 988.306 0.811208 -4.74313 0
M  V30 10025 C 990.658 0.486037 -5.18929 0
M  V30 10026 C 987.986 0.0550856 -5.86674 0
M  V30 10027 C 990.338 -0.256833 -6.32078 0
M  V30 10028 C 989.002 -0.477594 -6.65789 0
M  V30 10029 H 988.272 0.338485 -0.659173 0
M  V30 10030 H 990.919 0.191923 -1.90536 0
M  V30 10031 H 989.224 2.58167 -2.94715 0
M  V30 10032 H 990.921 2.341 -3.25574 0
M  V30 10033 H 987.511 1.1943 -4.11624 0
M  V30 10034 H 991.695 0.635446 -4.92215 0
M  V30 10035 H 986.951 -0.126006 -6.1127 0
M  V30 10036 H 991.125 -0.678683 -6.93085 0
M  V30 10037 H 988.752 -1.0654 -7.52697 0
M  V30 10038 N 990.327 1.50405 0.470755 0
M  V30 10039 C 991.575 1.61092 1.2204 0
M  V30 10040 C 991.896 0.313487 1.92464 0
M  V30 10041 O 991.166 -0.669043 1.84121 0
M  V30 10042 H 989.746 0.593618 0.45346 0
M  V30 10043 H 992.408 1.87184 0.542985 0
M  V30 10044 H 991.504 2.42222 1.96812 0
M  V30 10045 N 991.805 -0.723954 1.39988 0
M  V30 10046 C 993.045 -1.49624 1.39255 0
M  V30 10047 C 993.409 -1.91998 -0.00860198 0
M  V30 10048 O 994.61 -2.6843 -0.141002 0
M  V30 10049 C 992.881 -2.69514 2.34728 0
M  V30 10050 S 994.44 -3.59027 2.5228 0
M  V30 10051 H 991.258 -0.511661 0.493685 0
M  V30 10052 H 993.86 -0.847322 1.76184 0
M  V30 10053 H 992.564 -2.36541 3.35375 0
M  V30 10054 H 992.095 -3.39325 1.99053 0
M  V30 10055 H 994.11 -4.63597 1.76896 0
M  V30 10056 N 993.283 -1.25346 -0.955304 0
M  V30 10057 C 994.231 -1.05461 -2.07318 0
M  V30 10058 C 995.225 0.0142699 -1.69394 0
M  V30 10059 O 996.431 -0.141292 -1.79445 0
M  V30 10060 H 992.806 -0.324095 -0.678577 0
M  V30 10061 H 994.777 -2.00231 -2.21247 0
M  V30 10062 C 993.526 -0.689329 -3.40798 0
M  V30 10063 H 992.849 -1.50362 -3.70447 0
M  V30 10064 H 994.289 -0.589883 -4.19877 0
M  V30 10065 C 992.748 0.604556 -3.31431 0
M  V30 10066 O 993.278 1.64686 -3.6639 0
M  V30 10067 N 991.484 0.589927 -2.84549 0
M  V30 10068 H 991.031 -0.258647 -2.56298 0
M  V30 10069 H 990.989 1.4558 -2.78664 0
M  V30 10070 N 994.761 1.15782 -1.06922 0
M  V30 10071 C 995.724 2.18578 -0.689654 0
M  V30 10072 C 996.724 1.58553 0.267872 0
M  V30 10073 O 997.914 1.7413 0.0494097 0
M  V30 10074 C 995.046 3.40896 -0.0157919 0
M  V30 10075 H 996.239 2.53672 -1.59971 0
M  V30 10076 H 993.792 1.30168 -0.865214 0
M  V30 10077 H 994.527 3.11367 0.906712 0
M  V30 10078 H 994.312 3.85721 -0.704415 0
M  V30 10079 H 995.802 4.16937 0.235266 0
M  V30 10080 N 996.239 0.8527 1.3254 0
M  V30 10081 C 997.487 0.454224 1.96929 0
M  V30 10082 C 997.808 -0.993034 1.67821 0
M  V30 10083 O 997.078 -1.69371 0.984393 0
M  V30 10084 H 995.658 0.164977 0.728554 0
M  V30 10085 H 998.32 1.0887 1.61658 0
M  V30 10086 H 997.416 0.597667 3.06324 0
M  V30 10087 N 997.718 -1.45297 0.610449 0
M  V30 10088 C 998.965 -2.02218 0.106759 0
M  V30 10089 C 999.293 -1.47849 -1.26376 0
M  V30 10090 O 998.548 -0.644402 -1.84786 0
M  V30 10091 C 998.847 -3.57394 0.0205329 0
M  V30 10092 C 998.513 -4.30928 1.32709 0
M  V30 10093 C 997.175 -4.50735 1.68498 0
M  V30 10094 C 999.527 -4.72936 2.19046 0
M  V30 10095 C 996.855 -5.09806 2.90371 0
M  V30 10096 C 999.207 -5.33355 3.40169 0
M  V30 10097 C 997.871 -5.51384 3.76207 0
M  V30 10098 H 997.141 -0.739969 0.039066 0
M  V30 10099 H 999.788 -1.74326 0.792638 0
M  V30 10100 H 998.093 -3.84581 -0.748623 0
M  V30 10101 H 999.79 -3.99144 -0.385386 0
M  V30 10102 H 996.38 -4.15827 1.03854 0
M  V30 10103 H 1000.56 -4.57365 1.92695 0
M  V30 10104 H 995.82 -5.21953 3.18395 0
M  V30 10105 H 999.994 -5.64859 4.07318 0
M  V30 10106 H 997.621 -5.96924 4.70729 0
M  V30 10107 N 999.196 -0.349774 -1.5367 0
M  V30 10108 C 1000.42 0.246038 -2.05432 0
M  V30 10109 C 1000.84 1.43719 -1.22435 0
M  V30 10110 O 1000.2 1.80622 -0.261166 0
M  V30 10111 C 1000.25 0.65501 -3.55516 0
M  V30 10112 O 999.968 -0.488782 -4.35365 0
M  V30 10113 C 1001.47 1.31088 -4.23475 0
M  V30 10114 H 998.689 0.0463952 -0.669394 0
M  V30 10115 H 1001.23 -0.503566 -1.98203 0
M  V30 10116 H 999.388 1.35455 -3.62947 0
M  V30 10117 H 999.802 -0.161528 -5.24251 0
M  V30 10118 H 1001.28 1.54774 -5.29857 0
M  V30 10119 H 1001.75 2.26636 -3.76208 0
M  V30 10120 H 1002.36 0.653211 -4.20254 0
M  V30 10121 N 1000.67 1.57404 -0.0785433 0
M  V30 10122 C 1001.6 2.16131 0.883726 0
M  V30 10123 C 1002.58 1.09015 1.30575 0
M  V30 10124 O 1003.77 1.3708 1.37559 0
M  V30 10125 C 1000.9 2.72836 2.1489 0
M  V30 10126 C 999.854 3.85178 1.86605 0
M  V30 10127 C 999.18 4.28516 3.1981 0
M  V30 10128 C 1000.48 5.09118 1.16601 0
M  V30 10129 H 1002.17 2.9679 0.394484 0
M  V30 10130 H 999.72 1.42763 0.188304 0
M  V30 10131 H 1001.67 3.12567 2.8263 0
M  V30 10132 H 1000.4 1.89408 2.66068 0
M  V30 10133 H 999.056 3.45962 1.21268 0
M  V30 10134 H 998.704 3.42 3.68843 0
M  V30 10135 H 998.404 5.04249 3.01674 0
M  V30 10136 H 999.928 4.70868 3.88737 0
M  V30 10137 H 1001.34 5.46123 1.74422 0
M  V30 10138 H 999.739 5.90173 1.087 0
M  V30 10139 H 1000.81 4.8468 0.146138 0
M  V30 10140 N 1002.15 -0.195058 1.56388 0
M  V30 10141 C 1003.4 -0.913626 1.79821 0
M  V30 10142 C 1003.71 -1.84422 0.651767 0
M  V30 10143 O 1004.92 -2.6034 0.770402 0
M  V30 10144 C 1003.38 -1.67497 3.18548 0
M  V30 10145 C 1002.98 -0.789205 4.40994 0
M  V30 10146 C 1004.73 -2.38318 3.5129 0
M  V30 10147 C 1002.63 -1.54942 5.70742 0
M  V30 10148 H 1001.56 -0.344891 0.670497 0
M  V30 10149 H 1004.22 -0.166912 1.82739 0
M  V30 10150 H 1002.6 -2.46557 3.0988 0
M  V30 10151 H 1003.77 -0.0372595 4.60785 0
M  V30 10152 H 1002.09 -0.191834 4.15958 0
M  V30 10153 H 1004.68 -2.95745 4.45465 0
M  V30 10154 H 1005.03 -3.12507 2.75037 0
M  V30 10155 H 1005.56 -1.66224 3.61406 0
M  V30 10156 H 1002.3 -0.85031 6.49962 0
M  V30 10157 H 1001.82 -2.2753 5.54969 0
M  V30 10158 H 1003.5 -2.1032 6.11861 0
M  V30 10159 N 1003.63 -1.50653 -0.462772 0
M  V30 10160 C 1004.88 -1.61737 -1.21184 0
M  V30 10161 C 1005.2 -0.32369 -1.92295 0
M  V30 10162 O 1004.47 0.659269 -1.84473 0
M  V30 10163 H 1003.05 -0.596015 -0.450306 0
M  V30 10164 H 1005.71 -1.87469 -0.533051 0
M  V30 10165 H 1004.81 -2.43262 -1.95525 0
M  V30 10166 N 1005.11 0.71652 -1.4037 0
M  V30 10167 C 1006.39 1.46947 -1.29097 0
M  V30 10168 C 1006.77 2.10903 0.0911182 0
M  V30 10169 O 1006.11 2.00068 1.10385 0
M  V30 10170 C 1006.32 2.50594 -2.42907 0
M  V30 10171 C 1007.67 3.16451 -2.83097 0
M  V30 10172 O 1008.7 2.60913 -2.42493 0
M  V30 10173 O 1007.55 4.16991 -3.53244 0
M  V30 10174 H 1004.65 0.653413 -0.506932 0
M  V30 10175 H 1007.19 0.748774 -1.52287 0
M  V30 10176 H 1005.97 2.01843 -3.35224 0
M  V30 10177 H 1005.59 3.302 -2.21481 0
M  V30 10178 N 1006.59 1.25851 0.948643 0
M  V30 10179 C 1007.81 1.13813 1.73382 0
M  V30 10180 C 1008.24 -0.303615 1.85633 0
M  V30 10181 O 1007.59 -1.21997 1.34114 0
M  V30 10182 C 1007.64 1.80388 3.12238 0
M  V30 10183 O 1006.75 1.08759 3.978 0
M  V30 10184 H 1006.09 0.397006 0.532243 0
M  V30 10185 H 1008.62 1.66529 1.18866 0
M  V30 10186 H 1008.63 1.86913 3.62667 0
M  V30 10187 H 1007.3 2.85278 3.02637 0
M  V30 10188 H 1005.88 1.10157 3.56258 0
M  V30 10189 N 1008.06 -1.15214 1.07534 0
M  V30 10190 C 1009.29 -1.89922 0.820804 0
M  V30 10191 C 1009.71 -1.78114 -0.626177 0
M  V30 10192 O 1009.06 -1.13435 -1.42964 0
M  V30 10193 C 1009.12 -3.40207 1.22236 0
M  V30 10194 O 1008.84 -3.51676 2.61257 0
M  V30 10195 C 1010.34 -4.31934 0.997393 0
M  V30 10196 H 1007.56 -0.601865 0.296647 0
M  V30 10197 H 1010.1 -1.45965 1.43229 0
M  V30 10198 H 1008.26 -3.8182 0.655167 0
M  V30 10199 H 1008.67 -4.44959 2.77689 0
M  V30 10200 H 1010.14 -5.35791 1.32785 0
M  V30 10201 H 1010.62 -4.3915 -0.0661599 0
M  V30 10202 H 1011.23 -3.96066 1.54958 0
M  V30 10203 N 1009.54 -0.859717 -1.32086 0
M  V30 10204 C 1010.47 -0.323502 -2.31248 0
M  V30 10205 C 1011.45 0.580085 -1.59903 0
M  V30 10206 O 1012.64 0.499265 -1.87673 0
M  V30 10207 C 1009.77 0.484661 -3.43902 0
M  V30 10208 C 1008.72 -0.324933 -4.26765 0
M  V30 10209 C 1008.05 0.608281 -5.31229 0
M  V30 10210 C 1009.35 -1.55344 -4.98664 0
M  V30 10211 H 1011.04 -1.15209 -2.76346 0
M  V30 10212 H 1008.59 -0.555442 -1.32856 0
M  V30 10213 H 1010.54 0.870238 -4.12316 0
M  V30 10214 H 1009.27 1.34666 -2.97544 0
M  V30 10215 H 1007.92 -0.692328 -3.60003 0
M  V30 10216 H 1007.57 1.46727 -4.81124 0
M  V30 10217 H 1007.27 0.0705571 -5.87558 0
M  V30 10218 H 1008.8 0.990925 -6.02506 0
M  V30 10219 H 1010.21 -1.23987 -5.59732 0
M  V30 10220 H 1008.61 -2.02947 -5.64741 0
M  V30 10221 H 1009.68 -2.31192 -4.26237 0
M  V30 10222 N 1011.02 1.44971 -0.618145 0
M  V30 10223 C 1012.25 2.07039 -0.122395 0
M  V30 10224 C 1012.67 1.45793 1.18853 0
M  V30 10225 O 1012.03 0.55453 1.72611 0
M  V30 10226 C 1012.08 3.60599 -0.0073864 0
M  V30 10227 O 1011.18 3.99069 1.04007 0
M  V30 10228 H 1010.52 0.6593 -0.0788615 0
M  V30 10229 H 1013.05 1.86055 -0.851147 0
M  V30 10230 H 1013.06 4.07569 0.187417 0
M  V30 10231 H 1011.74 4.04561 -0.964544 0
M  V30 10232 H 1010.31 3.63753 0.820879 0
M  V30 10233 N 1012.5 0.357919 1.53482 0
M  V30 10234 C 1013.74 -0.23433 2.03052 0
M  V30 10235 C 1014.1 -1.46614 1.23969 0
M  V30 10236 O 1015.3 -2.13351 1.63508 0
M  V30 10237 C 1013.57 -0.526653 3.53498 0
M  V30 10238 S 1015.13 -1.09366 4.24952 0
M  V30 10239 H 1011.95 -0.0687848 0.707665 0
M  V30 10240 H 1014.55 0.499011 1.89024 0
M  V30 10241 H 1013.26 0.377463 4.0866 0
M  V30 10242 H 1012.79 -1.28927 3.71674 0
M  V30 10243 H 1014.8 -2.37845 4.35481 0
M  V30 10244 N 1013.98 -1.5736 0.0868897 0
M  V30 10245 C 1015.39 -1.57304 -0.269762 0
M  V30 10246 C 1015.59 -1.09745 -1.68992 0
M  V30 10247 O 1014.65 -0.77017 -2.40468 0
M  V30 10248 C 1015.96 -3.00628 -0.0656646 0
M  V30 10249 C 1017.51 -3.12713 -0.134045 0
M  V30 10250 C 1017.98 -4.57981 0.0419569 0
M  V30 10251 N 1019.48 -4.63198 -0.0131501 0
M  V30 10252 C 1020.21 -5.73316 0.0983964 0
M  V30 10253 N 1019.71 -6.92296 0.264315 0
M  V30 10254 N 1021.5 -5.62086 0.0402517 0
M  V30 10255 H 1013.65 -1.86585 1.01487 0
M  V30 10256 H 1015.91 -0.860843 0.397055 0
M  V30 10257 H 1015.62 -3.39592 0.914891 0
M  V30 10258 H 1015.49 -3.68367 -0.811522 0
M  V30 10259 H 1017.88 -2.73627 -1.1051 0
M  V30 10260 H 1017.96 -2.47582 0.643167 0
M  V30 10261 H 1017.61 -4.9776 1.00984 0
M  V30 10262 H 1017.54 -5.21162 -0.754847 0
M  V30 10263 H 1020.03 -3.77644 -0.139183 0
M  V30 10264 H 1020.34 -7.72047 0.341165 0
M  V30 10265 H 1018.68 -6.94353 0.299876 0
M  V30 10266 H 1021.88 -4.68017 -0.0881801 0
M  V30 10267 H 1022.05 -6.47868 0.130635 0
M  V30 10268 N 1015.45 0.186762 -1.56489 0
M  V30 10269 C 1016.87 0.750675 -1.70944 0
M  V30 10270 C 1017.22 1.83483 -0.694858 0
M  V30 10271 O 1016.34 2.159 0.147009 0
M  V30 10272 C 1016.94 1.36843 -3.09934 0
M  V30 10273 C 1015.5 1.87934 -3.26125 0
M  V30 10274 C 1014.64 0.75242 -2.66897 0
M  V30 10275 H 1017.59 -0.0384292 -1.58653 0
M  V30 10276 H 1017.61 2.23795 -3.07727 0
M  V30 10277 H 1017.13 0.579135 -3.83755 0
M  V30 10278 H 1015.23 2.69556 -2.57235 0
M  V30 10279 H 1015.34 2.0354 -4.33715 0
M  V30 10280 H 1013.7 1.16888 -2.26295 0
M  V30 10281 H 1014.49 -0.0247769 -3.43291 0
M  V30 10282 N 1016.93 1.50896 0.454776 0
M  V30 10283 C 1018.16 1.66759 1.23313 0
M  V30 10284 C 1018.58 0.35722 1.84677 0
M  V30 10285 O 1017.94 -0.680771 1.68033 0
M  V30 10286 C 1017.99 2.77254 2.3057 0
M  V30 10287 O 1017.09 2.39642 3.35627 0
M  V30 10288 H 1016.43 0.556599 0.362068 0
M  V30 10289 H 1018.96 1.97365 0.539274 0
M  V30 10290 H 1018.97 3.0082 2.75629 0
M  V30 10291 H 1017.65 3.72349 1.85281 0
M  V30 10292 H 1016.23 2.26584 2.96165 0
M  V30 10293 N 1018.41 -0.709066 1.40748 0
M  V30 10294 C 1019.66 -1.46611 1.39103 0
M  V30 10295 C 1019.98 -1.95 -0.00365366 0
M  V30 10296 O 1019.25 -1.70791 -0.959541 0
M  V30 10297 H 1017.83 -0.543954 0.511979 0
M  V30 10298 H 1020.49 -0.840141 1.75863 0
M  V30 10299 H 1019.59 -2.33581 2.06994 0
M  V30 10300 N 1019.89 -1.26353 -0.941956 0
M  V30 10301 C 1020.82 -1.03634 -2.04432 0
M  V30 10302 C 1021.83 0.00295864 -1.628 0
M  V30 10303 O 1023.02 -0.237029 -1.76919 0
M  V30 10304 C 1020.12 -0.547231 -3.34453 0
M  V30 10305 C 1019.3 -1.65559 -4.04857 0
M  V30 10306 C 1018.36 -1.16466 -5.13149 0
M  V30 10307 O 1017.38 -1.86158 -5.37898 0
M  V30 10308 N 1018.58 -0.0126703 -5.80499 0
M  V30 10309 H 1021.35 -1.98558 -2.24488 0
M  V30 10310 H 1018.91 -1.17728 -1.11138 0
M  V30 10311 H 1020.9 -0.203004 -4.04191 0
M  V30 10312 H 1019.47 0.308401 -3.11075 0
M  V30 10313 H 1018.69 -2.17079 -3.29044 0
M  V30 10314 H 1019.98 -2.39985 -4.48647 0
M  V30 10315 H 1019.38 0.569358 -5.62828 0
M  V30 10316 H 1017.93 0.272486 -6.5123 0
M  V30 10317 N 1021.37 1.14642 -1.08144 0
M  V30 10318 C 1022.61 1.86115 -0.820533 0
M  V30 10319 C 1022.97 1.81208 0.646635 0
M  V30 10320 O 1022.26 1.22997 1.46909 0
M  V30 10321 C 1022.46 3.33953 -1.2732 0
M  V30 10322 C 1022.28 3.53254 -2.78283 0
M  V30 10323 C 1021.05 3.68259 -3.45996 0
M  V30 10324 C 1023.25 3.504 -3.76463 0
M  V30 10325 N 1021.23 3.75692 -4.85519 0
M  V30 10326 C 1022.61 3.64045 -5.01868 0
M  V30 10327 C 1024.66 3.33722 -3.69505 0
M  V30 10328 C 1023.36 3.62734 -6.21141 0
M  V30 10329 C 1025.39 3.33713 -4.88251 0
M  V30 10330 C 1024.75 3.47896 -6.12493 0
M  V30 10331 H 1020.85 0.697829 -0.352929 0
M  V30 10332 H 1023.43 1.3742 -1.37927 0
M  V30 10333 H 1021.61 3.81245 -0.742066 0
M  V30 10334 H 1023.34 3.93174 -0.958991 0
M  V30 10335 H 1020.09 3.69376 -2.96409 0
M  V30 10336 H 1020.52 3.83133 -5.58156 0
M  V30 10337 H 1025.16 3.2167 -2.74387 0
M  V30 10338 H 1022.88 3.73563 -7.16573 0
M  V30 10339 H 1026.46 3.22025 -4.84553 0
M  V30 10340 H 1025.34 3.47833 -7.02838 0
M  V30 10341 N 1022.85 0.866709 1.31628 0
M  V30 10342 C 1024.07 0.49039 2.01004 0
M  V30 10343 C 1024.49 -0.916244 1.65077 0
M  V30 10344 O 1023.85 -1.59975 0.8783 0
M  V30 10345 C 1023.9 0.634011 3.55897 0
M  V30 10346 O 1023.62 1.98525 3.90537 0
M  V30 10347 C 1025.12 0.258277 4.42547 0
M  V30 10348 H 1022.34 0.191421 0.643117 0
M  V30 10349 H 1024.88 1.16698 1.67934 0
M  V30 10350 H 1023.04 0.00501801 3.874 0
M  V30 10351 H 1023.45 1.99067 4.85255 0
M  V30 10352 H 1024.93 0.409733 5.50477 0
M  V30 10353 H 1025.4 -0.802301 4.3181 0
M  V30 10354 H 1026.01 0.862837 4.16456 0
M  V30 10355 N 1024.32 -1.44642 0.625825 0
M  V30 10356 C 1025.29 -2.29085 -0.072526 0
M  V30 10357 C 1026.29 -1.40755 -0.777467 0
M  V30 10358 O 1027.48 -1.62684 -0.622861 0
M  V30 10359 C 1024.61 -3.22212 -1.1132 0
M  V30 10360 H 1025.8 -2.92317 0.670124 0
M  V30 10361 H 1023.35 -1.51466 0.38571 0
M  V30 10362 H 1024.09 -2.63819 -1.88601 0
M  V30 10363 H 1023.87 -3.87299 -0.611709 0
M  V30 10364 H 1025.36 -3.8566 -1.60175 0
M  V30 10365 N 1025.8 -0.366053 -1.5329 0
M  V30 10366 C 1027.05 0.223824 -2.01561 0
M  V30 10367 C 1027.38 1.48382 -1.25286 0
M  V30 10368 O 1026.66 1.91385 -0.34669 0
M  V30 10369 C 1026.94 0.5153 -3.56394 0
M  V30 10370 C 1026.79 -0.758357 -4.43361 0
M  V30 10371 C 1028.11 1.31568 -4.19974 0
M  V30 10372 H 1025.23 0.0798751 -0.732659 0
M  V30 10373 H 1027.87 -0.491038 -1.83545 0
M  V30 10374 H 1026.02 1.12429 -3.71876 0
M  V30 10375 H 1027.69 -1.39584 -4.39675 0
M  V30 10376 H 1025.94 -1.37862 -4.11311 0
M  V30 10377 H 1026.61 -0.509366 -5.49645 0
M  V30 10378 H 1029.08 0.800514 -4.08327 0
M  V30 10379 H 1027.96 1.48837 -5.28336 0
M  V30 10380 H 1028.22 2.32432 -3.76069 0
M  V30 10381 N 1027.28 1.57312 -0.0952337 0
M  V30 10382 C 1028.51 1.98697 0.57682 0
M  V30 10383 C 1028.92 0.974347 1.61716 0
M  V30 10384 O 1028.28 -0.036022 1.82464 0
M  V30 10385 C 1028.33 3.40133 1.2244 0
M  V30 10386 O 1028.05 4.37518 0.225678 0
M  V30 10387 C 1029.55 3.96522 1.98205 0
M  V30 10388 H 1026.77 0.65294 0.154629 0
M  V30 10389 H 1029.32 2.03754 -0.174562 0
M  V30 10390 H 1027.47 3.3609 1.92671 0
M  V30 10391 H 1027.89 5.199 0.693116 0
M  V30 10392 H 1029.36 4.97637 2.38875 0
M  V30 10393 H 1029.84 3.34347 2.84796 0
M  V30 10394 H 1030.44 4.04038 1.3279 0
M  V30 10395 N 1028.76 -0.17846 1.56586 0
M  V30 10396 C 1030.17 -0.741599 1.71339 0
M  V30 10397 C 1030.52 -1.83112 0.704579 0
M  V30 10398 O 1029.64 -2.15975 -0.135557 0
M  V30 10399 C 1030.24 -1.35198 3.10656 0
M  V30 10400 C 1028.8 -1.86202 3.27118 0
M  V30 10401 C 1027.95 -0.738255 2.67292 0
M  V30 10402 H 1030.9 0.0468424 1.58631 0
M  V30 10403 H 1030.92 -2.2216 3.0891 0
M  V30 10404 H 1030.43 -0.558776 3.84056 0
M  V30 10405 H 1028.53 -2.68188 2.58661 0
M  V30 10406 H 1028.64 -2.01237 4.34788 0
M  V30 10407 H 1027.01 -1.15686 2.26912 0
M  V30 10408 H 1027.79 0.0429821 3.43273 0
M  V30 10409 N 1030.24 -1.51135 -0.446768 0
M  V30 10410 C 1031.2 -1.71187 -1.52406 0
M  V30 10411 C 1032.2 -0.582037 -1.49897 0
M  V30 10412 O 1033.39 -0.849452 -1.52085 0
M  V30 10413 C 1030.52 -1.75962 -2.91976 0
M  V30 10414 H 1031.71 -2.67324 -1.35934 0
M  V30 10415 H 1029.27 -1.40982 -0.674813 0
M  V30 10416 H 1030 -0.816065 -3.13864 0
M  V30 10417 H 1029.79 -2.58065 -2.95203 0
M  V30 10418 H 1031.28 -1.93347 -3.70144 0
M  V30 10419 N 1031.71 0.701592 -1.41122 0
M  V30 10420 C 1032.95 1.4739 -1.41618 0
M  V30 10421 C 1033.32 1.91987 -0.0219443 0
M  V30 10422 O 1034.52 2.6862 0.0982793 0
M  V30 10423 C 1032.79 2.65745 -2.38986 0
M  V30 10424 S 1034.35 3.54968 -2.5796 0
M  V30 10425 H 1031.17 0.503742 -0.501762 0
M  V30 10426 H 1033.77 0.819186 -1.77509 0
M  V30 10427 H 1032.47 2.31176 -3.39096 0
M  V30 10428 H 1032 3.36115 -2.04426 0
M  V30 10429 H 1034.02 4.60724 -1.84249 0
M  V30 10430 N 1033.19 1.2685 0.935242 0
M  V30 10431 C 1034.61 1.04091 1.20984 0
M  V30 10432 C 1034.81 -0.230242 2.0018 0
M  V30 10433 O 1033.86 -0.93778 2.3444 0
M  V30 10434 C 1035.18 2.27586 1.96533 0
M  V30 10435 C 1036.72 2.32547 2.09501 0
M  V30 10436 C 1037.2 3.55751 2.88454 0
M  V30 10437 N 1038.69 3.56263 2.96025 0
M  V30 10438 C 1039.43 4.48262 3.57559 0
M  V30 10439 N 1038.92 5.50557 4.20546 0
M  V30 10440 N 1040.71 4.35901 3.5489 0
M  V30 10441 H 1032.87 2.08484 0.405954 0
M  V30 10442 H 1035.13 0.916548 0.242164 0
M  V30 10443 H 1034.83 3.20076 1.45753 0
M  V30 10444 H 1034.71 2.32305 2.97177 0
M  V30 10445 H 1037.1 1.40568 2.5947 0
M  V30 10446 H 1037.18 2.31836 1.08101 0
M  V30 10447 H 1036.82 4.48063 2.3917 0
M  V30 10448 H 1036.75 3.53711 3.90123 0
M  V30 10449 H 1039.24 2.82278 2.51252 0
M  V30 10450 H 1039.55 6.16935 4.65415 0
M  V30 10451 H 1037.9 5.54407 4.19115 0
M  V30 10452 H 1041.09 3.552 3.04879 0
M  V30 10453 H 1041.26 5.07792 4.02557 0
M  V30 10454 N 1034.67 -1.14067 1.0875 0
M  V30 10455 C 1035.63 -2.17453 0.724341 0
M  V30 10456 C 1036.63 -1.58959 -0.242614 0
M  V30 10457 O 1037.82 -1.74186 -0.0217008 0
M  V30 10458 C 1034.96 -3.40828 0.0700236 0
M  V30 10459 H 1036.15 -2.51094 1.63987 0
M  V30 10460 H 1033.7 -1.28775 0.885813 0
M  V30 10461 H 1034.44 -3.1277 -0.857061 0
M  V30 10462 H 1034.22 -3.84551 0.76569 0
M  V30 10463 H 1035.71 -4.17258 -0.168905 0
M  V30 10464 N 1036.15 -0.873678 -1.31166 0
M  V30 10465 C 1037.39 -0.487178 -1.96861 0
M  V30 10466 C 1037.73 0.95887 -1.68877 0
M  V30 10467 O 1037 1.6758 -0.987279 0
M  V30 10468 C 1037.29 -0.74925 -3.52219 0
M  V30 10469 C 1037.14 -2.2451 -3.89763 0
M  V30 10470 C 1038.46 -0.218194 -4.39559 0
M  V30 10471 H 1035.58 -0.178477 -0.715063 0
M  V30 10472 H 1038.22 -1.0956 -1.55231 0
M  V30 10473 H 1036.37 -0.231403 -3.8781 0
M  V30 10474 H 1038.04 -2.83049 -3.64254 0
M  V30 10475 H 1036.28 -2.71621 -3.38237 0
M  V30 10476 H 1036.95 -2.37911 -4.98099 0
M  V30 10477 H 1039.43 -0.661274 -4.10812 0
M  V30 10478 H 1038.31 -0.430983 -5.47205 0
M  V30 10479 H 1038.57 0.880056 -4.33252 0
M  V30 10480 N 1037.63 1.44308 -0.633487 0
M  V30 10481 C 1038.57 2.30694 0.0700257 0
M  V30 10482 C 1039.54 1.43618 0.834447 0
M  V30 10483 O 1040.73 1.72517 0.815014 0
M  V30 10484 C 1037.87 3.28929 1.04403 0
M  V30 10485 C 1036.98 4.31106 0.277779 0
M  V30 10486 C 1036.12 5.16433 1.24381 0
M  V30 10487 C 1035.16 6.10317 0.466855 0
M  V30 10488 N 1034.29 6.88335 1.38347 0
M  V30 10489 H 1039.13 2.90311 -0.672567 0
M  V30 10490 H 1036.67 1.43034 -0.343449 0
M  V30 10491 H 1038.63 3.84373 1.62214 0
M  V30 10492 H 1037.26 2.71006 1.75372 0
M  V30 10493 H 1036.31 3.78115 -0.416292 0
M  V30 10494 H 1037.62 4.97725 -0.327251 0
M  V30 10495 H 1036.78 5.76406 1.89318 0
M  V30 10496 H 1035.51 4.49893 1.88276 0
M  V30 10497 H 1034.52 5.49451 -0.195989 0
M  V30 10498 H 1035.74 6.78894 -0.167414 0
M  V30 10499 H 1033.69 6.24461 2.00959 0
M  V30 10500 H 1033.61 7.51402 0.832517 0
M  V30 10501 H 1034.88 7.52829 2.0216 0
M  V30 10502 N 1039.1 0.374177 1.53094 0
M  V30 10503 C 1040.34 -0.21278 2.03289 0
M  V30 10504 C 1040.71 -1.45291 1.25517 0
M  V30 10505 O 1041.91 -2.11605 1.65761 0
M  V30 10506 C 1040.18 -0.48913 3.54037 0
M  V30 10507 S 1041.74 -1.04853 4.26088 0
M  V30 10508 H 1038.56 -0.0612752 0.708355 0
M  V30 10509 H 1041.16 0.519031 1.88484 0
M  V30 10510 H 1039.86 0.420786 4.08237 0
M  V30 10511 H 1039.39 -1.24978 3.7302 0
M  V30 10512 H 1041.41 -2.33213 4.3798 0
M  V30 10513 N 1040.58 -1.57259 0.103575 0
M  V30 10514 C 1041.81 -1.99424 -0.569638 0
M  V30 10515 C 1042.23 -0.982475 -1.60403 0
M  V30 10516 O 1041.59 0.0479231 -1.81237 0
M  V30 10517 C 1041.64 -3.40527 -1.18633 0
M  V30 10518 O 1040.74 -3.42167 -2.30208 0
M  V30 10519 H 1040.08 -0.648251 -0.143759 0
M  V30 10520 H 1042.61 -2.03739 0.187493 0
M  V30 10521 H 1042.62 -3.78404 -1.5256 0
M  V30 10522 H 1041.3 -4.13686 -0.428582 0
M  V30 10523 H 1039.88 -3.16093 -1.97837 0
M  V30 10524 N 1042.06 0.170153 -1.56679 0
M  V30 10525 C 1042.97 1.23057 -1.99735 0
M  V30 10526 C 1043.99 1.48374 -0.908912 0
M  V30 10527 O 1045.16 1.60499 -1.21663 0
M  V30 10528 C 1042.23 2.54944 -2.34956 0
M  V30 10529 C 1041.29 2.3748 -3.57634 0
M  V30 10530 C 1040.52 3.63078 -3.91165 0
M  V30 10531 O 1040.74 4.68304 -3.2565 0
M  V30 10532 O 1039.68 3.57119 -4.8451 0
M  V30 10533 H 1043.5 0.895104 -2.9021 0
M  V30 10534 H 1041.09 0.377109 -1.44562 0
M  V30 10535 H 1042.97 3.32742 -2.58574 0
M  V30 10536 H 1041.65 2.88068 -1.47643 0
M  V30 10537 H 1040.55 1.57709 -3.39232 0
M  V30 10538 H 1041.89 2.0928 -4.45491 0
M  V30 10539 N 1043.54 1.5137 0.438746 0
M  V30 10540 C 1044.47 1.75528 1.53987 0
M  V30 10541 C 1045.45 0.605067 1.58975 0
M  V30 10542 O 1046.63 0.847634 1.74725 0
M  V30 10543 C 1043.76 1.87904 2.92078 0
M  V30 10544 C 1042.72 3.0333 3.01951 0
M  V30 10545 C 1042.04 3.00888 4.42007 0
M  V30 10546 C 1043.34 4.43319 2.76163 0
M  V30 10547 H 1045.04 2.67728 1.34022 0
M  V30 10548 H 1042.58 1.28831 0.643308 0
M  V30 10549 H 1044.54 2.03388 3.69068 0
M  V30 10550 H 1043.26 0.923514 3.13271 0
M  V30 10551 H 1041.92 2.87549 2.274 0
M  V30 10552 H 1041.57 2.03116 4.60166 0
M  V30 10553 H 1041.27 3.78397 4.49544 0
M  V30 10554 H 1042.79 3.18464 5.20973 0
M  V30 10555 H 1044.21 4.59458 3.42887 0
M  V30 10556 H 1042.6 5.22523 2.9511 0
M  V30 10557 H 1043.67 4.53453 1.71779 0
M  V30 10558 N 1045.02 -0.694098 1.41492 0
M  V30 10559 C 1045.97 -1.80016 1.39923 0
M  V30 10560 C 1046.95 -1.58561 0.273377 0
M  V30 10561 O 1048.14 -1.69368 0.514157 0
M  V30 10562 C 1045.27 -3.18333 1.28526 0
M  V30 10563 C 1044.36 -3.45478 2.45979 0
M  V30 10564 N 1044.75 -3.43313 3.71443 0
M  V30 10565 C 1043.05 -3.76033 2.39824 0
M  V30 10566 C 1043.75 -3.69404 4.4935 0
M  V30 10567 N 1042.72 -3.89221 3.79484 0
M  V30 10568 H 1046.53 -1.76707 2.34844 0
M  V30 10569 H 1044.04 -0.894148 1.35568 0
M  V30 10570 H 1046.04 -3.97567 1.25484 0
M  V30 10571 H 1044.7 -3.22852 0.345904 0
M  V30 10572 H 1045.71 -3.2366 4.04308 0
M  V30 10573 H 1042.38 -3.87913 1.54368 0
M  V30 10574 H 1043.77 -3.73854 5.58285 0
M  V30 10575 N 1046.49 -1.27344 -0.928501 0
M  V30 10576 C 1047.74 -1.13804 -1.67859 0
M  V30 10577 C 1048.07 0.31555 -1.91619 0
M  V30 10578 O 1047.35 1.23087 -1.50599 0
M  V30 10579 C 1047.63 -1.9213 -3.04562 0
M  V30 10580 C 1047.48 -3.45468 -2.88048 0
M  V30 10581 C 1048.8 -1.72513 -4.04879 0
M  V30 10582 H 1045.92 -0.414796 -0.609191 0
M  V30 10583 H 1048.56 -1.5649 -1.07753 0
M  V30 10584 H 1046.71 -1.55853 -3.55868 0
M  V30 10585 H 1048.39 -3.9157 -2.43865 0
M  V30 10586 H 1046.63 -3.71849 -2.23407 0
M  V30 10587 H 1047.3 -3.95515 -3.85061 0
M  V30 10588 H 1049.78 -2.04143 -3.62581 0
M  V30 10589 H 1048.65 -2.29713 -4.98521 0
M  V30 10590 H 1048.91 -0.672856 -4.3695 0
M  V30 10591 N 1047.97 1.13488 -1.09353 0
M  V30 10592 C 1048.92 2.20949 -0.726923 0
M  V30 10593 C 1049.91 1.67205 0.271816 0
M  V30 10594 O 1051.12 1.79505 0.133356 0
M  V30 10595 H 1047.5 0.719985 -0.217086 0
M  V30 10596 H 1049.47 2.49134 -1.6424 0
M  V30 10597 C 1048.22 3.47319 -0.162822 0
M  V30 10598 H 1047.54 3.89011 -0.922527 0
M  V30 10599 H 1048.98 4.23963 0.0557734 0
M  V30 10600 C 1047.44 3.18376 1.10175 0
M  V30 10601 O 1047.97 3.3707 2.18511 0
M  V30 10602 N 1046.17 2.72262 1.01597 0
M  V30 10603 H 1045.72 2.5725 0.134289 0
M  V30 10604 H 1045.68 2.53272 1.86281 0
M  V30 10605 N 1049.45 0.880621 1.30701 0
M  V30 10606 C 1050.4 0.342397 2.28246 0
M  V30 10607 C 1051.37 -0.565023 1.56194 0
M  V30 10608 O 1052.55 -0.494377 1.84284 0
M  V30 10609 C 1049.69 -0.440859 3.42272 0
M  V30 10610 C 1048.81 0.495284 4.29151 0
M  V30 10611 C 1047.94 -0.303141 5.30334 0
M  V30 10612 C 1046.98 0.628751 6.08862 0
M  V30 10613 N 1046.12 -0.13408 7.01972 0
M  V30 10614 H 1050.96 1.17938 2.73669 0
M  V30 10615 H 1048.49 0.59296 1.34619 0
M  V30 10616 H 1050.45 -0.910854 4.07135 0
M  V30 10617 H 1049.08 -1.24245 2.97931 0
M  V30 10618 H 1048.13 1.08376 3.64635 0
M  V30 10619 H 1049.45 1.2094 4.83916 0
M  V30 10620 H 1048.6 -0.835181 6.00924 0
M  V30 10621 H 1047.34 -1.05049 4.76252 0
M  V30 10622 H 1046.34 1.17246 5.37153 0
M  V30 10623 H 1047.57 1.37512 6.65032 0
M  V30 10624 H 1045.52 -0.864046 6.50285 0
M  V30 10625 H 1045.43 0.520486 7.54206 0
M  V30 10626 H 1046.7 -0.647005 7.7681 0
M  V30 10627 N 1050.93 -1.4397 0.641131 0
M  V30 10628 C 1052.34 -1.85267 0.230838 0
M  V30 10629 C 1052.69 -1.53659 -1.21998 0
M  V30 10630 O 1051.82 -0.979572 -1.92959 0
M  V30 10631 C 1052.41 -3.36284 0.412171 0
M  V30 10632 C 1050.97 -3.76358 0.0563004 0
M  V30 10633 C 1050.12 -2.67768 0.720809 0
M  V30 10634 H 1053.07 -1.34294 0.845624 0
M  V30 10635 H 1053.09 -3.78924 -0.345936 0
M  V30 10636 H 1052.6 -3.59258 1.46818 0
M  V30 10637 H 1050.7 -3.58997 -0.997582 0
M  V30 10638 H 1050.82 -4.76756 0.473335 0
M  V30 10639 H 1049.18 -2.54227 0.155164 0
M  V30 10640 H 1049.96 -2.93573 1.77961 0
M  V30 10641 N 1052.41 -0.382291 -1.52893 0
M  V30 10642 C 1053.66 0.203342 -2.00672 0
M  V30 10643 C 1053.97 1.48487 -1.27322 0
M  V30 10644 O 1055.18 2.15013 -1.65776 0
M  V30 10645 C 1053.63 0.412922 -3.57523 0
M  V30 10646 C 1053.24 -0.854949 -4.39767 0
M  V30 10647 C 1054.98 0.955301 -4.13611 0
M  V30 10648 C 1052.89 -0.614033 -5.88204 0
M  V30 10649 H 1051.82 0.0797635 -0.749769 0
M  V30 10650 H 1054.47 -0.50361 -1.76454 0
M  V30 10651 H 1052.85 1.18155 -3.77962 0
M  V30 10652 H 1054.03 -1.62765 -4.31096 0
M  V30 10653 H 1052.34 -1.32176 -3.94865 0
M  V30 10654 H 1054.94 1.15114 -5.22162 0
M  V30 10655 H 1055.28 1.92233 -3.69259 0
M  V30 10656 H 1055.82 0.24642 -3.97036 0
M  V30 10657 H 1052.55 -1.55187 -6.36865 0
M  V30 10658 H 1052.07 0.119865 -5.9968 0
M  V30 10659 H 1053.75 -0.245895 -6.46533 0
M  V30 10660 N 1053.89 1.57202 -0.111913 0
M  V30 10661 C 1054.85 2.13778 0.826534 0
M  V30 10662 C 1055.85 1.07097 1.19945 0
M  V30 10663 O 1057.04 1.32906 1.12613 0
M  V30 10664 C 1054.17 2.6722 2.11675 0
M  V30 10665 H 1055.36 2.98023 0.334975 0
M  V30 10666 H 1052.92 1.55696 0.137256 0
M  V30 10667 H 1053.65 1.86542 2.65278 0
M  V30 10668 H 1053.44 3.45235 1.8589 0
M  V30 10669 H 1054.93 3.10926 2.78774 0
M  V30 10670 N 1055.36 -0.161842 1.56767 0
M  V30 10671 C 1056.3 -1.22927 1.9226 0
M  V30 10672 C 1057.27 -1.42309 0.786562 0
M  V30 10673 O 1058.46 -1.57163 1.04078 0
M  V30 10674 C 1055.59 -2.59069 2.18177 0
M  V30 10675 C 1054.63 -2.56368 3.40849 0
M  V30 10676 S 1055.46 -2.04518 4.94907 0
M  V30 10677 C 1056.62 -3.42418 5.23928 0
M  V30 10678 H 1056.85 -0.926377 2.82499 0
M  V30 10679 H 1054.39 -0.366822 1.49979 0
M  V30 10680 H 1056.34 -3.37421 2.33789 0
M  V30 10681 H 1055.01 -2.86554 1.28629 0
M  V30 10682 H 1054.2 -3.56551 3.56213 0
M  V30 10683 H 1053.8 -1.86116 3.24402 0
M  V30 10684 H 1056.09 -4.38461 5.16486 0
M  V30 10685 H 1057.04 -3.3192 6.25487 0
M  V30 10686 H 1057.44 -3.38868 4.51474 0
M  V30 10687 N 1056.84 -1.516 -0.430713 0
M  V30 10688 C 1057.79 -1.73975 -1.54387 0
M  V30 10689 C 1058.78 -0.606222 -1.58181 0
M  V30 10690 O 1059.99 -0.787764 -1.61846 0
M  V30 10691 H 1056.36 -0.549811 -0.513041 0
M  V30 10692 H 1058.34 -2.67274 -1.32692 0
M  V30 10693 C 1057.08 -1.88794 -2.9198 0
M  V30 10694 H 1056.41 -2.75425 -2.89795 0
M  V30 10695 H 1057.85 -2.08458 -3.69217 0
M  V30 10696 C 1056.31 -0.649427 -3.30581 0
M  V30 10697 O 1056.84 0.192823 -4.01237 0
M  V30 10698 N 1055.04 -0.491586 -2.86412 0
M  V30 10699 H 1054.59 -1.17806 -2.29084 0
M  V30 10700 H 1054.55 0.33583 -3.12601 0
M  V30 10701 N 1058.32 0.686584 -1.41858 0
M  V30 10702 C 1059.56 1.45879 -1.43173 0
M  V30 10703 C 1059.92 1.91953 -0.0423059 0
M  V30 10704 O 1061.12 2.68709 0.069783 0
M  V30 10705 C 1059.4 2.63196 -2.41791 0
M  V30 10706 S 1060.95 3.52212 -2.6171 0
M  V30 10707 H 1057.77 0.498391 -0.507077 0
M  V30 10708 H 1060.37 0.800313 -1.78368 0
M  V30 10709 H 1059.08 2.27566 -3.41529 0
M  V30 10710 H 1058.61 3.33928 -2.0798 0
M  V30 10711 H 1060.62 4.58744 -1.89125 0
M  V30 10712 N 1059.8 1.27835 0.921735 0
M  V30 10713 C 1061.02 1.17465 1.70929 0
M  V30 10714 C 1061.45 -0.264171 1.86236 0
M  V30 10715 O 1060.81 -1.19124 1.36671 0
M  V30 10716 C 1060.85 1.8697 3.08342 0
M  V30 10717 O 1059.96 1.17173 3.95404 0
M  V30 10718 H 1059.3 0.408206 0.523702 0
M  V30 10719 H 1061.83 1.69013 1.15307 0
M  V30 10720 H 1061.84 1.94564 3.58621 0
M  V30 10721 H 1060.51 2.91633 2.96518 0
M  V30 10722 H 1059.09 1.17688 3.53842 0
M  V30 10723 N 1061.28 -1.12907 1.09954 0
M  V30 10724 C 1062.22 -2.20561 0.73863 0
M  V30 10725 C 1063.22 -1.67347 -0.262944 0
M  V30 10726 O 1064.42 -1.79574 -0.123834 0
M  V30 10727 H 1060.8 -0.718823 0.220901 0
M  V30 10728 H 1062.77 -2.4826 1.65559 0
M  V30 10729 C 1061.52 -3.47227 0.181239 0
M  V30 10730 H 1060.84 -3.88516 0.943144 0
M  V30 10731 H 1062.28 -4.23987 -0.0332888 0
M  V30 10732 C 1060.74 -3.18956 -1.08485 0
M  V30 10733 O 1061.27 -3.38224 -2.1672 0
M  V30 10734 N 1059.48 -2.72797 -1.00151 0
M  V30 10735 H 1059.02 -2.57317 -0.120645 0
M  V30 10736 H 1058.98 -2.54256 -1.84935 0
M  V30 10737 N 1062.75 -0.88754 -1.30232 0
M  V30 10738 C 1063.68 -0.372481 -2.3051 0
M  V30 10739 C 1064.66 0.546037 -1.61098 0
M  V30 10740 O 1065.85 0.459345 -1.88689 0
M  V30 10741 C 1062.98 0.411605 -3.44852 0
M  V30 10742 C 1061.93 -0.415383 -4.2598 0
M  V30 10743 C 1061.26 0.495463 -5.324 0
M  V30 10744 C 1062.56 -1.65886 -4.95257 0
M  V30 10745 H 1064.25 -1.21045 -2.7384 0
M  V30 10746 H 1061.8 -0.583498 -1.31648 0
M  V30 10747 H 1063.75 0.782584 -4.1407 0
M  V30 10748 H 1062.48 1.28325 -3.00334 0
M  V30 10749 H 1061.14 -0.768534 -3.58454 0
M  V30 10750 H 1060.78 1.36489 -4.84128 0
M  V30 10751 H 1060.48 -0.0540885 -5.87575 0
M  V30 10752 H 1062.01 0.862901 -6.04472 0
M  V30 10753 H 1063.42 -1.35832 -5.56976 0
M  V30 10754 H 1061.82 -2.14881 -5.60309 0
M  V30 10755 H 1062.89 -2.40181 -4.21237 0
M  V30 10756 N 1064.23 1.43628 -0.648757 0
M  V30 10757 C 1065.48 2.02695 -0.169158 0
M  V30 10758 C 1065.83 1.50239 1.20191 0
M  V30 10759 O 1065.13 0.684018 1.78974 0
M  V30 10760 C 1065.32 3.57214 -0.115282 0
M  V30 10761 C 1065.15 4.24663 -1.47959 0
M  V30 10762 C 1063.92 4.60917 -2.07084 0
M  V30 10763 C 1066.12 4.53962 -2.41708 0
M  V30 10764 N 1064.1 5.13416 -3.36566 0
M  V30 10765 C 1065.47 5.07733 -3.55819 0
M  V30 10766 C 1067.53 4.35927 -2.40566 0
M  V30 10767 C 1066.23 5.45367 -4.69007 0
M  V30 10768 C 1068.25 4.7462 -3.52831 0
M  V30 10769 C 1067.62 5.2852 -4.65667 0
M  V30 10770 H 1063.72 0.774751 -0.106227 0
M  V30 10771 H 1066.3 1.74869 -0.85609 0
M  V30 10772 H 1064.47 3.84614 0.54098 0
M  V30 10773 H 1066.2 4.02961 0.374775 0
M  V30 10774 H 1062.96 4.45812 -1.59841 0
M  V30 10775 H 1063.38 5.44124 -4.02813 0
M  V30 10776 H 1068.02 3.93533 -1.54569 0
M  V30 10777 H 1065.74 5.86707 -5.55698 0
M  V30 10778 H 1069.33 4.62364 -3.53144 0
M  V30 10779 H 1068.21 5.57906 -5.511 0
M  V30 10780 N 1065.71 0.390394 1.52688 0
M  V30 10781 C 1066.96 -0.191067 2.01195 0
M  V30 10782 C 1067.28 -1.47229 1.27862 0
M  V30 10783 O 1066.55 -1.91793 0.399007 0
M  V30 10784 H 1065.13 -0.073596 0.743366 0
M  V30 10785 H 1067.79 0.522334 1.8777 0
M  V30 10786 H 1066.89 -0.40051 3.0952 0
M  V30 10787 N 1067.19 -1.57141 0.120249 0
M  V30 10788 C 1068.14 -2.16638 -0.846809 0
M  V30 10789 C 1069.13 -1.11594 -1.27449 0
M  V30 10790 O 1070.34 -1.29895 -1.24608 0
M  V30 10791 H 1066.71 -0.693331 -0.291197 0
M  V30 10792 H 1068.68 -2.96673 -0.320536 0
M  V30 10793 C 1067.43 -2.78134 -2.08655 0
M  V30 10794 H 1066.75 -3.58662 -1.76639 0
M  V30 10795 H 1068.19 -3.23301 -2.74322 0
M  V30 10796 C 1066.65 -1.7528 -2.87713 0
M  V30 10797 O 1067.18 -1.20693 -3.8314 0
M  V30 10798 N 1065.39 -1.45192 -2.51729 0
M  V30 10799 H 1064.94 -1.89773 -1.74195 0
M  V30 10800 H 1064.89 -0.766166 -3.04922 0
M  V30 10801 N 1068.67 0.153526 -1.5685 0
M  V30 10802 C 1069.91 0.867232 -1.8299 0
M  V30 10803 C 1070.24 1.81462 -0.700125 0
M  V30 10804 O 1069.5 1.93207 0.311348 0
M  V30 10805 C 1069.8 1.68066 -3.15418 0
M  V30 10806 C 1069.46 0.880635 -4.42217 0
M  V30 10807 C 1068.12 0.659899 -4.76654 0
M  V30 10808 C 1070.48 0.320698 -5.20212 0
M  V30 10809 C 1067.8 -0.131588 -5.86552 0
M  V30 10810 C 1070.16 -0.457794 -6.30941 0
M  V30 10811 C 1068.82 -0.689168 -6.63933 0
M  V30 10812 H 1068.09 0.317343 -0.669608 0
M  V30 10813 H 1070.74 0.131208 -1.9105 0
M  V30 10814 H 1069.04 2.4866 -3.02779 0
M  V30 10815 H 1070.74 2.23623 -3.32857 0
M  V30 10816 H 1067.33 1.06274 -4.15215 0
M  V30 10817 H 1071.51 0.47853 -4.93988 0
M  V30 10818 H 1066.77 -0.320413 -6.1056 0
M  V30 10819 H 1070.94 -0.898839 -6.90575 0
M  V30 10820 H 1068.57 -1.30433 -7.48927 0
M  V30 10821 N 1070.14 1.51827 0.422667 0
M  V30 10822 C 1071.37 1.69337 1.19748 0
M  V30 10823 C 1071.79 0.396312 1.83878 0
M  V30 10824 O 1071.15 -0.644976 1.6944 0
M  V30 10825 C 1071.2 2.82082 2.24637 0
M  V30 10826 O 1070.3 2.46708 3.30468 0
M  V30 10827 H 1069.65 0.564154 0.35018 0
M  V30 10828 H 1072.18 1.98465 0.497289 0
M  V30 10829 H 1072.19 3.06599 2.69186 0
M  V30 10830 H 1070.86 3.76195 1.77341 0
M  V30 10831 H 1069.44 2.32815 2.91293 0
M  V30 10832 N 1071.62 -0.679052 1.4222 0
M  V30 10833 C 1072.85 -1.46534 1.45641 0
M  V30 10834 C 1073.26 -1.89088 0.0649574 0
M  V30 10835 O 1072.6 -1.58436 -0.929712 0
M  V30 10836 C 1072.67 -2.74882 2.3169 0
M  V30 10837 C 1072.33 -2.5443 3.79624 0
M  V30 10838 C 1073.33 -2.19307 4.71382 0
M  V30 10839 C 1071.01 -2.69557 4.23845 0
M  V30 10840 C 1073.01 -1.99571 6.05351 0
M  V30 10841 C 1070.69 -2.49437 5.57875 0
M  V30 10842 C 1071.69 -2.14497 6.48444 0
M  V30 10843 O 1071.38 -1.94567 7.79999 0
M  V30 10844 H 1071.11 -0.457542 0.497626 0
M  V30 10845 H 1073.66 -0.842145 1.87342 0
M  V30 10846 H 1071.89 -3.39669 1.8483 0
M  V30 10847 H 1073.58 -3.3675 2.26615 0
M  V30 10848 H 1074.35 -2.0722 4.38503 0
M  V30 10849 H 1070.23 -2.95733 3.53642 0
M  V30 10850 H 1073.77 -1.72222 6.76007 0
M  V30 10851 H 1069.67 -2.61119 5.90328 0
M  V30 10852 H 1070.44 -2.092 7.91314 0
M  V30 10853 N 1073.1 -1.28322 -0.914942 0
M  V30 10854 C 1074.35 -1.15179 -1.66067 0
M  V30 10855 C 1074.67 0.300279 -1.92674 0
M  V30 10856 O 1073.94 1.20821 -1.54205 0
M  V30 10857 H 1072.52 -0.423264 -0.615513 0
M  V30 10858 H 1075.18 -1.61034 -1.09791 0
M  V30 10859 H 1074.28 -1.69048 -2.62353 0
M  V30 10860 N 1074.58 1.12322 -1.10551 0
M  V30 10861 C 1075.8 1.8822 -0.871093 0
M  V30 10862 C 1076.23 1.7916 0.573005 0
M  V30 10863 O 1075.59 1.14738 1.40374 0
M  V30 10864 C 1075.63 3.35349 -1.32565 0
M  V30 10865 O 1074.74 4.09461 -0.49145 0
M  V30 10866 H 1074.08 0.584787 -0.314516 0
M  V30 10867 H 1076.61 1.42039 -1.47262 0
M  V30 10868 H 1076.62 3.86189 -1.31612 0
M  V30 10869 H 1075.29 3.4126 -2.37728 0
M  V30 10870 H 1073.87 3.68575 -0.566294 0
M  V30 10871 N 1076.06 0.894434 1.2976 0
M  V30 10872 C 1077.31 0.513673 1.95049 0
M  V30 10873 C 1077.62 -0.943744 1.71327 0
M  V30 10874 O 1078.82 -1.43179 2.30678 0
M  V30 10875 C 1077.28 0.867751 3.49282 0
M  V30 10876 C 1076.89 2.34358 3.81812 0
M  V30 10877 C 1078.63 0.556645 4.20835 0
M  V30 10878 C 1076.54 2.63879 5.29265 0
M  V30 10879 H 1075.47 0.188375 0.73009 0
M  V30 10880 H 1078.12 1.09071 1.47566 0
M  V30 10881 H 1076.5 0.2197 3.9539 0
M  V30 10882 H 1077.68 3.03674 3.46581 0
M  V30 10883 H 1075.99 2.62318 3.23386 0
M  V30 10884 H 1078.59 0.754123 5.29355 0
M  V30 10885 H 1078.93 -0.504526 4.13231 0
M  V30 10886 H 1079.46 1.1623 3.80441 0
M  V30 10887 H 1076.2 3.68774 5.41928 0
M  V30 10888 H 1075.72 1.99182 5.65762 0
M  V30 10889 H 1077.4 2.49871 5.96803 0
M  V30 10890 N 1077.53 -1.43282 0.656365 0
M  V30 10891 C 1078.77 -2.03652 0.174681 0
M  V30 10892 C 1079.14 -1.5068 -1.18994 0
M  V30 10893 O 1080.34 -2.02716 -1.76521 0
M  V30 10894 C 1078.61 -3.56906 0.18778 0
M  V30 10895 S 1080.17 -4.3822 -0.225599 0
M  V30 10896 H 1076.99 -0.70719 0.0735029 0
M  V30 10897 H 1079.59 -1.75303 0.865403 0
M  V30 10898 H 1078.29 -3.92961 1.18363 0
M  V30 10899 H 1077.82 -3.89903 -0.523378 0
M  V30 10900 H 1079.84 -4.74121 -1.46369 0
M  V30 10901 N 1079.01 -0.398486 -1.52479 0
M  V30 10902 C 1080.24 0.183059 -2.06591 0
M  V30 10903 C 1080.66 1.3898 -1.26753 0
M  V30 10904 O 1080.02 1.78885 -0.294959 0
M  V30 10905 C 1080.07 0.522392 -3.56796 0
M  V30 10906 O 1079.17 1.61499 -3.79462 0
M  V30 10907 H 1078.51 0.0188411 -0.663733 0
M  V30 10908 H 1081.04 -0.56861 -1.9654 0
M  V30 10909 H 1081.05 0.784078 -4.00395 0
M  V30 10910 H 1079.73 -0.359807 -4.14341 0
M  V30 10911 H 1078.31 1.3463 -3.47749 0
M  V30 10912 N 1080.49 1.57075 -0.12858 0
M  V30 10913 C 1081.74 1.9552 0.527087 0
M  V30 10914 C 1082.07 1.01243 1.66072 0
M  V30 10915 O 1081.32 0.0381076 1.95663 0
M  V30 10916 C 1081.62 3.40329 1.09138 0
M  V30 10917 C 1081.29 4.50832 0.0781039 0
M  V30 10918 C 1079.95 4.80782 -0.200493 0
M  V30 10919 C 1082.3 5.17595 -0.61192 0
M  V30 10920 C 1079.63 5.74809 -1.17524 0
M  V30 10921 C 1081.98 6.12671 -1.57536 0
M  V30 10922 C 1080.64 6.41008 -1.86184 0
M  V30 10923 H 1079.91 0.715458 0.192875 0
M  V30 10924 H 1082.56 1.90328 -0.211515 0
M  V30 10925 H 1080.87 3.42262 1.90694 0
M  V30 10926 H 1082.56 3.67393 1.60696 0
M  V30 10927 H 1079.15 4.2751 0.30543 0
M  V30 10928 H 1083.34 4.94605 -0.40986 0
M  V30 10929 H 1078.59 5.95065 -1.40384 0
M  V30 10930 H 1082.77 6.63486 -2.11565 0
M  V30 10931 H 1080.39 7.13673 -2.61868 0
M  V30 10932 N 1081.97 -0.145205 1.5693 0
M  V30 10933 C 1082.92 -1.18446 1.94819 0
M  V30 10934 C 1083.9 -1.38456 0.819684 0
M  V30 10935 O 1085.1 -1.39988 1.08316 0
M  V30 10936 C 1082.22 -2.51766 2.33385 0
M  V30 10937 C 1081.31 -2.35341 3.5281 0
M  V30 10938 N 1081.7 -1.88676 4.69292 0
M  V30 10939 C 1080 -2.66087 3.5793 0
M  V30 10940 C 1080.7 -1.85337 5.51385 0
M  V30 10941 N 1079.68 -2.28717 4.93142 0
M  V30 10942 H 1083.48 -0.815785 2.82351 0
M  V30 10943 H 1080.99 -0.353242 1.58512 0
M  V30 10944 H 1082.99 -3.26897 2.58735 0
M  V30 10945 H 1081.65 -2.89414 1.47206 0
M  V30 10946 H 1082.66 -1.58614 4.93013 0
M  V30 10947 H 1079.34 -3.07597 2.82294 0
M  V30 10948 H 1080.73 -1.50734 6.54774 0
M  V30 10949 N 1083.45 -1.52049 -0.414609 0
M  V30 10950 C 1084.69 -1.67511 -1.17129 0
M  V30 10951 C 1085.05 -0.39383 -1.87917 0
M  V30 10952 O 1086.25 -0.424496 -2.65427 0
M  V30 10953 C 1084.52 -2.85982 -2.14357 0
M  V30 10954 S 1086.08 -3.21898 -2.98206 0
M  V30 10955 H 1082.9 -0.589923 -0.396877 0
M  V30 10956 H 1085.5 -1.90025 -0.459409 0
M  V30 10957 H 1084.21 -3.77488 -1.6103 0
M  V30 10958 H 1083.74 -2.65725 -2.90092 0
M  V30 10959 H 1085.75 -2.70095 -4.16249 0
M  V30 10960 N 1084.93 0.6715 -1.42579 0
M  V30 10961 C 1085.86 1.79693 -1.49107 0
M  V30 10962 C 1086.84 1.66516 -0.347338 0
M  V30 10963 O 1088.02 1.85887 -0.562094 0
M  V30 10964 C 1085.15 3.1801 -1.39596 0
M  V30 10965 C 1084.11 3.45926 -2.5203 0
M  V30 10966 C 1083.43 4.83852 -2.27577 0
M  V30 10967 C 1084.73 3.4249 -3.94333 0
M  V30 10968 H 1086.43 1.74486 -2.433 0
M  V30 10969 H 1083.97 0.838042 -1.17102 0
M  V30 10970 H 1085.92 3.96478 -1.42771 0
M  V30 10971 H 1084.65 3.23901 -0.418989 0
M  V30 10972 H 1083.31 2.6982 -2.48178 0
M  V30 10973 H 1082.96 4.86398 -1.28165 0
M  V30 10974 H 1082.66 5.03493 -3.02934 0
M  V30 10975 H 1084.18 5.646 -2.32506 0
M  V30 10976 H 1085.59 4.10922 -3.9977 0
M  V30 10977 H 1083.99 3.73666 -4.69568 0
M  V30 10978 H 1085.06 2.41002 -4.20768 0
M  V30 10979 N 1086.4 1.28806 0.908124 0
M  V30 10980 C 1087.31 1.15079 2.04436 0
M  V30 10981 C 1088.33 0.076012 1.73834 0
M  V30 10982 O 1089.51 0.286421 1.99353 0
M  V30 10983 C 1086.57 0.819733 3.3687 0
M  V30 10984 C 1085.63 1.97746 3.81045 0
M  V30 10985 C 1084.86 1.66211 5.07158 0
M  V30 10986 O 1085.09 0.579092 5.67453 0
M  V30 10987 O 1084.02 2.5075 5.47182 0
M  V30 10988 H 1087.85 2.10477 2.18937 0
M  V30 10989 H 1085.43 1.08177 1.03044 0
M  V30 10990 H 1087.31 0.649304 4.16368 0
M  V30 10991 H 1085.99 -0.10454 3.23531 0
M  V30 10992 H 1084.9 2.20308 3.02349 0
M  V30 10993 H 1086.23 2.88264 3.98955 0
M  V30 10994 N 1087.88 -1.11734 1.11145 0
M  V30 10995 C 1089.13 -1.83043 0.856717 0
M  V30 10996 C 1089.45 -1.84901 -0.619407 0
M  V30 10997 O 1088.72 -1.31738 -1.44989 0
M  V30 10998 H 1087.3 -0.677823 0.31395 0
M  V30 10999 H 1089.96 -1.35262 1.40322 0
M  V30 11000 H 1089.06 -2.87005 1.22616 0
M  V30 11001 N 1089.36 -0.901303 -1.29284 0
M  V30 11002 C 1090.29 -0.337552 -2.26701 0
M  V30 11003 C 1091.3 0.517039 -1.54371 0
M  V30 11004 O 1092.49 0.333937 -1.75349 0
M  V30 11005 C 1089.59 0.537214 -3.34615 0
M  V30 11006 C 1088.77 -0.292017 -4.36424 0
M  V30 11007 C 1087.83 0.515837 -5.23666 0
M  V30 11008 O 1086.85 -0.0672303 -5.6916 0
M  V30 11009 N 1088.05 1.82159 -5.51179 0
M  V30 11010 H 1090.82 -1.17484 -2.75713 0
M  V30 11011 H 1088.38 -0.765957 -1.42635 0
M  V30 11012 H 1090.37 1.0841 -3.8991 0
M  V30 11013 H 1088.94 1.2752 -2.85408 0
M  V30 11014 H 1088.16 -1.02031 -3.80767 0
M  V30 11015 H 1089.45 -0.859855 -5.01482 0
M  V30 11016 H 1088.85 2.318 -5.16028 0
M  V30 11017 H 1087.4 2.31556 -6.09282 0
M  V30 11018 N 1090.84 1.42931 -0.663954 0
M  V30 11019 C 1091.77 2.33499 0.00731327 0
M  V30 11020 C 1092.75 1.50074 0.800733 0
M  V30 11021 O 1093.93 1.78708 0.760062 0
M  V30 11022 C 1091.06 3.33569 0.966897 0
M  V30 11023 C 1090.02 4.27064 0.282839 0
M  V30 11024 C 1089.34 5.17257 1.35461 0
M  V30 11025 C 1090.64 5.1564 -0.831438 0
M  V30 11026 H 1092.34 2.89879 -0.749044 0
M  V30 11027 H 1089.88 1.39385 -0.361656 0
M  V30 11028 H 1091.84 3.95833 1.44549 0
M  V30 11029 H 1090.56 2.75469 1.75455 0
M  V30 11030 H 1089.22 3.6618 -0.175417 0
M  V30 11031 H 1088.87 4.5549 2.13397 0
M  V30 11032 H 1088.57 5.80634 0.902098 0
M  V30 11033 H 1090.09 5.82395 1.83436 0
M  V30 11034 H 1091.51 5.71651 -0.434534 0
M  V30 11035 H 1089.9 5.87794 -1.20908 0
M  V30 11036 H 1090.97 4.54687 -1.68487 0
M  V30 11037 N 1092.32 0.406567 1.52266 0
M  V30 11038 C 1093.25 -0.411314 2.29849 0
M  V30 11039 C 1094.23 -1.04838 1.33952 0
M  V30 11040 O 1095.41 -1.05788 1.62857 0
M  V30 11041 C 1092.54 -1.52961 3.11802 0
M  V30 11042 C 1091.5 -1.01768 4.15725 0
M  V30 11043 C 1090.82 -2.22938 4.86007 0
M  V30 11044 C 1092.12 -0.073515 5.22248 0
M  V30 11045 H 1093.82 0.236054 2.98468 0
M  V30 11046 H 1091.36 0.114968 1.4354 0
M  V30 11047 H 1093.31 -2.10874 3.64843 0
M  V30 11048 H 1092.04 -2.20482 2.40947 0
M  V30 11049 H 1090.7 -0.46097 3.6369 0
M  V30 11050 H 1090.35 -2.89007 4.11684 0
M  V30 11051 H 1090.05 -1.89338 5.5626 0
M  V30 11052 H 1091.57 -2.81462 5.41859 0
M  V30 11053 H 1092.98 -0.561367 5.70545 0
M  V30 11054 H 1091.38 0.173551 5.99849 0
M  V30 11055 H 1092.45 0.872524 4.76985 0
M  V30 11056 N 1093.79 -1.57004 0.136909 0
M  V30 11057 C 1094.74 -2.17524 -0.823784 0
M  V30 11058 C 1095.74 -1.1294 -1.26258 0
M  V30 11059 O 1096.94 -1.3121 -1.23223 0
M  V30 11060 H 1093.32 -0.696381 -0.283827 0
M  V30 11061 H 1095.29 -2.96997 -0.289052 0
M  V30 11062 C 1094.04 -2.80331 -2.05693 0
M  V30 11063 H 1093.36 -3.60515 -1.72825 0
M  V30 11064 H 1094.8 -3.26192 -2.70878 0
M  V30 11065 C 1093.26 -1.78322 -2.85837 0
M  V30 11066 O 1093.79 -1.2475 -3.81838 0
M  V30 11067 N 1092 -1.47854 -2.50175 0
M  V30 11068 H 1091.54 -1.9161 -1.72173 0
M  V30 11069 H 1091.5 -0.798464 -3.04092 0
M  V30 11070 N 1095.27 0.136881 -1.57004 0
M  V30 11071 C 1096.52 0.8461 -1.83536 0
M  V30 11072 C 1096.84 1.81246 -0.71937 0
M  V30 11073 O 1096.11 1.94191 0.258161 0
M  V30 11074 H 1094.69 0.315446 -0.677128 0
M  V30 11075 H 1097.35 0.128469 -1.94476 0
M  V30 11076 H 1096.45 1.40221 -2.78827 0
M  V30 11077 N 1096.75 1.52266 0.40654 0
M  V30 11078 C 1097.98 1.70598 1.17945 0
M  V30 11079 C 1098.4 0.415793 1.83447 0
M  V30 11080 O 1097.76 -0.626968 1.70114 0
M  V30 11081 C 1097.81 2.84449 2.21633 0
M  V30 11082 O 1096.91 2.50199 3.27833 0
M  V30 11083 H 1096.25 0.567837 0.344177 0
M  V30 11084 H 1098.78 1.98981 0.476211 0
M  V30 11085 H 1098.79 3.09436 2.65919 0
M  V30 11086 H 1097.47 3.78055 1.73341 0
M  V30 11087 H 1096.04 2.35892 2.88807 0
M  V30 11088 N 1098.23 -0.663929 1.42933 0
M  V30 11089 C 1099.19 -1.75899 1.46943 0
M  V30 11090 C 1100.19 -1.5682 0.355535 0
M  V30 11091 O 1101.38 -1.62914 0.616833 0
M  V30 11092 C 1098.51 -3.14657 1.31164 0
M  V30 11093 H 1099.71 -1.73727 2.44456 0
M  V30 11094 H 1097.26 -0.874587 1.2954 0
M  V30 11095 H 1097.99 -3.22447 0.346165 0
M  V30 11096 H 1097.78 -3.29909 2.11902 0
M  V30 11097 H 1099.27 -3.9453 1.36878 0
M  V30 11098 N 1099.71 -1.29285 -0.901281 0
M  V30 11099 C 1100.64 -1.10086 -2.01032 0
M  V30 11100 C 1101.65 -0.0488364 -1.62727 0
M  V30 11101 O 1102.84 -0.293194 -1.76076 0
M  V30 11102 C 1099.94 -0.653357 -3.32542 0
M  V30 11103 C 1099.11 -1.78355 -3.99385 0
M  V30 11104 C 1098.17 -1.32733 -5.09184 0
M  V30 11105 O 1097.2 -2.03177 -5.31703 0
M  V30 11106 N 1098.4 -0.197345 -5.80164 0
M  V30 11107 H 1101.17 -2.056 -2.18057 0
M  V30 11108 H 1098.73 -1.21204 -1.07337 0
M  V30 11109 H 1100.72 -0.331491 -4.0334 0
M  V30 11110 H 1099.29 0.209278 -3.11899 0
M  V30 11111 H 1098.51 -2.27438 -3.21972 0
M  V30 11112 H 1099.8 -2.54137 -4.40785 0
M  V30 11113 H 1099.19 0.390011 -5.64354 0
M  V30 11114 H 1097.75 0.0651642 -6.51767 0
M  V30 11115 N 1101.18 1.11143 -1.11736 0
M  V30 11116 C 1102.41 1.86745 -0.890727 0
M  V30 11117 C 1102.83 1.80315 0.55964 0
M  V30 11118 O 1102.18 1.18663 1.38656 0
M  V30 11119 C 1102.24 3.35436 -1.34779 0
M  V30 11120 O 1101.96 3.41738 -2.74129 0
M  V30 11121 C 1103.46 4.27935 -1.15702 0
M  V30 11122 H 1100.68 0.59044 -0.318781 0
M  V30 11123 H 1103.22 1.40549 -1.48547 0
M  V30 11124 H 1101.38 3.79125 -0.796425 0
M  V30 11125 H 1101.79 4.34347 -2.94012 0
M  V30 11126 H 1103.26 5.30494 -1.52579 0
M  V30 11127 H 1103.74 4.39093 -0.0968735 0
M  V30 11128 H 1104.35 3.90042 -1.69551 0
M  V30 11129 N 1102.66 0.908147 1.28804 0
M  V30 11130 C 1103.63 0.397058 2.25735 0
M  V30 11131 C 1104.63 -0.473483 1.53671 0
M  V30 11132 O 1105.82 -0.277335 1.71978 0
M  V30 11133 C 1102.95 -0.431392 3.38159 0
M  V30 11134 H 1104.14 1.25323 2.72459 0
M  V30 11135 H 1101.69 0.687041 1.4039 0
M  V30 11136 H 1102.43 -1.3072 2.96787 0
M  V30 11137 H 1102.21 0.192502 3.91627 0
M  V30 11138 H 1103.7 -0.78 4.10251 0
M  V30 11139 N 1104.14 -1.42577 0.671525 0
M  V30 11140 C 1105.38 -2.03455 0.196271 0
M  V30 11141 C 1105.74 -1.51934 -1.17389 0
M  V30 11142 O 1106.95 -2.04577 -1.74361 0
M  V30 11143 C 1105.22 -3.56687 0.225624 0
M  V30 11144 S 1106.78 -4.38434 -0.179107 0
M  V30 11145 H 1103.59 -0.706371 0.0809995 0
M  V30 11146 H 1106.2 -1.74375 0.883948 0
M  V30 11147 H 1104.9 -3.91684 1.22524 0
M  V30 11148 H 1104.43 -3.90436 -0.481994 0
M  V30 11149 H 1106.45 -4.75646 -1.41332 0
M  V30 11150 N 1105.62 -0.414636 -1.52048 0
M  V30 11151 C 1106.55 0.443601 -2.24866 0
M  V30 11152 C 1107.56 1.00556 -1.28032 0
M  V30 11153 O 1108.75 0.903566 -1.53941 0
M  V30 11154 C 1105.85 1.63004 -2.97124 0
M  V30 11155 C 1105.03 1.191 -4.20873 0
M  V30 11156 C 1104.08 2.24497 -4.75907 0
M  V30 11157 O 1103.11 1.84861 -5.38345 0
M  V30 11158 N 1104.31 3.56727 -4.57959 0
M  V30 11159 H 1107.08 -0.180393 -2.99157 0
M  V30 11160 H 1104.64 -0.242305 -1.60077 0
M  V30 11161 H 1106.63 2.33089 -3.30835 0
M  V30 11162 H 1105.2 2.15984 -2.25986 0
M  V30 11163 H 1104.42 0.318059 -3.92915 0
M  V30 11164 H 1105.71 0.874699 -5.01225 0
M  V30 11165 H 1105.11 3.91675 -4.08175 0
M  V30 11166 H 1103.66 4.22772 -4.96092 0
M  V30 11167 N 1107.1 1.56929 -0.145233 0
M  V30 11168 C 1108.01 2.20238 0.808219 0
M  V30 11169 C 1109.02 1.18615 1.27304 0
M  V30 11170 O 1110.2 1.51186 1.3306 0
M  V30 11171 C 1107.26 2.81016 2.03055 0
M  V30 11172 C 1106.32 3.97759 1.61512 0
M  V30 11173 C 1105.56 4.55628 2.77918 0
M  V30 11174 O 1105.78 4.12378 3.94082 0
M  V30 11175 O 1104.71 5.45917 2.53492 0
M  V30 11176 H 1108.54 3.02221 0.299314 0
M  V30 11177 H 1106.13 1.49176 0.0817051 0
M  V30 11178 H 1108.01 3.19652 2.74592 0
M  V30 11179 H 1106.68 2.02047 2.52901 0
M  V30 11180 H 1105.59 3.63842 0.870033 0
M  V30 11181 H 1106.92 4.78242 1.16383 0
M  V30 11182 N 1108.58 -0.128553 1.57075 0
M  V30 11183 C 1109.52 -1.17719 2.00611 0
M  V30 11184 C 1110.52 -1.43423 0.90146 0
M  V30 11185 O 1111.72 -1.43498 1.08666 0
M  V30 11186 H 1108.1 -0.396683 0.638864 0
M  V30 11187 H 1110.07 -0.783437 2.87932 0
M  V30 11188 C 1108.82 -2.49826 2.41831 0
M  V30 11189 H 1108.14 -2.30883 3.26394 0
M  V30 11190 H 1109.58 -3.21784 2.761 0
M  V30 11191 C 1108.04 -3.11712 1.27816 0
M  V30 11192 O 1108.57 -3.9736 0.588917 0
M  V30 11193 N 1106.78 -2.71442 1.03767 0
M  V30 11194 H 1106.32 -2.01891 1.59994 0
M  V30 11195 H 1106.28 -3.1318 0.276743 0
M  V30 11196 N 1110.05 -1.5248 -0.398459 0
M  V30 11197 C 1111.3 -1.66731 -1.14215 0
M  V30 11198 C 1111.62 -0.404957 -1.90749 0
M  V30 11199 O 1110.89 0.580434 -1.87104 0
M  V30 11200 H 1109.47 -0.614577 -0.424622 0
M  V30 11201 H 1112.13 -1.89561 -0.453059 0
M  V30 11202 H 1111.23 -2.51336 -1.85031 0
M  V30 11203 N 1111.53 0.65634 -1.43283 0
M  V30 11204 C 1112.48 1.76243 -1.44646 0
M  V30 11205 C 1113.47 1.5778 -0.31532 0
M  V30 11206 O 1114.66 1.67945 -0.558881 0
M  V30 11207 C 1111.79 3.14813 -1.36921 0
M  V30 11208 C 1110.87 3.38835 -2.55053 0
M  V30 11209 N 1111.26 3.33345 -3.80414 0
M  V30 11210 C 1109.56 3.69542 -2.4971 0
M  V30 11211 C 1110.26 3.57361 -4.58986 0
M  V30 11212 N 1109.24 3.79022 -3.8967 0
M  V30 11213 H 1113.04 1.70419 -2.39447 0
M  V30 11214 H 1110.55 0.85789 -1.37891 0
M  V30 11215 H 1112.55 3.941 -1.3598 0
M  V30 11216 H 1111.21 3.21822 -0.431381 0
M  V30 11217 H 1112.22 3.12827 -4.12747 0
M  V30 11218 H 1108.9 3.83684 -1.64598 0
M  V30 11219 H 1110.29 3.58921 -5.68001 0
M  V30 11220 N 1113.01 1.29761 0.894412 0
M  V30 11221 C 1114.26 1.19224 1.64794 0
M  V30 11222 C 1114.61 -0.252648 1.90734 0
M  V30 11223 O 1113.9 -1.17881 1.51045 0
M  V30 11224 C 1114.1 1.94458 2.99868 0
M  V30 11225 C 1113.93 3.46115 2.87114 0
M  V30 11226 C 1112.7 4.15469 2.87599 0
M  V30 11227 C 1114.89 4.41518 2.63754 0
M  V30 11228 N 1112.88 5.53453 2.65637 0
M  V30 11229 C 1114.25 5.66999 2.50823 0
M  V30 11230 C 1116.3 4.31221 2.48903 0
M  V30 11231 C 1115.01 6.83351 2.24554 0
M  V30 11232 C 1117.03 5.4733 2.24018 0
M  V30 11233 C 1116.39 6.71786 2.11856 0
M  V30 11234 H 1112.49 0.491294 0.608403 0
M  V30 11235 H 1115.08 1.63656 1.05474 0
M  V30 11236 H 1113.25 1.52432 3.57238 0
M  V30 11237 H 1114.98 1.76142 3.64357 0
M  V30 11238 H 1111.73 3.67217 2.9908 0
M  V30 11239 H 1112.16 6.26037 2.57695 0
M  V30 11240 H 1116.8 3.35689 2.57046 0
M  V30 11241 H 1114.52 7.78933 2.15149 0
M  V30 11242 H 1118.1 5.41265 2.13363 0
M  V30 11243 H 1116.98 7.60113 1.92867 0
M  V30 11244 N 1114.49 -1.10549 1.12324 0
M  V30 11245 C 1115.71 -1.8681 0.900927 0
M  V30 11246 C 1116.14 -1.80049 -0.54443 0
M  V30 11247 O 1115.5 -1.16957 -1.38531 0
M  V30 11248 C 1115.54 -3.33197 1.37883 0
M  V30 11249 O 1114.65 -4.08628 0.556529 0
M  V30 11250 H 1113.99 -0.579709 0.32378 0
M  V30 11251 H 1116.52 -1.39678 1.49503 0
M  V30 11252 H 1116.53 -3.84047 1.37739 0
M  V30 11253 H 1115.2 -3.37435 2.43127 0
M  V30 11254 H 1113.78 -3.67627 0.62486 0
M  V30 11255 N 1115.97 -0.914965 -1.28321 0
M  V30 11256 C 1117.19 -0.564654 -1.99046 0
M  V30 11257 C 1117.61 0.854345 -1.68364 0
M  V30 11258 O 1116.97 1.56605 -0.937068 0
M  V30 11259 C 1117.02 -0.765663 -3.53299 0
M  V30 11260 O 1116.74 -2.12883 -3.829 0
M  V30 11261 C 1118.24 -0.422347 -4.41283 0
M  V30 11262 H 1115.46 -0.215158 -0.635569 0
M  V30 11263 H 1118 -1.2285 -1.63487 0
M  V30 11264 H 1116.16 -0.148795 -3.87114 0
M  V30 11265 H 1116.57 -2.1694 -4.77533 0
M  V30 11266 H 1118.05 -0.613757 -5.48577 0
M  V30 11267 H 1118.52 0.641484 -4.3449 0
M  V30 11268 H 1119.13 -1.01681 -4.12966 0
M  V30 11269 N 1117.44 1.42219 -0.679077 0
M  V30 11270 C 1118.67 2.05815 -0.211649 0
M  V30 11271 C 1119.09 1.51037 1.13284 0
M  V30 11272 O 1118.44 0.651894 1.7046 0
M  V30 11273 C 1118.49 3.61218 -0.142663 0
M  V30 11274 O 1118.22 4.13965 -1.43402 0
M  V30 11275 C 1119.72 4.41934 0.347746 0
M  V30 11276 H 1116.94 0.663215 -0.101914 0
M  V30 11277 H 1119.48 1.82282 -0.927017 0
M  V30 11278 H 1117.64 3.83848 0.52342 0
M  V30 11279 H 1118.05 5.07872 -1.31021 0
M  V30 11280 H 1119.52 5.50921 0.344916 0
M  V30 11281 H 1120 4.16832 1.38377 0
M  V30 11282 H 1120.61 4.24332 -0.286751 0
M  V30 11283 N 1118.92 0.422693 1.51826 0
M  V30 11284 C 1120.17 -0.148861 2.02253 0
M  V30 11285 C 1120.5 -1.43629 1.30707 0
M  V30 11286 O 1119.78 -1.89967 0.417482 0
M  V30 11287 C 1120.06 -0.382672 3.58061 0
M  V30 11288 C 1119.91 0.922386 4.40241 0
M  V30 11289 C 1121.23 -1.1589 4.24567 0
M  V30 11290 H 1118.35 -0.0526279 0.735119 0
M  V30 11291 H 1120.99 0.558821 1.81596 0
M  V30 11292 H 1119.14 -0.985495 3.75793 0
M  V30 11293 H 1120.81 1.55806 4.34191 0
M  V30 11294 H 1119.06 1.53032 4.05911 0
M  V30 11295 H 1119.73 0.713012 5.47376 0
M  V30 11296 H 1122.2 -0.648415 4.11017 0
M  V30 11297 H 1121.08 -1.29125 5.33496 0
M  V30 11298 H 1121.34 -2.18315 3.84436 0
M  V30 11299 N 1120.4 -1.5685 0.153553 0
M  V30 11300 C 1121.81 -1.83074 -0.36618 0
M  V30 11301 C 1122.16 -1.07257 -1.64288 0
M  V30 11302 O 1121.29 -0.319925 -2.14022 0
M  V30 11303 C 1121.88 -3.32086 -0.671142 0
M  V30 11304 C 1120.44 -3.58868 -1.13537 0
M  V30 11305 C 1119.59 -2.76827 -0.161887 0
M  V30 11306 H 1122.54 -1.54129 0.378139 0
M  V30 11307 H 1122.56 -3.48598 -1.52512 0
M  V30 11308 H 1122.07 -3.8724 0.258234 0
M  V30 11309 H 1120.17 -3.09107 -2.08047 0
M  V30 11310 H 1120.29 -4.67299 -1.05682 0
M  V30 11311 H 1118.65 -2.46112 -0.6558 0
M  V30 11312 H 1119.43 -3.34755 0.761195 0
M  V30 11313 N 1121.88 0.120221 -1.57141 0
M  V30 11314 C 1123.11 0.842441 -1.88972 0
M  V30 11315 C 1123.52 1.73494 -0.744671 0
M  V30 11316 O 1122.88 1.80268 0.284557 0
M  V30 11317 C 1122.93 1.67688 -3.20254 0
M  V30 11318 O 1122.65 0.820319 -4.30351 0
M  V30 11319 C 1124.15 2.50436 -3.65782 0
M  V30 11320 H 1121.37 0.242241 -0.625748 0
M  V30 11321 H 1123.91 0.104978 -2.0423 0
M  V30 11322 H 1122.07 2.36712 -3.0667 0
M  V30 11323 H 1122.48 1.39575 -5.05588 0
M  V30 11324 H 1123.96 3.04518 -4.60405 0
M  V30 11325 H 1124.43 3.27737 -2.92378 0
M  V30 11326 H 1125.04 1.86657 -3.82151 0
M  V30 11327 N 1123.36 1.52689 0.390367 0
M  V30 11328 C 1124.6 1.69354 1.1445 0
M  V30 11329 C 1124.96 0.423677 1.87267 0
M  V30 11330 O 1126.16 0.466669 2.64718 0
M  V30 11331 C 1124.43 2.89356 2.0978 0
M  V30 11332 S 1125.99 3.26602 2.93047 0
M  V30 11333 H 1122.81 0.596162 0.387442 0
M  V30 11334 H 1125.41 1.90732 0.429119 0
M  V30 11335 H 1124.12 3.80003 1.55004 0
M  V30 11336 H 1123.65 2.70307 2.85828 0
M  V30 11337 H 1125.66 2.76683 4.11899 0
M  V30 11338 N 1124.83 -0.648732 1.43629 0
M  V30 11339 C 1125.77 -1.77417 1.45107 0
M  V30 11340 C 1126.78 -1.59067 0.346618 0
M  V30 11341 O 1127.97 -1.67705 0.611322 0
M  V30 11342 C 1125.07 -3.14906 1.25249 0
M  V30 11343 C 1124.24 -3.59874 2.48616 0
M  V30 11344 C 1123.3 -4.76181 2.23916 0
M  V30 11345 O 1122.33 -4.8539 2.97296 0
M  V30 11346 N 1123.53 -5.66691 1.25862 0
M  V30 11347 H 1126.29 -1.76626 2.42123 0
M  V30 11348 H 1123.85 -0.832725 1.38843 0
M  V30 11349 H 1125.85 -3.90408 1.06601 0
M  V30 11350 H 1124.42 -3.10443 0.366623 0
M  V30 11351 H 1123.64 -2.74768 2.82659 0
M  V30 11352 H 1124.92 -3.86665 3.30708 0
M  V30 11353 H 1124.32 -5.61927 0.652227 0
M  V30 11354 H 1122.88 -6.41895 1.13196 0
M  V30 11355 N 1126.31 -1.30234 -0.887518 0
M  V30 11356 C 1127.28 -1.16384 -1.97452 0
M  V30 11357 C 1128.28 -0.0957942 -1.60514 0
M  V30 11358 O 1129.47 -0.343706 -1.70776 0
M  V30 11359 C 1126.6 -0.782514 -3.31797 0
M  V30 11360 H 1127.79 -2.12952 -2.11167 0
M  V30 11361 H 1125.34 -1.13594 -1.07359 0
M  V30 11362 H 1126.08 0.18278 -3.23785 0
M  V30 11363 H 1125.86 -1.55434 -3.59976 0
M  V30 11364 H 1127.35 -0.709011 -4.11537 0
M  V30 11365 N 1127.79 1.09952 -1.12909 0
M  V30 11366 C 1129.04 1.81657 -0.885729 0
M  V30 11367 C 1129.36 1.85863 0.589913 0
M  V30 11368 O 1128.63 1.34028 1.42875 0
M  V30 11369 H 1127.21 0.672743 -0.324694 0
M  V30 11370 H 1129.87 1.33013 -1.42456 0
M  V30 11371 H 1128.97 2.85018 -1.27167 0
M  V30 11372 N 1129.27 0.921757 1.27833 0
M  V30 11373 C 1130.68 0.604496 1.76643 0
M  V30 11374 C 1131.03 -0.880294 1.75343 0
M  V30 11375 O 1130.16 -1.68875 1.35315 0
M  V30 11376 C 1130.75 1.09055 3.20768 0
M  V30 11377 C 1129.31 0.824066 3.67268 0
M  V30 11378 C 1128.46 1.25269 2.47392 0
M  V30 11379 H 1131.41 1.10217 1.14184 0
M  V30 11380 H 1131.43 0.435558 3.77999 0
M  V30 11381 H 1130.94 2.17122 3.21682 0
M  V30 11382 H 1129.04 -0.243055 3.71806 0
M  V30 11383 H 1129.15 1.43743 4.57028 0
M  V30 11384 H 1127.52 0.671313 2.45694 0
M  V30 11385 H 1128.3 2.34188 2.5102 0
M  V30 11386 N 1130.75 -1.41857 0.686609 0
M  V30 11387 C 1131.68 -2.33481 0.0298353 0
M  V30 11388 C 1132.66 -1.51329 -0.776756 0
M  V30 11389 O 1133.84 -1.79895 -0.731535 0
M  V30 11390 C 1130.97 -3.35065 -0.913707 0
M  V30 11391 C 1129.93 -4.2746 -0.214861 0
M  V30 11392 C 1129.25 -5.19346 -1.27215 0
M  V30 11393 C 1130.55 -5.14252 0.913367 0
M  V30 11394 H 1132.25 -2.8865 0.795067 0
M  V30 11395 H 1129.79 -1.38792 0.383785 0
M  V30 11396 H 1131.75 -3.98082 -1.38234 0
M  V30 11397 H 1130.47 -2.78226 -1.7105 0
M  V30 11398 H 1129.13 -3.65855 0.233651 0
M  V30 11399 H 1128.78 -4.58827 -2.06124 0
M  V30 11400 H 1128.48 -5.81996 -0.80961 0
M  V30 11401 H 1130 -5.85239 -1.74147 0
M  V30 11402 H 1131.41 -5.70887 0.525424 0
M  V30 11403 H 1129.81 -5.85796 1.30244 0
M  V30 11404 H 1130.88 -4.51949 1.75699 0
M  V30 11405 N 1132.22 -0.430739 -1.51599 0
M  V30 11406 C 1133.45 0.136797 -2.06447 0
M  V30 11407 C 1133.87 1.37027 -1.29881 0
M  V30 11408 O 1133.22 1.78983 -0.356543 0
M  V30 11409 C 1133.28 0.465637 -3.58489 0
M  V30 11410 O 1133 -0.718873 -4.32162 0
M  V30 11411 C 1134.5 1.08456 -4.29828 0
M  V30 11412 H 1131.72 0.0108468 -0.670912 0
M  V30 11413 H 1134.26 -0.607921 -1.95255 0
M  V30 11414 H 1132.42 1.16025 -3.69617 0
M  V30 11415 H 1132.83 -0.439195 -5.22658 0
M  V30 11416 H 1134.3 1.2647 -5.37317 0
M  V30 11417 H 1134.78 2.06376 -3.87693 0
M  V30 11418 H 1135.39 0.429525 -4.23125 0
M  V30 11419 N 1133.7 1.56767 -0.161869 0
M  V30 11420 C 1134.95 1.95769 0.485536 0
M  V30 11421 C 1135.26 1.05006 1.65025 0
M  V30 11422 O 1136.47 1.33649 2.36326 0
M  V30 11423 C 1134.93 3.4807 0.915176 0
M  V30 11424 C 1134.53 4.47443 -0.223416 0
M  V30 11425 C 1136.28 3.95909 1.53153 0
M  V30 11426 C 1134.19 5.90971 0.225325 0
M  V30 11427 H 1133.12 0.730911 0.185161 0
M  V30 11428 H 1135.77 1.81808 -0.248592 0
M  V30 11429 H 1134.15 3.57415 1.705 0
M  V30 11430 H 1135.32 4.49805 -1.00061 0
M  V30 11431 H 1133.64 4.09606 -0.749127 0
M  V30 11432 H 1136.23 5.00592 1.87915 0
M  V30 11433 H 1136.58 3.38307 2.42599 0
M  V30 11434 H 1137.11 3.89542 0.806322 0
M  V30 11435 H 1133.85 6.52426 -0.634124 0
M  V30 11436 H 1133.37 5.91936 0.96808 0
M  V30 11437 H 1135.05 6.43497 0.672373 0
M  V30 11438 N 1135.18 -0.111886 1.57202 0
M  V30 11439 C 1136.11 -1.16274 1.97517 0
M  V30 11440 C 1137.13 -1.37259 0.875425 0
M  V30 11441 O 1138.31 -1.36208 1.15367 0
M  V30 11442 C 1135.41 -2.52145 2.26442 0
M  V30 11443 C 1134.59 -2.51666 3.57747 0
M  V30 11444 C 1133.65 -3.69337 3.74802 0
M  V30 11445 O 1132.67 -3.52596 4.46839 0
M  V30 11446 N 1133.87 -4.88177 3.14108 0
M  V30 11447 H 1136.64 -0.819747 2.88271 0
M  V30 11448 H 1134.2 -0.301076 1.59076 0
M  V30 11449 H 1136.19 -3.29437 2.3506 0
M  V30 11450 H 1134.76 -2.78599 1.41779 0
M  V30 11451 H 1133.98 -1.60038 3.60252 0
M  V30 11452 H 1135.27 -2.48408 4.44039 0
M  V30 11453 H 1134.67 -5.04682 2.55564 0
M  V30 11454 H 1133.23 -5.6312 3.28237 0
M  V30 11455 N 1136.66 -1.52894 -0.382264 0
M  V30 11456 C 1137.57 -1.81084 -1.4915 0
M  V30 11457 C 1138.58 -0.698045 -1.59384 0
M  V30 11458 O 1139.76 -0.98635 -1.75594 0
M  V30 11459 C 1136.83 -1.97987 -2.84608 0
M  V30 11460 C 1135.89 -3.219 -2.8404 0
M  V30 11461 C 1135.12 -3.37988 -4.13037 0
M  V30 11462 O 1135.34 -2.58733 -5.08344 0
M  V30 11463 O 1134.28 -4.31273 -4.19866 0
M  V30 11464 H 1138.1 -2.75289 -1.28257 0
M  V30 11465 H 1135.69 -1.38068 -0.57076 0
M  V30 11466 H 1137.57 -2.10773 -3.64901 0
M  V30 11467 H 1136.24 -1.06972 -3.05514 0
M  V30 11468 H 1135.15 -3.14551 -2.02505 0
M  V30 11469 H 1136.48 -4.12783 -2.68087 0
M  V30 11470 N 1138.14 0.641106 -1.43971 0
M  V30 11471 C 1139.1 1.73539 -1.49723 0
M  V30 11472 C 1140.1 1.56235 -0.380438 0
M  V30 11473 O 1141.29 1.61912 -0.642673 0
M  V30 11474 C 1138.42 3.1253 -1.36153 0
M  V30 11475 H 1139.62 1.69816 -2.47189 0
M  V30 11476 H 1137.17 0.853867 -1.30915 0
M  V30 11477 H 1137.9 3.21856 -0.39742 0
M  V30 11478 H 1137.69 3.26496 -2.17124 0
M  V30 11479 H 1139.18 3.92303 -1.43138 0
M  V30 11480 N 1139.62 1.30703 0.880598 0
M  V30 11481 C 1140.55 1.20033 2.00286 0
M  V30 11482 C 1141.53 0.0899614 1.69862 0
M  V30 11483 O 1142.71 0.272747 1.92275 0
M  V30 11484 C 1139.84 0.895902 3.35546 0
M  V30 11485 C 1138.8 1.96468 3.80242 0
M  V30 11486 C 1138.12 1.51316 5.12843 0
M  V30 11487 C 1139.42 3.37637 3.98496 0
M  V30 11488 H 1141.12 2.13922 2.0947 0
M  V30 11489 H 1138.66 1.02989 1.00644 0
M  V30 11490 H 1140.61 0.807899 4.13583 0
M  V30 11491 H 1139.34 -0.0786636 3.26505 0
M  V30 11492 H 1138 2.0424 3.04437 0
M  V30 11493 H 1137.65 0.52674 5.00234 0
M  V30 11494 H 1137.35 2.22807 5.43719 0
M  V30 11495 H 1138.87 1.43903 5.93401 0
M  V30 11496 H 1140.28 3.326 4.66959 0
M  V30 11497 H 1138.68 4.07253 4.40755 0
M  V30 11498 H 1139.75 3.79205 3.02211 0
M  V30 11499 N 1141.09 -1.09351 1.1349 0
M  V30 11500 C 1142.32 -1.85304 0.920324 0
M  V30 11501 C 1142.74 -1.81182 -0.530883 0
M  V30 11502 O 1142.09 -1.20853 -1.36751 0
M  V30 11503 C 1142.14 -3.33249 1.40098 0
M  V30 11504 O 1141.87 -3.37333 2.79531 0
M  V30 11505 C 1143.37 -4.2604 1.22495 0
M  V30 11506 H 1140.59 -0.585294 0.328134 0
M  V30 11507 H 1143.13 -1.38168 1.50765 0
M  V30 11508 H 1141.29 -3.7781 0.85664 0
M  V30 11509 H 1141.7 -4.29614 3.00885 0
M  V30 11510 H 1143.17 -5.27999 1.61 0
M  V30 11511 H 1143.65 -4.38883 0.166717 0
M  V30 11512 H 1144.26 -3.87295 1.75735 0
M  V30 11513 N 1142.57 -0.928524 -1.27343 0
M  V30 11514 C 1143.8 -0.584884 -1.98148 0
M  V30 11515 C 1144.21 0.841603 -1.69451 0
M  V30 11516 O 1143.55 1.57104 -0.952053 0
M  V30 11517 C 1143.61 -0.731911 -3.51971 0
M  V30 11518 C 1143.28 -2.13067 -4.04291 0
M  V30 11519 C 1144.28 -3.10492 -4.17002 0
M  V30 11520 C 1141.96 -2.44784 -4.38619 0
M  V30 11521 C 1143.95 -4.37742 -4.63315 0
M  V30 11522 C 1141.64 -3.72269 -4.84622 0
M  V30 11523 C 1142.64 -4.68562 -4.9693 0
M  V30 11524 O 1142.33 -5.93779 -5.41924 0
M  V30 11525 H 1142.06 -0.220347 -0.63908 0
M  V30 11526 H 1144.61 -1.24799 -1.63139 0
M  V30 11527 H 1142.84 -0.0116966 -3.86698 0
M  V30 11528 H 1144.53 -0.393206 -4.03991 0
M  V30 11529 H 1145.3 -2.8731 -3.9074 0
M  V30 11530 H 1141.18 -1.70577 -4.28281 0
M  V30 11531 H 1144.72 -5.12905 -4.72836 0
M  V30 11532 H 1140.62 -3.95269 -5.10326 0
M  V30 11533 H 1141.39 -5.96779 -5.60176 0
M  V30 11534 N 1144.05 1.41491 -0.694123 0
M  V30 11535 C 1145.3 2.01252 -0.224477 0
M  V30 11536 C 1145.62 1.54965 1.17541 0
M  V30 11537 O 1144.88 0.751041 1.80715 0
M  V30 11538 C 1145.18 3.56666 -0.228869 0
M  V30 11539 C 1144.84 4.22458 -1.57608 0
M  V30 11540 C 1143.51 4.40144 -1.94491 0
M  V30 11541 C 1145.86 4.5936 -2.46247 0
M  V30 11542 C 1143.19 4.92009 -3.196 0
M  V30 11543 C 1145.54 5.12615 -3.70687 0
M  V30 11544 C 1144.2 5.28512 -4.07715 0
M  V30 11545 H 1143.47 0.736433 -0.0821419 0
M  V30 11546 H 1146.12 1.69408 -0.892926 0
M  V30 11547 H 1144.42 3.88292 0.523128 0
M  V30 11548 H 1146.12 4.00712 0.152019 0
M  V30 11549 H 1142.71 4.09065 -1.27921 0
M  V30 11550 H 1146.9 4.45352 -2.19032 0
M  V30 11551 H 1142.15 5.02502 -3.48285 0
M  V30 11552 H 1146.33 5.4015 -4.39558 0
M  V30 11553 H 1143.95 5.68464 -5.0473 0
M  V30 11554 N 1145.53 0.438773 1.51369 0
M  V30 11555 C 1146.78 -0.126962 2.01701 0
M  V30 11556 C 1147.1 -1.43086 1.32481 0
M  V30 11557 O 1146.37 -1.90427 0.459823 0
M  V30 11558 H 1144.95 -0.0499092 0.745331 0
M  V30 11559 H 1147.61 0.581808 1.86013 0
M  V30 11560 H 1146.7 -0.301836 3.10637 0
M  V30 11561 N 1147.01 -1.56678 0.170181 0
M  V30 11562 C 1148.25 -1.9646 -0.474125 0
M  V30 11563 C 1148.57 -1.05719 -1.63855 0
M  V30 11564 O 1147.84 -0.123316 -1.95511 0
M  V30 11565 H 1146.42 -0.725446 -0.178149 0
M  V30 11566 H 1149.09 -1.93276 0.251099 0
M  V30 11567 H 1148.18 -3.00726 -0.834894 0
M  V30 11568 N 1148.48 0.103547 -1.57259 0
M  V30 11569 C 1149.45 1.11039 -2.00507 0
M  V30 11570 C 1150.45 1.33432 -0.897361 0
M  V30 11571 O 1151.64 1.29688 -1.16304 0
M  V30 11572 C 1148.77 2.46144 -2.35851 0
M  V30 11573 H 1149.96 0.738332 -2.90669 0
M  V30 11574 H 1147.51 0.348334 -1.52369 0
M  V30 11575 H 1148.25 2.88242 -1.48617 0
M  V30 11576 H 1148.03 2.31241 -3.16654 0
M  V30 11577 H 1149.52 3.18577 -2.69997 0
M  V30 11578 N 1149.96 1.53094 0.37415 0
M  V30 11579 C 1151.21 1.69111 1.11934 0
M  V30 11580 C 1151.54 0.437252 1.89213 0
M  V30 11581 O 1150.82 -0.565298 1.86104 0
M  V30 11582 C 1151.1 2.93559 2.08554 0
M  V30 11583 C 1150.95 4.29082 1.3494 0
M  V30 11584 C 1152.27 3.13586 3.08791 0
M  V30 11585 H 1149.39 0.615383 0.405553 0
M  V30 11586 H 1152.03 1.85719 0.401078 0
M  V30 11587 H 1150.18 2.79531 2.69805 0
M  V30 11588 H 1151.85 4.54906 0.765402 0
M  V30 11589 H 1150.1 4.28884 0.651238 0
M  V30 11590 H 1150.77 5.12275 2.05616 0
M  V30 11591 H 1153.24 3.26743 2.57639 0
M  V30 11592 H 1152.12 4.02112 3.73627 0
M  V30 11593 H 1152.38 2.28475 3.78486 0
M  V30 11594 N 1151.44 -0.633461 1.44309 0
M  V30 11595 C 1152.4 -1.72743 1.50641 0
M  V30 11596 C 1153.4 -1.56031 0.388718 0
M  V30 11597 O 1154.59 -1.61568 0.651251 0
M  V30 11598 C 1151.72 -3.11804 1.37809 0
M  V30 11599 H 1152.92 -1.68503 2.48086 0
M  V30 11600 H 1150.47 -0.846912 1.31366 0
M  V30 11601 H 1151.21 -3.2164 0.414483 0
M  V30 11602 H 1150.99 -3.2534 2.18852 0
M  V30 11603 H 1152.48 -3.91538 1.45216 0
M  V30 11604 N 1152.92 -1.31168 -0.873655 0
M  V30 11605 C 1154.14 -1.23728 -1.66452 0
M  V30 11606 C 1154.57 0.194869 -1.87088 0
M  V30 11607 O 1153.93 1.1397 -1.40998 0
M  V30 11608 C 1153.97 -1.98285 -3.0119 0
M  V30 11609 O 1153.08 -1.31767 -3.90783 0
M  V30 11610 H 1152.42 -0.427362 -0.508191 0
M  V30 11611 H 1154.95 -1.73176 -1.08955 0
M  V30 11612 H 1154.96 -2.0774 -3.51153 0
M  V30 11613 H 1153.63 -3.02437 -2.8549 0
M  V30 11614 H 1152.21 -1.3074 -3.4923 0
M  V30 11615 N 1154.4 1.08748 -1.14068 0
M  V30 11616 C 1155.62 1.84814 -0.930138 0
M  V30 11617 C 1156.04 1.81461 0.521267 0
M  V30 11618 O 1155.4 1.21577 1.36108 0
M  V30 11619 C 1155.45 3.32501 -1.41863 0
M  V30 11620 O 1155.17 3.35846 -2.81317 0
M  V30 11621 C 1156.67 4.25384 -1.24753 0
M  V30 11622 H 1153.89 0.583546 -0.331233 0
M  V30 11623 H 1156.43 1.37366 -1.51495 0
M  V30 11624 H 1154.59 3.7735 -0.876664 0
M  V30 11625 H 1155 4.28013 -3.03159 0
M  V30 11626 H 1156.48 5.27138 -1.63798 0
M  V30 11627 H 1156.95 4.38789 -0.18999 0
M  V30 11628 H 1157.56 3.86357 -1.77787 0
M  V30 11629 N 1155.87 0.935264 1.26849 0
M  V30 11630 C 1157.12 0.575467 1.93317 0
M  V30 11631 C 1157.44 -0.88876 1.74242 0
M  V30 11632 O 1158.64 -1.35767 2.35116 0
M  V30 11633 C 1157.1 0.978433 3.46345 0
M  V30 11634 C 1156.71 2.46386 3.74163 0
M  V30 11635 C 1158.45 0.690249 4.18851 0
M  V30 11636 C 1156.36 2.80584 5.20602 0
M  V30 11637 H 1155.29 0.211506 0.723727 0
M  V30 11638 H 1157.94 1.1371 1.44022 0
M  V30 11639 H 1156.32 0.345379 3.94491 0
M  V30 11640 H 1157.49 3.14547 3.36745 0
M  V30 11641 H 1155.81 2.72473 3.14877 0
M  V30 11642 H 1158.41 0.922151 5.26688 0
M  V30 11643 H 1158.75 -0.372805 4.14627 0
M  V30 11644 H 1159.28 1.28275 3.76551 0
M  V30 11645 H 1156.02 3.85828 5.29921 0
M  V30 11646 H 1155.54 2.1708 5.59139 0
M  V30 11647 H 1157.22 2.68732 5.88551 0
M  V30 11648 N 1157.35 -1.41121 0.701616 0
M  V30 11649 C 1158.6 -2.00733 0.234682 0
M  V30 11650 C 1158.92 -1.55869 -1.17174 0
M  V30 11651 O 1158.19 -0.791965 -1.79178 0
M  V30 11652 H 1156.77 -0.742288 0.0837745 0
M  V30 11653 H 1159.43 -1.7266 0.904127 0
M  V30 11654 H 1158.53 -3.11041 0.256831 0
M  V30 11655 N 1158.83 -0.446794 -1.51134 0
M  V30 11656 C 1159.76 0.350229 -2.30858 0
M  V30 11657 C 1160.74 1.0125 -1.36684 0
M  V30 11658 O 1161.93 1.01433 -1.65605 0
M  V30 11659 C 1159.06 1.4464 -3.15748 0
M  V30 11660 C 1158.01 0.907102 -4.18277 0
M  V30 11661 C 1157.34 2.09974 -4.91747 0
M  V30 11662 C 1158.64 -0.0649758 -5.2226 0
M  V30 11663 H 1160.33 -0.315105 -2.97737 0
M  V30 11664 H 1157.88 -0.152985 -1.43185 0
M  V30 11665 H 1159.83 2.01127 -3.70305 0
M  V30 11666 H 1158.55 2.14016 -2.46708 0
M  V30 11667 H 1157.21 0.364382 -3.64785 0
M  V30 11668 H 1156.86 2.77991 -4.19202 0
M  V30 11669 H 1156.56 1.74523 -5.61084 0
M  V30 11670 H 1158.08 2.66996 -5.49131 0
M  V30 11671 H 1159.5 0.4099 -5.71833 0
M  V30 11672 H 1157.9 -0.332529 -5.99178 0
M  V30 11673 H 1158.97 -0.998681 -4.74504 0
M  V30 11674 N 1160.31 1.56586 -0.178487 0
M  V30 11675 C 1161.56 1.96273 0.464745 0
M  V30 11676 C 1161.87 1.0675 1.63902 0
M  V30 11677 O 1163.08 1.36148 2.34896 0
M  V30 11678 C 1161.53 3.49021 0.878207 0
M  V30 11679 C 1161.14 4.4718 -0.270861 0
M  V30 11680 C 1162.88 3.97512 1.48946 0
M  V30 11681 C 1160.79 5.91176 0.162632 0
M  V30 11682 H 1159.72 0.732834 0.177398 0
M  V30 11683 H 1162.37 1.81534 -0.267861 0
M  V30 11684 H 1160.75 3.59203 1.667 0
M  V30 11685 H 1161.93 4.48718 -1.04826 0
M  V30 11686 H 1160.24 4.08788 -0.792529 0
M  V30 11687 H 1162.84 5.02556 1.82595 0
M  V30 11688 H 1163.18 3.40861 2.38997 0
M  V30 11689 H 1163.72 3.90376 0.76496 0
M  V30 11690 H 1160.46 6.51716 -0.703286 0
M  V30 11691 H 1159.98 5.9293 0.905243 0
M  V30 11692 H 1161.65 6.44174 0.604084 0
M  V30 11693 N 1161.79 -0.095206 1.57312 0
M  V30 11694 C 1162.72 -1.14662 1.97301 0
M  V30 11695 C 1163.7 -1.38845 0.846212 0
M  V30 11696 O 1164.88 -1.52607 1.1065 0
M  V30 11697 C 1162.01 -2.49582 2.28968 0
M  V30 11698 C 1161.05 -2.41681 3.51415 0
M  V30 11699 S 1161.89 -1.83343 5.03136 0
M  V30 11700 C 1163.04 -3.19888 5.3798 0
M  V30 11701 H 1163.28 -0.805726 2.86174 0
M  V30 11702 H 1160.81 -0.302881 1.514 0
M  V30 11703 H 1162.77 -3.27202 2.47889 0
M  V30 11704 H 1161.43 -2.80841 1.40667 0
M  V30 11705 H 1160.62 -3.41122 3.71015 0
M  V30 11706 H 1160.22 -1.7219 3.32004 0
M  V30 11707 H 1162.52 -4.16161 5.34618 0
M  V30 11708 H 1163.46 -3.05093 6.39002 0
M  V30 11709 H 1163.87 -3.19414 4.6544 0
M  V30 11710 N 1163.26 -1.53291 -0.366026 0
M  V30 11711 C 1164.51 -1.69117 -1.10653 0
M  V30 11712 C 1164.83 -0.445327 -1.89847 0
M  V30 11713 O 1164.1 0.540616 -1.88293 0
M  V30 11714 H 1162.68 -0.623446 -0.41149 0
M  V30 11715 H 1165.35 -1.90479 -0.412749 0
M  V30 11716 H 1164.44 -2.55205 -1.79658 0
M  V30 11717 N 1164.74 0.6258 -1.44643 0
M  V30 11718 C 1165.99 1.38251 -1.47414 0
M  V30 11719 C 1166.31 1.94689 -0.110043 0
M  V30 11720 O 1165.58 1.76095 0.858333 0
M  V30 11721 H 1164.16 0.513179 -0.542823 0
M  V30 11722 H 1166.82 0.736179 -1.80462 0
M  V30 11723 H 1165.92 2.21115 -2.2026 0
M  V30 11724 N 1166.22 1.31629 0.866686 0
M  V30 11725 C 1167.45 1.24474 1.65269 0
M  V30 11726 C 1167.86 -0.18939 1.87848 0
M  V30 11727 O 1167.22 -1.12251 1.43895 0
M  V30 11728 C 1167.27 1.98872 3.01881 0
M  V30 11729 O 1166.99 3.36687 2.8031 0
M  V30 11730 C 1168.49 1.98595 3.96327 0
M  V30 11731 H 1165.71 0.429966 0.515141 0
M  V30 11732 H 1168.26 1.73559 1.08156 0
M  V30 11733 H 1166.41 1.53539 3.55675 0
M  V30 11734 H 1166.83 3.74612 3.67105 0
M  V30 11735 H 1168.3 2.55156 4.89489 0
M  V30 11736 H 1168.78 0.969257 4.28371 0
M  V30 11737 H 1169.38 2.43821 3.4847 0
M  V30 11738 N 1167.7 -1.08142 1.14644 0
M  V30 11739 C 1168.63 -2.17139 0.858667 0
M  V30 11740 C 1169.61 -1.69064 -0.187452 0
M  V30 11741 O 1170.8 -1.94151 -0.0435458 0
M  V30 11742 C 1167.93 -3.45648 0.33834 0
M  V30 11743 C 1166.88 -4.07129 1.32021 0
M  V30 11744 C 1166.21 -5.30623 0.659075 0
M  V30 11745 C 1167.51 -4.48095 2.68343 0
M  V30 11746 H 1169.2 -2.41468 1.77012 0
M  V30 11747 H 1166.75 -1.16052 0.852523 0
M  V30 11748 H 1168.7 -4.21216 0.124611 0
M  V30 11749 H 1167.42 -3.2088 -0.608553 0
M  V30 11750 H 1166.08 -3.33596 1.52016 0
M  V30 11751 H 1165.73 -5.02142 -0.293711 0
M  V30 11752 H 1165.43 -5.72714 1.31427 0
M  V30 11753 H 1166.95 -6.08903 0.454933 0
M  V30 11754 H 1168.37 -5.14828 2.5224 0
M  V30 11755 H 1166.76 -5.01113 3.30161 0
M  V30 11756 H 1167.83 -3.59852 3.25015 0
M  V30 11757 N 1169.18 -0.941978 -1.26351 0
M  V30 11758 C 1170.11 -0.469913 -2.28723 0
M  V30 11759 C 1171.09 0.477218 -1.63269 0
M  V30 11760 O 1172.27 0.378902 -1.90468 0
M  V30 11761 C 1169.4 0.264971 -3.46288 0
M  V30 11762 C 1168.36 -0.595682 -4.23834 0
M  V30 11763 C 1167.68 0.269208 -5.34022 0
M  V30 11764 C 1168.98 -1.86743 -4.87775 0
M  V30 11765 H 1170.68 -1.32551 -2.6846 0
M  V30 11766 H 1168.22 -0.638809 -1.29055 0
M  V30 11767 H 1170.18 0.606259 -4.17016 0
M  V30 11768 H 1168.9 1.15471 -3.05506 0
M  V30 11769 H 1167.56 -0.919875 -3.54872 0
M  V30 11770 H 1167.21 1.15832 -4.89481 0
M  V30 11771 H 1166.91 -0.30325 -5.86817 0
M  V30 11772 H 1168.43 0.605748 -6.07588 0
M  V30 11773 H 1169.85 -1.59333 -5.50714 0
M  V30 11774 H 1168.24 -2.38452 -5.50691 0
M  V30 11775 H 1169.31 -2.57831 -4.10671 0
M  V30 11776 N 1170.66 1.40747 -0.709091 0
M  V30 11777 C 1171.62 2.29118 -0.0611607 0
M  V30 11778 C 1172.62 1.45049 0.694081 0
M  V30 11779 O 1173.81 1.66039 0.526952 0
M  V30 11780 C 1170.94 3.28154 0.923447 0
M  V30 11781 H 1172.13 2.87913 -0.839413 0
M  V30 11782 H 1169.69 1.4896 -0.473363 0
M  V30 11783 H 1170.42 2.74366 1.72899 0
M  V30 11784 H 1170.21 3.90207 0.384862 0
M  V30 11785 H 1171.7 3.94343 1.37417 0
M  V30 11786 N 1172.13 0.454803 1.50895 0
M  V30 11787 C 1173.06 -0.337982 2.31041 0
M  V30 11788 C 1174.04 -1.00523 1.37219 0
M  V30 11789 O 1175.23 -1.00553 1.66141 0
M  V30 11790 C 1172.36 -1.42964 3.1651 0
M  V30 11791 C 1171.31 -0.884907 4.18752 0
M  V30 11792 C 1170.64 -2.07363 4.92854 0
M  V30 11793 C 1171.94 0.0926716 5.22218 0
M  V30 11794 H 1173.63 0.33089 2.97566 0
M  V30 11795 H 1171.18 0.160577 1.43102 0
M  V30 11796 H 1173.13 -1.9916 3.71367 0
M  V30 11797 H 1171.86 -2.12705 2.47839 0
M  V30 11798 H 1170.52 -0.345031 3.64973 0
M  V30 11799 H 1170.16 -2.75764 4.2067 0
M  V30 11800 H 1169.86 -1.71545 5.62002 0
M  V30 11801 H 1171.39 -2.6408 5.5054 0
M  V30 11802 H 1172.8 -0.379568 5.72042 0
M  V30 11803 H 1171.2 0.3643 5.98993 0
M  V30 11804 H 1172.27 1.02383 4.73968 0
M  V30 11805 N 1173.61 -1.56489 0.186789 0
M  V30 11806 C 1174.54 -2.21705 -0.732739 0
M  V30 11807 C 1175.52 -1.17751 -1.22755 0
M  V30 11808 O 1176.71 -1.46231 -1.27789 0
M  V30 11809 C 1173.84 -2.86992 -1.95584 0
M  V30 11810 C 1172.79 -3.97118 -1.59628 0
M  V30 11811 C 1172.12 -4.49529 -2.89531 0
M  V30 11812 C 1173.42 -5.15941 -0.812518 0
M  V30 11813 H 1175.11 -2.98802 -0.189094 0
M  V30 11814 H 1172.66 -1.43722 -0.0895099 0
M  V30 11815 H 1174.61 -3.31295 -2.60426 0
M  V30 11816 H 1173.33 -2.07287 -2.52388 0
M  V30 11817 H 1171.99 -3.53494 -0.971475 0
M  V30 11818 H 1171.64 -3.66596 -3.44407 0
M  V30 11819 H 1171.34 -5.23832 -2.66221 0
M  V30 11820 H 1172.87 -4.96528 -3.55376 0
M  V30 11821 H 1174.28 -5.56841 -1.36386 0
M  V30 11822 H 1172.68 -5.96259 -0.677862 0
M  V30 11823 H 1173.75 -4.84535 0.188095 0
M  V30 11824 N 1175.09 0.086862 -1.5736 0
M  V30 11825 C 1176.51 0.441284 -1.53378 0
M  V30 11826 C 1176.71 1.80046 -0.904748 0
M  V30 11827 O 1175.76 2.47484 -0.500781 0
M  V30 11828 C 1177.07 0.3962 -2.98078 0
M  V30 11829 C 1178.62 0.477468 -3.09337 0
M  V30 11830 C 1179.1 0.462448 -4.55659 0
M  V30 11831 N 1180.59 0.522963 -4.60238 0
M  V30 11832 C 1181.32 0.533313 -5.70914 0
M  V30 11833 N 1180.82 0.499376 -6.90998 0
M  V30 11834 N 1182.61 0.578742 -5.59113 0
M  V30 11835 H 1174.76 -0.803308 -1.96623 0
M  V30 11836 H 1177.03 -0.299879 -0.89932 0
M  V30 11837 H 1176.73 -0.535505 -3.47599 0
M  V30 11838 H 1176.61 1.21209 -3.57195 0
M  V30 11839 H 1178.99 1.39959 -2.59799 0
M  V30 11840 H 1179.07 -0.366717 -2.53158 0
M  V30 11841 H 1178.72 -0.455768 -5.05851 0
M  V30 11842 H 1178.65 1.32396 -5.09685 0
M  V30 11843 H 1181.14 0.554051 -3.73816 0
M  V30 11844 H 1181.45 0.510784 -7.7111 0
M  V30 11845 H 1179.8 0.466296 -6.93434 0
M  V30 11846 H 1182.99 0.602841 -4.64202 0
M  V30 11847 H 1183.16 0.583339 -6.45369 0
M  V30 11848 N 1176.57 1.53483 0.357892 0
M  V30 11849 C 1177.51 1.80463 1.43881 0
M  V30 11850 C 1178.48 0.649438 1.52877 0
M  V30 11851 O 1179.67 0.892409 1.68644 0
M  V30 11852 C 1176.81 2.00714 2.80727 0
M  V30 11853 C 1175.92 3.28431 2.80637 0
M  V30 11854 C 1175.06 3.38828 4.09107 0
M  V30 11855 C 1174.1 4.60549 4.03189 0
M  V30 11856 N 1173.23 4.68057 5.23323 0
M  V30 11857 H 1178.07 2.72694 1.20174 0
M  V30 11858 H 1175.61 1.35079 0.582422 0
M  V30 11859 H 1177.57 2.10444 3.60235 0
M  V30 11860 H 1176.2 1.11811 3.02817 0
M  V30 11861 H 1175.25 3.27617 1.93317 0
M  V30 11862 H 1176.56 4.18022 2.72138 0
M  V30 11863 H 1175.72 3.47911 4.97034 0
M  V30 11864 H 1174.46 2.47267 4.20369 0
M  V30 11865 H 1173.46 4.51558 3.13649 0
M  V30 11866 H 1174.69 5.53459 3.93523 0
M  V30 11867 H 1172.63 3.794 5.35156 0
M  V30 11868 H 1172.55 5.51563 5.17024 0
M  V30 11869 H 1173.82 4.81433 6.1306 0
M  V30 11870 N 1178.05 -0.61812 1.44973 0
M  V30 11871 C 1179.46 -0.937734 1.29146 0
M  V30 11872 C 1179.66 -2.00104 0.236749 0
M  V30 11873 O 1178.72 -2.49731 -0.372923 0
M  V30 11874 C 1180.03 -1.38865 2.66715 0
M  V30 11875 C 1181.58 -1.50343 2.74529 0
M  V30 11876 C 1182.05 -1.98814 4.12598 0
M  V30 11877 N 1183.54 -2.06064 4.14839 0
M  V30 11878 C 1184.28 -2.44768 5.18533 0
M  V30 11879 N 1183.78 -2.82516 6.32579 0
M  V30 11880 N 1185.57 -2.45016 5.05889 0
M  V30 11881 H 1177.72 0.084872 2.1223 0
M  V30 11882 H 1179.98 -0.0246744 0.947679 0
M  V30 11883 H 1179.69 -0.681583 3.45032 0
M  V30 11884 H 1179.56 -2.3572 2.94475 0
M  V30 11885 H 1181.95 -2.20144 1.96522 0
M  V30 11886 H 1182.03 -0.518297 2.50494 0
M  V30 11887 H 1181.67 -1.29604 4.91086 0
M  V30 11888 H 1181.6 -2.98223 4.34017 0
M  V30 11889 H 1184.1 -1.79525 3.32535 0
M  V30 11890 H 1184.41 -3.109 7.07504 0
M  V30 11891 H 1182.75 -2.80237 6.35997 0
M  V30 11892 H 1185.94 -2.14925 4.15842 0
M  V30 11893 H 1186.12 -2.74854 5.86821 0
M  V30 11894 N 1179.52 -1.32087 -0.859693 0
M  V30 11895 C 1180.77 -1.2236 -1.61351 0
M  V30 11896 C 1181.1 0.215796 -1.93299 0
M  V30 11897 O 1180.35 1.16742 -1.57066 0
M  V30 11898 C 1180.65 -2.0234 -2.94607 0
M  V30 11899 C 1180.32 -3.51746 -2.82109 0
M  V30 11900 C 1178.98 -3.92482 -2.78408 0
M  V30 11901 C 1181.33 -4.46776 -2.68403 0
M  V30 11902 C 1178.66 -5.265 -2.58873 0
M  V30 11903 C 1181.01 -5.80931 -2.50404 0
M  V30 11904 C 1179.68 -6.20875 -2.45092 0
M  V30 11905 H 1178.95 -0.447748 -0.590426 0
M  V30 11906 H 1181.59 -1.63461 -0.997637 0
M  V30 11907 H 1179.9 -1.53952 -3.60286 0
M  V30 11908 H 1181.6 -1.92187 -3.51945 0
M  V30 11909 H 1178.19 -3.19389 -2.85812 0
M  V30 11910 H 1182.37 -4.16228 -2.70311 0
M  V30 11911 H 1177.63 -5.5651 -2.53192 0
M  V30 11912 H 1181.8 -6.54185 -2.38777 0
M  V30 11913 H 1179.43 -7.24662 -2.29714 0
M  V30 11914 N 1181 1.07532 -1.15215 0
M  V30 11915 C 1182.42 1.32183 -0.894411 0
M  V30 11916 C 1182.62 1.96188 0.459614 0
M  V30 11917 O 1181.67 2.22057 1.20195 0
M  V30 11918 C 1182.99 2.21473 -2.03397 0
M  V30 11919 C 1184.53 2.34927 -2.06829 0
M  V30 11920 C 1185.01 3.27564 -3.20103 0
M  V30 11921 N 1186.5 3.35144 -3.19738 0
M  V30 11922 C 1187.24 4.0688 -4.04025 0
M  V30 11923 N 1186.73 4.81246 -4.98371 0
M  V30 11924 N 1188.52 4.02802 -3.92055 0
M  V30 11925 H 1180.68 0.643732 -2.0241 0
M  V30 11926 H 1182.94 0.346272 -0.882496 0
M  V30 11927 H 1182.64 1.81701 -3.01127 0
M  V30 11928 H 1182.52 3.2199 -1.96475 0
M  V30 11929 H 1184.91 2.73953 -1.09699 0
M  V30 11930 H 1184.99 1.34121 -2.17819 0
M  V30 11931 H 1184.63 2.89258 -4.17483 0
M  V30 11932 H 1184.56 4.2832 -3.06349 0
M  V30 11933 H 1187.05 2.82135 -2.51412 0
M  V30 11934 H 1187.36 5.33472 -5.59131 0
M  V30 11935 H 1185.71 4.80268 -5.02362 0
M  V30 11936 H 1188.9 3.43816 -3.17661 0
M  V30 11937 H 1189.07 4.58443 -4.57967 0
M  V30 11938 N 1182.48 0.948665 1.2585 0
M  V30 11939 C 1183.41 0.421458 2.25292 0
M  V30 11940 C 1184.43 -0.459389 1.56184 0
M  V30 11941 O 1185.61 -0.268627 1.76467 0
M  V30 11942 C 1182.71 -0.412653 3.36378 0
M  V30 11943 C 1181.89 0.453792 4.3504 0
M  V30 11944 C 1180.95 -0.321127 5.25219 0
M  V30 11945 O 1179.97 0.278424 5.68519 0
M  V30 11946 N 1181.17 -1.61576 5.5756 0
M  V30 11947 H 1183.94 1.27636 2.71162 0
M  V30 11948 H 1181.5 0.818367 1.39694 0
M  V30 11949 H 1183.49 -0.938637 3.93664 0
M  V30 11950 H 1182.06 -1.16839 2.89944 0
M  V30 11951 H 1181.28 1.16093 3.76718 0
M  V30 11952 H 1182.57 1.04538 4.97945 0
M  V30 11953 H 1181.97 -2.12488 5.24276 0
M  V30 11954 H 1180.53 -2.08783 6.17457 0
M  V30 11955 N 1183.96 -1.40369 0.716545 0
M  V30 11956 C 1184.91 -2.3071 0.0645944 0
M  V30 11957 C 1185.88 -1.48239 -0.749294 0
M  V30 11958 O 1187.06 -1.76975 -0.713045 0
M  V30 11959 C 1184.2 -3.34456 -0.850478 0
M  V30 11960 C 1183.31 -4.31992 -0.0259594 0
M  V30 11961 C 1182.45 -5.22806 -0.940599 0
M  V30 11962 C 1181.49 -6.12001 -0.110228 0
M  V30 11963 N 1180.62 -6.9523 -0.979796 0
M  V30 11964 H 1185.46 -2.85896 0.840682 0
M  V30 11965 H 1183 -1.40789 0.426258 0
M  V30 11966 H 1184.96 -3.93177 -1.39528 0
M  V30 11967 H 1183.59 -2.8077 -1.59274 0
M  V30 11968 H 1182.64 -3.75045 0.636036 0
M  V30 11969 H 1183.95 -4.94971 0.616883 0
M  V30 11970 H 1183.11 -5.86463 -1.5539 0
M  V30 11971 H 1181.85 -4.60104 -1.61726 0
M  V30 11972 H 1180.85 -5.47373 0.516001 0
M  V30 11973 H 1182.08 -6.76763 0.562944 0
M  V30 11974 H 1180.02 -6.35115 -1.64209 0
M  V30 11975 H 1179.94 -7.54978 -0.393012 0
M  V30 11976 H 1181.21 -7.63335 -1.57924 0
M  V30 11977 N 1185.44 -0.462799 -1.50652 0
M  V30 11978 C 1186.71 0.156221 -1.94975 0
M  V30 11979 C 1187.09 1.5775 -1.40279 0
M  V30 11980 O 1186.44 2.20473 -0.600323 0
M  V30 11981 C 1186.65 0.108008 -3.48833 0
M  V30 11982 C 1188 0.301013 -4.23532 0
M  V30 11983 O 1189.02 0.184973 -3.55719 0
M  V30 11984 O 1187.88 0.534457 -5.4388 0
M  V30 11985 H 1184.98 0.116182 -0.818798 0
M  V30 11986 H 1187.52 -0.522607 -1.61453 0
M  V30 11987 H 1186.29 -0.884634 -3.81169 0
M  V30 11988 H 1185.92 0.828653 -3.88869 0
M  V30 11989 N 1186.91 1.56388 -0.195085 0
M  V30 11990 C 1188.19 1.89329 0.491303 0
M  V30 11991 C 1188.57 1.10861 1.79647 0
M  V30 11992 O 1187.92 0.209696 2.27536 0
M  V30 11993 C 1188.13 3.417 0.710096 0
M  V30 11994 C 1189.48 4.11931 1.02947 0
M  V30 11995 O 1190.5 3.4715 0.797817 0
M  V30 11996 O 1189.36 5.26423 1.46767 0
M  V30 11997 H 1186.45 0.786335 0.256137 0
M  V30 11998 H 1189 1.68061 -0.235298 0
M  V30 11999 H 1187.77 3.90727 -0.211604 0
M  V30 12000 H 1187.4 3.6866 1.48916 0
M  V30 12001 N 1188.39 -0.0785156 1.57404 0
M  V30 12002 C 1189.64 -0.777399 1.8655 0
M  V30 12003 C 1189.96 -1.78451 0.786142 0
M  V30 12004 O 1189.23 -1.95016 -0.185911 0
M  V30 12005 H 1187.81 -0.290097 0.688369 0
M  V30 12006 H 1190.47 -0.0562017 1.94819 0
M  V30 12007 H 1189.57 -1.29776 2.83839 0
M  V30 12008 N 1189.87 -1.5367 -0.349747 0
M  V30 12009 C 1190.82 -1.81223 -1.42922 0
M  V30 12010 C 1191.79 -0.657536 -1.52531 0
M  V30 12011 O 1192.97 -0.90134 -1.68168 0
M  V30 12012 C 1190.11 -2.022 -2.79659 0
M  V30 12013 C 1189.23 -3.29915 -2.78891 0
M  V30 12014 C 1188.36 -3.40993 -4.07305 0
M  V30 12015 C 1187.4 -4.6268 -4.00741 0
M  V30 12016 N 1186.54 -4.70826 -5.20833 0
M  V30 12017 H 1191.38 -2.73328 -1.18727 0
M  V30 12018 H 1188.91 -1.35386 -0.57525 0
M  V30 12019 H 1190.87 -2.12351 -3.59114 0
M  V30 12020 H 1189.5 -1.13416 -3.0222 0
M  V30 12021 H 1188.55 -3.28637 -1.91577 0
M  V30 12022 H 1189.87 -4.19459 -2.69917 0
M  V30 12023 H 1189.02 -3.50542 -4.95182 0
M  V30 12024 H 1187.76 -2.49493 -4.19052 0
M  V30 12025 H 1186.76 -4.53215 -3.11249 0
M  V30 12026 H 1187.99 -5.55538 -3.90582 0
M  V30 12027 H 1185.93 -3.82233 -5.33136 0
M  V30 12028 H 1185.85 -5.54297 -5.14092 0
M  V30 12029 H 1187.12 -4.84677 -6.10499 0
M  V30 12030 N 1191.35 0.610423 -1.45298 0
M  V30 12031 C 1192.59 1.38085 -1.50705 0
M  V30 12032 C 1192.95 1.91459 -0.143997 0
M  V30 12033 O 1194.15 2.68702 -0.0727521 0
M  V30 12034 C 1192.42 2.50009 -2.55402 0
M  V30 12035 S 1193.98 3.37844 -2.80012 0
M  V30 12036 H 1190.8 0.470812 -0.532783 0
M  V30 12037 H 1193.4 0.704638 -1.8236 0
M  V30 12038 H 1192.11 2.09143 -3.53111 0
M  V30 12039 H 1191.64 3.22434 -2.25388 0
M  V30 12040 H 1193.65 4.48074 -2.13176 0
M  V30 12041 N 1192.83 1.32541 0.852676 0
M  V30 12042 C 1194.24 1.20863 1.42299 0
M  V30 12043 C 1194.59 -0.178051 1.9539 0
M  V30 12044 O 1193.71 -1.07689 1.87702 0
M  V30 12045 C 1194.31 2.18811 2.58664 0
M  V30 12046 C 1192.87 2.11015 3.11689 0
M  V30 12047 C 1192.01 2.07067 1.84441 0
M  V30 12048 H 1194.97 1.44341 0.659657 0
M  V30 12049 H 1194.99 1.78779 3.35884 0
M  V30 12050 H 1194.5 3.19726 2.19993 0
M  V30 12051 H 1192.6 1.13354 3.54939 0
M  V30 12052 H 1192.71 3.00929 3.72799 0
M  V30 12053 H 1191.08 1.52335 2.04123 0
M  V30 12054 H 1191.86 3.09767 1.47984 0
M  V30 12055 N 1194.3 -1.0692 1.15784 0
M  V30 12056 C 1195.23 -2.16216 0.881649 0
M  V30 12057 C 1196.22 -1.69253 -0.16951 0
M  V30 12058 O 1197.4 -1.94186 -0.0229511 0
M  V30 12059 C 1194.53 -3.4527 0.374982 0
M  V30 12060 C 1193.48 -4.05706 1.36332 0
M  V30 12061 C 1192.81 -5.29894 0.715317 0
M  V30 12062 C 1194.11 -4.45224 2.7308 0
M  V30 12063 H 1195.8 -2.39577 1.79563 0
M  V30 12064 H 1193.35 -1.15141 0.864784 0
M  V30 12065 H 1195.3 -4.2106 0.169279 0
M  V30 12066 H 1194.03 -3.21508 -0.574485 0
M  V30 12067 H 1192.69 -3.31965 1.55546 0
M  V30 12068 H 1192.33 -5.02425 -0.240436 0
M  V30 12069 H 1192.03 -5.71287 1.37494 0
M  V30 12070 H 1193.56 -6.08386 0.519489 0
M  V30 12071 H 1194.97 -5.12124 2.57686 0
M  V30 12072 H 1193.37 -4.97583 3.35457 0
M  V30 12073 H 1194.44 -3.56384 3.28813 0
M  V30 12074 N 1195.78 -0.955326 -1.25345 0
M  V30 12075 C 1196.73 -0.467205 -2.2786 0
M  V30 12076 C 1197.72 0.462873 -1.62954 0
M  V30 12077 O 1198.93 0.339526 -1.76769 0
M  V30 12078 H 1195.31 -0.132586 -0.74022 0
M  V30 12079 H 1197.28 -1.34406 -2.66416 0
M  V30 12080 C 1196.03 0.238898 -3.46878 0
M  V30 12081 H 1195.35 -0.467644 -3.97056 0
M  V30 12082 H 1196.79 0.544444 -4.2049 0
M  V30 12083 C 1195.25 1.46164 -3.03542 0
M  V30 12084 O 1195.78 2.55933 -3.09615 0
M  V30 12085 N 1193.98 1.32324 -2.58725 0
M  V30 12086 H 1193.53 0.430131 -2.53984 0
M  V30 12087 H 1193.49 2.14253 -2.30094 0
M  V30 12088 N 1197.26 1.39987 -0.723979 0
M  V30 12089 C 1198.67 1.83606 -0.338461 0
M  V30 12090 C 1199.02 1.6051 1.12831 0
M  V30 12091 O 1198.15 1.09041 1.8692 0
M  V30 12092 C 1198.74 3.33308 -0.607533 0
M  V30 12093 C 1197.3 3.75389 -0.275632 0
M  V30 12094 C 1196.45 2.6311 -0.875699 0
M  V30 12095 H 1199.4 1.29135 -0.922483 0
M  V30 12096 H 1199.42 3.80297 0.124424 0
M  V30 12097 H 1198.93 3.50087 -1.67514 0
M  V30 12098 H 1197.03 3.64203 0.786579 0
M  V30 12099 H 1197.15 4.73185 -0.750492 0
M  V30 12100 H 1195.51 2.5289 -0.303122 0
M  V30 12101 H 1196.29 2.82698 -1.94774 0
M  V30 12102 N 1198.74 0.470782 1.50404 0
M  V30 12103 C 1199.69 -0.342183 2.25418 0
M  V30 12104 C 1200.67 -0.961726 1.28995 0
M  V30 12105 O 1201.87 -0.874327 1.53898 0
M  V30 12106 C 1198.99 -1.42378 3.12383 0
M  V30 12107 C 1198.08 -0.811982 4.16254 0
M  V30 12108 N 1198.47 0.0675245 5.05755 0
M  V30 12109 C 1196.77 -1.07596 4.32827 0
M  V30 12110 C 1197.47 0.414693 5.8022 0
M  V30 12111 N 1196.45 -0.210047 5.43194 0
M  V30 12112 H 1200.25 0.335344 2.91981 0
M  V30 12113 H 1197.76 0.284911 1.59881 0
M  V30 12114 H 1199.76 -2.01936 3.64729 0
M  V30 12115 H 1198.42 -2.1033 2.47369 0
M  V30 12116 H 1199.43 0.436333 5.16059 0
M  V30 12117 H 1196.11 -1.75048 3.79031 0
M  V30 12118 H 1197.5 1.13243 6.62288 0
M  V30 12119 N 1200.22 -1.56282 0.203376 0
M  V30 12120 C 1201.44 -2.02643 -0.441658 0
M  V30 12121 C 1201.87 -1.0825 -1.5383 0
M  V30 12122 O 1201.23 -0.0674337 -1.81175 0
M  V30 12123 C 1201.27 -3.47382 -0.967369 0
M  V30 12124 O 1200.38 -3.56115 -2.07981 0
M  V30 12125 H 1199.72 -0.656081 -0.102242 0
M  V30 12126 H 1202.25 -2.02134 0.316684 0
M  V30 12127 H 1202.26 -3.8734 -1.28186 0
M  V30 12128 H 1200.93 -4.15574 -0.164625 0
M  V30 12129 H 1199.51 -3.28035 -1.77334 0
M  V30 12130 N 1201.7 0.070167 -1.57444 0
M  V30 12131 C 1202.65 1.09016 -2.00249 0
M  V30 12132 C 1203.63 1.34387 -0.884809 0
M  V30 12133 O 1204.82 1.34661 -1.14872 0
M  V30 12134 C 1201.95 2.40344 -2.45132 0
M  V30 12135 C 1201.04 2.1824 -3.63637 0
M  V30 12136 N 1201.43 1.6607 -4.7776 0
M  V30 12137 C 1199.73 2.48706 -3.70218 0
M  V30 12138 C 1200.43 1.58819 -5.59599 0
M  V30 12139 N 1199.4 2.04928 -5.03493 0
M  V30 12140 H 1203.2 0.680143 -2.85922 0
M  V30 12141 H 1200.72 0.277212 -1.60017 0
M  V30 12142 H 1202.72 3.1418 -2.74037 0
M  V30 12143 H 1201.38 2.82061 -1.60846 0
M  V30 12144 H 1202.39 1.34911 -5.00019 0
M  V30 12145 H 1199.06 2.93778 -2.96649 0
M  V30 12146 H 1200.45 1.19323 -6.6122 0
M  V30 12147 N 1203.17 1.53854 0.341593 0
M  V30 12148 C 1204.1 1.84966 1.42513 0
M  V30 12149 C 1205.08 0.704944 1.54805 0
M  V30 12150 O 1206.27 0.957036 1.68981 0
M  V30 12151 C 1203.4 2.06099 2.79536 0
M  V30 12152 C 1202.35 3.21919 2.82049 0
M  V30 12153 C 1201.68 3.28389 4.21977 0
M  V30 12154 C 1202.98 4.59984 2.4741 0
M  V30 12155 H 1204.67 2.7571 1.16724 0
M  V30 12156 H 1202.22 1.32662 0.560073 0
M  V30 12157 H 1204.17 2.26448 3.55386 0
M  V30 12158 H 1202.9 1.12087 3.06764 0
M  V30 12159 H 1201.56 3.01429 2.08653 0
M  V30 12160 H 1201.2 2.3197 4.46317 0
M  V30 12161 H 1200.9 4.0622 4.24569 0
M  V30 12162 H 1202.43 3.50951 4.99666 0
M  V30 12163 H 1203.84 4.80334 3.12973 0
M  V30 12164 H 1202.24 5.40233 2.61282 0
M  V30 12165 H 1203.31 4.6346 1.42594 0
M  V30 12166 N 1204.65 -0.602709 1.4562 0
M  V30 12167 C 1205.9 -1.35889 1.49595 0
M  V30 12168 C 1206.22 -1.9449 0.141002 0
M  V30 12169 O 1205.49 -1.77438 -0.830209 0
M  V30 12170 H 1204.07 -0.504478 0.550918 0
M  V30 12171 H 1206.73 -0.707376 1.8161 0
M  V30 12172 H 1205.83 -2.17583 2.2375 0
M  V30 12173 N 1206.13 -1.32992 -0.845635 0
M  V30 12174 C 1207.36 -1.27087 -1.63268 0
M  V30 12175 C 1207.77 0.159481 -1.88125 0
M  V30 12176 O 1207.13 1.09948 -1.45663 0
M  V30 12177 C 1207.18 -2.03649 -2.98679 0
M  V30 12178 O 1206.9 -3.41104 -2.74918 0
M  V30 12179 C 1208.4 -2.04875 -3.93117 0
M  V30 12180 H 1205.62 -0.438107 -0.508236 0
M  V30 12181 H 1208.17 -1.75257 -1.05381 0
M  V30 12182 H 1206.32 -1.59178 -3.53187 0
M  V30 12183 H 1206.74 -3.80405 -3.61099 0
M  V30 12184 H 1208.21 -2.62911 -4.85368 0
M  V30 12185 H 1208.69 -1.03728 -4.26775 0
M  V30 12186 H 1209.29 -2.49334 -3.44547 0
M  V30 12187 N 1207.61 1.06304 -1.1635 0
M  V30 12188 C 1208.84 1.82534 -0.967725 0
M  V30 12189 C 1209.25 1.82816 0.487338 0
M  V30 12190 O 1208.59 1.24581 1.35001 0
M  V30 12191 C 1208.65 3.30349 -1.4181 0
M  V30 12192 C 1208.31 3.53769 -2.89303 0
M  V30 12193 C 1209.31 3.46826 -3.87308 0
M  V30 12194 C 1207 3.81094 -3.2722 0
M  V30 12195 C 1208.99 3.66874 -5.21232 0
M  V30 12196 C 1206.68 4.00792 -4.61313 0
M  V30 12197 C 1207.68 3.93679 -5.58127 0
M  V30 12198 O 1207.36 4.12839 -6.89796 0
M  V30 12199 H 1207.1 0.582407 -0.343189 0
M  V30 12200 H 1209.65 1.35022 -1.54784 0
M  V30 12201 H 1207.88 3.78722 -0.781456 0
M  V30 12202 H 1209.57 3.88072 -1.18976 0
M  V30 12203 H 1210.33 3.25706 -3.59361 0
M  V30 12204 H 1206.21 3.85739 -2.5244 0
M  V30 12205 H 1209.76 3.61238 -5.96786 0
M  V30 12206 H 1205.65 4.214 -4.8897 0
M  V30 12207 H 1206.42 4.30128 -6.96371 0
M  V30 12208 N 1209.09 0.96196 1.24836 0
M  V30 12209 C 1210.33 0.619489 1.92371 0
M  V30 12210 C 1210.65 -0.847233 1.75633 0
M  V30 12211 O 1209.92 -1.60419 1.12439 0
M  V30 12212 H 1208.5 0.226129 0.711951 0
M  V30 12213 H 1211.17 1.22179 1.5185 0
M  V30 12214 H 1210.26 0.855128 3.00157 0
M  V30 12215 N 1210.56 -1.39601 0.731392 0
M  V30 12216 C 1211.81 -2.00883 0.278168 0
M  V30 12217 C 1212.14 -1.57897 -1.13059 0
M  V30 12218 O 1211.42 -0.806203 -1.77005 0
M  V30 12219 C 1211.7 -3.58132 0.375969 0
M  V30 12220 C 1211.55 -4.11147 1.82423 0
M  V30 12221 C 1212.87 -4.39425 -0.243702 0
M  V30 12222 H 1209.99 -0.729831 0.102549 0
M  V30 12223 H 1212.63 -1.65859 0.926869 0
M  V30 12224 H 1210.78 -3.881 -0.176329 0
M  V30 12225 H 1212.46 -3.91914 2.43313 0
M  V30 12226 H 1210.7 -3.64842 2.34675 0
M  V30 12227 H 1211.37 -5.20291 1.84396 0
M  V30 12228 H 1213.85 -4.1548 0.227067 0
M  V30 12229 H 1212.72 -5.48709 -0.144907 0
M  V30 12230 H 1212.98 -4.21642 -1.32929 0
M  V30 12231 N 1212.04 -0.478751 -1.50152 0
M  V30 12232 C 1213.29 0.073585 -2.02366 0
M  V30 12233 C 1213.62 1.3903 -1.36018 0
M  V30 12234 O 1212.87 1.89787 -0.477435 0
M  V30 12235 C 1213.17 0.297535 -3.56159 0
M  V30 12236 C 1212.84 -0.938419 -4.41027 0
M  V30 12237 C 1211.5 -1.27727 -4.63939 0
M  V30 12238 C 1213.85 -1.76098 -4.9055 0
M  V30 12239 C 1211.18 -2.4386 -5.33619 0
M  V30 12240 C 1213.53 -2.91366 -5.61506 0
M  V30 12241 C 1212.2 -3.25657 -5.8267 0
M  V30 12242 H 1211.47 0.0269267 -0.740511 0
M  V30 12243 H 1214.11 -0.63439 -1.80687 0
M  V30 12244 H 1212.42 1.08783 -3.76395 0
M  V30 12245 H 1214.11 0.73899 -3.94132 0
M  V30 12246 H 1210.7 -0.664441 -4.23418 0
M  V30 12247 H 1214.89 -1.51237 -4.72696 0
M  V30 12248 H 1210.14 -2.70692 -5.48211 0
M  V30 12249 H 1214.32 -3.55445 -5.98859 0
M  V30 12250 H 1211.95 -4.15751 -6.36439 0
M  V30 12251 N 1213.52 1.56172 -0.211661 0
M  V30 12252 C 1214.75 2.02428 0.427843 0
M  V30 12253 C 1215.16 1.09162 1.54043 0
M  V30 12254 O 1214.52 0.0994249 1.82229 0
M  V30 12255 C 1214.57 3.48279 0.968728 0
M  V30 12256 O 1214.29 4.37987 -0.0994841 0
M  V30 12257 C 1215.79 4.10132 1.68246 0
M  V30 12258 H 1213.01 0.662611 0.10577 0
M  V30 12259 H 1215.56 2.01897 -0.32522 0
M  V30 12260 H 1213.71 3.49456 1.6721 0
M  V30 12261 H 1214.13 5.23609 0.305558 0
M  V30 12262 H 1215.6 5.13985 2.01304 0
M  V30 12263 H 1216.08 3.54552 2.5921 0
M  V30 12264 H 1216.68 4.12775 1.02453 0
M  V30 12265 N 1215 -0.0618163 1.57479 0
M  V30 12266 C 1215.95 -1.09105 2.05424 0
M  V30 12267 C 1216.94 -1.3947 0.961479 0
M  V30 12268 O 1218.15 -1.3876 1.14655 0
M  V30 12269 H 1214.52 -0.36923 0.655113 0
M  V30 12270 H 1216.49 -0.66061 2.90996 0
M  V30 12271 C 1215.24 -2.39345 2.52209 0
M  V30 12272 H 1214.56 -2.16832 3.35893 0
M  V30 12273 H 1216 -3.09784 2.89499 0
M  V30 12274 C 1214.46 -3.06011 1.40922 0
M  V30 12275 O 1214.99 -3.94504 0.756921 0
M  V30 12276 N 1213.2 -2.66797 1.15186 0
M  V30 12277 H 1212.75 -1.94923 1.68412 0
M  V30 12278 H 1212.7 -3.11724 0.409324 0
M  V30 12279 N 1216.48 -1.54033 -0.333429 0
M  V30 12280 C 1217.44 -1.82021 -1.39288 0
M  V30 12281 C 1218.44 -0.691623 -1.45166 0
M  V30 12282 O 1219.63 -0.959925 -1.45365 0
M  V30 12283 C 1216.76 -1.97136 -2.78119 0
M  V30 12284 H 1217.95 -2.76671 -1.1573 0
M  V30 12285 H 1215.51 -1.45599 -0.568376 0
M  V30 12286 H 1216.24 -1.04663 -3.06946 0
M  V30 12287 H 1216.03 -2.79251 -2.75247 0
M  V30 12288 H 1217.52 -2.20271 -3.54782 0
M  V30 12289 N 1217.95 0.594978 -1.45938 0
M  V30 12290 C 1218.92 1.68688 -1.55168 0
M  V30 12291 C 1219.92 1.54945 -0.429951 0
M  V30 12292 O 1221.11 1.59785 -0.693859 0
M  V30 12293 C 1218.24 3.0804 -1.46027 0
M  V30 12294 H 1219.43 1.61866 -2.52467 0
M  V30 12295 H 1216.99 0.811785 -1.33565 0
M  V30 12296 H 1217.72 3.20428 -0.499614 0
M  V30 12297 H 1217.51 3.19423 -2.27401 0
M  V30 12298 H 1219 3.8755 -1.55546 0
M  V30 12299 N 1219.43 1.33438 0.838571 0
M  V30 12300 C 1220.68 1.24912 1.59384 0
M  V30 12301 C 1221.01 -0.185017 1.93618 0
M  V30 12302 O 1220.26 -1.14229 1.58904 0
M  V30 12303 C 1220.56 2.07002 2.9135 0
M  V30 12304 C 1220.23 3.5619 2.76477 0
M  V30 12305 C 1218.89 3.96862 2.72129 0
M  V30 12306 C 1221.24 4.5099 2.61261 0
M  V30 12307 C 1218.57 5.30551 2.50464 0
M  V30 12308 C 1220.92 5.84841 2.4113 0
M  V30 12309 C 1219.59 6.24696 2.35183 0
M  V30 12310 H 1218.86 0.457084 0.583228 0
M  V30 12311 H 1221.5 1.65027 0.971506 0
M  V30 12312 H 1219.81 1.59665 3.57791 0
M  V30 12313 H 1221.5 1.97762 3.48843 0
M  V30 12314 H 1218.09 3.23896 2.80695 0
M  V30 12315 H 1222.28 4.20476 2.63655 0
M  V30 12316 H 1217.53 5.60468 2.44307 0
M  V30 12317 H 1221.71 6.57901 2.2834 0
M  V30 12318 H 1219.34 7.28225 2.18156 0
M  V30 12319 N 1220.91 -1.05686 1.16912 0
M  V30 12320 C 1222.19 -1.7546 0.864483 0
M  V30 12321 C 1222.57 -2.0128 -0.636359 0
M  V30 12322 O 1221.92 -1.64485 -1.58609 0
M  V30 12323 C 1222.13 -3.05134 1.69395 0
M  V30 12324 C 1223.47 -3.79176 1.91079 0
M  V30 12325 O 1224.5 -3.1499 1.66312 0
M  V30 12326 O 1223.36 -4.94496 2.32671 0
M  V30 12327 H 1220.45 -0.762748 0.319601 0
M  V30 12328 H 1223 -1.11899 1.27581 0
M  V30 12329 H 1221.77 -2.82063 2.71212 0
M  V30 12330 H 1221.39 -3.76431 1.28007 0
M  V30 12331 N 1222.39 -0.968567 -1.24324 0
M  V30 12332 C 1223.8 -0.66964 -1.74278 0
M  V30 12333 C 1224.15 0.81461 -1.7849 0
M  V30 12334 O 1223.28 1.63736 -1.4149 0
M  V30 12335 C 1223.87 -1.20885 -3.165 0
M  V30 12336 C 1222.43 -0.959808 -3.63957 0
M  V30 12337 C 1221.58 -1.34365 -2.42573 0
M  V30 12338 H 1224.53 -1.14379 -1.10015 0
M  V30 12339 H 1224.55 -0.57555 -3.76122 0
M  V30 12340 H 1224.06 -2.28912 -3.13402 0
M  V30 12341 H 1222.16 0.104894 -3.72452 0
M  V30 12342 H 1222.27 -1.60606 -4.51378 0
M  V30 12343 H 1220.64 -0.762039 -2.43033 0
M  V30 12344 H 1221.42 -2.43343 -2.42155 0
M  V30 12345 N 1223.87 1.39211 -0.738786 0
M  V30 12346 C 1225.09 2.05256 -0.297421 0
M  V30 12347 C 1225.52 1.55341 1.06069 0
M  V30 12348 O 1224.87 0.698823 1.67291 0
M  V30 12349 C 1224.92 3.59239 -0.312969 0
M  V30 12350 O 1224.03 4.06448 0.698112 0
M  V30 12351 H 1223.37 0.650245 -0.134454 0
M  V30 12352 H 1225.9 1.78173 -1.00577 0
M  V30 12353 H 1225.91 4.07691 -0.158675 0
M  V30 12354 H 1224.58 3.94931 -1.30394 0
M  V30 12355 H 1223.16 3.69401 0.509643 0
M  V30 12356 N 1225.34 0.486708 1.49896 0
M  V30 12357 C 1226.76 0.0353906 1.86666 0
M  V30 12358 C 1227.11 -1.3743 1.40026 0
M  V30 12359 O 1226.23 -2.02163 0.77194 0
M  V30 12360 C 1226.83 0.0574475 3.38751 0
M  V30 12361 C 1225.39 -0.338464 3.74875 0
M  V30 12362 C 1224.53 0.436196 2.73848 0
M  V30 12363 H 1227.48 0.700215 1.42417 0
M  V30 12364 H 1227.5 -0.741175 3.73212 0
M  V30 12365 H 1227.02 1.08356 3.72667 0
M  V30 12366 H 1225.12 -1.36835 3.46565 0
M  V30 12367 H 1225.23 -0.0289519 4.79091 0
M  V30 12368 H 1223.59 -0.112141 2.54453 0
M  V30 12369 H 1224.38 1.46212 3.10608 0
M  V30 12370 O 1226.86 -1.57402 0.361503 0
M  V30 12371 H 1227.55 -1.92766 -0.189998 0
M  V30 END ATOM
M  V30 BEGIN BOND
M  V30 END BOND
M  V30 END CTAB
M  END
$$$$
