drugbank_target|P16113 Photoactive yellow protein (DB01880; DB04066)
 OpenBabel12092119523D

  0  0  0     0  0            999 V3000
M  V30 BEGIN CTAB
M  V30 COUNTS 1912 1933 0 0 0
M  V30 BEGIN ATOM
M  V30 1 H -0.908 1.98254 -0.117106 0
M  V30 2 N 0 1.576 0 0
M  V30 3 C 0.933 2.03868 1.02534 0
M  V30 4 C 1.911 0.928543 1.3348 0
M  V30 5 O 3.095 1.19667 1.45644 0
M  V30 6 C 0.222 2.43627 2.35294 0
M  V30 7 C -0.732 3.65373 2.2001 0
M  V30 8 S 0.101 5.13292 1.52614 0
M  V30 9 C 1.257 5.56322 2.86805 0
M  V30 10 H 1.49 2.90518 0.631377 0
M  V30 11 H -0.977 1.52953 0.210867 0
M  V30 12 H 0.981 2.67203 3.11629 0
M  V30 13 H -0.358 1.57376 2.7183 0
M  V30 14 H -1.165 3.90944 3.18086 0
M  V30 15 H -1.563 3.418 1.51819 0
M  V30 16 H 0.729 5.58782 3.83104 0
M  V30 17 H 1.672 6.56266 2.65933 0
M  V30 18 H 2.08 4.83886 2.90714 0
M  V30 19 N 1.4781 -0.272755 1.55222 0
M  V30 20 C 2.3881 -1.35918 1.91216 0
M  V30 21 C 3.4041 -1.54026 0.809436 0
M  V30 22 O 4.5801 -1.68148 1.10852 0
M  V30 23 C 1.6451 -2.69834 2.17693 0
M  V30 24 C 0.7061 -2.6047 3.41253 0
M  V30 25 C -0.0609 -3.88 3.66458 0
M  V30 26 O 0.1621 -4.88693 2.94169 0
M  V30 27 O -0.9039 -3.88189 4.59992 0
M  V30 28 H 2.9221 -1.0839 2.83699 0
M  V30 29 H 0.5071 -0.471301 1.41771 0
M  V30 30 H 2.3891 -3.49017 2.36147 0
M  V30 31 H 1.0641 -2.97148 1.28392 0
M  V30 32 H -0.0289 -1.79663 3.28134 0
M  V30 33 H 1.3041 -2.38106 4.30774 0
M  V30 34 N 2.9562 -1.48159 -0.537278 0
M  V30 35 C 3.9062 -1.5854 -1.63857 0
M  V30 36 C 4.8902 -0.442969 -1.54682 0
M  V30 37 O 6.0822 -0.69401 -1.62827 0
M  V30 38 C 3.2112 -1.62144 -3.02596 0
M  V30 39 C 2.2972 -2.81841 -3.16901 0
M  V30 40 N 2.6882 -4.06337 -3.01204 0
M  V30 41 C 0.9862 -2.79021 -3.47942 0
M  V30 42 C 1.6872 -4.86606 -3.18731 0
M  V30 43 N 0.6632 -4.19288 -3.45974 0
M  V30 44 H 4.4652 -2.5255 -1.50319 0
M  V30 45 H 1.9792 -1.4443 -0.742555 0
M  V30 46 H 3.9762 -1.67674 -3.81695 0
M  V30 47 H 2.6362 -0.69245 -3.17231 0
M  V30 48 H 3.6472 -4.36888 -2.78117 0
M  V30 49 H 0.3242 -1.95347 -3.6898 0
M  V30 50 H 1.7142 -5.95385 -3.11394 0
M  V30 51 N 4.4343 0.785586 -1.36625 0
M  V30 52 C 5.6803 1.54591 -1.31261 0
M  V30 53 C 6.0133 1.93906 0.106823 0
M  V30 54 O 5.2883 1.63007 1.06108 0
M  V30 55 C 5.5713 2.82038 -2.23889 0
M  V30 56 C 5.4243 2.49066 -3.74548 0
M  V30 57 C 6.7433 3.83887 -2.15217 0
M  V30 58 H 3.8623 0.560846 -0.478143 0
M  V30 59 H 6.5043 0.902278 -1.67209 0
M  V30 60 H 4.6543 3.36961 -1.93363 0
M  V30 61 H 6.3263 2.00164 -4.15611 0
M  V30 62 H 4.5693 1.81954 -3.93796 0
M  V30 63 H 5.2403 3.40109 -4.34776 0
M  V30 64 H 7.7163 3.38421 -2.42096 0
M  V30 65 H 6.5923 4.70806 -2.82193 0
M  V30 66 H 6.8533 4.27131 -1.14068 0
M  V30 67 N 5.9124 1.20967 1.01018 0
M  V30 68 C 6.8754 0.965918 2.07853 0
M  V30 69 C 7.8754 -0.0610545 1.60684 0
M  V30 70 O 9.0654 0.175681 1.73312 0
M  V30 71 C 6.1974 0.455513 3.37843 0
M  V30 72 H 7.3904 1.91365 2.3091 0
M  V30 73 H 4.9434 1.02594 1.17916 0
M  V30 74 H 5.6784 -0.497381 3.20463 0
M  V30 75 H 5.4634 1.19622 3.73407 0
M  V30 76 H 6.9534 0.304667 4.16487 0
M  V30 77 N 7.3905 -1.2043 1.01659 0
M  V30 78 C 8.6375 -1.89797 0.705917 0
M  V30 79 C 8.9655 -1.78848 -0.764439 0
M  V30 80 O 8.2205 -1.16694 -1.57102 0
M  V30 81 C 8.5195 -3.40464 1.08714 0
M  V30 82 C 8.1855 -3.71614 2.5537 0
M  V30 83 C 6.8475 -3.79826 2.95441 0
M  V30 84 C 9.1995 -3.85915 3.50313 0
M  V30 85 C 6.5275 -3.99797 4.29394 0
M  V30 86 C 8.8795 -4.07396 4.83954 0
M  V30 87 C 7.5435 -4.13837 5.23732 0
M  V30 88 H 6.8135 -0.694518 0.258313 0
M  V30 89 H 9.4605 -1.42691 1.27717 0
M  V30 90 H 7.7655 -3.89385 0.434309 0
M  V30 91 H 9.4625 -3.92433 0.824461 0
M  V30 92 H 6.0525 -3.65822 2.23321 0
M  V30 93 H 10.2365 -3.78926 3.20513 0
M  V30 94 H 5.4925 -4.03018 4.59768 0
M  V30 95 H 9.6665 -4.17404 5.57447 0
M  V30 96 H 7.2935 -4.29064 6.27541 0
M  V30 97 N 8.8686 -0.792821 -1.36206 0
M  V30 98 C 10.1166 -0.366062 -1.98757 0
M  V30 99 C 10.4376 1.0668 -1.63231 0
M  V30 100 O 9.7076 1.73587 -0.907978 0
M  V30 101 H 8.2876 -0.132364 -0.735179 0
M  V30 102 H 10.9496 -1.01562 -1.66347 0
M  V30 103 H 10.0456 -0.460638 -3.08682 0
M  V30 104 N 10.3467 1.47872 -0.545128 0
M  V30 105 C 11.5717 2.07391 -0.0190611 0
M  V30 106 C 11.9967 1.39688 1.25971 0
M  V30 107 O 11.3547 0.467816 1.7516 0
M  V30 108 C 11.4027 3.60188 0.172335 0
M  V30 109 O 10.5067 3.9339 1.23766 0
M  V30 110 H 9.8477 0.662411 -0.0459059 0
M  V30 111 H 12.3777 1.90066 -0.757365 0
M  V30 112 H 12.3877 4.06129 0.390305 0
M  V30 113 H 11.0627 4.08865 -0.761725 0
M  V30 114 H 9.6397 3.5921 1.00114 0
M  V30 115 N 11.8248 0.280983 1.55075 0
M  V30 116 C 12.7348 -0.61388 2.26426 0
M  V30 117 C 13.7508 -1.16521 1.29224 0
M  V30 118 O 14.9268 -1.19426 1.62171 0
M  V30 119 C 11.9918 -1.7788 2.9759 0
M  V30 120 C 11.0528 -1.26355 4.10284 0
M  V30 121 C 10.2858 -2.37295 4.78045 0
M  V30 122 O 10.5088 -3.56777 4.45047 0
M  V30 123 O 9.4428 -2.05119 5.65871 0
M  V30 124 H 13.2688 -0.0356932 3.03679 0
M  V30 125 H 10.8538 0.0481686 1.49322 0
M  V30 126 H 12.7358 -2.45791 3.42293 0
M  V30 127 H 11.4108 -2.34397 2.23249 0
M  V30 128 H 10.3178 -0.550735 3.70024 0
M  V30 129 H 11.6508 -0.744065 4.86543 0
M  V30 130 N 13.3029 -1.57598 0.00835791 0
M  V30 131 C 14.5799 -1.82172 -0.712235 0
M  V30 132 C 14.9599 -0.887873 -1.9152 0
M  V30 133 O 14.3079 0.06146 -2.28417 0
M  V30 134 C 14.5179 -3.30875 -1.11008 0
M  V30 135 C 15.8659 -3.96826 -1.51044 0
M  V30 136 O 16.8899 -3.35248 -1.20364 0
M  V30 137 O 15.7489 -5.05318 -2.08125 0
M  V30 138 H 12.8429 -0.750435 -0.347529 0
M  V30 139 H 15.3889 -1.69665 0.0344523 0
M  V30 140 H 14.1609 -3.90481 -0.252982 0
M  V30 141 H 13.7839 -3.48412 -1.9156 0
M  V30 142 N 14.781 0.264519 -1.55364 0
M  V30 143 C 16.03 0.992812 -1.75574 0
M  V30 144 C 16.343 1.87142 -0.568979 0
M  V30 145 O 17.549 2.63513 -0.653682 0
M  V30 146 C 16.005 1.81519 -3.10771 0
M  V30 147 C 15.613 0.984839 -4.37041 0
M  V30 148 C 17.357 2.53727 -3.40327 0
M  V30 149 C 15.264 1.80209 -5.63275 0
M  V30 150 H 14.194 0.374412 -0.65447 0
M  V30 151 H 16.845 0.248138 -1.81815 0
M  V30 152 H 15.227 2.60115 -2.98591 0
M  V30 153 H 16.401 0.242455 -4.60162 0
M  V30 154 H 14.716 0.37691 -4.14691 0
M  V30 155 H 17.313 3.15292 -4.3185 0
M  V30 156 H 17.656 3.24447 -2.60845 0
M  V30 157 H 18.189 1.82156 -3.53644 0
M  V30 158 H 14.928 1.13896 -6.45529 0
M  V30 159 H 14.448 2.52022 -5.44284 0
M  V30 160 H 16.127 2.37364 -6.01887 0
M  V30 161 N 16.2591 1.48442 0.529413 0
M  V30 162 C 17.1691 1.6569 1.66084 0
M  V30 163 C 18.1851 0.539432 1.65427 0
M  V30 164 O 19.3611 0.810572 1.84368 0
M  V30 165 C 16.4261 1.69315 3.02545 0
M  V30 166 C 15.4871 2.92694 3.14052 0
M  V30 167 C 14.7201 2.96137 4.44003 0
M  V30 168 O 14.9431 2.07973 5.31134 0
M  V30 169 O 13.8771 3.88312 4.59888 0
M  V30 170 H 17.7031 2.61483 1.54469 0
M  V30 171 H 15.2881 1.3185 0.702567 0
M  V30 172 H 17.1701 1.74217 3.83701 0
M  V30 173 H 15.8451 0.766966 3.14483 0
M  V30 174 H 14.7521 2.93324 2.32189 0
M  V30 175 H 16.0851 3.84699 3.0703 0
M  V30 176 N 17.7372 -0.778329 1.37039 0
M  V30 177 C 18.6852 -1.91278 1.32345 0
M  V30 178 C 19.6792 -1.68051 0.213331 0
M  V30 179 O 20.8852 -1.75922 0.38098 0
M  V30 180 H 17.2602 -0.628909 0.412283 0
M  V30 181 H 19.2312 -1.92355 2.28127 0
M  V30 182 C 17.9802 -3.28455 1.14073 0
M  V30 183 H 17.3032 -3.46901 1.98746 0
M  V30 184 H 18.7432 -4.08152 1.14837 0
M  V30 185 C 17.2022 -3.36548 -0.154015 0
M  V30 186 O 17.7322 -3.85186 -1.13993 0
M  V30 187 N 15.9382 -2.89894 -0.202475 0
M  V30 188 H 15.4852 -2.50504 0.600476 0
M  V30 189 H 15.4432 -2.9569 -1.06841 0
M  V30 190 N 19.2153 -1.21501 -1.00376 0
M  V30 191 C 20.4433 -1.059 -1.77744 0
M  V30 192 C 20.8583 0.391125 -1.84704 0
M  V30 193 O 20.2153 1.27133 -1.30933 0
M  V30 194 C 20.2663 -1.65111 -3.21591 0
M  V30 195 O 19.9873 -3.0445 -3.15027 0
M  V30 196 C 21.4883 -1.54637 -4.15454 0
M  V30 197 H 18.7083 -0.371825 -0.558558 0
M  V30 198 H 21.2523 -1.60865 -1.26264 0
M  V30 199 H 19.4073 -1.14235 -3.70175 0
M  V30 200 H 19.8213 -3.3278 -4.0541 0
M  V30 201 H 21.2953 -2.00808 -5.14179 0
M  V30 202 H 21.7723 -0.501022 -4.36333 0
M  V30 203 H 22.3783 -2.04767 -3.72761 0
M  V30 204 N 20.6934 1.19889 -1.02296 0
M  V30 205 C 21.6234 2.25141 -0.619174 0
M  V30 206 C 22.6044 1.66051 0.368915 0
M  V30 207 O 23.7894 1.92546 0.252941 0
M  V30 208 C 20.9194 3.4728 0.0368783 0
M  V30 209 C 19.8734 4.19005 -0.872865 0
M  V30 210 C 19.1994 5.34637 -0.0822402 0
M  V30 211 C 20.4994 4.74452 -2.18387 0
M  V30 212 H 22.1934 2.59171 -1.49903 0
M  V30 213 H 19.7394 1.24579 -0.722222 0
M  V30 214 H 21.6924 4.20098 0.330958 0
M  V30 215 H 20.4164 3.12433 0.95149 0
M  V30 216 H 19.0754 3.48061 -1.15105 0
M  V30 217 H 18.7234 4.96034 0.83422 0
M  V30 218 H 18.4234 5.83557 -0.688149 0
M  V30 219 H 19.9474 6.10255 0.205238 0
M  V30 220 H 21.3614 5.39055 -1.95172 0
M  V30 221 H 19.7584 5.33834 -2.74119 0
M  V30 222 H 20.8284 3.92844 -2.84257 0
M  V30 223 N 22.1715 0.800033 1.35784 0
M  V30 224 C 23.1345 0.211565 2.28221 0
M  V30 225 C 24.1345 -0.59728 1.49296 0
M  V30 226 O 25.3245 -0.416721 1.69142 0
M  V30 227 C 22.4565 -0.705846 3.33513 0
M  V30 228 H 23.6495 1.02677 2.81776 0
M  V30 229 H 21.2025 0.570211 1.45528 0
M  V30 230 H 21.9375 -1.54498 2.85133 0
M  V30 231 H 21.7225 -0.127655 3.91892 0
M  V30 232 H 23.2125 -1.11211 4.02519 0
M  V30 233 N 23.6496 -1.47581 0.552962 0
M  V30 234 C 24.5966 -2.29957 -0.197108 0
M  V30 235 C 25.5666 -1.38799 -0.912359 0
M  V30 236 O 26.7516 -1.67761 -0.908888 0
M  V30 237 C 23.8916 -3.22672 -1.22379 0
M  V30 238 C 23.0046 -4.28919 -0.515038 0
M  V30 239 C 22.1396 -5.0879 -1.52664 0
M  V30 240 C 21.1786 -6.06815 -0.802631 0
M  V30 241 N 20.3156 -6.7966 -1.76086 0
M  V30 242 H 25.1556 -2.93578 0.511486 0
M  V30 243 H 22.6926 -1.4471 0.264067 0
M  V30 244 H 24.6506 -3.74845 -1.83159 0
M  V30 245 H 23.2806 -2.60925 -1.90047 0
M  V30 246 H 22.3326 -3.79835 0.207192 0
M  V30 247 H 23.6446 -4.98773 0.0523425 0
M  V30 248 H 22.7986 -5.65091 -2.20809 0
M  V30 249 H 21.5376 -4.38828 -2.12794 0
M  V30 250 H 20.5426 -5.49695 -0.107238 0
M  V30 251 H 21.7676 -6.78784 -0.207135 0
M  V30 252 H 19.7136 -6.12432 -2.35081 0
M  V30 253 H 19.6306 -7.45669 -1.24552 0
M  V30 254 H 20.8986 -7.40538 -2.43359 0
M  V30 255 N 25.1277 -0.289203 -1.54924 0
M  V30 256 C 26.0607 0.633823 -2.19221 0
M  V30 257 C 27.0387 1.14174 -1.15772 0
M  V30 258 O 28.2227 1.21211 -1.44361 0
M  V30 259 C 25.3497 1.86592 -2.82668 0
M  V30 260 C 24.3957 1.49227 -3.99542 0
M  V30 261 S 25.2287 0.558312 -5.32582 0
M  V30 262 C 26.3847 1.79847 -5.99505 0
M  V30 263 H 26.6177 0.0875416 -2.97171 0
M  V30 264 H 24.1507 -0.0733899 -1.54225 0
M  V30 265 H 26.1087 2.57305 -3.19851 0
M  V30 266 H 24.7697 2.38335 -2.04585 0
M  V30 267 H 23.9627 2.40945 -4.42676 0
M  V30 268 H 23.5647 0.865193 -3.63855 0
M  V30 269 H 25.8567 2.7406 -6.19595 0
M  V30 270 H 26.7997 1.4099 -6.93922 0
M  V30 271 H 27.2077 1.96982 -5.29016 0
M  V30 272 N 26.6058 1.57591 -0.0167156 0
M  V30 273 C 27.8828 1.82547 0.702564 0
M  V30 274 C 28.2628 0.898018 1.91047 0
M  V30 275 O 27.6108 -0.0493456 2.28447 0
M  V30 276 C 27.8208 3.31459 1.09251 0
M  V30 277 C 29.1688 3.97622 1.48937 0
M  V30 278 O 30.1928 3.35881 1.18584 0
M  V30 279 O 29.0518 5.06415 2.05442 0
M  V30 280 H 26.1458 0.752268 0.343544 0
M  V30 281 H 28.6918 1.69644 -0.0434495 0
M  V30 282 H 27.4638 3.9061 0.23227 0
M  V30 283 H 27.0868 3.49422 1.89709 0
M  V30 284 N 28.0839 -0.256276 1.55502 0
M  V30 285 C 29.3609 -1.00789 1.67633 0
M  V30 286 C 29.7409 -2.03706 0.553826 0
M  V30 287 O 29.0889 -2.24145 -0.443969 0
M  V30 288 C 29.2989 -1.64968 3.07549 0
M  V30 289 C 30.6469 -2.15505 3.65845 0
M  V30 290 O 31.6709 -1.74925 3.1029 0
M  V30 291 O 30.5299 -2.89986 4.63217 0
M  V30 292 H 27.6239 -0.468553 0.681459 0
M  V30 293 H 30.1699 -0.250806 1.67836 0
M  V30 294 H 28.9419 -0.904785 3.80696 0
M  V30 295 H 28.5649 -2.47321 3.11317 0
M  V30 296 N 29.562 -1.4872 -0.521534 0
M  V30 297 C 30.81 -1.56857 -1.27437 0
M  V30 298 C 31.131 -0.247982 -1.93417 0
M  V30 299 O 30.401 0.731151 -1.81744 0
M  V30 300 H 28.981 -0.577885 -0.473347 0
M  V30 301 H 31.643 -1.85233 -0.606205 0
M  V30 302 H 30.739 -2.35402 -2.0492 0
M  V30 303 N 31.0401 0.771051 -1.3745 0
M  V30 304 C 31.9721 1.89352 -1.29146 0
M  V30 305 C 32.9851 1.61477 -0.207124 0
M  V30 306 O 34.1741 1.72382 -0.463324 0
M  V30 307 C 31.2741 3.24596 -0.974195 0
M  V30 308 C 30.4471 3.80111 -2.16413 0
M  V30 309 C 29.5061 4.93832 -1.81703 0
M  V30 310 O 28.5321 5.09382 -2.54006 0
M  V30 311 N 29.7341 5.75483 -0.761573 0
M  V30 312 H 32.4991 1.96991 -2.25864 0
M  V30 313 H 30.0601 0.950191 -1.31084 0
M  V30 314 H 32.0521 3.98193 -0.722828 0
M  V30 315 H 30.6221 3.12454 -0.0955527 0
M  V30 316 H 29.8421 2.98284 -2.57721 0
M  V30 317 H 31.1301 4.13932 -2.95867 0
M  V30 318 H 30.5281 5.65469 -0.161609 0
M  V30 319 H 29.0851 6.49302 -0.570064 0
M  V30 320 N 32.5182 1.22032 0.997298 0
M  V30 321 C 33.4482 1.01065 2.10495 0
M  V30 322 C 34.4292 -0.0669542 1.69968 0
M  V30 323 O 35.6142 0.0943987 1.9397 0
M  V30 324 C 32.7442 0.582874 3.42374 0
M  V30 325 C 31.6982 1.60592 3.96729 0
M  V30 326 C 31.0242 1.03412 5.24605 0
M  V30 327 C 32.3242 2.99478 4.27914 0
M  V30 328 H 34.0182 1.93708 2.28292 0
M  V30 329 H 31.5642 0.932761 1.09707 0
M  V30 330 H 33.5172 0.423332 4.19268 0
M  V30 331 H 32.2412 -0.379213 3.24391 0
M  V30 332 H 30.9002 1.75316 3.21963 0
M  V30 333 H 30.5482 0.063518 5.0296 0
M  V30 334 H 30.2482 1.71754 5.61938 0
M  V30 335 H 31.7722 0.886066 6.04137 0
M  V30 336 H 33.1862 2.88153 4.95622 0
M  V30 337 H 31.5832 3.64903 4.76409 0
M  V30 338 H 32.6532 3.49742 3.3587 0
M  V30 339 N 33.9963 -1.19345 1.0293 0
M  V30 340 C 35.2733 -1.84811 0.640642 0
M  V30 341 C 35.6533 -1.91855 -0.88062 0
M  V30 342 O 35.0013 -1.43587 -1.7775 0
M  V30 343 C 35.2113 -3.23755 1.30321 0
M  V30 344 C 36.5593 -3.99912 1.42673 0
M  V30 345 O 37.5833 -3.33155 1.26041 0
M  V30 346 O 36.4423 -5.19494 1.6967 0
M  V30 347 H 33.5363 -0.796443 0.222726 0
M  V30 348 H 36.0823 -1.26831 1.12748 0
M  V30 349 H 34.8543 -3.13466 2.34211 0
M  V30 350 H 34.4773 -3.89381 0.804261 0
M  V30 351 N 35.4744 -0.807222 -1.35358 0
M  V30 352 C 36.7224 -0.387122 -1.98358 0
M  V30 353 C 37.0434 1.04942 -1.64354 0
M  V30 354 O 36.3134 1.72615 -0.926339 0
M  V30 355 H 34.8934 -0.140154 -0.733734 0
M  V30 356 H 37.5554 -1.0332 -1.6526 0
M  V30 357 H 36.6514 -0.493352 -3.08176 0
M  V30 358 N 36.9525 1.47285 -0.560781 0
M  V30 359 C 37.8825 2.32857 0.173105 0
M  V30 360 C 38.8635 1.44009 0.905281 0
M  V30 361 O 40.0485 1.7286 0.885046 0
M  V30 362 C 37.1785 3.25861 1.20133 0
M  V30 363 C 36.1325 4.23978 0.585388 0
M  V30 364 C 35.4585 5.06332 1.7185 0
M  V30 365 C 36.7585 5.20242 -0.463178 0
M  V30 366 H 38.4525 2.94466 -0.541307 0
M  V30 367 H 35.9985 1.41601 -0.261764 0
M  V30 368 H 37.9515 3.84569 1.72293 0
M  V30 369 H 36.6755 2.62315 1.94573 0
M  V30 370 H 35.3345 3.66501 0.085054 0
M  V30 371 H 34.9825 4.39186 2.45203 0
M  V30 372 H 34.6825 5.72762 1.31213 0
M  V30 373 H 36.2065 5.67899 2.24329 0
M  V30 374 H 37.6205 5.73293 -0.027502 0
M  V30 375 H 36.0175 5.94896 -0.788627 0
M  V30 376 H 37.0875 4.65504 -1.35773 0
M  V30 377 N 38.4306 0.297415 1.54768 0
M  V30 378 C 39.3936 -0.567375 2.22066 0
M  V30 379 C 40.3936 -1.06409 1.20556 0
M  V30 380 O 41.5836 -0.960691 1.45315 0
M  V30 381 C 38.7156 -1.78517 2.90421 0
M  V30 382 H 39.9086 0.0205534 2.99893 0
M  V30 383 H 37.4616 0.0482163 1.56226 0
M  V30 384 H 38.1966 -2.41303 2.16664 0
M  V30 385 H 37.9816 -1.43669 3.64831 0
M  V30 386 H 39.4716 -2.39964 3.41771 0
M  V30 387 N 39.9087 -1.5758 0.0250728 0
M  V30 388 C 41.1557 -1.91633 -0.654444 0
M  V30 389 C 41.4837 -0.901103 -1.72367 0
M  V30 390 O 40.7387 0.0905647 -1.9549 0
M  V30 391 C 41.0377 -3.32421 -1.31268 0
M  V30 392 C 40.7037 -4.49344 -0.374223 0
M  V30 393 C 39.3657 -4.8106 -0.115911 0
M  V30 394 C 41.7177 -5.20498 0.270432 0
M  V30 395 C 39.0457 -5.8129 0.79493 0
M  V30 396 C 41.3977 -6.21699 1.1693 0
M  V30 397 C 40.0617 -6.51859 1.43655 0
M  V30 398 H 39.3317 -0.701236 -0.239478 0
M  V30 399 H 41.9787 -1.91307 0.0859734 0
M  V30 400 H 40.2837 -3.28989 -2.12775 0
M  V30 401 H 41.9807 -3.56038 -1.84494 0
M  V30 402 H 38.5707 -4.24579 -0.58573 0
M  V30 403 H 42.7547 -4.96229 0.0839194 0
M  V30 404 H 38.0107 -6.03005 1.00973 0
M  V30 405 H 42.1847 -6.75955 1.67504 0
M  V30 406 H 39.8117 -7.2934 2.144 0
M  V30 407 N 41.3868 0.248026 -1.55636 0
M  V30 408 C 42.6348 0.974295 -1.77065 0
M  V30 409 C 42.9558 1.85897 -0.588849 0
M  V30 410 O 42.2258 1.91868 0.395407 0
M  V30 411 H 40.8058 0.362733 -0.653019 0
M  V30 412 H 43.4678 0.266244 -1.93073 0
M  V30 413 H 42.5638 1.59667 -2.68166 0
M  V30 414 N 42.8649 1.48995 0.513639 0
M  V30 415 C 43.8279 1.64229 1.59879 0
M  V30 416 C 44.8279 0.514696 1.5234 0
M  V30 417 O 46.0179 0.78087 1.55718 0
M  V30 418 C 43.1499 1.62783 2.99524 0
M  V30 419 H 44.3429 2.61004 1.47705 0
M  V30 420 H 41.8959 1.37837 0.736936 0
M  V30 421 H 42.6309 0.675461 3.17188 0
M  V30 422 H 42.4159 2.4466 3.06404 0
M  V30 423 H 43.9059 1.76669 3.78388 0
M  V30 424 N 44.343 -0.763751 1.37857 0
M  V30 425 C 45.592 -1.51789 1.32827 0
M  V30 426 C 45.905 -1.95426 -0.0823719 0
M  V30 427 O 47.111 -2.70298 -0.255172 0
M  V30 428 C 45.567 -2.74133 2.33193 0
M  V30 429 C 45.175 -2.37562 3.79827 0
M  V30 430 C 46.919 -3.52054 2.37188 0
M  V30 431 C 44.826 -3.56456 4.71904 0
M  V30 432 H 43.756 -0.569896 0.493695 0
M  V30 433 H 46.407 -0.835822 1.63359 0
M  V30 434 H 44.789 -3.4427 1.9569 0
M  V30 435 H 45.963 -1.75157 4.26212 0
M  V30 436 H 44.278 -1.72798 3.78853 0
M  V30 437 H 46.875 -4.40437 3.03182 0
M  V30 438 H 47.218 -3.92486 1.38782 0
M  V30 439 H 47.751 -2.88921 2.7344 0
M  V30 440 H 44.49 -3.21099 5.71468 0
M  V30 441 H 44.01 -4.17938 4.30218 0
M  V30 442 H 45.689 -4.23168 4.89426 0
M  V30 443 N 45.8211 -1.22559 -0.990812 0
M  V30 444 C 46.7531 -0.955325 -2.08342 0
M  V30 445 C 47.7661 0.0668408 -1.62663 0
M  V30 446 O 48.9551 -0.167421 -1.77713 0
M  V30 447 C 46.0551 -0.415566 -3.36342 0
M  V30 448 C 45.2281 -1.49544 -4.11042 0
M  V30 449 C 44.2871 -0.962399 -5.17324 0
M  V30 450 O 43.3131 -1.64907 -5.44788 0
M  V30 451 N 44.5151 0.215134 -5.80101 0
M  V30 452 H 47.2801 -1.89596 -2.32106 0
M  V30 453 H 44.8411 -1.13276 -1.15673 0
M  V30 454 H 46.8331 -0.0442386 -4.04676 0
M  V30 455 H 45.4031 0.430232 -3.09625 0
M  V30 456 H 44.6231 -2.04 -3.37309 0
M  V30 457 H 45.9111 -2.22195 -4.57719 0
M  V30 458 H 45.3091 0.789779 -5.6016 0
M  V30 459 H 43.8661 0.527826 -6.49659 0
M  V30 460 N 47.2992 1.18797 -1.03562 0
M  V30 461 C 48.2292 2.24472 -0.643019 0
M  V30 462 C 49.2102 1.66433 0.351283 0
M  V30 463 O 50.3952 1.92803 0.232505 0
M  V30 464 C 47.5252 3.473 4.24935e-05 0
M  V30 465 C 46.4792 4.18055 -0.917257 0
M  V30 466 C 45.8052 5.34519 -0.138941 0
M  V30 467 C 47.1052 4.72109 -2.23407 0
M  V30 468 H 48.7992 2.57566 -1.52643 0
M  V30 469 H 46.3452 1.23806 -0.735394 0
M  V30 470 H 48.2982 4.20426 0.286383 0
M  V30 471 H 47.0222 3.13424 0.918299 0
M  V30 472 H 45.6812 3.46821 -1.1879 0
M  V30 473 H 45.3292 4.96891 0.781562 0
M  V30 474 H 45.0292 5.82794 -0.750005 0
M  V30 475 H 46.5532 6.10438 0.1405 0
M  V30 476 H 47.9672 5.36955 -2.00879 0
M  V30 477 H 46.3642 5.30897 -2.79765 0
M  V30 478 H 47.4342 3.89807 -2.88407 0
M  V30 479 N 48.7773 0.814389 1.34928 0
M  V30 480 C 50.0543 0.321363 1.92942 0
M  V30 481 C 50.4343 -1.19014 1.74353 0
M  V30 482 O 49.7823 -1.99328 1.11716 0
M  V30 483 C 49.9923 0.741323 3.41036 0
M  V30 484 C 51.3403 0.735266 4.18185 0
M  V30 485 O 52.3643 0.68336 3.49584 0
M  V30 486 O 51.2233 0.800703 5.40602 0
M  V30 487 H 48.3173 0.0858893 0.822528 0
M  V30 488 H 50.8633 0.898609 1.43955 0
M  V30 489 H 49.6353 1.78276 3.4833 0
M  V30 490 H 49.2583 0.139307 3.97356 0
M  V30 491 N 50.2554 -1.46986 0.568584 0
M  V30 492 C 51.5034 -2.02041 0.0487022 0
M  V30 493 C 51.8244 -1.44408 -1.31039 0
M  V30 494 O 51.0944 -0.623477 -1.85714 0
M  V30 495 H 49.6744 -0.746849 0.015014 0
M  V30 496 H 52.3364 -1.80257 0.741168 0
M  V30 497 H 51.4324 -3.12085 -0.0308961 0
M  V30 498 N 51.7335 -0.305618 -1.54608 0
M  V30 499 C 53.0105 0.355652 -1.92339 0
M  V30 500 C 53.3905 1.71324 -1.23335 0
M  V30 501 O 52.7385 2.25473 -0.370702 0
M  V30 502 C 52.9485 0.46572 -3.45879 0
M  V30 503 C 54.2965 0.734426 -4.182 0
M  V30 504 O 55.3205 0.54935 -3.51938 0
M  V30 505 O 54.1795 1.09024 -5.35515 0
M  V30 506 H 51.2735 0.199666 -0.802535 0
M  V30 507 H 53.8195 -0.354017 -1.65966 0
M  V30 508 H 52.5915 -0.488461 -3.88239 0
M  V30 509 H 52.2145 1.22367 -3.78301 0
M  V30 510 N 53.2116 1.57565 -0.0334293 0
M  V30 511 C 54.4596 1.91598 0.642999 0
M  V30 512 C 54.7806 0.910847 1.7242 0
M  V30 513 O 54.0506 -0.0469931 1.95844 0
M  V30 514 H 52.6306 0.707228 0.240496 0
M  V30 515 H 55.2926 1.94726 -0.0822488 0
M  V30 516 H 54.3886 2.92336 1.09298 0
M  V30 517 N 54.6897 -0.239769 1.55765 0
M  V30 518 C 55.6377 -1.31668 1.91745 0
M  V30 519 C 56.6317 -1.49462 0.797338 0
M  V30 520 O 57.8377 -1.50852 0.982021 0
M  V30 521 H 54.2127 -0.441048 0.609082 0
M  V30 522 H 56.1837 -0.985923 2.81642 0
M  V30 523 C 54.9327 -2.66368 2.2348 0
M  V30 524 H 54.2557 -2.53478 3.09175 0
M  V30 525 H 55.6957 -3.40578 2.52553 0
M  V30 526 C 54.1547 -3.20002 1.05359 0
M  V30 527 O 54.6847 -4.00538 0.305261 0
M  V30 528 N 52.8907 -2.78126 0.842292 0
M  V30 529 H 52.4377 -2.12742 1.45253 0
M  V30 530 H 52.3957 -3.14354 0.053652 0
M  V30 531 N 56.1678 -1.49265 -0.50573 0
M  V30 532 C 57.4168 -1.57761 -1.25675 0
M  V30 533 C 57.7298 -0.267371 -1.93764 0
M  V30 534 O 58.9358 -0.230827 -2.70517 0
M  V30 535 C 57.3918 -2.78332 -2.28165 0
M  V30 536 C 56.9998 -4.16096 -1.66037 0
M  V30 537 C 58.7438 -2.96155 -3.04125 0
M  V30 538 C 56.6508 -5.27895 -2.6661 0
M  V30 539 H 55.5808 -0.587391 -0.472745 0
M  V30 540 H 58.2318 -1.75644 -0.53118 0
M  V30 541 H 56.6138 -2.53934 -3.03865 0
M  V30 542 H 57.7878 -4.50612 -0.963622 0
M  V30 543 H 56.1028 -4.03591 -1.02484 0
M  V30 544 H 58.6998 -3.76849 -3.79327 0
M  V30 545 H 59.0428 -2.06534 -3.61455 0
M  V30 546 H 59.5758 -3.2057 -2.35541 0
M  V30 547 H 56.3148 -6.1956 -2.14068 0
M  V30 548 H 55.8348 -4.97839 -3.34539 0
M  V30 549 H 57.5138 -5.57031 -3.29129 0
M  V30 550 N 57.6459 0.756429 -1.3826 0
M  V30 551 C 58.5759 1.88374 -1.37976 0
M  V30 552 C 59.5569 1.68311 -0.246082 0
M  V30 553 O 60.7419 1.88944 -0.44874 0
M  V30 554 C 57.8719 3.25864 -1.20125 0
M  V30 555 C 56.8259 3.60523 -2.30666 0
M  V30 556 C 56.1519 4.9672 -1.97923 0
M  V30 557 C 57.4519 3.65692 -3.72916 0
M  V30 558 H 59.1459 1.88869 -2.32312 0
M  V30 559 H 56.6919 0.907272 -1.11824 0
M  V30 560 H 58.6449 4.0438 -1.18552 0
M  V30 561 H 57.3689 3.25841 -0.222498 0
M  V30 562 H 56.0279 2.84324 -2.3142 0
M  V30 563 H 55.6759 4.93253 -0.985393 0
M  V30 564 H 55.3759 5.20878 -2.71955 0
M  V30 565 H 56.8999 5.77618 -1.97964 0
M  V30 566 H 58.3139 4.34328 -3.74208 0
M  V30 567 H 56.7109 4.01358 -4.4613 0
M  V30 568 H 57.7809 2.65987 -4.05436 0
M  V30 569 N 59.124 1.23083 0.984299 0
M  V30 570 C 60.056 0.96636 2.07832 0
M  V30 571 C 61.069 -0.0582135 1.62696 0
M  V30 572 O 62.258 0.176843 1.77622 0
M  V30 573 C 59.358 0.433397 3.36117 0
M  V30 574 C 58.531 1.51722 4.10243 0
M  V30 575 C 57.59 0.989821 5.16807 0
M  V30 576 O 56.616 1.67794 5.43906 0
M  V30 577 N 57.818 -0.184367 5.80207 0
M  V30 578 H 60.583 1.90824 2.31098 0
M  V30 579 H 58.144 1.13888 1.1507 0
M  V30 580 H 60.136 0.065699 4.04647 0
M  V30 581 H 58.706 -0.413806 3.09849 0
M  V30 582 H 57.926 2.05786 3.36223 0
M  V30 583 H 59.214 2.24619 4.56534 0
M  V30 584 H 58.612 -0.760062 5.60571 0
M  V30 585 H 57.169 -0.493366 6.4993 0
M  V30 586 N 60.6021 -1.18246 1.0419 0
M  V30 587 C 61.8321 -1.91916 0.764961 0
M  V30 588 C 62.2401 -1.76485 -0.681898 0
M  V30 589 O 61.5831 -1.09275 -1.47664 0
M  V30 590 C 61.6451 -3.4373 1.05309 0
M  V30 591 C 61.3091 -3.8294 2.4941 0
M  V30 592 C 62.3061 -3.86621 3.47592 0
M  V30 593 C 59.9911 -4.142 2.84155 0
M  V30 594 C 61.9851 -4.21013 4.78568 0
M  V30 595 C 59.6721 -4.48262 4.15337 0
M  V30 596 C 60.6701 -4.51645 5.12353 0
M  V30 597 O 60.3581 -4.84911 6.41183 0
M  V30 598 H 60.0901 -0.61606 0.278292 0
M  V30 599 H 62.6441 -1.50947 1.39299 0
M  V30 600 H 60.8741 -3.84946 0.367933 0
M  V30 601 H 62.5631 -3.9865 0.763752 0
M  V30 602 H 63.3291 -3.62607 3.22089 0
M  V30 603 H 59.2081 -4.10743 2.09311 0
M  V30 604 H 62.7521 -4.23568 5.54289 0
M  V30 605 H 58.6491 -4.71737 4.40607 0
M  V30 606 H 59.4171 -5.02809 6.45852 0
M  V30 607 N 62.0802 -0.821533 -1.34494 0
M  V30 608 C 63.0282 -0.230702 -2.31453 0
M  V30 609 C 64.0222 0.627793 -1.57338 0
M  V30 610 O 65.2282 0.519288 -1.72347 0
M  V30 611 H 61.6032 -0.0558577 -0.749923 0
M  V30 612 H 63.5742 -1.06332 -2.78812 0
M  V30 613 C 62.3232 0.59391 -3.4259 0
M  V30 614 H 61.6462 -0.0573588 -3.99759 0
M  V30 615 H 63.0862 0.973446 -4.12674 0
M  V30 616 C 61.5452 1.76568 -2.86924 0
M  V30 617 O 62.0752 2.8638 -2.81691 0
M  V30 618 N 60.2812 1.58198 -2.43766 0
M  V30 619 H 59.8282 0.68872 -2.48222 0
M  V30 620 H 59.7862 2.36752 -2.06871 0
M  V30 621 N 63.5583 1.46682 -0.576371 0
M  V30 622 C 64.5213 2.28707 0.150239 0
M  V30 623 C 65.5213 1.38035 0.824794 0
M  V30 624 O 66.7113 1.60476 0.677719 0
M  V30 625 C 63.8433 3.18248 1.22192 0
M  V30 626 H 65.0363 2.94423 -0.570521 0
M  V30 627 H 62.5893 1.52688 -0.334078 0
M  V30 628 H 63.3243 2.57265 1.97447 0
M  V30 629 H 63.1093 3.85 0.742812 0
M  V30 630 H 64.5993 3.80001 1.73172 0
M  V30 631 N 65.0364 0.313813 1.54444 0
M  V30 632 C 65.9994 -0.54379 2.22656 0
M  V30 633 C 66.9994 -1.05124 1.21678 0
M  V30 634 O 68.1894 -0.945225 1.46325 0
M  V30 635 C 65.3214 -1.75427 2.92298 0
M  V30 636 H 66.5144 0.0523599 2.99854 0
M  V30 637 H 64.0674 0.0647834 1.56166 0
M  V30 638 H 64.8024 -2.38991 2.19211 0
M  V30 639 H 64.5874 -1.39791 3.66334 0
M  V30 640 H 66.0774 -2.36325 3.44297 0
M  V30 641 N 66.5145 -1.57545 0.0417849 0
M  V30 642 C 67.4245 -2.14451 -0.951213 0
M  V30 643 C 68.4405 -1.09992 -1.34825 0
M  V30 644 O 69.6165 -1.42114 -1.42708 0
M  V30 645 C 66.6815 -2.67063 -2.21084 0
M  V30 646 C 65.7425 -3.86284 -1.87304 0
M  V30 647 C 64.9755 -4.36378 -3.07261 0
M  V30 648 O 65.1985 -3.85587 -4.20332 0
M  V30 649 O 64.1325 -5.28077 -2.88822 0
M  V30 650 H 67.9585 -2.99601 -0.497287 0
M  V30 651 H 65.5435 -1.48317 -0.179567 0
M  V30 652 H 67.4255 -3.00914 -2.95006 0
M  V30 653 H 66.1005 -1.84989 -2.65633 0
M  V30 654 H 65.0075 -3.57338 -1.10727 0
M  V30 655 H 66.3405 -4.6956 -1.47562 0
M  V30 656 N 67.9926 0.231505 -1.5589 0
M  V30 657 C 69.2406 0.955461 -1.78088 0
M  V30 658 C 69.5616 1.85262 -0.608533 0
M  V30 659 O 68.8316 1.92277 0.375035 0
M  V30 660 H 67.4116 0.355787 -0.656829 0
M  V30 661 H 70.0736 0.245751 -1.93344 0
M  V30 662 H 69.1696 1.56814 -2.69844 0
M  V30 663 N 69.4707 1.49531 0.497807 0
M  V30 664 C 70.7477 1.49682 1.25915 0
M  V30 665 C 71.1277 0.226339 2.09883 0
M  V30 666 O 70.4757 -0.791189 2.14365 0
M  V30 667 C 70.6857 2.77755 2.11313 0
M  V30 668 C 72.0337 3.27371 2.70395 0
M  V30 669 O 73.0577 2.78894 2.21578 0
M  V30 670 O 71.9167 4.11808 3.59272 0
M  V30 671 H 69.0107 0.599228 0.56996 0
M  V30 672 H 71.5567 1.61798 0.511816 0
M  V30 673 H 70.3287 3.61713 1.49264 0
M  V30 674 H 69.9517 2.68515 2.93233 0
M  V30 675 N 70.9488 -0.749086 1.3866 0
M  V30 676 C 72.1978 -1.50371 1.3443 0
M  V30 677 C 72.5108 -1.95503 -0.0616397 0
M  V30 678 O 73.7168 -2.70554 -0.226489 0
M  V30 679 C 72.1728 -2.71644 2.36088 0
M  V30 680 C 71.7808 -2.3352 3.82325 0
M  V30 681 C 73.5248 -3.49518 2.40909 0
M  V30 682 C 71.4318 -3.51431 4.75658 0
M  V30 683 H 70.3618 -0.564628 0.499712 0
M  V30 684 H 73.0128 -0.818449 1.64237 0
M  V30 685 H 71.3948 -3.42175 1.9933 0
M  V30 686 H 72.5688 -1.70627 4.28046 0
M  V30 687 H 70.8838 -1.6877 3.80665 0
M  V30 688 H 73.4808 -4.37197 3.07836 0
M  V30 689 H 73.8238 -3.90992 1.42937 0
M  V30 690 H 74.3568 -2.86005 2.76489 0
M  V30 691 H 71.0958 -3.15019 5.74842 0
M  V30 692 H 70.6158 -4.13352 4.34627 0
M  V30 693 H 72.2948 -4.17953 4.93887 0
M  V30 694 N 72.4269 -1.23603 -0.977757 0
M  V30 695 C 73.6549 -1.09646 -1.75458 0
M  V30 696 C 74.0699 0.351859 -1.85492 0
M  V30 697 O 73.4269 1.24327 -1.336 0
M  V30 698 C 73.4779 -1.71895 -3.18016 0
M  V30 699 O 73.1989 -3.11063 -3.08498 0
M  V30 700 C 74.6999 -1.63415 -4.12081 0
M  V30 701 H 71.9199 -0.38359 -0.550545 0
M  V30 702 H 74.4639 -1.63507 -1.22824 0
M  V30 703 H 72.6189 -1.22061 -3.67668 0
M  V30 704 H 73.0329 -3.41305 -3.9826 0
M  V30 705 H 74.5069 -2.11669 -5.09804 0
M  V30 706 H 74.9839 -0.593462 -4.35172 0
M  V30 707 H 75.5899 -2.12628 -3.68334 0
M  V30 708 N 73.905 1.17692 -1.04816 0
M  V30 709 C 75.153 1.87488 -0.754497 0
M  V30 710 C 75.474 1.81205 0.720407 0
M  V30 711 O 74.744 1.23544 1.52032 0
M  V30 712 H 73.324 0.694101 -0.276102 0
M  V30 713 H 75.986 1.42793 -1.32651 0
M  V30 714 H 75.082 2.93328 -1.06606 0
M  V30 715 N 75.3831 0.828654 1.34056 0
M  V30 716 C 76.7991 0.515135 1.51058 0
M  V30 717 C 76.9991 -0.959581 1.77184 0
M  V30 718 O 76.0551 -1.74382 1.82612 0
M  V30 719 C 77.3681 1.37963 2.67183 0
M  V30 720 C 78.9161 1.37735 2.81066 0
M  V30 721 C 79.3911 2.22645 4.00241 0
M  V30 722 N 80.8821 2.203 4.07458 0
M  V30 723 C 81.6171 2.82744 4.98842 0
M  V30 724 N 81.1131 3.54201 5.9541 0
M  V30 725 N 82.9061 2.72268 4.91759 0
M  V30 726 H 75.0571 1.78343 1.15358 0
M  V30 727 H 77.3201 0.760304 0.566252 0
M  V30 728 H 77.0261 2.42714 2.54525 0
M  V30 729 H 76.9001 1.0484 3.62338 0
M  V30 730 H 79.2871 0.337593 2.93163 0
M  V30 731 H 79.3681 1.74859 1.86703 0
M  V30 732 H 79.0121 3.26674 3.88905 0
M  V30 733 H 78.9421 1.82869 4.93829 0
M  V30 734 H 81.4331 1.68327 3.38341 0
M  V30 735 H 81.7461 3.9908 6.61782 0
M  V30 736 H 80.0911 3.58308 5.95517 0
M  V30 737 H 83.2821 2.16014 4.15278 0
M  V30 738 H 83.4551 3.21219 5.62781 0
M  V30 739 N 76.8612 -1.46375 0.584142 0
M  V30 740 C 78.1382 -1.956 0.0033388 0
M  V30 741 C 78.5182 -1.52679 -1.45782 0
M  V30 742 O 77.8662 -0.77816 -2.14842 0
M  V30 743 C 78.0762 -3.48551 0.176891 0
M  V30 744 C 79.4242 -4.24576 0.0454609 0
M  V30 745 O 80.4482 -3.56043 0.105801 0
M  V30 746 O 79.3072 -5.46427 -0.0890376 0
M  V30 747 H 76.4012 -0.825547 -0.0490066 0
M  V30 748 H 78.9472 -1.56652 0.65256 0
M  V30 749 H 77.7192 -3.72683 1.1926 0
M  V30 750 H 77.3422 -3.94332 -0.508695 0
M  V30 751 N 78.3393 -0.321999 -1.54275 0
M  V30 752 C 79.7503 0.166384 -1.85957 0
M  V30 753 C 80.1013 1.51747 -1.24367 0
M  V30 754 O 79.2263 2.09317 -0.549124 0
M  V30 755 C 79.8213 0.308681 -3.37391 0
M  V30 756 C 78.3803 0.741286 -3.69028 0
M  V30 757 C 77.5273 -0.137937 -2.76957 0
M  V30 758 H 80.4783 -0.542335 -1.49146 0
M  V30 759 H 80.4993 1.13984 -3.63026 0
M  V30 760 H 80.0113 -0.674809 -3.82188 0
M  V30 761 H 78.1123 1.73458 -3.29762 0
M  V30 762 H 78.2253 0.546118 -4.75977 0
M  V30 763 H 76.5893 0.386251 -2.51754 0
M  V30 764 H 77.3723 -1.11816 -3.2458 0
M  V30 765 N 79.8174 1.5752 -0.0501392 0
M  V30 766 C 80.7644 2.1147 0.924603 0
M  V30 767 C 81.7344 1.02182 1.30951 0
M  V30 768 O 82.9194 1.29723 1.39916 0
M  V30 769 C 80.0594 2.66337 2.19451 0
M  V30 770 C 79.1724 3.89708 1.86418 0
M  V30 771 C 78.3074 4.32893 3.07859 0
M  V30 772 C 77.3464 5.48967 2.70742 0
M  V30 773 N 76.4834 5.87211 3.84874 0
M  V30 774 H 81.3234 2.94465 0.457639 0
M  V30 775 H 78.8604 1.45531 0.214266 0
M  V30 776 H 80.8184 2.96247 2.93758 0
M  V30 777 H 79.4484 1.86141 2.63726 0
M  V30 778 H 78.5004 3.66396 1.02264 0
M  V30 779 H 79.8124 4.74074 1.55096 0
M  V30 780 H 78.9664 4.6435 3.90466 0
M  V30 781 H 77.7054 3.47336 3.42358 0
M  V30 782 H 76.7104 5.17183 1.86551 0
M  V30 783 H 77.9354 6.3624 2.37436 0
M  V30 784 H 75.8814 5.04607 4.19175 0
M  V30 785 H 75.7984 6.66266 3.57247 0
M  V30 786 H 77.0664 6.23282 4.68123 0
M  V30 787 N 81.2955 -0.223234 1.56011 0
M  V30 788 C 82.2275 -1.30006 1.88762 0
M  V30 789 C 83.2405 -1.43129 0.775746 0
M  V30 790 O 84.4295 -1.44057 1.05403 0
M  V30 791 C 81.5295 -2.67589 2.07965 0
M  V30 792 C 80.7025 -2.76434 3.38973 0
M  V30 793 C 79.7615 -3.95019 3.47629 0
M  V30 794 O 78.7875 -3.83436 4.20672 0
M  V30 795 N 79.9895 -5.09249 2.78649 0
M  V30 796 H 82.7545 -1.02238 2.81722 0
M  V30 797 H 80.3155 -0.413278 1.56536 0
M  V30 798 H 82.3075 -3.45297 2.11073 0
M  V30 799 H 80.8775 -2.87964 1.21638 0
M  V30 800 H 80.0975 -1.85216 3.47978 0
M  V30 801 H 81.3855 -2.79313 4.25278 0
M  V30 802 H 80.7835 -5.21556 2.19081 0
M  V30 803 H 79.3405 -5.85007 2.8742 0
M  V30 804 N 82.7736 -1.49793 -0.48987 0
M  V30 805 C 84.0196 -1.60078 -1.24511 0
M  V30 806 C 84.3526 -0.291608 -1.91998 0
M  V30 807 O 83.6276 0.705647 -1.81248 0
M  V30 808 C 83.9106 -2.76791 -2.30345 0
M  V30 809 C 83.7636 -4.17535 -1.67286 0
M  V30 810 C 85.0826 -2.89111 -3.31817 0
M  V30 811 H 82.2016 -0.582645 -0.451324 0
M  V30 812 H 84.8436 -1.82117 -0.541612 0
M  V30 813 H 82.9936 -2.5813 -2.90346 0
M  V30 814 H 84.6656 -4.4774 -1.11026 0
M  V30 815 H 82.9086 -4.22665 -0.976577 0
M  V30 816 H 83.5796 -4.95094 -2.44103 0
M  V30 817 H 86.0556 -3.06133 -2.81819 0
M  V30 818 H 84.9316 -3.72433 -4.03219 0
M  V30 819 H 85.1926 -1.9893 -3.94815 0
M  V30 820 N 84.2517 0.741722 -1.39055 0
M  V30 821 C 85.5007 1.49656 -1.35225 0
M  V30 822 C 85.8137 1.95533 0.0512708 0
M  V30 823 O 87.0197 2.7067 0.212138 0
M  V30 824 C 85.4757 2.70389 -2.37525 0
M  V30 825 C 85.0837 2.31489 -3.83558 0
M  V30 826 C 86.8277 3.48236 -2.42759 0
M  V30 827 C 84.7347 3.48903 -4.77515 0
M  V30 828 H 83.6647 0.56197 -0.502699 0
M  V30 829 H 86.3157 0.809727 -1.64668 0
M  V30 830 H 84.6977 3.41113 -2.01142 0
M  V30 831 H 85.8717 1.68354 -4.28945 0
M  V30 832 H 84.1867 1.66749 -3.81554 0
M  V30 833 H 86.7837 4.35558 -3.1015 0
M  V30 834 H 87.1267 3.90229 -1.45008 0
M  V30 835 H 87.6597 2.84535 -2.78002 0
M  V30 836 H 84.3987 3.11966 -5.76504 0
M  V30 837 H 83.9187 4.11041 -4.36813 0
M  V30 838 H 85.5977 4.15328 -4.96096 0
M  V30 839 N 85.7298 1.2412 0.971189 0
M  V30 840 C 86.9778 1.07668 1.71032 0
M  V30 841 C 87.2988 -0.385797 1.91146 0
M  V30 842 O 86.5688 -1.27569 1.4867 0
M  V30 843 H 85.1488 0.395429 0.633755 0
M  V30 844 H 87.8108 1.55984 1.16855 0
M  V30 845 H 86.9068 1.57195 2.69622 0
M  V30 846 N 87.2079 -1.17134 1.05439 0
M  V30 847 C 88.1549 -2.21235 0.657539 0
M  V30 848 C 89.1249 -1.62551 -0.341543 0
M  V30 849 O 90.3099 -1.89379 -0.232393 0
M  V30 850 C 87.4499 -3.45076 0.0410575 0
M  V30 851 C 86.5629 -4.18042 1.08927 0
M  V30 852 C 85.6979 -5.29376 0.439848 0
M  V30 853 C 84.7369 -5.94132 1.4722 0
M  V30 854 N 83.8739 -6.96975 0.846756 0
M  V30 855 H 88.7139 -2.54534 1.54972 0
M  V30 856 H 86.2509 -1.25028 0.775006 0
M  V30 857 H 88.2089 -4.15862 -0.33383 0
M  V30 858 H 86.8389 -3.12353 -0.814568 0
M  V30 859 H 85.8909 -3.45945 1.58196 0
M  V30 860 H 87.2029 -4.62306 1.87282 0
M  V30 861 H 86.3569 -6.06699 0.0115125 0
M  V30 862 H 85.0959 -4.86251 -0.375656 0
M  V30 863 H 84.1009 -5.15538 1.91052 0
M  V30 864 H 85.3259 -6.39337 2.28965 0
M  V30 865 H 83.2719 -6.5598 0.0518075 0
M  V30 866 H 83.1889 -7.39565 1.5678 0
M  V30 867 H 84.4569 -7.78239 0.443277 0
M  V30 868 N 88.686 -0.835752 -1.33615 0
M  V30 869 C 89.634 -0.255238 -2.31195 0
M  V30 870 C 90.628 0.61107 -1.57995 0
M  V30 871 O 91.834 0.500979 -1.72888 0
M  V30 872 H 88.209 -0.0638085 -0.749288 0
M  V30 873 H 90.18 -1.09283 -2.77669 0
M  V30 874 C 88.929 0.55754 -3.43201 0
M  V30 875 H 88.252 -0.0997553 -3.99676 0
M  V30 876 H 89.692 0.929622 -4.13683 0
M  V30 877 C 88.151 1.73515 -2.88781 0
M  V30 878 O 88.681 2.83376 -2.84712 0
M  V30 879 N 86.887 1.55603 -2.4543 0
M  V30 880 H 86.434 0.662354 -2.48939 0
M  V30 881 H 86.392 2.34545 -2.09371 0
M  V30 882 N 90.1641 1.46063 -0.591896 0
M  V30 883 C 91.4111 2.02338 -0.0809991 0
M  V30 884 C 91.7391 1.46228 1.28249 0
M  V30 885 O 90.9941 0.620818 1.85592 0
M  V30 886 C 91.2931 3.57391 0.0249813 0
M  V30 887 C 90.9591 4.32583 -1.27211 0
M  V30 888 C 89.6211 4.52844 -1.62745 0
M  V30 889 C 91.9731 4.75687 -2.13005 0
M  V30 890 C 89.3011 5.13462 -2.83855 0
M  V30 891 C 91.6531 5.37644 -3.3335 0
M  V30 892 C 90.3171 5.5613 -3.69155 0
M  V30 893 H 89.5871 0.740407 -0.0296397 0
M  V30 894 H 92.2341 1.75321 -0.770374 0
M  V30 895 H 90.5391 3.83597 0.797537 0
M  V30 896 H 92.2361 3.98621 0.436184 0
M  V30 897 H 88.8261 4.17116 -0.985499 0
M  V30 898 H 93.0101 4.59782 -1.86855 0
M  V30 899 H 88.2661 5.25965 -3.11722 0
M  V30 900 H 92.4401 5.7 -4.00092 0
M  V30 901 H 90.0671 6.0287 -4.63089 0
M  V30 902 N 91.6422 0.330177 1.54103 0
M  V30 903 C 92.8892 -0.270405 2.00686 0
M  V30 904 C 93.2172 -1.51621 1.21825 0
M  V30 905 O 92.4722 -1.93536 0.29025 0
M  V30 906 C 92.7712 -0.643134 3.51566 0
M  V30 907 C 92.4372 0.504251 4.48072 0
M  V30 908 C 91.0992 0.819163 4.74176 0
M  V30 909 C 93.4512 1.27465 5.05373 0
M  V30 910 C 90.7792 1.90708 5.5484 0
M  V30 911 C 93.1312 2.35271 5.87223 0
M  V30 912 C 91.7952 2.67336 6.11627 0
M  V30 913 H 91.0652 -0.0989482 0.734364 0
M  V30 914 H 93.7122 0.455324 1.86008 0
M  V30 915 H 92.0172 -1.44938 3.64006 0
M  V30 916 H 93.7142 -1.11949 3.85056 0
M  V30 917 H 90.3042 0.248733 4.27878 0
M  V30 918 H 94.4882 1.04462 4.85182 0
M  V30 919 H 89.7442 2.15991 5.71977 0
M  V30 920 H 93.9182 2.95405 6.30641 0
M  V30 921 H 91.5452 3.51763 6.73919 0
M  V30 922 N 93.1203 -1.57491 0.0584922 0
M  V30 923 C 94.0673 -2.11958 -0.913376 0
M  V30 924 C 95.0373 -1.02875 -1.30407 0
M  V30 925 O 96.2223 -1.30464 -1.39226 0
M  V30 926 C 93.3623 -2.67497 -2.18035 0
M  V30 927 C 92.4753 -3.90691 -1.84349 0
M  V30 928 C 91.6103 -4.3452 -3.05559 0
M  V30 929 C 90.6493 -5.50395 -2.67827 0
M  V30 930 N 89.7863 -5.89244 -3.81754 0
M  V30 931 H 94.6263 -2.94704 -0.442017 0
M  V30 932 H 92.1633 -1.45643 -0.206545 0
M  V30 933 H 94.1213 -2.978 -2.92183 0
M  V30 934 H 92.7513 -1.87537 -2.62735 0
M  V30 935 H 91.8033 -3.66934 -1.00319 0
M  V30 936 H 93.1153 -4.7489 -1.5258 0
M  V30 937 H 92.2693 -4.66414 -3.87998 0
M  V30 938 H 91.0083 -3.49147 -3.40511 0
M  V30 939 H 90.0133 -5.18165 -1.83806 0
M  V30 940 H 91.2383 -6.3749 -2.34059 0
M  V30 941 H 89.1843 -5.06823 -4.16493 0
M  V30 942 H 89.1013 -6.68151 -3.53708 0
M  V30 943 H 90.3693 -6.25756 -4.64811 0
M  V30 944 N 94.5984 0.214957 -1.56127 0
M  V30 945 C 95.8754 0.963093 -1.70247 0
M  V30 946 C 96.2554 2.02166 -0.60764 0
M  V30 947 O 95.6034 2.25244 0.384385 0
M  V30 948 C 95.8134 1.56756 -3.11815 0
M  V30 949 C 97.1614 2.0573 -3.7143 0
M  V30 950 O 98.1854 1.66637 -3.14818 0
M  V30 951 O 97.0444 2.77603 -4.70743 0
M  V30 952 H 94.1384 0.450321 -0.693643 0
M  V30 953 H 96.6844 0.206219 -1.68442 0
M  V30 954 H 95.4564 0.803533 -3.82961 0
M  V30 955 H 95.0794 2.3898 -3.17765 0
M  V30 956 N 96.0765 1.50051 0.48192 0
M  V30 957 C 97.3225 1.60736 1.2366 0
M  V30 958 C 97.6555 0.301786 1.91841 0
M  V30 959 O 96.9305 -0.696025 1.8162 0
M  V30 960 C 97.2135 2.78009 2.28874 0
M  V30 961 C 97.0665 4.18416 1.65069 0
M  V30 962 C 98.3855 2.90867 3.30279 0
M  V30 963 H 95.5045 0.585031 0.448228 0
M  V30 964 H 98.1465 1.82402 0.531946 0
M  V30 965 H 96.2965 2.59667 2.88973 0
M  V30 966 H 97.9685 4.48322 1.0865 0
M  V30 967 H 96.2115 4.23177 0.954148 0
M  V30 968 H 96.8825 4.96381 2.41474 0
M  V30 969 H 99.3585 3.07623 2.80191 0
M  V30 970 H 98.2345 3.74566 4.01238 0
M  V30 971 H 98.4955 2.01021 3.93755 0
M  V30 972 N 97.5546 -0.734337 1.39446 0
M  V30 973 C 98.5176 -1.83004 1.37994 0
M  V30 974 C 99.5176 -1.58397 0.276938 0
M  V30 975 O 100.708 -1.65785 0.534875 0
M  V30 976 C 97.8396 -3.20802 1.1532 0
M  V30 977 H 99.0326 -1.85694 2.35494 0
M  V30 978 H 96.5856 -0.938059 1.25021 0
M  V30 979 H 97.3206 -3.23772 0.185036 0
M  V30 980 H 97.1056 -3.4006 1.95197 0
M  V30 981 H 98.5956 -4.00862 1.17046 0
M  V30 982 N 99.0327 -1.24633 -0.964593 0
M  V30 983 C 100.444 -1.08045 -1.5226 0
M  V30 984 C 100.795 0.347116 -1.93105 0
M  V30 985 O 99.9197 1.23588 -1.77637 0
M  V30 986 C 100.515 -1.95514 -2.76695 0
M  V30 987 C 99.0737 -1.8314 -3.28841 0
M  V30 988 C 98.2207 -1.90262 -2.01732 0
M  V30 989 H 101.172 -1.38064 -0.782553 0
M  V30 990 H 101.193 -1.48925 -3.50145 0
M  V30 991 H 100.705 -2.99407 -2.46936 0
M  V30 992 H 98.8057 -0.82092 -3.63444 0
M  V30 993 H 98.9187 -2.67406 -3.97531 0
M  V30 994 H 97.2827 -1.34027 -2.16584 0
M  V30 995 H 98.0657 -2.9574 -1.74334 0
M  V30 996 N 100.511 1.16574 -1.06058 0
M  V30 997 C 101.751 1.88723 -0.78504 0
M  V30 998 C 102.115 1.79706 0.676006 0
M  V30 999 O 103.316 2.46757 1.06603 0
M  V30 1000 C 101.587 3.34338 -1.26304 0
M  V30 1001 S 103.146 4.24366 -1.1162 0
M  V30 1002 H 99.9638 0.651448 -0.284846 0
M  V30 1003 H 102.566 1.40732 -1.35701 0
M  V30 1004 H 101.27 3.38439 -2.32136 0
M  V30 1005 H 100.801 3.87378 -0.685719 0
M  V30 1006 H 102.816 4.96179 -0.0456539 0
M  V30 1007 N 101.989 0.842826 1.3317 0
M  V30 1008 C 103.217 0.454055 2.01856 0
M  V30 1009 C 103.632 -0.94587 1.63397 0
M  V30 1010 O 102.989 -1.61534 0.849302 0
M  V30 1011 C 103.04 0.569715 3.56982 0
M  V30 1012 O 102.761 1.91448 3.94055 0
M  V30 1013 C 104.262 0.178412 4.42941 0
M  V30 1014 H 101.482 0.17979 0.646465 0
M  V30 1015 H 104.026 1.1365 1.70012 0
M  V30 1016 H 102.181 -0.0648587 3.87346 0
M  V30 1017 H 102.595 1.90282 4.88767 0
M  V30 1018 H 104.069 0.310376 5.51127 0
M  V30 1019 H 104.546 -0.880056 4.30293 0
M  V30 1020 H 105.152 0.787579 4.17944 0
M  V30 1021 N 103.467 -1.45747 0.599634 0
M  V30 1022 C 104.744 -1.95585 0.0240846 0
M  V30 1023 C 105.124 -1.54217 -1.44154 0
M  V30 1024 O 104.472 -0.800903 -2.14004 0
M  V30 1025 C 104.682 -3.48344 0.21385 0
M  V30 1026 C 106.03 -4.24504 0.0904902 0
M  V30 1027 O 107.054 -3.55911 0.143558 0
M  V30 1028 O 105.913 -5.46491 -0.0310766 0
M  V30 1029 H 103.007 -0.82602 -0.0402478 0
M  V30 1030 H 105.553 -1.55951 0.669139 0
M  V30 1031 H 104.325 -3.71397 1.23206 0
M  V30 1032 H 103.948 -3.9485 -0.466842 0
M  V30 1033 N 104.945 -0.338344 -1.53925 0
M  V30 1034 C 106.17 0.263987 -2.05713 0
M  V30 1035 C 106.595 1.43847 -1.21201 0
M  V30 1036 O 105.953 1.79904 -0.224535 0
M  V30 1037 C 106.001 0.662 -3.54471 0
M  V30 1038 O 105.105 1.76265 -3.72833 0
M  V30 1039 H 104.446 0.0448722 -0.662482 0
M  V30 1040 H 106.976 -0.491048 -1.9862 0
M  V30 1041 H 106.986 0.940594 -3.9701 0
M  V30 1042 H 105.661 -0.196937 -4.15433 0
M  V30 1043 H 104.238 1.48173 -3.42198 0
M  V30 1044 N 106.423 1.57458 -0.0668435 0
M  V30 1045 C 107.834 1.80776 0.466558 0
M  V30 1046 C 108.185 0.980361 1.69951 0
M  V30 1047 O 107.31 0.201441 2.1546 0
M  V30 1048 C 107.905 3.27881 0.85321 0
M  V30 1049 C 106.464 3.52062 1.3315 0
M  V30 1050 C 105.611 2.75513 0.314264 0
M  V30 1051 H 108.562 1.5598 -0.292588 0
M  V30 1052 H 108.583 3.39659 1.715 0
M  V30 1053 H 108.095 3.88075 -0.0443439 0
M  V30 1054 H 106.196 2.97167 2.24772 0
M  V30 1055 H 106.309 4.60762 1.31285 0
M  V30 1056 H 104.673 2.42123 0.790492 0
M  V30 1057 H 105.456 3.38442 -0.575477 0
M  V30 1058 N 107.901 -0.206675 1.56239 0
M  V30 1059 C 108.811 -1.27686 1.96808 0
M  V30 1060 C 109.827 -1.50455 0.874035 0
M  V30 1061 O 111.003 -1.63295 1.17884 0
M  V30 1062 C 108.068 -2.60358 2.28942 0
M  V30 1063 C 107.129 -2.45762 3.51994 0
M  V30 1064 C 106.362 -3.72108 3.82585 0
M  V30 1065 O 106.585 -4.75776 3.14631 0
M  V30 1066 O 105.519 -3.6833 4.76043 0
M  V30 1067 H 109.345 -0.962593 2.88041 0
M  V30 1068 H 106.93 -0.410746 1.43643 0
M  V30 1069 H 108.812 -3.38687 2.50737 0
M  V30 1070 H 107.487 -2.91435 1.4088 0
M  V30 1071 H 106.394 -1.65584 3.35459 0
M  V30 1072 H 107.727 -2.19621 4.40486 0
M  V30 1073 N 109.379 -1.50304 -0.473955 0
M  V30 1074 C 110.626 -1.6115 -1.22625 0
M  V30 1075 C 110.954 -0.310517 -1.92005 0
M  V30 1076 O 110.209 0.703419 -1.82621 0
M  V30 1077 C 110.508 -2.73938 -2.29549 0
M  V30 1078 C 110.174 -4.14519 -1.7744 0
M  V30 1079 C 108.836 -4.5277 -1.62949 0
M  V30 1080 C 111.188 -5.02392 -1.3875 0
M  V30 1081 C 108.516 -5.76639 -1.08187 0
M  V30 1082 C 110.868 -6.26805 -0.854309 0
M  V30 1083 C 109.532 -6.63861 -0.696011 0
M  V30 1084 H 108.802 -0.589691 -0.448715 0
M  V30 1085 H 111.449 -1.84228 -0.522705 0
M  V30 1086 H 109.754 -2.44937 -3.05799 0
M  V30 1087 H 111.451 -2.79534 -2.87509 0
M  V30 1088 H 108.041 -3.8434 -1.89685 0
M  V30 1089 H 112.225 -4.73474 -1.4878 0
M  V30 1090 H 107.481 -6.04027 -0.946666 0
M  V30 1091 H 111.655 -6.94258 -0.545843 0
M  V30 1092 H 109.282 -7.59722 -0.26952 0
M  V30 1093 N 110.857 0.726932 -1.39834 0
M  V30 1094 C 112.087 1.51393 -1.40583 0
M  V30 1095 C 112.495 1.892 -0.000740625 0
M  V30 1096 O 111.838 1.55189 0.982951 0
M  V30 1097 C 111.9 2.82588 -2.22226 0
M  V30 1098 C 111.564 2.67169 -3.70769 0
M  V30 1099 C 112.561 2.3518 -4.63666 0
M  V30 1100 C 110.246 2.83788 -4.14451 0
M  V30 1101 C 112.24 2.20002 -5.98229 0
M  V30 1102 C 109.927 2.68229 -5.49087 0
M  V30 1103 C 110.925 2.36382 -6.4079 0
M  V30 1104 O 110.613 2.2093 -7.72946 0
M  V30 1105 H 110.345 0.474168 -0.48181 0
M  V30 1106 H 112.899 0.905247 -1.84376 0
M  V30 1107 H 111.129 3.45746 -1.73195 0
M  V30 1108 H 112.818 3.44247 -2.15055 0
M  V30 1109 H 113.584 2.21984 -4.31217 0
M  V30 1110 H 109.463 3.07566 -3.43401 0
M  V30 1111 H 113.007 1.95067 -6.69772 0
M  V30 1112 H 108.904 2.81006 -5.81125 0
M  V30 1113 H 109.672 2.35937 -7.83757 0
M  V30 1114 N 112.336 1.25143 0.95797 0
M  V30 1115 C 113.584 1.09476 1.69881 0
M  V30 1116 C 113.905 -0.365502 1.91544 0
M  V30 1117 O 113.175 -1.25985 1.50015 0
M  V30 1118 H 111.755 0.402128 0.629525 0
M  V30 1119 H 114.417 1.57214 1.15194 0
M  V30 1120 H 113.513 1.60046 2.6794 0
M  V30 1121 N 113.814 -1.1601 1.06675 0
M  V30 1122 C 114.761 -2.20525 0.680967 0
M  V30 1123 C 115.731 -1.62904 -0.324283 0
M  V30 1124 O 116.916 -1.89615 -0.212294 0
M  V30 1125 C 114.056 -3.45013 0.0776551 0
M  V30 1126 C 113.169 -4.16863 1.13355 0
M  V30 1127 C 112.304 -5.2888 0.49597 0
M  V30 1128 C 111.343 -5.92537 1.53513 0
M  V30 1129 N 110.48 -6.96038 0.920631 0
M  V30 1130 H 115.32 -2.52876 1.57663 0
M  V30 1131 H 112.857 -1.24199 0.788223 0
M  V30 1132 H 114.815 -4.16193 -0.289704 0
M  V30 1133 H 113.445 -3.132 -0.781393 0
M  V30 1134 H 112.497 -3.44248 1.61857 0
M  V30 1135 H 113.809 -4.60294 1.92174 0
M  V30 1136 H 112.963 -6.06653 0.0758604 0
M  V30 1137 H 111.702 -4.86622 -0.324062 0
M  V30 1138 H 110.707 -5.13482 1.9651 0
M  V30 1139 H 111.932 -6.36873 2.35733 0
M  V30 1140 H 109.878 -6.55888 0.12138 0
M  V30 1141 H 109.795 -7.3786 1.64616 0
M  V30 1142 H 111.063 -7.77725 0.525795 0
M  V30 1143 N 115.292 -0.849877 -1.32721 0
M  V30 1144 C 116.539 -0.450923 -1.97416 0
M  V30 1145 C 116.867 0.992376 -1.67279 0
M  V30 1146 O 116.122 1.71048 -0.950845 0
M  V30 1147 C 116.421 -0.631272 -3.51781 0
M  V30 1148 C 116.087 -2.04432 -4.01894 0
M  V30 1149 C 114.749 -2.4308 -4.1529 0
M  V30 1150 C 117.101 -2.96679 -4.28522 0
M  V30 1151 C 114.429 -3.73257 -4.52654 0
M  V30 1152 C 116.781 -4.26349 -4.67343 0
M  V30 1153 C 115.445 -4.64939 -4.78945 0
M  V30 1154 H 114.715 -0.165004 -0.722395 0
M  V30 1155 H 117.362 -1.07901 -1.58207 0
M  V30 1156 H 115.667 0.0800767 -3.91718 0
M  V30 1157 H 117.364 -0.302709 -3.99856 0
M  V30 1158 H 113.954 -1.73419 -3.91949 0
M  V30 1159 H 118.138 -2.68054 -4.17685 0
M  V30 1160 H 113.394 -4.02946 -4.59831 0
M  V30 1161 H 117.568 -4.97895 -4.86902 0
M  V30 1162 H 115.195 -5.65855 -5.07654 0
M  V30 1163 N 116.77 1.45427 -0.607355 0
M  V30 1164 C 117.717 2.3053 0.111625 0
M  V30 1165 C 118.687 1.4209 0.860216 0
M  V30 1166 O 119.872 1.71019 0.845998 0
M  V30 1167 C 117.012 3.26992 1.10319 0
M  V30 1168 C 116.125 4.30535 0.355493 0
M  V30 1169 C 115.26 5.14105 1.33676 0
M  V30 1170 C 114.299 6.09376 0.576862 0
M  V30 1171 N 113.436 6.85727 1.5074 0
M  V30 1172 H 118.276 2.91477 -0.620093 0
M  V30 1173 H 115.813 1.43631 -0.317594 0
M  V30 1174 H 117.771 3.81385 1.6912 0
M  V30 1175 H 116.401 2.67799 1.80232 0
M  V30 1176 H 115.453 3.78805 -0.348023 0
M  V30 1177 H 116.765 4.98235 -0.237423 0
M  V30 1178 H 115.919 5.72897 1.99684 0
M  V30 1179 H 114.658 4.46423 1.9636 0
M  V30 1180 H 113.663 5.49715 -0.0968519 0
M  V30 1181 H 114.888 6.79085 -0.0449341 0
M  V30 1182 H 112.834 6.20735 2.12189 0
M  V30 1183 H 112.751 7.49778 0.967913 0
M  V30 1184 H 114.019 7.4906 2.15706 0
M  V30 1185 N 118.248 0.346503 1.53744 0
M  V30 1186 C 119.158 -0.517293 2.28826 0
M  V30 1187 C 120.174 -1.10935 1.3405 0
M  V30 1188 O 121.35 -1.1244 1.6709 0
M  V30 1189 C 118.415 -1.65098 3.04866 0
M  V30 1190 C 117.476 -1.0884 4.15274 0
M  V30 1191 C 116.709 -2.16806 4.87679 0
M  V30 1192 O 116.932 -3.3758 4.59778 0
M  V30 1193 O 115.866 -1.80934 5.74061 0
M  V30 1194 H 119.692 0.0931396 3.03557 0
M  V30 1195 H 117.277 0.111458 1.48984 0
M  V30 1196 H 119.159 -2.31053 3.5241 0
M  V30 1197 H 117.834 -2.24717 2.32989 0
M  V30 1198 H 116.741 -0.3933 3.72027 0
M  V30 1199 H 118.074 -0.537036 4.89261 0
M  V30 1200 N 119.726 -1.57421 0.075193 0
M  V30 1201 C 120.974 -1.93236 -0.591974 0
M  V30 1202 C 121.295 -0.956241 -1.69944 0
M  V30 1203 O 120.565 -0.00494792 -1.95899 0
M  V30 1204 H 119.145 -0.713355 -0.22166 0
M  V30 1205 H 121.807 -1.9444 0.133848 0
M  V30 1206 H 120.903 -2.95131 -1.01509 0
M  V30 1207 N 121.204 0.198386 -1.56346 0
M  V30 1208 C 122.45 0.920648 -1.80698 0
M  V30 1209 C 122.783 1.83045 -0.648697 0
M  V30 1210 O 122.058 1.91308 0.350925 0
M  V30 1211 C 122.341 1.73971 -3.15287 0
M  V30 1212 C 122.194 0.85485 -4.41602 0
M  V30 1213 C 123.513 2.71296 -3.46535 0
M  V30 1214 H 120.632 0.333261 -0.657348 0
M  V30 1215 H 123.274 0.188198 -1.89066 0
M  V30 1216 H 121.424 2.36416 -3.08285 0
M  V30 1217 H 123.096 0.245362 -4.60647 0
M  V30 1218 H 121.339 0.161398 -4.335 0
M  V30 1219 H 122.01 1.46286 -5.32264 0
M  V30 1220 H 124.486 2.18983 -3.53816 0
M  V30 1221 H 123.362 3.2569 -4.41834 0
M  V30 1222 H 123.623 3.5018 -2.69864 0
M  V30 1223 N 122.682 1.50554 0.465978 0
M  V30 1224 C 123.645 1.69233 1.54574 0
M  V30 1225 C 124.645 0.562901 1.50626 0
M  V30 1226 O 125.835 0.830016 1.53155 0
M  V30 1227 C 122.967 1.7223 2.94193 0
M  V30 1228 H 124.16 2.65571 1.39327 0
M  V30 1229 H 121.713 1.40111 0.692711 0
M  V30 1230 H 122.448 0.77603 3.14878 0
M  V30 1231 H 122.233 2.54285 2.98466 0
M  V30 1232 H 123.723 1.88618 3.72576 0
M  V30 1233 N 124.16 -0.719506 1.40217 0
M  V30 1234 C 125.385 -1.51371 1.4178 0
M  V30 1235 C 125.81 -1.88091 0.0182355 0
M  V30 1236 O 125.168 -1.52997 -0.972707 0
M  V30 1237 C 125.216 -2.768 2.31115 0
M  V30 1238 O 124.32 -3.73349 1.7517 0
M  V30 1239 H 123.661 -0.456529 0.482159 0
M  V30 1240 H 126.191 -0.88644 1.844 0
M  V30 1241 H 126.201 -3.25371 2.46167 0
M  V30 1242 H 124.876 -2.49407 3.3282 0
M  V30 1243 H 123.453 -3.32179 1.69444 0
M  V30 1244 N 125.638 -1.25649 -0.95132 0
M  V30 1245 C 126.886 -1.10375 -1.69298 0
M  V30 1246 C 127.207 0.355339 -1.91735 0
M  V30 1247 O 126.477 1.25188 -1.50681 0
M  V30 1248 H 125.057 -0.405461 -0.627384 0
M  V30 1249 H 127.719 -1.57823 -1.14358 0
M  V30 1250 H 126.815 -1.61465 -2.67087 0
M  V30 1251 N 127.117 1.15442 -1.07289 0
M  V30 1252 C 128.065 2.22225 -0.686952 0
M  V30 1253 C 129.059 1.66688 0.30193 0
M  V30 1254 O 130.265 1.79236 0.165712 0
M  V30 1255 H 126.64 0.723783 -0.204064 0
M  V30 1256 H 128.611 2.52056 -1.5972 0
M  V30 1257 C 127.36 3.47556 -0.100149 0
M  V30 1258 H 126.683 3.90612 -0.852211 0
M  V30 1259 H 128.123 4.23794 0.132235 0
M  V30 1260 C 126.582 3.16337 1.159 0
M  V30 1261 O 127.112 3.33074 2.24555 0
M  V30 1262 N 125.318 2.70385 1.06491 0
M  V30 1263 H 124.865 2.56966 0.180668 0
M  V30 1264 H 124.823 2.49871 1.90819 0
M  V30 1265 N 128.595 0.856903 1.32268 0
M  V30 1266 C 129.525 0.31858 2.31316 0
M  V30 1267 C 130.506 -0.583487 1.59779 0
M  V30 1268 O 131.691 -0.503259 1.87566 0
M  V30 1269 C 128.821 -0.491979 3.43798 0
M  V30 1270 C 127.775 0.315849 4.26833 0
M  V30 1271 C 127.101 -0.619586 5.31098 0
M  V30 1272 C 128.401 1.54282 4.98993 0
M  V30 1273 H 130.095 1.14621 2.76591 0
M  V30 1274 H 127.641 0.552613 1.32974 0
M  V30 1275 H 129.594 -0.879012 4.1213 0
M  V30 1276 H 128.318 -1.35299 2.97257 0
M  V30 1277 H 126.977 0.684664 3.6015 0
M  V30 1278 H 126.625 -1.47751 4.8081 0
M  V30 1279 H 126.325 -0.0830621 5.87541 0
M  V30 1280 H 127.849 -1.00375 6.02293 0
M  V30 1281 H 129.263 1.22796 5.59995 0
M  V30 1282 H 127.66 2.01745 5.65172 0
M  V30 1283 H 128.73 2.30285 4.26728 0
M  V30 1284 N 130.073 -1.45103 0.615059 0
M  V30 1285 C 131.021 -2.32331 -0.111791 0
M  V30 1286 C 132.015 -1.46409 -0.852102 0
M  V30 1287 O 133.221 -1.62849 -0.766821 0
M  V30 1288 H 129.596 -0.749993 -0.0549072 0
M  V30 1289 H 131.567 -2.91407 0.642225 0
M  V30 1290 C 130.316 -3.3015 -1.09071 0
M  V30 1291 H 129.639 -3.96265 -0.530485 0
M  V30 1292 H 131.079 -3.93898 -1.56908 0
M  V30 1293 C 129.538 -2.57875 -2.168 0
M  V30 1294 O 130.068 -2.36567 -3.24652 0
M  V30 1295 N 128.274 -2.17884 -1.92289 0
M  V30 1296 H 127.821 -2.35413 -1.04587 0
M  V30 1297 H 127.779 -1.6985 -2.64572 0
M  V30 1298 N 131.551 -0.354651 -1.53558 0
M  V30 1299 C 132.779 0.239515 -2.05509 0
M  V30 1300 C 133.194 1.4333 -1.2289 0
M  V30 1301 O 132.551 1.80538 -0.266899 0
M  V30 1302 C 132.602 0.643719 -3.55723 0
M  V30 1303 O 132.323 -0.502602 -4.35207 0
M  V30 1304 C 133.824 1.29743 -4.23889 0
M  V30 1305 H 131.044 0.0442697 -0.669538 0
M  V30 1306 H 133.588 -0.509856 -1.98042 0
M  V30 1307 H 131.743 1.34302 -3.63376 0
M  V30 1308 H 132.157 -0.178172 -5.24197 0
M  V30 1309 H 133.631 1.53091 -5.30346 0
M  V30 1310 H 134.108 2.25441 -3.76926 0
M  V30 1311 H 134.714 0.639865 -4.20459 0
M  V30 1312 N 133.029 1.57378 -0.0835403 0
M  V30 1313 C 133.962 2.09016 0.915833 0
M  V30 1314 C 134.94 0.997993 1.2837 0
M  V30 1315 O 136.124 1.27219 1.39096 0
M  V30 1316 C 133.251 2.55757 2.22049 0
M  V30 1317 C 132.297 3.76522 2.00333 0
M  V30 1318 S 133.13 5.20661 1.25191 0
M  V30 1319 C 134.286 5.70743 2.56912 0
M  V30 1320 H 134.519 2.93457 0.476492 0
M  V30 1321 H 132.052 1.53856 0.129493 0
M  V30 1322 H 134.01 2.83346 2.97027 0
M  V30 1323 H 132.671 1.71564 2.63106 0
M  V30 1324 H 131.864 4.07256 2.96916 0
M  V30 1325 H 131.466 3.49367 1.33488 0
M  V30 1326 H 133.758 5.78304 3.52946 0
M  V30 1327 H 134.701 6.6944 2.30772 0
M  V30 1328 H 135.109 4.98616 2.64655 0
M  V30 1329 N 134.507 -0.190092 1.56449 0
M  V30 1330 C 135.754 -0.909705 1.80916 0
M  V30 1331 C 136.082 -1.83047 0.657583 0
M  V30 1332 O 135.337 -1.92428 -0.356356 0
M  V30 1333 C 135.636 -1.75382 3.1141 0
M  V30 1334 C 135.302 -0.983606 4.40041 0
M  V30 1335 C 133.964 -0.770967 4.74984 0
M  V30 1336 C 136.316 -0.442024 5.19322 0
M  V30 1337 C 133.644 -0.0053448 5.867 0
M  V30 1338 C 135.996 0.310412 6.31838 0
M  V30 1339 C 134.66 0.534023 6.6536 0
M  V30 1340 H 133.93 -0.332885 0.662019 0
M  V30 1341 H 136.577 -0.175762 1.90692 0
M  V30 1342 H 134.882 -2.55659 2.96893 0
M  V30 1343 H 136.579 -2.31331 3.27547 0
M  V30 1344 H 133.169 -1.15936 4.12622 0
M  V30 1345 H 137.353 -0.593693 4.92736 0
M  V30 1346 H 132.609 0.177825 6.11141 0
M  V30 1347 H 136.783 0.737419 6.92485 0
M  V30 1348 H 134.41 1.12918 7.51767 0
M  V30 1349 N 135.985 -1.50799 -0.457987 0
M  V30 1350 C 136.895 -1.73426 -1.57989 0
M  V30 1351 C 137.911 -0.617745 -1.62665 0
M  V30 1352 O 139.087 -0.897614 -1.80291 0
M  V30 1353 C 136.152 -1.83557 -2.94122 0
M  V30 1354 C 135.213 -3.07345 -2.99729 0
M  V30 1355 C 134.446 -3.16983 -4.29368 0
M  V30 1356 O 134.669 -2.33077 -5.20607 0
M  V30 1357 O 133.603 -4.09812 -4.40837 0
M  V30 1358 H 137.429 -2.68555 -1.41817 0
M  V30 1359 H 135.014 -1.35052 -0.638859 0
M  V30 1360 H 136.896 -1.92326 -3.74952 0
M  V30 1361 H 135.571 -0.916137 -3.10465 0
M  V30 1362 H 134.478 -3.04068 -2.1793 0
M  V30 1363 H 135.811 -3.9891 -2.88326 0
M  V30 1364 N 137.463 0.71206 -1.40597 0
M  V30 1365 C 138.693 1.49894 -1.42181 0
M  V30 1366 C 139.101 1.89189 -0.0208078 0
M  V30 1367 O 138.444 1.56223 0.966436 0
M  V30 1368 C 138.506 2.80215 -2.25211 0
M  V30 1369 C 138.17 2.63221 -3.73582 0
M  V30 1370 C 139.167 2.30249 -4.66135 0
M  V30 1371 C 136.852 2.79376 -4.17438 0
M  V30 1372 C 138.846 2.13645 -6.00529 0
M  V30 1373 C 136.533 2.6239 -5.51901 0
M  V30 1374 C 137.531 2.29573 -6.43262 0
M  V30 1375 O 137.219 2.12719 -7.75246 0
M  V30 1376 H 136.951 0.469031 -0.486812 0
M  V30 1377 H 139.505 0.88564 -1.85326 0
M  V30 1378 H 137.735 3.4389 -1.76852 0
M  V30 1379 H 139.424 3.41947 -2.18694 0
M  V30 1380 H 140.19 2.17398 -4.33547 0
M  V30 1381 H 136.069 3.03906 -3.46644 0
M  V30 1382 H 139.613 1.87953 -6.71803 0
M  V30 1383 H 135.51 2.74826 -5.84073 0
M  V30 1384 H 136.278 2.27611 -7.86216 0
M  V30 1385 N 138.941 1.26152 0.944643 0
M  V30 1386 C 140.169 1.14259 1.72489 0
M  V30 1387 C 140.584 -0.302555 1.8636 0
M  V30 1388 O 139.941 -1.20741 1.36849 0
M  V30 1389 C 139.992 1.80266 3.13347 0
M  V30 1390 O 139.713 3.19133 3.00143 0
M  V30 1391 C 141.214 1.74283 4.07603 0
M  V30 1392 H 138.434 0.398051 0.540181 0
M  V30 1393 H 140.978 1.66706 1.18446 0
M  V30 1394 H 139.133 1.31766 3.64303 0
M  V30 1395 H 139.547 3.51744 3.89071 0
M  V30 1396 H 141.021 2.25111 5.04013 0
M  V30 1397 H 141.498 0.708631 4.33446 0
M  V30 1398 H 142.104 2.22319 3.62567 0
M  V30 1399 N 140.419 -1.14872 1.07899 0
M  V30 1400 C 141.666 -1.85789 0.805532 0
M  V30 1401 C 141.994 -1.82649 -0.668561 0
M  V30 1402 O 141.249 -1.24858 -1.50695 0
M  V30 1403 C 141.548 -3.34223 1.26609 0
M  V30 1404 C 141.214 -3.57555 2.74709 0
M  V30 1405 C 139.876 -3.63631 3.1516 0
M  V30 1406 C 142.228 -3.66803 3.70277 0
M  V30 1407 C 139.556 -3.76473 4.49983 0
M  V30 1408 C 141.908 -3.8117 5.04869 0
M  V30 1409 C 140.572 -3.85494 5.44932 0
M  V30 1410 H 139.842 -0.679849 0.294765 0
M  V30 1411 H 142.489 -1.3572 1.35101 0
M  V30 1412 H 140.794 -3.86536 0.640103 0
M  V30 1413 H 142.491 -3.87511 1.03132 0
M  V30 1414 H 139.081 -3.5347 2.42398 0
M  V30 1415 H 143.265 -3.61404 3.40149 0
M  V30 1416 H 138.521 -3.7808 4.80484 0
M  V30 1417 H 142.695 -3.87268 5.78789 0
M  V30 1418 H 140.322 -3.95197 6.49403 0
M  V30 1419 N 141.898 -0.863906 -1.31812 0
M  V30 1420 C 143.175 -0.39275 -1.91616 0
M  V30 1421 C 143.555 1.12461 -1.7865 0
M  V30 1422 O 142.903 1.95045 -1.19037 0
M  V30 1423 C 143.113 -0.867385 -3.38049 0
M  V30 1424 C 144.461 -0.889966 -4.15168 0
M  V30 1425 O 145.485 -0.812635 -3.46806 0
M  V30 1426 O 144.344 -1.00079 -5.37258 0
M  V30 1427 H 141.438 -0.116358 -0.818773 0
M  V30 1428 H 143.984 -0.951418 -1.40521 0
M  V30 1429 H 142.756 -1.91081 -3.41473 0
M  V30 1430 H 142.379 -0.286687 -3.96565 0
M  V30 1431 N 143.376 1.44774 -0.622745 0
M  V30 1432 C 144.606 2.06187 -0.130532 0
M  V30 1433 C 145.014 1.46547 1.19669 0
M  V30 1434 O 144.357 0.579636 1.74316 0
M  V30 1435 C 144.419 3.59437 0.0674983 0
M  V30 1436 C 144.083 4.41496 -1.18026 0
M  V30 1437 C 145.08 4.75512 -2.102 0
M  V30 1438 C 142.765 4.82007 -1.41333 0
M  V30 1439 C 144.759 5.48912 -3.23998 0
M  V30 1440 C 142.446 5.55157 -2.55429 0
M  V30 1441 C 143.444 5.88528 -3.46589 0
M  V30 1442 O 143.132 6.60191 -4.58697 0
M  V30 1443 H 142.864 0.672045 -0.0730162 0
M  V30 1444 H 145.418 1.86768 -0.854802 0
M  V30 1445 H 143.648 3.77314 0.846825 0
M  V30 1446 H 145.337 4.02642 0.513209 0
M  V30 1447 H 146.103 4.4476 -1.93425 0
M  V30 1448 H 141.982 4.55457 -0.712709 0
M  V30 1449 H 145.526 5.74877 -3.95174 0
M  V30 1450 H 141.423 5.85324 -2.72151 0
M  V30 1451 H 142.191 6.78654 -4.57571 0
M  V30 1452 N 144.854 0.36279 1.53368 0
M  V30 1453 C 145.786 -0.519668 2.23231 0
M  V30 1454 C 146.799 -1.04844 1.24546 0
M  V30 1455 O 147.988 -0.955296 1.50786 0
M  V30 1456 C 145.088 -1.72995 2.9142 0
M  V30 1457 C 144.261 -1.33316 4.16588 0
M  V30 1458 C 143.32 -2.40521 4.68013 0
M  V30 1459 O 142.346 -2.03027 5.3176 0
M  V30 1460 N 143.548 -3.72065 4.45587 0
M  V30 1461 H 146.313 0.078751 2.99597 0
M  V30 1462 H 143.874 0.187833 1.60807 0
M  V30 1463 H 145.866 -2.44184 3.22733 0
M  V30 1464 H 144.436 -2.2353 2.18525 0
M  V30 1465 H 143.656 -0.451236 3.91609 0
M  V30 1466 H 144.944 -1.04432 4.97967 0
M  V30 1467 H 144.342 -4.05304 3.94646 0
M  V30 1468 H 142.899 -4.39366 4.81457 0
M  V30 1469 N 146.332 -1.57332 0.0918853 0
M  V30 1470 C 147.265 -2.09499 -0.904735 0
M  V30 1471 C 148.243 -1.00479 -1.27839 0
M  V30 1472 O 149.427 -1.27954 -1.38419 0
M  V30 1473 C 146.554 -2.56931 -2.2069 0
M  V30 1474 C 145.6 -3.77579 -1.98334 0
M  V30 1475 S 146.433 -5.21317 -1.22428 0
M  V30 1476 C 147.589 -5.72097 -2.53882 0
M  V30 1477 H 147.822 -2.93705 -0.460922 0
M  V30 1478 H 145.355 -1.53923 -0.121332 0
M  V30 1479 H 147.313 -2.84917 -2.95521 0
M  V30 1480 H 145.974 -1.72956 -2.62192 0
M  V30 1481 H 145.167 -4.08824 -2.94752 0
M  V30 1482 H 144.769 -3.5007 -1.31633 0
M  V30 1483 H 147.061 -5.80168 -3.49874 0
M  V30 1484 H 148.004 -6.70654 -2.27219 0
M  V30 1485 H 148.412 -5.00012 -2.62007 0
M  V30 1486 N 147.81 0.181792 -1.56548 0
M  V30 1487 C 149.038 0.915947 -1.85521 0
M  V30 1488 C 149.453 1.76282 -0.676016 0
M  V30 1489 O 148.81 1.79012 0.355077 0
M  V30 1490 C 148.861 1.80126 -3.13427 0
M  V30 1491 O 148.582 0.988562 -4.26801 0
M  V30 1492 C 150.083 2.64597 -3.55673 0
M  V30 1493 H 147.303 0.26661 -0.61576 0
M  V30 1494 H 149.847 0.185039 -2.03661 0
M  V30 1495 H 148.002 2.48563 -2.97145 0
M  V30 1496 H 148.416 1.59308 -4.99721 0
M  V30 1497 H 149.89 3.2235 -4.48101 0
M  V30 1498 H 150.367 3.38958 -2.79292 0
M  V30 1499 H 150.973 2.0151 -3.74532 0
M  V30 1500 N 149.288 1.51039 0.449983 0
M  V30 1501 C 150.699 1.557 1.03026 0
M  V30 1502 C 151.05 0.372939 1.92623 0
M  V30 1503 O 150.175 -0.511771 2.10261 0
M  V30 1504 C 150.77 2.82171 1.87523 0
M  V30 1505 C 149.329 2.89444 2.40622 0
M  V30 1506 C 148.476 2.50228 1.19504 0
M  V30 1507 H 151.427 1.56999 0.231745 0
M  V30 1508 H 151.448 2.65219 2.72835 0
M  V30 1509 H 150.96 3.68331 1.22286 0
M  V30 1510 H 149.061 2.07685 3.0935 0
M  V30 1511 H 149.174 3.92816 2.74285 0
M  V30 1512 H 147.538 2.03139 1.53644 0
M  V30 1513 H 148.321 3.38719 0.558972 0
M  V30 1514 N 150.766 -0.704594 1.40972 0
M  V30 1515 C 151.994 -1.49354 1.43182 0
M  V30 1516 C 152.409 -1.88768 0.0345508 0
M  V30 1517 O 151.766 -1.56184 -0.944081 0
M  V30 1518 C 151.817 -2.76187 2.33244 0
M  V30 1519 O 151.538 -2.38436 3.67532 0
M  V30 1520 C 153.039 -3.7 2.44162 0
M  V30 1521 H 150.259 -0.460559 0.487982 0
M  V30 1522 H 152.803 -0.868261 1.85153 0
M  V30 1523 H 150.958 -3.34974 1.94606 0
M  V30 1524 H 151.372 -3.20126 4.15475 0
M  V30 1525 H 152.846 -4.55803 3.11364 0
M  V30 1526 H 153.323 -4.13867 1.47006 0
M  V30 1527 H 153.929 -3.17121 2.83398 0
M  V30 1528 N 152.244 -1.26651 -0.937939 0
M  V30 1529 C 153.191 -1.0849 -2.03712 0
M  V30 1530 C 154.161 0.011033 -1.66096 0
M  V30 1531 O 155.346 -0.149353 -1.90215 0
M  V30 1532 C 152.486 -0.72735 -3.37348 0
M  V30 1533 C 151.599 -1.89986 -3.87981 0
M  V30 1534 C 150.734 -1.48513 -5.10017 0
M  V30 1535 C 149.773 -2.62575 -5.5292 0
M  V30 1536 N 148.91 -2.21762 -6.66158 0
M  V30 1537 H 153.75 -2.02551 -2.18579 0
M  V30 1538 H 151.287 -1.00844 -1.07093 0
M  V30 1539 H 153.245 -0.50092 -4.14182 0
M  V30 1540 H 151.875 0.176298 -3.22318 0
M  V30 1541 H 150.927 -2.23913 -3.07518 0
M  V30 1542 H 152.239 -2.75586 -4.15757 0
M  V30 1543 H 151.393 -1.21934 -5.94321 0
M  V30 1544 H 150.132 -0.60009 -4.83994 0
M  V30 1545 H 149.137 -2.8988 -4.67172 0
M  V30 1546 H 150.362 -3.51685 -5.80943 0
M  V30 1547 H 148.308 -1.35696 -6.41812 0
M  V30 1548 H 148.225 -3.00903 -6.93537 0
M  V30 1549 H 149.493 -1.98403 -7.53828 0
M  V30 1550 N 153.722 1.14298 -1.08507 0
M  V30 1551 C 154.968 1.85633 -0.816581 0
M  V30 1552 C 155.301 1.82784 0.656021 0
M  V30 1553 O 154.576 1.25926 1.48233 0
M  V30 1554 C 154.859 3.34223 -1.34041 0
M  V30 1555 C 154.712 3.45639 -2.87843 0
M  V30 1556 C 156.031 4.29356 -0.9665 0
M  V30 1557 H 153.15 0.67402 -0.298104 0
M  V30 1558 H 155.792 1.34214 -1.34487 0
M  V30 1559 H 153.942 3.78144 -0.89104 0
M  V30 1560 H 155.614 3.10498 -3.41158 0
M  V30 1561 H 153.857 2.86817 -3.25451 0
M  V30 1562 H 154.528 4.50089 -3.19569 0
M  V30 1563 H 157.004 3.93457 -1.35391 0
M  V30 1564 H 155.88 5.3178 -1.3602 0
M  V30 1565 H 156.141 4.41919 0.126362 0
M  V30 1566 N 155.201 0.870884 1.31352 0
M  V30 1567 C 156.148 0.325425 2.28494 0
M  V30 1568 C 157.118 -0.576615 1.5577 0
M  V30 1569 O 158.303 -0.508059 1.83911 0
M  V30 1570 C 155.443 -0.466283 3.41935 0
M  V30 1571 C 154.556 0.463378 4.29508 0
M  V30 1572 C 153.691 -0.342544 5.30094 0
M  V30 1573 C 152.73 0.583486 6.09313 0
M  V30 1574 N 151.867 -0.186244 7.01853 0
M  V30 1575 H 156.707 1.15901 2.74538 0
M  V30 1576 H 154.244 0.58294 1.35056 0
M  V30 1577 H 156.202 -0.941085 4.06447 0
M  V30 1578 H 154.832 -1.26456 2.97 0
M  V30 1579 H 153.884 1.05663 3.65431 0
M  V30 1580 H 155.196 1.1734 4.84802 0
M  V30 1581 H 154.35 -0.879816 6.00287 0
M  V30 1582 H 153.089 -1.08585 4.75458 0
M  V30 1583 H 152.094 1.13251 5.3801 0
M  V30 1584 H 153.319 1.32566 6.66035 0
M  V30 1585 H 151.265 -0.912348 6.49625 0
M  V30 1586 H 151.182 0.464422 7.54572 0
M  V30 1587 H 152.45 -0.704716 7.76308 0
M  V30 1588 N 156.679 -1.44442 0.630414 0
M  V30 1589 C 157.925 -2.02351 0.134816 0
M  V30 1590 C 158.258 -1.4947 -1.23986 0
M  V30 1591 O 157.533 -0.678475 -1.82283 0
M  V30 1592 C 157.816 -3.59898 0.120707 0
M  V30 1593 C 157.669 -4.23063 1.52767 0
M  V30 1594 C 158.988 -4.36585 -0.555127 0
M  V30 1595 H 156.107 -0.73527 0.0504646 0
M  V30 1596 H 158.749 -1.72022 0.806751 0
M  V30 1597 H 156.899 -3.85868 -0.451477 0
M  V30 1598 H 158.571 -4.08202 2.14869 0
M  V30 1599 H 156.814 -3.80586 2.08175 0
M  V30 1600 H 157.485 -5.32071 1.46984 0
M  V30 1601 H 159.961 -4.16044 -0.0685429 0
M  V30 1602 H 158.837 -5.46294 -0.534185 0
M  V30 1603 H 159.098 -4.11138 -1.62535 0
M  V30 1604 N 158.157 -0.370918 -1.53173 0
M  V30 1605 C 159.107 0.489588 -2.22681 0
M  V30 1606 C 160.091 1.04442 -1.22395 0
M  V30 1607 O 161.283 0.973578 -1.47819 0
M  V30 1608 C 158.412 1.626 -3.02351 0
M  V30 1609 C 157.498 1.08379 -4.10018 0
M  V30 1610 N 157.889 0.265004 -5.05105 0
M  V30 1611 C 156.187 1.35809 -4.2482 0
M  V30 1612 C 156.888 -0.0324755 -5.81691 0
M  V30 1613 N 155.864 0.566581 -5.40639 0
M  V30 1614 H 159.666 -0.142729 -2.93553 0
M  V30 1615 H 157.18 -0.179221 -1.61408 0
M  V30 1616 H 159.177 2.2547 -3.50669 0
M  V30 1617 H 157.837 2.26132 -2.33011 0
M  V30 1618 H 158.848 -0.0962352 -5.17811 0
M  V30 1619 H 155.525 1.9958 -3.66707 0
M  V30 1620 H 156.915 -0.69473 -6.68299 0
M  V30 1621 N 159.635 1.57281 -0.100228 0
M  V30 1622 C 160.568 2.09976 0.893612 0
M  V30 1623 C 161.546 1.01155 1.27304 0
M  V30 1624 O 162.73 1.28687 1.37739 0
M  V30 1625 C 159.857 2.58098 2.19324 0
M  V30 1626 C 158.903 3.78626 1.96328 0
M  V30 1627 S 159.736 5.21959 1.19662 0
M  V30 1628 C 160.892 5.73435 2.50844 0
M  V30 1629 H 161.125 2.93946 0.44534 0
M  V30 1630 H 158.658 1.53985 0.113167 0
M  V30 1631 H 160.616 2.8648 2.94005 0
M  V30 1632 H 159.277 1.74344 2.61272 0
M  V30 1633 H 158.47 4.10382 2.92579 0
M  V30 1634 H 158.072 3.50763 1.29775 0
M  V30 1635 H 160.364 5.82015 3.46792 0
M  V30 1636 H 161.307 6.7185 2.23659 0
M  V30 1637 H 161.715 5.01395 2.59352 0
M  V30 1638 N 161.113 -0.173488 1.56642 0
M  V30 1639 C 162.06 -1.21482 1.96242 0
M  V30 1640 C 163.03 -1.44104 0.826027 0
M  V30 1641 O 164.215 -1.5688 1.08597 0
M  V30 1642 C 161.355 -2.54964 2.32567 0
M  V30 1643 C 160.468 -2.39739 3.59373 0
M  V30 1644 C 159.603 -3.66072 3.84921 0
M  V30 1645 C 158.642 -3.45771 5.05083 0
M  V30 1646 N 157.779 -4.64169 5.26775 0
M  V30 1647 H 162.619 -0.870123 2.85014 0
M  V30 1648 H 160.156 -0.418245 1.41029 0
M  V30 1649 H 162.114 -3.32758 2.5165 0
M  V30 1650 H 160.744 -2.87433 1.46908 0
M  V30 1651 H 159.796 -1.53131 3.48217 0
M  V30 1652 H 161.108 -2.20683 4.47326 0
M  V30 1653 H 160.262 -4.52303 4.0436 0
M  V30 1654 H 159.001 -3.88105 2.9534 0
M  V30 1655 H 158.006 -2.57927 4.85545 0
M  V30 1656 H 159.231 -3.25163 5.96193 0
M  V30 1657 H 157.177 -4.86425 4.40144 0
M  V30 1658 H 157.094 -4.48019 6.08946 0
M  V30 1659 H 158.362 -5.51689 5.5069 0
M  V30 1660 N 162.591 -1.51276 -0.441967 0
M  V30 1661 C 163.538 -1.72256 -1.53612 0
M  V30 1662 C 164.508 -0.564164 -1.56225 0
M  V30 1663 O 165.693 -0.798074 -1.73307 0
M  V30 1664 C 162.833 -1.84932 -2.91366 0
M  V30 1665 C 161.946 -3.12459 -2.98317 0
M  V30 1666 C 161.081 -3.15758 -4.27166 0
M  V30 1667 C 160.12 -4.37619 -4.27967 0
M  V30 1668 N 159.257 -4.38493 -5.48333 0
M  V30 1669 H 164.097 -2.65654 -1.35026 0
M  V30 1670 H 161.634 -1.31662 -0.656009 0
M  V30 1671 H 163.592 -1.90263 -3.7129 0
M  V30 1672 H 162.222 -0.949461 -3.08521 0
M  V30 1673 H 161.274 -3.1646 -2.11086 0
M  V30 1674 H 162.586 -4.02382 -2.94771 0
M  V30 1675 H 161.74 -3.19979 -5.15459 0
M  V30 1676 H 160.479 -2.23715 -4.33362 0
M  V30 1677 H 159.484 -4.33579 -3.38067 0
M  V30 1678 H 160.709 -5.30921 -4.23438 0
M  V30 1679 H 158.655 -3.49318 -5.55259 0
M  V30 1680 H 158.572 -5.22219 -5.46647 0
M  V30 1681 H 159.84 -4.469 -6.38671 0
M  V30 1682 N 164.069 0.697108 -1.41344 0
M  V30 1683 C 165.032 1.79281 -1.42797 0
M  V30 1684 C 166.032 1.57607 -0.318837 0
M  V30 1685 O 167.222 1.64309 -0.578642 0
M  V30 1686 C 164.354 3.17632 -1.23785 0
M  V30 1687 H 165.547 1.79385 -2.40335 0
M  V30 1688 H 163.1 0.904582 -1.27464 0
M  V30 1689 H 163.835 3.23167 -0.270814 0
M  V30 1690 H 163.62 3.34765 -2.04144 0
M  V30 1691 H 165.11 3.97617 -1.27633 0
M  V30 1692 N 165.547 1.27147 0.931209 0
M  V30 1693 C 166.477 1.12081 2.04842 0
M  V30 1694 C 167.458 0.0232364 1.70084 0
M  V30 1695 O 168.643 0.197085 1.93197 0
M  V30 1696 C 165.773 0.76354 3.38803 0
M  V30 1697 C 164.727 1.81396 3.87659 0
M  V30 1698 C 164.053 1.31075 5.18385 0
M  V30 1699 C 165.353 3.21739 4.11438 0
M  V30 1700 H 167.047 2.05537 2.17703 0
M  V30 1701 H 164.593 0.989603 1.04608 0
M  V30 1702 H 166.546 0.644982 4.16435 0
M  V30 1703 H 165.27 -0.206727 3.25945 0
M  V30 1704 H 163.929 1.92136 3.12217 0
M  V30 1705 H 163.577 0.330037 5.01916 0
M  V30 1706 H 163.277 2.013 5.52044 0
M  V30 1707 H 164.801 1.20506 5.98591 0
M  V30 1708 H 166.215 3.14019 4.79651 0
M  V30 1709 H 164.612 3.89644 4.56397 0
M  V30 1710 H 165.682 3.67054 3.16859 0
M  V30 1711 N 167.025 -1.13721 1.09112 0
M  V30 1712 C 168.25 -1.89314 0.847053 0
M  V30 1713 C 168.675 -1.78416 -0.595774 0
M  V30 1714 O 168.033 -1.12942 -1.41823 0
M  V30 1715 C 168.081 -3.3701 1.28284 0
M  V30 1716 O 167.185 -4.10054 0.439267 0
M  V30 1717 H 166.526 -0.588745 0.307044 0
M  V30 1718 H 169.056 -1.43902 1.45442 0
M  V30 1719 H 169.066 -3.87834 1.26683 0
M  V30 1720 H 167.741 -3.4426 2.33363 0
M  V30 1721 H 166.318 -3.69266 0.519312 0
M  V30 1722 N 168.503 -0.877838 -1.30888 0
M  V30 1723 C 169.751 -0.491723 -1.96027 0
M  V30 1724 C 170.072 0.960827 -1.69685 0
M  V30 1725 O 169.342 1.67462 -1.01654 0
M  V30 1726 H 167.922 -0.17885 -0.725273 0
M  V30 1727 H 170.584 -1.11935 -1.59551 0
M  V30 1728 H 169.68 -0.656016 -3.05128 0
M  V30 1729 N 169.982 1.44106 -0.638065 0
M  V30 1730 C 171.259 1.95453 -0.0759321 0
M  V30 1731 C 171.639 1.57984 1.40015 0
M  V30 1732 O 170.987 0.857361 2.11806 0
M  V30 1733 C 171.197 3.47655 -0.306132 0
M  V30 1734 C 172.545 4.24114 -0.203008 0
M  V30 1735 O 173.569 3.55405 -0.237871 0
M  V30 1736 O 172.428 5.46381 -0.113827 0
M  V30 1737 H 169.522 0.826797 0.0183332 0
M  V30 1738 H 172.068 1.54122 -0.710251 0
M  V30 1739 H 170.84 3.68 -1.3301 0
M  V30 1740 H 170.463 3.95949 0.361991 0
M  V30 1741 N 171.46 0.379036 1.52974 0
M  V30 1742 C 172.685 -0.209353 2.06341 0
M  V30 1743 C 173.11 -1.40583 1.24972 0
M  V30 1744 O 172.468 -1.79246 0.272155 0
M  V30 1745 C 172.516 -0.567786 3.56102 0
M  V30 1746 O 171.62 -1.66318 3.77375 0
M  V30 1747 H 170.961 -0.0272919 0.663439 0
M  V30 1748 H 173.491 0.543536 1.97248 0
M  V30 1749 H 173.501 -0.835003 3.99364 0
M  V30 1750 H 172.176 0.307013 4.14765 0
M  V30 1751 H 170.753 -1.39048 3.46006 0
M  V30 1752 N 172.938 -1.57226 0.108567 0
M  V30 1753 C 174.168 -1.9889 -0.559142 0
M  V30 1754 C 174.576 -0.986889 -1.61422 0
M  V30 1755 O 173.919 0.0298705 -1.83676 0
M  V30 1756 C 173.981 -3.36952 -1.25315 0
M  V30 1757 C 173.645 -4.55679 -0.347248 0
M  V30 1758 C 174.642 -5.18281 0.409996 0
M  V30 1759 C 172.327 -5.0162 -0.261367 0
M  V30 1760 C 174.321 -6.25203 1.24096 0
M  V30 1761 C 172.008 -6.08405 0.573238 0
M  V30 1762 C 173.006 -6.70063 1.32304 0
M  V30 1763 O 172.694 -7.74788 2.14381 0
M  V30 1764 H 172.426 -0.658343 -0.153492 0
M  V30 1765 H 174.98 -2.04532 0.188584 0
M  V30 1766 H 173.21 -3.28032 -2.04773 0
M  V30 1767 H 174.899 -3.62974 -1.81673 0
M  V30 1768 H 175.665 -4.8371 0.353457 0
M  V30 1769 H 171.544 -4.53381 -0.834656 0
M  V30 1770 H 175.088 -6.73259 1.82669 0
M  V30 1771 H 170.985 -6.42406 0.631208 0
M  V30 1772 H 171.753 -7.91837 2.07209 0
M  V30 1773 N 174.416 0.165178 -1.56732 0
M  V30 1774 C 175.662 0.877389 -1.83503 0
M  V30 1775 C 176.017 1.79602 -0.689996 0
M  V30 1776 O 175.31 1.89023 0.313205 0
M  V30 1777 C 175.504 1.70405 -3.1416 0
M  V30 1778 C 175.333 0.866961 -4.41264 0
M  V30 1779 C 174.103 0.539646 -5.0241 0
M  V30 1780 C 176.301 0.205671 -5.13889 0
M  V30 1781 N 174.283 -0.312946 -6.13102 0
M  V30 1782 C 175.654 -0.507823 -6.17917 0
M  V30 1783 C 177.709 0.124468 -4.97744 0
M  V30 1784 C 176.412 -1.29483 -7.0755 0
M  V30 1785 C 178.438 -0.649222 -5.87826 0
M  V30 1786 C 177.8 -1.35106 -6.91322 0
M  V30 1787 H 173.899 0.299477 -0.722383 0
M  V30 1788 H 176.483 0.143949 -1.94167 0
M  V30 1789 H 174.654 2.40887 -3.04677 0
M  V30 1790 H 176.386 2.35804 -3.28905 0
M  V30 1791 H 173.141 0.871176 -4.65519 0
M  V30 1792 H 173.565 -0.729731 -6.73056 0
M  V30 1793 H 178.207 0.652724 -4.17731 0
M  V30 1794 H 175.925 -1.83441 -7.87004 0
M  V30 1795 H 179.511 -0.713804 -5.77405 0
M  V30 1796 H 178.391 -1.94013 -7.59821 0
M  V30 1797 N 175.894 1.51508 0.433938 0
M  V30 1798 C 177.14 1.64588 1.18484 0
M  V30 1799 C 177.473 0.362666 1.90784 0
M  V30 1800 O 176.748 -0.637892 1.83742 0
M  V30 1801 C 177.031 2.85149 2.19913 0
M  V30 1802 C 176.884 4.23456 1.51674 0
M  V30 1803 C 178.203 3.01227 3.20858 0
M  V30 1804 H 175.322 0.598994 0.429389 0
M  V30 1805 H 177.964 1.84002 0.473647 0
M  V30 1806 H 176.114 2.68729 2.80566 0
M  V30 1807 H 177.786 4.51552 0.943322 0
M  V30 1808 H 176.029 4.25998 0.819035 0
M  V30 1809 H 176.7 5.03812 2.2556 0
M  V30 1810 H 179.176 3.16382 2.70263 0
M  V30 1811 H 178.052 3.87141 3.89118 0
M  V30 1812 H 178.313 2.13447 3.8716 0
M  V30 1813 N 177.372 -0.689602 1.41712 0
M  V30 1814 C 178.619 -1.44966 1.4139 0
M  V30 1815 C 178.947 -1.94484 0.025105 0
M  V30 1816 O 178.202 -1.70307 -0.964048 0
M  V30 1817 C 178.501 -2.67298 2.37247 0
M  V30 1818 C 178.167 -2.36405 3.83958 0
M  V30 1819 C 176.829 -2.27691 4.23923 0
M  V30 1820 C 179.181 -2.11043 4.76561 0
M  V30 1821 C 176.509 -1.91719 5.54492 0
M  V30 1822 C 178.861 -1.76578 6.07456 0
M  V30 1823 C 177.525 -1.66363 6.46436 0
M  V30 1824 H 176.795 -0.53047 0.517381 0
M  V30 1825 H 179.442 -0.787655 1.74552 0
M  V30 1826 H 177.747 -3.38461 1.9736 0
M  V30 1827 H 179.444 -3.25452 2.34269 0
M  V30 1828 H 176.034 -2.44085 3.52308 0
M  V30 1829 H 180.218 -2.16717 4.46483 0
M  V30 1830 H 175.474 -1.82367 5.83568 0
M  V30 1831 H 179.648 -1.55974 6.78708 0
M  V30 1832 H 177.275 -1.38258 7.47522 0
M  V30 1833 N 178.85 -1.27639 -0.924453 0
M  V30 1834 C 180.096 -1.14336 -1.67497 0
M  V30 1835 C 180.429 0.309465 -1.91718 0
M  V30 1836 O 179.704 1.22608 -1.50989 0
M  V30 1837 C 179.987 -1.93096 -3.0395 0
M  V30 1838 C 179.84 -3.46381 -2.8695 0
M  V30 1839 C 181.159 -1.73798 -4.0433 0
M  V30 1840 H 178.278 -0.416728 -0.607871 0
M  V30 1841 H 180.92 -1.56832 -1.07256 0
M  V30 1842 H 179.07 -1.56982 -3.55372 0
M  V30 1843 H 180.742 -3.92343 -2.42621 0
M  V30 1844 H 178.985 -3.72557 -2.22225 0
M  V30 1845 H 179.656 -3.96735 -3.83804 0
M  V30 1846 H 182.132 -2.05293 -3.61931 0
M  V30 1847 H 181.008 -2.31294 -4.97789 0
M  V30 1848 H 181.269 -0.686725 -4.36734 0
M  V30 1849 N 180.328 1.1314 -1.09713 0
M  V30 1850 C 181.275 2.18642 -0.739196 0
M  V30 1851 C 182.245 1.63706 0.280978 0
M  V30 1852 O 183.43 1.90111 0.161946 0
M  V30 1853 C 180.57 3.44685 -0.169102 0
M  V30 1854 C 179.683 4.13711 -1.24367 0
M  V30 1855 C 178.818 5.27379 -0.636019 0
M  V30 1856 C 177.857 5.88259 -1.69169 0
M  V30 1857 N 176.994 6.93352 -1.10485 0
M  V30 1858 H 181.834 2.48607 -1.64312 0
M  V30 1859 H 179.371 1.22066 -0.820875 0
M  V30 1860 H 181.329 4.16815 0.179256 0
M  V30 1861 H 179.959 3.15161 0.698079 0
M  V30 1862 H 179.011 3.39835 -1.70927 0
M  V30 1863 H 180.323 4.55037 -2.04311 0
M  V30 1864 H 179.477 6.06238 -0.236677 0
M  V30 1865 H 178.216 4.8731 0.194928 0
M  V30 1866 H 177.221 5.08092 -2.10055 0
M  V30 1867 H 178.446 6.30399 -2.52536 0
M  V30 1868 H 176.392 6.55335 -0.295234 0
M  V30 1869 H 176.309 7.33236 -1.84121 0
M  V30 1870 H 177.577 7.76057 -0.73181 0
M  V30 1871 N 181.806 0.884767 1.30421 0
M  V30 1872 C 183.222 0.57874 1.48737 0
M  V30 1873 C 183.422 -0.883567 1.81095 0
M  V30 1874 O 182.478 -1.6648 1.89844 0
M  V30 1875 C 183.791 1.49171 2.61091 0
M  V30 1876 C 185.339 1.49532 2.74971 0
M  V30 1877 C 185.814 2.39421 3.90438 0
M  V30 1878 N 187.305 2.37383 3.97748 0
M  V30 1879 C 188.04 3.03647 4.86401 0
M  V30 1880 N 187.536 3.79136 5.79852 0
M  V30 1881 N 189.329 2.9288 4.79768 0
M  V30 1882 H 181.48 1.83075 1.0769 0
M  V30 1883 H 183.743 0.783637 0.533495 0
M  V30 1884 H 183.449 2.53291 2.44001 0
M  V30 1885 H 183.323 1.20113 3.57565 0
M  V30 1886 H 185.71 0.46163 2.91467 0
M  V30 1887 H 185.791 1.8262 1.79119 0
M  V30 1888 H 185.435 3.42874 3.74699 0
M  V30 1889 H 185.365 2.03649 4.85628 0
M  V30 1890 H 187.856 1.82525 3.30897 0
M  V30 1891 H 188.169 4.26789 6.4426 0
M  V30 1892 H 186.514 3.83243 5.79784 0
M  V30 1893 H 189.705 2.33433 4.05742 0
M  V30 1894 H 189.878 3.448 5.4865 0
M  V30 1895 N 183.284 -1.43765 0.645699 0
M  V30 1896 C 184.53 -2.02197 0.156271 0
M  V30 1897 C 184.863 -1.50776 -1.22393 0
M  V30 1898 O 184.138 -0.697771 -1.81553 0
M  V30 1899 C 184.421 -3.59749 0.158872 0
M  V30 1900 C 184.274 -4.21419 1.57245 0
M  V30 1901 C 185.593 -4.37149 -0.50879 0
M  V30 1902 H 182.712 -0.734694 0.0582602 0
M  V30 1903 H 185.354 -1.71157 0.824951 0
M  V30 1904 H 183.504 -3.86325 -0.410525 0
M  V30 1905 H 185.176 -4.059 2.19186 0
M  V30 1906 H 183.419 -3.78356 2.122 0
M  V30 1907 H 184.09 -5.30482 1.52619 0
M  V30 1908 H 186.566 -4.16093 -0.024412 0
M  V30 1909 H 185.442 -5.4683 -0.476213 0
M  V30 1910 H 185.703 -4.12839 -1.58165 0
M  V30 1911 O 184.801 -0.529329 -1.52579 0
M  V30 1912 H 185.492 -0.019233 -1.9369 0
M  V30 END ATOM
M  V30 BEGIN BOND
M  V30 END BOND
M  V30 END CTAB
M  END
$$$$
