drugbank_target|P16144 Integrin beta-4 (DB05122)
 OpenBabel12092120293D

  0  0  0     0  0            999 V3000
M  V30 BEGIN CTAB
M  V30 COUNTS 28007 28325 0 0 0
M  V30 BEGIN ATOM
M  V30 1 H -0.908 1.98254 -0.117106 0
M  V30 2 N 0 1.576 0 0
M  V30 3 C 0.933 2.03868 1.02534 0
M  V30 4 C 1.911 0.928543 1.3348 0
M  V30 5 O 3.095 1.19667 1.45644 0
M  V30 6 C 0.222 2.43627 2.35294 0
M  V30 7 C -0.732 3.65373 2.2001 0
M  V30 8 S 0.101 5.13292 1.52614 0
M  V30 9 C 1.257 5.56322 2.86805 0
M  V30 10 H 1.49 2.90518 0.631377 0
M  V30 11 H -0.977 1.52953 0.210867 0
M  V30 12 H 0.981 2.67203 3.11629 0
M  V30 13 H -0.358 1.57376 2.7183 0
M  V30 14 H -1.165 3.90944 3.18086 0
M  V30 15 H -1.563 3.418 1.51819 0
M  V30 16 H 0.729 5.58782 3.83104 0
M  V30 17 H 1.672 6.56266 2.65933 0
M  V30 18 H 2.08 4.83886 2.90714 0
M  V30 19 N 1.4781 -0.272755 1.55222 0
M  V30 20 C 2.4411 -1.32041 1.87344 0
M  V30 21 C 3.4411 -1.42342 0.74803 0
M  V30 22 O 4.6311 -1.41488 1.0162 0
M  V30 23 C 1.7631 -2.70173 2.07893 0
M  V30 24 H 2.9561 -1.04789 2.80997 0
M  V30 25 H 0.5091 -0.51083 1.47717 0
M  V30 26 H 1.2441 -3.02605 1.16622 0
M  V30 27 H 1.0291 -2.64082 2.89833 0
M  V30 28 H 2.5191 -3.45869 2.34017 0
M  V30 29 N 2.9562 -1.48159 -0.537278 0
M  V30 30 C 4.2042 -1.55497 -1.29094 0
M  V30 31 C 4.5252 -0.227454 -1.93669 0
M  V30 32 O 3.7952 0.750386 -1.80959 0
M  V30 33 H 2.3752 -0.572832 -0.47945 0
M  V30 34 H 5.0372 -1.84579 -0.625818 0
M  V30 35 H 4.1332 -2.33216 -2.07405 0
M  V30 36 N 4.4343 0.785586 -1.36625 0
M  V30 37 C 5.8453 1.36101 -1.27803 0
M  V30 38 C 6.1963 1.96035 0.0804875 0
M  V30 39 O 5.3213 1.92834 0.982042 0
M  V30 40 C 5.9163 2.47442 -2.31426 0
M  V30 41 C 4.4753 3.00789 -2.26281 0
M  V30 42 C 3.6223 1.73896 -2.15999 0
M  V30 43 H 6.5733 0.586928 -1.47448 0
M  V30 44 H 6.5943 3.2656 -1.95291 0
M  V30 45 H 6.1063 2.03791 -3.30289 0
M  V30 46 H 4.2073 3.48851 -1.30896 0
M  V30 47 H 4.3203 3.57343 -3.19128 0
M  V30 48 H 2.6843 1.9628 -1.62316 0
M  V30 49 H 3.4673 1.32368 -3.16755 0
M  V30 50 N 5.9124 1.20967 1.01018 0
M  V30 51 C 7.3284 0.965905 1.27053 0
M  V30 52 C 7.5284 -0.350785 1.98423 0
M  V30 53 O 6.5844 -1.07773 2.28344 0
M  V30 54 C 7.8974 2.15294 2.09926 0
M  V30 55 C 9.4454 2.19463 2.23171 0
M  V30 56 C 9.9204 3.3767 3.09424 0
M  V30 57 N 11.4114 3.37724 3.17012 0
M  V30 58 C 12.1464 4.25837 3.83993 0
M  V30 59 N 11.6424 5.24138 4.53047 0
M  V30 60 N 13.4354 4.1366 3.80581 0
M  V30 61 H 5.5864 2.0565 0.531194 0
M  V30 62 H 7.8494 0.90024 0.297106 0
M  V30 63 H 7.5554 3.10684 1.64828 0
M  V30 64 H 7.4294 2.13923 3.10672 0
M  V30 65 H 9.8164 1.24632 2.6749 0
M  V30 66 H 9.8974 2.2488 1.21912 0
M  V30 67 H 9.5414 4.32791 2.65808 0
M  V30 68 H 9.4714 3.29491 4.10784 0
M  V30 69 H 11.9624 2.6658 2.6785 0
M  V30 70 H 12.2754 5.87684 5.01844 0
M  V30 71 H 10.6204 5.28068 4.5185 0
M  V30 72 H 13.8114 3.36127 3.25785 0
M  V30 73 H 13.9844 4.82538 4.32505 0
M  V30 74 N 7.3905 -1.2043 1.01659 0
M  V30 75 C 8.8015 -1.71517 0.737482 0
M  V30 76 C 9.1525 -1.81547 -0.743973 0
M  V30 77 O 8.2775 -1.47803 -1.58061 0
M  V30 78 C 8.8725 -3.11515 1.33206 0
M  V30 79 C 7.4315 -3.59912 1.10183 0
M  V30 80 C 6.5785 -2.37116 1.43776 0
M  V30 81 H 9.5295 -1.05444 1.18606 0
M  V30 82 H 9.5505 -3.73575 0.722636 0
M  V30 83 H 9.0625 -3.04182 2.41028 0
M  V30 84 H 7.1635 -3.72577 0.0412756 0
M  V30 85 H 7.2765 -4.44731 1.78188 0
M  V30 86 H 5.6405 -2.39857 0.856778 0
M  V30 87 H 6.4235 -2.32424 2.52654 0
M  V30 88 N 8.8686 -0.792821 -1.36206 0
M  V30 89 C 10.0936 -0.377701 -2.03932 0
M  V30 90 C 10.5186 0.998947 -1.59382 0
M  V30 91 O 9.8766 1.64421 -0.763903 0
M  V30 92 C 9.9246 -0.453635 -3.57735 0
M  V30 93 O 9.0286 0.538151 -4.08874 0
M  V30 94 H 8.3696 -0.159855 -0.644471 0
M  V30 95 H 10.8996 -1.07488 -1.7409 0
M  V30 96 H 10.9096 -0.318464 -4.06755 0
M  V30 97 H 9.5846 -1.45784 -3.89512 0
M  V30 98 H 8.1616 0.364359 -3.71116 0
M  V30 99 N 10.3467 1.47872 -0.545128 0
M  V30 100 C 11.7577 1.86384 -0.108581 0
M  V30 101 C 12.1087 1.45309 1.31832 0
M  V30 102 O 11.2337 0.850641 1.9898 0
M  V30 103 C 11.8287 3.38265 -0.190274 0
M  V30 104 C 10.3877 3.75914 0.191164 0
M  V30 105 C 9.5347 2.71926 -0.543273 0
M  V30 106 H 12.4857 1.39561 -0.755537 0
M  V30 107 H 12.5067 3.75831 0.594217 0
M  V30 108 H 12.0187 3.6813 -1.2289 0
M  V30 109 H 10.1197 3.51665 1.23136 0
M  V30 110 H 10.2327 4.78836 -0.158987 0
M  V30 111 H 8.5967 2.54697 0.0122495 0
M  V30 112 H 9.3797 3.04634 -1.58282 0
M  V30 113 N 11.8248 0.280983 1.55075 0
M  V30 114 C 13.0708 -0.327573 2.00745 0
M  V30 115 C 13.4258 -1.53045 1.16598 0
M  V30 116 O 12.7188 -1.90221 0.229451 0
M  V30 117 C 12.9128 -0.754656 3.49342 0
M  V30 118 C 12.7418 0.40529 4.4787 0
M  V30 119 C 11.5118 0.890947 4.97383 0
M  V30 120 C 13.7098 1.24371 4.99035 0
M  V30 121 N 11.6918 2.01975 5.79724 0
M  V30 122 C 13.0628 2.22031 5.7888 0
M  V30 123 C 15.1178 1.27638 4.81262 0
M  V30 124 C 13.8208 3.22709 6.42846 0
M  V30 125 C 15.8468 2.27164 5.46031 0
M  V30 126 C 15.2088 3.23556 6.25692 0
M  V30 127 H 11.3078 -0.0848774 0.77738 0
M  V30 128 H 13.8918 0.406342 1.90413 0
M  V30 129 H 12.0628 -1.45778 3.60005 0
M  V30 130 H 13.7948 -1.34105 3.81835 0
M  V30 131 H 10.5498 0.469262 4.71269 0
M  V30 132 H 10.9738 2.58794 6.25584 0
M  V30 133 H 15.6158 0.544936 4.19274 0
M  V30 134 H 13.3338 3.96784 7.0398 0
M  V30 135 H 16.9198 2.30441 5.34217 0
M  V30 136 H 15.7998 3.99309 6.74924 0
M  V30 137 N 13.3029 -1.57598 0.00835791 0
M  V30 138 C 14.2659 -2.07884 -0.965242 0
M  V30 139 C 15.2659 -0.989825 -1.26725 0
M  V30 140 O 16.4559 -1.25218 -1.21104 0
M  V30 141 C 13.5879 -2.52731 -2.28779 0
M  V30 142 H 14.7809 -2.95178 -0.530112 0
M  V30 143 H 12.3339 -1.54458 -0.239283 0
M  V30 144 H 13.0689 -1.68705 -2.76964 0
M  V30 145 H 12.8539 -3.32272 -2.08177 0
M  V30 146 H 14.3439 -2.91933 -2.98605 0
M  V30 147 N 14.781 0.264519 -1.55364 0
M  V30 148 C 16.197 0.61215 -1.47394 0
M  V30 149 C 16.397 1.89134 -0.695018 0
M  V30 150 O 15.453 2.51563 -0.217275 0
M  V30 151 C 16.766 0.731235 -2.91674 0
M  V30 152 C 18.314 0.82473 -3.01939 0
M  V30 153 C 18.789 0.975522 -4.4749 0
M  V30 154 N 20.28 1.04083 -4.51354 0
M  V30 155 C 21.015 1.17646 -5.61201 0
M  V30 156 N 20.511 1.27874 -6.80896 0
M  V30 157 N 22.304 1.20823 -5.48961 0
M  V30 158 H 14.455 -0.575456 -2.04456 0
M  V30 159 H 16.718 -0.196099 -0.927496 0
M  V30 160 H 16.424 -0.138392 -3.51428 0
M  V30 161 H 16.298 1.60883 -3.41169 0
M  V30 162 H 18.685 1.68482 -2.42276 0
M  V30 163 H 18.766 -0.0776479 -2.55682 0
M  V30 164 H 18.41 0.120058 -5.07758 0
M  V30 165 H 18.34 1.89268 -4.91412 0
M  V30 166 H 20.831 0.973846 -3.65136 0
M  V30 167 H 21.144 1.38081 -7.60364 0
M  V30 168 H 19.489 1.24863 -6.83692 0
M  V30 169 H 22.68 1.12469 -4.54388 0
M  V30 170 H 22.853 1.31049 -6.3461 0
M  V30 171 N 16.2591 1.48442 0.529413 0
M  V30 172 C 17.1891 1.65902 1.64313 0
M  V30 173 C 18.1701 0.507897 1.6234 0
M  V30 174 O 19.3551 0.740503 1.79528 0
M  V30 175 C 16.4851 1.69911 3.02898 0
M  V30 176 C 15.4391 2.8453 3.19729 0
M  V30 177 C 14.7651 2.73629 4.59381 0
M  V30 178 C 16.0651 4.25821 3.02447 0
M  V30 179 H 17.7591 2.5914 1.49955 0
M  V30 180 H 15.3051 1.24709 0.719982 0
M  V30 181 H 17.2581 1.80715 3.80684 0
M  V30 182 H 15.9821 0.732524 3.18279 0
M  V30 183 H 14.6411 2.73283 2.44361 0
M  V30 184 H 14.2891 1.74938 4.71599 0
M  V30 185 H 13.9891 3.50541 4.71588 0
M  V30 186 H 15.5131 2.86401 5.39265 0
M  V30 187 H 16.9271 4.37898 3.70024 0
M  V30 188 H 15.3241 5.03735 3.26146 0
M  V30 189 H 16.3941 4.42244 1.98867 0
M  V30 190 N 17.7372 -0.778329 1.37039 0
M  V30 191 C 18.6672 -1.90546 1.34962 0
M  V30 192 C 19.6482 -1.68681 0.219274 0
M  V30 193 O 20.8332 -1.89634 0.418624 0
M  V30 194 C 17.9632 -3.27734 1.14925 0
M  V30 195 C 16.9172 -3.64147 2.24902 0
M  V30 196 C 16.2432 -4.99806 1.89996 0
M  V30 197 C 17.5432 -3.71579 3.67051 0
M  V30 198 H 19.2372 -1.92541 2.29277 0
M  V30 199 H 16.7832 -0.924948 1.10366 0
M  V30 200 H 18.7362 -4.06215 1.12104 0
M  V30 201 H 17.4602 -3.26154 0.170631 0
M  V30 202 H 16.1192 -2.8797 2.26868 0
M  V30 203 H 15.7672 -4.94759 0.906796 0
M  V30 204 H 15.4672 -5.25139 2.63634 0
M  V30 205 H 16.9912 -5.80694 1.88749 0
M  V30 206 H 18.4052 -4.40227 3.67251 0
M  V30 207 H 16.8022 -4.08405 4.39688 0
M  V30 208 H 17.8722 -2.72404 4.01154 0
M  V30 209 N 19.2153 -1.21501 -1.00376 0
M  V30 210 C 20.1453 -0.999478 -2.11028 0
M  V30 211 C 21.1263 0.0759671 -1.6993 0
M  V30 212 O 22.3113 -0.0841106 -1.94018 0
M  V30 213 C 19.4413 -0.564709 -3.42678 0
M  V30 214 C 18.3953 -1.58486 -3.97576 0
M  V30 215 C 17.7213 -1.00628 -5.25146 0
M  V30 216 C 19.0213 -2.97204 -4.29496 0
M  V30 217 H 20.7153 -1.92495 -2.29317 0
M  V30 218 H 18.2613 -0.92693 -1.102 0
M  V30 219 H 20.2143 -0.401091 -4.19487 0
M  V30 220 H 18.9383 0.396411 -3.24185 0
M  V30 221 H 17.5973 -1.73606 -3.22888 0
M  V30 222 H 17.2453 -0.0368439 -5.02987 0
M  V30 223 H 16.9453 -1.68771 -5.62841 0
M  V30 224 H 18.4693 -0.854015 -6.04598 0
M  V30 225 H 19.8833 -2.8552 -4.97143 0
M  V30 226 H 18.2803 -3.62372 -4.78338 0
M  V30 227 H 19.3503 -3.47956 -3.3772 0
M  V30 228 N 20.6934 1.19889 -1.02296 0
M  V30 229 C 21.6564 2.21116 -0.603351 0
M  V30 230 C 22.6564 1.5738 0.329884 0
M  V30 231 O 23.8464 1.73802 0.117702 0
M  V30 232 C 20.9784 3.40696 0.117992 0
M  V30 233 H 22.1714 2.59754 -1.49893 0
M  V30 234 H 19.7244 1.33463 -0.813468 0
M  V30 235 H 20.4594 3.07569 1.0282 0
M  V30 236 H 20.2444 3.88188 -0.552511 0
M  V30 237 H 21.7344 4.15692 0.398696 0
M  V30 238 N 22.1715 0.800033 1.35784 0
M  V30 239 C 23.1345 0.211565 2.28221 0
M  V30 240 C 24.1345 -0.59728 1.49296 0
M  V30 241 O 25.3245 -0.416721 1.69142 0
M  V30 242 C 22.4565 -0.705846 3.33513 0
M  V30 243 H 23.6495 1.02677 2.81776 0
M  V30 244 H 21.2025 0.570211 1.45528 0
M  V30 245 H 21.9375 -1.54498 2.85133 0
M  V30 246 H 21.7225 -0.127655 3.91892 0
M  V30 247 H 23.2125 -1.11211 4.02519 0
M  V30 248 N 23.6496 -1.47581 0.552962 0
M  V30 249 C 24.5796 -2.32762 -0.185451 0
M  V30 250 C 25.5606 -1.43527 -0.912905 0
M  V30 251 O 26.7456 -1.72388 -0.894201 0
M  V30 252 C 23.8756 -3.25219 -1.21859 0
M  V30 253 C 22.8296 -4.23661 -0.607864 0
M  V30 254 C 22.1556 -5.05413 -1.74533 0
M  V30 255 C 23.4556 -5.20481 0.435582 0
M  V30 256 H 25.1496 -2.94749 0.525684 0
M  V30 257 H 22.6956 -1.41738 0.254251 0
M  V30 258 H 24.6486 -3.8365 -1.7433 0
M  V30 259 H 23.3726 -2.61279 -1.95961 0
M  V30 260 H 22.0316 -3.66451 -0.104489 0
M  V30 261 H 21.6796 -4.3788 -2.47529 0
M  V30 262 H 21.3796 -5.72059 -1.34249 0
M  V30 263 H 22.9036 -5.66701 -2.27338 0
M  V30 264 H 24.3176 -5.733 -0.00290157 0
M  V30 265 H 22.7146 -5.95305 0.757067 0
M  V30 266 H 23.7846 -4.66217 1.33303 0
M  V30 267 N 25.1277 -0.289203 -1.54924 0
M  V30 268 C 26.3767 0.324231 -1.99077 0
M  V30 269 C 26.6897 1.5591 -1.18117 0
M  V30 270 O 27.8957 2.24637 -1.52481 0
M  V30 271 C 26.3517 0.628209 -3.54375 0
M  V30 272 C 25.9597 -0.587647 -4.44129 0
M  V30 273 C 27.7037 1.20349 -4.07083 0
M  V30 274 C 25.6107 -0.257475 -5.90839 0
M  V30 275 H 24.5407 0.124924 -0.743579 0
M  V30 276 H 27.1917 -0.396063 -1.79175 0
M  V30 277 H 25.5737 1.40778 -3.70132 0
M  V30 278 H 26.7477 -1.36418 -4.40144 0
M  V30 279 H 25.0627 -1.08074 -4.0213 0
M  V30 280 H 27.6597 1.46456 -5.14252 0
M  V30 281 H 28.0027 2.14195 -3.56968 0
M  V30 282 H 28.5357 0.485889 -3.94821 0
M  V30 283 H 25.2747 -1.16419 -6.45079 0
M  V30 284 H 24.7947 0.482018 -5.9786 0
M  V30 285 H 26.4737 0.145238 -6.46837 0
M  V30 286 N 26.6058 1.57591 -0.0167156 0
M  V30 287 C 27.8308 1.9598 0.67872 0
M  V30 288 C 28.2558 0.892546 1.65575 0
M  V30 289 O 27.6138 -0.147772 1.80697 0
M  V30 290 C 27.6618 3.33468 1.37227 0
M  V30 291 O 26.7658 3.28954 2.48722 0
M  V30 292 H 26.1068 0.639339 0.17928 0
M  V30 293 H 28.6368 2.04463 -0.0748802 0
M  V30 294 H 28.6468 3.69417 1.7319 0
M  V30 295 H 27.3218 4.10694 0.656007 0
M  V30 296 H 25.8988 3.04705 2.14963 0
M  V30 297 N 28.0839 -0.256276 1.55502 0
M  V30 298 C 29.3299 -0.987079 1.77157 0
M  V30 299 C 29.6629 -1.85327 0.580315 0
M  V30 300 O 28.9379 -1.89874 -0.421686 0
M  V30 301 C 29.2209 -1.85553 3.08613 0
M  V30 302 C 29.0739 -1.01816 4.38125 0
M  V30 303 C 30.3929 -2.8397 3.36228 0
M  V30 304 H 27.5119 -0.357428 0.644526 0
M  V30 305 H 30.1539 -0.258239 1.88237 0
M  V30 306 H 28.3039 -2.47695 2.99298 0
M  V30 307 H 29.9759 -0.416159 4.59419 0
M  V30 308 H 28.2189 -0.322178 4.32602 0
M  V30 309 H 28.8899 -1.65939 5.26468 0
M  V30 310 H 31.3659 -2.31964 3.45445 0
M  V30 311 H 30.2419 -3.41864 4.29442 0
M  V30 312 H 30.5029 -3.59955 2.56681 0
M  V30 313 N 29.562 -1.4872 -0.521534 0
M  V30 314 C 30.787 -1.61101 -1.30618 0
M  V30 315 C 31.212 -0.274611 -1.86085 0
M  V30 316 O 30.57 0.754937 -1.64834 0
M  V30 317 C 30.618 -2.66709 -2.4269 0
M  V30 318 O 29.722 -2.24456 -3.45967 0
M  V30 319 H 29.063 -0.539921 -0.386499 0
M  V30 320 H 31.593 -1.94767 -0.626645 0
M  V30 321 H 31.603 -2.88245 -2.88754 0
M  V30 322 H 30.278 -3.63727 -2.01682 0
M  V30 323 H 28.855 -2.13168 -3.05964 0
M  V30 324 N 31.0401 0.771051 -1.3745 0
M  V30 325 C 31.9701 1.89827 -1.3597 0
M  V30 326 C 32.9511 1.68562 -0.228216 0
M  V30 327 O 34.1361 1.8941 -0.428675 0
M  V30 328 C 31.2661 3.2712 -1.16662 0
M  V30 329 C 30.2201 3.6295 -2.2683 0
M  V30 330 C 29.5461 4.98791 -1.92644 0
M  V30 331 C 30.8461 3.69627 -3.69017 0
M  V30 332 H 32.5401 1.91323 -2.30295 0
M  V30 333 H 30.0861 0.919082 -1.10855 0
M  V30 334 H 32.0391 4.05615 -1.14256 0
M  V30 335 H 30.7631 3.26059 -0.187926 0
M  V30 336 H 29.4221 2.86763 -2.28392 0
M  V30 337 H 29.0701 4.94271 -0.933021 0
M  V30 338 H 28.7701 5.23733 -2.66416 0
M  V30 339 H 30.2941 5.79685 -1.91826 0
M  V30 340 H 31.7081 4.38273 -3.69581 0
M  V30 341 H 30.1051 4.06067 -4.41848 0
M  V30 342 H 31.1751 2.70273 -4.02592 0
M  V30 343 N 32.5182 1.22032 0.997298 0
M  V30 344 C 33.7432 1.06921 1.77715 0
M  V30 345 C 34.1682 -0.376226 1.84299 0
M  V30 346 O 33.5262 -1.27165 1.29223 0
M  V30 347 C 33.5742 1.67996 3.19076 0
M  V30 348 O 32.6782 0.930653 4.01762 0
M  V30 349 H 32.0192 0.375814 0.547412 0
M  V30 350 H 34.5492 1.61737 1.25309 0
M  V30 351 H 34.5592 1.72538 3.69723 0
M  V30 352 H 33.2342 2.73182 3.13599 0
M  V30 353 H 31.8112 0.960917 3.60307 0
M  V30 354 N 33.9963 -1.19345 1.0293 0
M  V30 355 C 35.2443 -1.88665 0.724574 0
M  V30 356 C 35.5653 -1.80036 -0.749144 0
M  V30 357 O 34.8353 -1.2111 -1.53978 0
M  V30 358 H 33.4153 -0.698406 0.265025 0
M  V30 359 H 36.0773 -1.44885 1.30362 0
M  V30 360 H 35.1733 -2.94987 1.01926 0
M  V30 361 N 35.4744 -0.807222 -1.35358 0
M  V30 362 C 36.7024 -0.400377 -2.02989 0
M  V30 363 C 37.1174 0.988859 -1.60832 0
M  V30 364 O 36.4744 1.63729 -0.806175 0
M  V30 365 C 36.5254 -0.474867 -3.58368 0
M  V30 366 O 36.2464 -1.80933 -3.98992 0
M  V30 367 C 37.7474 -0.0609112 -4.43258 0
M  V30 368 H 34.9674 -0.162587 -0.651004 0
M  V30 369 H 37.5114 -1.09102 -1.72965 0
M  V30 370 H 35.6664 0.167534 -3.87038 0
M  V30 371 H 36.0804 -1.77256 -4.9364 0
M  V30 372 H 37.5544 -0.164145 -5.51756 0
M  V30 373 H 38.0314 0.993831 -4.27808 0
M  V30 374 H 38.6374 -0.676492 -4.19885 0
M  V30 375 N 36.9525 1.47285 -0.560781 0
M  V30 376 C 37.8825 2.32857 0.173105 0
M  V30 377 C 38.8635 1.44009 0.905281 0
M  V30 378 O 40.0485 1.7286 0.885046 0
M  V30 379 C 37.1785 3.25861 1.20133 0
M  V30 380 C 36.1325 4.23978 0.585388 0
M  V30 381 C 35.4585 5.06332 1.7185 0
M  V30 382 C 36.7585 5.20242 -0.463178 0
M  V30 383 H 38.4525 2.94466 -0.541307 0
M  V30 384 H 35.9985 1.41601 -0.261764 0
M  V30 385 H 37.9515 3.84569 1.72293 0
M  V30 386 H 36.6755 2.62315 1.94573 0
M  V30 387 H 35.3345 3.66501 0.085054 0
M  V30 388 H 34.9825 4.39186 2.45203 0
M  V30 389 H 34.6825 5.72762 1.31213 0
M  V30 390 H 36.2065 5.67899 2.24329 0
M  V30 391 H 37.6205 5.73293 -0.027502 0
M  V30 392 H 36.0175 5.94896 -0.788627 0
M  V30 393 H 37.0875 4.65504 -1.35773 0
M  V30 394 N 38.4306 0.297415 1.54768 0
M  V30 395 C 39.3936 -0.567375 2.22066 0
M  V30 396 C 40.3936 -1.06409 1.20556 0
M  V30 397 O 41.5836 -0.960691 1.45315 0
M  V30 398 C 38.7156 -1.78517 2.90421 0
M  V30 399 H 39.9086 0.0205534 2.99893 0
M  V30 400 H 37.4616 0.0482163 1.56226 0
M  V30 401 H 38.1966 -2.41303 2.16664 0
M  V30 402 H 37.9816 -1.43669 3.64831 0
M  V30 403 H 39.4716 -2.39964 3.41771 0
M  V30 404 N 39.9087 -1.5758 0.0250728 0
M  V30 405 C 40.8567 -2.11125 -0.97617 0
M  V30 406 C 41.8507 -1.03689 -1.33959 0
M  V30 407 O 43.0567 -1.22128 -1.3223 0
M  V30 408 H 39.4317 -0.674468 -0.332561 0
M  V30 409 H 41.4027 -2.94194 -0.499223 0
M  V30 410 C 40.1517 -2.65017 -2.2508 0
M  V30 411 H 39.4747 -3.47333 -1.9799 0
M  V30 412 H 40.9147 -3.06133 -2.93357 0
M  V30 413 C 39.3737 -1.57574 -2.97779 0
M  V30 414 O 39.9037 -0.973203 -3.89733 0
M  V30 415 N 38.1097 -1.29716 -2.60043 0
M  V30 416 H 37.6567 -1.789 -1.85345 0
M  V30 417 H 37.6147 -0.58051 -3.08994 0
M  V30 418 N 41.3868 0.248026 -1.55636 0
M  V30 419 C 42.8028 0.596483 -1.48035 0
M  V30 420 C 43.0028 1.88386 -0.715039 0
M  V30 421 O 42.0588 2.51319 -0.243944 0
M  V30 422 C 43.3718 0.700258 -2.92433 0
M  V30 423 C 44.9198 0.792659 -3.02797 0
M  V30 424 C 45.3948 0.928005 -4.485 0
M  V30 425 N 46.8858 0.992903 -4.52433 0
M  V30 426 C 47.6208 1.11687 -5.62418 0
M  V30 427 N 47.1168 1.20645 -6.82214 0
M  V30 428 N 48.9098 1.14994 -5.50212 0
M  V30 429 H 41.0608 -0.597109 -2.03834 0
M  V30 430 H 43.3238 -0.205925 -0.925364 0
M  V30 431 H 43.0298 -0.175658 -3.51261 0
M  V30 432 H 42.9038 1.57255 -3.42857 0
M  V30 433 H 45.2908 1.65903 -2.4405 0
M  V30 434 H 45.3718 -0.104762 -2.55585 0
M  V30 435 H 45.0158 0.0661971 -5.07857 0
M  V30 436 H 44.9458 1.84045 -4.93391 0
M  V30 437 H 47.4368 0.935064 -3.66149 0
M  V30 438 H 47.7498 1.30008 -7.61786 0
M  V30 439 H 46.0948 1.17605 -6.84977 0
M  V30 440 H 49.2858 1.07643 -4.55555 0
M  V30 441 H 49.4588 1.24311 -6.35965 0
M  V30 442 N 42.8649 1.48995 0.513639 0
M  V30 443 C 44.1049 1.59452 1.27885 0
M  V30 444 C 44.4689 0.269479 1.90099 0
M  V30 445 O 45.6699 0.249139 2.67643 0
M  V30 446 C 43.9409 2.71277 2.32688 0
M  V30 447 S 45.4999 3.01604 3.18717 0
M  V30 448 H 42.3179 0.562565 0.434789 0
M  V30 449 H 44.9199 1.86595 0.583301 0
M  V30 450 H 43.6239 3.66089 1.8549 0
M  V30 451 H 43.1549 2.46086 3.06929 0
M  V30 452 H 45.1699 2.42155 4.331 0
M  V30 453 N 44.343 -0.763751 1.37857 0
M  V30 454 C 45.29 -1.87726 1.34267 0
M  V30 455 C 46.26 -1.64807 0.206879 0
M  V30 456 O 47.445 -1.86613 0.397508 0
M  V30 457 C 44.585 -3.24896 1.16346 0
M  V30 458 C 43.698 -3.59716 2.39225 0
M  V30 459 C 42.833 -4.86137 2.14114 0
M  V30 460 C 41.872 -5.13711 3.32817 0
M  V30 461 N 41.009 -6.31323 3.07206 0
M  V30 462 H 45.849 -1.90129 2.29466 0
M  V30 463 H 43.386 -0.929433 1.14017 0
M  V30 464 H 45.344 -4.04036 1.03975 0
M  V30 465 H 43.974 -3.21847 0.247909 0
M  V30 466 H 43.026 -2.75498 2.62307 0
M  V30 467 H 44.338 -3.76027 3.27728 0
M  V30 468 H 43.492 -5.73198 1.9882 0
M  V30 469 H 42.231 -4.71945 1.22961 0
M  V30 470 H 41.236 -4.25123 3.48641 0
M  V30 471 H 42.461 -5.29807 4.24832 0
M  V30 472 H 40.407 -6.18474 2.1869 0
M  V30 473 H 40.324 -6.48087 3.89254 0
M  V30 474 H 41.592 -7.213 2.95546 0
M  V30 475 N 45.8211 -1.22559 -0.990812 0
M  V30 476 C 46.7681 -0.997519 -2.0813 0
M  V30 477 C 47.7381 0.0814702 -1.659 0
M  V30 478 O 48.9231 -0.0685424 -1.90677 0
M  V30 479 C 46.0631 -0.583615 -3.40129 0
M  V30 480 C 45.1761 -1.7336 -3.9569 0
M  V30 481 C 44.3111 -1.26748 -5.15857 0
M  V30 482 C 43.3501 -2.38888 -5.63559 0
M  V30 483 N 42.4871 -1.93308 -6.74964 0
M  V30 484 H 47.3271 -1.93099 -2.26973 0
M  V30 485 H 44.8641 -0.962114 -1.11273 0
M  V30 486 H 46.8221 -0.324801 -4.15934 0
M  V30 487 H 45.4521 0.312845 -3.2128 0
M  V30 488 H 44.5041 -2.10669 -3.16738 0
M  V30 489 H 45.8161 -2.57704 -4.27071 0
M  V30 490 H 44.9701 -0.966173 -5.98957 0
M  V30 491 H 43.7091 -0.394272 -4.86104 0
M  V30 492 H 42.7141 -2.69805 -4.79046 0
M  V30 493 H 43.9391 -3.26728 -5.95336 0
M  V30 494 H 41.8851 -1.08352 -6.4699 0
M  V30 495 H 41.8021 -2.71217 -7.05675 0
M  V30 496 H 43.0701 -1.66252 -7.61564 0
M  V30 497 N 47.2992 1.18797 -1.03562 0
M  V30 498 C 48.2622 2.20464 -0.626769 0
M  V30 499 C 49.2622 1.57721 0.313173 0
M  V30 500 O 50.4522 1.73917 0.0992615 0
M  V30 501 C 47.5842 3.40802 0.0818498 0
M  V30 502 H 48.7772 2.58149 -1.5264 0
M  V30 503 H 46.3302 1.32593 -0.827578 0
M  V30 504 H 47.0652 3.08642 0.995518 0
M  V30 505 H 46.8502 3.8758 -0.593652 0
M  V30 506 H 48.3402 4.16092 0.354584 0
M  V30 507 N 48.7773 0.814389 1.34928 0
M  V30 508 C 50.1883 0.458364 1.80986 0
M  V30 509 C 50.5393 -1.02042 1.67577 0
M  V30 510 O 49.6643 -1.79352 1.21086 0
M  V30 511 C 50.2593 0.825212 3.28597 0
M  V30 512 C 48.8183 0.521677 3.72767 0
M  V30 513 C 47.9653 1.04668 2.56788 0
M  V30 514 H 50.9163 1.00533 1.22795 0
M  V30 515 H 50.9373 0.12571 3.80292 0
M  V30 516 H 50.4493 1.90154 3.38324 0
M  V30 517 H 48.5503 -0.545589 3.68584 0
M  V30 518 H 48.6633 1.05977 4.67232 0
M  V30 519 H 47.0273 0.468622 2.50352 0
M  V30 520 H 47.8103 2.12927 2.6929 0
M  V30 521 N 50.2554 -1.46986 0.568584 0
M  V30 522 C 51.5014 -2.02741 0.0488709 0
M  V30 523 C 51.8344 -1.44077 -1.30214 0
M  V30 524 O 51.1094 -0.600552 -1.84996 0
M  V30 525 C 51.3924 -3.60086 -0.032047 0
M  V30 526 C 51.2454 -4.29162 1.34686 0
M  V30 527 C 52.5644 -4.33838 -0.739798 0
M  V30 528 H 49.6834 -0.736749 0.0192338 0
M  V30 529 H 52.3254 -1.75289 0.733065 0
M  V30 530 H 50.4754 -3.83606 -0.61473 0
M  V30 531 H 52.1474 -4.16948 1.97362 0
M  V30 532 H 50.3904 -3.89073 1.91846 0
M  V30 533 H 51.0614 -5.37826 1.24285 0
M  V30 534 H 53.5374 -4.15378 -0.244939 0
M  V30 535 H 52.4134 -5.43537 -0.765406 0
M  V30 536 H 52.6744 -4.03875 -1.79827 0
M  V30 537 N 51.7335 -0.305618 -1.54608 0
M  V30 538 C 52.6805 0.568421 -2.23691 0
M  V30 539 C 53.6505 1.12592 -1.22116 0
M  V30 540 O 54.8355 1.16959 -1.50749 0
M  V30 541 C 51.9755 1.7322 -2.98477 0
M  V30 542 C 51.0885 1.20566 -4.14835 0
M  V30 543 C 50.2235 2.33368 -4.77193 0
M  V30 544 C 49.2625 1.7787 -5.85686 0
M  V30 545 N 48.3995 2.84263 -6.4198 0
M  V30 546 H 53.2395 -0.0272867 -2.97988 0
M  V30 547 H 50.7765 -0.0252363 -1.47078 0
M  V30 548 H 52.7345 2.41675 -3.40072 0
M  V30 549 H 51.3645 2.29947 -2.26548 0
M  V30 550 H 50.4165 0.413223 -3.78149 0
M  V30 551 H 51.7285 0.759417 -4.92985 0
M  V30 552 H 50.8825 3.09761 -5.21664 0
M  V30 553 H 49.6215 2.8132 -3.98385 0
M  V30 554 H 48.6265 0.99968 -5.40635 0
M  V30 555 H 49.8515 1.30816 -6.66381 0
M  V30 556 H 47.7975 3.31541 -5.66053 0
M  V30 557 H 47.7145 2.44149 -7.15491 0
M  V30 558 H 48.9825 3.6054 -6.91109 0
M  V30 559 N 53.2116 1.57565 -0.0334293 0
M  V30 560 C 54.4366 1.96689 0.657895 0
M  V30 561 C 54.8616 0.910057 1.64619 0
M  V30 562 O 54.2196 -0.128598 1.80843 0
M  V30 563 C 54.2676 3.34905 1.33683 0
M  V30 564 O 53.3716 3.31574 2.45219 0
M  V30 565 H 52.7126 0.641205 0.172489 0
M  V30 566 H 55.2426 2.04372 -0.0965621 0
M  V30 567 H 55.2526 3.71234 1.69262 0
M  V30 568 H 53.9276 4.11366 0.612411 0
M  V30 569 H 52.5046 3.06968 2.11719 0
M  V30 570 N 54.6897 -0.239769 1.55765 0
M  V30 571 C 55.9297 -0.974076 1.79697 0
M  V30 572 C 56.2937 -1.82249 0.604088 0
M  V30 573 O 57.4947 -2.58913 0.722324 0
M  V30 574 C 55.7657 -1.80595 3.08416 0
M  V30 575 S 57.3247 -2.59838 3.53596 0
M  V30 576 H 54.1427 -0.327524 0.63107 0
M  V30 577 H 56.7447 -0.241277 1.94005 0
M  V30 578 H 55.4487 -1.17249 3.93295 0
M  V30 579 H 54.9797 -2.58137 2.96865 0
M  V30 580 H 56.9947 -3.82987 3.15492 0
M  V30 581 N 56.1678 -1.49265 -0.50573 0
M  V30 582 C 57.3958 -1.62215 -1.28429 0
M  V30 583 C 57.8108 -0.291697 -1.86533 0
M  V30 584 O 57.1678 0.722233 -1.67601 0
M  V30 585 C 57.2188 -2.68735 -2.41793 0
M  V30 586 O 56.9398 -3.96619 -1.86078 0
M  V30 587 C 58.4408 -2.92346 -3.3324 0
M  V30 588 H 55.6608 -0.546239 -0.389697 0
M  V30 589 H 58.2048 -1.95265 -0.607609 0
M  V30 590 H 56.3598 -2.38476 -3.053 0
M  V30 591 H 56.7738 -4.55256 -2.60465 0
M  V30 592 H 58.2478 -3.70623 -4.09075 0
M  V30 593 H 58.7248 -2.02081 -3.89948 0
M  V30 594 H 59.3308 -3.24003 -2.75503 0
M  V30 595 N 57.6459 0.756429 -1.3826 0
M  V30 596 C 58.5559 1.9009 -1.37488 0
M  V30 597 C 59.5719 1.71855 -0.272366 0
M  V30 598 O 60.7479 1.94827 -0.510318 0
M  V30 599 C 57.8129 3.25421 -1.19592 0
M  V30 600 C 56.8739 3.56202 -2.39622 0
M  V30 601 C 56.1069 4.85075 -2.2257 0
M  V30 602 O 56.3299 5.57246 -1.21793 0
M  V30 603 O 55.2639 5.15269 -3.11098 0
M  V30 604 H 59.0899 1.93695 -2.33914 0
M  V30 605 H 56.6749 0.901313 -1.1915 0
M  V30 606 H 58.5569 4.06337 -1.11661 0
M  V30 607 H 57.2319 3.22634 -0.262486 0
M  V30 608 H 56.1389 2.75458 -2.53128 0
M  V30 609 H 57.4719 3.63747 -3.31586 0
M  V30 610 N 59.124 1.23083 0.984299 0
M  V30 611 C 60.364 1.07226 1.74017 0
M  V30 612 C 60.728 -0.384766 1.88105 0
M  V30 613 O 61.929 -0.664411 2.60459 0
M  V30 614 C 60.2 1.77348 3.10294 0
M  V30 615 S 61.759 1.77014 4.01512 0
M  V30 616 H 58.577 0.383819 0.598502 0
M  V30 617 H 61.179 1.56158 1.17622 0
M  V30 618 H 59.883 2.82506 2.97689 0
M  V30 619 H 59.414 1.28682 3.71759 0
M  V30 620 H 61.429 0.825956 4.89277 0
M  V30 621 N 60.6021 -1.18246 1.0419 0
M  V30 622 C 61.8481 -1.88536 0.747122 0
M  V30 623 C 62.1811 -1.80223 -0.723409 0
M  V30 624 O 61.4561 -1.20337 -1.52804 0
M  V30 625 C 61.7391 -3.38968 1.21544 0
M  V30 626 C 61.5921 -3.56084 2.74816 0
M  V30 627 C 62.9111 -4.32648 0.806482 0
M  V30 628 H 60.0301 -0.684619 0.272883 0
M  V30 629 H 62.6721 -1.39113 1.29413 0
M  V30 630 H 60.8221 -3.8119 0.750081 0
M  V30 631 H 62.4941 -3.22946 3.29399 0
M  V30 632 H 60.7371 -2.98699 3.14582 0
M  V30 633 H 61.4081 -4.61639 3.02644 0
M  V30 634 H 63.8841 -3.98211 1.20695 0
M  V30 635 H 62.7601 -5.36462 1.1619 0
M  V30 636 H 63.0211 -4.41146 -0.29029 0
M  V30 637 N 62.0802 -0.821533 -1.34494 0
M  V30 638 C 63.4962 -0.507117 -1.51329 0
M  V30 639 C 63.6962 0.968964 -1.76673 0
M  V30 640 O 62.7522 1.75348 -1.81685 0
M  V30 641 C 64.0652 -1.36544 -2.67911 0
M  V30 642 C 65.6132 -1.36242 -2.81793 0
M  V30 643 C 66.0882 -2.2052 -4.01416 0
M  V30 644 N 67.5792 -2.18136 -4.08621 0
M  V30 645 C 68.3142 -2.80095 -5.00334 0
M  V30 646 N 67.8102 -3.51039 -5.9728 0
M  V30 647 N 69.6032 -2.69656 -4.93196 0
M  V30 648 H 61.7542 -1.77729 -1.16302 0
M  V30 649 H 64.0172 -0.757291 -0.570276 0
M  V30 650 H 63.7232 -2.41361 -2.55808 0
M  V30 651 H 63.5972 -1.02917 -3.62888 0
M  V30 652 H 65.9842 -0.322041 -2.93338 0
M  V30 653 H 66.0652 -1.73866 -1.87628 0
M  V30 654 H 65.7092 -3.24607 -3.90631 0
M  V30 655 H 65.6392 -1.80247 -4.94791 0
M  V30 656 H 68.1302 -1.6653 -3.39229 0
M  V30 657 H 68.4432 -3.95565 -6.63889 0
M  V30 658 H 66.7882 -3.55145 -5.97409 0
M  V30 659 H 69.9792 -2.13808 -4.16418 0
M  V30 660 H 70.1522 -3.1823 -5.64476 0
M  V30 661 N 63.5583 1.46682 -0.576371 0
M  V30 662 C 64.8043 2.02712 -0.0596221 0
M  V30 663 C 65.1373 1.44765 1.29448 0
M  V30 664 O 64.4123 0.610355 1.84675 0
M  V30 665 C 64.6953 3.60098 0.0129503 0
M  V30 666 C 64.5483 4.28441 -1.3696 0
M  V30 667 C 65.8673 4.34224 0.71678 0
M  V30 668 H 62.9863 0.736637 -0.0231407 0
M  V30 669 H 65.6283 1.74898 -0.742351 0
M  V30 670 H 63.7783 3.83926 0.594378 0
M  V30 671 H 65.4503 4.15896 -1.9957 0
M  V30 672 H 63.6933 3.8805 -1.93907 0
M  V30 673 H 64.3643 5.3716 -1.27135 0
M  V30 674 H 66.8403 4.15503 0.222908 0
M  V30 675 H 65.7163 5.43936 0.73657 0
M  V30 676 H 65.9773 4.04823 1.77682 0
M  V30 677 N 65.0364 0.313813 1.54444 0
M  V30 678 C 66.3134 -0.345447 1.92525 0
M  V30 679 C 66.6934 -1.70667 1.24242 0
M  V30 680 O 66.0414 -2.25273 0.382654 0
M  V30 681 C 66.2514 -0.44737 3.46121 0
M  V30 682 C 67.5994 -0.712238 4.18584 0
M  V30 683 O 68.6234 -0.530678 3.52225 0
M  V30 684 O 67.4824 -1.06183 5.36085 0
M  V30 685 H 64.5764 -0.195407 0.803583 0
M  V30 686 H 67.1224 0.362813 1.65776 0
M  V30 687 H 65.8944 0.509043 3.87975 0
M  V30 688 H 65.5174 -1.20359 3.78945 0
M  V30 689 N 66.5145 -1.57545 0.0417849 0
M  V30 690 C 67.4615 -2.10977 -0.935805 0
M  V30 691 C 68.4315 -1.01486 -1.31491 0
M  V30 692 O 69.6165 -1.2898 -1.40602 0
M  V30 693 C 66.7565 -2.65169 -2.2086 0
M  V30 694 C 65.8695 -3.88714 -1.88482 0
M  V30 695 C 65.0045 -4.31254 -3.1015 0
M  V30 696 C 64.0435 -5.47524 -2.7365 0
M  V30 697 N 63.1805 -5.85162 -3.87982 0
M  V30 698 H 68.0205 -2.94218 -0.473249 0
M  V30 699 H 65.5575 -1.45415 -0.221981 0
M  V30 700 H 67.5155 -2.94685 -2.95325 0
M  V30 701 H 66.1455 -1.8474 -2.64709 0
M  V30 702 H 65.1975 -3.65849 -1.04205 0
M  V30 703 H 66.5095 -4.73245 -1.57608 0
M  V30 704 H 65.6635 -4.62273 -3.92923 0
M  V30 705 H 64.4025 -3.45516 -3.44195 0
M  V30 706 H 63.4075 -5.16187 -1.89291 0
M  V30 707 H 64.6325 -6.34971 -2.40807 0
M  V30 708 H 62.5785 -5.02377 -4.21846 0
M  V30 709 H 62.4955 -6.64362 -3.60775 0
M  V30 710 H 63.7635 -6.20791 -4.71422 0
M  V30 711 N 67.9926 0.231505 -1.5589 0
M  V30 712 C 69.2696 0.981096 -1.69215 0
M  V30 713 C 69.6496 2.02799 -0.586164 0
M  V30 714 O 68.9976 2.24823 0.408253 0
M  V30 715 C 69.2076 1.60054 -3.10135 0
M  V30 716 C 70.5556 2.09658 -3.69227 0
M  V30 717 O 71.5796 1.69967 -3.13033 0
M  V30 718 O 70.4386 2.8258 -4.67772 0
M  V30 719 H 67.5326 0.457653 -0.688827 0
M  V30 720 H 70.0786 0.224073 -1.68214 0
M  V30 721 H 68.8506 0.844105 -3.82087 0
M  V30 722 H 68.4736 2.42336 -3.15212 0
M  V30 723 N 69.4707 1.49531 0.497807 0
M  V30 724 C 70.7107 1.60799 1.26187 0
M  V30 725 C 71.0747 0.289627 1.89803 0
M  V30 726 O 72.2757 0.277512 2.67364 0
M  V30 727 C 70.5467 2.73729 2.29798 0
M  V30 728 S 72.1057 3.04968 3.155 0
M  V30 729 H 68.9237 0.567145 0.428798 0
M  V30 730 H 71.5257 1.87204 0.563477 0
M  V30 731 H 70.2297 3.68036 1.81597 0
M  V30 732 H 69.7607 2.49328 3.04301 0
M  V30 733 H 71.7757 2.46735 4.30507 0
M  V30 734 N 70.9488 -0.749086 1.3866 0
M  V30 735 C 71.9118 -1.84457 1.36045 0
M  V30 736 C 72.9118 -1.58682 0.260122 0
M  V30 737 O 74.1018 -1.66343 0.517261 0
M  V30 738 C 71.2338 -3.22008 1.11911 0
M  V30 739 H 72.4268 -1.88182 2.33512 0
M  V30 740 H 69.9798 -0.951266 1.24019 0
M  V30 741 H 70.7148 -3.2395 0.150686 0
M  V30 742 H 70.4998 -3.42111 1.91579 0
M  V30 743 H 71.9898 -4.0208 1.12788 0
M  V30 744 N 72.4269 -1.23603 -0.977757 0
M  V30 745 C 73.6569 -1.09487 -1.75203 0
M  V30 746 C 74.0649 0.356321 -1.85814 0
M  V30 747 O 73.4079 1.25816 -1.33851 0
M  V30 748 C 73.4699 -1.64905 -3.19447 0
M  V30 749 C 73.1339 -3.13688 -3.32338 0
M  V30 750 C 74.1309 -4.10953 -3.18455 0
M  V30 751 C 71.8159 -3.53449 -3.56902 0
M  V30 752 C 73.8099 -5.45962 -3.28944 0
M  V30 753 C 71.4969 -4.88602 -3.6703 0
M  V30 754 C 72.4949 -5.84668 -3.53062 0
M  V30 755 O 72.1829 -7.17365 -3.62826 0
M  V30 756 H 71.9149 -0.38367 -0.556573 0
M  V30 757 H 74.4689 -1.6398 -1.23693 0
M  V30 758 H 72.6989 -1.04835 -3.72218 0
M  V30 759 H 74.3879 -1.46226 -3.78646 0
M  V30 760 H 75.1539 -3.81577 -2.99372 0
M  V30 761 H 71.0329 -2.79188 -3.66844 0
M  V30 762 H 74.5769 -6.20925 -3.17958 0
M  V30 763 H 70.4739 -5.17653 -3.85623 0
M  V30 764 H 71.2419 -7.2515 -3.79605 0
M  V30 765 N 73.905 1.17692 -1.04816 0
M  V30 766 C 75.145 1.89545 -0.764979 0
M  V30 767 C 75.509 1.78979 0.695028 0
M  V30 768 O 76.71 2.45613 1.09215 0
M  V30 769 C 74.981 3.35659 -1.22751 0
M  V30 770 S 76.54 4.25526 -1.07112 0
M  V30 771 H 73.358 0.654432 -0.27792 0
M  V30 772 H 75.96 1.42163 -1.34201 0
M  V30 773 H 74.664 3.40882 -2.28533 0
M  V30 774 H 74.195 3.88083 -0.644594 0
M  V30 775 H 76.21 4.962 0.00697508 0
M  V30 776 N 75.3831 0.828654 1.34056 0
M  V30 777 C 76.6111 0.43262 2.02326 0
M  V30 778 C 77.0261 -0.963147 1.62385 0
M  V30 779 O 76.3831 -1.62425 0.832121 0
M  V30 780 C 76.4341 0.53182 3.57567 0
M  V30 781 O 76.1551 1.87258 3.96063 0
M  V30 782 C 77.6561 0.131422 4.43105 0
M  V30 783 H 74.8761 0.172923 0.648335 0
M  V30 784 H 77.4201 1.1184 1.71208 0
M  V30 785 H 75.5751 -0.105938 3.87255 0
M  V30 786 H 75.9891 1.85087 4.90758 0
M  V30 787 H 77.4631 0.251904 5.51425 0
M  V30 788 H 77.9401 -0.925645 4.29335 0
M  V30 789 H 78.5461 0.743207 4.18756 0
M  V30 790 N 76.8612 -1.46375 0.584142 0
M  V30 791 C 78.1382 -1.956 0.0033388 0
M  V30 792 C 78.5182 -1.52679 -1.45782 0
M  V30 793 O 77.8662 -0.77816 -2.14842 0
M  V30 794 C 78.0762 -3.48551 0.176891 0
M  V30 795 C 79.4242 -4.24576 0.0454609 0
M  V30 796 O 80.4482 -3.56043 0.105801 0
M  V30 797 O 79.3072 -5.46427 -0.0890376 0
M  V30 798 H 76.4012 -0.825547 -0.0490066 0
M  V30 799 H 78.9472 -1.56652 0.65256 0
M  V30 800 H 77.7192 -3.72683 1.1926 0
M  V30 801 H 77.3422 -3.94332 -0.508695 0
M  V30 802 N 78.3393 -0.321999 -1.54275 0
M  V30 803 C 79.2493 0.553631 -2.27974 0
M  V30 804 C 80.2653 1.13054 -1.32268 0
M  V30 805 O 81.4413 1.15084 -1.6528 0
M  V30 806 C 78.5063 1.69927 -3.02201 0
M  V30 807 C 77.5673 1.15433 -4.1349 0
M  V30 808 C 76.8003 2.24537 -4.84168 0
M  V30 809 O 77.0233 3.44852 -4.5435 0
M  V30 810 O 75.9573 1.90044 -5.7111 0
M  V30 811 H 79.7833 -0.0448345 -3.03667 0
M  V30 812 H 77.3683 -0.0877418 -1.49142 0
M  V30 813 H 79.2503 2.3663 -3.48689 0
M  V30 814 H 77.9253 2.28395 -2.29385 0
M  V30 815 H 76.8323 0.452436 -3.71354 0
M  V30 816 H 78.1653 0.614805 -4.88345 0
M  V30 817 N 79.8174 1.5752 -0.0501392 0
M  V30 818 C 80.7504 2.07026 0.959962 0
M  V30 819 C 81.7284 0.970539 1.30458 0
M  V30 820 O 82.9124 1.2424 1.41763 0
M  V30 821 C 80.0394 2.5099 2.27424 0
M  V30 822 C 79.0854 3.72188 2.08275 0
M  V30 823 S 79.9184 5.17888 1.36207 0
M  V30 824 C 81.0744 5.65165 2.6896 0
M  V30 825 H 81.3074 2.9238 0.538631 0
M  V30 826 H 78.8404 1.53547 0.162099 0
M  V30 827 H 80.7984 2.76982 3.02971 0
M  V30 828 H 79.4594 1.65944 2.66686 0
M  V30 829 H 78.6524 4.00866 3.05487 0
M  V30 830 H 78.2544 3.46457 1.40868 0
M  V30 831 H 80.5464 5.70687 3.65133 0
M  V30 832 H 81.4894 6.64394 2.4492 0
M  V30 833 H 81.8974 4.9289 2.75172 0
M  V30 834 N 81.2955 -0.223234 1.56011 0
M  V30 835 C 82.5425 -0.947875 1.78946 0
M  V30 836 C 82.8705 -1.844 0.618608 0
M  V30 837 O 82.1255 -1.91629 -0.397093 0
M  V30 838 C 82.4245 -1.81948 3.0762 0
M  V30 839 C 82.0905 -1.07672 4.37856 0
M  V30 840 C 80.7525 -0.871544 4.73242 0
M  V30 841 C 83.1045 -0.552081 5.18268 0
M  V30 842 C 80.4325 -0.129791 5.86556 0
M  V30 843 C 82.7845 0.17632 6.32354 0
M  V30 844 C 81.4485 0.39277 6.66343 0
M  V30 845 H 80.7185 -0.346852 0.654809 0
M  V30 846 H 83.3655 -0.216171 1.90276 0
M  V30 847 H 81.6705 -2.61899 2.91404 0
M  V30 848 H 83.3675 -2.38227 3.22566 0
M  V30 849 H 79.9575 -1.24662 4.1007 0
M  V30 850 H 84.1415 -0.698076 4.91366 0
M  V30 851 H 79.3975 0.048153 6.11381 0
M  V30 852 H 83.5715 0.590367 6.93893 0
M  V30 853 H 81.1985 0.969466 7.53993 0
M  V30 854 N 82.7736 -1.49793 -0.48987 0
M  V30 855 C 84.1896 -1.36803 -0.822022 0
M  V30 856 C 84.3896 -0.409652 -1.97292 0
M  V30 857 O 83.4456 0.154614 -2.52026 0
M  V30 858 C 84.7586 -2.77768 -1.15175 0
M  V30 859 C 86.3066 -2.86549 -1.25931 0
M  V30 860 C 86.7816 -4.28306 -1.62228 0
M  V30 861 N 88.2726 -4.31169 -1.69256 0
M  V30 862 C 89.0076 -5.37832 -1.98807 0
M  V30 863 N 88.5036 -6.54726 -2.26507 0
M  V30 864 N 90.2966 -5.25258 -2.00152 0
M  V30 865 H 82.4476 -2.10691 0.268881 0
M  V30 866 H 84.7106 -0.946241 0.057728 0
M  V30 867 H 84.4166 -3.49648 -0.379335 0
M  V30 868 H 84.2906 -3.13836 -2.09253 0
M  V30 869 H 86.6776 -2.14899 -2.02243 0
M  V30 870 H 86.7586 -2.54049 -0.298776 0
M  V30 871 H 86.4026 -5.00486 -0.864622 0
M  V30 872 H 86.3326 -4.58279 -2.594 0
M  V30 873 H 88.8236 -3.4687 -1.49965 0
M  V30 874 H 89.1366 -7.31833 -2.48276 0
M  V30 875 H 87.4816 -6.57933 -2.23939 0
M  V30 876 H 90.6726 -4.32938 -1.77996 0
M  V30 877 H 90.8456 -6.08476 -2.22848 0
M  V30 878 N 84.2517 0.741722 -1.39055 0
M  V30 879 C 85.5287 1.49252 -1.26425 0
M  V30 880 C 85.9087 2.10705 0.129144 0
M  V30 881 O 85.2567 1.98045 1.13976 0
M  V30 882 C 85.4667 2.54934 -2.38347 0
M  V30 883 C 86.8147 3.21506 -2.77343 0
M  V30 884 O 87.8387 2.65245 -2.37747 0
M  V30 885 O 86.6977 4.23294 -3.45665 0
M  V30 886 H 83.7917 0.662451 -0.495064 0
M  V30 887 H 86.3377 0.776121 -1.50912 0
M  V30 888 H 85.1097 2.07857 -3.31529 0
M  V30 889 H 84.7327 3.34141 -2.15489 0
M  V30 890 N 85.7298 1.2412 0.971189 0
M  V30 891 C 87.1458 1.00584 1.23916 0
M  V30 892 C 87.3458 -0.287481 1.99439 0
M  V30 893 O 86.4018 -1.00454 2.31658 0
M  V30 894 C 87.7148 2.21864 2.0297 0
M  V30 895 C 89.2628 2.26452 2.16076 0
M  V30 896 C 89.7378 3.47343 2.98524 0
M  V30 897 N 91.2288 3.47639 3.06107 0
M  V30 898 C 91.9638 4.37837 3.70251 0
M  V30 899 N 91.4598 5.38286 4.36142 0
M  V30 900 N 93.2528 4.25558 3.67228 0
M  V30 901 H 85.4038 2.07236 0.465499 0
M  V30 902 H 87.6668 0.909236 0.268315 0
M  V30 903 H 87.3728 3.15771 1.54861 0
M  V30 904 H 87.2468 2.23698 3.03709 0
M  V30 905 H 89.6338 1.33078 2.6339 0
M  V30 906 H 89.7148 2.28645 1.14696 0
M  V30 907 H 89.3588 4.41029 2.51905 0
M  V30 908 H 89.2888 3.42393 4.00093 0
M  V30 909 H 91.7798 2.74966 2.59233 0
M  V30 910 H 92.0928 6.03352 4.82894 0
M  V30 911 H 90.4378 5.42176 4.34822 0
M  V30 912 H 93.6288 3.46322 3.14927 0
M  V30 913 H 93.8018 4.96054 4.16935 0
M  V30 914 N 87.2079 -1.17134 1.05439 0
M  V30 915 C 88.6239 -1.39454 0.776201 0
M  V30 916 C 88.8239 -1.91454 -0.628307 0
M  V30 917 O 87.8799 -2.10777 -1.39031 0
M  V30 918 C 89.1929 -2.38305 1.83388 0
M  V30 919 C 90.7409 -2.52006 1.85639 0
M  V30 920 C 91.2159 -3.54133 2.90437 0
M  V30 921 N 92.7069 -3.61653 2.89415 0
M  V30 922 C 93.4419 -4.4044 3.67152 0
M  V30 923 N 92.9379 -5.22721 4.54681 0
M  V30 924 N 94.7309 -4.35337 3.55581 0
M  V30 925 H 86.8819 -0.817134 1.96053 0
M  V30 926 H 89.1449 -0.421626 0.849079 0
M  V30 927 H 88.8509 -2.07173 2.84204 0
M  V30 928 H 88.7249 -3.37841 1.67761 0
M  V30 929 H 91.1119 -2.82447 0.85486 0
M  V30 930 H 91.1929 -1.52537 2.05344 0
M  V30 931 H 90.8369 -3.24431 3.90777 0
M  V30 932 H 90.7669 -4.53313 2.67983 0
M  V30 933 H 93.2579 -3.02909 2.25952 0
M  V30 934 H 93.5709 -5.80027 5.10674 0
M  V30 935 H 91.9159 -5.22093 4.58741 0
M  V30 936 H 95.1069 -3.70112 2.86592 0
M  V30 937 H 95.2799 -4.96494 4.1641 0
M  V30 938 N 88.686 -0.835752 -1.33615 0
M  V30 939 C 89.926 -0.43599 -1.99696 0
M  V30 940 C 90.29 0.98557 -1.64774 0
M  V30 941 O 91.491 1.48889 -2.23798 0
M  V30 942 C 89.762 -0.646721 -3.515 0
M  V30 943 S 91.321 -0.341715 -4.37467 0
M  V30 944 H 88.139 -0.164136 -0.691795 0
M  V30 945 H 90.741 -1.08436 -1.62671 0
M  V30 946 H 89.445 -1.68077 -3.74404 0
M  V30 947 H 88.976 0.0159173 -3.93397 0
M  V30 948 H 90.991 0.839708 -4.89043 0
M  V30 949 N 90.1641 1.46063 -0.591896 0
M  V30 950 C 91.1121 2.32124 0.148739 0
M  V30 951 C 92.1061 1.45035 0.875286 0
M  V30 952 O 93.3121 1.61609 0.792632 0
M  V30 953 H 89.6871 0.749024 0.066832 0
M  V30 954 H 91.6581 2.92392 -0.595783 0
M  V30 955 C 90.4071 3.28373 1.1431 0
M  V30 956 H 89.7301 3.95371 0.59346 0
M  V30 957 H 91.1701 3.91352 1.63155 0
M  V30 958 C 89.6291 2.54393 2.20875 0
M  V30 959 O 90.1591 2.31373 3.28374 0
M  V30 960 N 88.3651 2.14797 1.95731 0
M  V30 961 H 87.9121 2.33719 1.08319 0
M  V30 962 H 87.8701 1.65619 2.67241 0
M  V30 963 N 91.6422 0.330177 1.54103 0
M  V30 964 C 92.8702 -0.272179 2.05102 0
M  V30 965 C 93.2852 -1.45267 1.20595 0
M  V30 966 O 92.6422 -1.8094 0.238144 0
M  V30 967 C 92.6932 -0.70023 3.54653 0
M  V30 968 O 92.4142 0.433301 4.35952 0
M  V30 969 C 93.9152 -1.3647 4.21771 0
M  V30 970 H 91.1352 -0.0549159 0.668749 0
M  V30 971 H 93.6792 0.478285 1.98828 0
M  V30 972 H 91.8342 -1.40066 3.61193 0
M  V30 973 H 92.2482 0.0947539 5.24414 0
M  V30 974 H 93.7222 -1.61509 5.27843 0
M  V30 975 H 94.1992 -2.31409 3.73292 0
M  V30 976 H 94.8052 -0.706675 4.19388 0
M  V30 977 N 93.1203 -1.57491 0.0584922 0
M  V30 978 C 94.0523 -2.08916 -0.942694 0
M  V30 979 C 95.0653 -1.0185 -1.27006 0
M  V30 980 O 96.2543 -1.29398 -1.22957 0
M  V30 981 C 93.3543 -2.52341 -2.26224 0
M  V30 982 C 92.5273 -3.82827 -2.1157 0
M  V30 983 C 91.5863 -4.12487 -3.26712 0
M  V30 984 O 90.6123 -4.82295 -3.02292 0
M  V30 985 N 91.8143 -3.64978 -4.5141 0
M  V30 986 H 94.5793 -2.95437 -0.503722 0
M  V30 987 H 92.1403 -1.61397 -0.12757 0
M  V30 988 H 94.1323 -2.69254 -3.02133 0
M  V30 989 H 92.7023 -1.7103 -2.61663 0
M  V30 990 H 91.9223 -3.75425 -1.20208 0
M  V30 991 H 93.2103 -4.68263 -1.99015 0
M  V30 992 H 92.6083 -3.08558 -4.7414 0
M  V30 993 H 91.1653 -3.87115 -5.2439 0
M  V30 994 N 94.5984 0.214957 -1.56127 0
M  V30 995 C 95.5614 1.24997 -1.92116 0
M  V30 996 C 96.5614 1.39467 -0.800344 0
M  V30 997 O 97.7514 1.37619 -1.06802 0
M  V30 998 C 94.8834 2.62271 -2.17777 0
M  V30 999 H 96.0764 0.942875 -2.84693 0
M  V30 1000 H 93.6294 0.455654 -1.49511 0
M  V30 1001 H 94.3644 2.98068 -1.27773 0
M  V30 1002 H 94.1494 2.53143 -2.99434 0
M  V30 1003 H 95.6394 3.36946 -2.46693 0
M  V30 1004 N 96.0765 1.50051 0.48192 0
M  V30 1005 C 96.9865 1.7089 1.60728 0
M  V30 1006 C 98.0025 0.591788 1.63627 0
M  V30 1007 O 99.1785 0.868817 1.81696 0
M  V30 1008 C 96.2435 1.78855 2.97005 0
M  V30 1009 C 95.3045 3.02537 3.04581 0
M  V30 1010 C 94.5375 3.10112 4.34357 0
M  V30 1011 O 94.7605 2.24765 5.24249 0
M  V30 1012 O 93.6945 4.02747 4.47301 0
M  V30 1013 H 97.5205 2.66264 1.46072 0
M  V30 1014 H 95.1055 1.34018 0.660264 0
M  V30 1015 H 96.9875 1.86336 3.77964 0
M  V30 1016 H 95.6625 0.866628 3.11883 0
M  V30 1017 H 94.5695 3.00563 2.22739 0
M  V30 1018 H 95.9025 3.94272 2.94636 0
M  V30 1019 N 97.5546 -0.734337 1.39446 0
M  V30 1020 C 98.4846 -1.86155 1.40955 0
M  V30 1021 C 99.4656 -1.67898 0.272827 0
M  V30 1022 O 100.651 -1.88207 0.478743 0
M  V30 1023 C 97.7806 -3.23912 1.25294 0
M  V30 1024 C 96.7346 -3.56808 2.36373 0
M  V30 1025 C 96.0606 -4.93508 2.058 0
M  V30 1026 C 97.3606 -3.59713 3.78687 0
M  V30 1027 H 99.0546 -1.8515 2.35287 0
M  V30 1028 H 96.6006 -0.889367 1.13253 0
M  V30 1029 H 98.5536 -4.02443 1.2497 0
M  V30 1030 H 97.2776 -3.25446 0.274308 0
M  V30 1031 H 95.9366 -2.80606 2.35914 0
M  V30 1032 H 95.5846 -4.91623 1.06374 0
M  V30 1033 H 95.2846 -5.16486 2.80208 0
M  V30 1034 H 96.8086 -5.74396 2.07128 0
M  V30 1035 H 98.2226 -4.2832 3.81071 0
M  V30 1036 H 96.6196 -3.94209 4.52459 0
M  V30 1037 H 97.6896 -2.59504 4.09617 0
M  V30 1038 N 99.0327 -1.24633 -0.964593 0
M  V30 1039 C 99.9627 -1.06611 -2.07741 0
M  V30 1040 C 100.944 0.0218666 -1.70086 0
M  V30 1041 O 102.129 -0.145793 -1.93652 0
M  V30 1042 C 99.2587 -0.673444 -3.40708 0
M  V30 1043 C 98.2127 -1.71054 -3.92332 0
M  V30 1044 C 97.5387 -1.17285 -5.21678 0
M  V30 1045 C 98.8387 -3.10718 -4.19824 0
M  V30 1046 H 100.533 -1.99693 -2.23076 0
M  V30 1047 H 98.0787 -0.96152 -1.07195 0
M  V30 1048 H 100.032 -0.534345 -4.17998 0
M  V30 1049 H 98.7557 0.293073 -3.25282 0
M  V30 1050 H 97.4147 -1.83791 -3.17201 0
M  V30 1051 H 97.0627 -0.196847 -5.02615 0
M  V30 1052 H 96.7627 -1.86592 -5.57187 0
M  V30 1053 H 98.2867 -1.04593 -6.01575 0
M  V30 1054 H 99.7007 -3.01192 -4.87808 0
M  V30 1055 H 98.0977 -3.77406 -4.66567 0
M  V30 1056 H 99.1677 -3.58524 -3.26479 0
M  V30 1057 N 100.511 1.16574 -1.06058 0
M  V30 1058 C 101.474 2.19085 -0.673392 0
M  V30 1059 C 102.474 1.5835 0.279648 0
M  V30 1060 O 103.664 1.74088 0.0623488 0
M  V30 1061 C 100.796 3.40899 0.00954234 0
M  V30 1062 H 101.989 2.54853 -1.58081 0
M  V30 1063 H 99.5418 1.30808 -0.855516 0
M  V30 1064 H 100.277 3.10684 0.929826 0
M  V30 1065 H 100.062 3.86233 -0.67573 0
M  V30 1066 H 101.552 4.1675 0.266245 0
M  V30 1067 N 101.989 0.842826 1.3317 0
M  V30 1068 C 102.952 0.284065 2.27433 0
M  V30 1069 C 103.952 -0.54948 1.5112 0
M  V30 1070 O 105.142 -0.362699 1.70382 0
M  V30 1071 C 102.274 -0.599384 3.35589 0
M  V30 1072 H 103.467 1.11589 2.78366 0
M  V30 1073 H 101.02 0.616221 1.4364 0
M  V30 1074 H 101.755 -1.45349 2.89904 0
M  V30 1075 H 101.54 -0.00291266 3.921 0
M  V30 1076 H 103.03 -0.983488 4.05854 0
M  V30 1077 N 103.467 -1.45747 0.599634 0
M  V30 1078 C 104.715 -2.01893 0.0915472 0
M  V30 1079 C 105.036 -1.47155 -1.27946 0
M  V30 1080 O 104.306 -0.66273 -1.84349 0
M  V30 1081 H 102.886 -0.746363 0.0308524 0
M  V30 1082 H 105.548 -1.78645 0.779237 0
M  V30 1083 H 104.644 -3.1208 0.0353086 0
M  V30 1084 N 104.945 -0.338344 -1.53925 0
M  V30 1085 C 106.185 0.260168 -2.02737 0
M  V30 1086 C 106.549 1.48181 -1.22092 0
M  V30 1087 O 107.75 2.15416 -1.60777 0
M  V30 1088 C 106.021 0.571627 -3.52799 0
M  V30 1089 S 107.58 1.14769 -4.23525 0
M  V30 1090 H 104.398 0.077791 -0.706732 0
M  V30 1091 H 107 -0.474899 -1.89644 0
M  V30 1092 H 105.704 -0.325392 -4.09108 0
M  V30 1093 H 105.235 1.3365 -3.70002 0
M  V30 1094 H 107.25 2.43372 -4.32417 0
M  V30 1095 N 106.423 1.57458 -0.0668435 0
M  V30 1096 C 107.355 2.09413 0.931601 0
M  V30 1097 C 108.368 1.02522 1.26464 0
M  V30 1098 O 109.557 1.30049 1.22269 0
M  V30 1099 C 106.657 2.53537 2.24882 0
M  V30 1100 C 105.83 3.83944 2.09537 0
M  V30 1101 C 104.889 4.14214 3.2452 0
M  V30 1102 O 103.915 4.83891 2.9973 0
M  V30 1103 N 105.117 3.67367 4.49469 0
M  V30 1104 H 107.882 2.95699 0.488048 0
M  V30 1105 H 105.443 1.61462 0.119009 0
M  V30 1106 H 107.435 2.70853 3.00701 0
M  V30 1107 H 106.005 1.72415 2.60753 0
M  V30 1108 H 105.225 3.76057 1.18215 0
M  V30 1109 H 106.513 4.69312 1.96529 0
M  V30 1110 H 105.911 3.11068 4.72497 0
M  V30 1111 H 104.468 3.89891 5.2233 0
M  V30 1112 N 107.901 -0.206675 1.56239 0
M  V30 1113 C 109.317 -0.557025 1.49564 0
M  V30 1114 C 109.517 -1.86424 0.764735 0
M  V30 1115 O 108.573 -2.50584 0.310491 0
M  V30 1116 C 109.886 -0.622478 2.94186 0
M  V30 1117 C 111.434 -0.712099 3.04792 0
M  V30 1118 C 111.909 -0.808767 4.50803 0
M  V30 1119 N 113.4 -0.8726 4.54907 0
M  V30 1120 C 114.135 -0.967365 5.65181 0
M  V30 1121 N 113.631 -1.02515 6.85173 0
M  V30 1122 N 115.424 -1.00366 5.53067 0
M  V30 1123 H 107.575 0.650943 2.02179 0
M  V30 1124 H 109.838 0.230387 0.919579 0
M  V30 1125 H 109.544 0.268727 3.50672 0
M  V30 1126 H 109.418 -1.4811 3.46905 0
M  V30 1127 H 111.805 -1.59374 2.48363 0
M  V30 1128 H 111.886 0.172489 2.55218 0
M  V30 1129 H 111.53 0.0684754 5.07854 0
M  V30 1130 H 111.46 -1.70899 4.98098 0
M  V30 1131 H 113.951 -0.837657 3.68499 0
M  V30 1132 H 114.264 -1.09765 7.64965 0
M  V30 1133 H 112.609 -0.994026 6.87855 0
M  V30 1134 H 115.8 -0.95527 4.58249 0
M  V30 1135 H 115.973 -1.07405 6.39037 0
M  V30 1136 N 109.379 -1.50304 -0.473955 0
M  V30 1137 C 110.289 -1.7174 -1.5982 0
M  V30 1138 C 111.305 -0.600457 -1.63311 0
M  V30 1139 O 112.481 -0.878441 -1.81233 0
M  V30 1140 C 109.546 -1.80427 -2.96052 0
M  V30 1141 C 108.607 -3.04148 -3.02972 0
M  V30 1142 C 107.84 -3.12411 -4.32706 0
M  V30 1143 O 108.063 -2.27542 -5.23049 0
M  V30 1144 O 106.997 -4.05113 -4.45159 0
M  V30 1145 H 110.823 -2.67035 -1.44657 0
M  V30 1146 H 108.408 -1.34366 -0.653148 0
M  V30 1147 H 110.29 -1.88338 -3.7697 0
M  V30 1148 H 108.965 -0.883156 -3.11419 0
M  V30 1149 H 107.872 -3.0174 -2.21142 0
M  V30 1150 H 109.205 -3.95829 -2.92541 0
M  V30 1151 N 110.857 0.726932 -1.39834 0
M  V30 1152 C 112.082 1.52121 -1.40976 0
M  V30 1153 C 112.507 1.88098 -0.00826029 0
M  V30 1154 O 111.865 1.52479 0.980807 0
M  V30 1155 C 111.913 2.78021 -2.29644 0
M  V30 1156 O 111.017 3.74272 -1.73188 0
M  V30 1157 H 110.358 0.45908 -0.479731 0
M  V30 1158 H 112.888 0.896207 -1.83927 0
M  V30 1159 H 112.898 3.26671 -2.44438 0
M  V30 1160 H 111.573 2.51169 -3.31492 0
M  V30 1161 H 110.15 3.33073 -1.6768 0
M  V30 1162 N 112.336 1.25143 0.95797 0
M  V30 1163 C 113.585 1.0909 1.69654 0
M  V30 1164 C 113.898 -0.368548 1.92097 0
M  V30 1165 O 115.104 -0.649455 2.63618 0
M  V30 1166 C 113.56 1.90395 3.05414 0
M  V30 1167 C 113.168 3.4081 2.90779 0
M  V30 1168 C 114.912 1.82901 3.83076 0
M  V30 1169 C 112.819 4.14423 4.21909 0
M  V30 1170 H 111.749 0.404625 0.636235 0
M  V30 1171 H 114.4 1.4931 1.06672 0
M  V30 1172 H 112.782 1.42996 3.69281 0
M  V30 1173 H 113.956 3.95859 2.35865 0
M  V30 1174 H 112.271 3.49361 2.26575 0
M  V30 1175 H 114.868 2.35196 4.80195 0
M  V30 1176 H 115.211 0.796224 4.08615 0
M  V30 1177 H 115.744 2.28033 3.25954 0
M  V30 1178 H 112.483 5.18102 4.01561 0
M  V30 1179 H 112.003 3.64159 4.76601 0
M  V30 1180 H 113.682 4.21956 4.90471 0
M  V30 1181 N 113.814 -1.1601 1.06675 0
M  V30 1182 C 115.06 -1.86909 0.786945 0
M  V30 1183 C 115.393 -1.81717 -0.685018 0
M  V30 1184 O 114.668 -1.23551 -1.50218 0
M  V30 1185 C 114.951 -3.36313 1.28707 0
M  V30 1186 C 114.804 -3.50175 2.82308 0
M  V30 1187 C 116.123 -4.3084 0.898071 0
M  V30 1188 H 113.242 -0.678677 0.287343 0
M  V30 1189 H 115.884 -1.36336 1.32334 0
M  V30 1190 H 114.034 -3.79513 0.830768 0
M  V30 1191 H 115.706 -3.15886 3.36175 0
M  V30 1192 H 113.949 -2.91959 3.20847 0
M  V30 1193 H 114.62 -4.55116 3.12368 0
M  V30 1194 H 117.096 -3.95561 1.29114 0
M  V30 1195 H 115.972 -5.33876 1.27543 0
M  V30 1196 H 116.233 -4.41662 -0.196651 0
M  V30 1197 N 115.292 -0.849877 -1.32721 0
M  V30 1198 C 116.538 -0.451591 -1.97708 0
M  V30 1199 C 116.871 0.989175 -1.6712 0
M  V30 1200 O 116.146 1.69334 -0.956891 0
M  V30 1201 C 116.429 -0.685598 -3.53513 0
M  V30 1202 C 116.282 -2.17444 -3.93749 0
M  V30 1203 C 117.601 -0.138874 -4.39881 0
M  V30 1204 H 114.72 -0.16555 -0.718166 0
M  V30 1205 H 117.362 -1.06742 -1.57182 0
M  V30 1206 H 115.512 -0.161416 -3.88165 0
M  V30 1207 H 117.184 -2.76433 -3.693 0
M  V30 1208 H 115.427 -2.65476 -3.43081 0
M  V30 1209 H 116.098 -2.28888 -5.02309 0
M  V30 1210 H 118.574 -0.587068 -4.11938 0
M  V30 1211 H 117.45 -0.332213 -5.47894 0
M  V30 1212 H 117.711 0.95806 -4.31594 0
M  V30 1213 N 116.77 1.45427 -0.607355 0
M  V30 1214 C 117.703 2.27635 0.160482 0
M  V30 1215 C 118.681 1.37122 0.873857 0
M  V30 1216 O 119.865 1.66551 0.882775 0
M  V30 1217 C 116.992 3.15486 1.23231 0
M  V30 1218 C 116.038 4.21939 0.622097 0
M  V30 1219 S 116.871 5.32459 -0.569852 0
M  V30 1220 C 118.027 6.23879 0.502577 0
M  V30 1221 H 118.26 2.9241 -0.536983 0
M  V30 1222 H 115.793 1.49265 -0.394868 0
M  V30 1223 H 117.751 3.66659 1.84585 0
M  V30 1224 H 116.412 2.49977 1.90185 0
M  V30 1225 H 115.605 4.8333 1.42856 0
M  V30 1226 H 115.207 3.73906 0.0837063 0
M  V30 1227 H 117.499 6.63261 1.38171 0
M  V30 1228 H 118.442 7.0806 -0.0751759 0
M  V30 1229 H 118.85 5.58545 0.8178 0
M  V30 1230 N 118.248 0.346503 1.53744 0
M  V30 1231 C 119.158 -0.517293 2.28826 0
M  V30 1232 C 120.174 -1.10935 1.3405 0
M  V30 1233 O 121.35 -1.1244 1.6709 0
M  V30 1234 C 118.415 -1.65098 3.04866 0
M  V30 1235 C 117.476 -1.0884 4.15274 0
M  V30 1236 C 116.709 -2.16806 4.87679 0
M  V30 1237 O 116.932 -3.3758 4.59778 0
M  V30 1238 O 115.866 -1.80934 5.74061 0
M  V30 1239 H 119.692 0.0931396 3.03557 0
M  V30 1240 H 117.277 0.111458 1.48984 0
M  V30 1241 H 119.159 -2.31053 3.5241 0
M  V30 1242 H 117.834 -2.24717 2.32989 0
M  V30 1243 H 116.741 -0.3933 3.72027 0
M  V30 1244 H 118.074 -0.537036 4.89261 0
M  V30 1245 N 119.726 -1.57421 0.075193 0
M  V30 1246 C 120.951 -1.98364 -0.605515 0
M  V30 1247 C 121.376 -0.953383 -1.62149 0
M  V30 1248 O 120.734 0.0806053 -1.81121 0
M  V30 1249 C 120.782 -3.38332 -1.24756 0
M  V30 1250 O 119.886 -3.37959 -2.36342 0
M  V30 1251 H 119.227 -0.645553 -0.155428 0
M  V30 1252 H 121.757 -2.04044 0.150714 0
M  V30 1253 H 121.767 -3.75591 -1.5936 0
M  V30 1254 H 120.442 -4.12846 -0.503129 0
M  V30 1255 H 119.019 -3.12474 -2.03506 0
M  V30 1256 N 121.204 0.198386 -1.56346 0
M  V30 1257 C 122.429 0.939682 -1.84891 0
M  V30 1258 C 122.854 1.76202 -0.658369 0
M  V30 1259 O 122.212 1.76993 0.392851 0
M  V30 1260 C 122.26 1.81428 -3.11635 0
M  V30 1261 O 121.364 2.91265 -2.91956 0
M  V30 1262 H 120.705 0.264807 -0.608912 0
M  V30 1263 H 123.235 0.204695 -2.03573 0
M  V30 1264 H 123.245 2.21958 -3.42343 0
M  V30 1265 H 121.92 1.21004 -3.97908 0
M  V30 1266 H 120.497 2.54514 -2.72538 0
M  V30 1267 N 122.682 1.50554 0.465978 0
M  V30 1268 C 123.929 1.61798 1.21768 0
M  V30 1269 C 124.257 0.320696 1.91838 0
M  V30 1270 O 123.512 -0.693724 1.82992 0
M  V30 1271 C 123.811 2.75152 2.28093 0
M  V30 1272 C 123.477 4.15454 1.75239 0
M  V30 1273 C 122.139 4.53628 1.60546 0
M  V30 1274 C 124.491 5.03121 1.36083 0
M  V30 1275 C 121.819 5.77204 1.05128 0
M  V30 1276 C 124.171 6.27249 0.821056 0
M  V30 1277 C 122.835 6.64221 0.660795 0
M  V30 1278 H 122.105 0.592063 0.445582 0
M  V30 1279 H 124.752 1.84503 0.512927 0
M  V30 1280 H 123.057 2.46556 3.04496 0
M  V30 1281 H 124.754 2.81055 2.86023 0
M  V30 1282 H 121.344 3.85341 1.87644 0
M  V30 1283 H 125.528 4.74257 1.46267 0
M  V30 1284 H 120.784 6.0452 0.91462 0
M  V30 1285 H 124.958 6.94537 0.509018 0
M  V30 1286 H 122.585 7.59854 0.229226 0
M  V30 1287 N 124.16 -0.719506 1.40217 0
M  V30 1288 C 125.092 -1.84428 1.36084 0
M  V30 1289 C 126.105 -1.60597 0.266913 0
M  V30 1290 O 127.294 -1.70544 0.526983 0
M  V30 1291 C 124.394 -3.20757 1.094 0
M  V30 1292 C 123.567 -3.71817 2.30372 0
M  V30 1293 C 122.626 -4.86748 1.99907 0
M  V30 1294 O 121.652 -4.99603 2.72737 0
M  V30 1295 N 122.854 -5.7226 0.974635 0
M  V30 1296 H 125.619 -1.88473 2.33019 0
M  V30 1297 H 123.18 -0.900885 1.3452 0
M  V30 1298 H 125.172 -3.95235 0.870116 0
M  V30 1299 H 123.742 -3.11884 0.211452 0
M  V30 1300 H 122.962 -2.88514 2.68614 0
M  V30 1301 H 124.25 -4.02666 3.11026 0
M  V30 1302 H 123.648 -5.6448 0.371368 0
M  V30 1303 H 122.205 -6.46739 0.810656 0
M  V30 1304 N 125.638 -1.25649 -0.95132 0
M  V30 1305 C 126.887 -1.09988 -1.69073 0
M  V30 1306 C 127.2 0.358355 -1.92289 0
M  V30 1307 O 128.406 0.635466 -2.63958 0
M  V30 1308 C 126.862 -1.92012 -3.044 0
M  V30 1309 C 126.47 -3.42347 -2.88968 0
M  V30 1310 C 128.214 -1.8493 -3.82101 0
M  V30 1311 C 126.121 -4.16655 -4.19705 0
M  V30 1312 H 125.051 -0.407993 -0.63408 0
M  V30 1313 H 127.702 -1.49873 -1.05879 0
M  V30 1314 H 126.084 -1.44952 -3.68517 0
M  V30 1315 H 127.258 -3.97104 -2.33762 0
M  V30 1316 H 125.573 -3.50557 -2.24719 0
M  V30 1317 H 128.17 -2.37739 -4.78941 0
M  V30 1318 H 128.513 -0.817883 -4.08187 0
M  V30 1319 H 129.046 -2.29758 -3.2474 0
M  V30 1320 H 125.785 -5.20224 -3.98807 0
M  V30 1321 H 125.305 -3.66681 -4.74663 0
M  V30 1322 H 126.984 -4.24551 -4.88227 0
M  V30 1323 N 127.117 1.15442 -1.07289 0
M  V30 1324 C 128.345 1.90096 -0.81676 0
M  V30 1325 C 128.76 1.7798 0.629966 0
M  V30 1326 O 128.117 1.1313 1.43206 0
M  V30 1327 C 128.168 3.40466 -1.21512 0
M  V30 1328 O 127.889 3.52232 -2.60508 0
M  V30 1329 C 129.39 4.32145 -0.988198 0
M  V30 1330 H 126.61 0.602495 -0.295366 0
M  V30 1331 H 129.154 1.4627 -1.42918 0
M  V30 1332 H 127.309 3.81958 -0.647039 0
M  V30 1333 H 127.723 4.45549 -2.76742 0
M  V30 1334 H 129.197 5.36072 -1.31645 0
M  V30 1335 H 129.674 4.39135 0.0755063 0
M  V30 1336 H 130.28 3.96395 -1.54115 0
M  V30 1337 N 128.595 0.856903 1.32268 0
M  V30 1338 C 129.505 0.306131 2.32594 0
M  V30 1339 C 130.521 -0.577209 1.64147 0
M  V30 1340 O 131.697 -0.477043 1.95669 0
M  V30 1341 C 128.762 -0.494561 3.43154 0
M  V30 1342 C 127.823 0.415186 4.27288 0
M  V30 1343 C 127.056 -0.347387 5.32568 0
M  V30 1344 O 127.279 -1.57708 5.48165 0
M  V30 1345 O 126.213 0.287982 6.01211 0
M  V30 1346 H 130.039 1.13737 2.81598 0
M  V30 1347 H 127.624 0.619902 1.35932 0
M  V30 1348 H 129.506 -0.948944 4.10576 0
M  V30 1349 H 128.181 -1.30257 2.96336 0
M  V30 1350 H 127.088 0.917793 3.62667 0
M  V30 1351 H 128.421 1.18844 4.77637 0
M  V30 1352 N 130.073 -1.45103 0.615059 0
M  V30 1353 C 130.983 -2.34382 -0.101034 0
M  V30 1354 C 131.999 -1.51681 -0.852585 0
M  V30 1355 O 133.175 -1.8446 -0.808484 0
M  V30 1356 C 130.24 -3.29417 -1.08099 0
M  V30 1357 C 129.301 -4.28025 -0.330577 0
M  V30 1358 C 128.534 -5.1852 -1.26385 0
M  V30 1359 O 128.757 -5.12598 -2.50198 0
M  V30 1360 O 127.691 -5.97122 -0.756866 0
M  V30 1361 H 131.517 -2.97033 0.632855 0
M  V30 1362 H 129.102 -1.4461 0.375293 0
M  V30 1363 H 130.984 -3.87958 -1.6452 0
M  V30 1364 H 129.659 -2.69321 -1.79577 0
M  V30 1365 H 128.566 -3.73078 0.276283 0
M  V30 1366 H 129.899 -4.90997 0.343866 0
M  V30 1367 N 131.551 -0.354651 -1.53558 0
M  V30 1368 C 132.779 0.239515 -2.05509 0
M  V30 1369 C 133.194 1.4333 -1.2289 0
M  V30 1370 O 132.551 1.80538 -0.266899 0
M  V30 1371 C 132.602 0.643719 -3.55723 0
M  V30 1372 O 132.323 -0.502602 -4.35207 0
M  V30 1373 C 133.824 1.29743 -4.23889 0
M  V30 1374 H 131.044 0.0442697 -0.669538 0
M  V30 1375 H 133.588 -0.509856 -1.98042 0
M  V30 1376 H 131.743 1.34302 -3.63376 0
M  V30 1377 H 132.157 -0.178172 -5.24197 0
M  V30 1378 H 133.631 1.53091 -5.30346 0
M  V30 1379 H 134.108 2.25441 -3.76926 0
M  V30 1380 H 134.714 0.639865 -4.20459 0
M  V30 1381 N 133.029 1.57378 -0.0835403 0
M  V30 1382 C 133.961 2.10389 0.909338 0
M  V30 1383 C 134.974 1.03858 1.25369 0
M  V30 1384 O 136.163 1.31338 1.20882 0
M  V30 1385 C 133.263 2.55908 2.2218 0
M  V30 1386 C 132.436 3.86145 2.05453 0
M  V30 1387 C 131.495 4.17633 3.20108 0
M  V30 1388 O 130.521 4.87043 2.94581 0
M  V30 1389 N 131.723 3.72113 4.45547 0
M  V30 1390 H 134.488 2.962 0.456657 0
M  V30 1391 H 132.049 1.61579 0.101877 0
M  V30 1392 H 134.041 2.74027 2.97811 0
M  V30 1393 H 132.611 1.75171 2.58909 0
M  V30 1394 H 131.831 3.7729 1.1422 0
M  V30 1395 H 133.119 4.7137 1.91541 0
M  V30 1396 H 132.517 3.16062 4.69171 0
M  V30 1397 H 131.074 3.95409 5.18165 0
M  V30 1398 N 134.507 -0.190092 1.56449 0
M  V30 1399 C 135.756 -0.907912 1.80111 0
M  V30 1400 C 136.069 -1.84214 0.657619 0
M  V30 1401 O 137.275 -2.60094 0.778663 0
M  V30 1402 C 135.731 -1.66485 3.19078 0
M  V30 1403 C 135.339 -0.7752 4.41242 0
M  V30 1404 C 137.083 -2.37201 3.52045 0
M  V30 1405 C 134.99 -1.53129 5.71231 0
M  V30 1406 H 133.92 -0.34276 0.671589 0
M  V30 1407 H 136.571 -0.161109 1.82791 0
M  V30 1408 H 134.953 -2.45572 3.10661 0
M  V30 1409 H 136.127 -0.0226298 4.60794 0
M  V30 1410 H 134.442 -0.178627 4.16017 0
M  V30 1411 H 137.039 -2.94329 4.46402 0
M  V30 1412 H 137.382 -3.11632 2.76028 0
M  V30 1413 H 137.915 -1.65075 3.61932 0
M  V30 1414 H 134.654 -0.82967 6.50228 0
M  V30 1415 H 134.174 -2.25767 5.55688 0
M  V30 1416 H 135.853 -2.08377 6.12526 0
M  V30 1417 N 135.985 -1.50799 -0.457987 0
M  V30 1418 C 137.262 -1.52968 -1.21902 0
M  V30 1419 C 137.642 -0.281906 -2.09209 0
M  V30 1420 O 136.99 0.734076 -2.16388 0
M  V30 1421 C 137.2 -2.8326 -2.03875 0
M  V30 1422 C 138.548 -3.34425 -2.6162 0
M  V30 1423 O 139.572 -2.8467 -2.14106 0
M  V30 1424 O 138.431 -4.21188 -3.48228 0
M  V30 1425 H 135.525 -0.614129 -0.553873 0
M  V30 1426 H 138.071 -1.63098 -0.468739 0
M  V30 1427 H 136.843 -3.65543 -1.39621 0
M  V30 1428 H 136.466 -2.76195 -2.8601 0
M  V30 1429 N 137.463 0.71206 -1.40597 0
M  V30 1430 C 138.691 1.50111 -1.42388 0
M  V30 1431 C 139.106 1.88784 -0.0245395 0
M  V30 1432 O 138.463 1.55681 0.952351 0
M  V30 1433 C 138.514 2.7742 -2.31776 0
M  V30 1434 O 138.235 2.40382 -3.66262 0
M  V30 1435 C 139.736 3.7129 -2.42196 0
M  V30 1436 H 136.956 0.46314 -0.485533 0
M  V30 1437 H 139.5 0.878068 -1.8469 0
M  V30 1438 H 137.655 3.36001 -1.92827 0
M  V30 1439 H 138.069 3.22324 -4.13772 0
M  V30 1440 H 139.543 4.57448 -3.08943 0
M  V30 1441 H 140.02 4.14641 -1.44809 0
M  V30 1442 H 140.626 3.18619 -2.81712 0
M  V30 1443 N 138.941 1.26152 0.944643 0
M  V30 1444 C 140.169 1.14259 1.72489 0
M  V30 1445 C 140.584 -0.302555 1.8636 0
M  V30 1446 O 139.941 -1.20741 1.36849 0
M  V30 1447 C 139.992 1.80266 3.13347 0
M  V30 1448 O 139.713 3.19133 3.00143 0
M  V30 1449 C 141.214 1.74283 4.07603 0
M  V30 1450 H 138.434 0.398051 0.540181 0
M  V30 1451 H 140.978 1.66706 1.18446 0
M  V30 1452 H 139.133 1.31766 3.64303 0
M  V30 1453 H 139.547 3.51744 3.89071 0
M  V30 1454 H 141.021 2.25111 5.04013 0
M  V30 1455 H 141.498 0.708631 4.33446 0
M  V30 1456 H 142.104 2.22319 3.62567 0
M  V30 1457 N 140.419 -1.14872 1.07899 0
M  V30 1458 C 141.349 -2.2193 0.725887 0
M  V30 1459 C 142.33 -1.67622 -0.28927 0
M  V30 1460 O 143.515 -1.93533 -0.160787 0
M  V30 1461 C 140.645 -3.47061 0.128856 0
M  V30 1462 C 139.599 -4.14363 1.07178 0
M  V30 1463 C 138.925 -5.33636 0.337229 0
M  V30 1464 C 140.225 -4.63492 2.40775 0
M  V30 1465 H 141.919 -2.51724 1.62097 0
M  V30 1466 H 139.465 -1.20991 0.780838 0
M  V30 1467 H 141.418 -4.21199 -0.130147 0
M  V30 1468 H 140.142 -3.16617 -0.80134 0
M  V30 1469 H 138.801 -3.42173 1.3158 0
M  V30 1470 H 138.449 -4.99449 -0.596606 0
M  V30 1471 H 138.149 -5.79609 0.965788 0
M  V30 1472 H 139.673 -6.10539 0.0861567 0
M  V30 1473 H 141.087 -5.2913 2.20669 0
M  V30 1474 H 139.484 -5.20148 2.99276 0
M  V30 1475 H 140.554 -3.78834 3.02676 0
M  V30 1476 N 141.898 -0.863906 -1.31812 0
M  V30 1477 C 143.314 -0.555004 -1.49639 0
M  V30 1478 C 143.514 0.912266 -1.79666 0
M  V30 1479 O 142.57 1.69479 -1.87171 0
M  V30 1480 C 143.883 -1.44998 -2.63431 0
M  V30 1481 C 145.431 -1.45138 -2.77316 0
M  V30 1482 C 145.906 -2.33179 -3.94197 0
M  V30 1483 N 147.397 -2.31025 -4.01474 0
M  V30 1484 C 148.132 -2.95871 -4.9117 0
M  V30 1485 N 147.628 -3.69863 -5.8581 0
M  V30 1486 N 149.421 -2.85211 -4.84367 0
M  V30 1487 H 141.572 -1.81339 -1.10589 0
M  V30 1488 H 143.835 -0.77505 -0.545895 0
M  V30 1489 H 143.541 -2.49377 -2.48 0
M  V30 1490 H 143.415 -1.14409 -3.59431 0
M  V30 1491 H 145.802 -0.415201 -2.92164 0
M  V30 1492 H 145.883 -1.79747 -1.82001 0
M  V30 1493 H 145.527 -3.3687 -3.80107 0
M  V30 1494 H 145.457 -1.95897 -4.88807 0
M  V30 1495 H 147.948 -1.77238 -3.33759 0
M  V30 1496 H 148.261 -4.16486 -6.50968 0
M  V30 1497 H 146.606 -3.73971 -5.85808 0
M  V30 1498 H 149.797 -2.26948 -4.09405 0
M  V30 1499 H 149.97 -3.36027 -5.54066 0
M  V30 1500 N 143.376 1.44774 -0.622745 0
M  V30 1501 C 144.792 1.56986 -0.287652 0
M  V30 1502 C 144.992 1.61167 1.20944 0
M  V30 1503 O 144.048 1.55015 1.99315 0
M  V30 1504 C 145.361 2.84551 -0.972188 0
M  V30 1505 C 146.909 2.9825 -0.949536 0
M  V30 1506 C 147.384 4.28605 -1.61437 0
M  V30 1507 N 148.875 4.35399 -1.58057 0
M  V30 1508 C 149.61 5.34964 -2.064 0
M  V30 1509 N 149.106 6.40981 -2.62897 0
M  V30 1510 N 150.899 5.26419 -1.97078 0
M  V30 1511 H 143.05 1.40304 -1.59463 0
M  V30 1512 H 145.313 0.671794 -0.668878 0
M  V30 1513 H 145.019 2.87417 -2.02693 0
M  V30 1514 H 144.893 3.73807 -0.504771 0
M  V30 1515 H 147.28 2.94941 0.0967067 0
M  V30 1516 H 147.361 2.10364 -1.45536 0
M  V30 1517 H 147.005 4.32672 -2.66002 0
M  V30 1518 H 146.935 5.15334 -1.08344 0
M  V30 1519 H 149.426 3.59397 -1.16801 0
M  V30 1520 H 149.739 7.13225 -2.97539 0
M  V30 1521 H 148.084 6.4169 -2.66943 0
M  V30 1522 H 151.275 4.42504 -1.52669 0
M  V30 1523 H 151.448 6.03861 -2.35066 0
M  V30 1524 N 144.854 0.36279 1.53368 0
M  V30 1525 C 146.079 -0.231226 2.06107 0
M  V30 1526 C 146.504 -1.419 1.23474 0
M  V30 1527 O 145.862 -1.79524 0.253128 0
M  V30 1528 C 145.91 -0.605523 3.5548 0
M  V30 1529 O 145.014 -1.70312 3.7559 0
M  V30 1530 H 144.355 -0.034327 0.663112 0
M  V30 1531 H 146.885 0.522584 1.97814 0
M  V30 1532 H 146.895 -0.877314 3.98456 0
M  V30 1533 H 145.57 0.263004 4.15068 0
M  V30 1534 H 144.147 -1.4271 3.44512 0
M  V30 1535 N 146.332 -1.57332 0.0918853 0
M  V30 1536 C 147.264 -2.10869 -0.898168 0
M  V30 1537 C 148.277 -1.04521 -1.24817 0
M  V30 1538 O 149.466 -1.31977 -1.20184 0
M  V30 1539 C 146.566 -2.57083 -2.2082 0
M  V30 1540 C 145.739 -3.87229 -2.03402 0
M  V30 1541 C 144.798 -4.19324 -3.17889 0
M  V30 1542 O 143.824 -4.88598 -2.91994 0
M  V30 1543 N 145.026 -3.74471 -4.43567 0
M  V30 1544 H 147.791 -2.96439 -0.440943 0
M  V30 1545 H 145.352 -1.61631 -0.0933064 0
M  V30 1546 H 147.344 -2.75602 -2.96354 0
M  V30 1547 H 145.914 -1.76541 -2.57977 0
M  V30 1548 H 145.134 -3.7789 -1.12218 0
M  V30 1549 H 146.422 -4.72379 -1.89038 0
M  V30 1550 H 145.82 -3.18546 -4.67488 0
M  V30 1551 H 144.377 -3.98151 -5.16061 0
M  V30 1552 N 147.81 0.181792 -1.56548 0
M  V30 1553 C 148.743 1.25366 -1.90679 0
M  V30 1554 C 149.721 1.43299 -0.768376 0
M  V30 1555 O 150.905 1.58475 -1.02068 0
M  V30 1556 C 148.032 2.61826 -2.1486 0
M  V30 1557 C 147.078 2.60688 -3.37556 0
M  V30 1558 S 147.911 2.10804 -4.92262 0
M  V30 1559 C 149.067 3.49062 -5.19525 0
M  V30 1560 H 149.3 0.962277 -2.81296 0
M  V30 1561 H 146.833 0.385892 -1.495 0
M  V30 1562 H 148.791 3.40371 -2.29473 0
M  V30 1563 H 147.452 2.88169 -1.24969 0
M  V30 1564 H 146.645 3.61058 -3.51643 0
M  V30 1565 H 146.247 1.90232 -3.22006 0
M  V30 1566 H 148.539 4.45003 -5.10861 0
M  V30 1567 H 149.482 3.39859 -6.2121 0
M  V30 1568 H 149.89 3.4459 -4.47122 0
M  V30 1569 N 149.288 1.51039 0.449983 0
M  V30 1570 C 150.513 1.6715 1.22783 0
M  V30 1571 C 150.938 0.363081 1.84563 0
M  V30 1572 O 150.296 -0.675433 1.68249 0
M  V30 1573 C 150.344 2.77985 2.29689 0
M  V30 1574 O 149.448 2.40707 3.34864 0
M  V30 1575 H 148.789 0.557746 0.360299 0
M  V30 1576 H 151.319 1.97535 0.533005 0
M  V30 1577 H 151.329 3.01693 2.74673 0
M  V30 1578 H 150.004 3.72935 1.84098 0
M  V30 1579 H 148.581 2.27523 2.95445 0
M  V30 1580 N 150.766 -0.704594 1.40972 0
M  V30 1581 C 152.177 -1.28418 1.3552 0
M  V30 1582 C 152.528 -1.96171 0.0339434 0
M  V30 1583 O 151.653 -1.98231 -0.867944 0
M  V30 1584 C 152.248 -2.33528 2.45459 0
M  V30 1585 C 150.807 -2.87085 2.43433 0
M  V30 1586 C 149.954 -1.61007 2.2577 0
M  V30 1587 H 152.905 -0.499963 1.50619 0
M  V30 1588 H 152.926 -3.14619 2.13998 0
M  V30 1589 H 152.438 -1.84187 3.41609 0
M  V30 1590 H 150.539 -3.40626 1.51013 0
M  V30 1591 H 150.652 -3.3813 3.39419 0
M  V30 1592 H 149.016 -1.86482 1.73483 0
M  V30 1593 H 149.799 -1.13675 3.23933 0
M  V30 1594 N 152.244 -1.26651 -0.937939 0
M  V30 1595 C 153.176 -1.04283 -2.04102 0
M  V30 1596 C 154.189 -0.00221014 -1.628 0
M  V30 1597 O 155.378 -0.242645 -1.76843 0
M  V30 1598 C 152.478 -0.557846 -3.34277 0
M  V30 1599 C 151.651 -1.66843 -4.04329 0
M  V30 1600 C 150.71 -1.18095 -5.12777 0
M  V30 1601 O 149.736 -1.87865 -5.37304 0
M  V30 1602 N 150.938 -0.0311006 -5.80492 0
M  V30 1603 H 153.703 -1.9927 -2.23856 0
M  V30 1604 H 151.264 -1.1808 -1.10764 0
M  V30 1605 H 153.256 -0.215836 -4.04124 0
M  V30 1606 H 151.826 0.298523 -3.11171 0
M  V30 1607 H 151.046 -2.18123 -3.28353 0
M  V30 1608 H 152.334 -2.41408 -4.47883 0
M  V30 1609 H 151.732 0.551486 -5.63005 0
M  V30 1610 H 150.289 0.251809 -6.51313 0
M  V30 1611 N 153.722 1.14298 -1.08507 0
M  V30 1612 C 154.97 1.84993 -0.813763 0
M  V30 1613 C 155.291 1.83405 0.662393 0
M  V30 1614 O 154.561 1.28319 1.48024 0
M  V30 1615 H 153.141 0.684966 -0.298045 0
M  V30 1616 H 155.803 1.385 -1.37126 0
M  V30 1617 H 154.899 2.89788 -1.15884 0
M  V30 1618 N 155.201 0.870884 1.31352 0
M  V30 1619 C 156.131 0.343096 2.30966 0
M  V30 1620 C 157.112 -0.566507 1.60389 0
M  V30 1621 O 158.297 -0.483336 1.88089 0
M  V30 1622 C 155.427 -0.455487 3.443 0
M  V30 1623 C 154.381 0.361103 4.26474 0
M  V30 1624 C 153.707 -0.563221 5.31725 0
M  V30 1625 C 155.007 1.59566 4.97329 0
M  V30 1626 H 156.701 1.17548 2.75359 0
M  V30 1627 H 154.247 0.566686 1.32381 0
M  V30 1628 H 156.2 -0.83525 4.13039 0
M  V30 1629 H 154.924 -1.32139 2.98675 0
M  V30 1630 H 153.583 0.722825 3.59403 0
M  V30 1631 H 153.231 -1.42643 4.82351 0
M  V30 1632 H 152.931 -0.0207409 5.87596 0
M  V30 1633 H 154.455 -0.939808 6.03324 0
M  V30 1634 H 155.869 1.28728 5.58661 0
M  V30 1635 H 154.266 2.07728 5.63 0
M  V30 1636 H 155.336 2.34798 4.24262 0
M  V30 1637 N 156.679 -1.44442 0.630414 0
M  V30 1638 C 158.095 -1.56832 0.295973 0
M  V30 1639 C 158.295 -1.61806 -1.20088 0
M  V30 1640 O 157.351 -1.5607 -1.9849 0
M  V30 1641 C 158.664 -2.84031 0.987264 0
M  V30 1642 C 160.212 -2.97742 0.96534 0
M  V30 1643 C 160.687 -4.27743 1.63708 0
M  V30 1644 N 162.178 -4.34555 1.60364 0
M  V30 1645 C 162.913 -5.33862 2.09234 0
M  V30 1646 N 162.409 -6.39578 2.66292 0
M  V30 1647 N 164.202 -5.25366 1.99867 0
M  V30 1648 H 156.353 -1.39457 1.60205 0
M  V30 1649 H 158.616 -0.668237 0.672431 0
M  V30 1650 H 158.322 -2.86338 2.04215 0
M  V30 1651 H 158.196 -3.73534 0.524588 0
M  V30 1652 H 160.583 -2.94989 -0.0810639 0
M  V30 1653 H 160.664 -2.09589 1.4665 0
M  V30 1654 H 160.308 -4.31255 2.68293 0
M  V30 1655 H 160.238 -5.14752 1.11076 0
M  V30 1656 H 162.729 -3.58772 1.18705 0
M  V30 1657 H 163.042 -7.11637 3.01317 0
M  V30 1658 H 161.387 -6.40265 2.70343 0
M  V30 1659 H 164.578 -4.41688 1.55013 0
M  V30 1660 H 164.751 -6.02606 2.38265 0
M  V30 1661 N 158.157 -0.370918 -1.53173 0
M  V30 1662 C 159.403 0.217423 -2.01631 0
M  V30 1663 C 159.736 1.47983 -1.25756 0
M  V30 1664 O 159.011 1.91274 -0.352764 0
M  V30 1665 C 159.294 0.503982 -3.56556 0
M  V30 1666 C 159.147 -0.77243 -4.43118 0
M  V30 1667 C 160.466 1.30234 -4.20389 0
M  V30 1668 H 157.585 0.0775486 -0.732909 0
M  V30 1669 H 160.227 -0.496863 -1.83388 0
M  V30 1670 H 158.377 1.11248 -3.72231 0
M  V30 1671 H 160.049 -1.4098 -4.39229 0
M  V30 1672 H 158.292 -1.39167 -4.10871 0
M  V30 1673 H 158.963 -0.526815 -5.4948 0
M  V30 1674 H 161.439 0.787546 -4.08579 0
M  V30 1675 H 160.315 1.47158 -5.28806 0
M  V30 1676 H 160.576 2.31237 -3.76805 0
M  V30 1677 N 159.635 1.57281 -0.100228 0
M  V30 1678 C 161.051 1.57527 0.256416 0
M  V30 1679 C 161.251 1.11173 1.68056 0
M  V30 1680 O 160.307 0.79053 2.39806 0
M  V30 1681 C 161.62 3.00673 0.0401747 0
M  V30 1682 C 163.168 3.12815 0.107528 0
M  V30 1683 C 163.643 4.57929 -0.0807834 0
M  V30 1684 N 165.134 4.63193 -0.0261207 0
M  V30 1685 C 165.869 5.73212 -0.146999 0
M  V30 1686 N 165.365 6.92047 -0.322999 0
M  V30 1687 N 167.158 5.62031 -0.0879044 0
M  V30 1688 H 159.309 1.85718 -1.03065 0
M  V30 1689 H 161.572 0.857446 -0.404339 0
M  V30 1690 H 161.278 3.38804 -0.943649 0
M  V30 1691 H 161.152 3.69042 0.780262 0
M  V30 1692 H 163.539 2.74554 1.08186 0
M  V30 1693 H 163.62 2.47028 -0.664134 0
M  V30 1694 H 163.264 4.96886 -1.05201 0
M  V30 1695 H 163.194 5.21783 0.710635 0
M  V30 1696 H 165.685 3.77748 0.107161 0
M  V30 1697 H 165.998 7.7173 -0.406608 0
M  V30 1698 H 164.343 6.94074 -0.358733 0
M  V30 1699 H 167.534 4.68075 0.048498 0
M  V30 1700 H 167.707 6.47734 -0.185557 0
M  V30 1701 N 161.113 -0.173488 1.56642 0
M  V30 1702 C 162.043 -1.2171 1.99271 0
M  V30 1703 C 163.024 -1.46289 0.867959 0
M  V30 1704 O 164.209 -1.5766 1.13388 0
M  V30 1705 C 161.339 -2.55651 2.35074 0
M  V30 1706 C 160.293 -2.45645 3.50489 0
M  V30 1707 C 159.619 -3.84056 3.72028 0
M  V30 1708 C 160.919 -1.96302 4.84007 0
M  V30 1709 H 162.613 -0.86275 2.867 0
M  V30 1710 H 160.159 -0.413571 1.37933 0
M  V30 1711 H 162.112 -3.2886 2.63494 0
M  V30 1712 H 160.836 -2.92869 1.44552 0
M  V30 1713 H 159.495 -1.7489 3.22194 0
M  V30 1714 H 159.143 -4.18664 2.788 0
M  V30 1715 H 158.843 -3.7823 4.49684 0
M  V30 1716 H 160.367 -4.58854 4.02846 0
M  V30 1717 H 161.781 -2.59284 5.11317 0
M  V30 1718 H 160.178 -2.01429 5.65284 0
M  V30 1719 H 161.248 -0.917226 4.76146 0
M  V30 1720 N 162.591 -1.51276 -0.441967 0
M  V30 1721 C 164.007 -1.39349 -0.778083 0
M  V30 1722 C 164.207 -0.472212 -1.95889 0
M  V30 1723 O 163.263 0.0743551 -2.5239 0
M  V30 1724 C 164.576 -2.81292 -1.0628 0
M  V30 1725 C 166.124 -2.9041 -1.16751 0
M  V30 1726 C 166.599 -4.33251 -1.48519 0
M  V30 1727 N 168.09 -4.36336 -1.55453 0
M  V30 1728 C 168.825 -5.43885 -1.81596 0
M  V30 1729 N 168.321 -6.61601 -2.05562 0
M  V30 1730 N 170.114 -5.3136 -1.8334 0
M  V30 1731 H 162.265 -2.09729 0.335774 0
M  V30 1732 H 164.528 -0.943925 0.0878028 0
M  V30 1733 H 164.234 -3.50678 -0.267905 0
M  V30 1734 H 164.108 -3.20334 -1.99163 0
M  V30 1735 H 166.495 -2.21225 -1.95304 0
M  V30 1736 H 166.576 -2.54871 -0.217801 0
M  V30 1737 H 166.22 -5.02984 -0.704958 0
M  V30 1738 H 166.15 -4.66299 -2.44689 0
M  V30 1739 H 168.641 -3.51466 -1.38853 0
M  V30 1740 H 168.954 -7.39361 -2.24867 0
M  V30 1741 H 167.299 -6.64725 -2.02894 0
M  V30 1742 H 170.49 -4.38382 -1.64132 0
M  V30 1743 H 170.663 -6.15258 -2.03377 0
M  V30 1744 N 164.069 0.697108 -1.41344 0
M  V30 1745 C 165.48 1.27697 -1.36199 0
M  V30 1746 C 165.831 1.9615 -0.0443463 0
M  V30 1747 O 164.956 1.98689 0.857419 0
M  V30 1748 C 165.551 2.32223 -2.46694 0
M  V30 1749 C 164.11 2.8579 -2.44952 0
M  V30 1750 C 163.257 1.59807 -2.26621 0
M  V30 1751 H 166.208 0.491968 -1.50882 0
M  V30 1752 H 166.229 3.1348 -2.15664 0
M  V30 1753 H 165.741 1.82373 -3.42581 0
M  V30 1754 H 163.842 3.3982 -1.52817 0
M  V30 1755 H 163.955 3.36325 -3.41207 0
M  V30 1756 H 162.319 1.8556 -1.7447 0
M  V30 1757 H 163.102 1.11956 -3.24532 0
M  V30 1758 N 165.547 1.27147 0.931209 0
M  V30 1759 C 166.795 1.13055 1.6752 0
M  V30 1760 C 167.116 -0.324791 1.92276 0
M  V30 1761 O 166.386 -1.22775 1.52654 0
M  V30 1762 H 164.966 0.415391 0.620854 0
M  V30 1763 H 167.628 1.59623 1.11833 0
M  V30 1764 H 166.724 1.65694 2.64485 0
M  V30 1765 N 167.025 -1.13721 1.09112 0
M  V30 1766 C 167.935 -2.22638 0.73957 0
M  V30 1767 C 168.951 -1.72091 -0.257068 0
M  V30 1768 O 170.127 -2.01155 -0.0992154 0
M  V30 1769 C 167.192 -3.46322 0.16191 0
M  V30 1770 C 166.253 -4.11775 1.21408 0
M  V30 1771 C 165.486 -5.29555 0.663891 0
M  V30 1772 O 165.709 -5.68077 -0.514274 0
M  V30 1773 O 164.643 -5.84973 1.41738 0
M  V30 1774 H 168.469 -2.55074 1.64836 0
M  V30 1775 H 166.054 -1.21791 0.865289 0
M  V30 1776 H 167.936 -4.21107 -0.157073 0
M  V30 1777 H 166.611 -3.15593 -0.719932 0
M  V30 1778 H 165.518 -3.3883 1.58571 0
M  V30 1779 H 166.851 -4.46627 2.06845 0
M  V30 1780 N 168.503 -0.877838 -1.30888 0
M  V30 1781 C 169.413 -0.343096 -2.32078 0
M  V30 1782 C 170.429 0.551022 -1.65045 0
M  V30 1783 O 171.605 0.445854 -1.96403 0
M  V30 1784 C 168.67 0.439905 -3.43898 0
M  V30 1785 C 167.731 -0.483111 -4.26573 0
M  V30 1786 C 166.964 0.262616 -5.33053 0
M  V30 1787 O 167.187 1.48967 -5.50604 0
M  V30 1788 O 166.121 -0.383593 -6.00676 0
M  V30 1789 H 169.947 -1.18203 -2.79753 0
M  V30 1790 H 167.532 -0.64145 -1.34929 0
M  V30 1791 H 169.414 0.883504 -4.12034 0
M  V30 1792 H 168.089 1.25526 -2.98371 0
M  V30 1793 H 166.996 -0.975374 -3.61161 0
M  V30 1794 H 168.329 -1.26427 -4.75686 0
M  V30 1795 N 169.982 1.44106 -0.638065 0
M  V30 1796 C 171.398 1.56672 -0.304286 0
M  V30 1797 C 171.598 1.6244 1.19228 0
M  V30 1798 O 170.654 1.57121 1.9766 0
M  V30 1799 C 171.967 2.83503 -1.00231 0
M  V30 1800 C 173.515 2.97226 -0.981116 0
M  V30 1801 C 173.99 4.26868 -1.65974 0
M  V30 1802 N 175.481 4.33698 -1.62666 0
M  V30 1803 C 176.216 5.32745 -2.12063 0
M  V30 1804 N 175.712 6.38157 -2.6968 0
M  V30 1805 N 177.505 5.24299 -2.02651 0
M  V30 1806 H 169.656 1.38605 -1.60942 0
M  V30 1807 H 171.919 0.664661 -0.675965 0
M  V30 1808 H 171.625 2.85251 -2.0573 0
M  V30 1809 H 171.499 3.73251 -0.54439 0
M  V30 1810 H 173.886 2.95027 0.0654188 0
M  V30 1811 H 173.967 2.08808 -1.47759 0
M  V30 1812 H 173.611 4.29826 -2.70576 0
M  V30 1813 H 173.541 5.14156 -1.13804 0
M  V30 1814 H 176.032 3.58138 -1.20606 0
M  V30 1815 H 176.345 7.10029 -3.05087 0
M  V30 1816 H 174.69 6.38823 -2.73734 0
M  V30 1817 H 177.881 4.4086 -1.57353 0
M  V30 1818 H 178.054 6.01334 -2.41457 0
M  V30 1819 N 171.46 0.379036 1.52974 0
M  V30 1820 C 172.41 -0.477772 2.22938 0
M  V30 1821 C 173.394 -1.03792 1.22948 0
M  V30 1822 O 174.586 -0.965725 1.48333 0
M  V30 1823 C 171.715 -1.60994 3.03209 0
M  V30 1824 C 170.801 -1.06203 4.10587 0
M  V30 1825 N 171.192 -0.238214 5.05239 0
M  V30 1826 C 169.49 -1.33554 4.25534 0
M  V30 1827 C 170.191 0.0633235 5.81666 0
M  V30 1828 N 169.167 -0.537901 5.40932 0
M  V30 1829 H 172.969 0.158295 2.93473 0
M  V30 1830 H 170.483 0.187778 1.61311 0
M  V30 1831 H 172.48 -2.23607 3.5186 0
M  V30 1832 H 171.14 -2.24893 2.34207 0
M  V30 1833 H 172.151 0.123695 5.17752 0
M  V30 1834 H 168.828 -1.97632 3.6776 0
M  V30 1835 H 170.218 0.730161 6.67921 0
M  V30 1836 N 172.938 -1.57226 0.108567 0
M  V30 1837 C 174.185 -1.94833 -0.551943 0
M  V30 1838 C 174.513 -0.991204 -1.67348 0
M  V30 1839 O 173.768 -0.0131878 -1.95696 0
M  V30 1840 C 174.067 -3.38911 -1.13463 0
M  V30 1841 C 173.733 -4.50696 -0.135509 0
M  V30 1842 C 172.395 -4.80998 0.139252 0
M  V30 1843 C 174.747 -5.18333 0.545957 0
M  V30 1844 C 172.075 -5.76259 1.10194 0
M  V30 1845 C 174.427 -6.14627 1.49721 0
M  V30 1846 C 173.091 -6.43327 1.78006 0
M  V30 1847 H 172.361 -0.712944 -0.20197 0
M  V30 1848 H 175.008 -1.90582 0.18726 0
M  V30 1849 H 173.313 -3.39805 -1.95037 0
M  V30 1850 H 175.01 -3.65317 -1.65362 0
M  V30 1851 H 171.6 -4.27087 -0.359846 0
M  V30 1852 H 175.784 -4.95087 0.346842 0
M  V30 1853 H 171.04 -5.96804 1.32795 0
M  V30 1854 H 175.214 -6.66126 2.03099 0
M  V30 1855 H 172.841 -7.1695 2.52759 0
M  V30 1856 N 174.416 0.165178 -1.56732 0
M  V30 1857 C 175.326 1.22423 -2.00125 0
M  V30 1858 C 176.342 1.48084 -0.913619 0
M  V30 1859 O 177.518 1.60112 -1.22172 0
M  V30 1860 C 174.583 2.54197 -2.35764 0
M  V30 1861 C 173.644 2.36343 -3.58386 0
M  V30 1862 C 172.877 3.61834 -3.92316 0
M  V30 1863 O 173.1 4.67267 -3.27135 0
M  V30 1864 O 172.034 3.55579 -4.85641 0
M  V30 1865 H 175.86 0.885886 -2.90492 0
M  V30 1866 H 173.445 0.372518 -1.44681 0
M  V30 1867 H 175.327 3.3192 -2.59629 0
M  V30 1868 H 174.002 2.87598 -1.48557 0
M  V30 1869 H 172.909 1.56632 -3.39731 0
M  V30 1870 H 174.242 2.07865 -4.46154 0
M  V30 1871 N 175.894 1.51508 0.433938 0
M  V30 1872 C 176.824 1.76016 1.53429 0
M  V30 1873 C 177.805 0.610112 1.58782 0
M  V30 1874 O 178.99 0.853177 1.74455 0
M  V30 1875 C 176.12 1.88831 2.9148 0
M  V30 1876 C 175.074 3.04288 3.00987 0
M  V30 1877 C 174.4 3.0229 4.4105 0
M  V30 1878 C 175.7 4.44193 2.74754 0
M  V30 1879 H 177.394 2.68152 1.33171 0
M  V30 1880 H 174.94 1.29035 0.639214 0
M  V30 1881 H 176.893 2.04559 3.6842 0
M  V30 1882 H 175.617 0.933455 3.12976 0
M  V30 1883 H 174.276 2.8827 2.26486 0
M  V30 1884 H 173.924 2.04576 4.59519 0
M  V30 1885 H 173.624 3.79822 4.4834 0
M  V30 1886 H 175.148 3.20116 5.1996 0
M  V30 1887 H 176.562 4.60544 3.41426 0
M  V30 1888 H 174.959 5.23457 2.9345 0
M  V30 1889 H 176.029 4.53996 1.70339 0
M  V30 1890 N 177.372 -0.689602 1.41712 0
M  V30 1891 C 178.282 -1.83314 1.46401 0
M  V30 1892 C 179.298 -1.7036 0.35405 0
M  V30 1893 O 180.474 -1.92171 0.602692 0
M  V30 1894 C 177.539 -3.19344 1.34982 0
M  V30 1895 C 176.6 -3.44363 2.56344 0
M  V30 1896 C 175.833 -4.73904 2.45461 0
M  V30 1897 O 176.056 -5.508 1.48241 0
M  V30 1898 O 174.99 -4.99839 3.35328 0
M  V30 1899 H 178.816 -1.82314 2.42889 0
M  V30 1900 H 176.401 -0.843438 1.23315 0
M  V30 1901 H 178.283 -4.00547 1.3092 0
M  V30 1902 H 176.958 -3.21014 0.41612 0
M  V30 1903 H 175.865 -2.63067 2.65982 0
M  V30 1904 H 177.198 -3.47512 3.48563 0
M  V30 1905 N 178.85 -1.27639 -0.924453 0
M  V30 1906 C 180.096 -1.14336 -1.67497 0
M  V30 1907 C 180.429 0.309465 -1.91718 0
M  V30 1908 O 179.704 1.22608 -1.50989 0
M  V30 1909 C 179.987 -1.93096 -3.0395 0
M  V30 1910 C 179.84 -3.46381 -2.8695 0
M  V30 1911 C 181.159 -1.73798 -4.0433 0
M  V30 1912 H 178.278 -0.416728 -0.607871 0
M  V30 1913 H 180.92 -1.56832 -1.07256 0
M  V30 1914 H 179.07 -1.56982 -3.55372 0
M  V30 1915 H 180.742 -3.92343 -2.42621 0
M  V30 1916 H 178.985 -3.72557 -2.22225 0
M  V30 1917 H 179.656 -3.96735 -3.83804 0
M  V30 1918 H 182.132 -2.05293 -3.61931 0
M  V30 1919 H 181.008 -2.31294 -4.97789 0
M  V30 1920 H 181.269 -0.686725 -4.36734 0
M  V30 1921 N 180.328 1.1314 -1.09713 0
M  V30 1922 C 181.575 1.84484 -0.834987 0
M  V30 1923 C 181.903 1.83689 0.639418 0
M  V30 1924 O 181.158 1.2724 1.4869 0
M  V30 1925 C 181.457 3.32167 -1.3191 0
M  V30 1926 C 181.123 3.53139 -2.80363 0
M  V30 1927 C 179.785 3.58571 -3.20905 0
M  V30 1928 C 182.137 3.60866 -3.76065 0
M  V30 1929 C 179.465 3.69267 -4.55916 0
M  V30 1930 C 181.817 3.73089 -5.10869 0
M  V30 1931 C 180.481 3.76775 -5.50996 0
M  V30 1932 H 179.751 0.675073 -0.305544 0
M  V30 1933 H 182.398 1.33554 -1.37243 0
M  V30 1934 H 180.703 3.85469 -0.701517 0
M  V30 1935 H 182.4 3.85821 -1.09284 0
M  V30 1936 H 178.99 3.49569 -2.47991 0
M  V30 1937 H 183.174 3.55946 -3.45855 0
M  V30 1938 H 178.43 3.70388 -4.86438 0
M  V30 1939 H 182.604 3.78011 -5.84877 0
M  V30 1940 H 180.231 3.84815 -6.55608 0
M  V30 1941 N 181.806 0.884767 1.30421 0
M  V30 1942 C 182.716 0.355398 2.31892 0
M  V30 1943 C 183.732 -0.542261 1.65335 0
M  V30 1944 O 184.908 -0.435432 1.96637 0
M  V30 1945 C 181.973 -0.421661 3.44126 0
M  V30 1946 C 181.034 0.505727 4.26311 0
M  V30 1947 C 180.267 -0.234343 5.33185 0
M  V30 1948 O 180.49 -1.46045 5.51386 0
M  V30 1949 O 179.424 0.415443 6.00465 0
M  V30 1950 H 183.25 1.19685 2.79122 0
M  V30 1951 H 180.835 0.648596 1.34587 0
M  V30 1952 H 182.717 -0.861641 4.12497 0
M  V30 1953 H 181.392 -1.23942 2.99032 0
M  V30 1954 H 180.299 0.994513 3.60639 0
M  V30 1955 H 181.632 1.28948 4.75009 0
M  V30 1956 N 183.284 -1.43765 0.645699 0
M  V30 1957 C 184.695 -1.85193 0.236719 0
M  V30 1958 C 185.046 -1.54045 -1.21509 0
M  V30 1959 O 184.171 -0.985694 -1.92647 0
M  V30 1960 C 184.766 -3.36151 0.422845 0
M  V30 1961 C 183.325 -3.76338 0.0682492 0
M  V30 1962 C 182.472 -2.67538 0.729306 0
M  V30 1963 H 185.423 -1.34025 0.849883 0
M  V30 1964 H 185.444 -3.79032 -0.333904 0
M  V30 1965 H 184.956 -3.5879 1.47958 0
M  V30 1966 H 183.057 -3.59312 -0.986179 0
M  V30 1967 H 183.17 -4.76603 0.488469 0
M  V30 1968 H 181.534 -2.54176 0.163235 0
M  V30 1969 H 182.317 -2.93006 1.78892 0
M  V30 1970 N 184.763 -0.387143 -1.52771 0
M  V30 1971 C 185.693 0.440551 -2.29306 0
M  V30 1972 C 186.674 1.06535 -1.32606 0
M  V30 1973 O 187.859 1.07853 -1.61497 0
M  V30 1974 C 184.989 1.56919 -3.09829 0
M  V30 1975 C 183.943 1.07054 -4.14395 0
M  V30 1976 C 183.269 2.29109 -4.83129 0
M  V30 1977 C 184.569 0.140015 -5.22112 0
M  V30 1978 H 186.263 -0.198026 -2.98744 0
M  V30 1979 H 183.809 -0.09668 -1.43675 0
M  V30 1980 H 185.762 2.15503 -3.62128 0
M  V30 1981 H 184.486 2.23532 -2.3812 0
M  V30 1982 H 183.145 0.507247 -3.63074 0
M  V30 1983 H 182.793 2.94227 -4.0797 0
M  V30 1984 H 182.493 1.96406 -5.53804 0
M  V30 1985 H 184.017 2.88339 -5.38231 0
M  V30 1986 H 185.431 0.633978 -5.69784 0
M  V30 1987 H 183.828 -0.0971485 -6.00021 0
M  V30 1988 H 184.898 -0.811711 -4.78058 0
M  V30 1989 N 186.241 1.57166 -0.116904 0
M  V30 1990 C 187.151 2.18745 0.847812 0
M  V30 1991 C 188.167 1.163 1.29423 0
M  V30 1992 O 189.343 1.48761 1.35765 0
M  V30 1993 C 186.408 2.77307 2.0809 0
M  V30 1994 C 185.469 3.94781 1.68661 0
M  V30 1995 C 184.702 4.50541 2.86091 0
M  V30 1996 O 184.925 4.05202 4.01456 0
M  V30 1997 O 183.859 5.41256 2.63298 0
M  V30 1998 H 187.685 3.01632 0.353778 0
M  V30 1999 H 185.27 1.49005 0.108599 0
M  V30 2000 H 187.152 3.14647 2.80313 0
M  V30 2001 H 185.827 1.97452 2.56504 0
M  V30 2002 H 184.734 3.62214 0.935518 0
M  V30 2003 H 186.067 4.76065 1.24991 0
M  V30 2004 N 187.719 -0.156864 1.56817 0
M  V30 2005 C 188.944 -0.890331 1.87318 0
M  V30 2006 C 189.369 -1.74394 0.704855 0
M  V30 2007 O 188.727 -1.77972 -0.345786 0
M  V30 2008 C 188.775 -1.73102 3.16336 0
M  V30 2009 O 187.879 -2.83422 2.99576 0
M  V30 2010 H 187.22 -0.24857 0.615718 0
M  V30 2011 H 189.75 -0.150649 2.04045 0
M  V30 2012 H 189.76 -2.12803 3.48107 0
M  V30 2013 H 188.435 -1.10412 4.00976 0
M  V30 2014 H 187.012 -2.47199 2.7919 0
M  V30 2015 N 189.197 -1.51736 -0.425897 0
M  V30 2016 C 190.608 -1.5732 -1.00536 0
M  V30 2017 C 190.959 -0.403537 -1.92005 0
M  V30 2018 O 190.084 0.478256 -2.11049 0
M  V30 2019 C 190.679 -2.85119 -1.8301 0
M  V30 2020 C 189.238 -2.93236 -2.35987 0
M  V30 2021 C 188.385 -2.52098 -1.15508 0
M  V30 2022 H 191.336 -1.57348 -0.206739 0
M  V30 2023 H 191.357 -2.69526 -2.68581 0
M  V30 2024 H 190.869 -3.7023 -1.16411 0
M  V30 2025 H 188.97 -2.12581 -3.06007 0
M  V30 2026 H 189.083 -3.9713 -2.68001 0
M  V30 2027 H 187.447 -2.05558 -1.50393 0
M  V30 2028 H 188.23 -3.39565 -0.505014 0
M  V30 2029 N 190.675 0.682077 -1.42076 0
M  V30 2030 C 191.921 1.44428 -1.42367 0
M  V30 2031 C 192.254 1.94164 -0.0373056 0
M  V30 2032 O 191.529 1.70429 0.937239 0
M  V30 2033 C 191.812 2.64654 -2.44194 0
M  V30 2034 C 191.665 2.20596 -3.91991 0
M  V30 2035 C 192.984 3.66865 -2.431 0
M  V30 2036 H 190.103 0.523834 -0.518428 0
M  V30 2037 H 192.745 0.77576 -1.73442 0
M  V30 2038 H 190.895 3.2169 -2.17826 0
M  V30 2039 H 192.567 1.68783 -4.29313 0
M  V30 2040 H 190.81 1.52242 -4.06208 0
M  V30 2041 H 191.481 3.06921 -4.58807 0
M  V30 2042 H 193.957 3.19531 -2.66532 0
M  V30 2043 H 192.833 4.48577 -3.16339 0
M  V30 2044 H 193.094 4.17493 -1.45437 0
M  V30 2045 N 192.153 1.28127 0.917671 0
M  V30 2046 C 193.43 1.05761 1.64542 0
M  V30 2047 C 193.81 -0.404344 2.07191 0
M  V30 2048 O 193.158 -1.38963 1.81388 0
M  V30 2049 C 193.368 2.02857 2.83989 0
M  V30 2050 C 194.716 2.32786 3.551 0
M  V30 2051 O 195.74 2.0091 2.94132 0
M  V30 2052 O 194.599 2.87169 4.64969 0
M  V30 2053 H 191.693 0.403916 0.721652 0
M  V30 2054 H 194.239 1.39431 0.967322 0
M  V30 2055 H 193.011 3.01407 2.49538 0
M  V30 2056 H 192.634 1.69809 3.59514 0
M  V30 2057 N 193.631 -1.12557 1.10312 0
M  V30 2058 C 194.561 -2.20341 0.772798 0
M  V30 2059 C 195.542 -1.68198 -0.25365 0
M  V30 2060 O 196.727 -1.93831 -0.119699 0
M  V30 2061 C 193.857 -3.46709 0.202443 0
M  V30 2062 C 192.811 -4.11996 1.15943 0
M  V30 2063 C 192.137 -5.328 0.450345 0
M  V30 2064 C 193.437 -4.5828 2.50552 0
M  V30 2065 H 195.131 -2.48229 1.674 0
M  V30 2066 H 192.677 -1.19308 0.806326 0
M  V30 2067 H 194.63 -4.2138 -0.0407752 0
M  V30 2068 H 193.354 -3.18245 -0.734001 0
M  V30 2069 H 192.013 -3.39305 1.38808 0
M  V30 2070 H 191.661 -5.00602 -0.490531 0
M  V30 2071 H 191.361 -5.7743 1.08851 0
M  V30 2072 H 192.885 -6.10219 0.215642 0
M  V30 2073 H 194.299 -5.2433 2.31843 0
M  V30 2074 H 192.696 -5.13683 3.10242 0
M  V30 2075 H 193.766 -3.72329 3.10643 0
M  V30 2076 N 195.109 -0.891671 -1.2995 0
M  V30 2077 C 196.339 -0.527893 -1.99742 0
M  V30 2078 C 196.747 0.88979 -1.66971 0
M  V30 2079 O 196.09 1.59766 -0.906667 0
M  V30 2080 C 196.152 -0.630804 -3.53922 0
M  V30 2081 C 195.816 -2.01401 -4.10228 0
M  V30 2082 C 196.813 -2.98422 -4.25724 0
M  V30 2083 C 194.498 -2.32121 -4.45449 0
M  V30 2084 C 196.492 -4.24293 -4.75662 0
M  V30 2085 C 194.179 -3.58237 -4.95086 0
M  V30 2086 C 195.177 -4.54137 -5.10146 0
M  V30 2087 O 194.865 -5.78014 -5.58708 0
M  V30 2088 H 194.597 -0.201953 -0.645129 0
M  V30 2089 H 197.151 -1.20076 -1.66646 0
M  V30 2090 H 195.381 0.0990616 -3.86573 0
M  V30 2091 H 197.07 -0.277338 -4.04951 0
M  V30 2092 H 197.836 -2.76001 -3.98809 0
M  V30 2093 H 193.715 -1.5824 -4.32991 0
M  V30 2094 H 197.259 -4.99153 -4.87332 0
M  V30 2095 H 193.156 -3.80491 -5.21437 0
M  V30 2096 H 193.924 -5.8049 -5.77039 0
M  V30 2097 N 196.587 1.43421 -0.653314 0
M  V30 2098 C 197.836 2.01032 -0.164076 0
M  V30 2099 C 198.149 1.52147 1.22926 0
M  V30 2100 O 199.355 2.02031 1.81371 0
M  V30 2101 C 197.811 3.59082 -0.24252 0
M  V30 2102 C 197.419 4.1696 -1.63855 0
M  V30 2103 C 199.163 4.24079 0.18911 0
M  V30 2104 C 197.07 5.67304 -1.67092 0
M  V30 2105 H 196 0.751798 -0.0575769 0
M  V30 2106 H 198.651 1.6439 -0.815362 0
M  V30 2107 H 197.033 3.93125 0.476276 0
M  V30 2108 H 198.207 3.94416 -2.38271 0
M  V30 2109 H 196.522 3.64335 -2.01616 0
M  V30 2110 H 199.119 5.34381 0.184775 0
M  V30 2111 H 199.462 3.98005 1.22056 0
M  V30 2112 H 199.995 3.94918 -0.477938 0
M  V30 2113 H 196.734 5.98145 -2.68146 0
M  V30 2114 H 196.254 5.91904 -0.970014 0
M  V30 2115 H 197.933 6.31344 -1.4147 0
M  V30 2116 N 198.065 0.39524 1.52563 0
M  V30 2117 C 198.995 -0.428384 2.29537 0
M  V30 2118 C 199.976 -1.05831 1.33169 0
M  V30 2119 O 201.161 -1.06995 1.62067 0
M  V30 2120 C 198.291 -1.55274 3.10656 0
M  V30 2121 C 197.245 -1.04855 4.14957 0
M  V30 2122 C 196.571 -2.26543 4.84337 0
M  V30 2123 C 197.871 -0.112324 5.22179 0
M  V30 2124 H 199.565 0.213867 2.98635 0
M  V30 2125 H 197.111 0.104298 1.43622 0
M  V30 2126 H 199.064 -2.1358 3.63265 0
M  V30 2127 H 197.788 -2.22266 2.39302 0
M  V30 2128 H 196.447 -0.487985 3.63338 0
M  V30 2129 H 196.095 -2.92059 4.09525 0
M  V30 2130 H 195.795 -1.93466 5.54837 0
M  V30 2131 H 197.319 -2.85481 5.39753 0
M  V30 2132 H 198.733 -0.603752 5.70112 0
M  V30 2133 H 197.13 0.128968 5.99961 0
M  V30 2134 H 198.2 0.837052 4.77621 0
M  V30 2135 N 199.544 -1.57102 0.125237 0
M  V30 2136 C 200.477 -2.11371 -0.860094 0
M  V30 2137 C 201.455 -1.03168 -1.25679 0
M  V30 2138 O 202.639 -1.30862 -1.35674 0
M  V30 2139 C 199.766 -2.61555 -2.1519 0
M  V30 2140 C 198.812 -3.81701 -1.9028 0
M  V30 2141 S 199.645 -5.23797 -1.11343 0
M  V30 2142 C 200.801 -5.77353 -2.41689 0
M  V30 2143 H 201.034 -2.94617 -0.39852 0
M  V30 2144 H 198.567 -1.54145 -0.0886555 0
M  V30 2145 H 200.525 -2.91122 -2.89411 0
M  V30 2146 H 199.186 -1.78479 -2.58465 0
M  V30 2147 H 198.379 -4.14985 -2.86014 0
M  V30 2148 H 197.981 -3.52783 -1.24178 0
M  V30 2149 H 200.273 -5.87458 -3.37489 0
M  V30 2150 H 201.216 -6.75323 -2.12942 0
M  V30 2151 H 201.624 -5.05457 -2.51342 0
M  V30 2152 N 201.022 0.148545 -1.56898 0
M  V30 2153 C 202.299 0.890019 -1.74178 0
M  V30 2154 C 202.679 1.99407 -0.692839 0
M  V30 2155 O 202.027 2.26671 0.288505 0
M  V30 2156 C 202.237 1.43389 -3.18183 0
M  V30 2157 C 203.585 1.89791 -3.79822 0
M  V30 2158 O 204.609 1.53134 -3.21603 0
M  V30 2159 O 203.468 2.57387 -4.82093 0
M  V30 2160 H 200.562 0.420496 -0.712118 0
M  V30 2161 H 203.108 0.134591 -1.69165 0
M  V30 2162 H 201.88 0.640383 -3.86024 0
M  V30 2163 H 201.503 2.25287 -3.27615 0
M  V30 2164 N 202.5 1.5196 0.417844 0
M  V30 2165 C 203.747 1.65591 1.16559 0
M  V30 2166 C 204.075 0.381565 1.90721 0
M  V30 2167 O 203.33 -0.635156 1.85106 0
M  V30 2168 C 203.629 2.82269 2.19223 0
M  V30 2169 C 203.295 4.20819 1.61933 0
M  V30 2170 C 201.957 4.58506 1.46033 0
M  V30 2171 C 204.309 5.07196 1.20008 0
M  V30 2172 C 201.637 5.80257 0.867113 0
M  V30 2173 C 203.989 6.29544 0.621086 0
M  V30 2174 C 202.653 6.65987 0.449144 0
M  V30 2175 H 201.923 0.605939 0.42652 0
M  V30 2176 H 204.57 1.86041 0.45397 0
M  V30 2177 H 202.875 2.56118 2.96498 0
M  V30 2178 H 204.572 2.90012 2.76936 0
M  V30 2179 H 201.162 3.91116 1.7529 0
M  V30 2180 H 205.346 4.7867 1.31105 0
M  V30 2181 H 200.602 6.07124 0.721833 0
M  V30 2182 H 204.776 6.95805 0.287798 0
M  V30 2183 H 202.403 7.60199 -0.012632 0
M  V30 2184 N 203.978 -0.674533 1.42435 0
M  V30 2185 C 205.203 -1.46784 1.46524 0
M  V30 2186 C 205.628 -1.87938 0.078066 0
M  V30 2187 O 204.986 -1.56014 -0.92354 0
M  V30 2188 C 205.034 -2.69307 2.39805 0
M  V30 2189 O 204.138 -3.67587 1.86959 0
M  V30 2190 H 203.479 -0.440959 0.496439 0
M  V30 2191 H 206.009 -0.827326 1.87127 0
M  V30 2192 H 206.019 -3.17374 2.56393 0
M  V30 2193 H 204.694 -2.38692 3.40586 0
M  V30 2194 H 203.271 -3.2662 1.79927 0
M  V30 2195 N 205.456 -1.28612 -0.910864 0
M  V30 2196 C 206.404 -1.1265 -2.03501 0
M  V30 2197 C 207.398 -0.0450054 -1.6934 0
M  V30 2198 O 208.604 -0.203988 -1.7884 0
M  V30 2199 H 204.979 -0.347639 -0.666822 0
M  V30 2200 H 206.95 -2.07849 -2.14106 0
M  V30 2201 C 205.699 -0.808143 -3.38178 0
M  V30 2202 H 205.022 -1.63231 -3.6496 0
M  V30 2203 H 206.462 -0.736426 -4.17556 0
M  V30 2204 C 204.921 0.488226 -3.33344 0
M  V30 2205 O 205.451 1.51766 -3.71927 0
M  V30 2206 N 203.657 0.490009 -2.86439 0
M  V30 2207 H 203.204 -0.348161 -2.55236 0
M  V30 2208 H 203.162 1.35741 -2.83587 0
M  V30 2209 N 206.934 1.1197 -1.10907 0
M  V30 2210 C 208.159 1.87942 -0.877064 0
M  V30 2211 C 208.584 1.79341 0.567314 0
M  V30 2212 O 207.942 1.15184 1.40009 0
M  V30 2213 C 207.99 3.34926 -1.33629 0
M  V30 2214 O 207.094 4.09303 -0.504447 0
M  V30 2215 H 206.435 0.583785 -0.316371 0
M  V30 2216 H 208.965 1.4157 -1.47712 0
M  V30 2217 H 208.975 3.8577 -1.32837 0
M  V30 2218 H 207.65 3.40504 -2.3881 0
M  V30 2219 H 206.227 3.68393 -0.577993 0
M  V30 2220 N 208.412 0.89855 1.29475 0
M  V30 2221 C 209.345 0.319981 2.25945 0
M  V30 2222 C 210.323 -0.567189 1.52387 0
M  V30 2223 O 211.507 -0.514254 1.8135 0
M  V30 2224 C 208.634 -0.544013 3.34303 0
M  V30 2225 C 207.68 0.275682 4.25608 0
M  V30 2226 S 208.513 1.67272 5.08704 0
M  V30 2227 C 209.669 0.815621 6.20563 0
M  V30 2228 H 209.902 1.13767 2.74671 0
M  V30 2229 H 207.435 0.69882 1.3768 0
M  V30 2230 H 209.393 -1.03673 3.97193 0
M  V30 2231 H 208.054 -1.33593 2.84274 0
M  V30 2232 H 207.247 -0.384263 5.02533 0
M  V30 2233 H 206.849 0.701496 3.67362 0
M  V30 2234 H 209.141 0.0385042 6.77489 0
M  V30 2235 H 210.084 1.55691 6.90772 0
M  V30 2236 H 210.492 0.370516 5.63283 0
M  V30 2237 N 209.89 -1.43072 0.660911 0
M  V30 2238 C 211.115 -2.06584 0.183805 0
M  V30 2239 C 211.54 -1.49257 -1.14472 0
M  V30 2240 O 210.898 -0.605528 -1.70889 0
M  V30 2241 C 210.946 -3.60418 0.114434 0
M  V30 2242 O 210.05 -4.01981 -0.921137 0
M  V30 2243 H 209.391 -0.656669 0.0983994 0
M  V30 2244 H 211.921 -1.83447 0.906006 0
M  V30 2245 H 211.931 -4.07946 -0.0663394 0
M  V30 2246 H 210.606 -4.01519 1.08422 0
M  V30 2247 H 209.183 -3.66029 -0.71253 0
M  V30 2248 N 211.368 -0.403325 -1.52352 0
M  V30 2249 C 212.645 0.232611 -1.94212 0
M  V30 2250 C 213.025 1.63133 -1.33981 0
M  V30 2251 O 212.373 2.22659 -0.513344 0
M  V30 2252 C 212.583 0.244811 -3.4814 0
M  V30 2253 C 213.931 0.46698 -4.22024 0
M  V30 2254 O 214.955 0.324419 -3.5472 0
M  V30 2255 O 213.814 0.74747 -5.41364 0
M  V30 2256 H 210.908 0.148223 -0.813609 0
M  V30 2257 H 213.454 -0.458848 -1.63379 0
M  V30 2258 H 212.226 -0.734378 -3.84347 0
M  V30 2259 H 211.849 0.980611 -3.85318 0
M  V30 2260 N 212.846 1.57033 -0.133567 0
M  V30 2261 C 214.123 1.87256 0.56522 0
M  V30 2262 C 214.503 1.03726 1.83859 0
M  V30 2263 O 213.851 0.120247 2.28183 0
M  V30 2264 C 214.061 3.3865 0.843636 0
M  V30 2265 C 215.409 4.07574 1.19032 0
M  V30 2266 O 216.433 3.43752 0.933429 0
M  V30 2267 O 215.292 5.20259 1.67312 0
M  V30 2268 H 212.386 0.775678 0.286796 0
M  V30 2269 H 214.932 1.68855 -0.169168 0
M  V30 2270 H 213.704 3.91257 -0.0581149 0
M  V30 2271 H 213.327 3.62532 1.63268 0
M  V30 2272 N 214.325 -0.140222 1.56975 0
M  V30 2273 C 215.255 -1.17456 2.01808 0
M  V30 2274 C 216.236 -1.44415 0.898794 0
M  V30 2275 O 217.421 -1.5522 1.16707 0
M  V30 2276 C 214.551 -2.50607 2.40444 0
M  V30 2277 C 213.505 -2.38155 3.55621 0
M  V30 2278 C 212.831 -3.76078 3.80091 0
M  V30 2279 C 214.131 -1.85991 4.88062 0
M  V30 2280 H 215.825 -0.801743 2.88466 0
M  V30 2281 H 213.371 -0.38422 1.38779 0
M  V30 2282 H 215.324 -3.23197 2.7041 0
M  V30 2283 H 214.048 -2.89737 1.50732 0
M  V30 2284 H 212.707 -1.68016 3.25832 0
M  V30 2285 H 212.355 -4.12656 2.87618 0
M  V30 2286 H 212.055 -3.68606 4.57606 0
M  V30 2287 H 213.579 -4.50206 4.12488 0
M  V30 2288 H 214.993 -2.4838 5.16701 0
M  V30 2289 H 213.39 -1.89393 5.6943 0
M  V30 2290 H 214.46 -0.816023 4.77984 0
M  V30 2291 N 215.803 -1.52179 -0.40978 0
M  V30 2292 C 217.08 -1.56769 -1.16974 0
M  V30 2293 C 217.46 -0.348322 -2.08206 0
M  V30 2294 O 216.808 0.664862 -2.18613 0
M  V30 2295 C 217.018 -2.89603 -1.9476 0
M  V30 2296 C 218.366 -3.42579 -2.50849 0
M  V30 2297 O 219.39 -2.91338 -2.04941 0
M  V30 2298 O 218.249 -4.32054 -3.34652 0
M  V30 2299 H 215.343 -0.631439 -0.534054 0
M  V30 2300 H 217.889 -1.64507 -0.416613 0
M  V30 2301 H 216.661 -3.698 -1.27921 0
M  V30 2302 H 216.284 -2.85155 -2.77079 0
M  V30 2303 N 217.281 0.66697 -1.42791 0
M  V30 2304 C 218.229 1.80157 -1.47127 0
M  V30 2305 C 219.223 1.65825 -0.346199 0
M  V30 2306 O 220.429 1.72338 -0.519572 0
M  V30 2307 H 216.804 0.594158 -0.460956 0
M  V30 2308 H 218.775 1.73619 -2.42692 0
M  V30 2309 C 217.524 3.18351 -1.39813 0
M  V30 2310 H 216.847 3.3001 -2.25684 0
M  V30 2311 H 218.287 3.97736 -1.46908 0
M  V30 2312 C 216.746 3.36707 -0.11391 0
M  V30 2313 O 217.276 3.93027 0.830241 0
M  V30 2314 N 215.482 2.90586 -0.0285295 0
M  V30 2315 H 215.029 2.4494 -0.79764 0
M  V30 2316 H 214.987 3.03245 0.830063 0
M  V30 2317 N 218.759 1.29093 0.90403 0
M  V30 2318 C 219.689 1.16401 2.02418 0
M  V30 2319 C 220.67 0.0593085 1.69997 0
M  V30 2320 O 221.855 0.238021 1.92736 0
M  V30 2321 C 218.985 0.835233 3.37107 0
M  V30 2322 C 217.939 1.89578 3.83724 0
M  V30 2323 C 217.265 1.42041 5.15489 0
M  V30 2324 C 218.565 3.30394 4.04521 0
M  V30 2325 H 220.259 2.10109 2.13295 0
M  V30 2326 H 217.805 1.01157 1.02486 0
M  V30 2327 H 219.758 0.733169 4.14973 0
M  V30 2328 H 218.482 -0.137543 3.2631 0
M  V30 2329 H 217.141 1.98715 3.08071 0
M  V30 2330 H 216.789 0.436426 5.01103 0
M  V30 2331 H 216.489 2.12964 5.4765 0
M  V30 2332 H 218.013 1.33176 5.959 0
M  V30 2333 H 219.427 3.24123 4.72882 0
M  V30 2334 H 217.824 3.99237 4.48029 0
M  V30 2335 H 218.894 3.73692 3.09002 0
M  V30 2336 N 220.237 -1.11381 1.11499 0
M  V30 2337 C 221.184 -2.17439 0.773887 0
M  V30 2338 C 222.154 -1.64132 -0.254899 0
M  V30 2339 O 223.339 -1.90345 -0.13168 0
M  V30 2340 C 220.479 -3.44373 0.223917 0
M  V30 2341 C 219.592 -4.1168 1.30934 0
M  V30 2342 C 218.727 -5.263 0.71984 0
M  V30 2343 C 217.766 -5.85493 1.78507 0
M  V30 2344 N 216.903 -6.91507 1.21502 0
M  V30 2345 H 221.743 -2.45962 1.68246 0
M  V30 2346 H 219.28 -1.20744 0.840191 0
M  V30 2347 H 221.238 -4.17047 -0.112921 0
M  V30 2348 H 219.868 -3.16232 -0.647851 0
M  V30 2349 H 218.92 -3.37073 1.76312 0
M  V30 2350 H 220.232 -4.51729 2.11524 0
M  V30 2351 H 219.386 -6.05785 0.333094 0
M  V30 2352 H 218.125 -4.87559 -0.117377 0
M  V30 2353 H 217.13 -5.04686 2.18111 0
M  V30 2354 H 218.355 -6.26301 2.62533 0
M  V30 2355 H 216.301 -6.54783 0.399455 0
M  V30 2356 H 216.218 -7.30214 1.95763 0
M  V30 2357 H 217.486 -7.74795 0.855181 0
M  V30 2358 N 221.715 -0.905404 -1.28997 0
M  V30 2359 C 222.662 -0.385892 -2.27551 0
M  V30 2360 C 223.632 0.535113 -1.57244 0
M  V30 2361 O 224.817 0.459119 -1.85194 0
M  V30 2362 C 221.957 0.375461 -3.43051 0
M  V30 2363 C 221.07 -0.577092 -4.28128 0
M  V30 2364 C 220.205 0.201879 -5.30816 0
M  V30 2365 C 219.244 -0.744829 -6.07551 0
M  V30 2366 N 218.381 9.42587e-05 -7.021 0
M  V30 2367 H 223.221 -1.23139 -2.71368 0
M  V30 2368 H 220.758 -0.618542 -1.33463 0
M  V30 2369 H 222.716 0.832992 -4.088 0
M  V30 2370 H 221.346 1.18537 -3.00248 0
M  V30 2371 H 220.398 -1.15315 -3.62501 0
M  V30 2372 H 221.71 -1.30152 -4.8152 0
M  V30 2373 H 220.864 0.720351 -6.02408 0
M  V30 2374 H 219.603 0.959413 -4.7817 0
M  V30 2375 H 218.608 -1.27475 -5.34818 0
M  V30 2376 H 219.833 -1.50178 -6.62286 0
M  V30 2377 H 217.779 0.739791 -6.51815 0
M  V30 2378 H 217.696 -0.664321 -7.53076 0
M  V30 2379 H 218.964 0.498644 -7.77903 0
M  V30 2380 N 223.193 1.4272 -0.668489 0
M  V30 2381 C 224.126 2.28111 0.0637898 0
M  V30 2382 C 225.104 1.40705 0.814912 0
M  V30 2383 O 226.288 1.70146 0.81134 0
M  V30 2384 C 223.415 3.20429 1.0974 0
M  V30 2385 C 222.461 4.24197 0.442579 0
M  V30 2386 S 223.294 5.29563 -0.795173 0
M  V30 2387 C 224.45 6.25449 0.237516 0
M  V30 2388 H 224.683 2.8987 -0.660521 0
M  V30 2389 H 222.216 1.47456 -0.457821 0
M  V30 2390 H 224.174 3.74158 1.68868 0
M  V30 2391 H 222.835 2.57818 1.79411 0
M  V30 2392 H 222.028 4.88954 1.22227 0
M  V30 2393 H 221.63 3.73925 -0.0749554 0
M  V30 2394 H 223.922 6.68524 1.09915 0
M  V30 2395 H 224.865 7.07104 -0.375421 0
M  V30 2396 H 225.273 5.61511 0.580167 0
M  V30 2397 N 224.671 0.411399 1.52136 0
M  V30 2398 C 225.919 -0.163322 2.01439 0
M  V30 2399 C 226.24 -1.45453 1.29879 0
M  V30 2400 O 225.51 -1.91225 0.4254 0
M  V30 2401 H 224.09 -0.0633447 0.744309 0
M  V30 2402 H 226.752 0.548161 1.87033 0
M  V30 2403 H 225.848 -0.357817 3.10042 0
M  V30 2404 N 226.149 -1.5696 0.141893 0
M  V30 2405 C 227.081 -2.13619 -0.830627 0
M  V30 2406 C 228.094 -1.08439 -1.21428 0
M  V30 2407 O 229.283 -1.35734 -1.15925 0
M  V30 2408 C 226.383 -2.63978 -2.12529 0
M  V30 2409 C 225.556 -3.93504 -1.9098 0
M  V30 2410 C 224.615 -4.29225 -3.04388 0
M  V30 2411 O 223.641 -4.97641 -2.76302 0
M  V30 2412 N 224.843 -3.88393 -4.31429 0
M  V30 2413 H 227.608 -2.97691 -0.34641 0
M  V30 2414 H 225.169 -1.61846 -0.0418375 0
M  V30 2415 H 227.161 -2.84891 -2.87436 0
M  V30 2416 H 225.731 -1.84659 -2.52229 0
M  V30 2417 H 224.951 -3.81269 -1.00139 0
M  V30 2418 H 226.239 -4.78154 -1.73914 0
M  V30 2419 H 225.637 -3.33257 -4.57117 0
M  V30 2420 H 224.194 -4.14368 -5.03133 0
M  V30 2421 N 227.627 0.131896 -1.57047 0
M  V30 2422 C 228.575 1.18146 -2.0036 0
M  V30 2423 C 229.569 1.43614 -0.898406 0
M  V30 2424 O 230.775 1.43729 -1.08361 0
M  V30 2425 H 227.15 0.398042 -0.638018 0
M  V30 2426 H 229.121 0.789564 -2.87765 0
M  V30 2427 C 227.87 2.50341 -2.41298 0
M  V30 2428 H 227.193 2.31578 -3.25902 0
M  V30 2429 H 228.633 3.22371 -2.75414 0
M  V30 2430 C 227.092 3.11984 -1.27153 0
M  V30 2431 O 227.622 3.97484 -0.580459 0
M  V30 2432 N 225.828 2.71662 -1.03189 0
M  V30 2433 H 225.375 2.02231 -1.59564 0
M  V30 2434 H 225.333 3.13238 -0.270077 0
M  V30 2435 N 229.106 1.52395 0.401703 0
M  V30 2436 C 230.036 1.79231 1.49661 0
M  V30 2437 C 231.017 0.643654 1.57452 0
M  V30 2438 O 232.202 0.889989 1.72606 0
M  V30 2439 C 229.332 1.94971 2.87409 0
M  V30 2440 C 228.286 3.10604 2.94465 0
M  V30 2441 C 227.612 3.11577 4.34538 0
M  V30 2442 C 228.912 4.49921 2.6527 0
M  V30 2443 H 230.606 2.70917 1.27454 0
M  V30 2444 H 228.152 1.30362 0.6117 0
M  V30 2445 H 230.105 2.12328 3.63999 0
M  V30 2446 H 228.829 0.999632 3.10926 0
M  V30 2447 H 227.488 2.93009 2.20321 0
M  V30 2448 H 227.136 2.14277 4.55076 0
M  V30 2449 H 226.836 3.89247 4.40183 0
M  V30 2450 H 228.36 3.31073 5.13053 0
M  V30 2451 H 229.774 4.67683 3.31581 0
M  V30 2452 H 228.171 5.29564 2.82281 0
M  V30 2453 H 229.241 4.57507 1.60671 0
M  V30 2454 N 230.584 -0.659388 1.43143 0
M  V30 2455 C 231.547 -1.75432 1.47501 0
M  V30 2456 C 232.547 -1.56707 0.360512 0
M  V30 2457 O 233.737 -1.62717 0.622002 0
M  V30 2458 C 230.869 -3.14239 1.32162 0
M  V30 2459 H 232.062 -1.7295 2.45006 0
M  V30 2460 H 229.615 -0.870469 1.29817 0
M  V30 2461 H 230.35 -3.22336 0.356401 0
M  V30 2462 H 230.135 -3.29235 2.12948 0
M  V30 2463 H 231.625 -3.94094 1.3813 0
M  V30 2464 N 232.062 -1.29571 -0.897171 0
M  V30 2465 C 233.478 -1.07637 -1.17841 0
M  V30 2466 C 233.678 0.170713 -2.00776 0
M  V30 2467 O 232.734 0.867768 -2.3712 0
M  V30 2468 C 234.047 -2.3332 -1.8969 0
M  V30 2469 C 235.595 -2.38664 -2.02505 0
M  V30 2470 C 236.07 -3.64157 -2.77765 0
M  V30 2471 N 237.561 -3.64894 -2.85318 0
M  V30 2472 C 238.296 -4.58679 -3.44094 0
M  V30 2473 N 237.792 -5.62799 -4.04017 0
M  V30 2474 N 239.585 -4.46245 -3.41793 0
M  V30 2475 H 231.736 -2.09598 -0.343883 0
M  V30 2476 H 233.999 -0.923333 -0.214848 0
M  V30 2477 H 233.705 -3.24262 -1.36187 0
M  V30 2478 H 233.579 -2.41025 -2.9015 0
M  V30 2479 H 235.966 -1.48208 -2.55183 0
M  V30 2480 H 236.047 -2.34943 -1.01171 0
M  V30 2481 H 235.691 -4.54965 -2.25763 0
M  V30 2482 H 235.621 -3.65137 -3.7945 0
M  V30 2483 H 238.112 -2.89613 -2.42761 0
M  V30 2484 H 238.425 -6.3048 -4.46895 0
M  V30 2485 H 236.77 -5.66605 -4.02472 0
M  V30 2486 H 239.961 -3.64094 -2.94199 0
M  V30 2487 H 240.134 -5.19518 -3.87304 0
M  V30 2488 N 233.54 1.10788 -1.12088 0
M  V30 2489 C 234.786 1.82942 -0.875226 0
M  V30 2490 C 235.119 1.84779 0.597538 0
M  V30 2491 O 234.394 1.30578 1.44152 0
M  V30 2492 C 234.677 3.29789 -1.44606 0
M  V30 2493 C 234.53 3.36307 -2.98693 0
M  V30 2494 C 235.849 4.26064 -1.10261 0
M  V30 2495 H 232.968 0.664195 -0.319397 0
M  V30 2496 H 235.61 1.29867 -1.38689 0
M  V30 2497 H 233.76 3.75118 -1.01089 0
M  V30 2498 H 235.432 2.99487 -3.50864 0
M  V30 2499 H 233.675 2.76318 -3.34411 0
M  V30 2500 H 234.346 4.39694 -3.33726 0
M  V30 2501 H 236.822 3.88951 -1.4784 0
M  V30 2502 H 235.698 5.27183 -1.52869 0
M  V30 2503 H 235.959 4.42098 -0.0142953 0
M  V30 2504 N 235.018 0.912232 1.28515 0
M  V30 2505 C 235.948 0.416403 2.29757 0
M  V30 2506 C 236.929 -0.515194 1.6211 0
M  V30 2507 O 238.114 -0.423253 1.89532 0
M  V30 2508 C 235.244 -0.34572 3.45575 0
M  V30 2509 C 234.198 0.496599 4.25109 0
M  V30 2510 C 233.524 -0.393771 5.33248 0
M  V30 2511 C 234.824 1.75307 4.92001 0
M  V30 2512 H 236.518 1.26249 2.7148 0
M  V30 2513 H 234.064 0.608515 1.30511 0
M  V30 2514 H 236.017 -0.703422 4.15488 0
M  V30 2515 H 234.741 -1.2257 3.02728 0
M  V30 2516 H 233.4 0.8368 3.56922 0
M  V30 2517 H 233.048 -1.27225 4.86644 0
M  V30 2518 H 232.748 0.166209 5.87365 0
M  V30 2519 H 234.272 -0.747389 6.06009 0
M  V30 2520 H 235.686 1.46437 5.54283 0
M  V30 2521 H 234.083 2.25534 5.56106 0
M  V30 2522 H 235.153 2.48176 4.16577 0
M  V30 2523 N 236.496 -1.42363 0.676048 0
M  V30 2524 C 237.721 -2.06377 0.205705 0
M  V30 2525 C 238.146 -1.50463 -1.12883 0
M  V30 2526 O 237.504 -0.623619 -1.70237 0
M  V30 2527 C 237.552 -3.60277 0.152655 0
M  V30 2528 O 236.656 -4.02935 -0.87845 0
M  V30 2529 H 235.997 -0.655588 0.105359 0
M  V30 2530 H 238.527 -1.82475 0.925412 0
M  V30 2531 H 238.537 -4.07993 -0.0230675 0
M  V30 2532 H 237.212 -4.00346 1.12675 0
M  V30 2533 H 235.789 -3.66764 -0.673668 0
M  V30 2534 N 237.974 -0.419461 -1.51915 0
M  V30 2535 C 238.906 0.43646 -2.25006 0
M  V30 2536 C 239.919 1.00149 -1.28351 0
M  V30 2537 O 241.108 0.898674 -1.54227 0
M  V30 2538 C 238.208 1.6206 -2.9764 0
M  V30 2539 C 237.381 1.17763 -4.21249 0
M  V30 2540 C 236.44 2.22985 -4.76617 0
M  V30 2541 O 235.466 1.83151 -5.38929 0
M  V30 2542 N 236.668 3.55271 -4.59089 0
M  V30 2543 H 239.433 -0.18989 -2.99098 0
M  V30 2544 H 236.994 -0.247386 -1.59999 0
M  V30 2545 H 238.986 2.32038 -3.31573 0
M  V30 2546 H 237.556 2.15266 -2.2667 0
M  V30 2547 H 236.776 0.305582 -3.93014 0
M  V30 2548 H 238.064 0.858781 -5.015 0
M  V30 2549 H 237.462 3.90377 -4.09417 0
M  V30 2550 H 236.019 4.21195 -4.97432 0
M  V30 2551 N 239.452 1.56882 -0.150215 0
M  V30 2552 C 240.382 2.19935 0.784284 0
M  V30 2553 C 241.363 1.14854 1.25469 0
M  V30 2554 O 242.548 1.43209 1.31168 0
M  V30 2555 C 239.678 2.82349 2.02229 0
M  V30 2556 C 238.632 3.93285 1.68853 0
M  V30 2557 C 237.958 4.42649 2.99944 0
M  V30 2558 C 239.258 5.13904 0.932714 0
M  V30 2559 H 240.952 2.9828 0.258781 0
M  V30 2560 H 238.498 1.43473 0.123029 0
M  V30 2561 H 240.451 3.25126 2.68088 0
M  V30 2562 H 239.175 2.0134 2.57157 0
M  V30 2563 H 237.834 3.5113 1.05371 0
M  V30 2564 H 237.482 3.58458 3.52869 0
M  V30 2565 H 237.182 5.17476 2.78374 0
M  V30 2566 H 238.706 4.88099 3.66868 0
M  V30 2567 H 240.12 5.53506 1.49345 0
M  V30 2568 H 238.517 5.94515 0.81684 0
M  V30 2569 H 239.587 4.84842 -0.0749568 0
M  V30 2570 N 240.93 -0.123565 1.57115 0
M  V30 2571 C 242.158 -0.846461 1.88793 0
M  V30 2572 C 242.573 -1.73652 0.740976 0
M  V30 2573 O 241.93 -1.80207 -0.288393 0
M  V30 2574 C 241.981 -1.6837 3.19897 0
M  V30 2575 O 241.702 -0.829477 4.30176 0
M  V30 2576 C 243.203 -2.51214 3.65248 0
M  V30 2577 H 240.423 -0.243573 0.625231 0
M  V30 2578 H 242.967 -0.109324 2.04208 0
M  V30 2579 H 241.122 -2.37364 3.06165 0
M  V30 2580 H 241.536 -1.40651 5.0529 0
M  V30 2581 H 243.01 -3.05497 4.59756 0
M  V30 2582 H 243.487 -3.28359 2.9168 0
M  V30 2583 H 244.093 -1.8747 3.81752 0
M  V30 2584 N 242.408 -1.52605 -0.393616 0
M  V30 2585 C 243.633 -1.71592 -1.16495 0
M  V30 2586 C 244.058 -0.43133 -1.83088 0
M  V30 2587 O 243.416 0.612523 -1.7064 0
M  V30 2588 C 243.464 -2.86318 -2.19213 0
M  V30 2589 O 242.568 -2.52969 -3.257 0
M  V30 2590 H 241.909 -0.570734 -0.33935 0
M  V30 2591 H 244.439 -1.99377 -0.459324 0
M  V30 2592 H 244.449 -3.1168 -2.63286 0
M  V30 2593 H 243.124 -3.79511 -1.7013 0
M  V30 2594 H 241.701 -2.38332 -2.86797 0
M  V30 2595 N 243.887 0.651787 -1.4349 0
M  V30 2596 C 245.164 1.40909 -1.35661 0
M  V30 2597 C 245.544 2.11099 -0.00511733 0
M  V30 2598 O 244.892 2.04892 1.0115 0
M  V30 2599 C 245.102 2.3926 -2.54078 0
M  V30 2600 C 246.45 3.03217 -2.97228 0
M  V30 2601 O 247.474 2.49588 -2.54135 0
M  V30 2602 O 246.333 4.00455 -3.71885 0
M  V30 2603 H 243.427 0.629625 -0.536191 0
M  V30 2604 H 245.973 0.678575 -1.55542 0
M  V30 2605 H 244.745 1.86352 -3.44076 0
M  V30 2606 H 244.368 3.1976 -2.36303 0
M  V30 2607 N 245.365 1.30045 0.890287 0
M  V30 2608 C 246.595 1.21296 1.67245 0
M  V30 2609 C 247.003 -0.227471 1.87828 0
M  V30 2610 O 246.346 -1.16296 1.422 0
M  V30 2611 C 246.408 1.86519 3.07329 0
M  V30 2612 C 246.072 3.35837 3.09939 0
M  V30 2613 C 247.069 4.31915 2.89389 0
M  V30 2614 C 244.754 3.77196 3.31706 0
M  V30 2615 C 246.748 5.67325 2.90552 0
M  V30 2616 C 244.435 5.12725 3.32499 0
M  V30 2617 C 245.433 6.076 3.11947 0
M  V30 2618 O 245.121 7.40655 3.12547 0
M  V30 2619 H 244.853 0.4211 0.528821 0
M  V30 2620 H 247.407 1.72111 1.12103 0
M  V30 2621 H 245.637 1.30228 3.64112 0
M  V30 2622 H 247.326 1.71963 3.67673 0
M  V30 2623 H 248.092 4.01294 2.72375 0
M  V30 2624 H 243.971 3.03796 3.4674 0
M  V30 2625 H 247.515 6.41354 2.74429 0
M  V30 2626 H 243.412 5.42988 3.49047 0
M  V30 2627 H 244.18 7.49577 3.28749 0
M  V30 2628 N 246.843 -1.10192 1.12674 0
M  V30 2629 C 248.071 -1.85983 0.906527 0
M  V30 2630 C 248.486 -1.80783 -0.544333 0
M  V30 2631 O 247.843 -1.19834 -1.37645 0
M  V30 2632 C 247.894 -3.34281 1.37618 0
M  V30 2633 O 247.615 -3.39401 2.77017 0
M  V30 2634 C 249.116 -4.26938 1.19325 0
M  V30 2635 H 246.336 -0.587716 0.323775 0
M  V30 2636 H 248.88 -1.39284 1.49734 0
M  V30 2637 H 247.035 -3.78436 0.828539 0
M  V30 2638 H 247.449 -4.31838 2.97684 0
M  V30 2639 H 248.923 -5.29181 1.57071 0
M  V30 2640 H 249.4 -4.38995 0.134097 0
M  V30 2641 H 250.006 -3.8859 1.72852 0
M  V30 2642 N 248.321 -0.919034 -1.28029 0
M  V30 2643 C 249.57 -0.550802 -1.94034 0
M  V30 2644 C 249.883 0.910877 -1.73096 0
M  V30 2645 O 251.089 1.3875 -2.33368 0
M  V30 2646 C 249.545 -0.934249 -3.47563 0
M  V30 2647 C 249.153 -2.41602 -3.7727 0
M  V30 2648 C 250.897 -0.636854 -4.19696 0
M  V30 2649 C 248.804 -2.73932 -5.24133 0
M  V30 2650 H 247.734 -0.202273 -0.726362 0
M  V30 2651 H 250.385 -1.11867 -1.45458 0
M  V30 2652 H 248.767 -0.295115 -3.94899 0
M  V30 2653 H 249.941 -3.10233 -3.40723 0
M  V30 2654 H 248.256 -2.68441 -3.18321 0
M  V30 2655 H 250.853 -0.855005 -5.2782 0
M  V30 2656 H 251.196 0.425575 -4.14119 0
M  V30 2657 H 251.729 -1.23469 -3.78154 0
M  V30 2658 H 248.468 -3.79049 -5.34792 0
M  V30 2659 H 247.988 -2.09942 -5.61858 0
M  V30 2660 H 249.667 -2.61215 -5.91925 0
M  V30 2661 N 249.799 1.42003 -0.683588 0
M  V30 2662 C 251.047 2.01015 -0.209101 0
M  V30 2663 C 251.368 1.54365 1.19149 0
M  V30 2664 O 250.638 0.769083 1.80172 0
M  V30 2665 H 249.218 0.743294 -0.074315 0
M  V30 2666 H 251.88 1.73798 -0.882066 0
M  V30 2667 H 250.976 3.11343 -0.2172 0
M  V30 2668 N 251.277 0.427512 1.51691 0
M  V30 2669 C 252.524 -0.142229 2.02 0
M  V30 2670 C 252.852 -1.43566 1.31221 0
M  V30 2671 O 252.107 -1.91298 0.412744 0
M  V30 2672 C 252.406 -0.418249 3.54944 0
M  V30 2673 C 252.072 0.788187 4.43958 0
M  V30 2674 C 250.734 1.11906 4.68007 0
M  V30 2675 C 253.086 1.59347 4.96244 0
M  V30 2676 C 250.414 2.25608 5.41588 0
M  V30 2677 C 252.766 2.7214 5.71072 0
M  V30 2678 C 251.43 3.05692 5.93387 0
M  V30 2679 H 250.7 -0.0520451 0.73917 0
M  V30 2680 H 253.347 0.572697 1.82736 0
M  V30 2681 H 251.652 -1.21496 3.72486 0
M  V30 2682 H 253.349 -0.872339 3.91397 0
M  V30 2683 H 249.939 0.520344 4.2543 0
M  V30 2684 H 254.123 1.35106 4.77556 0
M  V30 2685 H 249.379 2.51929 5.57083 0
M  V30 2686 H 253.553 3.34914 6.10578 0
M  V30 2687 H 251.18 3.9391 6.50184 0
M  V30 2688 N 252.755 -1.56801 0.158532 0
M  V30 2689 C 254.003 -1.96102 -0.488712 0
M  V30 2690 C 254.324 -1.04498 -1.64636 0
M  V30 2691 O 253.594 -0.108783 -1.95598 0
M  V30 2692 H 252.174 -0.724102 -0.183535 0
M  V30 2693 H 254.836 -1.93457 0.236728 0
M  V30 2694 H 253.932 -3.00097 -0.857219 0
M  V30 2695 N 254.233 0.115231 -1.57178 0
M  V30 2696 C 255.18 1.14115 -2.00615 0
M  V30 2697 C 256.15 1.40939 -0.878941 0
M  V30 2698 O 257.335 1.52741 -1.14345 0
M  V30 2699 C 254.475 2.46156 -2.4187 0
M  V30 2700 C 253.588 2.26236 -3.68024 0
M  V30 2701 C 252.723 3.51534 -3.98243 0
M  V30 2702 C 251.762 3.26787 -5.17568 0
M  V30 2703 N 250.899 4.44298 -5.43639 0
M  V30 2704 H 255.739 0.763743 -2.88047 0
M  V30 2705 H 253.276 0.365615 -1.42484 0
M  V30 2706 H 255.234 3.23189 -2.63827 0
M  V30 2707 H 253.864 2.81783 -1.57475 0
M  V30 2708 H 252.916 1.40102 -3.5366 0
M  V30 2709 H 254.228 2.03929 -4.55208 0
M  V30 2710 H 253.382 4.36984 -4.20868 0
M  V30 2711 H 252.121 3.76876 -3.09541 0
M  V30 2712 H 251.126 2.39729 -4.94783 0
M  V30 2713 H 252.351 3.02812 -6.0785 0
M  V30 2714 H 250.297 4.69754 -4.57895 0
M  V30 2715 H 250.214 4.25109 -6.25154 0
M  V30 2716 H 251.482 5.3087 -5.70786 0
M  V30 2717 N 255.711 1.52812 0.385517 0
M  V30 2718 C 256.958 1.68026 1.1302 0
M  V30 2719 C 257.286 0.421934 1.89868 0
M  V30 2720 O 256.541 -0.595749 1.86412 0
M  V30 2721 C 256.84 2.86856 2.13187 0
M  V30 2722 C 256.506 4.24159 1.5297 0
M  V30 2723 C 255.168 4.61501 1.36274 0
M  V30 2724 C 257.52 5.09627 1.09223 0
M  V30 2725 C 254.848 5.81966 0.743837 0
M  V30 2726 C 257.2 6.30719 0.487411 0
M  V30 2727 C 255.864 6.6679 0.307777 0
M  V30 2728 H 255.134 0.614849 0.413571 0
M  V30 2729 H 257.781 1.86962 0.414405 0
M  V30 2730 H 256.086 2.6235 2.90998 0
M  V30 2731 H 257.783 2.95821 2.70722 0
M  V30 2732 H 254.373 3.94746 1.66954 0
M  V30 2733 H 258.557 4.81343 1.20922 0
M  V30 2734 H 253.813 6.08519 0.592891 0
M  V30 2735 H 257.987 6.96259 0.140143 0
M  V30 2736 H 255.614 7.60001 -0.173879 0
M  V30 2737 N 257.189 -0.644168 1.43834 0
M  V30 2738 C 258.435 -1.40603 1.46146 0
M  V30 2739 C 258.768 -1.93997 0.0887717 0
M  V30 2740 O 258.043 -1.72854 -0.891724 0
M  V30 2741 C 258.326 -2.58086 2.51124 0
M  V30 2742 C 258.179 -2.10126 3.97702 0
M  V30 2743 C 259.498 -3.60291 2.52742 0
M  V30 2744 H 256.617 -0.509905 0.532134 0
M  V30 2745 H 259.259 -0.729502 1.75437 0
M  V30 2746 H 257.409 -3.15801 2.26278 0
M  V30 2747 H 259.081 -1.57342 4.33637 0
M  V30 2748 H 257.324 -1.41419 4.10101 0
M  V30 2749 H 257.995 -2.94649 4.66783 0
M  V30 2750 H 260.471 -3.12352 2.7491 0
M  V30 2751 H 259.347 -4.40032 3.28121 0
M  V30 2752 H 259.608 -4.1349 1.56455 0
M  V30 2753 N 258.668 -1.30515 -0.883378 0
M  V30 2754 C 259.945 -1.10086 -1.6168 0
M  V30 2755 C 260.325 0.349269 -2.08191 0
M  V30 2756 O 259.673 1.34105 -1.85008 0
M  V30 2757 C 259.883 -2.10315 -2.78511 0
M  V30 2758 C 261.231 -2.42119 -3.48803 0
M  V30 2759 O 262.255 -2.08638 -2.88702 0
M  V30 2760 O 261.114 -2.99396 -4.57192 0
M  V30 2761 H 258.208 -0.422907 -0.710689 0
M  V30 2762 H 260.754 -1.41947 -0.930015 0
M  V30 2763 H 259.526 -3.07917 -2.41459 0
M  V30 2764 H 259.149 -1.79282 -3.54886 0
M  V30 2765 N 260.146 1.09593 -1.13257 0
M  V30 2766 C 261.093 2.1618 -0.808381 0
M  V30 2767 C 262.063 1.64517 0.228754 0
M  V30 2768 O 263.248 1.9053 0.101381 0
M  V30 2769 C 260.388 3.43973 -0.278675 0
M  V30 2770 C 259.501 4.09545 -1.37466 0
M  V30 2771 C 258.636 5.25088 -0.803479 0
M  V30 2772 C 257.675 5.82579 -1.87799 0
M  V30 2773 N 256.812 6.89486 -1.32488 0
M  V30 2774 H 261.652 2.43254 -1.72138 0
M  V30 2775 H 259.189 1.19392 -0.859294 0
M  V30 2776 H 261.147 4.17174 0.0465583 0
M  V30 2777 H 259.777 3.17223 0.597459 0
M  V30 2778 H 258.829 3.34226 -1.81652 0
M  V30 2779 H 260.141 4.48307 -2.18684 0
M  V30 2780 H 259.295 6.05178 -0.429427 0
M  V30 2781 H 258.034 4.87684 0.0397956 0
M  V30 2782 H 257.039 5.01152 -2.26113 0
M  V30 2783 H 258.264 6.22045 -2.72463 0
M  V30 2784 H 256.21 6.54064 -0.503575 0
M  V30 2785 H 256.127 7.27007 -2.07355 0
M  V30 2786 H 257.395 7.73336 -0.978336 0
M  V30 2787 N 261.624 0.925811 1.2754 0
M  V30 2788 C 262.87 0.566092 1.94739 0
M  V30 2789 C 263.203 -0.890057 1.72603 0
M  V30 2790 O 262.478 -1.63467 1.05399 0
M  V30 2791 C 262.761 0.89054 3.48915 0
M  V30 2792 C 262.614 2.4003 3.80402 0
M  V30 2793 C 263.933 0.395101 4.38323 0
M  V30 2794 H 261.052 0.20714 0.707292 0
M  V30 2795 H 263.694 1.15725 1.50691 0
M  V30 2796 H 261.844 0.387452 3.86563 0
M  V30 2797 H 263.516 2.97494 3.52555 0
M  V30 2798 H 261.759 2.85028 3.2702 0
M  V30 2799 H 262.43 2.57785 4.8811 0
M  V30 2800 H 264.906 0.826241 4.07814 0
M  V30 2801 H 263.782 0.651086 5.45025 0
M  V30 2802 H 264.043 -0.704798 4.36446 0
M  V30 2803 N 263.102 -1.41638 0.69111 0
M  V30 2804 C 264.327 -2.06148 0.227583 0
M  V30 2805 C 264.752 -1.51652 -1.11281 0
M  V30 2806 O 264.11 -0.64164 -1.69566 0
M  V30 2807 C 264.158 -3.60095 0.190858 0
M  V30 2808 O 263.262 -4.03845 -0.835664 0
M  V30 2809 H 262.603 -0.654434 0.112306 0
M  V30 2810 H 265.133 -1.81484 0.944714 0
M  V30 2811 H 265.143 -4.07995 0.020207 0
M  V30 2812 H 263.818 -3.99129 1.16915 0
M  V30 2813 H 262.395 -3.67458 -0.63473 0
M  V30 2814 N 264.58 -0.43555 -1.51462 0
M  V30 2815 C 265.826 0.131709 -2.02372 0
M  V30 2816 C 266.159 1.42516 -1.3192 0
M  V30 2817 O 265.434 1.89606 -0.433573 0
M  V30 2818 C 265.717 0.352301 -3.58373 0
M  V30 2819 C 265.57 -0.959676 -4.39443 0
M  V30 2820 C 266.889 1.12286 -4.25535 0
M  V30 2821 H 264.008 0.0463936 -0.735538 0
M  V30 2822 H 266.65 -0.574197 -1.81116 0
M  V30 2823 H 264.8 0.9536 -3.76615 0
M  V30 2824 H 266.472 -1.59482 -4.32855 0
M  V30 2825 H 264.715 -1.56468 -4.04599 0
M  V30 2826 H 265.386 -0.759394 -5.46752 0
M  V30 2827 H 267.862 0.613545 -4.11552 0
M  V30 2828 H 266.738 1.24598 -5.34571 0
M  V30 2829 H 266.999 2.15048 -3.86273 0
M  V30 2830 N 266.058 1.56714 -0.166846 0
M  V30 2831 C 267.469 1.83378 0.350646 0
M  V30 2832 C 267.82 1.08646 1.63372 0
M  V30 2833 O 266.945 0.338058 2.13743 0
M  V30 2834 C 267.54 3.32643 0.642963 0
M  V30 2835 C 266.099 3.59818 1.10491 0
M  V30 2836 C 265.246 2.76954 0.138411 0
M  V30 2837 H 268.197 1.53803 -0.391193 0
M  V30 2838 H 268.218 3.49878 1.49551 0
M  V30 2839 H 267.73 3.87007 -0.291055 0
M  V30 2840 H 265.831 3.1086 2.05418 0
M  V30 2841 H 265.944 4.68178 1.01716 0
M  V30 2842 H 264.308 2.4666 0.634911 0
M  V30 2843 H 265.091 3.34097 -0.789549 0
M  V30 2844 N 267.536 -0.106894 1.57237 0
M  V30 2845 C 268.468 -1.15646 1.97885 0
M  V30 2846 C 269.481 -1.36981 0.879779 0
M  V30 2847 O 270.67 -1.35841 1.15799 0
M  V30 2848 C 267.77 -2.51425 2.27241 0
M  V30 2849 C 266.943 -2.50529 3.58545 0
M  V30 2850 C 266.002 -3.68145 3.75973 0
M  V30 2851 O 265.028 -3.51176 4.47956 0
M  V30 2852 N 266.23 -4.87177 3.15656 0
M  V30 2853 H 268.995 -0.81059 2.8853 0
M  V30 2854 H 266.556 -0.296024 1.59171 0
M  V30 2855 H 268.548 -3.28689 2.36105 0
M  V30 2856 H 267.118 -2.78147 1.42663 0
M  V30 2857 H 266.338 -1.58894 3.60758 0
M  V30 2858 H 267.626 -2.46997 4.44826 0
M  V30 2859 H 267.024 -5.03868 2.57165 0
M  V30 2860 H 265.581 -5.62075 3.30023 0
M  V30 2861 N 269.014 -1.53014 -0.377408 0
M  V30 2862 C 270.242 -1.72515 -1.14219 0
M  V30 2863 C 270.657 -0.448735 -1.8339 0
M  V30 2864 O 270.014 0.577592 -1.73119 0
M  V30 2865 C 270.065 -2.8826 -2.18148 0
M  V30 2866 O 269.786 -4.10962 -1.51795 0
M  V30 2867 C 271.287 -3.19536 -3.07264 0
M  V30 2868 H 268.507 -0.577301 -0.342001 0
M  V30 2869 H 271.051 -1.99712 -0.439935 0
M  V30 2870 H 269.206 -2.63492 -2.83991 0
M  V30 2871 H 269.62 -4.75693 -2.20945 0
M  V30 2872 H 271.094 -4.03959 -3.76193 0
M  V30 2873 H 271.571 -2.34403 -3.71419 0
M  V30 2874 H 272.177 -3.46186 -2.47053 0
M  V30 2875 N 270.492 0.636531 -1.44174 0
M  V30 2876 C 271.769 1.39463 -1.37148 0
M  V30 2877 C 272.149 2.11082 -0.027507 0
M  V30 2878 O 271.497 2.05954 0.989716 0
M  V30 2879 C 271.707 2.36552 -2.56601 0
M  V30 2880 C 273.055 3.00048 -3.00427 0
M  V30 2881 O 274.079 2.46878 -2.56767 0
M  V30 2882 O 272.938 3.96488 -3.76111 0
M  V30 2883 H 270.032 0.623903 -0.542839 0
M  V30 2884 H 272.578 0.662039 -1.56253 0
M  V30 2885 H 271.35 1.82692 -3.46034 0
M  V30 2886 H 270.973 3.17236 -2.39681 0
M  V30 2887 N 271.97 1.30982 0.876444 0
M  V30 2888 C 272.903 1.12414 1.98591 0
M  V30 2889 C 273.881 0.0294078 1.62573 0
M  V30 2890 O 275.065 0.184598 1.87594 0
M  V30 2891 C 272.192 0.716276 3.3104 0
M  V30 2892 C 271.238 1.81311 3.86042 0
M  V30 2893 S 272.071 3.41727 4.1229 0
M  V30 2894 C 273.227 3.02863 5.47745 0
M  V30 2895 H 273.46 2.06338 2.14037 0
M  V30 2896 H 270.993 1.15393 1.02586 0
M  V30 2897 H 272.951 0.487697 4.07593 0
M  V30 2898 H 271.612 -0.203749 3.13438 0
M  V30 2899 H 270.805 1.48021 4.81774 0
M  V30 2900 H 270.407 1.99641 3.16259 0
M  V30 2901 H 272.699 2.51353 6.29148 0
M  V30 2902 H 273.642 3.97533 5.8598 0
M  V30 2903 H 274.05 2.40487 5.10711 0
M  V30 2904 N 273.449 -1.08991 1.13837 0
M  V30 2905 C 274.865 -1.33312 0.877506 0
M  V30 2906 C 275.065 -1.95587 -0.48456 0
M  V30 2907 O 274.121 -2.20509 -1.23013 0
M  V30 2908 C 275.434 -2.24045 2.0056 0
M  V30 2909 C 276.982 -2.37542 2.03821 0
M  V30 2910 C 277.457 -3.31614 3.15905 0
M  V30 2911 N 278.948 -3.39189 3.15445 0
M  V30 2912 C 279.683 -4.11992 3.98811 0
M  V30 2913 N 279.179 -4.87553 4.92203 0
M  V30 2914 N 280.972 -4.07762 3.86894 0
M  V30 2915 H 273.123 -0.669456 2.01574 0
M  V30 2916 H 275.386 -0.357482 0.878015 0
M  V30 2917 H 275.092 -1.85521 2.98789 0
M  V30 2918 H 274.966 -3.24466 1.92359 0
M  V30 2919 H 277.353 -2.75327 1.06202 0
M  V30 2920 H 277.434 -1.36884 2.16093 0
M  V30 2921 H 277.078 -2.94551 4.13766 0
M  V30 2922 H 277.008 -4.32186 3.0087 0
M  V30 2923 H 279.499 -2.85314 2.47799 0
M  V30 2924 H 279.812 -5.40549 5.52292 0
M  V30 2925 H 278.157 -4.86627 4.96205 0
M  V30 2926 H 281.348 -3.47833 3.13257 0
M  V30 2927 H 281.521 -4.64238 4.52092 0
M  V30 2928 N 274.927 -0.932562 -1.27047 0
M  V30 2929 C 276.338 -0.619451 -1.76124 0
M  V30 2930 C 276.689 0.865397 -1.76083 0
M  V30 2931 O 275.814 1.67722 -1.36742 0
M  V30 2932 C 276.409 -1.11771 -3.19832 0
M  V30 2933 C 274.968 -0.855174 -3.66557 0
M  V30 2934 C 274.115 -1.27362 -2.46321 0
M  V30 2935 H 277.066 -1.11181 -1.13245 0
M  V30 2936 H 277.087 -0.46759 -3.77616 0
M  V30 2937 H 276.599 -2.19842 -3.1983 0
M  V30 2938 H 274.7 0.211524 -3.71999 0
M  V30 2939 H 274.813 -1.47613 -4.55793 0
M  V30 2940 H 273.177 -0.692119 -2.45116 0
M  V30 2941 H 273.96 -2.36307 -2.49025 0
M  V30 2942 N 276.405 1.4127 -0.698611 0
M  V30 2943 C 277.315 2.34573 -0.0357891 0
M  V30 2944 C 278.331 1.56393 0.762701 0
M  V30 2945 O 279.507 1.8886 0.699564 0
M  V30 2946 C 276.572 3.35159 0.887089 0
M  V30 2947 C 275.633 4.29225 0.0804634 0
M  V30 2948 C 274.866 5.25006 0.959387 0
M  V30 2949 O 275.089 5.26314 2.19886 0
M  V30 2950 O 274.023 6.00519 0.407439 0
M  V30 2951 H 277.849 2.92838 -0.804957 0
M  V30 2952 H 275.434 1.42175 -0.458966 0
M  V30 2953 H 277.316 3.9689 1.41621 0
M  V30 2954 H 275.991 2.79333 1.6357 0
M  V30 2955 H 274.898 3.70833 -0.493328 0
M  V30 2956 H 276.231 4.88157 -0.629547 0
M  V30 2957 N 277.883 0.443576 1.51229 0
M  V30 2958 C 278.83 -0.364716 2.279 0
M  V30 2959 C 279.8 -1.0114 1.31757 0
M  V30 2960 O 280.985 -1.02912 1.60667 0
M  V30 2961 C 278.125 -1.45644 3.12861 0
M  V30 2962 C 277.238 -0.827269 4.24005 0
M  V30 2963 C 276.373 -1.89456 4.96266 0
M  V30 2964 C 275.412 -1.24416 5.99322 0
M  V30 2965 N 274.549 -2.25309 6.64966 0
M  V30 2966 H 279.389 0.295464 2.96532 0
M  V30 2967 H 276.926 0.157554 1.46254 0
M  V30 2968 H 278.884 -2.10076 3.6045 0
M  V30 2969 H 277.514 -2.08616 2.46331 0
M  V30 2970 H 276.566 -0.0710839 3.80334 0
M  V30 2971 H 277.878 -0.312481 4.9782 0
M  V30 2972 H 277.032 -2.61535 5.47434 0
M  V30 2973 H 275.771 -2.4431 4.22095 0
M  V30 2974 H 274.776 -0.508868 5.4744 0
M  V30 2975 H 276.001 -0.702882 6.75453 0
M  V30 2976 H 273.947 -2.79231 5.93604 0
M  V30 2977 H 273.864 -1.78739 7.34567 0
M  V30 2978 H 275.132 -2.96853 7.20763 0
M  V30 2979 N 279.361 -1.56624 0.175154 0
M  V30 2980 C 280.291 -2.21155 -0.749195 0
M  V30 2981 C 281.272 -1.16836 -1.23626 0
M  V30 2982 O 282.457 -1.45277 -1.28873 0
M  V30 2983 C 279.587 -2.8553 -1.97711 0
M  V30 2984 C 278.541 -3.95921 -1.62575 0
M  V30 2985 C 277.867 -4.47365 -2.92864 0
M  V30 2986 C 279.167 -5.15323 -0.850838 0
M  V30 2987 H 280.861 -2.98653 -0.211295 0
M  V30 2988 H 278.407 -1.43651 -0.100188 0
M  V30 2989 H 280.36 -3.2935 -2.62881 0
M  V30 2990 H 279.084 -2.05406 -2.53921 0
M  V30 2991 H 277.743 -3.52762 -0.997719 0
M  V30 2992 H 277.391 -3.64027 -3.47122 0
M  V30 2993 H 277.091 -5.21839 -2.70106 0
M  V30 2994 H 278.615 -4.93873 -3.59056 0
M  V30 2995 H 280.029 -5.55812 -1.40521 0
M  V30 2996 H 278.426 -5.95739 -0.722154 0
M  V30 2997 H 279.496 -4.84661 0.152082 0
M  V30 2998 N 280.839 0.0985539 -1.57292 0
M  V30 2999 C 281.786 1.11981 -2.01814 0
M  V30 3000 C 282.756 1.39999 -0.89384 0
M  V30 3001 O 283.941 1.5152 -1.15958 0
M  V30 3002 C 281.081 2.43577 -2.44467 0
M  V30 3003 C 280.194 2.2232 -3.70402 0
M  V30 3004 C 279.329 3.4729 -4.01949 0
M  V30 3005 C 278.368 3.2128 -5.21005 0
M  V30 3006 N 277.505 4.38507 -5.48321 0
M  V30 3007 H 282.345 0.733149 -2.88841 0
M  V30 3008 H 279.882 0.350482 -1.42864 0
M  V30 3009 H 281.84 3.20373 -2.6724 0
M  V30 3010 H 280.47 2.80097 -1.60455 0
M  V30 3011 H 279.522 1.36343 -3.55126 0
M  V30 3012 H 280.834 1.99089 -4.57345 0
M  V30 3013 H 279.988 4.32495 -4.25479 0
M  V30 3014 H 278.727 3.73572 -3.13521 0
M  V30 3015 H 277.732 2.34468 -4.97298 0
M  V30 3016 H 278.957 2.96348 -6.11028 0
M  V30 3017 H 276.903 4.64871 -4.62851 0
M  V30 3018 H 276.82 4.18455 -6.29628 0
M  V30 3019 H 278.088 5.24787 -5.76385 0
M  V30 3020 N 282.317 1.53212 0.369288 0
M  V30 3021 C 283.227 1.82342 1.47609 0
M  V30 3022 C 284.243 0.711532 1.58787 0
M  V30 3023 O 285.419 1.0012 1.74751 0
M  V30 3024 C 282.484 2.00393 2.8292 0
M  V30 3025 C 281.545 3.24297 2.81301 0
M  V30 3026 C 280.778 3.41478 4.10157 0
M  V30 3027 O 281.001 2.63033 5.06132 0
M  V30 3028 O 279.935 4.34817 4.16194 0
M  V30 3029 H 283.761 2.76366 1.25918 0
M  V30 3030 H 281.346 1.38547 0.559034 0
M  V30 3031 H 283.228 2.13859 3.63101 0
M  V30 3032 H 281.903 1.09559 3.04596 0
M  V30 3033 H 280.81 3.16257 1.99831 0
M  V30 3034 H 282.143 4.15041 2.64578 0
M  V30 3035 N 283.795 -0.628877 1.44509 0
M  V30 3036 C 285.206 -1.21054 1.42137 0
M  V30 3037 C 285.557 -1.95715 0.137881 0
M  V30 3038 O 284.682 -2.02554 -0.761645 0
M  V30 3039 C 285.277 -2.20189 2.57493 0
M  V30 3040 C 283.836 -2.73777 2.58308 0
M  V30 3041 C 282.983 -1.48813 2.33987 0
M  V30 3042 H 285.934 -0.41942 1.53057 0
M  V30 3043 H 285.955 -3.02833 2.30375 0
M  V30 3044 H 285.467 -1.6582 3.50892 0
M  V30 3045 H 283.568 -3.32142 1.68856 0
M  V30 3046 H 283.681 -3.19662 3.56865 0
M  V30 3047 H 282.045 -1.77024 1.83124 0
M  V30 3048 H 282.828 -0.963442 3.29504 0
M  V30 3049 N 285.273 -1.31445 -0.869486 0
M  V30 3050 C 286.519 -1.22347 -1.62489 0
M  V30 3051 C 286.874 0.216204 -1.91181 0
M  V30 3052 O 286.167 1.14977 -1.53268 0
M  V30 3053 C 286.361 -2.00145 -2.96102 0
M  V30 3054 C 286.19 -3.51531 -2.80456 0
M  V30 3055 C 284.96 -4.20882 -2.79618 0
M  V30 3056 C 287.158 -4.46471 -2.5528 0
M  V30 3057 N 285.14 -5.58421 -2.55027 0
M  V30 3058 C 286.511 -5.71682 -2.39957 0
M  V30 3059 C 288.566 -4.35892 -2.40629 0
M  V30 3060 C 287.269 -6.87511 -2.11472 0
M  V30 3061 C 289.295 -5.51505 -2.13532 0
M  V30 3062 C 288.657 -6.75707 -1.98998 0
M  V30 3063 H 284.756 -0.502815 -0.598917 0
M  V30 3064 H 287.34 -1.65639 -1.02332 0
M  V30 3065 H 285.511 -1.59221 -3.54264 0
M  V30 3066 H 287.243 -1.83063 -3.60929 0
M  V30 3067 H 283.998 -3.72857 -2.92018 0
M  V30 3068 H 284.422 -6.30841 -2.45701 0
M  V30 3069 H 289.064 -3.40533 -2.50593 0
M  V30 3070 H 286.782 -7.82897 -2.00245 0
M  V30 3071 H 290.368 -5.45238 -2.02995 0
M  V30 3072 H 289.248 -7.63655 -1.78326 0
M  V30 3073 N 286.751 1.08385 -1.14413 0
M  V30 3074 C 288.162 1.62258 -0.923535 0
M  V30 3075 C 288.513 1.88691 0.537595 0
M  V30 3076 O 287.638 1.64454 1.40655 0
M  V30 3077 C 288.233 2.94781 -1.67002 0
M  V30 3078 C 286.792 3.45437 -1.495 0
M  V30 3079 C 285.939 2.19668 -1.69238 0
M  V30 3080 H 288.89 0.916086 -1.2959 0
M  V30 3081 H 288.911 3.63229 -1.13334 0
M  V30 3082 H 288.423 2.7551 -2.73342 0
M  V30 3083 H 286.524 3.6981 -0.455097 0
M  V30 3084 H 286.637 4.22173 -2.2651 0
M  V30 3085 H 285.001 2.28849 -1.11804 0
M  V30 3086 H 285.784 2.02905 -2.7692 0
M  V30 3087 N 288.23 0.939286 1.26551 0
M  V30 3088 C 289.178 0.43815 2.28436 0
M  V30 3089 C 290.172 -0.483587 1.62351 0
M  V30 3090 O 291.378 -0.362009 1.76322 0
M  V30 3091 H 287.753 0.123149 0.741848 0
M  V30 3092 H 289.724 1.31002 2.68106 0
M  V30 3093 C 288.473 -0.283052 3.46546 0
M  V30 3094 H 287.796 0.417043 3.97619 0
M  V30 3095 H 289.236 -0.597948 4.19763 0
M  V30 3096 C 287.695 -1.50018 3.01656 0
M  V30 3097 O 288.225 -2.59855 3.0633 0
M  V30 3098 N 286.431 -1.35608 2.57019 0
M  V30 3099 H 285.978 -0.46244 2.53415 0
M  V30 3100 H 285.936 -2.17165 2.27347 0
M  V30 3101 N 289.708 -1.40897 0.706093 0
M  V30 3102 C 290.933 -2.05895 0.249435 0
M  V30 3103 C 291.358 -1.52823 -1.09666 0
M  V30 3104 O 290.716 -0.659589 -1.68876 0
M  V30 3105 C 290.764 -3.59872 0.22904 0
M  V30 3106 O 289.868 -4.04708 -0.792784 0
M  V30 3107 H 289.209 -0.653206 0.119241 0
M  V30 3108 H 291.739 -1.80471 0.96391 0
M  V30 3109 H 291.749 -4.07951 0.0634791 0
M  V30 3110 H 290.424 -3.97866 1.21141 0
M  V30 3111 H 289.001 -3.68111 -0.59572 0
M  V30 3112 N 291.186 -0.45159 -1.50991 0
M  V30 3113 C 292.463 0.170707 -1.94854 0
M  V30 3114 C 292.843 1.58788 -1.39103 0
M  V30 3115 O 292.191 2.20913 -0.583921 0
M  V30 3116 C 292.401 0.133929 -3.48743 0
M  V30 3117 C 293.749 0.33248 -4.23296 0
M  V30 3118 O 294.773 0.211403 -3.55572 0
M  V30 3119 O 293.632 0.57486 -5.43468 0
M  V30 3120 H 290.726 0.122264 -0.817912 0
M  V30 3121 H 293.272 -0.510594 -1.61836 0
M  V30 3122 H 292.044 -0.856283 -3.81816 0
M  V30 3123 H 291.667 0.857529 -3.88242 0
M  V30 3124 N 292.664 1.56529 -0.183458 0
M  V30 3125 C 294.075 1.83739 0.331177 0
M  V30 3126 C 294.426 1.10373 1.62211 0
M  V30 3127 O 293.551 0.36071 2.13373 0
M  V30 3128 C 294.146 3.33306 0.607646 0
M  V30 3129 C 292.705 3.60969 1.06668 0
M  V30 3130 C 291.852 2.77086 0.109029 0
M  V30 3131 H 294.803 1.53379 -0.407484 0
M  V30 3132 H 294.824 3.51444 1.45832 0
M  V30 3133 H 294.336 3.86677 -0.332086 0
M  V30 3134 H 292.437 3.13021 2.0211 0
M  V30 3135 H 292.55 4.69231 0.967447 0
M  V30 3136 H 290.914 2.47319 0.608714 0
M  V30 3137 H 291.697 3.33241 -0.82494 0
M  V30 3138 N 294.142 -0.090211 1.57342 0
M  V30 3139 C 295.553 -0.644173 1.75235 0
M  V30 3140 C 295.904 -1.78865 0.806335 0
M  V30 3141 O 295.029 -2.16395 -0.0140128 0
M  V30 3142 C 295.624 -1.17532 3.1776 0
M  V30 3143 C 294.183 -1.67531 3.37061 0
M  V30 3144 C 293.33 -0.58693 2.71017 0
M  V30 3145 H 296.281 0.135884 1.58117 0
M  V30 3146 H 296.302 -2.04455 3.20902 0
M  V30 3147 H 295.814 -0.342138 3.86589 0
M  V30 3148 H 293.915 -2.53234 2.73319 0
M  V30 3149 H 294.028 -1.76493 4.45406 0
M  V30 3150 H 292.392 -1.02756 2.33052 0
M  V30 3151 H 293.175 0.235758 3.4249 0
M  V30 3152 N 295.62 -1.53406 -0.361157 0
M  V30 3153 C 296.867 -1.69802 -1.10333 0
M  V30 3154 C 297.195 -0.452087 -1.89173 0
M  V30 3155 O 296.45 0.566017 -1.87336 0
M  V30 3156 C 296.749 -2.90211 -2.08596 0
M  V30 3157 C 296.415 -4.26539 -1.46203 0
M  V30 3158 C 295.077 -4.6361 -1.28915 0
M  V30 3159 C 297.429 -5.113 -1.01101 0
M  V30 3160 C 294.757 -5.83075 -0.651157 0
M  V30 3161 C 297.109 -6.31415 -0.387007 0
M  V30 3162 C 295.773 -6.67195 -0.201657 0
M  V30 3163 H 295.043 -0.621351 -0.403737 0
M  V30 3164 H 297.69 -1.87598 -0.384609 0
M  V30 3165 H 295.995 -2.66946 -2.86788 0
M  V30 3166 H 297.692 -3.00091 -2.65982 0
M  V30 3167 H 294.282 -3.97352 -1.60653 0
M  V30 3168 H 298.466 -4.83206 -1.13249 0
M  V30 3169 H 293.722 -6.09385 -0.496006 0
M  V30 3170 H 297.896 -6.96394 -0.0293563 0
M  V30 3171 H 295.523 -7.59628 0.294766 0
M  V30 3172 N 297.098 0.621204 -1.44841 0
M  V30 3173 C 298.323 1.41244 -1.51871 0
M  V30 3174 C 298.748 1.87519 -0.147764 0
M  V30 3175 O 298.106 1.59334 0.865 0
M  V30 3176 C 298.154 2.60221 -2.49634 0
M  V30 3177 O 297.258 3.60395 -2.00473 0
M  V30 3178 H 296.599 0.42223 -0.512463 0
M  V30 3179 H 299.129 0.757305 -1.90069 0
M  V30 3180 H 299.139 3.0764 -2.67996 0
M  V30 3181 H 297.814 2.25887 -3.4921 0
M  V30 3182 H 296.391 3.19717 -1.91925 0
M  V30 3183 N 298.576 1.31904 0.862503 0
M  V30 3184 C 299.823 1.22017 1.61611 0
M  V30 3185 C 300.151 -0.21991 1.93253 0
M  V30 3186 O 299.406 -1.17076 1.56817 0
M  V30 3187 C 299.705 2.01713 2.95037 0
M  V30 3188 C 299.371 3.51145 2.82857 0
M  V30 3189 C 298.033 3.91889 2.79243 0
M  V30 3190 C 300.385 4.46204 2.69353 0
M  V30 3191 C 297.713 5.25947 2.59993 0
M  V30 3192 C 300.065 5.80397 2.5164 0
M  V30 3193 C 298.729 6.20352 2.46413 0
M  V30 3194 H 297.999 0.44649 0.591378 0
M  V30 3195 H 300.646 1.63248 1.00111 0
M  V30 3196 H 298.951 1.53185 3.60613 0
M  V30 3197 H 300.648 1.91437 3.52353 0
M  V30 3198 H 297.238 3.1878 2.86491 0
M  V30 3199 H 301.422 4.15652 2.71196 0
M  V30 3200 H 296.678 5.5597 2.54376 0
M  V30 3201 H 300.852 6.53676 2.40169 0
M  V30 3202 H 298.479 7.24172 2.31256 0
M  V30 3203 N 300.054 -1.07777 1.14986 0
M  V30 3204 C 301.001 -2.14867 0.842672 0
M  V30 3205 C 301.971 -1.6486 -0.202552 0
M  V30 3206 O 303.156 -1.90668 -0.0710568 0
M  V30 3207 C 300.296 -3.43486 0.333363 0
M  V30 3208 C 299.409 -4.07306 1.43965 0
M  V30 3209 C 298.544 -5.23744 0.886914 0
M  V30 3210 C 297.583 -5.79517 1.97043 0
M  V30 3211 N 296.72 -6.87291 1.4344 0
M  V30 3212 H 301.56 -2.40485 1.75986 0
M  V30 3213 H 299.097 -1.1801 0.878179 0
M  V30 3214 H 301.055 -4.17195 0.0198163 0
M  V30 3215 H 299.685 -3.18133 -0.546916 0
M  V30 3216 H 298.737 -3.31293 1.86946 0
M  V30 3217 H 300.049 -4.44771 2.25788 0
M  V30 3218 H 299.203 -6.04419 0.525651 0
M  V30 3219 H 297.942 -4.87685 0.0377957 0
M  V30 3220 H 296.947 -4.97491 2.34057 0
M  V30 3221 H 298.172 -6.17632 2.82325 0
M  V30 3222 H 296.118 -6.5318 0.607567 0
M  V30 3223 H 296.035 -7.23617 2.18895 0
M  V30 3224 H 297.303 -7.71682 1.10124 0
M  V30 3225 N 301.532 -0.945985 -1.26051 0
M  V30 3226 C 302.48 -0.450259 -2.282 0
M  V30 3227 C 303.474 0.47497 -1.62605 0
M  V30 3228 O 304.68 0.352653 -1.76512 0
M  V30 3229 H 301.055 -0.127081 -0.741184 0
M  V30 3230 H 303.026 -1.32422 -2.67408 0
M  V30 3231 C 301.775 0.26467 -3.46691 0
M  V30 3232 H 301.098 -0.438123 -3.97392 0
M  V30 3233 H 302.538 0.575678 -4.20074 0
M  V30 3234 C 300.997 1.48416 -3.02447 0
M  V30 3235 O 301.527 2.58227 -3.07704 0
M  V30 3236 N 299.733 1.34243 -2.57735 0
M  V30 3237 H 299.28 0.448994 -2.53657 0
M  V30 3238 H 299.238 2.15957 -2.28495 0
M  V30 3239 N 303.011 1.40521 -0.713556 0
M  V30 3240 C 304.257 2.01221 -0.252564 0
M  V30 3241 C 304.59 1.56444 1.1506 0
M  V30 3242 O 303.865 0.783597 1.78017 0
M  V30 3243 C 304.148 3.58582 -0.330332 0
M  V30 3244 C 304.001 4.13437 -1.77173 0
M  V30 3245 C 305.32 4.39079 0.299641 0
M  V30 3246 H 302.439 0.731077 -0.0932471 0
M  V30 3247 H 305.081 1.67026 -0.905673 0
M  V30 3248 H 303.231 3.87844 0.225737 0
M  V30 3249 H 304.903 3.9498 -2.38303 0
M  V30 3250 H 303.146 3.67801 -2.3001 0
M  V30 3251 H 303.817 5.22597 -1.77755 0
M  V30 3252 H 306.293 4.15735 -0.174139 0
M  V30 3253 H 305.169 5.4848 0.214771 0
M  V30 3254 H 305.43 4.19915 1.38288 0
M  V30 3255 N 304.489 0.459591 1.5075 0
M  V30 3256 C 305.738 -0.100971 2.01447 0
M  V30 3257 C 306.051 -1.41816 1.34713 0
M  V30 3258 O 307.257 -2.06299 1.76502 0
M  V30 3259 C 305.713 -0.23047 3.59161 0
M  V30 3260 C 305.321 1.0776 4.34847 0
M  V30 3261 C 307.065 -0.743608 4.17936 0
M  V30 3262 C 304.972 0.91253 5.84317 0
M  V30 3263 H 303.902 -0.0415102 0.752856 0
M  V30 3264 H 306.553 0.592742 1.73663 0
M  V30 3265 H 304.935 -0.987703 3.83485 0
M  V30 3266 H 306.109 1.8449 4.22256 0
M  V30 3267 H 304.424 1.52097 3.87628 0
M  V30 3268 H 307.021 -0.883959 5.27343 0
M  V30 3269 H 307.364 -1.73196 3.78562 0
M  V30 3270 H 307.897 -0.04408 3.97776 0
M  V30 3271 H 304.636 1.87391 6.28144 0
M  V30 3272 H 304.156 0.185422 5.99513 0
M  V30 3273 H 305.835 0.574547 6.44444 0
M  V30 3274 N 305.967 -1.56429 0.191757 0
M  V30 3275 C 307.192 -2.02309 -0.456706 0
M  V30 3276 C 307.617 -1.07103 -1.5463 0
M  V30 3277 O 306.975 -0.0539677 -1.8122 0
M  V30 3278 C 307.023 -3.46654 -0.993159 0
M  V30 3279 O 306.127 -3.54559 -2.10622 0
M  V30 3280 H 305.468 -0.655303 -0.107114 0
M  V30 3281 H 307.998 -2.02364 0.301653 0
M  V30 3282 H 308.008 -3.86377 -1.31061 0
M  V30 3283 H 306.683 -4.1544 -0.195504 0
M  V30 3284 H 305.26 -3.26708 -1.79767 0
M  V30 3285 N 307.445 0.0818655 -1.57387 0
M  V30 3286 C 308.375 1.09885 -2.06028 0
M  V30 3287 C 309.356 1.4098 -0.951774 0
M  V30 3288 O 310.541 1.50781 -1.22387 0
M  V30 3289 C 307.671 2.4151 -2.4958 0
M  V30 3290 C 306.625 2.24792 -3.64215 0
M  V30 3291 C 305.951 3.61712 -3.93787 0
M  V30 3292 C 307.251 1.67749 -4.94629 0
M  V30 3293 H 308.945 0.694128 -2.91243 0
M  V30 3294 H 306.491 0.332448 -1.4011 0
M  V30 3295 H 308.444 3.12939 -2.82219 0
M  V30 3296 H 307.168 2.83943 -1.61381 0
M  V30 3297 H 305.827 1.55807 -3.31843 0
M  V30 3298 H 305.475 4.01697 -3.02735 0
M  V30 3299 H 305.175 3.51368 -4.70971 0
M  V30 3300 H 306.699 4.34587 -4.28913 0
M  V30 3301 H 308.113 2.29032 -5.25564 0
M  V30 3302 H 306.51 1.68128 -5.76067 0
M  V30 3303 H 307.58 0.638059 -4.80684 0
M  V30 3304 N 308.923 1.53595 0.353017 0
M  V30 3305 C 310.151 1.74311 1.1146 0
M  V30 3306 C 310.566 0.477854 1.82653 0
M  V30 3307 O 309.923 -0.549977 1.74016 0
M  V30 3308 C 309.974 2.91694 2.13534 0
M  V30 3309 O 309.695 4.13325 1.45238 0
M  V30 3310 C 311.196 3.24384 3.02142 0
M  V30 3311 H 308.416 0.582669 0.332773 0
M  V30 3312 H 310.96 2.00386 0.408107 0
M  V30 3313 H 309.115 2.67977 2.79763 0
M  V30 3314 H 309.529 4.79148 2.13349 0
M  V30 3315 H 311.003 4.09893 3.69718 0
M  V30 3316 H 311.48 2.40282 3.67643 0
M  V30 3317 H 312.086 3.50073 2.41514 0
M  V30 3318 N 310.401 -0.613514 1.45168 0
M  V30 3319 C 311.311 -1.75296 1.55912 0
M  V30 3320 C 312.327 -1.68244 0.443856 0
M  V30 3321 O 313.503 -1.88706 0.70371 0
M  V30 3322 C 310.568 -3.1174 1.5172 0
M  V30 3323 C 309.629 -3.30291 2.74238 0
M  V30 3324 C 308.862 -4.60226 2.70236 0
M  V30 3325 O 309.085 -5.42168 1.77229 0
M  V30 3326 O 308.019 -4.81361 3.61352 0
M  V30 3327 H 311.845 -1.69183 2.52212 0
M  V30 3328 H 309.43 -0.776886 1.27612 0
M  V30 3329 H 311.312 -3.93044 1.51968 0
M  V30 3330 H 309.987 -3.18357 0.585697 0
M  V30 3331 H 308.894 -2.48598 2.79553 0
M  V30 3332 H 310.227 -3.28547 3.66494 0
M  V30 3333 N 311.879 -1.3236 -0.855495 0
M  V30 3334 C 313.156 -1.13491 -1.59309 0
M  V30 3335 C 313.536 0.30503 -2.08885 0
M  V30 3336 O 312.884 1.30151 -1.87811 0
M  V30 3337 C 313.094 -2.16176 -2.73987 0
M  V30 3338 C 314.442 -2.49463 -3.43589 0
M  V30 3339 O 315.466 -2.14715 -2.84211 0
M  V30 3340 O 314.325 -3.09027 -4.50738 0
M  V30 3341 H 311.419 -0.437887 -0.701559 0
M  V30 3342 H 313.965 -1.43887 -0.899696 0
M  V30 3343 H 312.737 -3.1297 -2.34873 0
M  V30 3344 H 312.36 -1.86769 -3.51003 0
M  V30 3345 N 313.357 1.07166 -1.15556 0
M  V30 3346 C 314.603 1.80065 -0.932984 0
M  V30 3347 C 314.936 1.86586 0.53845 0
M  V30 3348 O 314.211 1.35098 1.39924 0
M  V30 3349 C 314.494 3.25022 -1.55025 0
M  V30 3350 C 314.347 3.26634 -3.09242 0
M  V30 3351 C 315.666 4.22341 -1.2376 0
M  V30 3352 H 312.785 0.653697 -0.340366 0
M  V30 3353 H 315.427 1.25389 -1.4275 0
M  V30 3354 H 313.577 3.71712 -1.12972 0
M  V30 3355 H 315.249 2.88173 -3.60214 0
M  V30 3356 H 313.492 2.65539 -3.43033 0
M  V30 3357 H 314.163 4.28854 -3.47546 0
M  V30 3358 H 316.639 3.8405 -1.60139 0
M  V30 3359 H 315.515 5.22053 -1.69564 0
M  V30 3360 H 315.776 4.41828 -0.154938 0
M  V30 3361 N 314.835 0.952656 1.25548 0
M  V30 3362 C 316.112 0.523818 1.88456 0
M  V30 3363 C 316.492 -0.998871 1.85973 0
M  V30 3364 O 315.84 -1.86381 1.3219 0
M  V30 3365 C 316.05 1.0982 3.31271 0
M  V30 3366 C 317.398 1.17385 4.08051 0
M  V30 3367 O 318.422 1.04961 3.40384 0
M  V30 3368 O 317.281 1.36852 5.29088 0
M  V30 3369 H 314.375 0.172485 0.808813 0
M  V30 3370 H 316.921 1.04596 1.33633 0
M  V30 3371 H 315.693 2.1415 3.27499 0
M  V30 3372 H 315.316 0.559191 3.93648 0
M  V30 3373 N 316.313 -1.40141 0.720998 0
M  V30 3374 C 317.223 -2.34486 0.0731031 0
M  V30 3375 C 318.239 -1.57587 -0.737723 0
M  V30 3376 O 319.415 -1.89949 -0.669429 0
M  V30 3377 C 316.48 -3.36528 -0.833656 0
M  V30 3378 C 315.541 -4.29298 -0.0121673 0
M  V30 3379 C 314.774 -5.26466 -0.875742 0
M  V30 3380 O 314.997 -5.29745 -2.11485 0
M  V30 3381 O 313.931 -6.01092 -0.31185 0
M  V30 3382 H 317.757 -2.9152 0.851444 0
M  V30 3383 H 315.342 -1.41427 0.481527 0
M  V30 3384 H 317.224 -3.99093 -1.35289 0
M  V30 3385 H 315.899 -2.81899 -1.59105 0
M  V30 3386 H 314.806 -3.70001 0.552262 0
M  V30 3387 H 316.139 -4.87094 0.707129 0
M  V30 3388 N 317.792 -0.46758 -1.50504 0
M  V30 3389 C 319.039 0.0886219 -2.02306 0
M  V30 3390 C 319.367 1.40037 -1.34981 0
M  V30 3391 O 318.622 1.90136 -0.463318 0
M  V30 3392 C 318.921 0.323995 -3.55928 0
M  V30 3393 C 318.587 -0.905618 -4.41712 0
M  V30 3394 C 317.249 -1.24275 -4.64875 0
M  V30 3395 C 319.601 -1.72448 -4.91845 0
M  V30 3396 C 316.929 -2.39888 -5.35417 0
M  V30 3397 C 319.281 -2.87185 -5.63656 0
M  V30 3398 C 317.945 -3.21317 -5.85074 0
M  V30 3399 H 317.215 0.0324291 -0.74029 0
M  V30 3400 H 319.862 -0.620945 -1.81153 0
M  V30 3401 H 318.167 1.11577 -3.75577 0
M  V30 3402 H 319.864 0.76826 -3.93572 0
M  V30 3403 H 316.454 -0.632956 -4.239 0
M  V30 3404 H 320.638 -1.4772 -4.73806 0
M  V30 3405 H 315.894 -2.66611 -5.50208 0
M  V30 3406 H 320.068 -3.50985 -6.01484 0
M  V30 3407 H 317.695 -4.1101 -6.39511 0
M  V30 3408 N 319.27 1.56325 -0.20005 0
M  V30 3409 C 320.686 1.58839 0.155716 0
M  V30 3410 C 320.886 1.21636 1.60645 0
M  V30 3411 O 319.942 0.941437 2.34293 0
M  V30 3412 C 321.255 3.0032 -0.151124 0
M  V30 3413 C 322.803 3.12866 -0.0916284 0
M  V30 3414 C 323.278 4.56488 -0.371845 0
M  V30 3415 N 324.769 4.62089 -0.320641 0
M  V30 3416 C 325.504 5.71116 -0.511243 0
M  V30 3417 N 325 6.88592 -0.762461 0
M  V30 3418 N 326.793 5.60335 -0.445157 0
M  V30 3419 H 318.944 1.78788 -1.14668 0
M  V30 3420 H 321.207 0.829996 -0.458051 0
M  V30 3421 H 320.913 3.32117 -1.15721 0
M  V30 3422 H 320.787 3.73257 0.543986 0
M  V30 3423 H 323.174 2.80878 0.905065 0
M  V30 3424 H 323.255 2.42304 -0.81989 0
M  V30 3425 H 322.899 4.89189 -1.36588 0
M  V30 3426 H 322.829 5.25246 0.377362 0
M  V30 3427 H 325.32 3.77665 -0.13329 0
M  V30 3428 H 325.633 7.67581 -0.896576 0
M  V30 3429 H 323.978 6.90387 -0.799412 0
M  V30 3430 H 327.169 4.67436 -0.249278 0
M  V30 3431 H 327.342 6.45243 -0.597116 0
M  V30 3432 N 320.748 -0.0735177 1.57428 0
M  V30 3433 C 321.696 -1.10628 2.04607 0
M  V30 3434 C 322.69 -1.40181 0.951088 0
M  V30 3435 O 323.896 -1.39608 1.1362 0
M  V30 3436 H 320.271 -0.374088 0.652351 0
M  V30 3437 H 322.242 -0.682218 2.90497 0
M  V30 3438 C 320.991 -2.41212 2.50423 0
M  V30 3439 H 320.314 -2.19322 3.34272 0
M  V30 3440 H 321.754 -3.11927 2.87189 0
M  V30 3441 C 320.213 -3.0705 1.38644 0
M  V30 3442 O 320.743 -3.95056 0.727582 0
M  V30 3443 N 318.949 -2.67645 1.132 0
M  V30 3444 H 318.496 -1.96169 1.66959 0
M  V30 3445 H 318.454 -3.1202 0.386147 0
M  V30 3446 N 322.226 -1.5378 -0.344866 0
M  V30 3447 C 323.173 -1.81676 -1.42346 0
M  V30 3448 C 324.143 -0.662376 -1.52321 0
M  V30 3449 O 325.328 -0.906675 -1.67881 0
M  V30 3450 C 322.468 -2.03087 -2.79015 0
M  V30 3451 C 321.581 -3.30799 -2.77842 0
M  V30 3452 C 320.716 -3.42285 -4.0622 0
M  V30 3453 C 319.755 -4.6395 -3.9927 0
M  V30 3454 N 318.892 -4.72477 -5.19336 0
M  V30 3455 H 323.732 -2.73703 -1.17858 0
M  V30 3456 H 321.269 -1.35568 -0.570949 0
M  V30 3457 H 323.227 -2.1349 -3.58438 0
M  V30 3458 H 321.857 -1.14375 -3.01858 0
M  V30 3459 H 320.909 -3.29244 -1.90533 0
M  V30 3460 H 322.221 -4.20314 -2.68584 0
M  V30 3461 H 321.375 -3.52113 -4.94066 0
M  V30 3462 H 320.114 -2.50823 -4.18258 0
M  V30 3463 H 319.119 -4.54201 -3.09809 0
M  V30 3464 H 320.344 -5.56775 -3.88817 0
M  V30 3465 H 318.29 -3.83924 -5.3192 0
M  V30 3466 H 318.207 -5.55927 -5.12329 0
M  V30 3467 H 319.475 -4.86613 -6.08957 0
M  V30 3468 N 323.704 0.605807 -1.45491 0
M  V30 3469 C 324.634 1.72709 -1.57143 0
M  V30 3470 C 325.615 1.6476 -0.422884 0
M  V30 3471 O 326.8 1.83132 -0.646247 0
M  V30 3472 C 323.93 3.11316 -1.53948 0
M  V30 3473 C 322.884 3.34077 -2.67537 0
M  V30 3474 C 322.21 4.72975 -2.49397 0
M  V30 3475 C 323.51 3.24158 -4.09535 0
M  V30 3476 H 325.204 1.63214 -2.51001 0
M  V30 3477 H 322.75 0.78379 -1.208 0
M  V30 3478 H 324.703 3.89557 -1.60696 0
M  V30 3479 H 323.427 3.21655 -0.566205 0
M  V30 3480 H 322.086 2.58227 -2.6022 0
M  V30 3481 H 321.734 4.8005 -1.50205 0
M  V30 3482 H 321.434 4.8916 -3.25571 0
M  V30 3483 H 322.958 5.53414 -2.58002 0
M  V30 3484 H 324.372 3.92271 -4.18086 0
M  V30 3485 H 322.769 3.51872 -4.86113 0
M  V30 3486 H 323.839 2.2157 -4.31317 0
M  V30 3487 N 325.182 1.32811 0.848464 0
M  V30 3488 C 326.114 1.18095 1.96433 0
M  V30 3489 C 327.127 0.114354 1.62398 0
M  V30 3490 O 328.316 0.363892 1.74751 0
M  V30 3491 C 325.416 0.786798 3.2964 0
M  V30 3492 C 324.589 1.943 3.91875 0
M  V30 3493 C 323.648 1.53138 5.03423 0
M  V30 3494 O 322.674 2.24432 5.23086 0
M  V30 3495 N 323.876 0.430915 5.78898 0
M  V30 3496 H 326.641 2.14218 2.09597 0
M  V30 3497 H 324.202 1.2543 1.02367 0
M  V30 3498 H 326.194 0.493715 4.01677 0
M  V30 3499 H 324.764 -0.0834541 3.12489 0
M  V30 3500 H 323.984 2.40224 3.12547 0
M  V30 3501 H 325.272 2.71689 4.30189 0
M  V30 3502 H 324.67 -0.162333 5.65467 0
M  V30 3503 H 323.227 0.197466 6.51501 0
M  V30 3504 N 326.66 -1.06551 1.16123 0
M  V30 3505 C 327.908 -1.78947 0.939267 0
M  V30 3506 C 328.229 -1.87532 -0.534476 0
M  V30 3507 O 327.499 -1.38211 -1.38833 0
M  V30 3508 H 326.079 -0.662807 0.344523 0
M  V30 3509 H 328.741 -1.28725 1.46342 0
M  V30 3510 H 327.837 -2.81117 1.35572 0
M  V30 3511 N 328.138 -0.959301 -1.25041 0
M  V30 3512 C 329.048 -0.489994 -2.29426 0
M  V30 3513 C 330.064 0.444944 -1.68215 0
M  V30 3514 O 331.24 0.320046 -1.98841 0
M  V30 3515 C 328.305 0.220309 -3.45999 0
M  V30 3516 C 327.366 -0.753418 -4.22637 0
M  V30 3517 C 326.599 -0.076918 -5.33645 0
M  V30 3518 O 326.822 1.13649 -5.58963 0
M  V30 3519 O 325.756 -0.764824 -5.97021 0
M  V30 3520 H 329.582 -1.35755 -2.71669 0
M  V30 3521 H 327.167 -0.725961 -1.30576 0
M  V30 3522 H 329.049 0.619677 -4.16819 0
M  V30 3523 H 327.724 1.06296 -3.0575 0
M  V30 3524 H 326.631 -1.20308 -3.54227 0
M  V30 3525 H 327.964 -1.56423 -4.66683 0
M  V30 3526 N 329.616 1.39756 -0.72842 0
M  V30 3527 C 331.032 1.5442 -0.403308 0
M  V30 3528 C 331.232 1.69694 1.08656 0
M  V30 3529 O 330.288 1.69373 1.87267 0
M  V30 3530 C 331.601 2.76555 -1.18058 0
M  V30 3531 C 333.149 2.90384 -1.16815 0
M  V30 3532 C 333.624 4.15449 -1.92785 0
M  V30 3533 N 335.115 4.22475 -1.89918 0
M  V30 3534 C 335.85 5.1818 -2.45514 0
M  V30 3535 N 335.346 6.19714 -3.09719 0
M  V30 3536 N 337.139 5.1035 -2.35584 0
M  V30 3537 H 329.29 1.28089 -1.69431 0
M  V30 3538 H 331.553 0.620327 -0.716867 0
M  V30 3539 H 331.259 2.7159 -2.23455 0
M  V30 3540 H 331.133 3.69033 -0.780662 0
M  V30 3541 H 333.52 2.94846 -0.12234 0
M  V30 3542 H 333.601 1.98988 -1.6074 0
M  V30 3543 H 333.245 4.11749 -2.97364 0
M  V30 3544 H 333.175 5.05877 -1.46272 0
M  V30 3545 H 335.666 3.49743 -1.43138 0
M  V30 3546 H 335.979 6.8919 -3.49625 0
M  V30 3547 H 334.324 6.20121 -3.13807 0
M  V30 3548 H 337.515 4.2996 -1.85072 0
M  V30 3549 H 337.688 5.84761 -2.79211 0
M  V30 3550 N 331.094 0.475555 1.50254 0
M  V30 3551 C 332.343 -0.0795996 2.01543 0
M  V30 3552 C 332.656 -1.4038 1.36209 0
M  V30 3553 O 333.862 -2.04415 1.7868 0
M  V30 3554 C 332.318 -0.192363 3.59386 0
M  V30 3555 C 331.926 1.12367 4.33679 0
M  V30 3556 C 333.67 -0.699238 4.18701 0
M  V30 3557 C 331.577 0.974453 5.83317 0
M  V30 3558 H 330.507 -0.0335228 0.753254 0
M  V30 3559 H 333.158 0.611128 1.73025 0
M  V30 3560 H 331.54 -0.946974 3.84511 0
M  V30 3561 H 332.714 1.88958 4.20276 0
M  V30 3562 H 331.029 1.562 3.85993 0
M  V30 3563 H 333.626 -0.827978 5.28251 0
M  V30 3564 H 333.969 -1.69171 3.80377 0
M  V30 3565 H 334.502 -0.00188807 3.978 0
M  V30 3566 H 331.241 1.94042 6.26121 0
M  V30 3567 H 330.761 0.248998 5.99283 0
M  V30 3568 H 332.44 0.642867 6.43798 0
M  V30 3569 N 332.573 -1.56217 0.208337 0
M  V30 3570 C 333.798 -2.02782 -0.435222 0
M  V30 3571 C 334.223 -1.08738 -1.53485 0
M  V30 3572 O 333.581 -0.0731855 -1.81152 0
M  V30 3573 C 333.629 -3.47687 -0.956335 0
M  V30 3574 O 332.733 -3.56773 -2.06849 0
M  V30 3575 H 332.074 -0.656403 -0.100158 0
M  V30 3576 H 334.604 -2.02033 0.3231 0
M  V30 3577 H 334.614 -3.87745 -1.26955 0
M  V30 3578 H 333.289 -4.15624 -0.15143 0
M  V30 3579 H 331.866 -3.28597 -1.76292 0
M  V30 3580 N 334.051 0.0651679 -1.57465 0
M  V30 3581 C 335.299 0.761555 -1.87202 0
M  V30 3582 C 335.62 1.77778 -0.801243 0
M  V30 3583 O 334.89 1.95166 0.16937 0
M  V30 3584 H 333.47 0.284251 -0.690804 0
M  V30 3585 H 336.132 0.0396827 -1.9486 0
M  V30 3586 H 335.228 1.27365 -2.84929 0
M  V30 3587 N 335.529 1.53961 0.336706 0
M  V30 3588 C 336.477 1.83136 1.43401 0
M  V30 3589 C 337.471 0.702313 1.54156 0
M  V30 3590 O 338.677 0.885765 1.56698 0
M  V30 3591 H 335.052 0.580309 0.478273 0
M  V30 3592 H 337.023 2.74925 1.16012 0
M  V30 3593 C 335.772 2.06385 2.79822 0
M  V30 3594 H 335.095 2.92718 2.72316 0
M  V30 3595 H 336.535 2.30761 3.55704 0
M  V30 3596 C 334.994 0.851414 3.25964 0
M  V30 3597 O 335.524 0.0541904 4.01663 0
M  V30 3598 N 333.73 0.66672 2.82848 0
M  V30 3599 H 333.277 1.31665 2.21409 0
M  V30 3600 H 333.235 -0.143032 3.14074 0
M  V30 3601 N 337.007 -0.598083 1.45811 0
M  V30 3602 C 337.937 -1.71873 1.58057 0
M  V30 3603 C 338.918 -1.64533 0.431615 0
M  V30 3604 O 340.103 -1.82787 0.65595 0
M  V30 3605 C 337.233 -3.10495 1.55597 0
M  V30 3606 C 336.187 -3.32654 2.69305 0
M  V30 3607 C 335.513 -4.71646 2.51902 0
M  V30 3608 C 336.813 -3.21981 4.11248 0
M  V30 3609 H 338.507 -1.61881 2.51863 0
M  V30 3610 H 336.053 -0.777372 1.21214 0
M  V30 3611 H 338.006 -3.88699 1.6276 0
M  V30 3612 H 336.73 -3.2135 0.583255 0
M  V30 3613 H 335.389 -2.56843 2.61586 0
M  V30 3614 H 335.037 -4.79246 1.52748 0
M  V30 3615 H 334.737 -4.87426 3.2816 0
M  V30 3616 H 336.261 -5.52038 2.60933 0
M  V30 3617 H 337.675 -3.90049 4.20161 0
M  V30 3618 H 336.072 -3.49289 4.87972 0
M  V30 3619 H 337.142 -2.1928 4.32486 0
M  V30 3620 N 338.485 -1.33259 -0.841409 0
M  V30 3621 C 339.762 -1.15174 -1.58096 0
M  V30 3622 C 340.142 0.282858 -2.09196 0
M  V30 3623 O 339.49 1.28151 -1.89181 0
M  V30 3624 C 339.7 -2.1907 -2.71679 0
M  V30 3625 C 341.048 -2.53093 -3.40924 0
M  V30 3626 O 342.072 -2.17717 -2.81918 0
M  V30 3627 O 340.931 -3.1379 -4.47435 0
M  V30 3628 H 338.025 -0.445303 -0.696875 0
M  V30 3629 H 340.571 -1.44833 -0.884385 0
M  V30 3630 H 339.343 -3.15443 -2.31541 0
M  V30 3631 H 338.966 -1.90481 -3.49002 0
M  V30 3632 N 339.963 1.05934 -1.16686 0
M  V30 3633 C 340.926 2.11669 -0.879144 0
M  V30 3634 C 341.926 1.60294 0.127445 0
M  V30 3635 O 343.116 1.7389 -0.103865 0
M  V30 3636 C 340.248 3.39438 -0.315425 0
M  V30 3637 H 341.441 2.38626 -1.81653 0
M  V30 3638 H 338.994 1.22058 -0.976299 0
M  V30 3639 H 339.729 3.18132 0.629468 0
M  V30 3640 H 339.514 3.78034 -1.04079 0
M  V30 3641 H 341.004 4.17391 -0.132189 0
M  V30 3642 N 341.441 0.965919 1.2453 0
M  V30 3643 C 342.852 0.665929 1.7442 0
M  V30 3644 C 343.203 -0.818407 1.78316 0
M  V30 3645 O 342.328 -1.64037 1.41141 0
M  V30 3646 C 342.923 1.20211 3.16757 0
M  V30 3647 C 341.482 0.952059 3.6416 0
M  V30 3648 C 340.629 1.33848 2.42858 0
M  V30 3649 H 343.58 1.14144 1.10258 0
M  V30 3650 H 343.601 0.567544 3.76244 0
M  V30 3651 H 343.113 2.28244 3.13889 0
M  V30 3652 H 341.214 -0.112821 3.72429 0
M  V30 3653 H 341.327 1.59645 4.51719 0
M  V30 3654 H 339.691 0.756864 2.43195 0
M  V30 3655 H 340.474 2.42827 2.42673 0
M  V30 3656 N 342.919 -1.39368 0.735821 0
M  V30 3657 C 343.829 -2.34395 0.0979693 0
M  V30 3658 C 344.845 -1.58361 -0.720968 0
M  V30 3659 O 346.021 -1.90648 -0.649245 0
M  V30 3660 C 343.086 -3.37393 -0.797916 0
M  V30 3661 C 342.147 -4.29287 0.0333662 0
M  V30 3662 C 341.38 -5.27365 -0.819854 0
M  V30 3663 O 341.603 -5.31959 -2.05855 0
M  V30 3664 O 340.537 -6.01389 -0.248079 0
M  V30 3665 H 344.363 -2.90601 0.882315 0
M  V30 3666 H 341.948 -1.40909 0.4965 0
M  V30 3667 H 343.83 -4.00505 -1.31048 0
M  V30 3668 H 342.505 -2.83571 -1.56106 0
M  V30 3669 H 341.412 -3.69395 0.591475 0
M  V30 3670 H 342.745 -4.86317 0.758752 0
M  V30 3671 N 344.397 -0.483516 -1.5 0
M  V30 3672 C 345.645 0.067027 -2.01989 0
M  V30 3673 C 345.966 1.3909 -1.36671 0
M  V30 3674 O 345.236 1.88978 -0.516152 0
M  V30 3675 H 343.816 0.0277606 -0.746484 0
M  V30 3676 H 346.478 -0.636773 -1.84204 0
M  V30 3677 H 345.574 0.209484 -3.11396 0
M  V30 3678 N 345.875 1.56104 -0.216619 0
M  V30 3679 C 347.123 1.97781 0.415593 0
M  V30 3680 C 347.444 1.10536 1.60645 0
M  V30 3681 O 346.714 0.181303 1.95059 0
M  V30 3682 H 345.294 0.730415 0.156534 0
M  V30 3683 H 347.956 1.92445 -0.308366 0
M  V30 3684 H 347.052 3.03072 0.74525 0
M  V30 3685 N 347.353 -0.0568162 1.57498 0
M  V30 3686 C 348.6 -0.753104 1.87975 0
M  V30 3687 C 348.928 -1.76815 0.81035 0
M  V30 3688 O 348.183 -1.94756 -0.19199 0
M  V30 3689 C 348.482 -1.48359 3.25153 0
M  V30 3690 C 348.148 -0.60713 4.46794 0
M  V30 3691 C 346.81 -0.365642 4.79809 0
M  V30 3692 C 349.162 -0.000305978 5.212 0
M  V30 3693 C 346.49 0.491905 5.84634 0
M  V30 3694 C 348.842 0.844781 6.26934 0
M  V30 3695 C 347.506 1.096 6.58441 0
M  V30 3696 H 346.776 -0.27558 0.687849 0
M  V30 3697 H 349.423 -0.0135173 1.91495 0
M  V30 3698 H 347.728 -2.29577 3.17492 0
M  V30 3699 H 349.425 -2.02739 3.45974 0
M  V30 3700 H 346.015 -0.805487 4.20963 0
M  V30 3701 H 350.199 -0.173961 4.95995 0
M  V30 3702 H 345.455 0.695131 6.07436 0
M  V30 3703 H 349.629 1.32165 6.83744 0
M  V30 3704 H 347.256 1.76224 7.39492 0
M  V30 3705 N 348.832 -1.54138 -0.328536 0
M  V30 3706 C 350.109 -1.62749 -1.08499 0
M  V30 3707 C 350.489 -0.458198 -2.06067 0
M  V30 3708 O 349.837 0.548046 -2.2183 0
M  V30 3709 C 350.047 -2.99519 -1.79135 0
M  V30 3710 C 351.395 -3.55394 -2.32337 0
M  V30 3711 O 352.419 -3.01792 -1.89209 0
M  V30 3712 O 351.278 -4.49186 -3.11279 0
M  V30 3713 H 348.372 -0.65886 -0.499832 0
M  V30 3714 H 350.918 -1.66484 -0.328826 0
M  V30 3715 H 349.69 -3.76061 -1.08139 0
M  V30 3716 H 349.313 -2.99441 -2.61574 0
M  V30 3717 N 350.31 0.590341 -1.46126 0
M  V30 3718 C 351.273 1.68194 -1.55703 0
M  V30 3719 C 352.273 1.54808 -0.434868 0
M  V30 3720 O 353.463 1.59564 -0.698928 0
M  V30 3721 C 350.595 3.07575 -1.47005 0
M  V30 3722 H 351.788 1.61064 -2.52979 0
M  V30 3723 H 349.341 0.807541 -1.33823 0
M  V30 3724 H 350.076 3.20268 -0.509785 0
M  V30 3725 H 349.861 3.187 -2.28414 0
M  V30 3726 H 351.351 3.87055 -1.56776 0
M  V30 3727 N 351.788 1.33704 0.83433 0
M  V30 3728 C 353.037 1.24763 1.58484 0
M  V30 3729 C 353.35 -0.183775 1.94735 0
M  V30 3730 O 354.556 -0.395234 2.68608 0
M  V30 3731 C 353.012 2.18638 2.85876 0
M  V30 3732 C 352.62 3.66974 2.56971 0
M  V30 3733 C 354.364 2.18581 3.63899 0
M  V30 3734 C 352.271 4.5275 3.80488 0
M  V30 3735 H 351.201 0.463425 0.594772 0
M  V30 3736 H 353.852 1.58797 0.919551 0
M  V30 3737 H 352.234 1.77542 3.5397 0
M  V30 3738 H 353.408 4.16538 1.9706 0
M  V30 3739 H 351.723 3.69366 1.92244 0
M  V30 3740 H 354.32 2.79894 4.55591 0
M  V30 3741 H 354.663 1.18207 3.99165 0
M  V30 3742 H 355.196 2.58062 3.02735 0
M  V30 3743 H 351.935 5.54017 3.5035 0
M  V30 3744 H 351.455 4.07927 4.39722 0
M  V30 3745 H 353.134 4.66784 4.4802 0
M  V30 3746 N 353.266 -1.05314 1.17247 0
M  V30 3747 C 354.196 -2.1498 0.911362 0
M  V30 3748 C 355.177 -1.69471 -0.146169 0
M  V30 3749 O 356.362 -1.942 0.003812 0
M  V30 3750 C 353.492 -3.4472 0.422528 0
M  V30 3751 C 352.446 -4.03789 1.4191 0
M  V30 3752 C 351.772 -5.28858 0.788274 0
M  V30 3753 C 353.072 -4.41418 2.7919 0
M  V30 3754 H 354.766 -2.3708 1.82848 0
M  V30 3755 H 352.312 -1.13938 0.880569 0
M  V30 3756 H 354.265 -4.20787 0.227289 0
M  V30 3757 H 352.989 -3.22269 -0.530123 0
M  V30 3758 H 351.648 -3.2979 1.60106 0
M  V30 3759 H 351.296 -5.02709 -0.171173 0
M  V30 3760 H 350.996 -5.69338 1.45353 0
M  V30 3761 H 352.52 -6.07612 0.603282 0
M  V30 3762 H 353.934 -5.08524 2.64719 0
M  V30 3763 H 352.331 -4.92913 3.42282 0
M  V30 3764 H 353.401 -3.51819 3.33693 0
M  V30 3765 N 354.744 -0.972509 -1.24016 0
M  V30 3766 C 355.676 -0.464375 -2.24446 0
M  V30 3767 C 356.689 0.4295 -1.57032 0
M  V30 3768 O 357.878 0.234902 -1.76948 0
M  V30 3769 C 354.978 0.348385 -3.37105 0
M  V30 3770 C 354.151 -0.53673 -4.34094 0
M  V30 3771 C 353.21 0.220838 -5.25736 0
M  V30 3772 O 352.236 -0.386867 -5.67884 0
M  V30 3773 N 353.438 1.50907 -5.60542 0
M  V30 3774 H 356.203 -1.32788 -2.68677 0
M  V30 3775 H 353.764 -0.844877 -1.38107 0
M  V30 3776 H 355.756 0.863341 -3.95384 0
M  V30 3777 H 354.326 1.11285 -2.92121 0
M  V30 3778 H 353.546 -1.23261 -3.74433 0
M  V30 3779 H 354.834 -1.14022 -4.95859 0
M  V30 3780 H 354.232 2.02444 -5.28236 0
M  V30 3781 H 352.789 1.96962 -6.21329 0
M  V30 3782 N 356.222 1.38976 -0.743202 0
M  V30 3783 C 357.45 2.04636 -0.30525 0
M  V30 3784 C 357.865 1.56044 1.06281 0
M  V30 3785 O 357.222 0.728921 1.67311 0
M  V30 3786 C 357.273 3.60193 -0.307177 0
M  V30 3787 O 356.994 4.06998 -1.62124 0
M  V30 3788 C 358.495 4.4306 0.145928 0
M  V30 3789 H 355.715 0.65788 -0.132041 0
M  V30 3790 H 358.259 1.77866 -1.00915 0
M  V30 3791 H 356.414 3.85835 0.347898 0
M  V30 3792 H 356.828 5.01371 -1.54036 0
M  V30 3793 H 358.302 5.51921 0.0934183 0
M  V30 3794 H 358.779 4.22706 1.19231 0
M  V30 3795 H 359.385 4.22584 -0.479886 0
M  V30 3796 N 357.7 0.491464 1.49741 0
M  V30 3797 C 358.663 -0.280906 2.27472 0
M  V30 3798 C 359.663 -0.902454 1.33088 0
M  V30 3799 O 360.853 -0.768465 1.56334 0
M  V30 3800 C 357.985 -1.40209 3.10732 0
M  V30 3801 H 359.178 0.401056 2.97206 0
M  V30 3802 H 356.731 0.246131 1.5435 0
M  V30 3803 H 357.466 -2.11849 2.45541 0
M  V30 3804 H 357.251 -0.961969 3.80117 0
M  V30 3805 H 358.741 -1.9464 3.69466 0
M  V30 3806 N 359.178 -1.55987 0.224894 0
M  V30 3807 C 360.424 -1.98684 -0.406502 0
M  V30 3808 C 360.757 -1.11248 -1.59177 0
M  V30 3809 O 360.032 -0.170909 -1.93748 0
M  V30 3810 C 360.315 -3.50218 -0.837808 0
M  V30 3811 C 360.168 -4.48426 0.351332 0
M  V30 3812 C 361.487 -4.06243 -1.69278 0
M  V30 3813 H 358.606 -0.722337 -0.146283 0
M  V30 3814 H 361.248 -1.87255 0.321799 0
M  V30 3815 H 359.398 -3.60089 -1.45837 0
M  V30 3816 H 361.07 -4.50562 0.989526 0
M  V30 3817 H 359.313 -4.22159 0.998207 0
M  V30 3818 H 359.984 -5.52 0.00655905 0
M  V30 3819 H 362.46 -3.99337 -1.16914 0
M  V30 3820 H 361.336 -5.12581 -1.96346 0
M  V30 3821 H 361.597 -3.53332 -2.65723 0
M  V30 3822 N 360.656 0.0484629 -1.57525 0
M  V30 3823 C 361.896 0.748196 -1.90214 0
M  V30 3824 C 362.26 1.73545 -0.821347 0
M  V30 3825 O 363.461 2.48201 -1.03198 0
M  V30 3826 C 361.732 1.41727 -3.28098 0
M  V30 3827 S 363.291 2.14884 -3.82584 0
M  V30 3828 H 360.109 0.248307 -0.666232 0
M  V30 3829 H 362.711 0.00343188 -1.955 0
M  V30 3830 H 361.415 0.685244 -4.04639 0
M  V30 3831 H 360.946 2.20099 -3.26068 0
M  V30 3832 H 362.961 3.41755 -3.59747 0
M  V30 3833 N 362.134 1.5431 0.320358 0
M  V30 3834 C 363.362 1.76636 1.07738 0
M  V30 3835 C 363.777 0.51649 1.81598 0
M  V30 3836 O 363.134 -0.512942 1.75143 0
M  V30 3837 C 363.185 2.96158 2.07299 0
M  V30 3838 O 362.906 4.16313 1.36438 0
M  V30 3839 C 364.407 3.3072 2.95193 0
M  V30 3840 H 361.627 0.589597 0.320339 0
M  V30 3841 H 364.171 2.01207 0.36551 0
M  V30 3842 H 362.326 2.73851 2.74016 0
M  V30 3843 H 362.74 4.83565 2.03138 0
M  V30 3844 H 364.214 4.17643 3.60941 0
M  V30 3845 H 364.691 2.48026 3.62463 0
M  V30 3846 H 365.297 3.55117 2.34034 0
M  V30 3847 N 363.613 -0.582584 1.46437 0
M  V30 3848 C 365.029 -0.905962 1.31394 0
M  V30 3849 C 365.229 -1.99468 0.285476 0
M  V30 3850 O 364.285 -2.50566 -0.311914 0
M  V30 3851 C 365.598 -1.3232 2.70022 0
M  V30 3852 C 367.146 -1.43604 2.78113 0
M  V30 3853 C 367.621 -1.88694 4.17323 0
M  V30 3854 N 369.112 -1.95887 4.19741 0
M  V30 3855 C 369.847 -2.32051 5.24347 0
M  V30 3856 N 369.343 -2.67006 6.39281 0
M  V30 3857 N 371.136 -2.32606 5.11713 0
M  V30 3858 H 363.287 0.1366 2.1196 0
M  V30 3859 H 365.55 -0.00155736 0.947999 0
M  V30 3860 H 365.256 -0.597242 3.46592 0
M  V30 3861 H 365.13 -2.28469 3.00136 0
M  V30 3862 H 367.517 -2.15286 2.01832 0
M  V30 3863 H 367.598 -0.457059 2.51684 0
M  V30 3864 H 367.242 -1.1759 4.941 0
M  V30 3865 H 367.172 -2.8755 4.4116 0
M  V30 3866 H 369.663 -1.71362 3.36814 0
M  V30 3867 H 369.976 -2.93554 7.14875 0
M  V30 3868 H 368.321 -2.64644 6.42642 0
M  V30 3869 H 371.512 -2.04721 4.2096 0
M  V30 3870 H 371.685 -2.60462 5.93349 0
M  V30 3871 N 365.091 -1.34144 -0.827227 0
M  V30 3872 C 366.368 -1.16844 -1.56865 0
M  V30 3873 C 366.748 0.260654 -2.09485 0
M  V30 3874 O 366.096 1.26138 -1.9053 0
M  V30 3875 C 366.306 -2.21939 -2.6934 0
M  V30 3876 C 367.654 -2.56695 -3.3822 0
M  V30 3877 O 368.678 -2.20695 -2.79593 0
M  V30 3878 O 367.537 -3.18518 -4.44082 0
M  V30 3879 H 364.631 -0.452669 -0.692112 0
M  V30 3880 H 367.177 -1.45763 -0.868973 0
M  V30 3881 H 365.949 -3.17882 -2.28182 0
M  V30 3882 H 365.572 -1.94172 -3.46962 0
M  V30 3883 N 366.569 1.04691 -1.17803 0
M  V30 3884 C 367.818 1.77176 -0.963931 0
M  V30 3885 C 368.131 1.88888 0.508015 0
M  V30 3886 O 369.337 2.58164 0.840465 0
M  V30 3887 C 367.793 3.18518 -1.67555 0
M  V30 3888 C 367.401 3.14919 -3.18637 0
M  V30 3889 C 369.145 3.95424 -1.54402 0
M  V30 3890 C 367.052 4.51081 -3.82466 0
M  V30 3891 H 365.982 0.664116 -0.357023 0
M  V30 3892 H 368.633 1.17303 -1.4111 0
M  V30 3893 H 367.015 3.78748 -1.15613 0
M  V30 3894 H 368.189 2.64178 -3.77554 0
M  V30 3895 H 366.504 2.51512 -3.31859 0
M  V30 3896 H 369.101 4.96106 -1.99456 0
M  V30 3897 H 369.444 4.13343 -0.495329 0
M  V30 3898 H 369.977 3.41754 -2.0359 0
M  V30 3899 H 366.716 4.38368 -4.87354 0
M  V30 3900 H 366.236 5.01951 -3.28337 0
M  V30 3901 H 367.915 5.2001 -3.84965 0
M  V30 3902 N 368.047 0.979072 1.23499 0
M  V30 3903 C 369.295 0.645941 1.91499 0
M  V30 3904 C 369.616 -0.822948 1.76784 0
M  V30 3905 O 368.886 -1.58854 1.14639 0
M  V30 3906 H 367.466 0.235919 0.708767 0
M  V30 3907 H 370.128 1.2426 1.50152 0
M  V30 3908 H 369.224 0.896411 2.9895 0
M  V30 3909 N 369.525 -1.3858 0.750561 0
M  V30 3910 C 370.771 -2.0095 0.31477 0
M  V30 3911 C 371.126 -1.58509 -1.09053 0
M  V30 3912 O 370.419 -0.8112 -1.7358 0
M  V30 3913 C 370.613 -3.55455 0.372373 0
M  V30 3914 C 370.442 -4.12898 1.78173 0
M  V30 3915 C 369.212 -4.44797 2.39757 0
M  V30 3916 C 371.41 -4.35366 2.7379 0
M  V30 3917 N 369.392 -4.87831 3.72685 0
M  V30 3918 C 370.763 -4.80775 3.91478 0
M  V30 3919 C 372.818 -4.1746 2.71351 0
M  V30 3920 C 371.521 -5.10155 5.07084 0
M  V30 3921 C 373.547 -4.47963 3.86113 0
M  V30 3922 C 372.909 -4.93593 5.02539 0
M  V30 3923 H 369.008 -0.765083 0.161776 0
M  V30 3924 H 371.592 -1.68246 0.979867 0
M  V30 3925 H 369.763 -3.87512 -0.26244 0
M  V30 3926 H 371.495 -4.04614 -0.0834479 0
M  V30 3927 H 368.25 -4.33135 1.91548 0
M  V30 3928 H 368.674 -5.13685 4.40972 0
M  V30 3929 H 373.316 -3.81372 1.82524 0
M  V30 3930 H 371.034 -5.45141 5.96529 0
M  V30 3931 H 374.62 -4.35717 3.85542 0
M  V30 3932 H 373.5 -5.16746 5.89867 0
M  V30 3933 N 371.003 -0.499398 -1.49478 0
M  V30 3934 C 372.419 -0.155261 -1.58843 0
M  V30 3935 C 372.619 1.34008 -1.50479 0
M  V30 3936 O 371.675 2.11589 -1.37791 0
M  V30 3937 C 372.988 -0.730636 -2.91689 0
M  V30 3938 C 374.536 -0.696599 -3.0515 0
M  V30 3939 C 375.011 -1.25001 -4.40612 0
M  V30 3940 N 376.502 -1.21064 -4.47099 0
M  V30 3941 C 377.237 -1.60905 -5.50361 0
M  V30 3942 N 376.733 -2.08331 -6.60735 0
M  V30 3943 N 378.526 -1.52331 -5.41065 0
M  V30 3944 H 370.677 -1.47162 -1.53158 0
M  V30 3945 H 372.94 -0.610309 -0.725415 0
M  V30 3946 H 372.646 -1.77928 -3.03372 0
M  V30 3947 H 372.52 -0.190161 -3.7672 0
M  V30 3948 H 374.907 0.343204 -2.93097 0
M  V30 3949 H 374.988 -1.2742 -2.21806 0
M  V30 3950 H 374.632 -2.28859 -4.53416 0
M  V30 3951 H 374.562 -0.64836 -5.22593 0
M  V30 3952 H 377.053 -0.863128 -3.67911 0
M  V30 3953 H 377.366 -2.36805 -7.35624 0
M  V30 3954 H 375.711 -2.12304 -6.6178 0
M  V30 3955 H 378.902 -1.151 -4.53729 0
M  V30 3956 H 379.075 -1.83704 -6.21415 0
M  V30 3957 N 372.481 1.55866 -0.233164 0
M  V30 3958 C 373.892 1.847 0.272554 0
M  V30 3959 C 374.243 1.15477 1.58617 0
M  V30 3960 O 373.368 0.42841 2.12117 0
M  V30 3961 C 373.963 3.35071 0.501299 0
M  V30 3962 C 372.522 3.6418 0.951304 0
M  V30 3963 C 371.669 2.77292 0.0208209 0
M  V30 3964 H 374.62 1.52005 -0.456074 0
M  V30 3965 H 374.641 3.55906 1.34577 0
M  V30 3966 H 374.153 3.85424 -0.454936 0
M  V30 3967 H 372.254 3.19293 1.92049 0
M  V30 3968 H 372.367 4.72071 0.817675 0
M  V30 3969 H 370.731 2.49131 0.529723 0
M  V30 3970 H 371.514 3.30448 -0.93054 0
M  V30 3971 N 373.959 -0.0401083 1.57549 0
M  V30 3972 C 375.236 -0.767917 1.79896 0
M  V30 3973 C 375.616 -1.9416 0.82856 0
M  V30 3974 O 374.964 -2.2812 -0.131671 0
M  V30 3975 C 375.174 -1.2113 3.27305 0
M  V30 3976 C 376.522 -1.63175 3.91994 0
M  V30 3977 O 377.546 -1.30616 3.31388 0
M  V30 3978 O 376.405 -2.23565 4.98679 0
M  V30 3979 H 373.499 -0.370441 0.739393 0
M  V30 3980 H 376.045 -0.017737 1.69691 0
M  V30 3981 H 374.817 -0.372937 3.89519 0
M  V30 3982 H 374.44 -2.02183 3.42356 0
M  V30 3983 N 375.437 -1.54477 -0.31217 0
M  V30 3984 C 376.662 -1.77526 -1.07235 0
M  V30 3985 C 377.087 -0.527775 -1.80544 0
M  V30 3986 O 376.445 0.52121 -1.73646 0
M  V30 3987 C 376.493 -2.97535 -2.03728 0
M  V30 3988 O 375.597 -2.69878 -3.11833 0
M  V30 3989 H 374.938 -0.58792 -0.30862 0
M  V30 3990 H 377.468 -2.01532 -0.352993 0
M  V30 3991 H 377.478 -3.25198 -2.46395 0
M  V30 3992 H 376.153 -3.87996 -1.49774 0
M  V30 3993 H 374.73 -2.53199 -2.7376 0
M  V30 3994 N 376.915 0.57481 -1.46744 0
M  V30 3995 C 378.143 1.35856 -1.56047 0
M  V30 3996 C 378.558 1.87691 -0.204365 0
M  V30 3997 O 377.915 1.64049 0.79963 0
M  V30 3998 C 377.966 2.54066 -2.57163 0
M  V30 3999 O 377.687 2.04377 -3.87507 0
M  V30 4000 C 379.188 3.46514 -2.76483 0
M  V30 4001 H 376.408 0.414754 -0.527466 0
M  V30 4002 H 378.952 0.698035 -1.92218 0
M  V30 4003 H 377.107 3.16092 -2.23974 0
M  V30 4004 H 377.521 2.81419 -4.4261 0
M  V30 4005 H 378.995 4.25919 -3.51137 0
M  V30 4006 H 379.472 3.98951 -1.83671 0
M  V30 4007 H 380.078 2.90318 -3.10799 0
M  V30 4008 N 378.394 1.34581 0.820102 0
M  V30 4009 C 379.344 1.22943 1.92013 0
M  V30 4010 C 380.328 0.127802 1.60392 0
M  V30 4011 O 381.52 0.357737 1.73347 0
M  V30 4012 C 378.649 0.989938 3.28717 0
M  V30 4013 C 377.735 2.13486 3.66449 0
M  V30 4014 N 378.126 3.38625 3.75722 0
M  V30 4015 C 376.424 2.04573 3.96315 0
M  V30 4016 C 377.125 4.13832 4.08801 0
M  V30 4017 N 376.101 3.42451 4.22171 0
M  V30 4018 H 379.903 2.17771 1.97365 0
M  V30 4019 H 377.417 1.2686 1.01392 0
M  V30 4020 H 379.414 0.887462 4.07345 0
M  V30 4021 H 378.074 0.0503691 3.24661 0
M  V30 4022 H 379.085 3.73143 3.59144 0
M  V30 4023 H 375.762 1.1839 4.00362 0
M  V30 4024 H 377.152 5.21909 4.23156 0
M  V30 4025 N 379.872 -1.04064 1.18357 0
M  V30 4026 C 380.802 -2.14001 0.934113 0
M  V30 4027 C 381.783 -1.69616 -0.128186 0
M  V30 4028 O 382.968 -1.94185 0.0244093 0
M  V30 4029 C 380.098 -3.44253 0.459066 0
M  V30 4030 C 379.052 -4.02261 1.46185 0
M  V30 4031 C 378.378 -5.27992 0.844322 0
M  V30 4032 C 379.678 -4.38432 2.83856 0
M  V30 4033 H 381.372 -2.35127 1.85352 0
M  V30 4034 H 378.918 -1.12998 0.892604 0
M  V30 4035 H 380.871 -4.20522 0.271907 0
M  V30 4036 H 379.595 -3.22813 -0.495912 0
M  V30 4037 H 378.254 -3.28074 1.63595 0
M  V30 4038 H 377.902 -5.02862 -0.117845 0
M  V30 4039 H 377.602 -5.67765 1.51384 0
M  V30 4040 H 379.126 -6.06938 0.667693 0
M  V30 4041 H 380.54 -5.05688 2.70098 0
M  V30 4042 H 378.937 -4.89254 3.47491 0
M  V30 4043 H 380.007 -3.4826 3.37406 0
M  V30 4044 N 381.35 -0.985608 -1.22978 0
M  V30 4045 C 382.28 -0.549649 -2.26939 0
M  V30 4046 C 383.261 0.419803 -1.64838 0
M  V30 4047 O 384.446 0.31203 -1.91677 0
M  V30 4048 C 381.576 0.143652 -3.47003 0
M  V30 4049 C 380.53 -0.743606 -4.21491 0
M  V30 4050 C 379.856 0.0822027 -5.34637 0
M  V30 4051 C 381.156 -2.03694 -4.80943 0
M  V30 4052 H 382.85 -1.41862 -2.63658 0
M  V30 4053 H 380.396 -0.683571 -1.26741 0
M  V30 4054 H 382.349 0.459985 -4.18882 0
M  V30 4055 H 381.073 1.04711 -3.09359 0
M  V30 4056 H 379.732 -1.04347 -3.51436 0
M  V30 4057 H 379.38 0.986359 -4.93234 0
M  V30 4058 H 379.08 -0.508377 -5.85397 0
M  V30 4059 H 380.604 0.392797 -6.09335 0
M  V30 4060 H 382.018 -1.78504 -5.44802 0
M  V30 4061 H 380.415 -2.57573 -5.42011 0
M  V30 4062 H 381.485 -2.72042 -4.01399 0
M  V30 4063 N 382.828 1.3818 -0.7579 0
M  V30 4064 C 384.074 2.00316 -0.316453 0
M  V30 4065 C 384.407 1.60026 1.10025 0
M  V30 4066 O 383.682 0.839835 1.75434 0
M  V30 4067 C 383.965 3.57349 -0.444245 0
M  V30 4068 C 383.818 4.07591 -1.90236 0
M  V30 4069 C 385.137 4.3981 0.1598 0
M  V30 4070 H 382.256 0.727741 -0.116459 0
M  V30 4071 H 384.898 1.6406 -0.958352 0
M  V30 4072 H 383.048 3.88365 0.102233 0
M  V30 4073 H 384.72 3.87199 -2.50748 0
M  V30 4074 H 382.963 3.60297 -2.41595 0
M  V30 4075 H 383.634 5.16677 -1.94291 0
M  V30 4076 H 386.11 4.14971 -0.306314 0
M  V30 4077 H 384.986 5.48885 0.0401675 0
M  V30 4078 H 385.247 4.24102 1.24859 0
M  V30 4079 N 384.306 0.507319 1.49211 0
M  V30 4080 C 385.553 -0.0349529 2.0247 0
M  V30 4081 C 385.881 -1.36409 1.38647 0
M  V30 4082 O 385.136 -1.88841 0.513566 0
M  V30 4083 C 385.435 -0.229513 3.56662 0
M  V30 4084 C 385.101 1.02241 4.39156 0
M  V30 4085 C 383.763 1.36557 4.61417 0
M  V30 4086 C 386.115 1.85428 4.871 0
M  V30 4087 C 383.443 2.53999 5.28868 0
M  V30 4088 C 385.795 3.02028 5.55843 0
M  V30 4089 C 384.459 3.36717 5.76349 0
M  V30 4090 H 383.729 -0.0127902 0.74089 0
M  V30 4091 H 386.376 0.668756 1.79443 0
M  V30 4092 H 384.681 -1.0158 3.78403 0
M  V30 4093 H 386.378 -0.663641 3.9547 0
M  V30 4094 H 382.968 0.745124 4.22073 0
M  V30 4095 H 387.152 1.6023 4.69723 0
M  V30 4096 H 382.408 2.81105 5.42946 0
M  V30 4097 H 386.582 3.66808 5.91967 0
M  V30 4098 H 384.209 4.27821 6.28389 0
M  V30 4099 N 385.784 -1.5574 0.241426 0
M  V30 4100 C 387.009 -2.0366 -0.392111 0
M  V30 4101 C 387.434 -1.11969 -1.51144 0
M  V30 4102 O 386.792 -0.111594 -1.80956 0
M  V30 4103 C 386.84 -3.49638 -0.882371 0
M  V30 4104 O 385.944 -3.6108 -1.99235 0
M  V30 4105 H 385.285 -0.658379 -0.0862122 0
M  V30 4106 H 387.815 -2.01302 0.365881 0
M  V30 4107 H 387.825 -3.90351 -1.18702 0
M  V30 4108 H 386.5 -4.15852 -0.0632361 0
M  V30 4109 H 385.077 -3.32262 -1.69282 0
M  V30 4110 N 387.262 0.0317525 -1.57568 0
M  V30 4111 C 388.49 0.734949 -1.93407 0
M  V30 4112 C 388.905 1.69036 -0.84096 0
M  V30 4113 O 388.262 1.81582 0.182836 0
M  V30 4114 C 388.313 1.49432 -3.29169 0
M  V30 4115 O 388.034 0.577261 -4.3428 0
M  V30 4116 C 389.535 2.29492 -3.79273 0
M  V30 4117 H 386.755 0.206706 -0.638368 0
M  V30 4118 H 389.299 -0.00992046 -2.04498 0
M  V30 4119 H 387.454 2.1911 -3.19483 0
M  V30 4120 H 387.868 1.10952 -5.1263 0
M  V30 4121 H 389.342 2.78172 -4.76785 0
M  V30 4122 H 389.819 3.10794 -3.10328 0
M  V30 4123 H 390.425 1.64894 -3.92033 0
M  V30 4124 N 388.74 1.54641 0.303973 0
M  V30 4125 C 389.65 1.88439 1.39743 0
M  V30 4126 C 390.666 0.778239 1.55626 0
M  V30 4127 O 391.842 1.07442 1.70347 0
M  V30 4128 C 388.907 2.12212 2.74166 0
M  V30 4129 C 387.968 3.35936 2.67293 0
M  V30 4130 C 387.201 3.58566 3.95305 0
M  V30 4131 O 387.424 2.84263 4.9452 0
M  V30 4132 O 386.358 4.52078 3.97378 0
M  V30 4133 H 390.184 2.81458 1.14083 0
M  V30 4134 H 387.769 1.40793 0.499768 0
M  V30 4135 H 389.651 2.29067 3.53704 0
M  V30 4136 H 388.326 1.22379 2.99675 0
M  V30 4137 H 387.233 3.24448 1.86237 0
M  V30 4138 H 388.566 4.2589 2.46736 0
M  V30 4139 N 390.218 -0.567019 1.47046 0
M  V30 4140 C 391.443 -1.3551 1.57009 0
M  V30 4141 C 391.868 -1.86841 0.217259 0
M  V30 4142 O 391.226 -1.62435 -0.805268 0
M  V30 4143 C 391.274 -2.50777 2.5912 0
M  V30 4144 O 390.378 -3.52706 2.13711 0
M  V30 4145 H 389.719 -0.402919 0.52778 0
M  V30 4146 H 392.249 -0.686241 1.92748 0
M  V30 4147 H 392.259 -2.97481 2.79229 0
M  V30 4148 H 390.934 -2.12771 3.57353 0
M  V30 4149 H 389.511 -3.12374 2.03659 0
M  V30 4150 N 391.696 -1.35014 -0.812953 0
M  V30 4151 C 392.659 -1.27292 -1.90602 0
M  V30 4152 C 393.659 -0.185817 -1.59723 0
M  V30 4153 O 394.849 -0.439102 -1.68575 0
M  V30 4154 C 391.981 -0.967676 -3.26877 0
M  V30 4155 H 393.174 -2.24479 -1.9887 0
M  V30 4156 H 390.727 -1.19446 -1.00808 0
M  V30 4157 H 391.462 0.0005954 -3.243 0
M  V30 4158 H 391.247 -1.75412 -3.50675 0
M  V30 4159 H 392.737 -0.939085 -4.06904 0
M  V30 4160 N 393.175 1.03435 -1.18907 0
M  V30 4161 C 394.422 1.76743 -0.988334 0
M  V30 4162 C 394.75 1.88447 0.481441 0
M  V30 4163 O 394.005 1.39383 1.37371 0
M  V30 4164 C 394.304 3.19792 -1.59586 0
M  V30 4165 C 393.97 3.28108 -3.09283 0
M  V30 4166 C 392.632 3.30084 -3.5014 0
M  V30 4167 C 394.984 3.27696 -4.05296 0
M  V30 4168 C 392.312 3.29299 -4.85571 0
M  V30 4169 C 394.664 3.28451 -5.4065 0
M  V30 4170 C 393.328 3.28723 -5.80946 0
M  V30 4171 H 392.598 0.64675 -0.361657 0
M  V30 4172 H 395.245 1.21442 -1.48068 0
M  V30 4173 H 393.55 3.78136 -1.02568 0
M  V30 4174 H 395.247 3.75171 -1.41589 0
M  V30 4175 H 391.837 3.27294 -2.76725 0
M  V30 4176 H 396.021 3.25354 -3.74778 0
M  V30 4177 H 391.277 3.2783 -5.16079 0
M  V30 4178 H 395.451 3.27082 -6.14809 0
M  V30 4179 H 393.078 3.27868 -6.85862 0
M  V30 4180 N 394.653 0.992116 1.22453 0
M  V30 4181 C 395.603 0.512969 2.22155 0
M  V30 4182 C 396.587 -0.418416 1.55364 0
M  V30 4183 O 397.779 -0.245363 1.75291 0
M  V30 4184 C 394.908 -0.171822 3.4287 0
M  V30 4185 C 393.994 0.779822 4.16869 0
M  V30 4186 N 394.385 1.92734 4.6764 0
M  V30 4187 C 392.683 0.59554 4.42006 0
M  V30 4188 C 393.384 2.52458 5.24061 0
M  V30 4189 N 392.36 1.80735 5.12675 0
M  V30 4190 H 396.162 1.38817 2.5905 0
M  V30 4191 H 393.676 0.854277 1.38115 0
M  V30 4192 H 395.673 -0.532469 4.13486 0
M  V30 4193 H 394.333 -1.04317 3.07487 0
M  V30 4194 H 395.344 2.30816 4.63621 0
M  V30 4195 H 392.021 -0.229805 4.16867 0
M  V30 4196 H 393.411 3.49433 5.73887 0
M  V30 4197 N 396.131 -1.37776 0.765217 0
M  V30 4198 C 397.361 -2.03828 0.337277 0
M  V30 4199 C 397.769 -1.57841 -1.04321 0
M  V30 4200 O 397.112 -0.752043 -1.67601 0
M  V30 4201 C 397.174 -3.58292 0.294407 0
M  V30 4202 C 396.838 -4.27384 1.61838 0
M  V30 4203 C 397.835 -4.51956 2.56967 0
M  V30 4204 C 395.52 -4.65345 1.89102 0
M  V30 4205 C 397.514 -5.13536 3.77571 0
M  V30 4206 C 395.201 -5.26647 3.09978 0
M  V30 4207 C 396.199 -5.50679 4.04032 0
M  V30 4208 O 395.887 -6.10702 5.2278 0
M  V30 4209 H 395.619 -0.661292 0.140248 0
M  V30 4210 H 398.173 -1.77222 1.03834 0
M  V30 4211 H 396.403 -3.83918 -0.462983 0
M  V30 4212 H 398.092 -4.05763 -0.105581 0
M  V30 4213 H 398.858 -4.23048 2.37183 0
M  V30 4214 H 394.737 -4.45978 1.16725 0
M  V30 4215 H 398.281 -5.3221 4.50997 0
M  V30 4216 H 394.178 -5.54979 3.29649 0
M  V30 4217 H 394.946 -6.29183 5.23517 0
M  V30 4218 N 397.609 -0.515225 -1.4894 0
M  V30 4219 C 398.519 0.259774 -2.33157 0
M  V30 4220 C 399.535 0.953501 -1.45548 0
M  V30 4221 O 400.711 0.931735 -1.78552 0
M  V30 4222 C 397.776 1.30193 -3.21326 0
M  V30 4223 C 396.837 0.620129 -4.24797 0
M  V30 4224 C 396.07 1.61263 -5.08753 0
M  V30 4225 O 396.293 2.84389 -4.94448 0
M  V30 4226 O 395.227 1.16013 -5.90614 0
M  V30 4227 H 399.053 -0.429932 -3.00641 0
M  V30 4228 H 396.638 -0.276346 -1.46822 0
M  V30 4229 H 398.52 1.90455 -3.75905 0
M  V30 4230 H 397.195 1.97431 -2.56521 0
M  V30 4231 H 396.102 -0.0226019 -3.74093 0
M  V30 4232 H 397.435 -0.0100493 -4.92199 0
M  V30 4233 N 399.087 1.5561 -0.249682 0
M  V30 4234 C 400.05 2.20217 0.635394 0
M  V30 4235 C 401.05 1.17227 1.10066 0
M  V30 4236 O 402.24 1.42292 1.00492 0
M  V30 4237 C 399.372 2.84794 1.87363 0
M  V30 4238 H 400.565 2.99814 0.0716752 0
M  V30 4239 H 398.118 1.563 -0.000153234 0
M  V30 4240 H 398.853 2.09142 2.47851 0
M  V30 4241 H 398.638 3.60241 1.5482 0
M  V30 4242 H 400.128 3.3423 2.5036 0
M  V30 4243 N 400.565 -0.0233959 1.57583 0
M  V30 4244 C 401.842 -0.748794 1.807 0
M  V30 4245 C 402.222 -1.9327 0.849106 0
M  V30 4246 O 401.57 -2.28247 -0.107468 0
M  V30 4247 C 401.78 -1.17651 3.28571 0
M  V30 4248 C 403.128 -1.59008 3.93702 0
M  V30 4249 O 404.152 -1.27094 3.32755 0
M  V30 4250 O 403.011 -2.18264 5.01022 0
M  V30 4251 H 400.105 -0.362578 0.743281 0
M  V30 4252 H 402.651 0.000261958 1.697 0
M  V30 4253 H 401.423 -0.331603 3.89892 0
M  V30 4254 H 401.046 -1.98541 3.44481 0
M  V30 4255 N 402.043 -1.548 -0.295768 0
M  V30 4256 C 403.291 -1.73985 -1.02828 0
M  V30 4257 C 403.612 -0.531406 -1.87619 0
M  V30 4258 O 402.882 0.454221 -1.90561 0
M  V30 4259 H 401.462 -0.641556 -0.382642 0
M  V30 4260 H 404.124 -1.92163 -0.325489 0
M  V30 4261 H 403.22 -2.63129 -1.67838 0
M  V30 4262 N 403.521 0.559213 -1.47345 0
M  V30 4263 C 404.484 1.64854 -1.59235 0
M  V30 4264 C 405.484 1.53851 -0.467607 0
M  V30 4265 O 406.674 1.58045 -0.732617 0
M  V30 4266 C 403.806 3.04388 -1.53496 0
M  V30 4267 H 404.999 1.55662 -2.56339 0
M  V30 4268 H 402.552 0.778973 -1.35505 0
M  V30 4269 H 403.287 3.19115 -0.577604 0
M  V30 4270 H 403.072 3.13783 -2.35123 0
M  V30 4271 H 404.562 3.83642 -1.6495 0
M  V30 4272 N 404.999 1.35443 0.805782 0
M  V30 4273 C 405.947 1.28465 1.93906 0
M  V30 4274 C 406.941 0.17943 1.68447 0
M  V30 4275 O 408.147 0.345459 1.76654 0
M  V30 4276 H 404.522 0.399528 0.637088 0
M  V30 4277 H 406.493 2.24206 1.96912 0
M  V30 4278 C 405.242 1.07432 3.30687 0
M  V30 4279 H 404.565 1.91716 3.50835 0
M  V30 4280 H 406.005 1.06591 4.10383 0
M  V30 4281 C 404.464 -0.22179 3.36169 0
M  V30 4282 O 404.994 -1.21731 3.82811 0
M  V30 4283 N 403.2 -0.260841 2.89427 0
M  V30 4284 H 402.747 0.549884 2.51663 0
M  V30 4285 H 402.705 -1.12777 2.93477 0
M  V30 4286 N 406.477 -1.02803 1.19454 0
M  V30 4287 C 407.723 -1.76478 0.999171 0
M  V30 4288 C 408.056 -1.88456 -0.468828 0
M  V30 4289 O 407.331 -1.40198 -1.34814 0
M  V30 4290 C 407.614 -3.19044 1.66981 0
M  V30 4291 C 407.467 -3.14932 3.21151 0
M  V30 4292 C 408.786 -4.17456 1.39349 0
M  V30 4293 H 405.905 -0.640614 0.364393 0
M  V30 4294 H 408.547 -1.20005 1.47305 0
M  V30 4295 H 406.697 -3.67263 1.2669 0
M  V30 4296 H 408.369 -2.74605 3.70661 0
M  V30 4297 H 406.612 -2.52625 3.52652 0
M  V30 4298 H 407.283 -4.1566 3.63223 0
M  V30 4299 H 409.759 -3.77842 1.74283 0
M  V30 4300 H 408.635 -5.154 1.88823 0
M  V30 4301 H 408.896 -4.40949 0.318813 0
M  V30 4302 N 407.956 -0.998596 -1.21925 0
M  V30 4303 C 408.886 -0.573688 -2.26343 0
M  V30 4304 C 409.867 0.402296 -1.65274 0
M  V30 4305 O 411.052 0.291683 -1.91997 0
M  V30 4306 C 408.182 0.106839 -3.47136 0
M  V30 4307 C 407.136 -0.788269 -4.20678 0
M  V30 4308 C 406.462 0.0254927 -5.34694 0
M  V30 4309 C 407.762 -2.08784 -4.78755 0
M  V30 4310 H 409.456 -1.44651 -2.62138 0
M  V30 4311 H 407.002 -0.696975 -1.26009 0
M  V30 4312 H 408.955 0.415531 -4.19346 0
M  V30 4313 H 407.679 1.01424 -3.10452 0
M  V30 4314 H 406.338 -1.08069 -3.50309 0
M  V30 4315 H 405.986 0.933989 -4.94253 0
M  V30 4316 H 405.686 -0.570437 -5.84825 0
M  V30 4317 H 407.21 0.328147 -6.09718 0
M  V30 4318 H 408.624 -1.84272 -5.42878 0
M  V30 4319 H 407.021 -2.63307 -5.39249 0
M  V30 4320 H 408.091 -2.76284 -3.98491 0
M  V30 4321 N 409.434 1.37368 -0.772513 0
M  V30 4322 C 410.397 2.28601 -0.165541 0
M  V30 4323 C 411.397 1.48062 0.627238 0
M  V30 4324 O 412.587 1.68268 0.450715 0
M  V30 4325 C 409.719 3.32023 0.772897 0
M  V30 4326 H 410.912 2.83787 -0.969787 0
M  V30 4327 H 408.465 1.46647 -0.540775 0
M  V30 4328 H 409.2 2.81962 1.60212 0
M  V30 4329 H 408.985 3.91555 0.206585 0
M  V30 4330 H 410.475 4.00197 1.19298 0
M  V30 4331 N 410.912 0.523116 1.48665 0
M  V30 4332 C 412.16 -0.0134497 2.02096 0
M  V30 4333 C 412.481 -1.35418 1.40311 0
M  V30 4334 O 411.751 -1.87543 0.566074 0
M  V30 4335 H 410.331 -0.00795915 0.746958 0
M  V30 4336 H 412.993 0.685388 1.82451 0
M  V30 4337 H 412.089 -0.126849 3.11842 0
M  V30 4338 N 412.39 -1.55475 0.257931 0
M  V30 4339 C 413.639 -1.98383 -0.364275 0
M  V30 4340 C 413.952 -1.14952 -1.58258 0
M  V30 4341 O 415.158 -1.47924 -2.27664 0
M  V30 4342 C 413.614 -3.53037 -0.699479 0
M  V30 4343 C 413.222 -4.45223 0.498046 0
M  V30 4344 C 414.966 -4.04575 -1.28526 0
M  V30 4345 C 412.873 -5.91238 0.138383 0
M  V30 4346 H 411.803 -0.740911 -0.13988 0
M  V30 4347 H 414.454 -1.79936 0.359883 0
M  V30 4348 H 412.836 -3.6722 -1.48207 0
M  V30 4349 H 414.01 -4.42803 1.27522 0
M  V30 4350 H 412.325 -4.04226 0.999503 0
M  V30 4351 H 414.922 -5.11196 -1.56788 0
M  V30 4352 H 415.265 -3.5258 -2.21344 0
M  V30 4353 H 415.798 -3.93762 -0.565337 0
M  V30 4354 H 412.537 -6.47294 1.03398 0
M  V30 4355 H 412.057 -5.96768 -0.602374 0
M  V30 4356 H 413.736 -6.46413 -0.27553 0
M  V30 4357 N 413.868 0.0150385 -1.57593 0
M  V30 4358 C 414.801 1.04475 -2.0288 0
M  V30 4359 C 415.779 1.3436 -0.915764 0
M  V30 4360 O 416.963 1.46779 -1.18271 0
M  V30 4361 C 414.09 2.37608 -2.41371 0
M  V30 4362 C 413.136 2.23487 -3.63257 0
M  V30 4363 S 413.969 1.57505 -5.11813 0
M  V30 4364 C 415.125 2.921 -5.5356 0
M  V30 4365 H 415.358 0.65907 -2.89903 0
M  V30 4366 H 412.891 0.225452 -1.52745 0
M  V30 4367 H 414.849 3.14165 -2.64217 0
M  V30 4368 H 413.51 2.7332 -1.54775 0
M  V30 4369 H 412.703 3.21802 -3.87891 0
M  V30 4370 H 412.305 1.55074 -3.40335 0
M  V30 4371 H 414.597 3.88419 -5.55101 0
M  V30 4372 H 415.54 2.72184 -6.53698 0
M  V30 4373 H 415.948 2.95318 -4.8109 0
M  V30 4374 N 415.346 1.54954 0.287554 0
M  V30 4375 C 416.571 1.79209 1.04397 0
M  V30 4376 C 416.996 0.556431 1.79682 0
M  V30 4377 O 416.354 -0.493518 1.74454 0
M  V30 4378 C 416.402 3.00739 1.98969 0
M  V30 4379 O 415.506 2.74805 3.075 0
M  V30 4380 H 414.847 0.592755 0.299227 0
M  V30 4381 H 417.377 2.02068 0.320886 0
M  V30 4382 H 417.387 3.29077 2.4119 0
M  V30 4383 H 416.062 3.90329 1.43582 0
M  V30 4384 H 414.639 2.57523 2.69697 0
M  V30 4385 N 416.824 -0.551391 1.4764 0
M  V30 4386 C 418.24 -0.877887 1.33287 0
M  V30 4387 C 418.44 -1.98817 0.327721 0
M  V30 4388 O 417.496 -2.51171 -0.258695 0
M  V30 4389 C 418.809 -1.26563 2.72768 0
M  V30 4390 C 420.357 -1.37673 2.81097 0
M  V30 4391 C 420.832 -1.79799 4.21232 0
M  V30 4392 N 422.323 -1.8694 4.23802 0
M  V30 4393 C 423.058 -2.20876 5.29151 0
M  V30 4394 N 422.554 -2.53386 6.448 0
M  V30 4395 N 424.347 -2.217 5.16532 0
M  V30 4396 H 416.498 0.18153 2.11623 0
M  V30 4397 H 418.761 0.0185514 0.947818 0
M  V30 4398 H 418.467 -0.523591 3.47781 0
M  V30 4399 H 418.341 -2.22052 3.04915 0
M  V30 4400 H 420.728 -2.10956 2.06353 0
M  V30 4401 H 420.809 -0.40357 2.52596 0
M  V30 4402 H 420.453 -1.07083 4.96483 0
M  V30 4403 H 420.383 -2.78128 4.4716 0
M  V30 4404 H 422.874 -1.64179 3.40373 0
M  V30 4405 H 423.187 -2.78325 7.20941 0
M  V30 4406 H 421.532 -2.50953 6.48111 0
M  V30 4407 H 424.723 -1.95745 4.25207 0
M  V30 4408 H 424.896 -2.47818 5.98741 0
M  V30 4409 N 418.302 -1.35869 -0.798587 0
M  V30 4410 C 419.25 -1.29491 -1.93222 0
M  V30 4411 C 420.244 -0.18836 -1.6835 0
M  V30 4412 O 421.45 -0.354822 -1.76468 0
M  V30 4413 H 417.825 -0.402901 -0.63496 0
M  V30 4414 H 419.796 -2.25247 -1.9572 0
M  V30 4415 C 418.545 -1.09184 -3.30112 0
M  V30 4416 H 417.868 -1.93574 -3.49813 0
M  V30 4417 H 419.308 -1.08766 -4.09812 0
M  V30 4418 C 417.767 0.203959 -3.36282 0
M  V30 4419 O 418.297 1.19699 -3.83451 0
M  V30 4420 N 416.503 0.245488 -2.89561 0
M  V30 4421 H 416.05 -0.563223 -2.51367 0
M  V30 4422 H 416.008 1.11219 -2.94071 0
M  V30 4423 N 419.78 1.02168 -1.19998 0
M  V30 4424 C 421.057 1.72816 -0.916191 0
M  V30 4425 C 421.437 2.03081 0.576325 0
M  V30 4426 O 420.785 1.69122 1.53656 0
M  V30 4427 C 420.995 2.9997 -1.78378 0
M  V30 4428 C 422.343 3.73336 -2.02251 0
M  V30 4429 O 423.367 3.09914 -1.75589 0
M  V30 4430 O 422.226 4.87371 -2.47249 0
M  V30 4431 H 419.32 0.752924 -0.342103 0
M  V30 4432 H 421.866 1.08062 -1.30846 0
M  V30 4433 H 420.638 2.73888 -2.79466 0
M  V30 4434 H 420.261 3.72464 -1.39126 0
M  V30 4435 N 421.258 1.00505 1.21394 0
M  V30 4436 C 422.168 0.574806 2.27449 0
M  V30 4437 C 423.184 -0.382206 1.6975 0
M  V30 4438 O 424.36 -0.246027 1.99892 0
M  V30 4439 C 421.425 -0.0917414 3.46579 0
M  V30 4440 C 420.486 0.909758 4.1955 0
M  V30 4441 C 419.719 0.274924 5.32991 0
M  V30 4442 O 419.942 -0.928254 5.62796 0
M  V30 4443 O 418.876 0.985877 5.93771 0
M  V30 4444 H 422.702 1.45744 2.66444 0
M  V30 4445 H 420.287 0.773923 1.27792 0
M  V30 4446 H 422.169 -0.464551 4.18832 0
M  V30 4447 H 420.844 -0.948755 3.09484 0
M  V30 4448 H 419.751 1.33372 3.49518 0
M  V30 4449 H 421.084 1.73636 4.60555 0
M  V30 4450 N 422.737 -1.36956 0.779787 0
M  V30 4451 C 424.153 -1.52817 0.460342 0
M  V30 4452 C 424.353 -1.7361 -1.02283 0
M  V30 4453 O 423.409 -1.76207 -1.80852 0
M  V30 4454 C 424.722 -2.71983 1.28241 0
M  V30 4455 C 426.27 -2.85849 1.27512 0
M  V30 4456 C 426.745 -4.08008 2.08072 0
M  V30 4457 N 428.236 -4.15135 2.05467 0
M  V30 4458 C 428.971 -5.08711 2.64577 0
M  V30 4459 N 428.467 -6.07792 3.32506 0
M  V30 4460 N 430.26 -5.01254 2.54363 0
M  V30 4461 H 422.411 -1.21713 1.74068 0
M  V30 4462 H 424.674 -0.593294 0.739396 0
M  V30 4463 H 424.38 -2.63109 2.33381 0
M  V30 4464 H 424.254 -3.65882 0.917088 0
M  V30 4465 H 426.641 -2.94189 0.231686 0
M  V30 4466 H 426.722 -1.92886 1.68014 0
M  V30 4467 H 426.366 -4.00429 3.12441 0
M  V30 4468 H 426.296 -5.001 1.64947 0
M  V30 4469 H 428.787 -3.44189 1.5602 0
M  V30 4470 H 429.1 -6.75739 3.74963 0
M  V30 4471 H 427.445 -6.08047 3.36606 0
M  V30 4472 H 430.636 -4.22795 2.00902 0
M  V30 4473 H 430.809 -5.73995 3.00722 0
M  V30 4474 N 424.215 -0.530993 -1.48385 0
M  V30 4475 C 425.455 0.000718982 -2.044 0
M  V30 4476 C 425.819 1.31485 -1.39913 0
M  V30 4477 O 427.02 1.93265 -1.86821 0
M  V30 4478 C 425.291 0.119177 -3.57201 0
M  V30 4479 S 426.85 0.600806 -4.34667 0
M  V30 4480 H 423.668 -0.0125473 -0.710889 0
M  V30 4481 H 426.27 -0.711783 -1.82082 0
M  V30 4482 H 424.974 -0.842061 -4.01668 0
M  V30 4483 H 424.505 0.856026 -3.83974 0
M  V30 4484 H 426.52 1.86514 -4.59812 0
M  V30 4485 N 425.693 1.55336 -0.266172 0
M  V30 4486 C 426.643 2.18848 0.639497 0
M  V30 4487 C 427.627 1.1503 1.12503 0
M  V30 4488 O 428.819 1.40875 1.0716 0
M  V30 4489 C 425.948 2.90626 1.82733 0
M  V30 4490 C 425.034 4.01723 1.35939 0
M  V30 4491 N 425.425 5.02145 0.606988 0
M  V30 4492 C 423.723 4.1463 1.6431 0
M  V30 4493 C 424.424 5.80572 0.362138 0
M  V30 4494 N 423.4 5.35551 0.931971 0
M  V30 4495 H 427.202 2.93845 0.0567057 0
M  V30 4496 H 424.716 1.62252 -0.0693312 0
M  V30 4497 H 426.713 3.34569 2.48735 0
M  V30 4498 H 425.373 2.17137 2.41416 0
M  V30 4499 H 426.384 5.17271 0.255198 0
M  V30 4500 H 423.061 3.52326 2.23993 0
M  V30 4501 H 424.451 6.71472 -0.239848 0
M  V30 4502 N 427.171 -0.0066808 1.57599 0
M  V30 4503 C 428.101 -0.999296 2.11036 0
M  V30 4504 C 429.082 -1.36278 1.01795 0
M  V30 4505 O 430.267 -1.4477 1.29442 0
M  V30 4506 C 427.397 -2.29328 2.60818 0
M  V30 4507 C 426.351 -2.07159 3.74525 0
M  V30 4508 C 425.677 -3.42512 4.10596 0
M  V30 4509 C 426.977 -1.43959 5.02069 0
M  V30 4510 H 428.671 -0.554382 2.94223 0
M  V30 4511 H 426.217 -0.265221 1.41536 0
M  V30 4512 H 428.17 -2.99117 2.96828 0
M  V30 4513 H 426.894 -2.7592 1.74745 0
M  V30 4514 H 425.553 -1.39797 3.38899 0
M  V30 4515 H 425.201 -3.86795 3.21556 0
M  V30 4516 H 424.901 -3.28498 4.87199 0
M  V30 4517 H 426.425 -4.13628 4.4916 0
M  V30 4518 H 427.839 -2.03696 5.35893 0
M  V30 4519 H 426.236 -1.40452 5.83432 0
M  V30 4520 H 427.306 -0.407992 4.83181 0
M  V30 4521 N 428.649 -1.55105 -0.279332 0
M  V30 4522 C 429.926 -1.66119 -1.03267 0
M  V30 4523 C 430.306 -0.523525 -2.04505 0
M  V30 4524 O 429.654 0.477194 -2.23462 0
M  V30 4525 C 429.864 -3.05067 -1.69515 0
M  V30 4526 C 431.212 -3.62606 -2.20912 0
M  V30 4527 O 432.236 -3.07659 -1.79512 0
M  V30 4528 O 431.095 -4.58861 -2.96831 0
M  V30 4529 H 428.189 -0.674429 -0.478618 0
M  V30 4530 H 430.735 -1.67446 -0.275694 0
M  V30 4531 H 429.507 -3.79311 -0.9612 0
M  V30 4532 H 429.13 -3.07611 -2.51915 0
M  V30 4533 N 430.127 0.543554 -1.4793 0
M  V30 4534 C 431.355 1.32516 -1.58894 0
M  V30 4535 C 431.77 1.87215 -0.244131 0
M  V30 4536 O 431.127 1.65709 0.764652 0
M  V30 4537 C 431.178 2.48554 -2.62494 0
M  V30 4538 O 430.899 1.96112 -3.91755 0
M  V30 4539 C 432.4 3.40572 -2.8377 0
M  V30 4540 H 429.62 0.403472 -0.536145 0
M  V30 4541 H 432.164 0.657106 -1.93655 0
M  V30 4542 H 430.319 3.1127 -2.30629 0
M  V30 4543 H 430.733 2.71967 -4.4848 0
M  V30 4544 H 432.207 4.18375 -3.60093 0
M  V30 4545 H 432.684 3.94965 -1.92092 0
M  V30 4546 H 433.29 2.8366 -3.16887 0
M  V30 4547 N 431.605 1.3629 0.791371 0
M  V30 4548 C 432.833 1.33562 1.58016 0
M  V30 4549 C 433.248 -0.0835616 1.88615 0
M  V30 4550 O 432.605 -1.0399 1.49974 0
M  V30 4551 C 432.656 2.15517 2.90232 0
M  V30 4552 O 432.377 3.51902 2.60953 0
M  V30 4553 C 433.878 2.20546 3.84544 0
M  V30 4554 H 431.098 0.458226 0.490173 0
M  V30 4555 H 433.642 1.79361 0.982345 0
M  V30 4556 H 431.797 1.73278 3.46487 0
M  V30 4557 H 432.211 3.94644 3.4548 0
M  V30 4558 H 433.685 2.82252 4.74382 0
M  V30 4559 H 434.162 1.20838 4.2225 0
M  V30 4560 H 434.768 2.63013 3.34222 0
M  V30 4561 N 433.083 -1.0153 1.20538 0
M  V30 4562 C 434.331 -1.74803 1.01432 0
M  V30 4563 C 434.652 -1.8963 -0.454456 0
M  V30 4564 O 433.922 -1.43975 -1.32846 0
M  V30 4565 H 432.502 -0.647598 0.372324 0
M  V30 4566 H 435.164 -1.22402 1.5167 0
M  V30 4567 H 434.26 -2.75114 1.47373 0
M  V30 4568 N 434.561 -1.01147 -1.20859 0
M  V30 4569 C 435.789 -0.716911 -1.94082 0
M  V30 4570 C 436.204 0.721568 -1.74467 0
M  V30 4571 O 435.561 1.48889 -1.05539 0
M  V30 4572 C 435.612 -1.03662 -3.46318 0
M  V30 4573 O 435.333 -2.4186 -3.65288 0
M  V30 4574 C 436.834 -0.762386 -4.36695 0
M  V30 4575 H 434.054 -0.26367 -0.617024 0
M  V30 4576 H 436.598 -1.35127 -1.53496 0
M  V30 4577 H 434.753 -0.447757 -3.84804 0
M  V30 4578 H 435.167 -2.53224 -4.59323 0
M  V30 4579 H 436.641 -1.03621 -5.42187 0
M  V30 4580 H 437.118 0.303514 -4.3815 0
M  V30 4581 H 437.724 -1.33316 -4.03865 0
M  V30 4582 N 436.039 1.36541 -0.78704 0
M  V30 4583 C 437.269 2.03266 -0.369662 0
M  V30 4584 C 437.677 1.59481 1.01796 0
M  V30 4585 O 437.02 0.778612 1.66383 0
M  V30 4586 C 437.082 3.57779 -0.351371 0
M  V30 4587 C 436.746 4.24756 -1.68617 0
M  V30 4588 C 437.743 4.47811 -2.64124 0
M  V30 4589 C 435.428 4.62277 -1.96481 0
M  V30 4590 C 437.422 5.07464 -3.85693 0
M  V30 4591 C 435.109 5.21649 -3.18317 0
M  V30 4592 C 436.107 5.44182 -4.12741 0
M  V30 4593 O 435.795 6.02307 -5.32429 0
M  V30 4594 H 435.527 0.658977 -0.150751 0
M  V30 4595 H 438.081 1.75548 -1.0664 0
M  V30 4596 H 436.311 3.84606 0.401847 0
M  V30 4597 H 438 4.05879 0.0410147 0
M  V30 4598 H 438.766 4.19221 -2.43883 0
M  V30 4599 H 434.645 4.44065 -1.23805 0
M  V30 4600 H 438.189 5.24968 -4.59407 0
M  V30 4601 H 434.086 5.49664 -3.38437 0
M  V30 4602 H 434.854 6.20775 -5.33461 0
M  V30 4603 N 437.518 0.538854 1.48102 0
M  V30 4604 C 438.746 0.0123136 2.06896 0
M  V30 4605 C 439.161 -1.27312 1.39417 0
M  V30 4606 O 438.518 -1.75949 0.484582 0
M  V30 4607 C 438.569 -0.206118 3.60912 0
M  V30 4608 O 438.29 1.0284 4.25859 0
M  V30 4609 C 439.791 -0.772033 4.36526 0
M  V30 4610 H 437.011 0.0375239 0.66995 0
M  V30 4611 H 439.555 0.747032 1.90367 0
M  V30 4612 H 437.71 -0.89091 3.77017 0
M  V30 4613 H 438.124 0.814654 5.18135 0
M  V30 4614 H 439.598 -0.874251 5.45033 0
M  V30 4615 H 440.075 -1.77904 4.01555 0
M  V30 4616 H 440.681 -0.123526 4.25121 0
M  V30 4617 N 438.996 -1.55193 0.274407 0
M  V30 4618 C 439.928 -2.1989 -0.646595 0
M  V30 4619 C 440.941 -1.1834 -1.11801 0
M  V30 4620 O 442.13 -1.4507 -1.04004 0
M  V30 4621 C 439.23 -2.8104 -1.89393 0
M  V30 4622 C 438.403 -4.08274 -1.56943 0
M  V30 4623 C 437.462 -4.53478 -2.66916 0
M  V30 4624 O 436.488 -5.19267 -2.33132 0
M  V30 4625 N 437.69 -4.2356 -3.9696 0
M  V30 4626 H 440.455 -2.99556 -0.0928686 0
M  V30 4627 H 438.016 -1.61618 0.0954783 0
M  V30 4628 H 440.008 -3.08226 -2.62257 0
M  V30 4629 H 438.578 -2.05372 -2.35672 0
M  V30 4630 H 437.798 -3.88384 -0.674655 0
M  V30 4631 H 439.086 -4.91173 -1.32764 0
M  V30 4632 H 438.484 -3.70799 -4.27229 0
M  V30 4633 H 437.041 -4.55518 -4.66205 0
M  V30 4634 N 440.474 -0.00167713 -1.576 0
M  V30 4635 C 441.704 0.692754 -1.94639 0
M  V30 4636 C 442.112 1.67744 -0.87513 0
M  V30 4637 O 441.455 1.8305 0.154382 0
M  V30 4638 C 441.517 1.47881 -3.27676 0
M  V30 4639 C 441.181 0.655518 -4.52274 0
M  V30 4640 C 442.178 -0.0575214 -5.19868 0
M  V30 4641 C 439.863 0.600994 -4.98692 0
M  V30 4642 C 441.857 -0.814052 -6.3218 0
M  V30 4643 C 439.544 -0.15926 -6.10892 0
M  V30 4644 C 440.542 -0.865515 -6.77494 0
M  V30 4645 O 440.23 -1.61336 -7.87544 0
M  V30 4646 H 439.962 0.197792 -0.646417 0
M  V30 4647 H 442.516 -0.049423 -2.05341 0
M  V30 4648 H 440.746 2.2655 -3.13388 0
M  V30 4649 H 442.435 2.05874 -3.49816 0
M  V30 4650 H 443.201 -0.0245611 -4.84994 0
M  V30 4651 H 439.08 1.14025 -4.46676 0
M  V30 4652 H 442.624 -1.36584 -6.84098 0
M  V30 4653 H 438.521 -0.194035 -6.45208 0
M  V30 4654 H 439.289 -1.53025 -8.04068 0
M  V30 4655 N 441.952 1.55251 0.271103 0
M  V30 4656 C 443.368 1.47133 0.618393 0
M  V30 4657 C 443.568 0.686994 1.89427 0
M  V30 4658 O 442.624 0.206609 2.51653 0
M  V30 4659 C 443.937 2.91361 0.743593 0
M  V30 4660 C 445.485 3.01587 0.837522 0
M  V30 4661 C 445.96 4.47073 0.994483 0
M  V30 4662 N 447.451 4.50909 1.05996 0
M  V30 4663 C 448.186 5.60698 1.20024 0
M  V30 4664 N 447.682 6.80348 1.30759 0
M  V30 4665 N 449.475 5.48444 1.23149 0
M  V30 4666 H 441.626 2.04698 -0.566784 0
M  V30 4667 H 443.889 0.928319 -0.192165 0
M  V30 4668 H 443.595 3.51483 -0.123493 0
M  V30 4669 H 443.469 3.40484 1.62328 0
M  V30 4670 H 445.856 2.4156 1.69507 0
M  V30 4671 H 445.937 2.55713 -0.0668086 0
M  V30 4672 H 445.581 5.07703 0.141582 0
M  V30 4673 H 445.511 4.90605 1.91349 0
M  V30 4674 H 448.002 3.6472 0.989316 0
M  V30 4675 H 448.315 7.59772 1.41303 0
M  V30 4676 H 446.66 6.83156 1.27761 0
M  V30 4677 H 449.851 4.53907 1.14394 0
M  V30 4678 H 450.024 6.34049 1.33738 0
M  V30 4679 N 443.43 -0.535701 1.48216 0
M  V30 4680 C 444.658 -1.31671 1.59594 0
M  V30 4681 C 445.073 -1.87083 0.254056 0
M  V30 4682 O 444.43 -1.66112 -0.755854 0
M  V30 4683 C 444.481 -2.47158 2.63809 0
M  V30 4684 O 444.202 -1.94032 3.92789 0
M  V30 4685 C 445.703 -3.39062 2.85573 0
M  V30 4686 H 442.923 -0.400623 0.538277 0
M  V30 4687 H 445.467 -0.646827 1.94001 0
M  V30 4688 H 443.622 -3.10043 2.32276 0
M  V30 4689 H 444.036 -2.69585 4.49916 0
M  V30 4690 H 445.51 -4.16459 3.62306 0
M  V30 4691 H 445.987 -3.93941 1.94184 0
M  V30 4692 H 446.593 -2.81975 3.18387 0
M  V30 4693 N 444.908 -1.36708 -0.784132 0
M  V30 4694 C 445.84 -1.27333 -1.90575 0
M  V30 4695 C 446.853 -0.191706 -1.61667 0
M  V30 4696 O 448.042 -0.446854 -1.72816 0
M  V30 4697 C 445.142 -0.943177 -3.25511 0
M  V30 4698 C 444.315 -2.12776 -3.82158 0
M  V30 4699 C 443.374 -1.76983 -4.95544 0
M  V30 4700 O 442.4 -2.49134 -5.11782 0
M  V30 4701 N 443.602 -0.706624 -5.76183 0
M  V30 4702 H 446.367 -2.23974 -1.99138 0
M  V30 4703 H 443.928 -1.30171 -0.962656 0
M  V30 4704 H 445.92 -0.684799 -3.98864 0
M  V30 4705 H 444.49 -0.0657333 -3.12531 0
M  V30 4706 H 443.71 -2.54863 -3.0073 0
M  V30 4707 H 444.998 -2.91904 -4.16737 0
M  V30 4708 H 444.396 -0.107643 -5.65598 0
M  V30 4709 H 442.953 -0.50808 -6.49817 0
M  V30 4710 N 446.386 1.0089 -1.21074 0
M  V30 4711 C 447.663 1.71834 -0.934469 0
M  V30 4712 C 448.043 2.0368 0.554753 0
M  V30 4713 O 447.391 1.70742 1.51854 0
M  V30 4714 C 447.601 2.98061 -1.8155 0
M  V30 4715 C 448.949 3.7117 -2.06199 0
M  V30 4716 O 449.973 3.08034 -1.78867 0
M  V30 4717 O 448.832 4.84721 -2.52404 0
M  V30 4718 H 445.926 0.749253 -0.35007 0
M  V30 4719 H 448.472 1.06668 -1.31985 0
M  V30 4720 H 447.244 2.70908 -2.82355 0
M  V30 4721 H 446.867 3.70968 -1.43068 0
M  V30 4722 N 447.864 1.01787 1.20321 0
M  V30 4723 C 449.094 0.72614 1.93419 0
M  V30 4724 C 449.502 -0.717317 1.75075 0
M  V30 4725 O 448.845 -1.49836 1.06278 0
M  V30 4726 C 448.907 0.983621 3.45782 0
M  V30 4727 C 448.571 2.41645 3.87888 0
M  V30 4728 C 449.568 3.39732 3.93545 0
M  V30 4729 C 447.253 2.75752 4.19841 0
M  V30 4730 C 449.247 4.69988 4.30569 0
M  V30 4731 C 446.934 4.06221 4.56539 0
M  V30 4732 C 447.932 5.0315 4.61876 0
M  V30 4733 O 447.62 6.31284 4.97731 0
M  V30 4734 H 447.352 0.265824 0.621541 0
M  V30 4735 H 449.906 1.3623 1.53722 0
M  V30 4736 H 448.136 0.290301 3.85609 0
M  V30 4737 H 449.825 0.683279 4.00108 0
M  V30 4738 H 450.591 3.14718 3.69022 0
M  V30 4739 H 446.47 2.00993 4.14877 0
M  V30 4740 H 450.014 5.45642 4.3465 0
M  V30 4741 H 445.911 4.31013 4.80518 0
M  V30 4742 H 446.679 6.35591 5.15719 0
M  V30 4743 N 449.342 -1.36122 0.79427 0
M  V30 4744 C 450.753 -1.81646 0.431446 0
M  V30 4745 C 451.104 -1.66043 -1.04518 0
M  V30 4746 O 450.229 -1.1841 -1.8113 0
M  V30 4747 C 450.824 -3.29785 0.776341 0
M  V30 4748 C 449.383 -3.73501 0.466282 0
M  V30 4749 C 448.53 -2.58313 1.00844 0
M  V30 4750 H 451.481 -1.24274 0.986995 0
M  V30 4751 H 451.502 -3.80437 0.0692413 0
M  V30 4752 H 451.014 -3.4111 1.8511 0
M  V30 4753 H 449.115 -3.67733 -0.600245 0
M  V30 4754 H 449.228 -4.68754 0.990288 0
M  V30 4755 H 447.592 -2.5102 0.431406 0
M  V30 4756 H 448.375 -2.72421 2.08906 0
M  V30 4757 N 450.82 -0.546701 -1.47814 0
M  V30 4758 C 452.045 -0.021268 -2.07389 0
M  V30 4759 C 452.47 1.25822 -1.39822 0
M  V30 4760 O 451.828 1.75111 -0.46968 0
M  V30 4761 C 451.876 0.168502 -3.60206 0
M  V30 4762 O 450.98 1.23347 -3.93522 0
M  V30 4763 H 450.321 -0.0466108 -0.662362 0
M  V30 4764 H 452.851 -0.759387 -1.89985 0
M  V30 4765 H 452.861 0.385982 -4.0617 0
M  V30 4766 H 451.536 -0.766075 -4.08784 0
M  V30 4767 H 450.113 0.997319 -3.59316 0
M  V30 4768 N 452.299 1.55045 -0.282633 0
M  V30 4769 C 453.545 2.00056 0.332481 0
M  V30 4770 C 453.878 1.1708 1.54939 0
M  V30 4771 O 453.153 0.2427 1.9298 0
M  V30 4772 C 453.436 3.53086 0.70725 0
M  V30 4773 C 453.289 4.46813 -0.517521 0
M  V30 4774 C 454.608 4.12245 1.54084 0
M  V30 4775 H 451.727 0.727268 0.119373 0
M  V30 4776 H 454.369 1.85932 -0.391076 0
M  V30 4777 H 452.519 3.65253 1.32372 0
M  V30 4778 H 454.191 4.46579 -1.15607 0
M  V30 4779 H 452.434 4.18163 -1.1542 0
M  V30 4780 H 453.105 5.51595 -0.211426 0
M  V30 4781 H 455.581 4.03401 1.02013 0
M  V30 4782 H 454.457 5.19515 1.77186 0
M  V30 4783 H 454.718 3.62951 2.52427 0
M  V30 4784 N 453.777 0.010035 1.57597 0
M  V30 4785 C 455.188 -0.531426 1.78977 0
M  V30 4786 C 455.539 -1.73375 0.918454 0
M  V30 4787 O 454.664 -2.16047 0.123635 0
M  V30 4788 C 455.259 -0.97086 3.24592 0
M  V30 4789 C 453.818 -1.45756 3.47033 0
M  V30 4790 C 452.965 -0.413384 2.74201 0
M  V30 4791 H 455.916 0.236166 1.56933 0
M  V30 4792 H 455.937 -1.83633 3.33255 0
M  V30 4793 H 455.449 -0.0955893 3.87982 0
M  V30 4794 H 453.55 -2.35339 2.88871 0
M  V30 4795 H 453.663 -1.4781 4.55729 0
M  V30 4796 H 452.027 -0.877266 2.39115 0
M  V30 4797 H 452.81 0.453092 3.40297 0
M  V30 4798 N 455.255 -1.55392 -0.262866 0
M  V30 4799 C 456.483 -1.80513 -1.01108 0
M  V30 4800 C 456.898 -0.583533 -1.79556 0
M  V30 4801 O 456.255 0.447585 -1.76926 0
M  V30 4802 C 456.306 -3.03648 -1.96164 0
M  V30 4803 O 456.027 -4.2109 -1.20893 0
M  V30 4804 C 457.528 -3.41448 -2.82715 0
M  V30 4805 H 454.748 -0.601079 -0.298236 0
M  V30 4806 H 457.292 -2.02425 -0.290582 0
M  V30 4807 H 455.447 -2.83832 -2.63663 0
M  V30 4808 H 455.861 -4.90771 -1.85051 0
M  V30 4809 H 457.335 -4.30751 -3.45192 0
M  V30 4810 H 457.812 -2.61308 -3.53008 0
M  V30 4811 H 458.418 -3.63559 -2.20693 0
M  V30 4812 N 456.733 0.527833 -1.48498 0
M  V30 4813 C 457.663 1.64136 -1.66077 0
M  V30 4814 C 458.644 1.62286 -0.509625 0
M  V30 4815 O 459.829 1.79449 -0.742413 0
M  V30 4816 C 456.959 3.02717 -1.70234 0
M  V30 4817 C 455.913 3.19426 -2.8487 0
M  V30 4818 C 455.239 4.5909 -2.74118 0
M  V30 4819 C 456.539 3.01993 -4.26142 0
M  V30 4820 H 458.233 1.4968 -2.593 0
M  V30 4821 H 455.779 0.718654 -1.24785 0
M  V30 4822 H 457.732 3.80491 -1.8112 0
M  V30 4823 H 456.456 3.18201 -0.735911 0
M  V30 4824 H 455.115 2.4407 -2.73542 0
M  V30 4825 H 454.763 4.71413 -1.7544 0
M  V30 4826 H 454.463 4.71214 -3.51042 0
M  V30 4827 H 455.987 5.3896 -2.86974 0
M  V30 4828 H 457.401 3.69558 -4.38292 0
M  V30 4829 H 455.798 3.2561 -5.04082 0
M  V30 4830 H 456.868 1.98396 -4.42456 0
M  V30 4831 N 458.211 1.37122 0.776871 0
M  V30 4832 C 459.457 1.32243 1.53752 0
M  V30 4833 C 459.79 -0.0944745 1.9397 0
M  V30 4834 O 459.065 -1.05068 1.6368 0
M  V30 4835 C 459.348 2.25681 2.80607 0
M  V30 4836 C 459.201 3.76127 2.46676 0
M  V30 4837 C 460.52 2.17657 3.82509 0
M  V30 4838 H 457.639 0.481704 0.557791 0
M  V30 4839 H 460.281 1.6778 0.891612 0
M  V30 4840 H 458.431 1.95505 3.35723 0
M  V30 4841 H 460.103 4.16877 1.97513 0
M  V30 4842 H 458.346 3.94946 1.79443 0
M  V30 4843 H 459.017 4.36933 3.37333 0
M  V30 4844 H 461.493 2.44245 3.36873 0
M  V30 4845 H 460.369 2.85185 4.69 0
M  V30 4846 H 460.63 1.16785 4.26396 0
M  V30 4847 N 459.689 -1.00246 1.21608 0
M  V30 4848 C 461.105 -1.26435 0.973975 0
M  V30 4849 C 461.305 -1.98642 -0.338143 0
M  V30 4850 O 460.361 -2.29026 -1.06317 0
M  V30 4851 C 461.674 -2.08551 2.16626 0
M  V30 4852 C 463.222 -2.21769 2.20879 0
M  V30 4853 C 463.697 -3.07267 3.39633 0
M  V30 4854 N 465.188 -3.14855 3.39736 0
M  V30 4855 C 465.923 -3.81274 4.28273 0
M  V30 4856 N 465.419 -4.497 5.27012 0
M  V30 4857 N 467.212 -3.7794 4.16074 0
M  V30 4858 H 459.363 -0.518089 2.05984 0
M  V30 4859 H 461.626 -0.291368 0.902113 0
M  V30 4860 H 461.332 -1.62847 3.11727 0
M  V30 4861 H 461.206 -3.09303 2.15897 0
M  V30 4862 H 463.593 -2.66691 1.26332 0
M  V30 4863 H 463.674 -1.20478 2.25652 0
M  V30 4864 H 463.318 -2.63047 4.34475 0
M  V30 4865 H 463.248 -4.08678 3.321 0
M  V30 4866 H 465.739 -2.66147 2.6828 0
M  V30 4867 H 466.052 -4.98092 5.90867 0
M  V30 4868 H 464.397 -4.48479 5.30935 0
M  V30 4869 H 467.588 -3.23638 3.38195 0
M  V30 4870 H 467.761 -4.29424 4.85282 0
M  V30 4871 N 461.167 -1.02423 -1.1978 0
M  V30 4872 C 462.097 -0.62157 -2.25075 0
M  V30 4873 C 463.078 0.367148 -1.6609 0
M  V30 4874 O 464.263 0.250892 -1.92573 0
M  V30 4875 C 461.393 0.0331826 -3.47284 0
M  V30 4876 C 460.347 -0.877323 -4.18912 0
M  V30 4877 C 459.673 -0.0879296 -5.34628 0
M  V30 4878 C 460.973 -2.18892 -4.74219 0
M  V30 4879 H 462.667 -1.50179 -2.59011 0
M  V30 4880 H 460.213 -0.723547 -1.24502 0
M  V30 4881 H 462.166 0.326488 -4.20133 0
M  V30 4882 H 460.89 0.948164 -3.12534 0
M  V30 4883 H 459.549 -1.15475 -3.47938 0
M  V30 4884 H 459.197 0.828941 -4.96123 0
M  V30 4885 H 458.897 -0.694359 -5.83483 0
M  V30 4886 H 460.421 0.198743 -6.10276 0
M  V30 4887 H 461.835 -1.95746 -5.38847 0
M  V30 4888 H 460.232 -2.74686 -5.33542 0
M  V30 4889 H 461.302 -2.84674 -3.92541 0
M  V30 4890 N 462.645 1.35699 -0.801477 0
M  V30 4891 C 463.575 2.32436 -0.222658 0
M  V30 4892 C 464.556 1.5723 0.649057 0
M  V30 4893 O 465.741 1.85324 0.580387 0
M  V30 4894 C 462.871 3.41469 0.633719 0
M  V30 4895 C 461.825 4.27774 -0.139083 0
M  V30 4896 C 461.151 5.28082 0.838666 0
M  V30 4897 C 462.451 5.04946 -1.33517 0
M  V30 4898 H 464.145 2.81094 -1.03086 0
M  V30 4899 H 461.691 1.35146 -0.497155 0
M  V30 4900 H 463.644 4.08143 1.04868 0
M  V30 4901 H 462.368 2.91408 1.47475 0
M  V30 4902 H 461.027 3.62673 -0.535156 0
M  V30 4903 H 460.675 4.7429 1.67506 0
M  V30 4904 H 460.375 5.86695 0.32594 0
M  V30 4905 H 461.899 5.97628 1.25194 0
M  V30 4906 H 463.313 5.64593 -0.995349 0
M  V30 4907 H 461.71 5.7303 -1.78202 0
M  V30 4908 H 462.78 4.35886 -2.12442 0
M  V30 4909 N 464.123 0.554532 1.47522 0
M  V30 4910 C 465.086 -0.184174 2.28459 0
M  V30 4911 C 466.086 -0.845195 1.36796 0
M  V30 4912 O 467.276 -0.701467 1.59452 0
M  V30 4913 C 464.408 -1.26903 3.16399 0
M  V30 4914 H 465.601 0.526751 2.95238 0
M  V30 4915 H 463.154 0.311375 1.53167 0
M  V30 4916 H 463.889 -2.01244 2.54306 0
M  V30 4917 H 463.674 -0.799883 3.83854 0
M  V30 4918 H 465.164 -1.78794 3.77389 0
M  V30 4919 N 465.601 -1.54893 0.290851 0
M  V30 4920 C 466.548 -2.23138 -0.58974 0
M  V30 4921 C 467.518 -1.21036 -1.13752 0
M  V30 4922 O 468.703 -1.49626 -1.18392 0
M  V30 4923 C 465.843 -2.96811 -1.76061 0
M  V30 4924 C 464.956 -4.13665 -1.24519 0
M  V30 4925 C 464.091 -4.74944 -2.3791 0
M  V30 4926 C 463.13 -5.83963 -1.83451 0
M  V30 4927 N 462.267 -6.39239 -2.90376 0
M  V30 4928 H 467.107 -2.98 -0.00114915 0
M  V30 4929 H 464.644 -1.47096 0.0112006 0
M  V30 4930 H 466.602 -3.37751 -2.44909 0
M  V30 4931 H 465.232 -2.24344 -2.32098 0
M  V30 4932 H 464.284 -3.77737 -0.449288 0
M  V30 4933 H 465.596 -4.92238 -0.806424 0
M  V30 4934 H 464.75 -5.18684 -3.14724 0
M  V30 4935 H 463.489 -3.95682 -2.85109 0
M  V30 4936 H 462.494 -5.39657 -1.05122 0
M  V30 4937 H 463.719 -6.65103 -1.37169 0
M  V30 4938 H 461.665 -5.62864 -3.36927 0
M  V30 4939 H 461.582 -7.13129 -2.50965 0
M  V30 4940 H 462.85 -6.87637 -3.67118 0
M  V30 4941 N 467.08 -0.0183926 -1.57589 0
M  V30 4942 C 468.03 0.975944 -2.06057 0
M  V30 4943 C 469.014 1.29204 -0.958908 0
M  V30 4944 O 470.206 1.27995 -1.22255 0
M  V30 4945 C 467.335 2.26194 -2.58247 0
M  V30 4946 C 466.421 1.97467 -3.75323 0
M  V30 4947 N 466.812 1.38968 -4.86335 0
M  V30 4948 C 465.11 2.27515 -3.83605 0
M  V30 4949 C 465.811 1.27131 -5.67638 0
M  V30 4950 N 464.787 1.76319 -5.14211 0
M  V30 4951 H 468.589 0.518444 -2.89291 0
M  V30 4952 H 466.103 0.18688 -1.61321 0
M  V30 4953 H 468.1 2.98289 -2.91255 0
M  V30 4954 H 466.76 2.7258 -1.76438 0
M  V30 4955 H 467.771 1.06608 -5.06809 0
M  V30 4956 H 464.448 2.76649 -3.12684 0
M  V30 4957 H 465.838 0.819882 -6.66879 0
M  V30 4958 N 468.558 1.5553 0.254621 0
M  V30 4959 C 469.506 1.9048 1.33492 0
M  V30 4960 C 470.5 0.78304 1.50216 0
M  V30 4961 O 471.706 0.967582 1.51782 0
M  V30 4962 H 468.081 0.604846 0.44684 0
M  V30 4963 H 470.052 2.80688 1.01275 0
M  V30 4964 C 468.801 2.20928 2.68489 0
M  V30 4965 H 468.124 3.06742 2.56417 0
M  V30 4966 H 469.564 2.49291 3.42972 0
M  V30 4967 C 468.023 1.023 3.20993 0
M  V30 4968 O 468.553 0.267027 4.00811 0
M  V30 4969 N 466.759 0.815714 2.78917 0
M  V30 4970 H 466.306 1.43217 2.14119 0
M  V30 4971 H 466.264 0.0236532 3.14391 0
M  V30 4972 N 470.036 -0.519951 1.48776 0
M  V30 4973 C 471.285 -1.27175 1.56555 0
M  V30 4974 C 471.598 -1.9401 0.248869 0
M  V30 4975 O 472.804 -2.70725 0.205004 0
M  V30 4976 C 471.26 -2.30811 2.76142 0
M  V30 4977 C 470.868 -1.7 4.14493 0
M  V30 4978 C 472.612 -3.06937 2.9324 0
M  V30 4979 C 470.519 -2.71635 5.25327 0
M  V30 4980 H 469.449 -0.478329 0.582853 0
M  V30 4981 H 472.1 -0.547916 1.75129 0
M  V30 4982 H 470.482 -3.06274 2.51023 0
M  V30 4983 H 471.656 -1.00658 4.49672 0
M  V30 4984 H 469.971 -1.06331 4.02595 0
M  V30 4985 H 472.568 -3.82905 3.73213 0
M  V30 4986 H 472.911 -3.63409 2.03075 0
M  V30 4987 H 473.444 -2.38589 3.18308 0
M  V30 4988 H 470.183 -2.1997 6.1749 0
M  V30 4989 H 469.703 -3.39275 4.94624 0
M  V30 4990 H 471.382 -3.34429 5.53865 0
M  V30 4991 N 471.514 -1.37532 -0.769588 0
M  V30 4992 C 472.763 -1.32183 -1.5235 0
M  V30 4993 C 473.076 0.0906555 -1.9539 0
M  V30 4994 O 474.282 0.266628 -2.70188 0
M  V30 4995 C 472.738 -2.32029 -2.75119 0
M  V30 4996 C 472.346 -3.78816 -2.3917 0
M  V30 4997 C 474.09 -2.35694 -3.53056 0
M  V30 4998 C 471.997 -4.70388 -3.58453 0
M  V30 4999 H 470.927 -0.491275 -0.571984 0
M  V30 5000 H 473.578 -1.63004 -0.842739 0
M  V30 5001 H 471.96 -1.94229 -3.45096 0
M  V30 5002 H 473.134 -4.25466 -1.76962 0
M  V30 5003 H 471.449 -3.78117 -1.74402 0
M  V30 5004 H 474.046 -3.01312 -4.41718 0
M  V30 5005 H 474.389 -1.37117 -3.93071 0
M  V30 5006 H 474.922 -2.72212 -2.90078 0
M  V30 5007 H 471.661 -5.70102 -3.23518 0
M  V30 5008 H 471.181 -4.28442 -4.19758 0
M  V30 5009 H 472.86 -4.87628 -4.25239 0
M  V30 5010 N 472.992 0.995999 -1.22138 0
M  V30 5011 C 474.403 1.54961 -1.04135 0
M  V30 5012 C 474.754 1.92159 0.396147 0
M  V30 5013 O 473.879 1.74435 1.28069 0
M  V30 5014 C 474.474 2.81581 -1.88408 0
M  V30 5015 C 473.033 3.33396 -1.74712 0
M  V30 5016 C 472.18 2.06509 -1.85066 0
M  V30 5017 H 475.131 0.817436 -1.36028 0
M  V30 5018 H 475.152 3.53822 -1.39966 0
M  V30 5019 H 474.664 2.54476 -2.93025 0
M  V30 5020 H 472.765 3.65416 -0.728159 0
M  V30 5021 H 472.878 4.04208 -2.57202 0
M  V30 5022 H 471.242 2.19925 -1.28472 0
M  V30 5023 H 472.025 1.81804 -2.91208 0
M  V30 5024 N 474.47 1.03057 1.19235 0
M  V30 5025 C 475.719 0.72326 1.88287 0
M  V30 5026 C 476.032 -0.751333 1.80594 0
M  V30 5027 O 477.238 -1.17176 2.44912 0
M  V30 5028 C 475.694 1.24338 3.3774 0
M  V30 5029 C 475.302 2.74587 3.53986 0
M  V30 5030 C 477.046 1.01213 4.12257 0
M  V30 5031 C 474.953 3.20009 4.97341 0
M  V30 5032 H 473.883 0.266848 0.705201 0
M  V30 5033 H 476.534 1.24509 1.34795 0
M  V30 5034 H 474.916 0.649457 3.90638 0
M  V30 5035 H 476.09 3.39649 3.11408 0
M  V30 5036 H 474.405 2.9601 2.9286 0
M  V30 5037 H 477.002 1.32675 5.17978 0
M  V30 5038 H 477.345 -0.051001 4.16269 0
M  V30 5039 H 477.878 1.57014 3.65501 0
M  V30 5040 H 474.617 4.25659 4.98493 0
M  V30 5041 H 474.137 2.59676 5.40674 0
M  V30 5042 H 475.816 3.13447 5.66003 0
M  V30 5043 N 475.948 -1.35272 0.808662 0
M  V30 5044 C 477.195 -1.98709 0.390003 0
M  V30 5045 C 477.523 -1.64148 -1.04335 0
M  V30 5046 O 476.778 -0.897797 -1.73891 0
M  V30 5047 C 477.077 -3.53556 0.522798 0
M  V30 5048 C 476.743 -4.0799 1.91977 0
M  V30 5049 C 475.405 -4.22568 2.30195 0
M  V30 5050 C 477.757 -4.37442 2.83361 0
M  V30 5051 C 475.085 -4.63918 3.59162 0
M  V30 5052 C 477.437 -4.80232 4.11776 0
M  V30 5053 C 476.101 -4.93016 4.49991 0
M  V30 5054 H 475.371 -0.727127 0.142712 0
M  V30 5055 H 478.018 -1.6145 1.02985 0
M  V30 5056 H 476.323 -3.91287 -0.200494 0
M  V30 5057 H 478.02 -4.00598 0.179608 0
M  V30 5058 H 474.61 -3.97096 1.61284 0
M  V30 5059 H 478.794 -4.25731 2.55083 0
M  V30 5060 H 474.05 -4.72005 3.88615 0
M  V30 5061 H 478.224 -5.01982 4.82687 0
M  V30 5062 H 475.851 -5.24814 5.49976 0
M  V30 5063 N 477.426 -0.562348 -1.47226 0
M  V30 5064 C 478.389 0.172056 -2.28553 0
M  V30 5065 C 479.389 0.837928 -1.37242 0
M  V30 5066 O 480.579 0.693001 -1.59822 0
M  V30 5067 C 477.711 1.25223 -3.17068 0
M  V30 5068 H 478.904 -0.542401 -2.94954 0
M  V30 5069 H 476.457 -0.319493 -1.53 0
M  V30 5070 H 477.192 1.99892 -2.55369 0
M  V30 5071 H 476.977 0.779515 -3.84273 0
M  V30 5072 H 478.467 1.76791 -3.78332 0
M  V30 5073 N 478.904 1.54736 -0.299062 0
M  V30 5074 C 480.15 2.00397 0.311244 0
M  V30 5075 C 480.483 1.18716 1.53688 0
M  V30 5076 O 479.758 0.263154 1.92712 0
M  V30 5077 C 480.041 3.53817 0.669761 0
M  V30 5078 C 479.894 4.46239 -0.564882 0
M  V30 5079 C 481.213 4.13856 1.49702 0
M  V30 5080 H 478.332 0.728493 0.111653 0
M  V30 5081 H 480.974 1.85506 -0.410774 0
M  V30 5082 H 479.124 3.66637 1.28491 0
M  V30 5083 H 480.796 4.45328 -1.20337 0
M  V30 5084 H 479.039 4.16916 -1.19849 0
M  V30 5085 H 479.71 5.5134 -0.269918 0
M  V30 5086 H 482.186 4.04461 0.977284 0
M  V30 5087 H 481.062 5.21365 1.71666 0
M  V30 5088 H 481.323 3.65608 2.48563 0
M  V30 5089 N 480.382 0.0267497 1.57577 0
M  V30 5090 C 481.61 -0.662661 1.96001 0
M  V30 5091 C 482.025 -1.65799 0.903117 0
M  V30 5092 O 481.382 -1.82135 -0.115317 0
M  V30 5093 C 481.433 -1.37112 3.34488 0
M  V30 5094 O 481.154 -0.415683 4.36123 0
M  V30 5095 C 482.655 -2.15257 3.8753 0
M  V30 5096 H 479.875 -0.18287 0.6456 0
M  V30 5097 H 482.419 0.0858116 2.0432 0
M  V30 5098 H 480.574 -2.07101 3.27395 0
M  V30 5099 H 480.988 -0.918496 5.16395 0
M  V30 5100 H 482.462 -2.60285 4.86781 0
M  V30 5101 H 482.939 -2.99063 3.21649 0
M  V30 5102 H 483.545 -1.50231 3.97883 0
M  V30 5103 N 481.861 -1.55662 -0.24637 0
M  V30 5104 C 482.809 -1.91186 -1.3248 0
M  V30 5105 C 483.803 -0.790996 -1.49799 0
M  V30 5106 O 485.009 -0.975617 -1.51267 0
M  V30 5107 H 481.384 -0.607207 -0.443626 0
M  V30 5108 H 483.355 -2.81221 -0.997853 0
M  V30 5109 C 482.104 -2.22349 -2.67313 0
M  V30 5110 H 481.427 -3.08097 -2.54786 0
M  V30 5111 H 482.867 -2.51107 -3.41645 0
M  V30 5112 C 481.326 -1.04001 -3.20446 0
M  V30 5113 O 481.856 -0.28828 -4.00664 0
M  V30 5114 N 480.062 -0.830494 -2.7848 0
M  V30 5115 H 479.609 -1.4435 -2.13356 0
M  V30 5116 H 479.567 -0.0403258 -3.14374 0
M  V30 5117 N 483.339 0.512053 -1.4905 0
M  V30 5118 C 484.569 1.28928 -1.61434 0
M  V30 5119 C 484.977 1.87107 -0.280647 0
M  V30 5120 O 484.32 1.68024 0.742537 0
M  V30 5121 C 484.382 2.466 -2.61588 0
M  V30 5122 C 484.046 2.09375 -4.06216 0
M  V30 5123 C 485.043 1.63994 -4.93358 0
M  V30 5124 C 482.728 2.19348 -4.51876 0
M  V30 5125 C 484.722 1.29076 -6.24194 0
M  V30 5126 C 482.409 1.84041 -5.82728 0
M  V30 5127 C 483.407 1.38978 -6.68711 0
M  V30 5128 O 483.095 1.04144 -7.97126 0
M  V30 5129 H 482.827 0.397668 -0.546659 0
M  V30 5130 H 485.381 0.622507 -1.9574 0
M  V30 5131 H 483.611 3.16318 -2.22441 0
M  V30 5132 H 485.3 3.08642 -2.63619 0
M  V30 5133 H 486.066 1.55744 -4.59313 0
M  V30 5134 H 481.945 2.53376 -3.85125 0
M  V30 5135 H 485.489 0.938303 -6.91261 0
M  V30 5136 H 481.386 1.91938 -6.16304 0
M  V30 5137 H 482.154 1.17387 -8.10039 0
M  V30 5138 N 484.817 1.37938 0.762283 0
M  V30 5139 C 486.042 1.37059 1.55659 0
M  V30 5140 C 486.467 -0.0396123 1.88058 0
M  V30 5141 O 485.825 -1.01929 1.49934 0
M  V30 5142 C 485.873 2.22494 2.83776 0
M  V30 5143 O 484.977 1.63607 3.78559 0
M  V30 5144 H 484.318 0.467892 0.47114 0
M  V30 5145 H 486.848 1.81587 0.942725 0
M  V30 5146 H 486.858 2.36045 3.32786 0
M  V30 5147 H 485.533 3.24993 2.59524 0
M  V30 5148 H 484.11 1.5915 3.37233 0
M  V30 5149 N 486.295 -0.989507 1.22664 0
M  V30 5150 C 487.525 -1.7624 1.0781 0
M  V30 5151 C 487.933 -1.85466 -0.374036 0
M  V30 5152 O 487.276 -1.32645 -1.27087 0
M  V30 5153 C 487.338 -3.21007 1.61849 0
M  V30 5154 C 487.002 -3.35316 3.10503 0
M  V30 5155 C 487.999 -3.22362 4.07896 0
M  V30 5156 C 485.684 -3.60258 3.50028 0
M  V30 5157 C 487.678 -3.34139 5.42798 0
M  V30 5158 C 485.365 -3.71676 4.85078 0
M  V30 5159 C 486.363 -3.58625 5.81272 0
M  V30 5160 O 486.051 -3.69655 7.1387 0
M  V30 5161 H 485.783 -0.560209 0.378341 0
M  V30 5162 H 488.337 -1.25252 1.62792 0
M  V30 5163 H 486.567 -3.73202 1.01279 0
M  V30 5164 H 488.256 -3.80024 1.42606 0
M  V30 5165 H 489.022 -3.03 3.78703 0
M  V30 5166 H 484.901 -3.69492 2.75675 0
M  V30 5167 H 488.445 -3.23869 6.17863 0
M  V30 5168 H 484.342 -3.90545 5.1395 0
M  V30 5169 H 485.11 -3.86507 7.21495 0
M  V30 5170 N 487.773 -1.03688 -1.18687 0
M  V30 5171 C 488.998 -0.757819 -1.93059 0
M  V30 5172 C 489.423 0.678353 -1.75442 0
M  V30 5173 O 488.781 1.46938 -1.06203 0
M  V30 5174 C 488.829 -1.12423 -3.42627 0
M  V30 5175 O 487.933 -0.247505 -4.11657 0
M  V30 5176 H 487.274 -0.279245 -0.602427 0
M  V30 5177 H 489.804 -1.3857 -1.5053 0
M  V30 5178 H 489.814 -1.08454 -3.93322 0
M  V30 5179 H 488.489 -2.17049 -3.54771 0
M  V30 5180 H 487.066 -0.34649 -3.71287 0
M  V30 5181 N 489.251 1.34841 -0.815825 0
M  V30 5182 C 490.481 2.02436 -0.412695 0
M  V30 5183 C 490.889 1.61604 0.983906 0
M  V30 5184 O 490.232 0.813729 1.64694 0
M  V30 5185 C 490.294 3.56953 -0.427182 0
M  V30 5186 C 489.958 4.21083 -1.77589 0
M  V30 5187 C 490.955 4.42107 -2.73564 0
M  V30 5188 C 488.64 4.58006 -2.06243 0
M  V30 5189 C 490.634 4.99169 -3.9637 0
M  V30 5190 C 488.321 5.1478 -3.2931 0
M  V30 5191 C 489.319 5.35304 -4.24191 0
M  V30 5192 O 489.007 5.90878 -5.45086 0
M  V30 5193 H 488.739 0.655631 -0.164695 0
M  V30 5194 H 491.293 1.73246 -1.1034 0
M  V30 5195 H 489.523 3.85372 0.320175 0
M  V30 5196 H 491.212 4.05875 -0.0450875 0
M  V30 5197 H 491.978 4.13953 -2.52721 0
M  V30 5198 H 487.857 4.41339 -1.33196 0
M  V30 5199 H 491.401 5.15105 -4.70439 0
M  V30 5200 H 487.298 5.42362 -3.5002 0
M  V30 5201 H 488.066 6.0932 -5.46508 0
M  V30 5202 N 490.729 0.570148 1.46925 0
M  V30 5203 C 491.959 0.0561151 2.06524 0
M  V30 5204 C 492.367 -1.24874 1.42137 0
M  V30 5205 O 491.71 -1.76292 0.516417 0
M  V30 5206 C 491.772 -0.197035 3.5896 0
M  V30 5207 C 491.436 1.02033 4.45464 0
M  V30 5208 C 492.433 1.92921 4.82781 0
M  V30 5209 C 490.118 1.23864 4.86788 0
M  V30 5210 C 492.112 3.03999 5.60235 0
M  V30 5211 C 489.799 2.35249 5.64004 0
M  V30 5212 C 490.797 3.25146 6.0064 0
M  V30 5213 O 490.485 4.34598 6.76299 0
M  V30 5214 H 490.217 0.0487409 0.674241 0
M  V30 5215 H 492.771 0.786915 1.89728 0
M  V30 5216 H 491.001 -0.982299 3.74016 0
M  V30 5217 H 492.69 -0.658032 4.00531 0
M  V30 5218 H 493.456 1.77265 4.51444 0
M  V30 5219 H 489.335 0.54805 4.57731 0
M  V30 5220 H 492.879 3.74192 5.8875 0
M  V30 5221 H 488.776 2.50873 5.94755 0
M  V30 5222 H 489.544 4.32808 6.94708 0
M  V30 5223 N 492.207 -1.54576 0.307264 0
M  V30 5224 C 493.117 -2.27435 -0.57536 0
M  V30 5225 C 494.133 -1.31183 -1.14311 0
M  V30 5226 O 495.309 -1.64175 -1.16656 0
M  V30 5227 C 492.374 -3.00566 -1.72803 0
M  V30 5228 C 491.435 -4.12369 -1.19373 0
M  V30 5229 C 490.668 -4.82003 -2.29147 0
M  V30 5230 O 490.891 -4.51038 -3.49171 0
M  V30 5231 O 489.825 -5.69271 -1.95485 0
M  V30 5232 H 493.651 -3.03696 0.0158558 0
M  V30 5233 H 491.236 -1.49219 0.0735064 0
M  V30 5234 H 493.118 -3.46416 -2.39946 0
M  V30 5235 H 491.793 -2.27195 -2.30574 0
M  V30 5236 H 490.7 -3.70905 -0.487851 0
M  V30 5237 H 492.033 -4.87736 -0.661376 0
M  V30 5238 N 493.685 -0.035106 -1.57561 0
M  V30 5239 C 494.632 0.94474 -2.10578 0
M  V30 5240 C 495.602 1.3192 -1.00927 0
M  V30 5241 O 496.787 1.41147 -1.28382 0
M  V30 5242 C 493.927 2.21982 -2.64231 0
M  V30 5243 C 493.04 1.90128 -3.87911 0
M  V30 5244 C 492.175 3.11975 -4.29936 0
M  V30 5245 C 491.214 2.75968 -5.46359 0
M  V30 5246 N 490.351 3.90459 -5.83512 0
M  V30 5247 H 495.191 0.485717 -2.94015 0
M  V30 5248 H 492.728 0.228143 -1.4532 0
M  V30 5249 H 494.686 2.96572 -2.9343 0
M  V30 5250 H 493.316 2.6549 -1.83616 0
M  V30 5251 H 492.368 1.05755 -3.65404 0
M  V30 5252 H 493.68 1.59613 -4.72573 0
M  V30 5253 H 492.834 3.9488 -4.60603 0
M  V30 5254 H 491.573 3.45657 -3.44053 0
M  V30 5255 H 490.578 1.91478 -5.1538 0
M  V30 5256 H 491.803 2.43497 -6.33945 0
M  V30 5257 H 489.749 4.23971 -5.00584 0
M  V30 5258 H 489.666 3.63588 -6.62827 0
M  V30 5259 H 490.934 4.7405 -6.18787 0
M  V30 5260 N 495.163 1.55791 0.238111 0
M  V30 5261 C 496.093 1.94068 1.29846 0
M  V30 5262 C 497.074 0.806726 1.49753 0
M  V30 5263 O 498.259 1.06772 1.62214 0
M  V30 5264 C 495.389 2.24302 2.65153 0
M  V30 5265 C 494.343 3.40032 2.59927 0
M  V30 5266 C 493.669 3.55829 3.99111 0
M  V30 5267 C 494.969 4.75476 2.16148 0
M  V30 5268 H 496.663 2.82887 0.980563 0
M  V30 5269 H 494.209 1.36105 0.470253 0
M  V30 5270 H 496.162 2.4967 3.39475 0
M  V30 5271 H 494.886 1.32318 2.98596 0
M  V30 5272 H 493.545 3.14687 1.88063 0
M  V30 5273 H 493.193 2.6125 4.29834 0
M  V30 5274 H 492.893 4.3366 3.96501 0
M  V30 5275 H 494.417 3.83528 4.7512 0
M  V30 5276 H 495.831 5.00158 2.80205 0
M  V30 5277 H 494.228 5.56472 2.24631 0
M  V30 5278 H 495.298 4.71946 1.11333 0
M  V30 5279 N 496.642 -0.504142 1.49319 0
M  V30 5280 C 497.592 -1.60284 1.62151 0
M  V30 5281 C 498.576 -1.53657 0.477315 0
M  V30 5282 O 499.768 -1.6124 0.730108 0
M  V30 5283 C 496.897 -2.98909 1.68844 0
M  V30 5284 C 495.983 -3.10544 2.8883 0
M  V30 5285 N 496.374 -2.92078 4.12946 0
M  V30 5286 C 494.672 -3.4164 2.86702 0
M  V30 5287 C 495.373 -3.07812 4.93585 0
M  V30 5288 N 494.349 -3.36549 4.26891 0
M  V30 5289 H 498.151 -1.44656 2.55835 0
M  V30 5290 H 495.665 -0.710198 1.46048 0
M  V30 5291 H 497.662 -3.77865 1.76134 0
M  V30 5292 H 496.322 -3.15609 0.762943 0
M  V30 5293 H 497.333 -2.68316 4.42975 0
M  V30 5294 H 494.01 -3.64537 2.03517 0
M  V30 5295 H 495.4 -2.98054 6.02174 0
M  V30 5296 N 498.12 -1.38341 -0.754957 0
M  V30 5297 C 499.348 -1.37704 -1.54419 0
M  V30 5298 C 499.763 0.0335243 -1.8877 0
M  V30 5299 O 499.12 0.999773 -1.52679 0
M  V30 5300 C 499.171 -2.23136 -2.84416 0
M  V30 5301 O 498.892 -3.58697 -2.51531 0
M  V30 5302 C 500.393 -2.30664 -3.78562 0
M  V30 5303 H 497.613 -0.471061 -0.477852 0
M  V30 5304 H 500.157 -1.81902 -0.934446 0
M  V30 5305 H 498.312 -1.82403 -3.41772 0
M  V30 5306 H 498.726 -4.03665 -3.34896 0
M  V30 5307 H 500.2 -2.9473 -4.66732 0
M  V30 5308 H 500.677 -1.3199 -4.18898 0
M  V30 5309 H 501.283 -2.71781 -3.27131 0
M  V30 5310 N 499.598 0.982988 -1.23187 0
M  V30 5311 C 500.828 1.75666 -1.08743 0
M  V30 5312 C 501.236 1.85662 0.364195 0
M  V30 5313 O 500.579 1.33317 1.26382 0
M  V30 5314 C 500.641 3.20144 -1.63549 0
M  V30 5315 C 500.305 3.33665 -3.12277 0
M  V30 5316 C 501.302 3.20194 -4.096 0
M  V30 5317 C 498.987 3.58397 -3.51933 0
M  V30 5318 C 500.981 3.31256 -5.44563 0
M  V30 5319 C 498.668 3.69098 -4.87042 0
M  V30 5320 C 499.666 3.55537 -5.83166 0
M  V30 5321 O 499.354 3.65864 -7.1582 0
M  V30 5322 H 499.086 0.558194 -0.381307 0
M  V30 5323 H 501.64 1.24387 -1.63454 0
M  V30 5324 H 499.87 3.72659 -1.03256 0
M  V30 5325 H 501.559 3.79262 -1.4462 0
M  V30 5326 H 502.325 3.00987 -3.80305 0
M  V30 5327 H 498.204 3.68025 -2.77631 0
M  V30 5328 H 501.748 3.20588 -6.19572 0
M  V30 5329 H 497.645 3.87814 -5.16014 0
M  V30 5330 H 498.413 3.82675 -7.23534 0
M  V30 5331 N 501.076 1.04316 1.18135 0
M  V30 5332 C 502.323 0.74802 1.88178 0
M  V30 5333 C 502.651 -0.72441 1.80506 0
M  V30 5334 O 501.906 -1.54463 1.20165 0
M  V30 5335 C 502.205 1.16271 3.37958 0
M  V30 5336 C 501.871 2.63585 3.65833 0
M  V30 5337 C 500.533 3.03829 3.73151 0
M  V30 5338 C 502.885 3.58822 3.78016 0
M  V30 5339 C 500.213 4.38194 3.90132 0
M  V30 5340 C 502.565 4.92909 3.96514 0
M  V30 5341 C 501.229 5.3282 4.02068 0
M  V30 5342 H 500.499 0.27372 0.688592 0
M  V30 5343 H 503.146 1.30863 1.39811 0
M  V30 5344 H 501.451 0.520938 3.88321 0
M  V30 5345 H 503.148 0.911672 3.90499 0
M  V30 5346 H 499.738 2.31414 3.60757 0
M  V30 5347 H 503.922 3.28875 3.71692 0
M  V30 5348 H 499.178 4.68631 3.92677 0
M  V30 5349 H 503.352 5.66606 4.04883 0
M  V30 5350 H 500.979 6.36943 4.14979 0
M  V30 5351 N 502.554 -1.34406 0.822964 0
M  V30 5352 C 503.965 -1.8069 0.469879 0
M  V30 5353 C 504.316 -1.68223 -1.00972 0
M  V30 5354 O 503.441 -1.22226 -1.78577 0
M  V30 5355 C 504.036 -3.28064 0.846118 0
M  V30 5356 C 502.595 -3.72428 0.545402 0
M  V30 5357 C 501.742 -2.56116 1.06301 0
M  V30 5358 H 504.693 -1.22153 1.01313 0
M  V30 5359 H 504.714 -3.80205 0.149922 0
M  V30 5360 H 504.226 -3.37107 1.92304 0
M  V30 5361 H 502.327 -3.68924 -0.522109 0
M  V30 5362 H 502.44 -4.66548 1.0895 0
M  V30 5363 H 500.804 -2.50048 0.484554 0
M  V30 5364 H 501.587 -2.67928 2.14638 0
M  V30 5365 N 504.032 -0.577932 -1.46621 0
M  V30 5366 C 505.278 -0.0617793 -2.02706 0
M  V30 5367 C 505.611 1.29294 -1.44903 0
M  V30 5368 O 504.886 1.8461 -0.61232 0
M  V30 5369 C 505.169 0.00911824 -3.60099 0
M  V30 5370 C 505.022 -1.37416 -4.28295 0
M  V30 5371 C 506.341 0.712159 -4.343 0
M  V30 5372 H 503.46 -0.0239246 -0.736612 0
M  V30 5373 H 506.102 -0.744211 -1.74818 0
M  V30 5374 H 504.252 0.590292 -3.83989 0
M  V30 5375 H 505.924 -2.00013 -4.15683 0
M  V30 5376 H 504.167 -1.94319 -3.87843 0
M  V30 5377 H 504.838 -1.27707 -5.37024 0
M  V30 5378 H 507.314 0.218486 -4.15526 0
M  V30 5379 H 506.19 0.730782 -5.44014 0
M  V30 5380 H 506.451 1.77251 -4.05012 0
M  V30 5381 N 505.51 1.54411 -0.315457 0
M  V30 5382 C 506.735 2.05299 0.294496 0
M  V30 5383 C 507.16 1.19052 1.4563 0
M  V30 5384 O 506.518 0.197804 1.80218 0
M  V30 5385 C 506.566 3.5345 0.714549 0
M  V30 5386 O 505.67 3.70175 1.81781 0
M  V30 5387 H 505.011 0.661743 0.0547019 0
M  V30 5388 H 507.541 1.99327 -0.461508 0
M  V30 5389 H 507.551 3.9557 0.999426 0
M  V30 5390 H 506.226 4.1568 -0.135244 0
M  V30 5391 H 504.803 3.3996 1.53236 0
M  V30 5392 N 506.988 0.0434614 1.5754 0
M  V30 5393 C 508.213 -0.645358 1.97104 0
M  V30 5394 C 508.638 -1.64037 0.920521 0
M  V30 5395 O 507.996 -1.80922 -0.11708 0
M  V30 5396 C 508.044 -1.31547 3.35749 0
M  V30 5397 O 507.148 -2.43103 3.33129 0
M  V30 5398 H 506.489 -0.168403 0.64229 0
M  V30 5399 H 509.019 0.109573 2.04306 0
M  V30 5400 H 509.029 -1.66895 3.72304 0
M  V30 5401 H 507.704 -0.586205 4.11748 0
M  V30 5402 H 506.281 -2.0976 3.0831 0
M  V30 5403 N 508.466 -1.55915 -0.229846 0
M  V30 5404 C 509.396 -1.94754 -1.28815 0
M  V30 5405 C 510.377 -0.814657 -1.49323 0
M  V30 5406 O 511.562 -1.07631 -1.61645 0
M  V30 5407 C 508.692 -2.25705 -2.63959 0
M  V30 5408 C 507.646 -3.41406 -2.5812 0
M  V30 5409 C 506.972 -3.57941 -3.97218 0
M  V30 5410 C 508.272 -4.76616 -2.13623 0
M  V30 5411 H 509.966 -2.83404 -0.965547 0
M  V30 5412 H 507.512 -1.36353 -0.463028 0
M  V30 5413 H 509.465 -2.51467 -3.38146 0
M  V30 5414 H 508.189 -1.339 -2.9789 0
M  V30 5415 H 506.848 -3.1568 -1.86391 0
M  V30 5416 H 506.496 -2.63526 -4.28443 0
M  V30 5417 H 506.196 -4.35757 -3.94195 0
M  V30 5418 H 507.72 -3.86042 -4.73079 0
M  V30 5419 H 509.134 -5.01637 -2.77549 0
M  V30 5420 H 507.531 -5.57655 -2.21677 0
M  V30 5421 H 508.601 -4.7253 -1.08829 0
M  V30 5422 N 509.944 0.496216 -1.49584 0
M  V30 5423 C 511.192 1.24756 -1.58998 0
M  V30 5424 C 511.513 1.92968 -0.280775 0
M  V30 5425 O 510.783 1.82959 0.700198 0
M  V30 5426 H 509.363 0.463471 -0.585836 0
M  V30 5427 H 512.025 0.574678 -1.86235 0
M  V30 5428 H 511.121 2.00895 -2.38847 0
M  V30 5429 N 511.423 1.38739 0.74761 0
M  V30 5430 C 512.669 1.35475 1.50912 0
M  V30 5431 C 513.002 -0.0533093 1.94127 0
M  V30 5432 O 512.277 -1.01572 1.65871 0
M  V30 5433 C 512.56 2.31582 2.75757 0
M  V30 5434 C 512.413 3.81274 2.38642 0
M  V30 5435 C 513.732 2.25722 3.77806 0
M  V30 5436 H 510.851 0.493427 0.547447 0
M  V30 5437 H 513.493 1.69634 0.855823 0
M  V30 5438 H 511.643 2.02582 3.31501 0
M  V30 5439 H 513.315 4.20972 1.88626 0
M  V30 5440 H 511.558 3.98664 1.71025 0
M  V30 5441 H 512.229 4.4399 3.27989 0
M  V30 5442 H 514.705 2.51336 3.31616 0
M  V30 5443 H 513.581 2.95069 4.62845 0
M  V30 5444 H 513.842 1.25803 4.23823 0
M  V30 5445 N 512.901 -0.976442 1.23707 0
M  V30 5446 C 513.831 -2.08749 1.04624 0
M  V30 5447 C 514.812 -1.70057 -0.0380956 0
M  V30 5448 O 515.997 -1.93782 0.127308 0
M  V30 5449 C 513.127 -3.41335 0.640902 0
M  V30 5450 C 512.081 -3.93947 1.67302 0
M  V30 5451 C 511.407 -5.22774 1.12301 0
M  V30 5452 C 512.707 -4.22769 3.06697 0
M  V30 5453 H 514.401 -2.24972 1.97555 0
M  V30 5454 H 511.947 -1.08108 0.951247 0
M  V30 5455 H 513.9 -4.18489 0.494434 0
M  V30 5456 H 512.624 -3.24988 -0.324099 0
M  V30 5457 H 511.283 -3.18941 1.80755 0
M  V30 5458 H 510.931 -5.0278 0.148877 0
M  V30 5459 H 510.631 -5.58942 1.81267 0
M  V30 5460 H 512.155 -6.02546 0.988479 0
M  V30 5461 H 513.569 -4.90659 2.96524 0
M  V30 5462 H 511.966 -4.70147 3.72937 0
M  V30 5463 H 513.036 -3.29885 3.55392 0
M  V30 5464 N 514.379 -1.04941 -1.1758 0
M  V30 5465 C 515.311 -0.606174 -2.21039 0
M  V30 5466 C 516.324 0.328763 -1.59446 0
M  V30 5467 O 517.513 0.121895 -1.78083 0
M  V30 5468 C 514.613 0.133294 -3.38638 0
M  V30 5469 C 513.786 -0.811711 -4.29802 0
M  V30 5470 C 512.845 -0.113958 -5.26077 0
M  V30 5471 O 511.871 -0.747237 -5.64274 0
M  V30 5472 N 513.073 1.14953 -5.69004 0
M  V30 5473 H 515.838 -1.49606 -2.59689 0
M  V30 5474 H 513.399 -0.930997 -1.32454 0
M  V30 5475 H 515.391 0.610144 -4.00074 0
M  V30 5476 H 513.961 0.924816 -2.98607 0
M  V30 5477 H 513.181 -1.46824 -3.65837 0
M  V30 5478 H 514.469 -1.45326 -4.87604 0
M  V30 5479 H 513.867 1.68441 -5.40041 0
M  V30 5480 H 512.424 1.57049 -6.32597 0
M  V30 5481 N 515.857 1.33968 -0.830081 0
M  V30 5482 C 516.767 2.33164 -0.259207 0
M  V30 5483 C 517.783 1.62951 0.610164 0
M  V30 5484 O 518.959 1.94668 0.516369 0
M  V30 5485 C 516.024 3.42088 0.563598 0
M  V30 5486 C 515.085 4.28037 -0.329014 0
M  V30 5487 C 514.318 5.3176 0.454616 0
M  V30 5488 O 514.541 5.44876 1.6872 0
M  V30 5489 O 513.475 6.01669 -0.166794 0
M  V30 5490 H 517.301 2.83832 -1.08041 0
M  V30 5491 H 514.886 1.37154 -0.59239 0
M  V30 5492 H 516.768 4.08581 1.03147 0
M  V30 5493 H 515.443 2.93651 1.36201 0
M  V30 5494 H 514.35 3.64443 -0.844538 0
M  V30 5495 H 515.683 4.79934 -1.09196 0
M  V30 5496 N 517.335 0.585699 1.46312 0
M  V30 5497 C 518.612 0.00542031 1.95599 0
M  V30 5498 C 518.992 -1.45619 1.52834 0
M  V30 5499 O 518.34 -2.14759 0.780446 0
M  V30 5500 C 518.55 0.180601 3.48532 0
M  V30 5501 C 519.898 0.049979 4.24571 0
M  V30 5502 O 520.922 0.109589 3.56031 0
M  V30 5503 O 519.781 -0.0832226 5.46437 0
M  V30 5504 H 516.875 -0.0481281 0.825598 0
M  V30 5505 H 519.421 0.654227 1.56582 0
M  V30 5506 H 518.193 1.19657 3.72556 0
M  V30 5507 H 517.816 -0.504498 3.94386 0
M  V30 5508 N 518.813 -1.54241 0.323641 0
M  V30 5509 C 520.038 -2.05452 -0.283605 0
M  V30 5510 C 520.463 -1.19823 -1.44997 0
M  V30 5511 O 519.821 -0.207358 -1.8011 0
M  V30 5512 C 519.869 -3.53823 -0.695795 0
M  V30 5513 O 518.973 -3.71134 -1.79815 0
M  V30 5514 H 518.314 -0.662024 -0.0511917 0
M  V30 5515 H 520.844 -1.99079 0.472073 0
M  V30 5516 H 520.854 -3.96094 -0.978434 0
M  V30 5517 H 519.529 -4.15602 0.157287 0
M  V30 5518 H 518.106 -3.40768 -1.51431 0
M  V30 5519 N 520.291 -0.0518155 -1.57515 0
M  V30 5520 C 521.516 0.634896 -1.97443 0
M  V30 5521 C 521.941 1.63546 -0.929207 0
M  V30 5522 O 521.299 1.80981 0.107484 0
M  V30 5523 C 521.347 1.29765 -3.36442 0
M  V30 5524 O 520.451 2.41333 -3.34413 0
M  V30 5525 H 519.792 0.164994 -0.643174 0
M  V30 5526 H 522.322 -0.120407 -2.04245 0
M  V30 5527 H 522.332 1.64918 -3.73184 0
M  V30 5528 H 521.007 0.564361 -4.12053 0
M  V30 5529 H 519.584 2.08122 -3.09418 0
M  V30 5530 N 521.769 1.56035 0.221574 0
M  V30 5531 C 522.717 1.93269 1.29421 0
M  V30 5532 C 523.711 0.814727 1.48521 0
M  V30 5533 O 524.917 0.999559 1.49696 0
M  V30 5534 H 521.292 0.614188 0.43391 0
M  V30 5535 H 523.263 2.82773 0.952987 0
M  V30 5536 C 522.012 2.26573 2.63742 0
M  V30 5537 H 521.335 3.12112 2.49853 0
M  V30 5538 H 522.775 2.5651 3.37607 0
M  V30 5539 C 521.234 1.09086 3.1875 0
M  V30 5540 O 521.764 0.351985 4.00155 0
M  V30 5541 N 519.97 0.874693 2.77124 0
M  V30 5542 H 519.517 1.47726 2.11033 0
M  V30 5543 H 519.475 0.0903349 3.1427 0
M  V30 5544 N 523.247 -0.488276 1.49845 0
M  V30 5545 C 524.496 -1.23826 1.59217 0
M  V30 5546 C 524.809 -1.93439 0.289966 0
M  V30 5547 O 526.015 -2.70229 0.262382 0
M  V30 5548 C 524.471 -2.24902 2.80976 0
M  V30 5549 C 524.079 -1.6117 4.18005 0
M  V30 5550 C 525.823 -3.00648 2.99685 0
M  V30 5551 C 523.73 -2.60431 5.3097 0
M  V30 5552 H 522.66 -0.465858 0.592868 0
M  V30 5553 H 525.311 -0.510645 1.76252 0
M  V30 5554 H 523.693 -3.0088 2.57463 0
M  V30 5555 H 524.867 -0.910968 4.51706 0
M  V30 5556 H 523.182 -0.97767 4.0476 0
M  V30 5557 H 525.779 -3.74903 3.81251 0
M  V30 5558 H 526.122 -3.5902 2.10738 0
M  V30 5559 H 526.655 -2.31784 3.23297 0
M  V30 5560 H 523.394 -2.06823 6.22017 0
M  V30 5561 H 522.914 -3.28707 5.01709 0
M  V30 5562 H 524.593 -3.22606 5.60834 0
M  V30 5563 N 524.725 -1.39134 -0.740242 0
M  V30 5564 C 525.971 -1.36273 -1.50192 0
M  V30 5565 C 526.304 0.0430136 -1.94152 0
M  V30 5566 O 525.579 1.00691 -1.66408 0
M  V30 5567 C 525.862 -2.33041 -2.74525 0
M  V30 5568 C 525.715 -3.82535 -2.36617 0
M  V30 5569 C 527.034 -2.27723 -3.76604 0
M  V30 5570 H 524.153 -0.496323 -0.544823 0
M  V30 5571 H 526.795 -1.70085 -0.846815 0
M  V30 5572 H 524.945 -2.04337 -3.30422 0
M  V30 5573 H 526.617 -4.21967 -1.86391 0
M  V30 5574 H 524.86 -3.99565 -1.68909 0
M  V30 5575 H 525.531 -4.45723 -3.2563 0
M  V30 5576 H 528.007 -2.53091 -3.30279 0
M  V30 5577 H 526.883 -2.97519 -4.61274 0
M  V30 5578 H 527.144 -1.28049 -4.2315 0
M  V30 5579 N 526.204 0.969867 -1.24223 0
M  V30 5580 C 527.114 2.09806 -1.0497 0
M  V30 5581 C 528.13 1.73998 0.00886455 0
M  V30 5582 O 529.306 2.00513 -0.188848 0
M  V30 5583 C 526.371 3.40467 -0.654452 0
M  V30 5584 C 525.432 3.90236 -1.78926 0
M  V30 5585 C 524.665 5.14662 -1.41277 0
M  V30 5586 O 524.888 5.69602 -0.301632 0
M  V30 5587 O 523.822 5.58761 -2.23763 0
M  V30 5588 H 527.648 2.28942 -1.99548 0
M  V30 5589 H 525.233 1.08197 -1.03023 0
M  V30 5590 H 527.115 4.19039 -0.445452 0
M  V30 5591 H 525.79 3.22636 0.262216 0
M  V30 5592 H 524.697 3.12735 -2.05299 0
M  V30 5593 H 526.03 4.1254 -2.68462 0
M  V30 5594 N 527.682 1.05563 1.17022 0
M  V30 5595 C 528.612 0.681026 2.23348 0
M  V30 5596 C 529.593 -0.322983 1.67005 0
M  V30 5597 O 530.778 -0.199746 1.9317 0
M  V30 5598 C 527.908 0.0589053 3.4725 0
M  V30 5599 C 526.862 0.988082 4.16438 0
M  V30 5600 C 526.188 0.229646 5.34207 0
M  V30 5601 C 527.488 2.31388 4.68249 0
M  V30 5602 H 529.182 1.56993 2.54938 0
M  V30 5603 H 526.728 0.756302 1.2254 0
M  V30 5604 H 528.681 -0.214982 4.20851 0
M  V30 5605 H 527.405 -0.864968 3.14938 0
M  V30 5606 H 526.064 1.24659 3.44754 0
M  V30 5607 H 525.712 -0.697111 4.98146 0
M  V30 5608 H 525.412 0.848815 5.81437 0
M  V30 5609 H 526.936 -0.0368694 6.10589 0
M  V30 5610 H 528.35 2.09964 5.33468 0
M  V30 5611 H 526.747 2.88736 5.26072 0
M  V30 5612 H 527.817 2.94982 3.84855 0
M  V30 5613 N 529.16 -1.33526 0.837174 0
M  V30 5614 C 530.09 -2.31764 0.284206 0
M  V30 5615 C 531.071 -1.58896 -0.607142 0
M  V30 5616 O 532.256 -1.86798 -0.531047 0
M  V30 5617 C 529.386 -3.43029 -0.542962 0
M  V30 5618 C 528.34 -4.27255 0.252451 0
M  V30 5619 C 527.666 -5.3012 -0.69836 0
M  V30 5620 C 528.966 -5.01229 1.46858 0
M  V30 5621 H 530.66 -2.78262 1.10502 0
M  V30 5622 H 528.206 -1.3378 0.532812 0
M  V30 5623 H 530.159 -4.1078 -0.940096 0
M  V30 5624 H 528.883 -2.95216 -1.39697 0
M  V30 5625 H 527.542 -3.61127 0.631124 0
M  V30 5626 H 527.19 -4.78564 -1.54872 0
M  V30 5627 H 526.89 -5.87353 -0.170274 0
M  V30 5628 H 528.414 -6.00737 -1.09305 0
M  V30 5629 H 529.828 -5.61756 1.14469 0
M  V30 5630 H 528.225 -5.68104 1.93333 0
M  V30 5631 H 529.295 -4.301 2.23924 0
M  V30 5632 N 530.638 -0.59345 -1.46 0
M  V30 5633 C 531.548 0.135817 -2.34207 0
M  V30 5634 C 532.564 0.875008 -1.50398 0
M  V30 5635 O 533.74 0.835778 -1.83239 0
M  V30 5636 C 530.805 1.12977 -3.27776 0
M  V30 5637 C 529.866 0.394081 -4.27487 0
M  V30 5638 C 529.099 1.34068 -5.16586 0
M  V30 5639 O 529.322 2.5778 -5.08828 0
M  V30 5640 O 528.256 0.845426 -5.95933 0
M  V30 5641 H 532.082 -0.588691 -2.9794 0
M  V30 5642 H 529.667 -0.353784 -1.45151 0
M  V30 5643 H 531.549 1.70261 -3.85473 0
M  V30 5644 H 530.224 1.83556 -2.66625 0
M  V30 5645 H 529.131 -0.220869 -3.73447 0
M  V30 5646 H 530.464 -0.270939 -4.91454 0
M  V30 5647 N 532.116 1.54067 -0.331816 0
M  V30 5648 C 533.026 2.28322 0.539104 0
M  V30 5649 C 534.042 1.32985 1.1221 0
M  V30 5650 O 535.218 1.6601 1.1403 0
M  V30 5651 C 532.283 3.03277 1.68 0
M  V30 5652 C 531.344 4.14216 1.12798 0
M  V30 5653 C 530.577 4.85588 2.2145 0
M  V30 5654 O 530.8 4.56536 3.41952 0
M  V30 5655 O 529.734 5.72309 1.86404 0
M  V30 5656 H 533.56 3.03632 -0.0641692 0
M  V30 5657 H 531.145 1.49083 -0.0972365 0
M  V30 5658 H 533.027 3.50189 2.34405 0
M  V30 5659 H 531.702 2.30834 2.2693 0
M  V30 5660 H 530.609 3.71635 0.428782 0
M  V30 5661 H 531.942 4.88727 0.583698 0
M  V30 5662 N 533.594 0.0601682 1.57485 0
M  V30 5663 C 534.557 -0.896373 2.10945 0
M  V30 5664 C 535.557 -1.23402 1.03095 0
M  V30 5665 O 536.747 -1.16921 1.29132 0
M  V30 5666 C 533.879 -2.20346 2.60116 0
M  V30 5667 H 535.072 -0.432778 2.96761 0
M  V30 5668 H 532.625 -0.188372 1.55161 0
M  V30 5669 H 533.36 -2.71268 1.7772 0
M  V30 5670 H 533.145 -1.9714 3.38937 0
M  V30 5671 H 534.635 -2.88846 3.01592 0
M  V30 5672 N 535.072 -1.5615 -0.213296 0
M  V30 5673 C 536.319 -1.79546 -0.936462 0
M  V30 5674 C 536.647 -0.630337 -1.84003 0
M  V30 5675 O 535.902 0.384883 -1.91878 0
M  V30 5676 C 536.201 -3.08772 -1.79985 0
M  V30 5677 C 535.867 -4.38532 -1.04882 0
M  V30 5678 C 534.529 -4.73787 -0.841393 0
M  V30 5679 C 536.881 -5.18609 -0.51907 0
M  V30 5680 C 534.209 -5.86627 -0.0924403 0
M  V30 5681 C 536.561 -6.32229 0.216581 0
M  V30 5682 C 535.225 -6.6608 0.435191 0
M  V30 5683 H 534.495 -0.657004 -0.342676 0
M  V30 5684 H 537.142 -1.9041 -0.204051 0
M  V30 5685 H 535.447 -2.93065 -2.60038 0
M  V30 5686 H 537.144 -3.24077 -2.36168 0
M  V30 5687 H 533.734 -4.10855 -1.22048 0
M  V30 5688 H 537.918 -4.91801 -0.666775 0
M  V30 5689 H 533.174 -6.11338 0.087081 0
M  V30 5690 H 537.348 -6.93503 0.634538 0
M  V30 5691 H 534.975 -7.5336 1.01746 0
M  V30 5692 N 536.55 0.480323 -1.50102 0
M  V30 5693 C 537.498 1.60024 -1.68805 0
M  V30 5694 C 538.492 1.60089 -0.553888 0
M  V30 5695 O 539.698 1.64349 -0.734127 0
M  V30 5696 H 536.073 0.530841 -0.532646 0
M  V30 5697 H 538.044 1.41408 -2.62767 0
M  V30 5698 C 536.793 2.98029 -1.79092 0
M  V30 5699 H 536.116 2.98694 -2.65748 0
M  V30 5700 H 537.556 3.75871 -1.96206 0
M  V30 5701 C 536.015 3.32538 -0.540388 0
M  V30 5702 O 536.545 4.00386 0.324637 0
M  V30 5703 N 534.751 2.87873 -0.397154 0
M  V30 5704 H 534.298 2.32834 -1.1021 0
M  V30 5705 H 534.256 3.11328 0.438425 0
M  V30 5706 N 538.028 1.39524 0.732853 0
M  V30 5707 C 539.444 1.21176 1.03868 0
M  V30 5708 C 539.644 0.0748448 2.01361 0
M  V30 5709 O 538.7 -0.57281 2.45917 0
M  V30 5710 C 540.013 2.54667 1.59892 0
M  V30 5711 C 541.561 2.6153 1.71962 0
M  V30 5712 C 542.036 3.95248 2.31394 0
M  V30 5713 N 543.527 3.96899 2.38801 0
M  V30 5714 C 544.262 4.97138 2.85729 0
M  V30 5715 N 543.758 6.07775 3.32537 0
M  V30 5716 N 545.551 4.84516 2.84957 0
M  V30 5717 H 537.702 2.12225 0.086304 0
M  V30 5718 H 539.965 0.942614 0.100907 0
M  V30 5719 H 539.671 3.38423 0.95721 0
M  V30 5720 H 539.545 2.74538 2.58668 0
M  V30 5721 H 541.932 1.78156 2.35254 0
M  V30 5722 H 542.013 2.45507 0.718327 0
M  V30 5723 H 541.657 4.79054 1.68729 0
M  V30 5724 H 541.587 4.08593 3.32204 0
M  V30 5725 H 544.078 3.16998 2.05719 0
M  V30 5726 H 544.391 6.8017 3.66862 0
M  V30 5727 H 542.736 6.11366 3.30541 0
M  V30 5728 H 545.927 3.97185 2.47713 0
M  V30 5729 H 546.1 5.62783 3.21215 0
M  V30 5730 N 539.506 -0.963266 1.24736 0
M  V30 5731 C 540.755 -1.70115 1.08369 0
M  V30 5732 C 541.068 -1.91939 -0.376688 0
M  V30 5733 O 542.274 -2.6334 -0.660624 0
M  V30 5734 C 540.73 -3.06218 1.89099 0
M  V30 5735 C 540.338 -2.92221 3.39574 0
M  V30 5736 C 542.082 -3.83848 1.81275 0
M  V30 5737 C 539.989 -4.23662 4.12631 0
M  V30 5738 H 538.919 -0.637944 0.401924 0
M  V30 5739 H 541.57 -1.07304 1.48856 0
M  V30 5740 H 539.952 -3.69884 1.41429 0
M  V30 5741 H 541.126 -2.37541 3.94856 0
M  V30 5742 H 539.441 -2.28054 3.48397 0
M  V30 5743 H 542.038 -4.81188 2.33158 0
M  V30 5744 H 542.381 -4.08949 0.778895 0
M  V30 5745 H 542.914 -3.26918 2.26649 0
M  V30 5746 H 539.653 -4.03753 5.16395 0
M  V30 5747 H 539.173 -4.78141 3.62135 0
M  V30 5748 H 540.852 -4.92256 4.19873 0
M  V30 5749 N 540.985 -1.06182 -1.16461 0
M  V30 5750 C 542.401 -0.785065 -1.38956 0
M  V30 5751 C 542.601 0.616103 -1.9185 0
M  V30 5752 O 541.657 1.37686 -2.11657 0
M  V30 5753 C 542.97 -1.84902 -2.37132 0
M  V30 5754 C 544.518 -1.8724 -2.50819 0
M  V30 5755 C 544.993 -2.92686 -3.52277 0
M  V30 5756 N 546.484 -2.91712 -3.59803 0
M  V30 5757 C 547.219 -3.69949 -4.38093 0
M  V30 5758 N 546.715 -4.58 -5.19815 0
M  V30 5759 N 548.508 -3.58346 -4.33064 0
M  V30 5760 H 540.659 -1.96569 -0.804634 0
M  V30 5761 H 542.922 -0.851747 -0.416211 0
M  V30 5762 H 542.628 -2.85518 -2.0536 0
M  V30 5763 H 542.502 -1.69908 -3.36766 0
M  V30 5764 H 544.889 -0.872827 -2.81897 0
M  V30 5765 H 544.97 -2.06311 -1.51226 0
M  V30 5766 H 544.614 -3.92835 -3.21937 0
M  V30 5767 H 544.544 -2.70864 -4.51598 0
M  V30 5768 H 547.035 -2.27876 -3.01464 0
M  V30 5769 H 547.348 -5.14357 -5.76764 0
M  V30 5770 H 545.693 -4.62056 -5.19162 0
M  V30 5771 H 548.884 -2.88943 -3.68279 0
M  V30 5772 H 549.057 -4.19563 -4.93833 0
M  V30 5773 N 542.463 1.3308 -0.844243 0
M  V30 5774 C 543.688 2.02341 -0.455282 0
M  V30 5775 C 544.113 1.6308 0.93737 0
M  V30 5776 O 543.471 0.826118 1.61385 0
M  V30 5777 C 543.519 3.55743 -0.58988 0
M  V30 5778 O 542.623 4.1063 0.38166 0
M  V30 5779 H 541.964 0.637898 -0.184343 0
M  V30 5780 H 544.494 1.6986 -1.14056 0
M  V30 5781 H 544.504 4.05243 -0.473522 0
M  V30 5782 H 543.179 3.83662 -1.60549 0
M  V30 5783 H 541.756 3.72236 0.22241 0
M  V30 5784 N 543.941 0.601185 1.45683 0
M  V30 5785 C 544.889 -0.133955 2.32214 0
M  V30 5786 C 545.883 -0.866034 1.45589 0
M  V30 5787 O 547.089 -0.782326 1.6211 0
M  V30 5788 H 543.464 -0.0620613 0.749435 0
M  V30 5789 H 545.435 0.614389 2.92007 0
M  V30 5790 C 544.184 -1.12216 3.29094 0
M  V30 5791 H 543.507 -0.568273 3.95741 0
M  V30 5792 H 544.947 -1.60659 3.92383 0
M  V30 5793 C 543.406 -2.19251 2.55794 0
M  V30 5794 O 543.936 -3.26894 2.33459 0
M  V30 5795 N 542.142 -1.9436 2.16039 0
M  V30 5796 H 541.689 -1.06829 2.34404 0
M  V30 5797 H 541.647 -2.66181 1.67318 0
M  V30 5798 N 545.419 -1.53889 0.339982 0
M  V30 5799 C 546.349 -2.27843 -0.510856 0
M  V30 5800 C 547.33 -1.29267 -1.10563 0
M  V30 5801 O 548.515 -1.58104 -1.12768 0
M  V30 5802 C 545.645 -3.04857 -1.66372 0
M  V30 5803 C 544.599 -4.10907 -1.19746 0
M  V30 5804 C 543.925 -4.75855 -2.43857 0
M  V30 5805 C 545.225 -5.21435 -0.300501 0
M  V30 5806 H 546.919 -2.99212 0.106067 0
M  V30 5807 H 544.465 -1.43904 0.0524533 0
M  V30 5808 H 546.418 -3.5533 -2.26537 0
M  V30 5809 H 545.142 -2.31133 -2.30749 0
M  V30 5810 H 543.801 -3.61342 -0.618654 0
M  V30 5811 H 543.449 -3.9873 -3.06633 0
M  V30 5812 H 543.149 -5.47502 -2.13343 0
M  V30 5813 H 544.673 -5.2911 -3.04754 0
M  V30 5814 H 546.087 -5.67565 -0.80889 0
M  V30 5815 H 544.484 -6.00036 -0.0874076 0
M  V30 5816 H 545.554 -4.80328 0.664321 0
M  V30 5817 N 546.897 -0.0685191 -1.57451 0
M  V30 5818 C 548.174 0.642167 -1.84758 0
M  V30 5819 C 548.554 1.87991 -0.960344 0
M  V30 5820 O 547.902 2.28485 -0.0257894 0
M  V30 5821 C 548.112 0.982946 -3.34872 0
M  V30 5822 C 549.46 1.35784 -4.02303 0
M  V30 5823 O 550.484 1.07477 -3.39598 0
M  V30 5824 O 549.343 1.88681 -5.12895 0
M  V30 5825 H 546.437 0.318625 -0.763156 0
M  V30 5826 H 548.983 -0.0992015 -1.6941 0
M  V30 5827 H 547.755 0.10372 -3.91163 0
M  V30 5828 H 547.378 1.78119 -3.55471 0
M  V30 5829 N 548.375 1.56261 0.205012 0
M  V30 5830 C 549.624 1.79236 0.925058 0
M  V30 5831 C 549.937 0.640011 1.84833 0
M  V30 5832 O 551.143 0.753809 2.60826 0
M  V30 5833 C 549.599 3.17475 1.69522 0
M  V30 5834 C 549.207 4.40482 0.817269 0
M  V30 5835 C 550.951 3.49766 2.4055 0
M  V30 5836 C 548.858 5.69744 1.58573 0
M  V30 5837 H 547.788 0.668287 0.349153 0
M  V30 5838 H 550.439 1.82629 0.178544 0
M  V30 5839 H 548.821 3.08304 2.48526 0
M  V30 5840 H 549.995 4.60752 0.0665988 0
M  V30 5841 H 548.31 4.15827 0.218316 0
M  V30 5842 H 550.907 4.43573 2.98575 0
M  V30 5843 H 551.25 2.73041 3.14252 0
M  V30 5844 H 551.783 3.60341 1.68522 0
M  V30 5845 H 548.522 6.49407 0.891679 0
M  V30 5846 H 548.042 5.53509 2.31059 0
M  V30 5847 H 549.721 6.1051 2.14212 0
M  V30 5848 N 549.853 -0.472356 1.50355 0
M  V30 5849 C 551.269 -0.806001 1.37753 0
M  V30 5850 C 551.469 -1.968 0.432649 0
M  V30 5851 O 550.525 -2.52189 -0.12519 0
M  V30 5852 C 551.838 -1.11926 2.79093 0
M  V30 5853 C 553.386 -1.22579 2.87999 0
M  V30 5854 C 553.861 -1.57218 4.3017 0
M  V30 5855 N 555.352 -1.64212 4.33115 0
M  V30 5856 C 556.087 -1.92517 5.40116 0
M  V30 5857 N 555.583 -2.1885 6.57325 0
M  V30 5858 N 557.376 -1.94008 5.27558 0
M  V30 5859 H 549.527 0.293451 2.10363 0
M  V30 5860 H 551.79 0.0687672 0.945503 0
M  V30 5861 H 551.496 -0.338504 3.50067 0
M  V30 5862 H 551.37 -2.05577 3.16256 0
M  V30 5863 H 553.757 -1.99722 2.17245 0
M  V30 5864 H 553.838 -0.269107 2.54381 0
M  V30 5865 H 553.482 -0.806154 5.01461 0
M  V30 5866 H 553.412 -2.54034 4.61275 0
M  V30 5867 H 555.903 -1.45906 3.48597 0
M  V30 5868 H 556.216 -2.39718 7.3468 0
M  V30 5869 H 554.561 -2.16245 6.60502 0
M  V30 5870 H 557.752 -1.72931 4.34986 0
M  V30 5871 H 557.925 -2.15731 6.11035 0
M  V30 5872 N 551.331 -1.39911 -0.725443 0
M  V30 5873 C 552.294 -1.39156 -1.82121 0
M  V30 5874 C 553.294 -0.287018 -1.58218 0
M  V30 5875 O 554.484 -0.545421 -1.65441 0
M  V30 5876 C 551.616 -1.1736 -3.20062 0
M  V30 5877 H 552.809 -2.36672 -1.84191 0
M  V30 5878 H 550.362 -1.25615 -0.930079 0
M  V30 5879 H 551.097 -0.205648 -3.23647 0
M  V30 5880 H 550.882 -1.97358 -3.3881 0
M  V30 5881 H 552.372 -1.19596 -4.00108 0
M  V30 5882 N 552.809 0.956637 -1.25245 0
M  V30 5883 C 553.739 2.07058 -1.07931 0
M  V30 5884 C 554.72 1.70096 0.0110361 0
M  V30 5885 O 555.905 1.93555 -0.158121 0
M  V30 5886 C 553.035 3.40272 -0.695124 0
M  V30 5887 C 551.989 3.91235 -1.73549 0
M  V30 5888 C 551.315 5.20921 -1.20604 0
M  V30 5889 C 552.615 4.17837 -3.13385 0
M  V30 5890 H 554.309 2.218 -2.01109 0
M  V30 5891 H 551.855 1.06581 -0.968326 0
M  V30 5892 H 553.808 4.1765 -0.560949 0
M  V30 5893 H 552.532 3.25462 0.272355 0
M  V30 5894 H 551.191 3.16025 -1.85807 0
M  V30 5895 H 550.839 5.02479 -0.228846 0
M  V30 5896 H 550.539 5.55987 -1.90136 0
M  V30 5897 H 552.063 6.00897 -1.08421 0
M  V30 5898 H 553.477 4.8588 -3.04292 0
M  V30 5899 H 551.874 4.64154 -3.80369 0
M  V30 5900 H 552.944 3.2419 -3.60595 0
M  V30 5901 N 554.287 1.06798 1.15896 0
M  V30 5902 C 555.564 0.701057 1.82605 0
M  V30 5903 C 555.944 -0.817066 1.94646 0
M  V30 5904 O 555.292 -1.72933 1.49353 0
M  V30 5905 C 555.502 1.40895 3.19296 0
M  V30 5906 C 556.85 1.55744 3.95005 0
M  V30 5907 O 557.874 1.36927 3.28831 0
M  V30 5908 O 556.733 1.86658 5.13635 0
M  V30 5909 H 553.827 0.248791 0.78869 0
M  V30 5910 H 556.373 1.16857 1.23055 0
M  V30 5911 H 555.145 2.4439 3.05596 0
M  V30 5912 H 554.768 0.931847 3.86526 0
M  V30 5913 N 555.766 -1.3263 0.851289 0
M  V30 5914 C 556.991 -2.02097 0.466006 0
M  V30 5915 C 557.416 -1.63574 -0.928709 0
M  V30 5916 O 556.774 -0.834665 -1.60944 0
M  V30 5917 C 556.822 -3.55425 0.608737 0
M  V30 5918 O 555.926 -4.10827 -0.359878 0
M  V30 5919 H 555.267 -0.636911 0.187724 0
M  V30 5920 H 557.797 -1.69253 1.14955 0
M  V30 5921 H 557.807 -4.04986 0.495006 0
M  V30 5922 H 556.482 -3.82806 1.62581 0
M  V30 5923 H 555.059 -3.72349 -0.202666 0
M  V30 5924 N 557.244 -0.608902 -1.45362 0
M  V30 5925 C 558.655 -0.189511 -1.85736 0
M  V30 5926 C 559.006 1.2539 -1.50903 0
M  V30 5927 O 558.131 1.95094 -0.936347 0
M  V30 5928 C 558.726 -0.33716 -3.37118 0
M  V30 5929 C 557.285 0.0275487 -3.7639 0
M  V30 5930 C 556.432 -0.660983 -2.69307 0
M  V30 5931 H 559.383 -0.815499 -1.36144 0
M  V30 5932 H 559.404 0.430257 -3.7806 0
M  V30 5933 H 558.916 -1.38779 -3.62439 0
M  V30 5934 H 557.017 1.0773 -3.56686 0
M  V30 5935 H 557.13 -0.367018 -4.77692 0
M  V30 5936 H 555.494 -0.0984958 -2.54509 0
M  V30 5937 H 556.277 -1.71377 -2.97464 0
M  V30 5938 N 558.722 1.53707 -0.348139 0
M  V30 5939 C 560.138 1.596 0.00361134 0
M  V30 5940 C 560.338 1.36394 1.4832 0
M  V30 5941 O 559.394 1.16046 2.24253 0
M  V30 5942 C 560.707 2.97512 -0.436682 0
M  V30 5943 C 562.255 3.10568 -0.389416 0
M  V30 5944 C 562.73 4.50866 -0.805249 0
M  V30 5945 N 564.221 4.56929 -0.759616 0
M  V30 5946 C 564.956 5.63643 -1.05327 0
M  V30 5947 N 564.452 6.78189 -1.41531 0
M  V30 5948 N 566.245 5.5354 -0.977207 0
M  V30 5949 H 558.396 1.67044 -1.31187 0
M  V30 5950 H 560.659 0.782559 -0.535075 0
M  V30 5951 H 560.365 3.19575 -1.46849 0
M  V30 5952 H 560.239 3.76742 0.185744 0
M  V30 5953 H 562.626 2.88226 0.633228 0
M  V30 5954 H 562.707 2.33387 -1.04711 0
M  V30 5955 H 562.351 4.73943 -1.82593 0
M  V30 5956 H 562.281 5.26452 -0.124989 0
M  V30 5957 H 564.772 3.74675 -0.49265 0
M  V30 5958 H 565.085 7.55541 -1.62411 0
M  V30 5959 H 563.43 6.79624 -1.45381 0
M  V30 5960 H 566.621 4.62932 -0.693675 0
M  V30 5961 H 566.794 6.36614 -1.2094 0
M  V30 5962 N 560.2 0.0768682 1.57412 0
M  V30 5963 C 561.448 -0.589918 1.93299 0
M  V30 5964 C 561.769 -1.69842 0.958049 0
M  V30 5965 O 561.039 -1.95899 0.00703261 0
M  V30 5966 H 559.619 -0.220901 0.713591 0
M  V30 5967 H 562.281 0.135917 1.94425 0
M  V30 5968 H 561.377 -1.01195 2.95239 0
M  V30 5969 N 561.678 -1.56367 -0.196722 0
M  V30 5970 C 562.608 -1.97442 -1.24655 0
M  V30 5971 C 563.589 -0.846147 -1.47561 0
M  V30 5972 O 564.774 -1.11035 -1.59326 0
M  V30 5973 C 561.904 -2.31253 -2.59112 0
M  V30 5974 C 560.858 -3.46804 -2.50821 0
M  V30 5975 C 560.184 -3.66286 -3.89536 0
M  V30 5976 C 561.484 -4.8104 -2.03465 0
M  V30 5977 H 563.178 -2.85388 -0.905216 0
M  V30 5978 H 560.724 -1.37304 -0.434002 0
M  V30 5979 H 562.677 -2.58583 -3.32736 0
M  V30 5980 H 561.401 -1.40188 -2.94983 0
M  V30 5981 H 560.06 -3.19563 -1.79653 0
M  V30 5982 H 559.708 -2.72555 -4.22756 0
M  V30 5983 H 559.408 -4.4402 -3.84864 0
M  V30 5984 H 560.932 -3.9599 -4.64784 0
M  V30 5985 H 562.346 -5.07411 -2.66846 0
M  V30 5986 H 560.743 -5.62232 -2.09798 0
M  V30 5987 H 561.813 -4.74732 -0.98781 0
M  V30 5988 N 563.156 0.464375 -1.50603 0
M  V30 5989 C 564.572 0.798684 -1.38178 0
M  V30 5990 C 564.772 1.96568 -0.44308 0
M  V30 5991 O 563.828 2.52252 0.111814 0
M  V30 5992 C 565.141 1.10444 -2.79683 0
M  V30 5993 C 566.689 1.2105 -2.88645 0
M  V30 5994 C 567.164 1.54934 -4.30998 0
M  V30 5995 N 568.655 1.61913 -4.3398 0
M  V30 5996 C 569.39 1.8965 -5.41129 0
M  V30 5997 N 568.886 2.15361 -6.58477 0
M  V30 5998 N 570.679 1.91207 -5.28579 0
M  V30 5999 H 562.83 -0.304603 -2.10204 0
M  V30 6000 H 565.093 -0.0737804 -0.945125 0
M  V30 6001 H 564.799 0.319934 -3.50242 0
M  V30 6002 H 564.673 2.03896 -3.17342 0
M  V30 6003 H 567.06 1.98567 -2.18301 0
M  V30 6004 H 567.141 0.255613 -2.5452 0
M  V30 6005 H 566.785 0.779549 -5.01882 0
M  V30 6006 H 566.715 2.51584 -4.62615 0
M  V30 6007 H 569.206 1.44055 -3.49366 0
M  V30 6008 H 569.519 2.35818 -7.35941 0
M  V30 6009 H 567.864 2.1274 -6.6164 0
M  V30 6010 H 571.055 1.70622 -4.35897 0
M  V30 6011 H 571.228 2.12488 -6.12171 0
M  V30 6012 N 564.634 1.40294 0.718013 0
M  V30 6013 C 565.862 1.4175 1.50714 0
M  V30 6014 C 566.277 0.0165366 1.88793 0
M  V30 6015 O 565.634 -0.958942 1.55276 0
M  V30 6016 C 565.685 2.30598 2.784 0
M  V30 6017 O 565.406 3.6524 2.41932 0
M  V30 6018 C 566.907 2.4062 3.72313 0
M  V30 6019 H 564.127 0.483565 0.465194 0
M  V30 6020 H 566.671 1.84316 0.885889 0
M  V30 6021 H 564.826 1.91401 3.36815 0
M  V30 6022 H 565.24 4.12402 3.24076 0
M  V30 6023 H 566.714 3.07001 4.58753 0
M  V30 6024 H 567.191 1.4305 4.15251 0
M  V30 6025 H 567.797 2.80359 3.19811 0
M  V30 6026 N 566.112 -0.949982 1.2575 0
M  V30 6027 C 567.022 -2.08109 1.08295 0
M  V30 6028 C 568.038 -1.7399 0.0188181 0
M  V30 6029 O 569.214 -2.00187 0.220724 0
M  V30 6030 C 566.279 -3.39383 0.708534 0
M  V30 6031 C 565.34 -3.8734 1.85111 0
M  V30 6032 C 564.573 -5.12349 1.49447 0
M  V30 6033 O 564.796 -5.6905 0.392212 0
M  V30 6034 O 563.73 -5.5513 2.32624 0
M  V30 6035 H 567.556 -2.25738 2.03165 0
M  V30 6036 H 565.141 -1.06545 1.04731 0
M  V30 6037 H 567.023 -4.18277 0.512061 0
M  V30 6038 H 565.698 -3.23013 -0.210854 0
M  V30 6039 H 564.605 -3.09429 2.10248 0
M  V30 6040 H 565.938 -4.08216 2.74991 0
M  V30 6041 N 567.59 -1.07411 -1.15328 0
M  V30 6042 C 568.836 -0.798831 -1.86404 0
M  V30 6043 C 569.169 0.673433 -1.8215 0
M  V30 6044 O 568.444 1.49428 -1.24505 0
M  V30 6045 C 568.727 -1.30846 -3.35487 0
M  V30 6046 C 568.58 -2.84532 -3.4837 0
M  V30 6047 C 569.899 -0.925486 -4.30259 0
M  V30 6048 H 567.018 -0.291659 -0.676834 0
M  V30 6049 H 569.66 -1.332 -1.35491 0
M  V30 6050 H 567.81 -0.854916 -3.78977 0
M  V30 6051 H 569.482 -3.3818 -3.13739 0
M  V30 6052 H 567.725 -3.22699 -2.8991 0
M  V30 6053 H 568.396 -3.15259 -4.53118 0
M  V30 6054 H 570.872 -1.3163 -3.94731 0
M  V30 6055 H 569.748 -1.3094 -5.33053 0
M  V30 6056 H 570.009 0.168525 -4.41779 0
M  V30 6057 N 569.068 1.32177 -0.85831 0
M  V30 6058 C 570.296 2.01313 -0.477582 0
M  V30 6059 C 570.711 1.6449 0.926736 0
M  V30 6060 O 570.068 0.868096 1.60531 0
M  V30 6061 C 570.119 3.56293 -0.611337 0
M  V30 6062 O 569.84 3.91794 -1.96034 0
M  V30 6063 C 571.341 4.42702 -0.230093 0
M  V30 6064 H 568.561 0.644323 -0.187322 0
M  V30 6065 H 571.105 1.68674 -1.15626 0
M  V30 6066 H 569.26 3.87395 0.0196494 0
M  V30 6067 H 569.674 4.86513 -1.95973 0
M  V30 6068 H 571.148 5.50727 -0.374674 0
M  V30 6069 H 571.625 4.3129 0.829779 0
M  V30 6070 H 572.231 4.16997 -0.836302 0
M  V30 6071 N 570.547 0.616602 1.45037 0
M  V30 6072 C 571.772 0.120192 2.07051 0
M  V30 6073 C 572.197 -1.19008 1.45666 0
M  V30 6074 O 571.555 -1.7267 0.552692 0
M  V30 6075 C 571.603 0.00354901 3.606 0
M  V30 6076 O 570.707 -1.04431 3.98958 0
M  V30 6077 H 570.048 0.0781599 0.659384 0
M  V30 6078 H 572.578 0.849167 1.86146 0
M  V30 6079 H 572.588 -0.191754 4.07549 0
M  V30 6080 H 571.263 0.960239 4.04663 0
M  V30 6081 H 569.84 -0.824749 3.63665 0
M  V30 6082 N 572.025 -1.5352 0.356285 0
M  V30 6083 C 572.972 -2.25439 -0.494569 0
M  V30 6084 C 573.942 -1.25752 -1.08516 0
M  V30 6085 O 575.127 -1.54513 -1.1194 0
M  V30 6086 C 572.267 -3.04011 -1.63313 0
M  V30 6087 C 571.38 -4.18574 -1.06862 0
M  V30 6088 C 570.515 -4.84607 -2.17552 0
M  V30 6089 C 569.554 -5.91218 -1.58518 0
M  V30 6090 N 568.691 -6.50979 -2.63003 0
M  V30 6091 H 573.531 -2.97737 0.125244 0
M  V30 6092 H 571.068 -1.46916 0.0735789 0
M  V30 6093 H 573.026 -3.47834 -2.30363 0
M  V30 6094 H 571.656 -2.33986 -2.22374 0
M  V30 6095 H 570.708 -3.79303 -0.288672 0
M  V30 6096 H 572.02 -4.95215 -0.596924 0
M  V30 6097 H 571.174 -5.31566 -2.92442 0
M  V30 6098 H 569.913 -4.07418 -2.6807 0
M  V30 6099 H 568.918 -5.4363 -0.821391 0
M  V30 6100 H 570.143 -6.70322 -1.08836 0
M  V30 6101 H 568.089 -5.76648 -3.12751 0
M  V30 6102 H 568.006 -7.23131 -2.20493 0
M  V30 6103 H 569.274 -7.02589 -3.37623 0
M  V30 6104 N 573.503 -0.0852151 -1.57369 0
M  V30 6105 C 574.436 0.913608 -2.09113 0
M  V30 6106 C 575.414 1.28264 -0.999358 0
M  V30 6107 O 576.598 1.3896 -1.27367 0
M  V30 6108 C 573.725 2.21777 -2.55993 0
M  V30 6109 C 572.771 1.99932 -3.76735 0
M  V30 6110 S 573.604 1.24637 -5.20794 0
M  V30 6111 C 574.76 2.56304 -5.71016 0
M  V30 6112 H 574.993 0.473369 -2.93507 0
M  V30 6113 H 572.526 0.127856 -1.5387 0
M  V30 6114 H 574.484 2.96726 -2.83662 0
M  V30 6115 H 573.145 2.62923 -1.71843 0
M  V30 6116 H 572.338 2.96482 -4.07571 0
M  V30 6117 H 571.94 1.33116 -3.49509 0
M  V30 6118 H 574.232 3.5233 -5.78679 0
M  V30 6119 H 575.175 2.3006 -6.69685 0
M  V30 6120 H 575.583 2.64125 -4.98897 0
M  V30 6121 N 574.981 1.5647 0.188427 0
M  V30 6122 C 576.228 1.81013 0.907779 0
M  V30 6123 C 576.556 0.65953 1.82977 0
M  V30 6124 O 575.811 -0.354308 1.92466 0
M  V30 6125 C 576.11 3.11596 1.7505 0
M  V30 6126 C 575.776 4.40145 0.978922 0
M  V30 6127 C 574.438 4.75066 0.765912 0
M  V30 6128 C 576.79 5.19369 0.436498 0
M  V30 6129 C 574.118 5.867 -0.00089868 0
M  V30 6130 C 576.47 6.31805 -0.317136 0
M  V30 6131 C 575.134 6.65303 -0.541103 0
M  V30 6132 H 574.404 0.662373 0.33218 0
M  V30 6133 H 577.051 1.9071 0.173732 0
M  V30 6134 H 575.356 2.97165 2.55343 0
M  V30 6135 H 577.053 3.27793 2.30983 0
M  V30 6136 H 573.643 4.12745 1.15497 0
M  V30 6137 H 577.827 4.92799 0.588449 0
M  V30 6138 H 573.083 6.11122 -0.184329 0
M  V30 6139 H 577.257 6.92406 -0.744788 0
M  V30 6140 H 574.884 7.51646 -1.13718 0
M  V30 6141 N 576.459 -0.456382 1.50847 0
M  V30 6142 C 577.391 -1.57033 1.66953 0
M  V30 6143 C 578.404 -1.53207 0.550593 0
M  V30 6144 O 579.593 -1.58328 0.824285 0
M  V30 6145 C 576.693 -2.95937 1.65149 0
M  V30 6146 C 575.866 -3.24475 2.93317 0
M  V30 6147 C 574.925 -4.43007 2.83957 0
M  V30 6148 O 573.951 -4.42592 3.57912 0
M  V30 6149 N 575.153 -5.45503 1.9851 0
M  V30 6150 H 577.918 -1.43629 2.63042 0
M  V30 6151 H 575.479 -0.645037 1.48495 0
M  V30 6152 H 577.471 -3.73224 1.56481 0
M  V30 6153 H 576.041 -3.03036 0.767343 0
M  V30 6154 H 575.261 -2.35664 3.16 0
M  V30 6155 H 576.549 -3.4036 3.78196 0
M  V30 6156 H 575.947 -5.48668 1.37766 0
M  V30 6157 H 574.504 -6.21716 1.95735 0
M  V30 6158 N 577.937 -1.40673 -0.710563 0
M  V30 6159 C 578.884 -1.41336 -1.82463 0
M  V30 6160 C 579.854 -0.269648 -1.63897 0
M  V30 6161 O 581.039 -0.468463 -1.8496 0
M  V30 6162 C 578.179 -1.28665 -3.20218 0
M  V30 6163 C 577.292 -2.52784 -3.5032 0
M  V30 6164 C 576.427 -2.32517 -4.77608 0
M  V30 6165 C 575.466 -3.52187 -5.0063 0
M  V30 6166 N 574.603 -3.31084 -6.19135 0
M  V30 6167 H 579.443 -2.36558 -1.8123 0
M  V30 6168 H 576.98 -1.17483 -0.885226 0
M  V30 6169 H 578.938 -1.19324 -3.99772 0
M  V30 6170 H 577.568 -0.370602 -3.20666 0
M  V30 6171 H 576.62 -2.72634 -2.65283 0
M  V30 6172 H 577.932 -3.41845 -3.63241 0
M  V30 6173 H 577.086 -2.20558 -5.65189 0
M  V30 6174 H 575.825 -1.40889 -4.66906 0
M  V30 6175 H 574.83 -3.64617 -4.11502 0
M  V30 6176 H 576.055 -4.44749 -5.13201 0
M  V30 6177 H 574.001 -2.42143 -6.09674 0
M  V30 6178 H 573.918 -4.13713 -6.32754 0
M  V30 6179 H 575.186 -3.22868 -7.0949 0
M  V30 6180 N 579.415 0.9433 -1.26252 0
M  V30 6181 C 580.643 1.72367 -1.14443 0
M  V30 6182 C 581.058 1.86392 0.300572 0
M  V30 6183 O 580.415 1.36978 1.20596 0
M  V30 6184 C 580.466 3.13155 -1.806 0
M  V30 6185 O 580.187 2.99803 -3.19452 0
M  V30 6186 C 581.688 4.07417 -1.74717 0
M  V30 6187 H 578.908 0.539758 -0.398626 0
M  V30 6188 H 581.452 1.18268 -1.66832 0
M  V30 6189 H 579.607 3.64162 -1.32154 0
M  V30 6190 H 580.021 3.88697 -3.52158 0
M  V30 6191 H 581.495 5.03773 -2.25647 0
M  V30 6192 H 581.972 4.3337 -0.713244 0
M  V30 6193 H 582.578 3.6233 -2.22704 0
M  V30 6194 N 580.893 1.08022 1.14757 0
M  V30 6195 C 582.309 0.807072 1.3769 0
M  V30 6196 C 582.509 -0.585504 1.92806 0
M  V30 6197 O 581.565 -1.34301 2.13821 0
M  V30 6198 C 582.878 1.88651 2.34161 0
M  V30 6199 C 584.426 1.91206 2.47809 0
M  V30 6200 C 584.901 2.98253 3.47576 0
M  V30 6201 N 586.392 2.974 3.55117 0
M  V30 6202 C 587.127 3.76872 4.32152 0
M  V30 6203 N 586.623 4.66212 5.12463 0
M  V30 6204 N 588.416 3.6519 4.27309 0
M  V30 6205 H 580.567 1.97824 0.77326 0
M  V30 6206 H 582.83 0.85826 0.402608 0
M  V30 6207 H 582.536 2.88749 2.00791 0
M  V30 6208 H 582.41 1.75244 3.3402 0
M  V30 6209 H 584.797 0.917564 2.80472 0
M  V30 6210 H 584.878 2.08691 1.47925 0
M  V30 6211 H 584.522 3.97907 3.15646 0
M  V30 6212 H 584.452 2.78014 4.47231 0
M  V30 6213 H 586.943 2.32643 2.97801 0
M  V30 6214 H 587.256 5.23468 5.68508 0
M  V30 6215 H 585.601 4.70257 5.11745 0
M  V30 6216 H 588.792 2.94765 3.63636 0
M  V30 6217 H 588.965 4.27366 4.87095 0
M  V30 6218 N 582.371 -1.3172 0.865308 0
M  V30 6219 C 583.599 -2.01057 0.488251 0
M  V30 6220 C 584.014 -1.64979 -0.918 0
M  V30 6221 O 583.371 -0.876597 -1.60069 0
M  V30 6222 C 583.422 -3.55964 0.630224 0
M  V30 6223 O 583.143 -3.90749 1.98109 0
M  V30 6224 C 584.644 -4.42574 0.253567 0
M  V30 6225 H 581.864 -0.64332 0.190736 0
M  V30 6226 H 584.408 -1.68058 1.16519 0
M  V30 6227 H 582.563 -3.874 0.000895422 0
M  V30 6228 H 582.977 -4.85467 1.9855 0
M  V30 6229 H 584.451 -5.50521 0.403875 0
M  V30 6230 H 584.928 -4.31724 -0.806895 0
M  V30 6231 H 585.534 -4.16547 0.858404 0
M  V30 6232 N 583.85 -0.624285 -1.44708 0
M  V30 6233 C 585.098 -0.125802 -2.01708 0
M  V30 6234 C 585.418 1.2543 -1.49306 0
M  V30 6235 O 584.689 1.83198 -0.693924 0
M  V30 6236 H 583.269 -0.0435161 -0.745731 0
M  V30 6237 H 585.931 -0.809446 -1.77296 0
M  V30 6238 H 585.027 -0.0882734 -3.11975 0
M  V30 6239 N 585.328 1.53329 -0.364422 0
M  V30 6240 C 586.553 2.06132 0.229033 0
M  V30 6241 C 586.978 1.23625 1.41769 0
M  V30 6242 O 586.336 0.255038 1.79497 0
M  V30 6243 C 586.384 3.55544 0.60174 0
M  V30 6244 O 585.488 3.75771 1.69912 0
M  V30 6245 H 584.829 0.663148 0.0336213 0
M  V30 6246 H 587.359 1.97758 -0.524689 0
M  V30 6247 H 587.369 3.98549 0.873073 0
M  V30 6248 H 586.044 4.15039 -0.267421 0
M  V30 6249 H 584.621 3.44663 1.42343 0
M  V30 6250 N 586.806 0.0935595 1.57322 0
M  V30 6251 C 588.053 -0.570509 1.94297 0
M  V30 6252 C 588.381 -1.68286 0.97519 0
M  V30 6253 O 587.636 -1.95699 -0.00548655 0
M  V30 6254 C 587.935 -1.16692 3.37813 0
M  V30 6255 C 587.601 -0.178509 4.50547 0
M  V30 6256 C 586.263 0.0933475 4.81109 0
M  V30 6257 C 588.615 0.496472 5.1883 0
M  V30 6258 C 585.943 1.0469 5.77284 0
M  V30 6259 C 588.295 1.43849 6.16028 0
M  V30 6260 C 586.959 1.71859 6.44997 0
M  V30 6261 H 586.229 -0.208764 0.710984 0
M  V30 6262 H 588.876 0.169066 1.90752 0
M  V30 6263 H 587.181 -1.98271 3.37929 0
M  V30 6264 H 588.878 -1.6884 3.63722 0
M  V30 6265 H 585.468 -0.400584 4.26724 0
M  V30 6266 H 589.652 0.299584 4.95395 0
M  V30 6267 H 584.908 1.27094 5.98044 0
M  V30 6268 H 589.082 1.96734 6.68034 0
M  V30 6269 H 586.709 2.45906 7.19329 0
M  V30 6270 N 588.284 -1.56567 -0.180126 0
M  V30 6271 C 589.234 -1.92132 -1.22756 0
M  V30 6272 C 590.218 -0.788639 -1.40247 0
M  V30 6273 O 591.41 -1.05171 -1.42366 0
M  V30 6274 C 588.539 -2.27719 -2.56902 0
M  V30 6275 C 587.625 -3.47481 -2.43142 0
M  V30 6276 N 588.016 -4.64973 -1.99082 0
M  V30 6277 C 586.314 -3.51914 -2.73994 0
M  V30 6278 C 587.015 -5.47119 -1.97574 0
M  V30 6279 N 585.991 -4.87925 -2.39645 0
M  V30 6280 H 589.793 -2.80464 -0.878478 0
M  V30 6281 H 587.307 -1.57686 -0.388463 0
M  V30 6282 H 589.304 -2.51389 -3.32579 0
M  V30 6283 H 587.964 -1.40722 -2.92621 0
M  V30 6284 H 588.975 -4.89358 -1.69557 0
M  V30 6285 H 585.652 -2.75372 -3.13809 0
M  V30 6286 H 587.042 -6.51254 -1.65282 0
M  V30 6287 N 589.762 0.448376 -1.51087 0
M  V30 6288 C 591.011 1.19561 -1.62444 0
M  V30 6289 C 591.324 1.92602 -0.341151 0
M  V30 6290 O 592.53 2.69439 -0.333936 0
M  V30 6291 C 590.986 2.17373 -2.8684 0
M  V30 6292 C 590.594 1.5003 -4.22131 0
M  V30 6293 C 592.338 2.92597 -3.0755 0
M  V30 6294 C 590.245 2.46262 -5.37689 0
M  V30 6295 H 589.175 0.449975 -0.605011 0
M  V30 6296 H 591.826 0.463735 -1.77544 0
M  V30 6297 H 590.208 2.93948 -2.65349 0
M  V30 6298 H 591.382 0.790886 -4.53962 0
M  V30 6299 H 589.697 0.870011 -4.0721 0
M  V30 6300 H 592.294 3.64663 -3.91056 0
M  V30 6301 H 592.637 3.53306 -2.20183 0
M  V30 6302 H 593.17 2.23131 -3.29329 0
M  V30 6303 H 589.909 1.90258 -6.27281 0
M  V30 6304 H 589.429 3.15289 -5.10248 0
M  V30 6305 H 591.108 3.07623 -5.6919 0
M  V30 6306 N 591.24 1.41047 0.703093 0
M  V30 6307 C 592.656 1.23351 1.01275 0
M  V30 6308 C 592.856 0.11754 2.01157 0
M  V30 6309 O 591.912 -0.520518 2.47077 0
M  V30 6310 C 593.225 2.58001 1.54454 0
M  V30 6311 C 594.773 2.65119 1.66376 0
M  V30 6312 C 595.248 4.00067 2.22958 0
M  V30 6313 N 596.739 4.01875 2.30328 0
M  V30 6314 C 597.474 5.03087 2.75119 0
M  V30 6315 N 596.97 6.14692 3.19571 0
M  V30 6316 N 598.763 4.90451 2.74616 0
M  V30 6317 H 590.914 2.1236 0.0412686 0
M  V30 6318 H 593.177 0.944543 0.08089 0
M  V30 6319 H 592.883 3.40378 0.88521 0
M  V30 6320 H 592.757 2.79962 2.52786 0
M  V30 6321 H 595.144 1.83106 2.31422 0
M  V30 6322 H 595.225 2.46975 0.666089 0
M  V30 6323 H 594.869 4.82526 1.58529 0
M  V30 6324 H 594.799 4.15547 3.23462 0
M  V30 6325 H 597.29 3.21291 1.98949 0
M  V30 6326 H 597.603 6.87799 3.52352 0
M  V30 6327 H 595.948 6.18239 3.17498 0
M  V30 6328 H 599.139 4.0235 2.39233 0
M  V30 6329 H 599.312 5.6947 3.09206 0
M  V30 6330 N 592.718 -0.936591 1.26751 0
M  V30 6331 C 594.134 -1.21095 1.03963 0
M  V30 6332 C 594.334 -2.00156 -0.232372 0
M  V30 6333 O 593.39 -2.3434 -0.940274 0
M  V30 6334 C 594.703 -1.96775 2.27377 0
M  V30 6335 C 596.251 -2.09749 2.32324 0
M  V30 6336 C 596.726 -2.88832 3.55443 0
M  V30 6337 N 598.217 -2.96404 3.55948 0
M  V30 6338 C 598.952 -3.58036 4.47881 0
M  V30 6339 N 598.448 -4.21132 5.50109 0
M  V30 6340 N 600.241 -3.55353 4.35523 0
M  V30 6341 H 592.392 -0.408173 2.08441 0
M  V30 6342 H 594.655 -0.243139 0.91629 0
M  V30 6343 H 594.361 -1.46094 3.19921 0
M  V30 6344 H 594.235 -2.97424 2.31989 0
M  V30 6345 H 596.622 -2.5962 1.40291 0
M  V30 6346 H 596.703 -1.08347 2.31721 0
M  V30 6347 H 596.347 -2.39647 4.47808 0
M  V30 6348 H 596.277 -3.90499 3.53296 0
M  V30 6349 H 598.768 -2.51552 2.82011 0
M  V30 6350 H 599.081 -4.66071 6.16439 0
M  V30 6351 H 597.426 -4.19705 5.53961 0
M  V30 6352 H 600.617 -3.05256 3.54875 0
M  V30 6353 H 600.79 -4.03097 5.07363 0
M  V30 6354 N 594.196 -1.08629 -1.14182 0
M  V30 6355 C 595.444 -0.815731 -1.84906 0
M  V30 6356 C 595.765 0.660441 -1.83475 0
M  V30 6357 O 595.035 1.47888 -1.28476 0
M  V30 6358 H 593.615 -0.298773 -0.684648 0
M  V30 6359 H 596.277 -1.37274 -1.38354 0
M  V30 6360 H 595.373 -1.16193 -2.89665 0
M  V30 6361 N 595.674 1.31259 -0.872281 0
M  V30 6362 C 596.584 2.32221 -0.333255 0
M  V30 6363 C 597.6 1.6481 0.558013 0
M  V30 6364 O 598.776 1.96212 0.454175 0
M  V30 6365 C 595.841 3.43708 0.454479 0
M  V30 6366 C 594.902 4.26774 -0.465024 0
M  V30 6367 C 594.135 5.32937 0.28521 0
M  V30 6368 O 594.358 5.49968 1.513 0
M  V30 6369 O 593.292 6.00834 -0.358126 0
M  V30 6370 H 597.118 2.80252 -1.17016 0
M  V30 6371 H 594.703 1.352 -0.635724 0
M  V30 6372 H 596.585 4.11656 0.900963 0
M  V30 6373 H 595.26 2.97836 1.26789 0
M  V30 6374 H 594.167 3.61571 -0.960055 0
M  V30 6375 H 595.5 4.76217 -1.2441 0
M  V30 6376 N 597.152 0.631951 1.44375 0
M  V30 6377 C 598.398 0.13697 2.02337 0
M  V30 6378 C 598.731 -1.23826 1.49602 0
M  V30 6379 O 598.006 -1.8221 0.680415 0
M  V30 6380 C 598.289 0.124536 3.59885 0
M  V30 6381 C 598.142 1.53217 4.229 0
M  V30 6382 C 599.461 -0.550481 4.36644 0
M  V30 6383 H 596.58 0.051247 0.735216 0
M  V30 6384 H 599.222 0.808581 1.71936 0
M  V30 6385 H 597.372 -0.44737 3.85916 0
M  V30 6386 H 599.044 2.15303 4.07973 0
M  V30 6387 H 597.287 2.0858 3.80364 0
M  V30 6388 H 597.958 1.4755 5.31914 0
M  V30 6389 H 600.434 -0.0641154 4.16051 0
M  V30 6390 H 599.31 -0.528371 5.46351 0
M  V30 6391 H 599.571 -1.62097 4.11311 0
M  V30 6392 N 598.631 -1.53133 0.372548 0
M  V30 6393 C 599.879 -2.00958 -0.214534 0
M  V30 6394 C 600.2 -1.26135 -1.48711 0
M  V30 6395 O 599.47 -0.376597 -1.92246 0
M  V30 6396 H 598.05 -0.742456 -0.0822664 0
M  V30 6397 H 600.712 -1.88367 0.500385 0
M  V30 6398 H 599.808 -3.09031 -0.436605 0
M  V30 6399 N 600.109 -0.101901 -1.5727 0
M  V30 6400 C 601.358 0.559922 -1.93772 0
M  V30 6401 C 601.671 1.68913 -0.98629 0
M  V30 6402 O 602.877 2.41256 -1.24529 0
M  V30 6403 C 601.333 1.04739 -3.44322 0
M  V30 6404 C 600.941 -0.05243 -4.47969 0
M  V30 6405 C 602.685 1.68157 -3.89774 0
M  V30 6406 C 600.592 0.450781 -5.8968 0
M  V30 6407 H 599.522 0.212931 -0.723309 0
M  V30 6408 H 602.173 -0.179001 -1.82625 0
M  V30 6409 H 600.555 1.84021 -3.50645 0
M  V30 6410 H 601.729 -0.828157 -4.53297 0
M  V30 6411 H 600.044 -0.592202 -4.12167 0
M  V30 6412 H 602.641 2.0689 -4.93052 0
M  V30 6413 H 602.984 2.55338 -3.28798 0
M  V30 6414 H 603.517 0.954453 -3.8618 0
M  V30 6415 H 600.256 -0.38458 -6.54371 0
M  V30 6416 H 599.776 1.19336 -5.87809 0
M  V30 6417 H 601.455 0.917555 -6.40461 0
M  V30 6418 N 601.587 1.56661 0.17182 0
M  V30 6419 C 602.817 1.85831 0.902804 0
M  V30 6420 C 603.225 0.685157 1.76358 0
M  V30 6421 O 602.568 -0.354947 1.80238 0
M  V30 6422 C 602.63 3.09406 1.83053 0
M  V30 6423 C 602.294 4.4231 1.1494 0
M  V30 6424 C 603.291 5.17342 0.515104 0
M  V30 6425 C 600.976 4.89045 1.14631 0
M  V30 6426 C 602.97 6.37299 -0.113194 0
M  V30 6427 C 600.657 6.08933 0.514184 0
M  V30 6428 C 601.655 6.82904 -0.114463 0
M  V30 6429 O 601.343 8.00518 -0.736622 0
M  V30 6430 H 601.075 0.620715 0.267748 0
M  V30 6431 H 603.629 2.04637 0.176918 0
M  V30 6432 H 601.859 2.86544 2.59672 0
M  V30 6433 H 603.548 3.25027 2.4313 0
M  V30 6434 H 604.314 4.82317 0.509474 0
M  V30 6435 H 600.193 4.31409 1.62502 0
M  V30 6436 H 603.737 6.94976 -0.604477 0
M  V30 6437 H 599.634 6.43423 0.517395 0
M  V30 6438 H 600.402 8.16027 -0.635822 0
M  V30 6439 N 603.065 -0.440357 1.51323 0
M  V30 6440 C 603.997 -1.55254 1.68609 0
M  V30 6441 C 605.01 -1.52614 0.566812 0
M  V30 6442 O 606.199 -1.57445 0.841032 0
M  V30 6443 C 603.299 -2.94169 1.68279 0
M  V30 6444 C 602.472 -3.21346 2.96742 0
M  V30 6445 C 601.531 -4.3997 2.8864 0
M  V30 6446 O 600.557 -4.38771 3.62586 0
M  V30 6447 N 601.759 -5.43367 2.04285 0
M  V30 6448 H 604.524 -1.40831 2.6455 0
M  V30 6449 H 602.085 -0.629251 1.49171 0
M  V30 6450 H 604.077 -3.71543 1.60431 0
M  V30 6451 H 602.647 -3.02205 0.799441 0
M  V30 6452 H 601.867 -2.32299 3.18482 0
M  V30 6453 H 603.155 -3.3633 3.81785 0
M  V30 6454 H 602.553 -5.47176 1.43578 0
M  V30 6455 H 601.11 -6.19605 2.02318 0
M  V30 6456 N 604.543 -1.41418 -0.695603 0
M  V30 6457 C 605.789 -1.40982 -1.4578 0
M  V30 6458 C 606.122 -0.0187763 -1.94191 0
M  V30 6459 O 605.397 0.95346 -1.69527 0
M  V30 6460 C 605.68 -2.41657 -2.66972 0
M  V30 6461 C 605.533 -3.89869 -2.24327 0
M  V30 6462 C 606.852 -2.39589 -3.69168 0
M  V30 6463 H 603.971 -0.513405 -0.528757 0
M  V30 6464 H 606.613 -1.72693 -0.792275 0
M  V30 6465 H 604.763 -2.14746 -3.23754 0
M  V30 6466 H 606.435 -4.27683 -1.72872 0
M  V30 6467 H 604.678 -4.04737 -1.56111 0
M  V30 6468 H 605.349 -4.55857 -3.11285 0
M  V30 6469 H 607.825 -2.63471 -3.2206 0
M  V30 6470 H 606.701 -3.12044 -4.51575 0
M  V30 6471 H 606.962 -1.41447 -4.18862 0
M  V30 6472 N 606.021 0.929856 -1.27246 0
M  V30 6473 C 606.953 2.03434 -1.0558 0
M  V30 6474 C 607.966 1.62795 -0.0125762 0
M  V30 6475 O 609.155 1.76685 -0.2539 0
M  V30 6476 C 606.255 3.33915 -0.57912 0
M  V30 6477 C 605.428 4.03259 -1.69415 0
M  V30 6478 C 604.487 5.12014 -1.21357 0
M  V30 6479 O 603.513 5.36097 -1.91282 0
M  V30 6480 N 604.715 5.8046 -0.0680622 0
M  V30 6481 H 607.48 2.22583 -2.00691 0
M  V30 6482 H 605.041 1.1001 -1.18783 0
M  V30 6483 H 607.033 4.03978 -0.241563 0
M  V30 6484 H 605.603 3.11355 0.278703 0
M  V30 6485 H 604.823 3.26958 -2.20209 0
M  V30 6486 H 606.111 4.46337 -2.44255 0
M  V30 6487 H 605.509 5.63345 0.515626 0
M  V30 6488 H 604.066 6.51461 0.210332 0
M  V30 6489 N 607.499 1.09233 1.13605 0
M  V30 6490 C 608.429 0.751738 2.21068 0
M  V30 6491 C 609.41 -0.269688 1.67948 0
M  V30 6492 O 610.595 -0.13819 1.93708 0
M  V30 6493 C 607.725 0.16935 3.46887 0
M  V30 6494 C 606.679 1.12007 4.13084 0
M  V30 6495 C 606.005 0.399483 5.33206 0
M  V30 6496 C 607.305 2.46168 4.6065 0
M  V30 6497 H 608.999 1.65024 2.49815 0
M  V30 6498 H 606.545 0.794905 1.20072 0
M  V30 6499 H 608.498 -0.0809824 4.21322 0
M  V30 6500 H 607.222 -0.764335 3.1753 0
M  V30 6501 H 605.881 1.35564 3.40614 0
M  V30 6502 H 605.529 -0.538277 5.00112 0
M  V30 6503 H 605.229 1.03337 5.78442 0
M  V30 6504 H 606.753 0.157403 6.10397 0
M  V30 6505 H 608.167 2.26829 5.26518 0
M  V30 6506 H 606.564 3.05326 5.1662 0
M  V30 6507 H 607.634 3.07076 3.75276 0
M  V30 6508 N 608.977 -1.30795 0.87923 0
M  V30 6509 C 610.393 -1.48981 0.57243 0
M  V30 6510 C 610.593 -1.80719 -0.891236 0
M  V30 6511 O 609.649 -1.89136 -1.67283 0
M  V30 6512 C 610.962 -2.61721 1.48063 0
M  V30 6513 C 612.51 -2.75603 1.48365 0
M  V30 6514 C 612.985 -3.91449 2.37763 0
M  V30 6515 N 614.476 -3.98751 2.35695 0
M  V30 6516 C 615.211 -4.87684 3.01583 0
M  V30 6517 N 614.707 -5.81454 3.76674 0
M  V30 6518 N 616.5 -4.81005 2.90844 0
M  V30 6519 H 608.651 -1.08465 1.82617 0
M  V30 6520 H 610.914 -0.536813 0.781368 0
M  V30 6521 H 610.62 -2.45073 2.52254 0
M  V30 6522 H 610.494 -3.58071 1.18596 0
M  V30 6523 H 612.881 -2.9166 0.44927 0
M  V30 6524 H 612.962 -1.79891 1.81859 0
M  V30 6525 H 612.606 -3.76149 3.41283 0
M  V30 6526 H 612.536 -4.86487 2.01589 0
M  V30 6527 H 615.027 -3.31668 1.81121 0
M  V30 6528 H 615.34 -6.46063 4.24054 0
M  V30 6529 H 613.685 -5.81403 3.80782 0
M  V30 6530 H 616.876 -4.06728 2.31711 0
M  V30 6531 H 617.049 -5.50107 3.42471 0
M  V30 6532 N 610.455 -0.639598 -1.44038 0
M  V30 6533 C 611.418 0.0506628 -2.29144 0
M  V30 6534 C 612.418 0.764001 -1.41491 0
M  V30 6535 O 613.608 0.607309 -1.63271 0
M  V30 6536 C 610.74 1.0824 -3.2326 0
M  V30 6537 H 611.933 -0.697987 -2.91664 0
M  V30 6538 H 609.486 -0.400146 -1.51091 0
M  V30 6539 H 610.221 1.86075 -2.65606 0
M  V30 6540 H 610.006 0.574725 -3.87865 0
M  V30 6541 H 611.496 1.56487 -3.87171 0
M  V30 6542 N 611.933 1.52934 -0.380664 0
M  V30 6543 C 612.863 2.29118 0.450268 0
M  V30 6544 C 613.844 1.32153 1.07096 0
M  V30 6545 O 615.029 1.61038 1.08537 0
M  V30 6546 C 612.159 3.09161 1.58231 0
M  V30 6547 C 611.113 4.13938 1.0881 0
M  V30 6548 C 610.439 4.82153 2.31155 0
M  V30 6549 C 611.739 5.22048 0.162146 0
M  V30 6550 H 613.433 2.98826 -0.185361 0
M  V30 6551 H 610.979 1.43715 -0.0905886 0
M  V30 6552 H 612.932 3.61211 2.17036 0
M  V30 6553 H 611.656 2.3717 2.2454 0
M  V30 6554 H 610.315 3.62855 0.522633 0
M  V30 6555 H 609.963 4.06719 2.95953 0
M  V30 6556 H 609.663 5.52966 1.98752 0
M  V30 6557 H 611.187 5.37004 2.90618 0
M  V30 6558 H 612.601 5.6951 0.658126 0
M  V30 6559 H 610.998 6.00057 -0.0717122 0
M  V30 6560 H 612.068 4.78398 -0.791438 0
M  V30 6561 N 613.412 0.11024 1.57214 0
M  V30 6562 C 614.322 -0.857077 2.18383 0
M  V30 6563 C 615.338 -1.29915 1.1575 0
M  V30 6564 O 616.514 -1.36394 1.48184 0
M  V30 6565 C 613.579 -2.09264 2.76423 0
M  V30 6566 C 612.64 -1.70333 3.94063 0
M  V30 6567 C 611.873 -2.87999 4.49324 0
M  V30 6568 O 612.096 -4.0317 4.03497 0
M  V30 6569 O 611.03 -2.6559 5.40135 0
M  V30 6570 H 614.856 -0.366561 3.0148 0
M  V30 6571 H 612.441 -0.114914 1.48957 0
M  V30 6572 H 614.323 -2.81644 3.13456 0
M  V30 6573 H 612.998 -2.57339 1.96363 0
M  V30 6574 H 611.905 -0.950864 3.61814 0
M  V30 6575 H 613.238 -1.27007 4.75531 0
M  V30 6576 N 614.89 -1.56749 -0.16351 0
M  V30 6577 C 615.84 -1.93424 -1.20712 0
M  V30 6578 C 616.824 -0.803469 -1.39403 0
M  V30 6579 O 618.016 -1.06675 -1.41243 0
M  V30 6580 C 615.145 -2.30431 -2.54473 0
M  V30 6581 C 614.231 -3.5004 -2.39443 0
M  V30 6582 N 614.622 -4.67058 -1.9414 0
M  V30 6583 C 612.92 -3.548 -2.70246 0
M  V30 6584 C 613.621 -5.49184 -1.9176 0
M  V30 6585 N 612.597 -4.9044 -2.34457 0
M  V30 6586 H 616.399 -2.8138 -0.848681 0
M  V30 6587 H 613.913 -1.58089 -0.371717 0
M  V30 6588 H 615.91 -2.54903 -3.29894 0
M  V30 6589 H 614.57 -1.43818 -2.91112 0
M  V30 6590 H 615.581 -4.91128 -1.64357 0
M  V30 6591 H 612.258 -2.78685 -3.10871 0
M  V30 6592 H 613.648 -6.5297 -1.58366 0
M  V30 6593 N 616.368 0.432326 -1.51554 0
M  V30 6594 C 617.614 1.18309 -1.64714 0
M  V30 6595 C 617.947 1.90745 -0.364696 0
M  V30 6596 O 617.222 1.8381 0.635936 0
M  V30 6597 C 617.505 2.1961 -2.85383 0
M  V30 6598 C 617.358 1.51223 -4.23617 0
M  V30 6599 C 618.677 3.20538 -3.01569 0
M  V30 6600 H 615.796 0.428751 -0.599451 0
M  V30 6601 H 618.438 0.471689 -1.84052 0
M  V30 6602 H 616.588 2.8028 -2.69027 0
M  V30 6603 H 618.26 0.938516 -4.51652 0
M  V30 6604 H 616.503 0.814501 -4.26085 0
M  V30 6605 H 617.174 2.25024 -5.04052 0
M  V30 6606 H 619.65 2.69926 -3.16669 0
M  V30 6607 H 618.526 3.88706 -3.87555 0
M  V30 6608 H 618.787 3.86933 -2.13859 0
M  V30 6609 N 617.846 1.41785 0.688094 0
M  V30 6610 C 619.123 1.32031 1.44316 0
M  V30 6611 C 619.503 -0.0486079 2.11044 0
M  V30 6612 O 618.851 -1.06332 2.02252 0
M  V30 6613 C 619.061 2.47906 2.45649 0
M  V30 6614 C 620.409 2.89415 3.10683 0
M  V30 6615 O 621.433 2.477 2.55975 0
M  V30 6616 O 620.292 3.61573 4.09789 0
M  V30 6617 H 617.386 0.519994 0.643067 0
M  V30 6618 H 619.932 1.53765 0.71794 0
M  V30 6619 H 618.704 3.39222 1.95048 0
M  V30 6620 H 618.327 2.28089 3.25671 0
M  V30 6621 N 619.324 -0.923095 1.27737 0
M  V30 6622 C 620.572 -1.66797 1.14119 0
M  V30 6623 C 620.893 -1.92479 -0.312541 0
M  V30 6624 O 620.163 -1.53432 -1.218 0
M  V30 6625 H 618.743 -0.618196 0.419336 0
M  V30 6626 H 621.405 -1.10815 1.60331 0
M  V30 6627 H 620.501 -2.63424 1.67374 0
M  V30 6628 N 620.802 -1.09834 -1.13024 0
M  V30 6629 C 622.03 -0.858902 -1.8823 0
M  V30 6630 C 622.445 0.590164 -1.79339 0
M  V30 6631 O 621.802 1.4065 -1.16292 0
M  V30 6632 C 621.853 -1.29066 -3.37675 0
M  V30 6633 O 621.574 -2.6829 -3.46341 0
M  V30 6634 C 623.075 -1.08421 -4.29837 0
M  V30 6635 H 620.295 -0.308713 -0.595766 0
M  V30 6636 H 622.839 -1.4614 -1.4305 0
M  V30 6637 H 620.994 -0.731961 -3.80422 0
M  V30 6638 H 621.408 -2.86598 -4.39274 0
M  V30 6639 H 622.882 -1.43553 -5.33007 0
M  V30 6640 H 623.359 -0.0223315 -4.39194 0
M  V30 6641 H 623.965 -1.62907 -3.92863 0
M  V30 6642 N 622.28 1.30327 -0.886154 0
M  V30 6643 C 623.23 2.25668 -0.325248 0
M  V30 6644 C 624.214 1.51318 0.546972 0
M  V30 6645 O 625.406 1.72623 0.391203 0
M  V30 6646 C 622.535 3.40229 0.458167 0
M  V30 6647 C 621.621 4.21933 -0.428208 0
M  V30 6648 N 622.012 4.82129 -1.52921 0
M  V30 6649 C 620.31 4.45439 -0.223535 0
M  V30 6650 C 621.011 5.43351 -2.07714 0
M  V30 6651 N 619.987 5.26002 -1.37195 0
M  V30 6652 H 623.789 2.69759 -1.1665 0
M  V30 6653 H 621.303 1.4478 -0.735691 0
M  V30 6654 H 623.3 4.07579 0.876648 0
M  V30 6655 H 621.96 2.97678 1.29684 0
M  V30 6656 H 622.971 4.81312 -1.91205 0
M  V30 6657 H 619.648 4.13481 0.577875 0
M  V30 6658 H 621.038 6.01118 -3.00178 0
M  V30 6659 N 623.758 0.647228 1.43697 0
M  V30 6660 C 625.004 0.158422 2.0218 0
M  V30 6661 C 625.337 -1.22233 1.50907 0
M  V30 6662 O 624.612 -1.81478 0.699702 0
M  V30 6663 C 624.895 0.1627 3.59732 0
M  V30 6664 C 624.748 1.57694 4.21251 0
M  V30 6665 C 626.067 -0.504138 4.37203 0
M  V30 6666 H 623.186 0.059042 0.734631 0
M  V30 6667 H 625.828 0.826772 1.71069 0
M  V30 6668 H 623.978 -0.406414 3.86368 0
M  V30 6669 H 625.65 2.19618 4.05667 0
M  V30 6670 H 623.893 2.12603 3.7813 0
M  V30 6671 H 624.564 1.53183 5.3032 0
M  V30 6672 H 627.04 -0.0199841 4.16095 0
M  V30 6673 H 625.916 -0.470394 5.46881 0
M  V30 6674 H 626.177 -1.57726 4.13007 0
M  V30 6675 N 625.236 -1.5273 0.388769 0
M  V30 6676 C 626.476 -2.03483 -0.193372 0
M  V30 6677 C 626.84 -1.26897 -1.44087 0
M  V30 6678 O 628.041 -1.67773 -2.10014 0
M  V30 6679 C 626.312 -3.54488 -0.455325 0
M  V30 6680 S 627.871 -4.27069 -1.00783 0
M  V30 6681 H 624.689 -0.708907 -0.0545131 0
M  V30 6682 H 627.291 -1.8798 0.536993 0
M  V30 6683 H 625.995 -4.07817 0.459722 0
M  V30 6684 H 625.526 -3.74196 -1.21413 0
M  V30 6685 H 627.541 -4.40185 -2.29023 0
M  V30 6686 N 626.714 -0.118576 -1.57153 0
M  V30 6687 C 627.646 0.862247 -2.12363 0
M  V30 6688 C 628.659 1.23025 -1.06625 0
M  V30 6689 O 629.848 1.17927 -1.33998 0
M  V30 6690 C 626.948 2.16425 -2.60794 0
M  V30 6691 C 626.121 1.96801 -3.90626 0
M  V30 6692 C 625.18 3.10726 -4.2466 0
M  V30 6693 O 624.206 2.83659 -4.93484 0
M  V30 6694 N 625.408 4.37147 -3.81946 0
M  V30 6695 H 628.173 0.390564 -2.97144 0
M  V30 6696 H 625.734 0.0658591 -1.61766 0
M  V30 6697 H 627.726 2.91633 -2.80593 0
M  V30 6698 H 626.296 2.54943 -1.80895 0
M  V30 6699 H 625.516 1.05787 -3.7974 0
M  V30 6700 H 626.804 1.80993 -4.7552 0
M  V30 6701 H 626.202 4.62014 -3.26435 0
M  V30 6702 H 624.759 5.09229 -4.06853 0
M  V30 6703 N 628.193 1.56834 0.155195 0
M  V30 6704 C 629.123 2.00678 1.19376 0
M  V30 6705 C 630.104 0.884973 1.45266 0
M  V30 6706 O 631.289 1.1522 1.56326 0
M  V30 6707 C 628.419 2.38042 2.5289 0
M  V30 6708 C 627.373 3.53332 2.41538 0
M  V30 6709 C 626.699 3.76485 3.79688 0
M  V30 6710 C 627.999 4.86265 1.9064 0
M  V30 6711 H 629.693 2.87688 0.829232 0
M  V30 6712 H 627.239 1.38407 0.397445 0
M  V30 6713 H 629.192 2.67314 3.25763 0
M  V30 6714 H 627.916 1.4796 2.91162 0
M  V30 6715 H 626.575 3.24213 1.71117 0
M  V30 6716 H 626.223 2.83667 4.15382 0
M  V30 6717 H 625.923 4.54068 3.72956 0
M  V30 6718 H 627.447 4.08174 4.54122 0
M  V30 6719 H 628.861 5.14308 2.53299 0
M  V30 6720 H 627.258 5.67597 1.94818 0
M  V30 6721 H 628.328 4.77184 0.861596 0
M  V30 6722 N 629.671 -0.424282 1.51781 0
M  V30 6723 C 631.082 -1.00368 1.57427 0
M  V30 6724 C 631.433 -1.91962 0.40558 0
M  V30 6725 O 630.558 -2.111 -0.47601 0
M  V30 6726 C 631.153 -1.82707 2.85313 0
M  V30 6727 C 629.712 -2.35675 2.93487 0
M  V30 6728 C 628.859 -1.1524 2.5222 0
M  V30 6729 H 631.81 -0.205064 1.5737 0
M  V30 6730 H 631.831 -2.68294 2.69812 0
M  V30 6731 H 631.343 -1.16017 3.70353 0
M  V30 6732 H 629.444 -3.05781 2.12906 0
M  V30 6733 H 629.557 -2.67578 3.97415 0
M  V30 6734 H 627.921 -1.50174 2.05718 0
M  V30 6735 H 628.704 -0.5014 3.39619 0
M  V30 6736 N 631.149 -1.42148 -0.680565 0
M  V30 6737 C 632.059 -1.47565 -1.82378 0
M  V30 6738 C 633.075 -0.36489 -1.70131 0
M  V30 6739 O 634.251 -0.614916 -1.91783 0
M  V30 6740 C 631.316 -1.37013 -3.18478 0
M  V30 6741 C 630.377 -2.58532 -3.42724 0
M  V30 6742 C 629.61 -2.48473 -4.72331 0
M  V30 6743 O 629.833 -1.51745 -5.49845 0
M  V30 6744 O 628.767 -3.38503 -4.97694 0
M  V30 6745 H 632.593 -2.44045 -1.80764 0
M  V30 6746 H 630.178 -1.23849 -0.835569 0
M  V30 6747 H 632.06 -1.33468 -3.99705 0
M  V30 6748 H 630.735 -0.436552 -3.20743 0
M  V30 6749 H 629.642 -2.67652 -2.61368 0
M  V30 6750 H 630.975 -3.50769 -3.45286 0
M  V30 6751 N 632.627 0.916307 -1.28225 0
M  V30 6752 C 633.904 1.64429 -1.05936 0
M  V30 6753 C 634.284 2.07234 0.402139 0
M  V30 6754 O 633.632 1.81535 1.3877 0
M  V30 6755 C 633.842 2.83773 -2.03159 0
M  V30 6756 C 635.19 3.54852 -2.33164 0
M  V30 6757 O 636.214 2.93918 -2.01223 0
M  V30 6758 O 635.073 4.64663 -2.87664 0
M  V30 6759 H 632.167 0.721221 -0.404683 0
M  V30 6760 H 634.713 0.965838 -1.39534 0
M  V30 6761 H 633.485 2.49217 -3.01673 0
M  V30 6762 H 633.108 3.59333 -1.70192 0
M  V30 6763 N 634.105 1.10431 1.1244 0
M  V30 6764 C 635.037 0.710945 2.17895 0
M  V30 6765 C 636.05 -0.252315 1.60833 0
M  V30 6766 O 637.239 -0.03679 1.78462 0
M  V30 6767 C 634.339 0.0284262 3.38888 0
M  V30 6768 C 633.512 1.01585 4.2544 0
M  V30 6769 C 632.571 0.364826 5.24934 0
M  V30 6770 O 631.597 1.01561 5.60066 0
M  V30 6771 N 632.799 -0.87674 5.73841 0
M  V30 6772 H 635.564 1.61826 2.52255 0
M  V30 6773 H 633.125 0.993132 1.27861 0
M  V30 6774 H 635.117 -0.418568 4.0253 0
M  V30 6775 H 633.687 -0.781294 3.02679 0
M  V30 6776 H 632.907 1.64111 3.58415 0
M  V30 6777 H 634.195 1.68425 4.80115 0
M  V30 6778 H 633.593 -1.42483 5.47462 0
M  V30 6779 H 632.15 -1.26688 6.39369 0
M  V30 6780 N 635.583 -1.29855 0.893053 0
M  V30 6781 C 636.53 -2.27909 0.364161 0
M  V30 6782 C 637.5 -1.56726 -0.550093 0
M  V30 6783 O 638.685 -1.84747 -0.47677 0
M  V30 6784 C 635.825 -3.42678 -0.408178 0
M  V30 6785 C 634.938 -4.28659 0.536212 0
M  V30 6786 C 634.073 -5.30599 -0.252521 0
M  V30 6787 C 633.112 -6.08234 0.686822 0
M  V30 6788 N 632.249 -7.02068 -0.0670902 0
M  V30 6789 H 637.089 -2.72531 1.20544 0
M  V30 6790 H 634.626 -1.34047 0.605779 0
M  V30 6791 H 636.584 -4.07986 -0.871962 0
M  V30 6792 H 635.214 -2.99103 -1.21397 0
M  V30 6793 H 634.266 -3.63584 1.1185 0
M  V30 6794 H 635.578 -4.8274 1.25552 0
M  V30 6795 H 634.732 -6.01694 -0.777801 0
M  V30 6796 H 633.471 -4.77233 -1.005 0
M  V30 6797 H 632.476 -5.3601 1.22366 0
M  V30 6798 H 633.701 -6.63689 1.43852 0
M  V30 6799 H 631.647 -6.5108 -0.801955 0
M  V30 6800 H 631.564 -7.53675 0.59243 0
M  V30 6801 H 632.832 -7.77392 -0.572851 0
M  V30 6802 N 637.061 -0.65484 -1.43351 0
M  V30 6803 C 638.309 -0.168559 -2.01396 0
M  V30 6804 C 638.63 1.22235 -1.51933 0
M  V30 6805 O 637.9 1.81685 -0.732627 0
M  V30 6806 H 636.48 -0.0593244 -0.744641 0
M  V30 6807 H 639.142 -0.846871 -1.75539 0
M  V30 6808 H 638.238 -0.154428 -3.11718 0
M  V30 6809 N 638.539 1.52521 -0.396863 0
M  V30 6810 C 639.487 2.28217 0.44943 0
M  V30 6811 C 640.481 1.32416 1.05652 0
M  V30 6812 O 641.687 1.49925 0.996124 0
M  V30 6813 H 638.062 0.733966 0.1637 0
M  V30 6814 H 640.033 2.97658 -0.210367 0
M  V30 6815 C 638.782 3.10713 1.56054 0
M  V30 6816 H 638.105 3.84291 1.10273 0
M  V30 6817 H 639.545 3.66803 2.12677 0
M  V30 6818 C 638.004 2.23499 2.52091 0
M  V30 6819 O 638.534 1.8669 3.55682 0
M  V30 6820 N 636.74 1.8751 2.2201 0
M  V30 6821 H 636.287 2.17643 1.37802 0
M  V30 6822 H 636.245 1.29448 2.86514 0
M  V30 6823 N 640.017 0.126909 1.57088 0
M  V30 6824 C 641.266 -0.529024 1.94639 0
M  V30 6825 C 641.579 -1.67323 1.01304 0
M  V30 6826 O 642.785 -2.39245 1.28352 0
M  V30 6827 C 641.241 -0.992483 3.45945 0
M  V30 6828 C 640.849 0.123691 4.47829 0
M  V30 6829 C 642.593 -1.61934 3.924 0
M  V30 6830 C 640.5 -0.356911 5.90322 0
M  V30 6831 H 639.43 -0.201397 0.726605 0
M  V30 6832 H 642.081 0.208032 1.82317 0
M  V30 6833 H 640.463 -1.7842 3.53528 0
M  V30 6834 H 641.637 0.900168 4.51922 0
M  V30 6835 H 639.952 0.657699 4.11173 0
M  V30 6836 H 642.549 -1.9902 4.96281 0
M  V30 6837 H 642.892 -2.50075 3.32819 0
M  V30 6838 H 643.425 -0.892894 3.8765 0
M  V30 6839 H 640.164 0.488636 6.53676 0
M  V30 6840 H 639.684 -1.0997 5.89633 0
M  V30 6841 H 641.363 -0.815547 6.41839 0
M  V30 6842 N 641.495 -1.56914 -0.146875 0
M  V30 6843 C 642.445 -1.94693 -1.18653 0
M  V30 6844 C 643.429 -0.81821 -1.38543 0
M  V30 6845 O 644.621 -1.08167 -1.40103 0
M  V30 6846 C 641.75 -2.33117 -2.52014 0
M  V30 6847 C 640.836 -3.5256 -2.35717 0
M  V30 6848 N 641.227 -4.69091 -1.89175 0
M  V30 6849 C 639.525 -3.57647 -2.66467 0
M  V30 6850 C 640.226 -5.51187 -1.85924 0
M  V30 6851 N 639.202 -4.92899 -2.29242 0
M  V30 6852 H 643.004 -2.82264 -0.81879 0
M  V30 6853 H 640.518 -1.58474 -0.354929 0
M  V30 6854 H 642.515 -2.58387 -3.27172 0
M  V30 6855 H 641.175 -1.46898 -2.89571 0
M  V30 6856 H 642.186 -4.92844 -1.59139 0
M  V30 6857 H 638.863 -2.81967 -3.07898 0
M  V30 6858 H 640.253 -6.54613 -1.51431 0
M  V30 6859 N 642.974 0.416227 -1.52004 0
M  V30 6860 C 643.904 1.51365 -1.77795 0
M  V30 6861 C 644.885 1.58059 -0.628601 0
M  V30 6862 O 646.07 1.73447 -0.873478 0
M  V30 6863 C 643.2 2.89256 -1.92219 0
M  V30 6864 C 642.154 2.97415 -3.0778 0
M  V30 6865 C 641.48 4.37492 -3.07417 0
M  V30 6866 C 642.78 2.69551 -4.47369 0
M  V30 6867 H 644.474 1.30033 -2.69688 0
M  V30 6868 H 642.02 0.624112 -1.29772 0
M  V30 6869 H 643.973 3.66008 -2.08845 0
M  V30 6870 H 642.697 3.11866 -0.969917 0
M  V30 6871 H 641.356 2.23107 -2.90893 0
M  V30 6872 H 641.004 4.571 -2.09925 0
M  V30 6873 H 640.704 4.43877 -3.85029 0
M  V30 6874 H 642.228 5.16188 -3.26162 0
M  V30 6875 H 643.642 3.36028 -4.64497 0
M  V30 6876 H 642.039 2.87321 -5.26846 0
M  V30 6877 H 643.109 1.65029 -4.55953 0
M  V30 6878 N 644.452 1.42507 0.673017 0
M  V30 6879 C 645.399 1.46124 1.78651 0
M  V30 6880 C 646.369 0.313007 1.63124 0
M  V30 6881 O 647.554 0.517337 1.83653 0
M  V30 6882 C 644.694 1.3711 3.16694 0
M  V30 6883 C 643.807 2.61983 3.43495 0
M  V30 6884 C 642.942 2.45098 4.71275 0
M  V30 6885 C 641.981 3.65336 4.91117 0
M  V30 6886 N 641.118 3.47383 6.10139 0
M  V30 6887 H 645.958 2.4128 1.74895 0
M  V30 6888 H 643.495 1.19788 0.853766 0
M  V30 6889 H 645.453 1.29881 3.96468 0
M  V30 6890 H 644.083 0.45549 3.1957 0
M  V30 6891 H 643.135 2.79571 2.57961 0
M  V30 6892 H 644.447 3.51355 3.5405 0
M  V30 6893 H 643.601 2.35466 5.59143 0
M  V30 6894 H 642.34 1.53219 4.63007 0
M  V30 6895 H 641.345 3.754 4.0169 0
M  V30 6896 H 642.57 4.58199 5.01229 0
M  V30 6897 H 640.516 2.58222 6.0304 0
M  V30 6898 H 640.433 4.30344 6.21563 0
M  V30 6899 H 641.701 3.41565 7.00681 0
M  V30 6900 N 645.93 -0.909495 1.28709 0
M  V30 6901 C 647.341 -1.47419 1.14563 0
M  V30 6902 C 647.692 -1.94432 -0.262832 0
M  V30 6903 O 646.817 -1.82842 -1.15748 0
M  V30 6904 C 647.412 -2.67933 2.07358 0
M  V30 6905 C 645.971 -3.20568 1.97264 0
M  V30 6906 C 645.118 -1.93269 1.98852 0
M  V30 6907 H 648.069 -0.721787 1.41336 0
M  V30 6908 H 648.09 -3.43339 1.64007 0
M  V30 6909 H 647.602 -2.33685 3.09859 0
M  V30 6910 H 645.703 -3.59531 0.978157 0
M  V30 6911 H 645.816 -3.85529 2.84436 0
M  V30 6912 H 644.18 -2.10553 1.43317 0
M  V30 6913 H 644.963 -1.61312 3.0304 0
M  V30 6914 N 647.408 -1.11026 -1.11852 0
M  V30 6915 C 648.633 -0.879064 -1.87849 0
M  V30 6916 C 649.058 0.565406 -1.79401 0
M  V30 6917 O 648.416 1.39886 -1.15333 0
M  V30 6918 C 648.464 -1.33985 -3.34784 0
M  V30 6919 O 647.568 -0.508803 -4.09249 0
M  V30 6920 H 646.909 -0.316992 -0.583448 0
M  V30 6921 H 649.439 -1.47863 -1.41413 0
M  V30 6922 H 649.449 -1.33248 -3.85628 0
M  V30 6923 H 648.124 -2.39172 -3.40249 0
M  V30 6924 H 646.701 -0.581913 -3.68332 0
M  V30 6925 N 648.886 1.2938 -0.899927 0
M  V30 6926 C 650.133 1.9555 -0.525963 0
M  V30 6927 C 650.461 1.70945 0.927789 0
M  V30 6928 O 649.716 1.01545 1.67293 0
M  V30 6929 C 650.015 3.49114 -0.765113 0
M  V30 6930 C 649.681 3.93796 -2.19626 0
M  V30 6931 C 648.343 4.05707 -2.58758 0
M  V30 6932 C 650.695 4.16883 -3.12823 0
M  V30 6933 C 648.023 4.38074 -3.90267 0
M  V30 6934 C 650.375 4.50725 -4.4388 0
M  V30 6935 C 649.039 4.60845 -4.82885 0
M  V30 6936 H 648.309 0.715569 -0.192463 0
M  V30 6937 H 650.956 1.53972 -1.13863 0
M  V30 6938 H 649.261 3.91738 -0.069531 0
M  V30 6939 H 650.958 3.98409 -0.455144 0
M  V30 6940 H 647.548 3.85042 -1.88256 0
M  V30 6941 H 651.732 4.07147 -2.83804 0
M  V30 6942 H 646.988 4.44112 -4.20207 0
M  V30 6943 H 651.162 4.67538 -5.16121 0
M  V30 6944 H 648.789 4.85681 -5.84823 0
M  V30 6945 N 650.364 0.662433 1.43002 0
M  V30 6946 C 651.589 0.186003 2.06564 0
M  V30 6947 C 652.014 -1.14314 1.49379 0
M  V30 6948 O 651.372 -1.70824 0.607346 0
M  V30 6949 C 651.42 0.118269 3.60406 0
M  V30 6950 O 650.524 -0.916859 4.02079 0
M  V30 6951 H 649.865 0.0990981 0.656563 0
M  V30 6952 H 652.395 0.907958 1.8335 0
M  V30 6953 H 652.405 -0.0619981 4.07953 0
M  V30 6954 H 651.08 1.08849 4.01403 0
M  V30 6955 H 649.657 -0.708635 3.66105 0
M  V30 6956 N 651.842 -1.52309 0.404946 0
M  V30 6957 C 653.119 -1.94237 -0.230544 0
M  V30 6958 C 653.499 -1.34154 -1.6299 0
M  V30 6959 O 652.847 -0.515713 -2.22604 0
M  V30 6960 C 653.057 -3.48166 -0.241106 0
M  V30 6961 C 654.405 -4.22074 -0.462488 0
M  V30 6962 O 655.429 -3.54754 -0.320644 0
M  V30 6963 O 654.288 -5.41443 -0.741708 0
M  V30 6964 H 651.382 -0.813766 -0.147358 0
M  V30 6965 H 653.928 -1.6333 0.460587 0
M  V30 6966 H 652.7 -3.84269 0.738467 0
M  V30 6967 H 652.323 -3.85422 -0.97651 0
M  V30 6968 N 653.32 -0.135238 -1.57019 0
M  V30 6969 C 654.568 0.51777 -1.95355 0
M  V30 6970 C 654.889 1.6617 -1.02042 0
M  V30 6971 O 654.159 1.95738 -0.0797343 0
M  V30 6972 H 652.739 0.194264 -0.721298 0
M  V30 6973 H 655.401 -0.207983 -1.93787 0
M  V30 6974 H 654.497 0.901675 -2.98791 0
M  V30 6975 N 654.798 1.5699 0.138552 0
M  V30 6976 C 655.728 2.01933 1.17241 0
M  V30 6977 C 656.709 0.90033 1.44319 0
M  V30 6978 O 657.894 1.16872 1.55095 0
M  V30 6979 C 655.024 2.40711 2.50351 0
M  V30 6980 C 653.978 3.55874 2.37776 0
M  V30 6981 C 653.304 3.80491 3.75674 0
M  V30 6982 C 654.604 4.8826 1.85472 0
M  V30 6983 H 656.298 2.88551 0.798672 0
M  V30 6984 H 653.844 1.3882 0.382743 0
M  V30 6985 H 655.797 2.70754 3.22909 0
M  V30 6986 H 654.521 1.5104 2.89576 0
M  V30 6987 H 653.18 3.2601 1.67669 0
M  V30 6988 H 652.828 2.88057 4.12349 0
M  V30 6989 H 652.528 4.57998 3.68119 0
M  V30 6990 H 654.052 4.12967 4.49767 0
M  V30 6991 H 655.466 5.16965 2.4783 0
M  V30 6992 H 653.863 5.69631 1.88787 0
M  V30 6993 H 654.933 4.78071 0.810935 0
M  V30 6994 N 656.276 -0.40816 1.52223 0
M  V30 6995 C 657.223 -1.49737 1.75635 0
M  V30 6996 C 658.193 -1.5493 0.598824 0
M  V30 6997 O 659.378 -1.71487 0.83648 0
M  V30 6998 C 656.518 -2.87174 1.91376 0
M  V30 6999 C 655.631 -2.91283 3.19027 0
M  V30 7000 C 654.766 -4.20026 3.25195 0
M  V30 7001 C 653.805 -4.18113 4.47044 0
M  V30 7002 N 652.942 -5.38429 4.50598 0
M  V30 7003 H 657.782 -1.29075 2.68596 0
M  V30 7004 H 655.319 -0.626518 1.33091 0
M  V30 7005 H 657.277 -3.66959 1.98486 0
M  V30 7006 H 655.907 -3.06329 1.01795 0
M  V30 7007 H 654.959 -2.03984 3.21084 0
M  V30 7008 H 656.271 -2.85734 4.08849 0
M  V30 7009 H 655.425 -5.08204 3.31382 0
M  V30 7010 H 654.164 -4.28271 2.33313 0
M  V30 7011 H 653.169 -3.28325 4.41002 0
M  V30 7012 H 654.394 -4.11507 5.40221 0
M  V30 7013 H 652.34 -5.4734 3.616 0
M  V30 7014 H 652.257 -5.34879 5.34266 0
M  V30 7015 H 653.525 -6.28557 4.61016 0
M  V30 7016 N 657.755 -1.42862 -0.66545 0
M  V30 7017 C 658.688 -1.41509 -1.79026 0
M  V30 7018 C 659.666 -0.278106 -1.60204 0
M  V30 7019 O 660.85 -0.469792 -1.82552 0
M  V30 7020 C 657.977 -1.21494 -3.1616 0
M  V30 7021 C 657.023 -2.38308 -3.53711 0
M  V30 7022 S 657.856 -4.00852 -3.55075 0
M  V30 7023 C 659.012 -3.83197 -4.94885 0
M  V30 7024 H 659.245 -2.36691 -1.79902 0
M  V30 7025 H 656.778 -1.29746 -0.836977 0
M  V30 7026 H 658.736 -1.10633 -3.95311 0
M  V30 7027 H 657.397 -0.27881 -3.1286 0
M  V30 7028 H 656.59 -2.20076 -4.53412 0
M  V30 7029 H 656.192 -2.45732 -2.81943 0
M  V30 7030 H 658.484 -3.44765 -5.83218 0
M  V30 7031 H 659.427 -4.82607 -5.18166 0
M  V30 7032 H 659.835 -3.15884 -4.67843 0
M  V30 7033 N 659.233 0.902656 -1.29189 0
M  V30 7034 C 660.51 1.63296 -1.07674 0
M  V30 7035 C 660.89 2.07649 0.380137 0
M  V30 7036 O 660.238 1.82997 1.36837 0
M  V30 7037 C 660.448 2.81603 -2.06158 0
M  V30 7038 C 661.796 3.52359 -2.36914 0
M  V30 7039 O 662.82 2.91767 -2.04329 0
M  V30 7040 O 661.679 4.61586 -2.92576 0
M  V30 7041 H 658.773 0.716889 -0.41231 0
M  V30 7042 H 661.319 0.950984 -1.4055 0
M  V30 7043 H 660.091 2.46004 -3.04299 0
M  V30 7044 H 659.714 3.57508 -1.73993 0
M  V30 7045 N 660.711 1.11618 1.11262 0
M  V30 7046 C 661.674 0.779447 2.15539 0
M  V30 7047 C 662.674 -0.202081 1.59525 0
M  V30 7048 O 663.864 0.0226356 1.74185 0
M  V30 7049 C 660.996 0.15674 3.40539 0
M  V30 7050 H 662.189 1.70324 2.4684 0
M  V30 7051 H 659.742 0.918298 1.26479 0
M  V30 7052 H 660.477 -0.777186 3.1485 0
M  V30 7053 H 660.262 0.863308 3.82478 0
M  V30 7054 H 661.752 -0.062661 4.17553 0
M  V30 7055 N 662.189 -1.289 0.906776 0
M  V30 7056 C 663.437 -1.94883 0.535266 0
M  V30 7057 C 663.758 -1.71784 -0.922791 0
M  V30 7058 O 663.028 -1.05359 -1.65156 0
M  V30 7059 H 661.608 -0.721109 0.194962 0
M  V30 7060 H 664.27 -1.57018 1.15461 0
M  V30 7061 H 663.366 -3.03591 0.723821 0
M  V30 7062 N 663.667 -0.670007 -1.42649 0
M  V30 7063 C 664.916 -0.187526 -2.00826 0
M  V30 7064 C 665.229 1.21142 -1.53571 0
M  V30 7065 O 666.435 1.79001 -2.04134 0
M  V30 7066 C 664.891 -0.284409 -3.58774 0
M  V30 7067 C 664.499 -1.6871 -4.15019 0
M  V30 7068 C 666.243 0.139605 -4.2427 0
M  V30 7069 C 664.15 -1.73701 -5.65316 0
M  V30 7070 H 663.08 -0.0663468 -0.751075 0
M  V30 7071 H 665.731 -0.834492 -1.63427 0
M  V30 7072 H 664.113 0.430364 -3.93655 0
M  V30 7073 H 665.287 -2.42857 -3.91608 0
M  V30 7074 H 663.602 -2.05855 -3.61957 0
M  V30 7075 H 666.199 0.122398 -5.3456 0
M  V30 7076 H 666.542 1.17403 -3.99402 0
M  V30 7077 H 667.075 -0.523995 -3.94334 0
M  V30 7078 H 663.814 -2.75109 -5.94975 0
M  V30 7079 H 663.334 -1.03903 -5.90732 0
M  V30 7080 H 665.013 -1.48829 -6.2965 0
M  V30 7081 N 665.145 1.52092 -0.413018 0
M  V30 7082 C 666.394 2.01041 0.16287 0
M  V30 7083 C 666.707 1.30288 1.45892 0
M  V30 7084 O 667.913 1.70075 2.11629 0
M  V30 7085 C 666.369 3.58283 0.340806 0
M  V30 7086 C 665.977 4.37955 -0.943377 0
M  V30 7087 C 667.721 4.15452 0.871774 0
M  V30 7088 C 665.628 5.86847 -0.732417 0
M  V30 7089 H 664.558 0.751224 0.0646414 0
M  V30 7090 H 667.209 1.75404 -0.539059 0
M  V30 7091 H 665.591 3.80266 1.10516 0
M  V30 7092 H 666.765 4.2773 -1.71418 0
M  V30 7093 H 665.08 3.92122 -1.40105 0
M  V30 7094 H 667.677 5.24375 1.0457 0
M  V30 7095 H 668.02 3.73057 1.84755 0
M  V30 7096 H 668.553 3.97452 0.166377 0
M  V30 7097 H 665.292 6.33609 -1.67986 0
M  V30 7098 H 664.812 5.998 -0.000980058 0
M  V30 7099 H 666.491 6.45906 -0.376105 0
M  V30 7100 N 666.623 0.143563 1.56945 0
M  V30 7101 C 667.863 -0.511198 1.97904 0
M  V30 7102 C 668.227 -1.62262 1.0264 0
M  V30 7103 O 669.428 -2.338 1.32631 0
M  V30 7104 C 667.699 -1.00753 3.42905 0
M  V30 7105 S 669.258 -1.66737 4.05887 0
M  V30 7106 H 666.076 -0.165399 0.691494 0
M  V30 7107 H 668.678 0.234464 1.94089 0
M  V30 7108 H 667.382 -0.187817 4.0997 0
M  V30 7109 H 666.913 -1.7879 3.50425 0
M  V30 7110 H 668.928 -2.95444 3.98657 0
M  V30 7111 N 668.101 -1.57061 -0.130224 0
M  V30 7112 C 669.378 -1.75205 -0.869631 0
M  V30 7113 C 669.758 -0.716063 -1.98584 0
M  V30 7114 O 669.106 0.262032 -2.26993 0
M  V30 7115 C 669.316 -3.19835 -1.39666 0
M  V30 7116 C 670.664 -3.82011 -1.85345 0
M  V30 7117 O 671.688 -3.23368 -1.49371 0
M  V30 7118 O 670.547 -4.85064 -2.51744 0
M  V30 7119 H 667.641 -0.716977 -0.412157 0
M  V30 7120 H 670.187 -1.69311 -0.11484 0
M  V30 7121 H 668.959 -3.86745 -0.595288 0
M  V30 7122 H 668.582 -3.30222 -2.21448 0
M  V30 7123 N 669.579 0.400081 -1.52437 0
M  V30 7124 C 670.825 1.14788 -1.67187 0
M  V30 7125 C 671.158 1.89928 -0.405074 0
M  V30 7126 O 670.433 1.85118 0.596804 0
M  V30 7127 C 670.716 2.13507 -2.89977 0
M  V30 7128 C 670.569 1.42204 -4.2673 0
M  V30 7129 C 671.888 3.14069 -3.083 0
M  V30 7130 H 669.007 0.415939 -0.608411 0
M  V30 7131 H 671.649 0.432542 -1.85011 0
M  V30 7132 H 669.799 2.7451 -2.74912 0
M  V30 7133 H 671.471 0.842503 -4.53541 0
M  V30 7134 H 669.714 0.723939 -4.27717 0
M  V30 7135 H 670.385 2.14281 -5.08712 0
M  V30 7136 H 672.861 2.63148 -3.22323 0
M  V30 7137 H 671.737 3.80398 -3.95713 0
M  V30 7138 H 671.998 3.82309 -2.22018 0
M  V30 7139 N 671.057 1.43213 0.657864 0
M  V30 7140 C 672.297 1.46083 1.42965 0
M  V30 7141 C 672.661 0.0809712 1.91829 0
M  V30 7142 O 673.862 -0.0156305 2.68795 0
M  V30 7143 C 672.133 2.47044 2.58271 0
M  V30 7144 S 673.692 2.68753 3.46868 0
M  V30 7145 H 670.51 0.517015 0.488074 0
M  V30 7146 H 673.112 1.79945 0.764213 0
M  V30 7147 H 671.816 3.46044 2.20639 0
M  V30 7148 H 671.347 2.14665 3.2967 0
M  V30 7149 H 673.362 1.98329 4.54841 0
M  V30 7150 N 672.536 -0.895792 1.29666 0
M  V30 7151 C 673.764 -1.68001 1.20761 0
M  V30 7152 C 674.179 -1.87379 -0.231187 0
M  V30 7153 O 673.536 -1.41359 -1.15429 0
M  V30 7154 C 673.587 -3.06236 1.92098 0
M  V30 7155 O 673.308 -2.8774 3.30359 0
M  V30 7156 C 674.809 -4.00652 1.89717 0
M  V30 7157 H 672.029 -0.524591 0.418384 0
M  V30 7158 H 674.573 -1.11995 1.71106 0
M  V30 7159 H 672.728 -3.59007 1.45578 0
M  V30 7160 H 673.142 -3.75359 3.66342 0
M  V30 7161 H 674.616 -4.95051 2.44189 0
M  V30 7162 H 675.093 -4.30424 0.873595 0
M  V30 7163 H 675.699 -3.53815 2.35998 0
M  V30 7164 N 674.014 -1.12206 -1.10668 0
M  V30 7165 C 675.254 -0.885935 -1.84202 0
M  V30 7166 C 675.618 0.577849 -1.83098 0
M  V30 7167 O 676.819 0.931051 -2.5216 0
M  V30 7168 C 675.09 -1.44197 -3.2702 0
M  V30 7169 S 676.649 -1.34402 -4.1771 0
M  V30 7170 H 673.467 -0.319653 -0.635093 0
M  V30 7171 H 676.069 -1.43112 -1.33189 0
M  V30 7172 H 674.773 -2.50096 -3.25392 0
M  V30 7173 H 674.304 -0.894173 -3.83103 0
M  V30 7174 H 676.319 -0.313873 -4.95206 0
M  V30 7175 N 675.492 1.28418 -0.913599 0
M  V30 7176 C 676.402 2.31043 -0.406965 0
M  V30 7177 C 677.418 1.66501 0.505298 0
M  V30 7178 O 678.594 1.97558 0.391522 0
M  V30 7179 C 675.659 3.4498 0.344901 0
M  V30 7180 C 674.72 4.25078 -0.600563 0
M  V30 7181 C 673.953 5.33575 0.115516 0
M  V30 7182 O 674.176 5.54503 1.33727 0
M  V30 7183 O 673.11 5.9939 -0.549095 0
M  V30 7184 H 676.936 2.76387 -1.25873 0
M  V30 7185 H 674.521 1.33109 -0.678415 0
M  V30 7186 H 676.403 4.14314 0.769542 0
M  V30 7187 H 675.078 3.01719 1.1725 0
M  V30 7188 H 673.985 3.58334 -1.0746 0
M  V30 7189 H 675.318 4.72018 -1.39497 0
M  V30 7190 N 676.97 0.677563 1.42291 0
M  V30 7191 C 677.9 0.014968 2.33495 0
M  V30 7192 C 678.881 -0.786376 1.50831 0
M  V30 7193 O 680.066 -0.742975 1.79426 0
M  V30 7194 C 677.196 -0.935023 3.34477 0
M  V30 7195 C 676.15 -0.242074 4.27315 0
M  V30 7196 C 675.476 -1.30519 5.18526 0
M  V30 7197 C 676.776 0.880604 5.14823 0
M  V30 7198 H 678.47 0.776671 2.89151 0
M  V30 7199 H 676.016 0.37494 1.39033 0
M  V30 7200 H 677.969 -1.40766 3.97194 0
M  V30 7201 H 676.693 -1.72818 2.77131 0
M  V30 7202 H 675.352 0.210351 3.65996 0
M  V30 7203 H 675 -2.09041 4.57505 0
M  V30 7204 H 674.7 -0.846652 5.81468 0
M  V30 7205 H 676.224 -1.7787 5.84119 0
M  V30 7206 H 677.638 0.489062 5.7121 0
M  V30 7207 H 676.035 1.26511 5.86613 0
M  V30 7208 H 677.105 1.72818 4.53059 0
M  V30 7209 N 678.448 -1.51871 0.421078 0
M  V30 7210 C 679.38 -2.25052 -0.434065 0
M  V30 7211 C 680.393 -1.28458 -1.00013 0
M  V30 7212 O 681.582 -1.54323 -0.897033 0
M  V30 7213 C 678.682 -2.97813 -1.61743 0
M  V30 7214 C 677.855 -4.21374 -1.17315 0
M  V30 7215 C 676.914 -4.76854 -2.22478 0
M  V30 7216 O 675.94 -5.39123 -1.82577 0
M  V30 7217 N 677.142 -4.59467 -3.54782 0
M  V30 7218 H 679.907 -2.99077 0.193073 0
M  V30 7219 H 677.468 -1.59972 0.249088 0
M  V30 7220 H 679.46 -3.3182 -2.31685 0
M  V30 7221 H 678.03 -2.26899 -2.15024 0
M  V30 7222 H 677.25 -3.93046 -0.3014 0
M  V30 7223 H 678.538 -5.01591 -0.853444 0
M  V30 7224 H 677.936 -4.09832 -3.89941 0
M  V30 7225 H 676.493 -4.9788 -4.20665 0
M  V30 7226 N 679.926 -0.151884 -1.56866 0
M  V30 7227 C 680.873 0.785936 -2.17006 0
M  V30 7228 C 681.843 1.2407 -1.10435 0
M  V30 7229 O 683.028 1.31235 -1.38499 0
M  V30 7230 C 680.168 2.01771 -2.79969 0
M  V30 7231 C 679.281 1.6083 -4.00946 0
M  V30 7232 C 678.416 2.79224 -4.51893 0
M  V30 7233 C 677.455 2.3468 -5.65324 0
M  V30 7234 N 676.592 3.461 -6.10867 0
M  V30 7235 H 681.432 0.266286 -2.96808 0
M  V30 7236 H 678.969 0.11972 -1.46612 0
M  V30 7237 H 680.927 2.73989 -3.14621 0
M  V30 7238 H 679.557 2.51139 -2.02803 0
M  V30 7239 H 678.609 0.783592 -3.72242 0
M  V30 7240 H 679.921 1.24119 -4.83111 0
M  V30 7241 H 679.075 3.59625 -4.88625 0
M  V30 7242 H 677.814 3.19183 -3.68746 0
M  V30 7243 H 676.819 1.52721 -5.28163 0
M  V30 7244 H 678.044 1.95801 -6.5026 0
M  V30 7245 H 675.99 3.85671 -5.30654 0
M  V30 7246 H 675.907 3.1342 -6.87971 0
M  V30 7247 H 677.175 4.26844 -6.52246 0
M  V30 7248 N 681.404 1.57128 0.121893 0
M  V30 7249 C 682.314 2.03425 1.16857 0
M  V30 7250 C 683.33 0.954108 1.45509 0
M  V30 7251 O 684.506 1.26541 1.56682 0
M  V30 7252 C 681.571 2.42685 2.47599 0
M  V30 7253 C 680.632 3.64767 2.2637 0
M  V30 7254 C 679.865 4.02145 3.50878 0
M  V30 7255 O 680.088 3.39897 4.58068 0
M  V30 7256 O 679.022 4.95262 3.42051 0
M  V30 7257 H 682.848 2.92825 0.80544 0
M  V30 7258 H 680.433 1.45654 0.332477 0
M  V30 7259 H 682.315 2.68684 3.24634 0
M  V30 7260 H 680.99 1.56432 2.83392 0
M  V30 7261 H 679.897 3.43922 1.47203 0
M  V30 7262 H 681.23 4.51716 1.95482 0
M  V30 7263 N 682.882 -0.391992 1.52647 0
M  V30 7264 C 684.128 -1.139 1.67793 0
M  V30 7265 C 684.461 -1.89711 0.41514 0
M  V30 7266 O 683.736 -1.85431 -0.586979 0
M  V30 7267 C 684.019 -2.11966 2.91105 0
M  V30 7268 C 683.872 -1.39939 4.27478 0
M  V30 7269 C 685.191 -3.1243 3.09961 0
M  V30 7270 H 682.31 -0.412707 0.610608 0
M  V30 7271 H 684.952 -0.422725 1.85238 0
M  V30 7272 H 683.102 -2.73048 2.76364 0
M  V30 7273 H 684.774 -0.818439 4.53982 0
M  V30 7274 H 683.017 -0.701246 4.28095 0
M  V30 7275 H 683.688 -2.1158 5.09841 0
M  V30 7276 H 686.164 -2.61435 3.23714 0
M  V30 7277 H 685.04 -3.78294 3.97725 0
M  V30 7278 H 685.301 -3.81127 2.24042 0
M  V30 7279 N 684.36 -1.4356 -0.65026 0
M  V30 7280 C 685.776 -1.27025 -0.966269 0
M  V30 7281 C 685.976 -0.192117 -2.00582 0
M  V30 7282 O 685.032 0.428459 -2.48838 0
M  V30 7283 C 686.345 -2.63556 -1.44772 0
M  V30 7284 C 687.893 -2.71111 -1.56421 0
M  V30 7285 C 688.368 -4.08067 -2.07956 0
M  V30 7286 N 689.859 -4.10146 -2.15254 0
M  V30 7287 C 690.594 -5.12952 -2.56258 0
M  V30 7288 N 690.09 -6.26129 -2.96537 0
M  V30 7289 N 691.883 -5.00306 -2.56224 0
M  V30 7290 H 684.034 -2.12367 0.0375758 0
M  V30 7291 H 686.297 -0.946894 -0.0457782 0
M  V30 7292 H 686.003 -3.43429 -0.758271 0
M  V30 7293 H 685.877 -2.89152 -2.42221 0
M  V30 7294 H 688.264 -1.91569 -2.24467 0
M  V30 7295 H 688.345 -2.49277 -0.573967 0
M  V30 7296 H 687.989 -4.88077 -1.40511 0
M  V30 7297 H 687.919 -4.27266 -3.07817 0
M  V30 7298 H 690.41 -3.28453 -1.86887 0
M  V30 7299 H 690.723 -7.00403 -3.26582 0
M  V30 7300 H 689.068 -6.29597 -2.94334 0
M  V30 7301 H 692.259 -4.10952 -2.24135 0
M  V30 7302 H 692.432 -5.80553 -2.87857 0
M  V30 7303 N 685.838 0.888903 -1.30139 0
M  V30 7304 C 687.063 1.67884 -1.21777 0
M  V30 7305 C 687.488 1.86848 0.216689 0
M  V30 7306 O 686.846 1.39659 1.15608 0
M  V30 7307 C 686.894 3.03483 -1.94757 0
M  V30 7308 O 685.998 3.92294 -1.27198 0
M  V30 7309 H 685.339 0.513144 -0.421402 0
M  V30 7310 H 687.869 1.10968 -1.71893 0
M  V30 7311 H 687.879 3.53553 -2.03627 0
M  V30 7312 H 686.554 2.89 -2.99085 0
M  V30 7313 H 685.131 3.50732 -1.26655 0
M  V30 7314 N 687.317 1.12792 1.10072 0
M  V30 7315 C 688.28 0.802264 2.14701 0
M  V30 7316 C 689.28 -0.18515 1.59731 0
M  V30 7317 O 690.47 0.041109 1.74151 0
M  V30 7318 C 687.602 0.19285 3.40354 0
M  V30 7319 H 688.795 1.72932 2.45019 0
M  V30 7320 H 686.348 0.931662 1.25498 0
M  V30 7321 H 687.083 -0.743748 3.15656 0
M  V30 7322 H 686.868 0.903827 3.81541 0
M  V30 7323 H 688.358 -0.0183704 4.17596 0
M  V30 7324 N 688.795 -1.27931 0.920396 0
M  V30 7325 C 690.211 -1.47085 0.619537 0
M  V30 7326 C 690.411 -1.83463 -0.833291 0
M  V30 7327 O 689.467 -1.94363 -1.61181 0
M  V30 7328 C 690.78 -2.56878 1.56314 0
M  V30 7329 C 692.328 -2.70743 1.57058 0
M  V30 7330 C 692.803 -3.83687 2.50097 0
M  V30 7331 N 694.294 -3.9105 2.48262 0
M  V30 7332 C 695.029 -4.77842 3.16945 0
M  V30 7333 N 694.525 -5.69176 3.94982 0
M  V30 7334 N 696.318 -4.71509 3.06 0
M  V30 7335 H 688.469 -1.02601 1.85975 0
M  V30 7336 H 690.732 -0.511682 0.798051 0
M  V30 7337 H 690.438 -2.36923 2.59923 0
M  V30 7338 H 690.312 -3.54117 1.29928 0
M  V30 7339 H 692.699 -2.90083 0.541832 0
M  V30 7340 H 692.78 -1.74015 1.8749 0
M  V30 7341 H 692.424 -3.65101 3.53077 0
M  V30 7342 H 692.354 -4.79827 2.16964 0
M  V30 7343 H 694.845 -3.25738 1.91581 0
M  V30 7344 H 695.158 -6.32245 4.44394 0
M  V30 7345 H 693.503 -5.68995 3.99086 0
M  V30 7346 H 696.694 -3.99151 2.44533 0
M  V30 7347 H 696.867 -5.38933 3.59799 0
M  V30 7348 N 690.273 -0.685099 -1.4193 0
M  V30 7349 C 691.513 -0.215676 -2.03259 0
M  V30 7350 C 691.877 1.15934 -1.53047 0
M  V30 7351 O 693.078 1.72401 -2.06231 0
M  V30 7352 C 691.349 -0.259649 -3.56456 0
M  V30 7353 S 692.908 0.137262 -4.38585 0
M  V30 7354 H 689.726 -0.0877362 -0.705566 0
M  V30 7355 H 692.328 -0.900547 -1.73523 0
M  V30 7356 H 691.032 -1.26256 -3.90497 0
M  V30 7357 H 690.563 0.444716 -3.90878 0
M  V30 7358 H 692.578 1.36787 -4.76973 0
M  V30 7359 N 691.751 1.51645 -0.429126 0
M  V30 7360 C 692.976 2.06917 0.141399 0
M  V30 7361 C 693.401 1.29527 1.36398 0
M  V30 7362 O 692.759 0.33094 1.78254 0
M  V30 7363 C 692.807 3.57776 0.4504 0
M  V30 7364 O 691.911 3.82639 1.53821 0
M  V30 7365 H 691.252 0.663978 0.0054647 0
M  V30 7366 H 693.782 1.95355 -0.608093 0
M  V30 7367 H 693.792 4.01894 0.703249 0
M  V30 7368 H 692.467 4.13532 -0.443213 0
M  V30 7369 H 691.044 3.5039 1.27597 0
M  V30 7370 N 693.229 0.160201 1.56784 0
M  V30 7371 C 694.476 -0.487588 1.96542 0
M  V30 7372 C 694.804 -1.63999 1.04569 0
M  V30 7373 O 694.059 -1.95546 0.0775211 0
M  V30 7374 C 694.358 -1.02259 3.42459 0
M  V30 7375 C 694.024 0.0127436 4.50898 0
M  V30 7376 C 692.686 0.297318 4.80281 0
M  V30 7377 C 695.038 0.716078 5.16257 0
M  V30 7378 C 692.366 1.29081 5.72324 0
M  V30 7379 C 694.718 1.69847 6.09372 0
M  V30 7380 C 693.382 1.99061 6.37127 0
M  V30 7381 H 692.652 -0.178421 0.719199 0
M  V30 7382 H 695.299 0.249818 1.89864 0
M  V30 7383 H 693.604 -1.8376 3.46034 0
M  V30 7384 H 695.301 -1.53261 3.70556 0
M  V30 7385 H 691.891 -0.219235 4.28039 0
M  V30 7386 H 696.075 0.509428 4.93679 0
M  V30 7387 H 691.331 1.52344 5.92116 0
M  V30 7388 H 695.505 2.2489 6.59088 0
M  V30 7389 H 693.132 2.76194 7.08252 0
M  V30 7390 N 694.707 -1.5719 -0.113559 0
M  V30 7391 C 695.655 -2.01725 -1.158 0
M  V30 7392 C 696.649 -0.915105 -1.42556 0
M  V30 7393 O 697.855 -1.10031 -1.42454 0
M  V30 7394 H 694.23 -0.64262 -0.390569 0
M  V30 7395 H 696.201 -2.88666 -0.755926 0
M  V30 7396 C 694.95 -2.44203 -2.47507 0
M  V30 7397 H 694.273 -3.28582 -2.27758 0
M  V30 7398 H 695.713 -2.79158 -3.19135 0
M  V30 7399 C 694.172 -1.30785 -3.10478 0
M  V30 7400 O 694.702 -0.626807 -3.9678 0
M  V30 7401 N 692.908 -1.06352 -2.7044 0
M  V30 7402 H 692.455 -1.61913 -2.00355 0
M  V30 7403 H 692.413 -0.306614 -3.12901 0
M  V30 7404 N 696.185 0.383891 -1.52853 0
M  V30 7405 C 697.433 1.12619 -1.67814 0
M  V30 7406 C 697.754 1.90354 -0.423141 0
M  V30 7407 O 697.024 1.87649 0.562554 0
M  V30 7408 H 695.604 0.418738 -0.618601 0
M  V30 7409 H 698.266 0.43495 -1.89985 0
M  V30 7410 H 697.362 1.82624 -2.5309 0
M  V30 7411 N 697.663 1.43903 0.642637 0
M  V30 7412 C 698.94 1.36556 1.40043 0
M  V30 7413 C 699.32 0.0185588 2.11092 0
M  V30 7414 O 698.668 -0.998438 2.05532 0
M  V30 7415 C 698.878 2.55596 2.37638 0
M  V30 7416 C 700.226 2.99153 3.01318 0
M  V30 7417 O 701.25 2.55719 2.47965 0
M  V30 7418 O 700.109 3.74427 3.98078 0
M  V30 7419 H 697.203 0.540189 0.626198 0
M  V30 7420 H 699.749 1.55971 0.668657 0
M  V30 7421 H 698.521 3.45256 1.84158 0
M  V30 7422 H 698.144 2.38334 3.18249 0
M  V30 7423 N 699.141 -0.881989 1.30609 0
M  V30 7424 C 700.388 -1.63405 1.19604 0
M  V30 7425 C 700.716 -1.92905 -0.248574 0
M  V30 7426 O 699.971 -1.55062 -1.19391 0
M  V30 7427 C 700.27 -2.97999 1.97311 0
M  V30 7428 C 699.936 -2.88039 3.46907 0
M  V30 7429 C 698.598 -2.85029 3.877 0
M  V30 7430 C 700.95 -2.75948 4.42156 0
M  V30 7431 C 698.278 -2.67772 5.2203 0
M  V30 7432 C 700.63 -2.60228 5.76597 0
M  V30 7433 C 699.294 -2.55595 6.16626 0
M  V30 7434 H 698.564 -0.597941 0.437662 0
M  V30 7435 H 701.211 -1.02524 1.61744 0
M  V30 7436 H 699.516 -3.62847 1.47815 0
M  V30 7437 H 701.213 -3.55156 1.86186 0
M  V30 7438 H 697.803 -2.91192 3.14492 0
M  V30 7439 H 701.987 -2.77337 4.1158 0
M  V30 7440 H 697.243 -2.62601 5.52133 0
M  V30 7441 H 701.417 -2.49847 6.50038 0
M  V30 7442 H 699.044 -2.41981 7.20659 0
M  V30 7443 N 700.619 -1.13374 -1.09472 0
M  V30 7444 C 701.865 -0.896516 -1.81908 0
M  V30 7445 C 702.198 0.575933 -1.85463 0
M  V30 7446 O 701.473 1.42618 -1.32251 0
M  V30 7447 C 701.756 -1.48445 -3.28079 0
M  V30 7448 C 701.609 -3.02598 -3.32798 0
M  V30 7449 C 702.928 -1.15226 -4.24748 0
M  V30 7450 H 700.047 -0.327127 -0.660422 0
M  V30 7451 H 702.689 -1.40195 -1.2824 0
M  V30 7452 H 700.839 -1.0546 -3.73912 0
M  V30 7453 H 702.511 -3.54335 -2.95372 0
M  V30 7454 H 700.754 -3.37613 -2.72397 0
M  V30 7455 H 701.425 -3.38835 -4.3577 0
M  V30 7456 H 703.901 -1.52369 -3.87199 0
M  V30 7457 H 702.777 -1.59012 -5.25363 0
M  V30 7458 H 703.038 -0.0658891 -4.42051 0
M  V30 7459 N 702.098 1.27442 -0.927168 0
M  V30 7460 C 703.338 1.96157 -0.574608 0
M  V30 7461 C 703.702 1.71265 0.867897 0
M  V30 7462 O 704.903 2.33664 1.3287 0
M  V30 7463 C 703.174 3.46115 -0.891009 0
M  V30 7464 S 704.733 4.34006 -0.646885 0
M  V30 7465 H 701.551 0.678619 -0.212125 0
M  V30 7466 H 704.153 1.54688 -1.19549 0
M  V30 7467 H 702.857 3.6173 -1.93854 0
M  V30 7468 H 702.388 3.92545 -0.259301 0
M  V30 7469 H 704.403 4.93719 0.495568 0
M  V30 7470 N 703.576 0.692616 1.41565 0
M  V30 7471 C 704.824 0.221896 2.00878 0
M  V30 7472 C 705.145 -1.18164 1.5512 0
M  V30 7473 O 704.415 -1.79679 0.78054 0
M  V30 7474 H 702.995 0.0790463 0.742806 0
M  V30 7475 H 705.657 0.893115 1.73232 0
M  V30 7476 H 704.753 0.23702 3.11199 0
M  V30 7477 N 705.054 -1.51416 0.437162 0
M  V30 7478 C 705.986 -2.255 -0.410171 0
M  V30 7479 C 706.999 -1.29511 -0.986444 0
M  V30 7480 O 708.188 -1.55266 -0.880614 0
M  V30 7481 C 705.288 -2.99511 -1.58575 0
M  V30 7482 C 704.461 -4.22595 -1.12839 0
M  V30 7483 C 703.52 -4.79187 -2.17407 0
M  V30 7484 O 702.546 -5.4103 -1.76849 0
M  V30 7485 N 703.748 -4.63204 -3.49889 0
M  V30 7486 H 706.513 -2.98856 0.224783 0
M  V30 7487 H 704.074 -1.59699 0.266041 0
M  V30 7488 H 706.066 -3.34258 -2.28152 0
M  V30 7489 H 704.636 -2.29167 -2.12606 0
M  V30 7490 H 703.856 -3.93344 -0.259695 0
M  V30 7491 H 705.144 -5.02468 -0.800196 0
M  V30 7492 H 704.542 -4.13945 -3.85573 0
M  V30 7493 H 703.099 -5.02313 -4.15361 0
M  V30 7494 N 706.532 -0.168513 -1.56696 0
M  V30 7495 C 707.772 0.479648 -1.98693 0
M  V30 7496 C 708.136 1.60609 -1.05209 0
M  V30 7497 O 709.337 2.3166 -1.36334 0
M  V30 7498 C 707.608 0.952852 -3.44464 0
M  V30 7499 S 709.167 1.60259 -4.08488 0
M  V30 7500 H 705.985 0.154377 -0.694038 0
M  V30 7501 H 708.587 -0.265312 -1.93691 0
M  V30 7502 H 707.291 0.12257 -4.10217 0
M  V30 7503 H 706.822 1.73192 -3.53225 0
M  V30 7504 H 708.837 2.89065 -4.03307 0
M  V30 7505 N 708.01 1.57248 0.105221 0
M  V30 7506 C 709.256 1.85845 0.811753 0
M  V30 7507 C 709.589 0.756219 1.78871 0
M  V30 7508 O 708.864 -0.236736 1.93054 0
M  V30 7509 C 709.147 3.25059 1.54947 0
M  V30 7510 C 709 4.45898 0.591185 0
M  V30 7511 C 710.319 3.6203 2.50245 0
M  V30 7512 H 707.438 0.675973 0.293649 0
M  V30 7513 H 710.08 1.89849 0.0756269 0
M  V30 7514 H 708.23 3.21776 2.17698 0
M  V30 7515 H 709.902 4.61291 -0.0285352 0
M  V30 7516 H 708.145 4.33693 -0.0962343 0
M  V30 7517 H 708.816 5.40009 1.1443 0
M  V30 7518 H 711.292 3.66192 1.97593 0
M  V30 7519 H 710.168 4.60389 2.98886 0
M  V30 7520 H 710.429 2.90176 3.33542 0
M  V30 7521 N 709.488 -0.375779 1.53054 0
M  V30 7522 C 710.728 -1.12828 1.70438 0
M  V30 7523 C 711.092 -1.86854 0.441527 0
M  V30 7524 O 712.293 -2.64261 0.491908 0
M  V30 7525 C 710.564 -2.07009 2.91345 0
M  V30 7526 S 712.123 -2.89917 3.29383 0
M  V30 7527 H 708.941 -0.381736 0.599832 0
M  V30 7528 H 711.543 -0.4109 1.91133 0
M  V30 7529 H 710.247 -1.51371 3.81464 0
M  V30 7530 H 709.778 -2.83236 2.73022 0
M  V30 7531 H 711.793 -4.0924 2.80601 0
M  V30 7532 N 710.966 -1.44241 -0.634997 0
M  V30 7533 C 712.191 -1.50516 -1.42687 0
M  V30 7534 C 712.616 -0.129864 -1.87651 0
M  V30 7535 O 711.974 0.880164 -1.58502 0
M  V30 7536 C 712.022 -2.4714 -2.62591 0
M  V30 7537 O 711.126 -1.97025 -3.62291 0
M  V30 7538 H 710.467 -0.50841 -0.427101 0
M  V30 7539 H 712.997 -1.89337 -0.775408 0
M  V30 7540 H 713.007 -2.65048 -3.10183 0
M  V30 7541 H 711.682 -3.47039 -2.29209 0
M  V30 7542 H 710.259 -1.88866 -3.21534 0
M  V30 7543 N 712.444 0.87505 -1.31075 0
M  V30 7544 C 713.354 2.01441 -1.20244 0
M  V30 7545 C 714.37 1.73584 -0.120227 0
M  V30 7546 O 715.546 1.98559 -0.337063 0
M  V30 7547 C 712.611 3.34675 -0.905199 0
M  V30 7548 C 711.672 3.75889 -2.0738 0
M  V30 7549 C 710.905 5.02764 -1.79064 0
M  V30 7550 O 711.128 5.65795 -0.723318 0
M  V30 7551 O 710.062 5.40623 -2.64594 0
M  V30 7552 H 713.888 2.13509 -2.1598 0
M  V30 7553 H 711.473 1.00257 -1.10765 0
M  V30 7554 H 713.355 4.1458 -0.755057 0
M  V30 7555 H 712.03 3.23692 0.0221695 0
M  V30 7556 H 710.937 2.96645 -2.27931 0
M  V30 7557 H 712.27 3.91489 -2.98324 0
M  V30 7558 N 713.922 1.13953 1.08869 0
M  V30 7559 C 715.17 0.903023 1.80803 0
M  V30 7560 C 715.491 -0.572151 1.86417 0
M  V30 7561 O 714.761 -1.41589 1.35386 0
M  V30 7562 H 713.341 0.331099 0.669614 0
M  V30 7563 H 716.003 1.43719 1.31647 0
M  V30 7564 H 715.099 1.29881 2.83791 0
M  V30 7565 N 715.4 -1.26948 0.933913 0
M  V30 7566 C 716.646 -1.94716 0.587985 0
M  V30 7567 C 717.001 -1.71994 -0.862312 0
M  V30 7568 O 716.294 -1.04208 -1.60783 0
M  V30 7569 C 716.488 -3.46963 0.857406 0
M  V30 7570 C 716.317 -3.84489 2.33234 0
M  V30 7571 C 715.087 -4.07621 2.98618 0
M  V30 7572 C 717.285 -3.93602 3.31031 0
M  V30 7573 N 715.267 -4.31976 4.362 0
M  V30 7574 C 716.638 -4.22404 4.53845 0
M  V30 7575 C 718.693 -3.76201 3.26155 0
M  V30 7576 C 717.396 -4.35615 5.72391 0
M  V30 7577 C 719.422 -3.90641 4.4402 0
M  V30 7578 C 718.784 -4.19835 5.65613 0
M  V30 7579 H 714.883 -0.735586 0.2654 0
M  V30 7580 H 717.467 -1.53181 1.20182 0
M  V30 7581 H 715.638 -3.87442 0.27268 0
M  V30 7582 H 717.37 -4.01921 0.47348 0
M  V30 7583 H 714.125 -4.02696 2.49264 0
M  V30 7584 H 714.549 -4.48199 5.07392 0
M  V30 7585 H 719.191 -3.52665 2.3321 0
M  V30 7586 H 716.909 -4.57975 6.65796 0
M  V30 7587 H 720.495 -3.78589 4.41771 0
M  V30 7588 H 719.375 -4.30765 6.55295 0
M  V30 7589 N 716.879 -0.700114 -1.41195 0
M  V30 7590 C 718.104 -0.240704 -2.05998 0
M  V30 7591 C 718.529 1.10313 -1.52357 0
M  V30 7592 O 717.887 1.69154 -0.652424 0
M  V30 7593 C 717.935 -0.213783 -3.59966 0
M  V30 7594 O 717.039 0.809933 -4.04368 0
M  V30 7595 H 716.38 -0.116471 -0.653705 0
M  V30 7596 H 718.91 -0.956251 -1.80878 0
M  V30 7597 H 718.92 -0.0461852 -4.07974 0
M  V30 7598 H 717.595 -1.19454 -3.98376 0
M  V30 7599 H 716.172 0.611319 -3.67855 0
M  V30 7600 N 718.357 1.51182 -0.445186 0
M  V30 7601 C 719.605 2.01753 0.11841 0
M  V30 7602 C 719.926 1.33087 1.42523 0
M  V30 7603 O 719.196 0.467891 1.9023 0
M  V30 7604 H 717.776 0.745536 0.0467492 0
M  V30 7605 H 720.438 1.85765 -0.589688 0
M  V30 7606 H 719.534 3.10762 0.288665 0
M  V30 7607 N 719.835 0.176821 1.56605 0
M  V30 7608 C 720.767 -0.782836 2.15417 0
M  V30 7609 C 721.78 -1.18982 1.11117 0
M  V30 7610 O 722.969 -1.12872 1.38283 0
M  V30 7611 C 720.069 -2.06596 2.68647 0
M  V30 7612 C 719.242 -1.82167 3.9766 0
M  V30 7613 C 718.301 -2.94751 4.35899 0
M  V30 7614 O 717.327 -2.65148 5.03672 0
M  V30 7615 N 718.529 -4.2267 3.97907 0
M  V30 7616 H 721.294 -0.280012 2.98389 0
M  V30 7617 H 718.855 -0.00577529 1.61899 0
M  V30 7618 H 720.847 -2.81018 2.91223 0
M  V30 7619 H 719.417 -2.48054 1.90232 0
M  V30 7620 H 718.637 -0.916208 3.83405 0
M  V30 7621 H 719.925 -1.6322 4.81909 0
M  V30 7622 H 719.323 -4.4958 3.43357 0
M  V30 7623 H 717.88 -4.93778 4.25472 0
M  V30 7624 N 721.313 -1.57302 -0.09688 0
M  V30 7625 C 722.541 -1.90202 -0.814295 0
M  V30 7626 C 722.956 -0.770344 -1.72369 0
M  V30 7627 O 722.313 0.257764 -1.8067 0
M  V30 7628 C 722.364 -3.22708 -1.62916 0
M  V30 7629 O 722.085 -4.31522 -0.756343 0
M  V30 7630 C 723.586 -3.69459 -2.44979 0
M  V30 7631 H 720.806 -0.629275 -0.232925 0
M  V30 7632 H 723.35 -2.04364 -0.0746482 0
M  V30 7633 H 721.505 -3.1015 -2.32133 0
M  V30 7634 H 721.919 -5.07604 -1.32054 0
M  V30 7635 H 723.393 -4.64875 -2.9765 0
M  V30 7636 H 723.87 -2.97211 -3.23361 0
M  V30 7637 H 724.476 -3.84879 -1.80964 0
M  V30 7638 N 722.791 0.367657 -1.53252 0
M  V30 7639 C 724.031 1.11923 -1.71034 0
M  V30 7640 C 724.395 1.86618 -0.45143 0
M  V30 7641 O 725.596 2.63996 -0.505915 0
M  V30 7642 C 723.867 2.05461 -2.92439 0
M  V30 7643 S 725.426 2.88167 -3.30916 0
M  V30 7644 H 722.244 0.378549 -0.601848 0
M  V30 7645 H 724.846 0.400757 -1.91348 0
M  V30 7646 H 723.55 1.49346 -3.82262 0
M  V30 7647 H 723.081 2.81784 -2.7452 0
M  V30 7648 H 725.096 4.07746 -2.82767 0
M  V30 7649 N 724.269 1.44576 0.627338 0
M  V30 7650 C 725.217 1.52039 1.76031 0
M  V30 7651 C 726.211 0.391796 1.64807 0
M  V30 7652 O 727.417 0.5669 1.7084 0
M  V30 7653 H 723.792 0.477165 0.581221 0
M  V30 7654 H 725.763 2.47387 1.6686 0
M  V30 7655 C 724.512 1.48539 3.14375 0
M  V30 7656 H 723.835 2.34699 3.23661 0
M  V30 7657 H 725.275 1.57821 3.93534 0
M  V30 7658 C 723.734 0.20672 3.36265 0
M  V30 7659 O 724.264 -0.72154 3.95167 0
M  V30 7660 N 722.47 0.108654 2.90397 0
M  V30 7661 H 722.017 0.864884 2.42647 0
M  V30 7662 H 721.975 -0.746121 3.05418 0
M  V30 7663 N 725.747 -0.868086 1.31537 0
M  V30 7664 C 726.987 -1.63526 1.22632 0
M  V30 7665 C 727.351 -1.90828 -0.211815 0
M  V30 7666 O 728.552 -2.65429 -0.424387 0
M  V30 7667 C 726.823 -2.92849 2.04876 0
M  V30 7668 S 728.382 -3.83717 2.12853 0
M  V30 7669 H 725.2 -0.56105 0.436743 0
M  V30 7670 H 727.802 -1.02908 1.66223 0
M  V30 7671 H 726.506 -2.70717 3.08449 0
M  V30 7672 H 726.037 -3.58491 1.62011 0
M  V30 7673 H 728.052 -4.79719 1.26822 0
M  V30 7674 N 727.225 -1.14528 -1.08264 0
M  V30 7675 C 728.45 -0.938381 -1.84957 0
M  V30 7676 C 728.875 0.508044 -1.81109 0
M  V30 7677 O 728.233 1.36146 -1.19724 0
M  V30 7678 C 728.281 -1.44568 -3.30352 0
M  V30 7679 O 727.385 -0.638745 -4.07423 0
M  V30 7680 H 726.726 -0.335394 -0.573068 0
M  V30 7681 H 729.256 -1.52287 -1.36637 0
M  V30 7682 H 729.266 -1.45449 -3.81194 0
M  V30 7683 H 727.941 -2.49876 -3.32468 0
M  V30 7684 H 726.518 -0.698801 -3.66294 0
M  V30 7685 N 728.703 1.26451 -0.940633 0
M  V30 7686 C 729.931 1.97868 -0.604642 0
M  V30 7687 C 730.346 1.70051 0.820251 0
M  V30 7688 O 729.703 0.96843 1.54686 0
M  V30 7689 C 729.754 3.51684 -0.836689 0
M  V30 7690 O 729.475 3.78533 -2.20554 0
M  V30 7691 C 730.976 4.40343 -0.511169 0
M  V30 7692 H 728.196 0.631105 -0.227919 0
M  V30 7693 H 730.74 1.60979 -1.26119 0
M  V30 7694 H 728.895 3.86736 -0.226759 0
M  V30 7695 H 729.309 4.73065 -2.26517 0
M  V30 7696 H 730.783 5.47229 -0.724157 0
M  V30 7697 H 731.26 4.35694 0.553815 0
M  V30 7698 H 731.866 4.10834 -1.0998 0
M  V30 7699 N 730.181 0.707592 1.40822 0
M  V30 7700 C 731.429 0.243189 2.00632 0
M  V30 7701 C 731.75 -1.16512 1.56365 0
M  V30 7702 O 731.02 -1.78841 0.799553 0
M  V30 7703 H 729.6 0.0869203 0.741926 0
M  V30 7704 H 732.262 0.911438 1.72275 0
M  V30 7705 H 731.358 0.270014 3.1093 0
M  V30 7706 N 731.66 -1.50943 0.453197 0
M  V30 7707 C 732.885 -2.07116 -0.108463 0
M  V30 7708 C 733.31 -1.31681 -1.3432 0
M  V30 7709 O 732.668 -0.359256 -1.77705 0
M  V30 7710 C 732.716 -3.58447 -0.393424 0
M  V30 7711 O 731.82 -3.85038 -1.47714 0
M  V30 7712 H 731.161 -0.66398 0.0050993 0
M  V30 7713 H 733.691 -1.94362 0.639095 0
M  V30 7714 H 733.701 -4.02961 -0.639222 0
M  V30 7715 H 732.376 -4.12774 0.508946 0
M  V30 7716 H 730.953 -3.52376 -1.22006 0
M  V30 7717 N 733.138 -0.185124 -1.56509 0
M  V30 7718 C 734.068 0.735098 -2.21627 0
M  V30 7719 C 735.049 1.2288 -1.1762 0
M  V30 7720 O 736.234 1.27945 -1.46095 0
M  V30 7721 C 733.364 1.95889 -2.86783 0
M  V30 7722 C 732.318 1.6005 -3.96948 0
M  V30 7723 C 731.644 2.90009 -4.4922 0
M  V30 7724 C 732.944 0.818008 -5.15855 0
M  V30 7725 H 734.638 0.192274 -2.98782 0
M  V30 7726 H 732.184 0.0910393 -1.43712 0
M  V30 7727 H 734.137 2.60779 -3.31017 0
M  V30 7728 H 732.861 2.52608 -2.07018 0
M  V30 7729 H 731.52 0.975237 -3.5339 0
M  V30 7730 H 731.168 3.44797 -3.6623 0
M  V30 7731 H 730.868 2.66778 -5.23549 0
M  V30 7732 H 732.392 3.55904 -4.9615 0
M  V30 7733 H 733.806 1.36979 -5.56695 0
M  V30 7734 H 732.203 0.684207 -5.96187 0
M  V30 7735 H 733.273 -0.182939 -4.84555 0
M  V30 7736 N 734.616 1.57351 0.0885366 0
M  V30 7737 C 735.841 1.91011 0.80805 0
M  V30 7738 C 736.266 0.780009 1.71165 0
M  V30 7739 O 735.624 -0.268083 1.79307 0
M  V30 7740 C 735.672 3.23562 1.59185 0
M  V30 7741 O 734.776 3.11615 2.7013 0
M  V30 7742 H 734.117 0.625943 0.221565 0
M  V30 7743 H 736.647 2.04507 0.0617954 0
M  V30 7744 H 736.657 3.5703 1.97468 0
M  V30 7745 H 735.332 4.05398 0.928741 0
M  V30 7746 H 733.909 2.89673 2.34827 0
M  V30 7747 N 736.094 -0.359525 1.53444 0
M  V30 7748 C 737.371 -1.11756 1.6053 0
M  V30 7749 C 737.751 -2.06949 0.416587 0
M  V30 7750 O 737.099 -2.20681 -0.592628 0
M  V30 7751 C 737.309 -1.85133 2.95849 0
M  V30 7752 C 738.657 -2.3945 3.50641 0
M  V30 7753 O 739.681 -1.95251 2.97918 0
M  V30 7754 O 738.54 -3.20266 4.42823 0
M  V30 7755 H 735.634 -0.513005 0.648656 0
M  V30 7756 H 738.18 -0.362301 1.65787 0
M  V30 7757 H 736.952 -1.15694 3.73806 0
M  V30 7758 H 736.575 -2.67554 2.9411 0
M  V30 7759 N 737.572 -1.44907 -0.619662 0
M  V30 7760 C 738.821 -1.47569 -1.37501 0
M  V30 7761 C 739.134 -0.116707 -1.95252 0
M  V30 7762 O 740.34 -0.020909 -2.71492 0
M  V30 7763 C 738.796 -2.59851 -2.49009 0
M  V30 7764 C 738.404 -4.02008 -1.97722 0
M  V30 7765 C 740.148 -2.71746 -3.2612 0
M  V30 7766 C 738.055 -5.05693 -3.0664 0
M  V30 7767 H 736.985 -0.549068 -0.51676 0
M  V30 7768 H 739.636 -1.71009 -0.665437 0
M  V30 7769 H 738.018 -2.29671 -3.22594 0
M  V30 7770 H 739.192 -4.41809 -1.30925 0
M  V30 7771 H 737.507 -3.94456 -1.33392 0
M  V30 7772 H 740.104 -3.46382 -4.07337 0
M  V30 7773 H 740.447 -1.77959 -3.76346 0
M  V30 7774 H 740.98 -3.01392 -2.5963 0
M  V30 7775 H 737.719 -6.01148 -2.61345 0
M  V30 7776 H 737.239 -4.70473 -3.72042 0
M  V30 7777 H 738.918 -5.29906 -3.71226 0
M  V30 7778 N 739.05 0.861098 -1.31996 0
M  V30 7779 C 739.982 1.97551 -1.16216 0
M  V30 7780 C 740.995 1.625 -0.0988527 0
M  V30 7781 O 742.184 1.75091 -0.3472 0
M  V30 7782 C 739.284 3.30376 -0.755307 0
M  V30 7783 C 738.457 3.93711 -1.90552 0
M  V30 7784 C 737.516 5.04862 -1.48328 0
M  V30 7785 O 736.542 5.25204 -2.19431 0
M  V30 7786 N 737.744 5.79283 -0.375656 0
M  V30 7787 H 740.509 2.11632 -2.12208 0
M  V30 7788 H 738.07 1.03559 -1.24448 0
M  V30 7789 H 740.062 4.0213 -0.455364 0
M  V30 7790 H 738.632 3.12395 0.113269 0
M  V30 7791 H 737.852 3.14825 -2.37231 0
M  V30 7792 H 739.14 4.32762 -2.67571 0
M  V30 7793 H 738.538 5.65286 0.216284 0
M  V30 7794 H 737.095 6.5166 -0.135289 0
M  V30 7795 N 740.528 1.15101 1.07655 0
M  V30 7796 C 741.939 0.933848 1.61667 0
M  V30 7797 C 742.29 -0.525569 1.8903 0
M  V30 7798 O 741.415 -1.39605 1.65346 0
M  V30 7799 C 742.01 1.68876 2.93711 0
M  V30 7800 C 740.569 1.51697 3.44478 0
M  V30 7801 C 739.716 1.70633 2.18586 0
M  V30 7802 H 742.667 1.30171 0.907816 0
M  V30 7803 H 742.688 1.15645 3.625 0
M  V30 7804 H 742.2 2.7509 2.73764 0
M  V30 7805 H 740.301 0.478635 3.69513 0
M  V30 7806 H 740.414 2.29194 4.20722 0
M  V30 7807 H 738.778 1.13259 2.28132 0
M  V30 7808 H 739.561 2.78206 2.01137 0
M  V30 7809 N 742.006 -1.2595 0.947325 0
M  V30 7810 C 743.246 -1.95218 0.605743 0
M  V30 7811 C 743.61 -1.72624 -0.84054 0
M  V30 7812 O 744.811 -2.35748 -1.29136 0
M  V30 7813 C 743.082 -3.44654 0.94596 0
M  V30 7814 S 744.641 -4.32922 0.715849 0
M  V30 7815 H 741.459 -0.675159 0.222894 0
M  V30 7816 H 744.061 -1.52766 1.21995 0
M  V30 7817 H 742.765 -3.586 1.99585 0
M  V30 7818 H 742.296 -3.92082 0.321718 0
M  V30 7819 H 744.311 -4.94445 -0.416959 0
M  V30 7820 N 743.484 -0.715051 -1.40445 0
M  V30 7821 C 744.414 -0.0768699 -2.33373 0
M  V30 7822 C 745.395 0.746109 -1.52863 0
M  V30 7823 O 746.58 0.695142 -1.81332 0
M  V30 7824 C 743.71 0.846014 -3.36838 0
M  V30 7825 C 742.664 0.128694 -4.27806 0
M  V30 7826 C 741.99 1.16726 -5.21804 0
M  V30 7827 C 743.29 -1.01679 -5.12307 0
M  V30 7828 H 744.984 -0.853061 -2.8699 0
M  V30 7829 H 742.53 -0.41167 -1.3799 0
M  V30 7830 H 744.483 1.30185 -4.00786 0
M  V30 7831 H 743.207 1.6541 -2.81615 0
M  V30 7832 H 741.866 -0.307314 -3.6531 0
M  V30 7833 H 741.514 1.96838 -4.62887 0
M  V30 7834 H 741.214 0.692188 -5.83509 0
M  V30 7835 H 742.738 1.62321 -5.88629 0
M  V30 7836 H 744.152 -0.640337 -5.69713 0
M  V30 7837 H 742.549 -1.4202 -5.83053 0
M  V30 7838 H 743.619 -1.84769 -4.48317 0
M  V30 7839 N 744.962 1.50701 -0.461195 0
M  V30 7840 C 746.378 1.59187 -0.114786 0
M  V30 7841 C 746.578 1.4702 1.37794 0
M  V30 7842 O 745.634 1.32361 2.15027 0
M  V30 7843 C 746.947 2.93453 -0.656167 0
M  V30 7844 C 748.495 3.06824 -0.618715 0
M  V30 7845 C 748.97 4.4365 -1.13747 0
M  V30 7846 N 750.461 4.50035 -1.09646 0
M  V30 7847 C 751.196 5.54278 -1.46846 0
M  V30 7848 N 750.692 6.65822 -1.91448 0
M  V30 7849 N 752.485 5.44767 -1.38512 0
M  V30 7850 H 744.636 1.56853 -1.43216 0
M  V30 7851 H 746.899 0.740712 -0.59165 0
M  V30 7852 H 746.605 3.07802 -1.7015 0
M  V30 7853 H 746.479 3.77082 -0.0942261 0
M  V30 7854 H 748.866 2.92129 0.417685 0
M  V30 7855 H 748.947 2.24976 -1.21734 0
M  V30 7856 H 748.591 4.59093 -2.17245 0
M  V30 7857 H 748.521 5.24074 -0.515153 0
M  V30 7858 H 751.012 3.69988 -0.769217 0
M  V30 7859 H 751.325 7.41413 -2.18007 0
M  V30 7860 H 749.67 6.66968 -1.95393 0
M  V30 7861 H 752.861 4.56511 -1.03516 0
M  V30 7862 H 753.034 6.25889 -1.6783 0
M  V30 7863 N 746.441 0.193421 1.56409 0
M  V30 7864 C 747.351 -0.740112 2.2262 0
M  V30 7865 C 748.367 -1.23597 1.22474 0
M  V30 7866 O 749.543 -1.28348 1.55206 0
M  V30 7867 C 746.608 -1.94317 2.87127 0
M  V30 7868 C 745.669 -1.49205 4.02538 0
M  V30 7869 C 744.902 -2.63776 4.63959 0
M  V30 7870 O 745.125 -3.81215 4.24301 0
M  V30 7871 O 744.059 -2.36585 5.53454 0
M  V30 7872 H 747.885 -0.206238 3.02999 0
M  V30 7873 H 745.47 -0.0357938 1.49357 0
M  V30 7874 H 747.352 -2.64633 3.27944 0
M  V30 7875 H 746.027 -2.46568 2.09728 0
M  V30 7876 H 744.934 -0.757738 3.66346 0
M  V30 7877 H 746.267 -1.01622 4.81595 0
M  V30 7878 N 747.919 -1.57396 -0.0801906 0
M  V30 7879 C 749.167 -1.86467 -0.779384 0
M  V30 7880 C 749.488 -0.784243 -1.78535 0
M  V30 7881 O 748.758 0.187986 -1.94996 0
M  V30 7882 H 747.338 -0.68806 -0.29083 0
M  V30 7883 H 750 -1.94813 -0.0582749 0
M  V30 7884 H 749.096 -2.83701 -1.30078 0
M  V30 7885 N 749.397 0.351382 -1.53633 0
M  V30 7886 C 750.307 1.45471 -1.84052 0
M  V30 7887 C 751.323 1.57945 -0.730015 0
M  V30 7888 O 752.499 1.73571 -1.02153 0
M  V30 7889 C 749.564 2.80562 -2.03681 0
M  V30 7890 C 748.625 2.77497 -3.27558 0
M  V30 7891 C 747.858 4.06144 -3.46241 0
M  V30 7892 O 748.081 5.03028 -2.68922 0
M  V30 7893 O 747.015 4.11092 -4.39645 0
M  V30 7894 H 750.841 1.22684 -2.77817 0
M  V30 7895 H 748.426 0.542827 -1.3919 0
M  V30 7896 H 750.308 3.6058 -2.18082 0
M  V30 7897 H 748.983 3.03296 -1.13106 0
M  V30 7898 H 747.89 1.96126 -3.18568 0
M  V30 7899 H 749.223 2.59716 -4.18101 0
M  V30 7900 N 750.875 1.45233 0.611969 0
M  V30 7901 C 752.152 1.39495 1.37115 0
M  V30 7902 C 752.532 0.0633303 2.11005 0
M  V30 7903 O 751.88 -0.954617 2.07604 0
M  V30 7904 C 752.09 2.60579 2.32163 0
M  V30 7905 C 753.438 3.05477 2.94905 0
M  V30 7906 O 754.462 2.60921 2.42485 0
M  V30 7907 O 753.321 3.82787 3.90047 0
M  V30 7908 H 750.415 0.55335 0.614599 0
M  V30 7909 H 752.961 1.57355 0.635423 0
M  V30 7910 H 751.733 3.49085 1.76793 0
M  V30 7911 H 751.356 2.45031 3.13122 0
M  V30 7912 N 752.353 -0.854086 1.3245 0
M  V30 7913 C 753.3 -1.96271 1.21434 0
M  V30 7914 C 754.27 -1.6582 0.0963851 0
M  V30 7915 O 755.455 -1.88851 0.27203 0
M  V30 7916 C 752.595 -3.31939 0.943952 0
M  V30 7917 C 751.708 -3.74885 2.14675 0
M  V30 7918 C 750.843 -4.99347 1.81179 0
M  V30 7919 C 749.882 -5.34785 2.97777 0
M  V30 7920 N 749.019 -6.50425 2.6437 0
M  V30 7921 H 753.859 -2.05025 2.16261 0
M  V30 7922 H 751.396 -1.00348 1.07558 0
M  V30 7923 H 753.354 -4.10076 0.767675 0
M  V30 7924 H 751.984 -3.22784 0.0324763 0
M  V30 7925 H 751.036 -2.92396 2.43328 0
M  V30 7926 H 752.348 -3.97068 3.01891 0
M  V30 7927 H 751.502 -5.85193 1.60107 0
M  V30 7928 H 750.241 -4.79101 0.911777 0
M  V30 7929 H 749.246 -4.47451 3.1948 0
M  V30 7930 H 750.471 -5.56988 3.88511 0
M  V30 7931 H 748.417 -6.31695 1.7691 0
M  V30 7932 H 748.334 -6.7263 3.45116 0
M  V30 7933 H 749.602 -7.39422 2.46729 0
M  V30 7934 N 753.831 -1.1567 -1.07043 0
M  V30 7935 C 755.242 -0.942408 -1.61169 0
M  V30 7936 C 755.593 0.515537 -1.89306 0
M  V30 7937 O 754.718 1.38726 -1.66084 0
M  V30 7938 C 755.313 -1.70431 -2.92812 0
M  V30 7939 C 753.872 -1.53521 -3.43669 0
M  V30 7940 C 753.019 -1.7179 -2.17678 0
M  V30 7941 H 755.97 -1.3065 -0.9009 0
M  V30 7942 H 755.991 -1.17566 -3.61882 0
M  V30 7943 H 755.503 -2.76538 -2.72302 0
M  V30 7944 H 753.604 -0.498224 -3.69254 0
M  V30 7945 H 753.717 -2.31422 -4.19501 0
M  V30 7946 H 752.081 -1.14468 -2.27529 0
M  V30 7947 H 752.864 -2.79269 -1.99659 0
M  V30 7948 N 755.309 1.25446 -0.953992 0
M  V30 7949 C 756.549 1.94894 -0.616087 0
M  V30 7950 C 756.913 1.73067 0.831374 0
M  V30 7951 O 758.114 2.3643 1.27884 0
M  V30 7952 C 756.385 3.44147 -0.964225 0
M  V30 7953 S 757.944 4.32536 -0.738798 0
M  V30 7954 H 754.762 0.673967 -0.226472 0
M  V30 7955 H 757.364 1.52117 -1.22803 0
M  V30 7956 H 756.068 3.57537 -2.01484 0
M  V30 7957 H 755.599 3.91906 -0.342507 0
M  V30 7958 H 757.614 4.94659 0.390732 0
M  V30 7959 N 756.787 0.722489 1.40064 0
M  V30 7960 C 758.012 0.273446 2.05589 0
M  V30 7961 C 758.437 -1.07875 1.54093 0
M  V30 7962 O 757.795 -1.68095 0.679252 0
M  V30 7963 C 757.843 0.271023 3.5958 0
M  V30 7964 O 756.947 -0.745499 4.05606 0
M  V30 7965 H 756.288 0.126856 0.65177 0
M  V30 7966 H 758.818 0.984906 1.79334 0
M  V30 7967 H 758.828 0.111084 4.07849 0
M  V30 7968 H 757.503 1.25776 3.96425 0
M  V30 7969 H 756.08 -0.552719 3.68781 0
M  V30 7970 N 758.265 -1.50454 0.469181 0
M  V30 7971 C 759.513 -2.01916 -0.0862982 0
M  V30 7972 C 759.834 -1.35337 -1.40388 0
M  V30 7973 O 759.104 -0.498096 -1.89462 0
M  V30 7974 H 757.684 -0.746185 -0.0348825 0
M  V30 7975 H 760.346 -1.84804 0.619167 0
M  V30 7976 H 759.442 -3.11182 -0.239189 0
M  V30 7977 N 759.743 -0.201713 -1.56304 0
M  V30 7978 C 761.159 0.154025 -1.58855 0
M  V30 7979 C 761.359 1.60516 -1.21807 0
M  V30 7980 O 760.415 2.34193 -0.94393 0
M  V30 7981 C 761.728 -0.154319 -3.00304 0
M  V30 7982 C 763.276 -0.0949578 -3.12856 0
M  V30 7983 C 763.751 -0.376703 -4.56448 0
M  V30 7984 N 765.242 -0.325558 -4.62054 0
M  V30 7985 C 765.977 -0.51732 -5.71062 0
M  V30 7986 N 765.473 -0.769789 -6.8851 0
M  V30 7987 N 767.266 -0.45112 -5.60287 0
M  V30 7988 H 759.417 -1.14858 -1.78666 0
M  V30 7989 H 761.68 -0.458934 -0.829508 0
M  V30 7990 H 761.386 -1.16074 -3.31994 0
M  V30 7991 H 761.26 0.540014 -3.73314 0
M  V30 7992 H 763.647 0.902075 -2.80974 0
M  V30 7993 H 763.728 -0.822468 -2.42217 0
M  V30 7994 H 763.372 -1.37108 -4.89044 0
M  V30 7995 H 763.302 0.371772 -5.25286 0
M  V30 7996 H 765.793 -0.137308 -3.7765 0
M  V30 7997 H 766.106 -0.904744 -7.67486 0
M  V30 7998 H 764.451 -0.806758 -6.90302 0
M  V30 7999 H 767.642 -0.254253 -4.67409 0
M  V30 8000 H 767.815 -0.603982 -6.45179 0
M  V30 8001 N 761.222 1.57436 0.0718424 0
M  V30 8002 C 762.47 1.86878 0.769484 0
M  V30 8003 C 762.791 0.7937 1.78116 0
M  V30 8004 O 762.061 -0.177642 1.95093 0
M  V30 8005 H 760.641 0.689593 0.287177 0
M  V30 8006 H 763.303 1.94841 0.0479427 0
M  V30 8007 H 762.399 2.84387 1.28572 0
M  V30 8008 N 762.7 -0.34323 1.53817 0
M  V30 8009 C 763.61 -1.44493 1.84821 0
M  V30 8010 C 764.626 -1.57556 0.738381 0
M  V30 8011 O 765.802 -1.73026 1.03072 0
M  V30 8012 C 762.867 -2.79478 2.05166 0
M  V30 8013 C 761.928 -2.75756 3.29025 0
M  V30 8014 C 761.161 -4.04302 3.4839 0
M  V30 8015 O 761.384 -5.01595 2.71586 0
M  V30 8016 O 760.318 -4.08754 4.41819 0
M  V30 8017 H 764.144 -1.21209 2.78464 0
M  V30 8018 H 761.729 -0.535437 1.39476 0
M  V30 8019 H 763.611 -3.59419 2.19991 0
M  V30 8020 H 762.286 -3.02692 1.14713 0
M  V30 8021 H 761.193 -1.94434 3.19603 0
M  V30 8022 H 762.526 -2.57495 4.19472 0
M  V30 8023 N 764.178 -1.45556 -0.604258 0
M  V30 8024 C 765.418 -1.51289 -1.37445 0
M  V30 8025 C 765.782 -0.152112 -1.91397 0
M  V30 8026 O 766.983 -0.0841419 -2.68668 0
M  V30 8027 C 765.254 -2.5646 -2.48924 0
M  V30 8028 S 766.813 -2.81442 -3.36654 0
M  V30 8029 H 763.631 -0.534774 -0.468549 0
M  V30 8030 H 766.233 -1.82657 -0.696902 0
M  V30 8031 H 764.937 -3.53995 -2.07644 0
M  V30 8032 H 764.468 -2.26753 -3.21476 0
M  V30 8033 H 766.483 -2.15074 -4.47166 0
M  V30 8034 N 765.656 0.84705 -1.32902 0
M  V30 8035 C 766.588 1.96308 -1.18304 0
M  V30 8036 C 767.601 1.62386 -0.116082 0
M  V30 8037 O 768.79 1.74713 -0.365751 0
M  V30 8038 C 765.89 3.29556 -0.790305 0
M  V30 8039 C 765.063 3.91668 -1.94717 0
M  V30 8040 C 764.122 5.0326 -1.53674 0
M  V30 8041 O 763.148 5.22847 -2.24989 0
M  V30 8042 N 764.35 5.78852 -0.437075 0
M  V30 8043 H 767.115 2.09369 -2.14441 0
M  V30 8044 H 764.676 1.02233 -1.25539 0
M  V30 8045 H 766.668 4.01624 -0.49799 0
M  V30 8046 H 765.238 3.12497 0.0801286 0
M  V30 8047 H 764.458 3.12292 -2.40557 0
M  V30 8048 H 765.746 4.299 -2.72146 0
M  V30 8049 H 765.144 5.65484 0.156316 0
M  V30 8050 H 763.701 6.51479 -0.204399 0
M  V30 8051 N 767.134 1.16236 1.06428 0
M  V30 8052 C 768.374 0.95369 1.80787 0
M  V30 8053 C 768.738 -0.509495 1.85117 0
M  V30 8054 O 769.939 -0.836822 2.55442 0
M  V30 8055 C 768.21 1.56235 3.21443 0
M  V30 8056 S 769.769 1.49812 4.12434 0
M  V30 8057 H 766.587 0.343004 0.622792 0
M  V30 8058 H 769.189 1.47957 1.27785 0
M  V30 8059 H 767.893 2.62 3.15886 0
M  V30 8060 H 767.424 1.03574 3.79521 0
M  V30 8061 H 769.439 0.49745 4.937 0
M  V30 8062 N 768.612 -1.24939 0.960631 0
M  V30 8063 C 769.86 -1.92437 0.617441 0
M  V30 8064 C 770.181 -1.75543 -0.849101 0
M  V30 8065 O 769.451 -1.12269 -1.60538 0
M  V30 8066 H 768.031 -0.712192 0.225371 0
M  V30 8067 H 770.693 -1.5198 1.22017 0
M  V30 8068 H 769.789 -3.00247 0.851933 0
M  V30 8069 N 770.09 -0.729906 -1.39679 0
M  V30 8070 C 771.04 -0.0627678 -2.27914 0
M  V30 8071 C 772.024 0.717867 -1.43998 0
M  V30 8072 O 773.216 0.587713 -1.66958 0
M  V30 8073 C 770.345 0.847564 -3.32673 0
M  V30 8074 C 769.431 0.0613515 -4.24056 0
M  V30 8075 N 769.822 -0.962863 -4.96551 0
M  V30 8076 C 768.12 0.291773 -4.45045 0
M  V30 8077 C 768.821 -1.43652 -5.63683 0
M  V30 8078 N 767.797 -0.756044 -5.38317 0
M  V30 8079 H 771.599 -0.847545 -2.81414 0
M  V30 8080 H 769.113 -0.563776 -1.523 0
M  V30 8081 H 771.11 1.34094 -3.94746 0
M  V30 8082 H 769.77 1.63156 -2.80732 0
M  V30 8083 H 770.781 -1.34409 -5.00154 0
M  V30 8084 H 767.458 1.05097 -4.04056 0
M  V30 8085 H 768.848 -2.28835 -6.31731 0
M  V30 8086 N 771.568 1.50203 -0.477153 0
M  V30 8087 C 772.808 2.04265 0.0744065 0
M  V30 8088 C 773.172 1.35082 1.36443 0
M  V30 8089 O 774.373 1.79732 1.99875 0
M  V30 8090 C 772.644 3.56539 0.247874 0
M  V30 8091 S 774.203 4.32219 0.757117 0
M  V30 8092 H 771.021 0.71088 0.0130891 0
M  V30 8093 H 773.623 1.8453 -0.645678 0
M  V30 8094 H 772.327 4.04443 -0.696709 0
M  V30 8095 H 771.858 3.80638 0.993896 0
M  V30 8096 H 773.873 4.52789 2.0297 0
M  V30 8097 N 773.046 0.209999 1.56195 0
M  V30 8098 C 774.292 -0.425442 1.98287 0
M  V30 8099 C 774.625 -1.60232 1.09724 0
M  V30 8100 O 773.9 -1.93902 0.152414 0
M  V30 8101 C 774.183 -0.871189 3.49403 0
M  V30 8102 C 774.036 0.308527 4.48741 0
M  V30 8103 C 775.355 -1.73146 4.04609 0
M  V30 8104 H 772.474 -0.153169 0.720908 0
M  V30 8105 H 775.116 0.303916 1.87554 0
M  V30 8106 H 773.266 -1.49266 3.58681 0
M  V30 8107 H 774.938 0.946487 4.51486 0
M  V30 8108 H 773.181 0.957878 4.23092 0
M  V30 8109 H 773.852 -0.0461143 5.51981 0
M  V30 8110 H 776.328 -1.2072 3.98203 0
M  V30 8111 H 775.204 -2.01228 5.10684 0
M  V30 8112 H 775.465 -2.69083 3.5078 0
M  V30 8113 N 774.524 -1.57472 -0.0634922 0
M  V30 8114 C 775.764 -1.89491 -0.766312 0
M  V30 8115 C 776.128 -0.80475 -1.74321 0
M  V30 8116 O 777.329 -1.00825 -2.49174 0
M  V30 8117 C 775.6 -3.26731 -1.44851 0
M  V30 8118 S 777.159 -3.80516 -2.18525 0
M  V30 8119 H 773.977 -0.663832 -0.254653 0
M  V30 8120 H 776.579 -1.95488 -0.0220867 0
M  V30 8121 H 775.283 -4.03967 -0.723824 0
M  V30 8122 H 774.814 -3.23953 -2.232 0
M  V30 8123 H 776.829 -3.5647 -3.45172 0
M  V30 8124 N 776.003 0.335068 -1.53997 0
M  V30 8125 C 777.233 1.0926 -1.75345 0
M  V30 8126 C 777.641 1.82568 -0.496545 0
M  V30 8127 O 776.984 1.75525 0.541897 0
M  V30 8128 C 777.046 2.14473 -2.88516 0
M  V30 8129 C 776.71 1.60665 -4.27827 0
M  V30 8130 C 777.707 1.05448 -5.09094 0
M  V30 8131 C 775.392 1.65255 -4.74337 0
M  V30 8132 C 777.386 0.555372 -6.34976 0
M  V30 8133 C 775.073 1.14956 -6.0019 0
M  V30 8134 C 776.071 0.601907 -6.80343 0
M  V30 8135 O 775.759 0.106445 -8.0383 0
M  V30 8136 H 775.491 0.331329 -0.589234 0
M  V30 8137 H 778.045 0.39042 -2.01655 0
M  V30 8138 H 776.275 2.88274 -2.5775 0
M  V30 8139 H 777.964 2.75857 -2.97755 0
M  V30 8140 H 778.73 1.01218 -4.74321 0
M  V30 8141 H 774.609 2.06822 -4.12002 0
M  V30 8142 H 778.153 0.127245 -6.97484 0
M  V30 8143 H 774.05 1.18891 -6.34457 0
M  V30 8144 H 774.818 0.222944 -8.18196 0
M  V30 8145 N 777.481 1.45874 0.596531 0
M  V30 8146 C 778.729 1.5017 1.35253 0
M  V30 8147 C 779.05 0.149246 1.94428 0
M  V30 8148 O 778.32 -0.82268 1.77789 0
M  V30 8149 H 776.9 0.553052 0.502138 0
M  V30 8150 H 779.562 1.81908 0.699671 0
M  V30 8151 H 778.658 2.24671 2.16632 0
M  V30 8152 N 778.959 -0.83999 1.33349 0
M  V30 8153 C 779.869 -1.98182 1.25543 0
M  V30 8154 C 780.885 -1.73204 0.166208 0
M  V30 8155 O 782.061 -1.97596 0.389589 0
M  V30 8156 C 779.126 -3.32157 0.993614 0
M  V30 8157 C 778.187 -3.70258 2.17273 0
M  V30 8158 C 777.42 -4.9784 1.92331 0
M  V30 8159 O 777.643 -5.63679 0.873074 0
M  V30 8160 O 776.577 -5.33418 2.78835 0
M  V30 8161 H 780.403 -2.07708 2.21565 0
M  V30 8162 H 777.988 -0.972852 1.13384 0
M  V30 8163 H 779.87 -4.12433 0.864711 0
M  V30 8164 H 778.545 -3.23637 0.0636596 0
M  V30 8165 H 777.452 -2.90497 2.35716 0
M  V30 8166 H 778.785 -3.83442 3.08598 0
M  V30 8167 N 780.437 -1.16799 -1.0581 0
M  V30 8168 C 781.685 -0.950642 -1.78346 0
M  V30 8169 C 782.006 0.522524 -1.87869 0
M  V30 8170 O 781.276 1.3795 -1.39092 0
M  V30 8171 H 779.856 -0.348736 -0.6606 0
M  V30 8172 H 782.518 -1.47158 -1.27791 0
M  V30 8173 H 781.614 -1.37359 -2.80248 0
M  V30 8174 N 781.915 1.24427 -0.967243 0
M  V30 8175 C 783.331 1.44684 -0.6737 0
M  V30 8176 C 783.531 1.86429 0.764625 0
M  V30 8177 O 782.587 2.00211 1.53857 0
M  V30 8178 C 783.9 2.509 -1.6574 0
M  V30 8179 C 785.448 2.64728 -1.66998 0
M  V30 8180 C 785.923 3.7414 -2.64165 0
M  V30 8181 N 787.414 3.81567 -2.62604 0
M  V30 8182 C 788.149 4.6575 -3.34462 0
M  V30 8183 N 787.645 5.54124 -4.15835 0
M  V30 8184 N 789.438 4.59827 -3.23288 0
M  V30 8185 H 781.589 0.956276 -1.89655 0
M  V30 8186 H 783.852 0.48171 -0.816492 0
M  V30 8187 H 783.558 2.27113 -2.68538 0
M  V30 8188 H 783.432 3.4905 -1.42981 0
M  V30 8189 H 785.819 2.87872 -0.649121 0
M  V30 8190 H 785.9 1.66936 -1.93819 0
M  V30 8191 H 785.544 3.51745 -3.66384 0
M  V30 8192 H 785.474 4.71444 -2.34623 0
M  V30 8193 H 787.965 3.18403 -2.03539 0
M  V30 8194 H 788.278 6.15316 -4.67553 0
M  V30 8195 H 786.623 5.53791 -4.19929 0
M  V30 8196 H 789.814 3.898 -2.59179 0
M  V30 8197 H 789.987 5.25208 -3.79553 0
M  V30 8198 N 783.393 0.737304 1.3929 0
M  V30 8199 C 784.623 0.296143 2.04467 0
M  V30 8200 C 785.031 -1.0748 1.55707 0
M  V30 8201 O 784.374 -1.69082 0.718123 0
M  V30 8202 C 784.436 0.222161 3.58813 0
M  V30 8203 C 784.1 1.53195 4.30558 0
M  V30 8204 C 785.097 2.47809 4.57041 0
M  V30 8205 C 782.782 1.79688 4.6906 0
M  V30 8206 C 784.776 3.67147 5.21039 0
M  V30 8207 C 782.463 2.99304 5.32785 0
M  V30 8208 C 783.461 3.92855 5.58708 0
M  V30 8209 O 783.149 5.1037 6.2111 0
M  V30 8210 H 782.881 0.126896 0.663983 0
M  V30 8211 H 785.435 1.00242 1.79278 0
M  V30 8212 H 783.665 -0.540239 3.82908 0
M  V30 8213 H 785.354 -0.187311 4.05468 0
M  V30 8214 H 786.12 2.28611 4.2774 0
M  V30 8215 H 781.999 1.07716 4.48239 0
M  V30 8216 H 785.543 4.40183 5.41188 0
M  V30 8217 H 781.44 3.18401 5.61508 0
M  V30 8218 H 782.208 5.10735 6.39603 0
M  V30 8219 N 784.871 -1.49948 0.485112 0
M  V30 8220 C 785.781 -2.32587 -0.306697 0
M  V30 8221 C 786.797 -1.43598 -0.982632 0
M  V30 8222 O 787.973 -1.76638 -0.967519 0
M  V30 8223 C 785.038 -3.18638 -1.3664 0
M  V30 8224 C 784.099 -4.23462 -0.705589 0
M  V30 8225 C 783.332 -5.05401 -1.7148 0
M  V30 8226 O 783.555 -4.88618 -2.94293 0
M  V30 8227 O 782.489 -5.88157 -1.27889 0
M  V30 8228 H 786.315 -3.01447 0.369272 0
M  V30 8229 H 783.9 -1.47349 0.246709 0
M  V30 8230 H 785.782 -3.71992 -1.9799 0
M  V30 8231 H 784.457 -2.52491 -2.02559 0
M  V30 8232 H 783.364 -3.74063 -0.0527733 0
M  V30 8233 H 784.697 -4.92119 -0.0891187 0
M  V30 8234 N 786.349 -0.21828 -1.56081 0
M  V30 8235 C 787.597 0.413488 -1.97825 0
M  V30 8236 C 787.918 1.60527 -1.10707 0
M  V30 8237 O 787.188 1.9504 -0.183378 0
M  V30 8238 H 785.768 0.155757 -0.730581 0
M  V30 8239 H 788.43 -0.310413 -1.92412 0
M  V30 8240 H 787.526 0.742024 -3.03151 0
M  V30 8241 N 787.827 1.57504 0.0551401 0
M  V30 8242 C 788.759 2.0158 1.09078 0
M  V30 8243 C 789.772 0.92434 1.34014 0
M  V30 8244 O 790.961 1.20202 1.31961 0
M  V30 8245 C 788.061 2.35385 2.43818 0
M  V30 8246 C 787.234 3.66588 2.38605 0
M  V30 8247 C 786.293 3.87874 3.55585 0
M  V30 8248 O 785.319 4.59259 3.36258 0
M  V30 8249 N 786.521 3.31503 4.76536 0
M  V30 8250 H 789.286 2.91039 0.71529 0
M  V30 8251 H 786.847 1.60058 0.243532 0
M  V30 8252 H 788.839 2.46784 3.20749 0
M  V30 8253 H 787.409 1.51731 2.73307 0
M  V30 8254 H 786.629 3.65787 1.46947 0
M  V30 8255 H 787.917 4.52706 2.32239 0
M  V30 8256 H 787.315 2.73592 4.9514 0
M  V30 8257 H 785.872 3.48324 5.50921 0
M  V30 8258 N 789.305 -0.326896 1.54172 0
M  V30 8259 C 790.552 -1.06523 1.72218 0
M  V30 8260 C 790.88 -1.88119 0.494114 0
M  V30 8261 O 790.135 -1.8855 -0.524147 0
M  V30 8262 C 790.434 -2.0208 2.94785 0
M  V30 8263 C 790.1 -1.36665 4.2969 0
M  V30 8264 C 788.762 -1.18556 4.66367 0
M  V30 8265 C 791.114 -0.896868 5.13425 0
M  V30 8266 C 788.442 -0.521113 5.84381 0
M  V30 8267 C 790.794 -0.246261 6.3212 0
M  V30 8268 C 789.458 -0.052987 6.67479 0
M  V30 8269 H 788.728 -0.389796 0.63019 0
M  V30 8270 H 791.375 -0.342725 1.88408 0
M  V30 8271 H 789.68 -2.8077 2.73268 0
M  V30 8272 H 791.377 -2.59231 3.05941 0
M  V30 8273 H 787.967 -1.51762 4.00832 0
M  V30 8274 H 792.151 -1.02458 4.85609 0
M  V30 8275 H 787.407 -0.36014 6.10338 0
M  V30 8276 H 791.581 0.125775 6.96286 0
M  V30 8277 H 789.208 0.463903 7.58783 0
M  V30 8278 N 790.784 -1.46188 -0.588786 0
M  V30 8279 C 792.024 -1.52738 -1.35833 0
M  V30 8280 C 792.388 -0.172403 -1.91224 0
M  V30 8281 O 793.589 -0.112633 -2.68564 0
M  V30 8282 C 791.86 -2.59085 -2.4619 0
M  V30 8283 S 793.419 -2.84997 -3.3365 0
M  V30 8284 H 790.237 -0.539713 -0.462851 0
M  V30 8285 H 792.839 -1.83386 -0.677489 0
M  V30 8286 H 791.543 -3.56177 -2.03878 0
M  V30 8287 H 791.074 -2.3015 -3.19053 0
M  V30 8288 H 793.089 -2.19804 -4.4486 0
M  V30 8289 N 792.262 0.832906 -1.33792 0
M  V30 8290 C 793.172 1.97514 -1.26592 0
M  V30 8291 C 794.188 1.73114 -0.175391 0
M  V30 8292 O 795.364 1.97387 -0.400062 0
M  V30 8293 C 792.429 3.31625 -1.01121 0
M  V30 8294 C 791.49 3.69101 -2.19233 0
M  V30 8295 C 790.723 4.96813 -1.94968 0
M  V30 8296 O 790.946 5.63208 -0.902955 0
M  V30 8297 O 789.88 5.31932 -2.8166 0
M  V30 8298 H 793.706 2.0653 -2.22664 0
M  V30 8299 H 791.291 0.966826 -1.13898 0
M  V30 8300 H 793.173 4.11968 -0.886571 0
M  V30 8301 H 791.848 3.23599 -0.080822 0
M  V30 8302 H 790.755 2.89243 -2.37253 0
M  V30 8303 H 792.088 3.818 -3.10628 0
M  V30 8304 N 793.74 1.17359 1.05189 0
M  V30 8305 C 794.97 0.985099 1.81602 0
M  V30 8306 C 795.378 -0.469872 1.83273 0
M  V30 8307 O 794.721 -1.33806 1.25864 0
M  V30 8308 C 794.783 1.44956 3.2898 0
M  V30 8309 C 794.447 2.92666 3.50993 0
M  V30 8310 C 795.444 3.906 3.43115 0
M  V30 8311 C 793.129 3.30841 3.77954 0
M  V30 8312 C 795.123 5.24709 3.61883 0
M  V30 8313 C 792.81 4.65116 3.96371 0
M  V30 8314 C 793.808 5.61859 3.88335 0
M  V30 8315 O 793.496 6.93704 4.06238 0
M  V30 8316 H 793.228 0.348731 0.579105 0
M  V30 8317 H 795.782 1.56066 1.33539 0
M  V30 8318 H 794.012 0.817559 3.77959 0
M  V30 8319 H 795.701 1.22674 3.86919 0
M  V30 8320 H 796.467 3.62453 3.22262 0
M  V30 8321 H 792.346 2.5611 3.83313 0
M  V30 8322 H 795.89 6.00205 3.55527 0
M  V30 8323 H 791.787 4.92969 4.16715 0
M  V30 8324 H 792.555 7.00443 4.23463 0
M  V30 8325 N 795.218 -1.23913 0.973828 0
M  V30 8326 C 796.495 -1.87539 0.555729 0
M  V30 8327 C 796.875 -1.87641 -0.967162 0
M  V30 8328 O 796.223 -1.35335 -1.84111 0
M  V30 8329 C 796.433 -3.29359 1.15427 0
M  V30 8330 C 797.781 -4.06 1.24294 0
M  V30 8331 O 798.805 -3.38554 1.10723 0
M  V30 8332 O 797.664 -5.26689 1.45813 0
M  V30 8333 H 794.758 -0.805769 0.186188 0
M  V30 8334 H 797.304 -1.31838 1.06849 0
M  V30 8335 H 796.076 -3.23817 2.19678 0
M  V30 8336 H 795.699 -3.92642 0.625925 0
M  V30 8337 N 796.696 -0.74468 -1.38897 0
M  V30 8338 C 797.644 -0.100312 -2.32384 0
M  V30 8339 C 798.638 0.715191 -1.53562 0
M  V30 8340 O 799.844 0.615288 -1.69157 0
M  V30 8341 H 796.219 -0.0136403 -0.751876 0
M  V30 8342 H 798.19 -0.905007 -2.84345 0
M  V30 8343 C 796.939 0.785432 -3.38713 0
M  V30 8344 H 796.262 0.167308 -3.9945 0
M  V30 8345 H 797.702 1.20374 -4.06554 0
M  V30 8346 C 796.161 1.92408 -2.76552 0
M  V30 8347 O 796.691 3.01752 -2.65157 0
M  V30 8348 N 794.897 1.71642 -2.34494 0
M  V30 8349 H 794.444 0.827079 -2.43961 0
M  V30 8350 H 794.402 2.48 -1.93244 0
M  V30 8351 N 798.174 1.49689 -0.493057 0
M  V30 8352 C 799.421 2.02427 0.0542714 0
M  V30 8353 C 799.749 1.37339 1.37725 0
M  V30 8354 O 799.004 0.495523 1.89323 0
M  V30 8355 C 799.303 3.56427 0.263536 0
M  V30 8356 C 798.969 4.40111 -0.98046 0
M  V30 8357 C 797.631 4.62699 -1.32148 0
M  V30 8358 C 799.983 4.88847 -1.80771 0
M  V30 8359 C 797.311 5.31268 -2.48941 0
M  V30 8360 C 799.663 5.587 -2.96711 0
M  V30 8361 C 798.327 5.79536 -3.31202 0
M  V30 8362 H 797.597 0.740734 0.0198593 0
M  V30 8363 H 800.244 1.80073 -0.651603 0
M  V30 8364 H 798.549 3.77416 1.05186 0
M  V30 8365 H 800.246 3.94819 0.701348 0
M  V30 8366 H 796.836 4.22765 -0.704814 0
M  V30 8367 H 801.02 4.71231 -1.55741 0
M  V30 8368 H 796.276 5.45603 -2.75911 0
M  V30 8369 H 800.45 5.9544 -3.61143 0
M  V30 8370 H 798.077 6.32443 -4.21805 0
M  V30 8371 N 799.652 0.226554 1.55963 0
M  V30 8372 C 800.584 -0.713907 2.17798 0
M  V30 8373 C 801.597 -1.15387 1.14846 0
M  V30 8374 O 802.786 -1.08416 1.41804 0
M  V30 8375 C 799.886 -1.97945 2.75084 0
M  V30 8376 C 799.059 -1.69424 4.03255 0
M  V30 8377 C 798.118 -2.80734 4.45056 0
M  V30 8378 O 797.144 -2.4899 5.11852 0
M  V30 8379 N 798.346 -4.09797 4.11152 0
M  V30 8380 H 801.111 -0.18494 2.99129 0
M  V30 8381 H 798.672 0.0457346 1.61835 0
M  V30 8382 H 800.664 -2.71611 3.00016 0
M  V30 8383 H 799.234 -2.41876 1.98027 0
M  V30 8384 H 798.454 -0.793767 3.86126 0
M  V30 8385 H 799.742 -1.47806 4.86858 0
M  V30 8386 H 799.14 -4.38429 3.57486 0
M  V30 8387 H 797.697 -4.79992 4.40966 0
M  V30 8388 N 801.13 -1.57531 -0.0467866 0
M  V30 8389 C 802.37 -1.90294 -0.746171 0
M  V30 8390 C 802.734 -0.823194 -1.73458 0
M  V30 8391 O 803.935 -1.03463 -2.48091 0
M  V30 8392 C 802.206 -3.28249 -1.41378 0
M  V30 8393 S 803.765 -3.82812 -2.14477 0
M  V30 8394 H 800.583 -0.666496 -0.247598 0
M  V30 8395 H 803.185 -1.955 -0.00135143 0
M  V30 8396 H 801.889 -4.04712 -0.680937 0
M  V30 8397 H 801.42 -3.26302 -2.19751 0
M  V30 8398 H 803.435 -3.60111 -3.41372 0
M  V30 8399 N 802.608 0.318715 -1.54344 0
M  V30 8400 C 804.019 0.89285 -1.63967 0
M  V30 8401 C 804.37 1.88712 -0.536855 0
M  V30 8402 O 803.495 2.13877 0.329457 0
M  V30 8403 C 804.09 1.62618 -2.97222 0
M  V30 8404 C 802.649 2.14897 -3.09025 0
M  V30 8405 C 801.796 0.975909 -2.5956 0
M  V30 8406 H 804.747 0.0961687 -1.58408 0
M  V30 8407 H 804.768 2.4907 -2.87653 0
M  V30 8408 H 804.28 0.902286 -3.77466 0
M  V30 8409 H 802.381 2.90387 -2.33465 0
M  V30 8410 H 802.494 2.39565 -4.14904 0
M  V30 8411 H 800.858 1.35646 -2.15574 0
M  V30 8412 H 801.641 0.266253 -3.42266 0
M  V30 8413 N 804.086 1.46499 0.581025 0
M  V30 8414 C 805.502 1.31491 0.904563 0
M  V30 8415 C 805.702 0.287598 1.99437 0
M  V30 8416 O 804.758 -0.309247 2.50599 0
M  V30 8417 C 806.071 2.70163 1.32032 0
M  V30 8418 C 807.619 2.78266 1.43308 0
M  V30 8419 C 808.094 4.17524 1.8825 0
M  V30 8420 N 809.585 4.19949 1.9544 0
M  V30 8421 C 810.32 5.24594 2.31493 0
M  V30 8422 N 809.816 6.39564 2.66326 0
M  V30 8423 N 811.609 5.11961 2.32062 0
M  V30 8424 H 803.76 2.11946 -0.138856 0
M  V30 8425 H 806.023 0.948 0.000548528 0
M  V30 8426 H 805.729 3.46655 0.593554 0
M  V30 8427 H 805.603 3.00379 2.2815 0
M  V30 8428 H 807.99 2.02061 2.15071 0
M  V30 8429 H 808.071 2.51732 0.45438 0
M  V30 8430 H 807.715 4.94225 1.17065 0
M  V30 8431 H 807.645 4.41466 2.87081 0
M  V30 8432 H 810.136 3.36996 1.71004 0
M  V30 8433 H 810.449 7.15187 2.92793 0
M  V30 8434 H 808.794 6.42923 2.6396 0
M  V30 8435 H 811.985 4.21177 2.04272 0
M  V30 8436 H 812.158 5.93626 2.5983 0
M  V30 8437 N 805.565 -0.825799 1.34232 0
M  V30 8438 C 806.793 -1.61363 1.29497 0
M  V30 8439 C 807.208 -1.88341 -0.131536 0
M  V30 8440 O 806.565 -1.47279 -1.07773 0
M  V30 8441 C 806.616 -2.95623 2.08061 0
M  V30 8442 O 806.337 -2.69824 3.45147 0
M  V30 8443 C 807.838 -3.90032 2.10688 0
M  V30 8444 H 805.058 -0.501676 0.445603 0
M  V30 8445 H 807.602 -1.02767 1.76803 0
M  V30 8446 H 805.757 -3.50785 1.64404 0
M  V30 8447 H 806.171 -3.55412 3.85723 0
M  V30 8448 H 807.645 -4.81411 2.70087 0
M  V30 8449 H 808.122 -4.25188 1.10052 0
M  V30 8450 H 808.728 -3.40807 2.54422 0
M  V30 8451 N 807.043 -1.17915 -1.04565 0
M  V30 8452 C 808.268 -0.996749 -1.81878 0
M  V30 8453 C 808.693 0.450169 -1.82634 0
M  V30 8454 O 808.051 1.32268 -1.23995 0
M  V30 8455 C 808.099 -1.55005 -3.25585 0
M  V30 8456 O 807.203 -0.76804 -4.05185 0
M  V30 8457 H 806.544 -0.353456 -0.562108 0
M  V30 8458 H 809.074 -1.56557 -1.31723 0
M  V30 8459 H 809.084 -1.57503 -3.76373 0
M  V30 8460 H 807.759 -2.60327 -3.2435 0
M  V30 8461 H 806.336 -0.81498 -3.63885 0
M  V30 8462 N 808.521 1.23394 -0.980386 0
M  V30 8463 C 809.769 1.91431 -0.647978 0
M  V30 8464 C 810.09 1.76871 0.821066 0
M  V30 8465 O 809.36 1.14808 1.58732 0
M  V30 8466 H 807.94 0.708516 -0.236673 0
M  V30 8467 H 810.602 1.50019 -1.2442 0
M  V30 8468 H 809.698 2.98854 -0.899592 0
M  V30 8469 N 809.999 0.752036 1.385 0
M  V30 8470 C 811.246 0.307503 2.00152 0
M  V30 8471 C 811.574 -1.11033 1.59693 0
M  V30 8472 O 810.829 -1.77455 0.825125 0
M  V30 8473 C 811.128 0.376155 3.55415 0
M  V30 8474 C 810.794 1.74942 4.15579 0
M  V30 8475 C 809.456 2.12525 4.31725 0
M  V30 8476 C 811.808 2.65031 4.48785 0
M  V30 8477 C 809.136 3.39671 4.78373 0
M  V30 8478 C 811.488 3.91567 4.96848 0
M  V30 8479 C 810.152 4.2922 5.11201 0
M  V30 8480 H 809.422 0.112523 0.732407 0
M  V30 8481 H 812.069 0.962213 1.65571 0
M  V30 8482 H 810.374 -0.362121 3.90123 0
M  V30 8483 H 812.071 0.0138065 4.00998 0
M  V30 8484 H 808.661 1.44726 4.03426 0
M  V30 8485 H 812.845 2.3726 4.35914 0
M  V30 8486 H 808.101 3.68765 4.8767 0
M  V30 8487 H 812.275 4.61517 5.21512 0
M  V30 8488 H 809.902 5.27805 5.47107 0
M  V30 8489 N 811.477 -1.49425 0.500989 0
M  V30 8490 C 812.407 -2.31971 -0.266775 0
M  V30 8491 C 813.388 -1.40245 -0.962563 0
M  V30 8492 O 814.573 -1.69154 -0.953968 0
M  V30 8493 C 811.703 -3.20757 -1.33163 0
M  V30 8494 C 810.657 -4.21275 -0.75572 0
M  V30 8495 C 809.983 -4.98997 -1.92109 0
M  V30 8496 C 811.283 -5.21686 0.253213 0
M  V30 8497 H 812.977 -2.96408 0.422237 0
M  V30 8498 H 810.523 -1.4254 0.204505 0
M  V30 8499 H 812.476 -3.77315 -1.87646 0
M  V30 8500 H 811.2 -2.54263 -2.04983 0
M  V30 8501 H 809.859 -3.65861 -0.232637 0
M  V30 8502 H 809.507 -4.28951 -2.62698 0
M  V30 8503 H 809.207 -5.67011 -1.54182 0
M  V30 8504 H 810.731 -5.584 -2.47026 0
M  V30 8505 H 812.145 -5.72939 -0.203483 0
M  V30 8506 H 810.542 -5.9759 0.548322 0
M  V30 8507 H 811.612 -4.70596 1.16909 0
M  V30 8508 N 812.955 -0.234822 -1.55841 0
M  V30 8509 C 814.195 0.394944 -2.00548 0
M  V30 8510 C 814.559 1.56002 -1.11926 0
M  V30 8511 O 815.76 2.2567 -1.46037 0
M  V30 8512 C 814.031 0.805896 -3.48195 0
M  V30 8513 S 815.59 1.4279 -4.14918 0
M  V30 8514 H 812.408 0.124802 -0.699961 0
M  V30 8515 H 815.01 -0.347224 -1.92392 0
M  V30 8516 H 813.714 -0.0515271 -4.10368 0
M  V30 8517 H 813.245 1.58055 -3.60253 0
M  V30 8518 H 815.26 2.71699 -4.15204 0
M  V30 8519 N 814.433 1.57553 0.0384317 0
M  V30 8520 C 815.381 2.07021 1.06043 0
M  V30 8521 C 816.375 0.982078 1.38028 0
M  V30 8522 O 817.581 1.16702 1.37042 0
M  V30 8523 H 813.956 0.660522 0.359464 0
M  V30 8524 H 815.927 2.91944 0.617339 0
M  V30 8525 C 814.676 2.55734 2.35574 0
M  V30 8526 H 813.999 3.39074 2.11822 0
M  V30 8527 H 815.439 2.94066 3.05452 0
M  V30 8528 C 813.898 1.45449 3.03885 0
M  V30 8529 O 814.428 0.815402 3.93337 0
M  V30 8530 N 812.634 1.19134 2.65058 0
M  V30 8531 H 812.181 1.71288 1.92401 0
M  V30 8532 H 812.139 0.455554 3.11082 0
M  V30 8533 N 815.911 -0.310526 1.54511 0
M  V30 8534 C 817.188 -1.06593 1.64004 0
M  V30 8535 C 817.568 -2.05519 0.482216 0
M  V30 8536 O 816.916 -2.22455 -0.52212 0
M  V30 8537 C 817.126 -1.75627 3.01589 0
M  V30 8538 C 818.474 -2.28173 3.58081 0
M  V30 8539 O 819.498 -1.85674 3.03979 0
M  V30 8540 O 818.357 -3.06015 4.52788 0
M  V30 8541 H 815.451 -0.492109 0.664649 0
M  V30 8542 H 817.997 -0.309374 1.66856 0
M  V30 8543 H 816.769 -1.03743 3.77297 0
M  V30 8544 H 816.392 -2.58061 3.02473 0
M  V30 8545 N 817.389 -1.46805 -0.573248 0
M  V30 8546 C 818.805 -1.31969 -0.897577 0
M  V30 8547 C 819.005 -0.298171 -1.99282 0
M  V30 8548 O 818.061 0.295953 -2.5076 0
M  V30 8549 C 819.374 -2.70859 -1.30598 0
M  V30 8550 C 820.922 -2.79022 -1.4183 0
M  V30 8551 C 821.397 -4.18516 -1.86033 0
M  V30 8552 N 822.888 -4.2098 -1.9321 0
M  V30 8553 C 823.623 -5.25814 -2.28707 0
M  V30 8554 N 823.119 -6.40968 -2.6293 0
M  V30 8555 N 824.912 -5.13184 -2.29343 0
M  V30 8556 H 817.063 -2.11869 0.150094 0
M  V30 8557 H 819.326 -0.947989 0.00447895 0
M  V30 8558 H 819.032 -3.46965 -0.575161 0
M  V30 8559 H 818.906 -3.01585 -2.26554 0
M  V30 8560 H 821.293 -2.03198 -2.13996 0
M  V30 8561 H 821.374 -2.51969 -0.441024 0
M  V30 8562 H 821.018 -4.94839 -1.14442 0
M  V30 8563 H 820.948 -4.42982 -2.84735 0
M  V30 8564 H 823.439 -3.37898 -1.69214 0
M  V30 8565 H 823.752 -7.16729 -2.88996 0
M  V30 8566 H 822.097 -6.44314 -2.60547 0
M  V30 8567 H 825.288 -4.22255 -2.02036 0
M  V30 8568 H 825.461 -5.94996 -2.56679 0
M  V30 8569 N 818.867 0.818669 -1.34668 0
M  V30 8570 C 820.115 1.57201 -1.27013 0
M  V30 8571 C 820.436 1.94354 0.158599 0
M  V30 8572 O 819.706 1.62626 1.09223 0
M  V30 8573 H 818.286 0.582919 -0.467135 0
M  V30 8574 H 820.948 0.977234 -1.6863 0
M  V30 8575 H 820.044 2.49291 -1.87778 0
M  V30 8576 N 820.346 1.18468 1.03938 0
M  V30 8577 C 821.762 0.934635 1.29371 0
M  V30 8578 C 821.962 -0.399067 1.97509 0
M  V30 8579 O 821.018 -1.13309 2.25648 0
M  V30 8580 C 822.331 2.10111 2.15114 0
M  V30 8581 C 823.879 2.13955 2.28456 0
M  V30 8582 C 824.354 3.30024 3.17566 0
M  V30 8583 N 825.845 3.29893 3.25153 0
M  V30 8584 C 826.58 4.16346 3.94263 0
M  V30 8585 N 826.076 5.12934 4.65693 0
M  V30 8586 N 827.869 4.04256 3.90556 0
M  V30 8587 H 820.02 2.04294 0.581185 0
M  V30 8588 H 822.283 0.892727 0.318971 0
M  V30 8589 H 821.989 3.06572 1.72355 0
M  V30 8590 H 821.863 2.06283 3.15796 0
M  V30 8591 H 824.25 1.18072 2.7045 0
M  V30 8592 H 824.331 2.2184 1.2736 0
M  V30 8593 H 823.975 4.26181 2.76283 0
M  V30 8594 H 823.905 3.19376 4.18697 0
M  V30 8595 H 826.396 2.59969 2.74271 0
M  V30 8596 H 826.709 5.75271 5.16026 0
M  V30 8597 H 825.054 5.16893 4.64593 0
M  V30 8598 H 828.245 3.28083 3.33885 0
M  V30 8599 H 828.418 4.71848 4.44144 0
M  V30 8600 N 821.824 -1.22873 0.986916 0
M  V30 8601 C 823.064 -1.93192 0.667543 0
M  V30 8602 C 823.428 -1.7521 -0.785196 0
M  V30 8603 O 824.629 -2.39737 -1.2157 0
M  V30 8604 C 822.9 -3.4147 1.05513 0
M  V30 8605 S 824.459 -4.30425 0.853218 0
M  V30 8606 H 821.277 -0.667726 0.244261 0
M  V30 8607 H 823.879 -1.48808 1.26793 0
M  V30 8608 H 822.583 -3.52069 2.10892 0
M  V30 8609 H 822.114 -3.9086 0.446293 0
M  V30 8610 H 824.129 -4.95521 -0.259444 0
M  V30 8611 N 823.302 -0.75937 -1.38099 0
M  V30 8612 C 824.527 -0.327859 -2.04792 0
M  V30 8613 C 824.952 1.03752 -1.56899 0
M  V30 8614 O 824.31 1.66235 -0.723581 0
M  V30 8615 C 824.358 -0.366264 -3.58735 0
M  V30 8616 O 823.462 0.637697 -4.0744 0
M  V30 8617 H 822.803 -0.144092 -0.648177 0
M  V30 8618 H 825.333 -1.03211 -1.7666 0
M  V30 8619 H 825.343 -0.219179 -4.07411 0
M  V30 8620 H 824.018 -1.36243 -3.92951 0
M  V30 8621 H 822.595 0.454749 -3.70117 0
M  V30 8622 N 824.78 1.49157 -0.508906 0
M  V30 8623 C 825.713 2.26056 0.312103 0
M  V30 8624 C 826.691 1.30982 0.963456 0
M  V30 8625 O 827.875 1.60286 0.992002 0
M  V30 8626 C 825.002 3.06555 1.4402 0
M  V30 8627 C 824.048 4.16844 0.902414 0
M  V30 8628 S 824.881 5.35076 -0.213087 0
M  V30 8629 C 826.037 6.19132 0.917985 0
M  V30 8630 H 826.27 2.95343 -0.340559 0
M  V30 8631 H 823.803 1.51569 -0.294331 0
M  V30 8632 H 825.761 3.53517 2.08653 0
M  V30 8633 H 824.422 2.36722 2.0645 0
M  V30 8634 H 823.615 4.72714 1.74806 0
M  V30 8635 H 823.217 3.72513 0.333156 0
M  V30 8636 H 825.509 6.52556 1.82145 0
M  V30 8637 H 826.452 7.06982 0.397724 0
M  V30 8638 H 826.86 5.51839 1.18889 0
M  V30 8639 N 826.258 0.243083 1.55714 0
M  V30 8640 C 827.506 -0.381964 1.98458 0
M  V30 8641 C 827.827 -1.58745 1.13247 0
M  V30 8642 O 827.097 -1.94723 0.214384 0
M  V30 8643 H 825.677 -0.144114 0.732967 0
M  V30 8644 H 828.339 0.340985 1.91894 0
M  V30 8645 H 827.435 -0.693702 3.04293 0
M  V30 8646 N 827.736 -1.57571 -0.0300757 0
M  V30 8647 C 828.668 -2.0329 -1.05857 0
M  V30 8648 C 829.681 -0.945543 -1.32527 0
M  V30 8649 O 830.87 -1.22287 -1.30032 0
M  V30 8650 C 827.97 -2.39234 -2.40042 0
M  V30 8651 C 827.143 -3.70337 -2.32743 0
M  V30 8652 C 826.202 -3.93482 -3.49369 0
M  V30 8653 O 825.228 -4.64551 -3.28909 0
M  V30 8654 N 826.43 -3.39042 -4.71201 0
M  V30 8655 H 829.195 -2.9214 -0.668897 0
M  V30 8656 H 826.756 -1.60425 -0.218038 0
M  V30 8657 H 828.748 -2.51856 -3.16782 0
M  V30 8658 H 827.318 -1.5606 -2.70858 0
M  V30 8659 H 826.538 -3.68079 -1.41109 0
M  V30 8660 H 827.826 -4.56343 -2.25007 0
M  V30 8661 H 827.224 -2.81434 -4.90725 0
M  V30 8662 H 825.781 -3.57045 -5.45309 0
M  V30 8663 N 829.214 0.302327 -1.54673 0
M  V30 8664 C 830.454 1.04568 -1.75627 0
M  V30 8665 C 830.818 1.84535 -0.530175 0
M  V30 8666 O 832.019 2.61613 -0.61743 0
M  V30 8667 C 830.29 1.92873 -3.0089 0
M  V30 8668 S 831.849 2.73872 -3.4284 0
M  V30 8669 H 828.667 0.352682 -0.617362 0
M  V30 8670 H 831.269 0.319239 -1.92876 0
M  V30 8671 H 829.973 1.32998 -3.88252 0
M  V30 8672 H 829.504 2.69887 -2.86225 0
M  V30 8673 H 831.519 3.95386 -2.99807 0
M  V30 8674 N 830.692 1.47107 0.565454 0
M  V30 8675 C 831.938 1.53535 1.32495 0
M  V30 8676 C 832.271 0.193537 1.93233 0
M  V30 8677 O 831.546 -0.796956 1.77423 0
M  V30 8678 C 831.829 2.64712 2.4413 0
M  V30 8679 C 831.682 4.08482 1.88314 0
M  V30 8680 C 833.001 2.71853 3.46098 0
M  V30 8681 H 830.12 0.558926 0.480386 0
M  V30 8682 H 832.762 1.79125 0.633575 0
M  V30 8683 H 830.912 2.43023 3.03104 0
M  V30 8684 H 832.584 4.4151 1.33665 0
M  V30 8685 H 830.827 4.17148 1.19037 0
M  V30 8686 H 831.498 4.82032 2.68978 0
M  V30 8687 H 833.974 2.91397 2.97031 0
M  V30 8688 H 832.85 3.51433 4.21646 0
M  V30 8689 H 833.111 1.78584 4.04426 0
M  V30 8690 N 832.17 -0.811516 1.35101 0
M  V30 8691 C 833.41 -1.58177 1.29458 0
M  V30 8692 C 833.774 -1.91555 -0.130688 0
M  V30 8693 O 834.975 -2.6699 -0.311428 0
M  V30 8694 C 833.246 -2.83896 2.17112 0
M  V30 8695 S 834.805 -3.74344 2.28936 0
M  V30 8696 H 831.623 -0.542021 0.460146 0
M  V30 8697 H 834.225 -0.957653 1.70438 0
M  V30 8698 H 832.929 -2.57391 3.19653 0
M  V30 8699 H 832.46 -3.51297 1.7707 0
M  V30 8700 H 834.475 -4.73909 1.47054 0
M  V30 8701 N 833.648 -1.19017 -1.03309 0
M  V30 8702 C 834.558 -0.939303 -2.14975 0
M  V30 8703 C 835.574 0.0992359 -1.73717 0
M  V30 8704 O 836.75 -0.0844362 -2.01223 0
M  V30 8705 C 833.815 -0.476712 -3.43407 0
M  V30 8706 C 832.876 -1.58413 -3.99003 0
M  V30 8707 C 832.109 -1.14352 -5.21305 0
M  V30 8708 O 832.332 -0.00534408 -5.704 0
M  V30 8709 O 831.266 -1.94436 -5.6963 0
M  V30 8710 H 835.092 -1.87386 -2.38998 0
M  V30 8711 H 832.677 -0.972635 -1.13403 0
M  V30 8712 H 834.559 -0.22718 -4.20787 0
M  V30 8713 H 833.234 0.429455 -3.20839 0
M  V30 8714 H 832.141 -1.88777 -3.22977 0
M  V30 8715 H 833.474 -2.4667 -4.25928 0
M  V30 8716 N 835.127 1.22348 -0.993418 0
M  V30 8717 C 836.538 1.72893 -0.704616 0
M  V30 8718 C 836.889 1.80095 0.778483 0
M  V30 8719 O 836.014 1.4476 1.60853 0
M  V30 8720 C 836.609 3.14 -1.27237 0
M  V30 8721 C 835.168 3.61949 -1.03294 0
M  V30 8722 C 834.315 2.39816 -1.39225 0
M  V30 8723 H 837.266 1.07688 -1.16572 0
M  V30 8724 H 837.287 3.74886 -0.651212 0
M  V30 8725 H 836.799 3.08727 -2.3518 0
M  V30 8726 H 834.9 3.72588 0.0298329 0
M  V30 8727 H 835.013 4.48051 -1.69668 0
M  V30 8728 H 833.377 2.41448 -0.810849 0
M  V30 8729 H 834.16 2.37203 -2.48172 0
M  V30 8730 N 836.605 0.766683 1.37694 0
M  V30 8731 C 837.853 0.328065 1.9942 0
M  V30 8732 C 838.174 -1.09775 1.61166 0
M  V30 8733 O 837.444 -1.75288 0.874686 0
M  V30 8734 H 836.024 0.11831 0.737572 0
M  V30 8735 H 838.686 0.983686 1.68255 0
M  V30 8736 H 837.782 0.401647 3.09505 0
M  V30 8737 N 838.083 -1.48885 0.516809 0
M  V30 8738 C 839.329 -2.03395 -0.0140225 0
M  V30 8739 C 839.684 -1.38808 -1.33229 0
M  V30 8740 O 838.977 -0.520104 -1.84406 0
M  V30 8741 C 839.171 -3.56801 -0.206798 0
M  V30 8742 C 839 -4.36259 1.09124 0
M  V30 8743 C 837.77 -4.77689 1.64745 0
M  V30 8744 C 839.968 -4.73881 1.99854 0
M  V30 8745 N 837.95 -5.41634 2.88975 0
M  V30 8746 C 839.321 -5.37707 3.08661 0
M  V30 8747 C 841.376 -4.55816 2.00341 0
M  V30 8748 C 840.079 -5.85379 4.18001 0
M  V30 8749 C 842.105 -5.04459 3.08666 0
M  V30 8750 C 841.467 -5.68299 4.16191 0
M  V30 8751 H 837.566 -0.781169 0.036042 0
M  V30 8752 H 840.15 -1.81867 0.695173 0
M  V30 8753 H 838.321 -3.78181 -0.885064 0
M  V30 8754 H 840.053 -3.9795 -0.736053 0
M  V30 8755 H 836.808 -4.58392 1.19054 0
M  V30 8756 H 837.232 -5.78181 3.52187 0
M  V30 8757 H 841.874 -4.05851 1.18511 0
M  V30 8758 H 839.592 -6.34356 5.00618 0
M  V30 8759 H 843.178 -4.92281 3.10082 0
M  V30 8760 H 842.058 -6.05257 4.98631 0
M  V30 8761 N 839.561 -0.251338 -1.55583 0
M  V30 8762 C 840.789 0.376187 -2.03451 0
M  V30 8763 C 841.204 1.51215 -1.13047 0
M  V30 8764 O 840.561 1.81917 -0.145769 0
M  V30 8765 C 840.612 0.879779 -3.50631 0
M  V30 8766 O 840.333 -0.210917 -4.37592 0
M  V30 8767 C 841.834 1.57754 -4.14281 0
M  V30 8768 H 839.054 0.0888722 -0.665089 0
M  V30 8769 H 841.598 -0.376497 -2.01004 0
M  V30 8770 H 839.753 1.58263 -3.53598 0
M  V30 8771 H 840.167 0.172203 -5.24217 0
M  V30 8772 H 841.641 1.88158 -5.18942 0
M  V30 8773 H 842.118 2.50103 -3.61034 0
M  V30 8774 H 842.724 0.919154 -4.15249 0
M  V30 8775 N 841.039 1.57585 0.0217189 0
M  V30 8776 C 842.287 1.89231 0.709641 0
M  V30 8777 C 842.608 0.849964 1.75501 0
M  V30 8778 O 841.878 -0.115485 1.95559 0
M  V30 8779 H 840.458 0.69838 0.265092 0
M  V30 8780 H 843.12 1.94895 -0.0140688 0
M  V30 8781 H 842.216 2.88333 1.19459 0
M  V30 8782 N 842.517 -0.29412 1.54831 0
M  V30 8783 C 843.928 -0.866651 1.65366 0
M  V30 8784 C 844.279 -1.87834 0.56681 0
M  V30 8785 O 843.404 -2.14374 -0.295389 0
M  V30 8786 C 843.999 -1.57869 2.99771 0
M  V30 8787 C 842.558 -2.09954 3.12404 0
M  V30 8788 C 841.705 -0.934492 2.6108 0
M  V30 8789 H 844.656 -0.0709551 1.58541 0
M  V30 8790 H 844.677 -2.44462 2.91579 0
M  V30 8791 H 844.189 -0.84212 3.78853 0
M  V30 8792 H 842.29 -2.86637 2.38055 0
M  V30 8793 H 842.403 -2.32934 4.18663 0
M  V30 8794 H 840.767 -1.32199 2.17705 0
M  V30 8795 H 841.55 -0.211768 3.42646 0
M  V30 8796 N 843.995 -1.47404 -0.557645 0
M  V30 8797 C 845.22 -1.57868 -1.34508 0
M  V30 8798 C 845.645 -0.229151 -1.86699 0
M  V30 8799 O 845.003 0.794908 -1.62944 0
M  V30 8800 C 845.051 -2.60712 -2.49122 0
M  V30 8801 O 844.155 -2.15952 -3.51338 0
M  V30 8802 H 843.496 -0.530335 -0.399551 0
M  V30 8803 H 846.026 -1.93181 -0.673954 0
M  V30 8804 H 846.036 -2.81118 -2.95697 0
M  V30 8805 H 844.711 -3.58701 -2.10491 0
M  V30 8806 H 843.288 -2.05644 -3.11071 0
M  V30 8807 N 845.473 0.80434 -1.35529 0
M  V30 8808 C 846.713 1.57489 -1.30295 0
M  V30 8809 C 847.077 1.91621 0.120528 0
M  V30 8810 O 848.278 2.67151 0.297265 0
M  V30 8811 C 846.549 2.82741 -2.18615 0
M  V30 8812 S 848.108 3.73125 -2.30918 0
M  V30 8813 H 844.926 0.539573 -0.463014 0
M  V30 8814 H 847.528 0.948601 -1.70944 0
M  V30 8815 H 846.232 2.55692 -3.21014 0
M  V30 8816 H 845.763 3.50353 -1.78931 0
M  V30 8817 H 847.778 4.73122 -1.49566 0
M  V30 8818 N 846.951 1.19563 1.02676 0
M  V30 8819 C 848.228 0.908857 1.73203 0
M  V30 8820 C 848.608 -0.584928 2.02834 0
M  V30 8821 O 847.956 -1.54372 1.68469 0
M  V30 8822 C 848.166 1.77105 3.00724 0
M  V30 8823 C 849.514 2.00667 3.7419 0
M  V30 8824 O 850.538 1.74274 3.10656 0
M  V30 8825 O 849.397 2.4518 4.88415 0
M  V30 8826 H 846.491 0.338909 0.754367 0
M  V30 8827 H 849.037 1.30387 1.08616 0
M  V30 8828 H 847.809 2.78303 2.7507 0
M  V30 8829 H 847.432 1.37546 3.73051 0
M  V30 8830 N 848.429 -1.21819 0.999893 0
M  V30 8831 C 849.669 -1.92473 0.687996 0
M  V30 8832 C 850.033 -1.76033 -0.766569 0
M  V30 8833 O 851.234 -2.41013 -1.19021 0
M  V30 8834 C 849.505 -3.40332 1.09129 0
M  V30 8835 S 851.064 -4.29496 0.898822 0
M  V30 8836 H 847.882 -0.665097 0.251329 0
M  V30 8837 H 850.484 -1.47454 1.28364 0
M  V30 8838 H 849.188 -3.49812 2.14615 0
M  V30 8839 H 848.719 -3.90365 0.487724 0
M  V30 8840 H 850.734 -4.95769 -0.206873 0
M  V30 8841 N 849.908 -0.773975 -1.37286 0
M  V30 8842 C 851.319 -0.404433 -1.82267 0
M  V30 8843 C 851.67 1.06971 -1.64474 0
M  V30 8844 O 850.795 1.82867 -1.15708 0
M  V30 8845 C 851.39 -0.727298 -3.30902 0
M  V30 8846 C 849.949 -0.410784 -3.74152 0
M  V30 8847 C 849.096 -0.969983 -2.59782 0
M  V30 8848 H 852.047 -0.968437 -1.25726 0
M  V30 8849 H 852.068 -0.0127575 -3.80498 0
M  V30 8850 H 851.58 -1.80026 -3.4382 0
M  V30 8851 H 849.681 0.65477 -3.66802 0
M  V30 8852 H 849.794 -0.920592 -4.70172 0
M  V30 8853 H 848.158 -0.394094 -2.51633 0
M  V30 8854 H 848.941 -2.04839 -2.75492 0
M  V30 8855 N 851.386 1.48609 -0.524698 0
M  V30 8856 C 852.316 2.32366 0.229837 0
M  V30 8857 C 853.297 1.41759 0.940129 0
M  V30 8858 O 854.482 1.7065 0.926936 0
M  V30 8859 C 851.612 3.22835 1.28043 0
M  V30 8860 C 850.566 4.22424 0.688603 0
M  V30 8861 C 849.892 5.0199 1.84146 0
M  V30 8862 C 851.192 5.21217 -0.336176 0
M  V30 8863 H 852.886 2.95698 -0.469339 0
M  V30 8864 H 850.432 1.42197 -0.227156 0
M  V30 8865 H 852.385 3.80253 1.8162 0
M  V30 8866 H 851.109 2.57492 2.00912 0
M  V30 8867 H 849.768 3.66185 0.174402 0
M  V30 8868 H 849.416 4.33076 2.5584 0
M  V30 8869 H 849.116 5.69392 1.45142 0
M  V30 8870 H 850.64 5.62259 2.38111 0
M  V30 8871 H 852.054 5.7319 0.112307 0
M  V30 8872 H 850.451 5.96642 -0.643324 0
M  V30 8873 H 851.521 4.68676 -1.24381 0
M  V30 8874 N 852.864 0.259585 1.55447 0
M  V30 8875 C 854.089 -0.368317 2.04103 0
M  V30 8876 C 854.514 -1.49827 1.13725 0
M  V30 8877 O 853.872 -1.80814 0.132705 0
M  V30 8878 C 853.92 -0.841506 3.50644 0
M  V30 8879 O 853.024 -1.95008 3.63381 0
M  V30 8880 H 852.365 -0.0785227 0.659341 0
M  V30 8881 H 854.895 0.389349 2.00861 0
M  V30 8882 H 854.905 -1.14138 3.9171 0
M  V30 8883 H 853.58 -0.0147001 4.15897 0
M  V30 8884 H 852.157 -1.65393 3.34215 0
M  V30 8885 N 854.342 -1.57594 -0.0133615 0
M  V30 8886 C 855.29 -2.08682 -1.02736 0
M  V30 8887 C 856.284 -1.00391 -1.36448 0
M  V30 8888 O 857.49 -1.18868 -1.35168 0
M  V30 8889 H 853.865 -0.666158 -0.34891 0
M  V30 8890 H 855.836 -2.9289 -0.570815 0
M  V30 8891 C 854.585 -2.5945 -2.31476 0
M  V30 8892 H 853.908 -3.42401 -2.06401 0
M  V30 8893 H 855.348 -2.98888 -3.00735 0
M  V30 8894 C 853.807 -1.50266 -3.01533 0
M  V30 8895 O 854.337 -0.877875 -3.9199 0
M  V30 8896 N 852.543 -1.23336 -2.63129 0
M  V30 8897 H 852.09 -1.74327 -1.89652 0
M  V30 8898 H 852.048 -0.504987 -3.10318 0
M  V30 8899 N 855.82 0.285905 -1.54985 0
M  V30 8900 C 856.783 1.33625 -1.86218 0
M  V30 8901 C 857.783 1.42971 -0.735936 0
M  V30 8902 O 858.973 1.42345 -1.00417 0
M  V30 8903 C 856.105 2.71926 -2.05595 0
M  V30 8904 H 857.298 1.07167 -2.80099 0
M  V30 8905 H 854.851 0.523335 -1.47278 0
M  V30 8906 H 855.586 3.03583 -1.14053 0
M  V30 8907 H 855.371 2.6653 -2.87583 0
M  V30 8908 H 856.861 3.47841 -2.31077 0
M  V30 8909 N 857.298 1.47698 0.54982 0
M  V30 8910 C 858.526 1.5833 1.33188 0
M  V30 8911 C 858.941 0.236193 1.87317 0
M  V30 8912 O 858.298 -0.77167 1.65383 0
M  V30 8913 C 858.349 2.61438 2.49664 0
M  V30 8914 O 858.07 3.9092 1.97771 0
M  V30 8915 C 859.571 2.82324 3.41772 0
M  V30 8916 H 856.791 0.53443 0.405741 0
M  V30 8917 H 859.335 1.93375 0.665309 0
M  V30 8918 H 857.49 2.29307 3.12245 0
M  V30 8919 H 857.904 4.47323 2.73866 0
M  V30 8920 H 859.378 3.58316 4.19897 0
M  V30 8921 H 859.855 1.90416 3.95776 0
M  V30 8922 H 860.461 3.15682 2.85 0
M  V30 8923 N 858.776 -0.797141 1.35954 0
M  V30 8924 C 860.016 -1.56795 1.31128 0
M  V30 8925 C 860.38 -1.91683 -0.110364 0
M  V30 8926 O 861.581 -2.67305 -0.283093 0
M  V30 8927 C 859.852 -2.81577 2.20111 0
M  V30 8928 S 861.411 -3.71895 2.32894 0
M  V30 8929 H 858.229 -0.53711 0.465869 0
M  V30 8930 H 860.831 -0.939522 1.71445 0
M  V30 8931 H 859.535 -2.53986 3.22365 0
M  V30 8932 H 859.066 -3.49399 1.80786 0
M  V30 8933 H 861.081 -4.72322 1.52073 0
M  V30 8934 N 860.254 -1.20106 -1.0204 0
M  V30 8935 C 861.503 -1.00316 -1.74985 0
M  V30 8936 C 861.816 0.465814 -1.89972 0
M  V30 8937 O 863.022 0.782749 -2.59972 0
M  V30 8938 C 861.478 -1.74608 -3.14706 0
M  V30 8939 C 861.086 -3.25573 -3.07744 0
M  V30 8940 C 862.83 -1.63172 -3.91887 0
M  V30 8941 C 860.737 -3.92419 -4.42449 0
M  V30 8942 H 859.667 -0.371728 -0.655999 0
M  V30 8943 H 862.318 -1.43688 -1.14131 0
M  V30 8944 H 860.7 -1.24021 -3.76078 0
M  V30 8945 H 861.874 -3.83345 -2.55702 0
M  V30 8946 H 860.189 -3.3738 -2.44057 0
M  V30 8947 H 862.786 -2.10457 -4.9154 0
M  V30 8948 H 863.129 -0.58728 -4.12137 0
M  V30 8949 H 863.662 -2.11152 -3.37135 0
M  V30 8950 H 860.401 -4.96998 -4.27403 0
M  V30 8951 H 859.921 -3.39436 -4.94513 0
M  V30 8952 H 861.6 -3.96453 -5.11306 0
M  V30 8953 N 861.732 1.21287 -1.00634 0
M  V30 8954 C 863.009 1.86 -0.605257 0
M  V30 8955 C 863.389 1.90139 0.917072 0
M  V30 8956 O 862.737 1.40169 1.80458 0
M  V30 8957 C 862.947 3.26183 -1.24119 0
M  V30 8958 C 864.295 4.02562 -1.35015 0
M  V30 8959 O 865.319 3.35499 -1.19661 0
M  V30 8960 O 864.178 5.22638 -1.59726 0
M  V30 8961 H 861.272 0.800549 -0.207486 0
M  V30 8962 H 863.818 1.28959 -1.10307 0
M  V30 8963 H 862.59 3.17878 -2.28186 0
M  V30 8964 H 862.213 3.90845 -0.729807 0
M  V30 8965 N 863.21 0.781244 1.36873 0
M  V30 8966 C 864.435 0.360398 2.04245 0
M  V30 8967 C 864.86 -1.01242 1.58529 0
M  V30 8968 O 864.218 -1.65063 0.749936 0
M  V30 8969 C 864.266 0.42329 3.58107 0
M  V30 8970 O 863.37 -0.572796 4.08403 0
M  V30 8971 H 862.711 0.154386 0.645803 0
M  V30 8972 H 865.241 1.06008 1.74996 0
M  V30 8973 H 865.251 0.283967 4.07011 0
M  V30 8974 H 863.926 1.42477 3.90734 0
M  V30 8975 H 862.503 -0.395809 3.70793 0
M  V30 8976 N 864.689 -1.48329 0.532571 0
M  V30 8977 C 865.637 -2.31336 -0.242133 0
M  V30 8978 C 866.631 -1.41391 -0.933006 0
M  V30 8979 O 867.837 -1.58284 -0.857096 0
M  V30 8980 H 864.212 -0.745724 -0.0969536 0
M  V30 8981 H 866.183 -2.94555 0.477504 0
M  V30 8982 C 864.932 -3.23501 -1.27446 0
M  V30 8983 H 864.255 -3.92659 -0.752261 0
M  V30 8984 H 865.695 -3.84461 -1.78789 0
M  V30 8985 C 864.154 -2.45288 -2.30944 0
M  V30 8986 O 864.684 -2.17955 -3.37429 0
M  V30 8987 N 862.89 -2.06737 -2.04226 0
M  V30 8988 H 862.437 -2.29166 -1.17647 0
M  V30 8989 H 862.395 -1.54719 -2.73696 0
M  V30 8990 N 866.167 -0.267825 -1.55308 0
M  V30 8991 C 867.415 0.350343 -1.9904 0
M  V30 8992 C 867.736 1.56924 -1.15758 0
M  V30 8993 O 867.006 1.94358 -0.245336 0
M  V30 8994 H 865.586 0.132435 -0.735167 0
M  V30 8995 H 868.248 -0.371471 -1.91327 0
M  V30 8996 H 867.344 0.645203 -3.05358 0
M  V30 8997 N 867.645 1.57599 0.00500368 0
M  V30 8998 C 868.893 1.89973 0.68953 0
M  V30 8999 C 869.214 0.868531 1.7459 0
M  V30 9000 O 868.484 -0.0947367 1.95671 0
M  V30 9001 H 867.064 0.701153 0.25767 0
M  V30 9002 H 869.726 1.94869 -0.0347392 0
M  V30 9003 H 868.822 2.89584 1.16394 0
M  V30 9004 N 869.123 -0.277682 1.55134 0
M  V30 9005 C 870.372 -1.00766 1.74726 0
M  V30 9006 C 870.685 -1.87617 0.553092 0
M  V30 9007 O 871.891 -2.64058 0.631318 0
M  V30 9008 C 870.347 -1.84147 3.09221 0
M  V30 9009 C 869.955 -1.02186 4.3619 0
M  V30 9010 C 871.699 -2.56604 3.38164 0
M  V30 9011 C 869.606 -1.84978 5.61727 0
M  V30 9012 H 868.536 -0.379948 0.651273 0
M  V30 9013 H 871.187 -0.263543 1.81598 0
M  V30 9014 H 869.569 -2.62637 2.96375 0
M  V30 9015 H 870.743 -0.281459 4.5994 0
M  V30 9016 H 869.058 -0.412054 4.14356 0
M  V30 9017 H 871.655 -3.18942 4.29162 0
M  V30 9018 H 871.998 -3.26647 2.58085 0
M  V30 9019 H 872.531 -1.85147 3.52087 0
M  V30 9020 H 869.27 -1.19365 6.4454 0
M  V30 9021 H 868.79 -2.56628 5.42128 0
M  V30 9022 H 870.469 -2.42458 5.99853 0
M  V30 9023 N 870.601 -1.47988 -0.541979 0
M  V30 9024 C 871.841 -1.56982 -1.30905 0
M  V30 9025 C 872.205 -0.233153 -1.90579 0
M  V30 9026 O 873.406 -0.198018 -2.6807 0
M  V30 9027 C 871.677 -2.66787 -2.37823 0
M  V30 9028 S 873.236 -2.95467 -3.24414 0
M  V30 9029 H 870.054 -0.554165 -0.445446 0
M  V30 9030 H 872.656 -1.85448 -0.618803 0
M  V30 9031 H 871.36 -3.62483 -1.92443 0
M  V30 9032 H 870.891 -2.40184 -3.11569 0
M  V30 9033 H 872.906 -2.33846 -4.37642 0
M  V30 9034 N 872.079 0.78992 -1.36375 0
M  V30 9035 C 873.027 1.92394 -1.30719 0
M  V30 9036 C 874.021 1.68226 -0.199076 0
M  V30 9037 O 875.227 1.76239 -0.366051 0
M  V30 9038 H 871.602 0.632382 -0.406936 0
M  V30 9039 H 873.573 1.94282 -2.26488 0
M  V30 9040 C 872.322 3.2941 -1.11284 0
M  V30 9041 H 871.645 3.48573 -1.95798 0
M  V30 9042 H 873.085 4.09111 -1.11373 0
M  V30 9043 C 871.544 3.36405 0.182543 0
M  V30 9044 O 872.074 3.84206 1.17255 0
M  V30 9045 N 870.28 2.89712 0.227046 0
M  V30 9046 H 869.827 2.51004 -0.579217 0
M  V30 9047 H 869.785 2.94773 1.09344 0
M  V30 9048 N 873.557 1.20646 1.01402 0
M  V30 9049 C 874.805 1.01618 1.74695 0
M  V30 9050 C 875.126 -0.452438 1.89679 0
M  V30 9051 O 874.396 -1.32693 1.44116 0
M  V30 9052 H 872.976 0.373013 0.647202 0
M  V30 9053 H 875.638 1.518 1.22241 0
M  V30 9054 H 874.734 1.47666 2.74957 0
M  V30 9055 N 875.035 -1.20752 1.01276 0
M  V30 9056 C 876.451 -1.42084 0.726934 0
M  V30 9057 C 876.651 -1.89138 -0.694907 0
M  V30 9058 O 875.707 -2.05783 -1.4632 0
M  V30 9059 C 877.02 -2.44575 1.74938 0
M  V30 9060 C 878.568 -2.58347 1.76708 0
M  V30 9061 C 879.043 -3.64078 2.77869 0
M  V30 9062 N 880.534 -3.71558 2.76585 0
M  V30 9063 C 881.269 -4.53016 3.51517 0
M  V30 9064 N 880.765 -5.38309 4.36114 0
M  V30 9065 N 882.558 -4.47512 3.40132 0
M  V30 9066 H 874.709 -0.885228 1.93074 0
M  V30 9067 H 876.972 -0.451075 0.833808 0
M  V30 9068 H 876.678 -2.1699 2.76782 0
M  V30 9069 H 876.552 -3.43503 1.55838 0
M  V30 9070 H 878.939 -2.85265 0.755516 0
M  V30 9071 H 879.02 -1.59628 1.99882 0
M  V30 9072 H 878.664 -3.37905 3.79187 0
M  V30 9073 H 878.594 -4.62412 2.51958 0
M  V30 9074 H 881.085 -3.10629 2.15216 0
M  V30 9075 H 881.398 -5.9754 4.90068 0
M  V30 9076 H 879.743 -5.37824 4.40194 0
M  V30 9077 H 882.934 -3.79912 2.73467 0
M  V30 9078 H 883.107 -5.10759 3.98784 0
M  V30 9079 N 876.513 -0.788492 -1.36457 0
M  V30 9080 C 877.761 -0.359749 -1.98872 0
M  V30 9081 C 878.082 1.07197 -1.62892 0
M  V30 9082 O 877.352 1.73875 -0.902463 0
M  V30 9083 H 875.932 -0.130029 -0.735596 0
M  V30 9084 H 878.594 -1.01033 -1.66668 0
M  V30 9085 H 877.69 -0.450835 -3.08827 0
M  V30 9086 N 877.991 1.48044 -0.54043 0
M  V30 9087 C 878.941 2.26768 0.236657 0
M  V30 9088 C 879.925 1.33341 0.900505 0
M  V30 9089 O 881.117 1.57809 0.801584 0
M  V30 9090 C 878.246 3.18685 1.27651 0
M  V30 9091 C 877.332 4.19589 0.616923 0
M  V30 9092 N 877.723 5.04889 -0.303377 0
M  V30 9093 C 876.021 4.37375 0.872879 0
M  V30 9094 C 876.722 5.77654 -0.684905 0
M  V30 9095 N 875.698 5.43583 -0.0435728 0
M  V30 9096 H 879.5 2.90098 -0.471183 0
M  V30 9097 H 877.014 1.58378 -0.359183 0
M  V30 9098 H 879.011 3.73752 1.84702 0
M  V30 9099 H 877.671 2.56911 1.98562 0
M  V30 9100 H 878.682 5.13461 -0.676591 0
M  V30 9101 H 875.359 3.86784 1.57177 0
M  V30 9102 H 876.749 6.56285 -1.44015 0
M  V30 9103 N 879.47 0.276058 1.55163 0
M  V30 9104 C 880.71 -0.341634 2.01525 0
M  V30 9105 C 881.074 -1.52979 1.16023 0
M  V30 9106 O 882.275 -2.21718 1.51968 0
M  V30 9107 C 880.546 -0.713294 3.5021 0
M  V30 9108 S 882.105 -1.31739 4.18558 0
M  V30 9109 H 878.923 -0.1062 0.703024 0
M  V30 9110 H 881.525 0.398112 1.91404 0
M  V30 9111 H 880.229 0.160311 4.10087 0
M  V30 9112 H 879.76 -1.48448 3.64317 0
M  V30 9113 H 881.775 -2.60595 4.22261 0
M  V30 9114 N 880.948 -1.576 0.00335426 0
M  V30 9115 C 881.858 -2.12067 -1.00322 0
M  V30 9116 C 882.874 -1.06672 -1.37467 0
M  V30 9117 O 884.05 -1.38592 -1.46131 0
M  V30 9118 C 881.115 -2.61593 -2.27531 0
M  V30 9119 C 880.176 -3.81602 -1.96668 0
M  V30 9120 C 879.409 -4.28756 -3.17811 0
M  V30 9121 O 879.632 -3.75222 -4.2961 0
M  V30 9122 O 878.566 -5.20877 -3.01613 0
M  V30 9123 H 882.392 -2.98299 -0.570199 0
M  V30 9124 H 879.977 -1.47835 -0.215682 0
M  V30 9125 H 881.859 -2.93631 -3.02256 0
M  V30 9126 H 880.534 -1.78457 -2.70065 0
M  V30 9127 H 879.441 -3.54531 -1.19408 0
M  V30 9128 H 880.774 -4.65822 -1.58968 0
M  V30 9129 N 882.426 0.269451 -1.5528 0
M  V30 9130 C 883.666 1.00819 -1.77806 0
M  V30 9131 C 884.03 1.83369 -0.569198 0
M  V30 9132 O 885.231 2.60244 -0.672783 0
M  V30 9133 C 883.502 1.86447 -3.04913 0
M  V30 9134 S 885.061 2.66538 -3.48573 0
M  V30 9135 H 881.879 0.339508 -0.624704 0
M  V30 9136 H 884.481 0.278256 -1.9351 0
M  V30 9137 H 883.185 1.24733 -3.90986 0
M  V30 9138 H 882.716 2.63755 -2.91885 0
M  V30 9139 H 884.731 3.88938 -3.08126 0
M  V30 9140 N 883.904 1.48273 0.534124 0
M  V30 9141 C 885.152 1.55771 1.28762 0
M  V30 9142 C 885.473 0.231575 1.9362 0
M  V30 9143 O 884.743 -0.746533 1.81118 0
M  V30 9144 H 883.323 0.573851 0.47823 0
M  V30 9145 H 885.985 1.84712 0.621888 0
M  V30 9146 H 885.081 2.33657 2.06908 0
M  V30 9147 N 885.382 -0.782676 1.36792 0
M  V30 9148 C 886.798 -1.08169 1.17352 0
M  V30 9149 C 886.998 -2.015 0.0022037 0
M  V30 9150 O 886.054 -2.43692 -0.661093 0
M  V30 9151 C 887.367 -1.68969 2.48737 0
M  V30 9152 C 888.915 -1.81278 2.55161 0
M  V30 9153 C 889.39 -2.45492 3.86649 0
M  V30 9154 N 890.881 -2.52954 3.88032 0
M  V30 9155 C 891.616 -3.03465 4.86515 0
M  V30 9156 N 891.112 -3.54232 5.95392 0
M  V30 9157 N 892.905 -3.02239 4.73928 0
M  V30 9158 H 885.056 -0.162757 2.11775 0
M  V30 9159 H 887.319 -0.134823 0.938364 0
M  V30 9160 H 887.025 -1.07859 3.34753 0
M  V30 9161 H 886.899 -2.68397 2.65034 0
M  V30 9162 H 889.286 -2.41524 1.69559 0
M  V30 9163 H 889.367 -0.806367 2.42758 0
M  V30 9164 H 889.011 -1.85889 4.7266 0
M  V30 9165 H 888.941 -3.46718 3.96351 0
M  V30 9166 H 891.432 -2.17014 3.09376 0
M  V30 9167 H 891.745 -3.91145 6.66503 0
M  V30 9168 H 890.09 -3.52366 5.99052 0
M  V30 9169 H 893.281 -2.61871 3.87996 0
M  V30 9170 H 893.454 -3.41295 5.50837 0
M  V30 9171 N 886.86 -1.21182 -1.00761 0
M  V30 9172 C 888.1 -1.03886 -1.76031 0
M  V30 9173 C 888.464 0.420593 -1.87337 0
M  V30 9174 O 889.665 0.713994 -2.59144 0
M  V30 9175 C 887.936 -1.71394 -3.13622 0
M  V30 9176 S 889.495 -1.69319 -4.04816 0
M  V30 9177 H 886.313 -0.372327 -0.605717 0
M  V30 9178 H 888.915 -1.53885 -1.20581 0
M  V30 9179 H 887.619 -2.76773 -3.03026 0
M  V30 9180 H 887.15 -1.21564 -3.74147 0
M  V30 9181 H 889.165 -0.732434 -4.90765 0
M  V30 9182 N 888.338 1.20213 -1.01915 0
M  V30 9183 C 889.288 2.20957 -0.562327 0
M  V30 9184 C 890.272 1.56258 0.383704 0
M  V30 9185 O 891.464 1.75794 0.206255 0
M  V30 9186 C 888.593 3.43167 0.0954035 0
M  V30 9187 C 887.679 4.15028 -0.872487 0
M  V30 9188 N 888.07 4.63231 -2.03103 0
M  V30 9189 C 886.368 4.4057 -0.69385 0
M  V30 9190 C 887.069 5.18307 -2.64069 0
M  V30 9191 N 886.045 5.08522 -1.9211 0
M  V30 9192 H 889.847 2.55894 -1.44553 0
M  V30 9193 H 887.361 1.36178 -0.884831 0
M  V30 9194 H 889.358 4.14569 0.440232 0
M  V30 9195 H 888.018 3.09734 0.974413 0
M  V30 9196 H 889.029 4.58365 -2.41086 0
M  V30 9197 H 885.706 4.17276 0.136889 0
M  V30 9198 H 887.096 5.65961 -3.6213 0
M  V30 9199 N 889.816 0.795718 1.36037 0
M  V30 9200 C 891.056 0.376514 2.00902 0
M  V30 9201 C 891.42 -1.03405 1.61776 0
M  V30 9202 O 892.621 -1.55468 2.19279 0
M  V30 9203 C 890.892 0.542086 3.53265 0
M  V30 9204 S 892.451 0.211694 4.38289 0
M  V30 9205 H 889.269 0.143527 0.696363 0
M  V30 9206 H 891.871 1.03559 1.65819 0
M  V30 9207 H 890.575 1.56888 3.79229 0
M  V30 9208 H 890.106 -0.132698 3.93176 0
M  V30 9209 H 892.121 -0.98452 4.86335 0
M  V30 9210 N 891.294 -1.47756 0.548274 0
M  V30 9211 C 892.244 -2.26891 -0.224628 0
M  V30 9212 C 893.228 -1.33816 -0.893421 0
M  V30 9213 O 894.42 -1.58232 -0.793204 0
M  V30 9214 C 891.549 -3.19358 -1.25959 0
M  V30 9215 C 890.635 -4.1991 -0.594662 0
M  V30 9216 N 891.026 -5.04721 0.330148 0
M  V30 9217 C 889.324 -4.37832 -0.849672 0
M  V30 9218 C 890.025 -5.77282 0.71553 0
M  V30 9219 N 889.001 -5.43552 0.0723997 0
M  V30 9220 H 892.803 -2.89844 0.486561 0
M  V30 9221 H 890.317 -1.58185 0.367577 0
M  V30 9222 H 892.314 -3.74726 -1.82718 0
M  V30 9223 H 890.974 -2.57961 -1.97196 0
M  V30 9224 H 891.985 -5.13095 0.703811 0
M  V30 9225 H 888.662 -3.87612 -1.55123 0
M  V30 9226 H 890.052 -6.55512 1.47493 0
M  V30 9227 N 892.772 -0.284283 -1.55015 0
M  V30 9228 C 893.704 0.63258 -2.20298 0
M  V30 9229 C 894.717 1.11045 -1.1905 0
M  V30 9230 O 895.906 1.03078 -1.4573 0
M  V30 9231 C 893.006 1.87599 -2.82241 0
M  V30 9232 C 892.179 1.5434 -4.09265 0
M  V30 9233 C 891.238 2.64023 -4.55169 0
M  V30 9234 O 890.264 2.29821 -5.20741 0
M  V30 9235 N 891.466 3.94255 -4.26079 0
M  V30 9236 H 894.231 0.0737928 -2.99609 0
M  V30 9237 H 891.792 -0.105767 -1.61554 0
M  V30 9238 H 893.784 2.60289 -3.0989 0
M  V30 9239 H 892.354 2.3436 -2.06868 0
M  V30 9240 H 891.574 0.649912 -3.88806 0
M  V30 9241 H 892.862 1.29634 -4.92009 0
M  V30 9242 H 892.26 4.24859 -3.73512 0
M  V30 9243 H 890.817 4.63295 -4.58477 0
M  V30 9244 N 894.251 1.57596 -0.0117121 0
M  V30 9245 C 895.183 2.06025 1.0043 0
M  V30 9246 C 896.196 0.980348 1.29973 0
M  V30 9247 O 897.385 1.25691 1.26744 0
M  V30 9248 C 894.485 2.45514 2.33615 0
M  V30 9249 C 893.658 3.76378 2.22842 0
M  V30 9250 C 892.717 4.02606 3.38814 0
M  V30 9251 O 891.743 4.73108 3.16477 0
M  V30 9252 N 892.945 3.51416 4.62047 0
M  V30 9253 H 895.71 2.93811 0.591206 0
M  V30 9254 H 893.271 1.60947 0.175427 0
M  V30 9255 H 895.263 2.60166 3.09993 0
M  V30 9256 H 893.833 1.63186 2.66625 0
M  V30 9257 H 893.053 3.71691 1.313 0
M  V30 9258 H 894.341 4.62149 2.12829 0
M  V30 9259 H 893.739 2.94346 4.83091 0
M  V30 9260 H 892.296 3.71377 5.35651 0
M  V30 9261 N 895.729 -0.261212 1.5542 0
M  V30 9262 C 896.954 -1.01341 1.80955 0
M  V30 9263 C 897.379 -1.78711 0.586849 0
M  V30 9264 O 896.737 -1.75266 -0.463837 0
M  V30 9265 C 896.785 -1.93835 3.04073 0
M  V30 9266 O 895.889 -3.02791 2.79985 0
M  V30 9267 H 895.23 -0.289123 0.597749 0
M  V30 9268 H 897.76 -0.286543 2.02584 0
M  V30 9269 H 897.77 -2.3557 3.33123 0
M  V30 9270 H 896.445 -1.36936 3.9271 0
M  V30 9271 H 895.022 -2.65287 2.62063 0
M  V30 9272 N 897.207 -1.48554 -0.526253 0
M  V30 9273 C 898.137 -1.66252 -1.63959 0
M  V30 9274 C 899.118 -0.511351 -1.62232 0
M  V30 9275 O 900.303 -0.744322 -1.7937 0
M  V30 9276 C 897.433 -1.70556 -3.02536 0
M  V30 9277 C 896.387 -2.8521 -3.19123 0
M  V30 9278 C 895.713 -2.74606 -4.58798 0
M  V30 9279 C 897.013 -4.26463 -3.0154 0
M  V30 9280 H 898.707 -2.59459 -1.49404 0
M  V30 9281 H 896.253 -1.24862 -0.717326 0
M  V30 9282 H 898.206 -1.81524 -3.80298 0
M  V30 9283 H 896.93 -0.739297 -3.18123 0
M  V30 9284 H 895.589 -2.73802 -2.43779 0
M  V30 9285 H 895.237 -1.75941 -4.71226 0
M  V30 9286 H 894.937 -3.51544 -4.70841 0
M  V30 9287 H 896.461 -2.87548 -5.38655 0
M  V30 9288 H 897.875 -4.38685 -3.69091 0
M  V30 9289 H 896.272 -5.04428 -3.25073 0
M  V30 9290 H 897.342 -4.42667 -1.97925 0
M  V30 9291 N 898.685 0.775411 -1.37205 0
M  V30 9292 C 899.915 1.56219 -1.352 0
M  V30 9293 C 900.323 1.89087 0.065456 0
M  V30 9294 O 899.666 1.51655 1.03665 0
M  V30 9295 C 899.728 2.9019 -2.12203 0
M  V30 9296 C 899.392 2.79978 -3.61195 0
M  V30 9297 C 900.389 2.51258 -4.55154 0
M  V30 9298 C 898.074 2.98115 -4.04268 0
M  V30 9299 C 900.068 2.40798 -5.90165 0
M  V30 9300 C 897.755 2.87276 -5.39366 0
M  V30 9301 C 898.753 2.58657 -6.32128 0
M  V30 9302 O 898.441 2.47838 -7.64743 0
M  V30 9303 H 898.173 0.490735 -0.464925 0
M  V30 9304 H 900.727 0.969201 -1.81096 0
M  V30 9305 H 898.957 3.51594 -1.60992 0
M  V30 9306 H 900.646 3.51561 -2.02879 0
M  V30 9307 H 901.412 2.36935 -4.23186 0
M  V30 9308 H 897.291 3.19392 -3.3243 0
M  V30 9309 H 900.835 2.18381 -6.62537 0
M  V30 9310 H 896.732 3.01166 -5.70937 0
M  V30 9311 H 897.5 2.63215 -7.75023 0
M  V30 9312 N 900.163 1.21714 1.00117 0
M  V30 9313 C 901.391 1.06278 1.77518 0
M  V30 9314 C 901.806 -0.387193 1.84787 0
M  V30 9315 O 901.163 -1.26854 1.31203 0
M  V30 9316 C 901.214 1.65795 3.21239 0
M  V30 9317 O 900.935 3.05119 3.14378 0
M  V30 9318 C 902.436 1.55521 4.15124 0
M  V30 9319 H 899.656 0.373013 0.557765 0
M  V30 9320 H 902.2 1.61133 1.25922 0
M  V30 9321 H 900.355 1.15022 3.69931 0
M  V30 9322 H 900.769 3.33643 4.04701 0
M  V30 9323 H 902.243 2.01902 5.13751 0
M  V30 9324 H 902.72 0.510307 4.36225 0
M  V30 9325 H 903.326 2.0556 3.72324 0
M  V30 9326 N 901.641 -1.19671 1.02551 0
M  V30 9327 C 902.918 -1.85014 0.634771 0
M  V30 9328 C 903.298 -1.91574 -0.886706 0
M  V30 9329 O 902.646 -1.43022 -1.78205 0
M  V30 9330 C 902.856 -3.24167 1.29292 0
M  V30 9331 C 904.204 -4.00363 1.41402 0
M  V30 9332 O 905.228 -3.33553 1.24983 0
M  V30 9333 O 904.087 -5.2003 1.6802 0
M  V30 9334 H 901.181 -0.797147 0.220196 0
M  V30 9335 H 903.727 -1.27188 1.12345 0
M  V30 9336 H 902.499 -3.14208 2.33215 0
M  V30 9337 H 902.122 -3.89634 0.791895 0
M  V30 9338 N 903.119 -0.802921 -1.35613 0
M  V30 9339 C 904.347 -0.39393 -2.03115 0
M  V30 9340 C 904.762 0.993961 -1.60517 0
M  V30 9341 O 904.119 1.63984 -0.800973 0
M  V30 9342 C 904.17 -0.463486 -3.58516 0
M  V30 9343 O 903.891 -1.79666 -3.99565 0
M  V30 9344 C 905.392 -0.0468377 -4.43275 0
M  V30 9345 H 902.612 -0.160519 -0.651517 0
M  V30 9346 H 905.156 -1.08552 -1.73311 0
M  V30 9347 H 903.311 0.179821 -3.86982 0
M  V30 9348 H 903.725 -1.75688 -4.942 0
M  V30 9349 H 905.199 -0.146626 -5.51805 0
M  V30 9350 H 905.676 1.00741 -4.2749 0
M  V30 9351 H 906.282 -0.663158 -4.20098 0
M  V30 9352 N 904.597 1.47463 -0.556102 0
M  V30 9353 C 905.846 2.01678 -0.029492 0
M  V30 9354 C 906.159 1.436 1.32809 0
M  V30 9355 O 907.365 1.89472 1.94455 0
M  V30 9356 C 905.821 3.599 -0.00223937 0
M  V30 9357 C 905.429 4.26969 -1.35651 0
M  V30 9358 C 907.173 4.2187 0.471822 0
M  V30 9359 C 905.08 5.77194 -1.28843 0
M  V30 9360 H 904.01 0.753965 -0.00725504 0
M  V30 9361 H 906.661 1.69467 -0.703789 0
M  V30 9362 H 905.043 3.89068 0.737682 0
M  V30 9363 H 906.217 4.09444 -2.11406 0
M  V30 9364 H 904.532 3.76983 -1.76842 0
M  V30 9365 H 907.129 5.31955 0.541139 0
M  V30 9366 H 907.472 3.88968 1.48356 0
M  V30 9367 H 908.005 3.97228 -0.213207 0
M  V30 9368 H 904.744 6.14713 -2.27613 0
M  V30 9369 H 904.264 5.9706 -0.572668 0
M  V30 9370 H 905.943 6.3938 -0.990031 0
M  V30 9371 N 906.075 0.2925 1.54862 0
M  V30 9372 C 907.315 -0.32024 2.01876 0
M  V30 9373 C 907.679 -1.5174 1.17639 0
M  V30 9374 O 908.88 -2.20094 1.54312 0
M  V30 9375 C 907.151 -0.67611 3.50947 0
M  V30 9376 S 908.71 -1.27292 4.19931 0
M  V30 9377 H 905.528 -0.0987374 0.704111 0
M  V30 9378 H 908.13 0.41839 1.90971 0
M  V30 9379 H 906.834 0.203797 4.09894 0
M  V30 9380 H 906.365 -1.44575 3.65871 0
M  V30 9381 H 908.38 -2.56102 4.25002 0
M  V30 9382 N 907.553 -1.57587 0.0200696 0
M  V30 9383 C 908.463 -2.13119 -0.980676 0
M  V30 9384 C 909.479 -1.08124 -1.36328 0
M  V30 9385 O 910.655 -1.40134 -1.44653 0
M  V30 9386 C 907.72 -2.63991 -2.24743 0
M  V30 9387 C 906.781 -3.83667 -1.9261 0
M  V30 9388 C 906.014 -4.32103 -3.13246 0
M  V30 9389 O 906.237 -3.79758 -4.25606 0
M  V30 9390 O 905.171 -5.24047 -2.96072 0
M  V30 9391 H 908.997 -2.98887 -0.538528 0
M  V30 9392 H 906.582 -1.48055 -0.19999 0
M  V30 9393 H 908.464 -2.9682 -2.99125 0
M  V30 9394 H 907.139 -1.81311 -2.68157 0
M  V30 9395 H 906.046 -3.55778 -1.15641 0
M  V30 9396 H 907.379 -4.67482 -1.54019 0
M  V30 9397 N 909.032 0.252966 -1.55557 0
M  V30 9398 C 910.281 0.979736 -1.76307 0
M  V30 9399 C 910.594 1.86714 -0.582871 0
M  V30 9400 O 911.8 2.6302 -0.673247 0
M  V30 9401 C 910.256 1.79205 -3.12112 0
M  V30 9402 C 909.864 0.952333 -4.37761 0
M  V30 9403 C 911.608 2.51191 -3.42203 0
M  V30 9404 C 909.515 1.76018 -5.64599 0
M  V30 9405 H 908.445 0.369538 -0.657235 0
M  V30 9406 H 911.096 0.234619 -1.81994 0
M  V30 9407 H 909.478 2.57888 -3.00515 0
M  V30 9408 H 910.652 0.208251 -4.60329 0
M  V30 9409 H 908.967 0.346082 -4.14959 0
M  V30 9410 H 911.564 3.12074 -4.34182 0
M  V30 9411 H 911.907 3.22499 -2.63249 0
M  V30 9412 H 912.44 1.79523 -3.54988 0
M  V30 9413 H 909.179 1.09095 -6.46358 0
M  V30 9414 H 908.699 2.4797 -5.46142 0
M  V30 9415 H 910.378 2.32884 -6.03634 0
M  V30 9416 N 910.51 1.48831 0.518367 0
M  V30 9417 C 911.458 1.64678 1.64268 0
M  V30 9418 C 912.452 0.512967 1.61447 0
M  V30 9419 O 913.658 0.692063 1.66164 0
M  V30 9420 H 910.033 0.518964 0.544224 0
M  V30 9421 H 912.004 2.59083 1.4805 0
M  V30 9422 C 910.753 1.71449 3.0249 0
M  V30 9423 H 910.076 2.58061 3.0536 0
M  V30 9424 H 911.516 1.86577 3.80743 0
M  V30 9425 C 909.975 0.455584 3.33805 0
M  V30 9426 O 910.505 -0.426428 3.9943 0
M  V30 9427 N 908.711 0.323763 2.88791 0
M  V30 9428 H 908.258 1.04249 2.35563 0
M  V30 9429 H 908.216 -0.517514 3.10112 0
M  V30 9430 N 911.988 -0.768124 1.37614 0
M  V30 9431 C 913.218 -1.555 1.36027 0
M  V30 9432 C 913.626 -1.89119 -0.0554273 0
M  V30 9433 O 912.969 -1.52203 -1.02859 0
M  V30 9434 C 913.031 -2.8906 2.13739 0
M  V30 9435 C 912.695 -2.78058 3.62674 0
M  V30 9436 C 913.692 -2.48841 4.5648 0
M  V30 9437 C 911.377 -2.95966 4.05844 0
M  V30 9438 C 913.371 -2.37665 5.91434 0
M  V30 9439 C 911.058 -2.84411 5.40882 0
M  V30 9440 C 912.056 -2.55301 6.33491 0
M  V30 9441 O 911.744 -2.43779 7.66046 0
M  V30 9442 H 911.476 -0.488263 0.467521 0
M  V30 9443 H 914.03 -0.959583 1.81607 0
M  V30 9444 H 912.26 -3.50735 1.62854 0
M  V30 9445 H 913.949 -3.5048 2.04741 0
M  V30 9446 H 914.715 -2.34687 4.24437 0
M  V30 9447 H 910.594 -3.17625 3.34119 0
M  V30 9448 H 914.138 -2.14865 6.63686 0
M  V30 9449 H 910.035 -2.98134 5.72527 0
M  V30 9450 H 910.803 -2.59101 7.76408 0
M  V30 9451 N 913.466 -1.22244 -0.994698 0
M  V30 9452 C 914.691 -1.07299 -1.77487 0
M  V30 9453 C 915.116 0.372302 -1.84379 0
M  V30 9454 O 914.474 1.2689 -1.29494 0
M  V30 9455 C 914.522 -1.68675 -3.18718 0
M  V30 9456 O 913.626 -0.939202 -4.01563 0
M  V30 9457 H 912.967 -0.376979 -0.546611 0
M  V30 9458 H 915.497 -1.62003 -1.24965 0
M  V30 9459 H 915.507 -1.73324 -3.69354 0
M  V30 9460 H 914.182 -2.73849 -3.13017 0
M  V30 9461 H 912.759 -0.968583 -3.60101 0
M  V30 9462 N 914.944 1.19125 -1.03184 0
M  V30 9463 C 915.907 2.20662 -0.619766 0
M  V30 9464 C 916.907 1.57621 0.318179 0
M  V30 9465 O 918.097 1.73885 0.104783 0
M  V30 9466 C 915.229 3.40774 0.0926696 0
M  V30 9467 H 916.422 2.58633 -1.5182 0
M  V30 9468 H 913.975 1.32855 -0.823364 0
M  V30 9469 H 914.71 3.08324 1.00531 0
M  V30 9470 H 914.495 3.87766 -0.581344 0
M  V30 9471 H 915.985 4.15977 0.367792 0
M  V30 9472 N 916.422 0.810101 1.35185 0
M  V30 9473 C 917.671 0.388589 1.97921 0
M  V30 9474 C 917.984 -1.05079 1.64978 0
M  V30 9475 O 919.19 -1.57559 2.21105 0
M  V30 9476 C 917.646 0.643864 3.54094 0
M  V30 9477 C 917.254 2.09602 3.95943 0
M  V30 9478 C 918.998 0.287883 4.23523 0
M  V30 9479 C 916.905 2.29686 5.44976 0
M  V30 9480 H 915.835 0.141562 0.740592 0
M  V30 9481 H 918.486 0.994653 1.54204 0
M  V30 9482 H 916.868 -0.0321978 3.95987 0
M  V30 9483 H 918.042 2.81018 3.65192 0
M  V30 9484 H 916.357 2.4122 3.39414 0
M  V30 9485 H 918.954 0.415946 5.3308 0
M  V30 9486 H 919.297 -0.766305 4.09186 0
M  V30 9487 H 919.83 0.918004 3.87063 0
M  V30 9488 H 916.569 3.33563 5.64284 0
M  V30 9489 H 916.089 1.62798 5.77284 0
M  V30 9490 H 917.768 2.11411 6.11485 0
M  V30 9491 N 917.9 -1.47166 0.563914 0
M  V30 9492 C 918.85 -2.27116 -0.20055 0
M  V30 9493 C 919.834 -1.34756 -0.879177 0
M  V30 9494 O 921.026 -1.59064 -0.776377 0
M  V30 9495 C 918.155 -3.20676 -1.22565 0
M  V30 9496 C 917.241 -4.20517 -0.550092 0
M  V30 9497 N 917.632 -5.04343 0.383662 0
M  V30 9498 C 915.93 -4.38708 -0.803186 0
M  V30 9499 C 916.631 -5.76491 0.776718 0
M  V30 9500 N 915.607 -5.43444 0.130047 0
M  V30 9501 H 919.409 -2.89312 0.517275 0
M  V30 9502 H 916.923 -1.57787 0.384334 0
M  V30 9503 H 918.92 -3.76643 -1.78733 0
M  V30 9504 H 917.58 -2.60038 -1.94449 0
M  V30 9505 H 918.591 -5.1232 0.758192 0
M  V30 9506 H 915.268 -3.89235 -1.51003 0
M  V30 9507 H 916.658 -6.5391 1.54437 0
M  V30 9508 N 919.378 -0.300708 -1.54705 0
M  V30 9509 C 920.789 0.191995 -1.8571 0
M  V30 9510 C 921.14 1.53447 -1.22264 0
M  V30 9511 O 920.265 2.10054 -0.520226 0
M  V30 9512 C 920.86 0.355148 -3.36933 0
M  V30 9513 C 919.419 0.792071 -3.67972 0
M  V30 9514 C 918.566 -0.099756 -2.77121 0
M  V30 9515 H 921.517 -0.521729 -1.49879 0
M  V30 9516 H 921.538 1.18977 -3.61421 0
M  V30 9517 H 921.05 -0.622075 -3.83082 0
M  V30 9518 H 919.151 1.77986 -3.27341 0
M  V30 9519 H 919.264 0.611661 -4.75179 0
M  V30 9520 H 917.628 0.420909 -2.51198 0
M  V30 9521 H 918.411 -1.07333 -3.2609 0
M  V30 9522 N 920.856 1.57574 -0.0284266 0
M  V30 9523 C 922.104 1.91393 0.649079 0
M  V30 9524 C 922.425 0.905368 1.72708 0
M  V30 9525 O 921.695 -0.0532107 1.95828 0
M  V30 9526 H 920.275 0.70646 0.24274 0
M  V30 9527 H 922.937 1.94752 -0.076066 0
M  V30 9528 H 922.033 2.91988 1.10226 0
M  V30 9529 N 922.334 -0.244713 1.55689 0
M  V30 9530 C 923.264 -1.30667 1.93516 0
M  V30 9531 C 924.245 -1.50094 0.800371 0
M  V30 9532 O 925.43 -1.62665 1.06083 0
M  V30 9533 C 922.56 -2.66101 2.23176 0
M  V30 9534 C 921.514 -2.61366 3.38927 0
M  V30 9535 C 920.84 -4.00616 3.54134 0
M  V30 9536 C 922.14 -2.18161 4.74555 0
M  V30 9537 H 923.834 -0.992546 2.82469 0
M  V30 9538 H 921.38 -0.476018 1.35905 0
M  V30 9539 H 923.333 -3.4053 2.48228 0
M  V30 9540 H 922.057 -2.99154 1.31051 0
M  V30 9541 H 920.716 -1.89395 3.13887 0
M  V30 9542 H 920.364 -4.30938 2.59426 0
M  V30 9543 H 920.064 -3.98335 4.31975 0
M  V30 9544 H 921.588 -4.76741 3.8151 0
M  V30 9545 H 923.002 -2.82323 4.98965 0
M  V30 9546 H 921.399 -2.26988 5.55515 0
M  V30 9547 H 922.469 -1.13333 4.7147 0
M  V30 9548 N 923.813 -1.49104 -0.510467 0
M  V30 9549 C 925.053 -1.59723 -1.27545 0
M  V30 9550 C 925.417 -0.273525 -1.90042 0
M  V30 9551 O 926.618 -0.254835 -2.67589 0
M  V30 9552 C 924.889 -2.71771 -2.3211 0
M  V30 9553 S 926.448 -3.02282 -3.18074 0
M  V30 9554 H 923.266 -0.563489 -0.433591 0
M  V30 9555 H 925.868 -1.86719 -0.579328 0
M  V30 9556 H 924.572 -3.66483 -1.84711 0
M  V30 9557 H 924.103 -2.46739 -3.06404 0
M  V30 9558 H 926.118 -2.43076 -4.32583 0
M  V30 9559 N 925.291 0.760815 -1.38019 0
M  V30 9560 C 926.201 1.90526 -1.36884 0
M  V30 9561 C 927.217 1.71941 -0.266908 0
M  V30 9562 O 928.393 1.94988 -0.50413 0
M  V30 9563 C 925.458 3.25799 -1.18558 0
M  V30 9564 C 924.519 3.56961 -2.3849 0
M  V30 9565 C 923.752 4.8578 -2.21029 0
M  V30 9566 O 923.975 5.57629 -1.20023 0
M  V30 9567 O 922.909 5.16254 -3.0946 0
M  V30 9568 H 926.735 1.94437 -2.33298 0
M  V30 9569 H 924.32 0.905091 -1.18863 0
M  V30 9570 H 926.202 4.0669 -1.1037 0
M  V30 9571 H 924.877 3.22716 -0.252241 0
M  V30 9572 H 923.784 2.7626 -2.52252 0
M  V30 9573 H 925.117 3.64798 -3.30429 0
M  V30 9574 N 926.769 1.22769 0.988202 0
M  V30 9575 C 928.046 0.9635 1.70223 0
M  V30 9576 C 928.426 -0.520102 2.04593 0
M  V30 9577 O 927.774 -1.48934 1.73295 0
M  V30 9578 C 927.984 1.86583 2.94937 0
M  V30 9579 C 929.332 2.12469 3.67616 0
M  V30 9580 O 930.356 1.84069 3.04954 0
M  V30 9581 O 929.215 2.60595 4.80367 0
M  V30 9582 H 926.309 0.362737 0.743203 0
M  V30 9583 H 928.855 1.33776 1.04412 0
M  V30 9584 H 927.627 2.86913 2.66077 0
M  V30 9585 H 927.25 1.49344 3.68486 0
M  V30 9586 N 928.247 -1.18576 1.03814 0
M  V30 9587 C 929.177 -2.24334 0.647795 0
M  V30 9588 C 930.158 -1.66508 -0.34774 0
M  V30 9589 O 931.343 -1.92852 -0.228401 0
M  V30 9590 C 928.473 -3.47299 0.00734922 0
M  V30 9591 C 927.427 -4.17859 0.926152 0
M  V30 9592 C 926.753 -5.34489 0.150317 0
M  V30 9593 C 928.053 -4.71632 2.24411 0
M  V30 9594 H 929.747 -2.57241 1.53191 0
M  V30 9595 H 927.293 -1.23649 0.738028 0
M  V30 9596 H 929.246 -4.20486 -0.277434 0
M  V30 9597 H 927.97 -3.13619 -0.911626 0
M  V30 9598 H 926.629 -3.46567 1.19528 0
M  V30 9599 H 926.277 -4.97056 -0.770985 0
M  V30 9600 H 925.977 -5.82633 0.762407 0
M  V30 9601 H 927.501 -6.10467 -0.127508 0
M  V30 9602 H 928.915 -5.36526 2.02021 0
M  V30 9603 H 927.312 -5.303 2.80894 0
M  V30 9604 H 928.382 -3.89192 2.89236 0
M  V30 9605 N 929.725 -0.817259 -1.34754 0
M  V30 9606 C 931.141 -0.502309 -1.51489 0
M  V30 9607 C 931.341 0.974568 -1.76364 0
M  V30 9608 O 930.397 1.75924 -1.81127 0
M  V30 9609 C 931.71 -1.35693 -2.68343 0
M  V30 9610 C 933.258 -1.35347 -2.82224 0
M  V30 9611 C 933.733 -2.19244 -4.02114 0
M  V30 9612 N 935.224 -2.16837 -4.09311 0
M  V30 9613 C 935.959 -2.78505 -5.01221 0
M  V30 9614 N 935.455 -3.4914 -5.98392 0
M  V30 9615 N 937.248 -2.68089 -4.94049 0
M  V30 9616 H 929.399 -1.77359 -1.16866 0
M  V30 9617 H 931.662 -0.755476 -0.572678 0
M  V30 9618 H 931.368 -2.40548 -2.56573 0
M  V30 9619 H 931.242 -1.01764 -3.63213 0
M  V30 9620 H 933.629 -0.312727 -2.93438 0
M  V30 9621 H 933.71 -1.7327 -1.88179 0
M  V30 9622 H 933.354 -3.23365 -3.9166 0
M  V30 9623 H 933.284 -1.78675 -4.95361 0
M  V30 9624 H 935.775 -1.65452 -3.39756 0
M  V30 9625 H 936.088 -3.93455 -6.65141 0
M  V30 9626 H 934.433 -3.53246 -5.98533 0
M  V30 9627 H 937.624 -2.12485 -4.17094 0
M  V30 9628 H 937.797 -3.16436 -5.65484 0
M  V30 9629 N 931.203 1.46865 -0.571711 0
M  V30 9630 C 932.428 2.07323 -0.0564655 0
M  V30 9631 C 932.853 1.41938 1.23431 0
M  V30 9632 O 932.211 0.499334 1.74288 0
M  V30 9633 C 932.259 3.6044 0.107339 0
M  V30 9634 O 931.363 3.95558 1.1665 0
M  V30 9635 H 930.704 0.661475 -0.0578465 0
M  V30 9636 H 933.234 1.88669 -0.791524 0
M  V30 9637 H 933.244 4.06767 0.316987 0
M  V30 9638 H 931.919 4.07425 -0.835348 0
M  V30 9639 H 930.496 3.60957 0.936189 0
M  V30 9640 N 932.681 0.308908 1.54543 0
M  V30 9641 C 933.921 -0.298811 2.02204 0
M  V30 9642 C 934.285 -1.50484 1.19242 0
M  V30 9643 O 935.486 -2.18445 1.56637 0
M  V30 9644 C 933.757 -0.638849 3.51644 0
M  V30 9645 S 935.316 -1.22831 4.21258 0
M  V30 9646 H 932.134 -0.0912638 0.705118 0
M  V30 9647 H 934.736 0.438622 1.90516 0
M  V30 9648 H 933.44 0.24726 4.09654 0
M  V30 9649 H 932.971 -1.40687 3.67384 0
M  V30 9650 H 934.986 -2.51579 4.27694 0
M  V30 9651 N 934.159 -1.57557 0.0367827 0
M  V30 9652 C 935.405 -1.92399 -0.641133 0
M  V30 9653 C 935.738 -0.914191 -1.71336 0
M  V30 9654 O 935.013 0.0619616 -1.94401 0
M  V30 9655 C 935.296 -3.37689 -1.25052 0
M  V30 9656 C 935.149 -4.4941 -0.187326 0
M  V30 9657 C 936.468 -3.8309 -2.16634 0
M  V30 9658 H 933.587 -0.699666 -0.231597 0
M  V30 9659 H 936.229 -1.89759 0.0956083 0
M  V30 9660 H 934.379 -3.40069 -1.87843 0
M  V30 9661 H 936.051 -4.59161 0.443736 0
M  V30 9662 H 934.294 -4.31065 0.486313 0
M  V30 9663 H 934.965 -5.48119 -0.653459 0
M  V30 9664 H 937.441 -3.82494 -1.63821 0
M  V30 9665 H 936.317 -4.85429 -2.56222 0
M  V30 9666 H 936.578 -3.19028 -3.06062 0
M  V30 9667 N 935.637 0.236453 -1.55816 0
M  V30 9668 C 936.569 1.31602 -1.87653 0
M  V30 9669 C 937.582 1.43782 -0.763584 0
M  V30 9670 O 938.771 1.44945 -1.04178 0
M  V30 9671 C 935.871 2.69342 -2.05689 0
M  V30 9672 C 935.044 2.79298 -3.36617 0
M  V30 9673 C 934.103 3.97952 -3.44268 0
M  V30 9674 O 933.129 3.86989 -4.17406 0
M  V30 9675 N 934.331 5.11594 -2.74321 0
M  V30 9676 H 937.096 1.04623 -2.80845 0
M  V30 9677 H 934.657 0.426534 -1.5618 0
M  V30 9678 H 936.649 3.47074 -2.08138 0
M  V30 9679 H 935.219 2.88984 -1.19192 0
M  V30 9680 H 934.439 1.8816 -3.46395 0
M  V30 9681 H 935.727 2.82908 -4.22895 0
M  V30 9682 H 935.125 5.23394 -2.14651 0
M  V30 9683 H 933.682 5.87422 -2.8245 0
M  V30 9684 N 937.115 1.49373 0.502552 0
M  V30 9685 C 938.355 1.60398 1.26696 0
M  V30 9686 C 938.719 0.283599 1.89894 0
M  V30 9687 O 939.92 0.269022 2.6745 0
M  V30 9688 C 938.191 2.72998 2.30666 0
M  V30 9689 S 939.75 3.03964 3.16466 0
M  V30 9690 H 936.568 0.565781 0.430596 0
M  V30 9691 H 939.17 1.87024 0.569418 0
M  V30 9692 H 937.874 3.67458 1.82765 0
M  V30 9693 H 937.405 2.4836 3.05091 0
M  V30 9694 H 939.42 2.45367 4.31288 0
M  V30 9695 N 938.594 -0.753485 1.38421 0
M  V30 9696 C 939.526 -1.87692 1.31547 0
M  V30 9697 C 940.539 -1.612 0.227671 0
M  V30 9698 O 941.728 -1.71778 0.485238 0
M  V30 9699 C 938.828 -3.23329 1.01545 0
M  V30 9700 C 938.001 -3.77324 2.21236 0
M  V30 9701 C 937.06 -4.91478 1.87977 0
M  V30 9702 O 936.086 -5.06106 2.60472 0
M  V30 9703 N 937.288 -5.74466 0.834796 0
M  V30 9704 H 940.053 -1.94099 2.28354 0
M  V30 9705 H 937.614 -0.933421 1.32283 0
M  V30 9706 H 939.606 -3.9724 0.773477 0
M  V30 9707 H 938.176 -3.12307 0.135334 0
M  V30 9708 H 937.396 -2.94978 2.61498 0
M  V30 9709 H 938.684 -4.10131 3.01115 0
M  V30 9710 H 938.082 -5.65217 0.233606 0
M  V30 9711 H 936.639 -6.48524 0.652703 0
M  V30 9712 N 940.072 -1.23292 -0.981677 0
M  V30 9713 C 941.035 -1.01417 -2.05542 0
M  V30 9714 C 942.035 0.0235354 -1.60783 0
M  V30 9715 O 943.225 -0.216082 -1.72855 0
M  V30 9716 C 940.357 -0.534239 -3.36688 0
M  V30 9717 H 941.55 -1.96702 -2.26381 0
M  V30 9718 H 939.103 -1.05318 -1.1549 0
M  V30 9719 H 939.838 0.422452 -3.21537 0
M  V30 9720 H 939.623 -1.28304 -3.70514 0
M  V30 9721 H 941.113 -0.40179 -4.15663 0
M  V30 9722 N 941.55 1.18024 -1.04442 0
M  V30 9723 C 942.796 1.88631 -0.760907 0
M  V30 9724 C 943.151 1.79059 0.703957 0
M  V30 9725 O 942.444 1.18261 1.50748 0
M  V30 9726 C 942.638 3.37834 -1.16631 0
M  V30 9727 C 942.467 3.61929 -2.66904 0
M  V30 9728 C 941.237 3.7908 -3.34105 0
M  V30 9729 C 943.435 3.622 -3.65124 0
M  V30 9730 N 941.417 3.90949 -4.73321 0
M  V30 9731 C 942.788 3.79827 -4.90032 0
M  V30 9732 C 944.843 3.45308 -3.58701 0
M  V30 9733 C 943.546 3.82312 -6.09287 0
M  V30 9734 C 945.572 3.49078 -4.77387 0
M  V30 9735 C 944.934 3.67206 -6.01115 0
M  V30 9736 H 941.033 0.708704 -0.330549 0
M  V30 9737 H 943.617 1.41739 -1.33485 0
M  V30 9738 H 941.788 3.83413 -0.6204 0
M  V30 9739 H 943.52 3.96026 -0.83342 0
M  V30 9740 H 940.275 3.78619 -2.84508 0
M  V30 9741 H 940.699 4.00696 -5.45685 0
M  V30 9742 H 945.341 3.30236 -2.64015 0
M  V30 9743 H 943.059 3.96171 -7.04325 0
M  V30 9744 H 946.645 3.37277 -4.74063 0
M  V30 9745 H 945.525 3.70017 -6.91417 0
M  V30 9746 N 943.028 0.824394 1.34319 0
M  V30 9747 C 944.276 0.41235 1.97849 0
M  V30 9748 C 944.597 -1.02841 1.65677 0
M  V30 9749 O 943.867 -1.71421 0.948245 0
M  V30 9750 H 942.447 0.149486 0.73189 0
M  V30 9751 H 945.109 1.05416 1.63931 0
M  V30 9752 H 944.205 0.532557 3.07523 0
M  V30 9753 N 944.506 -1.46559 0.579492 0
M  V30 9754 C 945.734 -2.06784 0.0693648 0
M  V30 9755 C 946.149 -1.42875 -1.23419 0
M  V30 9756 O 945.506 -0.532919 -1.74546 0
M  V30 9757 C 945.557 -3.61343 -0.106511 0
M  V30 9758 O 945.278 -4.22861 1.14545 0
M  V30 9759 C 946.779 -4.38489 -0.651359 0
M  V30 9760 H 943.999 -0.66866 0.0559848 0
M  V30 9761 H 946.543 -1.88235 0.799245 0
M  V30 9762 H 944.698 -3.7933 -0.786601 0
M  V30 9763 H 945.112 -5.15691 0.95723 0
M  V30 9764 H 946.586 -5.47237 -0.723615 0
M  V30 9765 H 947.063 -4.06309 -1.66763 0
M  V30 9766 H 947.669 -4.253 -0.0062433 0
M  V30 9767 N 945.984 -0.3171 -1.54377 0
M  V30 9768 C 947.232 0.286842 -2.00054 0
M  V30 9769 C 947.553 1.53161 -1.20692 0
M  V30 9770 O 946.823 1.93479 -0.307045 0
M  V30 9771 H 945.403 0.108979 -0.739008 0
M  V30 9772 H 948.065 -0.432152 -1.90049 0
M  V30 9773 H 947.161 0.547729 -3.07256 0
M  V30 9774 N 947.462 1.57535 -0.0451378 0
M  V30 9775 C 948.372 2.14653 0.946646 0
M  V30 9776 C 949.388 1.10279 1.3459 0
M  V30 9777 O 950.564 1.42417 1.42405 0
M  V30 9778 C 947.629 2.67533 2.20515 0
M  V30 9779 C 946.69 3.86682 1.86481 0
M  V30 9780 C 945.923 4.37031 3.06332 0
M  V30 9781 O 946.146 3.86481 4.1951 0
M  V30 9782 O 945.08 5.28691 2.87697 0
M  V30 9783 H 948.906 2.99706 0.49091 0
M  V30 9784 H 946.491 1.48355 0.17641 0
M  V30 9785 H 948.373 3.01542 2.94365 0
M  V30 9786 H 947.048 1.85554 2.65238 0
M  V30 9787 H 945.955 3.57573 1.09966 0
M  V30 9788 H 947.288 4.69873 1.46562 0
M  V30 9789 N 948.94 -0.228186 1.55939 0
M  V30 9790 C 949.887 -1.28274 1.91871 0
M  V30 9791 C 950.857 -1.46906 0.775103 0
M  V30 9792 O 952.042 -1.60583 1.03042 0
M  V30 9793 C 949.182 -2.62945 2.23504 0
M  V30 9794 C 948.295 -2.52166 3.50766 0
M  V30 9795 C 947.43 -3.79316 3.71878 0
M  V30 9796 C 946.469 -3.63231 4.92676 0
M  V30 9797 N 945.606 -4.82315 5.10212 0
M  V30 9798 H 950.446 -0.96931 2.81795 0
M  V30 9799 H 947.983 -0.467331 1.39479 0
M  V30 9800 H 949.941 -3.41359 2.39854 0
M  V30 9801 H 948.571 -2.92397 1.36762 0
M  V30 9802 H 947.623 -1.65221 3.42646 0
M  V30 9803 H 948.935 -2.36199 4.39331 0
M  V30 9804 H 948.089 -4.66173 3.88288 0
M  V30 9805 H 946.828 -3.982 2.81581 0
M  V30 9806 H 945.833 -2.74757 4.76223 0
M  V30 9807 H 947.058 -3.45823 5.84451 0
M  V30 9808 H 945.004 -5.01526 4.22856 0
M  V30 9809 H 944.921 -4.6905 5.92898 0
M  V30 9810 H 946.189 -5.70618 5.31051 0
M  V30 9811 N 950.418 -1.49637 -0.494624 0
M  V30 9812 C 951.365 -1.66776 -1.59545 0
M  V30 9813 C 952.335 -0.509159 -1.58104 0
M  V30 9814 O 953.52 -0.736949 -1.75993 0
M  V30 9815 C 950.66 -1.74624 -2.97658 0
M  V30 9816 C 949.773 -3.01831 -3.09067 0
M  V30 9817 C 948.908 -3.00619 -4.37952 0
M  V30 9818 C 947.947 -4.22378 -4.43016 0
M  V30 9819 N 947.084 -4.1904 -5.63339 0
M  V30 9820 H 951.924 -2.60767 -1.44238 0
M  V30 9821 H 949.461 -1.29286 -0.701673 0
M  V30 9822 H 951.419 -1.77156 -3.77719 0
M  V30 9823 H 950.049 -0.840936 -3.11654 0
M  V30 9824 H 949.101 -3.08881 -2.22029 0
M  V30 9825 H 950.413 -3.91823 -3.08669 0
M  V30 9826 H 949.567 -3.01749 -5.26339 0
M  V30 9827 H 948.306 -2.08416 -4.40924 0
M  V30 9828 H 947.311 -4.21485 -3.5303 0
M  V30 9829 H 948.536 -5.15781 -4.41755 0
M  V30 9830 H 946.482 -3.29677 -5.67141 0
M  V30 9831 H 946.399 -5.02774 -5.64583 0
M  V30 9832 H 947.667 -4.24281 -6.53916 0
M  V30 9833 N 951.896 0.746133 -1.38819 0
M  V30 9834 C 953.144 1.50247 -1.35167 0
M  V30 9835 C 953.465 1.94921 0.0553531 0
M  V30 9836 O 952.735 1.68187 1.00449 0
M  V30 9837 H 951.315 0.557337 -0.497377 0
M  V30 9838 H 953.977 0.886472 -1.73573 0
M  V30 9839 H 953.073 2.38986 -2.00728 0
M  V30 9840 N 953.375 1.23811 0.975125 0
M  V30 9841 C 954.791 1.0019 1.24234 0
M  V30 9842 C 954.991 -0.293811 1.99346 0
M  V30 9843 O 954.047 -1.01189 2.31337 0
M  V30 9844 C 955.36 2.21218 2.03674 0
M  V30 9845 C 956.908 2.25764 2.16793 0
M  V30 9846 C 957.383 3.46394 2.99626 0
M  V30 9847 N 958.874 3.46665 3.07209 0
M  V30 9848 C 959.609 4.3666 3.71639 0
M  V30 9849 N 959.105 5.36899 4.37849 0
M  V30 9850 N 960.898 4.2439 3.68578 0
M  V30 9851 H 953.049 2.07087 0.472076 0
M  V30 9852 H 955.312 0.90838 0.271201 0
M  V30 9853 H 955.018 3.15277 1.55862 0
M  V30 9854 H 954.892 2.22733 3.04417 0
M  V30 9855 H 957.279 1.32242 2.63811 0
M  V30 9856 H 957.36 2.28279 1.15422 0
M  V30 9857 H 957.004 4.40227 2.53304 0
M  V30 9858 H 956.934 3.41121 4.01178 0
M  V30 9859 H 959.425 2.74142 2.60105 0
M  V30 9860 H 959.738 6.01816 4.84807 0
M  V30 9861 H 958.083 5.40793 4.36541 0
M  V30 9862 H 961.274 3.4532 3.16025 0
M  V30 9863 H 961.447 4.94727 4.18508 0
M  V30 9864 N 954.853 -1.17469 1.05066 0
M  V30 9865 C 956.081 -1.9162 0.780334 0
M  V30 9866 C 956.496 -1.76745 -0.663817 0
M  V30 9867 O 955.853 -1.10377 -1.45338 0
M  V30 9868 C 955.904 -3.42723 1.14992 0
M  V30 9869 O 955.625 -3.57139 2.53739 0
M  V30 9870 C 957.126 -4.33952 0.905549 0
M  V30 9871 H 954.346 -0.608022 0.283814 0
M  V30 9872 H 956.89 -1.4897 1.401 0
M  V30 9873 H 955.045 -3.83124 0.57403 0
M  V30 9874 H 955.459 -4.5075 2.68189 0
M  V30 9875 H 956.933 -5.38487 1.21391 0
M  V30 9876 H 957.41 -4.38911 -0.159295 0
M  V30 9877 H 958.016 -3.99263 1.46522 0
M  V30 9878 N 956.331 -0.831506 -1.3388 0
M  V30 9879 C 957.571 -0.429648 -1.99833 0
M  V30 9880 C 957.935 0.990796 -1.6446 0
M  V30 9881 O 959.136 1.49599 -2.23324 0
M  V30 9882 C 957.407 -0.635558 -3.51704 0
M  V30 9883 S 958.966 -0.327824 -4.37574 0
M  V30 9884 H 955.784 -0.161939 -0.692313 0
M  V30 9885 H 958.386 -1.07919 -1.63015 0
M  V30 9886 H 957.09 -1.66887 -3.74936 0
M  V30 9887 H 956.621 0.0284073 -3.9339 0
M  V30 9888 H 958.636 0.855231 -4.88774 0
M  V30 9889 N 957.809 1.4625 -0.587256 0
M  V30 9890 C 958.719 2.34147 0.145744 0
M  V30 9891 C 959.735 1.50026 0.881376 0
M  V30 9892 O 960.911 1.82884 0.843539 0
M  V30 9893 C 957.976 3.27294 1.14366 0
M  V30 9894 C 957.037 4.27317 0.412199 0
M  V30 9895 C 956.27 5.16013 1.36257 0
M  V30 9896 O 956.493 5.0773 2.59934 0
M  V30 9897 O 955.427 5.95569 0.870681 0
M  V30 9898 H 959.253 2.98187 -0.576055 0
M  V30 9899 H 956.838 1.45299 -0.347628 0
M  V30 9900 H 958.72 3.84747 1.71894 0
M  V30 9901 H 957.395 2.65845 1.84684 0
M  V30 9902 H 956.302 3.73538 -0.205036 0
M  V30 9903 H 957.635 4.91564 -0.250104 0
M  V30 9904 N 959.287 0.325282 1.54207 0
M  V30 9905 C 960.197 -0.548778 2.28091 0
M  V30 9906 C 961.213 -1.12772 1.32508 0
M  V30 9907 O 962.389 -1.14732 1.65525 0
M  V30 9908 C 959.454 -1.69284 3.02562 0
M  V30 9909 C 958.515 -1.14553 4.13734 0
M  V30 9910 C 957.748 -2.23506 4.84645 0
M  V30 9911 O 957.971 -3.43884 4.55082 0
M  V30 9912 O 956.905 -1.88828 5.71513 0
M  V30 9913 H 960.731 0.0512974 3.03657 0
M  V30 9914 H 958.316 0.0909159 1.49123 0
M  V30 9915 H 960.198 -2.35887 3.49192 0
M  V30 9916 H 958.873 -2.27906 2.2987 0
M  V30 9917 H 957.78 -0.444532 3.71449 0
M  V30 9918 H 959.113 -0.60441 4.88475 0
M  V30 9919 N 960.765 -1.57509 0.0534917 0
M  V30 9920 C 962.005 -1.94654 -0.623641 0
M  V30 9921 C 962.369 -0.93184 -1.67871 0
M  V30 9922 O 963.57 -1.19031 -2.41009 0
M  V30 9923 C 961.841 -3.36575 -1.20216 0
M  V30 9924 S 963.4 -3.95677 -1.89697 0
M  V30 9925 H 960.218 -0.680893 -0.20471 0
M  V30 9926 H 962.82 -1.95113 0.122982 0
M  V30 9927 H 961.524 -4.08223 -0.422177 0
M  V30 9928 H 961.055 -3.39617 -1.98555 0
M  V30 9929 H 963.07 -3.81092 -3.17779 0
M  V30 9930 N 962.243 0.219913 -1.56058 0
M  V30 9931 C 963.191 1.29215 -1.93407 0
M  V30 9932 C 964.185 1.48434 -0.816307 0
M  V30 9933 O 965.391 1.49589 -1.00115 0
M  V30 9934 H 961.766 0.433256 -0.614649 0
M  V30 9935 H 963.737 0.949977 -2.82875 0
M  V30 9936 C 962.486 2.63501 -2.26854 0
M  V30 9937 H 961.809 2.4952 -3.12377 0
M  V30 9938 H 963.249 3.37334 -2.56869 0
M  V30 9939 C 961.708 3.18634 -1.09425 0
M  V30 9940 O 962.238 4.00117 -0.356243 0
M  V30 9941 N 960.444 2.7703 -0.877642 0
M  V30 9942 H 959.991 2.10875 -1.47951 0
M  V30 9943 H 959.949 3.1426 -0.0936792 0
M  V30 9944 N 963.721 1.49897 0.486681 0
M  V30 9945 C 964.968 1.60105 1.23986 0
M  V30 9946 C 965.296 0.294228 1.92262 0
M  V30 9947 O 964.551 -0.718876 1.82018 0
M  V30 9948 C 964.85 2.71982 2.31863 0
M  V30 9949 C 964.516 4.13 1.80948 0
M  V30 9950 C 963.178 4.51373 1.66782 0
M  V30 9951 C 965.53 5.01198 1.43004 0
M  V30 9952 C 962.858 5.75701 1.13072 0
M  V30 9953 C 965.21 6.26058 0.90742 0
M  V30 9954 C 963.874 6.63247 0.752269 0
M  V30 9955 H 963.144 0.585866 0.453698 0
M  V30 9956 H 965.791 1.83778 0.538305 0
M  V30 9957 H 964.096 2.42336 3.07865 0
M  V30 9958 H 965.793 2.77087 2.89869 0
M  V30 9959 H 962.383 3.82718 1.92937 0
M  V30 9960 H 966.567 4.72196 1.52789 0
M  V30 9961 H 961.823 6.03202 0.997842 0
M  V30 9962 H 965.997 6.9377 0.604684 0
M  V30 9963 H 963.624 7.59466 0.33392 0
M  V30 9964 N 965.199 -0.738761 1.39212 0
M  V30 9965 C 966.146 -1.85273 1.37631 0
M  V30 9966 C 967.116 -1.64407 0.236572 0
M  V30 9967 O 968.301 -1.85866 0.431104 0
M  V30 9968 C 965.441 -3.22745 1.22188 0
M  V30 9969 C 964.554 -3.55342 2.45674 0
M  V30 9970 C 963.689 -4.82195 2.22847 0
M  V30 9971 C 962.728 -5.07625 3.42029 0
M  V30 9972 N 961.865 -6.25679 3.18543 0
M  V30 9973 H 966.705 -1.85959 2.32859 0
M  V30 9974 H 964.242 -0.908716 1.15675 0
M  V30 9975 H 966.2 -4.02095 1.11245 0
M  V30 9976 H 964.83 -3.21347 0.30592 0
M  V30 9977 H 963.882 -2.70722 2.67233 0
M  V30 9978 H 965.194 -3.70054 3.34457 0
M  V30 9979 H 964.348 -5.69518 2.09126 0
M  V30 9980 H 963.087 -4.6965 1.31454 0
M  V30 9981 H 962.092 -4.18765 3.56253 0
M  V30 9982 H 963.317 -5.22058 4.34319 0
M  V30 9983 H 961.263 -6.14429 2.2981 0
M  V30 9984 H 961.18 -6.40961 4.0088 0
M  V30 9985 H 962.448 -7.15851 3.08508 0
M  V30 9986 N 966.677 -1.24326 -0.968545 0
M  V30 9987 C 967.923 -1.08406 -1.71394 0
M  V30 9988 C 968.256 0.376353 -1.90518 0
M  V30 9989 O 967.531 1.27816 -1.46606 0
M  V30 9990 C 967.814 -1.82344 -3.1052 0
M  V30 9991 C 967.667 -3.3613 -2.98893 0
M  V30 9992 C 968.986 -1.59545 -4.10163 0
M  V30 9993 H 966.105 -0.395205 -0.622079 0
M  V30 9994 H 968.747 -1.52983 -1.12677 0
M  V30 9995 H 966.897 -1.44452 -3.60646 0
M  V30 9996 H 968.569 -3.83614 -2.56199 0
M  V30 9997 H 966.812 -3.64553 -2.35124 0
M  V30 9998 H 967.483 -3.83064 -3.97449 0
M  V30 9999 H 969.959 -1.92504 -3.68892 0
M  V30 10000 H 968.835 -2.13736 -5.05577 0
M  V30 10001 H 969.096 -0.533503 -4.38869 0
M  V30 10002 N 968.156 1.1691 -1.05688 0
M  V30 10003 C 969.103 2.21095 -0.662246 0
M  V30 10004 C 970.073 1.62623 0.338083 0
M  V30 10005 O 971.258 1.89428 0.228362 0
M  V30 10006 C 968.398 3.45066 -0.0484018 0
M  V30 10007 C 967.511 4.17809 -1.09817 0
M  V30 10008 C 966.646 5.29281 -0.451114 0
M  V30 10009 C 965.685 5.93817 -1.48484 0
M  V30 10010 N 964.822 6.96793 -0.861588 0
M  V30 10011 H 969.662 2.54204 -1.55513 0
M  V30 10012 H 967.199 1.24863 -0.777665 0
M  V30 10013 H 969.157 4.15932 0.324978 0
M  V30 10014 H 967.787 3.12526 0.807918 0
M  V30 10015 H 966.839 3.45608 -1.58932 0
M  V30 10016 H 968.151 4.61907 -1.88265 0
M  V30 10017 H 967.305 6.06695 -0.0244251 0
M  V30 10018 H 966.044 4.8633 0.365306 0
M  V30 10019 H 965.049 5.1513 -1.92149 0
M  V30 10020 H 966.274 6.38848 -2.30325 0
M  V30 10021 H 964.22 6.55967 -0.0657688 0
M  V30 10022 H 964.137 7.39229 -1.58354 0
M  V30 10023 H 965.405 7.78142 -0.45984 0
M  V30 10024 N 969.634 0.838594 1.33437 0
M  V30 10025 C 970.567 0.216651 2.27169 0
M  V30 10026 C 971.545 -0.636065 1.49643 0
M  V30 10027 O 972.729 -0.596388 1.78817 0
M  V30 10028 C 969.856 -0.69584 3.31475 0
M  V30 10029 C 968.902 0.0813808 4.26422 0
M  V30 10030 S 969.735 1.43909 5.15801 0
M  V30 10031 C 970.891 0.531887 6.23636 0
M  V30 10032 H 971.124 1.01128 2.79572 0
M  V30 10033 H 968.657 0.635332 1.40723 0
M  V30 10034 H 970.615 -1.21671 3.92054 0
M  V30 10035 H 969.276 -1.46413 2.77888 0
M  V30 10036 H 968.469 -0.612944 5.00259 0
M  V30 10037 H 968.071 0.533304 3.70178 0
M  V30 10038 H 970.363 -0.270371 6.7696 0
M  V30 10039 H 971.306 1.24041 6.97151 0
M  V30 10040 H 971.714 0.113357 5.64386 0
M  V30 10041 N 971.112 -1.45937 0.595003 0
M  V30 10042 C 972.358 -2.0262 0.0854317 0
M  V30 10043 C 972.691 -1.46402 -1.27594 0
M  V30 10044 O 971.966 -0.633823 -1.83883 0
M  V30 10045 C 972.249 -3.60085 0.0329075 0
M  V30 10046 C 972.102 -4.26663 1.42405 0
M  V30 10047 C 973.421 -4.35101 -0.661426 0
M  V30 10048 H 970.54 -0.736282 0.0325196 0
M  V30 10049 H 973.182 -1.73938 0.764563 0
M  V30 10050 H 971.332 -3.84652 -0.545439 0
M  V30 10051 H 973.004 -4.13321 2.04851 0
M  V30 10052 H 971.247 -3.85549 1.98833 0
M  V30 10053 H 971.918 -5.35497 1.33965 0
M  V30 10054 H 974.394 -4.15753 -0.169977 0
M  V30 10055 H 973.27 -5.44829 -0.667243 0
M  V30 10056 H 973.531 -4.07053 -1.72513 0
M  V30 10057 N 972.59 -0.333456 -1.54032 0
M  V30 10058 C 973.867 0.320902 -1.9295 0
M  V30 10059 C 974.247 1.69071 -1.26405 0
M  V30 10060 O 973.595 2.24768 -0.411311 0
M  V30 10061 C 973.805 0.403257 -3.46662 0
M  V30 10062 C 975.153 0.658875 -4.19457 0
M  V30 10063 O 976.177 0.485781 -3.52872 0
M  V30 10064 O 975.036 0.993475 -5.37394 0
M  V30 10065 H 972.13 0.185158 -0.806006 0
M  V30 10066 H 974.676 -0.383895 -1.65301 0
M  V30 10067 H 973.448 -0.558409 -3.87295 0
M  V30 10068 H 973.071 1.15524 -3.80447 0
M  V30 10069 N 974.068 1.57479 -0.061844 0
M  V30 10070 C 974.978 2.15645 0.923826 0
M  V30 10071 C 975.994 1.117 1.33413 0
M  V30 10072 O 977.17 1.4392 1.40887 0
M  V30 10073 C 974.235 2.69857 2.17665 0
M  V30 10074 C 973.296 3.88638 1.8237 0
M  V30 10075 C 972.529 4.40256 3.01679 0
M  V30 10076 O 972.752 3.90908 4.15388 0
M  V30 10077 O 971.686 5.31713 2.82073 0
M  V30 10078 H 975.512 3.0021 0.459094 0
M  V30 10079 H 973.097 1.48534 0.160665 0
M  V30 10080 H 974.979 3.04647 2.9115 0
M  V30 10081 H 973.654 1.88357 2.63255 0
M  V30 10082 H 972.561 3.58719 1.06167 0
M  V30 10083 H 973.894 4.71401 1.4157 0
M  V30 10084 N 975.546 -0.211634 1.56173 0
M  V30 10085 C 976.476 -1.26533 1.96244 0
M  V30 10086 C 977.457 -1.48362 0.832028 0
M  V30 10087 O 978.642 -1.60378 1.0951 0
M  V30 10088 C 975.772 -2.61307 2.2877 0
M  V30 10089 C 974.726 -2.54119 3.44395 0
M  V30 10090 C 974.052 -3.93014 3.62552 0
M  V30 10091 C 975.352 -2.08046 4.79076 0
M  V30 10092 H 977.046 -0.932407 2.84511 0
M  V30 10093 H 974.592 -0.447084 1.36884 0
M  V30 10094 H 976.545 -3.35188 2.55396 0
M  V30 10095 H 975.269 -2.96307 1.37367 0
M  V30 10096 H 973.928 -1.82694 3.17834 0
M  V30 10097 H 973.576 -4.25338 2.68508 0
M  V30 10098 H 973.276 -3.89083 4.40327 0
M  V30 10099 H 974.8 -4.68542 3.91537 0
M  V30 10100 H 976.214 -2.71676 5.04842 0
M  V30 10101 H 974.611 -2.15154 5.60204 0
M  V30 10102 H 975.681 -1.03306 4.73768 0
M  V30 10103 N 977.024 -1.50153 -0.478725 0
M  V30 10104 C 977.971 -1.68458 -1.57767 0
M  V30 10105 C 978.941 -0.5259 -1.57555 0
M  V30 10106 O 980.126 -0.755574 -1.75202 0
M  V30 10107 C 977.266 -1.77772 -2.95789 0
M  V30 10108 C 976.379 -3.05092 -3.05848 0
M  V30 10109 C 975.514 -3.05247 -4.34739 0
M  V30 10110 C 974.553 -4.27053 -4.38512 0
M  V30 10111 N 973.69 -4.24991 -5.58862 0
M  V30 10112 H 978.53 -2.62282 -1.41464 0
M  V30 10113 H 976.067 -1.30023 -0.687921 0
M  V30 10114 H 978.025 -1.81152 -3.75819 0
M  V30 10115 H 976.655 -0.873944 -3.10744 0
M  V30 10116 H 975.707 -3.11219 -2.1874 0
M  V30 10117 H 977.019 -3.95075 -3.04495 0
M  V30 10118 H 976.173 -3.07314 -5.23109 0
M  V30 10119 H 974.912 -2.13081 -4.38689 0
M  V30 10120 H 973.917 -4.25206 -3.4854 0
M  V30 10121 H 975.142 -5.20437 -4.36259 0
M  V30 10122 H 973.088 -3.35674 -5.63612 0
M  V30 10123 H 973.005 -5.08734 -5.59219 0
M  V30 10124 H 974.273 -4.31193 -6.49379 0
M  V30 10125 N 978.502 0.731368 -1.39602 0
M  V30 10126 C 979.918 1.03739 -1.21286 0
M  V30 10127 C 980.118 2.01353 -0.0769875 0
M  V30 10128 O 979.174 2.45978 0.570193 0
M  V30 10129 C 980.487 1.59621 -2.54837 0
M  V30 10130 C 982.035 1.71683 -2.61713 0
M  V30 10131 C 982.51 2.30973 -3.95494 0
M  V30 10132 N 984.001 2.38378 -3.97153 0
M  V30 10133 C 984.736 2.852 -4.97442 0
M  V30 10134 N 984.232 3.31891 -6.08129 0
M  V30 10135 N 986.025 2.84441 -4.84819 0
M  V30 10136 H 978.176 0.0840456 -2.12234 0
M  V30 10137 H 980.439 0.0999038 -0.942721 0
M  V30 10138 H 980.145 0.953608 -3.38525 0
M  V30 10139 H 980.019 2.58375 -2.74813 0
M  V30 10140 H 982.406 2.35064 -1.78406 0
M  V30 10141 H 982.487 0.715714 -2.45583 0
M  V30 10142 H 982.131 1.68219 -4.79234 0
M  V30 10143 H 982.061 3.31769 -4.08946 0
M  V30 10144 H 984.552 2.05382 -3.17217 0
M  V30 10145 H 984.865 3.66138 -6.8056 0
M  V30 10146 H 983.21 3.2989 -6.11717 0
M  V30 10147 H 986.401 2.4729 -3.97448 0
M  V30 10148 H 986.574 3.20616 -5.63124 0
M  V30 10149 N 979.98 1.24838 0.961938 0
M  V30 10150 C 980.943 1.04674 2.03902 0
M  V30 10151 C 981.943 0.00204674 1.608 0
M  V30 10152 O 983.133 0.243555 1.72489 0
M  V30 10153 C 980.265 0.587736 3.35795 0
M  V30 10154 H 981.458 2.00278 2.23223 0
M  V30 10155 H 979.011 1.07142 1.138 0
M  V30 10156 H 979.746 -0.371244 3.22168 0
M  V30 10157 H 979.531 1.34182 3.68426 0
M  V30 10158 H 981.021 0.467867 4.14971 0
M  V30 10159 N 981.458 -1.16348 1.06306 0
M  V30 10160 C 982.368 -2.24375 0.685059 0
M  V30 10161 C 983.384 -1.71413 -0.298956 0
M  V30 10162 O 984.56 -2.00854 -0.148239 0
M  V30 10163 C 981.625 -3.46614 0.0774088 0
M  V30 10164 C 980.686 -4.14613 1.11331 0
M  V30 10165 C 979.919 -5.31016 0.534559 0
M  V30 10166 O 980.142 -5.66654 -0.65265 0
M  V30 10167 O 979.076 -5.88256 1.27431 0
M  V30 10168 H 982.902 -2.59018 1.58566 0
M  V30 10169 H 980.487 -1.23865 0.835332 0
M  V30 10170 H 982.369 -4.20599 -0.259716 0
M  V30 10171 H 981.044 -3.13743 -0.796677 0
M  V30 10172 H 979.951 -3.42597 1.50261 0
M  V30 10173 H 981.284 -4.51538 1.95893 0
M  V30 10174 N 982.937 -0.845659 -1.3299 0
M  V30 10175 C 983.847 -0.2864 -2.32845 0
M  V30 10176 C 984.863 0.591105 -1.63652 0
M  V30 10177 O 986.039 0.493615 -1.95257 0
M  V30 10178 C 983.104 0.523636 -3.42723 0
M  V30 10179 C 982.165 -0.378945 -4.27624 0
M  V30 10180 C 981.398 0.392526 -5.32255 0
M  V30 10181 O 981.621 1.6235 -5.46808 0
M  V30 10182 O 980.555 -0.237 -6.01433 0
M  V30 10183 H 984.381 -1.11346 -2.82552 0
M  V30 10184 H 981.966 -0.608356 -1.36453 0
M  V30 10185 H 983.848 0.983718 -4.09757 0
M  V30 10186 H 982.523 1.32764 -2.95221 0
M  V30 10187 H 981.43 -0.887012 -3.63432 0
M  V30 10188 H 982.763 -1.1479 -4.78627 0
M  V30 10189 N 984.415 1.45619 -0.602734 0
M  V30 10190 C 985.661 2.02572 -0.0961759 0
M  V30 10191 C 985.994 1.47076 1.26815 0
M  V30 10192 O 985.269 0.643566 1.83544 0
M  V30 10193 C 985.552 3.60062 -0.0520032 0
M  V30 10194 C 985.405 4.25901 -1.44665 0
M  V30 10195 C 986.724 4.35446 0.638342 0
M  V30 10196 H 983.843 0.736099 -0.0364238 0
M  V30 10197 H 986.485 1.7353 -0.773776 0
M  V30 10198 H 984.635 3.84936 0.525032 0
M  V30 10199 H 986.307 4.12228 -2.0704 0
M  V30 10200 H 984.55 3.84489 -2.00874 0
M  V30 10201 H 985.221 5.34779 -1.36803 0
M  V30 10202 H 987.697 4.15837 0.147926 0
M  V30 10203 H 986.573 5.45176 0.63834 0
M  V30 10204 H 986.834 4.07962 1.70351 0
M  V30 10205 N 985.893 0.34162 1.53853 0
M  V30 10206 C 987.139 -0.255862 2.01179 0
M  V30 10207 C 987.472 -1.50356 1.22909 0
M  V30 10208 O 986.747 -1.91913 0.316198 0
M  V30 10209 C 987.03 -0.571934 3.55529 0
M  V30 10210 C 986.883 0.687727 4.44511 0
M  V30 10211 C 988.202 -1.38233 4.17827 0
M  V30 10212 H 985.321 -0.091521 0.731295 0
M  V30 10213 H 987.963 0.461775 1.84303 0
M  V30 10214 H 986.113 -1.18331 3.70041 0
M  V30 10215 H 987.785 1.32572 4.4184 0
M  V30 10216 H 986.028 1.313 4.13452 0
M  V30 10217 H 986.699 0.421858 5.50386 0
M  V30 10218 H 989.175 -0.865374 4.07002 0
M  V30 10219 H 988.051 -1.57223 5.25901 0
M  V30 10220 H 988.312 -2.38386 3.72323 0
M  V30 10221 N 987.371 -1.57444 0.0701946 0
M  V30 10222 C 988.617 -1.93716 -0.600178 0
M  V30 10223 C 988.95 -0.950329 -1.69359 0
M  V30 10224 O 988.225 0.0207123 -1.94489 0
M  V30 10225 C 988.508 -3.40266 -1.17861 0
M  V30 10226 C 988.361 -4.49706 -0.0919575 0
M  V30 10227 C 989.68 -3.87599 -2.08459 0
M  V30 10228 H 986.799 -0.704421 -0.216704 0
M  V30 10229 H 989.441 -1.89514 0.135838 0
M  V30 10230 H 987.591 -3.43977 -1.80587 0
M  V30 10231 H 989.263 -4.58116 0.541031 0
M  V30 10232 H 987.506 -4.29937 0.577639 0
M  V30 10233 H 988.177 -5.49381 -0.537048 0
M  V30 10234 H 990.653 -3.85883 -1.5567 0
M  V30 10235 H 989.529 -4.90755 -2.45867 0
M  V30 10236 H 989.79 -3.25448 -2.99226 0
M  V30 10237 N 988.849 0.203349 -1.56283 0
M  V30 10238 C 990.265 0.55384 -1.49682 0
M  V30 10239 C 990.465 1.86261 -0.768701 0
M  V30 10240 O 989.521 2.50517 -0.315824 0
M  V30 10241 C 990.834 0.616216 -2.94318 0
M  V30 10242 C 992.382 0.705611 -3.04943 0
M  V30 10243 C 992.857 0.79917 -4.50974 0
M  V30 10244 N 994.348 0.862916 -4.55091 0
M  V30 10245 C 995.083 0.955334 -5.65386 0
M  V30 10246 N 994.579 1.01057 -6.8539 0
M  V30 10247 N 996.372 0.991884 -5.53279 0
M  V30 10248 H 988.523 -0.655244 -2.0204 0
M  V30 10249 H 990.786 -0.232344 -0.919087 0
M  V30 10250 H 990.492 -0.27619 -3.50614 0
M  V30 10251 H 990.366 1.47371 -3.4722 0
M  V30 10252 H 992.753 1.58845 -2.48701 0
M  V30 10253 H 992.834 -0.177921 -2.5518 0
M  V30 10254 H 992.478 -0.0792841 -5.07838 0
M  V30 10255 H 992.408 1.69838 -4.9846 0
M  V30 10256 H 994.899 0.829812 -3.68677 0
M  V30 10257 H 995.212 1.08137 -7.65197 0
M  V30 10258 H 993.557 0.979384 -6.88065 0
M  V30 10259 H 996.748 0.945514 -4.58451 0
M  V30 10260 H 996.921 1.06045 -6.39264 0
M  V30 10261 N 990.327 1.50405 0.470755 0
M  V30 10262 C 991.567 1.63049 1.23266 0
M  V30 10263 C 991.931 0.323815 1.8925 0
M  V30 10264 O 993.132 0.325692 2.6682 0
M  V30 10265 C 991.403 2.7783 2.24823 0
M  V30 10266 S 992.962 3.10609 3.09948 0
M  V30 10267 H 989.78 0.574787 0.418499 0
M  V30 10268 H 992.382 1.8819 0.529619 0
M  V30 10269 H 991.086 3.71252 1.74929 0
M  V30 10270 H 990.617 2.54776 2.99755 0
M  V30 10271 H 992.632 2.5446 4.25987 0
M  V30 10272 N 991.805 -0.723954 1.39988 0
M  V30 10273 C 993.03 -1.5182 1.41299 0
M  V30 10274 C 993.455 -1.88096 0.0122636 0
M  V30 10275 O 992.813 -1.52687 -0.977559 0
M  V30 10276 C 992.861 -2.77532 2.30235 0
M  V30 10277 O 991.965 -3.73903 1.73984 0
M  V30 10278 H 991.306 -0.458058 0.480707 0
M  V30 10279 H 993.836 -0.892291 1.84118 0
M  V30 10280 H 993.846 -3.2615 2.45132 0
M  V30 10281 H 992.521 -2.50462 3.32026 0
M  V30 10282 H 991.098 -3.32715 1.68389 0
M  V30 10283 N 993.283 -1.25346 -0.955304 0
M  V30 10284 C 994.53 -1.10055 -1.69983 0
M  V30 10285 C 994.858 0.358586 -1.91166 0
M  V30 10286 O 994.113 1.28071 -1.47974 0
M  V30 10287 C 994.412 -1.7993 -3.08804 0
M  V30 10288 C 994.078 -3.29851 -3.07424 0
M  V30 10289 C 992.74 -3.7075 -3.06754 0
M  V30 10290 C 995.092 -4.25636 -3.00805 0
M  V30 10291 C 992.42 -5.05847 -2.97214 0
M  V30 10292 C 994.772 -5.60756 -2.92806 0
M  V30 10293 C 993.436 -6.00984 -2.90472 0
M  V30 10294 H 992.706 -0.402718 -0.622012 0
M  V30 10295 H 995.353 -1.5561 -1.11614 0
M  V30 10296 H 993.658 -1.26803 -3.70713 0
M  V30 10297 H 995.355 -1.65551 -3.65231 0
M  V30 10298 H 991.945 -2.97308 -3.08716 0
M  V30 10299 H 996.129 -3.9503 -3.00441 0
M  V30 10300 H 991.385 -5.36196 -2.93775 0
M  V30 10301 H 995.559 -6.34671 -2.86645 0
M  V30 10302 H 993.186 -7.05626 -2.82835 0
M  V30 10303 N 994.761 1.15782 -1.06922 0
M  V30 10304 C 996.177 1.38454 -0.793896 0
M  V30 10305 C 996.377 1.92238 0.603875 0
M  V30 10306 O 995.433 2.1253 1.36335 0
M  V30 10307 C 996.746 2.3595 -1.86408 0
M  V30 10308 C 998.294 2.49622 -1.88833 0
M  V30 10309 C 998.769 3.50406 -2.94923 0
M  V30 10310 N 1000.26 3.57938 -2.93997 0
M  V30 10311 C 1001 4.35728 -3.72731 0
M  V30 10312 N 1000.49 5.16888 -4.61301 0
M  V30 10313 N 1002.28 4.30774 -3.61096 0
M  V30 10314 H 994.435 0.792101 -1.97077 0
M  V30 10315 H 996.698 0.410779 -0.85438 0
M  V30 10316 H 996.404 2.03537 -2.86819 0
M  V30 10317 H 996.278 3.35677 -1.72049 0
M  V30 10318 H 998.665 2.81335 -0.890759 0
M  V30 10319 H 998.746 1.49909 -2.0727 0
M  V30 10320 H 998.39 3.19429 -3.94877 0
M  V30 10321 H 998.32 4.49864 -2.73734 0
M  V30 10322 H 1000.81 3.00007 -2.29791 0
M  V30 10323 H 1001.12 5.73477 -5.18019 0
M  V30 10324 H 999.469 5.16209 -4.65353 0
M  V30 10325 H 1002.66 3.66432 -2.91282 0
M  V30 10326 H 1002.83 4.91151 -4.22699 0
M  V30 10327 N 996.239 0.8527 1.3254 0
M  V30 10328 C 997.516 0.376491 1.91942 0
M  V30 10329 C 997.896 -1.13972 1.7769 0
M  V30 10330 O 997.244 -1.96047 1.17379 0
M  V30 10331 C 997.454 0.838694 3.38773 0
M  V30 10332 C 998.802 0.854736 4.15908 0
M  V30 10333 O 999.826 0.783203 3.47483 0
M  V30 10334 O 998.685 0.955207 5.38087 0
M  V30 10335 H 995.779 0.109412 0.81973 0
M  V30 10336 H 998.325 0.93947 1.41322 0
M  V30 10337 H 997.097 1.88179 3.43081 0
M  V30 10338 H 996.72 0.253055 3.96794 0
M  V30 10339 N 997.718 -1.45297 0.610449 0
M  V30 10340 C 998.628 -2.34349 -0.108475 0
M  V30 10341 C 999.644 -1.51409 -0.857397 0
M  V30 10342 O 1000.82 -1.84202 -0.814337 0
M  V30 10343 C 997.885 -3.29072 -1.09144 0
M  V30 10344 C 996.946 -4.27918 -0.344165 0
M  V30 10345 C 996.179 -5.18116 -1.28031 0
M  V30 10346 O 996.402 -5.11802 -2.51824 0
M  V30 10347 O 995.336 -5.96879 -0.775821 0
M  V30 10348 H 999.162 -2.97232 0.623421 0
M  V30 10349 H 996.747 -1.44728 0.3707 0
M  V30 10350 H 998.629 -3.87433 -1.65751 0
M  V30 10351 H 997.304 -2.68749 -1.80431 0
M  V30 10352 H 996.211 -3.73164 0.264437 0
M  V30 10353 H 997.544 -4.91104 0.328275 0
M  V30 10354 N 999.196 -0.349774 -1.5367 0
M  V30 10355 C 1000.47 0.300419 -1.93279 0
M  V30 10356 C 1000.85 1.67721 -1.28191 0
M  V30 10357 O 1000.2 2.24319 -0.435127 0
M  V30 10358 C 1000.41 0.366466 -3.47071 0
M  V30 10359 C 1001.76 0.614349 -4.20132 0
M  V30 10360 O 1002.78 0.448327 -3.53367 0
M  V30 10361 O 1001.64 0.936421 -5.38417 0
M  V30 10362 H 998.736 0.176599 -0.807924 0
M  V30 10363 H 1001.28 -0.401405 -1.64884 0
M  V30 10364 H 1000.05 -0.599455 -3.86681 0
M  V30 10365 H 999.677 1.11482 -3.81651 0
M  V30 10366 N 1000.67 1.57404 -0.0785433 0
M  V30 10367 C 1001.95 1.85163 0.630389 0
M  V30 10368 C 1002.33 0.972295 1.87376 0
M  V30 10369 O 1001.68 0.0403375 2.28464 0
M  V30 10370 C 1001.89 3.35491 0.961604 0
M  V30 10371 C 1003.24 4.0316 1.33219 0
M  V30 10372 O 1004.26 3.40276 1.05313 0
M  V30 10373 O 1003.12 5.14086 1.85412 0
M  V30 10374 H 1000.21 0.765169 0.31376 0
M  V30 10375 H 1002.76 1.69343 -0.109986 0
M  V30 10376 H 1001.53 3.91221 0.0788113 0
M  V30 10377 H 1001.15 3.56598 1.75852 0
M  V30 10378 N 1002.15 -0.195058 1.56388 0
M  V30 10379 C 1003.43 -0.941335 1.71459 0
M  V30 10380 C 1003.81 -2.01375 0.633336 0
M  V30 10381 O 1003.16 -2.25715 -0.35567 0
M  V30 10382 C 1003.37 -1.52772 3.13786 0
M  V30 10383 C 1004.71 -2.00983 3.7402 0
M  V30 10384 O 1005.74 -1.62614 3.16915 0
M  V30 10385 O 1004.6 -2.71586 4.7424 0
M  V30 10386 H 1001.69 -0.441451 0.699321 0
M  V30 10387 H 1004.24 -0.184752 1.68691 0
M  V30 10388 H 1003.01 -0.754699 3.83953 0
M  V30 10389 H 1002.63 -2.34914 3.20782 0
M  V30 10390 N 1003.63 -1.50653 -0.462772 0
M  V30 10391 C 1004.87 -1.637 -1.22399 0
M  V30 10392 C 1005.23 -0.333847 -1.89075 0
M  V30 10393 O 1006.43 -0.339837 -2.66643 0
M  V30 10394 C 1004.71 -2.79018 -2.23347 0
M  V30 10395 S 1006.26 -3.12248 -3.08296 0
M  V30 10396 H 1003.08 -0.576998 -0.415444 0
M  V30 10397 H 1005.68 -1.88468 -0.519631 0
M  V30 10398 H 1004.39 -3.72174 -1.72958 0
M  V30 10399 H 1003.92 -2.56362 -2.98399 0
M  V30 10400 H 1005.93 -2.56716 -4.24631 0
M  V30 10401 N 1005.11 0.71652 -1.4037 0
M  V30 10402 C 1006.34 1.50563 -1.4191 0
M  V30 10403 C 1006.75 1.88791 -0.0185456 0
M  V30 10404 O 1006.11 1.55378 0.957289 0
M  V30 10405 C 1006.16 2.78155 -2.30894 0
M  V30 10406 O 1005.88 2.41543 -3.65497 0
M  V30 10407 C 1007.38 3.72057 -2.41016 0
M  V30 10408 H 1004.6 0.464679 -0.48406 0
M  V30 10409 H 1007.15 0.883927 -1.8441 0
M  V30 10410 H 1005.3 3.36611 -1.91759 0
M  V30 10411 H 1005.71 3.23636 -4.12747 0
M  V30 10412 H 1007.19 4.58426 -3.07489 0
M  V30 10413 H 1007.67 4.15098 -1.43492 0
M  V30 10414 H 1008.27 3.19512 -2.80699 0
M  V30 10415 N 1006.59 1.25851 0.948643 0
M  V30 10416 C 1007.82 1.13546 1.726 0
M  V30 10417 C 1008.22 -0.312857 1.86595 0
M  V30 10418 O 1007.57 -1.22657 1.36751 0
M  V30 10419 C 1007.63 1.72315 3.15512 0
M  V30 10420 C 1007.29 3.2136 3.24926 0
M  V30 10421 C 1008.29 4.18274 3.08777 0
M  V30 10422 C 1005.98 3.61683 3.48555 0
M  V30 10423 C 1007.97 5.53491 3.16112 0
M  V30 10424 C 1005.66 4.97035 3.55526 0
M  V30 10425 C 1006.65 5.92749 3.3932 0
M  V30 10426 O 1006.34 7.25637 3.45985 0
M  V30 10427 H 1006.07 0.396555 0.547467 0
M  V30 10428 H 1008.63 1.66822 1.19832 0
M  V30 10429 H 1006.86 1.13494 3.6967 0
M  V30 10430 H 1008.55 1.55024 3.7513 0
M  V30 10431 H 1009.31 3.88461 2.90385 0
M  V30 10432 H 1005.19 2.87674 3.60229 0
M  V30 10433 H 1008.74 6.28177 3.0338 0
M  V30 10434 H 1004.63 5.26512 3.73437 0
M  V30 10435 H 1005.4 7.33812 3.62577 0
M  V30 10436 N 1008.06 -1.15214 1.07534 0
M  V30 10437 C 1009.29 -1.90463 0.820883 0
M  V30 10438 C 1009.71 -1.77578 -0.620305 0
M  V30 10439 O 1009.07 -1.10976 -1.43366 0
M  V30 10440 C 1009.12 -3.38746 1.23627 0
M  V30 10441 O 1008.22 -4.1062 0.382715 0
M  V30 10442 H 1007.57 -0.59292 0.298901 0
M  V30 10443 H 1010.1 -1.45893 1.43445 0
M  V30 10444 H 1010.11 -3.89543 1.21327 0
M  V30 10445 H 1008.78 -3.47443 2.28596 0
M  V30 10446 H 1007.36 -3.69947 0.468374 0
M  V30 10447 N 1009.54 -0.859717 -1.32086 0
M  V30 10448 C 1010.77 -0.479028 -2.0097 0
M  V30 10449 C 1011.18 0.930242 -1.64752 0
M  V30 10450 O 1010.52 1.6193 -0.867437 0
M  V30 10451 C 1010.59 -0.54431 -3.55355 0
M  V30 10452 C 1010.25 -1.91337 -4.15017 0
M  V30 10453 C 1011.25 -2.87951 -4.32874 0
M  V30 10454 C 1008.93 -2.21189 -4.50977 0
M  V30 10455 C 1010.93 -4.12567 -4.85867 0
M  V30 10456 C 1008.61 -3.46057 -5.03674 0
M  V30 10457 C 1009.61 -4.41562 -5.21068 0
M  V30 10458 O 1009.3 -5.64218 -5.72637 0
M  V30 10459 H 1009.03 -0.186161 -0.649861 0
M  V30 10460 H 1011.58 -1.15976 -1.69525 0
M  V30 10461 H 1009.81 0.1933 -3.86217 0
M  V30 10462 H 1011.5 -0.178506 -4.05507 0
M  V30 10463 H 1012.27 -2.66194 -4.05421 0
M  V30 10464 H 1008.15 -1.47635 -4.36721 0
M  V30 10465 H 1011.69 -4.8712 -4.99359 0
M  V30 10466 H 1007.59 -3.67662 -5.30561 0
M  V30 10467 H 1008.36 -5.66246 -5.91023 0
M  V30 10468 N 1011.02 1.44971 -0.618145 0
M  V30 10469 C 1012.25 2.06527 -0.124165 0
M  V30 10470 C 1012.66 1.46097 1.19588 0
M  V30 10471 O 1012.02 0.57901 1.73071 0
M  V30 10472 C 1012.07 3.61498 0.0106701 0
M  V30 10473 O 1011.79 4.19675 -1.25716 0
M  V30 10474 C 1013.29 4.40061 0.534872 0
M  V30 10475 H 1010.51 0.666941 -0.0736935 0
M  V30 10476 H 1013.06 1.8605 -0.848871 0
M  V30 10477 H 1011.21 3.81282 0.685752 0
M  V30 10478 H 1011.63 5.12972 -1.09362 0
M  V30 10479 H 1013.1 5.48963 0.57827 0
M  V30 10480 H 1013.58 4.10587 1.55931 0
M  V30 10481 H 1014.18 4.25167 -0.10652 0
M  V30 10482 N 1012.5 0.357919 1.53482 0
M  V30 10483 C 1013.43 -0.535553 2.21827 0
M  V30 10484 C 1014.41 -1.08904 1.20742 0
M  V30 10485 O 1015.59 -1.14661 1.49616 0
M  V30 10486 C 1012.72 -1.73817 2.90698 0
M  V30 10487 C 1011.77 -1.31283 4.05792 0
M  V30 10488 S 1012.6 -0.320548 5.3454 0
M  V30 10489 C 1013.76 -1.52967 6.0692 0
M  V30 10490 H 1013.99 0.0449045 2.97266 0
M  V30 10491 H 1011.52 0.142009 1.53746 0
M  V30 10492 H 1013.48 -2.42803 3.30994 0
M  V30 10493 H 1012.14 -2.28987 2.14998 0
M  V30 10494 H 1011.33 -2.20989 4.52968 0
M  V30 10495 H 1010.94 -0.702275 3.67347 0
M  V30 10496 H 1013.23 -2.46191 6.31186 0
M  V30 10497 H 1014.17 -1.09943 6.99513 0
M  V30 10498 H 1014.58 -1.73224 5.37265 0
M  V30 10499 N 1013.98 -1.5736 0.0868897 0
M  V30 10500 C 1014.89 -2.17087 -0.889402 0
M  V30 10501 C 1015.9 -1.13809 -1.31619 0
M  V30 10502 O 1017.08 -1.46143 -1.38579 0
M  V30 10503 C 1014.14 -2.73286 -2.13344 0
M  V30 10504 C 1013.2 -3.91491 -1.76164 0
M  V30 10505 C 1012.44 -4.45 -2.94637 0
M  V30 10506 O 1012.66 -3.97467 -4.09116 0
M  V30 10507 O 1011.59 -5.36133 -2.73579 0
M  V30 10508 H 1015.42 -3.00902 -0.411275 0
M  V30 10509 H 1013.01 -1.4877 -0.137015 0
M  V30 10510 H 1014.89 -3.0924 -2.86266 0
M  V30 10511 H 1013.56 -1.92521 -2.60225 0
M  V30 10512 H 1012.47 -3.60363 -1.00447 0
M  V30 10513 H 1013.8 -4.73593 -1.34053 0
M  V30 10514 N 1015.45 0.186762 -1.56489 0
M  V30 10515 C 1016.7 0.904063 -1.80752 0
M  V30 10516 C 1017.02 1.83443 -0.661343 0
M  V30 10517 O 1016.29 1.93272 0.319811 0
M  V30 10518 H 1014.87 0.336828 -0.66675 0
M  V30 10519 H 1017.54 0.190275 -1.93969 0
M  V30 10520 H 1016.63 1.49021 -2.74225 0
M  V30 10521 N 1016.93 1.50896 0.454776 0
M  V30 10522 C 1018.21 1.53227 1.21576 0
M  V30 10523 C 1018.59 0.286358 2.09149 0
M  V30 10524 O 1017.94 -0.729469 2.16543 0
M  V30 10525 C 1018.15 2.83693 2.03271 0
M  V30 10526 C 1019.5 3.34981 2.60908 0
M  V30 10527 O 1020.52 2.85126 2.13499 0
M  V30 10528 O 1019.38 4.21929 3.4733 0
M  V30 10529 H 1016.47 0.615306 0.552564 0
M  V30 10530 H 1019.02 1.63197 0.465266 0
M  V30 10531 H 1017.79 3.65839 1.38843 0
M  V30 10532 H 1017.41 2.76803 2.85422 0
M  V30 10533 N 1018.41 -0.709066 1.40748 0
M  V30 10534 C 1019.66 -1.46611 1.39103 0
M  V30 10535 C 1019.98 -1.95 -0.00365366 0
M  V30 10536 O 1019.25 -1.70791 -0.959541 0
M  V30 10537 H 1017.83 -0.543954 0.511979 0
M  V30 10538 H 1020.49 -0.840141 1.75863 0
M  V30 10539 H 1019.59 -2.33581 2.06994 0
M  V30 10540 N 1019.89 -1.26353 -0.941956 0
M  V30 10541 C 1020.85 -1.07904 -2.02211 0
M  V30 10542 C 1021.85 -0.0276283 -1.60776 0
M  V30 10543 O 1023.04 -0.270965 -1.7208 0
M  V30 10544 C 1020.17 -0.641084 -3.34818 0
M  V30 10545 H 1021.37 -2.03804 -2.20009 0
M  V30 10546 H 1018.92 -1.08939 -1.12081 0
M  V30 10547 H 1019.66 0.319943 -3.22718 0
M  V30 10548 H 1019.44 -1.40027 -3.66244 0
M  V30 10549 H 1020.93 -0.533826 -4.14174 0
M  V30 10550 N 1021.37 1.14642 -1.08144 0
M  V30 10551 C 1022.78 1.6719 -0.830923 0
M  V30 10552 C 1023.13 1.85373 0.642749 0
M  V30 10553 O 1022.25 1.56293 1.49671 0
M  V30 10554 C 1022.85 3.03697 -1.50179 0
M  V30 10555 C 1021.41 3.5329 -1.29858 0
M  V30 10556 C 1020.56 2.28828 -1.5663 0
M  V30 10557 H 1023.51 0.987441 -1.24239 0
M  V30 10558 H 1023.53 3.69023 -0.9275 0
M  V30 10559 H 1023.04 2.90431 -2.57432 0
M  V30 10560 H 1021.14 3.71783 -0.246626 0
M  V30 10561 H 1021.25 4.34231 -2.02436 0
M  V30 10562 H 1019.62 2.34769 -0.987716 0
M  V30 10563 H 1020.4 2.18141 -2.65084 0
M  V30 10564 N 1022.85 0.866709 1.31628 0
M  V30 10565 C 1024.09 0.475086 1.96437 0
M  V30 10566 C 1024.41 -0.975179 1.68865 0
M  V30 10567 O 1023.68 -1.68317 1.0023 0
M  V30 10568 H 1022.26 0.172695 0.726764 0
M  V30 10569 H 1024.93 1.10578 1.60494 0
M  V30 10570 H 1024.02 0.630123 3.05673 0
M  V30 10571 N 1024.32 -1.44642 0.625825 0
M  V30 10572 C 1025.73 -1.85502 0.211175 0
M  V30 10573 C 1026.09 -1.52356 -1.2362 0
M  V30 10574 O 1025.21 -0.959051 -1.93988 0
M  V30 10575 C 1025.81 -3.36702 0.37648 0
M  V30 10576 C 1024.36 -3.76396 0.0163795 0
M  V30 10577 C 1023.51 -2.68517 0.692368 0
M  V30 10578 H 1026.46 -1.35183 0.831333 0
M  V30 10579 H 1026.48 -3.78536 -0.386106 0
M  V30 10580 H 1026 -3.60795 1.42999 0
M  V30 10581 H 1024.1 -3.57919 -1.0356 0
M  V30 10582 H 1024.21 -4.77231 0.422742 0
M  V30 10583 H 1022.57 -2.54377 0.128191 0
M  V30 10584 H 1023.36 -2.95444 1.74837 0
M  V30 10585 N 1025.8 -0.366053 -1.5329 0
M  V30 10586 C 1026.75 0.495319 -2.27265 0
M  V30 10587 C 1027.74 1.08298 -1.30261 0
M  V30 10588 O 1028.95 1.02613 -1.47887 0
M  V30 10589 H 1025.32 0.178454 -0.730519 0
M  V30 10590 H 1027.3 -0.150354 -2.98021 0
M  V30 10591 C 1026.04 1.62283 -3.07505 0
M  V30 10592 H 1025.37 1.17993 -3.81992 0
M  V30 10593 H 1026.81 2.20024 -3.62444 0
M  V30 10594 C 1025.27 2.56542 -2.18375 0
M  V30 10595 O 1025.8 3.59371 -1.79486 0
M  V30 10596 N 1024 2.25742 -1.82999 0
M  V30 10597 H 1023.55 1.42159 -2.14822 0
M  V30 10598 H 1023.51 2.89064 -1.2365 0
M  V30 10599 N 1027.28 1.57312 -0.0952337 0
M  V30 10600 C 1028.5 1.99119 0.580206 0
M  V30 10601 C 1028.93 0.973955 1.60922 0
M  V30 10602 O 1028.29 -0.0575338 1.81209 0
M  V30 10603 C 1028.34 3.39893 1.20438 0
M  V30 10604 O 1027.44 3.40941 2.32019 0
M  V30 10605 H 1026.78 0.64748 0.147195 0
M  V30 10606 H 1029.31 2.03836 -0.176686 0
M  V30 10607 H 1029.32 3.7759 1.54564 0
M  V30 10608 H 1028 4.13453 0.450514 0
M  V30 10609 H 1026.57 3.1504 1.9951 0
M  V30 10610 N 1028.76 -0.17846 1.56586 0
M  V30 10611 C 1029.99 -0.911996 1.85715 0
M  V30 10612 C 1030.4 -1.76138 0.679766 0
M  V30 10613 O 1029.76 -1.79088 -0.351266 0
M  V30 10614 C 1029.81 -1.79459 3.1381 0
M  V30 10615 O 1029.53 -0.979476 4.2701 0
M  V30 10616 C 1031.03 -2.6384 3.56235 0
M  V30 10617 H 1028.25 -0.265299 0.616326 0
M  V30 10618 H 1030.79 -0.180704 2.037 0
M  V30 10619 H 1028.95 -2.4793 2.97673 0
M  V30 10620 H 1029.36 -1.58244 5.00059 0
M  V30 10621 H 1030.84 -3.21396 4.48786 0
M  V30 10622 H 1031.31 -3.38363 2.80013 0
M  V30 10623 H 1031.92 -2.00712 3.7496 0
M  V30 10624 N 1030.24 -1.51135 -0.446768 0
M  V30 10625 C 1031.48 -1.63578 -1.19875 0
M  V30 10626 C 1031.81 -0.346478 -1.91084 0
M  V30 10627 O 1031.09 0.653447 -1.83195 0
M  V30 10628 C 1031.37 -2.83275 -2.22323 0
M  V30 10629 C 1031.23 -4.22155 -1.55259 0
M  V30 10630 C 1032.54 -2.98496 -3.23401 0
M  V30 10631 H 1029.66 -0.595333 -0.434452 0
M  V30 10632 H 1032.31 -1.83593 -0.48923 0
M  V30 10633 H 1030.46 -2.6634 -2.82834 0
M  V30 10634 H 1032.13 -4.50736 -0.981571 0
M  V30 10635 H 1030.37 -4.25288 -0.855122 0
M  V30 10636 H 1031.04 -5.01882 -2.29823 0
M  V30 10637 H 1033.52 -3.14079 -2.72935 0
M  V30 10638 H 1032.39 -3.83828 -3.92386 0
M  V30 10639 H 1032.65 -2.10157 -3.88956 0
M  V30 10640 N 1031.71 0.701592 -1.41122 0
M  V30 10641 C 1032.64 1.82815 -1.45262 0
M  V30 10642 C 1033.62 1.67215 -0.311939 0
M  V30 10643 O 1034.81 1.87038 -0.522538 0
M  V30 10644 C 1031.94 3.20899 -1.32819 0
M  V30 10645 C 1030.89 3.51194 -2.44636 0
M  V30 10646 C 1030.22 4.8857 -2.17263 0
M  V30 10647 C 1031.52 3.50777 -3.86979 0
M  V30 10648 H 1033.21 1.79608 -2.39544 0
M  V30 10649 H 1030.76 0.862693 -1.15298 0
M  V30 10650 H 1032.71 3.99417 -1.34329 0
M  V30 10651 H 1031.44 3.24717 -0.350191 0
M  V30 10652 H 1030.1 2.75024 -2.42399 0
M  V30 10653 H 1029.74 4.89007 -1.17819 0
M  V30 10654 H 1029.44 5.09805 -2.92186 0
M  V30 10655 H 1030.97 5.69405 -2.20478 0
M  V30 10656 H 1032.38 4.19309 -3.90964 0
M  V30 10657 H 1030.78 3.83542 -4.61536 0
M  V30 10658 H 1031.85 2.49873 -4.15562 0
M  V30 10659 N 1033.19 1.2685 0.935242 0
M  V30 10660 C 1034.44 1.12912 1.6846 0
M  V30 10661 C 1034.77 -0.325708 1.91449 0
M  V30 10662 O 1034.05 -1.23884 1.49944 0
M  V30 10663 C 1034.33 1.90513 3.05576 0
M  V30 10664 C 1034.18 3.43936 2.89876 0
M  V30 10665 C 1035.5 1.70363 4.05789 0
M  V30 10666 H 1032.62 0.411559 0.611382 0
M  V30 10667 H 1035.26 1.55917 1.08582 0
M  V30 10668 H 1033.41 1.53963 3.5669 0
M  V30 10669 H 1035.08 3.90272 2.45939 0
M  V30 10670 H 1033.33 3.70659 2.25376 0
M  V30 10671 H 1034 3.93467 3.87153 0
M  V30 10672 H 1036.47 2.02217 3.63659 0
M  V30 10673 H 1035.35 2.27066 4.99732 0
M  V30 10674 H 1035.61 0.649674 4.373 0
M  V30 10675 N 1034.67 -1.14067 1.0875 0
M  V30 10676 C 1035.62 -2.17302 0.690195 0
M  V30 10677 C 1036.6 -1.58229 -0.291948 0
M  V30 10678 O 1037.8 -1.76698 -0.103411 0
M  V30 10679 C 1034.93 -3.4314 0.104835 0
M  V30 10680 C 1034.01 -4.09235 1.11298 0
M  V30 10681 N 1034.4 -4.50601 2.29765 0
M  V30 10682 C 1032.7 -4.35775 0.949535 0
M  V30 10683 C 1033.4 -5.02029 2.93839 0
M  V30 10684 N 1032.38 -4.96457 2.21431 0
M  V30 10685 H 1036.18 -2.47031 1.59226 0
M  V30 10686 H 1033.69 -1.30788 0.962722 0
M  V30 10687 H 1035.69 -4.16431 -0.197777 0
M  V30 10688 H 1034.35 -3.14888 -0.792172 0
M  V30 10689 H 1035.36 -4.43529 2.67399 0
M  V30 10690 H 1032.04 -4.17364 0.106627 0
M  V30 10691 H 1033.43 -5.43885 3.94511 0
M  V30 10692 N 1036.15 -0.873678 -1.31166 0
M  V30 10693 C 1037.1 -0.330288 -2.28424 0
M  V30 10694 C 1038.07 0.573299 -1.55893 0
M  V30 10695 O 1039.25 0.504143 -1.84019 0
M  V30 10696 C 1036.39 0.459004 -3.42034 0
M  V30 10697 C 1035.5 -0.472519 -4.29408 0
M  V30 10698 C 1034.64 0.331261 -5.30166 0
M  V30 10699 C 1033.68 -0.596453 -6.09187 0
M  V30 10700 N 1032.81 0.171305 -7.01891 0
M  V30 10701 H 1037.65 -1.16485 -2.7429 0
M  V30 10702 H 1035.19 -0.585813 -1.34932 0
M  V30 10703 H 1037.15 0.932432 -4.06647 0
M  V30 10704 H 1035.78 1.25824 -2.97268 0
M  V30 10705 H 1034.83 -1.06441 -3.65205 0
M  V30 10706 H 1036.14 -1.18372 -4.84551 0
M  V30 10707 H 1035.3 0.867038 -6.00473 0
M  V30 10708 H 1034.04 1.07573 -4.75688 0
M  V30 10709 H 1033.04 -1.14395 -5.37767 0
M  V30 10710 H 1034.27 -1.33983 -6.65752 0
M  V30 10711 H 1032.21 0.89852 -6.49817 0
M  V30 10712 H 1032.13 -0.480481 -7.54472 0
M  V30 10713 H 1033.4 0.688192 -7.76456 0
M  V30 10714 N 1037.63 1.44308 -0.633487 0
M  V30 10715 C 1038.57 2.30694 0.0700257 0
M  V30 10716 C 1039.54 1.43618 0.834447 0
M  V30 10717 O 1040.73 1.72517 0.815014 0
M  V30 10718 C 1037.87 3.28929 1.04403 0
M  V30 10719 C 1036.98 4.31106 0.277779 0
M  V30 10720 C 1036.12 5.16433 1.24381 0
M  V30 10721 C 1035.16 6.10317 0.466855 0
M  V30 10722 N 1034.29 6.88335 1.38347 0
M  V30 10723 H 1039.13 2.90311 -0.672567 0
M  V30 10724 H 1036.67 1.43034 -0.343449 0
M  V30 10725 H 1038.63 3.84373 1.62214 0
M  V30 10726 H 1037.26 2.71006 1.75372 0
M  V30 10727 H 1036.31 3.78115 -0.416292 0
M  V30 10728 H 1037.62 4.97725 -0.327251 0
M  V30 10729 H 1036.78 5.76406 1.89318 0
M  V30 10730 H 1035.51 4.49893 1.88276 0
M  V30 10731 H 1034.52 5.49451 -0.195989 0
M  V30 10732 H 1035.74 6.78894 -0.167414 0
M  V30 10733 H 1033.69 6.24461 2.00959 0
M  V30 10734 H 1033.61 7.51402 0.832517 0
M  V30 10735 H 1034.88 7.52829 2.0216 0
M  V30 10736 N 1039.1 0.374177 1.53094 0
M  V30 10737 C 1040.05 -0.468226 2.26001 0
M  V30 10738 C 1041.02 -1.07041 1.27009 0
M  V30 10739 O 1042.21 -1.10129 1.55809 0
M  V30 10740 C 1039.35 -1.59754 3.05896 0
M  V30 10741 C 1038.46 -1.01969 4.19793 0
M  V30 10742 C 1037.59 -2.11882 4.87113 0
M  V30 10743 C 1036.63 -1.51607 5.93028 0
M  V30 10744 N 1035.77 -2.55388 6.54004 0
M  V30 10745 H 1040.61 0.159983 2.9757 0
M  V30 10746 H 1038.15 0.0907196 1.4682 0
M  V30 10747 H 1040.11 -2.26288 3.50499 0
M  V30 10748 H 1038.74 -2.19628 2.36565 0
M  V30 10749 H 1037.79 -0.244386 3.79614 0
M  V30 10750 H 1039.1 -0.539089 4.95878 0
M  V30 10751 H 1038.25 -2.86218 5.34943 0
M  V30 10752 H 1036.99 -2.63297 4.10519 0
M  V30 10753 H 1036 -0.757891 5.44551 0
M  V30 10754 H 1037.22 -1.01006 6.71546 0
M  V30 10755 H 1035.17 -3.06 5.80258 0
M  V30 10756 H 1035.09 -2.12039 7.25655 0
M  V30 10757 H 1036.35 -3.294 7.06481 0
M  V30 10758 N 1040.58 -1.57259 0.103575 0
M  V30 10759 C 1041.86 -1.86143 -0.600852 0
M  V30 10760 C 1042.24 -1.00198 -1.85805 0
M  V30 10761 O 1041.59 -0.0766791 -2.28371 0
M  V30 10762 C 1041.8 -3.36978 -0.908108 0
M  V30 10763 C 1043.15 -4.05228 -1.26788 0
M  V30 10764 O 1044.17 -3.41908 -0.998859 0
M  V30 10765 O 1043.03 -5.16971 -1.7721 0
M  V30 10766 H 1040.12 -0.770064 -0.301547 0
M  V30 10767 H 1042.67 -1.69147 0.136914 0
M  V30 10768 H 1041.44 -3.91296 -0.0165615 0
M  V30 10769 H 1041.06 -3.5935 -1.70156 0
M  V30 10770 N 1042.06 0.170153 -1.56679 0
M  V30 10771 C 1043.3 0.893073 -1.83857 0
M  V30 10772 C 1043.66 1.79378 -0.684661 0
M  V30 10773 O 1044.87 2.55439 -0.836926 0
M  V30 10774 C 1043.14 1.66679 -3.16153 0
M  V30 10775 S 1044.7 2.43831 -3.64818 0
M  V30 10776 H 1041.51 0.299091 -0.645031 0
M  V30 10777 H 1044.12 0.154628 -1.94888 0
M  V30 10778 H 1042.82 0.996152 -3.98127 0
M  V30 10779 H 1042.35 2.44658 -3.08068 0
M  V30 10780 H 1044.37 3.68555 -3.32237 0
M  V30 10781 N 1043.54 1.5137 0.438746 0
M  V30 10782 C 1044.95 1.56462 1.01866 0
M  V30 10783 C 1045.3 0.387244 1.9234 0
M  V30 10784 O 1044.43 -0.496131 2.10636 0
M  V30 10785 C 1045.02 2.83557 1.85421 0
M  V30 10786 C 1043.58 2.91224 2.38464 0
M  V30 10787 C 1042.73 2.51109 1.17641 0
M  V30 10788 H 1045.68 1.57167 0.220072 0
M  V30 10789 H 1045.7 2.6724 2.70857 0
M  V30 10790 H 1045.21 3.69229 1.19546 0
M  V30 10791 H 1043.31 2.09979 3.07798 0
M  V30 10792 H 1043.42 3.94844 2.71358 0
M  V30 10793 H 1041.79 2.04276 1.5213 0
M  V30 10794 H 1042.57 3.39125 0.533785 0
M  V30 10795 N 1045.02 -0.694098 1.41492 0
M  V30 10796 C 1046.43 -1.27407 1.36471 0
M  V30 10797 C 1046.78 -1.9614 0.0485209 0
M  V30 10798 O 1045.9 -1.98871 -0.853188 0
M  V30 10799 C 1046.5 -2.31698 2.47188 0
M  V30 10800 C 1045.06 -2.85268 2.45559 0
M  V30 10801 C 1044.2 -1.59325 2.2696 0
M  V30 10802 H 1047.16 -0.488756 1.50986 0
M  V30 10803 H 1047.18 -3.1302 2.1633 0
M  V30 10804 H 1046.69 -1.81644 3.42968 0
M  V30 10805 H 1044.79 -3.39494 1.5354 0
M  V30 10806 H 1044.9 -3.35598 3.41922 0
M  V30 10807 H 1043.27 -1.85188 1.74864 0
M  V30 10808 H 1044.05 -1.11265 3.24769 0
M  V30 10809 N 1046.49 -1.27344 -0.928501 0
M  V30 10810 C 1047.74 -1.13411 -1.67279 0
M  V30 10811 C 1048.06 0.320698 -1.92345 0
M  V30 10812 O 1047.33 1.2245 -1.52915 0
M  V30 10813 H 1045.91 -0.416712 -0.619968 0
M  V30 10814 H 1048.58 -1.5986 -1.11493 0
M  V30 10815 H 1047.67 -1.66256 -2.64131 0
M  V30 10816 N 1047.97 1.13488 -1.09353 0
M  V30 10817 C 1049.2 1.89133 -0.85108 0
M  V30 10818 C 1049.62 1.78542 0.591976 0
M  V30 10819 O 1048.98 1.13243 1.41583 0
M  V30 10820 C 1049.03 3.36736 -1.29001 0
M  V30 10821 O 1048.13 4.09959 -0.447993 0
M  V30 10822 H 1047.47 0.58809 -0.308296 0
M  V30 10823 H 1050 1.43593 -1.45747 0
M  V30 10824 H 1050.01 3.87564 -1.27508 0
M  V30 10825 H 1048.69 3.43762 -2.34095 0
M  V30 10826 H 1047.27 3.69155 -0.52717 0
M  V30 10827 N 1049.45 0.880621 1.30701 0
M  V30 10828 C 1050.7 0.496875 1.96309 0
M  V30 10829 C 1051.03 -0.953064 1.69549 0
M  V30 10830 O 1050.28 -1.68782 0.990507 0
M  V30 10831 C 1050.58 0.713203 3.50212 0
M  V30 10832 C 1050.25 2.13756 3.97013 0
M  V30 10833 C 1048.91 2.52706 4.09503 0
M  V30 10834 C 1051.26 3.066 4.21481 0
M  V30 10835 C 1048.59 3.8372 4.43819 0
M  V30 10836 C 1050.94 4.3714 4.57265 0
M  V30 10837 C 1049.6 4.7599 4.67963 0
M  V30 10838 H 1048.87 0.18182 0.718347 0
M  V30 10839 H 1051.52 1.11564 1.55646 0
M  V30 10840 H 1049.83 0.0113694 3.91798 0
M  V30 10841 H 1051.52 0.39595 3.9904 0
M  V30 10842 H 1048.11 1.8252 3.87794 0
M  V30 10843 H 1052.3 2.77729 4.11315 0
M  V30 10844 H 1047.55 4.13568 4.50301 0
M  V30 10845 H 1051.73 5.09123 4.75149 0
M  V30 10846 H 1049.35 5.77549 4.94309 0
M  V30 10847 N 1050.93 -1.4397 0.641131 0
M  V30 10848 C 1052.18 -2.02782 0.158406 0
M  V30 10849 C 1052.53 -1.496 -1.20986 0
M  V30 10850 O 1051.82 -0.674517 -1.79334 0
M  V30 10851 C 1052.02 -3.5727 0.0963368 0
M  V30 10852 C 1051.85 -4.25441 1.45704 0
M  V30 10853 C 1050.62 -4.62008 2.04637 0
M  V30 10854 C 1052.81 -4.55238 2.39297 0
M  V30 10855 N 1050.8 -5.15194 3.33839 0
M  V30 10856 C 1052.17 -5.09613 3.53121 0
M  V30 10857 C 1054.22 -4.37197 2.38251 0
M  V30 10858 C 1052.93 -5.47847 4.66108 0
M  V30 10859 C 1054.95 -4.76485 3.50309 0
M  V30 10860 C 1054.31 -5.30982 4.62858 0
M  V30 10861 H 1050.41 -0.775304 0.102117 0
M  V30 10862 H 1053 -1.75321 0.846805 0
M  V30 10863 H 1051.17 -3.84322 -0.561369 0
M  V30 10864 H 1052.9 -4.02757 -0.39614 0
M  V30 10865 H 1049.65 -4.46653 1.57474 0
M  V30 10866 H 1050.08 -5.46253 3.99921 0
M  V30 10867 H 1054.72 -3.94347 1.5248 0
M  V30 10868 H 1052.44 -5.89646 5.52579 0
M  V30 10869 H 1056.02 -4.6423 3.50687 0
M  V30 10870 H 1054.9 -5.6082 5.48133 0
M  V30 10871 N 1052.41 -0.382291 -1.52893 0
M  V30 10872 C 1053.65 0.194935 -2.02464 0
M  V30 10873 C 1054.01 1.45051 -1.26404 0
M  V30 10874 O 1053.3 1.88302 -0.353968 0
M  V30 10875 C 1053.5 0.523437 -3.53546 0
M  V30 10876 C 1053.32 -0.698754 -4.44238 0
M  V30 10877 C 1052.09 -1.2159 -4.90453 0
M  V30 10878 C 1054.29 -1.56899 -4.89783 0
M  V30 10879 N 1052.27 -2.39637 -5.65197 0
M  V30 10880 C 1053.65 -2.59595 -5.63037 0
M  V30 10881 C 1055.7 -1.58991 -4.71833 0
M  V30 10882 C 1054.4 -3.6426 -6.20248 0
M  V30 10883 C 1056.43 -2.62559 -5.29922 0
M  V30 10884 C 1055.79 -3.63977 -6.03076 0
M  V30 10885 H 1051.89 0.0336043 -0.781278 0
M  V30 10886 H 1054.47 -0.530603 -1.8733 0
M  V30 10887 H 1052.65 1.21804 -3.68807 0
M  V30 10888 H 1054.38 1.0872 -3.89823 0
M  V30 10889 H 1051.13 -0.777967 -4.67167 0
M  V30 10890 H 1051.56 -2.99348 -6.07223 0
M  V30 10891 H 1056.2 -0.819305 -4.14786 0
M  V30 10892 H 1053.92 -4.42192 -6.76382 0
M  V30 10893 H 1057.5 -2.65052 -5.17918 0
M  V30 10894 H 1056.38 -4.42802 -6.47222 0
M  V30 10895 N 1053.89 1.57202 -0.111913 0
M  V30 10896 C 1054.82 2.17957 0.837683 0
M  V30 10897 C 1055.8 1.1176 1.28233 0
M  V30 10898 O 1056.98 1.39967 1.34621 0
M  V30 10899 C 1054.11 2.77333 2.09054 0
M  V30 10900 C 1053.07 3.8905 1.78393 0
M  V30 10901 C 1052.39 4.35203 3.10649 0
M  V30 10902 C 1053.69 5.11477 1.05775 0
M  V30 10903 H 1055.39 2.9756 0.331441 0
M  V30 10904 H 1052.93 1.43131 0.157979 0
M  V30 10905 H 1054.88 3.18492 2.75936 0
M  V30 10906 H 1053.61 1.95009 2.6199 0
M  V30 10907 H 1052.27 3.48456 1.13903 0
M  V30 10908 H 1051.92 3.49747 3.61506 0
M  V30 10909 H 1051.62 5.10534 2.9091 0
M  V30 10910 H 1053.14 4.79007 3.78661 0
M  V30 10911 H 1054.55 5.497 1.62798 0
M  V30 10912 H 1052.95 5.92346 0.961573 0
M  V30 10913 H 1054.02 4.84881 0.043297 0
M  V30 10914 N 1055.36 -0.161842 1.56767 0
M  V30 10915 C 1056.61 -0.875278 1.81719 0
M  V30 10916 C 1056.93 -1.82998 0.690739 0
M  V30 10917 O 1058.13 -2.58648 0.82545 0
M  V30 10918 C 1056.59 -1.60703 3.22029 0
M  V30 10919 C 1056.2 -0.695486 4.42569 0
M  V30 10920 C 1057.94 -2.30813 3.56266 0
M  V30 10921 C 1055.85 -1.42801 5.73901 0
M  V30 10922 H 1054.78 -0.330591 0.677662 0
M  V30 10923 H 1057.43 -0.128112 1.83052 0
M  V30 10924 H 1055.81 -2.39929 3.1504 0
M  V30 10925 H 1056.98 0.0604882 4.6076 0
M  V30 10926 H 1055.3 -0.10356 4.16271 0
M  V30 10927 H 1057.9 -2.86229 4.51638 0
M  V30 10928 H 1058.24 -3.06603 2.81604 0
M  V30 10929 H 1058.77 -1.5852 3.64851 0
M  V30 10930 H 1055.51 -0.712253 6.51619 0
M  V30 10931 H 1055.03 -2.15707 5.5967 0
M  V30 10932 H 1056.71 -1.97295 6.16185 0
M  V30 10933 N 1056.84 -1.516 -0.430713 0
M  V30 10934 C 1058.25 -1.57 -1.01035 0
M  V30 10935 C 1058.6 -0.397439 -1.92132 0
M  V30 10936 O 1057.73 0.484954 -2.10896 0
M  V30 10937 C 1058.32 -2.84536 -1.83915 0
M  V30 10938 C 1056.88 -2.92485 -2.36917 0
M  V30 10939 C 1056.03 -2.5173 -1.16308 0
M  V30 10940 H 1058.98 -1.57281 -0.211734 0
M  V30 10941 H 1059 -2.68672 -2.69435 0
M  V30 10942 H 1058.51 -3.69858 -1.17586 0
M  V30 10943 H 1056.61 -2.11608 -3.0668 0
M  V30 10944 H 1056.73 -3.96277 -2.6926 0
M  V30 10945 H 1055.09 -2.05079 -1.51045 0
M  V30 10946 H 1055.87 -3.39403 -0.515793 0
M  V30 10947 N 1058.32 0.686584 -1.41858 0
M  V30 10948 C 1059.25 1.81264 -1.47193 0
M  V30 10949 C 1060.23 1.66875 -0.329657 0
M  V30 10950 O 1061.42 1.86473 -0.542347 0
M  V30 10951 C 1058.55 3.19472 -1.36216 0
M  V30 10952 C 1057.5 3.4858 -2.48347 0
M  V30 10953 C 1056.83 4.86239 -2.22432 0
M  V30 10954 C 1058.13 3.46653 -3.90678 0
M  V30 10955 H 1059.82 1.77057 -2.41436 0
M  V30 10956 H 1057.37 0.850415 -1.16206 0
M  V30 10957 H 1059.32 3.97969 -1.38558 0
M  V30 10958 H 1058.04 3.24327 -0.384611 0
M  V30 10959 H 1056.7 2.72437 -2.45303 0
M  V30 10960 H 1056.35 4.8773 -1.22999 0
M  V30 10961 H 1056.05 5.06677 -2.97577 0
M  V30 10962 H 1057.57 5.67034 -2.26505 0
M  V30 10963 H 1058.99 4.15139 -3.95389 0
M  V30 10964 H 1057.38 3.78625 -4.65578 0
M  V30 10965 H 1058.45 2.45451 -4.18189 0
M  V30 10966 N 1059.8 1.27835 0.921735 0
M  V30 10967 C 1060.73 1.136 2.04003 0
M  V30 10968 C 1061.71 0.0358756 1.70062 0
M  V30 10969 O 1062.89 0.211438 1.93046 0
M  V30 10970 C 1060.02 0.788697 3.38226 0
M  V30 10971 C 1058.98 1.84272 3.863 0
M  V30 10972 C 1058.3 1.34923 5.17397 0
M  V30 10973 C 1059.6 3.24788 4.09035 0
M  V30 10974 H 1061.3 2.07149 2.1617 0
M  V30 10975 H 1058.84 0.997349 1.0387 0
M  V30 10976 H 1060.8 0.675911 4.15944 0
M  V30 10977 H 1059.52 -0.182499 3.2609 0
M  V30 10978 H 1058.18 1.94451 3.1078 0
M  V30 10979 H 1057.83 0.367328 5.01657 0
M  V30 10980 H 1057.53 2.05397 5.50532 0
M  V30 10981 H 1059.05 1.24951 5.97678 0
M  V30 10982 H 1060.47 3.17575 4.77304 0
M  V30 10983 H 1058.86 3.93025 4.53488 0
M  V30 10984 H 1059.93 3.69398 3.14122 0
M  V30 10985 N 1061.28 -1.12907 1.09954 0
M  V30 10986 C 1062.21 -2.20585 0.765799 0
M  V30 10987 C 1063.19 -1.68117 -0.258989 0
M  V30 10988 O 1064.37 -1.93792 -0.125853 0
M  V30 10989 C 1061.5 -3.46772 0.191435 0
M  V30 10990 C 1060.46 -4.12363 1.14635 0
M  V30 10991 C 1059.78 -5.3294 0.433426 0
M  V30 10992 C 1061.08 -4.59073 2.49096 0
M  V30 10993 H 1062.78 -2.48759 1.66612 0
M  V30 10994 H 1060.32 -1.19563 0.802534 0
M  V30 10995 H 1062.27 -4.21365 -0.0541535 0
M  V30 10996 H 1061 -3.18011 -0.744101 0
M  V30 10997 H 1059.66 -3.39744 1.37731 0
M  V30 10998 H 1059.31 -5.00444 -0.506422 0
M  V30 10999 H 1059.01 -5.77772 1.07018 0
M  V30 11000 H 1060.53 -6.10284 0.196267 0
M  V30 11001 H 1061.94 -5.25063 2.30177 0
M  V30 11002 H 1060.34 -5.14665 3.0861 0
M  V30 11003 H 1061.41 -3.73313 3.0946 0
M  V30 11004 N 1062.75 -0.88754 -1.30232 0
M  V30 11005 C 1063.68 -0.372481 -2.3051 0
M  V30 11006 C 1064.66 0.546037 -1.61098 0
M  V30 11007 O 1065.85 0.459345 -1.88689 0
M  V30 11008 C 1062.98 0.411605 -3.44852 0
M  V30 11009 C 1061.93 -0.415383 -4.2598 0
M  V30 11010 C 1061.26 0.495463 -5.324 0
M  V30 11011 C 1062.56 -1.65886 -4.95257 0
M  V30 11012 H 1064.25 -1.21045 -2.7384 0
M  V30 11013 H 1061.8 -0.583498 -1.31648 0
M  V30 11014 H 1063.75 0.782584 -4.1407 0
M  V30 11015 H 1062.48 1.28325 -3.00334 0
M  V30 11016 H 1061.14 -0.768534 -3.58454 0
M  V30 11017 H 1060.78 1.36489 -4.84128 0
M  V30 11018 H 1060.48 -0.0540885 -5.87575 0
M  V30 11019 H 1062.01 0.862901 -6.04472 0
M  V30 11020 H 1063.42 -1.35832 -5.56976 0
M  V30 11021 H 1061.82 -2.14881 -5.60309 0
M  V30 11022 H 1062.89 -2.40181 -4.21237 0
M  V30 11023 N 1064.23 1.43628 -0.648757 0
M  V30 11024 C 1065.16 2.33478 0.0320785 0
M  V30 11025 C 1066.14 1.49217 0.816605 0
M  V30 11026 O 1067.33 1.77892 0.778974 0
M  V30 11027 C 1064.46 3.32525 1.00222 0
M  V30 11028 C 1063.41 4.2674 0.328119 0
M  V30 11029 C 1062.74 5.15791 1.4094 0
M  V30 11030 C 1064.04 5.16493 -0.776701 0
M  V30 11031 H 1065.73 2.90657 -0.718257 0
M  V30 11032 H 1063.28 1.3976 -0.346852 0
M  V30 11033 H 1065.23 3.94277 1.4874 0
M  V30 11034 H 1063.96 2.73593 1.78366 0
M  V30 11035 H 1062.61 3.66346 -0.136569 0
M  V30 11036 H 1062.26 4.53201 2.18216 0
M  V30 11037 H 1061.96 5.79645 0.963631 0
M  V30 11038 H 1063.49 5.80416 1.89603 0
M  V30 11039 H 1064.9 5.7208 -0.373878 0
M  V30 11040 H 1063.3 5.89043 -1.14667 0
M  V30 11041 H 1064.37 4.56448 -1.63654 0
M  V30 11042 N 1065.71 0.390394 1.52688 0
M  V30 11043 C 1066.64 -0.43567 2.294 0
M  V30 11044 C 1067.62 -1.06253 1.32832 0
M  V30 11045 O 1068.81 -1.07509 1.61726 0
M  V30 11046 C 1065.94 -1.56259 3.10162 0
M  V30 11047 C 1064.89 -1.06172 4.14622 0
M  V30 11048 C 1064.22 -2.2808 4.83615 0
M  V30 11049 C 1065.52 -0.128902 5.22141 0
M  V30 11050 H 1067.21 0.204384 2.98702 0
M  V30 11051 H 1064.76 0.0997377 1.43654 0
M  V30 11052 H 1066.71 -2.14732 3.62585 0
M  V30 11053 H 1065.43 -2.23025 2.38595 0
M  V30 11054 H 1064.09 -0.499518 3.63181 0
M  V30 11055 H 1063.74 -2.93358 4.08595 0
M  V30 11056 H 1063.44 -1.95227 5.5422 0
M  V30 11057 H 1064.96 -2.87193 5.38844 0
M  V30 11058 H 1066.38 -0.621849 5.69917 0
M  V30 11059 H 1064.78 0.109919 5.99999 0
M  V30 11060 H 1065.85 0.821884 4.77884 0
M  V30 11061 N 1067.19 -1.57141 0.120249 0
M  V30 11062 C 1068.6 -1.82256 -0.404931 0
M  V30 11063 C 1068.95 -1.03748 -1.66526 0
M  V30 11064 O 1068.08 -0.274456 -2.14653 0
M  V30 11065 C 1068.67 -3.30588 -0.741431 0
M  V30 11066 C 1067.23 -3.56379 -1.21124 0
M  V30 11067 C 1066.38 -2.76421 -0.220569 0
M  V30 11068 H 1069.33 -1.54897 0.345361 0
M  V30 11069 H 1069.35 -3.45284 -1.59872 0
M  V30 11070 H 1068.86 -3.87701 0.176036 0
M  V30 11071 H 1066.96 -3.04625 -2.14556 0
M  V30 11072 H 1067.07 -4.64952 -1.1557 0
M  V30 11073 H 1065.44 -2.44666 -0.707857 0
M  V30 11074 H 1066.22 -3.36294 0.690018 0
M  V30 11075 N 1068.67 0.153526 -1.5685 0
M  V30 11076 C 1069.6 1.19162 -2.00805 0
M  V30 11077 C 1070.58 1.45172 -0.886518 0
M  V30 11078 O 1071.76 1.56203 -1.15387 0
M  V30 11079 C 1068.89 2.52637 -2.38311 0
M  V30 11080 C 1067.85 2.41161 -3.53589 0
M  V30 11081 C 1067.17 3.79287 -3.76889 0
M  V30 11082 C 1068.47 1.90122 -4.86468 0
M  V30 11083 H 1070.17 0.82617 -2.87776 0
M  V30 11084 H 1067.71 0.395972 -1.38449 0
M  V30 11085 H 1069.67 3.25478 -2.6766 0
M  V30 11086 H 1068.39 2.91005 -1.4827 0
M  V30 11087 H 1067.05 1.70772 -3.24395 0
M  V30 11088 H 1066.7 4.15079 -2.84109 0
M  V30 11089 H 1066.4 3.72472 -4.54465 0
M  V30 11090 H 1067.92 4.53687 -4.08657 0
M  V30 11091 H 1069.33 2.52752 -5.14577 0
M  V30 11092 H 1067.73 1.94214 -5.67804 0
M  V30 11093 H 1068.8 0.856517 -4.77275 0
M  V30 11094 N 1070.14 1.51827 0.422667 0
M  V30 11095 C 1071.07 1.77152 1.52117 0
M  V30 11096 C 1072.06 0.621895 1.58324 0
M  V30 11097 O 1073.24 0.866118 1.73816 0
M  V30 11098 C 1070.37 1.90991 2.90068 0
M  V30 11099 C 1069.32 3.06516 2.98717 0
M  V30 11100 C 1068.65 3.05559 4.38791 0
M  V30 11101 C 1069.95 4.46223 2.71445 0
M  V30 11102 H 1071.64 2.69135 1.31175 0
M  V30 11103 H 1069.19 1.29507 0.629607 0
M  V30 11104 H 1071.14 2.07291 3.6689 0
M  V30 11105 H 1069.87 0.956688 3.12274 0
M  V30 11106 H 1068.53 2.89945 2.24338 0
M  V30 11107 H 1068.17 2.07985 4.57986 0
M  V30 11108 H 1067.87 3.83144 4.45505 0
M  V30 11109 H 1069.4 3.23971 5.17566 0
M  V30 11110 H 1070.81 4.63069 3.37994 0
M  V30 11111 H 1069.21 5.25623 2.89552 0
M  V30 11112 H 1070.28 4.5525 1.6696 0
M  V30 11113 N 1071.62 -0.679052 1.4222 0
M  V30 11114 C 1072.59 -1.77448 1.45069 0
M  V30 11115 C 1073.59 -1.57189 0.338882 0
M  V30 11116 O 1074.78 -1.63559 0.599519 0
M  V30 11117 C 1071.91 -3.1603 1.27819 0
M  V30 11118 H 1073.1 -1.7631 2.426 0
M  V30 11119 H 1070.65 -0.888277 1.28605 0
M  V30 11120 H 1071.39 -3.22796 0.311946 0
M  V30 11121 H 1071.17 -3.32138 2.08391 0
M  V30 11122 H 1072.66 -3.9596 1.32686 0
M  V30 11123 N 1073.1 -1.28322 -0.914942 0
M  V30 11124 C 1074.03 -1.14681 -2.03398 0
M  V30 11125 C 1075.01 -0.0448939 -1.70041 0
M  V30 11126 O 1076.2 -0.221672 -1.92931 0
M  V30 11127 C 1073.33 -0.806623 -3.37803 0
M  V30 11128 C 1072.28 -1.86318 -3.85318 0
M  V30 11129 C 1071.61 -1.37665 -5.16674 0
M  V30 11130 C 1072.91 -3.26953 -4.07307 0
M  V30 11131 H 1074.6 -2.08293 -2.15068 0
M  V30 11132 H 1072.15 -1.00284 -1.03339 0
M  V30 11133 H 1074.1 -0.69796 -4.1558 0
M  V30 11134 H 1072.82 0.165203 -3.26182 0
M  V30 11135 H 1071.48 -1.96096 -3.09745 0
M  V30 11136 H 1071.13 -0.393927 -5.01455 0
M  V30 11137 H 1070.83 -2.08313 -5.49435 0
M  V30 11138 H 1072.35 -1.28119 -5.97007 0
M  V30 11139 H 1073.77 -3.20102 -4.75613 0
M  V30 11140 H 1072.17 -3.95424 -4.51398 0
M  V30 11141 H 1073.24 -3.71059 -3.12159 0
M  V30 11142 N 1074.58 1.12322 -1.10551 0
M  V30 11143 C 1075.51 2.20176 -0.777486 0
M  V30 11144 C 1076.49 1.68252 0.250069 0
M  V30 11145 O 1077.67 1.93856 0.115574 0
M  V30 11146 C 1074.8 3.46666 -0.209822 0
M  V30 11147 C 1073.76 4.11749 -1.1682 0
M  V30 11148 C 1073.08 5.32703 -0.461684 0
M  V30 11149 C 1074.38 4.57746 -2.51527 0
M  V30 11150 H 1076.08 2.47872 -1.67928 0
M  V30 11151 H 1073.62 1.19136 -0.808863 0
M  V30 11152 H 1075.58 4.21388 0.0318068 0
M  V30 11153 H 1074.3 3.18401 0.727226 0
M  V30 11154 H 1072.96 3.39009 -1.3953 0
M  V30 11155 H 1072.61 5.00706 0.479875 0
M  V30 11156 H 1072.31 5.77197 -1.1008 0
M  V30 11157 H 1073.83 6.10172 -0.228629 0
M  V30 11158 H 1075.25 5.23835 -2.32958 0
M  V30 11159 H 1073.64 5.13021 -3.11335 0
M  V30 11160 H 1074.71 3.71667 -3.11435 0
M  V30 11161 N 1076.06 0.894434 1.2976 0
M  V30 11162 C 1076.99 0.3847 2.30309 0
M  V30 11163 C 1077.97 -0.537486 1.61385 0
M  V30 11164 O 1079.15 -0.449332 1.8893 0
M  V30 11165 C 1076.28 -0.393311 3.45066 0
M  V30 11166 C 1075.24 0.437968 4.25753 0
M  V30 11167 C 1074.56 -0.467221 5.32655 0
M  V30 11168 C 1075.86 1.6851 4.9437 0
M  V30 11169 H 1077.56 1.22496 2.73194 0
M  V30 11170 H 1075.1 0.590471 1.31337 0
M  V30 11171 H 1077.06 -0.760614 4.14479 0
M  V30 11172 H 1075.78 -1.2673 3.0101 0
M  V30 11173 H 1074.44 0.787533 3.58041 0
M  V30 11174 H 1074.09 -1.33919 4.84845 0
M  V30 11175 H 1073.79 0.0852482 5.87538 0
M  V30 11176 H 1075.31 -0.830833 6.04921 0
M  V30 11177 H 1076.72 1.38784 5.56248 0
M  V30 11178 H 1075.12 2.17849 5.59162 0
M  V30 11179 H 1076.19 2.42412 4.19958 0
M  V30 11180 N 1077.53 -1.43282 0.656365 0
M  V30 11181 C 1078.46 -2.33492 -0.0196962 0
M  V30 11182 C 1079.45 -1.49647 -0.80868 0
M  V30 11183 O 1080.63 -1.78303 -0.769529 0
M  V30 11184 C 1077.76 -3.33052 -0.984574 0
M  V30 11185 C 1076.71 -4.26908 -0.305483 0
M  V30 11186 C 1076.04 -5.16531 -1.38202 0
M  V30 11187 C 1077.34 -5.16073 0.804081 0
M  V30 11188 H 1079.03 -2.90272 0.733661 0
M  V30 11189 H 1076.58 -1.39574 0.354259 0
M  V30 11190 H 1078.53 -3.9506 -1.46647 0
M  V30 11191 H 1077.26 -2.74535 -1.76913 0
M  V30 11192 H 1075.92 -3.66268 0.155995 0
M  V30 11193 H 1075.56 -4.54351 -2.1581 0
M  V30 11194 H 1075.26 -5.80148 -0.932878 0
M  V30 11195 H 1076.79 -5.81414 -1.86522 0
M  V30 11196 H 1078.2 -5.71873 0.404212 0
M  V30 11197 H 1076.6 -5.88427 1.17789 0
M  V30 11198 H 1077.67 -4.55574 1.66073 0
M  V30 11199 N 1079.01 -0.398486 -1.52479 0
M  V30 11200 C 1079.94 0.423498 -2.29627 0
M  V30 11201 C 1080.92 1.05547 -1.33394 0
M  V30 11202 O 1082.11 1.0665 -1.62294 0
M  V30 11203 C 1079.24 1.54612 -3.10986 0
M  V30 11204 C 1078.19 1.03971 -4.15179 0
M  V30 11205 C 1077.52 2.25512 -4.84818 0
M  V30 11206 C 1078.82 0.10121 -5.22202 0
M  V30 11207 H 1080.51 -0.220222 -2.98589 0
M  V30 11208 H 1078.06 -0.107355 -1.43599 0
M  V30 11209 H 1080.01 2.12806 -3.63719 0
M  V30 11210 H 1078.74 2.21756 -2.39774 0
M  V30 11211 H 1077.4 0.480251 -3.63441 0
M  V30 11212 H 1077.04 2.91187 -4.10145 0
M  V30 11213 H 1076.74 1.92285 -5.55248 0
M  V30 11214 H 1078.27 2.84331 -5.40359 0
M  V30 11215 H 1079.68 0.591617 -5.70239 0
M  V30 11216 H 1078.08 -0.141737 -5.99933 0
M  V30 11217 H 1079.15 -0.847216 -4.77441 0
M  V30 11218 N 1080.49 1.57075 -0.12858 0
M  V30 11219 C 1081.73 1.97408 0.530059 0
M  V30 11220 C 1082.1 1.01087 1.63234 0
M  V30 11221 O 1083.3 1.30394 2.35055 0
M  V30 11222 C 1081.57 3.41928 1.04021 0
M  V30 11223 S 1083.13 4.04277 1.70603 0
M  V30 11224 H 1079.94 0.689884 0.17199 0
M  V30 11225 H 1082.55 1.94304 -0.215933 0
M  V30 11226 H 1081.25 4.09772 0.226928 0
M  V30 11227 H 1080.78 3.48703 1.82125 0
M  V30 11228 H 1082.8 3.95819 2.99235 0
M  V30 11229 N 1081.97 -0.145205 1.5693 0
M  V30 11230 C 1083.22 -0.85395 1.84606 0
M  V30 11231 C 1083.57 -1.78709 0.712811 0
M  V30 11232 O 1082.86 -1.89406 -0.289108 0
M  V30 11233 C 1083.06 -1.66391 3.16305 0
M  V30 11234 C 1082.89 -0.810698 4.42332 0
M  V30 11235 C 1081.66 -0.475623 5.03057 0
M  V30 11236 C 1083.85 -0.140213 5.14109 0
M  V30 11237 N 1081.84 0.390996 6.12654 0
M  V30 11238 C 1083.21 0.586471 6.1722 0
M  V30 11239 C 1085.26 -0.0610725 4.97863 0
M  V30 11240 C 1083.97 1.38483 7.05844 0
M  V30 11241 C 1085.99 0.724026 5.86951 0
M  V30 11242 C 1085.35 1.43899 6.89545 0
M  V30 11243 H 1081.45 -0.290253 0.726138 0
M  V30 11244 H 1084.04 -0.119211 1.94335 0
M  V30 11245 H 1082.21 -2.36987 3.0772 0
M  V30 11246 H 1083.94 -2.31596 3.31882 0
M  V30 11247 H 1080.69 -0.811824 4.6659 0
M  V30 11248 H 1081.12 0.815383 6.72072 0
M  V30 11249 H 1085.76 -0.599475 4.18529 0
M  V30 11250 H 1083.48 1.93448 7.84604 0
M  V30 11251 H 1087.06 0.787276 5.76449 0
M  V30 11252 H 1085.94 2.03674 7.57289 0
M  V30 11253 N 1083.45 -1.52049 -0.414609 0
M  V30 11254 C 1084.39 -1.74998 -1.5048 0
M  V30 11255 C 1085.36 -0.592251 -1.55182 0
M  V30 11256 O 1086.55 -0.829203 -1.7184 0
M  V30 11257 C 1083.69 -1.90157 -2.87983 0
M  V30 11258 C 1082.8 -3.17789 -2.92633 0
M  V30 11259 C 1081.94 -3.23411 -4.21401 0
M  V30 11260 C 1080.98 -4.45267 -4.20004 0
M  V30 11261 N 1080.11 -4.48312 -5.40334 0
M  V30 11262 H 1084.95 -2.68046 -1.30212 0
M  V30 11263 H 1082.49 -1.32824 -0.632154 0
M  V30 11264 H 1084.45 -1.96929 -3.67797 0
M  V30 11265 H 1083.08 -1.00496 -3.06758 0
M  V30 11266 H 1082.13 -3.20216 -2.05343 0
M  V30 11267 H 1083.44 -4.07634 -2.87465 0
M  V30 11268 H 1082.6 -3.29224 -5.09604 0
M  V30 11269 H 1081.34 -2.31495 -4.29257 0
M  V30 11270 H 1080.34 -4.39606 -3.30192 0
M  V30 11271 H 1081.57 -5.38472 -4.13793 0
M  V30 11272 H 1079.51 -3.59277 -5.48868 0
M  V30 11273 H 1079.43 -5.31994 -5.37139 0
M  V30 11274 H 1080.7 -4.58347 -6.30506 0
M  V30 11275 N 1084.93 0.6715 -1.42579 0
M  V30 11276 C 1086.16 1.4576 -1.46416 0
M  V30 11277 C 1086.56 1.89051 -0.0749843 0
M  V30 11278 O 1085.91 1.58927 0.921296 0
M  V30 11279 C 1085.97 2.7365 -2.33144 0
M  V30 11280 C 1085.63 2.52414 -3.80968 0
M  V30 11281 C 1086.63 2.16804 -4.72538 0
M  V30 11282 C 1084.31 2.67306 -4.25268 0
M  V30 11283 C 1086.31 1.96358 -6.06401 0
M  V30 11284 C 1084 2.46475 -5.5919 0
M  V30 11285 C 1084.99 2.11055 -6.49573 0
M  V30 11286 O 1084.68 1.90428 -7.8102 0
M  V30 11287 H 1084.41 0.454896 -0.500045 0
M  V30 11288 H 1086.97 0.832198 -1.87786 0
M  V30 11289 H 1085.2 3.38684 -1.86629 0
M  V30 11290 H 1086.89 3.35543 -2.28398 0
M  V30 11291 H 1087.65 2.04891 -4.39596 0
M  V30 11292 H 1083.53 2.93854 -3.55206 0
M  V30 11293 H 1087.08 1.68634 -6.76911 0
M  V30 11294 H 1082.97 2.57985 -5.91704 0
M  V30 11295 H 1083.74 2.05 -7.92412 0
M  V30 11296 N 1086.4 1.28806 0.908124 0
M  V30 11297 C 1087.64 1.17546 1.67219 0
M  V30 11298 C 1088.01 -0.270396 1.90086 0
M  V30 11299 O 1089.21 -0.505808 2.63998 0
M  V30 11300 C 1087.48 1.95774 2.99011 0
M  V30 11301 S 1089.04 2.00953 3.90081 0
M  V30 11302 H 1085.86 0.419283 0.574215 0
M  V30 11303 H 1088.46 1.6298 1.07971 0
M  V30 11304 H 1087.16 2.99978 2.80074 0
M  V30 11305 H 1086.69 1.50911 3.63303 0
M  V30 11306 H 1088.71 1.1201 4.83392 0
M  V30 11307 N 1087.88 -1.11734 1.11145 0
M  V30 11308 C 1088.84 -2.15868 0.770303 0
M  V30 11309 C 1089.84 -1.59438 -0.208842 0
M  V30 11310 O 1091.03 -1.74193 0.0152516 0
M  V30 11311 C 1088.17 -3.40603 0.142303 0
M  V30 11312 H 1089.36 -2.4756 1.69276 0
M  V30 11313 H 1086.91 -1.26867 0.912929 0
M  V30 11314 H 1087.65 -3.14517 -0.790526 0
M  V30 11315 H 1087.43 -3.8284 0.847087 0
M  V30 11316 H 1088.92 -4.17523 -0.0803608 0
M  V30 11317 N 1089.36 -0.901303 -1.29284 0
M  V30 11318 C 1090.6 -0.534971 -1.97275 0
M  V30 11319 C 1090.96 0.902226 -1.69481 0
M  V30 11320 O 1092.16 1.37551 -2.3094 0
M  V30 11321 C 1090.44 -0.821095 -3.4784 0
M  V30 11322 S 1091.99 -0.559312 -4.35221 0
M  V30 11323 H 1088.81 -0.198409 -0.682755 0
M  V30 11324 H 1091.41 -1.16408 -1.57065 0
M  V30 11325 H 1090.12 -1.86527 -3.65562 0
M  V30 11326 H 1089.65 -0.18016 -3.92987 0
M  V30 11327 H 1091.66 0.59494 -4.9262 0
M  V30 11328 N 1090.84 1.42931 -0.663954 0
M  V30 11329 C 1092.08 2.03557 -0.185479 0
M  V30 11330 C 1092.44 1.51309 1.18193 0
M  V30 11331 O 1093.64 2.03649 1.75444 0
M  V30 11332 C 1091.91 3.56802 -0.206705 0
M  V30 11333 S 1093.47 4.38333 0.202356 0
M  V30 11334 H 1090.29 0.706791 -0.0772523 0
M  V30 11335 H 1092.89 1.74841 -0.874688 0
M  V30 11336 H 1091.6 3.92328 -1.20445 0
M  V30 11337 H 1091.13 3.90175 0.502693 0
M  V30 11338 H 1093.14 4.7489 1.43853 0
M  V30 11339 N 1092.32 0.406567 1.52266 0
M  V30 11340 C 1093.26 -0.420182 2.26943 0
M  V30 11341 C 1094.23 -1.04323 1.29251 0
M  V30 11342 O 1095.42 -1.06799 1.5811 0
M  V30 11343 C 1092.56 -1.5323 3.09216 0
M  V30 11344 C 1091.67 -0.930419 4.21862 0
M  V30 11345 C 1090.81 -2.01502 4.91498 0
M  V30 11346 C 1089.84 -1.38994 5.9611 0
M  V30 11347 N 1088.98 -2.41458 6.59274 0
M  V30 11348 H 1093.82 0.223066 2.97164 0
M  V30 11349 H 1091.36 0.121842 1.46595 0
M  V30 11350 H 1093.32 -2.18803 3.5522 0
M  V30 11351 H 1091.95 -2.14561 2.41171 0
M  V30 11352 H 1091 -0.163809 3.80047 0
M  V30 11353 H 1092.31 -0.433785 4.9691 0
M  V30 11354 H 1091.46 -2.74807 5.40894 0
M  V30 11355 H 1090.2 -2.5453 4.16012 0
M  V30 11356 H 1089.21 -0.642213 5.46036 0
M  V30 11357 H 1090.43 -0.867386 6.73538 0
M  V30 11358 H 1088.38 -2.93623 5.86619 0
M  V30 11359 H 1088.3 -1.96599 7.2999 0
M  V30 11360 H 1089.56 -3.14341 7.13309 0
M  V30 11361 N 1093.79 -1.57004 0.136909 0
M  V30 11362 C 1094.76 -2.15066 -0.792419 0
M  V30 11363 C 1095.76 -1.08991 -1.18226 0
M  V30 11364 O 1096.95 -1.34681 -1.10484 0
M  V30 11365 C 1094.08 -2.70554 -2.07397 0
M  V30 11366 H 1095.27 -2.98519 -0.28752 0
M  V30 11367 H 1092.83 -1.55895 -0.112469 0
M  V30 11368 H 1093.56 -1.90739 -2.62277 0
M  V30 11369 H 1093.35 -3.48149 -1.80374 0
M  V30 11370 H 1094.84 -3.15322 -2.73792 0
M  V30 11371 N 1095.27 0.136881 -1.57004 0
M  V30 11372 C 1096.51 0.853873 -1.8571 0
M  V30 11373 C 1096.88 1.77885 -0.722556 0
M  V30 11374 O 1098.08 2.53606 -0.89092 0
M  V30 11375 C 1096.35 1.59935 -3.19618 0
M  V30 11376 S 1097.91 2.36038 -3.69908 0
M  V30 11377 H 1094.73 0.285342 -0.65123 0
M  V30 11378 H 1097.33 0.113254 -1.95172 0
M  V30 11379 H 1096.03 0.91148 -4.0015 0
M  V30 11380 H 1095.56 2.38069 -3.13188 0
M  V30 11381 H 1097.58 3.61425 -3.3998 0
M  V30 11382 N 1096.75 1.52266 0.40654 0
M  V30 11383 C 1097.68 1.78755 1.50229 0
M  V30 11384 C 1098.66 0.638652 1.57655 0
M  V30 11385 O 1099.85 0.884505 1.72888 0
M  V30 11386 C 1096.98 1.94057 2.88026 0
M  V30 11387 C 1095.93 3.09667 2.95449 0
M  V30 11388 C 1095.26 3.10196 4.35526 0
M  V30 11389 C 1096.56 4.49077 2.66697 0
M  V30 11390 H 1098.25 2.70511 1.28313 0
M  V30 11391 H 1095.8 1.30167 0.615836 0
M  V30 11392 H 1097.75 2.11171 3.64671 0
M  V30 11393 H 1096.47 0.989755 3.11242 0
M  V30 11394 H 1095.13 2.92308 2.2125 0
M  V30 11395 H 1094.78 2.12831 4.55754 0
M  V30 11396 H 1094.48 3.87847 4.41416 0
M  V30 11397 H 1096 3.29443 5.14101 0
M  V30 11398 H 1097.42 4.66628 3.33064 0
M  V30 11399 H 1095.82 5.28665 2.8396 0
M  V30 11400 H 1096.89 4.56995 1.62122 0
M  V30 11401 N 1098.23 -0.663929 1.42933 0
M  V30 11402 C 1099.19 -1.75899 1.46943 0
M  V30 11403 C 1100.19 -1.5682 0.355535 0
M  V30 11404 O 1101.38 -1.62914 0.616833 0
M  V30 11405 C 1098.51 -3.14657 1.31164 0
M  V30 11406 H 1099.71 -1.73727 2.44456 0
M  V30 11407 H 1097.26 -0.874587 1.2954 0
M  V30 11408 H 1097.99 -3.22447 0.346165 0
M  V30 11409 H 1097.78 -3.29909 2.11902 0
M  V30 11410 H 1099.27 -3.9453 1.36878 0
M  V30 11411 N 1099.71 -1.29285 -0.901281 0
M  V30 11412 C 1100.64 -1.16832 -2.0217 0
M  V30 11413 C 1101.62 -0.0629265 -1.69984 0
M  V30 11414 O 1102.8 -0.242123 -1.92685 0
M  V30 11415 C 1099.93 -0.842406 -3.36929 0
M  V30 11416 C 1098.89 -1.90394 -3.8332 0
M  V30 11417 C 1098.21 -1.43138 -5.15185 0
M  V30 11418 C 1099.51 -3.31254 -4.03817 0
M  V30 11419 H 1101.21 -2.10562 -2.12847 0
M  V30 11420 H 1098.75 -1.01375 -1.0227 0
M  V30 11421 H 1100.71 -0.741999 -4.14816 0
M  V30 11422 H 1099.43 0.130598 -3.26339 0
M  V30 11423 H 1098.09 -1.99371 -3.07647 0
M  V30 11424 H 1097.74 -0.447091 -5.01009 0
M  V30 11425 H 1097.44 -2.14129 -5.47195 0
M  V30 11426 H 1098.96 -1.34444 -5.95615 0
M  V30 11427 H 1100.37 -3.25129 -4.72191 0
M  V30 11428 H 1098.77 -4.00189 -4.47178 0
M  V30 11429 H 1099.84 -3.74349 -3.08206 0
M  V30 11430 N 1101.18 1.11143 -1.11736 0
M  V30 11431 C 1102.11 2.19339 -0.800795 0
M  V30 11432 C 1103.1 1.68508 0.23221 0
M  V30 11433 O 1104.28 1.93967 0.0950063 0
M  V30 11434 C 1101.41 3.46424 -0.246579 0
M  V30 11435 C 1100.36 4.10487 -1.21181 0
M  V30 11436 C 1099.69 5.32183 -0.518158 0
M  V30 11437 C 1100.99 4.55052 -2.56368 0
M  V30 11438 H 1102.68 2.46077 -1.70548 0
M  V30 11439 H 1100.23 1.18271 -0.821454 0
M  V30 11440 H 1102.18 4.21398 -0.0128889 0
M  V30 11441 H 1100.91 3.19154 0.693415 0
M  V30 11442 H 1099.57 3.3751 -1.43118 0
M  V30 11443 H 1099.21 5.01187 0.426742 0
M  V30 11444 H 1098.91 5.75997 -1.16196 0
M  V30 11445 H 1100.44 6.09895 -0.293333 0
M  V30 11446 H 1101.85 5.21335 -2.38501 0
M  V30 11447 H 1100.25 5.0969 -3.16758 0
M  V30 11448 H 1101.32 3.68343 -3.1536 0
M  V30 11449 N 1102.66 0.908147 1.28804 0
M  V30 11450 C 1104.07 0.585727 1.77274 0
M  V30 11451 C 1104.42 -0.898842 1.744 0
M  V30 11452 O 1103.55 -1.70301 1.33516 0
M  V30 11453 C 1104.14 1.05647 3.21907 0
M  V30 11454 C 1102.7 0.785066 3.68122 0
M  V30 11455 C 1101.85 1.22638 2.48707 0
M  V30 11456 H 1104.8 1.09 1.15346 0
M  V30 11457 H 1104.82 0.395442 3.7844 0
M  V30 11458 H 1104.33 2.13698 3.23967 0
M  V30 11459 H 1102.44 -0.282477 3.71528 0
M  V30 11460 H 1102.55 1.38888 4.58527 0
M  V30 11461 H 1100.91 0.645217 2.46392 0
M  V30 11462 H 1101.7 2.31512 2.5349 0
M  V30 11463 N 1104.14 -1.42577 0.671525 0
M  V30 11464 C 1105.38 -2.03455 0.196271 0
M  V30 11465 C 1105.74 -1.51934 -1.17389 0
M  V30 11466 O 1106.95 -2.04577 -1.74361 0
M  V30 11467 C 1105.22 -3.56687 0.225624 0
M  V30 11468 S 1106.78 -4.38434 -0.179107 0
M  V30 11469 H 1103.59 -0.706371 0.0809995 0
M  V30 11470 H 1106.2 -1.74375 0.883948 0
M  V30 11471 H 1104.9 -3.91684 1.22524 0
M  V30 11472 H 1104.43 -3.90436 -0.481994 0
M  V30 11473 H 1106.45 -4.75646 -1.41332 0
M  V30 11474 N 1105.62 -0.414636 -1.52048 0
M  V30 11475 C 1106.86 0.158807 -2.03782 0
M  V30 11476 C 1107.22 1.41912 -1.29325 0
M  V30 11477 O 1108.42 2.07136 -1.71313 0
M  V30 11478 C 1106.69 0.395092 -3.55209 0
M  V30 11479 S 1108.25 0.935193 -4.28719 0
M  V30 11480 H 1105.07 0.0424729 -0.70973 0
M  V30 11481 H 1107.67 -0.568822 -1.87042 0
M  V30 11482 H 1106.38 -0.528875 -4.06978 0
M  V30 11483 H 1105.91 1.15044 -3.76203 0
M  V30 11484 H 1107.92 2.21519 -4.44009 0
M  V30 11485 N 1107.1 1.56929 -0.145233 0
M  V30 11486 C 1108.04 2.17958 0.812237 0
M  V30 11487 C 1109.04 1.13608 1.25657 0
M  V30 11488 O 1110.24 1.31861 1.22526 0
M  V30 11489 H 1106.62 0.697876 0.28013 0
M  V30 11490 H 1108.59 2.97146 0.273297 0
M  V30 11491 C 1107.34 2.81418 2.04203 0
M  V30 11492 H 1106.66 3.61427 1.70911 0
M  V30 11493 H 1108.1 3.27624 2.69144 0
M  V30 11494 C 1106.56 1.79835 2.84888 0
M  V30 11495 O 1107.09 1.26773 3.81171 0
M  V30 11496 N 1105.3 1.49179 2.49387 0
M  V30 11497 H 1104.84 1.9252 1.71154 0
M  V30 11498 H 1104.8 0.81458 3.03664 0
M  V30 11499 N 1108.58 -0.128553 1.57075 0
M  V30 11500 C 1109.99 -0.481794 1.52154 0
M  V30 11501 C 1110.19 -1.82381 0.856694 0
M  V30 11502 O 1109.25 -2.48725 0.434989 0
M  V30 11503 C 1110.56 -0.475091 2.96923 0
M  V30 11504 C 1112.11 -0.559315 3.07962 0
M  V30 11505 C 1112.58 -0.583095 4.54273 0
M  V30 11506 N 1114.07 -0.644803 4.5869 0
M  V30 11507 C 1114.81 -0.684493 5.693 0
M  V30 11508 N 1114.31 -0.682407 6.89431 0
M  V30 11509 N 1116.1 -0.726777 5.57382 0
M  V30 11510 H 1108.25 0.750894 1.98684 0
M  V30 11511 H 1110.51 0.27593 0.906955 0
M  V30 11512 H 1110.22 0.443157 3.48897 0
M  V30 11513 H 1110.09 -1.30637 3.53856 0
M  V30 11514 H 1112.48 -1.46798 2.55997 0
M  V30 11515 H 1112.56 0.299468 2.54041 0
M  V30 11516 H 1112.2 0.32149 5.06881 0
M  V30 11517 H 1112.13 -1.45863 5.05996 0
M  V30 11518 H 1114.63 -0.652967 3.72216 0
M  V30 11519 H 1114.94 -0.715051 7.69485 0
M  V30 11520 H 1113.28 -0.649984 6.91954 0
M  V30 11521 H 1116.47 -0.725704 4.6244 0
M  V30 11522 H 1116.65 -0.754242 6.43596 0
M  V30 11523 N 1110.05 -1.5248 -0.398459 0
M  V30 11524 C 1111.3 -1.66731 -1.14215 0
M  V30 11525 C 1111.62 -0.404957 -1.90749 0
M  V30 11526 O 1110.89 0.580434 -1.87104 0
M  V30 11527 H 1109.47 -0.614577 -0.424622 0
M  V30 11528 H 1112.13 -1.89561 -0.453059 0
M  V30 11529 H 1111.23 -2.51336 -1.85031 0
M  V30 11530 N 1111.53 0.65634 -1.43283 0
M  V30 11531 C 1112.48 1.76243 -1.44646 0
M  V30 11532 C 1113.47 1.5778 -0.31532 0
M  V30 11533 O 1114.66 1.67945 -0.558881 0
M  V30 11534 C 1111.79 3.14813 -1.36921 0
M  V30 11535 C 1110.87 3.38835 -2.55053 0
M  V30 11536 N 1111.26 3.33345 -3.80414 0
M  V30 11537 C 1109.56 3.69542 -2.4971 0
M  V30 11538 C 1110.26 3.57361 -4.58986 0
M  V30 11539 N 1109.24 3.79022 -3.8967 0
M  V30 11540 H 1113.04 1.70419 -2.39447 0
M  V30 11541 H 1110.55 0.85789 -1.37891 0
M  V30 11542 H 1112.55 3.941 -1.3598 0
M  V30 11543 H 1111.21 3.21822 -0.431381 0
M  V30 11544 H 1112.22 3.12827 -4.12747 0
M  V30 11545 H 1108.9 3.83684 -1.64598 0
M  V30 11546 H 1110.29 3.58921 -5.68001 0
M  V30 11547 N 1113.01 1.29761 0.894412 0
M  V30 11548 C 1113.94 1.09666 2.00121 0
M  V30 11549 C 1114.92 0.00700077 1.62598 0
M  V30 11550 O 1116.1 0.158728 1.87831 0
M  V30 11551 C 1113.23 0.670588 3.31995 0
M  V30 11552 C 1112.28 1.75974 3.88504 0
M  V30 11553 S 1113.11 3.36013 4.1696 0
M  V30 11554 C 1114.27 2.95285 5.51867 0
M  V30 11555 H 1114.5 2.03369 2.1686 0
M  V30 11556 H 1112.03 1.13968 1.04166 0
M  V30 11557 H 1113.99 0.431481 4.08226 0
M  V30 11558 H 1112.65 -0.246924 3.13128 0
M  V30 11559 H 1111.84 1.41367 4.83768 0
M  V30 11560 H 1111.45 1.95264 3.1898 0
M  V30 11561 H 1113.74 2.42659 6.32553 0
M  V30 11562 H 1114.68 3.8942 5.91403 0
M  V30 11563 H 1115.09 2.33426 5.13977 0
M  V30 11564 N 1114.49 -1.10549 1.12324 0
M  V30 11565 C 1115.73 -1.82755 0.879117 0
M  V30 11566 C 1116.07 -1.84905 -0.593604 0
M  V30 11567 O 1115.34 -1.30884 -1.43873 0
M  V30 11568 C 1115.62 -3.29481 1.45308 0
M  V30 11569 C 1115.48 -3.3567 2.99408 0
M  V30 11570 C 1116.8 -4.25828 1.11167 0
M  V30 11571 H 1113.92 -0.663513 0.32081 0
M  V30 11572 H 1116.56 -1.29572 1.38965 0
M  V30 11573 H 1114.71 -3.74902 1.01887 0
M  V30 11574 H 1116.38 -2.98739 3.515 0
M  V30 11575 H 1114.62 -2.75606 3.34998 0
M  V30 11576 H 1115.29 -4.38983 3.34661 0
M  V30 11577 H 1117.77 -3.88635 1.48667 0
M  V30 11578 H 1116.65 -5.26857 1.53991 0
M  V30 11579 H 1116.91 -4.42094 0.0237046 0
M  V30 11580 N 1115.97 -0.914965 -1.28321 0
M  V30 11581 C 1117.21 -0.547665 -1.94538 0
M  V30 11582 C 1117.53 0.911834 -1.72368 0
M  V30 11583 O 1116.8 1.64481 -1.06408 0
M  V30 11584 H 1115.38 -0.199549 -0.719853 0
M  V30 11585 H 1118.05 -1.16459 -1.5628 0
M  V30 11586 H 1117.14 -0.743138 -3.03124 0
M  V30 11587 N 1117.44 1.42219 -0.679077 0
M  V30 11588 C 1118.69 2.01479 -0.203119 0
M  V30 11589 C 1119.02 1.5371 1.19178 0
M  V30 11590 O 1118.27 0.731832 1.81501 0
M  V30 11591 C 1118.57 3.56889 -0.191027 0
M  V30 11592 C 1118.24 4.24106 -1.53118 0
M  V30 11593 C 1116.9 4.42182 -1.89812 0
M  V30 11594 C 1119.25 4.61946 -2.41361 0
M  V30 11595 C 1116.58 4.95371 -3.14364 0
M  V30 11596 C 1118.93 5.16518 -3.65229 0
M  V30 11597 C 1117.6 5.32807 -4.02086 0
M  V30 11598 H 1116.87 0.737263 -0.0743264 0
M  V30 11599 H 1119.51 1.70346 -0.874908 0
M  V30 11600 H 1117.82 3.87715 0.564282 0
M  V30 11601 H 1119.52 4.00528 0.194511 0
M  V30 11602 H 1116.11 4.10399 -1.23575 0
M  V30 11603 H 1120.29 4.4765 -2.14297 0
M  V30 11604 H 1115.55 5.06167 -3.42935 0
M  V30 11605 H 1119.72 5.44782 -4.33804 0
M  V30 11606 H 1117.35 5.73785 -4.98673 0
M  V30 11607 N 1118.92 0.422693 1.51826 0
M  V30 11608 C 1119.87 -0.396088 2.27376 0
M  V30 11609 C 1120.84 -1.02946 1.30351 0
M  V30 11610 O 1122.02 -1.05116 1.59233 0
M  V30 11611 C 1119.16 -1.49942 3.10824 0
M  V30 11612 C 1118.28 -0.885623 4.22825 0
M  V30 11613 C 1117.41 -1.96278 4.93608 0
M  V30 11614 C 1116.45 -1.32664 5.97551 0
M  V30 11615 N 1115.59 -2.34452 6.61798 0
M  V30 11616 H 1120.43 0.254571 2.96911 0
M  V30 11617 H 1117.96 0.137383 1.46457 0
M  V30 11618 H 1119.92 -2.15023 3.57521 0
M  V30 11619 H 1118.55 -2.11991 2.43433 0
M  V30 11620 H 1117.6 -0.123491 3.80199 0
M  V30 11621 H 1118.92 -0.381057 4.97342 0
M  V30 11622 H 1118.07 -2.69055 5.43778 0
M  V30 11623 H 1116.81 -2.50103 4.18688 0
M  V30 11624 H 1115.81 -0.584262 5.46687 0
M  V30 11625 H 1117.04 -0.7959 6.7442 0
M  V30 11626 H 1114.99 -2.87385 5.897 0
M  V30 11627 H 1114.9 -1.88845 7.32034 0
M  V30 11628 H 1116.17 -3.06757 7.16603 0
M  V30 11629 N 1120.4 -1.5685 0.153553 0
M  V30 11630 C 1121.31 -2.20664 -0.796528 0
M  V30 11631 C 1122.33 -1.19289 -1.26674 0
M  V30 11632 O 1123.5 -1.51889 -1.32256 0
M  V30 11633 C 1120.57 -2.82088 -2.01561 0
M  V30 11634 C 1119.63 -3.9861 -1.59401 0
M  V30 11635 C 1118.86 -4.57096 -2.75498 0
M  V30 11636 O 1119.08 -4.14462 -3.9189 0
M  V30 11637 O 1118.02 -5.47254 -2.50593 0
M  V30 11638 H 1121.84 -3.02376 -0.283282 0
M  V30 11639 H 1119.43 -1.49218 -0.0737927 0
M  V30 11640 H 1121.31 -3.21103 -2.72893 0
M  V30 11641 H 1119.99 -2.03385 -2.51826 0
M  V30 11642 H 1118.89 -3.64299 -0.850725 0
M  V30 11643 H 1120.23 -4.78853 -1.13845 0
M  V30 11644 N 1121.88 0.120221 -1.57141 0
M  V30 11645 C 1123.15 0.858458 -1.75755 0
M  V30 11646 C 1123.53 1.98124 -0.728693 0
M  V30 11647 O 1122.88 2.27155 0.247573 0
M  V30 11648 C 1123.09 1.37627 -3.20718 0
M  V30 11649 C 1124.44 1.82909 -3.83183 0
M  V30 11650 O 1125.46 1.47309 -3.24312 0
M  V30 11651 O 1124.32 2.4865 -4.86657 0
M  V30 11652 H 1121.42 0.407583 -0.719587 0
M  V30 11653 H 1123.96 0.104057 -1.69381 0
M  V30 11654 H 1122.74 0.570651 -3.87117 0
M  V30 11655 H 1122.36 2.19341 -3.31625 0
M  V30 11656 N 1123.36 1.52689 0.390367 0
M  V30 11657 C 1124.31 1.73751 1.4763 0
M  V30 11658 C 1125.29 0.591572 1.4963 0
M  V30 11659 O 1126.48 0.849354 1.5529 0
M  V30 11660 C 1123.61 1.90855 2.85358 0
M  V30 11661 C 1122.7 3.11377 2.87933 0
M  V30 11662 N 1123.09 4.33751 2.6018 0
M  V30 11663 C 1121.39 3.11594 3.19101 0
M  V30 11664 C 1122.09 5.15346 2.69803 0
M  V30 11665 N 1121.06 4.51002 3.03476 0
M  V30 11666 H 1124.87 2.65994 1.24997 0
M  V30 11667 H 1122.38 1.50977 0.598301 0
M  V30 11668 H 1124.38 2.04065 3.63542 0
M  V30 11669 H 1123.04 0.998241 3.08974 0
M  V30 11670 H 1124.05 4.61907 2.34227 0
M  V30 11671 H 1120.72 2.30368 3.48191 0
M  V30 11672 H 1122.11 6.22892 2.51902 0
M  V30 11673 N 1124.83 -0.648732 1.43629 0
M  V30 11674 C 1126.06 -1.43412 1.48716 0
M  V30 11675 C 1126.47 -1.88908 0.105051 0
M  V30 11676 O 1125.82 -1.60373 -0.895896 0
M  V30 11677 C 1125.88 -2.69906 2.37468 0
M  V30 11678 C 1125.54 -2.46321 3.84935 0
M  V30 11679 C 1126.54 -2.09259 4.75927 0
M  V30 11680 C 1124.22 -2.60506 4.29467 0
M  V30 11681 C 1126.22 -1.86686 6.09448 0
M  V30 11682 C 1123.9 -2.37548 5.6304 0
M  V30 11683 C 1124.9 -2.00694 6.52848 0
M  V30 11684 O 1124.59 -1.77979 7.83951 0
M  V30 11685 H 1124.32 -0.446883 0.507219 0
M  V30 11686 H 1126.88 -0.802218 1.89086 0
M  V30 11687 H 1125.11 -3.35672 1.91993 0
M  V30 11688 H 1126.8 -3.31867 2.33707 0
M  V30 11689 H 1127.56 -1.97872 4.428 0
M  V30 11690 H 1123.44 -2.88165 3.59836 0
M  V30 11691 H 1126.98 -1.57844 6.79508 0
M  V30 11692 H 1122.88 -2.48539 5.95734 0
M  V30 11693 H 1123.65 -1.92368 7.95573 0
M  V30 11694 N 1126.31 -1.30234 -0.887518 0
M  V30 11695 C 1127.25 -1.10726 -1.99537 0
M  V30 11696 C 1128.22 -0.0156237 -1.62592 0
M  V30 11697 O 1129.41 -0.168687 -1.87744 0
M  V30 11698 C 1126.53 -0.688185 -3.31635 0
M  V30 11699 C 1125.58 -1.78031 -3.87566 0
M  V30 11700 S 1126.41 -3.38219 -4.15172 0
M  V30 11701 C 1127.57 -2.98208 -5.50293 0
M  V30 11702 H 1127.8 -2.04516 -2.15778 0
M  V30 11703 H 1125.34 -1.14519 -1.0356 0
M  V30 11704 H 1127.29 -0.453124 -4.07991 0
M  V30 11705 H 1125.95 0.230315 -3.13254 0
M  V30 11706 H 1125.15 -1.43931 -4.83011 0
M  V30 11707 H 1124.75 -1.96952 -3.1794 0
M  V30 11708 H 1127.04 -2.4601 -6.31257 0
M  V30 11709 H 1127.98 -3.92551 -5.89329 0
M  V30 11710 H 1128.39 -2.36149 -5.12732 0
M  V30 11711 N 1127.79 1.09952 -1.12909 0
M  V30 11712 C 1128.72 2.18477 -0.824014 0
M  V30 11713 C 1129.7 1.68744 0.214324 0
M  V30 11714 O 1130.89 1.94057 0.0744281 0
M  V30 11715 C 1128.02 3.46143 -0.283308 0
M  V30 11716 C 1126.97 4.09178 -1.25528 0
M  V30 11717 C 1126.3 5.31604 -0.574574 0
M  V30 11718 C 1127.6 4.52308 -2.6118 0
M  V30 11719 H 1129.29 2.44254 -1.73148 0
M  V30 11720 H 1126.84 1.17394 -0.833952 0
M  V30 11721 H 1128.79 4.21361 -0.057583 0
M  V30 11722 H 1127.51 3.19872 0.659525 0
M  V30 11723 H 1126.17 3.35973 -1.4669 0
M  V30 11724 H 1125.82 5.01611 0.37356 0
M  V30 11725 H 1125.52 5.74732 -1.22299 0
M  V30 11726 H 1127.04 6.0955 -0.358004 0
M  V30 11727 H 1128.46 5.18776 -2.44017 0
M  V30 11728 H 1126.86 5.06302 -3.22147 0
M  V30 11729 H 1127.93 3.64977 -3.19249 0
M  V30 11730 N 1129.27 0.921757 1.27833 0
M  V30 11731 C 1130.68 0.621102 1.47019 0
M  V30 11732 C 1130.88 -0.831338 1.83551 0
M  V30 11733 O 1129.94 -1.60974 1.94534 0
M  V30 11734 C 1131.25 1.56588 2.56712 0
M  V30 11735 C 1132.8 1.57346 2.70576 0
M  V30 11736 C 1133.28 2.50505 3.8342 0
M  V30 11737 N 1134.77 2.48678 3.90786 0
M  V30 11738 C 1135.5 3.17454 4.77505 0
M  V30 11739 N 1135 3.95588 5.68755 0
M  V30 11740 N 1136.79 3.06501 4.71183 0
M  V30 11741 H 1128.94 1.86085 1.02403 0
M  V30 11742 H 1131.21 0.798595 0.510833 0
M  V30 11743 H 1130.91 2.60175 2.36647 0
M  V30 11744 H 1130.79 1.30305 3.53978 0
M  V30 11745 H 1133.17 0.544919 2.90025 0
M  V30 11746 H 1133.25 1.87675 1.73815 0
M  V30 11747 H 1132.9 3.53466 3.64725 0
M  V30 11748 H 1132.83 2.17474 4.79596 0
M  V30 11749 H 1135.32 1.91928 3.25534 0
M  V30 11750 H 1135.63 4.45066 6.31772 0
M  V30 11751 H 1133.98 3.99692 5.6857 0
M  V30 11752 H 1137.17 2.44958 3.9889 0
M  V30 11753 H 1137.34 3.60372 5.3855 0
M  V30 11754 N 1130.75 -1.41857 0.686609 0
M  V30 11755 C 1131.66 -2.34595 0.0159005 0
M  V30 11756 C 1132.67 -1.55741 -0.775933 0
M  V30 11757 O 1133.85 -1.8826 -0.71555 0
M  V30 11758 C 1130.91 -3.34395 -0.915473 0
M  V30 11759 C 1129.97 -4.29141 -0.116851 0
M  V30 11760 C 1129.21 -5.24174 -1.00386 0
M  V30 11761 O 1129.43 -5.24431 -2.2434 0
M  V30 11762 O 1128.36 -6.00152 -0.458337 0
M  V30 11763 H 1132.19 -2.9351 0.780101 0
M  V30 11764 H 1129.78 -1.42559 0.446896 0
M  V30 11765 H 1131.66 -3.95675 -1.44981 0
M  V30 11766 H 1130.33 -2.77936 -1.65932 0
M  V30 11767 H 1129.24 -3.71238 0.461871 0
M  V30 11768 H 1130.57 -4.88673 0.588138 0
M  V30 11769 N 1132.22 -0.430739 -1.51599 0
M  V30 11770 C 1133.17 0.398482 -2.29161 0
M  V30 11771 C 1134.17 1.02676 -1.34737 0
M  V30 11772 O 1135.37 0.96248 -1.52106 0
M  V30 11773 H 1131.75 0.14731 -0.737431 0
M  V30 11774 H 1133.72 -0.276619 -2.97115 0
M  V30 11775 C 1132.47 1.49094 -3.14112 0
M  V30 11776 H 1131.79 1.01685 -3.86652 0
M  V30 11777 H 1133.23 2.04453 -3.7145 0
M  V30 11778 C 1131.69 2.47049 -2.29059 0
M  V30 11779 O 1132.22 3.51435 -1.94567 0
M  V30 11780 N 1130.43 2.17778 -1.92409 0
M  V30 11781 H 1129.97 1.3292 -2.20658 0
M  V30 11782 H 1129.93 2.8356 -1.35798 0
M  V30 11783 N 1133.7 1.56767 -0.161869 0
M  V30 11784 C 1134.63 2.20511 0.767918 0
M  V30 11785 C 1135.61 1.15783 1.24612 0
M  V30 11786 O 1136.8 1.44179 1.301 0
M  V30 11787 C 1133.93 2.83844 2.00125 0
M  V30 11788 C 1132.88 3.94528 1.65926 0
M  V30 11789 C 1132.21 4.44866 2.96646 0
M  V30 11790 C 1133.51 5.14583 0.894497 0
M  V30 11791 H 1135.2 2.98464 0.236607 0
M  V30 11792 H 1132.75 1.43561 0.112363 0
M  V30 11793 H 1134.7 3.27109 2.65664 0
M  V30 11794 H 1133.43 2.03246 2.55654 0
M  V30 11795 H 1132.08 3.51904 1.02759 0
M  V30 11796 H 1131.73 3.61071 3.50196 0
M  V30 11797 H 1131.43 5.19531 2.74521 0
M  V30 11798 H 1132.96 4.90812 3.6323 0
M  V30 11799 H 1134.37 5.54601 1.45228 0
M  V30 11800 H 1132.77 5.95105 0.772636 0
M  V30 11801 H 1133.84 4.84773 -0.110986 0
M  V30 11802 N 1135.18 -0.111886 1.57202 0
M  V30 11803 C 1136.11 -1.16749 1.96074 0
M  V30 11804 C 1137.09 -1.39735 0.831438 0
M  V30 11805 O 1138.28 -1.53772 1.09025 0
M  V30 11806 C 1135.4 -2.51996 2.26308 0
M  V30 11807 C 1134.45 -2.45394 3.48832 0
M  V30 11808 S 1135.28 -1.8867 5.01163 0
M  V30 11809 C 1136.44 -3.25576 5.34557 0
M  V30 11810 H 1136.67 -0.836033 2.85303 0
M  V30 11811 H 1134.2 -0.318922 1.5107 0
M  V30 11812 H 1136.16 -3.29813 2.44405 0
M  V30 11813 H 1134.82 -2.82317 1.3768 0
M  V30 11814 H 1134.02 -3.45038 3.67376 0
M  V30 11815 H 1133.62 -1.75702 3.30159 0
M  V30 11816 H 1135.91 -4.21807 5.30174 0
M  V30 11817 H 1136.85 -3.11853 6.35731 0
M  V30 11818 H 1137.26 -3.24333 4.62026 0
M  V30 11819 N 1136.66 -1.52894 -0.382264 0
M  V30 11820 C 1137.62 -1.77497 -1.45008 0
M  V30 11821 C 1138.62 -0.64509 -1.47293 0
M  V30 11822 O 1139.81 -0.913192 -1.48346 0
M  V30 11823 C 1136.94 -1.88188 -2.8425 0
M  V30 11824 H 1138.14 -2.72849 -1.24473 0
M  V30 11825 H 1135.69 -1.43717 -0.61441 0
M  V30 11826 H 1136.42 -0.948451 -3.10121 0
M  V30 11827 H 1136.21 -2.70353 -2.83992 0
M  V30 11828 H 1137.7 -2.08873 -3.6161 0
M  V30 11829 N 1138.14 0.641106 -1.43971 0
M  V30 11830 C 1139.36 1.43324 -1.4991 0
M  V30 11831 C 1139.79 1.87705 -0.121908 0
M  V30 11832 O 1139.15 1.58127 0.886875 0
M  V30 11833 C 1139.19 2.63637 -2.46025 0
M  V30 11834 O 1138.3 3.63123 -1.95488 0
M  V30 11835 H 1137.64 0.429252 -0.506595 0
M  V30 11836 H 1140.17 0.783427 -1.89007 0
M  V30 11837 H 1140.18 3.11304 -2.63731 0
M  V30 11838 H 1138.85 2.30678 -3.46064 0
M  V30 11839 H 1137.43 3.22332 -1.87501 0
M  V30 11840 N 1139.62 1.30703 0.880598 0
M  V30 11841 C 1140.89 1.1043 1.61445 0
M  V30 11842 C 1141.27 -0.344837 2.08264 0
M  V30 11843 O 1140.62 -1.33711 1.85293 0
M  V30 11844 C 1140.83 2.10908 2.78063 0
M  V30 11845 C 1142.18 2.42861 3.48287 0
M  V30 11846 O 1143.2 2.09252 2.88257 0
M  V30 11847 O 1142.06 3.00369 4.56553 0
M  V30 11848 H 1139.16 0.424419 0.709787 0
M  V30 11849 H 1141.7 1.42144 0.926991 0
M  V30 11850 H 1140.47 3.08431 2.40803 0
M  V30 11851 H 1140.1 1.80036 3.54503 0
M  V30 11852 N 1141.09 -1.09351 1.1349 0
M  V30 11853 C 1142.04 -2.14179 0.781739 0
M  V30 11854 C 1143.03 -1.59325 -0.224575 0
M  V30 11855 O 1144.22 -1.76977 -0.0283747 0
M  V30 11856 C 1141.35 -3.42386 0.250278 0
M  V30 11857 C 1140.43 -4.04147 1.28555 0
M  V30 11858 N 1140.83 -4.40451 2.4867 0
M  V30 11859 C 1139.12 -4.31356 1.13351 0
M  V30 11860 C 1139.82 -4.89115 3.14867 0
M  V30 11861 N 1138.8 -4.86618 2.42289 0
M  V30 11862 H 1142.6 -2.40055 1.69561 0
M  V30 11863 H 1140.12 -1.26587 1.01733 0
M  V30 11864 H 1142.11 -4.16895 -0.0209767 0
M  V30 11865 H 1140.77 -3.17965 -0.657904 0
M  V30 11866 H 1141.78 -4.31789 2.8597 0
M  V30 11867 H 1138.46 -4.16536 0.28355 0
M  V30 11868 H 1139.85 -5.26663 4.17224 0
M  V30 11869 N 1142.57 -0.928524 -1.27343 0
M  V30 11870 C 1143.5 -0.445627 -2.29208 0
M  V30 11871 C 1144.48 0.494508 -1.62753 0
M  V30 11872 O 1145.67 0.399082 -1.90055 0
M  V30 11873 C 1142.8 0.301684 -3.45987 0
M  V30 11874 C 1141.75 -0.550695 -4.24442 0
M  V30 11875 C 1141.08 0.325833 -5.33706 0
M  V30 11876 C 1142.38 -1.81559 -4.89728 0
M  V30 11877 H 1144.07 -1.29696 -2.69851 0
M  V30 11878 H 1141.62 -0.625085 -1.29725 0
M  V30 11879 H 1143.57 0.650455 -4.1635 0
M  V30 11880 H 1142.29 1.18705 -3.04264 0
M  V30 11881 H 1140.95 -0.882185 -3.55827 0
M  V30 11882 H 1140.6 1.21018 -4.88225 0
M  V30 11883 H 1140.3 -0.240994 -5.87106 0
M  V30 11884 H 1141.83 0.670156 -6.06911 0
M  V30 11885 H 1143.24 -1.53483 -5.52373 0
M  V30 11886 H 1141.64 -2.32598 -5.53189 0
M  V30 11887 H 1142.71 -2.53461 -4.13383 0
M  V30 11888 N 1144.05 1.41491 -0.694123 0
M  V30 11889 C 1145.33 1.95004 -0.152571 0
M  V30 11890 C 1145.71 1.63357 1.33707 0
M  V30 11891 O 1145.05 0.939815 2.08278 0
M  V30 11892 C 1145.26 3.46186 -0.44232 0
M  V30 11893 C 1146.61 4.22991 -0.369279 0
M  V30 11894 O 1147.64 3.54198 -0.377152 0
M  V30 11895 O 1146.5 5.45514 -0.328145 0
M  V30 11896 H 1143.59 0.826879 -0.0141253 0
M  V30 11897 H 1146.14 1.51216 -0.770183 0
M  V30 11898 H 1144.91 3.62497 -1.47348 0
M  V30 11899 H 1144.53 3.97064 0.206337 0
M  V30 11900 N 1145.53 0.438773 1.51369 0
M  V30 11901 C 1146.76 -0.125847 2.06517 0
M  V30 11902 C 1147.17 -1.36336 1.30606 0
M  V30 11903 O 1146.53 -1.78792 0.36603 0
M  V30 11904 C 1146.58 -0.446619 3.5873 0
M  V30 11905 O 1146.3 0.741781 4.31775 0
M  V30 11906 C 1147.8 -1.06175 4.30397 0
M  V30 11907 H 1145.02 -0.00728868 0.67096 0
M  V30 11908 H 1147.56 0.618267 1.9493 0
M  V30 11909 H 1145.72 -1.14064 3.70227 0
M  V30 11910 H 1146.13 0.466907 5.22418 0
M  V30 11911 H 1147.61 -1.23619 5.3798 0
M  V30 11912 H 1148.08 -2.04317 3.88782 0
M  V30 11913 H 1148.69 -0.40708 4.23347 0
M  V30 11914 N 1147.01 -1.56678 0.170181 0
M  V30 11915 C 1148.42 -1.83452 -0.346742 0
M  V30 11916 C 1148.77 -1.08993 -1.63141 0
M  V30 11917 O 1147.89 -0.342607 -2.13671 0
M  V30 11918 C 1148.49 -3.32779 -0.635882 0
M  V30 11919 C 1147.05 -3.60052 -1.09725 0
M  V30 11920 C 1146.19 -2.76983 -0.132516 0
M  V30 11921 H 1149.14 -1.53719 0.394465 0
M  V30 11922 H 1149.17 -3.50195 -1.48806 0
M  V30 11923 H 1148.68 -3.86944 0.299291 0
M  V30 11924 H 1146.78 -3.11297 -2.04756 0
M  V30 11925 H 1146.89 -4.68393 -1.00719 0
M  V30 11926 H 1145.26 -2.46794 -0.62966 0
M  V30 11927 H 1146.04 -3.33929 0.796658 0
M  V30 11928 N 1148.48 0.103547 -1.57259 0
M  V30 11929 C 1149.42 1.15707 -1.9669 0
M  V30 11930 C 1150.39 1.39292 -0.838837 0
M  V30 11931 O 1151.58 1.53192 -1.09839 0
M  V30 11932 C 1148.71 2.50793 -2.27642 0
M  V30 11933 C 1147.75 2.43541 -3.50129 0
M  V30 11934 S 1148.58 1.86009 -5.02156 0
M  V30 11935 C 1149.74 3.22737 -5.36276 0
M  V30 11936 H 1149.97 0.820891 -2.85742 0
M  V30 11937 H 1147.51 0.310906 -1.51237 0
M  V30 11938 H 1149.46 3.28512 -2.46151 0
M  V30 11939 H 1148.13 2.81583 -1.39176 0
M  V30 11940 H 1147.32 3.43085 -3.692 0
M  V30 11941 H 1146.92 1.73948 -3.31086 0
M  V30 11942 H 1149.21 4.1899 -5.32404 0
M  V30 11943 H 1150.16 3.08477 -6.37375 0
M  V30 11944 H 1150.56 3.21878 -4.6374 0
M  V30 11945 N 1149.96 1.53094 0.37415 0
M  V30 11946 C 1150.89 1.81901 1.46404 0
M  V30 11947 C 1151.87 0.671949 1.56265 0
M  V30 11948 O 1153.06 0.920978 1.70973 0
M  V30 11949 C 1150.19 2.00123 2.83845 0
M  V30 11950 C 1149.14 3.15864 2.88814 0
M  V30 11951 C 1148.47 3.19364 4.28848 0
M  V30 11952 C 1149.77 4.54633 2.57112 0
M  V30 11953 H 1151.46 2.73172 1.22546 0
M  V30 11954 H 1149.01 1.31444 0.588087 0
M  V30 11955 H 1150.96 2.18859 3.6011 0
M  V30 11956 H 1149.68 1.05555 3.09072 0
M  V30 11957 H 1148.34 2.96935 2.15 0
M  V30 11958 H 1147.99 2.2245 4.51137 0
M  V30 11959 H 1147.69 3.97123 4.3309 0
M  V30 11960 H 1149.22 3.40273 5.06997 0
M  V30 11961 H 1150.63 4.73587 3.23091 0
M  V30 11962 H 1149.03 5.34569 2.72683 0
M  V30 11963 H 1150.1 4.60331 1.52392 0
M  V30 11964 N 1151.44 -0.633461 1.44309 0
M  V30 11965 C 1152.86 -0.951379 1.28144 0
M  V30 11966 C 1153.06 -2.00344 0.215512 0
M  V30 11967 O 1152.11 -2.49321 -0.399389 0
M  V30 11968 C 1153.42 -1.41686 2.65227 0
M  V30 11969 C 1154.97 -1.53247 2.72918 0
M  V30 11970 C 1155.45 -2.03179 4.10466 0
M  V30 11971 N 1156.94 -2.10453 4.1263 0
M  V30 11972 C 1157.67 -2.50254 5.15907 0
M  V30 11973 N 1157.17 -2.89209 6.29547 0
M  V30 11974 N 1158.96 -2.50368 5.03262 0
M  V30 11975 H 1151.11 0.0623574 2.12308 0
M  V30 11976 H 1153.38 -0.0347244 0.947364 0
M  V30 11977 H 1153.08 -0.71814 3.4429 0
M  V30 11978 H 1152.96 -2.3883 2.91959 0
M  V30 11979 H 1155.34 -2.22216 1.94176 0
M  V30 11980 H 1155.42 -0.544836 2.4993 0
M  V30 11981 H 1155.07 -1.34806 4.89683 0
M  V30 11982 H 1155 -3.02809 4.3083 0
M  V30 11983 H 1157.49 -1.83042 3.30612 0
M  V30 11984 H 1157.8 -3.18386 7.04166 0
M  V30 11985 H 1156.15 -2.86966 6.32989 0
M  V30 11986 H 1159.34 -2.19324 4.13539 0
M  V30 11987 H 1159.51 -2.81062 5.83873 0
M  V30 11988 N 1152.92 -1.31168 -0.873655 0
M  V30 11989 C 1154.14 -1.23728 -1.66452 0
M  V30 11990 C 1154.57 0.194869 -1.87088 0
M  V30 11991 O 1153.93 1.1397 -1.40998 0
M  V30 11992 C 1153.97 -1.98285 -3.0119 0
M  V30 11993 O 1153.08 -1.31767 -3.90783 0
M  V30 11994 H 1152.42 -0.427362 -0.508191 0
M  V30 11995 H 1154.95 -1.73176 -1.08955 0
M  V30 11996 H 1154.96 -2.0774 -3.51153 0
M  V30 11997 H 1153.63 -3.02437 -2.8549 0
M  V30 11998 H 1152.21 -1.3074 -3.4923 0
M  V30 11999 N 1154.4 1.08748 -1.14068 0
M  V30 12000 C 1155.64 1.80707 -0.904947 0
M  V30 12001 C 1155.97 1.86478 0.570167 0
M  V30 12002 O 1155.24 1.35536 1.41445 0
M  V30 12003 H 1153.82 0.669261 -0.331811 0
M  V30 12004 H 1156.48 1.31494 -1.43859 0
M  V30 12005 H 1155.57 2.83653 -1.30182 0
M  V30 12006 N 1155.87 0.935264 1.26849 0
M  V30 12007 C 1156.82 0.430895 2.28574 0
M  V30 12008 C 1157.82 -0.488739 1.62196 0
M  V30 12009 O 1159.02 -0.367605 1.76206 0
M  V30 12010 H 1155.4 0.120793 0.742235 0
M  V30 12011 H 1157.37 1.3015 2.68521 0
M  V30 12012 C 1156.12 -0.294053 3.46454 0
M  V30 12013 H 1155.44 0.404416 3.97749 0
M  V30 12014 H 1156.88 -0.611272 4.19571 0
M  V30 12015 C 1155.34 -1.50975 3.01178 0
M  V30 12016 O 1155.87 -2.60826 3.05504 0
M  V30 12017 N 1154.08 -1.36423 2.56587 0
M  V30 12018 H 1153.62 -0.470483 2.53267 0
M  V30 12019 H 1153.58 -2.17886 2.26656 0
M  V30 12020 N 1157.35 -1.41121 0.701616 0
M  V30 12021 C 1158.28 -2.33436 0.0545974 0
M  V30 12022 C 1159.26 -1.52144 -0.760662 0
M  V30 12023 O 1160.45 -1.80661 -0.712414 0
M  V30 12024 C 1157.58 -3.36015 -0.878117 0
M  V30 12025 C 1156.53 -4.27664 -0.169511 0
M  V30 12026 C 1155.86 -5.20666 -1.21699 0
M  V30 12027 C 1157.16 -5.13254 0.967859 0
M  V30 12028 H 1158.85 -2.87791 0.825637 0
M  V30 12029 H 1156.4 -1.38377 0.398484 0
M  V30 12030 H 1158.35 -3.99526 -1.34004 0
M  V30 12031 H 1157.08 -2.80024 -1.68089 0
M  V30 12032 H 1155.73 -3.65586 0.272441 0
M  V30 12033 H 1155.38 -4.60987 -2.01246 0
M  V30 12034 H 1155.08 -5.82822 -0.747836 0
M  V30 12035 H 1156.61 -5.87053 -1.6793 0
M  V30 12036 H 1158.02 -5.70298 0.585944 0
M  V30 12037 H 1156.42 -5.84381 1.3645 0
M  V30 12038 H 1157.49 -4.5006 1.80483 0
M  V30 12039 N 1158.83 -0.446794 -1.51134 0
M  V30 12040 C 1159.78 0.359865 -2.27977 0
M  V30 12041 C 1160.75 1.0086 -1.31972 0
M  V30 12042 O 1161.93 1.02569 -1.60886 0
M  V30 12043 C 1159.07 1.44978 -3.1317 0
M  V30 12044 C 1158.19 0.818243 -4.2418 0
M  V30 12045 C 1157.32 1.884 -4.96668 0
M  V30 12046 C 1156.36 1.2314 -5.99586 0
M  V30 12047 N 1155.5 2.23894 -6.65444 0
M  V30 12048 H 1160.34 -0.301775 -2.96468 0
M  V30 12049 H 1157.87 -0.160666 -1.4622 0
M  V30 12050 H 1159.83 2.09308 -3.60896 0
M  V30 12051 H 1158.46 2.08092 -2.46775 0
M  V30 12052 H 1157.51 0.0629889 -3.80348 0
M  V30 12053 H 1158.83 0.301885 -4.97886 0
M  V30 12054 H 1157.98 2.6037 -5.4799 0
M  V30 12055 H 1156.72 2.43411 -4.22614 0
M  V30 12056 H 1155.72 0.497215 -5.47547 0
M  V30 12057 H 1156.95 0.688505 -6.75601 0
M  V30 12058 H 1154.89 2.77967 -5.94197 0
M  V30 12059 H 1154.81 1.77176 -7.34945 0
M  V30 12060 H 1156.08 2.95318 -7.21393 0
M  V30 12061 N 1160.31 1.56586 -0.178487 0
M  V30 12062 C 1161.56 1.96709 0.4637 0
M  V30 12063 C 1161.88 1.06586 1.63292 0
M  V30 12064 O 1161.15 0.133683 1.95443 0
M  V30 12065 H 1159.73 0.726381 0.174299 0
M  V30 12066 H 1162.39 1.9314 -0.261345 0
M  V30 12067 H 1161.49 3.01164 0.818934 0
M  V30 12068 N 1161.79 -0.095206 1.57312 0
M  V30 12069 C 1163.2 -0.449411 1.53142 0
M  V30 12070 C 1163.4 -1.80523 0.895187 0
M  V30 12071 O 1162.46 -2.47746 0.487649 0
M  V30 12072 C 1163.77 -0.412002 2.97864 0
M  V30 12073 C 1165.32 -0.493866 3.09079 0
M  V30 12074 C 1165.79 -0.486606 4.55408 0
M  V30 12075 N 1167.29 -0.547363 4.59955 0
M  V30 12076 C 1168.02 -0.563582 5.70624 0
M  V30 12077 N 1167.52 -0.536015 6.90723 0
M  V30 12078 N 1169.31 -0.608385 5.58798 0
M  V30 12079 H 1161.46 0.792869 1.97047 0
M  V30 12080 H 1163.72 0.295106 0.900898 0
M  V30 12081 H 1163.43 0.517064 3.47878 0
M  V30 12082 H 1163.3 -1.23102 3.56547 0
M  V30 12083 H 1165.69 -1.41335 2.59053 0
M  V30 12084 H 1165.77 0.353286 2.53349 0
M  V30 12085 H 1165.42 0.428935 5.06086 0
M  V30 12086 H 1165.35 -1.35097 5.08976 0
M  V30 12087 H 1167.84 -0.573867 3.73517 0
M  V30 12088 H 1168.15 -0.551671 7.70828 0
M  V30 12089 H 1166.49 -0.503064 6.93177 0
M  V30 12090 H 1169.69 -0.627451 4.63876 0
M  V30 12091 H 1169.86 -0.617556 6.45051 0
M  V30 12092 N 1163.26 -1.53291 -0.366026 0
M  V30 12093 C 1164.54 -1.60055 -1.12436 0
M  V30 12094 C 1164.92 -0.407811 -2.07123 0
M  V30 12095 O 1164.27 0.601977 -2.20428 0
M  V30 12096 C 1164.48 -2.95062 -1.86385 0
M  V30 12097 C 1165.83 -3.49623 -2.40934 0
M  V30 12098 O 1166.85 -2.97088 -1.96512 0
M  V30 12099 O 1165.71 -4.41461 -3.2214 0
M  V30 12100 H 1162.8 -0.646476 -0.51575 0
M  V30 12101 H 1165.35 -1.65632 -0.369326 0
M  V30 12102 H 1164.12 -3.73312 -1.17277 0
M  V30 12103 H 1163.75 -2.92973 -2.68798 0
M  V30 12104 N 1164.74 0.6258 -1.44643 0
M  V30 12105 C 1165.99 1.3873 -1.47925 0
M  V30 12106 C 1166.32 1.93868 -0.113469 0
M  V30 12107 O 1165.6 1.73976 0.869639 0
M  V30 12108 C 1165.88 2.54867 -2.54391 0
M  V30 12109 C 1165.73 2.05044 -4.00346 0
M  V30 12110 C 1167.05 3.57043 -2.57309 0
M  V30 12111 H 1164.17 0.503087 -0.538584 0
M  V30 12112 H 1166.81 0.707102 -1.76352 0
M  V30 12113 H 1164.96 3.12894 -2.30281 0
M  V30 12114 H 1166.63 1.51807 -4.35606 0
M  V30 12115 H 1164.88 1.36185 -4.11869 0
M  V30 12116 H 1165.55 2.88681 -4.70497 0
M  V30 12117 H 1168.02 3.08826 -2.78865 0
M  V30 12118 H 1166.9 4.35818 -3.33698 0
M  V30 12119 H 1167.16 4.11464 -1.61708 0
M  V30 12120 N 1166.22 1.31629 0.866686 0
M  V30 12121 C 1167.47 1.21683 1.62238 0
M  V30 12122 C 1167.8 -0.223767 1.92907 0
M  V30 12123 O 1167.07 -1.15761 1.563 0
M  V30 12124 C 1167.36 2.06443 2.95048 0
M  V30 12125 C 1167.21 3.58818 2.71237 0
M  V30 12126 C 1168.53 1.91634 3.96187 0
M  V30 12127 H 1165.65 0.443389 0.588707 0
M  V30 12128 H 1168.29 1.61453 1.00164 0
M  V30 12129 H 1166.44 1.72654 3.48027 0
M  V30 12130 H 1168.11 4.0276 2.24905 0
M  V30 12131 H 1166.36 3.82085 2.05411 0
M  V30 12132 H 1167.03 4.13436 3.65752 0
M  V30 12133 H 1169.5 2.21209 3.52428 0
M  V30 12134 H 1168.38 2.53236 4.86993 0
M  V30 12135 H 1168.64 0.880564 4.33242 0
M  V30 12136 N 1167.7 -1.08142 1.14644 0
M  V30 12137 C 1169.12 -1.32656 0.887388 0
M  V30 12138 C 1169.32 -1.95942 -0.470012 0
M  V30 12139 O 1168.37 -2.21417 -1.21371 0
M  V30 12140 C 1169.68 -2.22549 2.02219 0
M  V30 12141 C 1171.23 -2.36021 2.0558 0
M  V30 12142 C 1171.71 -3.29257 3.18361 0
M  V30 12143 N 1173.2 -3.36835 3.17957 0
M  V30 12144 C 1173.93 -4.09017 4.01862 0
M  V30 12145 N 1173.43 -4.83882 4.95812 0
M  V30 12146 N 1175.22 -4.04875 3.89913 0
M  V30 12147 H 1167.37 -0.654457 2.02066 0
M  V30 12148 H 1169.64 -0.350947 0.880648 0
M  V30 12149 H 1169.34 -1.83296 3.00159 0
M  V30 12150 H 1169.22 -3.23027 1.94765 0
M  V30 12151 H 1171.6 -2.74531 1.08245 0
M  V30 12152 H 1171.68 -1.35275 2.17105 0
M  V30 12153 H 1171.33 -2.91468 4.15944 0
M  V30 12154 H 1171.26 -4.29938 3.04074 0
M  V30 12155 H 1173.75 -2.83465 2.49912 0
M  V30 12156 H 1174.06 -5.3643 5.56294 0
M  V30 12157 H 1172.41 -4.82926 4.99808 0
M  V30 12158 H 1175.6 -3.45496 3.15833 0
M  V30 12159 H 1175.77 -4.60866 4.55529 0
M  V30 12160 N 1169.18 -0.941978 -1.26351 0
M  V30 12161 C 1170.42 -0.600372 -1.94338 0
M  V30 12162 C 1170.78 0.851343 -1.7254 0
M  V30 12163 O 1170.07 1.60116 -1.0523 0
M  V30 12164 C 1170.27 -0.879481 -3.4641 0
M  V30 12165 C 1170.09 -2.35678 -3.82996 0
M  V30 12166 C 1168.86 -3.01208 -4.05712 0
M  V30 12167 C 1171.06 -3.33531 -3.91486 0
M  V30 12168 N 1169.04 -4.38942 -4.29189 0
M  V30 12169 C 1170.42 -4.56525 -4.19506 0
M  V30 12170 C 1172.47 -3.28544 -3.74117 0
M  V30 12171 C 1171.17 -5.75153 -4.31962 0
M  V30 12172 C 1173.2 -4.46498 -3.87806 0
M  V30 12173 C 1172.56 -5.68275 -4.16225 0
M  V30 12174 H 1168.66 -0.270078 -0.733881 0
M  V30 12175 H 1171.24 -1.21155 -1.52413 0
M  V30 12176 H 1169.42 -0.297345 -3.8726 0
M  V30 12177 H 1171.15 -0.499062 -4.01611 0
M  V30 12178 H 1167.9 -2.51823 -4.01101 0
M  V30 12179 H 1168.33 -5.10236 -4.44959 0
M  V30 12180 H 1172.97 -2.35451 -3.51173 0
M  V30 12181 H 1170.69 -6.68699 -4.53727 0
M  V30 12182 H 1174.27 -4.44173 -3.75768 0
M  V30 12183 H 1173.15 -6.58024 -4.26584 0
M  V30 12184 N 1170.66 1.40747 -0.709091 0
M  V30 12185 C 1171.6 2.30741 -0.0523584 0
M  V30 12186 C 1172.57 1.4784 0.757145 0
M  V30 12187 O 1173.76 1.76595 0.72242 0
M  V30 12188 C 1170.9 3.34 0.868203 0
M  V30 12189 C 1170.01 4.31972 0.0488686 0
M  V30 12190 C 1169.15 5.223 0.968311 0
M  V30 12191 C 1168.18 6.11934 0.142682 0
M  V30 12192 N 1167.32 6.947 1.01665 0
M  V30 12193 H 1172.16 2.86338 -0.825509 0
M  V30 12194 H 1169.7 1.41013 -0.418785 0
M  V30 12195 H 1171.66 3.92431 1.41611 0
M  V30 12196 H 1170.29 2.79921 1.6076 0
M  V30 12197 H 1169.34 3.75377 -0.616137 0
M  V30 12198 H 1170.65 4.95291 -0.590625 0
M  V30 12199 H 1169.8 5.85631 1.58498 0
M  V30 12200 H 1168.54 4.5924 1.64164 0
M  V30 12201 H 1167.55 5.47639 -0.486965 0
M  V30 12202 H 1168.77 6.77052 -0.527046 0
M  V30 12203 H 1166.72 6.34236 1.67575 0
M  V30 12204 H 1166.64 7.54759 0.433045 0
M  V30 12205 H 1167.9 7.62487 1.6197 0
M  V30 12206 N 1172.13 0.454803 1.50895 0
M  V30 12207 C 1173.38 -0.105927 2.02523 0
M  V30 12208 C 1173.71 -1.40825 1.33724 0
M  V30 12209 O 1172.99 -1.89038 0.457683 0
M  V30 12210 C 1173.27 -0.306635 3.58792 0
M  V30 12211 C 1173.12 1.01556 4.38185 0
M  V30 12212 C 1174.44 -1.06858 4.2693 0
M  V30 12213 H 1171.56 -0.0370232 0.736069 0
M  V30 12214 H 1174.2 0.597215 1.8037 0
M  V30 12215 H 1172.35 -0.905563 3.77799 0
M  V30 12216 H 1174.03 1.64981 4.30789 0
M  V30 12217 H 1172.27 1.61608 4.02574 0
M  V30 12218 H 1172.94 0.828959 5.4574 0
M  V30 12219 H 1175.42 -0.561086 4.123 0
M  V30 12220 H 1174.29 -1.1778 5.36115 0
M  V30 12221 H 1174.55 -2.10111 3.8898 0
M  V30 12222 N 1173.61 -1.56489 0.186789 0
M  V30 12223 C 1174.84 -2.01722 -0.459993 0
M  V30 12224 C 1175.25 -1.06697 -1.5576 0
M  V30 12225 O 1174.61 -0.0704212 -1.82364 0
M  V30 12226 C 1174.66 -3.46693 -1.02401 0
M  V30 12227 O 1174.38 -4.3809 0.0297916 0
M  V30 12228 C 1175.88 -4.07403 -1.7475 0
M  V30 12229 H 1173.1 -0.660845 -0.116298 0
M  V30 12230 H 1175.65 -2.02389 0.293059 0
M  V30 12231 H 1173.8 -3.46752 -1.72749 0
M  V30 12232 H 1174.22 -5.23057 -0.388821 0
M  V30 12233 H 1175.69 -5.10718 -2.09455 0
M  V30 12234 H 1176.17 -3.50383 -2.64818 0
M  V30 12235 H 1176.77 -4.11093 -1.09007 0
M  V30 12236 N 1175.09 0.086862 -1.5736 0
M  V30 12237 C 1176.04 1.12359 -2.03662 0
M  V30 12238 C 1177.03 1.40982 -0.939169 0
M  V30 12239 O 1178.24 1.40566 -1.12433 0
M  V30 12240 H 1174.61 0.379605 -0.649156 0
M  V30 12241 H 1176.58 0.706822 -2.89908 0
M  V30 12242 C 1175.33 2.43327 -2.48369 0
M  V30 12243 H 1174.66 2.22148 -3.324 0
M  V30 12244 H 1176.1 3.14351 -2.84534 0
M  V30 12245 C 1174.55 3.08214 -1.36036 0
M  V30 12246 O 1175.08 3.95659 -0.694063 0
M  V30 12247 N 1173.29 2.68596 -1.10927 0
M  V30 12248 H 1172.84 1.97578 -1.6529 0
M  V30 12249 H 1172.8 3.12336 -0.359679 0
M  V30 12250 N 1176.57 1.53483 0.357892 0
M  V30 12251 C 1177.52 1.81143 1.45911 0
M  V30 12252 C 1178.51 0.681002 1.55109 0
M  V30 12253 O 1179.72 0.864086 1.57904 0
M  V30 12254 H 1176.09 0.573663 0.486225 0
M  V30 12255 H 1178.06 2.733 1.19789 0
M  V30 12256 C 1176.81 2.02509 2.8264 0
M  V30 12257 H 1176.13 2.88938 2.76324 0
M  V30 12258 H 1177.57 2.25837 3.58851 0
M  V30 12259 C 1176.03 0.806412 3.27106 0
M  V30 12260 O 1176.56 -0.00116809 4.017 0
M  V30 12261 N 1174.77 0.627677 2.8374 0
M  V30 12262 H 1174.32 1.28601 2.23203 0
M  V30 12263 H 1174.27 -0.186301 3.13848 0
M  V30 12264 N 1178.05 -0.61812 1.44973 0
M  V30 12265 C 1178.98 -1.74277 1.47318 0
M  V30 12266 C 1179.96 -1.59203 0.330627 0
M  V30 12267 O 1181.14 -1.80909 0.529558 0
M  V30 12268 C 1178.27 -3.11994 1.31823 0
M  V30 12269 C 1177.31 -3.45685 2.49809 0
M  V30 12270 S 1178.15 -3.41704 4.12309 0
M  V30 12271 C 1179.3 -4.82019 3.9926 0
M  V30 12272 H 1179.54 -1.72023 2.42478 0
M  V30 12273 H 1177.07 -0.793867 1.32428 0
M  V30 12274 H 1179.03 -3.9146 1.2357 0
M  V30 12275 H 1177.69 -3.11774 0.381521 0
M  V30 12276 H 1176.88 -4.45931 2.34864 0
M  V30 12277 H 1176.48 -2.73711 2.54869 0
M  V30 12278 H 1178.77 -5.71567 3.63754 0
M  V30 12279 H 1179.72 -5.02019 4.99382 0
M  V30 12280 H 1180.13 -4.57205 3.31095 0
M  V30 12281 N 1179.52 -1.32087 -0.859693 0
M  V30 12282 C 1180.46 -1.16426 -1.97428 0
M  V30 12283 C 1181.47 -0.100582 -1.62489 0
M  V30 12284 O 1182.66 -0.349063 -1.75054 0
M  V30 12285 C 1179.76 -0.758822 -3.30295 0
M  V30 12286 C 1178.93 -1.90971 -3.93508 0
M  V30 12287 C 1177.99 -1.48865 -5.04704 0
M  V30 12288 O 1177.02 -2.1999 -5.2497 0
M  V30 12289 N 1178.22 -0.38182 -5.79243 0
M  V30 12290 H 1180.98 -2.12433 -2.11406 0
M  V30 12291 H 1178.54 -1.24558 -1.03426 0
M  V30 12292 H 1180.54 -0.459643 -4.02081 0
M  V30 12293 H 1179.11 0.109944 -3.12407 0
M  V30 12294 H 1178.33 -2.37566 -3.14573 0
M  V30 12295 H 1179.61 -2.68032 -4.32477 0
M  V30 12296 H 1179.01 0.210268 -5.65309 0
M  V30 12297 H 1177.57 -0.142224 -6.51645 0
M  V30 12298 N 1181 1.07532 -1.15215 0
M  V30 12299 C 1182.42 1.32183 -0.894411 0
M  V30 12300 C 1182.62 1.96188 0.459614 0
M  V30 12301 O 1181.67 2.22057 1.20195 0
M  V30 12302 C 1182.99 2.21473 -2.03397 0
M  V30 12303 C 1184.53 2.34927 -2.06829 0
M  V30 12304 C 1185.01 3.27564 -3.20103 0
M  V30 12305 N 1186.5 3.35144 -3.19738 0
M  V30 12306 C 1187.24 4.0688 -4.04025 0
M  V30 12307 N 1186.73 4.81246 -4.98371 0
M  V30 12308 N 1188.52 4.02802 -3.92055 0
M  V30 12309 H 1180.68 0.643732 -2.0241 0
M  V30 12310 H 1182.94 0.346272 -0.882496 0
M  V30 12311 H 1182.64 1.81701 -3.01127 0
M  V30 12312 H 1182.52 3.2199 -1.96475 0
M  V30 12313 H 1184.91 2.73953 -1.09699 0
M  V30 12314 H 1184.99 1.34121 -2.17819 0
M  V30 12315 H 1184.63 2.89258 -4.17483 0
M  V30 12316 H 1184.56 4.2832 -3.06349 0
M  V30 12317 H 1187.05 2.82135 -2.51412 0
M  V30 12318 H 1187.36 5.33472 -5.59131 0
M  V30 12319 H 1185.71 4.80268 -5.02362 0
M  V30 12320 H 1188.9 3.43816 -3.17661 0
M  V30 12321 H 1189.07 4.58443 -4.57967 0
M  V30 12322 N 1182.48 0.948665 1.2585 0
M  V30 12323 C 1183.89 0.641829 1.75321 0
M  V30 12324 C 1184.24 -0.842903 1.77171 0
M  V30 12325 O 1183.37 -1.65967 1.38867 0
M  V30 12326 C 1183.96 1.15835 3.18383 0
M  V30 12327 C 1182.52 0.901784 3.65438 0
M  V30 12328 C 1181.67 1.30489 2.44679 0
M  V30 12329 H 1184.62 1.12614 1.1182 0
M  V30 12330 H 1184.64 0.515639 3.7699 0
M  V30 12331 H 1184.15 2.23897 3.17004 0
M  V30 12332 H 1182.25 -0.164135 3.72238 0
M  V30 12333 H 1182.37 1.53405 4.53876 0
M  V30 12334 H 1180.73 0.723278 2.44215 0
M  V30 12335 H 1181.51 2.3946 2.45996 0
M  V30 12336 N 1183.96 -1.40369 0.716545 0
M  V30 12337 C 1185.21 -2.00473 0.255959 0
M  V30 12338 C 1185.53 -1.57104 -1.15514 0
M  V30 12339 O 1184.8 -0.810925 -1.78328 0
M  V30 12340 H 1183.38 -0.741357 0.0916427 0
M  V30 12341 H 1186.04 -1.71692 0.922389 0
M  V30 12342 H 1185.14 -3.10752 0.289806 0
M  V30 12343 N 1185.44 -0.462799 -1.50652 0
M  V30 12344 C 1186.68 0.0950445 -2.02277 0
M  V30 12345 C 1187.01 1.40465 -1.34536 0
M  V30 12346 O 1186.27 1.90283 -0.457279 0
M  V30 12347 C 1186.57 0.335294 -3.55824 0
M  V30 12348 C 1186.23 -0.891589 -4.41997 0
M  V30 12349 C 1184.89 -1.22799 -4.65268 0
M  V30 12350 C 1187.25 -1.70885 -4.9239 0
M  V30 12351 C 1184.57 -2.38186 -5.36175 0
M  V30 12352 C 1186.93 -2.85394 -5.64564 0
M  V30 12353 C 1185.59 -3.19458 -5.86091 0
M  V30 12354 H 1184.86 0.0347793 -0.740183 0
M  V30 12355 H 1187.51 -0.61519 -1.8135 0
M  V30 12356 H 1185.81 1.12769 -3.7522 0
M  V30 12357 H 1187.51 0.780752 -3.93326 0
M  V30 12358 H 1184.1 -0.619495 -4.24099 0
M  V30 12359 H 1188.28 -1.46215 -4.74273 0
M  V30 12360 H 1183.54 -2.64862 -5.51052 0
M  V30 12361 H 1187.71 -3.49073 -6.02595 0
M  V30 12362 H 1185.34 -4.08978 -6.40813 0
M  V30 12363 N 1186.91 1.56388 -0.195085 0
M  V30 12364 C 1187.88 2.17859 0.712053 0
M  V30 12365 C 1188.88 1.13304 1.141 0
M  V30 12366 O 1190.07 1.38689 1.05409 0
M  V30 12367 C 1187.2 2.78065 1.97213 0
M  V30 12368 H 1188.39 2.9938 0.176529 0
M  V30 12369 H 1185.95 1.56205 0.0545322 0
M  V30 12370 H 1186.68 2.00342 2.55017 0
M  V30 12371 H 1186.47 3.54603 1.67329 0
M  V30 12372 H 1187.96 3.25266 2.619 0
M  V30 12373 N 1188.39 -0.0785156 1.57404 0
M  V30 12374 C 1189.62 -0.792042 1.9114 0
M  V30 12375 C 1190.04 -1.71458 0.790408 0
M  V30 12376 O 1189.39 -1.80959 -0.236662 0
M  V30 12377 C 1189.44 -1.59138 3.24588 0
M  V30 12378 O 1189.16 -0.705931 4.32375 0
M  V30 12379 C 1190.67 -2.4065 3.72293 0
M  V30 12380 H 1187.89 -0.225566 0.63195 0
M  V30 12381 H 1190.43 -0.0507929 2.04437 0
M  V30 12382 H 1188.58 -2.28498 3.12838 0
M  V30 12383 H 1189 -1.26121 5.09111 0
M  V30 12384 H 1190.47 -2.92204 4.68317 0
M  V30 12385 H 1190.95 -3.1987 3.00965 0
M  V30 12386 H 1191.56 -1.7646 3.86965 0
M  V30 12387 N 1189.87 -1.5367 -0.349747 0
M  V30 12388 C 1190.82 -1.77604 -1.42972 0
M  V30 12389 C 1191.8 -0.631036 -1.48009 0
M  V30 12390 O 1193 -0.890228 -1.52983 0
M  V30 12391 C 1190.13 -1.98354 -2.80198 0
M  V30 12392 C 1189.21 -3.18901 -2.79576 0
M  V30 12393 N 1189.6 -4.40497 -2.48589 0
M  V30 12394 C 1187.9 -3.19945 -3.10727 0
M  V30 12395 C 1188.6 -5.22318 -2.56045 0
M  V30 12396 N 1187.58 -4.5889 -2.91412 0
M  V30 12397 H 1191.38 -2.69215 -1.17901 0
M  V30 12398 H 1188.89 -1.5251 -0.558062 0
M  V30 12399 H 1190.89 -2.13632 -3.58004 0
M  V30 12400 H 1189.55 -1.07981 -3.06219 0
M  V30 12401 H 1190.56 -4.67955 -2.21898 0
M  V30 12402 H 1187.24 -2.39519 -3.41961 0
M  V30 12403 H 1188.63 -6.29352 -2.35299 0
M  V30 12404 N 1191.35 0.610423 -1.45298 0
M  V30 12405 C 1192.31 1.70324 -1.5337 0
M  V30 12406 C 1193.31 1.55393 -0.413492 0
M  V30 12407 O 1194.5 1.60512 -0.676872 0
M  V30 12408 C 1191.63 3.09572 -1.42752 0
M  V30 12409 H 1192.83 1.64535 -2.50736 0
M  V30 12410 H 1190.38 0.825906 -1.32697 0
M  V30 12411 H 1191.11 3.2094 -0.465601 0
M  V30 12412 H 1190.9 3.21817 -2.24 0
M  V30 12413 H 1192.39 3.89178 -1.51427 0
M  V30 12414 N 1192.83 1.32541 0.852676 0
M  V30 12415 C 1193.79 1.21578 1.94297 0
M  V30 12416 C 1194.79 0.138318 1.60204 0
M  V30 12417 O 1195.98 0.388864 1.69804 0
M  V30 12418 C 1193.11 0.870209 3.29606 0
M  V30 12419 H 1194.3 2.18476 2.05446 0
M  V30 12420 H 1191.86 1.16401 1.0431 0
M  V30 12421 H 1192.59 -0.0968698 3.24155 0
M  V30 12422 H 1192.38 1.64924 3.55728 0
M  V30 12423 H 1193.87 0.817874 4.09513 0
M  V30 12424 N 1194.3 -1.0692 1.15784 0
M  V30 12425 C 1195.53 -1.83849 0.959903 0
M  V30 12426 C 1195.95 -1.8169 -0.486873 0
M  V30 12427 O 1195.31 -1.21305 -1.34739 0
M  V30 12428 C 1195.36 -3.28642 1.48414 0
M  V30 12429 O 1194.46 -4.0665 0.686249 0
M  V30 12430 H 1193.81 -0.569115 0.342059 0
M  V30 12431 H 1196.34 -1.34851 1.53871 0
M  V30 12432 H 1196.35 -3.7947 1.49888 0
M  V30 12433 H 1195.02 -3.29529 2.53739 0
M  V30 12434 H 1193.6 -3.65453 0.741501 0
M  V30 12435 N 1195.78 -0.955326 -1.25345 0
M  V30 12436 C 1197.03 -0.606149 -1.92377 0
M  V30 12437 C 1197.34 0.860927 -1.75634 0
M  V30 12438 O 1198.55 1.3201 -2.37246 0
M  V30 12439 C 1197.01 -1.03341 -3.44744 0
M  V30 12440 C 1196.61 -2.52308 -3.70196 0
M  V30 12441 C 1198.36 -0.756797 -4.17699 0
M  V30 12442 C 1196.27 -2.88831 -5.16072 0
M  V30 12443 H 1195.2 -0.222994 -0.720271 0
M  V30 12444 H 1197.85 -1.15987 -1.42194 0
M  V30 12445 H 1196.23 -0.408096 -3.93892 0
M  V30 12446 H 1197.4 -3.19864 -3.31698 0
M  V30 12447 H 1195.72 -2.77448 -3.10502 0
M  V30 12448 H 1198.31 -1.00583 -5.25154 0
M  V30 12449 H 1198.66 0.306794 -4.15168 0
M  V30 12450 H 1199.19 -1.34249 -3.74462 0
M  V30 12451 H 1195.93 -3.9421 -5.23716 0
M  V30 12452 H 1195.45 -2.25948 -5.55614 0
M  V30 12453 H 1197.13 -2.78061 -5.84201 0
M  V30 12454 N 1197.26 1.39987 -0.723979 0
M  V30 12455 C 1198.21 2.32507 -0.0658033 0
M  V30 12456 C 1199.2 1.52484 0.737908 0
M  V30 12457 O 1200.41 1.68225 0.640332 0
M  V30 12458 H 1196.78 0.751996 -0.00247717 0
M  V30 12459 H 1198.76 2.85657 -0.862696 0
M  V30 12460 C 1197.5 3.37509 0.835628 0
M  V30 12461 H 1196.83 3.99157 0.226589 0
M  V30 12462 H 1198.27 4.04722 1.26396 0
M  V30 12463 C 1196.73 2.73665 1.96492 0
M  V30 12464 O 1197.26 2.60649 3.05655 0
M  V30 12465 N 1195.46 2.3192 1.75104 0
M  V30 12466 H 1195.01 2.42707 0.863204 0
M  V30 12467 H 1194.97 1.89542 2.50841 0
M  V30 12468 N 1198.74 0.470782 1.50404 0
M  V30 12469 C 1200.15 0.0155901 1.86693 0
M  V30 12470 C 1200.5 -1.38908 1.38561 0
M  V30 12471 O 1199.63 -2.02971 0.750454 0
M  V30 12472 C 1200.22 0.0215152 3.38793 0
M  V30 12473 C 1198.78 -0.378206 3.74495 0
M  V30 12474 C 1197.93 0.407126 2.74295 0
M  V30 12475 H 1200.88 0.68507 1.43152 0
M  V30 12476 H 1200.9 -0.780717 3.72404 0
M  V30 12477 H 1200.41 1.04397 3.73795 0
M  V30 12478 H 1198.51 -1.40503 3.45094 0
M  V30 12479 H 1198.63 -0.0797643 4.79034 0
M  V30 12480 H 1196.99 -0.139123 2.5432 0
M  V30 12481 H 1197.77 1.42909 3.12141 0
M  V30 12482 N 1200.22 -1.56282 0.203376 0
M  V30 12483 C 1201.45 -2.02198 -0.438572 0
M  V30 12484 C 1201.86 -1.08343 -1.54619 0
M  V30 12485 O 1201.22 -0.0897594 -1.82279 0
M  V30 12486 C 1201.27 -3.4776 -0.987184 0
M  V30 12487 O 1200.99 -4.38034 0.0762552 0
M  V30 12488 C 1202.49 -4.09234 -1.70419 0
M  V30 12489 H 1199.71 -0.662041 -0.109282 0
M  V30 12490 H 1202.25 -2.02067 0.314509 0
M  V30 12491 H 1200.41 -3.48564 -1.69061 0
M  V30 12492 H 1200.82 -5.2344 -0.333322 0
M  V30 12493 H 1202.3 -5.1291 -2.04027 0
M  V30 12494 H 1202.77 -3.53172 -2.61087 0
M  V30 12495 H 1203.38 -4.12226 -1.04641 0
M  V30 12496 N 1201.7 0.070167 -1.57444 0
M  V30 12497 C 1202.61 1.10106 -2.07157 0
M  V30 12498 C 1203.62 1.42293 -1.00143 0
M  V30 12499 O 1204.8 1.52437 -1.31624 0
M  V30 12500 C 1201.86 2.39486 -2.50694 0
M  V30 12501 C 1200.92 2.14255 -3.72012 0
M  V30 12502 C 1200.16 3.37466 -4.13464 0
M  V30 12503 O 1200.38 4.46645 -3.54773 0
M  V30 12504 O 1199.31 3.25583 -5.0624 0
M  V30 12505 H 1203.14 0.70873 -2.95315 0
M  V30 12506 H 1200.72 0.28441 -1.46668 0
M  V30 12507 H 1202.61 3.15625 -2.79212 0
M  V30 12508 H 1201.28 2.78095 -1.65664 0
M  V30 12509 H 1200.19 1.35816 -3.48575 0
M  V30 12510 H 1201.52 1.80525 -4.57899 0
M  V30 12511 N 1203.17 1.53854 0.341593 0
M  V30 12512 C 1204.1 1.84966 1.42513 0
M  V30 12513 C 1205.08 0.704944 1.54805 0
M  V30 12514 O 1206.27 0.957036 1.68981 0
M  V30 12515 C 1203.4 2.06099 2.79536 0
M  V30 12516 C 1202.35 3.21919 2.82049 0
M  V30 12517 C 1201.68 3.28389 4.21977 0
M  V30 12518 C 1202.98 4.59984 2.4741 0
M  V30 12519 H 1204.67 2.7571 1.16724 0
M  V30 12520 H 1202.22 1.32662 0.560073 0
M  V30 12521 H 1204.17 2.26448 3.55386 0
M  V30 12522 H 1202.9 1.12087 3.06764 0
M  V30 12523 H 1201.56 3.01429 2.08653 0
M  V30 12524 H 1201.2 2.3197 4.46317 0
M  V30 12525 H 1200.9 4.0622 4.24569 0
M  V30 12526 H 1202.43 3.50951 4.99666 0
M  V30 12527 H 1203.84 4.80334 3.12973 0
M  V30 12528 H 1202.24 5.40233 2.61282 0
M  V30 12529 H 1203.31 4.6346 1.42594 0
M  V30 12530 N 1204.65 -0.602709 1.4562 0
M  V30 12531 C 1205.9 -1.36359 1.50113 0
M  V30 12532 C 1206.23 -1.93663 0.144297 0
M  V30 12533 O 1205.51 -1.75337 -0.841851 0
M  V30 12534 C 1205.79 -2.50788 2.58413 0
M  V30 12535 C 1205.64 -1.98649 4.03557 0
M  V30 12536 C 1206.96 -3.52905 2.62957 0
M  V30 12537 H 1204.08 -0.494455 0.54652 0
M  V30 12538 H 1206.72 -0.678957 1.77455 0
M  V30 12539 H 1204.87 -3.09191 2.3523 0
M  V30 12540 H 1206.54 -1.44857 4.37966 0
M  V30 12541 H 1204.79 -1.29615 4.13984 0
M  V30 12542 H 1205.46 -2.81159 4.7503 0
M  V30 12543 H 1207.93 -3.0435 2.83743 0
M  V30 12544 H 1206.81 -4.30454 3.40589 0
M  V30 12545 H 1207.07 -4.0884 1.68233 0
M  V30 12546 N 1206.13 -1.32992 -0.845635 0
M  V30 12547 C 1207.54 -1.21616 -1.41656 0
M  V30 12548 C 1207.89 0.167687 -1.95482 0
M  V30 12549 O 1207.02 1.06692 -1.8827 0
M  V30 12550 C 1207.61 -2.2018 -2.575 0
M  V30 12551 C 1206.17 -2.12664 -3.10565 0
M  V30 12552 C 1205.32 -2.08042 -1.83341 0
M  V30 12553 H 1208.27 -1.44688 -0.651993 0
M  V30 12554 H 1208.29 -1.80558 -3.34931 0
M  V30 12555 H 1207.8 -3.20888 -2.18294 0
M  V30 12556 H 1205.9 -1.15235 -3.54333 0
M  V30 12557 H 1206.02 -3.02902 -3.71197 0
M  V30 12558 H 1204.38 -1.53416 -2.03312 0
M  V30 12559 H 1205.16 -3.10547 -1.46339 0
M  V30 12560 N 1207.61 1.06304 -1.1635 0
M  V30 12561 C 1208.84 1.82534 -0.967725 0
M  V30 12562 C 1209.25 1.82816 0.487338 0
M  V30 12563 O 1208.59 1.24581 1.35001 0
M  V30 12564 C 1208.65 3.30349 -1.4181 0
M  V30 12565 C 1208.31 3.53769 -2.89303 0
M  V30 12566 C 1209.31 3.46826 -3.87308 0
M  V30 12567 C 1207 3.81094 -3.2722 0
M  V30 12568 C 1208.99 3.66874 -5.21232 0
M  V30 12569 C 1206.68 4.00792 -4.61313 0
M  V30 12570 C 1207.68 3.93679 -5.58127 0
M  V30 12571 O 1207.36 4.12839 -6.89796 0
M  V30 12572 H 1207.1 0.582407 -0.343189 0
M  V30 12573 H 1209.65 1.35022 -1.54784 0
M  V30 12574 H 1207.88 3.78722 -0.781456 0
M  V30 12575 H 1209.57 3.88072 -1.18976 0
M  V30 12576 H 1210.33 3.25706 -3.59361 0
M  V30 12577 H 1206.21 3.85739 -2.5244 0
M  V30 12578 H 1209.76 3.61238 -5.96786 0
M  V30 12579 H 1205.65 4.214 -4.8897 0
M  V30 12580 H 1206.42 4.30128 -6.96371 0
M  V30 12581 N 1209.09 0.96196 1.24836 0
M  V30 12582 C 1210.33 0.619489 1.92371 0
M  V30 12583 C 1210.65 -0.847233 1.75633 0
M  V30 12584 O 1209.92 -1.60419 1.12439 0
M  V30 12585 H 1208.5 0.226129 0.711951 0
M  V30 12586 H 1211.17 1.22179 1.5185 0
M  V30 12587 H 1210.26 0.855128 3.00157 0
M  V30 12588 N 1210.56 -1.39601 0.731392 0
M  V30 12589 C 1211.49 -2.33268 0.1041 0
M  V30 12590 C 1212.47 -1.53724 -0.728219 0
M  V30 12591 O 1213.66 -1.82131 -0.673933 0
M  V30 12592 C 1210.79 -3.37802 -0.806646 0
M  V30 12593 C 1209.74 -4.27928 -0.0787588 0
M  V30 12594 C 1209.07 -5.23131 -1.10628 0
M  V30 12595 C 1210.37 -5.11086 1.07651 0
M  V30 12596 H 1212.06 -2.85975 0.886496 0
M  V30 12597 H 1209.61 -1.375 0.427746 0
M  V30 12598 H 1211.56 -4.02278 -1.25499 0
M  V30 12599 H 1210.29 -2.83527 -1.62112 0
M  V30 12600 H 1208.95 -3.64926 0.349926 0
M  V30 12601 H 1208.59 -4.65152 -1.91422 0
M  V30 12602 H 1208.29 -5.84277 -0.624043 0
M  V30 12603 H 1209.82 -5.90483 -1.5544 0
M  V30 12604 H 1211.23 -5.68927 0.706781 0
M  V30 12605 H 1209.63 -5.81356 1.48814 0
M  V30 12606 H 1210.7 -4.46131 1.89988 0
M  V30 12607 N 1212.04 -0.478751 -1.50152 0
M  V30 12608 C 1213.27 0.0732929 -2.0727 0
M  V30 12609 C 1213.69 1.32066 -1.33941 0
M  V30 12610 O 1213.05 1.7707 -0.389367 0
M  V30 12611 C 1213.1 0.332528 -3.59064 0
M  V30 12612 O 1212.2 1.41158 -3.8749 0
M  V30 12613 H 1211.54 -0.0163684 -0.663798 0
M  V30 12614 H 1214.07 -0.671993 -1.9325 0
M  V30 12615 H 1214.08 0.570735 -4.03988 0
M  V30 12616 H 1212.76 -0.578934 -4.11851 0
M  V30 12617 H 1211.34 1.16008 -3.54396 0
M  V30 12618 N 1213.52 1.56172 -0.211661 0
M  V30 12619 C 1214.45 2.22843 0.697375 0
M  V30 12620 C 1215.43 1.19689 1.20866 0
M  V30 12621 O 1216.62 1.48245 1.25447 0
M  V30 12622 C 1213.75 2.90067 1.90993 0
M  V30 12623 C 1212.7 3.99608 1.5329 0
M  V30 12624 C 1212.03 4.54078 2.82343 0
M  V30 12625 C 1213.33 5.17169 0.730333 0
M  V30 12626 H 1215.02 2.99065 0.141533 0
M  V30 12627 H 1212.57 1.43846 0.0666337 0
M  V30 12628 H 1214.52 3.35396 2.55123 0
M  V30 12629 H 1213.24 2.11276 2.49058 0
M  V30 12630 H 1211.9 3.54995 0.915115 0
M  V30 12631 H 1211.55 3.72029 3.38531 0
M  V30 12632 H 1211.25 5.28001 2.57853 0
M  V30 12633 H 1212.77 5.02119 3.47432 0
M  V30 12634 H 1214.19 5.5894 1.2751 0
M  V30 12635 H 1212.59 5.97262 0.582916 0
M  V30 12636 H 1213.66 4.84174 -0.265157 0
M  V30 12637 N 1215 -0.0618163 1.57479 0
M  V30 12638 C 1216.41 -0.416827 1.54061 0
M  V30 12639 C 1216.61 -1.78584 0.933277 0
M  V30 12640 O 1215.67 -2.46656 0.54009 0
M  V30 12641 C 1216.98 -0.348728 2.98671 0
M  V30 12642 C 1218.53 -0.428194 3.10057 0
M  V30 12643 C 1219.01 -0.389898 4.56337 0
M  V30 12644 N 1220.5 -0.449677 4.61012 0
M  V30 12645 C 1221.23 -0.442418 5.71691 0
M  V30 12646 N 1220.73 -0.389381 6.91705 0
M  V30 12647 N 1222.52 -0.489719 5.59963 0
M  V30 12648 H 1214.67 0.834487 1.9532 0
M  V30 12649 H 1216.94 0.314149 0.894435 0
M  V30 12650 H 1216.64 0.590738 3.46703 0
M  V30 12651 H 1216.52 -1.15511 3.59078 0
M  V30 12652 H 1218.9 -1.35808 2.61992 0
M  V30 12653 H 1218.98 0.406946 2.52542 0
M  V30 12654 H 1218.63 0.536186 5.05062 0
M  V30 12655 H 1218.56 -1.24271 5.11727 0
M  V30 12656 H 1221.05 -0.49451 3.74651 0
M  V30 12657 H 1221.36 -0.388042 7.71825 0
M  V30 12658 H 1219.71 -0.355918 6.94088 0
M  V30 12659 H 1222.9 -0.528915 4.65102 0
M  V30 12660 H 1223.07 -0.480592 6.46215 0
M  V30 12661 N 1216.48 -1.54033 -0.333429 0
M  V30 12662 C 1217.41 -1.85719 -1.4153 0
M  V30 12663 C 1218.39 -0.713144 -1.54429 0
M  V30 12664 O 1219.57 -0.965984 -1.68471 0
M  V30 12665 C 1216.7 -2.07578 -2.78439 0
M  V30 12666 C 1215.66 -3.23411 -2.80338 0
M  V30 12667 C 1214.98 -3.30622 -4.2023 0
M  V30 12668 C 1216.28 -4.6129 -2.44968 0
M  V30 12669 H 1217.98 -2.76325 -1.15261 0
M  V30 12670 H 1215.52 -1.32957 -0.55303 0
M  V30 12671 H 1217.48 -2.28329 -3.5418 0
M  V30 12672 H 1216.2 -1.13713 -3.06165 0
M  V30 12673 H 1214.86 -3.02531 -2.07052 0
M  V30 12674 H 1214.51 -2.34333 -4.45081 0
M  V30 12675 H 1214.21 -4.08466 -4.22409 0
M  V30 12676 H 1215.73 -3.53596 -4.97798 0
M  V30 12677 H 1217.14 -4.81987 -3.10421 0
M  V30 12678 H 1215.54 -5.41611 -2.58414 0
M  V30 12679 H 1216.61 -4.6421 -1.40134 0
M  V30 12680 N 1217.95 0.594978 -1.45938 0
M  V30 12681 C 1218.92 1.68688 -1.55168 0
M  V30 12682 C 1219.92 1.54945 -0.429951 0
M  V30 12683 O 1221.11 1.59785 -0.693859 0
M  V30 12684 C 1218.24 3.0804 -1.46027 0
M  V30 12685 H 1219.43 1.61866 -2.52467 0
M  V30 12686 H 1216.99 0.811785 -1.33565 0
M  V30 12687 H 1217.72 3.20428 -0.499614 0
M  V30 12688 H 1217.51 3.19423 -2.27401 0
M  V30 12689 H 1219 3.8755 -1.55546 0
M  V30 12690 N 1219.43 1.33438 0.838571 0
M  V30 12691 C 1220.85 1.12779 1.12929 0
M  V30 12692 C 1221.05 -0.0811188 2.01337 0
M  V30 12693 O 1220.1 -0.761294 2.4075 0
M  V30 12694 C 1221.42 2.41537 1.7911 0
M  V30 12695 C 1222.97 2.47447 1.91674 0
M  V30 12696 C 1223.44 3.76167 2.6127 0
M  V30 12697 N 1224.93 3.7724 2.68783 0
M  V30 12698 C 1225.67 4.7355 3.23323 0
M  V30 12699 N 1225.16 5.80235 3.78549 0
M  V30 12700 N 1226.96 4.61025 3.21578 0
M  V30 12701 H 1219.11 2.10921 0.250187 0
M  V30 12702 H 1221.37 0.931986 0.17351 0
M  V30 12703 H 1221.08 3.30006 1.21609 0
M  V30 12704 H 1220.95 2.53709 2.79127 0
M  V30 12705 H 1223.34 1.59427 2.48328 0
M  V30 12706 H 1223.42 2.39216 0.906058 0
M  V30 12707 H 1223.06 4.64569 2.05275 0
M  V30 12708 H 1222.99 3.81675 3.62811 0
M  V30 12709 H 1225.48 3.00138 2.29621 0
M  V30 12710 H 1225.8 6.49759 4.1837 0
M  V30 12711 H 1224.14 5.83969 3.76836 0
M  V30 12712 H 1227.33 3.76836 2.77691 0
M  V30 12713 H 1227.5 5.36253 3.63781 0
M  V30 12714 N 1220.91 -1.05686 1.16912 0
M  V30 12715 C 1221.84 -2.15268 0.904532 0
M  V30 12716 C 1222.82 -1.69424 -0.151548 0
M  V30 12717 O 1224.01 -1.942 -0.00235371 0
M  V30 12718 C 1221.14 -3.44853 0.411581 0
M  V30 12719 C 1220.09 -4.04237 1.40628 0
M  V30 12720 C 1219.42 -5.29105 0.771479 0
M  V30 12721 C 1220.72 -4.42303 2.77787 0
M  V30 12722 H 1222.41 -2.37659 1.82094 0
M  V30 12723 H 1219.96 -1.14217 0.876947 0
M  V30 12724 H 1221.91 -4.20857 0.213929 0
M  V30 12725 H 1220.63 -3.22099 -0.540352 0
M  V30 12726 H 1219.29 -3.30297 1.59058 0
M  V30 12727 H 1218.94 -5.02652 -0.187133 0
M  V30 12728 H 1218.64 -5.69797 1.43545 0
M  V30 12729 H 1220.16 -6.07801 0.583988 0
M  V30 12730 H 1221.58 -5.09362 2.63103 0
M  V30 12731 H 1219.98 -4.93997 3.40716 0
M  V30 12732 H 1221.05 -3.52877 3.32575 0
M  V30 12733 N 1222.39 -0.968567 -1.24324 0
M  V30 12734 C 1223.63 -0.63879 -1.94162 0
M  V30 12735 C 1223.99 0.81112 -1.74025 0
M  V30 12736 O 1225.19 1.25116 -2.37906 0
M  V30 12737 C 1223.46 -1.00432 -3.42999 0
M  V30 12738 S 1225.02 -0.789227 -4.31644 0
M  V30 12739 H 1221.84 -0.234322 -0.671278 0
M  V30 12740 H 1224.44 -1.2457 -1.50673 0
M  V30 12741 H 1223.15 -2.05643 -3.55161 0
M  V30 12742 H 1222.68 -0.388221 -3.9148 0
M  V30 12743 H 1224.69 0.332976 -4.95082 0
M  V30 12744 N 1223.87 1.39211 -0.738786 0
M  V30 12745 C 1225.09 2.04732 -0.298751 0
M  V30 12746 C 1225.51 1.55706 1.06776 0
M  V30 12747 O 1224.87 0.723605 1.67542 0
M  V30 12748 C 1224.92 3.60288 -0.29574 0
M  V30 12749 O 1224.64 4.07511 -1.60831 0
M  V30 12750 C 1226.14 4.43011 0.159994 0
M  V30 12751 H 1223.36 0.658296 -0.129952 0
M  V30 12752 H 1225.9 1.78186 -1.0035 0
M  V30 12753 H 1224.06 3.85722 0.360146 0
M  V30 12754 H 1224.47 5.01858 -1.52443 0
M  V30 12755 H 1225.95 5.51889 0.110941 0
M  V30 12756 H 1226.42 4.22325 1.20573 0
M  V30 12757 H 1227.03 4.22734 -0.466467 0
M  V30 12758 N 1225.34 0.486708 1.49896 0
M  V30 12759 C 1226.25 -0.304222 2.32619 0
M  V30 12760 C 1227.27 -0.981103 1.43702 0
M  V30 12761 O 1228.45 -0.965639 1.76741 0
M  V30 12762 C 1225.51 -1.36301 3.18783 0
M  V30 12763 C 1224.57 -0.701082 4.23537 0
M  V30 12764 C 1223.81 -1.70943 5.05583 0
M  V30 12765 O 1224.03 -2.93773 4.88931 0
M  V30 12766 O 1222.96 -1.27263 5.88292 0
M  V30 12767 H 1226.79 0.37248 3.01407 0
M  V30 12768 H 1224.37 0.248277 1.47323 0
M  V30 12769 H 1226.26 -1.97594 3.72202 0
M  V30 12770 H 1224.93 -2.0229 2.52706 0
M  V30 12771 H 1223.84 -0.0487926 3.74068 0
M  V30 12772 H 1225.17 -0.0838817 4.92129 0
M  V30 12773 N 1226.82 -1.56058 0.219941 0
M  V30 12774 C 1227.77 -2.21585 -0.707321 0
M  V30 12775 C 1228.77 -1.19473 -1.20094 0
M  V30 12776 O 1229.97 -1.37557 -1.16095 0
M  V30 12777 H 1226.35 -0.710447 -0.246515 0
M  V30 12778 H 1228.32 -2.98111 -0.131214 0
M  V30 12779 C 1227.07 -2.90841 -1.90544 0
M  V30 12780 H 1226.39 -3.6917 -1.53472 0
M  V30 12781 H 1227.83 -3.40092 -2.53206 0
M  V30 12782 C 1226.29 -1.93223 -2.75983 0
M  V30 12783 O 1226.82 -1.44815 -3.74689 0
M  V30 12784 N 1225.02 -1.60907 -2.41986 0
M  V30 12785 H 1224.57 -2.00467 -1.61774 0
M  V30 12786 H 1224.53 -0.958534 -2.99432 0
M  V30 12787 N 1228.3 0.053464 -1.57509 0
M  V30 12788 C 1229.23 1.06151 -2.07977 0
M  V30 12789 C 1230.21 1.3924 -0.977047 0
M  V30 12790 O 1231.4 1.48549 -1.25087 0
M  V30 12791 C 1228.53 2.36969 -2.53895 0
M  V30 12792 C 1227.48 2.18186 -3.6821 0
M  V30 12793 C 1226.81 3.54551 -4.00247 0
M  V30 12794 C 1228.11 1.588 -4.97574 0
M  V30 12795 H 1229.8 0.641483 -2.92447 0
M  V30 12796 H 1227.35 0.307122 -1.40687 0
M  V30 12797 H 1229.3 3.07797 -2.87817 0
M  V30 12798 H 1228.02 2.80986 -1.66476 0
M  V30 12799 H 1226.68 1.49796 -3.34599 0
M  V30 12800 H 1226.33 3.96171 -3.09932 0
M  V30 12801 H 1226.03 3.42816 -4.77232 0
M  V30 12802 H 1227.56 4.2678 -4.36682 0
M  V30 12803 H 1228.97 2.19515 -5.29609 0
M  V30 12804 H 1227.37 1.57711 -5.79006 0
M  V30 12805 H 1228.44 0.551254 -4.81756 0
M  V30 12806 N 1229.78 1.54207 0.325255 0
M  V30 12807 C 1230.71 1.86467 1.40543 0
M  V30 12808 C 1231.69 0.721324 1.54048 0
M  V30 12809 O 1232.88 0.974905 1.67956 0
M  V30 12810 C 1230.01 2.09052 2.77335 0
M  V30 12811 C 1228.96 3.24893 2.78619 0
M  V30 12812 C 1228.29 3.32846 4.1847 0
M  V30 12813 C 1229.59 4.62582 2.42518 0
M  V30 12814 H 1231.28 2.76932 1.13794 0
M  V30 12815 H 1228.83 1.33248 0.545971 0
M  V30 12816 H 1230.78 2.30204 3.52964 0
M  V30 12817 H 1229.5 1.15335 3.05558 0
M  V30 12818 H 1228.16 3.03625 2.05444 0
M  V30 12819 H 1227.81 2.3669 4.43832 0
M  V30 12820 H 1227.51 4.10701 4.20237 0
M  V30 12821 H 1229.03 3.56231 4.95915 0
M  V30 12822 H 1230.45 4.83627 3.07861 0
M  V30 12823 H 1228.84 5.42974 2.55538 0
M  V30 12824 H 1229.91 4.64946 1.3767 0
M  V30 12825 N 1231.26 -0.58723 1.46251 0
M  V30 12826 C 1232.2 -1.69662 1.56472 0
M  V30 12827 C 1233.17 -1.60978 0.409294 0
M  V30 12828 O 1234.36 -1.80257 0.625451 0
M  V30 12829 C 1231.5 -3.07996 1.55669 0
M  V30 12830 C 1230.61 -3.27337 2.81913 0
M  V30 12831 C 1229.75 -4.55894 2.72644 0
M  V30 12832 C 1228.79 -4.68562 3.93847 0
M  V30 12833 N 1227.92 -5.8844 3.82991 0
M  V30 12834 H 1232.76 -1.60262 2.51237 0
M  V30 12835 H 1230.3 -0.781148 1.24645 0
M  V30 12836 H 1232.26 -3.88058 1.53189 0
M  V30 12837 H 1230.89 -3.16303 0.6444 0
M  V30 12838 H 1229.94 -2.4091 2.94392 0
M  V30 12839 H 1231.25 -3.32567 3.71754 0
M  V30 12840 H 1230.41 -5.44178 2.68244 0
M  V30 12841 H 1229.15 -4.53094 1.80435 0
M  V30 12842 H 1228.15 -3.78696 3.98584 0
M  V30 12843 H 1229.38 -4.73144 4.87146 0
M  V30 12844 H 1227.32 -5.86647 2.93566 0
M  V30 12845 H 1227.24 -5.94919 4.66484 0
M  V30 12846 H 1228.51 -6.79168 3.82559 0
M  V30 12847 N 1232.74 -1.33881 -0.831482 0
M  V30 12848 C 1234.15 -1.23112 -1.40358 0
M  V30 12849 C 1234.5 0.146944 -1.95649 0
M  V30 12850 O 1233.62 1.04689 -1.89391 0
M  V30 12851 C 1234.22 -2.22899 -2.5515 0
M  V30 12852 C 1232.78 -2.15946 -3.08292 0
M  V30 12853 C 1231.92 -2.09975 -1.81124 0
M  V30 12854 H 1234.87 -1.45372 -0.63661 0
M  V30 12855 H 1234.9 -1.841 -3.32997 0
M  V30 12856 H 1234.41 -3.23186 -2.14878 0
M  V30 12857 H 1232.51 -1.18987 -3.53091 0
M  V30 12858 H 1232.62 -3.06822 -3.67964 0
M  V30 12859 H 1230.99 -1.55564 -2.01673 0
M  V30 12860 H 1231.77 -3.12082 -1.43037 0
M  V30 12861 N 1234.21 1.05064 -1.1747 0
M  V30 12862 C 1235.49 1.74999 -0.873776 0
M  V30 12863 C 1235.87 2.01615 0.625676 0
M  V30 12864 O 1235.22 1.65324 1.57734 0
M  V30 12865 C 1235.43 3.04231 -1.7101 0
M  V30 12866 C 1236.78 3.78157 -1.93087 0
M  V30 12867 O 1237.8 3.14104 -1.6798 0
M  V30 12868 O 1236.66 4.93255 -2.3529 0
M  V30 12869 H 1233.75 0.761042 -0.323641 0
M  V30 12870 H 1236.3 1.1122 -1.28172 0
M  V30 12871 H 1235.07 2.80621 -2.72704 0
M  V30 12872 H 1234.69 3.75746 -1.30002 0
M  V30 12873 N 1235.69 0.975146 1.23809 0
M  V30 12874 C 1236.92 0.658978 1.96125 0
M  V30 12875 C 1237.33 -0.773044 1.72248 0
M  V30 12876 O 1236.69 -1.51956 1.01072 0
M  V30 12877 C 1236.74 0.933355 3.49243 0
M  V30 12878 O 1236.46 2.30909 3.72307 0
M  V30 12879 C 1237.96 0.632408 4.38766 0
M  V30 12880 H 1235.18 0.245237 0.62458 0
M  V30 12881 H 1237.73 1.3051 1.5744 0
M  V30 12882 H 1235.88 0.333323 3.85963 0
M  V30 12883 H 1236.3 2.39476 4.66638 0
M  V30 12884 H 1237.77 0.874791 5.45024 0
M  V30 12885 H 1238.25 -0.433453 4.37056 0
M  V30 12886 H 1238.85 1.21268 4.07645 0
M  V30 12887 N 1237.17 -1.38817 0.746158 0
M  V30 12888 C 1238.59 -1.53894 0.42294 0
M  V30 12889 C 1238.79 -1.71064 -1.06486 0
M  V30 12890 O 1237.84 -1.71744 -1.85095 0
M  V30 12891 C 1239.15 -2.75029 1.2157 0
M  V30 12892 C 1240.7 -2.88873 1.20504 0
M  V30 12893 C 1241.18 -4.1296 1.9806 0
M  V30 12894 N 1242.67 -4.20022 1.95283 0
M  V30 12895 C 1243.4 -5.15011 2.52093 0
M  V30 12896 N 1242.9 -6.1572 3.17586 0
M  V30 12897 N 1244.69 -5.07308 2.42064 0
M  V30 12898 H 1236.84 -1.25921 1.71049 0
M  V30 12899 H 1239.11 -0.611148 0.724708 0
M  V30 12900 H 1238.81 -2.68722 2.26895 0
M  V30 12901 H 1238.69 -3.68009 0.827593 0
M  V30 12902 H 1241.07 -2.94667 0.159877 0
M  V30 12903 H 1241.15 -1.96925 1.63261 0
M  V30 12904 H 1240.8 -4.07929 3.02583 0
M  V30 12905 H 1240.73 -5.03974 1.52702 0
M  V30 12906 H 1243.22 -3.47892 1.4758 0
M  V30 12907 H 1243.53 -6.84682 3.58373 0
M  V30 12908 H 1241.88 -6.16075 3.21678 0
M  V30 12909 H 1245.07 -4.27569 1.90532 0
M  V30 12910 H 1245.24 -5.81158 2.86635 0
M  V30 12911 N 1238.65 -0.49465 -1.49636 0
M  V30 12912 C 1239.56 0.291881 -2.32777 0
M  V30 12913 C 1240.57 0.973468 -1.44221 0
M  V30 12914 O 1241.75 0.956252 -1.77251 0
M  V30 12915 C 1238.81 1.34609 -3.19502 0
M  V30 12916 C 1237.88 0.678611 -4.23903 0
M  V30 12917 C 1237.11 1.68259 -5.06483 0
M  V30 12918 O 1237.33 2.91176 -4.90482 0
M  V30 12919 O 1236.27 1.24141 -5.88959 0
M  V30 12920 H 1240.09 -0.388459 -3.01205 0
M  V30 12921 H 1237.68 -0.256086 -1.47189 0
M  V30 12922 H 1239.56 1.95617 -3.73245 0
M  V30 12923 H 1238.23 2.00947 -2.53775 0
M  V30 12924 H 1237.14 0.0289541 -3.74089 0
M  V30 12925 H 1238.47 0.0577817 -4.92166 0
M  V30 12926 N 1240.13 1.55939 -0.228214 0
M  V30 12927 C 1241.37 2.00379 0.403442 0
M  V30 12928 C 1241.73 1.11264 1.56475 0
M  V30 12929 O 1242.93 1.45079 2.26287 0
M  V30 12930 C 1241.2 3.47851 0.820649 0
M  V30 12931 S 1242.76 4.14309 1.44547 0
M  V30 12932 H 1239.58 0.699426 0.127768 0
M  V30 12933 H 1242.18 1.92537 -0.339066 0
M  V30 12934 H 1240.88 4.10386 -0.0341308 0
M  V30 12935 H 1240.42 3.5958 1.5958 0
M  V30 12936 H 1242.43 4.14048 2.73456 0
M  V30 12937 N 1241.6 -0.0451101 1.57535 0
M  V30 12938 C 1242.57 -1.03521 2.0449 0
M  V30 12939 C 1243.57 -1.30009 0.946265 0
M  V30 12940 O 1244.76 -1.25282 1.21038 0
M  V30 12941 C 1241.89 -2.37221 2.44824 0
M  V30 12942 H 1243.08 -0.629943 2.93209 0
M  V30 12943 H 1240.64 -0.291544 1.53557 0
M  V30 12944 H 1241.37 -2.82528 1.59212 0
M  V30 12945 H 1241.16 -2.19329 3.25018 0
M  V30 12946 H 1242.65 -3.08337 2.81635 0
M  V30 12947 N 1243.08 -1.54377 -0.317073 0
M  V30 12948 C 1244.01 -1.80563 -1.41172 0
M  V30 12949 C 1245.03 -0.687865 -1.47554 0
M  V30 12950 O 1246.22 -0.965084 -1.50161 0
M  V30 12951 C 1243.32 -1.9142 -2.79663 0
M  V30 12952 C 1242.49 -3.21655 -2.96407 0
M  V30 12953 C 1241.55 -3.23131 -4.15298 0
M  V30 12954 O 1240.57 -3.96741 -4.08149 0
M  V30 12955 N 1241.78 -2.47376 -5.25153 0
M  V30 12956 H 1244.54 -2.75032 -1.1907 0
M  V30 12957 H 1242.1 -1.53754 -0.507086 0
M  V30 12958 H 1244.09 -1.89828 -3.57418 0
M  V30 12959 H 1242.66 -1.0402 -2.94786 0
M  V30 12960 H 1241.88 -3.36154 -2.05899 0
M  V30 12961 H 1243.17 -4.07629 -3.04494 0
M  V30 12962 H 1242.57 -1.87173 -5.33838 0
M  V30 12963 H 1241.13 -2.51555 -6.01301 0
M  V30 12964 N 1244.56 0.579466 -1.4656 0
M  V30 12965 C 1245.49 1.69846 -1.60233 0
M  V30 12966 C 1246.47 1.6397 -0.452533 0
M  V30 12967 O 1247.66 1.81936 -0.679174 0
M  V30 12968 C 1244.79 3.08488 -1.59538 0
M  V30 12969 C 1243.74 3.29197 -2.7352 0
M  V30 12970 C 1243.07 4.684 -2.57887 0
M  V30 12971 C 1244.37 3.16718 -4.15315 0
M  V30 12972 H 1246.06 1.5866 -2.53904 0
M  V30 12973 H 1243.61 0.761873 -1.22194 0
M  V30 12974 H 1245.56 3.86595 -1.67696 0
M  V30 12975 H 1244.28 3.20581 -0.62413 0
M  V30 12976 H 1242.94 2.53491 -2.64836 0
M  V30 12977 H 1242.59 4.77262 -1.58839 0
M  V30 12978 H 1242.29 4.83208 -3.34341 0
M  V30 12979 H 1243.81 5.48671 -2.67942 0
M  V30 12980 H 1245.23 3.84666 -4.25094 0
M  V30 12981 H 1243.63 3.43047 -4.92381 0
M  V30 12982 H 1244.7 2.13755 -4.35244 0
M  V30 12983 N 1246.04 1.3432 0.824371 0
M  V30 12984 C 1247.45 1.1397 1.11727 0
M  V30 12985 C 1247.65 -0.0597597 2.01411 0
M  V30 12986 O 1246.71 -0.735717 2.41544 0
M  V30 12987 C 1248.02 2.43423 1.76538 0
M  V30 12988 C 1249.57 2.49466 1.89039 0
M  V30 12989 C 1250.05 3.78917 2.57266 0
M  V30 12990 N 1251.54 3.8007 2.64767 0
M  V30 12991 C 1252.27 4.76953 3.18282 0
M  V30 12992 N 1251.77 5.84217 3.72373 0
M  V30 12993 N 1253.56 4.6441 3.1667 0
M  V30 12994 H 1245.71 2.11175 0.227802 0
M  V30 12995 H 1247.98 0.933774 0.163615 0
M  V30 12996 H 1247.68 3.31278 1.18102 0
M  V30 12997 H 1247.56 2.56655 2.7642 0
M  V30 12998 H 1249.94 1.62052 2.46623 0
M  V30 12999 H 1250.02 2.40163 0.880635 0
M  V30 13000 H 1249.67 4.6672 2.00336 0
M  V30 13001 H 1249.6 3.85502 3.58742 0
M  V30 13002 H 1252.09 3.02556 2.26425 0
M  V30 13003 H 1252.4 6.54159 4.11455 0
M  V30 13004 H 1250.75 5.87933 3.70621 0
M  V30 13005 H 1253.94 3.7976 2.73678 0
M  V30 13006 H 1254.11 5.40081 3.58073 0
M  V30 13007 N 1247.52 -1.0444 1.18026 0
M  V30 13008 C 1248.45 -2.12388 0.86162 0
M  V30 13009 C 1249.46 -1.62204 -0.139196 0
M  V30 13010 O 1250.65 -1.78282 0.0881334 0
M  V30 13011 C 1247.75 -3.37859 0.265407 0
M  V30 13012 C 1246.92 -4.17292 1.31096 0
M  V30 13013 C 1245.98 -5.21096 0.731121 0
M  V30 13014 O 1245.01 -5.5159 1.40488 0
M  V30 13015 N 1246.21 -5.78568 -0.473194 0
M  V30 13016 H 1248.98 -2.40317 1.79074 0
M  V30 13017 H 1246.54 -1.20601 1.08014 0
M  V30 13018 H 1248.53 -4.04472 -0.135976 0
M  V30 13019 H 1247.1 -3.07403 -0.567658 0
M  V30 13020 H 1246.32 -3.46057 1.8878 0
M  V30 13021 H 1247.61 -4.67158 2.01596 0
M  V30 13022 H 1247 -5.56088 -1.03839 0
M  V30 13023 H 1245.56 -6.46665 -0.816545 0
M  V30 13024 N 1248.99 -0.981699 -1.2329 0
M  V30 13025 C 1249.9 -0.531296 -2.28505 0
M  V30 13026 C 1250.92 0.414531 -1.6899 0
M  V30 13027 O 1252.1 0.284129 -1.99386 0
M  V30 13028 C 1249.16 0.157864 -3.4634 0
M  V30 13029 C 1248.22 -0.829527 -4.21209 0
M  V30 13030 C 1247.46 -0.17316 -5.33419 0
M  V30 13031 O 1247.68 1.03549 -5.60922 0
M  V30 13032 O 1246.61 -0.872385 -5.95544 0
M  V30 13033 H 1250.44 -1.40633 -2.69177 0
M  V30 13034 H 1248.02 -0.749395 -1.29246 0
M  V30 13035 H 1249.91 0.544394 -4.17869 0
M  V30 13036 H 1248.58 1.00764 -3.07617 0
M  V30 13037 H 1247.49 -1.26678 -3.51999 0
M  V30 13038 H 1248.82 -1.64815 -4.63785 0
M  V30 13039 N 1250.47 1.3842 -0.753509 0
M  V30 13040 C 1251.72 2.00415 -0.310091 0
M  V30 13041 C 1252.05 1.59675 1.10532 0
M  V30 13042 O 1251.33 0.834261 1.757 0
M  V30 13043 C 1251.61 3.57488 -0.432897 0
M  V30 13044 C 1251.46 4.08193 -1.88941 0
M  V30 13045 C 1252.78 4.39757 0.173763 0
M  V30 13046 H 1249.9 0.728107 -0.114147 0
M  V30 13047 H 1252.54 1.64363 -0.953138 0
M  V30 13048 H 1250.69 3.88331 0.114563 0
M  V30 13049 H 1252.36 3.87993 -2.49517 0
M  V30 13050 H 1250.61 3.61063 -2.4045 0
M  V30 13051 H 1251.28 5.17291 -1.9265 0
M  V30 13052 H 1253.75 4.15066 -0.293137 0
M  V30 13053 H 1252.63 5.4887 0.057594 0
M  V30 13054 H 1252.89 4.23704 1.26205 0
M  V30 13055 N 1251.95 0.502579 1.49372 0
M  V30 13056 C 1252.86 -0.279532 2.32929 0
M  V30 13057 C 1253.88 -0.965806 1.44735 0
M  V30 13058 O 1255.05 -0.946839 1.77755 0
M  V30 13059 C 1252.12 -1.32913 3.20211 0
M  V30 13060 C 1251.18 -0.656121 4.24256 0
M  V30 13061 C 1250.41 -1.65571 5.07368 0
M  V30 13062 O 1250.63 -2.88571 4.92019 0
M  V30 13063 O 1249.57 -1.21016 5.89609 0
M  V30 13064 H 1253.39 0.404427 3.00995 0
M  V30 13065 H 1250.98 0.263888 1.47051 0
M  V30 13066 H 1252.86 -1.93635 3.74277 0
M  V30 13067 H 1251.54 -1.99598 2.54837 0
M  V30 13068 H 1250.44 -0.00911489 3.74099 0
M  V30 13069 H 1251.78 -0.0316802 4.9219 0
M  V30 13070 N 1253.43 -1.55816 0.23648 0
M  V30 13071 C 1254.34 -2.24576 -0.678439 0
M  V30 13072 C 1255.35 -1.25836 -1.20172 0
M  V30 13073 O 1256.53 -1.58686 -1.24019 0
M  V30 13074 C 1253.6 -2.92376 -1.86325 0
M  V30 13075 C 1252.66 -4.06499 -1.38047 0
M  V30 13076 C 1251.89 -4.71057 -2.50881 0
M  V30 13077 O 1252.11 -4.34652 -3.69369 0
M  V30 13078 O 1251.05 -5.59768 -2.21232 0
M  V30 13079 H 1254.87 -3.03452 -0.122601 0
M  V30 13080 H 1252.46 -1.49399 0.00540803 0
M  V30 13081 H 1254.34 -3.35117 -2.55488 0
M  V30 13082 H 1253.01 -2.16448 -2.40691 0
M  V30 13083 H 1251.92 -3.68296 -0.656422 0
M  V30 13084 H 1253.25 -4.84214 -0.883024 0
M  V30 13085 N 1254.91 0.036755 -1.57557 0
M  V30 13086 C 1255.85 1.05823 -2.07133 0
M  V30 13087 C 1256.85 1.37923 -0.983546 0
M  V30 13088 O 1258.05 1.36918 -1.16848 0
M  V30 13089 H 1254.43 0.358761 -0.660905 0
M  V30 13090 H 1256.4 0.614232 -2.9201 0
M  V30 13091 C 1255.15 2.35302 -2.55985 0
M  V30 13092 H 1254.47 2.11461 -3.393 0
M  V30 13093 H 1255.91 3.05139 -2.94391 0
M  V30 13094 C 1254.37 3.0373 -1.45773 0
M  V30 13095 O 1254.9 3.9325 -0.819587 0
M  V30 13096 N 1253.11 2.64931 -1.19416 0
M  V30 13097 H 1252.65 1.92219 -1.71492 0
M  V30 13098 H 1252.61 3.11033 -0.458865 0
M  V30 13099 N 1256.39 1.54543 0.308881 0
M  V30 13100 C 1257.32 1.87947 1.38557 0
M  V30 13101 C 1258.3 0.737622 1.53275 0
M  V30 13102 O 1259.48 0.992664 1.66913 0
M  V30 13103 C 1256.61 2.11982 2.75102 0
M  V30 13104 C 1255.57 3.2783 2.75158 0
M  V30 13105 C 1254.89 3.37266 4.14917 0
M  V30 13106 C 1256.19 4.65129 2.37598 0
M  V30 13107 H 1257.89 2.78123 1.1085 0
M  V30 13108 H 1255.43 1.3382 0.531808 0
M  V30 13109 H 1257.38 2.33935 3.50503 0
M  V30 13110 H 1256.11 1.18569 3.04317 0
M  V30 13111 H 1254.77 3.05787 2.02212 0
M  V30 13112 H 1254.42 2.41384 4.41296 0
M  V30 13113 H 1254.12 4.15135 4.15857 0
M  V30 13114 H 1255.64 3.61471 4.92109 0
M  V30 13115 H 1257.05 4.86865 3.02714 0
M  V30 13116 H 1255.45 5.45653 2.49765 0
M  V30 13117 H 1256.52 4.6638 1.32731 0
M  V30 13118 N 1257.86 -0.571685 1.46866 0
M  V30 13119 C 1258.81 -1.70098 1.58649 0
M  V30 13120 C 1259.81 -1.63191 0.45443 0
M  V30 13121 O 1261.01 -1.68551 0.63171 0
M  V30 13122 H 1257.39 -0.56258 0.499007 0
M  V30 13123 H 1259.36 -1.57293 2.53577 0
M  V30 13124 C 1258.11 -3.08475 1.60433 0
M  V30 13125 H 1257.43 -3.14465 2.46884 0
M  V30 13126 H 1258.87 -3.87221 1.7273 0
M  V30 13127 C 1257.33 -3.35231 0.334948 0
M  V30 13128 O 1257.86 -3.97633 -0.570149 0
M  V30 13129 N 1256.06 -2.8977 0.219441 0
M  V30 13130 H 1255.61 -2.39168 0.956891 0
M  V30 13131 H 1255.57 -3.08044 -0.628975 0
M  V30 13132 N 1259.34 -1.34755 -0.817236 0
M  V30 13133 C 1260.25 -1.28888 -1.96023 0
M  V30 13134 C 1261.27 -0.195582 -1.72897 0
M  V30 13135 O 1262.44 -0.423071 -1.96906 0
M  V30 13136 C 1259.51 -1.04985 -3.30423 0
M  V30 13137 C 1258.57 -2.23526 -3.66517 0
M  V30 13138 C 1257.8 -2.00753 -4.94504 0
M  V30 13139 O 1258.03 -0.968622 -5.62116 0
M  V30 13140 O 1256.96 -2.87848 -5.28608 0
M  V30 13141 H 1260.79 -2.25059 -2.03917 0
M  V30 13142 H 1258.37 -1.15019 -0.953467 0
M  V30 13143 H 1260.25 -0.934589 -4.10906 0
M  V30 13144 H 1258.93 -0.118582 -3.23483 0
M  V30 13145 H 1257.83 -2.40613 -2.86455 0
M  V30 13146 H 1259.17 -3.15062 -3.78149 0
M  V30 13147 N 1260.82 1.03812 -1.18578 0
M  V30 13148 C 1262.07 1.77319 -0.984173 0
M  V30 13149 C 1262.4 1.88052 0.484789 0
M  V30 13150 O 1261.67 1.3905 1.35998 0
M  V30 13151 C 1261.96 3.20448 -1.6427 0
M  V30 13152 C 1261.81 3.17643 -3.1847 0
M  V30 13153 C 1263.13 4.18623 -1.35805 0
M  V30 13154 H 1260.25 0.643681 -0.358949 0
M  V30 13155 H 1262.89 1.21249 -1.46283 0
M  V30 13156 H 1261.04 3.68324 -1.23572 0
M  V30 13157 H 1262.71 2.77738 -3.6832 0
M  V30 13158 H 1260.95 2.55606 -3.50497 0
M  V30 13159 H 1261.63 4.18724 -3.59686 0
M  V30 13160 H 1264.1 3.79306 -1.71073 0
M  V30 13161 H 1262.98 5.16982 -1.84446 0
M  V30 13162 H 1263.24 4.41203 -0.281418 0
M  V30 13163 N 1262.3 0.988223 1.22768 0
M  V30 13164 C 1263.53 0.678757 1.95132 0
M  V30 13165 C 1263.94 -0.759797 1.73274 0
M  V30 13166 O 1263.28 -1.52383 1.02592 0
M  V30 13167 C 1263.34 0.899007 3.48078 0
M  V30 13168 C 1263 2.32114 3.93665 0
M  V30 13169 C 1264 3.30034 4.01713 0
M  V30 13170 C 1261.69 2.65432 4.2644 0
M  V30 13171 C 1263.68 4.59349 4.41902 0
M  V30 13172 C 1261.37 3.94967 4.66309 0
M  V30 13173 C 1262.37 4.91737 4.74008 0
M  V30 13174 O 1262.05 6.18958 5.12977 0
M  V30 13175 H 1261.79 0.250588 0.627839 0
M  V30 13176 H 1264.34 1.32441 1.56999 0
M  V30 13177 H 1262.57 0.196182 3.86202 0
M  V30 13178 H 1264.26 0.585507 4.01655 0
M  V30 13179 H 1265.02 3.05626 3.76587 0
M  V30 13180 H 1260.9 1.90816 4.19655 0
M  V30 13181 H 1264.45 5.34881 4.47826 0
M  V30 13182 H 1260.34 4.19168 4.90886 0
M  V30 13183 H 1261.11 6.22826 5.31065 0
M  V30 13184 N 1263.78 -1.38018 0.760839 0
M  V30 13185 C 1265.19 -1.53437 0.439239 0
M  V30 13186 C 1265.39 -1.72184 -1.04666 0
M  V30 13187 O 1264.45 -1.73698 -1.83263 0
M  V30 13188 C 1265.76 -2.73724 1.24481 0
M  V30 13189 C 1267.31 -2.87579 1.23561 0
M  V30 13190 C 1267.78 -4.10836 2.02429 0
M  V30 13191 N 1269.27 -4.17928 1.99727 0
M  V30 13192 C 1270.01 -5.12309 2.57541 0
M  V30 13193 N 1269.51 -6.12317 3.24098 0
M  V30 13194 N 1271.3 -5.04712 2.47431 0
M  V30 13195 H 1263.45 -1.241 1.72375 0
M  V30 13196 H 1265.71 -0.603427 0.73115 0
M  V30 13197 H 1265.42 -2.663 2.29732 0
M  V30 13198 H 1265.29 -3.67111 0.866579 0
M  V30 13199 H 1267.68 -2.9448 0.191122 0
M  V30 13200 H 1267.76 -1.95183 1.6534 0
M  V30 13201 H 1267.4 -4.04696 3.06893 0
M  V30 13202 H 1267.33 -5.02326 1.58039 0
M  V30 13203 H 1269.83 -3.46307 1.51262 0
M  V30 13204 H 1270.14 -6.80842 3.65615 0
M  V30 13205 H 1268.48 -6.12628 3.28195 0
M  V30 13206 H 1271.67 -4.25524 1.95057 0
M  V30 13207 H 1271.85 -5.78085 2.92783 0
M  V30 13208 N 1265.25 -0.510493 -1.49103 0
M  V30 13209 C 1266.19 0.299697 -2.27232 0
M  V30 13210 C 1267.2 0.922102 -1.34168 0
M  V30 13211 O 1268.39 0.803836 -1.59376 0
M  V30 13212 C 1265.49 1.43778 -3.06889 0
M  V30 13213 C 1264.66 0.920927 -4.27595 0
M  V30 13214 C 1263.72 1.93777 -4.89221 0
M  V30 13215 O 1262.75 1.5025 -5.49011 0
M  V30 13216 N 1263.95 3.2688 -4.79718 0
M  V30 13217 H 1266.71 -0.37028 -2.97404 0
M  V30 13218 H 1264.27 -0.343617 -1.58212 0
M  V30 13219 H 1266.27 2.11577 -3.44988 0
M  V30 13220 H 1264.84 2.01175 -2.39264 0
M  V30 13221 H 1264.06 0.0675358 -3.94142 0
M  V30 13222 H 1265.34 0.554168 -5.05773 0
M  V30 13223 H 1264.74 3.64924 -4.32258 0
M  V30 13224 H 1263.3 3.90366 -5.21974 0
M  V30 13225 N 1266.73 1.55688 -0.24474 0
M  V30 13226 C 1267.98 1.98067 0.381081 0
M  V30 13227 C 1268.29 1.13606 1.59227 0
M  V30 13228 O 1269.5 1.45988 2.2891 0
M  V30 13229 C 1267.96 3.52432 0.729385 0
M  V30 13230 C 1267.56 4.45629 -0.460282 0
M  V30 13231 C 1269.31 4.03471 1.31952 0
M  V30 13232 C 1267.21 5.91334 -0.088252 0
M  V30 13233 H 1266.14 0.739699 0.146157 0
M  V30 13234 H 1268.8 1.80235 -0.344615 0
M  V30 13235 H 1267.18 3.65951 1.51315 0
M  V30 13236 H 1268.35 4.43868 -1.23764 0
M  V30 13237 H 1266.67 4.05059 -0.965197 0
M  V30 13238 H 1269.26 5.09849 1.61116 0
M  V30 13239 H 1269.61 3.50691 2.24325 0
M  V30 13240 H 1270.14 3.93269 0.5987 0
M  V30 13241 H 1266.88 6.48147 -0.979069 0
M  V30 13242 H 1266.4 5.96235 0.652947 0
M  V30 13243 H 1268.08 6.46156 0.330324 0
M  V30 13244 N 1268.21 -0.0283989 1.57574 0
M  V30 13245 C 1269.43 -0.734537 1.93957 0
M  V30 13246 C 1269.86 -1.68062 0.844787 0
M  V30 13247 O 1269.22 -1.802 -0.199432 0
M  V30 13248 C 1269.27 -1.46716 3.29404 0
M  V30 13249 O 1268.37 -2.58036 3.217 0
M  V30 13250 H 1267.71 -0.197507 0.633946 0
M  V30 13251 H 1270.24 0.0163258 2.04593 0
M  V30 13252 H 1270.25 -1.83693 3.64309 0
M  V30 13253 H 1268.93 -0.773292 4.08648 0
M  V30 13254 H 1267.5 -2.23597 2.98427 0
M  V30 13255 N 1269.69 -1.54705 -0.300681 0
M  V30 13256 C 1270.94 -1.73658 -1.0338 0
M  V30 13257 C 1271.26 -0.525447 -1.87787 0
M  V30 13258 O 1270.53 0.460269 -1.90416 0
M  V30 13259 H 1269.11 -0.640338 -0.384677 0
M  V30 13260 H 1271.77 -1.92059 -0.331588 0
M  V30 13261 H 1270.86 -2.62595 -1.68672 0
M  V30 13262 N 1271.17 0.563888 -1.47167 0
M  V30 13263 C 1272.41 1.32331 -1.53676 0
M  V30 13264 C 1272.75 1.93213 -0.195593 0
M  V30 13265 O 1272.02 1.77508 0.795068 0
M  V30 13266 C 1272.3 2.43848 -2.64972 0
M  V30 13267 C 1272.16 1.8788 -4.08682 0
M  V30 13268 C 1273.48 3.45809 -2.72221 0
M  V30 13269 H 1270.59 0.479791 -0.559437 0
M  V30 13270 H 1273.24 0.631669 -1.79192 0
M  V30 13271 H 1271.39 3.02846 -2.43345 0
M  V30 13272 H 1273.06 1.33195 -4.41652 0
M  V30 13273 H 1271.3 1.18593 -4.17275 0
M  V30 13274 H 1271.97 2.68465 -4.82318 0
M  V30 13275 H 1274.45 2.9672 -2.91713 0
M  V30 13276 H 1273.32 4.21272 -3.51882 0
M  V30 13277 H 1273.59 4.04236 -1.79014 0
M  V30 13278 N 1272.64 1.35187 0.810078 0
M  V30 13279 C 1273.59 1.24366 1.91094 0
M  V30 13280 C 1274.58 0.139718 1.60292 0
M  V30 13281 O 1275.77 0.370609 1.73077 0
M  V30 13282 C 1272.9 1.01434 3.27973 0
M  V30 13283 C 1271.99 2.16203 3.64852 0
M  V30 13284 N 1272.38 3.41408 3.73195 0
M  V30 13285 C 1270.67 2.07512 3.94784 0
M  V30 13286 C 1271.38 4.16858 4.05714 0
M  V30 13287 N 1270.35 3.45579 4.19614 0
M  V30 13288 H 1274.15 2.19232 1.95741 0
M  V30 13289 H 1271.67 1.2761 1.00447 0
M  V30 13290 H 1273.66 0.91771 4.06674 0
M  V30 13291 H 1272.32 0.074495 3.24615 0
M  V30 13292 H 1273.34 3.75802 3.56361 0
M  V30 13293 H 1270.01 1.21362 3.99472 0
M  V30 13294 H 1271.4 5.25039 4.19266 0
M  V30 13295 N 1274.12 -1.03182 1.19127 0
M  V30 13296 C 1275.07 -2.11394 0.926339 0
M  V30 13297 C 1276.04 -1.65528 -0.137703 0
M  V30 13298 O 1277.22 -1.908 0.00381804 0
M  V30 13299 C 1274.36 -3.41913 0.467894 0
M  V30 13300 C 1273.48 -4.01343 1.59837 0
M  V30 13301 C 1272.61 -5.1986 1.09175 0
M  V30 13302 C 1271.65 -5.71339 2.19632 0
M  V30 13303 N 1270.79 -6.81133 1.703 0
M  V30 13304 H 1275.63 -2.33393 1.85288 0
M  V30 13305 H 1273.17 -1.14473 0.923811 0
M  V30 13306 H 1275.12 -4.16796 0.183513 0
M  V30 13307 H 1273.75 -3.20034 -0.421656 0
M  V30 13308 H 1272.81 -3.23702 1.99803 0
M  V30 13309 H 1274.12 -4.35568 2.43068 0
M  V30 13310 H 1273.27 -6.0189 0.762427 0
M  V30 13311 H 1272.01 -4.87161 0.22914 0
M  V30 13312 H 1271.02 -4.87923 2.53399 0
M  V30 13313 H 1272.24 -6.06078 3.06344 0
M  V30 13314 H 1270.19 -6.50293 0.863415 0
M  V30 13315 H 1270.1 -7.1447 2.47122 0
M  V30 13316 H 1271.37 -7.66766 1.40321 0
M  V30 13317 N 1275.6 -0.99472 -1.22242 0
M  V30 13318 C 1276.53 -0.566499 -2.26524 0
M  V30 13319 C 1277.51 0.407541 -1.65146 0
M  V30 13320 O 1278.7 0.297777 -1.91903 0
M  V30 13321 C 1275.83 0.11786 -3.471 0
M  V30 13322 C 1274.78 -0.774908 -4.20927 0
M  V30 13323 C 1274.11 0.0424687 -5.34683 0
M  V30 13324 C 1275.41 -2.07263 -4.79416 0
M  V30 13325 H 1277.1 -1.43818 -2.62596 0
M  V30 13326 H 1274.65 -0.692971 -1.2623 0
M  V30 13327 H 1276.6 0.428842 -4.19212 0
M  V30 13328 H 1275.32 1.0241 -3.10129 0
M  V30 13329 H 1273.98 -1.06956 -3.50651 0
M  V30 13330 H 1273.63 0.949677 -4.93954 0
M  V30 13331 H 1273.33 -0.551867 -5.85003 0
M  V30 13332 H 1274.85 0.347504 -6.0961 0
M  V30 13333 H 1276.27 -1.82548 -5.4346 0
M  V30 13334 H 1274.67 -2.61594 -5.40082 0
M  V30 13335 H 1275.74 -2.75017 -3.99366 0
M  V30 13336 N 1277.08 1.37613 -0.768148 0
M  V30 13337 C 1278.01 2.28935 -0.110234 0
M  V30 13338 C 1279.02 1.48459 0.668122 0
M  V30 13339 O 1280.21 1.71154 0.506808 0
M  V30 13340 C 1277.31 3.27606 0.867598 0
M  V30 13341 C 1276.49 4.37163 0.143819 0
M  V30 13342 C 1275.54 5.15931 1.03449 0
M  V30 13343 O 1274.57 5.67003 0.499605 0
M  V30 13344 N 1275.77 5.30311 2.36114 0
M  V30 13345 H 1278.54 2.86037 -0.894585 0
M  V30 13346 H 1276.1 1.4955 -0.620185 0
M  V30 13347 H 1278.09 3.77183 1.4668 0
M  V30 13348 H 1276.66 2.71298 1.55294 0
M  V30 13349 H 1275.88 3.89031 -0.636257 0
M  V30 13350 H 1277.17 5.0755 -0.356446 0
M  V30 13351 H 1276.57 4.90394 2.82011 0
M  V30 13352 H 1275.12 5.83209 2.9105 0
M  V30 13353 N 1278.56 0.518393 1.4883 0
M  V30 13354 C 1279.49 -0.287642 2.27388 0
M  V30 13355 C 1280.5 -0.914974 1.34655 0
M  V30 13356 O 1281.69 -0.795373 1.598 0
M  V30 13357 C 1278.79 -1.42149 3.07647 0
M  V30 13358 C 1277.96 -0.898238 4.28078 0
M  V30 13359 C 1277.02 -1.91179 4.90242 0
M  V30 13360 O 1276.05 -1.47337 5.498 0
M  V30 13361 N 1277.25 -3.24331 4.81445 0
M  V30 13362 H 1280.02 0.386047 2.97203 0
M  V30 13363 H 1277.58 0.352002 1.58027 0
M  V30 13364 H 1279.57 -2.09745 3.46106 0
M  V30 13365 H 1278.14 -1.99903 2.40328 0
M  V30 13366 H 1277.36 -0.0466326 3.94172 0
M  V30 13367 H 1278.65 -0.527338 5.0606 0
M  V30 13368 H 1278.04 -3.62627 4.34187 0
M  V30 13369 H 1276.6 -3.87593 5.24037 0
M  V30 13370 N 1280.03 -1.55556 0.252993 0
M  V30 13371 C 1281.26 -2.03491 -0.374022 0
M  V30 13372 C 1281.68 -1.13208 -1.51094 0
M  V30 13373 O 1281.03 -0.147705 -1.81901 0
M  V30 13374 C 1281.09 -3.50724 -0.876047 0
M  V30 13375 O 1280.81 -4.37569 0.215574 0
M  V30 13376 C 1282.31 -4.14448 -1.57313 0
M  V30 13377 H 1279.53 -0.665183 -0.0881644 0
M  V30 13378 H 1282.07 -2.00964 0.378636 0
M  V30 13379 H 1280.23 -3.53766 -1.57886 0
M  V30 13380 H 1280.64 -5.24235 -0.166625 0
M  V30 13381 H 1282.11 -5.19142 -1.87606 0
M  V30 13382 H 1282.59 -3.61299 -2.49719 0
M  V30 13383 H 1283.2 -4.15346 -0.914735 0
M  V30 13384 N 1281.51 0.0200419 -1.57587 0
M  V30 13385 C 1282.46 1.01784 -2.07144 0
M  V30 13386 C 1283.43 1.3537 -0.962501 0
M  V30 13387 O 1284.61 1.45553 -1.23365 0
M  V30 13388 C 1281.75 2.31091 -2.56302 0
M  V30 13389 C 1280.87 2.03584 -3.81022 0
M  V30 13390 C 1280 3.26827 -4.18757 0
M  V30 13391 C 1279.04 2.94915 -5.36369 0
M  V30 13392 N 1278.18 4.10636 -5.69493 0
M  V30 13393 H 1283.02 0.588288 -2.92136 0
M  V30 13394 H 1280.56 0.278848 -1.44433 0
M  V30 13395 H 1282.51 3.06656 -2.82874 0
M  V30 13396 H 1281.14 2.71752 -1.74215 0
M  V30 13397 H 1280.2 1.18475 -3.6148 0
M  V30 13398 H 1281.51 1.76049 -4.66699 0
M  V30 13399 H 1280.66 4.10753 -4.46505 0
M  V30 13400 H 1279.4 3.57483 -3.31749 0
M  V30 13401 H 1278.41 2.09392 -5.08365 0
M  V30 13402 H 1279.63 2.65528 -6.25037 0
M  V30 13403 H 1277.58 4.41226 -4.85444 0
M  V30 13404 H 1277.49 3.86556 -6.497 0
M  V30 13405 H 1278.76 4.95409 -6.01822 0
M  V30 13406 N 1282.99 1.54862 0.292472 0
M  V30 13407 C 1284.24 1.74548 1.02661 0
M  V30 13408 C 1284.57 0.535895 1.86972 0
M  V30 13409 O 1283.82 -0.482016 1.89671 0
M  V30 13410 C 1284.12 2.99214 1.95463 0
M  V30 13411 C 1283.79 4.32628 1.2706 0
M  V30 13412 C 1282.45 4.68892 1.08138 0
M  V30 13413 C 1284.8 5.15296 0.782278 0
M  V30 13414 C 1282.13 5.85397 0.39081 0
M  V30 13415 C 1284.48 6.32512 0.105392 0
M  V30 13416 C 1283.14 6.67431 -0.0957097 0
M  V30 13417 H 1282.41 0.638717 0.375662 0
M  V30 13418 H 1285.06 1.89125 0.300672 0
M  V30 13419 H 1283.37 2.79454 2.74613 0
M  V30 13420 H 1285.06 3.1164 2.52352 0
M  V30 13421 H 1281.65 4.04113 1.42796 0
M  V30 13422 H 1285.84 4.87771 0.916151 0
M  V30 13423 H 1281.09 6.10989 0.224095 0
M  V30 13424 H 1285.27 6.95833 -0.280845 0
M  V30 13425 H 1282.89 7.57562 -0.63281 0
M  V30 13426 N 1284.47 -0.556076 1.47464 0
M  V30 13427 C 1285.88 -0.882115 1.33007 0
M  V30 13428 C 1286.08 -1.9892 0.321407 0
M  V30 13429 O 1285.14 -2.51088 -0.266668 0
M  V30 13430 C 1286.45 -1.27428 2.72365 0
M  V30 13431 C 1288 -1.38564 2.80658 0
M  V30 13432 C 1288.48 -1.81136 4.20659 0
M  V30 13433 N 1289.97 -1.88284 4.23206 0
M  V30 13434 C 1290.7 -2.22555 5.28447 0
M  V30 13435 N 1290.2 -2.55432 6.43993 0
M  V30 13436 N 1291.99 -2.23339 5.15826 0
M  V30 13437 H 1284.14 0.17481 2.11679 0
M  V30 13438 H 1286.41 0.0155421 0.947873 0
M  V30 13439 H 1286.11 -0.53463 3.47613 0
M  V30 13440 H 1285.99 -2.23019 3.04208 0
M  V30 13441 H 1288.37 -2.1161 2.05682 0
M  V30 13442 H 1288.45 -0.411588 2.52467 0
M  V30 13443 H 1288.1 -1.08659 4.96141 0
M  V30 13444 H 1288.03 -2.79546 4.46275 0
M  V30 13445 H 1290.52 -1.65259 3.3985 0
M  V30 13446 H 1290.83 -2.80612 7.20053 0
M  V30 13447 H 1289.18 -2.5301 6.47311 0
M  V30 13448 H 1292.37 -1.97094 4.24584 0
M  V30 13449 H 1292.54 -2.49717 5.97951 0
M  V30 13450 N 1285.95 -1.35615 -0.802897 0
M  V30 13451 C 1286.88 -1.24695 -1.92312 0
M  V30 13452 C 1287.89 -0.169409 -1.61916 0
M  V30 13453 O 1289.08 -0.422995 -1.73416 0
M  V30 13454 C 1286.18 -0.898229 -3.2678 0
M  V30 13455 C 1285.35 -2.07489 -3.85054 0
M  V30 13456 C 1284.41 -1.70137 -4.97936 0
M  V30 13457 O 1283.44 -2.42057 -5.15167 0
M  V30 13458 N 1284.64 -0.627153 -5.77102 0
M  V30 13459 H 1287.41 -2.21208 -2.02205 0
M  V30 13460 H 1284.97 -1.28832 -0.980503 0
M  V30 13461 H 1286.96 -0.629766 -3.9977 0
M  V30 13462 H 1285.53 -0.0226571 -3.12592 0
M  V30 13463 H 1284.75 -2.50694 -3.04214 0
M  V30 13464 H 1286.04 -2.86133 -4.2072 0
M  V30 13465 H 1285.44 -0.0296879 -5.65692 0
M  V30 13466 H 1283.99 -0.41848 -6.50455 0
M  V30 13467 N 1287.43 1.02549 -1.19673 0
M  V30 13468 C 1288.36 2.10991 -0.8953 0
M  V30 13469 C 1289.37 1.62405 0.113373 0
M  V30 13470 O 1290.56 1.7812 -0.116485 0
M  V30 13471 C 1287.66 3.37394 -0.319124 0
M  V30 13472 C 1286.83 4.15154 -1.37718 0
M  V30 13473 C 1285.89 5.19867 -0.81393 0
M  V30 13474 O 1284.92 5.49285 -1.49246 0
M  V30 13475 N 1286.12 5.79248 0.381089 0
M  V30 13476 H 1288.88 2.37438 -1.82875 0
M  V30 13477 H 1286.45 1.18867 -1.09919 0
M  V30 13478 H 1288.44 4.04637 0.0716106 0
M  V30 13479 H 1287.01 3.08267 0.518681 0
M  V30 13480 H 1286.23 3.4301 -1.94262 0
M  V30 13481 H 1287.52 4.63892 -2.09003 0
M  V30 13482 H 1286.91 5.5767 0.949791 0
M  V30 13483 H 1285.47 6.47882 0.713563 0
M  V30 13484 N 1288.9 1.00119 1.21713 0
M  V30 13485 C 1290.31 0.715611 1.72441 0
M  V30 13486 C 1290.67 -0.767 1.80587 0
M  V30 13487 O 1289.79 -1.59928 1.45781 0
M  V30 13488 C 1290.39 1.29234 3.13184 0
M  V30 13489 C 1288.94 1.05597 3.61284 0
M  V30 13490 C 1288.09 1.40749 2.38925 0
M  V30 13491 H 1291.04 1.17255 1.06943 0
M  V30 13492 H 1291.06 0.67507 3.74464 0
M  V30 13493 H 1290.58 2.37141 3.07223 0
M  V30 13494 H 1288.68 -0.00610816 3.72599 0
M  V30 13495 H 1288.79 1.72517 4.46961 0
M  V30 13496 H 1287.15 0.826207 2.40927 0
M  V30 13497 H 1287.94 2.49678 2.35618 0
M  V30 13498 N 1290.38 -1.37203 0.775435 0
M  V30 13499 C 1291.33 -2.32102 0.152051 0
M  V30 13500 C 1292.32 -1.55117 -0.680806 0
M  V30 13501 O 1293.53 -1.70486 -0.577455 0
M  V30 13502 H 1289.9 -0.751386 0.0303853 0
M  V30 13503 H 1291.88 -2.82259 0.968121 0
M  V30 13504 C 1290.62 -3.40378 -0.709788 0
M  V30 13505 H 1289.95 -3.99723 -0.0782879 0
M  V30 13506 H 1291.39 -4.09134 -1.11288 0
M  V30 13507 C 1289.85 -2.80769 -1.862 0
M  V30 13508 O 1290.38 -2.71813 -2.95771 0
M  V30 13509 N 1288.58 -2.38259 -1.66376 0
M  V30 13510 H 1288.13 -2.45743 -0.772531 0
M  V30 13511 H 1288.09 -1.98721 -2.43634 0
M  V30 13512 N 1291.86 -0.526279 -1.48553 0
M  V30 13513 C 1292.82 0.227739 -2.28066 0
M  V30 13514 C 1293.82 0.871146 -1.35158 0
M  V30 13515 O 1295.01 0.731769 -1.58085 0
M  V30 13516 C 1292.14 1.32918 -3.1392 0
M  V30 13517 H 1293.34 -0.470313 -2.96189 0
M  V30 13518 H 1290.89 -0.282089 -1.53733 0
M  V30 13519 H 1291.63 2.0606 -2.50419 0
M  V30 13520 H 1291.41 0.872991 -3.82258 0
M  V30 13521 H 1292.9 1.85964 -3.73908 0
M  V30 13522 N 1293.34 1.5542 -0.261239 0
M  V30 13523 C 1294.59 1.9889 0.358777 0
M  V30 13524 C 1294.91 1.15092 1.57413 0
M  V30 13525 O 1294.18 0.237095 1.9446 0
M  V30 13526 H 1292.76 0.734599 0.13555 0
M  V30 13527 H 1295.42 1.91483 -0.363357 0
M  V30 13528 H 1294.51 3.05082 0.658142 0
M  V30 13529 N 1294.82 -0.0116844 1.57596 0
M  V30 13530 C 1295.76 -1.00684 2.07681 0
M  V30 13531 C 1296.73 -1.34858 0.969666 0
M  V30 13532 O 1297.92 -1.44896 1.24136 0
M  V30 13533 C 1295.06 -2.29729 2.57524 0
M  V30 13534 C 1294.17 -2.0156 3.82096 0
M  V30 13535 C 1293.31 -3.24601 4.20485 0
M  V30 13536 C 1292.34 -2.92066 5.37925 0
M  V30 13537 N 1291.48 -4.0761 5.71663 0
M  V30 13538 H 1296.32 -0.572787 2.92443 0
M  V30 13539 H 1293.86 -0.271184 1.44579 0
M  V30 13540 H 1295.82 -3.05152 2.84496 0
M  V30 13541 H 1294.45 -2.70824 1.75653 0
M  V30 13542 H 1293.5 -1.16556 3.62103 0
M  V30 13543 H 1294.81 -1.73572 4.67626 0
M  V30 13544 H 1293.96 -4.08379 4.48677 0
M  V30 13545 H 1292.7 -3.55718 3.3364 0
M  V30 13546 H 1291.71 -2.06693 5.09468 0
M  V30 13547 H 1292.93 -2.62209 6.26437 0
M  V30 13548 H 1290.88 -4.38645 4.87777 0
M  V30 13549 H 1290.8 -3.83105 6.51741 0
M  V30 13550 H 1292.06 -4.92211 6.04441 0
M  V30 13551 N 1296.29 -1.55015 -0.284256 0
M  V30 13552 C 1297.24 -1.87122 -1.35107 0
M  V30 13553 C 1298.21 -0.721638 -1.49605 0
M  V30 13554 O 1299.4 -0.971855 -1.64194 0
M  V30 13555 C 1296.54 -2.1388 -2.70831 0
M  V30 13556 C 1295.65 -3.41447 -2.64647 0
M  V30 13557 C 1294.78 -3.57961 -3.92476 0
M  V30 13558 C 1293.82 -4.79261 -3.80757 0
M  V30 13559 N 1292.96 -4.92492 -5.00395 0
M  V30 13560 H 1297.8 -2.78117 -1.07027 0
M  V30 13561 H 1295.34 -1.37704 -0.517311 0
M  V30 13562 H 1297.29 -2.27391 -3.49784 0
M  V30 13563 H 1295.92 -1.26132 -2.97137 0
M  V30 13564 H 1294.98 -3.36467 -1.77466 0
M  V30 13565 H 1296.29 -4.3053 -2.51884 0
M  V30 13566 H 1295.44 -3.71229 -4.79868 0
M  V30 13567 H 1294.18 -2.67042 -4.08093 0
M  V30 13568 H 1293.19 -4.66008 -2.91747 0
M  V30 13569 H 1294.41 -5.71604 -3.66669 0
M  V30 13570 H 1292.36 -4.04501 -5.16445 0
M  V30 13571 H 1292.27 -5.75603 -4.9012 0
M  V30 13572 H 1293.54 -5.10134 -5.89392 0
M  V30 13573 N 1297.77 0.548248 -1.47757 0
M  V30 13574 C 1298.7 1.66999 -1.56984 0
M  V30 13575 C 1299.72 1.56302 -0.455372 0
M  V30 13576 O 1300.91 1.63096 -0.725399 0
M  V30 13577 C 1298.01 3.0553 -1.46645 0
M  V30 13578 C 1297.18 3.41892 -2.72816 0
M  V30 13579 C 1296.24 4.59624 -2.56187 0
M  V30 13580 O 1295.26 4.63757 -3.30028 0
M  V30 13581 N 1296.47 5.56675 -1.64601 0
M  V30 13582 H 1299.23 1.59527 -2.53715 0
M  V30 13583 H 1296.79 0.735101 -1.44249 0
M  V30 13584 H 1298.78 3.82137 -1.33242 0
M  V30 13585 H 1297.35 3.0718 -0.57961 0
M  V30 13586 H 1296.57 2.54644 -3.00916 0
M  V30 13587 H 1297.86 3.62965 -3.56559 0
M  V30 13588 H 1297.26 5.561 -1.03778 0
M  V30 13589 H 1295.82 6.32573 -1.57146 0
M  V30 13590 N 1299.25 1.36039 0.795694 0
M  V30 13591 C 1300.53 1.20474 1.54096 0
M  V30 13592 C 1300.91 -0.211691 2.10036 0
M  V30 13593 O 1300.25 -1.21656 1.93422 0
M  V30 13594 C 1300.46 2.28164 2.64087 0
M  V30 13595 C 1301.81 2.64519 3.32137 0
M  V30 13596 O 1302.84 2.2716 2.74366 0
M  V30 13597 O 1301.7 3.28796 4.36527 0
M  V30 13598 H 1298.79 0.468699 0.681359 0
M  V30 13599 H 1301.34 1.47752 0.834716 0
M  V30 13600 H 1300.11 3.23121 2.20701 0
M  V30 13601 H 1299.73 2.02217 3.42336 0
M  V30 13602 N 1300.73 -1.01913 1.20215 0
M  V30 13603 C 1301.68 -2.08774 0.916367 0
M  V30 13604 C 1302.66 -1.60431 -0.122796 0
M  V30 13605 O 1303.85 -1.76799 0.0842336 0
M  V30 13606 C 1300.98 -3.40102 0.467517 0
M  V30 13607 C 1300.07 -3.95153 1.53997 0
M  V30 13608 N 1300.46 -4.23745 2.76178 0
M  V30 13609 C 1298.76 -4.23274 1.40554 0
M  V30 13610 C 1299.46 -4.681 3.45336 0
M  V30 13611 N 1298.44 -4.70224 2.72745 0
M  V30 13612 H 1302.24 -2.28786 1.84484 0
M  V30 13613 H 1299.75 -1.19861 1.09577 0
M  V30 13614 H 1301.75 -4.16184 0.244195 0
M  V30 13615 H 1300.41 -3.21505 -0.454358 0
M  V30 13616 H 1301.42 -4.12728 3.12852 0
M  V30 13617 H 1298.1 -4.1389 0.547877 0
M  V30 13618 H 1299.49 -4.99063 4.49873 0
M  V30 13619 N 1302.21 -1.00763 -1.2118 0
M  V30 13620 C 1303.43 -0.710746 -1.94309 0
M  V30 13621 C 1303.85 0.727103 -1.74237 0
M  V30 13622 O 1303.21 1.49223 -1.05065 0
M  V30 13623 C 1303.26 -1.02562 -3.46646 0
M  V30 13624 O 1302.98 -2.40699 -3.66054 0
M  V30 13625 C 1304.48 -0.748517 -4.36935 0
M  V30 13626 H 1301.7 -0.26171 -0.617858 0
M  V30 13627 H 1304.24 -1.34639 -1.53924 0
M  V30 13628 H 1302.4 -0.435537 -3.84944 0
M  V30 13629 H 1302.81 -2.51764 -4.60125 0
M  V30 13630 H 1304.29 -1.01899 -5.42513 0
M  V30 13631 H 1304.76 0.317423 -4.38051 0
M  V30 13632 H 1305.37 -1.32033 -4.04286 0
M  V30 13633 N 1303.68 1.3679 -0.7827 0
M  V30 13634 C 1304.93 1.98664 -0.348634 0
M  V30 13635 C 1305.25 1.62827 1.08382 0
M  V30 13636 O 1306.45 2.17886 1.61982 0
M  V30 13637 C 1304.91 3.55319 -0.572392 0
M  V30 13638 C 1304.52 4.00086 -2.01582 0
M  V30 13639 C 1306.26 4.24017 -0.202496 0
M  V30 13640 C 1304.17 5.49493 -2.18659 0
M  V30 13641 H 1303.1 0.743294 -0.126612 0
M  V30 13642 H 1305.75 1.56177 -0.963383 0
M  V30 13643 H 1304.13 3.95842 0.111973 0
M  V30 13644 H 1305.3 3.7078 -2.73603 0
M  V30 13645 H 1303.62 3.44205 -2.34333 0
M  V30 13646 H 1306.22 5.3381 -0.308459 0
M  V30 13647 H 1306.56 4.07559 0.84859 0
M  V30 13648 H 1307.09 3.88834 -0.839834 0
M  V30 13649 H 1303.83 5.7089 -3.22126 0
M  V30 13650 H 1303.35 5.80447 -1.51134 0
M  V30 13651 H 1305.03 6.15621 -1.99048 0
M  V30 13652 N 1305.16 0.53415 1.48272 0
M  V30 13653 C 1306.41 0.00157492 2.028 0
M  V30 13654 C 1306.74 -1.33538 1.41001 0
M  V30 13655 O 1306.02 -1.86347 0.557245 0
M  V30 13656 C 1306.3 -0.116016 3.59913 0
M  V30 13657 C 1306.15 1.2464 4.32186 0
M  V30 13658 C 1307.47 -0.840775 4.31994 0
M  V30 13659 H 1304.59 0.00204634 0.736997 0
M  V30 13660 H 1307.23 0.691985 1.76951 0
M  V30 13661 H 1305.38 -0.704027 3.82068 0
M  V30 13662 H 1307.05 1.87584 4.21438 0
M  V30 13663 H 1305.3 1.8272 3.93441 0
M  V30 13664 H 1305.97 1.11708 5.40579 0
M  V30 13665 H 1308.44 -0.341746 4.14694 0
M  V30 13666 H 1307.32 -0.89196 5.41604 0
M  V30 13667 H 1307.58 -1.89197 3.99571 0
M  V30 13668 N 1306.64 -1.55279 0.269478 0
M  V30 13669 C 1307.92 -1.91458 -0.400412 0
M  V30 13670 C 1308.3 -1.19306 -1.74153 0
M  V30 13671 O 1307.65 -0.318017 -2.26276 0
M  V30 13672 C 1307.86 -3.44698 -0.546258 0
M  V30 13673 C 1309.2 -4.16374 -0.831758 0
M  V30 13674 O 1310.23 -3.50561 -0.631279 0
M  V30 13675 O 1309.09 -5.32826 -1.21484 0
M  V30 13676 H 1306.18 -0.79766 -0.218328 0
M  V30 13677 H 1308.73 -1.66747 0.315214 0
M  V30 13678 H 1307.5 -3.89273 0.397784 0
M  V30 13679 H 1307.12 -3.75345 -1.31157 0
M  V30 13680 N 1308.12 0.00332656 -1.576 0
M  V30 13681 C 1309.35 0.699945 -1.94701 0
M  V30 13682 C 1309.76 1.67492 -0.871312 0
M  V30 13683 O 1309.12 1.81882 0.150054 0
M  V30 13684 C 1309.17 1.43471 -3.31811 0
M  V30 13685 O 1308.89 0.498835 -4.35251 0
M  V30 13686 C 1310.39 2.22614 -3.83351 0
M  V30 13687 H 1307.61 0.195158 -0.641993 0
M  V30 13688 H 1310.16 -0.0468044 -2.04446 0
M  V30 13689 H 1308.31 2.13311 -3.23384 0
M  V30 13690 H 1308.72 1.01688 -5.14548 0
M  V30 13691 H 1310.2 2.69527 -4.81725 0
M  V30 13692 H 1310.68 3.05146 -3.15883 0
M  V30 13693 H 1311.28 1.57796 -3.94944 0
M  V30 13694 N 1309.6 1.55164 0.276031 0
M  V30 13695 C 1310.84 1.75887 1.00953 0
M  V30 13696 C 1311.18 0.5567 1.8605 0
M  V30 13697 O 1310.45 -0.445799 1.89322 0
M  V30 13698 C 1310.73 3.06228 1.89463 0
M  V30 13699 C 1310.59 4.36795 1.07379 0
M  V30 13700 C 1311.91 3.32589 2.88223 0
M  V30 13701 H 1309.02 0.639929 0.365596 0
M  V30 13702 H 1311.67 1.87893 0.282156 0
M  V30 13703 H 1309.82 2.96124 2.51481 0
M  V30 13704 H 1311.49 4.58853 0.474549 0
M  V30 13705 H 1309.73 4.32157 0.377165 0
M  V30 13706 H 1310.4 5.24315 1.72621 0
M  V30 13707 H 1312.88 3.42467 2.36338 0
M  V30 13708 H 1311.75 4.2506 3.47297 0
M  V30 13709 H 1312.02 2.52083 3.6319 0
M  V30 13710 N 1311.07 -0.540404 1.48045 0
M  V30 13711 C 1312 -1.65538 1.6468 0
M  V30 13712 C 1312.99 -1.62713 0.495847 0
M  V30 13713 O 1314.17 -1.80072 0.727172 0
M  V30 13714 C 1311.3 -3.0415 1.67661 0
M  V30 13715 C 1310.25 -3.2183 2.82152 0
M  V30 13716 C 1309.58 -4.61397 2.70216 0
M  V30 13717 C 1310.88 -3.05596 4.23567 0
M  V30 13718 H 1312.57 -1.51873 2.58021 0
M  V30 13719 H 1310.12 -0.729208 1.24171 0
M  V30 13720 H 1312.07 -3.82013 1.77887 0
M  V30 13721 H 1310.8 -3.18814 0.708907 0
M  V30 13722 H 1309.46 -2.4638 2.71463 0
M  V30 13723 H 1309.1 -4.72883 1.71437 0
M  V30 13724 H 1308.8 -4.74174 3.47035 0
M  V30 13725 H 1310.33 -5.41374 2.82395 0
M  V30 13726 H 1311.74 -3.73261 4.35143 0
M  V30 13727 H 1310.14 -3.29871 5.01303 0
M  V30 13728 H 1311.21 -2.0214 4.40758 0
M  V30 13729 N 1312.55 -1.36459 -0.788468 0
M  V30 13730 C 1313.49 -1.25222 -1.90774 0
M  V30 13731 C 1314.46 -0.136188 -1.62029 0
M  V30 13732 O 1315.65 -0.307486 -1.85975 0
M  V30 13733 C 1312.77 -0.932287 -3.25616 0
M  V30 13734 C 1311.82 -2.0629 -3.73292 0
M  V30 13735 S 1312.65 -3.68084 -3.8894 0
M  V30 13736 C 1313.81 -3.38206 -5.26657 0
M  V30 13737 H 1314.04 -2.19959 -2.00013 0
M  V30 13738 H 1311.58 -1.21886 -0.947801 0
M  V30 13739 H 1313.53 -0.754514 -4.03506 0
M  V30 13740 H 1312.19 -0.00268413 -3.141 0
M  V30 13741 H 1311.39 -1.79363 -4.71004 0
M  V30 13742 H 1310.99 -2.19994 -3.02454 0
M  V30 13743 H 1313.28 -2.92158 -6.11269 0
M  V30 13744 H 1314.22 -4.35185 -5.58587 0
M  V30 13745 H 1314.63 -2.73531 -4.93802 0
M  V30 13746 N 1314.03 1.01274 -1.20754 0
M  V30 13747 C 1314.99 2.08056 -0.961528 0
M  V30 13748 C 1315.99 1.60671 0.0644461 0
M  V30 13749 O 1317.18 1.73349 -0.172022 0
M  V30 13750 C 1314.32 3.37938 -0.448381 0
M  V30 13751 H 1315.51 2.31314 -1.90877 0
M  V30 13752 H 1313.06 1.18133 -1.02344 0
M  V30 13753 H 1313.8 3.20357 0.504144 0
M  V30 13754 H 1313.58 3.73659 -1.18833 0
M  V30 13755 H 1315.07 4.16551 -0.295876 0
M  V30 13756 N 1315.51 1.01404 1.20644 0
M  V30 13757 C 1316.92 0.73386 1.71672 0
M  V30 13758 C 1317.27 -0.747803 1.8139 0
M  V30 13759 O 1316.4 -1.58372 1.47469 0
M  V30 13760 C 1316.99 1.32549 3.11795 0
M  V30 13761 C 1315.55 1.09423 3.60144 0
M  V30 13762 C 1314.7 1.43275 2.37419 0
M  V30 13763 H 1317.65 1.18383 1.05694 0
M  V30 13764 H 1317.67 0.714749 3.73727 0
M  V30 13765 H 1317.18 2.40386 3.0469 0
M  V30 13766 H 1315.28 0.0334113 3.72585 0
M  V30 13767 H 1315.4 1.77248 4.45107 0
M  V30 13768 H 1313.76 0.851714 2.40037 0
M  V30 13769 H 1314.54 2.52163 2.32957 0
M  V30 13770 N 1316.99 -1.36373 0.789944 0
M  V30 13771 C 1318.4 -1.52471 0.471686 0
M  V30 13772 C 1318.6 -1.74365 -1.0099 0
M  V30 13773 O 1317.66 -1.77546 -1.79538 0
M  V30 13774 C 1318.97 -2.71022 1.30259 0
M  V30 13775 C 1320.52 -2.84893 1.29633 0
M  V30 13776 C 1321 -4.0645 2.11098 0
M  V30 13777 N 1322.49 -4.13597 2.08547 0
M  V30 13778 C 1323.22 -5.06731 2.6835 0
M  V30 13779 N 1322.72 -6.05305 3.37013 0
M  V30 13780 N 1324.51 -4.9935 2.58081 0
M  V30 13781 H 1316.66 -1.20416 1.74968 0
M  V30 13782 H 1318.92 -0.587782 0.743785 0
M  V30 13783 H 1318.63 -2.61368 2.35329 0
M  V30 13784 H 1318.5 -3.6519 0.944254 0
M  V30 13785 H 1320.89 -2.94009 0.253542 0
M  V30 13786 H 1320.97 -1.91632 1.69443 0
M  V30 13787 H 1320.62 -3.98096 3.15408 0
M  V30 13788 H 1320.55 -4.98861 1.68659 0
M  V30 13789 H 1323.04 -3.4302 1.58573 0
M  V30 13790 H 1323.35 -6.72934 3.79974 0
M  V30 13791 H 1321.7 -6.05529 3.41116 0
M  V30 13792 H 1324.89 -4.21291 2.04039 0
M  V30 13793 H 1325.06 -5.71745 3.04979 0
M  V30 13794 N 1318.47 -0.542005 -1.47987 0
M  V30 13795 C 1319.69 -0.0146835 -2.07395 0
M  V30 13796 C 1320.12 1.26266 -1.39422 0
M  V30 13797 O 1319.47 1.75259 -0.464118 0
M  V30 13798 C 1319.52 0.179937 -3.60151 0
M  V30 13799 O 1318.63 1.24596 -3.93128 0
M  V30 13800 H 1317.97 -0.0445076 -0.662507 0
M  V30 13801 H 1320.5 -0.753352 -1.90226 0
M  V30 13802 H 1320.51 0.398876 -4.06046 0
M  V30 13803 H 1319.18 -0.753093 -4.09025 0
M  V30 13804 H 1317.76 1.00872 -3.58997 0
M  V30 13805 N 1319.94 1.55134 -0.277709 0
M  V30 13806 C 1320.91 2.21327 0.595569 0
M  V30 13807 C 1321.91 1.19193 1.07933 0
M  V30 13808 O 1323.1 1.44081 0.979093 0
M  V30 13809 C 1320.23 2.88127 1.82196 0
M  V30 13810 H 1321.42 2.99895 0.0175855 0
M  V30 13811 H 1318.97 1.56274 -0.0283453 0
M  V30 13812 H 1319.71 2.13578 2.44039 0
M  V30 13813 H 1319.49 3.62974 1.48297 0
M  V30 13814 H 1320.98 3.38691 2.44291 0
M  V30 13815 N 1321.42 0.00503138 1.57599 0
M  V30 13816 C 1322.37 -0.984754 2.08737 0
M  V30 13817 C 1323.34 -1.33822 0.983915 0
M  V30 13818 O 1324.52 -1.43572 1.25665 0
M  V30 13819 C 1321.66 -2.26984 2.59946 0
M  V30 13820 C 1320.78 -1.97496 3.84212 0
M  V30 13821 C 1319.91 -3.20123 4.23904 0
M  V30 13822 C 1318.95 -2.86344 5.40993 0
M  V30 13823 N 1318.09 -4.01524 5.75954 0
M  V30 13824 H 1322.93 -0.541737 2.93034 0
M  V30 13825 H 1320.46 -0.255834 1.44858 0
M  V30 13826 H 1322.42 -3.02117 2.87717 0
M  V30 13827 H 1321.05 -2.68946 1.78516 0
M  V30 13828 H 1320.1 -1.12709 3.63319 0
M  V30 13829 H 1321.42 -1.68602 4.69441 0
M  V30 13830 H 1320.57 -4.03598 4.52983 0
M  V30 13831 H 1319.31 -3.5216 3.37394 0
M  V30 13832 H 1318.31 -2.01278 5.11632 0
M  V30 13833 H 1319.54 -2.5555 6.29183 0
M  V30 13834 H 1317.49 -4.33447 4.92402 0
M  V30 13835 H 1317.4 -3.76171 6.55768 0
M  V30 13836 H 1318.67 -4.85772 6.09628 0
M  V30 13837 N 1322.9 -1.55308 -0.267798 0
M  V30 13838 C 1324.31 -1.66814 -0.838459 0
M  V30 13839 C 1324.66 -0.598609 -1.86845 0
M  V30 13840 O 1323.79 0.25896 -2.14845 0
M  V30 13841 C 1324.38 -3.02408 -1.52758 0
M  V30 13842 C 1322.94 -3.15923 -2.04621 0
M  V30 13843 C 1322.09 -2.62628 -0.890044 0
M  V30 13844 H 1325.04 -1.58639 -0.0440354 0
M  V30 13845 H 1325.06 -2.95687 -2.39478 0
M  V30 13846 H 1324.57 -3.80228 -0.777695 0
M  V30 13847 H 1322.67 -2.42886 -2.82555 0
M  V30 13848 H 1322.79 -4.22556 -2.25794 0
M  V30 13849 H 1321.15 -2.19918 -1.28485 0
M  V30 13850 H 1321.93 -3.42956 -0.153579 0
M  V30 13851 N 1324.38 0.532545 -1.4833 0
M  V30 13852 C 1325.34 1.61955 -1.62183 0
M  V30 13853 C 1326.34 1.52982 -0.495281 0
M  V30 13854 O 1327.53 1.56698 -0.761005 0
M  V30 13855 C 1324.66 3.0157 -1.58961 0
M  V30 13856 H 1325.86 1.51013 -2.59105 0
M  V30 13857 H 1323.41 0.754405 -1.36888 0
M  V30 13858 H 1324.14 3.18021 -0.635069 0
M  V30 13859 H 1323.93 3.09491 -2.40744 0
M  V30 13860 H 1325.42 3.80604 -1.71843 0
M  V30 13861 N 1325.86 1.36875 0.78122 0
M  V30 13862 C 1326.79 1.34559 1.9083 0
M  V30 13863 C 1327.77 0.215713 1.68727 0
M  V30 13864 O 1328.95 0.41462 1.89722 0
M  V30 13865 C 1326.08 1.14233 3.27976 0
M  V30 13866 C 1325.04 2.24132 3.64621 0
M  V30 13867 C 1324.36 1.8894 5.00206 0
M  V30 13868 C 1325.66 3.66266 3.72353 0
M  V30 13869 H 1327.36 2.28871 1.93025 0
M  V30 13870 H 1324.9 1.10171 0.927275 0
M  V30 13871 H 1326.85 1.11246 4.06451 0
M  V30 13872 H 1325.58 0.163747 3.26189 0
M  V30 13873 H 1324.24 2.26259 2.88448 0
M  V30 13874 H 1323.89 0.896351 4.94949 0
M  V30 13875 H 1323.59 2.62525 5.25694 0
M  V30 13876 H 1325.11 1.87523 5.81092 0
M  V30 13877 H 1326.52 3.66321 4.41001 0
M  V30 13878 H 1324.92 4.38825 4.09332 0
M  V30 13879 H 1325.99 4.00578 2.7325 0
M  V30 13880 N 1327.33 -1.00632 1.21289 0
M  V30 13881 C 1328.26 -2.11238 0.995021 0
M  V30 13882 C 1329.24 -1.69914 -0.0795537 0
M  V30 13883 O 1330.43 -1.94035 0.0800152 0
M  V30 13884 C 1327.56 -3.42797 0.557475 0
M  V30 13885 C 1326.51 -3.97909 1.57646 0
M  V30 13886 C 1325.84 -5.25357 0.995197 0
M  V30 13887 C 1327.14 -4.30123 2.96297 0
M  V30 13888 H 1328.83 -2.29722 1.9201 0
M  V30 13889 H 1326.38 -1.10395 0.924602 0
M  V30 13890 H 1328.33 -4.19571 0.392236 0
M  V30 13891 H 1327.06 -3.24101 -0.403253 0
M  V30 13892 H 1325.72 -3.23254 1.72924 0
M  V30 13893 H 1325.36 -5.02993 0.026227 0
M  V30 13894 H 1325.06 -5.63196 1.67583 0
M  V30 13895 H 1326.59 -6.04777 0.841251 0
M  V30 13896 H 1328 -4.97744 2.8447 0
M  V30 13897 H 1326.4 -4.79101 3.61361 0
M  V30 13898 H 1327.47 -3.38454 3.47242 0
M  V30 13899 N 1328.81 -1.02043 -1.20104 0
M  V30 13900 C 1329.76 -0.593945 -2.23027 0
M  V30 13901 C 1330.73 0.387931 -1.61506 0
M  V30 13902 O 1331.91 0.286504 -1.88637 0
M  V30 13903 C 1329.05 0.0577309 -3.45052 0
M  V30 13904 C 1328.17 -0.969169 -4.20988 0
M  V30 13905 C 1327.3 -0.288143 -5.30418 0
M  V30 13906 C 1326.34 -1.30154 -5.98102 0
M  V30 13907 N 1325.48 -0.646912 -6.99113 0
M  V30 13908 H 1330.32 -1.47623 -2.58866 0
M  V30 13909 H 1327.85 -0.738901 -1.27195 0
M  V30 13910 H 1329.81 0.452726 -4.14736 0
M  V30 13911 H 1328.44 0.90364 -3.09894 0
M  V30 13912 H 1327.49 -1.48229 -3.50332 0
M  V30 13913 H 1328.81 -1.73972 -4.67477 0
M  V30 13914 H 1327.96 0.162149 -6.06483 0
M  V30 13915 H 1326.7 0.514683 -4.84977 0
M  V30 13916 H 1325.7 -1.76218 -5.20795 0
M  V30 13917 H 1326.93 -2.10571 -6.45629 0
M  V30 13918 H 1324.88 0.135976 -6.55859 0
M  V30 13919 H 1324.79 -1.35548 -7.43749 0
M  V30 13920 H 1326.06 -0.220339 -7.79189 0
M  V30 13921 N 1330.29 1.35952 -0.797165 0
M  V30 13922 C 1331.22 2.32506 -0.215277 0
M  V30 13923 C 1332.2 1.57023 0.654046 0
M  V30 13924 O 1333.39 1.85139 0.586268 0
M  V30 13925 C 1330.52 3.41266 0.644557 0
M  V30 13926 C 1329.47 4.27816 -0.125501 0
M  V30 13927 C 1328.8 5.27813 0.855428 0
M  V30 13928 C 1330.1 5.05367 -1.31913 0
M  V30 13929 H 1331.79 2.8142 -1.02193 0
M  V30 13930 H 1329.34 1.35303 -0.492862 0
M  V30 13931 H 1331.29 4.07808 1.06163 0
M  V30 13932 H 1330.01 2.90938 1.484 0
M  V30 13933 H 1328.67 3.62841 -0.523639 0
M  V30 13934 H 1328.32 4.73755 1.69011 0
M  V30 13935 H 1328.02 5.86589 0.344566 0
M  V30 13936 H 1329.54 5.97227 1.2709 0
M  V30 13937 H 1330.96 5.64907 -0.977418 0
M  V30 13938 H 1329.36 5.73593 -1.76382 0
M  V30 13939 H 1330.43 4.36558 -2.11057 0
M  V30 13940 N 1331.77 0.549846 1.47697 0
M  V30 13941 C 1333 0.0276889 2.06881 0
M  V30 13942 C 1333.41 -1.26273 1.40359 0
M  V30 13943 O 1332.77 -1.75584 0.497644 0
M  V30 13944 C 1332.82 -0.179291 3.61055 0
M  V30 13945 O 1332.54 1.06002 4.25083 0
M  V30 13946 C 1334.04 -0.739571 4.37087 0
M  V30 13947 H 1331.26 0.0425016 0.669653 0
M  V30 13948 H 1333.81 0.761158 1.89807 0
M  V30 13949 H 1331.96 -0.862867 3.77668 0
M  V30 13950 H 1332.37 0.853137 5.17515 0
M  V30 13951 H 1333.85 -0.833722 5.45668 0
M  V30 13952 H 1334.33 -1.74915 4.02867 0
M  V30 13953 H 1334.93 -0.0919294 4.25201 0
M  V30 13954 N 1333.25 -1.54984 0.285932 0
M  V30 13955 C 1334.16 -2.26621 -0.606648 0
M  V30 13956 C 1335.17 -1.29595 -1.16108 0
M  V30 13957 O 1336.35 -1.62551 -1.18908 0
M  V30 13958 C 1333.41 -2.98156 -1.76929 0
M  V30 13959 C 1332.47 -4.10685 -1.25045 0
M  V30 13960 C 1331.71 -4.788 -2.35768 0
M  V30 13961 O 1331.93 -4.46183 -3.55354 0
M  V30 13962 O 1330.86 -5.66523 -2.03312 0
M  V30 13963 H 1334.69 -3.03689 -0.0259981 0
M  V30 13964 H 1332.28 -1.49306 0.0529355 0
M  V30 13965 H 1334.16 -3.43076 -2.44697 0
M  V30 13966 H 1332.83 -2.23996 -2.33683 0
M  V30 13967 H 1331.74 -3.70198 -0.538919 0
M  V30 13968 H 1333.07 -4.86778 -0.728528 0
M  V30 13969 N 1334.72 -0.0133892 -1.57594 0
M  V30 13970 C 1335.67 0.97367 -2.09257 0
M  V30 13971 C 1336.64 1.33298 -0.990998 0
M  V30 13972 O 1337.83 1.42903 -1.26425 0
M  V30 13973 C 1334.97 2.25603 -2.61147 0
M  V30 13974 C 1334.08 1.95456 -3.85254 0
M  V30 13975 C 1333.21 3.17871 -4.25596 0
M  V30 13976 C 1332.25 2.83471 -5.42504 0
M  V30 13977 N 1331.39 3.98464 -5.78075 0
M  V30 13978 H 1336.23 0.526189 -2.93318 0
M  V30 13979 H 1333.77 0.248148 -1.44992 0
M  V30 13980 H 1335.73 3.00587 -2.89315 0
M  V30 13981 H 1334.36 2.67995 -1.7994 0
M  V30 13982 H 1333.41 1.10781 -3.63912 0
M  V30 13983 H 1334.72 1.6611 -4.70328 0
M  V30 13984 H 1333.87 4.0119 -4.55117 0
M  V30 13985 H 1332.61 3.50365 -3.39257 0
M  V30 13986 H 1331.62 1.98562 -5.12692 0
M  V30 13987 H 1332.84 2.5221 -6.30529 0
M  V30 13988 H 1330.79 4.3083 -4.94694 0
M  V30 13989 H 1330.71 3.72688 -6.57753 0
M  V30 13990 H 1331.97 4.82532 -6.12195 0
M  V30 13991 N 1336.2 1.55448 0.259558 0
M  V30 13992 C 1337.13 1.85678 1.34373 0
M  V30 13993 C 1338.15 0.742155 1.449 0
M  V30 13994 O 1339.34 1.02015 1.46476 0
M  V30 13995 C 1336.44 2.01668 2.72366 0
M  V30 13996 C 1335.61 3.32434 2.84265 0
M  V30 13997 C 1334.67 3.38322 4.03019 0
M  V30 13998 O 1333.69 4.11616 3.93143 0
M  V30 13999 N 1334.9 2.66697 5.1561 0
M  V30 14000 H 1337.66 2.79261 1.08781 0
M  V30 14001 H 1335.22 1.5553 0.449672 0
M  V30 14002 H 1337.21 2.02963 3.50126 0
M  V30 14003 H 1335.78 1.14889 2.90722 0
M  V30 14004 H 1335 3.43564 1.93281 0
M  V30 14005 H 1336.29 4.18649 2.89155 0
M  V30 14006 H 1335.69 2.06857 5.26523 0
M  V30 14007 H 1334.25 2.73699 5.91551 0
M  V30 14008 N 1337.68 -0.524672 1.4861 0
M  V30 14009 C 1338.93 -1.28211 1.5713 0
M  V30 14010 C 1339.26 -1.92626 0.246751 0
M  V30 14011 O 1338.53 -1.79553 -0.747725 0
M  V30 14012 C 1338.82 -2.36737 2.71344 0
M  V30 14013 C 1338.67 -1.76978 4.1352 0
M  V30 14014 C 1339.99 -3.3847 2.81294 0
M  V30 14015 H 1337.11 -0.46479 0.571961 0
M  V30 14016 H 1339.75 -0.583937 1.80804 0
M  V30 14017 H 1337.9 -2.96287 2.51289 0
M  V30 14018 H 1339.57 -1.21438 4.45029 0
M  V30 14019 H 1337.82 -1.07488 4.20272 0
M  V30 14020 H 1338.49 -2.55583 4.89266 0
M  V30 14021 H 1340.96 -2.88882 2.99477 0
M  V30 14022 H 1339.84 -4.11795 3.62928 0
M  V30 14023 H 1340.1 -3.99347 1.89669 0
M  V30 14024 N 1339.16 -1.37287 -0.77395 0
M  V30 14025 C 1340.07 -1.35059 -1.91823 0
M  V30 14026 C 1341.08 -0.250489 -1.72188 0
M  V30 14027 O 1342.26 -0.485501 -1.95461 0
M  V30 14028 C 1339.33 -1.15444 -3.26915 0
M  V30 14029 C 1338.39 -2.35073 -3.5922 0
M  V30 14030 C 1337.62 -2.16384 -4.87867 0
M  V30 14031 O 1337.84 -1.14696 -5.58749 0
M  V30 14032 O 1336.78 -3.0452 -5.19183 0
M  V30 14033 H 1340.6 -2.31432 -1.96654 0
M  V30 14034 H 1338.19 -1.17994 -0.916392 0
M  V30 14035 H 1340.07 -1.06484 -4.07724 0
M  V30 14036 H 1338.74 -0.221435 -3.22942 0
M  V30 14037 H 1337.65 -2.49604 -2.78655 0
M  V30 14038 H 1338.98 -3.26933 -3.67934 0
M  V30 14039 N 1340.64 0.999871 -1.21821 0
M  V30 14040 C 1341.57 2.09044 -0.939852 0
M  V30 14041 C 1342.58 1.62609 0.0788987 0
M  V30 14042 O 1343.77 1.77832 -0.154241 0
M  V30 14043 C 1340.87 3.36641 -0.390618 0
M  V30 14044 C 1340.04 4.12139 -1.46493 0
M  V30 14045 C 1339.1 5.18023 -0.924019 0
M  V30 14046 O 1338.13 5.45996 -1.60864 0
M  V30 14047 N 1339.33 5.79926 0.258136 0
M  V30 14048 H 1342.1 2.33506 -1.8787 0
M  V30 14049 H 1339.66 1.16509 -1.12415 0
M  V30 14050 H 1341.65 4.04697 -0.0142349 0
M  V30 14051 H 1340.22 3.09298 0.453176 0
M  V30 14052 H 1339.44 3.38813 -2.01494 0
M  V30 14053 H 1340.73 4.59354 -2.18795 0
M  V30 14054 H 1340.12 5.59559 0.831288 0
M  V30 14055 H 1338.68 6.4925 0.575977 0
M  V30 14056 N 1342.11 1.02678 1.19562 0
M  V30 14057 C 1343.53 0.743467 1.41226 0
M  V30 14058 C 1343.73 -0.672786 1.89936 0
M  V30 14059 O 1342.79 -1.43908 2.07477 0
M  V30 14060 C 1344.1 1.77781 2.42517 0
M  V30 14061 C 1345.65 1.79711 2.56267 0
M  V30 14062 C 1346.12 2.82099 3.60811 0
M  V30 14063 N 1347.61 2.80902 3.68304 0
M  V30 14064 C 1348.35 3.5678 4.48882 0
M  V30 14065 N 1347.84 4.42367 5.33182 0
M  V30 14066 N 1349.64 3.45331 4.43512 0
M  V30 14067 H 1341.79 1.94094 0.862635 0
M  V30 14068 H 1344.05 0.839015 0.441313 0
M  V30 14069 H 1343.76 2.79295 2.13745 0
M  V30 14070 H 1343.63 1.59836 3.41661 0
M  V30 14071 H 1346.02 0.788756 2.84364 0
M  V30 14072 H 1346.1 2.01731 1.57284 0
M  V30 14073 H 1345.74 3.83104 3.33457 0
M  V30 14074 H 1345.67 2.57338 4.5944 0
M  V30 14075 H 1348.16 2.18826 3.08097 0
M  V30 14076 H 1348.48 4.97008 5.9178 0
M  V30 14077 H 1346.82 4.4644 5.3265 0
M  V30 14078 H 1350.01 2.77883 3.76695 0
M  V30 14079 H 1350.19 4.04718 5.06071 0
M  V30 14080 N 1343.59 -1.35528 0.804364 0
M  V30 14081 C 1344.56 -2.28153 0.21885 0
M  V30 14082 C 1345.56 -1.49486 -0.592511 0
M  V30 14083 O 1346.75 -1.69274 -0.411319 0
M  V30 14084 C 1343.88 -3.33736 -0.695195 0
M  V30 14085 H 1345.07 -2.81446 1.03576 0
M  V30 14086 H 1342.62 -1.45345 0.574854 0
M  V30 14087 H 1343.36 -2.85625 -1.53587 0
M  V30 14088 H 1343.14 -3.91931 -0.115143 0
M  V30 14089 H 1344.63 -4.02872 -1.09925 0
M  V30 14090 N 1345.07 -0.557671 -1.47404 0
M  V30 14091 C 1346.32 -0.0337884 -2.02472 0
M  V30 14092 C 1346.65 1.31624 -1.43197 0
M  V30 14093 O 1345.9 1.86989 -0.577366 0
M  V30 14094 C 1346.2 0.108324 -3.57236 0
M  V30 14095 C 1345.87 -1.17088 -4.35432 0
M  V30 14096 C 1344.53 -1.5214 -4.56516 0
M  V30 14097 C 1346.88 -2.01854 -4.80525 0
M  V30 14098 C 1344.21 -2.71803 -5.19942 0
M  V30 14099 C 1346.56 -3.2072 -5.45272 0
M  V30 14100 C 1345.22 -3.56085 -5.64588 0
M  V30 14101 H 1344.49 -0.012364 -0.740897 0
M  V30 14102 H 1347.14 -0.729276 -1.7707 0
M  V30 14103 H 1345.45 0.886781 -3.81633 0
M  V30 14104 H 1347.14 0.529031 -3.97495 0
M  V30 14105 H 1343.73 -0.887952 -4.19301 0
M  V30 14106 H 1347.92 -1.76081 -4.64014 0
M  V30 14107 H 1343.17 -2.99371 -5.33092 0
M  V30 14108 H 1347.35 -3.86689 -5.79176 0
M  V30 14109 H 1344.97 -4.48903 -6.13506 0
M  V30 14110 N 1346.55 1.54831 -0.294147 0
M  V30 14111 C 1347.5 2.19966 0.599919 0
M  V30 14112 C 1348.48 1.1704 1.1041 0
M  V30 14113 O 1349.68 1.42785 1.04601 0
M  V30 14114 C 1346.8 2.93875 1.77461 0
M  V30 14115 C 1345.89 4.0411 1.28671 0
M  V30 14116 N 1346.28 5.03158 0.516316 0
M  V30 14117 C 1344.58 4.17527 1.56804 0
M  V30 14118 C 1345.28 5.8113 0.257361 0
M  V30 14119 N 1344.26 5.37145 0.835221 0
M  V30 14120 H 1348.06 2.939 0.00369516 0
M  V30 14121 H 1345.57 1.621 -0.0985855 0
M  V30 14122 H 1347.57 3.39001 2.4266 0
M  V30 14123 H 1346.23 2.21456 2.3746 0
M  V30 14124 H 1347.24 5.17647 0.161855 0
M  V30 14125 H 1343.92 3.56309 2.17601 0
M  V30 14126 H 1345.31 6.7093 -0.360924 0
M  V30 14127 N 1348.03 0.0217466 1.57585 0
M  V30 14128 C 1349.3 -0.696733 1.8277 0
M  V30 14129 C 1349.68 -1.90759 0.904112 0
M  V30 14130 O 1349.03 -2.28461 -0.0420522 0
M  V30 14131 C 1349.24 -1.08193 3.31806 0
M  V30 14132 C 1350.59 -1.47667 3.98095 0
M  V30 14133 O 1351.61 -1.17511 3.36258 0
M  V30 14134 O 1350.47 -2.03825 5.07068 0
M  V30 14135 H 1347.57 -0.341141 0.75336 0
M  V30 14136 H 1350.11 0.0488652 1.6963 0
M  V30 14137 H 1348.89 -0.219799 3.90682 0
M  V30 14138 H 1348.51 -1.88593 3.50026 0
M  V30 14139 N 1349.51 -1.55583 -0.251311 0
M  V30 14140 C 1350.44 -1.9296 -1.31486 0
M  V30 14141 C 1351.42 -0.794001 -1.50431 0
M  V30 14142 O 1352.6 -1.05393 -1.63113 0
M  V30 14143 C 1349.73 -2.22046 -2.67045 0
M  V30 14144 C 1348.69 -3.37816 -2.62801 0
M  V30 14145 C 1348.01 -3.52433 -4.02113 0
M  V30 14146 C 1349.31 -4.73626 -2.20171 0
M  V30 14147 H 1351.01 -2.82046 -1.00451 0
M  V30 14148 H 1348.55 -1.35702 -0.481775 0
M  V30 14149 H 1350.5 -2.46783 -3.41579 0
M  V30 14150 H 1349.23 -1.29782 -2.99707 0
M  V30 14151 H 1347.89 -3.13081 -1.90724 0
M  V30 14152 H 1347.54 -2.57597 -4.32034 0
M  V30 14153 H 1347.24 -4.30283 -4.00163 0
M  V30 14154 H 1348.76 -3.79486 -4.78354 0
M  V30 14155 H 1350.17 -4.97764 -2.84436 0
M  V30 14156 H 1348.57 -5.54547 -2.29341 0
M  V30 14157 H 1349.64 -4.70985 -1.1533 0
M  V30 14158 N 1350.98 0.516783 -1.48886 0
M  V30 14159 C 1351.93 1.62003 -1.64389 0
M  V30 14160 C 1352.9 1.58842 -0.485633 0
M  V30 14161 O 1354.09 1.77068 -0.710742 0
M  V30 14162 C 1351.23 3.00218 -1.70186 0
M  V30 14163 C 1350.34 3.13513 -2.97209 0
M  V30 14164 C 1349.47 4.42366 -2.94084 0
M  V30 14165 C 1348.51 4.49238 -4.15754 0
M  V30 14166 N 1347.65 5.69497 -4.10631 0
M  V30 14167 H 1352.49 1.48093 -2.58597 0
M  V30 14168 H 1350.03 0.720788 -1.2823 0
M  V30 14169 H 1351.98 3.80307 -1.71529 0
M  V30 14170 H 1350.61 3.12868 -0.794578 0
M  V30 14171 H 1349.67 2.26589 -3.05551 0
M  V30 14172 H 1350.98 3.14451 -3.87197 0
M  V30 14173 H 1350.13 5.3076 -2.93902 0
M  V30 14174 H 1348.87 4.43969 -2.01847 0
M  V30 14175 H 1347.88 3.59248 -4.16198 0
M  V30 14176 H 1349.1 4.49363 -5.09166 0
M  V30 14177 H 1347.05 5.71973 -3.21222 0
M  V30 14178 H 1346.96 5.71985 -4.94337 0
M  V30 14179 H 1348.23 6.60142 -4.14527 0
M  V30 14180 N 1352.46 1.37696 0.766659 0
M  V30 14181 C 1353.71 1.33382 1.52765 0
M  V30 14182 C 1354.04 -0.0800569 1.94035 0
M  V30 14183 O 1353.32 -1.03848 1.64456 0
M  V30 14184 C 1353.6 2.2776 2.78922 0
M  V30 14185 C 1353.45 3.77949 2.43874 0
M  V30 14186 C 1354.77 2.20494 3.80881 0
M  V30 14187 H 1351.89 0.485836 0.554195 0
M  V30 14188 H 1354.53 1.68438 0.879119 0
M  V30 14189 H 1352.68 1.97994 3.34261 0
M  V30 14190 H 1354.35 4.18333 1.9441 0
M  V30 14191 H 1352.6 3.96269 1.76503 0
M  V30 14192 H 1353.27 4.39428 3.34077 0
M  V30 14193 H 1355.74 2.46742 3.35048 0
M  V30 14194 H 1354.62 2.88663 4.66867 0
M  V30 14195 H 1354.88 1.19951 4.25516 0
M  V30 14196 N 1353.94 -0.993397 1.22349 0
M  V30 14197 C 1354.9 -2.065 0.994506 0
M  V30 14198 C 1355.9 -1.60753 -0.0388766 0
M  V30 14199 O 1357.09 -1.73053 0.199578 0
M  V30 14200 C 1354.22 -3.37182 0.502088 0
M  V30 14201 H 1355.42 -2.28248 1.94533 0
M  V30 14202 H 1352.97 -1.16489 1.04211 0
M  V30 14203 H 1353.71 -3.21119 -0.453114 0
M  V30 14204 H 1353.49 -3.71721 1.24763 0
M  V30 14205 H 1354.98 -4.16027 0.362108 0
M  V30 14206 N 1355.42 -1.03311 -1.19015 0
M  V30 14207 C 1356.83 -0.761079 -1.70483 0
M  V30 14208 C 1357.18 0.718851 -1.82557 0
M  V30 14209 O 1356.3 1.56006 -1.4997 0
M  V30 14210 C 1356.9 -1.37492 -3.09647 0
M  V30 14211 C 1355.46 -1.15138 -3.58358 0
M  V30 14212 C 1354.61 -1.47034 -2.35109 0
M  V30 14213 H 1357.56 -1.2005 -1.03797 0
M  V30 14214 H 1357.58 -0.774115 -3.72542 0
M  V30 14215 H 1357.09 -2.45203 -3.00828 0
M  V30 14216 H 1355.19 -0.0926822 -3.72485 0
M  V30 14217 H 1355.3 -1.84307 -4.4223 0
M  V30 14218 H 1353.67 -0.889794 -2.38652 0
M  V30 14219 H 1354.45 -2.55837 -2.28916 0
M  V30 14220 N 1356.9 1.35099 -0.81154 0
M  V30 14221 C 1358.14 1.98233 -0.393453 0
M  V30 14222 C 1358.46 1.64688 1.04417 0
M  V30 14223 O 1357.73 0.931845 1.72318 0
M  V30 14224 H 1356.31 0.733283 -0.142496 0
M  V30 14225 H 1358.98 1.6493 -1.03847 0
M  V30 14226 H 1358.07 3.08017 -0.503188 0
M  V30 14227 N 1358.37 0.56548 1.47106 0
M  V30 14228 C 1359.6 0.0495579 2.06541 0
M  V30 14229 C 1360.01 -1.25325 1.4174 0
M  V30 14230 O 1359.35 -1.76455 0.510818 0
M  V30 14231 C 1359.42 -0.20843 3.58895 0
M  V30 14232 C 1359.08 1.00618 4.45786 0
M  V30 14233 C 1360.08 1.91387 4.83391 0
M  V30 14234 C 1357.76 1.22318 4.87179 0
M  V30 14235 C 1359.76 3.02218 5.61198 0
M  V30 14236 C 1357.44 2.33457 5.64749 0
M  V30 14237 C 1358.44 3.23238 6.0167 0
M  V30 14238 O 1358.13 4.32449 6.77675 0
M  V30 14239 H 1357.86 0.0466 0.674392 0
M  V30 14240 H 1360.42 0.780887 1.89977 0
M  V30 14241 H 1358.65 -0.994169 3.73702 0
M  V30 14242 H 1360.33 -0.670745 4.0032 0
M  V30 14243 H 1361.1 1.75831 4.52005 0
M  V30 14244 H 1356.98 0.533514 4.57902 0
M  V30 14245 H 1360.52 3.72321 5.89935 0
M  V30 14246 H 1356.42 2.48983 5.95548 0
M  V30 14247 H 1357.19 4.306 6.96079 0
M  V30 14248 N 1359.85 -1.54672 0.302354 0
M  V30 14249 C 1361.08 -2.04282 -0.308645 0
M  V30 14250 C 1361.49 -1.17912 -1.47965 0
M  V30 14251 O 1360.83 -0.197723 -1.82633 0
M  V30 14252 C 1360.9 -3.49872 -0.826417 0
M  V30 14253 C 1360.56 -4.56473 0.219486 0
M  V30 14254 C 1361.56 -5.0922 1.0484 0
M  V30 14255 C 1359.24 -5.00997 0.361574 0
M  V30 14256 C 1361.24 -6.05033 2.00533 0
M  V30 14257 C 1358.92 -5.9663 1.32195 0
M  V30 14258 C 1359.92 -6.48532 2.1423 0
M  V30 14259 O 1359.61 -7.42292 3.08639 0
M  V30 14260 H 1359.34 -0.67228 -0.0708187 0
M  V30 14261 H 1361.89 -2.00625 0.440314 0
M  V30 14262 H 1360.12 -3.50857 -1.62593 0
M  V30 14263 H 1361.81 -3.8267 -1.35345 0
M  V30 14264 H 1362.58 -4.75615 0.949501 0
M  V30 14265 H 1358.46 -4.60226 -0.267018 0
M  V30 14266 H 1362 -6.45469 2.64604 0
M  V30 14267 H 1357.9 -6.29652 1.42156 0
M  V30 14268 H 1358.67 -7.60098 3.03633 0
M  V30 14269 N 1361.33 -0.0301034 -1.57571 0
M  V30 14270 C 1362.56 0.658488 -1.96142 0
M  V30 14271 C 1362.97 1.65606 -0.906644 0
M  V30 14272 O 1362.33 1.82159 0.111441 0
M  V30 14273 C 1362.38 1.364 -3.34779 0
M  V30 14274 O 1362.1 0.4064 -4.36211 0
M  V30 14275 C 1363.6 2.14432 -3.87987 0
M  V30 14276 H 1360.82 0.181496 -0.645988 0
M  V30 14277 H 1363.37 -0.09016 -2.04301 0
M  V30 14278 H 1361.52 2.06404 -3.27836 0
M  V30 14279 H 1361.94 0.907503 -5.16589 0
M  V30 14280 H 1363.41 2.59248 -4.87334 0
M  V30 14281 H 1363.89 2.98377 -3.22285 0
M  V30 14282 H 1364.49 1.49383 -3.98202 0
M  V30 14283 N 1362.81 1.55714 0.243056 0
M  V30 14284 C 1363.74 1.93655 1.30461 0
M  V30 14285 C 1364.72 0.801968 1.50008 0
M  V30 14286 O 1365.9 1.06256 1.62552 0
M  V30 14287 C 1363.03 2.23459 2.65863 0
M  V30 14288 C 1361.99 3.39205 2.61006 0
M  V30 14289 C 1361.31 3.5456 4.00239 0
M  V30 14290 C 1362.61 4.74787 2.17656 0
M  V30 14291 H 1364.31 2.82575 0.98954 0
M  V30 14292 H 1361.85 1.35955 0.474572 0
M  V30 14293 H 1363.81 2.48591 3.40266 0
M  V30 14294 H 1362.53 1.31369 2.99014 0
M  V30 14295 H 1361.19 3.14088 1.89061 0
M  V30 14296 H 1360.84 2.59884 4.30661 0
M  V30 14297 H 1360.54 4.32399 3.97876 0
M  V30 14298 H 1362.06 3.82017 4.76335 0
M  V30 14299 H 1363.48 4.99266 2.81792 0
M  V30 14300 H 1361.87 5.55756 2.26397 0
M  V30 14301 H 1362.94 4.7159 1.12831 0
M  V30 14302 N 1364.29 -0.50888 1.49158 0
M  V30 14303 C 1365.51 -1.28771 1.61943 0
M  V30 14304 C 1365.93 -1.86594 0.287759 0
M  V30 14305 O 1365.29 -1.67448 -0.725769 0
M  V30 14306 C 1365.34 -2.4236 2.68224 0
M  V30 14307 O 1365.06 -1.86915 3.96225 0
M  V30 14308 C 1366.56 -3.33856 2.91642 0
M  V30 14309 H 1363.78 -0.390849 0.545416 0
M  V30 14310 H 1366.32 -0.611729 1.95136 0
M  V30 14311 H 1364.48 -3.05803 2.37831 0
M  V30 14312 H 1364.89 -2.61426 4.54705 0
M  V30 14313 H 1366.37 -4.09856 3.69759 0
M  V30 14314 H 1366.84 -3.90374 2.01258 0
M  V30 14315 H 1367.45 -2.76187 3.23421 0
M  V30 14316 N 1365.76 -1.381 -0.759346 0
M  V30 14317 C 1366.73 -1.34674 -1.8546 0
M  V30 14318 C 1367.73 -0.248351 -1.58871 0
M  V30 14319 O 1368.92 -0.504915 -1.66722 0
M  V30 14320 C 1366.05 -1.0952 -3.22828 0
M  V30 14321 H 1367.24 -2.3211 -1.89908 0
M  V30 14322 H 1364.8 -1.2331 -0.960435 0
M  V30 14323 H 1365.53 -0.126664 -3.24053 0
M  V30 14324 H 1365.32 -1.89037 -3.43522 0
M  V30 14325 H 1366.81 -1.09804 -4.02906 0
M  V30 14326 N 1367.24 0.986894 -1.22875 0
M  V30 14327 C 1368.52 1.70121 -0.965311 0
M  V30 14328 C 1368.9 2.04648 0.517924 0
M  V30 14329 O 1368.25 1.73453 1.48749 0
M  V30 14330 C 1368.46 2.94738 -1.86897 0
M  V30 14331 C 1369.81 3.6739 -2.12861 0
M  V30 14332 O 1370.83 3.04758 -1.84394 0
M  V30 14333 O 1369.69 4.8009 -2.61106 0
M  V30 14334 H 1366.78 0.742817 -0.363527 0
M  V30 14335 H 1369.33 1.0427 -1.33887 0
M  V30 14336 H 1368.1 2.65771 -2.87196 0
M  V30 14337 H 1367.72 3.68327 -1.49736 0
M  V30 14338 N 1368.72 1.0394 1.18466 0
M  V30 14339 C 1369.65 0.587413 2.21545 0
M  V30 14340 C 1370.67 -0.34227 1.59161 0
M  V30 14341 O 1371.85 -0.136988 1.77974 0
M  V30 14342 C 1368.95 -0.161999 3.38513 0
M  V30 14343 C 1368.13 0.775243 4.30475 0
M  V30 14344 C 1367.19 0.0693526 5.26154 0
M  V30 14345 O 1366.21 0.69937 5.64887 0
M  V30 14346 N 1367.41 -1.19773 5.68009 0
M  V30 14347 H 1370.18 1.47399 2.60948 0
M  V30 14348 H 1367.74 0.919734 1.33239 0
M  V30 14349 H 1369.73 -0.644041 3.99542 0
M  V30 14350 H 1368.3 -0.950099 2.97812 0
M  V30 14351 H 1367.52 1.43717 3.67068 0
M  V30 14352 H 1368.81 1.41187 4.88819 0
M  V30 14353 H 1368.21 -1.73013 5.38593 0
M  V30 14354 H 1366.77 -1.62407 6.31243 0
M  V30 14355 N 1370.2 -1.34667 0.818693 0
M  V30 14356 C 1371.48 -1.92838 0.327521 0
M  V30 14357 C 1371.86 -1.74732 -1.18457 0
M  V30 14358 O 1371.2 -1.12352 -1.98971 0
M  V30 14359 C 1371.41 -3.40797 0.752207 0
M  V30 14360 C 1372.76 -4.17948 0.748613 0
M  V30 14361 O 1373.79 -3.49364 0.694517 0
M  V30 14362 O 1372.64 -5.40344 0.817958 0
M  V30 14363 H 1369.74 -0.822249 0.0885148 0
M  V30 14364 H 1372.28 -1.43668 0.9032 0
M  V30 14365 H 1371.06 -3.47759 1.79387 0
M  V30 14366 H 1370.68 -3.97309 0.151992 0
M  V30 14367 N 1371.68 -0.573274 -1.46804 0
M  V30 14368 C 1372.64 0.155066 -2.28675 0
M  V30 14369 C 1373.64 0.827706 -1.37861 0
M  V30 14370 O 1374.83 0.681105 -1.60333 0
M  V30 14371 C 1371.96 1.22864 -3.1799 0
M  V30 14372 H 1373.15 -0.564305 -2.94543 0
M  V30 14373 H 1370.71 -0.330855 -1.52758 0
M  V30 14374 H 1371.44 1.97989 -2.56848 0
M  V30 14375 H 1371.23 0.750936 -3.84842 0
M  V30 14376 H 1372.72 1.73974 -3.79635 0
M  V30 14377 N 1373.15 1.5451 -0.310553 0
M  V30 14378 C 1374.57 1.59543 0.0425296 0
M  V30 14379 C 1374.77 1.32737 1.51602 0
M  V30 14380 O 1373.83 1.10543 2.27016 0
M  V30 14381 C 1375.14 2.98489 -0.364002 0
M  V30 14382 C 1376.69 3.11425 -0.313566 0
M  V30 14383 C 1377.16 4.52695 -0.695064 0
M  V30 14384 N 1378.65 4.58645 -0.647966 0
M  V30 14385 C 1379.39 5.66044 -0.915508 0
M  V30 14386 N 1378.88 6.81439 -1.24951 0
M  V30 14387 N 1380.68 5.55759 -0.841933 0
M  V30 14388 H 1372.83 1.70194 -1.27074 0
M  V30 14389 H 1375.09 0.795374 -0.515833 0
M  V30 14390 H 1374.8 3.23061 -1.39012 0
M  V30 14391 H 1374.67 3.76177 0.27756 0
M  V30 14392 H 1377.06 2.86596 0.703326 0
M  V30 14393 H 1377.14 2.35871 -0.989883 0
M  V30 14394 H 1376.78 4.78255 -1.70981 0
M  V30 14395 H 1376.71 5.266 0.00342684 0
M  V30 14396 H 1379.2 3.75765 -0.401137 0
M  V30 14397 H 1379.52 7.59277 -1.43938 0
M  V30 14398 H 1377.86 6.82968 -1.28764 0
M  V30 14399 H 1381.05 4.64486 -0.58058 0
M  V30 14400 H 1381.23 6.39374 -1.0538 0
M  V30 14401 N 1374.63 0.0384594 1.57553 0
M  V30 14402 C 1375.88 -0.636879 1.91803 0
M  V30 14403 C 1376.2 -1.72128 0.916347 0
M  V30 14404 O 1375.47 -1.95858 -0.0407405 0
M  V30 14405 H 1374.05 -0.238237 0.707992 0
M  V30 14406 H 1376.71 0.0884651 1.94699 0
M  V30 14407 H 1375.81 -1.08364 2.92683 0
M  V30 14408 N 1376.11 -1.55841 -0.234795 0
M  V30 14409 C 1377.04 -1.86317 -1.31762 0
M  V30 14410 C 1378.02 -0.719321 -1.45824 0
M  V30 14411 O 1379.21 -0.966329 -1.61847 0
M  V30 14412 C 1376.33 -2.05854 -2.68964 0
M  V30 14413 C 1375.38 -3.28518 -2.71989 0
M  V30 14414 S 1376.21 -4.84827 -2.27382 0
M  V30 14415 C 1377.37 -5.07385 -3.66485 0
M  V30 14416 H 1377.6 -2.7787 -1.05715 0
M  V30 14417 H 1375.13 -1.48105 -0.436386 0
M  V30 14418 H 1377.09 -2.17794 -3.4796 0
M  V30 14419 H 1375.75 -1.15122 -2.92243 0
M  V30 14420 H 1374.95 -3.39192 -3.7278 0
M  V30 14421 H 1374.55 -3.15367 -2.01047 0
M  V30 14422 H 1376.84 -4.95471 -4.62077 0
M  V30 14423 H 1377.78 -6.09323 -3.60737 0
M  V30 14424 H 1378.19 -4.35175 -3.59559 0
M  V30 14425 N 1377.59 0.500963 -1.49426 0
M  V30 14426 C 1378.84 1.25694 -1.5915 0
M  V30 14427 C 1379.17 1.92209 -0.277365 0
M  V30 14428 O 1378.44 1.8072 0.719065 0
M  V30 14429 C 1378.73 2.32391 -2.75076 0
M  V30 14430 C 1378.58 1.70377 -4.16283 0
M  V30 14431 C 1379.9 3.33952 -2.86643 0
M  V30 14432 H 1377.02 0.455631 -0.579283 0
M  V30 14433 H 1379.66 0.555099 -1.8171 0
M  V30 14434 H 1377.81 2.92252 -2.55971 0
M  V30 14435 H 1379.48 1.14343 -4.46904 0
M  V30 14436 H 1377.72 1.00789 -4.21929 0
M  V30 14437 H 1378.4 2.47767 -4.9327 0
M  V30 14438 H 1380.87 2.84081 -3.04035 0
M  V30 14439 H 1379.75 4.05969 -3.69433 0
M  V30 14440 H 1380.01 3.96279 -1.95998 0
M  V30 14441 N 1379.07 1.38501 0.752011 0
M  V30 14442 C 1379.98 1.38094 1.8965 0
M  V30 14443 C 1380.99 0.277851 1.71767 0
M  V30 14444 O 1382.17 0.516536 1.94663 0
M  V30 14445 C 1379.23 1.2063 3.25037 0
M  V30 14446 C 1378.3 2.40758 3.55435 0
M  V30 14447 C 1377.53 2.24118 4.84362 0
M  V30 14448 O 1377.75 1.23571 5.56854 0
M  V30 14449 O 1376.69 3.12741 5.14273 0
M  V30 14450 H 1380.51 2.34532 1.92947 0
M  V30 14451 H 1378.1 1.19437 0.897504 0
M  V30 14452 H 1379.98 1.12957 4.05979 0
M  V30 14453 H 1378.65 0.272785 3.22549 0
M  V30 14454 H 1377.56 2.54006 2.74648 0
M  V30 14455 H 1378.89 3.32745 3.62686 0
M  V30 14456 N 1380.55 -0.980364 1.23396 0
M  V30 14457 C 1381.79 -1.72166 1.06607 0
M  V30 14458 C 1382.12 -1.90405 -0.397029 0
M  V30 14459 O 1381.38 -1.45363 -1.31027 0
M  V30 14460 C 1381.67 -3.12367 1.73671 0
M  V30 14461 C 1381.34 -3.14007 3.2359 0
M  V30 14462 C 1380 -3.14162 3.64494 0
M  V30 14463 C 1382.35 -3.09319 4.19489 0
M  V30 14464 C 1379.68 -3.07345 4.99756 0
M  V30 14465 C 1382.03 -3.04044 5.54743 0
M  V30 14466 C 1380.7 -3.02521 5.9501 0
M  V30 14467 H 1379.97 -0.63 0.390104 0
M  V30 14468 H 1382.62 -1.14727 1.5333 0
M  V30 14469 H 1380.92 -3.73193 1.19308 0
M  V30 14470 H 1382.62 -3.68493 1.58159 0
M  V30 14471 H 1379.21 -3.14644 2.91028 0
M  V30 14472 H 1383.39 -3.08339 3.88897 0
M  V30 14473 H 1378.65 -3.04519 5.30168 0
M  V30 14474 H 1382.82 -2.99374 6.28767 0
M  V30 14475 H 1380.45 -2.96994 6.99785 0
M  V30 14476 N 1382.02 -1.04567 -1.17913 0
M  V30 14477 C 1382.96 -0.599154 -2.2123 0
M  V30 14478 C 1383.97 0.333824 -1.59341 0
M  V30 14479 O 1385.16 0.127548 -1.78044 0
M  V30 14480 C 1382.26 0.144045 -3.38594 0
M  V30 14481 C 1381.43 -0.798061 -4.30058 0
M  V30 14482 C 1380.49 -0.0972548 -5.2611 0
M  V30 14483 O 1379.52 -0.729318 -5.64508 0
M  V30 14484 N 1380.72 1.16759 -5.68637 0
M  V30 14485 H 1383.48 -1.48781 -2.60162 0
M  V30 14486 H 1381.04 -0.926787 -1.32749 0
M  V30 14487 H 1383.04 0.622843 -3.99878 0
M  V30 14488 H 1381.61 0.934292 -2.98311 0
M  V30 14489 H 1380.83 -1.45662 -3.66301 0
M  V30 14490 H 1382.11 -1.43777 -4.88063 0
M  V30 14491 H 1381.51 1.70155 -5.39503 0
M  V30 14492 H 1380.07 1.59057 -6.32095 0
M  V30 14493 N 1383.5 1.34231 -0.825823 0
M  V30 14494 C 1384.41 2.33245 -0.251803 0
M  V30 14495 C 1385.43 1.62756 0.615334 0
M  V30 14496 O 1386.6 1.94503 0.522547 0
M  V30 14497 C 1383.67 3.41908 0.574456 0
M  V30 14498 C 1382.73 4.2814 -0.315422 0
M  V30 14499 C 1381.96 5.31613 0.471496 0
M  V30 14500 O 1382.19 5.44337 1.70449 0
M  V30 14501 O 1381.12 6.01719 -0.147691 0
M  V30 14502 H 1384.95 2.84174 -1.07139 0
M  V30 14503 H 1382.53 1.37341 -0.588032 0
M  V30 14504 H 1384.41 4.08252 1.04444 0
M  V30 14505 H 1383.09 2.93217 1.37132 0
M  V30 14506 H 1381.99 3.64709 -0.832963 0
M  V30 14507 H 1383.33 4.80279 -1.07672 0
M  V30 14508 N 1384.98 0.581051 1.46498 0
M  V30 14509 C 1386.23 0.0658652 2.01993 0
M  V30 14510 C 1386.55 -1.29807 1.45516 0
M  V30 14511 O 1385.82 -1.85177 0.639233 0
M  V30 14512 H 1384.4 0.0213584 0.746695 0
M  V30 14513 H 1387.06 0.756456 1.79621 0
M  V30 14514 H 1386.16 -0.00438128 3.121 0
M  V30 14515 N 1386.46 -1.54343 0.318742 0
M  V30 14516 C 1387.7 -2.00777 -0.285699 0
M  V30 14517 C 1388.04 -1.20664 -1.52164 0
M  V30 14518 O 1387.31 -0.287674 -1.92361 0
M  V30 14519 C 1387.59 -3.54641 -0.624649 0
M  V30 14520 C 1387.45 -4.45483 0.621663 0
M  V30 14521 C 1388.77 -4.15729 -1.4442 0
M  V30 14522 H 1385.89 -0.729856 -0.102367 0
M  V30 14523 H 1388.53 -1.84968 0.434364 0
M  V30 14524 H 1386.68 -3.68243 -1.23811 0
M  V30 14525 H 1388.35 -4.43759 1.25998 0
M  V30 14526 H 1386.59 -4.15356 1.25148 0
M  V30 14527 H 1387.26 -5.50951 0.340106 0
M  V30 14528 H 1389.74 -4.05672 -0.925699 0
M  V30 14529 H 1388.62 -5.23509 -1.65013 0
M  V30 14530 H 1388.88 -3.68743 -2.43887 0
M  V30 14531 N 1387.94 -0.0468143 -1.5753 0
M  V30 14532 C 1388.85 0.944362 -2.14753 0
M  V30 14533 C 1389.86 1.34473 -1.10422 0
M  V30 14534 O 1391.04 1.42254 -1.42569 0
M  V30 14535 C 1388.1 2.2023 -2.67768 0
M  V30 14536 C 1387.16 1.8607 -3.8688 0
M  V30 14537 C 1386.4 3.05867 -4.37357 0
M  V30 14538 O 1386.62 4.19099 -3.86927 0
M  V30 14539 O 1385.55 2.87134 -5.28997 0
M  V30 14540 H 1389.38 0.48772 -2.99758 0
M  V30 14541 H 1386.96 0.174831 -1.48374 0
M  V30 14542 H 1388.85 2.94044 -3.01855 0
M  V30 14543 H 1387.52 2.65041 -1.85836 0
M  V30 14544 H 1386.43 1.09586 -3.5769 0
M  V30 14545 H 1387.76 1.46062 -4.70028 0
M  V30 14546 N 1389.41 1.55964 0.226527 0
M  V30 14547 C 1390.34 1.95028 1.284 0
M  V30 14548 C 1391.33 0.817833 1.49149 0
M  V30 14549 O 1392.51 1.07975 1.61416 0
M  V30 14550 C 1389.64 2.26266 2.63478 0
M  V30 14551 C 1388.59 3.41954 2.57393 0
M  V30 14552 C 1387.92 3.58786 3.96456 0
M  V30 14553 C 1389.22 4.77069 2.12608 0
M  V30 14554 H 1390.91 2.83608 0.959513 0
M  V30 14555 H 1388.46 1.36451 0.460125 0
M  V30 14556 H 1390.41 2.52186 3.3761 0
M  V30 14557 H 1389.14 1.34533 2.97604 0
M  V30 14558 H 1387.8 3.16076 1.85719 0
M  V30 14559 H 1387.44 2.64437 4.27881 0
M  V30 14560 H 1387.14 4.36595 3.93267 0
M  V30 14561 H 1388.67 3.87048 4.72256 0
M  V30 14562 H 1390.08 5.02226 2.76481 0
M  V30 14563 H 1388.48 5.58126 2.2049 0
M  V30 14564 H 1389.55 4.7276 1.07823 0
M  V30 14565 N 1390.89 -0.493031 1.4969 0
M  V30 14566 C 1392.14 -1.24849 1.59814 0
M  V30 14567 C 1392.47 -1.92059 0.287555 0
M  V30 14568 O 1391.75 -1.81099 -0.709471 0
M  V30 14569 C 1392.03 -2.30929 2.76304 0
M  V30 14570 C 1391.88 -1.68167 4.17181 0
M  V30 14571 C 1393.2 -3.32427 2.8841 0
M  V30 14572 H 1390.32 -0.452553 0.581691 0
M  V30 14573 H 1392.96 -0.545455 1.82002 0
M  V30 14574 H 1391.11 -2.9089 2.57517 0
M  V30 14575 H 1392.78 -1.11971 4.47504 0
M  V30 14576 H 1391.03 -0.985496 4.22458 0
M  V30 14577 H 1391.7 -2.45148 4.94577 0
M  V30 14578 H 1394.17 -2.82464 3.05537 0
M  V30 14579 H 1393.05 -4.04004 3.71581 0
M  V30 14580 H 1393.31 -3.95234 1.98097 0
M  V30 14581 N 1392.37 -1.38898 -0.744656 0
M  V30 14582 C 1393.65 -1.2611 -1.49518 0
M  V30 14583 C 1394.03 0.133592 -2.10677 0
M  V30 14584 O 1393.38 1.14394 -1.97804 0
M  V30 14585 C 1393.59 -2.37809 -2.55437 0
M  V30 14586 C 1394.93 -2.76664 -3.22091 0
M  V30 14587 O 1395.96 -2.37187 -2.65746 0
M  V30 14588 O 1394.82 -3.44771 -4.24023 0
M  V30 14589 H 1391.91 -0.493664 -0.663494 0
M  V30 14590 H 1394.46 -1.50748 -0.779304 0
M  V30 14591 H 1393.23 -3.31089 -2.08556 0
M  V30 14592 H 1392.85 -2.14783 -3.34595 0
M  V30 14593 N 1393.85 0.973806 -1.23914 0
M  V30 14594 C 1395.09 1.71852 -1.07678 0
M  V30 14595 C 1395.43 1.90357 0.384425 0
M  V30 14596 O 1394.7 1.46063 1.28436 0
M  V30 14597 C 1394.99 3.1129 -1.81026 0
M  V30 14598 C 1394.84 3.00315 -3.3486 0
M  V30 14599 C 1396.16 4.10835 -1.57805 0
M  V30 14600 H 1393.28 0.623749 -0.392564 0
M  V30 14601 H 1395.92 1.13325 -1.52504 0
M  V30 14602 H 1394.07 3.61255 -1.42922 0
M  V30 14603 H 1395.74 2.57823 -3.82524 0
M  V30 14604 H 1393.98 2.36667 -3.63553 0
M  V30 14605 H 1394.65 3.9907 -3.81376 0
M  V30 14606 H 1397.13 3.69705 -1.90939 0
M  V30 14607 H 1396.01 5.06478 -2.11591 0
M  V30 14608 H 1396.27 4.39091 -0.514894 0
M  V30 14609 N 1395.33 1.05191 1.17357 0
M  V30 14610 C 1396.74 0.773255 1.39617 0
M  V30 14611 C 1396.94 -0.632346 1.91321 0
M  V30 14612 O 1396 -1.39475 2.10483 0
M  V30 14613 C 1397.31 1.82885 2.38692 0
M  V30 14614 C 1398.86 1.85106 2.52398 0
M  V30 14615 C 1399.33 2.89689 3.54746 0
M  V30 14616 N 1400.83 2.88651 3.62263 0
M  V30 14617 C 1401.56 3.66221 4.41214 0
M  V30 14618 N 1401.06 4.53577 5.23679 0
M  V30 14619 N 1402.85 3.54661 4.36087 0
M  V30 14620 H 1395 1.9588 0.82127 0
M  V30 14621 H 1397.26 0.848187 0.423417 0
M  V30 14622 H 1396.97 2.83766 2.07773 0
M  V30 14623 H 1396.84 1.67047 3.38194 0
M  V30 14624 H 1399.23 0.848896 2.82627 0
M  V30 14625 H 1399.31 2.05022 1.5297 0
M  V30 14626 H 1398.96 3.90091 3.25255 0
M  V30 14627 H 1398.89 2.67025 4.53878 0
M  V30 14628 H 1401.38 2.25312 3.03386 0
M  V30 14629 H 1401.69 5.09449 5.81104 0
M  V30 14630 H 1400.03 4.57638 5.23061 0
M  V30 14631 H 1403.23 2.8581 3.70716 0
M  V30 14632 H 1403.4 4.15361 4.97372 0
M  V30 14633 N 1396.8 -1.33791 0.83293 0
M  V30 14634 C 1398.05 -1.98266 0.426412 0
M  V30 14635 C 1398.38 -1.65848 -1.01035 0
M  V30 14636 O 1397.66 -0.93528 -1.70537 0
M  V30 14637 C 1397.94 -3.54356 0.640586 0
M  V30 14638 C 1397.79 -3.96482 2.12419 0
M  V30 14639 C 1399.11 -4.40022 0.0829237 0
M  V30 14640 H 1396.23 -0.720213 0.156404 0
M  V30 14641 H 1398.87 -1.58527 1.04735 0
M  V30 14642 H 1397.02 -3.88338 0.11204 0
M  V30 14643 H 1398.7 -3.72786 2.71714 0
M  V30 14644 H 1396.94 -3.46429 2.61092 0
M  V30 14645 H 1397.61 -5.05179 2.22482 0
M  V30 14646 H 1400.09 -4.12651 0.534634 0
M  V30 14647 H 1398.96 -5.48272 0.262511 0
M  V30 14648 H 1399.22 -4.30341 -1.01287 0
M  V30 14649 N 1398.28 -0.588812 -1.46187 0
M  V30 14650 C 1399.69 -0.163897 -1.85979 0
M  V30 14651 C 1400.04 1.27458 -1.49161 0
M  V30 14652 O 1399.17 1.96365 -0.909372 0
M  V30 14653 C 1399.76 -0.29067 -3.37551 0
M  V30 14654 C 1398.32 0.0794165 -3.76316 0
M  V30 14655 C 1397.47 -0.623807 -2.70192 0
M  V30 14656 H 1400.42 -0.79666 -1.37255 0
M  V30 14657 H 1400.44 0.482316 -3.77431 0
M  V30 14658 H 1399.95 -1.33771 -3.64317 0
M  V30 14659 H 1398.06 1.12636 -3.55168 0
M  V30 14660 H 1398.17 -0.301153 -4.78153 0
M  V30 14661 H 1396.53 -0.0634124 -2.54621 0
M  V30 14662 H 1397.32 -1.67261 -2.99797 0
M  V30 14663 N 1399.76 1.54172 -0.326923 0
M  V30 14664 C 1400.69 2.27402 0.530154 0
M  V30 14665 C 1401.67 1.28325 1.11655 0
M  V30 14666 O 1402.86 1.57142 1.14105 0
M  V30 14667 C 1399.99 3.03435 1.68951 0
M  V30 14668 C 1398.94 4.09877 1.23226 0
M  V30 14669 C 1398.27 4.7377 2.47882 0
M  V30 14670 C 1399.57 5.21161 0.344698 0
M  V30 14671 H 1401.26 2.99291 -0.0806959 0
M  V30 14672 H 1398.81 1.43944 -0.0402511 0
M  V30 14673 H 1400.76 3.53396 2.29541 0
M  V30 14674 H 1399.48 2.29169 2.327 0
M  V30 14675 H 1398.14 3.60805 0.649267 0
M  V30 14676 H 1397.79 3.96116 3.10002 0
M  V30 14677 H 1397.49 5.45674 2.17977 0
M  V30 14678 H 1399.01 5.26507 3.09229 0
M  V30 14679 H 1400.43 5.66859 0.856979 0
M  V30 14680 H 1398.83 5.99941 0.138276 0
M  V30 14681 H 1399.9 4.80874 -0.623575 0
M  V30 14682 N 1401.24 0.0551678 1.57503 0
M  V30 14683 C 1402.49 -0.61772 1.92848 0
M  V30 14684 C 1402.81 -1.70614 0.933862 0
M  V30 14685 O 1402.07 -1.95628 -0.0532073 0
M  V30 14686 C 1402.37 -1.24895 3.34867 0
M  V30 14687 C 1402.03 -0.288325 4.49977 0
M  V30 14688 C 1400.7 -0.0240016 4.81194 0
M  V30 14689 C 1403.05 0.369804 5.19886 0
M  V30 14690 C 1400.38 0.905818 5.79665 0
M  V30 14691 C 1402.73 1.28784 6.19352 0
M  V30 14692 C 1401.39 1.5608 6.48996 0
M  V30 14693 H 1400.66 -0.22604 0.705682 0
M  V30 14694 H 1403.31 0.1225 1.91108 0
M  V30 14695 H 1401.61 -2.06452 3.32993 0
M  V30 14696 H 1403.31 -1.77659 3.59497 0
M  V30 14697 H 1399.9 -0.504524 4.2562 0
M  V30 14698 H 1404.08 0.178689 4.95978 0
M  V30 14699 H 1399.34 1.12472 6.00966 0
M  V30 14700 H 1403.51 1.80385 6.72632 0
M  V30 14701 H 1401.14 2.28292 7.25112 0
M  V30 14702 N 1402.72 -1.56081 -0.218252 0
M  V30 14703 C 1403.97 -1.78445 -0.94022 0
M  V30 14704 C 1404.28 -0.624317 -1.85369 0
M  V30 14705 O 1405.48 -0.731669 -2.61455 0
M  V30 14706 C 1403.94 -3.16026 -1.72208 0
M  V30 14707 C 1403.55 -4.39774 -0.854584 0
M  V30 14708 C 1405.29 -3.47714 -2.43506 0
M  V30 14709 C 1403.2 -5.68379 -1.63398 0
M  V30 14710 H 1402.13 -0.665303 -0.354806 0
M  V30 14711 H 1404.78 -1.82471 -0.194021 0
M  V30 14712 H 1403.16 -3.06185 -2.5113 0
M  V30 14713 H 1404.34 -4.60679 -0.105659 0
M  V30 14714 H 1402.65 -4.15627 -0.253562 0
M  V30 14715 H 1405.25 -4.41026 -3.02325 0
M  V30 14716 H 1405.59 -2.70367 -3.16555 0
M  V30 14717 H 1406.12 -3.58899 -1.71571 0
M  V30 14718 H 1402.86 -6.48628 -0.946704 0
M  V30 14719 H 1402.38 -5.5153 -2.35743 0
M  V30 14720 H 1404.06 -6.08672 -2.1938 0
M  V30 14721 N 1404.2 0.485086 -1.49949 0
M  V30 14722 C 1405.61 0.817651 -1.37064 0
M  V30 14723 C 1405.81 1.9716 -0.415949 0
M  V30 14724 O 1404.87 2.52074 0.146567 0
M  V30 14725 C 1406.18 1.14288 -2.78134 0
M  V30 14726 C 1407.73 1.25016 -2.8695 0
M  V30 14727 C 1408.2 1.60859 -4.28822 0
M  V30 14728 N 1409.69 1.67878 -4.31707 0
M  V30 14729 C 1410.43 1.97089 -5.38464 0
M  V30 14730 N 1409.93 2.24415 -6.55446 0
M  V30 14731 N 1411.72 1.98474 -5.25894 0
M  V30 14732 H 1403.87 -0.275606 -2.10604 0
M  V30 14733 H 1406.13 -0.0607486 -0.946052 0
M  V30 14734 H 1405.84 0.36817 -3.49768 0
M  V30 14735 H 1405.71 2.0825 -3.14502 0
M  V30 14736 H 1408.1 2.01556 -2.15544 0
M  V30 14737 H 1408.18 0.290664 -2.54143 0
M  V30 14738 H 1407.82 0.848639 -5.0076 0
M  V30 14739 H 1407.75 2.57936 -4.59104 0
M  V30 14740 H 1410.25 1.48856 -3.47347 0
M  V30 14741 H 1410.56 2.45938 -7.32622 0
M  V30 14742 H 1408.9 2.21837 -6.58645 0
M  V30 14743 H 1412.09 1.76612 -4.33504 0
M  V30 14744 H 1412.27 2.20904 -6.09184 0
M  V30 14745 N 1405.67 1.39291 0.737279 0
M  V30 14746 C 1407.08 1.32489 1.31543 0
M  V30 14747 C 1407.44 -0.0118162 1.96196 0
M  V30 14748 O 1406.56 -0.913938 1.96153 0
M  V30 14749 C 1407.16 2.39946 2.39189 0
M  V30 14750 C 1405.71 2.36671 2.92684 0
M  V30 14751 C 1404.86 2.21953 1.66229 0
M  V30 14752 H 1407.81 1.49412 0.534954 0
M  V30 14753 H 1407.83 2.06603 3.19524 0
M  V30 14754 H 1407.35 3.3722 1.92104 0
M  V30 14755 H 1405.45 1.43028 3.44055 0
M  V30 14756 H 1405.56 3.31441 3.45953 0
M  V30 14757 H 1403.92 1.69087 1.90478 0
M  V30 14758 H 1404.71 3.21194 1.21199 0
M  V30 14759 N 1407.15 -0.967221 1.24429 0
M  V30 14760 C 1408.06 -2.09582 1.05417 0
M  V30 14761 C 1409.08 -1.73999 -0.00516127 0
M  V30 14762 O 1410.25 -2.00472 0.193115 0
M  V30 14763 C 1407.32 -3.40327 0.661697 0
M  V30 14764 C 1406.38 -3.89854 1.79756 0
M  V30 14765 C 1405.61 -5.1436 1.42372 0
M  V30 14766 O 1405.84 -5.69536 0.313754 0
M  V30 14767 O 1404.77 -5.58283 2.24952 0
M  V30 14768 H 1408.6 -2.28517 2.00034 0
M  V30 14769 H 1406.18 -1.07978 1.03253 0
M  V30 14770 H 1408.06 -4.18943 0.454369 0
M  V30 14771 H 1406.74 -3.22691 -0.255348 0
M  V30 14772 H 1405.64 -3.12297 2.05964 0
M  V30 14773 H 1406.98 -4.11967 2.69339 0
M  V30 14774 N 1408.63 -1.05812 -1.16797 0
M  V30 14775 C 1409.91 -0.685551 -1.83193 0
M  V30 14776 C 1410.29 0.833539 -1.93947 0
M  V30 14777 O 1409.63 1.74193 -1.47882 0
M  V30 14778 C 1409.84 -1.38183 -3.20479 0
M  V30 14779 C 1411.19 -1.52389 -3.96311 0
M  V30 14780 O 1412.22 -1.34134 -3.2998 0
M  V30 14781 O 1411.08 -1.82297 -5.15199 0
M  V30 14782 H 1408.17 -0.242095 -0.790771 0
M  V30 14783 H 1410.72 -1.15809 -1.24041 0
M  V30 14784 H 1409.49 -2.41791 -3.07657 0
M  V30 14785 H 1409.11 -0.899043 -3.87302 0
M  V30 14786 N 1410.11 1.33347 -0.840014 0
M  V30 14787 C 1411.38 1.92293 -0.358158 0
M  V30 14788 C 1411.76 1.76594 1.15662 0
M  V30 14789 O 1411.11 1.15503 1.97158 0
M  V30 14790 C 1411.32 3.39558 -0.806329 0
M  V30 14791 C 1412.67 4.16705 -0.81501 0
M  V30 14792 O 1413.69 3.48214 -0.75001 0
M  V30 14793 O 1412.55 5.38974 -0.903818 0
M  V30 14794 H 1409.65 0.820737 -0.101585 0
M  V30 14795 H 1412.19 1.42213 -0.925942 0
M  V30 14796 H 1410.97 3.44861 -1.84897 0
M  V30 14797 H 1410.59 3.97017 -0.215181 0
M  V30 14798 N 1411.59 0.596556 1.45873 0
M  V30 14799 C 1412.86 0.0199562 1.9559 0
M  V30 14800 C 1413.24 -1.44479 1.53912 0
M  V30 14801 O 1412.59 -2.14173 0.796384 0
M  V30 14802 C 1412.8 0.206497 3.48389 0
M  V30 14803 C 1414.15 0.0815298 4.24522 0
M  V30 14804 O 1415.17 0.136045 3.5594 0
M  V30 14805 O 1414.03 -0.0426117 5.46483 0
M  V30 14806 H 1411.13 -0.0419913 0.825933 0
M  V30 14807 H 1413.67 0.665846 1.56092 0
M  V30 14808 H 1412.44 1.22422 3.71656 0
M  V30 14809 H 1412.07 -0.475175 3.9475 0
M  V30 14810 N 1413.06 -1.53996 0.335095 0
M  V30 14811 C 1413.97 -2.28436 -0.534244 0
M  V30 14812 C 1414.99 -1.33224 -1.11926 0
M  V30 14813 O 1416.17 -1.66252 -1.13676 0
M  V30 14814 C 1413.23 -3.03634 -1.67354 0
M  V30 14815 C 1412.29 -4.14455 -1.11916 0
M  V30 14816 C 1411.52 -4.86058 -2.20416 0
M  V30 14817 O 1411.75 -4.57263 -3.40979 0
M  V30 14818 O 1410.68 -5.72704 -1.85185 0
M  V30 14819 H 1414.51 -3.03618 0.0706314 0
M  V30 14820 H 1412.09 -1.49062 0.100409 0
M  V30 14821 H 1413.97 -3.50687 -2.33659 0
M  V30 14822 H 1412.65 -2.31317 -2.26438 0
M  V30 14823 H 1411.56 -3.71725 -0.420871 0
M  V30 14824 H 1412.89 -4.8885 -0.573295 0
M  V30 14825 N 1414.54 -0.0635198 -1.57472 0
M  V30 14826 C 1415.49 0.906604 -2.12248 0
M  V30 14827 C 1416.46 1.30078 -1.0329 0
M  V30 14828 O 1417.64 1.38809 -1.30907 0
M  V30 14829 C 1414.78 2.1718 -2.68192 0
M  V30 14830 C 1413.9 1.831 -3.91278 0
M  V30 14831 C 1413.03 3.0417 -4.35493 0
M  V30 14832 C 1412.07 2.66069 -5.51248 0
M  V30 14833 N 1411.21 3.79871 -5.9046 0
M  V30 14834 H 1416.05 0.432606 -2.94843 0
M  V30 14835 H 1413.58 0.201895 -1.45708 0
M  V30 14836 H 1415.54 2.91231 -2.98732 0
M  V30 14837 H 1414.17 2.62135 -1.88375 0
M  V30 14838 H 1413.22 0.991473 -3.67252 0
M  V30 14839 H 1414.54 1.51063 -4.75375 0
M  V30 14840 H 1413.69 3.86507 -4.6765 0
M  V30 14841 H 1412.43 3.39395 -3.50232 0
M  V30 14842 H 1411.43 1.82151 -5.1875 0
M  V30 14843 H 1412.66 2.32023 -6.38234 0
M  V30 14844 H 1410.61 4.14873 -5.0815 0
M  V30 14845 H 1410.52 3.51573 -6.69277 0
M  V30 14846 H 1411.79 4.62811 -6.27237 0
M  V30 14847 N 1416.02 1.56195 0.209972 0
M  V30 14848 C 1416.95 1.89859 1.28398 0
M  V30 14849 C 1417.96 0.787878 1.42465 0
M  V30 14850 O 1419.15 1.06623 1.43156 0
M  V30 14851 C 1416.25 2.10231 2.65812 0
M  V30 14852 C 1415.43 3.41309 2.73545 0
M  V30 14853 C 1414.49 3.50973 3.92052 0
M  V30 14854 O 1413.51 4.23915 3.79849 0
M  V30 14855 N 1414.71 2.82965 5.06864 0
M  V30 14856 H 1417.48 2.82581 0.998411 0
M  V30 14857 H 1415.04 1.56882 0.399964 0
M  V30 14858 H 1417.03 2.13999 3.43492 0
M  V30 14859 H 1415.6 1.2408 2.8692 0
M  V30 14860 H 1414.82 3.49539 1.82253 0
M  V30 14861 H 1416.11 4.27636 2.7569 0
M  V30 14862 H 1415.51 2.23504 5.19676 0
M  V30 14863 H 1414.06 2.9238 5.82544 0
M  V30 14864 N 1417.5 -0.477127 1.50204 0
M  V30 14865 C 1418.43 -1.58405 1.71552 0
M  V30 14866 C 1419.41 -1.60463 0.564413 0
M  V30 14867 O 1420.59 -1.76826 0.802893 0
M  V30 14868 C 1417.72 -2.96765 1.8041 0
M  V30 14869 C 1416.68 -3.09573 2.95548 0
M  V30 14870 C 1416 -4.49522 2.89542 0
M  V30 14871 C 1417.3 -2.87356 4.36147 0
M  V30 14872 H 1419 -1.40792 2.64231 0
M  V30 14873 H 1416.54 -0.675886 1.27153 0
M  V30 14874 H 1418.5 -3.74125 1.9393 0
M  V30 14875 H 1417.22 -3.1552 0.843489 0
M  V30 14876 H 1415.88 -2.34645 2.81669 0
M  V30 14877 H 1415.53 -4.65186 1.91339 0
M  V30 14878 H 1415.23 -4.59028 3.66834 0
M  V30 14879 H 1416.75 -5.28909 3.05102 0
M  V30 14880 H 1418.17 -3.54469 4.50583 0
M  V30 14881 H 1416.56 -3.08313 5.14843 0
M  V30 14882 H 1417.63 -1.83264 4.48935 0
M  V30 14883 N 1418.98 -1.3968 -0.729882 0
M  V30 14884 C 1419.91 -1.41549 -1.85704 0
M  V30 14885 C 1420.89 -0.278186 -1.6781 0
M  V30 14886 O 1422.07 -0.484749 -1.88053 0
M  V30 14887 C 1419.2 -1.26327 -3.2351 0
M  V30 14888 C 1418.16 -2.37511 -3.56051 0
M  V30 14889 C 1417.48 -2.07375 -4.92849 0
M  V30 14890 C 1418.78 -3.79833 -3.58502 0
M  V30 14891 H 1420.48 -2.35877 -1.84398 0
M  V30 14892 H 1418.02 -1.13536 -0.885747 0
M  V30 14893 H 1419.98 -1.26254 -4.02042 0
M  V30 14894 H 1418.7 -0.284697 -3.25357 0
M  V30 14895 H 1417.36 -2.36809 -2.79852 0
M  V30 14896 H 1417.01 -1.07943 -4.91281 0
M  V30 14897 H 1416.71 -2.81855 -5.15588 0
M  V30 14898 H 1418.23 -2.08961 -5.73731 0
M  V30 14899 H 1419.64 -3.82436 -4.27101 0
M  V30 14900 H 1418.04 -4.53715 -3.92763 0
M  V30 14901 H 1419.11 -4.10443 -2.58195 0
M  V30 14902 N 1420.45 0.960609 -1.2494 0
M  V30 14903 C 1421.7 1.70701 -1.09495 0
M  V30 14904 C 1422.03 1.90754 0.364214 0
M  V30 14905 O 1421.31 1.47417 1.26879 0
M  V30 14906 C 1421.59 3.09353 -1.84317 0
M  V30 14907 C 1421.44 2.96747 -3.38026 0
M  V30 14908 C 1422.76 4.09139 -1.62153 0
M  V30 14909 H 1419.88 0.61955 -0.399158 0
M  V30 14910 H 1422.52 1.11701 -1.53698 0
M  V30 14911 H 1420.67 3.59719 -1.46746 0
M  V30 14912 H 1422.35 2.53752 -3.85237 0
M  V30 14913 H 1420.59 2.32798 -3.66043 0
M  V30 14914 H 1421.26 3.95002 -3.85587 0
M  V30 14915 H 1423.74 3.67659 -1.94849 0
M  V30 14916 H 1422.61 5.04206 -2.16951 0
M  V30 14917 H 1422.87 4.38521 -0.561437 0
M  V30 14918 N 1421.93 1.0643 1.16234 0
M  V30 14919 C 1422.84 0.687446 2.24302 0
M  V30 14920 C 1423.86 -0.297132 1.71444 0
M  V30 14921 O 1425.03 -0.146101 2.00869 0
M  V30 14922 C 1422.1 0.0810973 3.46605 0
M  V30 14923 C 1421.16 1.11772 4.14494 0
M  V30 14924 C 1420.39 0.54021 5.30959 0
M  V30 14925 O 1420.62 -0.646619 5.66723 0
M  V30 14926 O 1419.55 1.28057 5.8812 0
M  V30 14927 H 1423.38 1.58842 2.58849 0
M  V30 14928 H 1420.96 0.836649 1.23776 0
M  V30 14929 H 1422.84 -0.25524 4.20626 0
M  V30 14930 H 1421.52 -0.793338 3.13828 0
M  V30 14931 H 1420.43 1.50626 3.42436 0
M  V30 14932 H 1421.76 1.96373 4.5133 0
M  V30 14933 N 1423.41 -1.329 0.847073 0
M  V30 14934 C 1424.37 -2.27341 0.291324 0
M  V30 14935 C 1425.37 -1.51295 -0.544653 0
M  V30 14936 O 1426.56 -1.70497 -0.357258 0
M  V30 14937 C 1423.7 -3.35779 -0.588668 0
M  V30 14938 H 1424.89 -2.78009 1.12477 0
M  V30 14939 H 1422.44 -1.43442 0.620803 0
M  V30 14940 H 1423.18 -2.90366 -1.44423 0
M  V30 14941 H 1422.96 -3.92099 0.00960515 0
M  V30 14942 H 1424.45 -4.06166 -0.970526 0
M  V30 14943 N 1424.89 -0.604284 -1.45555 0
M  V30 14944 C 1426.14 -0.0957836 -2.01472 0
M  V30 14945 C 1426.45 1.28016 -1.47889 0
M  V30 14946 O 1427.66 1.88121 -1.95762 0
M  V30 14947 C 1426.11 -0.120566 -3.59698 0
M  V30 14948 C 1425.72 -1.49616 -4.22278 0
M  V30 14949 C 1427.46 0.332865 -4.23193 0
M  V30 14950 C 1425.37 -1.4775 -5.72646 0
M  V30 14951 H 1424.3 -0.0320399 -0.753319 0
M  V30 14952 H 1426.95 -0.759125 -1.67061 0
M  V30 14953 H 1425.33 0.609365 -3.91283 0
M  V30 14954 H 1426.51 -2.24753 -4.02272 0
M  V30 14955 H 1424.82 -1.89141 -3.70965 0
M  V30 14956 H 1427.42 0.365951 -5.33446 0
M  V30 14957 H 1427.76 1.35487 -3.93635 0
M  V30 14958 H 1428.3 -0.343692 -3.96313 0
M  V30 14959 H 1425.04 -2.47701 -6.06898 0
M  V30 14960 H 1424.56 -0.768659 -5.94854 0
M  V30 14961 H 1426.23 -1.19971 -6.3578 0
M  V30 14962 N 1426.37 1.53816 -0.343257 0
M  V30 14963 C 1427.64 1.9315 0.308609 0
M  V30 14964 C 1428.02 1.27479 1.68263 0
M  V30 14965 O 1427.37 0.425614 2.24501 0
M  V30 14966 C 1427.58 3.46912 0.381176 0
M  V30 14967 C 1428.93 4.19868 0.632153 0
M  V30 14968 O 1429.95 3.53174 0.463303 0
M  V30 14969 O 1428.81 5.38016 0.959237 0
M  V30 14970 H 1425.91 0.807169 0.180022 0
M  V30 14971 H 1428.45 1.65053 -0.394412 0
M  V30 14972 H 1427.22 3.86932 -0.583058 0
M  V30 14973 H 1426.85 3.81175 1.13099 0
M  V30 14974 N 1427.84 0.0718701 1.57436 0
M  V30 14975 C 1429.09 -0.598116 1.93779 0
M  V30 14976 C 1429.42 -1.69258 0.952131 0
M  V30 14977 O 1428.7 -1.94491 -0.0186426 0
M  V30 14978 C 1428.98 -1.17499 3.40391 0
M  V30 14979 C 1428.83 -0.0871719 4.49716 0
M  V30 14980 C 1430.15 -2.08047 3.8782 0
M  V30 14981 H 1427.27 -0.215954 0.704651 0
M  V30 14982 H 1429.91 0.137854 1.89499 0
M  V30 14983 H 1428.06 -1.80221 3.44169 0
M  V30 14984 H 1429.74 0.545906 4.58058 0
M  V30 14985 H 1427.98 0.582213 4.29875 0
M  V30 14986 H 1428.65 -0.531202 5.49438 0
M  V30 14987 H 1431.13 -1.5526 3.86049 0
M  V30 14988 H 1430 -2.45345 4.91016 0
M  V30 14989 H 1430.26 -2.98879 3.25766 0
M  V30 14990 N 1429.32 -1.56304 -0.201686 0
M  V30 14991 C 1430.73 -1.7022 -0.766953 0
M  V30 14992 C 1431.08 -0.677318 -1.84138 0
M  V30 14993 O 1430.21 0.167604 -2.1575 0
M  V30 14994 C 1430.8 -3.08615 -1.39795 0
M  V30 14995 C 1429.36 -3.24317 -1.91037 0
M  V30 14996 C 1428.51 -2.66167 -0.777853 0
M  V30 14997 H 1431.46 -1.58683 0.0232884 0
M  V30 14998 H 1431.48 -3.05578 -2.26721 0
M  V30 14999 H 1430.99 -3.83185 -0.615728 0
M  V30 15000 H 1429.1 -2.54652 -2.71999 0
M  V30 15001 H 1429.21 -4.31753 -2.07669 0
M  V30 15002 H 1427.57 -2.25169 -1.19042 0
M  V30 15003 H 1428.36 -3.43299 -0.00798179 0
M  V30 15004 N 1430.8 0.469154 -1.50455 0
M  V30 15005 C 1431.76 1.5493 -1.68906 0
M  V30 15006 C 1432.76 1.50744 -0.559721 0
M  V30 15007 O 1433.95 1.5333 -0.826781 0
M  V30 15008 C 1431.09 2.94556 -1.71609 0
M  V30 15009 H 1432.28 1.39887 -2.65276 0
M  V30 15010 H 1429.83 0.695667 -1.39965 0
M  V30 15011 H 1430.57 3.15041 -0.769382 0
M  V30 15012 H 1430.35 2.99002 -2.53654 0
M  V30 15013 H 1431.84 3.72973 -1.87831 0
M  V30 15014 N 1432.28 1.40065 0.722464 0
M  V30 15015 C 1433.53 1.37698 1.47932 0
M  V30 15016 C 1433.85 -0.0222608 1.94987 0
M  V30 15017 O 1433.12 -0.975795 1.69868 0
M  V30 15018 H 1431.7 0.506766 0.548815 0
M  V30 15019 H 1434.36 1.75053 0.856884 0
M  V30 15020 H 1433.46 2.04756 2.35545 0
M  V30 15021 N 1433.76 -0.95397 1.25448 0
M  V30 15022 C 1434.99 -1.73331 1.12977 0
M  V30 15023 C 1435.4 -1.86131 -0.316364 0
M  V30 15024 O 1434.76 -1.35951 -1.21753 0
M  V30 15025 C 1434.81 -3.14675 1.77938 0
M  V30 15026 O 1434.53 -3.025 3.16899 0
M  V30 15027 C 1436.03 -4.08884 1.71256 0
M  V30 15028 H 1433.25 -0.543118 0.394036 0
M  V30 15029 H 1435.79 -1.19678 1.65823 0
M  V30 15030 H 1433.95 -3.6527 1.29062 0
M  V30 15031 H 1434.36 -3.91668 3.4885 0
M  V30 15032 H 1435.84 -5.05668 2.21368 0
M  V30 15033 H 1436.31 -4.33959 0.676476 0
M  V30 15034 H 1436.92 -3.64205 2.19624 0
M  V30 15035 N 1435.24 -1.07045 -1.15668 0
M  V30 15036 C 1436.2 -0.69198 -2.18505 0
M  V30 15037 C 1437.2 0.266185 -1.58582 0
M  V30 15038 O 1438.39 0.0475566 -1.74135 0
M  V30 15039 C 1435.52 -0.0194196 -3.40894 0
M  V30 15040 H 1436.71 -1.60241 -2.53501 0
M  V30 15041 H 1434.27 -0.866598 -1.30076 0
M  V30 15042 H 1435 0.903398 -3.11463 0
M  V30 15043 H 1434.79 -0.708519 -3.85645 0
M  V30 15044 H 1436.28 0.230829 -4.16962 0
M  V30 15045 N 1436.71 1.32449 -0.85411 0
M  V30 15046 C 1437.94 2.01463 -0.471188 0
M  V30 15047 C 1438.36 1.64195 0.931954 0
M  V30 15048 O 1437.71 0.862994 1.60806 0
M  V30 15049 C 1437.76 3.56486 -0.600022 0
M  V30 15050 O 1437.49 3.92414 -1.94789 0
M  V30 15051 C 1438.99 4.42773 -0.216036 0
M  V30 15052 H 1436.21 0.644914 -0.185275 0
M  V30 15053 H 1438.75 1.6904 -1.1509 0
M  V30 15054 H 1436.91 3.87387 0.0319488 0
M  V30 15055 H 1437.32 4.87133 -1.94427 0
M  V30 15056 H 1438.79 5.50843 -0.357186 0
M  V30 15057 H 1439.27 4.31025 0.843468 0
M  V30 15058 H 1439.88 4.1726 -0.823058 0
M  V30 15059 N 1438.19 0.611994 1.45232 0
M  V30 15060 C 1439.12 -0.0914869 2.33321 0
M  V30 15061 C 1440.1 -0.854315 1.4709 0
M  V30 15062 O 1441.29 -0.823994 1.75852 0
M  V30 15063 C 1438.42 -1.08652 3.29867 0
M  V30 15064 C 1437.37 -0.436615 4.25767 0
M  V30 15065 C 1436.7 -1.54021 5.12037 0
M  V30 15066 C 1438 0.645005 5.18302 0
M  V30 15067 H 1439.69 0.644053 2.92391 0
M  V30 15068 H 1437.24 0.311171 1.40598 0
M  V30 15069 H 1439.19 -1.58726 3.90364 0
M  V30 15070 H 1437.91 -1.85271 2.68965 0
M  V30 15071 H 1436.57 0.0432918 3.66574 0
M  V30 15072 H 1436.22 -2.29679 4.475 0
M  V30 15073 H 1435.92 -1.11084 5.77005 0
M  V30 15074 H 1437.45 -2.04313 5.75403 0
M  V30 15075 H 1438.86 0.228166 5.72846 0
M  V30 15076 H 1437.26 0.996387 5.9177 0
M  V30 15077 H 1438.33 1.51985 4.60466 0
M  V30 15078 N 1439.67 -1.53632 0.351409 0
M  V30 15079 C 1440.92 -2.00643 -0.242208 0
M  V30 15080 C 1441.24 -1.24074 -1.50435 0
M  V30 15081 O 1440.51 -0.350067 -1.92747 0
M  V30 15082 H 1439.09 -0.741252 -0.0924904 0
M  V30 15083 H 1441.75 -1.89039 0.474379 0
M  V30 15084 H 1440.85 -3.084 -0.479151 0
M  V30 15085 N 1441.15 -0.0802183 -1.57396 0
M  V30 15086 C 1442.56 0.276428 -1.57188 0
M  V30 15087 C 1442.76 1.69456 -1.09027 0
M  V30 15088 O 1441.82 2.40792 -0.75997 0
M  V30 15089 C 1443.13 0.0784079 -3.00598 0
M  V30 15090 C 1444.68 0.1473 -3.12653 0
M  V30 15091 C 1445.16 -0.0225423 -4.57994 0
M  V30 15092 N 1446.65 0.0327854 -4.63188 0
M  V30 15093 C 1447.38 -0.0740922 -5.73352 0
M  V30 15094 N 1446.88 -0.234966 -6.92401 0
M  V30 15095 N 1448.67 -0.0164241 -5.62098 0
M  V30 15096 H 1440.82 -1.00695 -1.87014 0
M  V30 15097 H 1443.08 -0.393402 -0.862519 0
M  V30 15098 H 1442.79 -0.900488 -3.39977 0
M  V30 15099 H 1442.66 0.82713 -3.6802 0
M  V30 15100 H 1445.05 1.11669 -2.73156 0
M  V30 15101 H 1445.13 -0.632666 -2.47853 0
M  V30 15102 H 1444.78 -0.988733 -4.98183 0
M  V30 15103 H 1444.71 0.776933 -5.20837 0
M  V30 15104 H 1447.2 0.15519 -3.77581 0
M  V30 15105 H 1447.51 -0.308435 -7.72184 0
M  V30 15106 H 1445.86 -0.270439 -6.94474 0
M  V30 15107 H 1449.05 0.108019 -4.67975 0
M  V30 15108 H 1449.22 -0.10317 -6.47918 0
M  V30 15109 N 1442.63 1.56409 0.193394 0
M  V30 15110 C 1444.04 1.50032 0.544298 0
M  V30 15111 C 1444.24 0.780546 1.85768 0
M  V30 15112 O 1443.3 0.331769 2.50311 0
M  V30 15113 C 1444.61 2.94705 0.597463 0
M  V30 15114 C 1446.16 3.05386 0.686179 0
M  V30 15115 C 1446.63 4.51473 0.770439 0
M  V30 15116 N 1448.12 4.55631 0.833921 0
M  V30 15117 C 1448.86 5.65982 0.919314 0
M  V30 15118 N 1448.36 6.8602 0.966904 0
M  V30 15119 N 1450.15 5.539 0.956634 0
M  V30 15120 H 1442.3 2.01619 -0.668096 0
M  V30 15121 H 1444.56 0.917589 -0.238191 0
M  V30 15122 H 1444.27 3.50431 -0.298509 0
M  V30 15123 H 1444.14 3.48151 1.45157 0
M  V30 15124 H 1446.53 2.49708 1.57258 0
M  V30 15125 H 1446.61 2.55062 -0.194165 0
M  V30 15126 H 1446.25 5.07777 -0.111619 0
M  V30 15127 H 1446.18 4.99531 1.66661 0
M  V30 15128 H 1448.68 3.69198 0.80632 0
M  V30 15129 H 1448.99 7.6587 1.03262 0
M  V30 15130 H 1447.33 6.88674 0.935552 0
M  V30 15131 H 1450.52 4.59044 0.916304 0
M  V30 15132 H 1450.7 6.39926 1.01972 0
M  V30 15133 N 1444.1 -0.461169 1.50702 0
M  V30 15134 C 1445.03 -1.56576 1.73223 0
M  V30 15135 C 1446.01 -1.59855 0.581401 0
M  V30 15136 O 1447.2 -1.75964 0.821602 0
M  V30 15137 C 1444.33 -2.94835 1.83548 0
M  V30 15138 C 1443.28 -3.06421 2.98815 0
M  V30 15139 C 1442.61 -4.46425 2.94293 0
M  V30 15140 C 1443.91 -2.82714 4.3917 0
M  V30 15141 H 1445.6 -1.37982 2.65709 0
M  V30 15142 H 1443.15 -0.662362 1.27862 0
M  V30 15143 H 1445.1 -3.72047 1.97887 0
M  V30 15144 H 1443.83 -3.14608 0.876906 0
M  V30 15145 H 1442.49 -2.31644 2.84142 0
M  V30 15146 H 1442.13 -4.63131 1.96262 0
M  V30 15147 H 1441.83 -4.55111 3.71682 0
M  V30 15148 H 1443.36 -5.25644 3.10695 0
M  V30 15149 H 1444.77 -3.4967 4.54317 0
M  V30 15150 H 1443.17 -3.02835 5.18084 0
M  V30 15151 H 1444.24 -1.78492 4.50853 0
M  V30 15152 N 1445.58 -1.40446 -0.715026 0
M  V30 15153 C 1446.83 -1.3896 -1.47709 0
M  V30 15154 C 1447.16 0.00798698 -1.94198 0
M  V30 15155 O 1446.44 0.976732 -1.68197 0
M  V30 15156 C 1446.72 -2.37955 -2.70277 0
M  V30 15157 C 1446.57 -3.8674 -2.29678 0
M  V30 15158 C 1447.89 -2.34478 -3.72435 0
M  V30 15159 H 1445.01 -0.50607 -0.535782 0
M  V30 15160 H 1447.65 -1.71585 -0.815999 0
M  V30 15161 H 1445.8 -2.10264 -3.26682 0
M  V30 15162 H 1447.47 -4.2526 -1.7875 0
M  V30 15163 H 1445.72 -4.02547 -1.61674 0
M  V30 15164 H 1446.39 -4.51524 -3.17538 0
M  V30 15165 H 1448.86 -2.59007 -3.2566 0
M  V30 15166 H 1447.74 -3.05791 -4.55832 0
M  V30 15167 H 1448 -1.35661 -4.20771 0
M  V30 15168 N 1447.06 0.947303 -1.25952 0
M  V30 15169 C 1448.01 2.06642 -1.06779 0
M  V30 15170 C 1449 1.694 0.00348362 0
M  V30 15171 O 1450.21 1.79351 -0.152715 0
M  V30 15172 H 1446.58 0.676499 -0.32841 0
M  V30 15173 H 1448.55 2.19968 -2.01635 0
M  V30 15174 C 1447.3 3.40353 -0.711015 0
M  V30 15175 H 1446.63 3.69483 -1.52718 0
M  V30 15176 H 1448.07 4.19493 -0.616606 0
M  V30 15177 C 1446.52 3.3181 0.58344 0
M  V30 15178 O 1447.05 3.67431 1.6235 0
M  V30 15179 N 1445.26 2.84919 0.571797 0
M  V30 15180 H 1444.81 2.56128 -0.274962 0
M  V30 15181 H 1444.77 2.79586 1.43803 0
M  V30 15182 N 1448.54 1.07657 1.15099 0
M  V30 15183 C 1449.79 0.796589 1.85303 0
M  V30 15184 C 1450.1 -0.679887 1.83404 0
M  V30 15185 O 1451.31 -1.07475 2.49322 0
M  V30 15186 C 1449.76 1.37495 3.326 0
M  V30 15187 C 1449.37 2.88267 3.42938 0
M  V30 15188 C 1451.11 1.17313 4.07968 0
M  V30 15189 C 1449.02 3.39278 4.84401 0
M  V30 15190 H 1447.95 0.294316 0.694186 0
M  V30 15191 H 1450.6 1.29702 1.29806 0
M  V30 15192 H 1448.98 0.802248 3.87789 0
M  V30 15193 H 1450.16 3.51608 2.9784 0
M  V30 15194 H 1448.47 3.07275 2.81018 0
M  V30 15195 H 1451.07 1.52899 5.12373 0
M  V30 15196 H 1451.41 0.112387 4.16148 0
M  V30 15197 H 1451.95 1.71236 3.59059 0
M  V30 15198 H 1448.69 4.44892 4.81406 0
M  V30 15199 H 1448.21 2.80692 5.30068 0
M  V30 15200 H 1449.88 3.35416 5.53267 0
M  V30 15201 N 1450.02 -1.31994 0.861122 0
M  V30 15202 C 1451.24 -2.01211 0.481865 0
M  V30 15203 C 1451.66 -1.64687 -0.923233 0
M  V30 15204 O 1451.02 -0.87151 -1.60346 0
M  V30 15205 C 1451.07 -3.56162 0.618919 0
M  V30 15206 O 1450.79 -3.91376 1.96868 0
M  V30 15207 C 1452.29 -4.42652 0.239514 0
M  V30 15208 H 1449.51 -0.643922 0.188693 0
M  V30 15209 H 1452.05 -1.68427 1.15985 0
M  V30 15210 H 1450.21 -3.87398 -0.0114042 0
M  V30 15211 H 1450.62 -4.86095 1.97008 0
M  V30 15212 H 1452.1 -5.50646 0.386394 0
M  V30 15213 H 1452.57 -4.31466 -0.820598 0
M  V30 15214 H 1453.18 -4.16818 0.845175 0
M  V30 15215 N 1451.49 -0.619688 -1.44906 0
M  V30 15216 C 1452.74 -0.117147 -2.0136 0
M  V30 15217 C 1453.06 1.2644 -1.49239 0
M  V30 15218 O 1454.26 1.86034 -1.97747 0
M  V30 15219 C 1452.72 -0.15871 -3.5955 0
M  V30 15220 C 1452.33 -1.54086 -4.20668 0
M  V30 15221 C 1454.07 0.287961 -4.23522 0
M  V30 15222 C 1451.98 -1.53816 -5.71047 0
M  V30 15223 H 1450.91 -0.040028 -0.752937 0
M  V30 15224 H 1453.56 -0.776802 -1.66247 0
M  V30 15225 H 1451.94 0.56783 -3.91908 0
M  V30 15226 H 1453.11 -2.29007 -3.99865 0
M  V30 15227 H 1451.43 -1.93065 -3.68938 0
M  V30 15228 H 1454.03 0.309351 -5.33804 0
M  V30 15229 H 1454.37 1.31305 -3.9505 0
M  V30 15230 H 1454.9 -0.385707 -3.95926 0
M  V30 15231 H 1451.64 -2.54124 -6.04236 0
M  V30 15232 H 1451.16 -0.831708 -5.94006 0
M  V30 15233 H 1452.84 -1.26708 -6.34472 0
M  V30 15234 N 1452.97 1.53444 -0.359552 0
M  V30 15235 C 1454.22 2.00348 0.233109 0
M  V30 15236 C 1454.53 1.25104 1.50361 0
M  V30 15237 O 1455.74 1.62566 2.1745 0
M  V30 15238 C 1454.2 3.56871 0.465951 0
M  V30 15239 C 1453.8 4.40987 -0.789571 0
M  V30 15240 C 1455.55 4.12148 1.0166 0
M  V30 15241 C 1453.46 5.8905 -0.526646 0
M  V30 15242 H 1452.39 0.748502 0.0908851 0
M  V30 15243 H 1455.04 1.77182 -0.47736 0
M  V30 15244 H 1453.42 3.76167 1.23753 0
M  V30 15245 H 1454.59 4.33465 -1.56348 0
M  V30 15246 H 1452.91 3.96784 -1.263 0
M  V30 15247 H 1455.5 5.20395 1.22853 0
M  V30 15248 H 1455.85 3.66364 1.97694 0
M  V30 15249 H 1456.38 3.96626 0.305334 0
M  V30 15250 H 1453.12 6.39099 -1.45715 0
M  V30 15251 H 1452.64 5.99436 0.208875 0
M  V30 15252 H 1454.32 6.46826 -0.149889 0
M  V30 15253 N 1454.45 0.0885642 1.57351 0
M  V30 15254 C 1455.4 -0.872723 2.13664 0
M  V30 15255 C 1456.37 -1.28418 1.05347 0
M  V30 15256 O 1457.55 -1.36709 1.33099 0
M  V30 15257 C 1454.69 -2.12886 2.71613 0
M  V30 15258 C 1453.81 -1.76852 3.94141 0
M  V30 15259 C 1452.94 -2.97203 4.40277 0
M  V30 15260 C 1451.98 -2.57265 5.55411 0
M  V30 15261 N 1451.12 -3.70429 5.96428 0
M  V30 15262 H 1455.96 -0.385644 2.95494 0
M  V30 15263 H 1453.49 -0.178688 1.46011 0
M  V30 15264 H 1455.45 -2.86441 3.03327 0
M  V30 15265 H 1454.08 -2.59105 1.92521 0
M  V30 15266 H 1453.13 -0.932921 3.68783 0
M  V30 15267 H 1454.45 -1.43481 4.77718 0
M  V30 15268 H 1453.6 -3.79019 4.7374 0
M  V30 15269 H 1452.34 -3.3378 3.55587 0
M  V30 15270 H 1451.34 -1.73875 5.21582 0
M  V30 15271 H 1452.57 -2.21839 6.41844 0
M  V30 15272 H 1450.51 -4.06737 5.14686 0
M  V30 15273 H 1450.43 -3.40881 6.74786 0
M  V30 15274 H 1451.7 -4.52774 6.3452 0
M  V30 15275 N 1455.93 -1.56509 -0.185096 0
M  V30 15276 C 1456.84 -1.98552 -1.24958 0
M  V30 15277 C 1457.85 -0.894713 -1.49234 0
M  V30 15278 O 1459.03 -1.20126 -1.61653 0
M  V30 15279 C 1456.1 -2.32513 -2.57175 0
M  V30 15280 C 1455.16 -3.55351 -2.40882 0
M  V30 15281 C 1454.39 -3.87683 -3.66794 0
M  V30 15282 O 1454.61 -3.21167 -4.7139 0
M  V30 15283 O 1453.55 -4.8108 -3.61726 0
M  V30 15284 H 1457.37 -2.89342 -0.922756 0
M  V30 15285 H 1454.96 -1.44196 -0.390887 0
M  V30 15286 H 1456.84 -2.55387 -3.35195 0
M  V30 15287 H 1455.51 -1.44888 -2.89464 0
M  V30 15288 H 1454.42 -3.37712 -1.60939 0
M  V30 15289 H 1455.75 -4.43474 -2.13522 0
M  V30 15290 N 1457.41 0.45317 -1.50944 0
M  V30 15291 C 1458.34 1.56678 -1.67287 0
M  V30 15292 C 1459.35 1.53089 -0.553853 0
M  V30 15293 O 1460.54 1.58152 -0.827653 0
M  V30 15294 C 1457.64 2.95585 -1.65779 0
M  V30 15295 C 1456.81 3.2385 -2.94007 0
M  V30 15296 C 1455.87 4.42401 -2.84899 0
M  V30 15297 O 1454.9 4.4183 -3.58853 0
M  V30 15298 N 1456.1 5.4508 -1.99671 0
M  V30 15299 H 1458.87 1.43069 -2.63347 0
M  V30 15300 H 1456.43 0.641875 -1.48632 0
M  V30 15301 H 1458.42 3.7289 -1.57275 0
M  V30 15302 H 1456.99 3.02872 -0.773791 0
M  V30 15303 H 1456.21 2.34991 -3.16501 0
M  V30 15304 H 1457.5 3.39554 -3.7892 0
M  V30 15305 H 1456.89 5.48374 -1.38933 0
M  V30 15306 H 1455.45 6.21298 -1.97057 0
M  V30 15307 N 1458.88 1.40823 0.707568 0
M  V30 15308 C 1459.85 1.41464 1.80334 0
M  V30 15309 C 1460.85 0.307143 1.57839 0
M  V30 15310 O 1462.04 0.566444 1.64733 0
M  V30 15311 C 1459.17 1.21426 3.18541 0
M  V30 15312 H 1460.36 2.38998 1.81162 0
M  V30 15313 H 1457.92 1.2679 0.914007 0
M  V30 15314 H 1458.65 0.246847 3.23359 0
M  V30 15315 H 1458.44 2.01657 3.36269 0
M  V30 15316 H 1459.93 1.24681 3.98553 0
M  V30 15317 N 1460.36 -0.94061 1.26453 0
M  V30 15318 C 1461.78 -1.21424 1.03578 0
M  V30 15319 C 1461.98 -2.00081 -0.238726 0
M  V30 15320 O 1461.03 -2.3404 -0.947709 0
M  V30 15321 C 1462.35 -1.97496 2.26751 0
M  V30 15322 C 1463.9 -2.10485 2.31657 0
M  V30 15323 C 1464.37 -2.89959 3.54525 0
M  V30 15324 N 1465.86 -2.97533 3.55005 0
M  V30 15325 C 1466.6 -3.59456 4.46742 0
M  V30 15326 N 1466.09 -4.22876 5.48769 0
M  V30 15327 N 1467.89 -3.56734 4.34393 0
M  V30 15328 H 1460.04 -0.414788 2.08311 0
M  V30 15329 H 1462.3 -0.246047 0.915513 0
M  V30 15330 H 1462.01 -1.47109 3.19456 0
M  V30 15331 H 1461.88 -2.98159 2.31043 0
M  V30 15332 H 1464.27 -2.60064 1.39466 0
M  V30 15333 H 1464.35 -1.09082 2.31376 0
M  V30 15334 H 1463.99 -2.41067 4.47045 0
M  V30 15335 H 1463.92 -3.91619 3.52054 0
M  V30 15336 H 1466.41 -2.52446 2.81211 0
M  V30 15337 H 1466.73 -4.68026 6.14956 0
M  V30 15338 H 1465.07 -4.21461 5.52626 0
M  V30 15339 H 1468.26 -3.06381 3.53904 0
M  V30 15340 H 1468.43 -4.04706 5.0608 0
M  V30 15341 N 1461.84 -1.08266 -1.14527 0
M  V30 15342 C 1463.12 -0.724254 -1.81697 0
M  V30 15343 C 1463.5 0.792212 -1.95671 0
M  V30 15344 O 1462.85 1.71017 -1.51543 0
M  V30 15345 C 1463.06 -1.44949 -3.17475 0
M  V30 15346 C 1464.4 -1.60761 -3.9299 0
M  V30 15347 O 1465.43 -1.41103 -3.2706 0
M  V30 15348 O 1464.29 -1.93184 -5.11216 0
M  V30 15349 H 1461.38 -0.258814 -0.785458 0
M  V30 15350 H 1463.93 -1.18414 -1.21557 0
M  V30 15351 H 1462.7 -2.48262 -3.02459 0
M  V30 15352 H 1462.32 -0.980993 -3.85308 0
M  V30 15353 N 1463.32 1.31536 -0.86811 0
M  V30 15354 C 1464.57 1.97066 -0.478829 0
M  V30 15355 C 1464.9 1.68469 0.966021 0
M  V30 15356 O 1464.17 0.980166 1.67997 0
M  V30 15357 C 1464.46 3.52533 -0.734313 0
M  V30 15358 C 1464.31 3.90711 -2.22856 0
M  V30 15359 C 1465.63 4.39647 -0.199559 0
M  V30 15360 H 1462.75 0.715813 -0.175444 0
M  V30 15361 H 1465.39 1.55694 -1.08901 0
M  V30 15362 H 1463.54 3.87905 -0.214962 0
M  V30 15363 H 1465.21 3.65451 -2.81502 0
M  V30 15364 H 1463.45 3.39385 -2.70185 0
M  V30 15365 H 1464.13 4.99103 -2.35797 0
M  V30 15366 H 1466.6 4.11088 -0.643853 0
M  V30 15367 H 1465.48 5.47383 -0.407783 0
M  V30 15368 H 1465.74 4.32875 0.898414 0
M  V30 15369 N 1464.8 0.627364 1.44575 0
M  V30 15370 C 1466.04 0.130545 2.02379 0
M  V30 15371 C 1466.38 -1.24301 1.49208 0
M  V30 15372 O 1465.65 -1.82425 0.674626 0
M  V30 15373 C 1465.93 0.11311 3.59922 0
M  V30 15374 C 1465.79 1.51874 4.23385 0
M  V30 15375 C 1467.11 -0.564341 4.36467 0
M  V30 15376 H 1464.23 0.0489125 0.735375 0
M  V30 15377 H 1466.87 0.803118 1.72192 0
M  V30 15378 H 1465.02 -0.459621 3.85772 0
M  V30 15379 H 1466.69 2.14007 4.08655 0
M  V30 15380 H 1464.93 2.07371 3.81024 0
M  V30 15381 H 1465.6 1.4586 5.3238 0
M  V30 15382 H 1468.08 -0.0773244 4.16028 0
M  V30 15383 H 1466.96 -0.545715 5.46181 0
M  V30 15384 H 1467.22 -1.63403 4.10794 0
M  V30 15385 N 1466.28 -1.53251 0.367684 0
M  V30 15386 C 1467.5 -2.0618 -0.224645 0
M  V30 15387 C 1467.93 -1.23927 -1.41505 0
M  V30 15388 O 1467.28 -0.258858 -1.79443 0
M  V30 15389 C 1467.33 -3.55671 -0.594171 0
M  V30 15390 O 1466.44 -3.76132 -1.69112 0
M  V30 15391 H 1465.78 -0.663218 -0.0322099 0
M  V30 15392 H 1468.31 -1.97646 0.528897 0
M  V30 15393 H 1468.32 -3.98734 -0.864589 0
M  V30 15394 H 1466.99 -4.14982 0.276254 0
M  V30 15395 H 1465.57 -3.44965 -1.41609 0
M  V30 15396 N 1467.75 -0.0969077 -1.57302 0
M  V30 15397 C 1469 0.566373 -1.94418 0
M  V30 15398 C 1469.33 1.68078 -0.978769 0
M  V30 15399 O 1468.58 1.957 0.0013214 0
M  V30 15400 C 1468.88 1.15972 -3.38061 0
M  V30 15401 C 1468.55 0.16892 -4.50583 0
M  V30 15402 C 1467.21 -0.103587 -4.81088 0
M  V30 15403 C 1469.56 -0.507513 -5.18723 0
M  V30 15404 C 1466.89 -1.05919 -5.7706 0
M  V30 15405 C 1469.24 -1.4516 -6.1572 0
M  V30 15406 C 1467.91 -1.73232 -6.44629 0
M  V30 15407 H 1467.18 0.207251 -0.711427 0
M  V30 15408 H 1469.82 -0.173125 -1.90716 0
M  V30 15409 H 1468.13 1.97551 -3.3835 0
M  V30 15410 H 1469.83 1.68066 -3.64081 0
M  V30 15411 H 1466.42 0.391501 -4.26808 0
M  V30 15412 H 1470.6 -0.310127 -4.9533 0
M  V30 15413 H 1465.86 -1.28366 -5.97773 0
M  V30 15414 H 1470.03 -1.98155 -6.67613 0
M  V30 15415 H 1467.66 -2.47436 -7.18804 0
M  V30 15416 N 1469.23 1.56605 0.176793 0
M  V30 15417 C 1470.14 1.99211 1.23903 0
M  V30 15418 C 1471.16 0.902614 1.48758 0
M  V30 15419 O 1472.33 1.20982 1.61014 0
M  V30 15420 C 1469.4 2.33873 2.55938 0
M  V30 15421 C 1468.46 3.56624 2.38994 0
M  V30 15422 C 1467.69 3.89623 3.64733 0
M  V30 15423 O 1467.92 3.23662 4.6968 0
M  V30 15424 O 1466.85 4.82992 3.5917 0
M  V30 15425 H 1470.68 2.89827 0.907398 0
M  V30 15426 H 1468.26 1.44401 0.383234 0
M  V30 15427 H 1470.14 2.57161 3.33836 0
M  V30 15428 H 1468.82 1.46421 2.88691 0
M  V30 15429 H 1467.72 3.38561 1.59146 0
M  V30 15430 H 1469.06 4.446 2.11167 0
M  V30 15431 N 1470.71 -0.445159 1.51182 0
M  V30 15432 C 1471.64 -1.55788 1.68115 0
M  V30 15433 C 1472.65 -1.52793 0.561964 0
M  V30 15434 O 1473.84 -1.57711 0.836029 0
M  V30 15435 C 1470.94 -2.94702 1.67344 0
M  V30 15436 C 1470.12 -3.22286 2.9572 0
M  V30 15437 C 1469.18 -4.40884 2.87241 0
M  V30 15438 O 1468.2 -4.3992 3.61191 0
M  V30 15439 N 1469.4 -5.44013 2.02558 0
M  V30 15440 H 1472.17 -1.4167 2.64102 0
M  V30 15441 H 1469.73 -0.633984 1.48971 0
M  V30 15442 H 1471.72 -3.7205 1.5925 0
M  V30 15443 H 1470.29 -3.02457 0.789842 0
M  V30 15444 H 1469.51 -2.33309 3.17743 0
M  V30 15445 H 1470.8 -3.3754 3.80715 0
M  V30 15446 H 1470.2 -5.47629 1.4184 0
M  V30 15447 H 1468.75 -6.20245 2.0035 0
M  V30 15448 N 1472.19 -1.41197 -0.700089 0
M  V30 15449 C 1473.6 -1.3593 -1.27985 0
M  V30 15450 C 1473.95 -0.0402059 -1.96159 0
M  V30 15451 O 1473.07 0.861611 -1.98508 0
M  V30 15452 C 1473.67 -2.46203 -2.32743 0
M  V30 15453 C 1472.23 -2.44348 -2.86306 0
M  V30 15454 C 1471.38 -2.26283 -1.60285 0
M  V30 15455 H 1474.33 -1.50778 -0.495152 0
M  V30 15456 H 1474.35 -2.15001 -3.13934 0
M  V30 15457 H 1473.86 -3.42195 -1.83096 0
M  V30 15458 H 1471.96 -1.521 -3.40142 0
M  V30 15459 H 1472.07 -3.40497 -3.37044 0
M  V30 15460 H 1470.44 -1.74078 -1.85928 0
M  V30 15461 H 1471.22 -3.24295 -1.1264 0
M  V30 15462 N 1473.67 0.933891 -1.2695 0
M  V30 15463 C 1474.58 2.06713 -1.10936 0
M  V30 15464 C 1475.59 1.73952 -0.0409734 0
M  V30 15465 O 1476.77 1.9989 -0.246199 0
M  V30 15466 C 1473.83 3.38453 -0.751696 0
M  V30 15467 C 1472.89 3.84951 -1.90029 0
M  V30 15468 C 1472.13 5.10404 -1.55959 0
M  V30 15469 O 1472.35 5.68504 -0.464646 0
M  V30 15470 O 1471.28 5.52123 -2.39675 0
M  V30 15471 H 1475.11 2.23133 -2.06023 0
M  V30 15472 H 1472.69 1.05202 -1.06079 0
M  V30 15473 H 1474.58 4.17591 -0.565285 0
M  V30 15474 H 1473.25 3.23255 0.169703 0
M  V30 15475 H 1472.16 3.06727 -2.14172 0
M  V30 15476 H 1473.49 4.04681 -2.80167 0
M  V30 15477 N 1475.14 1.08871 1.13951 0
M  V30 15478 C 1476.39 0.821287 1.85098 0
M  V30 15479 C 1476.72 -0.65302 1.8321 0
M  V30 15480 O 1475.97 -1.49629 1.26134 0
M  V30 15481 C 1476.27 1.29443 3.33135 0
M  V30 15482 C 1475.94 2.77737 3.55208 0
M  V30 15483 C 1474.6 3.18238 3.60941 0
M  V30 15484 C 1476.95 3.7338 3.63644 0
M  V30 15485 C 1474.28 4.53165 3.72637 0
M  V30 15486 C 1476.63 5.08089 3.76867 0
M  V30 15487 C 1475.3 5.48187 3.8085 0
M  V30 15488 H 1474.57 0.30053 0.67732 0
M  V30 15489 H 1477.21 1.36249 1.34568 0
M  V30 15490 H 1475.52 0.672919 3.85978 0
M  V30 15491 H 1477.22 1.06421 3.86621 0
M  V30 15492 H 1473.81 2.45393 3.51398 0
M  V30 15493 H 1477.99 3.43207 3.58501 0
M  V30 15494 H 1473.25 4.83679 3.73985 0
M  V30 15495 H 1477.42 5.82058 3.82337 0
M  V30 15496 H 1475.05 6.52737 3.89665 0
M  V30 15497 N 1476.62 -1.31073 0.875073 0
M  V30 15498 C 1477.85 -2.01223 0.502383 0
M  V30 15499 C 1478.27 -1.65223 -0.899053 0
M  V30 15500 O 1477.63 -0.863559 -1.59412 0
M  V30 15501 C 1477.68 -3.54269 0.672747 0
M  V30 15502 O 1476.78 -4.11409 -0.285718 0
M  V30 15503 H 1476.12 -0.633422 0.199181 0
M  V30 15504 H 1478.65 -1.67152 1.17989 0
M  V30 15505 H 1478.66 -4.04027 0.567973 0
M  V30 15506 H 1477.34 -3.79811 1.69459 0
M  V30 15507 H 1475.91 -3.72654 -0.135472 0
M  V30 15508 N 1478.1 -0.635022 -1.4424 0
M  V30 15509 C 1479.35 -0.141276 -2.02307 0
M  V30 15510 C 1479.68 1.23508 -1.49865 0
M  V30 15511 O 1478.95 1.82065 -0.684291 0
M  V30 15512 C 1479.24 -0.132196 -3.59857 0
M  V30 15513 C 1479.09 -1.54117 -4.22573 0
M  V30 15514 C 1480.41 0.541186 -4.3676 0
M  V30 15515 H 1477.53 -0.0528117 -0.735105 0
M  V30 15516 H 1480.17 -0.812239 -1.71763 0
M  V30 15517 H 1478.32 0.439156 -3.8601 0
M  V30 15518 H 1479.99 -2.16171 -4.07514 0
M  V30 15519 H 1478.24 -2.09389 -3.79919 0
M  V30 15520 H 1478.91 -1.48682 -5.31599 0
M  V30 15521 H 1481.38 0.0552603 -4.16063 0
M  V30 15522 H 1480.26 0.516742 -5.46462 0
M  V30 15523 H 1480.52 1.61222 -4.11655 0
M  V30 15524 N 1479.58 1.53054 -0.375806 0
M  V30 15525 C 1480.8 2.06296 0.213708 0
M  V30 15526 C 1481.23 1.24675 1.40846 0
M  V30 15527 O 1480.59 0.268371 1.79303 0
M  V30 15528 C 1480.63 3.55981 0.575301 0
M  V30 15529 O 1479.74 3.77023 1.67115 0
M  V30 15530 H 1479.08 0.66338 0.0286922 0
M  V30 15531 H 1481.61 1.97362 -0.539371 0
M  V30 15532 H 1481.62 3.99187 0.843431 0
M  V30 15533 H 1480.29 4.14829 -0.298258 0
M  V30 15534 H 1478.87 3.45712 1.39778 0
M  V30 15535 N 1481.06 0.105248 1.57248 0
M  V30 15536 C 1482.47 -0.251385 1.57608 0
M  V30 15537 C 1482.67 -1.677 1.11709 0
M  V30 15538 O 1481.73 -2.39552 0.798182 0
M  V30 15539 C 1483.04 -0.0305755 3.00684 0
M  V30 15540 C 1484.59 -0.0975409 3.12848 0
M  V30 15541 C 1485.06 0.0954024 4.57901 0
M  V30 15542 N 1486.56 0.040908 4.63182 0
M  V30 15543 C 1487.29 0.165298 5.73162 0
M  V30 15544 N 1486.79 0.345091 6.9194 0
M  V30 15545 N 1488.58 0.105847 5.62 0
M  V30 15546 H 1480.73 1.03658 1.85388 0
M  V30 15547 H 1482.99 0.407074 0.856151 0
M  V30 15548 H 1482.7 0.954461 3.38501 0
M  V30 15549 H 1482.57 -0.768477 3.69289 0
M  V30 15550 H 1484.96 -1.07309 2.74898 0
M  V30 15551 H 1485.04 0.672017 2.46815 0
M  V30 15552 H 1484.69 1.06786 4.96547 0
M  V30 15553 H 1484.62 -0.693974 5.22007 0
M  V30 15554 H 1487.11 -0.0951009 3.7778 0
M  V30 15555 H 1487.42 0.431243 7.71596 0
M  V30 15556 H 1485.76 0.38089 6.93955 0
M  V30 15557 H 1488.96 -0.0335544 4.68088 0
M  V30 15558 H 1489.13 0.206235 6.47672 0
M  V30 15559 N 1482.53 -1.56697 -0.168486 0
M  V30 15560 C 1483.78 -1.81794 -0.882907 0
M  V30 15561 C 1484.1 -0.682707 -1.82658 0
M  V30 15562 O 1483.37 0.297234 -1.93632 0
M  V30 15563 H 1481.95 -0.670636 -0.329024 0
M  V30 15564 H 1484.62 -1.94178 -0.167625 0
M  V30 15565 H 1483.71 -2.75945 -1.45811 0
M  V30 15566 N 1484.01 0.437135 -1.51416 0
M  V30 15567 C 1485.29 1.1978 -1.54636 0
M  V30 15568 C 1485.67 2.088 -0.310747 0
M  V30 15569 O 1485.02 2.1738 0.704148 0
M  V30 15570 C 1485.23 1.99947 -2.86046 0
M  V30 15571 C 1486.58 2.56981 -3.38003 0
M  V30 15572 O 1487.6 2.10157 -2.87598 0
M  V30 15573 O 1486.46 3.42383 -4.25953 0
M  V30 15574 H 1483.55 0.545346 -0.621713 0
M  V30 15575 H 1486.1 0.446189 -1.63729 0
M  V30 15576 H 1484.87 1.34564 -3.67435 0
M  V30 15577 H 1484.49 2.82172 -2.80115 0
M  V30 15578 N 1485.49 1.41566 0.692592 0
M  V30 15579 C 1486.42 1.39582 1.81795 0
M  V30 15580 C 1487.44 0.29754 1.60058 0
M  V30 15581 O 1488.62 0.559463 1.69506 0
M  V30 15582 C 1485.72 1.15506 3.18609 0
M  V30 15583 C 1484.9 2.37432 3.67349 0
M  V30 15584 C 1483.96 2.09168 4.82841 0
M  V30 15585 O 1482.98 2.8223 4.94303 0
M  V30 15586 N 1484.18 1.08377 5.70294 0
M  V30 15587 H 1486.95 2.36577 1.83988 0
M  V30 15588 H 1484.51 1.36216 0.875026 0
M  V30 15589 H 1486.5 0.945452 3.93501 0
M  V30 15590 H 1485.07 0.270987 3.11423 0
M  V30 15591 H 1484.29 2.74076 2.8333 0
M  V30 15592 H 1485.58 3.18661 3.96652 0
M  V30 15593 H 1484.98 0.479122 5.63667 0
M  V30 15594 H 1483.54 0.934042 6.45073 0
M  V30 15595 N 1486.97 -0.927146 1.27443 0
M  V30 15596 C 1488.21 -1.67738 1.13982 0
M  V30 15597 C 1488.55 -1.91653 -0.313511 0
M  V30 15598 O 1487.82 -1.50729 -1.22926 0
M  V30 15599 C 1488.11 -3.04357 1.92454 0
M  V30 15600 C 1487.96 -2.8768 3.45775 0
M  V30 15601 C 1489.28 -4.04696 1.72944 0
M  V30 15602 H 1486.4 -0.608749 0.415444 0
M  V30 15603 H 1489.04 -1.07587 1.56605 0
M  V30 15604 H 1487.19 -3.55702 1.56232 0
M  V30 15605 H 1488.86 -2.43449 3.9183 0
M  V30 15606 H 1487.1 -2.23011 3.72087 0
M  V30 15607 H 1487.77 -3.8464 3.95924 0
M  V30 15608 H 1490.25 -3.62364 2.04528 0
M  V30 15609 H 1489.13 -4.98276 2.30243 0
M  V30 15610 H 1489.39 -4.36878 0.677505 0
M  V30 15611 N 1488.45 -1.09474 -1.13372 0
M  V30 15612 C 1489.41 -0.738173 -2.16988 0
M  V30 15613 C 1490.41 0.232488 -1.5911 0
M  V30 15614 O 1491.6 0.0106093 -1.74197 0
M  V30 15615 C 1488.73 -0.091724 -3.40777 0
M  V30 15616 H 1489.92 -1.65582 -2.50045 0
M  V30 15617 H 1487.48 -0.893994 -1.28209 0
M  V30 15618 H 1488.21 0.837129 -3.13309 0
M  V30 15619 H 1488 -0.790161 -3.84056 0
M  V30 15620 H 1489.49 0.142334 -4.17357 0
M  V30 15621 N 1489.92 1.30607 -0.882012 0
M  V30 15622 C 1491.34 1.48859 -0.575599 0
M  V30 15623 C 1491.54 1.80908 0.887388 0
M  V30 15624 O 1490.6 1.89492 1.6688 0
M  V30 15625 C 1491.91 2.61405 -1.48619 0
M  V30 15626 C 1493.46 2.75286 -1.48951 0
M  V30 15627 C 1493.93 3.90942 -2.38596 0
M  V30 15628 N 1495.42 3.98248 -2.36543 0
M  V30 15629 C 1496.16 4.87041 -3.0262 0
M  V30 15630 N 1495.65 5.80651 -3.77911 0
M  V30 15631 N 1497.45 4.80385 -2.91867 0
M  V30 15632 H 1489.6 1.08076 -1.82848 0
M  V30 15633 H 1491.86 0.535148 -0.782509 0
M  V30 15634 H 1491.57 2.44535 -2.52775 0
M  V30 15635 H 1491.44 3.57818 -1.19358 0
M  V30 15636 H 1493.83 2.91564 -0.455477 0
M  V30 15637 H 1493.91 1.79504 -1.82242 0
M  V30 15638 H 1493.55 3.75422 -3.42083 0
M  V30 15639 H 1493.48 4.86057 -2.02623 0
M  V30 15640 H 1495.97 3.31282 -1.81827 0
M  V30 15641 H 1496.29 6.45159 -4.25428 0
M  V30 15642 H 1494.63 5.80592 -3.82019 0
M  V30 15643 H 1497.82 4.06234 -2.32576 0
M  V30 15644 H 1498 5.49377 -3.43641 0
M  V30 15645 N 1491.4 0.642663 1.43901 0
M  V30 15646 C 1492.65 0.149167 2.01148 0
M  V30 15647 C 1492.96 -1.2405 1.51231 0
M  V30 15648 O 1494.17 -1.82864 2.00681 0
M  V30 15649 C 1492.63 0.215891 3.59252 0
M  V30 15650 C 1492.23 1.60759 4.18163 0
M  V30 15651 C 1493.98 -0.220546 4.23927 0
M  V30 15652 C 1491.89 1.62881 5.68528 0
M  V30 15653 H 1490.82 0.0520015 0.752205 0
M  V30 15654 H 1493.47 0.803152 1.6499 0
M  V30 15655 H 1491.85 -0.505409 3.92762 0
M  V30 15656 H 1493.02 2.3534 3.96171 0
M  V30 15657 H 1491.34 1.9891 3.65819 0
M  V30 15658 H 1493.93 -0.224389 5.34229 0
M  V30 15659 H 1494.28 -1.25003 3.97089 0
M  V30 15660 H 1494.81 0.448646 3.95262 0
M  V30 15661 H 1491.55 2.63704 6.00117 0
M  V30 15662 H 1491.07 0.926104 5.92607 0
M  V30 15663 H 1492.75 1.36785 6.32375 0
M  V30 15664 N 1492.88 -1.52852 0.383918 0
M  V30 15665 C 1494.29 -1.86477 -0.0912997 0
M  V30 15666 C 1494.64 -1.30382 -1.46611 0
M  V30 15667 O 1493.77 -0.633042 -2.06934 0
M  V30 15668 C 1494.36 -3.38361 -0.172447 0
M  V30 15669 C 1492.92 -3.71716 -0.591948 0
M  V30 15670 C 1492.07 -2.76176 0.24945 0
M  V30 15671 H 1495.02 -1.46839 0.602006 0
M  V30 15672 H 1495.04 -3.67325 -0.992603 0
M  V30 15673 H 1494.55 -3.79158 0.8283 0
M  V30 15674 H 1492.65 -3.36486 -1.60026 0
M  V30 15675 H 1492.77 -4.77792 -0.353835 0
M  V30 15676 H 1491.13 -2.53106 -0.284469 0
M  V30 15677 H 1491.91 -3.19809 1.24808 0
M  V30 15678 N 1494.36 -0.113586 -1.5719 0
M  V30 15679 C 1495.61 0.546529 -1.95297 0
M  V30 15680 C 1495.94 1.66674 -0.996671 0
M  V30 15681 O 1495.21 1.94472 -0.0329298 0
M  V30 15682 C 1495.5 1.08433 -3.43387 0
M  V30 15683 C 1495.35 -0.0320929 -4.49789 0
M  V30 15684 C 1496.67 1.97691 -3.932 0
M  V30 15685 H 1493.79 0.197195 -0.710129 0
M  V30 15686 H 1496.43 -0.188048 -1.89067 0
M  V30 15687 H 1494.58 1.71033 -3.48827 0
M  V30 15688 H 1496.25 -0.66716 -4.5645 0
M  V30 15689 H 1494.49 -0.695983 -4.2818 0
M  V30 15690 H 1495.17 0.385341 -5.50653 0
M  V30 15691 H 1497.64 1.4497 -3.90029 0
M  V30 15692 H 1496.52 2.3224 -4.97349 0
M  V30 15693 H 1496.78 2.90137 -3.33576 0
M  V30 15694 N 1495.84 1.56784 0.160173 0
M  V30 15695 C 1497.09 1.81812 0.873344 0
M  V30 15696 C 1497.4 0.692686 1.82924 0
M  V30 15697 O 1498.61 0.828202 2.5856 0
M  V30 15698 C 1497.06 3.222 1.6036 0
M  V30 15699 C 1496.67 4.42642 0.690776 0
M  V30 15700 C 1498.41 3.56512 2.30433 0
M  V30 15701 C 1496.32 5.74052 1.4219 0
M  V30 15702 H 1495.25 0.678013 0.32987 0
M  V30 15703 H 1497.9 1.83066 0.126164 0
M  V30 15704 H 1496.28 3.15295 2.39593 0
M  V30 15705 H 1497.46 4.60754 -0.0653914 0
M  V30 15706 H 1495.77 4.16282 0.09913 0
M  V30 15707 H 1498.37 4.51942 2.85749 0
M  V30 15708 H 1498.71 2.8193 3.06303 0
M  V30 15709 H 1499.25 3.65019 1.58132 0
M  V30 15710 H 1495.98 6.51694 0.705318 0
M  V30 15711 H 1495.5 5.59899 2.15111 0
M  V30 15712 H 1497.18 6.16395 1.96639 0
M  V30 15713 N 1497.32 -0.429099 1.51646 0
M  V30 15714 C 1498.73 -0.766217 1.40005 0
M  V30 15715 C 1498.93 -1.95481 0.488837 0
M  V30 15716 O 1497.99 -2.52445 -0.0529101 0
M  V30 15717 C 1499.3 -1.03886 2.82185 0
M  V30 15718 C 1500.85 -1.1428 2.91392 0
M  V30 15719 C 1501.32 -1.44833 4.34497 0
M  V30 15720 N 1502.81 -1.5174 4.37641 0
M  V30 15721 C 1503.55 -1.76968 5.45408 0
M  V30 15722 N 1503.05 -1.99934 6.63324 0
M  V30 15723 N 1504.84 -1.78819 5.32898 0
M  V30 15724 H 1496.99 0.35358 2.09436 0
M  V30 15725 H 1499.25 0.0958189 0.943145 0
M  V30 15726 H 1498.96 -0.238103 3.50893 0
M  V30 15727 H 1498.83 -1.96434 3.22015 0
M  V30 15728 H 1501.22 -1.93418 2.22876 0
M  V30 15729 H 1501.3 -0.19614 2.55047 0
M  V30 15730 H 1500.94 -0.662201 5.03565 0
M  V30 15731 H 1500.87 -2.40718 4.68361 0
M  V30 15732 H 1503.37 -1.35862 3.52633 0
M  V30 15733 H 1503.68 -2.18578 7.41245 0
M  V30 15734 H 1502.02 -1.97239 6.66425 0
M  V30 15735 H 1505.21 -1.60402 4.3976 0
M  V30 15736 H 1505.39 -1.98142 6.16963 0
M  V30 15737 N 1498.79 -1.41931 -0.685074 0
M  V30 15738 C 1500.21 -1.24631 -0.996957 0
M  V30 15739 C 1500.41 -0.143146 -2.00991 0
M  V30 15740 O 1499.47 0.489012 -2.47719 0
M  V30 15741 C 1500.78 -2.59947 -1.51156 0
M  V30 15742 C 1502.33 -2.67216 -1.62986 0
M  V30 15743 C 1502.8 -4.02874 -2.17845 0
M  V30 15744 N 1504.29 -4.04775 -2.25192 0
M  V30 15745 C 1505.03 -5.0655 -2.68691 0
M  V30 15746 N 1504.52 -6.18712 -3.11717 0
M  V30 15747 N 1506.32 -4.93909 -2.68348 0
M  V30 15748 H 1498.47 -2.12395 -0.0142223 0
M  V30 15749 H 1500.73 -0.945496 -0.0688552 0
M  V30 15750 H 1500.44 -3.41477 -0.841793 0
M  V30 15751 H 1500.31 -2.83159 -2.49201 0
M  V30 15752 H 1502.7 -1.86038 -2.29071 0
M  V30 15753 H 1502.78 -2.47804 -0.634584 0
M  V30 15754 H 1502.42 -4.84505 -1.52372 0
M  V30 15755 H 1502.35 -4.19633 -3.18144 0
M  V30 15756 H 1504.84 -3.23798 -1.94841 0
M  V30 15757 H 1505.16 -6.9223 -3.43565 0
M  V30 15758 H 1503.5 -6.22232 -3.096 0
M  V30 15759 H 1506.69 -4.05364 -2.34089 0
M  V30 15760 H 1506.87 -5.73361 -3.01929 0
M  V30 15761 N 1500.27 0.920374 -1.27933 0
M  V30 15762 C 1501.52 1.67131 -1.1487 0
M  V30 15763 C 1501.85 1.91816 0.303343 0
M  V30 15764 O 1501.13 1.51379 1.22125 0
M  V30 15765 C 1501.41 3.03332 -1.94066 0
M  V30 15766 C 1501.26 2.85842 -3.47296 0
M  V30 15767 C 1502.58 4.03773 -1.75087 0
M  V30 15768 H 1499.7 0.606537 -0.418666 0
M  V30 15769 H 1502.34 1.06755 -1.57173 0
M  V30 15770 H 1500.49 3.54869 -1.58116 0
M  V30 15771 H 1502.16 2.41367 -3.93115 0
M  V30 15772 H 1500.41 2.21035 -3.73264 0
M  V30 15773 H 1501.08 3.82535 -3.97958 0
M  V30 15774 H 1503.55 3.61274 -2.06447 0
M  V30 15775 H 1502.43 4.97048 -2.32882 0
M  V30 15776 H 1502.69 4.36512 -0.700665 0
M  V30 15777 N 1501.75 1.10074 1.1279 0
M  V30 15778 C 1502.68 0.768146 2.20503 0
M  V30 15779 C 1503.66 -0.257199 1.68144 0
M  V30 15780 O 1504.85 -0.12379 1.93805 0
M  V30 15781 C 1501.98 0.195125 3.46751 0
M  V30 15782 C 1500.93 1.15074 4.1224 0
M  V30 15783 C 1500.26 0.439098 5.32894 0
M  V30 15784 C 1501.56 2.49584 4.58808 0
M  V30 15785 H 1503.25 1.66876 2.48581 0
M  V30 15786 H 1500.8 0.803806 1.19478 0
M  V30 15787 H 1502.75 -0.0496695 4.21371 0
M  V30 15788 H 1501.47 -0.740717 3.1809 0
M  V30 15789 H 1500.13 1.38092 3.39597 0
M  V30 15790 H 1499.78 -0.501096 5.00498 0
M  V30 15791 H 1499.48 1.07632 5.77658 0
M  V30 15792 H 1501 0.202761 6.10263 0
M  V30 15793 H 1502.42 2.30736 5.24818 0
M  V30 15794 H 1500.81 3.09157 5.14336 0
M  V30 15795 H 1501.88 3.09857 3.72984 0
M  V30 15796 N 1503.23 -1.30138 0.888926 0
M  V30 15797 C 1504.5 -1.90831 0.42928 0
M  V30 15798 C 1504.88 -1.80765 -1.09028 0
M  V30 15799 O 1504.23 -1.22741 -1.92735 0
M  V30 15800 C 1504.44 -3.36331 0.931798 0
M  V30 15801 C 1505.79 -4.13393 0.969106 0
M  V30 15802 O 1506.81 -3.45191 0.878731 0
M  V30 15803 O 1505.67 -5.35249 1.10323 0
M  V30 15804 H 1502.77 -0.816401 0.131976 0
M  V30 15805 H 1505.31 -1.38678 0.978086 0
M  V30 15806 H 1504.09 -3.37761 1.97568 0
M  V30 15807 H 1503.71 -3.95945 0.362383 0
M  V30 15808 N 1504.71 -0.650285 -1.43559 0
M  V30 15809 C 1505.95 -0.162164 -2.01448 0
M  V30 15810 C 1506.27 1.22717 -1.51544 0
M  V30 15811 O 1505.54 1.81917 -0.726855 0
M  V30 15812 H 1504.12 -0.0569599 -0.744825 0
M  V30 15813 H 1506.79 -0.841294 -1.75807 0
M  V30 15814 H 1505.88 -0.144531 -3.11765 0
M  V30 15815 N 1506.18 1.52647 -0.392018 0
M  V30 15816 C 1507.43 2.01215 0.188926 0
M  V30 15817 C 1507.75 1.28019 1.47092 0
M  V30 15818 O 1507.02 0.401048 1.91751 0
M  V30 15819 H 1505.6 0.743444 0.0728049 0
M  V30 15820 H 1508.26 1.87715 -0.524332 0
M  V30 15821 H 1507.36 3.09562 0.397216 0
M  V30 15822 N 1507.66 0.121921 1.57128 0
M  V30 15823 C 1508.61 -0.827205 2.15467 0
M  V30 15824 C 1509.58 -1.26155 1.08047 0
M  V30 15825 O 1510.76 -1.33855 1.35969 0
M  V30 15826 C 1507.9 -2.07077 2.76067 0
M  V30 15827 C 1507.02 -1.68452 3.97804 0
M  V30 15828 C 1506.15 -2.87797 4.46482 0
M  V30 15829 C 1505.19 -2.45426 5.60743 0
M  V30 15830 N 1504.33 -3.57695 6.04151 0
M  V30 15831 H 1509.17 -0.322879 2.96246 0
M  V30 15832 H 1506.71 -0.147677 1.46357 0
M  V30 15833 H 1508.66 -2.79943 3.09335 0
M  V30 15834 H 1507.29 -2.54963 1.97974 0
M  V30 15835 H 1506.35 -0.854487 3.70679 0
M  V30 15836 H 1507.66 -1.33316 4.80654 0
M  V30 15837 H 1506.81 -3.68885 4.81673 0
M  V30 15838 H 1505.55 -3.26162 3.62587 0
M  V30 15839 H 1504.56 -1.62772 5.25153 0
M  V30 15840 H 1505.78 -2.08175 6.46405 0
M  V30 15841 H 1503.73 -3.95728 5.23197 0
M  V30 15842 H 1503.64 -3.26491 6.81865 0
M  V30 15843 H 1504.91 -4.39213 6.43981 0
M  V30 15844 N 1509.14 -1.56867 -0.151857 0
M  V30 15845 C 1510.37 -1.87601 -0.884347 0
M  V30 15846 C 1510.79 -0.710419 -1.74168 0
M  V30 15847 O 1510.15 0.340103 -1.78081 0
M  V30 15848 C 1510.2 -3.16887 -1.72091 0
M  V30 15849 O 1509.3 -3.00479 -2.82464 0
M  V30 15850 H 1508.64 -0.616509 -0.246603 0
M  V30 15851 H 1511.17 -2.04092 -0.144135 0
M  V30 15852 H 1511.18 -3.48785 -2.11691 0
M  V30 15853 H 1509.86 -4.01327 -1.09131 0
M  V30 15854 H 1508.43 -2.79978 -2.46306 0
M  V30 15855 N 1510.62 0.421051 -1.51871 0
M  V30 15856 C 1511.55 1.53094 -1.70572 0
M  V30 15857 C 1512.56 1.5188 -0.586201 0
M  V30 15858 O 1513.75 1.56361 -0.861013 0
M  V30 15859 C 1510.85 2.92002 -1.72011 0
M  V30 15860 C 1510.03 3.17541 -3.0081 0
M  V30 15861 C 1509.08 4.36259 -2.94219 0
M  V30 15862 O 1508.11 4.34118 -3.68144 0
M  V30 15863 N 1509.31 5.40722 -2.11188 0
M  V30 15864 H 1512.08 1.3745 -2.66322 0
M  V30 15865 H 1509.64 0.610204 -1.4996 0
M  V30 15866 H 1511.63 3.6947 -1.65149 0
M  V30 15867 H 1510.2 3.01162 -0.837861 0
M  V30 15868 H 1509.42 2.28225 -3.21414 0
M  V30 15869 H 1510.71 3.3144 -3.86037 0
M  V30 15870 H 1510.11 5.45304 -1.50534 0
M  V30 15871 H 1508.66 6.16979 -2.10192 0
M  V30 15872 N 1512.1 1.42293 0.677538 0
M  V30 15873 C 1513.34 1.42827 1.43973 0
M  V30 15874 C 1513.68 0.0435041 1.94151 0
M  V30 15875 O 1512.95 -0.931794 1.70727 0
M  V30 15876 C 1513.23 2.45037 2.63873 0
M  V30 15877 C 1513.09 3.92694 2.19344 0
M  V30 15878 C 1514.41 2.4427 3.66087 0
M  V30 15879 H 1511.52 0.520097 0.522176 0
M  V30 15880 H 1514.17 1.73688 0.770219 0
M  V30 15881 H 1512.32 2.18851 3.20993 0
M  V30 15882 H 1513.99 4.2985 1.67412 0
M  V30 15883 H 1512.23 4.06692 1.50944 0
M  V30 15884 H 1512.9 4.59784 3.05455 0
M  V30 15885 H 1515.38 2.67551 3.18678 0
M  V30 15886 H 1514.25 3.17769 4.47564 0
M  V30 15887 H 1514.52 1.46769 4.17027 0
M  V30 15888 N 1513.57 -0.913576 1.28419 0
M  V30 15889 C 1514.8 -1.70178 1.18551 0
M  V30 15890 C 1515.22 -1.864 -0.252307 0
M  V30 15891 O 1514.58 -1.37427 -1.18252 0
M  V30 15892 C 1514.63 -3.07145 1.8893 0
M  V30 15893 O 1513.73 -3.9465 1.19688 0
M  V30 15894 H 1513.08 -0.521092 0.411533 0
M  V30 15895 H 1515.61 -1.14228 1.69744 0
M  V30 15896 H 1515.62 -3.57375 1.96843 0
M  V30 15897 H 1514.29 -2.94655 2.93515 0
M  V30 15898 H 1512.87 -3.53085 1.19939 0
M  V30 15899 N 1515.05 -1.1067 -1.12204 0
M  V30 15900 C 1516.28 -0.871601 -1.87314 0
M  V30 15901 C 1516.69 0.581644 -1.80038 0
M  V30 15902 O 1516.03 1.4129 -1.17401 0
M  V30 15903 C 1516.1 -1.24458 -3.37269 0
M  V30 15904 C 1515.76 -2.70536 -3.6832 0
M  V30 15905 C 1516.76 -3.68769 -3.66477 0
M  V30 15906 C 1514.44 -3.06982 -3.97577 0
M  V30 15907 C 1516.44 -5.01471 -3.93454 0
M  V30 15908 C 1514.12 -4.39871 -4.24213 0
M  V30 15909 C 1515.12 -5.36924 -4.22139 0
M  V30 15910 O 1514.81 -6.6742 -4.48113 0
M  V30 15911 H 1514.54 -0.312472 -0.599447 0
M  V30 15912 H 1517.09 -1.47562 -1.4288 0
M  V30 15913 H 1515.32 -0.583674 -3.8227 0
M  V30 15914 H 1517.01 -0.986569 -3.93728 0
M  V30 15915 H 1517.78 -3.41957 -3.43934 0
M  V30 15916 H 1513.66 -2.32062 -3.98332 0
M  V30 15917 H 1517.2 -5.77215 -3.9175 0
M  V30 15918 H 1513.1 -4.6642 -4.46231 0
M  V30 15919 H 1513.87 -6.73088 -4.6572 0
M  V30 15920 N 1516.53 1.29665 -0.895815 0
M  V30 15921 C 1517.95 1.4824 -0.591355 0
M  V30 15922 C 1518.15 1.81839 0.86815 0
M  V30 15923 O 1517.2 1.91251 1.64861 0
M  V30 15924 C 1518.52 2.59814 -1.51384 0
M  V30 15925 C 1520.06 2.73691 -1.51862 0
M  V30 15926 C 1520.54 3.8839 -2.42729 0
M  V30 15927 N 1522.03 3.95717 -2.40754 0
M  V30 15928 C 1522.76 4.83804 -3.07769 0
M  V30 15929 N 1522.26 5.7661 -3.84048 0
M  V30 15930 N 1524.05 4.77263 -2.96946 0
M  V30 15931 H 1516.2 1.06131 -1.83984 0
M  V30 15932 H 1518.47 0.526819 -0.788141 0
M  V30 15933 H 1518.17 2.4184 -2.55355 0
M  V30 15934 H 1518.05 3.56532 -1.23147 0
M  V30 15935 H 1520.43 2.91064 -0.486375 0
M  V30 15936 H 1520.52 1.77561 -1.84135 0
M  V30 15937 H 1520.16 3.71773 -3.46045 0
M  V30 15938 H 1520.09 4.8388 -2.07767 0
M  V30 15939 H 1522.58 3.29334 -1.8533 0
M  V30 15940 H 1522.89 6.40611 -4.32247 0
M  V30 15941 H 1521.24 5.76507 -3.88155 0
M  V30 15942 H 1524.43 4.03744 -2.36871 0
M  V30 15943 H 1524.6 5.45701 -3.49448 0
M  V30 15944 N 1518.01 0.657889 1.43212 0
M  V30 15945 C 1519.24 0.181072 2.06106 0
M  V30 15946 C 1519.65 -1.15513 1.49339 0
M  V30 15947 O 1519.01 -1.71409 0.626517 0
M  V30 15948 C 1519.06 0.0890244 3.6139 0
M  V30 15949 O 1518.78 1.37241 4.16049 0
M  V30 15950 C 1520.28 -0.413313 4.41369 0
M  V30 15951 H 1517.5 0.0920577 0.664655 0
M  V30 15952 H 1520.05 0.899855 1.83638 0
M  V30 15953 H 1518.2 -0.580345 3.83028 0
M  V30 15954 H 1518.61 1.23467 5.09761 0
M  V30 15955 H 1520.09 -0.426663 5.50349 0
M  V30 15956 H 1520.57 -1.44549 4.14731 0
M  V30 15957 H 1521.17 0.223727 4.24711 0
M  V30 15958 N 1519.49 -1.52437 0.400108 0
M  V30 15959 C 1520.42 -2.24433 -0.465038 0
M  V30 15960 C 1521.43 -1.27067 -1.01773 0
M  V30 15961 O 1522.62 -1.53072 -0.918215 0
M  V30 15962 C 1519.72 -2.95555 -1.65832 0
M  V30 15963 C 1518.89 -4.19717 -1.2311 0
M  V30 15964 C 1517.95 -4.73743 -2.29028 0
M  V30 15965 O 1516.98 -5.36556 -1.8999 0
M  V30 15966 N 1518.18 -4.54534 -3.6108 0
M  V30 15967 H 1520.95 -2.99315 0.151839 0
M  V30 15968 H 1518.51 -1.603 0.227019 0
M  V30 15969 H 1520.5 -3.28595 -2.36235 0
M  V30 15970 H 1519.07 -2.23915 -2.18131 0
M  V30 15971 H 1518.29 -3.92593 -0.355537 0
M  V30 15972 H 1519.58 -5.00367 -0.922487 0
M  V30 15973 H 1518.97 -4.04419 -3.95552 0
M  V30 15974 H 1517.53 -4.92035 -4.27486 0
M  V30 15975 N 1520.96 -0.130252 -1.57061 0
M  V30 15976 C 1522.24 0.569171 -1.87136 0
M  V30 15977 C 1522.62 1.84078 -1.03337 0
M  V30 15978 O 1521.97 2.28208 -0.11543 0
M  V30 15979 C 1522.18 0.850782 -3.38471 0
M  V30 15980 C 1523.53 1.19892 -4.07322 0
M  V30 15981 O 1524.55 0.940682 -3.43554 0
M  V30 15982 O 1523.41 1.6841 -5.19904 0
M  V30 15983 H 1520.5 0.288433 -0.775071 0
M  V30 15984 H 1523.05 -0.165603 -1.6889 0
M  V30 15985 H 1521.82 -0.0498562 -3.91268 0
M  V30 15986 H 1521.45 1.64032 -3.62187 0
M  V30 15987 N 1522.44 1.56945 0.143535 0
M  V30 15988 C 1523.69 1.83176 0.853873 0
M  V30 15989 C 1524.01 0.71168 1.81549 0
M  V30 15990 O 1523.28 -0.266391 1.9408 0
M  V30 15991 H 1521.86 0.675785 0.318313 0
M  V30 15992 H 1524.52 1.9442 0.136712 0
M  V30 15993 H 1523.62 2.7823 1.41402 0
M  V30 15994 N 1523.92 -0.412991 1.52093 0
M  V30 15995 C 1525.15 -1.18212 1.69805 0
M  V30 15996 C 1525.56 -1.84386 0.405844 0
M  V30 15997 O 1524.92 -1.71725 -0.617809 0
M  V30 15998 C 1524.97 -2.24811 2.83094 0
M  V30 15999 O 1524.69 -1.61338 4.0731 0
M  V30 16000 C 1526.19 -3.14633 3.12283 0
M  V30 16001 H 1523.41 -0.355371 0.569168 0
M  V30 16002 H 1525.96 -0.486392 1.98632 0
M  V30 16003 H 1524.11 -2.90058 2.56797 0
M  V30 16004 H 1524.53 -2.31979 4.7041 0
M  V30 16005 H 1526 -3.85511 3.95076 0
M  V30 16006 H 1526.48 -3.76785 2.25677 0
M  V30 16007 H 1527.08 -2.55059 3.40331 0
M  V30 16008 N 1525.4 -1.4265 -0.669982 0
M  V30 16009 C 1526.36 -1.46196 -1.7652 0
M  V30 16010 C 1527.36 -0.348884 -1.5697 0
M  V30 16011 O 1528.55 -0.609921 -1.63174 0
M  V30 16012 C 1525.68 -1.29829 -3.1521 0
M  V30 16013 H 1526.88 -2.43718 -1.74762 0
M  V30 16014 H 1524.43 -1.29168 -0.88007 0
M  V30 16015 H 1525.17 -0.332493 -3.22591 0
M  V30 16016 H 1524.95 -2.10501 -3.30804 0
M  V30 16017 H 1526.44 -1.35205 -3.95107 0
M  V30 16018 N 1526.88 0.906753 -1.28902 0
M  V30 16019 C 1527.81 2.01497 -1.09233 0
M  V30 16020 C 1528.82 1.62746 -0.0419378 0
M  V30 16021 O 1530.01 1.76198 -0.285728 0
M  V30 16022 C 1527.11 3.32816 -0.639255 0
M  V30 16023 C 1526.28 4.00137 -1.76661 0
M  V30 16024 C 1525.34 5.09742 -1.30573 0
M  V30 16025 O 1524.37 5.32559 -2.00921 0
M  V30 16026 N 1525.57 5.80243 -0.17275 0
M  V30 16027 H 1528.34 2.18927 -2.04673 0
M  V30 16028 H 1525.9 1.0785 -1.20748 0
M  V30 16029 H 1527.89 4.03477 -0.31439 0
M  V30 16030 H 1526.46 3.11807 0.222498 0
M  V30 16031 H 1525.68 3.22933 -2.26071 0
M  V30 16032 H 1526.97 4.41859 -2.52266 0
M  V30 16033 H 1526.37 5.64184 0.413931 0
M  V30 16034 H 1524.92 6.51734 0.0927926 0
M  V30 16035 N 1528.36 1.11264 1.11616 0
M  V30 16036 C 1529.6 0.858664 1.82952 0
M  V30 16037 C 1529.92 -0.617439 1.84967 0
M  V30 16038 O 1529.19 -1.44849 1.31893 0
M  V30 16039 H 1527.77 0.314671 0.677489 0
M  V30 16040 H 1530.44 1.40466 1.35113 0
M  V30 16041 H 1529.53 1.22921 2.86874 0
M  V30 16042 N 1529.83 -1.29188 0.902679 0
M  V30 16043 C 1530.78 -2.29597 0.372585 0
M  V30 16044 C 1531.78 -1.609 -0.529858 0
M  V30 16045 O 1532.98 -1.75214 -0.41233 0
M  V30 16046 H 1529.36 -0.745069 0.101864 0
M  V30 16047 H 1531.33 -2.71746 1.23275 0
M  V30 16048 C 1530.08 -3.45594 -0.382128 0
M  V30 16049 H 1529.4 -3.9865 0.303061 0
M  V30 16050 H 1530.84 -4.17879 -0.717852 0
M  V30 16051 C 1529.3 -2.97238 -1.58591 0
M  V30 16052 O 1529.83 -2.98767 -2.68517 0
M  V30 16053 N 1528.03 -2.53032 -1.42909 0
M  V30 16054 H 1527.58 -2.51988 -0.534786 0
M  V30 16055 H 1527.54 -2.21038 -2.23584 0
M  V30 16056 N 1531.31 -0.665475 -1.42861 0
M  V30 16057 C 1532.73 -0.334157 -1.56063 0
M  V30 16058 C 1532.93 1.16104 -1.64688 0
M  V30 16059 O 1531.98 1.94622 -1.60867 0
M  V30 16060 C 1533.3 -1.05628 -2.81537 0
M  V30 16061 C 1534.84 -1.03771 -2.95297 0
M  V30 16062 C 1535.32 -1.74098 -4.2362 0
M  V30 16063 N 1536.81 -1.7092 -4.30512 0
M  V30 16064 C 1537.55 -2.222 -5.28597 0
M  V30 16065 N 1537.04 -2.81821 -6.32889 0
M  V30 16066 N 1538.83 -2.12628 -5.20332 0
M  V30 16067 H 1530.99 -1.6356 -1.35506 0
M  V30 16068 H 1533.25 -0.688538 -0.651628 0
M  V30 16069 H 1532.95 -2.11141 -2.81269 0
M  V30 16070 H 1532.83 -0.615586 -3.72143 0
M  V30 16071 H 1535.22 0.00905324 -2.95099 0
M  V30 16072 H 1535.3 -1.51721 -2.05948 0
M  V30 16073 H 1534.94 -2.78737 -4.2458 0
M  V30 16074 H 1534.87 -1.23604 -5.11888 0
M  V30 16075 H 1537.36 -1.27425 -3.55769 0
M  V30 16076 H 1537.67 -3.18594 -7.04072 0
M  V30 16077 H 1536.02 -2.85887 -6.33478 0
M  V30 16078 H 1539.21 -1.65746 -4.37774 0
M  V30 16079 H 1539.38 -2.52899 -5.96612 0
M  V30 16080 N 1532.79 1.52222 -0.408187 0
M  V30 16081 C 1534.07 1.94285 0.22641 0
M  V30 16082 C 1534.45 1.34501 1.62705 0
M  V30 16083 O 1533.79 0.52045 2.22494 0
M  V30 16084 C 1534 3.48217 0.233695 0
M  V30 16085 C 1535.35 4.22171 0.453504 0
M  V30 16086 O 1536.38 3.54821 0.313093 0
M  V30 16087 O 1535.24 5.416 0.730183 0
M  V30 16088 H 1532.33 0.814078 0.145625 0
M  V30 16089 H 1534.88 1.63232 -0.464062 0
M  V30 16090 H 1533.65 3.84111 -0.746644 0
M  V30 16091 H 1533.27 3.85629 0.968305 0
M  V30 16092 N 1534.27 0.138579 1.5699 0
M  V30 16093 C 1535.5 -0.521049 1.99922 0
M  V30 16094 C 1535.91 -1.59508 1.01754 0
M  V30 16095 O 1535.25 -1.83699 0.00521913 0
M  V30 16096 C 1535.31 -1.18856 3.39284 0
M  V30 16097 C 1534.97 -0.260145 4.56259 0
M  V30 16098 C 1535.97 0.508919 5.17403 0
M  V30 16099 C 1533.66 -0.165504 5.02027 0
M  V30 16100 C 1535.65 1.36016 6.22719 0
M  V30 16101 C 1533.34 0.689346 6.07199 0
M  V30 16102 C 1534.34 1.45079 6.67414 0
M  V30 16103 O 1534.02 2.29141 7.70551 0
M  V30 16104 H 1533.76 -0.140889 0.661155 0
M  V30 16105 H 1536.31 0.227618 2.04135 0
M  V30 16106 H 1534.54 -1.9847 3.31883 0
M  V30 16107 H 1536.23 -1.74706 3.66377 0
M  V30 16108 H 1536.99 0.445787 4.82947 0
M  V30 16109 H 1532.87 -0.747903 4.54893 0
M  V30 16110 H 1536.42 1.95496 6.69647 0
M  V30 16111 H 1532.31 0.7538 6.41084 0
M  V30 16112 H 1533.08 2.22296 7.87735 0
M  V30 16113 N 1535.75 -1.57019 -0.13521 0
M  V30 16114 C 1536.99 -1.83178 -0.844308 0
M  V30 16115 C 1537.31 -0.7217 -1.81799 0
M  V30 16116 O 1538.51 -0.869232 -2.57209 0
M  V30 16117 C 1536.97 -3.2471 -1.55214 0
M  V30 16118 C 1536.58 -4.43685 -0.620268 0
M  V30 16119 C 1538.32 -3.60133 -2.24732 0
M  V30 16120 C 1536.23 -5.76242 -1.3304 0
M  V30 16121 H 1535.16 -0.683175 -0.319041 0
M  V30 16122 H 1537.81 -1.83243 -0.0970242 0
M  V30 16123 H 1536.19 -3.19067 -2.34547 0
M  V30 16124 H 1537.37 -4.60591 0.138685 0
M  V30 16125 H 1535.68 -4.16387 -0.0328906 0
M  V30 16126 H 1538.28 -4.56431 -2.78522 0
M  V30 16127 H 1538.62 -2.86767 -3.01779 0
M  V30 16128 H 1539.15 -3.67489 -1.52305 0
M  V30 16129 H 1535.89 -6.52734 -0.60155 0
M  V30 16130 H 1535.41 -5.63251 -2.06176 0
M  V30 16131 H 1537.09 -6.19445 -1.86808 0
M  V30 16132 N 1537.22 0.404919 -1.52309 0
M  V30 16133 C 1538.64 0.983553 -1.58692 0
M  V30 16134 C 1538.99 1.9143 -0.429993 0
M  V30 16135 O 1538.11 2.11689 0.449088 0
M  V30 16136 C 1538.71 1.79059 -2.87617 0
M  V30 16137 C 1537.27 2.31918 -2.96464 0
M  V30 16138 C 1536.41 1.12018 -2.53667 0
M  V30 16139 H 1539.36 0.185007 -1.57618 0
M  V30 16140 H 1539.38 2.64836 -2.73207 0
M  V30 16141 H 1538.9 1.11291 -3.71801 0
M  V30 16142 H 1537 3.03044 -2.16783 0
M  V30 16143 H 1537.11 2.62495 -4.00791 0
M  V30 16144 H 1535.47 1.47542 -2.07614 0
M  V30 16145 H 1536.26 0.458111 -3.4023 0
M  V30 16146 N 1538.7 1.43003 0.662408 0
M  V30 16147 C 1539.95 1.44346 1.4245 0
M  V30 16148 C 1540.28 0.064094 1.94094 0
M  V30 16149 O 1539.56 -0.913633 1.71706 0
M  V30 16150 C 1539.84 2.47822 2.61259 0
M  V30 16151 C 1539.69 3.94998 2.15166 0
M  V30 16152 C 1541.01 2.48139 3.63476 0
M  V30 16153 H 1538.13 0.525606 0.51663 0
M  V30 16154 H 1540.77 1.74495 0.751754 0
M  V30 16155 H 1538.92 2.22244 3.18653 0
M  V30 16156 H 1540.59 4.31601 1.62843 0
M  V30 16157 H 1538.84 4.0827 1.46622 0
M  V30 16158 H 1539.51 4.62998 3.00561 0
M  V30 16159 H 1541.98 2.70916 3.15823 0
M  V30 16160 H 1540.86 3.22498 4.44169 0
M  V30 16161 H 1541.12 1.51184 4.15447 0
M  V30 16162 N 1540.18 -0.899904 1.29381 0
M  V30 16163 C 1541.09 -2.03699 1.16378 0
M  V30 16164 C 1542.11 -1.73782 0.0870792 0
M  V30 16165 O 1543.28 -1.99167 0.299109 0
M  V30 16166 C 1540.35 -3.36341 0.841166 0
M  V30 16167 C 1539.41 -3.79778 2.00168 0
M  V30 16168 C 1538.64 -5.0609 1.69437 0
M  V30 16169 O 1538.86 -5.67073 0.615212 0
M  V30 16170 O 1537.8 -5.45574 2.54229 0
M  V30 16171 H 1541.62 -2.17592 2.11866 0
M  V30 16172 H 1539.21 -1.02353 1.08831 0
M  V30 16173 H 1541.09 -4.15946 0.675803 0
M  V30 16174 H 1539.77 -3.23591 -0.0839376 0
M  V30 16175 H 1538.67 -3.00941 2.22229 0
M  V30 16176 H 1540.01 -3.97111 2.90798 0
M  V30 16177 N 1541.66 -1.11854 -1.11024 0
M  V30 16178 C 1542.91 -0.868355 -1.82494 0
M  V30 16179 C 1543.23 0.607622 -1.85292 0
M  V30 16180 O 1542.5 1.44147 -1.32659 0
M  V30 16181 H 1541.08 -0.31826 -0.67581 0
M  V30 16182 H 1543.74 -1.4118 -1.34366 0
M  V30 16183 H 1542.84 -1.24441 -2.86218 0
M  V30 16184 N 1543.14 1.28707 -0.909517 0
M  V30 16185 C 1544.05 2.31171 -0.399628 0
M  V30 16186 C 1545.06 1.6634 0.510582 0
M  V30 16187 O 1546.24 1.97432 0.397792 0
M  V30 16188 C 1543.3 3.44869 0.355852 0
M  V30 16189 C 1542.36 4.25267 -0.587065 0
M  V30 16190 C 1541.6 5.33536 0.132456 0
M  V30 16191 O 1541.82 5.54075 1.35486 0
M  V30 16192 O 1540.75 5.99561 -0.530062 0
M  V30 16193 H 1544.58 2.76785 -1.24995 0
M  V30 16194 H 1542.17 1.33323 -0.674186 0
M  V30 16195 H 1544.05 4.14068 0.782692 0
M  V30 16196 H 1542.72 3.01345 1.18207 0
M  V30 16197 H 1541.63 3.58673 -1.06322 0
M  V30 16198 H 1542.96 4.72459 -1.37998 0
M  V30 16199 N 1544.61 0.673042 1.42506 0
M  V30 16200 C 1545.54 0.00755467 2.33499 0
M  V30 16201 C 1546.53 -0.791161 1.50581 0
M  V30 16202 O 1547.71 -0.748668 1.79189 0
M  V30 16203 C 1544.84 -0.945638 3.34178 0
M  V30 16204 C 1543.79 -0.25564 4.27236 0
M  V30 16205 C 1543.12 -1.32165 5.18109 0
M  V30 16206 C 1544.42 0.864254 5.151 0
M  V30 16207 H 1546.11 0.767487 2.89396 0
M  V30 16208 H 1543.66 0.370524 1.39151 0
M  V30 16209 H 1545.61 -1.42026 3.96745 0
M  V30 16210 H 1544.34 -1.73697 2.76581 0
M  V30 16211 H 1543 0.19873 3.66061 0
M  V30 16212 H 1542.64 -2.10492 4.56839 0
M  V30 16213 H 1542.34 -0.865109 5.81197 0
M  V30 16214 H 1543.87 -1.79724 5.83551 0
M  V30 16215 H 1545.28 0.470924 5.71363 0
M  V30 16216 H 1543.68 1.24648 5.87012 0
M  V30 16217 H 1544.75 1.71378 4.53605 0
M  V30 16218 N 1546.09 -1.52004 0.416254 0
M  V30 16219 C 1547.02 -2.30106 -0.396671 0
M  V30 16220 C 1548 -1.34616 -1.03983 0
M  V30 16221 O 1549.19 -1.63528 -1.04749 0
M  V30 16222 C 1546.32 -3.12769 -1.50972 0
M  V30 16223 C 1545.27 -4.16365 -0.99119 0
M  V30 16224 C 1544.6 -4.87417 -2.19838 0
M  V30 16225 C 1545.9 -5.22284 -0.0402599 0
M  V30 16226 H 1547.59 -2.98312 0.255054 0
M  V30 16227 H 1545.14 -1.43464 0.124106 0
M  V30 16228 H 1547.09 -3.66178 -2.08547 0
M  V30 16229 H 1545.82 -2.42346 -2.18943 0
M  V30 16230 H 1544.47 -3.63976 -0.437803 0
M  V30 16231 H 1544.12 -4.13516 -2.8638 0
M  V30 16232 H 1543.82 -5.57454 -1.85792 0
M  V30 16233 H 1545.35 -5.43641 -2.78006 0
M  V30 16234 H 1546.76 -5.70891 -0.525027 0
M  V30 16235 H 1545.16 -5.99726 0.211742 0
M  V30 16236 H 1546.23 -4.7642 0.902877 0
M  V30 16237 N 1547.57 -0.146903 -1.56914 0
M  V30 16238 C 1548.82 0.504234 -1.96122 0
M  V30 16239 C 1549.15 1.64879 -1.03175 0
M  V30 16240 O 1548.4 1.95605 -0.0609397 0
M  V30 16241 C 1548.7 1.05159 -3.41579 0
M  V30 16242 C 1548.37 0.0254845 -4.50893 0
M  V30 16243 C 1547.03 -0.256589 -4.80515 0
M  V30 16244 C 1549.38 -0.672284 -5.16846 0
M  V30 16245 C 1546.71 -1.24224 -5.73398 0
M  V30 16246 C 1549.06 -1.64675 -6.1079 0
M  V30 16247 C 1547.72 -1.93652 -6.38792 0
M  V30 16248 H 1546.99 0.184512 -0.71766 0
M  V30 16249 H 1549.64 -0.233712 -1.90069 0
M  V30 16250 H 1547.95 1.86687 -3.44464 0
M  V30 16251 H 1549.64 1.56398 -3.69244 0
M  V30 16252 H 1546.23 0.255517 -4.27838 0
M  V30 16253 H 1550.42 -0.467555 -4.94093 0
M  V30 16254 H 1545.67 -1.47319 -5.93386 0
M  V30 16255 H 1549.85 -2.19294 -6.60971 0
M  V30 16256 H 1547.47 -2.70179 -7.10568 0
M  V30 16257 N 1549.05 1.57088 0.126881 0
M  V30 16258 C 1549.98 1.96399 1.18153 0
M  V30 16259 C 1550.99 0.862288 1.38089 0
M  V30 16260 O 1552.18 1.14062 1.37303 0
M  V30 16261 C 1549.28 2.24026 2.54295 0
M  V30 16262 C 1548.46 3.5533 2.55068 0
M  V30 16263 C 1547.51 3.71261 3.72896 0
M  V30 16264 O 1546.54 4.43454 3.56844 0
M  V30 16265 N 1547.74 3.09435 4.91152 0
M  V30 16266 H 1550.51 2.87476 0.847217 0
M  V30 16267 H 1548.07 1.58781 0.316242 0
M  V30 16268 H 1550.06 2.31906 3.31665 0
M  V30 16269 H 1548.63 1.39114 2.79939 0
M  V30 16270 H 1547.85 3.58708 1.63468 0
M  V30 16271 H 1549.14 4.41649 2.52634 0
M  V30 16272 H 1548.54 2.50736 5.07097 0
M  V30 16273 H 1547.09 3.22848 5.66226 0
M  V30 16274 N 1550.53 -0.396836 1.52522 0
M  V30 16275 C 1551.94 -0.975124 1.59211 0
M  V30 16276 C 1552.29 -1.91199 0.440138 0
M  V30 16277 O 1551.41 -2.11924 -0.437856 0
M  V30 16278 C 1552.01 -1.77531 2.88562 0
M  V30 16279 C 1550.57 -2.30343 2.9769 0
M  V30 16280 C 1549.71 -1.10671 2.54258 0
M  V30 16281 H 1552.67 -0.176646 1.57714 0
M  V30 16282 H 1552.69 -2.63384 2.74607 0
M  V30 16283 H 1552.2 -1.09318 3.72386 0
M  V30 16284 H 1550.3 -3.01891 2.18387 0
M  V30 16285 H 1550.41 -2.60366 4.02177 0
M  V30 16286 H 1548.78 -1.46439 2.08393 0
M  V30 16287 H 1549.56 -0.440061 3.40468 0
M  V30 16288 N 1552.01 -1.43353 -0.654814 0
M  V30 16289 C 1553.25 -1.44599 -1.41193 0
M  V30 16290 C 1553.57 -0.0707955 -1.94871 0
M  V30 16291 O 1552.84 0.893637 -1.7433 0
M  V30 16292 H 1551.42 -0.532373 -0.524011 0
M  V30 16293 H 1554.09 -1.78942 -0.772388 0
M  V30 16294 H 1553.18 -2.15761 -2.25508 0
M  V30 16295 N 1553.48 0.89303 -1.29857 0
M  V30 16296 C 1554.39 2.03079 -1.17457 0
M  V30 16297 C 1555.41 1.73733 -0.0962941 0
M  V30 16298 O 1556.59 1.99005 -0.309667 0
M  V30 16299 C 1553.65 3.3589 -0.858991 0
M  V30 16300 C 1552.71 3.78711 -2.0218 0
M  V30 16301 C 1551.94 5.05184 -1.72118 0
M  V30 16302 O 1552.17 5.66738 -0.645276 0
M  V30 16303 O 1551.1 5.44218 -2.57119 0
M  V30 16304 H 1554.93 2.16465 -2.13017 0
M  V30 16305 H 1552.51 1.01774 -1.09373 0
M  V30 16306 H 1554.39 4.15582 -0.697852 0
M  V30 16307 H 1553.07 3.23631 0.0667756 0
M  V30 16308 H 1551.98 2.99758 -2.23822 0
M  V30 16309 H 1553.31 3.95563 -2.929 0
M  V30 16310 N 1554.96 1.12442 1.10429 0
M  V30 16311 C 1555.92 0.795443 2.14954 0
M  V30 16312 C 1556.92 -0.19022 1.59671 0
M  V30 16313 O 1558.11 0.0355797 1.74164 0
M  V30 16314 C 1555.25 0.182043 3.40414 0
M  V30 16315 H 1556.44 1.72153 2.45567 0
M  V30 16316 H 1553.99 0.927672 1.25793 0
M  V30 16317 H 1554.73 -0.753766 3.15419 0
M  V30 16318 H 1554.51 0.891708 3.81826 0
M  V30 16319 H 1556 -0.0316286 4.17588 0
M  V30 16320 N 1556.44 -1.28223 0.91633 0
M  V30 16321 C 1557.69 -1.95508 0.561095 0
M  V30 16322 C 1558.04 -1.70789 -0.885932 0
M  V30 16323 O 1557.33 -1.01983 -1.62204 0
M  V30 16324 C 1557.53 -3.48112 0.809509 0
M  V30 16325 C 1557.36 -3.87667 2.27913 0
M  V30 16326 C 1556.13 -4.11698 2.92973 0
M  V30 16327 C 1558.32 -3.98127 3.25576 0
M  V30 16328 N 1556.31 -4.37946 4.30205 0
M  V30 16329 C 1557.68 -4.28618 4.4798 0
M  V30 16330 C 1559.73 -3.8066 3.2094 0
M  V30 16331 C 1558.44 -4.43462 5.66334 0
M  V30 16332 C 1560.46 -3.96723 4.38594 0
M  V30 16333 C 1559.82 -4.2759 5.59773 0
M  V30 16334 H 1555.92 -0.739174 0.255237 0
M  V30 16335 H 1558.51 -1.54823 1.18059 0
M  V30 16336 H 1556.68 -3.87781 0.219261 0
M  V30 16337 H 1558.41 -4.02535 0.418046 0
M  V30 16338 H 1555.16 -4.06093 2.43691 0
M  V30 16339 H 1555.59 -4.55148 5.01168 0
M  V30 16340 H 1560.23 -3.55846 2.28328 0
M  V30 16341 H 1557.95 -4.67107 6.59421 0
M  V30 16342 H 1561.53 -3.84641 4.36512 0
M  V30 16343 H 1560.41 -4.39755 6.49296 0
M  V30 16344 N 1557.92 -0.68059 -1.42147 0
M  V30 16345 C 1558.86 -0.00585926 -2.30799 0
M  V30 16346 C 1559.83 0.786778 -1.46284 0
M  V30 16347 O 1561.02 0.757853 -1.75103 0
M  V30 16348 C 1558.16 0.935319 -3.32183 0
M  V30 16349 C 1557.27 0.13589 -4.31786 0
M  V30 16350 C 1556.41 1.07335 -5.20243 0
M  V30 16351 C 1555.45 0.265943 -6.11522 0
M  V30 16352 N 1554.58 1.15641 -6.92511 0
M  V30 16353 H 1559.42 -0.767651 -2.87943 0
M  V30 16354 H 1556.96 -0.39029 -1.41828 0
M  V30 16355 H 1558.92 1.49489 -3.89498 0
M  V30 16356 H 1557.55 1.66368 -2.76626 0
M  V30 16357 H 1556.6 -0.540383 -3.76542 0
M  V30 16358 H 1557.91 -0.490716 -4.9638 0
M  V30 16359 H 1557.07 1.70265 -5.82319 0
M  V30 16360 H 1555.81 1.73383 -4.55839 0
M  V30 16361 H 1554.81 -0.376531 -5.48509 0
M  V30 16362 H 1556.04 -0.39053 -6.77976 0
M  V30 16363 H 1553.98 1.80319 -6.30731 0
M  V30 16364 H 1553.9 0.585022 -7.53733 0
M  V30 16365 H 1555.17 1.773 -7.59069 0
M  V30 16366 N 1559.4 1.51781 -0.424309 0
M  V30 16367 C 1560.31 2.31162 0.40015 0
M  V30 16368 C 1561.32 1.39523 1.03969 0
M  V30 16369 O 1562.5 1.72597 1.0379 0
M  V30 16370 C 1559.56 3.12875 1.49366 0
M  V30 16371 C 1558.62 4.20275 0.875616 0
M  V30 16372 C 1557.86 4.98082 1.91702 0
M  V30 16373 O 1558.08 4.76365 3.13739 0
M  V30 16374 O 1557.01 5.82527 1.5148 0
M  V30 16375 H 1560.84 3.0269 -0.247529 0
M  V30 16376 H 1558.42 1.48223 -0.187146 0
M  V30 16377 H 1560.31 3.63714 2.12815 0
M  V30 16378 H 1558.98 2.44125 2.12567 0
M  V30 16379 H 1557.89 3.73546 0.203429 0
M  V30 16380 H 1559.22 4.91361 0.287306 0
M  V30 16381 N 1560.87 0.155222 1.56834 0
M  V30 16382 C 1561.8 -0.777258 2.20184 0
M  V30 16383 C 1562.78 -1.25102 1.15254 0
M  V30 16384 O 1563.97 -1.3071 1.43627 0
M  V30 16385 C 1561.1 -2.01326 2.82993 0
M  V30 16386 C 1560.05 -1.67596 3.93822 0
M  V30 16387 C 1559.38 -2.98529 4.43604 0
M  V30 16388 C 1560.68 -0.916302 5.142 0
M  V30 16389 H 1562.37 -0.249257 2.98361 0
M  V30 16390 H 1559.92 -0.118448 1.43512 0
M  V30 16391 H 1561.87 -2.67048 3.2598 0
M  V30 16392 H 1560.6 -2.56513 2.0216 0
M  V30 16393 H 1559.26 -1.0425 3.51465 0
M  V30 16394 H 1558.9 -3.51723 3.59583 0
M  V30 16395 H 1558.6 -2.76721 5.18362 0
M  V30 16396 H 1560.13 -3.65308 4.89267 0
M  V30 16397 H 1561.54 -1.47577 5.5398 0
M  V30 16398 H 1559.94 -0.797856 5.94772 0
M  V30 16399 H 1561.01 0.0904351 4.84816 0
M  V30 16400 N 1562.35 -1.57153 -0.118549 0
M  V30 16401 C 1563.28 -1.97022 -1.1711 0
M  V30 16402 C 1564.3 -0.869599 -1.37629 0
M  V30 16403 O 1565.49 -1.14788 -1.36696 0
M  V30 16404 C 1562.59 -2.25371 -2.53103 0
M  V30 16405 C 1561.76 -3.56677 -2.5318 0
M  V30 16406 C 1560.82 -3.73233 -3.70922 0
M  V30 16407 O 1559.84 -4.4534 -3.54487 0
M  V30 16408 N 1561.05 -3.12036 -4.89504 0
M  V30 16409 H 1563.81 -2.87921 -0.831959 0
M  V30 16410 H 1561.37 -1.58947 -0.307817 0
M  V30 16411 H 1563.36 -2.33662 -3.3043 0
M  V30 16412 H 1561.93 -1.40597 -2.79197 0
M  V30 16413 H 1561.15 -3.5957 -1.61564 0
M  V30 16414 H 1562.44 -4.42982 -2.50288 0
M  V30 16415 H 1561.84 -2.53422 -5.05761 0
M  V30 16416 H 1560.4 -3.25846 -5.64506 0
M  V30 16417 N 1563.83 0.388742 -1.5273 0
M  V30 16418 C 1565.08 1.13543 -1.68035 0
M  V30 16419 C 1565.41 1.89622 -0.419177 0
M  V30 16420 O 1564.68 1.85556 0.583031 0
M  V30 16421 C 1564.97 2.11346 -2.91556 0
M  V30 16422 C 1564.82 1.39029 -4.27775 0
M  V30 16423 C 1566.14 3.11769 -3.10625 0
M  V30 16424 H 1563.26 0.411406 -0.611485 0
M  V30 16425 H 1565.9 0.418781 -1.85327 0
M  V30 16426 H 1564.05 2.7246 -2.76944 0
M  V30 16427 H 1565.72 0.808775 -4.54155 0
M  V30 16428 H 1563.96 0.692133 -4.28243 0
M  V30 16429 H 1564.64 2.10495 -5.1029 0
M  V30 16430 H 1567.11 2.60745 -3.2427 0
M  V30 16431 H 1565.99 3.77447 -3.98529 0
M  V30 16432 H 1566.25 3.80649 -2.24853 0
M  V30 16433 N 1565.31 1.43698 0.647203 0
M  V30 16434 C 1566.25 1.49323 1.75987 0
M  V30 16435 C 1567.22 0.342379 1.62533 0
M  V30 16436 O 1568.41 0.550379 1.8269 0
M  V30 16437 C 1565.55 1.428 3.14169 0
M  V30 16438 C 1564.66 2.68136 3.38714 0
M  V30 16439 C 1563.8 2.53559 4.66778 0
M  V30 16440 C 1562.84 3.74135 4.84447 0
M  V30 16441 N 1561.97 3.58332 6.03774 0
M  V30 16442 H 1566.81 2.44395 1.70514 0
M  V30 16443 H 1564.35 1.21309 0.832021 0
M  V30 16444 H 1566.31 1.37011 3.94061 0
M  V30 16445 H 1564.94 0.513057 3.18697 0
M  V30 16446 H 1563.99 2.84179 2.52877 0
M  V30 16447 H 1565.3 3.57684 3.47654 0
M  V30 16448 H 1564.46 2.45513 5.54805 0
M  V30 16449 H 1563.2 1.61545 4.60168 0
M  V30 16450 H 1562.2 3.82584 3.94854 0
M  V30 16451 H 1563.43 4.67165 4.92883 0
M  V30 16452 H 1561.37 2.69057 5.98284 0
M  V30 16453 H 1561.29 4.41485 6.13699 0
M  V30 16454 H 1562.56 3.54148 6.94406 0
M  V30 16455 N 1566.79 -0.886131 1.30328 0
M  V30 16456 C 1567.72 -2.00793 1.19183 0
M  V30 16457 C 1568.7 -1.69899 0.08276 0
M  V30 16458 O 1569.88 -1.92389 0.264593 0
M  V30 16459 C 1567.01 -3.35922 0.881669 0
M  V30 16460 C 1565.97 -3.81072 1.94855 0
M  V30 16461 C 1565.29 -5.1348 1.4914 0
M  V30 16462 C 1566.59 -3.99923 3.35944 0
M  V30 16463 H 1568.29 -2.10375 2.13032 0
M  V30 16464 H 1565.83 -1.0108 1.02561 0
M  V30 16465 H 1567.79 -4.13922 0.790359 0
M  V30 16466 H 1566.51 -3.26469 -0.0925037 0
M  V30 16467 H 1565.17 -3.053 2.02947 0
M  V30 16468 H 1564.82 -5.00453 0.50553 0
M  V30 16469 H 1564.52 -5.44659 2.205 0
M  V30 16470 H 1566.04 -5.94005 1.41386 0
M  V30 16471 H 1567.45 -4.68364 3.30617 0
M  V30 16472 H 1565.85 -4.42477 4.05381 0
M  V30 16473 H 1566.92 -3.03816 3.77921 0
M  V30 16474 N 1568.26 -1.13026 -1.09832 0
M  V30 16475 C 1569.19 -0.826338 -2.18389 0
M  V30 16476 C 1570.18 0.212529 -1.68767 0
M  V30 16477 O 1571.36 0.072363 -1.94065 0
M  V30 16478 C 1568.49 -0.286991 -3.46112 0
M  V30 16479 C 1567.44 -1.25963 -4.09044 0
M  V30 16480 C 1566.77 -0.580231 -5.31542 0
M  V30 16481 C 1568.07 -2.61661 -4.5203 0
M  V30 16482 H 1569.76 -1.73408 -2.4407 0
M  V30 16483 H 1567.31 -0.835201 -1.17305 0
M  V30 16484 H 1569.26 -0.062067 -4.21354 0
M  V30 16485 H 1567.99 0.656121 -3.19942 0
M  V30 16486 H 1566.65 -1.47047 -3.35816 0
M  V30 16487 H 1566.29 0.368222 -5.0165 0
M  V30 16488 H 1565.99 -1.2291 -5.74601 0
M  V30 16489 H 1567.52 -0.36449 -6.09511 0
M  V30 16490 H 1568.93 -2.44569 -5.18516 0
M  V30 16491 H 1567.33 -3.22685 -5.05959 0
M  V30 16492 H 1568.4 -3.19637 -3.64637 0
M  V30 16493 N 1569.74 1.27735 -0.923117 0
M  V30 16494 C 1570.65 2.30734 -0.424124 0
M  V30 16495 C 1571.67 1.66872 0.49291 0
M  V30 16496 O 1572.84 1.97843 0.37683 0
M  V30 16497 C 1569.91 3.45227 0.319254 0
M  V30 16498 C 1568.97 4.2462 -0.632137 0
M  V30 16499 C 1568.2 5.33646 0.0758596 0
M  V30 16500 O 1568.43 5.55481 1.29602 0
M  V30 16501 O 1567.36 5.98966 -0.593624 0
M  V30 16502 H 1571.19 2.75444 -1.27923 0
M  V30 16503 H 1568.77 1.32601 -0.688288 0
M  V30 16504 H 1570.65 4.14874 0.73873 0
M  V30 16505 H 1569.33 3.02582 1.15004 0
M  V30 16506 H 1568.24 3.57525 -1.1012 0
M  V30 16507 H 1569.57 4.70969 -1.43001 0
M  V30 16508 N 1571.22 0.688118 1.41784 0
M  V30 16509 C 1572.15 0.0323199 2.33478 0
M  V30 16510 C 1573.13 -0.775145 1.51412 0
M  V30 16511 O 1574.32 -0.72962 1.79973 0
M  V30 16512 C 1571.45 -0.910141 3.35162 0
M  V30 16513 C 1570.4 -0.210312 4.27483 0
M  V30 16514 C 1569.73 -1.26662 5.19481 0
M  V30 16515 C 1571.03 0.918839 5.14154 0
M  V30 16516 H 1572.72 0.798138 2.88566 0
M  V30 16517 H 1570.27 0.385262 1.38751 0
M  V30 16518 H 1572.22 -1.3781 3.98229 0
M  V30 16519 H 1570.94 -1.70754 2.78408 0
M  V30 16520 H 1569.6 0.237544 3.6583 0
M  V30 16521 H 1569.25 -2.05635 4.59046 0
M  V30 16522 H 1568.95 -0.803416 5.82082 0
M  V30 16523 H 1570.47 -1.73524 5.85424 0
M  V30 16524 H 1571.89 0.531499 5.70831 0
M  V30 16525 H 1570.29 1.30867 5.85657 0
M  V30 16526 H 1571.36 1.7618 4.51762 0
M  V30 16527 N 1572.7 -1.51554 0.432352 0
M  V30 16528 C 1573.63 -2.25369 -0.417328 0
M  V30 16529 C 1574.64 -1.29197 -0.990551 0
M  V30 16530 O 1575.83 -1.54985 -0.885539 0
M  V30 16531 C 1572.93 -2.99006 -1.59526 0
M  V30 16532 C 1572.11 -4.22234 -1.1418 0
M  V30 16533 C 1571.16 -4.78495 -2.18928 0
M  V30 16534 O 1570.19 -5.40465 -1.78566 0
M  V30 16535 N 1571.39 -4.62091 -3.51358 0
M  V30 16536 H 1574.16 -2.98926 0.215294 0
M  V30 16537 H 1571.72 -1.59783 0.26097 0
M  V30 16538 H 1573.71 -3.33532 -2.29212 0
M  V30 16539 H 1572.28 -2.28491 -2.13332 0
M  V30 16540 H 1571.5 -3.93259 -0.272182 0
M  V30 16541 H 1572.79 -5.02212 -0.816145 0
M  V30 16542 H 1572.19 -4.12718 -3.86885 0
M  V30 16543 H 1570.74 -5.00992 -4.16953 0
M  V30 16544 N 1574.18 -0.163538 -1.56749 0
M  V30 16545 C 1575.09 0.782461 -2.21167 0
M  V30 16546 C 1576.1 1.25911 -1.20093 0
M  V30 16547 O 1577.28 1.31286 -1.52728 0
M  V30 16548 C 1574.34 1.99761 -2.83366 0
M  V30 16549 C 1573.4 1.56859 -3.99617 0
M  V30 16550 C 1572.64 2.72582 -4.58841 0
M  V30 16551 O 1572.86 3.89243 -4.16949 0
M  V30 16552 O 1571.79 2.47104 -5.48838 0
M  V30 16553 H 1575.62 0.264023 -3.0255 0
M  V30 16554 H 1573.21 0.06429 -1.49262 0
M  V30 16555 H 1575.09 2.70843 -3.22835 0
M  V30 16556 H 1573.76 2.50526 -2.04984 0
M  V30 16557 H 1572.67 0.827511 -3.64833 0
M  V30 16558 H 1574 1.10794 -4.79568 0
M  V30 16559 N 1575.65 1.57214 0.110213 0
M  V30 16560 C 1576.9 1.85586 0.817649 0
M  V30 16561 C 1577.23 0.750536 1.79111 0
M  V30 16562 O 1576.51 -0.242864 1.92978 0
M  V30 16563 C 1576.79 3.24565 1.55979 0
M  V30 16564 C 1576.64 4.45708 0.605339 0
M  V30 16565 C 1577.96 3.61233 2.51393 0
M  V30 16566 H 1575.08 0.675037 0.295794 0
M  V30 16567 H 1577.72 1.89824 0.0816541 0
M  V30 16568 H 1575.87 3.21083 2.18718 0
M  V30 16569 H 1577.55 4.61298 -0.0138894 0
M  V30 16570 H 1575.79 4.33722 -0.0824644 0
M  V30 16571 H 1576.46 5.39643 1.16143 0
M  V30 16572 H 1578.94 3.65563 1.98754 0
M  V30 16573 H 1577.81 4.59438 3.00346 0
M  V30 16574 H 1578.07 2.89116 3.34461 0
M  V30 16575 N 1577.13 -0.380637 1.52934 0
M  V30 16576 C 1578.41 -1.13958 1.58975 0
M  V30 16577 C 1578.79 -2.07503 0.388028 0
M  V30 16578 O 1578.14 -2.19844 -0.622984 0
M  V30 16579 C 1578.35 -1.89192 2.9327 0
M  V30 16580 C 1579.7 -2.44259 3.47308 0
M  V30 16581 O 1580.72 -1.99338 2.95199 0
M  V30 16582 O 1579.58 -3.26338 4.38367 0
M  V30 16583 H 1576.67 -0.521896 0.641525 0
M  V30 16584 H 1579.22 -0.385114 1.65272 0
M  V30 16585 H 1577.99 -1.20834 3.72176 0
M  V30 16586 H 1577.61 -2.71581 2.90395 0
M  V30 16587 N 1578.61 -1.44039 -0.639573 0
M  V30 16588 C 1579.84 -1.50063 -1.43164 0
M  V30 16589 C 1580.26 -0.123906 -1.87691 0
M  V30 16590 O 1579.62 0.885192 -1.58221 0
M  V30 16591 C 1579.67 -2.46305 -2.63375 0
M  V30 16592 O 1578.77 -1.95874 -3.62915 0
M  V30 16593 H 1578.11 -0.507052 -0.428713 0
M  V30 16594 H 1580.64 -1.8909 -0.781415 0
M  V30 16595 H 1580.65 -2.64062 -3.11023 0
M  V30 16596 H 1579.33 -3.46309 -2.3031 0
M  V30 16597 H 1577.9 -1.87844 -3.22132 0
M  V30 16598 N 1580.09 0.879207 -1.30796 0
M  V30 16599 C 1581.02 2.00158 -1.20246 0
M  V30 16600 C 1582 1.69852 -0.091769 0
M  V30 16601 O 1583.18 1.92246 -0.274792 0
M  V30 16602 C 1580.31 3.3545 -0.899472 0
M  V30 16603 C 1579.27 3.80033 -1.96873 0
M  V30 16604 C 1578.59 5.12681 -1.51861 0
M  V30 16605 C 1579.89 3.98136 -3.38061 0
M  V30 16606 H 1581.59 2.09242 -2.14145 0
M  V30 16607 H 1579.13 1.00535 -1.03096 0
M  V30 16608 H 1581.09 4.13497 -0.812299 0
M  V30 16609 H 1579.81 3.26513 0.075189 0
M  V30 16610 H 1578.47 3.04219 -2.04564 0
M  V30 16611 H 1578.12 5.00178 -0.532063 0
M  V30 16612 H 1577.82 5.43482 -2.23386 0
M  V30 16613 H 1579.34 5.93247 -1.44534 0
M  V30 16614 H 1580.76 4.66604 -3.33096 0
M  V30 16615 H 1579.15 4.40321 -4.07722 0
M  V30 16616 H 1580.22 3.01807 -3.79526 0
M  V30 16617 N 1581.57 1.13606 1.09231 0
M  V30 16618 C 1582.5 0.837908 2.17948 0
M  V30 16619 C 1583.48 -0.203575 1.68877 0
M  V30 16620 O 1584.66 -0.0620702 1.94101 0
M  V30 16621 C 1581.79 0.305342 3.45955 0
M  V30 16622 C 1580.75 1.2813 4.08371 0
M  V30 16623 C 1580.07 0.608412 5.31227 0
M  V30 16624 C 1581.37 2.64055 4.50636 0
M  V30 16625 H 1583.07 1.747 2.43147 0
M  V30 16626 H 1580.61 0.84141 1.1686 0
M  V30 16627 H 1582.57 0.0844116 4.21315 0
M  V30 16628 H 1581.29 -0.639144 3.20285 0
M  V30 16629 H 1579.95 1.48826 3.35032 0
M  V30 16630 H 1579.6 -0.341613 5.01839 0
M  V30 16631 H 1579.3 1.25956 5.73942 0
M  V30 16632 H 1580.82 0.396809 6.09309 0
M  V30 16633 H 1582.24 2.47316 5.17212 0
M  V30 16634 H 1580.63 3.25364 5.0424 0
M  V30 16635 H 1581.7 3.21566 3.62937 0
M  V30 16636 N 1583.05 -1.27244 0.929878 0
M  V30 16637 C 1584.46 -1.4662 0.630451 0
M  V30 16638 C 1584.66 -1.84077 -0.819633 0
M  V30 16639 O 1583.72 -1.95555 -1.59733 0
M  V30 16640 C 1585.03 -2.55709 1.58219 0
M  V30 16641 C 1586.58 -2.69569 1.59065 0
M  V30 16642 C 1587.05 -3.81818 2.52941 0
M  V30 16643 N 1588.54 -3.89195 2.51161 0
M  V30 16644 C 1589.28 -4.75474 3.20488 0
M  V30 16645 N 1588.78 -5.66225 3.99201 0
M  V30 16646 N 1590.57 -4.69222 3.09495 0
M  V30 16647 H 1582.72 -1.01216 1.86733 0
M  V30 16648 H 1584.98 -0.505737 0.801832 0
M  V30 16649 H 1584.69 -2.34985 2.61677 0
M  V30 16650 H 1584.56 -3.53141 1.32556 0
M  V30 16651 H 1586.95 -2.89672 0.563375 0
M  V30 16652 H 1587.03 -1.72616 1.88778 0
M  V30 16653 H 1586.67 -3.62467 3.55781 0
M  V30 16654 H 1586.6 -4.78202 2.20524 0
M  V30 16655 H 1589.1 -3.24305 1.93997 0
M  V30 16656 H 1589.41 -6.28925 4.4908 0
M  V30 16657 H 1587.75 -5.66013 4.03304 0
M  V30 16658 H 1590.94 -3.97322 2.47493 0
M  V30 16659 H 1591.12 -5.36244 3.63794 0
M  V30 16660 N 1584.52 -0.695628 -1.41417 0
M  V30 16661 C 1585.77 -0.226171 -2.0083 0
M  V30 16662 C 1586.09 1.17833 -1.55371 0
M  V30 16663 O 1585.36 1.79512 -0.784362 0
M  V30 16664 H 1583.94 -0.0806271 -0.742636 0
M  V30 16665 H 1586.6 -0.8968 -1.73042 0
M  V30 16666 H 1585.7 -0.243643 -3.11148 0
M  V30 16667 N 1586 1.51322 -0.440383 0
M  V30 16668 C 1587.42 1.5933 -0.0928372 0
M  V30 16669 C 1587.62 1.45107 1.39807 0
M  V30 16670 O 1586.67 1.29385 2.16831 0
M  V30 16671 C 1587.99 2.9433 -0.615663 0
M  V30 16672 C 1589.53 3.07647 -0.576373 0
M  V30 16673 C 1590.01 4.45176 -1.07622 0
M  V30 16674 N 1591.5 4.51504 -1.03434 0
M  V30 16675 C 1592.24 5.56249 -1.39194 0
M  V30 16676 N 1591.73 6.68398 -1.82254 0
M  V30 16677 N 1593.52 5.46624 -1.30991 0
M  V30 16678 H 1585.68 1.58812 -1.41041 0
M  V30 16679 H 1587.94 0.748795 -0.581386 0
M  V30 16680 H 1587.64 3.10117 -1.65892 0
M  V30 16681 H 1587.52 3.77176 -0.0422513 0
M  V30 16682 H 1589.91 2.91526 0.457904 0
M  V30 16683 H 1589.99 2.26633 -1.18622 0
M  V30 16684 H 1589.63 4.62044 -2.10898 0
M  V30 16685 H 1589.56 5.24734 -0.442882 0
M  V30 16686 H 1592.05 3.71013 -0.718156 0
M  V30 16687 H 1592.36 7.44347 -2.07769 0
M  V30 16688 H 1590.71 6.69598 -1.86183 0
M  V30 16689 H 1593.9 4.57894 -0.972145 0
M  V30 16690 H 1594.07 6.28143 -1.59188 0
M  V30 16691 N 1587.48 0.171848 1.5666 0
M  V30 16692 C 1588.41 -0.789671 2.15167 0
M  V30 16693 C 1589.42 -1.19335 1.10739 0
M  V30 16694 O 1590.61 -1.13311 1.37924 0
M  V30 16695 C 1587.71 -2.07448 2.6799 0
M  V30 16696 C 1586.89 -1.83429 3.9708 0
M  V30 16697 C 1585.95 -2.96134 4.34961 0
M  V30 16698 O 1584.97 -2.66746 5.02827 0
M  V30 16699 N 1586.17 -4.23932 3.96563 0
M  V30 16700 H 1588.94 -0.289484 2.98299 0
M  V30 16701 H 1586.5 -0.0109154 1.61896 0
M  V30 16702 H 1588.49 -2.81941 2.90329 0
M  V30 16703 H 1587.06 -2.48656 1.89444 0
M  V30 16704 H 1586.28 -0.928376 3.83112 0
M  V30 16705 H 1587.57 -1.64749 4.81389 0
M  V30 16706 H 1586.97 -4.50668 3.41928 0
M  V30 16707 H 1585.52 -4.95126 4.23903 0
M  V30 16708 N 1588.96 -1.5727 -0.101874 0
M  V30 16709 C 1590.2 -1.86017 -0.807795 0
M  V30 16710 C 1590.54 -0.760024 -1.7871 0
M  V30 16711 O 1589.81 0.232627 -1.93104 0
M  V30 16712 C 1590.09 -3.25388 -1.54255 0
M  V30 16713 C 1589.95 -4.46023 -0.581693 0
M  V30 16714 C 1591.27 -3.62561 -2.49474 0
M  V30 16715 H 1588.39 -0.676596 -0.29221 0
M  V30 16716 H 1591.03 -1.89865 -0.0715861 0
M  V30 16717 H 1589.18 -3.22239 -2.17013 0
M  V30 16718 H 1590.85 -4.61284 0.0383529 0
M  V30 16719 H 1589.09 -4.33672 0.105465 0
M  V30 16720 H 1589.76 -5.40251 -1.1328 0
M  V30 16721 H 1592.24 -3.66611 -1.96813 0
M  V30 16722 H 1591.12 -4.61025 -2.97905 0
M  V30 16723 H 1591.38 -2.90885 -3.32924 0
M  V30 16724 N 1590.44 0.372521 -1.53134 0
M  V30 16725 C 1591.85 0.713727 -1.42752 0
M  V30 16726 C 1592.05 1.93532 -0.561051 0
M  V30 16727 O 1591.11 2.52467 -0.0408195 0
M  V30 16728 C 1592.42 0.933418 -2.85846 0
M  V30 16729 C 1593.97 1.03386 -2.95432 0
M  V30 16730 C 1594.44 1.28607 -4.39573 0
M  V30 16731 N 1595.93 1.35393 -4.42971 0
M  V30 16732 C 1596.67 1.56604 -5.516 0
M  V30 16733 N 1596.17 1.75178 -6.70287 0
M  V30 16734 N 1597.96 1.58917 -5.39168 0
M  V30 16735 H 1590.11 -0.431068 -2.0798 0
M  V30 16736 H 1592.37 -0.130757 -0.938939 0
M  V30 16737 H 1592.08 0.107707 -3.51535 0
M  V30 16738 H 1591.95 1.84348 -3.29083 0
M  V30 16739 H 1594.34 1.85012 -2.29901 0
M  V30 16740 H 1594.42 0.101346 -2.55599 0
M  V30 16741 H 1594.06 0.47485 -5.05675 0
M  V30 16742 H 1593.99 2.2317 -4.76973 0
M  V30 16743 H 1596.49 1.22681 -3.57432 0
M  V30 16744 H 1596.8 1.90916 -7.48846 0
M  V30 16745 H 1595.14 1.7237 -6.73286 0
M  V30 16746 H 1598.33 1.4397 -4.4541 0
M  V30 16747 H 1598.51 1.75108 -6.23892 0
M  V30 16748 N 1591.91 1.44376 0.631925 0
M  V30 16749 C 1593.33 1.28245 0.950014 0
M  V30 16750 C 1593.53 0.217644 2.00321 0
M  V30 16751 O 1592.59 -0.396736 2.49364 0
M  V30 16752 C 1593.9 2.65378 1.41404 0
M  V30 16753 C 1595.45 2.73081 1.52956 0
M  V30 16754 C 1595.92 4.10682 2.02742 0
M  V30 16755 N 1597.41 4.12854 2.10014 0
M  V30 16756 C 1598.15 5.16173 2.49705 0
M  V30 16757 N 1597.64 6.29855 2.88539 0
M  V30 16758 N 1599.44 5.03528 2.49832 0
M  V30 16759 H 1591.59 2.12302 -0.0646167 0
M  V30 16760 H 1593.85 0.9474 0.0337162 0
M  V30 16761 H 1593.56 3.44366 0.714476 0
M  V30 16762 H 1593.43 2.92213 2.3852 0
M  V30 16763 H 1595.82 1.94412 2.22009 0
M  V30 16764 H 1595.9 2.49988 0.542176 0
M  V30 16765 H 1595.54 4.89827 1.34285 0
M  V30 16766 H 1595.47 4.31152 3.02351 0
M  V30 16767 H 1597.96 3.30806 1.8269 0
M  V30 16768 H 1598.28 7.04505 3.17637 0
M  V30 16769 H 1596.62 6.33294 2.86293 0
M  V30 16770 H 1599.81 4.13773 2.18883 0
M  V30 16771 H 1599.99 5.84172 2.80441 0
M  V30 16772 N 1593.39 -0.872258 1.31261 0
M  V30 16773 C 1594.64 -1.62511 1.20815 0
M  V30 16774 C 1594.97 -1.93084 -0.234231 0
M  V30 16775 O 1594.22 -1.55945 -1.18236 0
M  V30 16776 C 1594.52 -2.96524 1.9952 0
M  V30 16777 C 1594.19 -2.85453 3.49038 0
M  V30 16778 C 1592.85 -2.8214 3.89808 0
M  V30 16779 C 1595.2 -2.72654 4.44195 0
M  V30 16780 C 1592.53 -2.63885 5.24005 0
M  V30 16781 C 1594.88 -2.55936 5.78515 0
M  V30 16782 C 1593.54 -2.51005 6.18508 0
M  V30 16783 H 1592.81 -0.594672 0.442093 0
M  V30 16784 H 1595.46 -1.01319 1.62501 0
M  V30 16785 H 1593.77 -3.61739 1.50507 0
M  V30 16786 H 1595.46 -3.53763 1.8882 0
M  V30 16787 H 1592.05 -2.88847 3.16647 0
M  V30 16788 H 1596.24 -2.7427 4.1363 0
M  V30 16789 H 1591.49 -2.58491 5.54069 0
M  V30 16790 H 1595.67 -2.45009 6.51877 0
M  V30 16791 H 1593.29 -2.36619 7.22437 0
M  V30 16792 N 1594.87 -1.14184 -1.08627 0
M  V30 16793 C 1595.82 -0.795361 -2.13677 0
M  V30 16794 C 1596.8 0.214426 -1.59465 0
M  V30 16795 O 1598 0.0171053 -1.76992 0
M  V30 16796 C 1595.12 -0.272074 -3.4222 0
M  V30 16797 C 1594.21 -1.31125 -4.0332 0
M  V30 16798 N 1594.6 -2.51469 -4.38859 0
M  V30 16799 C 1592.9 -1.16095 -4.30625 0
M  V30 16800 C 1593.6 -3.17975 -4.871 0
M  V30 16801 N 1592.58 -2.45382 -4.85066 0
M  V30 16802 H 1596.38 -1.71086 -2.38971 0
M  V30 16803 H 1593.89 -1.02537 -1.25936 0
M  V30 16804 H 1595.89 -0.00556906 -4.169 0
M  V30 16805 H 1594.55 0.637644 -3.18377 0
M  V30 16806 H 1595.56 -2.88714 -4.29959 0
M  V30 16807 H 1592.24 -0.310066 -4.16347 0
M  V30 16808 H 1593.63 -4.20569 -5.23996 0
M  V30 16809 N 1596.35 1.26749 -0.936613 0
M  V30 16810 C 1597.59 1.94251 -0.582616 0
M  V30 16811 C 1597.93 1.73352 0.875361 0
M  V30 16812 O 1597.2 1.06784 1.62565 0
M  V30 16813 C 1597.49 3.48145 -0.920151 0
M  V30 16814 C 1597.34 3.78349 -2.43253 0
M  V30 16815 C 1598.66 4.37971 -0.432326 0
M  V30 16816 H 1595.78 0.705507 -0.213141 0
M  V30 16817 H 1598.42 1.49703 -1.17001 0
M  V30 16818 H 1596.57 3.8622 -0.420279 0
M  V30 16819 H 1598.24 3.50015 -3.00478 0
M  V30 16820 H 1596.48 3.24586 -2.87795 0
M  V30 16821 H 1597.15 4.85902 -2.61922 0
M  V30 16822 H 1599.63 4.07098 -0.860857 0
M  V30 16823 H 1598.51 5.44452 -0.697366 0
M  V30 16824 H 1598.77 4.37029 0.667694 0
M  V30 16825 N 1597.83 0.703118 1.41046 0
M  V30 16826 C 1598.76 0.00331992 2.292 0
M  V30 16827 C 1599.77 -0.736648 1.4518 0
M  V30 16828 O 1600.96 -0.586097 1.68604 0
M  V30 16829 C 1598.06 -1.01948 3.23203 0
M  V30 16830 C 1597.23 -0.347591 4.36017 0
M  V30 16831 C 1596.29 -1.27404 5.10543 0
M  V30 16832 O 1595.32 -0.763558 5.64055 0
M  V30 16833 N 1596.52 -2.60596 5.1872 0
M  V30 16834 H 1599.29 0.760179 2.89899 0
M  V30 16835 H 1596.85 0.549747 1.52281 0
M  V30 16836 H 1598.84 -1.64115 3.6993 0
M  V30 16837 H 1597.41 -1.6778 2.63758 0
M  V30 16838 H 1596.63 0.454088 3.91576 0
M  V30 16839 H 1597.92 0.119295 5.0866 0
M  V30 16840 H 1597.31 -3.0458 4.76705 0
M  V30 16841 H 1595.87 -3.17939 5.68998 0
M  V30 16842 N 1599.3 -1.51086 0.448402 0
M  V30 16843 C 1600.23 -2.30896 -0.347773 0
M  V30 16844 C 1601.22 -1.36792 -1.01104 0
M  V30 16845 O 1602.4 -1.65713 -1.01257 0
M  V30 16846 C 1599.53 -3.15901 -1.44304 0
M  V30 16847 C 1598.48 -4.18373 -0.90265 0
M  V30 16848 C 1597.81 -4.9197 -2.0945 0
M  V30 16849 C 1599.11 -5.22252 0.0705335 0
M  V30 16850 H 1600.8 -2.97704 0.318273 0
M  V30 16851 H 1598.35 -1.43169 0.154509 0
M  V30 16852 H 1600.3 -3.70519 -2.00733 0
M  V30 16853 H 1599.03 -2.46935 -2.13753 0
M  V30 16854 H 1597.69 -3.64823 -0.3605 0
M  V30 16855 H 1597.33 -4.19497 -2.77545 0
M  V30 16856 H 1597.03 -5.6127 -1.73926 0
M  V30 16857 H 1598.56 -5.49415 -2.66412 0
M  V30 16858 H 1599.97 -5.71876 -0.403814 0
M  V30 16859 H 1598.37 -5.99142 0.338905 0
M  V30 16860 H 1599.44 -4.74398 1.00373 0
M  V30 16861 N 1600.78 -0.180154 -1.56567 0
M  V30 16862 C 1602.01 0.471692 -2.01965 0
M  V30 16863 C 1602.43 1.5542 -1.05954 0
M  V30 16864 O 1601.79 1.81255 -0.0405307 0
M  V30 16865 C 1601.84 1.01883 -3.45908 0
M  V30 16866 O 1600.94 2.13245 -3.52988 0
M  V30 16867 H 1600.28 0.11197 -0.654491 0
M  V30 16868 H 1602.81 -0.286642 -2.02582 0
M  V30 16869 H 1602.82 1.33922 -3.85395 0
M  V30 16870 H 1601.5 0.226299 -4.15284 0
M  V30 16871 H 1600.08 1.82184 -3.25367 0
M  V30 16872 N 1602.26 1.57322 0.0935319 0
M  V30 16873 C 1603.21 2.03184 1.13222 0
M  V30 16874 C 1604.2 0.933184 1.41379 0
M  V30 16875 O 1605.41 1.11836 1.41042 0
M  V30 16876 H 1601.78 0.647541 0.382354 0
M  V30 16877 H 1603.75 2.89606 0.719105 0
M  V30 16878 C 1602.5 2.47336 2.44378 0
M  V30 16879 H 1601.83 3.31456 2.23556 0
M  V30 16880 H 1603.27 2.83199 3.15554 0
M  V30 16881 C 1601.73 1.34728 3.08788 0
M  V30 16882 O 1602.26 0.677285 3.95949 0
M  V30 16883 N 1600.46 1.09787 2.69063 0
M  V30 16884 H 1600.01 1.64451 1.98277 0
M  V30 16885 H 1599.97 0.346436 3.12485 0
M  V30 16886 N 1603.74 -0.364395 1.53329 0
M  V30 16887 C 1605.15 -0.941133 1.61244 0
M  V30 16888 C 1605.5 -1.90223 0.480596 0
M  V30 16889 O 1604.63 -2.12805 -0.392805 0
M  V30 16890 C 1605.22 -1.7137 2.92263 0
M  V30 16891 C 1603.78 -2.23976 3.02509 0
M  V30 16892 C 1602.93 -1.05253 2.56548 0
M  V30 16893 H 1605.88 -0.143153 1.58053 0
M  V30 16894 H 1605.9 -2.575 2.80132 0
M  V30 16895 H 1605.41 -1.01395 3.74621 0
M  V30 16896 H 1603.51 -2.9719 2.24741 0
M  V30 16897 H 1603.62 -2.51777 4.07609 0
M  V30 16898 H 1601.99 -1.41986 2.11452 0
M  V30 16899 H 1602.77 -0.367744 3.41325 0
M  V30 16900 N 1605.22 -1.44709 -0.62426 0
M  V30 16901 C 1606.16 -1.52104 -1.73589 0
M  V30 16902 C 1607.13 -0.368193 -1.61968 0
M  V30 16903 O 1608.32 -0.579374 -1.81791 0
M  V30 16904 C 1605.46 -1.4778 -3.11857 0
M  V30 16905 C 1604.57 -2.73491 -3.34405 0
M  V30 16906 C 1603.71 -2.60953 -4.62685 0
M  V30 16907 C 1602.75 -3.81795 -4.78434 0
M  V30 16908 N 1601.88 -3.67892 -5.97997 0
M  V30 16909 H 1606.72 -2.47077 -1.66604 0
M  V30 16910 H 1604.26 -1.22617 -0.812616 0
M  V30 16911 H 1606.22 -1.43263 -3.91831 0
M  V30 16912 H 1604.85 -0.563694 -3.1784 0
M  V30 16913 H 1603.9 -2.88166 -2.48324 0
M  V30 16914 H 1605.21 -3.6317 -3.4192 0
M  V30 16915 H 1604.37 -2.54308 -5.50829 0
M  V30 16916 H 1603.1 -1.68846 -4.57539 0
M  V30 16917 H 1602.11 -3.88817 -3.88717 0
M  V30 16918 H 1603.33 -4.74947 -4.85388 0
M  V30 16919 H 1601.28 -2.78541 -5.93928 0
M  V30 16920 H 1601.2 -4.51193 -6.06598 0
M  V30 16921 H 1602.47 -3.6515 -6.88684 0
M  V30 16922 N 1606.69 0.865285 -1.31722 0
M  V30 16923 C 1607.94 1.61868 -1.21675 0
M  V30 16924 C 1608.27 1.93206 0.223988 0
M  V30 16925 O 1607.52 1.5657 1.17407 0
M  V30 16926 C 1607.82 2.95462 -2.0109 0
M  V30 16927 C 1607.49 2.83598 -3.50547 0
M  V30 16928 C 1606.15 2.80069 -3.91299 0
M  V30 16929 C 1608.5 2.70295 -4.45635 0
M  V30 16930 C 1605.83 2.61102 -5.25398 0
M  V30 16931 C 1608.18 2.52864 -5.79864 0
M  V30 16932 C 1606.85 2.47722 -6.19831 0
M  V30 16933 H 1606.12 0.592319 -0.445241 0
M  V30 16934 H 1608.76 1.00456 -1.63036 0
M  V30 16935 H 1607.07 3.60935 -1.52424 0
M  V30 16936 H 1608.77 3.52756 -1.90693 0
M  V30 16937 H 1605.36 2.87164 -3.18175 0
M  V30 16938 H 1609.54 2.72073 -4.15078 0
M  V30 16939 H 1604.8 2.55549 -5.55432 0
M  V30 16940 H 1608.97 2.41548 -6.53167 0
M  V30 16941 H 1606.6 2.32784 -7.23682 0
M  V30 16942 N 1608.17 1.14759 1.0802 0
M  V30 16943 C 1609.42 0.916435 1.80127 0
M  V30 16944 C 1609.74 -0.558281 1.86837 0
M  V30 16945 O 1609.01 -1.40579 1.36434 0
M  V30 16946 H 1607.59 0.336066 0.667135 0
M  V30 16947 H 1610.25 1.44693 1.30576 0
M  V30 16948 H 1609.35 1.31986 2.82818 0
M  V30 16949 N 1609.65 -1.26251 0.943322 0
M  V30 16950 C 1610.61 -2.24554 0.459158 0
M  V30 16951 C 1611.61 -1.54918 -0.430926 0
M  V30 16952 O 1612.8 -1.72678 -0.229803 0
M  V30 16953 C 1609.94 -3.39221 -0.337973 0
M  V30 16954 H 1611.13 -2.689 1.32789 0
M  V30 16955 H 1608.68 -1.38442 0.725495 0
M  V30 16956 H 1609.42 -3.00279 -1.22486 0
M  V30 16957 H 1609.2 -3.90947 0.300428 0
M  V30 16958 H 1610.69 -4.12246 -0.666568 0
M  V30 16959 N 1611.13 -0.710588 -1.40671 0
M  V30 16960 C 1612.08 -0.031353 -2.27978 0
M  V30 16961 C 1613.06 0.737643 -1.42995 0
M  V30 16962 O 1614.26 0.610666 -1.66132 0
M  V30 16963 C 1611.38 0.893329 -3.31473 0
M  V30 16964 C 1610.47 0.119785 -4.23931 0
M  V30 16965 N 1610.86 -0.894341 -4.9783 0
M  V30 16966 C 1609.16 0.353077 -4.446 0
M  V30 16967 C 1609.86 -1.3587 -5.6561 0
M  V30 16968 N 1608.84 -0.681786 -5.39308 0
M  V30 16969 H 1612.64 -0.808683 -2.82555 0
M  V30 16970 H 1610.15 -0.542734 -1.53063 0
M  V30 16971 H 1612.15 1.39521 -3.92861 0
M  V30 16972 H 1610.81 1.67009 -2.78457 0
M  V30 16973 H 1611.82 -1.27504 -5.01959 0
M  V30 16974 H 1608.5 1.10655 -4.02569 0
M  V30 16975 H 1609.89 -2.20108 -6.34825 0
M  V30 16976 N 1612.61 1.50847 -0.456408 0
M  V30 16977 C 1613.54 2.31077 0.335523 0
M  V30 16978 C 1614.52 1.37326 1.00377 0
M  V30 16979 O 1615.7 1.66247 1.00376 0
M  V30 16980 C 1612.83 3.16662 1.42627 0
M  V30 16981 C 1611.79 4.18846 0.88045 0
M  V30 16982 C 1611.11 4.93074 2.06838 0
M  V30 16983 C 1612.41 5.22208 -0.0982288 0
M  V30 16984 H 1614.11 2.97531 -0.334056 0
M  V30 16985 H 1611.65 1.43085 -0.162099 0
M  V30 16986 H 1613.61 3.71578 1.98765 0
M  V30 16987 H 1612.33 2.48066 2.12441 0
M  V30 16988 H 1610.99 3.65009 0.341147 0
M  V30 16989 H 1610.64 4.20963 2.75316 0
M  V30 16990 H 1610.34 5.62184 1.70947 0
M  V30 16991 H 1611.86 5.5082 2.63494 0
M  V30 16992 H 1613.28 5.72082 0.373481 0
M  V30 16993 H 1611.67 5.98954 -0.370674 0
M  V30 16994 H 1612.74 4.73859 -1.02887 0
M  V30 16995 N 1614.09 0.188454 1.56469 0
M  V30 16996 C 1615.33 -0.451165 1.97 0
M  V30 16997 C 1615.65 -1.6261 1.07624 0
M  V30 16998 O 1614.92 -1.95354 0.146125 0
M  V30 16999 H 1613.5 -0.16967 0.727476 0
M  V30 17000 H 1616.17 0.273638 1.9297 0
M  V30 17001 H 1615.26 -0.799741 3.0168 0
M  V30 17002 N 1615.56 -1.5737 -0.0851874 0
M  V30 17003 C 1616.5 -1.99462 -1.12905 0
M  V30 17004 C 1617.51 -0.898597 -1.35754 0
M  V30 17005 O 1618.7 -1.17662 -1.34231 0
M  V30 17006 C 1615.8 -2.30689 -2.48266 0
M  V30 17007 C 1614.97 -3.61967 -2.45557 0
M  V30 17008 C 1614.03 -3.81017 -3.62922 0
M  V30 17009 O 1613.06 -4.52759 -3.44961 0
M  V30 17010 N 1614.26 -3.22348 -4.82775 0
M  V30 17011 H 1617.02 -2.89621 -0.7707 0
M  V30 17012 H 1614.58 -1.59564 -0.274033 0
M  V30 17013 H 1616.58 -2.40618 -3.254 0
M  V30 17014 H 1615.15 -1.46488 -2.76152 0
M  V30 17015 H 1614.37 -3.62916 -1.539 0
M  V30 17016 H 1615.65 -4.48191 -2.40836 0
M  V30 17017 H 1615.05 -2.64093 -5.00271 0
M  V30 17018 H 1613.61 -3.37747 -5.57468 0
M  V30 17019 N 1617.04 0.356258 -1.53521 0
M  V30 17020 C 1618.45 0.932569 -1.61741 0
M  V30 17021 C 1618.8 1.89965 -0.490677 0
M  V30 17022 O 1617.93 2.1301 0.381514 0
M  V30 17023 C 1618.52 1.69818 -2.93168 0
M  V30 17024 C 1617.08 2.22369 -3.03692 0
M  V30 17025 C 1616.23 1.03891 -2.57103 0
M  V30 17026 H 1619.18 0.134769 -1.58127 0
M  V30 17027 H 1619.2 2.56011 -2.81494 0
M  V30 17028 H 1618.71 0.994065 -3.75153 0
M  V30 17029 H 1616.81 2.95994 -2.26314 0
M  V30 17030 H 1616.93 2.49611 -4.08939 0
M  V30 17031 H 1615.29 1.40862 -2.12202 0
M  V30 17032 H 1616.07 0.349637 -3.41515 0
M  V30 17033 N 1618.52 1.45038 0.616577 0
M  V30 17034 C 1619.47 1.49451 1.72187 0
M  V30 17035 C 1620.45 0.358711 1.5685 0
M  V30 17036 O 1621.65 0.604983 1.6634 0
M  V30 17037 C 1618.77 1.45551 3.10918 0
M  V30 17038 C 1617.86 2.643 3.31672 0
M  V30 17039 N 1618.25 3.89462 3.22727 0
M  V30 17040 C 1616.55 2.59805 3.62515 0
M  V30 17041 C 1617.25 4.68667 3.44567 0
M  V30 17042 N 1616.23 3.99974 3.68132 0
M  V30 17043 H 1620.03 2.44055 1.6375 0
M  V30 17044 H 1617.54 1.40205 0.819538 0
M  V30 17045 H 1619.54 1.46797 3.902 0
M  V30 17046 H 1618.2 0.519966 3.2051 0
M  V30 17047 H 1619.21 4.21217 3.01325 0
M  V30 17048 H 1615.89 1.75117 3.78999 0
M  V30 17049 H 1617.28 5.77683 3.43121 0
M  V30 17050 N 1620 -0.858287 1.32179 0
M  V30 17051 C 1621.22 -1.64997 1.25662 0
M  V30 17052 C 1621.65 -1.87303 -0.173021 0
M  V30 17053 O 1621.01 -1.42319 -1.12317 0
M  V30 17054 C 1621.05 -2.98855 2.01787 0
M  V30 17055 O 1620.16 -3.89218 1.36319 0
M  V30 17056 H 1619.5 -0.503169 0.433264 0
M  V30 17057 H 1622.03 -1.06926 1.74436 0
M  V30 17058 H 1622.04 -3.48704 2.11824 0
M  V30 17059 H 1620.71 -2.81941 3.05748 0
M  V30 17060 H 1619.29 -3.4768 1.34807 0
M  V30 17061 N 1621.48 -1.1533 -1.07409 0
M  V30 17062 C 1622.7 -0.951643 -1.83715 0
M  V30 17063 C 1623.12 0.500054 -1.82057 0
M  V30 17064 O 1622.48 1.3468 -1.23157 0
M  V30 17065 C 1622.53 -1.45734 -3.30823 0
M  V30 17066 O 1622.25 -2.85217 -3.3254 0
M  V30 17067 C 1623.75 -1.29709 -4.23899 0
M  V30 17068 H 1620.97 -0.338021 -0.57964 0
M  V30 17069 H 1623.51 -1.53088 -1.35589 0
M  V30 17070 H 1621.67 -0.920643 -3.76302 0
M  V30 17071 H 1622.08 -3.08134 -4.24445 0
M  V30 17072 H 1623.56 -1.69938 -5.2519 0
M  V30 17073 H 1624.03 -0.241185 -4.38537 0
M  V30 17074 H 1624.64 -1.82283 -3.84256 0
M  V30 17075 N 1622.95 1.25748 -0.950004 0
M  V30 17076 C 1624.18 1.97413 -0.61933 0
M  V30 17077 C 1624.6 1.70656 0.807591 0
M  V30 17078 O 1623.95 0.979899 1.53962 0
M  V30 17079 C 1624 3.51053 -0.862801 0
M  V30 17080 O 1623.73 3.76884 -2.23361 0
M  V30 17081 C 1625.23 4.39951 -0.543879 0
M  V30 17082 H 1622.45 0.629394 -0.232603 0
M  V30 17083 H 1624.99 1.60037 -1.27312 0
M  V30 17084 H 1623.15 3.86557 -0.255493 0
M  V30 17085 H 1623.56 4.71368 -2.30026 0
M  V30 17086 H 1625.03 5.46676 -0.764804 0
M  V30 17087 H 1625.51 4.36094 0.521421 0
M  V30 17088 H 1626.12 4.10005 -1.1303 0
M  V30 17089 N 1624.43 0.718038 1.40292 0
M  V30 17090 C 1625.68 0.255581 2.00074 0
M  V30 17091 C 1625.99 -1.15859 1.57594 0
M  V30 17092 O 1627.2 -1.71969 2.10092 0
M  V30 17093 C 1625.66 0.406019 3.57602 0
M  V30 17094 C 1625.26 1.82699 4.09054 0
M  V30 17095 C 1627.01 0.00447854 4.245 0
M  V30 17096 C 1624.91 1.92788 5.59094 0
M  V30 17097 H 1623.84 0.0918012 0.748391 0
M  V30 17098 H 1626.5 0.88948 1.60501 0
M  V30 17099 H 1624.88 -0.296504 3.94888 0
M  V30 17100 H 1626.05 2.56009 3.8314 0
M  V30 17101 H 1624.37 2.18021 3.54761 0
M  V30 17102 H 1626.96 0.05911 5.34667 0
M  V30 17103 H 1627.31 -1.03779 4.03157 0
M  V30 17104 H 1627.84 0.657535 3.92328 0
M  V30 17105 H 1624.58 2.95145 5.85295 0
M  V30 17106 H 1624.1 1.23893 5.86865 0
M  V30 17107 H 1625.78 1.70114 6.24236 0
M  V30 17108 N 1625.91 -1.50602 0.464402 0
M  V30 17109 C 1627.16 -2.01478 -0.0945398 0
M  V30 17110 C 1627.47 -1.35165 -1.41386 0
M  V30 17111 O 1628.68 -1.7716 -2.05735 0
M  V30 17112 C 1627.13 -3.59233 -0.219003 0
M  V30 17113 C 1626.74 -4.345 1.09148 0
M  V30 17114 C 1628.49 -4.18172 -0.730262 0
M  V30 17115 C 1626.39 -5.84023 0.931179 0
M  V30 17116 H 1625.32 -0.752985 -0.0391065 0
M  V30 17117 H 1627.97 -1.73473 0.598283 0
M  V30 17118 H 1626.36 -3.83798 -0.975455 0
M  V30 17119 H 1627.53 -4.21665 1.85837 0
M  V30 17120 H 1625.85 -3.8714 1.53334 0
M  V30 17121 H 1628.44 -5.27622 -0.867119 0
M  V30 17122 H 1628.79 -3.79113 -1.71986 0
M  V30 17123 H 1629.32 -3.97788 -0.0313808 0
M  V30 17124 H 1626.06 -6.27543 1.89395 0
M  V30 17125 H 1625.58 -5.99451 0.20456 0
M  V30 17126 H 1627.26 -6.44257 0.595118 0
M  V30 17127 N 1627.39 -0.19675 -1.56367 0
M  V30 17128 C 1628.64 0.441807 -1.96802 0
M  V30 17129 C 1628.95 1.62645 -1.08656 0
M  V30 17130 O 1630.16 2.33291 -1.3888 0
M  V30 17131 C 1628.61 0.837415 -3.50022 0
M  V30 17132 C 1628.22 -0.323031 -4.46834 0
M  V30 17133 C 1629.96 1.44296 -3.99223 0
M  V30 17134 C 1627.87 0.0936285 -5.91326 0
M  V30 17135 H 1626.8 0.168834 -0.734854 0
M  V30 17136 H 1629.45 -0.289029 -1.81209 0
M  V30 17137 H 1627.83 1.62497 -3.61124 0
M  V30 17138 H 1629.01 -1.10056 -4.47464 0
M  V30 17139 H 1627.32 -0.840182 -4.07836 0
M  V30 17140 H 1629.92 1.76718 -5.04653 0
M  V30 17141 H 1630.26 2.35003 -3.43627 0
M  V30 17142 H 1630.8 0.71935 -3.91242 0
M  V30 17143 H 1627.54 -0.779297 -6.50851 0
M  V30 17144 H 1627.06 0.835984 -5.93946 0
M  V30 17145 H 1628.73 0.528864 -6.44835 0
M  V30 17146 N 1628.87 1.57413 0.0768405 0
M  V30 17147 C 1630.28 1.53656 0.431508 0
M  V30 17148 C 1630.48 0.916194 1.79466 0
M  V30 17149 O 1629.54 0.516529 2.4716 0
M  V30 17150 C 1630.85 2.98325 0.377212 0
M  V30 17151 C 1632.4 3.09635 0.457761 0
M  V30 17152 C 1632.87 4.55945 0.433425 0
M  V30 17153 N 1634.37 4.60562 0.493647 0
M  V30 17154 C 1635.1 5.71242 0.496949 0
M  V30 17155 N 1634.6 6.91302 0.455368 0
M  V30 17156 N 1636.39 5.5947 0.543129 0
M  V30 17157 H 1628.54 1.96108 -0.815811 0
M  V30 17158 H 1630.8 0.897392 -0.3056 0
M  V30 17159 H 1630.51 3.47251 -0.557628 0
M  V30 17160 H 1630.38 3.57959 1.18932 0
M  V30 17161 H 1632.77 2.60685 1.38302 0
M  V30 17162 H 1632.85 2.52919 -0.382829 0
M  V30 17163 H 1632.5 5.0555 -0.487968 0
M  V30 17164 H 1632.43 5.10518 1.29148 0
M  V30 17165 H 1634.92 3.74162 0.530237 0
M  V30 17166 H 1635.23 7.7142 0.461674 0
M  V30 17167 H 1633.57 6.93717 0.422133 0
M  V30 17168 H 1636.77 4.64576 0.573272 0
M  V30 17169 H 1636.94 6.45727 0.542234 0
M  V30 17170 N 1630.34 -0.348112 1.53707 0
M  V30 17171 C 1631.62 -1.1056 1.61356 0
M  V30 17172 C 1632 -2.06633 0.431955 0
M  V30 17173 O 1631.35 -2.21115 -0.576211 0
M  V30 17174 C 1631.56 -1.82929 2.97217 0
M  V30 17175 C 1632.91 -2.36837 3.52411 0
M  V30 17176 O 1633.93 -1.93032 2.99361 0
M  V30 17177 O 1632.79 -3.16966 4.45191 0
M  V30 17178 H 1629.88 -0.50817 0.652451 0
M  V30 17179 H 1632.43 -0.349971 1.66052 0
M  V30 17180 H 1631.2 -1.12912 3.74655 0
M  V30 17181 H 1630.83 -2.65361 2.9609 0
M  V30 17182 N 1631.82 -1.45363 -0.608876 0
M  V30 17183 C 1633.23 -1.43794 -1.19081 0
M  V30 17184 C 1633.58 -0.164874 -1.95506 0
M  V30 17185 O 1632.71 0.733623 -2.03585 0
M  V30 17186 C 1633.3 -2.60506 -2.16615 0
M  V30 17187 C 1631.86 -2.62061 -2.70187 0
M  V30 17188 C 1631.01 -2.36018 -1.4557 0
M  V30 17189 H 1633.96 -1.53622 -0.39826 0
M  V30 17190 H 1633.98 -2.34531 -2.99625 0
M  V30 17191 H 1633.49 -3.53147 -1.60963 0
M  V30 17192 H 1631.6 -1.73423 -3.2978 0
M  V30 17193 H 1631.71 -3.61242 -3.14708 0
M  V30 17194 H 1630.07 -1.8555 -1.74481 0
M  V30 17195 H 1630.86 -3.30802 -0.917884 0
M  V30 17196 N 1633.3 0.851265 -1.32632 0
M  V30 17197 C 1634.58 1.58945 -1.13999 0
M  V30 17198 C 1634.96 2.08981 0.29836 0
M  V30 17199 O 1634.31 1.88226 1.2955 0
M  V30 17200 C 1634.52 2.73296 -2.17049 0
M  V30 17201 C 1635.86 3.42791 -2.50559 0
M  V30 17202 O 1636.89 2.83524 -2.15621 0
M  V30 17203 O 1635.75 4.49749 -3.10464 0
M  V30 17204 H 1632.84 0.700157 -0.440124 0
M  V30 17205 H 1635.39 0.895098 -1.44174 0
M  V30 17206 H 1634.16 2.33873 -3.13718 0
M  V30 17207 H 1633.78 3.50405 -1.87888 0
M  V30 17208 N 1634.78 1.15898 1.06796 0
M  V30 17209 C 1635.69 0.87507 2.17669 0
M  V30 17210 C 1636.7 -0.150763 1.73346 0
M  V30 17211 O 1637.88 0.0246621 2.01385 0
M  V30 17212 C 1634.95 0.374555 3.44671 0
M  V30 17213 C 1634.01 1.46498 4.0353 0
M  V30 17214 C 1633.24 0.988256 5.2447 0
M  V30 17215 O 1633.46 -0.163992 5.70164 0
M  V30 17216 O 1632.4 1.7744 5.75151 0
M  V30 17217 H 1636.22 1.80208 2.44456 0
M  V30 17218 H 1633.81 0.93854 1.1624 0
M  V30 17219 H 1635.69 0.102161 4.21276 0
M  V30 17220 H 1634.36 -0.524513 3.19422 0
M  V30 17221 H 1633.27 1.79105 3.28439 0
M  V30 17222 H 1634.6 2.33917 4.33063 0
M  V30 17223 N 1636.26 -1.25243 0.956659 0
M  V30 17224 C 1637.19 -2.28159 0.496574 0
M  V30 17225 C 1638.17 -1.63814 -0.458132 0
M  V30 17226 O 1639.35 -1.90897 -0.356648 0
M  V30 17227 C 1636.48 -3.46573 -0.22454 0
M  V30 17228 C 1635.44 -4.2311 0.645104 0
M  V30 17229 C 1634.76 -5.343 -0.206867 0
M  V30 17230 C 1636.06 -4.85562 1.92422 0
M  V30 17231 H 1637.76 -2.66895 1.35675 0
M  V30 17232 H 1635.3 -1.28301 0.653827 0
M  V30 17233 H 1637.26 -4.17695 -0.55755 0
M  V30 17234 H 1635.98 -3.06833 -1.11898 0
M  V30 17235 H 1634.64 -3.53774 0.961228 0
M  V30 17236 H 1634.29 -4.908 -1.10112 0
M  V30 17237 H 1633.99 -5.86423 0.371714 0
M  V30 17238 H 1635.51 -6.08253 -0.534798 0
M  V30 17239 H 1636.92 -5.48817 1.65749 0
M  V30 17240 H 1635.32 -5.47871 2.44862 0
M  V30 17241 H 1636.39 -4.07634 2.62607 0
M  V30 17242 N 1637.73 -0.725468 -1.3991 0
M  V30 17243 C 1639.01 -0.195971 -1.94616 0
M  V30 17244 C 1639.39 1.30035 -1.66295 0
M  V30 17245 O 1638.74 2.06133 -0.985977 0
M  V30 17246 C 1638.95 -0.519325 -3.45115 0
M  V30 17247 C 1640.3 -0.46341 -4.22064 0
M  V30 17248 O 1641.32 -0.455958 -3.5327 0
M  V30 17249 O 1640.18 -0.449579 -5.44648 0
M  V30 17250 H 1637.27 -0.0325409 -0.82636 0
M  V30 17251 H 1639.82 -0.803676 -1.49463 0
M  V30 17252 H 1638.59 -1.55386 -3.59125 0
M  V30 17253 H 1638.22 0.117838 -3.97425 0
M  V30 17254 N 1639.21 1.50354 -0.472382 0
M  V30 17255 C 1640.63 1.59097 -0.126613 0
M  V30 17256 C 1640.83 1.4804 1.36698 0
M  V30 17257 O 1639.88 1.33956 2.14038 0
M  V30 17258 C 1641.2 2.92958 -0.677957 0
M  V30 17259 C 1642.75 3.06356 -0.6415 0
M  V30 17260 C 1643.22 4.42793 -1.17041 0
M  V30 17261 N 1644.71 4.49208 -1.12988 0
M  V30 17262 C 1645.45 5.53171 -1.50961 0
M  V30 17263 N 1644.94 6.64381 -1.96391 0
M  V30 17264 N 1646.74 5.43722 -1.42556 0
M  V30 17265 H 1638.89 1.55785 -1.44378 0
M  V30 17266 H 1641.15 0.736295 -0.597138 0
M  V30 17267 H 1640.86 3.06529 -1.72433 0
M  V30 17268 H 1640.73 3.77002 -0.122247 0
M  V30 17269 H 1643.12 2.92431 0.395964 0
M  V30 17270 H 1643.2 2.24066 -1.23403 0
M  V30 17271 H 1642.84 4.57466 -2.20651 0
M  V30 17272 H 1642.77 5.23677 -0.554086 0
M  V30 17273 H 1645.26 3.69407 -0.796692 0
M  V30 17274 H 1645.58 7.39772 -2.23511 0
M  V30 17275 H 1643.92 6.65498 -2.00344 0
M  V30 17276 H 1647.11 4.55729 -1.06905 0
M  V30 17277 H 1647.28 6.24625 -1.72476 0
M  V30 17278 N 1640.69 0.205039 1.56261 0
M  V30 17279 C 1641.92 -0.439502 2.0269 0
M  V30 17280 C 1642.34 -1.53715 1.08413 0
M  V30 17281 O 1641.7 -1.81167 0.0693616 0
M  V30 17282 C 1641.75 -0.963672 3.47485 0
M  V30 17283 O 1640.85 -2.07602 3.56336 0
M  V30 17284 H 1640.19 -0.101543 0.65619 0
M  V30 17285 H 1642.72 0.318835 2.021 0
M  V30 17286 H 1642.73 -1.27773 3.87476 0
M  V30 17287 H 1641.41 -0.160203 4.15591 0
M  V30 17288 H 1639.98 -1.76985 3.28224 0
M  V30 17289 N 1642.17 -1.57451 -0.0684915 0
M  V30 17290 C 1643.42 -1.87411 -0.76702 0
M  V30 17291 C 1643.74 -0.797219 -1.77411 0
M  V30 17292 O 1643 0.206424 -1.94608 0
M  V30 17293 C 1643.3 -3.24044 -1.50765 0
M  V30 17294 C 1642.96 -4.46331 -0.640238 0
M  V30 17295 C 1641.63 -4.79525 -0.401205 0
M  V30 17296 C 1643.98 -5.21185 -0.0389475 0
M  V30 17297 C 1641.31 -5.84983 0.448547 0
M  V30 17298 C 1643.66 -6.27543 0.798278 0
M  V30 17299 C 1642.32 -6.59235 1.04715 0
M  V30 17300 H 1641.59 -0.685787 -0.280673 0
M  V30 17301 H 1644.24 -1.9148 -0.0277143 0
M  V30 17302 H 1642.54 -3.15782 -2.31925 0
M  V30 17303 H 1644.24 -3.44461 -2.05299 0
M  V30 17304 H 1640.83 -4.20354 -0.836675 0
M  V30 17305 H 1645.02 -4.95852 -0.210729 0
M  V30 17306 H 1640.27 -6.07934 0.650077 0
M  V30 17307 H 1644.45 -6.84705 1.27092 0
M  V30 17308 H 1642.07 -7.40779 1.70737 0
M  V30 17309 N 1643.65 0.339955 -1.5389 0
M  V30 17310 C 1644.88 1.09975 -1.75251 0
M  V30 17311 C 1645.29 1.8224 -0.493355 0
M  V30 17312 O 1644.65 1.74477 0.535173 0
M  V30 17313 C 1644.7 2.11048 -2.93498 0
M  V30 17314 O 1644.42 1.41721 -4.14544 0
M  V30 17315 C 1645.92 2.99375 -3.26939 0
M  V30 17316 H 1643.14 0.327811 -0.585475 0
M  V30 17317 H 1645.68 0.391068 -2.00726 0
M  V30 17318 H 1643.84 2.77476 -2.70344 0
M  V30 17319 H 1644.25 2.09271 -4.80943 0
M  V30 17320 H 1645.73 3.66223 -4.13019 0
M  V30 17321 H 1646.2 3.65588 -2.43397 0
M  V30 17322 H 1646.81 2.38531 -3.52112 0
M  V30 17323 N 1645.13 1.45684 0.601159 0
M  V30 17324 C 1646.35 1.53806 1.39135 0
M  V30 17325 C 1646.78 0.173625 1.87297 0
M  V30 17326 O 1646.13 -0.842931 1.60513 0
M  V30 17327 C 1646.18 2.53201 2.56752 0
M  V30 17328 O 1645.29 2.05427 3.57594 0
M  V30 17329 H 1644.63 0.51824 0.415118 0
M  V30 17330 H 1647.16 1.91095 0.731006 0
M  V30 17331 H 1647.17 2.72215 3.03912 0
M  V30 17332 H 1645.84 3.52294 2.21047 0
M  V30 17333 H 1644.42 1.96318 3.17039 0
M  V30 17334 N 1646.6 -0.84422 1.33082 0
M  V30 17335 C 1647.54 -1.96055 1.18722 0
M  V30 17336 C 1648.55 -1.62361 0.119538 0
M  V30 17337 O 1649.74 -1.74634 0.369469 0
M  V30 17338 C 1646.84 -3.29387 0.797318 0
M  V30 17339 C 1646.01 -3.91253 1.95551 0
M  V30 17340 C 1645.07 -5.02932 1.54745 0
M  V30 17341 O 1644.1 -5.22367 2.26101 0
M  V30 17342 N 1645.3 -5.78758 0.449394 0
M  V30 17343 H 1648.06 -2.08912 2.14886 0
M  V30 17344 H 1645.62 -1.01966 1.25756 0
M  V30 17345 H 1647.62 -4.01517 0.506536 0
M  V30 17346 H 1646.19 -3.12514 -0.0734775 0
M  V30 17347 H 1645.41 -3.11779 2.41221 0
M  V30 17348 H 1646.69 -4.2932 2.73061 0
M  V30 17349 H 1646.09 -5.65516 -0.14428 0
M  V30 17350 H 1644.65 -6.51434 0.218264 0
M  V30 17351 N 1648.08 -1.16463 -1.0618 0
M  V30 17352 C 1649.01 -0.815728 -2.13122 0
M  V30 17353 C 1649.99 0.213124 -1.61197 0
M  V30 17354 O 1651.18 0.0969425 -1.88251 0
M  V30 17355 C 1648.3 -0.215095 -3.38016 0
M  V30 17356 C 1647.35 -1.21774 -4.08746 0
M  V30 17357 S 1648.18 -2.7649 -4.586 0
M  V30 17358 C 1649.34 -2.17879 -5.86753 0
M  V30 17359 H 1649.57 -1.72148 -2.42389 0
M  V30 17360 H 1647.1 -0.98822 -1.18632 0
M  V30 17361 H 1649.06 0.124982 -4.1031 0
M  V30 17362 H 1647.72 0.66844 -3.06905 0
M  V30 17363 H 1646.92 -0.745936 -4.98449 0
M  V30 17364 H 1646.52 -1.50296 -3.42472 0
M  V30 17365 H 1648.81 -1.54817 -6.59574 0
M  V30 17366 H 1649.75 -3.05797 -6.38666 0
M  V30 17367 H 1650.16 -1.61717 -5.4084 0
M  V30 17368 N 1649.56 1.24734 -0.963288 0
M  V30 17369 C 1650.49 2.27892 -0.508667 0
M  V30 17370 C 1651.47 1.64055 0.449438 0
M  V30 17371 O 1652.66 1.91083 0.346519 0
M  V30 17372 C 1649.79 3.46688 0.206157 0
M  V30 17373 C 1648.74 4.22762 -0.667534 0
M  V30 17374 C 1648.07 5.34402 0.178529 0
M  V30 17375 C 1649.37 4.84535 -1.94995 0
M  V30 17376 H 1651.06 2.66171 -1.37088 0
M  V30 17377 H 1648.61 1.27952 -0.660622 0
M  V30 17378 H 1650.56 4.17985 0.535391 0
M  V30 17379 H 1649.28 3.07422 1.10269 0
M  V30 17380 H 1647.94 3.53259 -0.979976 0
M  V30 17381 H 1647.59 4.91377 1.07508 0
M  V30 17382 H 1647.29 5.86218 -0.402808 0
M  V30 17383 H 1648.81 6.08529 0.502533 0
M  V30 17384 H 1650.23 5.4793 -1.68658 0
M  V30 17385 H 1648.62 5.46564 -2.47765 0
M  V30 17386 H 1649.69 4.06236 -2.64765 0
M  V30 17387 N 1651.04 0.732878 1.39523 0
M  V30 17388 C 1652.26 0.288717 2.05381 0
M  V30 17389 C 1652.69 -1.06727 1.5489 0
M  V30 17390 O 1652.05 -1.67585 0.691726 0
M  V30 17391 C 1652.09 0.297738 3.59369 0
M  V30 17392 O 1651.2 -0.715335 4.06149 0
M  V30 17393 H 1650.54 0.131696 0.650809 0
M  V30 17394 H 1653.07 0.998206 1.78597 0
M  V30 17395 H 1653.08 0.141391 4.07755 0
M  V30 17396 H 1651.75 1.28719 3.9548 0
M  V30 17397 H 1650.33 -0.525298 3.69182 0
M  V30 17398 N 1652.52 -1.50101 0.480349 0
M  V30 17399 C 1653.74 -2.07278 -0.0710872 0
M  V30 17400 C 1654.17 -1.34082 -1.31923 0
M  V30 17401 O 1653.52 -0.391251 -1.77028 0
M  V30 17402 C 1653.57 -3.59099 -0.328706 0
M  V30 17403 O 1652.68 -3.8764 -1.40745 0
M  V30 17404 H 1652.02 -0.66378 0.0170748 0
M  V30 17405 H 1654.55 -1.93178 0.674049 0
M  V30 17406 H 1654.56 -4.04049 -0.566435 0
M  V30 17407 H 1653.23 -4.11789 0.583316 0
M  V30 17408 H 1651.81 -3.54519 -1.15631 0
M  V30 17409 N 1653.99 -0.213323 -1.5615 0
M  V30 17410 C 1654.93 0.732346 -2.17185 0
M  V30 17411 C 1655.94 1.16357 -1.13864 0
M  V30 17412 O 1657.13 1.09614 -1.40879 0
M  V30 17413 C 1654.23 2.0027 -2.73395 0
M  V30 17414 C 1653.4 1.72836 -4.01804 0
M  V30 17415 C 1652.46 2.84497 -4.4266 0
M  V30 17416 O 1651.49 2.5332 -5.09723 0
M  V30 17417 N 1652.69 4.13268 -4.07663 0
M  V30 17418 H 1655.45 0.210294 -2.98961 0
M  V30 17419 H 1653.01 -0.0320124 -1.61868 0
M  V30 17420 H 1655.01 2.74145 -2.97702 0
M  V30 17421 H 1653.58 2.43546 -1.9597 0
M  V30 17422 H 1652.8 0.826474 -3.85439 0
M  V30 17423 H 1654.08 1.51928 -4.85588 0
M  V30 17424 H 1653.48 4.41444 -3.53756 0
M  V30 17425 H 1652.04 4.83713 -4.36881 0
M  V30 17426 N 1655.47 1.57485 0.0601405 0
M  V30 17427 C 1656.88 1.76433 0.610583 0
M  V30 17428 C 1657.23 0.840353 1.77292 0
M  V30 17429 O 1656.36 0.0273238 2.16383 0
M  V30 17430 C 1656.95 3.19947 1.11441 0
M  V30 17431 C 1655.51 3.402 1.61062 0
M  V30 17432 C 1654.66 2.72089 0.535055 0
M  V30 17433 H 1657.61 1.57829 -0.166062 0
M  V30 17434 H 1657.63 3.24749 1.98288 0
M  V30 17435 H 1657.14 3.87172 0.268233 0
M  V30 17436 H 1655.25 2.78106 2.47967 0
M  V30 17437 H 1655.36 4.48696 1.67954 0
M  V30 17438 H 1653.72 2.34972 0.982855 0
M  V30 17439 H 1654.51 3.41977 -0.301135 0
M  V30 17440 N 1656.95 -0.331789 1.54068 0
M  V30 17441 C 1658.36 -0.906719 1.63204 0
M  V30 17442 C 1658.71 -1.89161 0.520837 0
M  V30 17443 O 1657.84 -2.1359 -0.347577 0
M  V30 17444 C 1658.43 -1.65132 2.95832 0
M  V30 17445 C 1656.99 -2.17509 3.07192 0
M  V30 17446 C 1656.14 -0.99788 2.58723 0
M  V30 17447 H 1659.09 -0.109595 1.58321 0
M  V30 17448 H 1659.11 -2.515 2.85531 0
M  V30 17449 H 1658.62 -0.934255 3.76687 0
M  V30 17450 H 1656.72 -2.92356 2.30995 0
M  V30 17451 H 1656.84 -2.43074 4.12858 0
M  V30 17452 H 1655.2 -1.37469 2.14417 0
M  V30 17453 H 1655.98 -0.295261 3.42028 0
M  V30 17454 N 1658.43 -1.46001 -0.593424 0
M  V30 17455 C 1659.84 -1.45049 -1.17549 0
M  V30 17456 C 1660.19 -0.185601 -1.9532 0
M  V30 17457 O 1659.32 0.711989 -2.04352 0
M  V30 17458 C 1659.91 -2.62789 -2.13839 0
M  V30 17459 C 1658.47 -2.64912 -2.67392 0
M  V30 17460 C 1657.62 -2.37549 -1.43059 0
M  V30 17461 H 1660.57 -1.54035 -0.381944 0
M  V30 17462 H 1660.59 -2.37696 -2.97121 0
M  V30 17463 H 1660.1 -3.54834 -1.57208 0
M  V30 17464 H 1658.2 -1.76911 -3.27922 0
M  V30 17465 H 1658.31 -3.6456 -3.10858 0
M  V30 17466 H 1656.68 -1.8739 -1.72503 0
M  V30 17467 H 1657.46 -3.31757 -0.882746 0
M  V30 17468 N 1659.91 0.83715 -1.33527 0
M  V30 17469 C 1660.86 1.93561 -1.20491 0
M  V30 17470 C 1661.84 1.60541 -0.107395 0
M  V30 17471 O 1663.03 1.73788 -0.335663 0
M  V30 17472 C 1660.16 3.2995 -0.948055 0
M  V30 17473 C 1659.25 3.69134 -2.08809 0
M  V30 17474 N 1659.64 3.79998 -3.33819 0
M  V30 17475 C 1657.94 3.98885 -1.99516 0
M  V30 17476 C 1658.64 4.14031 -4.08599 0
M  V30 17477 N 1657.61 4.26492 -3.37055 0
M  V30 17478 H 1661.42 2.00119 -2.15243 0
M  V30 17479 H 1658.93 1.02997 -1.2556 0
M  V30 17480 H 1660.93 4.0844 -0.835589 0
M  V30 17481 H 1659.59 3.24699 -0.00907808 0
M  V30 17482 H 1660.6 3.6386 -3.68546 0
M  V30 17483 H 1657.27 4.01836 -1.13289 0
M  V30 17484 H 1658.66 4.29759 -5.16485 0
M  V30 17485 N 1661.38 1.17024 1.05561 0
M  V30 17486 C 1662.63 0.954436 1.78143 0
M  V30 17487 C 1662.95 -0.518525 1.8798 0
M  V30 17488 O 1662.22 -1.37654 1.39385 0
M  V30 17489 H 1660.8 0.350141 0.659856 0
M  V30 17490 H 1663.47 1.4743 1.27477 0
M  V30 17491 H 1662.56 1.37955 2.79955 0
M  V30 17492 N 1662.86 -1.24221 0.969889 0
M  V30 17493 C 1664.14 -1.87715 0.549772 0
M  V30 17494 C 1664.52 -1.87333 -0.973114 0
M  V30 17495 O 1663.87 -1.3475 -1.84539 0
M  V30 17496 C 1664.08 -3.29724 1.14381 0
M  V30 17497 C 1665.43 -4.06393 1.23005 0
M  V30 17498 O 1666.45 -3.38904 1.09648 0
M  V30 17499 O 1665.31 -5.27149 1.4414 0
M  V30 17500 H 1662.4 -0.806356 0.183629 0
M  V30 17501 H 1664.95 -1.32177 1.0643 0
M  V30 17502 H 1663.72 -3.24513 2.18649 0
M  V30 17503 H 1663.34 -3.92839 0.613456 0
M  V30 17504 N 1664.34 -0.740267 -1.39132 0
M  V30 17505 C 1665.27 -0.118951 -2.33197 0
M  V30 17506 C 1666.25 0.718416 -1.54184 0
M  V30 17507 O 1667.44 0.662322 -1.82557 0
M  V30 17508 C 1664.57 0.78512 -3.38309 0
M  V30 17509 C 1663.52 0.0515093 -4.27969 0
M  V30 17510 C 1662.85 1.07295 -5.23824 0
M  V30 17511 C 1664.15 -1.10903 -5.1039 0
M  V30 17512 H 1665.84 -0.904687 -2.85405 0
M  V30 17513 H 1663.39 -0.436493 -1.37225 0
M  V30 17514 H 1665.34 1.22935 -4.03069 0
M  V30 17515 H 1664.06 1.60303 -2.84553 0
M  V30 17516 H 1662.72 -0.373156 -3.64696 0
M  V30 17517 H 1662.37 1.88456 -4.66362 0
M  V30 17518 H 1662.07 0.586827 -5.84662 0
M  V30 17519 H 1663.59 1.51677 -5.91461 0
M  V30 17520 H 1665.01 -0.742993 -5.68465 0
M  V30 17521 H 1663.41 -1.52513 -5.80396 0
M  V30 17522 H 1664.48 -1.92825 -4.44912 0
M  V30 17523 N 1665.82 1.49844 -0.488302 0
M  V30 17524 C 1667.07 2.02009 0.0605782 0
M  V30 17525 C 1667.39 1.37114 1.38653 0
M  V30 17526 O 1666.66 0.522182 1.88812 0
M  V30 17527 H 1665.24 0.746569 0.0253773 0
M  V30 17528 H 1667.9 1.84 -0.64265 0
M  V30 17529 H 1667 3.11461 0.199542 0
M  V30 17530 N 1667.3 0.221601 1.56034 0
M  V30 17531 C 1668.26 -0.674973 2.19036 0
M  V30 17532 C 1669.26 -1.1216 1.15225 0
M  V30 17533 O 1670.45 -1.0304 1.40458 0
M  V30 17534 C 1667.58 -1.92465 2.81372 0
M  V30 17535 H 1668.77 -0.125689 2.99637 0
M  V30 17536 H 1666.33 -0.0280114 1.56275 0
M  V30 17537 H 1667.06 -2.5158 2.04641 0
M  V30 17538 H 1666.85 -1.61286 3.57392 0
M  V30 17539 H 1668.34 -2.56342 3.29664 0
M  V30 17540 N 1668.77 -1.57515 -0.0517878 0
M  V30 17541 C 1670.19 -1.76755 -0.601218 0
M  V30 17542 C 1670.54 -0.849744 -1.76844 0
M  V30 17543 O 1669.66 -0.0387987 -2.16365 0
M  V30 17544 C 1670.26 -3.20534 -1.09743 0
M  V30 17545 C 1668.82 -3.41049 -1.59256 0
M  V30 17546 C 1667.96 -2.72369 -0.520618 0
M  V30 17547 H 1670.91 -1.57739 0.174429 0
M  V30 17548 H 1670.93 -3.25796 -1.96563 0
M  V30 17549 H 1670.45 -3.87309 -0.247696 0
M  V30 17550 H 1668.55 -2.79417 -2.46489 0
M  V30 17551 H 1668.66 -4.49581 -1.65572 0
M  V30 17552 H 1667.02 -2.3549 -0.97038 0
M  V30 17553 H 1667.81 -3.41812 0.319266 0
M  V30 17554 N 1670.25 0.323614 -1.54242 0
M  V30 17555 C 1671.19 1.41936 -1.79963 0
M  V30 17556 C 1672.2 1.47845 -0.681604 0
M  V30 17557 O 1673.39 1.50569 -0.95871 0
M  V30 17558 C 1670.49 2.80472 -1.90233 0
M  V30 17559 C 1669.66 2.97768 -3.20395 0
M  V30 17560 C 1668.72 4.16664 -3.21368 0
M  V30 17561 O 1667.75 4.09827 -3.95007 0
M  V30 17562 N 1668.95 5.26196 -2.45148 0
M  V30 17563 H 1671.71 1.20235 -2.74524 0
M  V30 17564 H 1669.27 0.513599 -1.53538 0
M  V30 17565 H 1671.27 3.58219 -1.88312 0
M  V30 17566 H 1669.84 2.95224 -1.02769 0
M  V30 17567 H 1669.06 2.07322 -3.35278 0
M  V30 17568 H 1670.34 3.06219 -4.06334 0
M  V30 17569 H 1669.74 5.34626 -1.84909 0
M  V30 17570 H 1668.3 6.02362 -2.49004 0
M  V30 17571 N 1671.73 1.46313 0.585673 0
M  V30 17572 C 1672.68 1.57018 1.71604 0
M  V30 17573 C 1673.67 0.438838 1.63617 0
M  V30 17574 O 1674.88 0.615597 1.69146 0
M  V30 17575 H 1671.25 0.493616 0.567316 0
M  V30 17576 H 1673.23 2.52065 1.59706 0
M  V30 17577 C 1671.97 1.57482 3.09992 0
M  V30 17578 H 1671.3 2.43872 3.16806 0
M  V30 17579 H 1672.74 1.69027 3.88852 0
M  V30 17580 C 1671.2 0.302944 3.35535 0
M  V30 17581 O 1671.73 -0.608066 3.97071 0
M  V30 17582 N 1669.93 0.191781 2.89966 0
M  V30 17583 H 1669.48 0.934025 2.4007 0
M  V30 17584 H 1669.44 -0.658341 3.0743 0
M  V30 17585 N 1673.21 -0.830057 1.33969 0
M  V30 17586 C 1674.62 -1.40227 1.23261 0
M  V30 17587 C 1674.97 -1.95664 -0.144862 0
M  V30 17588 O 1674.1 -1.89503 -1.04488 0
M  V30 17589 C 1674.69 -2.54913 2.2317 0
M  V30 17590 C 1673.25 -3.08062 2.16274 0
M  V30 17591 C 1672.4 -1.809 2.10168 0
M  V30 17592 H 1675.35 -0.635062 1.4544 0
M  V30 17593 H 1675.37 -3.32801 1.84455 0
M  V30 17594 H 1674.88 -2.14534 3.23414 0
M  V30 17595 H 1672.98 -3.52964 1.19362 0
M  V30 17596 H 1673.1 -3.67637 3.07213 0
M  V30 17597 H 1671.46 -2.01508 1.55778 0
M  V30 17598 H 1672.24 -1.42705 3.12234 0
M  V30 17599 N 1674.69 -1.17582 -1.04939 0
M  V30 17600 C 1675.64 -0.891102 -2.14854 0
M  V30 17601 C 1676.63 0.145242 -1.68776 0
M  V30 17602 O 1677.84 -0.00207978 -1.8 0
M  V30 17603 H 1674.21 -0.270641 -0.701611 0
M  V30 17604 H 1676.18 -1.82519 -2.36071 0
M  V30 17605 C 1674.93 -0.423679 -3.45109 0
M  V30 17606 H 1674.25 -1.2126 -3.80967 0
M  V30 17607 H 1675.69 -0.263369 -4.23181 0
M  V30 17608 C 1674.15 0.859085 -3.25763 0
M  V30 17609 O 1674.68 1.9253 -3.52555 0
M  V30 17610 N 1672.89 0.80824 -2.79134 0
M  V30 17611 H 1672.44 -0.0596431 -2.57531 0
M  V30 17612 H 1672.39 1.66697 -2.6657 0
M  V30 17613 N 1676.17 1.23705 -0.976463 0
M  V30 17614 C 1677.13 2.23257 -0.518533 0
M  V30 17615 C 1678.13 1.56006 0.3897 0
M  V30 17616 O 1679.32 1.73226 0.18394 0
M  V30 17617 C 1676.45 3.39997 0.247916 0
M  V30 17618 H 1677.64 2.65284 -1.39872 0
M  V30 17619 H 1675.2 1.3647 -0.761946 0
M  V30 17620 H 1675.93 3.03421 1.14482 0
M  V30 17621 H 1675.72 3.90013 -0.403975 0
M  V30 17622 H 1677.21 4.13868 0.557034 0
M  V30 17623 N 1677.64 0.747635 1.38738 0
M  V30 17624 C 1678.59 0.11597 2.30508 0
M  V30 17625 C 1679.56 -0.716088 1.49871 0
M  V30 17626 O 1680.75 -0.673446 1.7852 0
M  V30 17627 C 1677.89 -0.775765 3.36268 0
M  V30 17628 C 1677 0.070275 4.31943 0
M  V30 17629 C 1676.13 -0.823908 5.24772 0
M  V30 17630 C 1675.17 0.0261249 6.12094 0
M  V30 17631 N 1674.31 -0.824688 6.9724 0
M  V30 17632 H 1679.15 0.904158 2.83952 0
M  V30 17633 H 1676.69 0.457513 1.39804 0
M  V30 17634 H 1678.64 -1.30735 3.96187 0
M  V30 17635 H 1677.27 -1.5298 2.84248 0
M  V30 17636 H 1676.33 0.719421 3.73535 0
M  V30 17637 H 1677.64 0.726987 4.93474 0
M  V30 17638 H 1676.79 -1.42287 5.89779 0
M  V30 17639 H 1675.53 -1.51437 4.63593 0
M  V30 17640 H 1674.54 0.637803 5.46088 0
M  V30 17641 H 1675.76 0.713556 6.75341 0
M  V30 17642 H 1673.71 -1.50021 6.38616 0
M  V30 17643 H 1673.62 -0.22474 7.55666 0
M  V30 17644 H 1674.89 -1.40882 7.66663 0
M  V30 17645 N 1679.12 -1.49583 0.496242 0
M  V30 17646 C 1680.08 -2.27561 -0.273642 0
M  V30 17647 C 1681.08 -1.33375 -0.8982 0
M  V30 17648 O 1682.27 -1.56578 -0.76347 0
M  V30 17649 C 1679.41 -3.11178 -1.39216 0
M  V30 17650 H 1680.6 -2.97077 0.410543 0
M  V30 17651 H 1678.15 -1.54271 0.251058 0
M  V30 17652 H 1678.89 -2.46217 -2.11064 0
M  V30 17653 H 1678.67 -3.80422 -0.949829 0
M  V30 17654 H 1680.16 -3.70085 -1.93459 0
M  V30 17655 N 1680.6 -0.229873 -1.55915 0
M  V30 17656 C 1681.56 0.663347 -2.19391 0
M  V30 17657 C 1682.56 1.11548 -1.15818 0
M  V30 17658 O 1683.75 1.02294 -1.41002 0
M  V30 17659 C 1680.88 1.9097 -2.82389 0
M  V30 17660 H 1682.08 0.109797 -2.99699 0
M  V30 17661 H 1679.63 0.0197234 -1.56288 0
M  V30 17662 H 1680.37 2.50491 -2.05973 0
M  V30 17663 H 1680.15 1.59388 -3.58243 0
M  V30 17664 H 1681.64 2.5459 -3.31019 0
M  V30 17665 N 1682.08 1.5754 0.0434337 0
M  V30 17666 C 1683.33 1.88235 0.735652 0
M  V30 17667 C 1683.65 0.825698 1.76656 0
M  V30 17668 O 1682.92 -0.142424 1.95382 0
M  V30 17669 H 1681.5 0.694661 0.274692 0
M  V30 17670 H 1684.16 1.94896 0.0127911 0
M  V30 17671 H 1683.25 2.86659 1.23421 0
M  V30 17672 N 1683.56 -0.31543 1.54411 0
M  V30 17673 C 1684.78 -1.0761 1.77299 0
M  V30 17674 C 1685.21 -1.80655 0.523963 0
M  V30 17675 O 1684.56 -1.73536 -0.524874 0
M  V30 17676 C 1684.61 -2.04355 2.97105 0
M  V30 17677 O 1683.72 -3.12401 2.69219 0
M  V30 17678 H 1683.06 -0.30986 0.587267 0
M  V30 17679 H 1685.59 -0.357246 2.01457 0
M  V30 17680 H 1685.6 -2.47081 3.24677 0
M  V30 17681 H 1684.27 -1.50592 3.87679 0
M  V30 17682 H 1682.85 -2.74294 2.52621 0
M  V30 17683 N 1685.03 -1.46622 -0.577906 0
M  V30 17684 C 1686.45 -1.31683 -0.901762 0
M  V30 17685 C 1686.65 -0.291842 -1.99375 0
M  V30 17686 O 1685.71 0.303913 -2.50664 0
M  V30 17687 C 1687.02 -2.70443 -1.31457 0
M  V30 17688 C 1688.57 -2.7857 -1.42715 0
M  V30 17689 C 1689.04 -4.17923 -1.87361 0
M  V30 17690 N 1690.53 -4.20364 -1.94546 0
M  V30 17691 C 1691.27 -5.25085 -2.30376 0
M  V30 17692 N 1690.76 -6.4013 -2.64964 0
M  V30 17693 N 1692.56 -5.12453 -2.30972 0
M  V30 17694 H 1684.71 -2.11916 0.143367 0
M  V30 17695 H 1686.97 -0.947999 0.00146914 0
M  V30 17696 H 1686.68 -3.46781 -0.586174 0
M  V30 17697 H 1686.55 -3.00864 -2.2751 0
M  V30 17698 H 1688.94 -2.02518 -2.14641 0
M  V30 17699 H 1689.02 -2.51828 -0.449021 0
M  V30 17700 H 1688.66 -4.94473 -1.16012 0
M  V30 17701 H 1688.59 -4.42076 -2.8614 0
M  V30 17702 H 1691.08 -3.37359 -1.70286 0
M  V30 17703 H 1691.4 -7.15808 -2.91271 0
M  V30 17704 H 1689.74 -6.43483 -2.62591 0
M  V30 17705 H 1692.93 -4.21611 -2.03376 0
M  V30 17706 H 1693.11 -5.94178 -2.58566 0
M  V30 17707 N 1686.51 0.822941 -1.34408 0
M  V30 17708 C 1687.46 1.93383 -1.25982 0
M  V30 17709 C 1688.43 1.6555 -0.13506 0
M  V30 17710 O 1689.61 1.88164 -0.316033 0
M  V30 17711 C 1686.75 3.29646 -1.02117 0
M  V30 17712 C 1685.87 3.69772 -2.23366 0
M  V30 17713 C 1685 4.94982 -1.92784 0
M  V30 17714 C 1684.04 5.2769 -3.10177 0
M  V30 17715 N 1683.18 6.44078 -2.79479 0
M  V30 17716 H 1688.02 1.99922 -2.20987 0
M  V30 17717 H 1685.56 0.978105 -1.0987 0
M  V30 17718 H 1687.51 4.08173 -0.863175 0
M  V30 17719 H 1686.14 3.2262 -0.107803 0
M  V30 17720 H 1685.2 2.86637 -2.50086 0
M  V30 17721 H 1686.51 3.89914 -3.11076 0
M  V30 17722 H 1685.66 5.81297 -1.73721 0
M  V30 17723 H 1684.4 4.76843 -1.02335 0
M  V30 17724 H 1683.41 4.39873 -3.29837 0
M  V30 17725 H 1684.63 5.47769 -4.01405 0
M  V30 17726 H 1682.58 6.27394 -1.91605 0
M  V30 17727 H 1682.49 6.64392 -3.60721 0
M  V30 17728 H 1683.76 7.33462 -2.63919 0
M  V30 17729 N 1687.99 1.18137 1.04314 0
M  V30 17730 C 1689.24 0.969582 1.76867 0
M  V30 17731 C 1689.55 -0.501982 1.89049 0
M  V30 17732 O 1690.76 -0.832218 2.58431 0
M  V30 17733 C 1689.21 1.68571 3.17981 0
M  V30 17734 C 1688.82 3.19641 3.13901 0
M  V30 17735 C 1690.57 1.55664 3.94929 0
M  V30 17736 C 1688.47 3.83904 4.49858 0
M  V30 17737 H 1687.4 0.359141 0.662973 0
M  V30 17738 H 1690.05 1.41484 1.16852 0
M  V30 17739 H 1688.44 1.16821 3.78377 0
M  V30 17740 H 1689.61 3.78395 2.62971 0
M  V30 17741 H 1687.93 3.32661 2.50451 0
M  V30 17742 H 1690.52 2.01039 4.95467 0
M  V30 17743 H 1690.87 0.508522 4.13182 0
M  V30 17744 H 1691.4 2.0468 3.41103 0
M  V30 17745 H 1688.14 4.88751 4.36809 0
M  V30 17746 H 1687.66 3.29937 5.00901 0
M  V30 17747 H 1689.34 3.86623 5.18779 0
M  V30 17748 N 1689.47 -1.23186 0.98301 0
M  V30 17749 C 1690.42 -2.22529 0.496484 0
M  V30 17750 C 1691.4 -1.5505 -0.429923 0
M  V30 17751 O 1692.59 -1.75104 -0.258352 0
M  V30 17752 C 1689.72 -3.42733 -0.197237 0
M  V30 17753 C 1688.81 -4.17435 0.748894 0
M  V30 17754 N 1689.2 -4.69056 1.89261 0
M  V30 17755 C 1687.5 -4.42435 0.562753 0
M  V30 17756 C 1688.2 -5.25918 2.48566 0
M  V30 17757 N 1687.18 -5.14001 1.76929 0
M  V30 17758 H 1690.98 -2.60072 1.36893 0
M  V30 17759 H 1688.49 -1.38745 0.844014 0
M  V30 17760 H 1690.49 -4.1308 -0.56311 0
M  V30 17761 H 1689.15 -3.06705 -1.06593 0
M  V30 17762 H 1690.16 -4.6532 2.27372 0
M  V30 17763 H 1686.84 -4.16685 -0.260705 0
M  V30 17764 H 1688.23 -5.76462 3.45168 0
M  V30 17765 N 1690.95 -0.754982 -1.38339 0
M  V30 17766 C 1692.19 -0.311762 -2.00086 0
M  V30 17767 C 1692.52 1.10693 -1.59929 0
M  V30 17768 O 1691.78 1.77279 -0.8289 0
M  V30 17769 C 1692.08 -0.383719 -3.55334 0
M  V30 17770 C 1691.74 -1.75826 -4.15206 0
M  V30 17771 C 1690.4 -2.13443 -4.31272 0
M  V30 17772 C 1692.76 -2.65985 -4.4822 0
M  V30 17773 C 1690.08 -3.40689 -4.77649 0
M  V30 17774 C 1692.44 -3.92623 -4.96014 0
M  V30 17775 C 1691.1 -4.30307 -5.10286 0
M  V30 17776 H 1690.37 -0.114082 -0.732166 0
M  V30 17777 H 1693.02 -0.965735 -1.65366 0
M  V30 17778 H 1691.32 0.353817 -3.90199 0
M  V30 17779 H 1693.02 -0.022341 -4.00994 0
M  V30 17780 H 1689.61 -1.45585 -4.03117 0
M  V30 17781 H 1693.79 -2.38188 -4.35408 0
M  V30 17782 H 1689.05 -3.69802 -4.86884 0
M  V30 17783 H 1693.22 -4.62626 -5.20529 0
M  V30 17784 H 1690.85 -5.28968 -5.45982 0
M  V30 17785 N 1692.42 1.49318 -0.504168 0
M  V30 17786 C 1693.37 2.30832 0.286237 0
M  V30 17787 C 1694.37 1.39585 0.959818 0
M  V30 17788 O 1695.57 1.5662 0.887146 0
M  V30 17789 H 1691.95 0.743738 0.111167 0
M  V30 17790 H 1693.92 2.95412 -0.421206 0
M  V30 17791 C 1692.67 3.2101 1.33596 0
M  V30 17792 H 1691.99 3.91152 0.827057 0
M  V30 17793 H 1693.43 3.8098 1.86093 0
M  V30 17794 C 1691.89 2.40836 2.35583 0
M  V30 17795 O 1692.42 2.11476 3.41527 0
M  V30 17796 N 1690.63 2.02802 2.08134 0
M  V30 17797 H 1690.17 2.26879 1.21999 0
M  V30 17798 H 1690.13 1.49467 2.76599 0
M  V30 17799 N 1693.9 0.238138 1.5579 0
M  V30 17800 C 1695.15 -0.382773 1.99766 0
M  V30 17801 C 1695.5 -1.562 1.12335 0
M  V30 17802 O 1694.8 -1.90781 0.17694 0
M  V30 17803 C 1694.99 -0.850646 3.47129 0
M  V30 17804 C 1694.82 0.281705 4.48817 0
M  V30 17805 C 1693.59 0.753532 4.9965 0
M  V30 17806 C 1695.79 1.10571 5.02273 0
M  V30 17807 N 1693.77 1.85921 5.8507 0
M  V30 17808 C 1695.14 2.05993 5.84779 0
M  V30 17809 C 1697.2 1.14326 4.84597 0
M  V30 17810 C 1695.9 3.0487 6.51496 0
M  V30 17811 C 1697.92 2.1203 5.52085 0
M  V30 17812 C 1697.29 3.06189 6.34372 0
M  V30 17813 H 1693.39 -0.106269 0.774746 0
M  V30 17814 H 1695.97 0.353711 1.9146 0
M  V30 17815 H 1694.14 -1.55644 3.5585 0
M  V30 17816 H 1695.87 -1.44577 3.77994 0
M  V30 17817 H 1692.63 0.339205 4.72384 0
M  V30 17818 H 1693.05 2.41455 6.32478 0
M  V30 17819 H 1697.69 0.42918 4.20616 0
M  V30 17820 H 1695.41 3.77232 7.14648 0
M  V30 17821 H 1699 2.15631 5.40365 0
M  V30 17822 H 1697.88 3.80557 6.85672 0
M  V30 17823 N 1695.38 -1.57561 -0.0350783 0
M  V30 17824 C 1696.31 -2.09201 -1.03716 0
M  V30 17825 C 1697.29 -0.993231 -1.3809 0
M  V30 17826 O 1698.48 -1.26812 -1.47079 0
M  V30 17827 C 1695.61 -2.56643 -2.3399 0
M  V30 17828 C 1694.56 -3.70731 -2.13874 0
M  V30 17829 C 1693.89 -4.04358 -3.49855 0
M  V30 17830 C 1695.19 -4.99393 -1.52982 0
M  V30 17831 H 1696.88 -2.93176 -0.60731 0
M  V30 17832 H 1694.43 -1.41036 -0.290683 0
M  V30 17833 H 1696.38 -2.9139 -3.04417 0
M  V30 17834 H 1695.1 -1.69744 -2.79024 0
M  V30 17835 H 1693.76 -3.36325 -1.45881 0
M  V30 17836 H 1693.41 -3.14534 -3.92527 0
M  V30 17837 H 1693.11 -4.81201 -3.37223 0
M  V30 17838 H 1694.63 -4.41633 -4.21654 0
M  V30 17839 H 1696.05 -5.32135 -2.13319 0
M  V30 17840 H 1694.45 -5.80807 -1.50943 0
M  V30 17841 H 1695.52 -4.82367 -0.494993 0
M  V30 17842 N 1696.86 0.307236 -1.54576 0
M  V30 17843 C 1698.27 0.88064 -1.64626 0
M  V30 17844 C 1698.62 1.88308 -0.550865 0
M  V30 17845 O 1697.75 2.14116 0.313553 0
M  V30 17846 C 1698.34 1.60405 -2.98422 0
M  V30 17847 C 1696.9 2.12595 -3.10613 0
M  V30 17848 C 1696.05 0.956593 -2.60278 0
M  V30 17849 H 1699 0.0843939 -1.58475 0
M  V30 17850 H 1699.02 2.46925 -2.89496 0
M  V30 17851 H 1698.53 0.874209 -3.78126 0
M  V30 17852 H 1696.63 2.88644 -2.35617 0
M  V30 17853 H 1696.74 2.36475 -4.16673 0
M  V30 17854 H 1695.11 1.3404 -2.16576 0
M  V30 17855 H 1695.89 0.24081 -3.42454 0
M  V30 17856 N 1698.34 1.46926 0.570122 0
M  V30 17857 C 1699.75 1.469 1.15227 0
M  V30 17858 C 1700.1 0.216651 1.95 0
M  V30 17859 O 1699.22 -0.679388 2.05459 0
M  V30 17860 C 1699.82 2.66158 2.09632 0
M  V30 17861 C 1698.38 2.69133 2.63144 0
M  V30 17862 C 1697.52 2.39795 1.39262 0
M  V30 17863 H 1700.48 1.54623 0.35739 0
M  V30 17864 H 1700.5 2.42393 2.93302 0
M  V30 17865 H 1700.01 3.5729 1.51543 0
M  V30 17866 H 1698.11 1.82106 3.25066 0
M  V30 17867 H 1698.22 3.69459 3.05019 0
M  V30 17868 H 1696.59 1.9011 1.695 0
M  V30 17869 H 1697.37 3.33119 0.829855 0
M  V30 17870 N 1699.82 -0.815801 1.34842 0
M  V30 17871 C 1701.04 -1.60915 1.30848 0
M  V30 17872 C 1701.47 -1.87758 -0.113345 0
M  V30 17873 O 1700.82 -1.4582 -1.07732 0
M  V30 17874 C 1700.87 -2.92284 2.11192 0
M  V30 17875 O 1699.98 -3.84685 1.48632 0
M  V30 17876 H 1699.32 -0.48913 0.449052 0
M  V30 17877 H 1701.85 -1.01322 1.7775 0
M  V30 17878 H 1701.86 -3.41789 2.2281 0
M  V30 17879 H 1700.53 -2.72071 3.14563 0
M  V30 17880 H 1699.11 -3.43215 1.458 0
M  V30 17881 N 1701.29 -1.18689 -1.03686 0
M  V30 17882 C 1702.54 -0.982656 -1.76602 0
M  V30 17883 C 1702.86 0.488553 -1.88781 0
M  V30 17884 O 1702.13 1.35419 -1.41558 0
M  V30 17885 H 1700.71 -0.360595 -0.654202 0
M  V30 17886 H 1703.37 -1.49439 -1.25115 0
M  V30 17887 H 1702.47 -1.42392 -2.77725 0
M  V30 17888 N 1702.77 1.22662 -0.989529 0
M  V30 17889 C 1703.72 2.24466 -0.536994 0
M  V30 17890 C 1704.69 1.60467 0.428907 0
M  V30 17891 O 1705.87 1.87846 0.334418 0
M  V30 17892 C 1703.01 3.44793 0.145526 0
M  V30 17893 C 1702.13 4.23318 -0.861716 0
M  V30 17894 C 1701.26 5.30979 -0.153062 0
M  V30 17895 C 1700.3 6.01221 -1.1489 0
M  V30 17896 N 1699.44 7.00533 -0.468782 0
M  V30 17897 H 1704.28 2.62539 -1.40987 0
M  V30 17898 H 1701.81 1.29035 -0.706291 0
M  V30 17899 H 1703.77 4.1345 0.558128 0
M  V30 17900 H 1702.4 3.07494 0.982213 0
M  V30 17901 H 1701.45 3.5399 -1.39266 0
M  V30 17902 H 1702.77 4.71753 -1.62019 0
M  V30 17903 H 1701.92 6.05874 0.316443 0
M  V30 17904 H 1700.66 4.8351 0.63794 0
M  V30 17905 H 1699.66 5.25111 -1.62907 0
M  V30 17906 H 1700.89 6.50779 -1.94072 0
M  V30 17907 H 1698.84 6.55301 0.302844 0
M  V30 17908 H 1698.75 7.46958 -1.16576 0
M  V30 17909 H 1700.02 7.79497 -0.0219686 0
M  V30 17910 N 1704.25 0.762308 1.37937 0
M  V30 17911 C 1705.66 0.388966 1.82603 0
M  V30 17912 C 1706.01 -1.08362 1.63561 0
M  V30 17913 O 1705.14 -1.83842 1.14154 0
M  V30 17914 C 1705.73 0.699218 3.31506 0
M  V30 17915 C 1704.29 0.379048 3.74487 0
M  V30 17916 C 1703.44 0.947924 2.60595 0
M  V30 17917 H 1706.39 0.957743 1.26542 0
M  V30 17918 H 1706.41 -0.019502 3.80495 0
M  V30 17919 H 1705.92 1.77105 3.45334 0
M  V30 17920 H 1704.02 -0.685844 3.66233 0
M  V30 17921 H 1704.14 0.880697 4.70936 0
M  V30 17922 H 1702.5 0.372746 2.51958 0
M  V30 17923 H 1703.28 2.02496 2.77219 0
M  V30 17924 N 1705.73 -1.49049 0.51208 0
M  V30 17925 C 1706.66 -2.26122 -0.307291 0
M  V30 17926 C 1707.64 -1.31187 -0.960666 0
M  V30 17927 O 1708.82 -1.60497 -0.988588 0
M  V30 17928 C 1705.95 -3.06861 -1.43367 0
M  V30 17929 C 1705 -4.17035 -0.89354 0
M  V30 17930 S 1705.83 -5.35029 0.224474 0
M  V30 17931 C 1706.98 -6.19326 -0.904806 0
M  V30 17932 H 1707.22 -2.9527 0.346844 0
M  V30 17933 H 1704.75 -1.51506 0.297556 0
M  V30 17934 H 1706.71 -3.5396 -2.079 0
M  V30 17935 H 1705.37 -2.37161 -2.05946 0
M  V30 17936 H 1704.56 -4.73085 -1.738 0
M  V30 17937 H 1704.16 -3.72583 -0.325227 0
M  V30 17938 H 1706.46 -6.52942 -1.80756 0
M  V30 17939 H 1707.4 -7.07065 -0.382676 0
M  V30 17940 H 1707.81 -5.5209 -1.17714 0
M  V30 17941 N 1707.21 -0.246397 -1.55662 0
M  V30 17942 C 1708.45 0.377739 -1.98539 0
M  V30 17943 C 1708.77 1.58504 -1.13585 0
M  V30 17944 O 1708.04 1.94677 -0.218528 0
M  V30 17945 H 1706.62 0.142554 -0.733272 0
M  V30 17946 H 1709.29 -0.345069 -1.91821 0
M  V30 17947 H 1708.38 0.687224 -3.0444 0
M  V30 17948 N 1708.68 1.57577 0.026722 0
M  V30 17949 C 1709.91 1.93359 0.727714 0
M  V30 17950 C 1710.32 0.844761 1.69294 0
M  V30 17951 O 1709.66 -0.187342 1.82742 0
M  V30 17952 C 1709.73 3.24958 1.53761 0
M  V30 17953 C 1709.39 4.5102 0.736909 0
M  V30 17954 C 1710.39 5.19887 0.036166 0
M  V30 17955 C 1708.07 4.97528 0.690759 0
M  V30 17956 C 1710.07 6.33545 -0.700003 0
M  V30 17957 C 1707.75 6.1108 -0.0491539 0
M  V30 17958 C 1708.75 6.78943 -0.743293 0
M  V30 17959 O 1708.44 7.90324 -1.47119 0
M  V30 17960 H 1708.17 0.642747 0.209408 0
M  V30 17961 H 1710.73 2.05396 -0.0124135 0
M  V30 17962 H 1708.96 3.09254 2.32161 0
M  V30 17963 H 1710.64 3.46049 2.12144 0
M  V30 17964 H 1711.41 4.84959 0.0628368 0
M  V30 17965 H 1707.29 4.44549 1.22055 0
M  V30 17966 H 1710.83 6.86448 -1.24235 0
M  V30 17967 H 1706.73 6.45453 -0.0777396 0
M  V30 17968 H 1707.5 8.06695 -1.38511 0
M  V30 17969 N 1710.16 -0.299034 1.54737 0
M  V30 17970 C 1711.58 -0.644805 1.45995 0
M  V30 17971 C 1711.78 -1.90634 0.652749 0
M  V30 17972 O 1710.83 -2.51985 0.161228 0
M  V30 17973 C 1712.15 -0.795974 2.89974 0
M  V30 17974 C 1713.69 -0.891731 3.00029 0
M  V30 17975 C 1714.17 -1.07488 4.45208 0
M  V30 17976 N 1715.66 -1.14104 4.48926 0
M  V30 17977 C 1716.4 -1.30108 5.58444 0
M  V30 17978 N 1715.89 -1.42998 6.77882 0
M  V30 17979 N 1717.68 -1.33012 5.46136 0
M  V30 17980 H 1709.84 0.529806 2.05686 0
M  V30 17981 H 1712.1 0.175406 0.931631 0
M  V30 17982 H 1711.8 0.0601375 3.51649 0
M  V30 17983 H 1711.68 -1.68437 3.37504 0
M  V30 17984 H 1714.07 -1.73833 2.38466 0
M  V30 17985 H 1714.15 0.0207194 2.55792 0
M  V30 17986 H 1713.79 -0.233045 5.07365 0
M  V30 17987 H 1713.72 -2.00159 4.87077 0
M  V30 17988 H 1716.21 -1.05488 3.62878 0
M  V30 17989 H 1716.52 -1.5497 7.57102 0
M  V30 17990 H 1714.87 -1.4005 6.80743 0
M  V30 17991 H 1718.06 -1.22555 4.51772 0
M  V30 17992 H 1718.23 -1.45141 6.31536 0
M  V30 17993 N 1711.64 -1.47227 -0.562322 0
M  V30 17994 C 1712.89 -1.53816 -1.32168 0
M  V30 17995 C 1713.22 -0.197649 -1.93192 0
M  V30 17996 O 1712.49 0.793178 -1.77592 0
M  V30 17997 C 1712.78 -2.65231 -2.43566 0
M  V30 17998 C 1712.63 -4.08882 -1.87445 0
M  V30 17999 C 1713.95 -2.72589 -3.45519 0
M  V30 18000 H 1711.07 -0.559947 -0.479195 0
M  V30 18001 H 1713.71 -1.7926 -0.629762 0
M  V30 18002 H 1711.86 -2.43667 -3.02587 0
M  V30 18003 H 1713.53 -4.41794 -1.32725 0
M  V30 18004 H 1711.77 -4.17401 -1.18149 0
M  V30 18005 H 1712.45 -4.82603 -2.67952 0
M  V30 18006 H 1714.92 -2.92028 -2.9641 0
M  V30 18007 H 1713.8 -3.5233 -4.20898 0
M  V30 18008 H 1714.06 -1.79444 -4.04045 0
M  V30 18009 N 1713.12 0.808639 -1.35273 0
M  V30 18010 C 1714.06 1.92036 -1.28026 0
M  V30 18011 C 1715.03 1.65397 -0.152611 0
M  V30 18012 O 1716.22 1.87819 -0.335972 0
M  V30 18013 C 1713.36 3.28544 -1.05607 0
M  V30 18014 C 1712.47 3.67382 -2.27276 0
M  V30 18015 C 1711.61 4.9291 -1.98024 0
M  V30 18016 C 1710.65 5.2437 -3.15757 0
M  V30 18017 N 1709.78 6.41077 -2.86294 0
M  V30 18018 H 1714.62 1.97567 -2.23095 0
M  V30 18019 H 1712.16 0.966397 -1.10902 0
M  V30 18020 H 1714.12 4.07234 -0.906418 0
M  V30 18021 H 1712.75 3.22487 -0.142015 0
M  V30 18022 H 1711.8 2.83969 -2.53112 0
M  V30 18023 H 1713.11 3.86593 -3.15194 0
M  V30 18024 H 1712.27 5.79421 -1.79877 0
M  V30 18025 H 1711.01 4.7573 -1.07387 0
M  V30 18026 H 1710.01 4.36349 -3.34483 0
M  V30 18027 H 1711.24 5.4348 -4.07193 0
M  V30 18028 H 1709.18 6.25327 -1.98249 0
M  V30 18029 H 1709.1 6.60528 -3.67748 0
M  V30 18030 H 1710.37 7.30622 -2.71684 0
M  V30 18031 N 1714.6 1.19237 1.03055 0
M  V30 18032 C 1715.83 1.01769 1.79796 0
M  V30 18033 C 1716.23 -0.436738 1.8409 0
M  V30 18034 O 1715.58 -1.31514 1.28257 0
M  V30 18035 C 1715.64 1.50866 3.26312 0
M  V30 18036 C 1715.3 2.98949 3.45657 0
M  V30 18037 C 1716.3 3.96725 3.36014 0
M  V30 18038 C 1713.99 3.37605 3.71925 0
M  V30 18039 C 1715.98 5.31151 3.5236 0
M  V30 18040 C 1713.67 4.7219 3.87918 0
M  V30 18041 C 1714.66 5.68772 3.78137 0
M  V30 18042 O 1714.35 7.00919 3.9366 0
M  V30 18043 H 1714.08 0.359119 0.572721 0
M  V30 18044 H 1716.64 1.58449 1.30702 0
M  V30 18045 H 1714.87 0.885599 3.76423 0
M  V30 18046 H 1716.56 1.29633 3.84643 0
M  V30 18047 H 1717.32 3.68206 3.15672 0
M  V30 18048 H 1713.2 2.62982 3.78631 0
M  V30 18049 H 1716.75 6.06521 3.44643 0
M  V30 18050 H 1712.64 5.00405 4.07756 0
M  V30 18051 H 1713.41 7.07968 4.10761 0
M  V30 18052 N 1716.07 -1.22136 0.99602 0
M  V30 18053 C 1717.32 -1.91544 0.684295 0
M  V30 18054 C 1717.68 -1.76078 -0.775523 0
M  V30 18055 O 1716.97 -1.12092 -1.5539 0
M  V30 18056 C 1717.16 -3.42259 1.02926 0
M  V30 18057 C 1716.99 -3.72388 2.52106 0
M  V30 18058 C 1715.76 -3.92233 3.18562 0
M  V30 18059 C 1717.96 -3.76615 3.50236 0
M  V30 18060 N 1715.94 -4.097 4.57186 0
M  V30 18061 C 1717.31 -3.99261 4.74332 0
M  V30 18062 C 1719.37 -3.59479 3.44499 0
M  V30 18063 C 1718.07 -4.06548 5.9339 0
M  V30 18064 C 1720.1 -3.68027 4.62936 0
M  V30 18065 C 1719.46 -3.91125 5.85833 0
M  V30 18066 H 1715.56 -0.721445 0.301729 0
M  V30 18067 H 1718.14 -1.47001 1.27667 0
M  V30 18068 H 1716.31 -3.85601 0.465431 0
M  V30 18069 H 1718.04 -3.99062 0.673197 0
M  V30 18070 H 1714.8 -3.89773 2.69023 0
M  V30 18071 H 1715.22 -4.22355 5.29099 0
M  V30 18072 H 1719.87 -3.40604 2.50496 0
M  V30 18073 H 1717.58 -4.24225 6.87793 0
M  V30 18074 H 1721.17 -3.56102 4.6009 0
M  V30 18075 H 1720.05 -3.97572 6.75948 0
M  V30 18076 N 1717.55 -0.769612 -1.37531 0
M  V30 18077 C 1718.8 -0.329661 -1.98988 0
M  V30 18078 C 1719.11 1.0993 -1.61786 0
M  V30 18079 O 1720.32 1.64053 -2.1633 0
M  V30 18080 C 1718.78 -0.538461 -3.55849 0
M  V30 18081 C 1718.38 -1.97755 -4.01991 0
M  V30 18082 C 1720.13 -0.162026 -4.24191 0
M  V30 18083 C 1718.04 -2.13406 -5.51554 0
M  V30 18084 H 1716.97 -0.119514 -0.744468 0
M  V30 18085 H 1719.62 -0.948436 -1.57089 0
M  V30 18086 H 1718 0.14974 -3.95717 0
M  V30 18087 H 1719.17 -2.70053 -3.73374 0
M  V30 18088 H 1717.49 -2.31038 -3.46425 0
M  V30 18089 H 1720.08 -0.257508 -5.3408 0
M  V30 18090 H 1720.43 0.887442 -4.06731 0
M  V30 18091 H 1720.96 -0.802692 -3.89617 0
M  V30 18092 H 1717.7 -3.16664 -5.73937 0
M  V30 18093 H 1717.22 -1.45589 -5.81862 0
M  V30 18094 H 1718.9 -1.93165 -6.17492 0
M  V30 18095 N 1719.03 1.48775 -0.519977 0
M  V30 18096 C 1719.96 2.27418 0.285222 0
M  V30 18097 C 1720.98 1.34753 0.91354 0
M  V30 18098 O 1722.16 1.59885 0.793672 0
M  V30 18099 C 1719.26 3.07799 1.41821 0
M  V30 18100 C 1718.44 4.28173 0.893682 0
M  V30 18101 C 1717.5 4.90445 1.90658 0
M  V30 18102 O 1716.52 5.49957 1.46751 0
M  V30 18103 N 1717.72 4.8179 3.23819 0
M  V30 18104 H 1720.49 2.97162 -0.38921 0
M  V30 18105 H 1718.05 1.5799 -0.353684 0
M  V30 18106 H 1720.04 3.46329 2.09377 0
M  V30 18107 H 1718.61 2.4054 1.99648 0
M  V30 18108 H 1717.83 3.94177 0.0424379 0
M  V30 18109 H 1719.12 5.06116 0.521952 0
M  V30 18110 H 1718.52 4.34573 3.62164 0
M  V30 18111 H 1717.08 5.2445 3.87035 0
M  V30 18112 N 1720.51 0.254649 1.55529 0
M  V30 18113 C 1721.76 -0.367205 1.98736 0
M  V30 18114 C 1722.08 -1.57899 1.14424 0
M  V30 18115 O 1721.35 -1.94559 0.228849 0
M  V30 18116 H 1719.93 -0.138663 0.734017 0
M  V30 18117 H 1722.59 0.355236 1.91635 0
M  V30 18118 H 1721.69 -0.671069 3.048 0
M  V30 18119 N 1721.99 -1.57589 -0.0183649 0
M  V30 18120 C 1723.26 -1.80938 -0.743021 0
M  V30 18121 C 1723.64 -0.855272 -1.92998 0
M  V30 18122 O 1722.99 0.100181 -2.2828 0
M  V30 18123 C 1723.2 -3.28945 -1.16602 0
M  V30 18124 C 1724.55 -3.94208 -1.5775 0
M  V30 18125 O 1725.57 -3.33159 -1.26031 0
M  V30 18126 O 1724.43 -5.01716 -2.16663 0
M  V30 18127 H 1721.53 -0.744435 -0.360203 0
M  V30 18128 H 1724.07 -1.69699 0.00567963 0
M  V30 18129 H 1722.84 -3.89996 -0.319154 0
M  V30 18130 H 1722.47 -3.45113 -1.9744 0
M  V30 18131 N 1723.46 0.290824 -1.54893 0
M  V30 18132 C 1724.69 1.04775 -1.78988 0
M  V30 18133 C 1725.11 1.79799 -0.552637 0
M  V30 18134 O 1724.47 1.74349 0.497199 0
M  V30 18135 C 1724.52 1.99603 -3.00318 0
M  V30 18136 O 1723.62 3.08079 -2.74155 0
M  V30 18137 H 1722.97 0.300478 -0.592123 0
M  V30 18138 H 1725.5 0.325151 -2.02 0
M  V30 18139 H 1725.51 2.41884 -3.28567 0
M  V30 18140 H 1724.18 1.44406 -3.90025 0
M  V30 18141 H 1722.76 2.7024 -2.56953 0
M  V30 18142 N 1724.94 1.47523 0.554506 0
M  V30 18143 C 1725.85 1.62851 1.68869 0
M  V30 18144 C 1726.87 0.511305 1.66318 0
M  V30 18145 O 1728.04 0.779195 1.85716 0
M  V30 18146 C 1725.11 1.64161 3.05372 0
M  V30 18147 C 1724.17 2.87327 3.1897 0
M  V30 18148 C 1723.4 2.88566 4.48961 0
M  V30 18149 O 1723.63 1.98937 5.34584 0
M  V30 18150 O 1722.56 3.80459 4.66406 0
M  V30 18151 H 1726.39 2.58826 1.5888 0
M  V30 18152 H 1723.97 1.3064 0.724822 0
M  V30 18153 H 1725.85 1.67686 3.866 0
M  V30 18154 H 1724.53 0.713534 3.15738 0
M  V30 18155 H 1723.44 2.89345 2.37129 0
M  V30 18156 H 1724.77 3.79438 3.13509 0
M  V30 18157 N 1726.42 -0.801453 1.357 0
M  V30 18158 C 1727.65 -1.59518 1.32547 0
M  V30 18159 C 1728.07 -1.87868 -0.0934243 0
M  V30 18160 O 1727.43 -1.46955 -1.06179 0
M  V30 18161 C 1727.48 -2.90028 2.14281 0
M  V30 18162 O 1726.58 -3.83086 1.52704 0
M  V30 18163 H 1725.92 -0.48434 0.454215 0
M  V30 18164 H 1728.45 -0.994315 1.78814 0
M  V30 18165 H 1728.46 -3.39406 2.26423 0
M  V30 18166 H 1727.14 -2.6872 3.17431 0
M  V30 18167 H 1725.71 -3.4165 1.49432 0
M  V30 18168 N 1727.9 -1.19782 -1.02421 0
M  V30 18169 C 1728.81 -0.955253 -2.14271 0
M  V30 18170 C 1729.82 0.0863233 -1.73786 0
M  V30 18171 O 1731 -0.0993878 -2.01155 0
M  V30 18172 C 1728.07 -0.502219 -3.43043 0
M  V30 18173 C 1727.13 -1.61374 -3.97815 0
M  V30 18174 C 1726.36 -1.18223 -5.20441 0
M  V30 18175 O 1726.58 -0.0477334 -5.7038 0
M  V30 18176 O 1725.52 -1.98664 -5.68169 0
M  V30 18177 H 1729.34 -1.89157 -2.37599 0
M  V30 18178 H 1726.93 -0.981035 -1.12677 0
M  V30 18179 H 1728.81 -0.258445 -4.20607 0
M  V30 18180 H 1727.48 0.4056 -3.21149 0
M  V30 18181 H 1726.39 -1.91172 -3.21565 0
M  V30 18182 H 1727.72 -2.49829 -4.24083 0
M  V30 18183 N 1729.38 1.21606 -1.00248 0
M  V30 18184 C 1730.34 2.22107 -0.565772 0
M  V30 18185 C 1731.34 1.56798 0.356521 0
M  V30 18186 O 1732.53 1.73577 0.147154 0
M  V30 18187 C 1729.66 3.40447 0.175742 0
M  V30 18188 H 1730.86 2.62258 -1.45468 0
M  V30 18189 H 1728.41 1.34823 -0.790721 0
M  V30 18190 H 1729.14 3.05781 1.0802 0
M  V30 18191 H 1728.93 3.89069 -0.486612 0
M  V30 18192 H 1730.42 4.14957 0.469122 0
M  V30 18193 N 1730.86 0.776895 1.37121 0
M  V30 18194 C 1731.81 0.140089 2.27569 0
M  V30 18195 C 1732.79 -0.668578 1.46352 0
M  V30 18196 O 1733.98 -0.530707 1.68856 0
M  V30 18197 C 1731.11 -0.734162 3.35358 0
M  V30 18198 C 1730.2 0.0826144 4.2402 0
M  V30 18199 N 1730.59 1.13084 4.92997 0
M  V30 18200 C 1728.89 -0.140551 4.45778 0
M  V30 18201 C 1729.59 1.62701 5.58483 0
M  V30 18202 N 1728.56 0.93832 5.3544 0
M  V30 18203 H 1732.36 0.942573 2.78375 0
M  V30 18204 H 1729.88 0.615144 1.50299 0
M  V30 18205 H 1731.88 -1.20618 3.9907 0
M  V30 18206 H 1730.54 -1.53533 2.86108 0
M  V30 18207 H 1731.55 1.51308 4.95304 0
M  V30 18208 H 1728.22 -0.913223 4.0739 0
M  V30 18209 H 1729.61 2.50145 6.236 0
M  V30 18210 N 1732.33 -1.48497 0.527859 0
M  V30 18211 C 1733.26 -2.32414 -0.224891 0
M  V30 18212 C 1734.24 -1.41959 -0.93711 0
M  V30 18213 O 1735.43 -1.70847 -0.923302 0
M  V30 18214 C 1732.56 -3.23106 -1.27356 0
M  V30 18215 C 1731.51 -4.2257 -0.679611 0
M  V30 18216 C 1730.84 -5.02381 -1.83077 0
M  V30 18217 C 1732.14 -5.21144 0.347269 0
M  V30 18218 H 1733.83 -2.95598 0.475632 0
M  V30 18219 H 1731.38 -1.42148 0.230182 0
M  V30 18220 H 1733.33 -3.80639 -1.8081 0
M  V30 18221 H 1732.06 -2.57919 -2.00363 0
M  V30 18222 H 1730.72 -3.66221 -0.166608 0
M  V30 18223 H 1730.36 -4.3362 -2.54918 0
M  V30 18224 H 1730.06 -5.697 -1.43929 0
M  V30 18225 H 1731.59 -5.62765 -2.36914 0
M  V30 18226 H 1733 -5.73213 -0.100107 0
M  V30 18227 H 1731.4 -5.96503 0.656021 0
M  V30 18228 H 1732.47 -4.6841 1.25379 0
M  V30 18229 N 1733.81 -0.262893 -1.55392 0
M  V30 18230 C 1734.74 0.623732 -2.25015 0
M  V30 18231 C 1735.72 1.16865 -1.23598 0
M  V30 18232 O 1736.91 1.20505 -1.5229 0
M  V30 18233 C 1734.04 1.81353 -2.9619 0
M  V30 18234 C 1732.99 1.40069 -4.04431 0
M  V30 18235 C 1732.32 2.67261 -4.63115 0
M  V30 18236 C 1733.62 0.559905 -5.1929 0
M  V30 18237 H 1735.31 0.0431306 -2.99369 0
M  V30 18238 H 1732.86 0.0193043 -1.43987 0
M  V30 18239 H 1734.81 2.43958 -3.43602 0
M  V30 18240 H 1733.53 2.41977 -2.1935 0
M  V30 18241 H 1732.19 0.797905 -3.57811 0
M  V30 18242 H 1731.84 3.26117 -3.82958 0
M  V30 18243 H 1731.54 2.40354 -5.36194 0
M  V30 18244 H 1733.07 3.30735 -5.1327 0
M  V30 18245 H 1734.48 1.09064 -5.6283 0
M  V30 18246 H 1732.88 0.386234 -5.98856 0
M  V30 18247 H 1733.95 -0.424199 -4.83041 0
M  V30 18248 N 1735.29 1.57597 0.0100073 0
M  V30 18249 C 1736.57 1.81329 0.733415 0
M  V30 18250 C 1736.95 0.865495 1.92542 0
M  V30 18251 O 1736.29 -0.088073 2.2833 0
M  V30 18252 C 1736.5 3.29559 1.14856 0
M  V30 18253 C 1737.85 3.95039 1.55658 0
M  V30 18254 O 1738.88 3.33822 1.24262 0
M  V30 18255 O 1737.74 5.02858 2.13999 0
M  V30 18256 H 1734.83 0.746334 0.35625 0
M  V30 18257 H 1737.38 1.69694 -0.0146791 0
M  V30 18258 H 1736.15 3.9016 0.298467 0
M  V30 18259 H 1735.77 3.46156 1.95607 0
M  V30 18260 N 1736.77 -0.282606 1.55045 0
M  V30 18261 C 1737.99 -1.03825 1.79542 0
M  V30 18262 C 1738.42 -1.79503 0.562165 0
M  V30 18263 O 1737.78 -1.7461 -0.487946 0
M  V30 18264 C 1737.82 -1.98007 3.01373 0
M  V30 18265 O 1736.93 -3.06621 2.75785 0
M  V30 18266 H 1736.27 -0.297333 0.593708 0
M  V30 18267 H 1738.8 -0.314434 2.02169 0
M  V30 18268 H 1738.81 -2.40138 3.29845 0
M  V30 18269 H 1737.48 -1.42335 3.90786 0
M  V30 18270 H 1736.06 -2.68874 2.58382 0
M  V30 18271 N 1738.25 -1.47815 -0.546675 0
M  V30 18272 C 1739.19 -1.61092 -1.65282 0
M  V30 18273 C 1740.16 -0.453531 -1.59788 0
M  V30 18274 O 1741.35 -0.674923 -1.78464 0
M  V30 18275 C 1738.49 -1.64103 -3.03585 0
M  V30 18276 C 1737.6 -2.90832 -3.19438 0
M  V30 18277 C 1736.74 -2.85112 -4.48201 0
M  V30 18278 C 1735.77 -4.06619 -4.57523 0
M  V30 18279 N 1734.91 -3.99073 -5.77655 0
M  V30 18280 H 1739.75 -2.55561 -1.53273 0
M  V30 18281 H 1737.29 -1.26752 -0.746477 0
M  V30 18282 H 1739.25 -1.63832 -3.83686 0
M  V30 18283 H 1737.88 -0.731382 -3.14405 0
M  V30 18284 H 1736.93 -3.00924 -2.327 0
M  V30 18285 H 1738.24 -3.80783 -3.22188 0
M  V30 18286 H 1737.39 -2.83149 -5.36574 0
M  V30 18287 H 1736.13 -1.92862 -4.47946 0
M  V30 18288 H 1735.14 -4.08876 -3.67561 0
M  V30 18289 H 1736.36 -5.00009 -4.5953 0
M  V30 18290 H 1734.31 -3.09633 -5.78328 0
M  V30 18291 H 1734.23 -4.82713 -5.81829 0
M  V30 18292 H 1735.49 -4.01143 -6.6836 0
M  V30 18293 N 1739.72 0.794246 -1.36123 0
M  V30 18294 C 1740.97 1.55421 -1.30277 0
M  V30 18295 C 1741.3 1.93834 0.119134 0
M  V30 18296 O 1740.58 1.6233 1.07141 0
M  V30 18297 C 1740.86 2.83454 -2.22094 0
M  V30 18298 C 1740.71 2.51439 -3.72959 0
M  V30 18299 C 1742.03 3.85246 -2.12776 0
M  V30 18300 H 1739.15 0.563871 -0.474572 0
M  V30 18301 H 1741.79 0.912877 -1.66633 0
M  V30 18302 H 1739.94 3.38182 -1.9122 0
M  V30 18303 H 1741.62 2.02799 -4.14331 0
M  V30 18304 H 1739.86 1.84451 -3.92632 0
M  V30 18305 H 1740.53 3.42863 -4.32608 0
M  V30 18306 H 1743.01 3.39952 -2.39942 0
M  V30 18307 H 1741.88 4.72588 -2.79198 0
M  V30 18308 H 1742.14 4.27847 -1.11353 0
M  V30 18309 N 1741.2 1.20323 1.01785 0
M  V30 18310 C 1742.61 1.01326 1.56812 0
M  V30 18311 C 1742.96 -0.430709 1.91414 0
M  V30 18312 O 1742.09 -1.31191 1.72098 0
M  V30 18313 C 1742.68 1.83304 2.8493 0
M  V30 18314 C 1741.24 1.68676 3.3649 0
M  V30 18315 C 1740.39 1.81315 2.0981 0
M  V30 18316 H 1743.34 1.34533 0.841815 0
M  V30 18317 H 1743.36 1.33567 3.56286 0
M  V30 18318 H 1742.87 2.88392 2.59714 0
M  V30 18319 H 1740.97 0.662195 3.66668 0
M  V30 18320 H 1741.09 2.49877 4.08777 0
M  V30 18321 H 1739.45 1.24488 2.22204 0
M  V30 18322 H 1740.23 2.87885 1.87022 0
M  V30 18323 N 1742.68 -1.21073 1.00892 0
M  V30 18324 C 1743.9 -1.94774 0.712588 0
M  V30 18325 C 1744.33 -1.73812 -0.719085 0
M  V30 18326 O 1743.69 -1.02747 -1.49374 0
M  V30 18327 C 1743.74 -3.45156 1.04402 0
M  V30 18328 O 1742.84 -4.12122 0.151433 0
M  V30 18329 H 1742.18 -0.608775 0.26512 0
M  V30 18330 H 1744.71 -1.53721 1.35022 0
M  V30 18331 H 1744.72 -3.95744 0.992511 0
M  V30 18332 H 1743.4 -3.59736 2.08716 0
M  V30 18333 H 1741.97 -3.71994 0.259805 0
M  V30 18334 N 1744.16 -0.784156 -1.36707 0
M  V30 18335 C 1745.4 -0.354658 -1.99675 0
M  V30 18336 C 1745.74 1.06948 -1.62098 0
M  V30 18337 O 1745.01 1.73798 -0.873192 0
M  V30 18338 C 1745.3 -0.512421 -3.56435 0
M  V30 18339 C 1745.15 -1.97987 -4.03883 0
M  V30 18340 C 1746.47 0.075762 -4.40035 0
M  V30 18341 H 1743.59 -0.130338 -0.725383 0
M  V30 18342 H 1746.23 -0.989515 -1.62199 0
M  V30 18343 H 1744.38 0.0280323 -3.8849 0
M  V30 18344 H 1746.05 -2.58098 -3.82339 0
M  V30 18345 H 1744.29 -2.48433 -3.55617 0
M  V30 18346 H 1744.96 -2.04125 -5.12871 0
M  V30 18347 H 1747.44 -0.385522 -4.1431 0
M  V30 18348 H 1746.32 -0.0646832 -5.48862 0
M  V30 18349 H 1746.58 1.16735 -4.2641 0
M  V30 18350 N 1745.64 1.48215 -0.535727 0
M  V30 18351 C 1746.55 2.33494 0.227577 0
M  V30 18352 C 1747.56 1.4685 0.933327 0
M  V30 18353 O 1748.74 1.7982 0.907008 0
M  V30 18354 C 1745.8 3.23092 1.25747 0
M  V30 18355 C 1744.86 4.25613 0.561454 0
M  V30 18356 C 1744.1 5.1093 1.54228 0
M  V30 18357 O 1744.32 4.98325 2.77539 0
M  V30 18358 O 1743.25 5.92158 1.07852 0
M  V30 18359 H 1747.08 3.0002 -0.471375 0
M  V30 18360 H 1744.67 1.46427 -0.296579 0
M  V30 18361 H 1746.55 3.78498 1.8525 0
M  V30 18362 H 1745.22 2.5922 1.93872 0
M  V30 18363 H 1744.13 3.74026 -0.0742194 0
M  V30 18364 H 1745.46 4.92138 -0.0779649 0
M  V30 18365 N 1747.11 0.27113 1.5525 0
M  V30 18366 C 1748.04 -0.61179 2.25343 0
M  V30 18367 C 1749.03 -1.16208 1.24216 0
M  V30 18368 O 1750.21 -1.19696 1.52927 0
M  V30 18369 C 1747.34 -1.7978 2.97147 0
M  V30 18370 C 1746.29 -1.37922 4.05169 0
M  V30 18371 C 1745.62 -2.64801 4.64526 0
M  V30 18372 C 1746.92 -0.532357 5.1958 0
M  V30 18373 H 1748.61 -0.0272538 2.99388 0
M  V30 18374 H 1746.16 -0.0116681 1.43995 0
M  V30 18375 H 1748.11 -2.42132 3.44891 0
M  V30 18376 H 1746.84 -2.40811 2.20631 0
M  V30 18377 H 1745.5 -0.778918 3.5823 0
M  V30 18378 H 1745.14 -3.24081 3.84682 0
M  V30 18379 H 1744.84 -2.37507 5.37461 0
M  V30 18380 H 1746.37 -3.28009 5.15017 0
M  V30 18381 H 1747.78 -1.06078 5.63401 0
M  V30 18382 H 1746.18 -0.35447 5.99052 0
M  V30 18383 H 1747.25 0.44981 4.82809 0
M  V30 18384 N 1748.59 -1.576 -0.00164943 0
M  V30 18385 C 1749.82 -1.94775 -0.697872 0
M  V30 18386 C 1750.24 -0.873094 -1.67399 0
M  V30 18387 O 1749.59 0.148119 -1.81898 0
M  V30 18388 C 1749.64 -3.31963 -1.43117 0
M  V30 18389 O 1749.36 -4.35304 -0.494203 0
M  V30 18390 C 1750.87 -3.83588 -2.22206 0
M  V30 18391 H 1748.09 -0.6422 -0.194474 0
M  V30 18392 H 1750.63 -2.04441 0.04898 0
M  V30 18393 H 1748.78 -3.2361 -2.12967 0
M  V30 18394 H 1749.2 -5.14656 -1.0114 0
M  V30 18395 H 1750.67 -4.82012 -2.69014 0
M  V30 18396 H 1751.15 -3.16208 -3.0481 0
M  V30 18397 H 1751.76 -3.95111 -1.57376 0
M  V30 18398 N 1750.07 0.274379 -1.55193 0
M  V30 18399 C 1751.02 1.35903 -1.88767 0
M  V30 18400 C 1752.01 1.512 -0.763874 0
M  V30 18401 O 1753.22 1.53 -0.948201 0
M  V30 18402 H 1749.59 0.454495 -0.599114 0
M  V30 18403 H 1751.56 1.04837 -2.79378 0
M  V30 18404 C 1750.31 2.71277 -2.17496 0
M  V30 18405 H 1749.64 2.60297 -3.03456 0
M  V30 18406 H 1751.08 3.46115 -2.44909 0
M  V30 18407 C 1749.54 3.22268 -0.982101 0
M  V30 18408 O 1750.07 4.01119 -0.216035 0
M  V30 18409 N 1748.27 2.79931 -0.780179 0
M  V30 18410 H 1747.82 2.15923 -1.40482 0
M  V30 18411 H 1747.78 3.14396 0.0163297 0
M  V30 18412 N 1751.55 1.48103 0.538828 0
M  V30 18413 C 1752.48 1.64856 1.65363 0
M  V30 18414 C 1753.46 0.497579 1.6266 0
M  V30 18415 O 1754.64 0.729088 1.79994 0
M  V30 18416 C 1751.77 1.67984 3.03971 0
M  V30 18417 C 1750.73 2.82494 3.21529 0
M  V30 18418 C 1750.05 2.70706 4.6111 0
M  V30 18419 C 1751.35 4.23892 3.05145 0
M  V30 18420 H 1753.05 2.58183 1.51598 0
M  V30 18421 H 1750.59 1.24249 0.727886 0
M  V30 18422 H 1752.55 1.78294 3.81824 0
M  V30 18423 H 1751.27 0.712299 3.18738 0
M  V30 18424 H 1749.93 2.71725 2.46091 0
M  V30 18425 H 1749.58 1.7194 4.727 0
M  V30 18426 H 1749.28 3.47539 4.73804 0
M  V30 18427 H 1750.8 2.82971 5.41073 0
M  V30 18428 H 1752.22 4.3554 3.72797 0
M  V30 18429 H 1750.61 5.01654 3.29338 0
M  V30 18430 H 1751.68 4.40973 2.01671 0
M  V30 18431 N 1753.03 -0.787016 1.36542 0
M  V30 18432 C 1754.26 -1.5736 1.33871 0
M  V30 18433 C 1754.66 -1.89024 -0.0814846 0
M  V30 18434 O 1754.01 -1.50771 -1.04947 0
M  V30 18435 C 1754.07 -2.91978 2.09735 0
M  V30 18436 C 1753.73 -2.8303 3.58808 0
M  V30 18437 C 1754.73 -2.55108 4.53008 0
M  V30 18438 C 1752.42 -3.01531 4.01727 0
M  V30 18439 C 1754.41 -2.45793 5.88103 0
M  V30 18440 C 1752.1 -2.91838 5.36911 0
M  V30 18441 C 1753.09 -2.64007 6.29912 0
M  V30 18442 O 1752.78 -2.54312 7.62614 0
M  V30 18443 H 1752.51 -0.494659 0.460748 0
M  V30 18444 H 1755.07 -0.984519 1.80268 0
M  V30 18445 H 1753.3 -3.52946 1.58005 0
M  V30 18446 H 1754.99 -3.53268 1.99891 0
M  V30 18447 H 1755.75 -2.40514 4.21163 0
M  V30 18448 H 1751.63 -3.22199 3.2971 0
M  V30 18449 H 1755.18 -2.23991 6.60662 0
M  V30 18450 H 1751.07 -3.05995 5.68364 0
M  V30 18451 H 1751.84 -2.69776 7.72763 0
M  V30 18452 N 1754.5 -1.20861 -1.01145 0
M  V30 18453 C 1755.92 -1.02156 -1.56272 0
M  V30 18454 C 1756.27 0.420552 -1.9164 0
M  V30 18455 O 1755.39 1.30277 -1.72792 0
M  V30 18456 C 1755.99 -1.84812 -2.83954 0
M  V30 18457 C 1754.55 -1.70458 -3.35591 0
M  V30 18458 C 1753.69 -1.82425 -2.08846 0
M  V30 18459 H 1756.64 -1.34978 -0.834669 0
M  V30 18460 H 1756.66 -1.35455 -3.55573 0
M  V30 18461 H 1756.18 -2.89765 -2.58181 0
M  V30 18462 H 1754.28 -0.681631 -3.66312 0
M  V30 18463 H 1754.39 -2.52041 -4.07446 0
M  V30 18464 H 1752.75 -1.25665 -2.21541 0
M  V30 18465 H 1753.54 -2.88872 -1.85493 0
M  V30 18466 N 1755.98 1.20536 -1.01532 0
M  V30 18467 C 1757.21 1.93571 -0.722055 0
M  V30 18468 C 1757.62 1.74923 0.721011 0
M  V30 18469 O 1756.96 1.05961 1.5006 0
M  V30 18470 C 1757.03 3.45989 -0.97632 0
M  V30 18471 C 1756.69 3.88397 -2.40825 0
M  V30 18472 C 1757.69 3.94262 -3.38901 0
M  V30 18473 C 1755.37 4.20422 -2.74865 0
M  V30 18474 C 1757.37 4.3156 -4.69078 0
M  V30 18475 C 1755.05 4.57395 -4.05256 0
M  V30 18476 C 1756.05 4.62937 -5.02174 0
M  V30 18477 O 1755.74 4.99063 -6.30232 0
M  V30 18478 H 1755.47 0.622101 -0.264511 0
M  V30 18479 H 1758.02 1.5401 -1.35905 0
M  V30 18480 H 1756.25 3.85669 -0.282161 0
M  V30 18481 H 1757.94 4.00251 -0.674832 0
M  V30 18482 H 1758.71 3.69686 -3.13938 0
M  V30 18483 H 1754.59 4.153 -2.00117 0
M  V30 18484 H 1758.13 4.358 -5.44724 0
M  V30 18485 H 1754.03 4.81427 -4.29998 0
M  V30 18486 H 1754.8 5.1706 -6.34501 0
M  V30 18487 N 1757.46 0.791395 1.36289 0
M  V30 18488 C 1758.7 0.370134 2.01021 0
M  V30 18489 C 1759.06 -1.03918 1.61447 0
M  V30 18490 O 1760.27 -1.56163 2.18784 0
M  V30 18491 C 1758.54 0.530868 3.53435 0
M  V30 18492 S 1760.1 0.197778 4.38354 0
M  V30 18493 H 1756.91 0.141315 0.696815 0
M  V30 18494 H 1759.52 1.03032 1.66147 0
M  V30 18495 H 1758.22 1.55683 3.79725 0
M  V30 18496 H 1757.75 -0.14518 3.93132 0
M  V30 18497 H 1759.77 -0.999956 4.8602 0
M  V30 18498 N 1758.94 -1.47929 0.54358 0
M  V30 18499 C 1760.22 -1.95535 -0.0505687 0
M  V30 18500 C 1760.6 -1.48603 -1.49934 0
M  V30 18501 O 1759.94 -0.718655 -2.16905 0
M  V30 18502 C 1760.15 -3.48907 0.0807654 0
M  V30 18503 C 1761.5 -4.2454 -0.0715671 0
M  V30 18504 O 1762.53 -3.56199 0.007637 0
M  V30 18505 O 1761.39 -5.45975 -0.239596 0
M  V30 18506 H 1758.48 -0.823883 -0.0717396 0
M  V30 18507 H 1761.03 -1.58391 0.60914 0
M  V30 18508 H 1759.8 -3.75828 1.08944 0
M  V30 18509 H 1759.42 -3.92781 -0.617178 0
M  V30 18510 N 1760.42 -0.27936 -1.55104 0
M  V30 18511 C 1761.65 0.338937 -2.03801 0
M  V30 18512 C 1762.06 1.49699 -1.15702 0
M  V30 18513 O 1761.4 1.82906 -0.170589 0
M  V30 18514 C 1761.46 0.878265 -3.48607 0
M  V30 18515 C 1761.12 -0.151698 -4.56748 0
M  V30 18516 C 1762.12 -0.972688 -5.1072 0
M  V30 18517 C 1759.81 -0.287161 -5.01478 0
M  V30 18518 C 1761.8 -1.91529 -6.07944 0
M  V30 18519 C 1759.49 -1.23323 -5.98527 0
M  V30 18520 C 1760.49 -2.04579 -6.51641 0
M  V30 18521 O 1760.17 -2.97586 -7.46792 0
M  V30 18522 H 1759.91 0.080791 -0.671155 0
M  V30 18523 H 1762.46 -0.410483 -2.01257 0
M  V30 18524 H 1760.69 1.67783 -3.48405 0
M  V30 18525 H 1762.38 1.41011 -3.80619 0
M  V30 18526 H 1763.14 -0.878791 -4.76972 0
M  V30 18527 H 1759.02 0.33531 -4.59779 0
M  V30 18528 H 1762.57 -2.54993 -6.49326 0
M  V30 18529 H 1758.46 -1.32793 -6.31693 0
M  V30 18530 H 1759.23 -2.92316 -7.64522 0
M  V30 18531 N 1761.9 1.57599 -0.0067085 0
M  V30 18532 C 1762.81 2.1228 0.998709 0
M  V30 18533 C 1763.82 1.06964 1.37239 0
M  V30 18534 O 1765 1.38902 1.45836 0
M  V30 18535 C 1762.06 2.62076 2.26973 0
M  V30 18536 C 1761.12 3.8202 1.95855 0
M  V30 18537 C 1760.36 4.29431 3.16898 0
M  V30 18538 O 1760.58 3.76136 4.2881 0
M  V30 18539 O 1759.51 5.21518 3.00504 0
M  V30 18540 H 1763.34 2.9842 0.563849 0
M  V30 18541 H 1760.92 1.47881 0.212535 0
M  V30 18542 H 1762.81 2.94274 3.01631 0
M  V30 18543 H 1761.48 1.79031 2.69684 0
M  V30 18544 H 1760.39 3.54785 1.18653 0
M  V30 18545 H 1761.72 4.66159 1.57977 0
M  V30 18546 N 1763.37 -0.266145 1.55336 0
M  V30 18547 C 1764.31 -1.35489 1.83624 0
M  V30 18548 C 1765.28 -1.47243 0.689795 0
M  V30 18549 O 1766.47 -1.63761 0.933525 0
M  V30 18550 C 1763.6 -2.73057 2.00393 0
M  V30 18551 C 1762.64 -2.78552 3.22972 0
M  V30 18552 S 1763.47 -2.37104 4.80148 0
M  V30 18553 C 1764.63 -3.76634 4.99898 0
M  V30 18554 H 1764.86 -1.11292 2.75684 0
M  V30 18555 H 1762.4 -0.466137 1.47196 0
M  V30 18556 H 1764.35 -3.52277 2.10739 0
M  V30 18557 H 1763.02 -2.94503 1.0921 0
M  V30 18558 H 1762.21 -3.79538 3.31613 0
M  V30 18559 H 1761.81 -2.0736 3.11252 0
M  V30 18560 H 1764.1 -4.71966 4.8606 0
M  V30 18561 H 1765.05 -3.7294 6.01931 0
M  V30 18562 H 1765.45 -3.68254 4.27842 0
M  V30 18563 N 1764.85 -1.48386 -0.530967 0
M  V30 18564 C 1765.8 -1.62835 -1.63564 0
M  V30 18565 C 1766.77 -0.470453 -1.59298 0
M  V30 18566 O 1767.95 -0.693813 -1.77738 0
M  V30 18567 C 1765.09 -1.67314 -3.01828 0
M  V30 18568 C 1764.21 -2.94204 -3.16335 0
M  V30 18569 C 1763.34 -2.8985 -4.45152 0
M  V30 18570 C 1762.38 -4.11449 -4.53185 0
M  V30 18571 N 1761.52 -4.05178 -5.7339 0
M  V30 18572 H 1766.36 -2.57172 -1.50554 0
M  V30 18573 H 1763.89 -1.27537 -0.732991 0
M  V30 18574 H 1765.85 -1.67892 -3.81927 0
M  V30 18575 H 1764.48 -0.764688 -3.13612 0
M  V30 18576 H 1763.53 -3.03375 -2.29495 0
M  V30 18577 H 1764.85 -3.84179 -3.18132 0
M  V30 18578 H 1764 -2.88824 -5.33541 0
M  V30 18579 H 1762.74 -1.97602 -4.45875 0
M  V30 18580 H 1761.74 -4.12751 -3.63203 0
M  V30 18581 H 1762.97 -5.04855 -4.54201 0
M  V30 18582 H 1760.92 -3.15749 -5.75012 0
M  V30 18583 H 1760.83 -4.88857 -5.76676 0
M  V30 18584 H 1762.1 -4.08209 -6.64067 0
M  V30 18585 N 1766.33 0.779763 -1.36958 0
M  V30 18586 C 1767.58 1.54031 -1.31918 0
M  V30 18587 C 1767.91 1.9395 0.0985685 0
M  V30 18588 O 1767.18 1.63458 1.05413 0
M  V30 18589 C 1767.47 2.81083 -2.25088 0
M  V30 18590 C 1767.32 2.47469 -3.75605 0
M  V30 18591 C 1768.64 3.82968 -2.1685 0
M  V30 18592 H 1765.76 0.558806 -0.480526 0
M  V30 18593 H 1768.4 0.895152 -1.67592 0
M  V30 18594 H 1766.55 3.36135 -1.94796 0
M  V30 18595 H 1768.22 1.98393 -4.16459 0
M  V30 18596 H 1766.46 1.80276 -3.94567 0
M  V30 18597 H 1767.14 3.38255 -4.3622 0
M  V30 18598 H 1769.61 3.37388 -2.43534 0
M  V30 18599 H 1768.49 4.69601 -2.84194 0
M  V30 18600 H 1768.75 4.26642 -1.15885 0
M  V30 18601 N 1767.81 1.21396 1.00503 0
M  V30 18602 C 1769.05 1.0426 1.7581 0
M  V30 18603 C 1769.41 -0.416605 1.87426 0
M  V30 18604 O 1770.61 -0.708477 2.59295 0
M  V30 18605 C 1768.88 1.72061 3.13257 0
M  V30 18606 S 1770.44 1.70181 4.04455 0
M  V30 18607 H 1767.26 0.373616 0.604923 0
M  V30 18608 H 1769.86 1.54141 1.20253 0
M  V30 18609 H 1768.57 2.77418 3.02436 0
M  V30 18610 H 1768.1 1.2236 3.73887 0
M  V30 18611 H 1770.11 0.742877 4.90608 0
M  V30 18612 N 1769.29 -1.19996 1.0217 0
M  V30 18613 C 1770.25 -2.21179 0.601036 0
M  V30 18614 C 1771.25 -1.57345 -0.331531 0
M  V30 18615 O 1772.44 -1.73789 -0.119521 0
M  V30 18616 C 1769.57 -3.40683 -0.121557 0
M  V30 18617 H 1770.76 -2.5991 1.49622 0
M  V30 18618 H 1768.32 -1.33548 0.812071 0
M  V30 18619 H 1769.05 -3.07461 -1.03142 0
M  V30 18620 H 1768.84 -3.88245 0.548448 0
M  V30 18621 H 1770.33 -4.1565 -0.403046 0
M  V30 18622 N 1770.76 -0.798611 -1.35867 0
M  V30 18623 C 1771.99 -0.386918 -2.02945 0
M  V30 18624 C 1772.4 1.00438 -1.6034 0
M  V30 18625 O 1771.74 1.65716 -0.792719 0
M  V30 18626 C 1771.81 -0.381754 -3.57467 0
M  V30 18627 C 1771.47 -1.72219 -4.23308 0
M  V30 18628 C 1772.47 -2.67919 -4.45551 0
M  V30 18629 C 1770.15 -2.00402 -4.60591 0
M  V30 18630 C 1772.15 -3.8999 -5.04169 0
M  V30 18631 C 1769.83 -3.22737 -5.18926 0
M  V30 18632 C 1770.83 -4.1735 -5.40655 0
M  V30 18633 O 1770.52 -5.37527 -5.97762 0
M  V30 18634 H 1770.25 -0.156344 -0.657672 0
M  V30 18635 H 1772.81 -1.08128 -1.74635 0
M  V30 18636 H 1771.04 0.369157 -3.84934 0
M  V30 18637 H 1772.72 0.00653107 -4.05899 0
M  V30 18638 H 1773.49 -2.47436 -4.17134 0
M  V30 18639 H 1769.37 -1.27573 -4.42997 0
M  V30 18640 H 1772.91 -4.6385 -5.21046 0
M  V30 18641 H 1768.81 -3.43094 -5.46769 0
M  V30 18642 H 1769.58 -5.38716 -6.16221 0
M  V30 18643 N 1772.24 1.47639 -0.551417 0
M  V30 18644 C 1773.49 2.02084 -0.0251553 0
M  V30 18645 C 1773.81 1.42872 1.32713 0
M  V30 18646 O 1773.08 0.601794 1.86428 0
M  V30 18647 H 1771.66 0.746973 -0.00631005 0
M  V30 18648 H 1774.32 1.81109 -0.720113 0
M  V30 18649 H 1773.42 3.12028 0.0672608 0
M  V30 18650 N 1773.72 0.287581 1.54954 0
M  V30 18651 C 1774.68 -0.581465 2.21702 0
M  V30 18652 C 1775.68 -1.07172 1.19878 0
M  V30 18653 O 1776.87 -0.969899 1.44702 0
M  V30 18654 C 1774.01 -1.80358 2.89282 0
M  V30 18655 H 1775.2 0.00151035 2.999 0
M  V30 18656 H 1772.75 0.0382953 1.56253 0
M  V30 18657 H 1773.49 -2.42674 2.15128 0
M  V30 18658 H 1773.27 -1.45983 3.63911 0
M  V30 18659 H 1774.76 -2.42129 3.4024 0
M  V30 18660 N 1775.2 -1.57593 0.0150662 0
M  V30 18661 C 1776.13 -2.06239 -0.999912 0
M  V30 18662 C 1777.14 -0.983112 -1.29764 0
M  V30 18663 O 1778.33 -1.25961 -1.26476 0
M  V30 18664 C 1775.43 -2.46011 -2.33092 0
M  V30 18665 C 1774.61 -3.76851 -2.2204 0
M  V30 18666 C 1773.66 -4.03326 -3.37956 0
M  V30 18667 O 1772.69 -4.73781 -3.15469 0
M  V30 18668 N 1773.89 -3.52399 -4.61298 0
M  V30 18669 H 1776.66 -2.93936 -0.584952 0
M  V30 18670 H 1774.22 -1.60984 -0.172001 0
M  V30 18671 H 1776.21 -2.60825 -3.09439 0
M  V30 18672 H 1774.78 -1.63753 -2.66277 0
M  V30 18673 H 1774 -3.71969 -1.30509 0
M  V30 18674 H 1775.29 -4.626 -2.11845 0
M  V30 18675 H 1774.69 -2.95374 -4.82463 0
M  V30 18676 H 1773.24 -3.72516 -5.3486 0
M  V30 18677 N 1776.68 0.257904 -1.55475 0
M  V30 18678 C 1777.92 0.985519 -1.76442 0
M  V30 18679 C 1778.25 1.86267 -0.577033 0
M  V30 18680 O 1777.52 1.91613 0.407582 0
M  V30 18681 H 1776.1 0.366872 -0.650702 0
M  V30 18682 H 1778.76 0.278498 -1.929 0
M  V30 18683 H 1777.85 1.61367 -2.67146 0
M  V30 18684 N 1778.15 1.48666 0.52309 0
M  V30 18685 C 1779.06 1.66396 1.65377 0
M  V30 18686 C 1780.08 0.546469 1.65196 0
M  V30 18687 O 1781.26 0.818413 1.84022 0
M  V30 18688 C 1778.32 1.70602 3.01821 0
M  V30 18689 C 1777.38 2.94028 3.12803 0
M  V30 18690 C 1776.62 2.98024 4.42739 0
M  V30 18691 O 1776.84 2.10232 5.30244 0
M  V30 18692 O 1775.77 3.90266 4.58231 0
M  V30 18693 H 1779.6 2.62138 1.53354 0
M  V30 18694 H 1777.18 1.32148 0.696948 0
M  V30 18695 H 1779.07 1.75849 3.82956 0
M  V30 18696 H 1777.74 0.780346 3.14153 0
M  V30 18697 H 1776.65 2.9431 2.30938 0
M  V30 18698 H 1777.98 3.86003 3.0539 0
M  V30 18699 N 1779.63 -0.772489 1.37369 0
M  V30 18700 C 1780.88 -1.528 1.32275 0
M  V30 18701 C 1781.2 -1.9478 -0.092541 0
M  V30 18702 O 1780.47 -1.6624 -1.0364 0
M  V30 18703 H 1779.05 -0.566727 0.486651 0
M  V30 18704 H 1781.71 -0.919435 1.7185 0
M  V30 18705 H 1780.81 -2.42774 1.96131 0
M  V30 18706 N 1781.11 -1.21927 -0.998575 0
M  V30 18707 C 1782.52 -1.03808 -1.5518 0
M  V30 18708 C 1782.87 0.400202 -1.92075 0
M  V30 18709 O 1782 1.28436 -1.74164 0
M  V30 18710 C 1782.59 -1.87814 -2.81978 0
M  V30 18711 C 1781.15 -1.74008 -3.33764 0
M  V30 18712 C 1780.3 -1.8463 -2.06899 0
M  V30 18713 H 1783.25 -1.35855 -0.820305 0
M  V30 18714 H 1783.27 -1.39219 -3.54116 0
M  V30 18715 H 1782.78 -2.92487 -2.55094 0
M  V30 18716 H 1780.88 -0.720445 -3.65569 0
M  V30 18717 H 1781 -2.56348 -4.0475 0
M  V30 18718 H 1779.36 -1.28007 -2.20196 0
M  V30 18719 H 1780.14 -2.90824 -1.82419 0
M  V30 18720 N 1782.59 1.19452 -1.02805 0
M  V30 18721 C 1783.82 1.92795 -0.742546 0
M  V30 18722 C 1784.23 1.75678 0.702418 0
M  V30 18723 O 1783.57 1.07547 1.48927 0
M  V30 18724 C 1783.63 3.44934 -1.01296 0
M  V30 18725 C 1783.3 3.85821 -2.44931 0
M  V30 18726 C 1784.29 3.90645 -3.43063 0
M  V30 18727 C 1781.98 4.17483 -2.79309 0
M  V30 18728 C 1783.97 4.26561 -4.73629 0
M  V30 18729 C 1781.66 4.53071 -4.10085 0
M  V30 18730 C 1782.66 4.57584 -5.07056 0
M  V30 18731 O 1782.34 4.9235 -6.35489 0
M  V30 18732 H 1782.08 0.619261 -0.271094 0
M  V30 18733 H 1784.63 1.5256 -1.37531 0
M  V30 18734 H 1782.86 3.85348 -0.323051 0
M  V30 18735 H 1784.55 3.99513 -0.717246 0
M  V30 18736 H 1785.32 3.66335 -3.17842 0
M  V30 18737 H 1781.19 4.13154 -2.0451 0
M  V30 18738 H 1784.74 4.29998 -5.49315 0
M  V30 18739 H 1780.64 4.76839 -4.3508 0
M  V30 18740 H 1781.4 5.10301 -6.39949 0
M  V30 18741 N 1784.07 0.805805 1.35442 0
M  V30 18742 C 1785.29 0.397179 2.03561 0
M  V30 18743 C 1785.72 -0.983665 1.6033 0
M  V30 18744 O 1785.07 -1.63683 0.779586 0
M  V30 18745 C 1785.12 0.487813 3.57285 0
M  V30 18746 O 1784.23 -0.499039 4.09369 0
M  V30 18747 H 1783.57 0.166009 0.642913 0
M  V30 18748 H 1786.1 1.09147 1.73055 0
M  V30 18749 H 1786.11 0.357334 4.06432 0
M  V30 18750 H 1784.78 1.49501 3.88101 0
M  V30 18751 H 1783.36 -0.328864 3.71447 0
M  V30 18752 N 1785.54 -1.47344 0.559239 0
M  V30 18753 C 1786.77 -2.07364 0.0388864 0
M  V30 18754 C 1787.19 -1.40886 -1.2463 0
M  V30 18755 O 1786.55 -0.48454 -1.74705 0
M  V30 18756 C 1786.6 -3.60336 -0.137894 0
M  V30 18757 O 1785.7 -3.94555 -1.2 0
M  V30 18758 H 1785.05 -0.661942 0.0522363 0
M  V30 18759 H 1787.58 -1.89333 0.7755 0
M  V30 18760 H 1787.59 -4.06483 -0.351462 0
M  V30 18761 H 1786.26 -4.08118 0.800776 0
M  V30 18762 H 1784.84 -3.6015 -0.966757 0
M  V30 18763 N 1787.02 -0.295795 -1.54799 0
M  V30 18764 C 1787.95 0.575863 -2.26288 0
M  V30 18765 C 1788.93 1.14217 -1.26049 0
M  V30 18766 O 1790.12 1.17248 -1.54812 0
M  V30 18767 C 1787.25 1.7503 -2.9997 0
M  V30 18768 C 1786.2 1.31459 -4.07311 0
M  V30 18769 C 1785.53 2.57377 -4.6868 0
M  V30 18770 C 1786.83 0.449629 -5.20361 0
M  V30 18771 H 1788.52 -0.0203797 -2.99393 0
M  V30 18772 H 1786.07 -0.0112418 -1.43996 0
M  V30 18773 H 1788.02 2.36615 -3.487 0
M  V30 18774 H 1786.75 2.3727 -2.24434 0
M  V30 18775 H 1785.4 0.721829 -3.59423 0
M  V30 18776 H 1785.05 3.1792 -3.89789 0
M  V30 18777 H 1784.75 2.28927 -5.41171 0
M  V30 18778 H 1786.28 3.19774 -5.2017 0
M  V30 18779 H 1787.69 0.971014 -5.65017 0
M  V30 18780 H 1786.09 0.259121 -5.9954 0
M  V30 18781 H 1787.16 -0.526564 -4.82032 0
M  V30 18782 N 1788.5 1.57583 -0.0234236 0
M  V30 18783 C 1789.75 1.91848 0.657422 0
M  V30 18784 C 1790.08 0.899633 1.72105 0
M  V30 18785 O 1789.36 -0.0784409 1.94342 0
M  V30 18786 C 1789.64 3.36617 1.2791 0
M  V30 18787 C 1789.49 4.49235 0.225421 0
M  V30 18788 C 1790.81 3.81239 2.19874 0
M  V30 18789 H 1787.93 0.697677 0.23752 0
M  V30 18790 H 1790.57 1.89834 -0.0795169 0
M  V30 18791 H 1788.72 3.38465 1.90719 0
M  V30 18792 H 1790.39 4.59521 -0.404792 0
M  V30 18793 H 1788.64 4.31462 -0.449749 0
M  V30 18794 H 1789.31 5.47545 0.699906 0
M  V30 18795 H 1791.78 3.81092 1.67058 0
M  V30 18796 H 1790.66 4.8324 2.60328 0
M  V30 18797 H 1790.92 3.16421 3.08755 0
M  V30 18798 N 1789.98 -0.249655 1.5561 0
M  V30 18799 C 1791.2 -0.999931 1.81703 0
M  V30 18800 C 1791.63 -1.7827 0.600113 0
M  V30 18801 O 1790.99 -1.75606 -0.450799 0
M  V30 18802 C 1791.04 -1.9157 3.05505 0
M  V30 18803 O 1790.14 -3.00702 2.82227 0
M  V30 18804 H 1789.48 -0.284673 0.599881 0
M  V30 18805 H 1792.01 -0.27148 2.02791 0
M  V30 18806 H 1792.02 -2.33088 3.34864 0
M  V30 18807 H 1790.7 -1.34014 3.93717 0
M  V30 18808 H 1789.27 -2.63332 2.64027 0
M  V30 18809 N 1791.46 -1.48941 -0.515198 0
M  V30 18810 C 1792.7 -1.59318 -1.28052 0
M  V30 18811 C 1793.06 -0.26749 -1.90128 0
M  V30 18812 O 1794.26 -0.246338 -2.67669 0
M  V30 18813 C 1792.53 -2.71033 -2.32972 0
M  V30 18814 S 1794.09 -3.01271 -3.19032 0
M  V30 18815 H 1790.91 -0.56211 -0.435378 0
M  V30 18816 H 1793.51 -1.86534 -0.585253 0
M  V30 18817 H 1792.22 -3.65895 -1.85873 0
M  V30 18818 H 1791.75 -2.45765 -3.07186 0
M  V30 18819 H 1793.76 -2.41702 -4.33353 0
M  V30 18820 N 1792.94 0.765193 -1.37777 0
M  V30 18821 C 1794.35 1.06666 -1.1872 0
M  V30 18822 C 1794.55 2.01481 -0.0278636 0
M  V30 18823 O 1793.61 2.44514 0.630006 0
M  V30 18824 C 1794.92 1.65787 -2.50868 0
M  V30 18825 C 1796.47 1.78014 -2.57449 0
M  V30 18826 C 1796.94 2.40548 -3.89744 0
M  V30 18827 N 1798.43 2.47992 -3.91221 0
M  V30 18828 C 1799.17 2.97245 -4.9034 0
M  V30 18829 N 1798.67 3.46621 -5.99855 0
M  V30 18830 N 1800.46 2.96179 -4.77739 0
M  V30 18831 H 1792.61 0.135775 -2.11966 0
M  V30 18832 H 1794.87 0.122863 -0.940005 0
M  V30 18833 H 1794.58 1.03588 -3.36099 0
M  V30 18834 H 1794.45 2.65 -2.6843 0
M  V30 18835 H 1796.84 2.39345 -1.72621 0
M  V30 18836 H 1796.92 0.775388 -2.43765 0
M  V30 18837 H 1796.56 1.79855 -4.74989 0
M  V30 18838 H 1796.49 3.41643 -4.00734 0
M  V30 18839 H 1798.99 2.13056 -3.12114 0
M  V30 18840 H 1799.3 3.82625 -6.7143 0
M  V30 18841 H 1797.64 3.44709 -6.0349 0
M  V30 18842 H 1800.83 2.56909 -3.913 0
M  V30 18843 H 1801.01 3.34253 -5.55139 0
M  V30 18844 N 1794.41 1.22455 0.992094 0
M  V30 18845 C 1795.64 1.07594 1.76723 0
M  V30 18846 C 1796.06 -0.37345 1.8507 0
M  V30 18847 O 1795.41 -1.25876 1.32142 0
M  V30 18848 C 1795.46 1.68178 3.19998 0
M  V30 18849 O 1795.19 3.07447 3.12102 0
M  V30 18850 C 1796.69 1.58602 4.13957 0
M  V30 18851 H 1793.91 0.377148 0.554978 0
M  V30 18852 H 1796.45 1.62065 1.24721 0
M  V30 18853 H 1794.61 1.17768 3.69066 0
M  V30 18854 H 1795.02 3.36641 4.0221 0
M  V30 18855 H 1796.49 2.05714 5.12236 0
M  V30 18856 H 1796.97 0.542712 4.35834 0
M  V30 18857 H 1797.58 2.08321 3.70786 0
M  V30 18858 N 1795.89 -1.18905 1.03437 0
M  V30 18859 C 1796.84 -2.20223 0.59042 0
M  V30 18860 C 1797.83 -1.56734 -0.363774 0
M  V30 18861 O 1799.02 -1.76043 -0.183852 0
M  V30 18862 C 1796.15 -3.43261 -0.051695 0
M  V30 18863 C 1795.23 -4.13884 0.925268 0
M  V30 18864 N 1795.62 -4.60607 2.08985 0
M  V30 18865 C 1793.92 -4.3965 0.749899 0
M  V30 18866 C 1794.62 -5.14902 2.70648 0
M  V30 18867 N 1793.6 -5.06034 1.9857 0
M  V30 18868 H 1797.4 -2.54032 1.478 0
M  V30 18869 H 1794.91 -1.3504 0.902101 0
M  V30 18870 H 1796.91 -4.15096 -0.387403 0
M  V30 18871 H 1795.57 -3.1095 -0.934891 0
M  V30 18872 H 1796.58 -4.55257 2.46903 0
M  V30 18873 H 1793.26 -4.17416 -0.08374 0
M  V30 18874 H 1794.65 -5.61303 3.69308 0
M  V30 18875 N 1797.37 -0.812977 -1.35013 0
M  V30 18876 C 1798.3 -0.185443 -2.28449 0
M  V30 18877 C 1799.31 0.618951 -1.50575 0
M  V30 18878 O 1800.5 0.450262 -1.72728 0
M  V30 18879 C 1797.6 0.759419 -3.30282 0
M  V30 18880 C 1796.78 1.09356e-05 -4.374 0
M  V30 18881 C 1795.84 0.864309 -5.19053 0
M  V30 18882 O 1794.86 0.312916 -5.68339 0
M  V30 18883 N 1796.06 2.18551 -5.37788 0
M  V30 18884 H 1798.83 -0.988144 -2.82941 0
M  V30 18885 H 1796.39 -0.669018 -1.47431 0
M  V30 18886 H 1798.38 1.342 -3.81802 0
M  V30 18887 H 1796.95 1.4629 -2.76257 0
M  V30 18888 H 1796.17 -0.763818 -3.86729 0
M  V30 18889 H 1797.46 -0.523125 -5.06104 0
M  V30 18890 H 1796.86 2.65735 -4.99401 0
M  V30 18891 H 1795.41 2.71718 -5.92463 0
M  V30 18892 N 1798.85 1.47045 -0.567045 0
M  V30 18893 C 1799.76 2.33924 0.177998 0
M  V30 18894 C 1800.77 1.48797 0.901967 0
M  V30 18895 O 1801.95 1.81704 0.868662 0
M  V30 18896 C 1799.01 3.25687 1.18865 0
M  V30 18897 C 1798.08 4.26708 0.471049 0
M  V30 18898 C 1797.31 5.14087 1.43355 0
M  V30 18899 O 1797.53 5.041 2.66907 0
M  V30 18900 O 1796.47 5.94313 0.952674 0
M  V30 18901 H 1800.29 2.98952 -0.534907 0
M  V30 18902 H 1797.88 1.45765 -0.327571 0
M  V30 18903 H 1799.76 3.82342 1.7718 0
M  V30 18904 H 1798.43 2.63274 1.8833 0
M  V30 18905 H 1797.34 3.73785 -0.153539 0
M  V30 18906 H 1798.67 4.91862 -0.182337 0
M  V30 18907 N 1800.33 0.304 1.5464 0
M  V30 18908 C 1801.57 -0.304845 2.00496 0
M  V30 18909 C 1801.9 -1.53308 1.19206 0
M  V30 18910 O 1801.18 -1.92627 0.269305 0
M  V30 18911 C 1801.46 -0.658462 3.54029 0
M  V30 18912 C 1801.32 0.579125 4.46056 0
M  V30 18913 C 1802.63 -1.4838 4.14332 0
M  V30 18914 H 1799.75 -0.109327 0.728846 0
M  V30 18915 H 1802.4 0.416694 1.85374 0
M  V30 18916 H 1800.55 -1.27319 3.67045 0
M  V30 18917 H 1802.22 1.21758 4.44941 0
M  V30 18918 H 1800.46 1.21179 4.16531 0
M  V30 18919 H 1801.13 0.287518 5.51251 0
M  V30 18920 H 1803.61 -0.964367 4.04771 0
M  V30 18921 H 1802.48 -1.70001 5.21911 0
M  V30 18922 H 1802.74 -2.47394 3.66399 0
M  V30 18923 N 1801.8 -1.57568 0.0317802 0
M  V30 18924 C 1803.21 -1.79693 -0.506679 0
M  V30 18925 C 1803.57 -0.94229 -1.72091 0
M  V30 18926 O 1802.69 -0.153435 -2.15855 0
M  V30 18927 C 1803.29 -3.259 -0.925978 0
M  V30 18928 C 1801.84 -3.49012 -1.40953 0
M  V30 18929 C 1800.99 -2.74746 -0.375509 0
M  V30 18930 H 1803.94 -1.56592 0.257798 0
M  V30 18931 H 1803.96 -3.35757 -1.79017 0
M  V30 18932 H 1803.48 -3.88077 -0.0420441 0
M  V30 18933 H 1801.58 -2.9209 -2.31331 0
M  V30 18934 H 1801.69 -4.57725 -1.41508 0
M  V30 18935 H 1800.05 -2.40303 -0.844187 0
M  V30 18936 H 1800.84 -3.39639 0.500005 0
M  V30 18937 N 1803.28 0.241399 -1.5574 0
M  V30 18938 C 1804.51 0.99028 -1.82231 0
M  V30 18939 C 1804.93 1.77949 -0.609559 0
M  V30 18940 O 1804.29 1.75843 0.44148 0
M  V30 18941 C 1804.34 1.89947 -3.06516 0
M  V30 18942 O 1803.44 2.99201 -2.83818 0
M  V30 18943 H 1802.78 0.281488 -0.601382 0
M  V30 18944 H 1805.31 0.260721 -2.02932 0
M  V30 18945 H 1805.32 2.31308 -3.36096 0
M  V30 18946 H 1804 1.31924 -3.94422 0
M  V30 18947 H 1802.58 2.61929 -2.6542 0
M  V30 18948 N 1804.76 1.49212 0.507292 0
M  V30 18949 C 1805.67 1.68141 1.63603 0
M  V30 18950 C 1806.69 0.563959 1.64607 0
M  V30 18951 O 1807.86 0.837885 1.83143 0
M  V30 18952 C 1804.93 1.73793 2.99995 0
M  V30 18953 C 1803.99 2.9733 3.09667 0
M  V30 18954 C 1803.22 3.02703 4.39553 0
M  V30 18955 O 1803.44 2.15844 5.27985 0
M  V30 18956 O 1802.38 3.95105 4.54066 0
M  V30 18957 H 1806.2 2.63749 1.50565 0
M  V30 18958 H 1803.79 1.32879 0.682893 0
M  V30 18959 H 1805.67 1.79901 3.81069 0
M  V30 18960 H 1804.35 0.813622 3.13308 0
M  V30 18961 H 1803.25 2.96743 2.27804 0
M  V30 18962 H 1804.59 3.8922 3.01278 0
M  V30 18963 N 1806.24 -0.757876 1.38181 0
M  V30 18964 C 1807.65 -1.33496 1.30521 0
M  V30 18965 C 1808 -1.96157 -0.0409405 0
M  V30 18966 O 1807.13 -1.94775 -0.942957 0
M  V30 18967 C 1807.72 -2.42725 2.36369 0
M  V30 18968 C 1806.28 -2.96165 2.323 0
M  V30 18969 C 1805.43 -1.69505 2.19461 0
M  V30 18970 H 1808.38 -0.557075 1.48601 0
M  V30 18971 H 1808.4 -3.22556 2.01836 0
M  V30 18972 H 1807.91 -1.97089 3.34331 0
M  V30 18973 H 1806.01 -3.4614 1.37904 0
M  V30 18974 H 1806.12 -3.50836 3.26269 0
M  V30 18975 H 1804.49 -1.92967 1.66241 0
M  V30 18976 H 1805.27 -1.25954 3.1936 0
M  V30 18977 N 1807.72 -1.22979 -0.985586 0
M  V30 18978 C 1808.96 -1.05667 -1.72275 0
M  V30 18979 C 1809.29 0.408045 -1.90683 0
M  V30 18980 O 1808.56 1.29293 -1.47174 0
M  V30 18981 H 1807.14 -0.388017 -0.63832 0
M  V30 18982 H 1809.8 -1.54612 -1.18665 0
M  V30 18983 H 1808.89 -1.54043 -2.71436 0
M  V30 18984 N 1809.19 1.18355 -1.04066 0
M  V30 18985 C 1810.61 1.40349 -0.759898 0
M  V30 18986 C 1810.81 1.90709 0.650574 0
M  V30 18987 O 1809.87 2.09142 1.41477 0
M  V30 18988 C 1811.18 2.40426 -1.80599 0
M  V30 18989 C 1812.73 2.54153 -1.8269 0
M  V30 18990 C 1813.2 3.57494 -2.8629 0
M  V30 18991 N 1814.69 3.65001 -2.85181 0
M  V30 18992 C 1815.43 4.44688 -3.61995 0
M  V30 18993 N 1814.92 5.27984 -4.48559 0
M  V30 18994 N 1816.72 4.39451 -3.50484 0
M  V30 18995 H 1808.87 0.839924 -1.95087 0
M  V30 18996 H 1811.13 0.431492 -0.844108 0
M  V30 18997 H 1810.84 2.10471 -2.81771 0
M  V30 18998 H 1810.71 3.39773 -1.63812 0
M  V30 18999 H 1813.1 2.83424 -0.821889 0
M  V30 19000 H 1813.18 1.54919 -2.03553 0
M  V30 19001 H 1812.82 3.28963 -3.8697 0
M  V30 19002 H 1812.75 4.56405 -2.62682 0
M  V30 19003 H 1815.24 3.05522 -2.22407 0
M  V30 19004 H 1815.56 5.85939 -5.0388 0
M  V30 19005 H 1813.9 5.27404 -4.52626 0
M  V30 19006 H 1817.09 3.73426 -2.8226 0
M  V30 19007 H 1817.27 5.01313 -4.10596 0
M  V30 19008 N 1810.67 0.820125 1.3458 0
M  V30 19009 C 1811.6 0.254709 2.32107 0
M  V30 19010 C 1812.58 -0.6273 1.58111 0
M  V30 19011 O 1813.77 -0.554759 1.86108 0
M  V30 19012 C 1810.9 -0.586541 3.42311 0
M  V30 19013 C 1809.85 0.198096 4.27541 0
M  V30 19014 C 1809.18 -0.765718 5.29189 0
M  V30 19015 C 1810.48 1.40472 5.03056 0
M  V30 19016 H 1812.17 1.06955 2.79644 0
M  V30 19017 H 1809.72 0.515756 1.34447 0
M  V30 19018 H 1811.67 -0.992259 4.09551 0
M  V30 19019 H 1810.4 -1.4344 2.93415 0
M  V30 19020 H 1809.05 0.585149 3.619 0
M  V30 19021 H 1808.7 -1.60946 4.76556 0
M  V30 19022 H 1808.4 -0.244954 5.87089 0
M  V30 19023 H 1809.93 -1.16935 5.99298 0
M  V30 19024 H 1811.34 1.07316 5.63166 0
M  V30 19025 H 1809.74 1.86092 5.70517 0
M  V30 19026 H 1810.81 2.18437 4.32913 0
M  V30 19027 N 1812.15 -1.46743 0.574835 0
M  V30 19028 C 1813.11 -2.28691 -0.152633 0
M  V30 19029 C 1814.11 -1.37949 -0.826238 0
M  V30 19030 O 1815.3 -1.60405 -0.679398 0
M  V30 19031 C 1812.44 -3.1812 -1.22525 0
M  V30 19032 H 1813.63 -2.94483 0.567439 0
M  V30 19033 H 1811.18 -1.52723 0.33248 0
M  V30 19034 H 1811.92 -2.57058 -1.97716 0
M  V30 19035 H 1811.7 -3.84922 -0.746841 0
M  V30 19036 H 1813.19 -3.7982 -1.7357 0
M  V30 19037 N 1813.63 -0.312197 -1.54477 0
M  V30 19038 C 1814.88 0.293772 -2.00358 0
M  V30 19039 C 1815.2 1.5303 -1.2005 0
M  V30 19040 O 1814.46 1.93861 -0.267678 0
M  V30 19041 C 1814.76 0.684057 -3.50793 0
M  V30 19042 C 1814.42 -0.452004 -4.48629 0
M  V30 19043 C 1813.09 -0.763853 -4.75099 0
M  V30 19044 C 1815.44 -1.21567 -5.06824 0
M  V30 19045 C 1812.77 -1.84229 -5.57025 0
M  V30 19046 C 1815.12 -2.28412 -5.89924 0
M  V30 19047 C 1813.78 -2.60191 -6.14701 0
M  V30 19048 H 1813.05 0.107499 -0.733161 0
M  V30 19049 H 1815.7 -0.433618 -1.86526 0
M  V30 19050 H 1814 1.4917 -3.62292 0
M  V30 19051 H 1815.7 1.16428 -3.83726 0
M  V30 19052 H 1812.29 -0.198857 -4.28138 0
M  V30 19053 H 1816.47 -0.988007 -4.86366 0
M  V30 19054 H 1811.73 -2.09311 -5.74455 0
M  V30 19055 H 1815.9 -2.88037 -6.34041 0
M  V30 19056 H 1813.53 -3.43887 -6.77972 0
M  V30 19057 N 1815.11 1.57549 -0.040136 0
M  V30 19058 C 1816.05 2.12048 0.955943 0
M  V30 19059 C 1817.05 1.04965 1.32962 0
M  V30 19060 O 1818.25 1.23387 1.31056 0
M  V30 19061 H 1814.63 0.677616 0.326099 0
M  V30 19062 H 1816.6 2.94658 0.471075 0
M  V30 19063 C 1815.35 2.67157 2.22537 0
M  V30 19064 H 1814.67 3.4921 1.9466 0
M  V30 19065 H 1816.11 3.08924 2.90417 0
M  V30 19066 C 1814.57 1.60413 2.96259 0
M  V30 19067 O 1815.1 1.01042 3.88785 0
M  V30 19068 N 1813.31 1.32196 2.58791 0
M  V30 19069 H 1812.85 1.80663 1.83626 0
M  V30 19070 H 1812.81 0.610023 3.08425 0
M  V30 19071 N 1816.58 -0.233136 1.55866 0
M  V30 19072 C 1817.83 -0.96064 1.78604 0
M  V30 19073 C 1818.16 -1.84444 0.607795 0
M  V30 19074 O 1817.44 -1.9048 -0.39342 0
M  V30 19075 C 1817.72 -1.80946 3.11337 0
M  V30 19076 C 1817.57 -0.952929 4.3959 0
M  V30 19077 C 1818.89 -2.78941 3.40411 0
M  V30 19078 H 1816.01 -0.347809 0.649767 0
M  V30 19079 H 1818.65 -0.230233 1.886 0
M  V30 19080 H 1816.8 -2.43219 3.02946 0
M  V30 19081 H 1818.48 -0.347831 4.59987 0
M  V30 19082 H 1816.72 -0.257846 4.33033 0
M  V30 19083 H 1817.39 -1.58096 5.28876 0
M  V30 19084 H 1819.87 -2.26804 3.48854 0
M  V30 19085 H 1818.74 -3.35443 4.34475 0
M  V30 19086 H 1819 -3.561 2.62003 0
M  V30 19087 N 1818.06 -1.49479 -0.499372 0
M  V30 19088 C 1819.31 -1.59284 -1.25525 0
M  V30 19089 C 1819.64 -0.27941 -1.92179 0
M  V30 19090 O 1818.92 0.717142 -1.80796 0
M  V30 19091 C 1819.2 -2.75323 -2.32098 0
M  V30 19092 C 1819.05 -4.16464 -1.69934 0
M  V30 19093 C 1820.37 -2.86998 -3.33646 0
M  V30 19094 H 1817.49 -0.579768 -0.455015 0
M  V30 19095 H 1820.13 -1.81769 -0.553165 0
M  V30 19096 H 1818.28 -2.56282 -2.91979 0
M  V30 19097 H 1819.96 -4.47026 -1.13867 0
M  V30 19098 H 1818.2 -4.22036 -1.0034 0
M  V30 19099 H 1818.87 -4.93534 -2.47242 0
M  V30 19100 H 1821.35 -3.04337 -2.83757 0
M  V30 19101 H 1820.22 -3.69865 -4.05575 0
M  V30 19102 H 1820.48 -1.96419 -3.9607 0
M  V30 19103 N 1819.54 0.750537 -1.38581 0
M  V30 19104 C 1820.77 1.54489 -1.38376 0
M  V30 19105 C 1821.19 1.88085 0.023634 0
M  V30 19106 O 1820.55 1.50794 1.00652 0
M  V30 19107 C 1820.6 2.81875 -2.24897 0
M  V30 19108 O 1819.7 3.77155 -1.66817 0
M  V30 19109 H 1819.04 0.467148 -0.471878 0
M  V30 19110 H 1821.57 0.927264 -1.82381 0
M  V30 19111 H 1821.58 3.30769 -2.38864 0
M  V30 19112 H 1820.26 2.56753 -3.27186 0
M  V30 19113 H 1818.83 3.35868 -1.62009 0
M  V30 19114 N 1821.02 1.235 0.979051 0
M  V30 19115 C 1822.24 1.09551 1.76106 0
M  V30 19116 C 1822.67 -0.348792 1.84838 0
M  V30 19117 O 1822.03 -1.25231 1.31099 0
M  V30 19118 C 1822.08 1.7272 3.16544 0
M  V30 19119 O 1821.18 0.990263 4.00334 0
M  V30 19120 H 1820.52 0.383909 0.541766 0
M  V30 19121 H 1823.05 1.63581 1.22892 0
M  V30 19122 H 1823.06 1.78014 3.67117 0
M  V30 19123 H 1821.74 2.77813 3.09504 0
M  V30 19124 H 1820.31 1.01436 3.58839 0
M  V30 19125 N 1822.5 -1.17802 1.04693 0
M  V30 19126 C 1823.73 -1.91867 0.774246 0
M  V30 19127 C 1824.14 -1.76534 -0.669425 0
M  V30 19128 O 1823.5 -1.09915 -1.45688 0
M  V30 19129 C 1823.55 -3.43086 1.13904 0
M  V30 19130 O 1823.27 -3.57943 2.52604 0
M  V30 19131 C 1824.77 -4.34238 0.891767 0
M  V30 19132 H 1821.99 -0.60892 0.281882 0
M  V30 19133 H 1824.53 -1.49414 1.39627 0
M  V30 19134 H 1822.69 -3.83304 0.561863 0
M  V30 19135 H 1823.1 -4.51599 2.66756 0
M  V30 19136 H 1824.58 -5.3887 1.1968 0
M  V30 19137 H 1825.05 -4.38858 -0.17323 0
M  V30 19138 H 1825.66 -3.99727 1.45254 0
M  V30 19139 N 1823.98 -0.827251 -1.34143 0
M  V30 19140 C 1825.22 -0.418003 -1.98445 0
M  V30 19141 C 1825.55 1.01737 -1.65418 0
M  V30 19142 O 1824.83 1.70932 -0.928042 0
M  V30 19143 C 1825.11 -0.625559 -3.54625 0
M  V30 19144 C 1824.97 -2.10736 -3.97379 0
M  V30 19145 C 1826.28 -0.0642701 -4.40053 0
M  V30 19146 H 1823.4 -0.15335 -0.72087 0
M  V30 19147 H 1826.05 -1.04062 -1.58969 0
M  V30 19148 H 1824.2 -0.095577 -3.88382 0
M  V30 19149 H 1825.87 -2.70131 -3.73934 0
M  V30 19150 H 1824.11 -2.59621 -3.47533 0
M  V30 19151 H 1824.78 -2.20338 -5.06118 0
M  V30 19152 H 1827.26 -0.517137 -4.12874 0
M  V30 19153 H 1826.13 -0.239267 -5.48378 0
M  V30 19154 H 1826.39 1.0311 -4.29908 0
M  V30 19155 N 1825.45 1.46436 -0.582609 0
M  V30 19156 C 1826.68 2.06768 -0.0737657 0
M  V30 19157 C 1827.1 1.43137 1.23115 0
M  V30 19158 O 1826.45 0.536633 1.74432 0
M  V30 19159 C 1826.5 3.61365 0.0988205 0
M  V30 19160 O 1826.23 4.22616 -1.15444 0
M  V30 19161 C 1827.73 4.38626 0.642025 0
M  V30 19162 H 1824.95 0.66854 -0.0574078 0
M  V30 19163 H 1827.49 1.88064 -0.80325 0
M  V30 19164 H 1825.65 3.79497 0.778526 0
M  V30 19165 H 1826.06 5.15486 -0.968204 0
M  V30 19166 H 1827.53 5.47389 0.711966 0
M  V30 19167 H 1828.01 4.06663 1.65897 0
M  V30 19168 H 1828.62 4.253 -0.00280852 0
M  V30 19169 N 1826.93 0.320385 1.54309 0
M  V30 19170 C 1827.86 -0.580992 2.21714 0
M  V30 19171 C 1828.88 -1.08236 1.21609 0
M  V30 19172 O 1830.07 -0.996489 1.48096 0
M  V30 19173 C 1827.17 -1.80961 2.86542 0
M  V30 19174 C 1826.34 -1.44746 4.12756 0
M  V30 19175 C 1825.4 -2.53327 4.61207 0
M  V30 19176 O 1824.42 -2.17605 5.25963 0
M  V30 19177 N 1825.63 -3.84204 4.35164 0
M  V30 19178 H 1828.39 -0.00384608 2.997 0
M  V30 19179 H 1825.95 0.143444 1.61263 0
M  V30 19180 H 1827.94 -2.52985 3.1588 0
M  V30 19181 H 1826.51 -2.29468 2.12281 0
M  V30 19182 H 1825.73 -0.55899 3.90217 0
M  V30 19183 H 1827.02 -1.18116 4.949 0
M  V30 19184 H 1826.42 -4.16026 3.83326 0
M  V30 19185 H 1824.98 -4.52468 4.69165 0
M  V30 19186 N 1828.41 -1.57525 0.0484906 0
M  V30 19187 C 1829.34 -2.14405 -0.924811 0
M  V30 19188 C 1830.32 -1.06503 -1.32631 0
M  V30 19189 O 1831.51 -1.3443 -1.4015 0
M  V30 19190 C 1828.64 -2.68686 -2.20057 0
M  V30 19191 C 1827.59 -3.81547 -1.93922 0
M  V30 19192 C 1826.92 -4.22334 -3.27929 0
M  V30 19193 C 1828.22 -5.06801 -1.26295 0
M  V30 19194 H 1829.91 -2.95983 -0.45105 0
M  V30 19195 H 1827.46 -1.42378 -0.215514 0
M  V30 19196 H 1829.41 -3.07117 -2.88543 0
M  V30 19197 H 1828.13 -1.84296 -2.69634 0
M  V30 19198 H 1826.79 -3.43585 -1.27848 0
M  V30 19199 H 1826.44 -3.34899 -3.75302 0
M  V30 19200 H 1826.14 -4.984 -3.11242 0
M  V30 19201 H 1827.66 -4.63363 -3.97652 0
M  V30 19202 H 1829.08 -5.42695 -1.84812 0
M  V30 19203 H 1827.47 -5.87991 -1.19943 0
M  V30 19204 H 1828.54 -4.84313 -0.238605 0
M  V30 19205 N 1829.89 0.224867 -1.55988 0
M  V30 19206 C 1831.11 0.970897 -1.83271 0
M  V30 19207 C 1831.54 1.77293 -0.628399 0
M  V30 19208 O 1830.9 1.76301 0.422804 0
M  V30 19209 C 1830.94 1.86686 -3.08514 0
M  V30 19210 O 1830.05 2.96174 -2.86975 0
M  V30 19211 H 1829.39 0.275093 -0.604334 0
M  V30 19212 H 1831.92 0.239183 -2.03197 0
M  V30 19213 H 1831.93 2.27731 -3.3853 0
M  V30 19214 H 1830.6 1.27733 -3.95799 0
M  V30 19215 H 1829.18 2.59099 -2.68183 0
M  V30 19216 N 1831.37 1.49742 0.491438 0
M  V30 19217 C 1832.61 1.60919 1.24405 0
M  V30 19218 C 1832.97 0.296423 1.90103 0
M  V30 19219 O 1832.26 -0.704127 1.78193 0
M  V30 19220 C 1832.45 2.71245 2.32725 0
M  V30 19221 C 1832.28 4.13123 1.77651 0
M  V30 19222 C 1831.05 4.79789 1.58526 0
M  V30 19223 C 1833.25 4.98042 1.28293 0
M  V30 19224 N 1831.23 6.05949 0.984807 0
M  V30 19225 C 1832.6 6.14759 0.804435 0
M  V30 19226 C 1834.66 4.83969 1.16956 0
M  V30 19227 C 1833.36 7.18952 0.223769 0
M  V30 19228 C 1835.39 5.88319 0.602855 0
M  V30 19229 C 1834.75 7.04271 0.134633 0
M  V30 19230 H 1830.85 0.643146 0.444845 0
M  V30 19231 H 1833.43 1.86785 0.549495 0
M  V30 19232 H 1831.6 2.47136 2.99631 0
M  V30 19233 H 1833.34 2.71891 2.99762 0
M  V30 19234 H 1830.09 4.36745 1.83169 0
M  V30 19235 H 1830.51 6.73334 0.703581 0
M  V30 19236 H 1835.16 3.94628 1.51753 0
M  V30 19237 H 1832.87 8.07985 -0.136447 0
M  V30 19238 H 1836.46 5.79491 0.517781 0
M  V30 19239 H 1835.34 7.83637 -0.297028 0
M  V30 19240 N 1832.84 -0.743177 1.38977 0
M  V30 19241 C 1833.81 -1.83876 1.36829 0
M  V30 19242 C 1834.81 -1.5857 0.266875 0
M  V30 19243 O 1836 -1.66121 0.524337 0
M  V30 19244 C 1833.13 -3.21528 1.1328 0
M  V30 19245 H 1834.32 -1.87186 2.3431 0
M  V30 19246 H 1831.88 -0.945979 1.24422 0
M  V30 19247 H 1832.61 -3.23883 0.164474 0
M  V30 19248 H 1832.4 -3.41292 1.93034 0
M  V30 19249 H 1833.89 -4.01597 1.14498 0
M  V30 19250 N 1834.32 -1.24018 -0.972487 0
M  V30 19251 C 1835.23 -1.04527 -2.10027 0
M  V30 19252 C 1836.25 0.0125372 -1.73995 0
M  V30 19253 O 1837.42 -0.184615 -2.00552 0
M  V30 19254 C 1834.49 -0.647264 -3.40604 0
M  V30 19255 C 1833.55 -1.78102 -3.90613 0
M  V30 19256 C 1832.78 -1.4019 -5.14959 0
M  V30 19257 O 1833.01 -0.289608 -5.69664 0
M  V30 19258 O 1831.94 -2.22583 -5.59232 0
M  V30 19259 H 1835.77 -1.99064 -2.29363 0
M  V30 19260 H 1833.35 -1.02794 -1.08414 0
M  V30 19261 H 1835.23 -0.436606 -4.19132 0
M  V30 19262 H 1833.91 0.269025 -3.2258 0
M  V30 19263 H 1832.82 -2.04638 -3.13168 0
M  V30 19264 H 1834.15 -2.67591 -4.13105 0
M  V30 19265 N 1835.8 1.17245 -1.05316 0
M  V30 19266 C 1837.21 1.69167 -0.789906 0
M  V30 19267 C 1837.56 1.83751 0.687762 0
M  V30 19268 O 1836.69 1.52596 1.53438 0
M  V30 19269 C 1837.28 3.07269 -1.42728 0
M  V30 19270 C 1835.84 3.56352 -1.21204 0
M  V30 19271 C 1834.99 2.3258 -1.51003 0
M  V30 19272 H 1837.94 1.01744 -1.21794 0
M  V30 19273 H 1837.96 3.71175 -0.837236 0
M  V30 19274 H 1837.47 2.96622 -2.50273 0
M  V30 19275 H 1835.57 3.72274 -0.155891 0
M  V30 19276 H 1835.69 4.39038 -1.91787 0
M  V30 19277 H 1834.05 2.37107 -0.930172 0
M  V30 19278 H 1834.83 2.2454 -2.59685 0
M  V30 19279 N 1837.28 0.834353 1.33702 0
M  V30 19280 C 1838.24 0.269618 2.27609 0
M  V30 19281 C 1839.24 -0.559065 1.50768 0
M  V30 19282 O 1840.43 -0.373511 1.70149 0
M  V30 19283 C 1837.56 -0.620682 3.35202 0
M  V30 19284 H 1838.76 1.09819 2.79069 0
M  V30 19285 H 1836.31 0.607087 1.44028 0
M  V30 19286 H 1837.04 -1.47187 2.88975 0
M  V30 19287 H 1836.83 -0.0278102 3.9209 0
M  V30 19288 H 1838.32 -1.00924 4.05221 0
M  V30 19289 N 1838.76 -1.46125 0.590367 0
M  V30 19290 C 1839.67 -2.34177 -0.140761 0
M  V30 19291 C 1840.68 -1.50213 -0.878181 0
M  V30 19292 O 1841.86 -1.83063 -0.839644 0
M  V30 19293 C 1838.92 -3.27537 -1.13669 0
M  V30 19294 C 1837.98 -4.27403 -0.403103 0
M  V30 19295 C 1837.22 -5.16302 -1.35159 0
M  V30 19296 O 1837.44 -5.08283 -2.58853 0
M  V30 19297 O 1836.37 -5.95753 -0.858003 0
M  V30 19298 H 1840.2 -2.98063 0.582401 0
M  V30 19299 H 1837.79 -1.45225 0.35072 0
M  V30 19300 H 1839.67 -3.85112 -1.71074 0
M  V30 19301 H 1838.34 -2.66237 -1.84118 0
M  V30 19302 H 1837.25 -3.73493 0.212986 0
M  V30 19303 H 1838.58 -4.9151 0.260565 0
M  V30 19304 N 1840.23 -0.328564 -1.54137 0
M  V30 19305 C 1841.46 0.274326 -2.05073 0
M  V30 19306 C 1841.88 1.45393 -1.20442 0
M  V30 19307 O 1841.23 1.80964 -0.23625 0
M  V30 19308 C 1841.29 0.703941 -3.5458 0
M  V30 19309 O 1841.01 -0.428738 -4.35997 0
M  V30 19310 C 1842.51 1.36912 -4.21628 0
M  V30 19311 H 1839.73 0.0556157 -0.668691 0
M  V30 19312 H 1842.27 -0.476204 -1.98878 0
M  V30 19313 H 1840.43 1.40444 -3.61046 0
M  V30 19314 H 1840.84 -0.0892654 -5.24424 0
M  V30 19315 H 1842.31 1.62062 -5.27674 0
M  V30 19316 H 1842.79 2.31799 -3.73049 0
M  V30 19317 H 1843.4 0.711064 -4.19314 0
M  V30 19318 N 1841.71 1.57497 -0.0568439 0
M  V30 19319 C 1842.66 2.1305 0.933398 0
M  V30 19320 C 1843.65 1.06369 1.31841 0
M  V30 19321 O 1844.86 1.2477 1.2974 0
M  V30 19322 H 1841.24 0.681037 0.318893 0
M  V30 19323 H 1843.21 2.95141 0.439796 0
M  V30 19324 C 1841.96 2.69502 2.1969 0
M  V30 19325 H 1841.28 3.51255 1.90945 0
M  V30 19326 H 1842.72 3.11986 2.87124 0
M  V30 19327 C 1841.18 1.63547 2.94541 0
M  V30 19328 O 1841.71 1.0516 3.87691 0
M  V30 19329 N 1839.91 1.34933 2.57374 0
M  V30 19330 H 1839.46 1.82601 1.81699 0
M  V30 19331 H 1839.42 0.642701 3.07761 0
M  V30 19332 N 1843.19 -0.216591 1.56105 0
M  V30 19333 C 1844.44 -0.938392 1.78993 0
M  V30 19334 C 1844.76 -1.84671 0.626215 0
M  V30 19335 O 1844.03 -1.92626 -0.356636 0
M  V30 19336 H 1842.61 -0.349491 0.660201 0
M  V30 19337 H 1845.27 -0.227256 1.93571 0
M  V30 19338 H 1844.37 -1.54227 2.71331 0
M  V30 19339 N 1844.67 -1.5 -0.48349 0
M  V30 19340 C 1845.58 -1.70722 -1.60907 0
M  V30 19341 C 1846.59 -0.590075 -1.63689 0
M  V30 19342 O 1847.77 -0.866915 -1.81787 0
M  V30 19343 C 1844.84 -1.78544 -2.97192 0
M  V30 19344 C 1843.9 -3.02218 -3.04898 0
M  V30 19345 C 1843.13 -3.09658 -4.34681 0
M  V30 19346 O 1843.35 -2.24216 -5.24484 0
M  V30 19347 O 1842.29 -4.02278 -4.47723 0
M  V30 19348 H 1846.11 -2.66111 -1.4635 0
M  V30 19349 H 1843.7 -1.33949 -0.661666 0
M  V30 19350 H 1845.58 -1.85941 -3.78159 0
M  V30 19351 H 1844.25 -0.863364 -3.11974 0
M  V30 19352 H 1843.16 -3.00329 -2.23054 0
M  V30 19353 H 1844.49 -3.93964 -2.95048 0
M  V30 19354 N 1846.15 0.735796 -1.39369 0
M  V30 19355 C 1847.4 1.49079 -1.35861 0
M  V30 19356 C 1847.71 1.95553 0.0429472 0
M  V30 19357 O 1848.91 2.70758 0.200614 0
M  V30 19358 C 1847.37 2.69375 -2.38674 0
M  V30 19359 C 1846.98 2.29854 -3.8454 0
M  V30 19360 C 1848.72 3.47199 -2.44239 0
M  V30 19361 C 1846.63 3.46868 -4.78996 0
M  V30 19362 H 1845.56 0.559825 -0.505086 0
M  V30 19363 H 1848.21 0.80271 -1.65012 0
M  V30 19364 H 1846.59 3.40253 -2.02592 0
M  V30 19365 H 1847.77 1.66527 -4.29657 0
M  V30 19366 H 1846.08 1.65123 -3.82261 0
M  V30 19367 H 1848.68 4.34234 -3.12002 0
M  V30 19368 H 1849.02 3.89608 -1.46668 0
M  V30 19369 H 1849.55 2.83349 -2.7921 0
M  V30 19370 H 1846.29 3.0951 -5.77827 0
M  V30 19371 H 1845.81 4.09178 -4.38558 0
M  V30 19372 H 1847.49 4.13213 -4.9786 0
M  V30 19373 N 1847.63 1.24532 0.965897 0
M  V30 19374 C 1848.85 1.11318 1.74401 0
M  V30 19375 C 1849.27 -0.33411 1.8582 0
M  V30 19376 O 1848.63 -1.23044 1.34783 0
M  V30 19377 C 1848.68 1.74927 3.16358 0
M  V30 19378 O 1848.4 3.13998 3.05511 0
M  V30 19379 C 1849.9 1.67347 4.105 0
M  V30 19380 H 1847.12 0.388835 0.546853 0
M  V30 19381 H 1849.66 1.64674 1.21255 0
M  V30 19382 H 1847.82 1.2557 3.66485 0
M  V30 19383 H 1848.23 3.45097 3.94979 0
M  V30 19384 H 1849.71 2.16533 5.07757 0
M  V30 19385 H 1850.18 0.635036 4.34585 0
M  V30 19386 H 1850.79 2.16139 3.66284 0
M  V30 19387 N 1849.1 -1.16685 1.05936 0
M  V30 19388 C 1850.07 -2.19155 0.671098 0
M  V30 19389 C 1851.07 -1.5832 -0.281305 0
M  V30 19390 O 1852.26 -1.74082 -0.0641708 0
M  V30 19391 C 1849.39 -3.40897 -0.0131101 0
M  V30 19392 H 1850.58 -2.55019 1.57815 0
M  V30 19393 H 1848.13 -1.30897 0.854147 0
M  V30 19394 H 1848.87 -3.10587 -0.933077 0
M  V30 19395 H 1848.65 -3.86304 0.671687 0
M  V30 19396 H 1850.14 -4.16722 -0.270606 0
M  V30 19397 N 1850.58 -0.841432 -1.33258 0
M  V30 19398 C 1851.81 -0.451287 -2.01611 0
M  V30 19399 C 1852.22 0.952858 -1.63454 0
M  V30 19400 O 1851.56 1.6311 -0.845039 0
M  V30 19401 C 1851.62 -0.495287 -3.56072 0
M  V30 19402 C 1851.29 -1.856 -4.17614 0
M  V30 19403 C 1852.29 -2.81959 -4.36801 0
M  V30 19404 C 1849.97 -2.14953 -4.53983 0
M  V30 19405 C 1851.96 -4.05832 -4.91507 0
M  V30 19406 C 1849.65 -3.39083 -5.08395 0
M  V30 19407 C 1850.65 -4.34339 -5.27104 0
M  V30 19408 O 1850.34 -5.56273 -5.80359 0
M  V30 19409 H 1850.07 -0.177188 -0.652365 0
M  V30 19410 H 1852.62 -1.13629 -1.71107 0
M  V30 19411 H 1850.85 0.246506 -3.85914 0
M  V30 19412 H 1852.54 -0.122606 -4.05715 0
M  V30 19413 H 1853.31 -2.60582 -4.0905 0
M  V30 19414 H 1849.19 -1.41602 -4.38714 0
M  V30 19415 H 1852.73 -4.80192 -5.06025 0
M  V30 19416 H 1848.63 -3.60316 -5.35577 0
M  V30 19417 H 1849.4 -5.58047 -5.9877 0
M  V30 19418 N 1852.06 1.4581 -0.598108 0
M  V30 19419 C 1852.97 2.34249 0.12834 0
M  V30 19420 C 1853.99 1.50677 0.870202 0
M  V30 19421 O 1855.16 1.83505 0.829924 0
M  V30 19422 C 1852.23 3.28135 1.1193 0
M  V30 19423 C 1851.29 4.27611 0.380432 0
M  V30 19424 C 1850.52 5.17012 1.32419 0
M  V30 19425 O 1850.74 5.09648 2.56154 0
M  V30 19426 O 1849.68 5.962 0.826397 0
M  V30 19427 H 1853.5 2.9775 -0.598199 0
M  V30 19428 H 1851.09 1.45037 -0.358416 0
M  V30 19429 H 1852.97 3.86014 1.6903 0
M  V30 19430 H 1851.65 2.6721 1.82703 0
M  V30 19431 H 1850.55 3.73375 -0.23279 0
M  V30 19432 H 1851.89 4.91365 -0.286627 0
M  V30 19433 N 1853.54 0.336733 1.53961 0
M  V30 19434 C 1854.78 -0.262248 2.01097 0
M  V30 19435 C 1855.12 -1.50745 1.22431 0
M  V30 19436 O 1854.39 -1.92012 0.310103 0
M  V30 19437 C 1854.67 -0.583219 3.55346 0
M  V30 19438 C 1854.53 0.67361 4.44727 0
M  V30 19439 C 1855.85 -1.39558 4.17386 0
M  V30 19440 H 1852.97 -0.0938423 0.731001 0
M  V30 19441 H 1855.61 0.455921 1.84449 0
M  V30 19442 H 1853.76 -1.19505 3.69663 0
M  V30 19443 H 1855.43 1.31168 4.42258 0
M  V30 19444 H 1853.67 1.29987 4.13867 0
M  V30 19445 H 1854.34 0.404382 5.50517 0
M  V30 19446 H 1856.82 -0.878292 4.06725 0
M  V30 19447 H 1855.7 -1.58892 5.25399 0
M  V30 19448 H 1855.96 -2.39567 3.71564 0
M  V30 19449 N 1855.02 -1.57465 0.0651956 0
M  V30 19450 C 1856.26 -1.95112 -0.609158 0
M  V30 19451 C 1856.62 -0.94429 -1.67174 0
M  V30 19452 O 1857.82 -1.20818 -2.40117 0
M  V30 19453 C 1856.09 -3.37459 -1.17711 0
M  V30 19454 S 1857.65 -3.97076 -1.86752 0
M  V30 19455 H 1854.47 -0.682395 -0.199644 0
M  V30 19456 H 1857.07 -1.95016 0.137478 0
M  V30 19457 H 1855.77 -4.08525 -0.391829 0
M  V30 19458 H 1855.31 -3.41083 -1.96026 0
M  V30 19459 H 1857.32 -3.83443 -3.14938 0
M  V30 19460 N 1856.49 0.20831 -1.56217 0
M  V30 19461 C 1857.72 0.945898 -1.83675 0
M  V30 19462 C 1858.13 1.77908 -0.643841 0
M  V30 19463 O 1857.47 1.79361 0.396885 0
M  V30 19464 C 1857.54 1.90219 -3.05052 0
M  V30 19465 C 1857.2 1.25224 -4.39509 0
M  V30 19466 C 1858.2 0.635617 -5.16 0
M  V30 19467 C 1855.88 1.26005 -4.86239 0
M  V30 19468 C 1857.88 0.0354655 -6.3739 0
M  V30 19469 C 1855.56 0.656058 -6.07568 0
M  V30 19470 C 1856.56 0.0448326 -6.82985 0
M  V30 19471 O 1856.25 -0.549727 -8.02018 0
M  V30 19472 H 1855.98 0.282151 -0.614302 0
M  V30 19473 H 1858.54 0.224595 -2.04168 0
M  V30 19474 H 1856.77 2.66284 -2.8041 0
M  V30 19475 H 1858.45 2.50644 -3.19268 0
M  V30 19476 H 1859.22 0.62182 -4.80997 0
M  V30 19477 H 1855.1 1.72519 -4.27502 0
M  V30 19478 H 1858.64 -0.442232 -6.96197 0
M  V30 19479 H 1854.54 0.667312 -6.42041 0
M  V30 19480 H 1855.31 -0.445338 -8.17288 0
M  V30 19481 N 1857.97 1.50255 0.475528 0
M  V30 19482 C 1859.22 1.60704 1.22551 0
M  V30 19483 C 1859.54 0.307375 1.92562 0
M  V30 19484 O 1858.81 -0.674885 1.83908 0
M  V30 19485 H 1857.39 0.592176 0.455343 0
M  V30 19486 H 1860.05 1.8701 0.548926 0
M  V30 19487 H 1859.15 2.41596 1.9758 0
M  V30 19488 N 1859.45 -0.728395 1.39758 0
M  V30 19489 C 1860.38 -1.85554 1.41747 0
M  V30 19490 C 1861.36 -1.6778 0.279972 0
M  V30 19491 O 1862.55 -1.88001 0.48675 0
M  V30 19492 C 1859.68 -3.23375 1.26671 0
M  V30 19493 C 1858.63 -3.55799 2.37889 0
M  V30 19494 C 1857.96 -4.92628 2.07899 0
M  V30 19495 C 1859.26 -3.58098 3.80215 0
M  V30 19496 H 1860.95 -1.84146 2.36073 0
M  V30 19497 H 1858.5 -0.884539 1.13631 0
M  V30 19498 H 1860.45 -4.01907 1.26682 0
M  V30 19499 H 1859.17 -3.25326 0.288159 0
M  V30 19500 H 1857.83 -2.796 2.37107 0
M  V30 19501 H 1857.48 -4.91166 1.08466 0
M  V30 19502 H 1857.18 -5.15288 2.82404 0
M  V30 19503 H 1858.7 -5.73509 2.09571 0
M  V30 19504 H 1860.12 -4.26694 3.82891 0
M  V30 19505 H 1858.51 -3.9228 4.54133 0
M  V30 19506 H 1859.58 -2.57758 4.10718 0
M  V30 19507 N 1860.93 -1.25042 -0.959279 0
M  V30 19508 C 1862.17 -1.09677 -1.70584 0
M  V30 19509 C 1862.51 0.362184 -1.90793 0
M  V30 19510 O 1861.78 1.26722 -1.47552 0
M  V30 19511 C 1862.06 -1.84646 -3.09157 0
M  V30 19512 C 1861.92 -3.38342 -2.96387 0
M  V30 19513 C 1863.24 -1.62588 -4.08966 0
M  V30 19514 H 1860.36 -0.399817 -0.619125 0
M  V30 19515 H 1863 -1.53816 -1.11537 0
M  V30 19516 H 1861.15 -1.47129 -3.59563 0
M  V30 19517 H 1862.82 -3.85507 -2.53342 0
M  V30 19518 H 1861.06 -3.66291 -2.32408 0
M  V30 19519 H 1861.73 -3.86007 -3.94592 0
M  V30 19520 H 1864.21 -1.9524 -3.67451 0
M  V30 19521 H 1863.09 -2.17488 -5.03975 0
M  V30 19522 H 1863.35 -0.566103 -4.38461 0
M  V30 19523 N 1862.41 1.16121 -1.06553 0
M  V30 19524 C 1863.35 2.22656 -0.672827 0
M  V30 19525 C 1864.35 1.66492 0.312509 0
M  V30 19526 O 1865.55 1.79127 0.17709 0
M  V30 19527 H 1861.93 0.725064 -0.199464 0
M  V30 19528 H 1863.9 2.53065 -1.58116 0
M  V30 19529 C 1862.65 3.47612 -0.0780782 0
M  V30 19530 H 1861.97 3.91145 -0.82739 0
M  V30 19531 H 1863.41 4.23701 0.159143 0
M  V30 19532 C 1861.87 3.15594 1.17906 0
M  V30 19533 O 1862.4 3.31641 2.26665 0
M  V30 19534 N 1860.61 2.69703 1.08206 0
M  V30 19535 H 1860.15 2.56846 0.196981 0
M  V30 19536 H 1860.11 2.48654 1.92402 0
M  V30 19537 N 1863.88 0.848487 1.3281 0
M  V30 19538 C 1865.16 0.370395 1.92061 0
M  V30 19539 C 1865.54 -1.14535 1.77327 0
M  V30 19540 O 1864.89 -1.96419 1.16756 0
M  V30 19541 C 1865.1 0.827934 3.39037 0
M  V30 19542 C 1866.45 0.841527 4.16177 0
M  V30 19543 O 1867.47 0.772167 3.4773 0
M  V30 19544 O 1866.33 0.938119 5.38388 0
M  V30 19545 H 1863.42 0.106809 0.820074 0
M  V30 19546 H 1865.97 0.934979 1.4162 0
M  V30 19547 H 1864.74 1.87089 3.43676 0
M  V30 19548 H 1864.37 0.240456 3.96872 0
M  V30 19549 N 1865.36 -1.4549 0.605832 0
M  V30 19550 C 1866.64 -1.95573 0.0324098 0
M  V30 19551 C 1867.02 -1.54829 -1.43496 0
M  V30 19552 O 1866.37 -0.810005 -2.13661 0
M  V30 19553 C 1866.58 -3.4825 0.228676 0
M  V30 19554 C 1867.93 -4.24461 0.108559 0
M  V30 19555 O 1868.95 -3.55846 0.158706 0
M  V30 19556 O 1867.81 -5.46499 -0.00781404 0
M  V30 19557 H 1864.9 -0.826184 -0.0367314 0
M  V30 19558 H 1867.45 -1.55664 0.675771 0
M  V30 19559 H 1866.22 -3.70869 1.24786 0
M  V30 19560 H 1865.84 -3.95045 -0.450031 0
M  V30 19561 N 1866.84 -0.344893 -1.5378 0
M  V30 19562 C 1867.79 0.526591 -2.26561 0
M  V30 19563 C 1868.78 1.10083 -1.28756 0
M  V30 19564 O 1869.99 1.04641 -1.46459 0
M  V30 19565 H 1866.36 0.188505 -0.72799 0
M  V30 19566 H 1868.33 -0.109269 -2.982 0
M  V30 19567 C 1867.08 1.66505 -3.0524 0
M  V30 19568 H 1866.41 1.23246 -3.80329 0
M  V30 19569 H 1867.85 2.24998 -3.59377 0
M  V30 19570 C 1866.31 2.59527 -2.14819 0
M  V30 19571 O 1866.84 3.6181 -1.74517 0
M  V30 19572 N 1865.04 2.28243 -1.79871 0
M  V30 19573 H 1864.59 1.45106 -2.12843 0
M  V30 19574 H 1864.55 2.90741 -1.19654 0
M  V30 19575 N 1868.32 1.57428 -0.0735454 0
M  V30 19576 C 1869.73 1.57069 0.283088 0
M  V30 19577 C 1869.93 1.08308 1.69917 0
M  V30 19578 O 1868.99 0.749756 2.41112 0
M  V30 19579 C 1870.3 3.00562 0.0911498 0
M  V30 19580 C 1871.85 3.12588 0.160552 0
M  V30 19581 C 1872.33 4.58 -0.00312732 0
M  V30 19582 N 1873.82 4.6317 0.0524201 0
M  V30 19583 C 1874.55 5.73378 -0.0497867 0
M  V30 19584 N 1874.05 6.92495 -0.205612 0
M  V30 19585 N 1875.84 5.621 0.00740387 0
M  V30 19586 H 1867.99 1.87439 -0.999015 0
M  V30 19587 H 1870.26 0.864179 -0.389742 0
M  V30 19588 H 1869.96 3.40355 -0.886068 0
M  V30 19589 H 1869.84 3.67666 0.842723 0
M  V30 19590 H 1872.22 2.7268 1.12826 0
M  V30 19591 H 1872.3 2.48119 -0.622153 0
M  V30 19592 H 1871.95 4.98598 -0.967606 0
M  V30 19593 H 1871.88 5.20503 0.799004 0
M  V30 19594 H 1874.37 3.77512 0.171195 0
M  V30 19595 H 1874.68 7.72308 -0.275698 0
M  V30 19596 H 1873.03 6.94582 -0.240997 0
M  V30 19597 H 1876.22 4.67925 0.127856 0
M  V30 19598 H 1876.39 6.47956 -0.075703 0
M  V30 19599 N 1869.8 -0.200022 1.56326 0
M  V30 19600 C 1871.21 -0.765141 1.70301 0
M  V30 19601 C 1871.56 -1.84066 0.679277 0
M  V30 19602 O 1870.68 -2.15768 -0.165308 0
M  V30 19603 C 1871.28 -1.39466 3.08763 0
M  V30 19604 C 1869.84 -1.90692 3.2452 0
M  V30 19605 C 1868.98 -0.77502 2.66249 0
M  V30 19606 H 1871.94 0.024977 1.5868 0
M  V30 19607 H 1871.96 -2.26396 3.05819 0
M  V30 19608 H 1871.47 -0.61165 3.8325 0
M  V30 19609 H 1869.57 -2.71728 2.54941 0
M  V30 19610 H 1869.68 -2.0721 4.31973 0
M  V30 19611 H 1868.05 -1.18802 2.25296 0
M  V30 19612 H 1868.83 -0.00432851 3.433 0
M  V30 19613 N 1871.27 -1.50505 -0.467553 0
M  V30 19614 C 1872.52 -1.60911 -1.21617 0
M  V30 19615 C 1872.84 -0.31663 -1.9302 0
M  V30 19616 O 1874.04 -0.299645 -2.69841 0
M  V30 19617 C 1872.5 -2.84052 -2.21003 0
M  V30 19618 C 1872.11 -4.20189 -1.55386 0
M  V30 19619 C 1873.85 -3.03805 -2.96484 0
M  V30 19620 C 1871.76 -5.34514 -2.5308 0
M  V30 19621 H 1870.69 -0.59924 -0.457633 0
M  V30 19622 H 1873.34 -1.7694 -0.486276 0
M  V30 19623 H 1871.72 -2.6159 -2.97299 0
M  V30 19624 H 1872.89 -4.5292 -0.848552 0
M  V30 19625 H 1871.21 -4.0607 -0.921725 0
M  V30 19626 H 1873.81 -3.86387 -3.69606 0
M  V30 19627 H 1874.15 -2.15672 -3.56078 0
M  V30 19628 H 1874.68 -3.26465 -2.27301 0
M  V30 19629 H 1871.42 -6.24811 -1.9822 0
M  V30 19630 H 1870.94 -5.06197 -3.21752 0
M  V30 19631 H 1872.62 -5.65232 -3.14836 0
M  V30 19632 N 1872.75 0.720973 -1.40142 0
M  V30 19633 C 1874 1.47785 -1.37855 0
M  V30 19634 C 1874.32 1.9499 0.0201858 0
M  V30 19635 O 1873.59 1.69972 0.973986 0
M  V30 19636 H 1872.17 0.548275 -0.507349 0
M  V30 19637 H 1874.83 0.85502 -1.75144 0
M  V30 19638 H 1873.93 2.35327 -2.05006 0
M  V30 19639 N 1874.23 1.25549 0.952634 0
M  V30 19640 C 1875.64 1.09496 1.5122 0
M  V30 19641 C 1875.99 -0.328639 1.93428 0
M  V30 19642 O 1875.12 -1.21884 1.78811 0
M  V30 19643 C 1875.71 1.9815 2.74813 0
M  V30 19644 C 1874.27 1.86275 3.27076 0
M  V30 19645 C 1873.42 1.92181 1.99904 0
M  V30 19646 H 1876.37 1.38806 0.769318 0
M  V30 19647 H 1876.39 1.52265 3.48705 0
M  V30 19648 H 1875.9 3.01754 2.44062 0
M  V30 19649 H 1874 0.855627 3.62643 0
M  V30 19650 H 1874.12 2.71194 3.94957 0
M  V30 19651 H 1872.48 1.36092 2.15293 0
M  V30 19652 H 1873.26 2.97393 1.71499 0
M  V30 19653 N 1875.71 -1.15554 1.07168 0
M  V30 19654 C 1876.64 -2.19201 0.634504 0
M  V30 19655 C 1877.62 -1.58848 -0.347283 0
M  V30 19656 O 1878.8 -1.86779 -0.25415 0
M  V30 19657 C 1875.93 -3.38631 -0.0685456 0
M  V30 19658 C 1874.98 -4.17503 0.87139 0
M  V30 19659 S 1875.81 -4.8013 2.37139 0
M  V30 19660 C 1876.97 -6.02929 1.68009 0
M  V30 19661 H 1877.2 -2.55946 1.51259 0
M  V30 19662 H 1874.73 -1.26486 0.88547 0
M  V30 19663 H 1876.69 -4.07824 -0.467933 0
M  V30 19664 H 1875.35 -3.00234 -0.922944 0
M  V30 19665 H 1874.54 -5.02943 0.326166 0
M  V30 19666 H 1874.15 -3.53849 1.21107 0
M  V30 19667 H 1876.44 -6.70217 0.990739 0
M  V30 19668 H 1877.38 -6.62017 2.51274 0
M  V30 19669 H 1877.79 -5.52477 1.15887 0
M  V30 19670 N 1877.19 -0.855519 -1.32358 0
M  V30 19671 C 1878.13 -0.298777 -2.28858 0
M  V30 19672 C 1879.1 0.594728 -1.55088 0
M  V30 19673 O 1880.29 0.529455 -1.83307 0
M  V30 19674 C 1877.43 0.506096 -3.41369 0
M  V30 19675 C 1876.54 -0.413297 -4.30018 0
M  V30 19676 C 1875.68 0.404292 -5.29659 0
M  V30 19677 C 1874.72 -0.512444 -6.09951 0
M  V30 19678 N 1873.85 0.268017 -7.01588 0
M  V30 19679 H 1878.69 -1.12694 -2.7587 0
M  V30 19680 H 1876.23 -0.567162 -1.35726 0
M  V30 19681 H 1878.19 0.988384 -4.05323 0
M  V30 19682 H 1876.82 1.29908 -2.95506 0
M  V30 19683 H 1875.87 -1.01398 -3.66637 0
M  V30 19684 H 1877.18 -1.11683 -4.86136 0
M  V30 19685 H 1876.34 0.949707 -5.99221 0
M  V30 19686 H 1875.08 1.14118 -4.74161 0
M  V30 19687 H 1874.08 -1.06974 -5.39293 0
M  V30 19688 H 1875.31 -1.24796 -6.67535 0
M  V30 19689 H 1873.25 0.987986 -6.48517 0
M  V30 19690 H 1873.17 -0.376462 -7.55062 0
M  V30 19691 H 1874.44 0.79513 -7.75434 0
M  V30 19692 N 1878.67 1.45167 -0.61354 0
M  V30 19693 C 1879.61 2.30575 0.101811 0
M  V30 19694 C 1880.58 1.42455 0.85416 0
M  V30 19695 O 1881.77 1.71378 0.838711 0
M  V30 19696 C 1878.91 3.27459 1.08926 0
M  V30 19697 C 1878.02 4.30682 0.337164 0
M  V30 19698 C 1877.16 5.1467 1.31486 0
M  V30 19699 C 1876.19 6.09616 0.550918 0
M  V30 19700 N 1875.33 6.86363 1.4782 0
M  V30 19701 H 1880.17 2.9121 -0.632495 0
M  V30 19702 H 1877.71 1.43494 -0.323705 0
M  V30 19703 H 1879.67 3.82101 1.67495 0
M  V30 19704 H 1878.3 2.68564 1.79091 0
M  V30 19705 H 1877.35 3.78653 -0.364144 0
M  V30 19706 H 1878.66 4.98129 -0.258629 0
M  V30 19707 H 1877.81 5.73742 1.97243 0
M  V30 19708 H 1876.55 4.47255 1.94458 0
M  V30 19709 H 1875.56 5.49668 -0.120251 0
M  V30 19710 H 1876.78 6.7906 -0.07384 0
M  V30 19711 H 1874.73 6.21632 2.09545 0
M  V30 19712 H 1874.65 7.50183 0.935989 0
M  V30 19713 H 1875.91 7.49972 2.12516 0
M  V30 19714 N 1880.14 0.353044 1.53595 0
M  V30 19715 C 1881.39 -0.240904 2.01364 0
M  V30 19716 C 1881.72 -1.49438 1.24023 0
M  V30 19717 O 1881 -1.91672 0.330451 0
M  V30 19718 C 1881.28 -0.545497 3.55944 0
M  V30 19719 C 1881.13 0.720742 4.43988 0
M  V30 19720 C 1882.45 -1.35124 4.18843 0
M  V30 19721 H 1879.57 -0.0860838 0.731955 0
M  V30 19722 H 1882.21 0.475459 1.83955 0
M  V30 19723 H 1880.36 -1.15578 3.7091 0
M  V30 19724 H 1882.04 1.35852 4.40842 0
M  V30 19725 H 1880.28 1.34369 4.12465 0
M  V30 19726 H 1880.95 0.462749 5.50057 0
M  V30 19727 H 1883.43 -0.835104 4.07634 0
M  V30 19728 H 1882.3 -1.53311 5.27055 0
M  V30 19729 H 1882.56 -2.35612 3.74085 0
M  V30 19730 N 1881.62 -1.57387 0.0818932 0
M  V30 19731 C 1882.55 -2.16318 -0.879124 0
M  V30 19732 C 1883.53 -1.09293 -1.30342 0
M  V30 19733 O 1884.72 -1.37373 -1.37267 0
M  V30 19734 C 1881.85 -2.73293 -2.14308 0
M  V30 19735 C 1880.8 -3.85575 -1.85785 0
M  V30 19736 C 1880.13 -4.29195 -3.18897 0
M  V30 19737 C 1881.43 -5.09365 -1.15517 0
M  V30 19738 H 1883.12 -2.96873 -0.388166 0
M  V30 19739 H 1880.67 -1.42803 -0.185265 0
M  V30 19740 H 1882.62 -3.13168 -2.81964 0
M  V30 19741 H 1881.34 -1.89974 -2.65664 0
M  V30 19742 H 1880 -3.46219 -1.20532 0
M  V30 19743 H 1879.65 -3.42784 -3.68114 0
M  V30 19744 H 1879.35 -5.04889 -3.006 0
M  V30 19745 H 1880.88 -4.71694 -3.87734 0
M  V30 19746 H 1882.29 -5.46493 -1.73259 0
M  V30 19747 H 1880.69 -5.90403 -1.07444 0
M  V30 19748 H 1881.76 -4.8471 -0.135822 0
M  V30 19749 N 1883.1 0.191729 -1.56429 0
M  V30 19750 C 1884.35 0.912948 -1.81089 0
M  V30 19751 C 1884.68 1.82767 -0.656483 0
M  V30 19752 O 1883.95 1.91456 0.342779 0
M  V30 19753 C 1884.24 1.72628 -3.16025 0
M  V30 19754 C 1884.09 0.836045 -4.41962 0
M  V30 19755 C 1885.41 2.69818 -3.47687 0
M  V30 19756 H 1882.53 0.33046 -0.658761 0
M  V30 19757 H 1885.17 0.180148 -1.89144 0
M  V30 19758 H 1883.32 2.35102 -3.09289 0
M  V30 19759 H 1884.99 0.225751 -4.60747 0
M  V30 19760 H 1883.23 0.142944 -4.33564 0
M  V30 19761 H 1883.91 1.44019 -5.32881 0
M  V30 19762 H 1886.38 2.17475 -3.54745 0
M  V30 19763 H 1885.26 3.23806 -4.43216 0
M  V30 19764 H 1885.52 3.49028 -2.71352 0
M  V30 19765 N 1884.58 1.50751 0.459565 0
M  V30 19766 C 1885.85 1.5284 1.22062 0
M  V30 19767 C 1886.23 0.279716 2.09239 0
M  V30 19768 O 1885.58 -0.73634 2.16311 0
M  V30 19769 C 1885.79 2.83046 2.04171 0
M  V30 19770 C 1887.14 3.34151 2.6197 0
M  V30 19771 O 1888.16 2.84446 2.14403 0
M  V30 19772 O 1887.02 4.20824 3.48668 0
M  V30 19773 H 1884.12 0.613549 0.554515 0
M  V30 19774 H 1886.66 1.63049 0.470445 0
M  V30 19775 H 1885.44 3.65397 1.40004 0
M  V30 19776 H 1885.06 2.75896 2.86299 0
M  V30 19777 N 1886.06 -0.713531 1.40522 0
M  V30 19778 C 1887 -1.84894 1.41127 0
M  V30 19779 C 1888 -1.66873 0.291521 0
M  V30 19780 O 1889.2 -1.73952 0.46266 0
M  V30 19781 H 1885.58 -0.608985 0.441182 0
M  V30 19782 H 1887.55 -1.815 2.36855 0
M  V30 19783 C 1886.3 -3.22774 1.29276 0
M  V30 19784 H 1885.62 -3.37248 2.14718 0
M  V30 19785 H 1887.06 -4.02349 1.33759 0
M  V30 19786 C 1885.52 -3.369 0.00320525 0
M  V30 19787 O 1886.05 -3.90086 -0.958942 0
M  V30 19788 N 1884.26 -2.90523 -0.0669733 0
M  V30 19789 H 1883.8 -2.47428 0.716722 0
M  V30 19790 H 1883.76 -3.00353 -0.929262 0
M  V30 19791 N 1887.53 -1.26053 -0.945962 0
M  V30 19792 C 1888.94 -1.10296 -1.50638 0
M  V30 19793 C 1889.3 0.318377 -1.936 0
M  V30 19794 O 1888.42 1.20934 -1.79454 0
M  V30 19795 C 1889.02 -1.99604 -2.73758 0
M  V30 19796 C 1887.57 -1.88007 -3.26083 0
M  V30 19797 C 1886.72 -1.93239 -1.98882 0
M  V30 19798 H 1889.67 -1.39212 -0.761946 0
M  V30 19799 H 1889.69 -1.54113 -3.47893 0
M  V30 19800 H 1889.21 -3.03044 -2.42459 0
M  V30 19801 H 1887.31 -0.874846 -3.62184 0
M  V30 19802 H 1887.42 -2.73285 -3.93513 0
M  V30 19803 H 1885.78 -1.37231 -2.14568 0
M  V30 19804 H 1886.57 -2.98299 -1.6992 0
M  V30 19805 N 1889.01 1.14984 -1.07779 0
M  V30 19806 C 1889.96 2.19864 -0.702018 0
M  V30 19807 C 1890.93 1.63206 0.308695 0
M  V30 19808 O 1892.11 1.8981 0.194157 0
M  V30 19809 C 1889.25 3.44923 -0.110634 0
M  V30 19810 C 1888.37 4.1576 -1.17335 0
M  V30 19811 C 1887.5 5.28381 -0.546508 0
M  V30 19812 C 1886.54 5.91042 -1.59171 0
M  V30 19813 N 1885.68 6.95126 -0.987129 0
M  V30 19814 H 1890.52 2.51358 -1.60073 0
M  V30 19815 H 1888.05 1.2344 -0.80006 0
M  V30 19816 H 1890.01 4.16451 0.249903 0
M  V30 19817 H 1888.64 3.13932 0.751416 0
M  V30 19818 H 1887.69 3.42685 -1.6514 0
M  V30 19819 H 1889.01 4.58436 -1.96566 0
M  V30 19820 H 1888.16 6.06552 -0.133852 0
M  V30 19821 H 1886.9 4.8691 0.277527 0
M  V30 19822 H 1885.9 5.1158 -2.01409 0
M  V30 19823 H 1887.13 6.3459 -2.4181 0
M  V30 19824 H 1885.08 6.55742 -0.184076 0
M  V30 19825 H 1884.99 7.36253 -1.71662 0
M  V30 19826 H 1886.26 7.77186 -0.60012 0
M  V30 19827 N 1890.49 0.862526 1.31902 0
M  V30 19828 C 1891.44 0.301807 2.30634 0
M  V30 19829 C 1892.43 -0.579086 1.59195 0
M  V30 19830 O 1893.64 -0.466014 1.73863 0
M  V30 19831 H 1890.01 0.078905 0.747849 0
M  V30 19832 H 1891.98 1.1486 2.75408 0
M  V30 19833 C 1890.73 -0.48822 3.44255 0
M  V30 19834 H 1890.06 0.18033 3.99393 0
M  V30 19835 H 1891.5 -0.846013 4.15474 0
M  V30 19836 C 1889.95 -1.67656 2.92221 0
M  V30 19837 O 1890.48 -2.77577 2.90369 0
M  V30 19838 N 1888.69 -1.50622 2.48518 0
M  V30 19839 H 1888.24 -0.612021 2.50224 0
M  V30 19840 H 1888.2 -2.30275 2.14058 0
M  V30 19841 N 1891.97 -1.4484 0.62123 0
M  V30 19842 C 1893.38 -1.57016 0.286009 0
M  V30 19843 C 1893.58 -1.6104 -1.21113 0
M  V30 19844 O 1892.64 -1.54807 -1.99477 0
M  V30 19845 C 1893.95 -2.84652 0.969209 0
M  V30 19846 C 1895.5 -2.98349 0.946414 0
M  V30 19847 C 1895.98 -4.28773 1.60989 0
M  V30 19848 N 1897.47 -4.35564 1.57601 0
M  V30 19849 C 1898.2 -5.3518 2.0584 0
M  V30 19850 N 1897.7 -6.41256 2.62226 0
M  V30 19851 N 1899.49 -5.26625 1.96527 0
M  V30 19852 H 1891.64 -1.40471 1.59316 0
M  V30 19853 H 1893.91 -0.672493 0.668174 0
M  V30 19854 H 1893.61 -2.87629 2.02392 0
M  V30 19855 H 1893.49 -3.7386 0.500859 0
M  V30 19856 H 1895.87 -2.94931 -0.0997935 0
M  V30 19857 H 1895.95 -2.10516 1.45316 0
M  V30 19858 H 1895.6 -4.3295 2.65549 0
M  V30 19859 H 1895.53 -5.15447 1.07805 0
M  V30 19860 H 1898.02 -3.59519 1.16424 0
M  V30 19861 H 1898.33 -7.13536 2.96792 0
M  V30 19862 H 1896.68 -6.41969 2.66272 0
M  V30 19863 H 1899.87 -4.42664 1.52206 0
M  V30 19864 H 1900.04 -6.04107 2.34434 0
M  V30 19865 N 1893.45 -0.361184 -1.53405 0
M  V30 19866 C 1894.38 0.530831 -2.2194 0
M  V30 19867 C 1895.36 1.08647 -1.20974 0
M  V30 19868 O 1896.54 1.14343 -1.4986 0
M  V30 19869 C 1893.67 1.73198 -2.91067 0
M  V30 19870 C 1892.71 1.30419 -4.0607 0
M  V30 19871 S 1893.55 0.30917 -5.34607 0
M  V30 19872 C 1894.7 1.51675 -6.07244 0
M  V30 19873 H 1894.94 -0.0512313 -2.97256 0
M  V30 19874 H 1892.47 -0.145281 -1.53715 0
M  V30 19875 H 1894.43 2.42098 -3.3151 0
M  V30 19876 H 1893.09 2.28528 -2.15485 0
M  V30 19877 H 1892.28 2.20024 -4.53437 0
M  V30 19878 H 1891.88 0.694455 -3.67496 0
M  V30 19879 H 1894.18 2.44847 -6.31709 0
M  V30 19880 H 1895.12 1.08454 -6.99745 0
M  V30 19881 H 1895.53 1.7208 -5.37632 0
M  V30 19882 N 1894.92 1.57341 -0.0902386 0
M  V30 19883 C 1895.85 2.16782 0.86764 0
M  V30 19884 C 1896.84 1.09982 1.29761 0
M  V30 19885 O 1898.02 1.38099 1.36537 0
M  V30 19886 C 1895.15 2.74426 2.12856 0
M  V30 19887 C 1894.1 3.86555 1.83738 0
M  V30 19888 C 1893.43 4.3088 3.16617 0
M  V30 19889 C 1894.73 5.09971 1.12814 0
M  V30 19890 H 1896.42 2.97075 0.372417 0
M  V30 19891 H 1893.97 1.42899 0.177689 0
M  V30 19892 H 1895.92 3.14659 2.80299 0
M  V30 19893 H 1894.65 1.9138 2.64653 0
M  V30 19894 H 1893.31 3.46853 1.18694 0
M  V30 19895 H 1892.95 3.44732 3.66291 0
M  V30 19896 H 1892.65 5.06477 2.97918 0
M  V30 19897 H 1894.18 4.73743 3.85227 0
M  V30 19898 H 1895.59 5.47404 1.70358 0
M  V30 19899 H 1893.99 5.90965 1.04311 0
M  V30 19900 H 1895.06 4.84775 0.110114 0
M  V30 19901 N 1896.4 -0.183431 1.56529 0
M  V30 19902 C 1897.33 -1.22973 1.98494 0
M  V30 19903 C 1898.31 -1.46837 0.858653 0
M  V30 19904 O 1899.5 -1.58377 1.12385 0
M  V30 19905 C 1896.63 -2.57138 2.33446 0
M  V30 19906 C 1895.58 -2.47865 3.48922 0
M  V30 19907 C 1894.91 -3.8641 3.69582 0
M  V30 19908 C 1896.21 -1.99371 4.82751 0
M  V30 19909 H 1897.9 -0.880938 2.86147 0
M  V30 19910 H 1895.45 -0.422321 1.37668 0
M  V30 19911 H 1897.4 -3.30527 2.614 0
M  V30 19912 H 1896.13 -2.93781 1.42689 0
M  V30 19913 H 1894.78 -1.76932 3.21077 0
M  V30 19914 H 1894.43 -4.20426 2.76136 0
M  V30 19915 H 1894.13 -3.81077 4.47274 0
M  V30 19916 H 1895.66 -4.61403 3.99924 0
M  V30 19917 H 1897.07 -2.62526 5.0966 0
M  V30 19918 H 1895.47 -2.05014 5.63994 0
M  V30 19919 H 1896.54 -0.947442 4.75554 0
M  V30 19920 N 1897.88 -1.50992 -0.451564 0
M  V30 19921 C 1899.13 -1.62192 -1.19903 0
M  V30 19922 C 1899.44 -0.337085 -1.92674 0
M  V30 19923 O 1900.65 -0.328248 -2.69508 0
M  V30 19924 C 1899.1 -2.8638 -2.17978 0
M  V30 19925 C 1898.71 -4.21814 -1.50921 0
M  V30 19926 C 1900.46 -3.06932 -2.93246 0
M  V30 19927 C 1898.36 -5.37168 -2.47396 0
M  V30 19928 H 1897.29 -0.60406 -0.451251 0
M  V30 19929 H 1899.94 -1.77445 -0.467482 0
M  V30 19930 H 1898.33 -2.64728 -2.94508 0
M  V30 19931 H 1899.5 -4.53794 -0.800466 0
M  V30 19932 H 1897.82 -4.07025 -0.878604 0
M  V30 19933 H 1900.41 -3.90286 -3.65487 0
M  V30 19934 H 1900.76 -2.19437 -3.5377 0
M  V30 19935 H 1901.29 -3.28857 -2.23826 0
M  V30 19936 H 1898.03 -6.26878 -1.91582 0
M  V30 19937 H 1897.55 -5.09581 -3.16365 0
M  V30 19938 H 1899.23 -5.68539 -3.08824 0
M  V30 19939 N 1899.36 0.706069 -1.40899 0
M  V30 19940 C 1900.27 1.85007 -1.44255 0
M  V30 19941 C 1901.28 1.70761 -0.334174 0
M  V30 19942 O 1902.46 1.9286 -0.580258 0
M  V30 19943 C 1899.53 3.20896 -1.31251 0
M  V30 19944 C 1898.59 3.47327 -2.52314 0
M  V30 19945 C 1897.82 4.76732 -2.39922 0
M  V30 19946 O 1898.04 5.5249 -1.41813 0
M  V30 19947 O 1896.98 5.03713 -3.2948 0
M  V30 19948 H 1900.8 1.85132 -2.40748 0
M  V30 19949 H 1898.39 0.857751 -1.22323 0
M  V30 19950 H 1900.27 4.02045 -1.26244 0
M  V30 19951 H 1898.94 3.21477 -0.378684 0
M  V30 19952 H 1897.85 2.66149 -2.62899 0
M  V30 19953 H 1899.18 3.5155 -3.4449 0
M  V30 19954 N 1900.84 1.26553 0.939264 0
M  V30 19955 C 1901.78 1.08092 2.05958 0
M  V30 19956 C 1902.78 0.00730279 1.69398 0
M  V30 19957 O 1903.98 0.164131 1.7925 0
M  V30 19958 H 1900.36 0.33271 0.674394 0
M  V30 19959 H 1902.33 2.03032 2.18679 0
M  V30 19960 C 1901.08 0.732672 3.39893 0
M  V30 19961 H 1900.4 1.55067 3.68503 0
M  V30 19962 H 1901.84 0.643305 4.19091 0
M  V30 19963 C 1900.3 -0.5623 3.32174 0
M  V30 19964 O 1900.83 -1.60007 3.68457 0
M  V30 19965 N 1899.04 -0.553643 2.85277 0
M  V30 19966 H 1898.58 0.291265 2.55948 0
M  V30 19967 H 1898.54 -1.4202 2.80495 0
M  V30 19968 N 1902.31 -1.14411 1.08387 0
M  V30 19969 C 1903.24 -2.21619 0.735327 0
M  V30 19970 C 1904.23 -1.67744 -0.282132 0
M  V30 19971 O 1905.41 -1.936 -0.152547 0
M  V30 19972 C 1902.54 -3.47003 0.143628 0
M  V30 19973 C 1901.49 -4.13903 1.08941 0
M  V30 19974 C 1900.82 -5.33487 0.359941 0
M  V30 19975 C 1902.12 -4.62463 2.42746 0
M  V30 19976 H 1903.81 -2.51031 1.63168 0
M  V30 19977 H 1901.36 -1.20658 0.785981 0
M  V30 19978 H 1903.31 -4.21251 -0.112217 0
M  V30 19979 H 1902.04 -3.16955 -0.787856 0
M  V30 19980 H 1900.7 -3.4161 1.33035 0
M  V30 19981 H 1900.34 -4.99699 -0.57534 0
M  V30 19982 H 1900.04 -5.79192 0.990451 0
M  V30 19983 H 1901.57 -6.10497 0.112145 0
M  V30 19984 H 1902.98 -5.28185 2.22919 0
M  V30 19985 H 1901.38 -5.18869 3.01488 0
M  V30 19986 H 1902.45 -3.77542 3.04286 0
M  V30 19987 N 1903.79 -0.869509 -1.31443 0
M  V30 19988 C 1905.21 -0.561369 -1.49402 0
M  V30 19989 C 1905.41 0.90461 -1.80053 0
M  V30 19990 O 1904.46 1.68681 -1.87891 0
M  V30 19991 C 1905.78 -1.46118 -2.62812 0
M  V30 19992 C 1907.33 -1.46317 -2.76695 0
M  V30 19993 C 1907.8 -2.34855 -3.93201 0
M  V30 19994 N 1909.29 -2.32732 -4.00487 0
M  V30 19995 C 1910.03 -2.97959 -4.89906 0
M  V30 19996 N 1909.52 -3.72353 -5.8423 0
M  V30 19997 N 1911.32 -2.8727 -4.83149 0
M  V30 19998 H 1903.47 -1.81808 -1.09816 0
M  V30 19999 H 1905.73 -0.777367 -0.542591 0
M  V30 20000 H 1905.44 -2.5043 -2.46936 0
M  V30 20001 H 1905.31 -1.15938 -3.5894 0
M  V30 20002 H 1907.7 -0.427634 -2.91985 0
M  V30 20003 H 1907.78 -1.8052 -1.81235 0
M  V30 20004 H 1907.42 -3.38485 -3.78669 0
M  V30 20005 H 1907.35 -1.97976 -4.87968 0
M  V30 20006 H 1909.84 -1.78657 -3.33002 0
M  V30 20007 H 1910.16 -4.19253 -6.4919 0
M  V30 20008 H 1908.5 -3.76461 -5.8421 0
M  V30 20009 H 1911.69 -2.28689 -4.08435 0
M  V30 20010 H 1911.86 -3.38383 -5.52631 0
M  V30 20011 N 1905.27 1.44508 -0.628902 0
M  V30 20012 C 1906.18 2.34468 0.0786233 0
M  V30 20013 C 1907.2 1.52489 0.838046 0
M  V30 20014 O 1908.37 1.85224 0.790813 0
M  V30 20015 C 1905.44 3.30435 1.04945 0
M  V30 20016 C 1904.5 4.28322 0.289643 0
M  V30 20017 C 1903.73 5.19704 1.21422 0
M  V30 20018 O 1903.95 5.14967 2.45286 0
M  V30 20019 O 1902.89 5.97819 0.699748 0
M  V30 20020 H 1906.71 2.96414 -0.661222 0
M  V30 20021 H 1904.3 1.44244 -0.3891 0
M  V30 20022 H 1906.18 3.89513 1.60804 0
M  V30 20023 H 1904.86 2.71025 1.76994 0
M  V30 20024 H 1903.76 3.72797 -0.311936 0
M  V30 20025 H 1905.1 4.90646 -0.390789 0
M  V30 20026 N 1906.75 0.369315 1.53212 0
M  V30 20027 C 1907.97 -0.222451 2.06204 0
M  V30 20028 C 1908.4 -1.41373 1.24077 0
M  V30 20029 O 1907.76 -1.79415 0.260767 0
M  V30 20030 C 1907.81 -0.590386 3.55734 0
M  V30 20031 O 1906.91 -1.68711 3.76311 0
M  V30 20032 H 1906.25 -0.0315041 0.663252 0
M  V30 20033 H 1908.78 0.531 1.97589 0
M  V30 20034 H 1908.79 -0.860345 3.98826 0
M  V30 20035 H 1907.47 0.28067 4.14952 0
M  V30 20036 H 1906.04 -1.41242 3.45116 0
M  V30 20037 N 1908.23 -1.57291 0.0985816 0
M  V30 20038 C 1909.16 -2.11249 -0.889184 0
M  V30 20039 C 1910.17 -1.05051 -1.24371 0
M  V30 20040 O 1911.36 -1.32488 -1.19621 0
M  V30 20041 C 1908.46 -2.58021 -2.19724 0
M  V30 20042 C 1907.63 -3.88091 -2.01752 0
M  V30 20043 C 1906.69 -4.20674 -3.16101 0
M  V30 20044 O 1905.72 -4.89837 -2.89911 0
M  V30 20045 N 1906.92 -3.76356 -4.41969 0
M  V30 20046 H 1909.69 -2.96624 -0.42832 0
M  V30 20047 H 1907.25 -1.61669 -0.0864254 0
M  V30 20048 H 1909.24 -2.76861 -2.95178 0
M  V30 20049 H 1907.81 -1.77638 -2.57223 0
M  V30 20050 H 1907.03 -3.78364 -1.10608 0
M  V30 20051 H 1908.32 -4.7318 -1.87026 0
M  V30 20052 H 1907.72 -3.20533 -4.66128 0
M  V30 20053 H 1906.27 -4.00344 -5.14361 0
M  V30 20054 N 1909.71 0.175127 -1.56624 0
M  V30 20055 C 1911.12 0.737951 -1.71497 0
M  V30 20056 C 1911.47 1.82962 -0.708475 0
M  V30 20057 O 1910.59 2.16003 0.13096 0
M  V30 20058 C 1911.19 1.34536 -3.10943 0
M  V30 20059 C 1909.75 1.85505 -3.27513 0
M  V30 20060 C 1908.89 0.732564 -2.67449 0
M  V30 20061 H 1911.84 -0.0502185 -1.58621 0
M  V30 20062 H 1911.87 2.21502 -3.09382 0
M  V30 20063 H 1911.38 0.5506 -3.84174 0
M  V30 20064 H 1909.48 2.67637 -2.59232 0
M  V30 20065 H 1909.59 2.00311 -4.35215 0
M  V30 20066 H 1907.96 1.15203 -2.27157 0
M  V30 20067 H 1908.74 -0.050288 -3.43263 0
M  V30 20068 N 1911.18 1.5123 0.44355 0
M  V30 20069 C 1912.41 1.67146 1.21432 0
M  V30 20070 C 1912.82 0.365681 1.85632 0
M  V30 20071 O 1912.16 -0.665141 1.71235 0
M  V30 20072 C 1912.23 2.72562 2.34415 0
M  V30 20073 C 1911.89 4.15341 1.90632 0
M  V30 20074 C 1912.89 5.00323 1.41325 0
M  V30 20075 C 1910.57 4.61409 1.98513 0
M  V30 20076 C 1912.57 6.29431 1.00476 0
M  V30 20077 C 1910.25 5.90515 1.57276 0
M  V30 20078 C 1911.25 6.74353 1.08339 0
M  V30 20079 O 1910.94 8.01046 0.676843 0
M  V30 20080 H 1910.67 0.564225 0.372325 0
M  V30 20081 H 1913.23 1.98375 0.532597 0
M  V30 20082 H 1911.46 2.36634 3.05845 0
M  V30 20083 H 1913.14 2.77419 2.96299 0
M  V30 20084 H 1913.91 4.65938 1.34636 0
M  V30 20085 H 1909.79 3.96279 2.3555 0
M  V30 20086 H 1913.33 6.94821 0.622093 0
M  V30 20087 H 1909.23 6.24415 1.63633 0
M  V30 20088 H 1910 8.14549 0.803247 0
M  V30 20089 N 1912.66 -0.698586 1.41271 0
M  V30 20090 C 1914.08 -1.0088 1.23674 0
M  V30 20091 C 1914.28 -2.01118 0.123961 0
M  V30 20092 O 1913.33 -2.47242 -0.512628 0
M  V30 20093 C 1914.65 -1.53629 2.58493 0
M  V30 20094 C 1916.19 -1.65528 2.65649 0
M  V30 20095 C 1916.67 -2.21679 4.00777 0
M  V30 20096 N 1918.16 -2.29044 4.02608 0
M  V30 20097 C 1918.9 -2.73512 5.03963 0
M  V30 20098 N 1918.39 -3.17607 6.15709 0
M  V30 20099 N 1920.18 -2.73049 4.91326 0
M  V30 20100 H 1912.34 -0.0344888 2.12372 0
M  V30 20101 H 1914.6 -0.0778742 0.944796 0
M  V30 20102 H 1914.3 -0.874339 3.40658 0
M  V30 20103 H 1914.18 -2.51891 2.80768 0
M  V30 20104 H 1916.57 -2.30836 1.83844 0
M  V30 20105 H 1916.65 -0.658201 2.47187 0
M  V30 20106 H 1916.29 -1.56988 4.83029 0
M  V30 20107 H 1916.22 -3.22134 4.16578 0
M  V30 20108 H 1918.71 -1.97922 3.21924 0
M  V30 20109 H 1919.02 -3.50155 6.88921 0
M  V30 20110 H 1917.37 -3.15523 6.1925 0
M  V30 20111 H 1920.56 -2.37947 4.03112 0
M  V30 20112 H 1920.73 -3.07386 5.70454 0
M  V30 20113 N 1914.14 -1.27049 -0.93254 0
M  V30 20114 C 1915.37 -1.15735 -1.7114 0
M  V30 20115 C 1915.78 0.289069 -1.86979 0
M  V30 20116 O 1915.12 1.20906 -1.38302 0
M  V30 20117 C 1915.18 -1.76319 -3.13292 0
M  V30 20118 C 1914.85 -3.25471 -3.20808 0
M  V30 20119 C 1915.84 -4.22172 -3.03425 0
M  V30 20120 C 1913.53 -3.66092 -3.43921 0
M  V30 20121 C 1915.52 -5.57471 -3.09038 0
M  V30 20122 C 1913.21 -5.01522 -3.49168 0
M  V30 20123 C 1914.21 -5.97022 -3.31744 0
M  V30 20124 O 1913.9 -7.29985 -3.36716 0
M  V30 20125 H 1913.63 -0.403495 -0.542372 0
M  V30 20126 H 1916.18 -1.68334 -1.17698 0
M  V30 20127 H 1914.41 -1.18192 -3.68195 0
M  V30 20128 H 1916.1 -1.59788 -3.73125 0
M  V30 20129 H 1916.87 -3.92127 -2.85415 0
M  V30 20130 H 1912.75 -2.92238 -3.56536 0
M  V30 20131 H 1916.29 -6.3199 -2.95356 0
M  V30 20132 H 1912.19 -5.31225 -3.66702 0
M  V30 20133 H 1912.95 -7.3837 -3.53203 0
M  V30 20134 N 1915.62 1.13835 -1.08993 0
M  V30 20135 C 1916.85 1.88861 -0.844923 0
M  V30 20136 C 1917.26 1.78897 0.603444 0
M  V30 20137 O 1916.62 1.15246 1.41508 0
M  V30 20138 C 1916.67 3.38622 -1.26559 0
M  V30 20139 O 1916.39 3.48321 -2.65714 0
M  V30 20140 C 1917.89 4.30629 -1.05232 0
M  V30 20141 H 1915.11 0.598038 -0.304288 0
M  V30 20142 H 1917.65 1.44129 -1.45076 0
M  V30 20143 H 1915.81 3.80954 -0.703737 0
M  V30 20144 H 1916.22 4.41387 -2.83333 0
M  V30 20145 H 1917.7 5.34057 -1.39598 0
M  V30 20146 H 1918.17 4.39199 0.0102308 0
M  V30 20147 H 1918.78 3.9406 -1.5999 0
M  V30 20148 N 1917.1 0.876467 1.3098 0
M  V30 20149 C 1918.34 0.491367 1.96757 0
M  V30 20150 C 1918.67 -0.955274 1.6908 0
M  V30 20151 O 1917.95 -1.6737 0.990843 0
M  V30 20152 C 1918.23 0.756745 3.52059 0
M  V30 20153 C 1918.09 2.25339 3.89284 0
M  V30 20154 C 1919.4 0.227549 4.39511 0
M  V30 20155 H 1916.52 0.179998 0.714681 0
M  V30 20156 H 1919.17 1.0989 1.54997 0
M  V30 20157 H 1917.32 0.239657 3.8776 0
M  V30 20158 H 1918.99 2.83824 3.63651 0
M  V30 20159 H 1917.23 2.72341 3.37658 0
M  V30 20160 H 1917.9 2.38971 4.97591 0
M  V30 20161 H 1920.38 0.670016 4.1067 0
M  V30 20162 H 1919.25 0.442629 5.47112 0
M  V30 20163 H 1919.51 -0.870833 4.33438 0
M  V30 20164 N 1918.57 -1.44173 0.636557 0
M  V30 20165 C 1919.52 -2.30708 -0.0651156 0
M  V30 20166 C 1920.49 -1.43795 -0.831389 0
M  V30 20167 O 1921.68 -1.7269 -0.81134 0
M  V30 20168 C 1918.82 -3.2915 -1.03703 0
M  V30 20169 C 1917.93 -4.31164 -0.268603 0
M  V30 20170 C 1917.06 -5.16696 -1.23282 0
M  V30 20171 C 1916.1 -6.10415 -0.453864 0
M  V30 20172 N 1915.24 -6.88628 -1.36881 0
M  V30 20173 H 1920.08 -2.90167 0.678744 0
M  V30 20174 H 1917.62 -1.42961 0.346492 0
M  V30 20175 H 1919.57 -3.84717 -1.61395 0
M  V30 20176 H 1918.2 -2.71379 -1.74795 0
M  V30 20177 H 1917.26 -3.78026 0.424338 0
M  V30 20178 H 1918.57 -4.97655 0.337844 0
M  V30 20179 H 1917.72 -5.76807 -1.88091 0
M  V30 20180 H 1916.46 -4.50292 -1.87318 0
M  V30 20181 H 1915.47 -5.49408 0.207683 0
M  V30 20182 H 1916.69 -6.78856 0.181863 0
M  V30 20183 H 1914.64 -6.24887 -1.99629 0
M  V30 20184 H 1914.55 -7.51578 -0.816523 0
M  V30 20185 H 1915.82 -7.53258 -2.00558 0
M  V30 20186 N 1920.05 -0.377435 -1.53014 0
M  V30 20187 C 1921.01 0.451217 -2.24715 0
M  V30 20188 C 1922.01 1.00001 -1.25923 0
M  V30 20189 O 1923.2 0.883884 -1.5011 0
M  V30 20190 C 1920.34 1.63185 -2.99305 0
M  V30 20191 H 1921.53 -0.176358 -2.99381 0
M  V30 20192 H 1919.08 -0.12933 -1.55764 0
M  V30 20193 H 1919.82 2.29718 -2.2891 0
M  V30 20194 H 1919.6 1.24517 -3.71804 0
M  V30 20195 H 1921.09 2.2188 -3.53778 0
M  V30 20196 N 1921.53 1.57237 -0.106922 0
M  V30 20197 C 1922.95 1.57634 0.249708 0
M  V30 20198 C 1923.15 1.11888 1.67581 0
M  V30 20199 O 1922.2 0.80073 2.39467 0
M  V30 20200 C 1923.52 3.00688 0.0273757 0
M  V30 20201 C 1925.06 3.12858 0.0942116 0
M  V30 20202 C 1925.54 4.5789 -0.100275 0
M  V30 20203 N 1927.03 4.63177 -0.045837 0
M  V30 20204 C 1927.76 5.73144 -0.171398 0
M  V30 20205 N 1927.26 6.91903 -0.352455 0
M  V30 20206 N 1929.05 5.61989 -0.111827 0
M  V30 20207 H 1921.2 1.85278 -1.03855 0
M  V30 20208 H 1923.47 0.855717 -0.407985 0
M  V30 20209 H 1923.17 3.38399 -0.958063 0
M  V30 20210 H 1923.05 3.6937 0.764546 0
M  V30 20211 H 1925.43 2.75012 1.07016 0
M  V30 20212 H 1925.52 2.46743 -0.674643 0
M  V30 20213 H 1925.16 4.96433 -1.07315 0
M  V30 20214 H 1925.09 5.22081 0.688418 0
M  V30 20215 H 1927.58 3.7779 0.0910806 0
M  V30 20216 H 1927.89 7.7155 -0.439454 0
M  V30 20217 H 1926.24 6.93915 -0.388274 0
M  V30 20218 H 1929.43 4.68091 0.0285732 0
M  V30 20219 H 1929.6 6.47649 -0.213127 0
M  V30 20220 N 1923.01 -0.166818 1.56715 0
M  V30 20221 C 1923.96 -1.22576 1.97681 0
M  V30 20222 C 1924.95 -1.45578 0.866218 0
M  V30 20223 O 1926.16 -1.46105 1.05135 0
M  V30 20224 H 1922.53 -0.412144 0.629 0
M  V30 20225 H 1924.5 -0.853418 2.85936 0
M  V30 20226 C 1923.25 -2.55649 2.35667 0
M  V30 20227 H 1922.57 -2.38774 3.20666 0
M  V30 20228 H 1924.01 -3.28421 2.68171 0
M  V30 20229 C 1922.47 -3.14737 1.20177 0
M  V30 20230 O 1923 -3.98678 0.491844 0
M  V30 20231 N 1921.21 -2.73892 0.971164 0
M  V30 20232 H 1920.76 -2.05732 1.55023 0
M  V30 20233 H 1920.71 -3.13761 0.20029 0
M  V30 20234 N 1924.49 -1.51463 -0.435524 0
M  V30 20235 C 1925.73 -1.63897 -1.18247 0
M  V30 20236 C 1926.06 -0.358322 -1.9168 0
M  V30 20237 O 1925.33 0.625888 -1.85633 0
M  V30 20238 H 1923.91 -0.60404 -0.439482 0
M  V30 20239 H 1926.57 -1.884 -0.49915 0
M  V30 20240 H 1925.66 -2.46749 -1.91105 0
M  V30 20241 N 1925.96 0.691085 -1.4164 0
M  V30 20242 C 1926.93 1.78671 -1.43559 0
M  V30 20243 C 1927.93 1.5747 -0.325543 0
M  V30 20244 O 1929.12 1.64061 -0.585631 0
M  V30 20245 C 1926.25 3.17102 -1.25135 0
M  V30 20246 H 1927.44 1.78361 -2.41096 0
M  V30 20247 H 1925 0.899148 -1.27848 0
M  V30 20248 H 1925.73 3.23049 -0.284567 0
M  V30 20249 H 1925.52 3.33893 -2.05567 0
M  V30 20250 H 1927.01 3.97071 -1.29324 0
M  V30 20251 N 1927.44 1.27542 0.925789 0
M  V30 20252 C 1928.69 1.13767 1.67038 0
M  V30 20253 C 1929.01 -0.316603 1.92413 0
M  V30 20254 O 1928.28 -1.22124 1.53175 0
M  V30 20255 H 1926.86 0.41803 0.61908 0
M  V30 20256 H 1929.52 1.60097 1.11153 0
M  V30 20257 H 1928.62 1.66818 2.63777 0
M  V30 20258 N 1928.92 -1.13255 1.09595 0
M  V30 20259 C 1930.17 -1.85055 0.844167 0
M  V30 20260 C 1930.52 -1.82017 -0.623506 0
M  V30 20261 O 1929.81 -1.24858 -1.45331 0
M  V30 20262 C 1930.01 -3.32304 1.31562 0
M  V30 20263 C 1929.84 -3.49682 2.82759 0
M  V30 20264 C 1928.61 -3.63823 3.50658 0
M  V30 20265 C 1930.81 -3.45578 3.80894 0
M  V30 20266 N 1928.79 -3.69479 4.90264 0
M  V30 20267 C 1930.16 -3.57624 5.06463 0
M  V30 20268 C 1932.21 -3.28989 3.73725 0
M  V30 20269 C 1930.92 -3.54795 6.2571 0
M  V30 20270 C 1932.94 -3.27469 4.92461 0
M  V30 20271 C 1932.3 -3.40068 6.16874 0
M  V30 20272 H 1928.4 -0.693278 0.361787 0
M  V30 20273 H 1930.99 -1.35652 1.39666 0
M  V30 20274 H 1929.16 -3.80269 0.790555 0
M  V30 20275 H 1930.89 -3.9192 1.00898 0
M  V30 20276 H 1927.65 -3.65571 3.01089 0
M  V30 20277 H 1928.07 -3.75994 5.6299 0
M  V30 20278 H 1932.71 -3.18149 2.78462 0
M  V30 20279 H 1930.43 -3.64408 7.21272 0
M  V30 20280 H 1934.02 -3.15828 4.88614 0
M  V30 20281 H 1932.9 -3.38855 7.07211 0
M  V30 20282 N 1930.4 -0.883401 -1.30514 0
M  V30 20283 C 1931.65 -0.500062 -1.95816 0
M  V30 20284 C 1931.97 0.953596 -1.70093 0
M  V30 20285 O 1931.24 1.67027 -1.02365 0
M  V30 20286 H 1929.82 -0.181936 -0.724506 0
M  V30 20287 H 1932.48 -1.12613 -1.59073 0
M  V30 20288 H 1931.58 -0.668998 -3.04846 0
M  V30 20289 N 1931.88 1.43833 -0.644194 0
M  V30 20290 C 1933.29 1.85218 -0.23478 0
M  V30 20291 C 1933.64 1.53918 1.2167 0
M  V30 20292 O 1932.76 0.983677 1.92751 0
M  V30 20293 C 1933.36 3.36195 -0.419327 0
M  V30 20294 C 1931.92 3.76345 -0.0643105 0
M  V30 20295 C 1931.06 2.67614 -0.726506 0
M  V30 20296 H 1934.02 1.34114 -0.84848 0
M  V30 20297 H 1934.04 3.78997 0.33787 0
M  V30 20298 H 1933.55 3.58944 -1.47582 0
M  V30 20299 H 1931.65 3.59209 0.989939 0
M  V30 20300 H 1931.76 4.76654 -0.483481 0
M  V30 20301 H 1930.13 2.54193 -0.160575 0
M  V30 20302 H 1930.91 2.93193 -1.78585 0
M  V30 20303 N 1933.35 0.385544 1.52811 0
M  V30 20304 C 1934.26 -0.45885 2.30069 0
M  V30 20305 C 1935.28 -1.07486 1.36831 0
M  V30 20306 O 1936.46 -1.08148 1.699 0
M  V30 20307 C 1933.52 -1.57281 3.08972 0
M  V30 20308 C 1932.58 -0.98229 4.17911 0
M  V30 20309 C 1931.82 -2.04316 4.93042 0
M  V30 20310 O 1932.04 -3.25761 4.68226 0
M  V30 20311 O 1930.97 -1.66256 5.78483 0
M  V30 20312 H 1934.8 0.170416 3.03221 0
M  V30 20313 H 1932.38 0.149363 1.48651 0
M  V30 20314 H 1934.27 -2.22003 3.5818 0
M  V30 20315 H 1932.94 -2.18711 2.38637 0
M  V30 20316 H 1931.85 -0.298428 3.72908 0
M  V30 20317 H 1933.18 -0.412261 4.9047 0
M  V30 20318 N 1934.83 -1.57178 0.115259 0
M  V30 20319 C 1936.25 -1.57765 -0.241345 0
M  V30 20320 C 1936.45 -1.12775 -1.66985 0
M  V30 20321 O 1935.5 -0.813419 -2.39039 0
M  V30 20322 C 1936.82 -3.00698 -0.0114291 0
M  V30 20323 C 1938.37 -3.12904 -0.0776187 0
M  V30 20324 C 1938.84 -4.57831 0.124557 0
M  V30 20325 N 1940.33 -4.63146 0.0703998 0
M  V30 20326 C 1941.07 -5.73045 0.20179 0
M  V30 20327 N 1940.56 -6.91706 0.389143 0
M  V30 20328 N 1942.36 -5.61922 0.141629 0
M  V30 20329 H 1934.51 -1.84725 1.04836 0
M  V30 20330 H 1936.77 -0.853542 0.412517 0
M  V30 20331 H 1936.48 -3.37886 0.975995 0
M  V30 20332 H 1936.35 -3.69771 -0.744947 0
M  V30 20333 H 1938.74 -2.75575 -1.05556 0
M  V30 20334 H 1938.82 -2.46382 0.687719 0
M  V30 20335 H 1938.46 -4.95857 1.09946 0
M  V30 20336 H 1938.39 -5.22439 -0.660721 0
M  V30 20337 H 1940.88 -3.77833 -0.0710442 0
M  V30 20338 H 1941.2 -7.71306 0.480365 0
M  V30 20339 H 1939.54 -6.93699 0.425069 0
M  V30 20340 H 1942.73 -4.681 -0.00374873 0
M  V30 20341 H 1942.9 -6.47527 0.24747 0
M  V30 20342 N 1936.31 0.158505 -1.56801 0
M  V30 20343 C 1937.22 1.2157 -2.00644 0
M  V30 20344 C 1938.24 1.47694 -0.919914 0
M  V30 20345 O 1939.41 1.59591 -1.22853 0
M  V30 20346 C 1936.48 2.53191 -2.36844 0
M  V30 20347 C 1935.54 2.34816 -3.59389 0
M  V30 20348 C 1934.77 3.60161 -3.93853 0
M  V30 20349 O 1935 4.65871 -3.29121 0
M  V30 20350 O 1933.93 3.53508 -4.8715 0
M  V30 20351 H 1937.76 0.873512 -2.90867 0
M  V30 20352 H 1935.34 0.366356 -1.44839 0
M  V30 20353 H 1937.22 3.30812 -2.6104 0
M  V30 20354 H 1935.9 2.86963 -1.4978 0
M  V30 20355 H 1934.8 1.55184 -3.40395 0
M  V30 20356 H 1936.14 2.05964 -4.47034 0
M  V30 20357 N 1937.79 1.51692 0.427485 0
M  V30 20358 C 1938.75 1.73114 1.50214 0
M  V30 20359 C 1939.75 0.601079 1.49143 0
M  V30 20360 O 1940.94 0.86875 1.50991 0
M  V30 20361 C 1938.07 1.79666 2.89712 0
M  V30 20362 H 1939.27 2.69033 1.32518 0
M  V30 20363 H 1936.82 1.4183 0.656804 0
M  V30 20364 H 1937.56 0.855968 3.128 0
M  V30 20365 H 1937.34 2.61803 2.91893 0
M  V30 20366 H 1938.83 1.98045 3.67652 0
M  V30 20367 N 1939.27 -0.683564 1.42004 0
M  V30 20368 C 1940.52 -1.43934 1.413 0
M  V30 20369 C 1940.83 -1.95578 0.0296606 0
M  V30 20370 O 1942.04 -2.71316 -0.0999859 0
M  V30 20371 C 1940.49 -2.60331 2.48507 0
M  V30 20372 C 1940.1 -2.15424 3.92806 0
M  V30 20373 C 1941.84 -3.37895 2.56957 0
M  V30 20374 C 1939.75 -3.28851 4.91539 0
M  V30 20375 H 1938.68 -0.540693 0.525516 0
M  V30 20376 H 1941.33 -0.740914 1.67877 0
M  V30 20377 H 1939.71 -3.325 2.15081 0
M  V30 20378 H 1940.89 -1.50466 4.35542 0
M  V30 20379 H 1939.2 -1.50822 3.88126 0
M  V30 20380 H 1941.8 -4.22355 3.27903 0
M  V30 20381 H 1942.14 -3.83896 1.61027 0
M  V30 20382 H 1942.68 -2.72791 2.89534 0
M  V30 20383 H 1939.41 -2.87851 5.88916 0
M  V30 20384 H 1938.93 -3.92619 4.53443 0
M  V30 20385 H 1940.61 -3.9445 5.12853 0
M  V30 20386 N 1940.75 -1.28031 -0.919012 0
M  V30 20387 C 1941.99 -1.14258 -1.66217 0
M  V30 20388 C 1942.31 0.309269 -1.9314 0
M  V30 20389 O 1943.51 0.568038 -2.65491 0
M  V30 20390 C 1941.97 -1.99702 -2.99411 0
M  V30 20391 C 1941.58 -3.49596 -2.80155 0
M  V30 20392 C 1943.32 -1.94601 -3.77267 0
M  V30 20393 C 1941.23 -4.27209 -4.08958 0
M  V30 20394 H 1940.16 -0.424009 -0.623484 0
M  V30 20395 H 1942.81 -1.52521 -1.02028 0
M  V30 20396 H 1941.19 -1.5429 -3.64706 0
M  V30 20397 H 1942.37 -4.02929 -2.23574 0
M  V30 20398 H 1940.68 -3.56167 -2.15718 0
M  V30 20399 H 1943.28 -2.49859 -4.72731 0
M  V30 20400 H 1943.62 -0.92157 -4.05971 0
M  V30 20401 H 1944.15 -2.37954 -3.18783 0
M  V30 20402 H 1940.89 -5.30212 -3.8543 0
M  V30 20403 H 1940.41 -3.7865 -4.65171 0
M  V30 20404 H 1942.09 -4.36847 -4.77256 0
M  V30 20405 N 1942.22 1.12672 -1.10194 0
M  V30 20406 C 1943.17 2.20403 -0.743323 0
M  V30 20407 C 1944.17 1.67402 0.259382 0
M  V30 20408 O 1945.37 1.79599 0.120012 0
M  V30 20409 H 1941.75 0.718351 -0.22243 0
M  V30 20410 H 1943.72 2.47907 -1.66087 0
M  V30 20411 C 1942.47 3.47188 -0.188629 0
M  V30 20412 H 1941.79 3.88315 -0.951411 0
M  V30 20413 H 1943.23 4.23993 0.0242649 0
M  V30 20414 C 1941.69 3.19186 1.07806 0
M  V30 20415 O 1942.22 3.38684 2.16 0
M  V30 20416 N 1940.42 2.73009 0.995705 0
M  V30 20417 H 1939.97 2.57342 0.115168 0
M  V30 20418 H 1939.93 2.54649 1.84394 0
M  V30 20419 N 1943.7 0.89031 1.30043 0
M  V30 20420 C 1944.63 0.377386 2.3043 0
M  V30 20421 C 1945.61 -0.542607 1.61213 0
M  V30 20422 O 1946.8 -0.455328 1.88787 0
M  V30 20423 C 1943.93 -0.404264 3.44939 0
M  V30 20424 C 1942.88 0.424448 4.2589 0
M  V30 20425 C 1942.21 -0.48413 5.32504 0
M  V30 20426 C 1943.51 1.6694 4.94902 0
M  V30 20427 H 1945.2 1.21628 2.73582 0
M  V30 20428 H 1942.75 0.586299 1.31524 0
M  V30 20429 H 1944.7 -0.773769 4.14235 0
M  V30 20430 H 1943.42 -1.27685 3.00606 0
M  V30 20431 H 1942.08 0.776162 3.58289 0
M  V30 20432 H 1941.73 -1.35458 4.84417 0
M  V30 20433 H 1941.43 0.0665939 5.87562 0
M  V30 20434 H 1942.96 -0.850034 6.04654 0
M  V30 20435 H 1944.37 1.37017 5.56686 0
M  V30 20436 H 1942.77 2.16073 5.59851 0
M  V30 20437 H 1943.84 2.41077 4.20725 0
M  V30 20438 N 1945.18 -1.43489 0.651812 0
M  V30 20439 C 1946.14 -2.29179 -0.0311937 0
M  V30 20440 C 1947.14 -1.42135 -0.751953 0
M  V30 20441 O 1948.33 -1.63781 -0.593416 0
M  V30 20442 C 1945.46 -3.24168 -1.0549 0
M  V30 20443 H 1946.66 -2.91061 0.722741 0
M  V30 20444 H 1944.21 -1.50746 0.412968 0
M  V30 20445 H 1944.95 -2.67177 -1.83812 0
M  V30 20446 H 1944.73 -3.88339 -0.541752 0
M  V30 20447 H 1946.22 -3.88487 -1.53193 0
M  V30 20448 N 1946.66 -0.393643 -1.52605 0
M  V30 20449 C 1947.89 0.1871 -2.06052 0
M  V30 20450 C 1948.3 1.40154 -1.26501 0
M  V30 20451 O 1947.66 1.798 -0.31279 0
M  V30 20452 C 1947.71 0.552918 -3.57246 0
M  V30 20453 O 1947.43 -0.613274 -4.33786 0
M  V30 20454 C 1948.93 1.18906 -4.27055 0
M  V30 20455 H 1946.15 0.0272042 -0.670448 0
M  V30 20456 H 1948.69 -0.560126 -1.9668 0
M  V30 20457 H 1946.85 1.25004 -3.66678 0
M  V30 20458 H 1947.26 -0.311611 -5.23574 0
M  V30 20459 H 1948.74 1.39535 -5.34073 0
M  V30 20460 H 1949.21 2.15768 -3.82545 0
M  V30 20461 H 1949.82 0.532579 -4.21952 0
M  V30 20462 N 1948.14 1.57115 -0.123593 0
M  V30 20463 C 1949.07 2.12637 0.855463 0
M  V30 20464 C 1950.08 1.07017 1.22683 0
M  V30 20465 O 1951.27 1.34374 1.17498 0
M  V30 20466 C 1948.37 2.61484 2.15591 0
M  V30 20467 C 1947.54 3.91252 1.95553 0
M  V30 20468 C 1946.6 4.25649 3.09369 0
M  V30 20469 O 1945.63 4.94387 2.82082 0
M  V30 20470 N 1946.83 3.83339 4.35926 0
M  V30 20471 H 1949.59 2.97267 0.381076 0
M  V30 20472 H 1947.16 1.61786 0.0606943 0
M  V30 20473 H 1949.15 2.81522 2.90736 0
M  V30 20474 H 1947.72 1.81708 2.54364 0
M  V30 20475 H 1946.94 3.80076 1.04575 0
M  V30 20476 H 1948.23 4.76095 1.79474 0
M  V30 20477 H 1947.62 3.27908 4.6097 0
M  V30 20478 H 1946.18 4.08477 5.07927 0
M  V30 20479 N 1949.61 -0.150187 1.56883 0
M  V30 20480 C 1951.02 -0.710574 1.72649 0
M  V30 20481 C 1951.38 -1.81812 0.737493 0
M  V30 20482 O 1950.5 -2.16184 -0.0965795 0
M  V30 20483 C 1951.1 -1.29572 3.13044 0
M  V30 20484 C 1949.65 -1.80271 3.30423 0
M  V30 20485 C 1948.8 -0.689923 2.6858 0
M  V30 20486 H 1951.75 0.0754473 1.58521 0
M  V30 20487 H 1951.77 -2.16552 3.12867 0
M  V30 20488 H 1951.29 -0.489412 3.85002 0
M  V30 20489 H 1949.39 -2.63479 2.63457 0
M  V30 20490 H 1949.5 -1.93362 4.38347 0
M  V30 20491 H 1947.86 -1.11574 2.28961 0
M  V30 20492 H 1948.65 0.104892 3.4314 0
M  V30 20493 N 1951.09 -1.51916 -0.419434 0
M  V30 20494 C 1952.04 -1.7452 -1.51035 0
M  V30 20495 C 1953.01 -0.587321 -1.5537 0
M  V30 20496 O 1954.19 -0.823744 -1.72102 0
M  V30 20497 C 1951.33 -1.89242 -2.88585 0
M  V30 20498 C 1950.45 -3.16859 -2.9364 0
M  V30 20499 C 1949.58 -3.22072 -4.22426 0
M  V30 20500 C 1948.62 -4.43931 -4.21416 0
M  V30 20501 N 1947.76 -4.46594 -5.41755 0
M  V30 20502 H 1952.6 -2.67631 -1.31063 0
M  V30 20503 H 1950.14 -1.32623 -0.636368 0
M  V30 20504 H 1952.09 -1.9576 -3.68421 0
M  V30 20505 H 1950.72 -0.995211 -3.07076 0
M  V30 20506 H 1949.78 -3.19562 -2.06359 0
M  V30 20507 H 1951.09 -4.06719 -2.88758 0
M  V30 20508 H 1950.24 -3.27605 -5.10647 0
M  V30 20509 H 1948.98 -2.30131 -4.29989 0
M  V30 20510 H 1947.99 -4.38555 -3.31586 0
M  V30 20511 H 1949.21 -5.37155 -4.15501 0
M  V30 20512 H 1947.16 -3.57532 -5.50006 0
M  V30 20513 H 1947.07 -5.30286 -5.38825 0
M  V30 20514 H 1948.34 -4.56343 -6.31958 0
M  V30 20515 N 1952.57 0.676023 -1.42365 0
M  V30 20516 C 1953.99 0.989001 -1.25263 0
M  V30 20517 C 1954.19 2.00896 -0.155941 0
M  V30 20518 O 1953.24 2.48026 0.473229 0
M  V30 20519 C 1954.56 1.49498 -2.60904 0
M  V30 20520 C 1956.1 1.61281 -2.68249 0
M  V30 20521 C 1956.58 2.15275 -4.04253 0
M  V30 20522 N 1958.07 2.2261 -4.06201 0
M  V30 20523 C 1958.8 2.6546 -5.08251 0
M  V30 20524 N 1958.3 3.07771 -6.20684 0
M  V30 20525 N 1960.09 2.65198 -4.95607 0
M  V30 20526 H 1952.24 0.000697929 -2.124 0
M  V30 20527 H 1954.51 0.0628334 -0.945915 0
M  V30 20528 H 1954.21 0.820033 -3.42006 0
M  V30 20529 H 1954.09 2.47392 -2.8474 0
M  V30 20530 H 1956.47 2.27882 -1.87493 0
M  V30 20531 H 1956.56 0.618793 -2.48203 0
M  V30 20532 H 1956.2 1.49284 -4.85466 0
M  V30 20533 H 1956.13 3.15466 -4.2165 0
M  V30 20534 H 1958.62 1.92776 -3.25032 0
M  V30 20535 H 1958.93 3.3915 -6.94404 0
M  V30 20536 H 1957.28 3.05631 -6.24191 0
M  V30 20537 H 1960.47 2.31504 -4.06846 0
M  V30 20538 H 1960.64 2.98272 -5.75272 0
M  V30 20539 N 1954.05 1.28517 0.912209 0
M  V30 20540 C 1955.46 1.14251 1.4766 0
M  V30 20541 C 1955.81 -0.266935 1.94376 0
M  V30 20542 O 1954.94 -1.16134 1.82598 0
M  V30 20543 C 1955.53 2.06792 2.6837 0
M  V30 20544 C 1954.09 1.96587 3.20984 0
M  V30 20545 C 1953.24 1.98444 1.93689 0
M  V30 20546 H 1956.19 1.41184 0.724769 0
M  V30 20547 H 1956.21 1.63282 3.43685 0
M  V30 20548 H 1955.72 3.09365 2.34339 0
M  V30 20549 H 1953.82 0.970565 3.59737 0
M  V30 20550 H 1953.93 2.83622 3.86129 0
M  V30 20551 H 1952.3 1.42872 2.10855 0
M  V30 20552 H 1953.08 3.02699 1.61951 0
M  V30 20553 N 1955.53 -1.12086 1.1079 0
M  V30 20554 C 1956.46 -2.17072 0.70392 0
M  V30 20555 C 1957.44 -1.59873 -0.296571 0
M  V30 20556 O 1958.62 -1.87493 -0.194599 0
M  V30 20557 C 1955.75 -3.38677 0.0392219 0
M  V30 20558 C 1954.79 -4.1452 1.00377 0
M  V30 20559 S 1955.63 -4.72343 2.52294 0
M  V30 20560 C 1956.78 -5.97279 1.87106 0
M  V30 20561 H 1957.02 -2.51004 1.59325 0
M  V30 20562 H 1954.55 -1.23605 0.925262 0
M  V30 20563 H 1956.51 -4.09107 -0.33795 0
M  V30 20564 H 1955.17 -3.03018 -0.82696 0
M  V30 20565 H 1954.36 -5.01651 0.486009 0
M  V30 20566 H 1953.96 -3.49817 1.32304 0
M  V30 20567 H 1956.26 -6.66726 1.20346 0
M  V30 20568 H 1957.2 -6.53688 2.72208 0
M  V30 20569 H 1957.61 -5.4851 1.33405 0
M  V30 20570 N 1957 -0.897194 -1.29569 0
M  V30 20571 C 1958.23 -0.536465 -2.00342 0
M  V30 20572 C 1958.65 0.87088 -1.66725 0
M  V30 20573 O 1958.01 1.57924 -0.890492 0
M  V30 20574 C 1958.06 -0.732781 -3.53076 0
M  V30 20575 O 1957.16 0.215848 -4.11835 0
M  V30 20576 H 1956.51 -0.209904 -0.62995 0
M  V30 20577 H 1959.04 -1.20809 -1.65125 0
M  V30 20578 H 1959.05 -0.636468 -4.03005 0
M  V30 20579 H 1957.72 -1.75882 -3.7688 0
M  V30 20580 H 1956.3 0.0722012 -3.7283 0
M  V30 20581 N 1958.48 1.43142 -0.659413 0
M  V30 20582 C 1959.73 2.0096 -0.172631 0
M  V30 20583 C 1960.04 1.52669 1.22277 0
M  V30 20584 O 1961.25 2.02802 1.8051 0
M  V30 20585 C 1959.71 3.58975 -0.257802 0
M  V30 20586 C 1959.31 4.16259 -1.65628 0
M  V30 20587 C 1961.06 4.24155 0.171057 0
M  V30 20588 C 1958.97 5.66588 -1.69505 0
M  V30 20589 H 1957.9 0.751547 -0.0607765 0
M  V30 20590 H 1960.55 1.64042 -0.822352 0
M  V30 20591 H 1958.93 3.93325 0.459538 0
M  V30 20592 H 1960.1 3.93398 -2.39947 0
M  V30 20593 H 1958.42 3.63473 -2.03165 0
M  V30 20594 H 1961.01 5.34454 0.162026 0
M  V30 20595 H 1961.36 3.98521 1.2036 0
M  V30 20596 H 1961.89 3.94711 -0.494745 0
M  V30 20597 H 1958.63 5.96998 -2.7069 0
M  V30 20598 H 1958.15 5.91486 -0.995201 0
M  V30 20599 H 1959.83 6.30736 -1.44156 0
M  V30 20600 N 1959.96 0.40173 1.52394 0
M  V30 20601 C 1961.37 -0.0695308 1.8657 0
M  V30 20602 C 1961.72 -1.4508 1.32084 0
M  V30 20603 O 1960.85 -2.06181 0.657149 0
M  V30 20604 C 1961.44 -0.132947 3.38539 0
M  V30 20605 C 1960 -0.548527 3.72382 0
M  V30 20606 C 1959.15 0.281664 2.75866 0
M  V30 20607 H 1962.1 0.619102 1.46126 0
M  V30 20608 H 1962.12 -0.949667 3.68458 0
M  V30 20609 H 1961.63 0.872493 3.78166 0
M  V30 20610 H 1959.73 -1.56088 3.3833 0
M  V30 20611 H 1959.85 -0.29805 4.78172 0
M  V30 20612 H 1958.21 -0.254911 2.53421 0
M  V30 20613 H 1958.99 1.28531 3.18331 0
M  V30 20614 N 1961.44 -1.57047 0.131923 0
M  V30 20615 C 1962.69 -1.94807 -0.522807 0
M  V30 20616 C 1963 -1.01837 -1.66998 0
M  V30 20617 O 1964.21 -1.29115 -2.38834 0
M  V30 20618 C 1962.66 -3.4626 -0.981434 0
M  V30 20619 C 1962.27 -4.47787 0.137988 0
M  V30 20620 C 1964.01 -3.92915 -1.60681 0
M  V30 20621 C 1961.92 -5.90433 -0.338063 0
M  V30 20622 H 1960.85 -0.727245 -0.199076 0
M  V30 20623 H 1963.5 -1.8225 0.213851 0
M  V30 20624 H 1961.88 -3.54096 -1.7729 0
M  V30 20625 H 1963.06 -4.51632 0.914591 0
M  V30 20626 H 1961.37 -4.10961 0.670823 0
M  V30 20627 H 1963.97 -4.96914 -1.97434 0
M  V30 20628 H 1964.31 -3.33615 -2.49011 0
M  V30 20629 H 1964.85 -3.87933 -0.880514 0
M  V30 20630 H 1961.59 -6.53517 0.509502 0
M  V30 20631 H 1961.11 -5.89981 -1.08087 0
M  V30 20632 H 1962.78 -6.42096 -0.795053 0
M  V30 20633 N 1962.92 0.141865 -1.5696 0
M  V30 20634 C 1964.17 0.852066 -1.82819 0
M  V30 20635 C 1964.48 1.82103 -0.713987 0
M  V30 20636 O 1965.68 2.57575 -0.858321 0
M  V30 20637 C 1964.14 1.56589 -3.24049 0
M  V30 20638 C 1963.75 0.639071 -4.43418 0
M  V30 20639 C 1965.49 2.26257 -3.59177 0
M  V30 20640 C 1963.4 1.35481 -5.75673 0
M  V30 20641 H 1962.33 0.321934 -0.681817 0
M  V30 20642 H 1964.98 0.104791 -1.83201 0
M  V30 20643 H 1963.36 2.35898 -3.1807 0
M  V30 20644 H 1964.54 -0.119159 -4.60646 0
M  V30 20645 H 1962.85 0.0505413 -4.16369 0
M  V30 20646 H 1965.45 2.80455 -4.55246 0
M  V30 20647 H 1965.79 3.02992 -2.85485 0
M  V30 20648 H 1966.32 1.53861 -3.6684 0
M  V30 20649 H 1963.06 0.629214 -6.52473 0
M  V30 20650 H 1962.58 2.08562 -5.62372 0
M  V30 20651 H 1964.26 1.89432 -6.18647 0
M  V30 20652 N 1964.39 1.52136 0.411372 0
M  V30 20653 C 1965.81 1.58274 0.990272 0
M  V30 20654 C 1966.16 0.421874 1.91611 0
M  V30 20655 O 1965.28 -0.458058 2.11497 0
M  V30 20656 C 1965.88 2.86855 1.80276 0
M  V30 20657 C 1964.44 2.95478 2.33173 0
M  V30 20658 C 1963.58 2.5319 1.13093 0
M  V30 20659 H 1966.53 1.57538 0.191687 0
M  V30 20660 H 1966.55 2.72082 2.65992 0
M  V30 20661 H 1966.07 3.71326 1.12866 0
M  V30 20662 H 1964.17 2.15496 3.03961 0
M  V30 20663 H 1964.28 3.99674 2.64192 0
M  V30 20664 H 1962.64 2.06986 1.48421 0
M  V30 20665 H 1963.43 3.40032 0.472529 0
M  V30 20666 N 1965.87 -0.668464 1.42721 0
M  V30 20667 C 1967.15 -1.42481 1.3401 0
M  V30 20668 C 1967.53 -2.11091 -0.0194821 0
M  V30 20669 O 1966.88 -2.037 -1.03531 0
M  V30 20670 C 1967.09 -2.42205 2.51272 0
M  V30 20671 C 1968.44 -3.0666 2.93675 0
M  V30 20672 O 1969.46 -2.52532 2.51209 0
M  V30 20673 O 1968.32 -4.04761 3.67193 0
M  V30 20674 H 1965.41 -0.635831 0.528818 0
M  V30 20675 H 1967.96 -0.696654 1.54741 0
M  V30 20676 H 1966.73 -1.90349 3.41881 0
M  V30 20677 H 1966.35 -3.22492 2.32561 0
M  V30 20678 N 1967.35 -1.28999 -0.905381 0
M  V30 20679 C 1968.6 -1.16014 -1.64996 0
M  V30 20680 C 1968.91 0.288766 -1.93457 0
M  V30 20681 O 1970.12 0.539847 -2.66079 0
M  V30 20682 C 1968.58 -2.02866 -2.97276 0
M  V30 20683 C 1968.18 -3.52547 -2.76432 0
M  V30 20684 C 1969.93 -1.98591 -3.75182 0
M  V30 20685 C 1967.83 -4.31522 -4.04404 0
M  V30 20686 H 1966.76 -0.430598 -0.618952 0
M  V30 20687 H 1969.42 -1.53594 -1.00404 0
M  V30 20688 H 1967.8 -1.5815 -3.63049 0
M  V30 20689 H 1968.97 -4.05277 -2.19287 0
M  V30 20690 H 1967.29 -3.58435 -2.11928 0
M  V30 20691 H 1969.88 -2.54859 -4.70054 0
M  V30 20692 H 1970.23 -0.964577 -4.04971 0
M  V30 20693 H 1970.76 -2.41321 -3.16242 0
M  V30 20694 H 1967.5 -5.3427 -3.79784 0
M  V30 20695 H 1967.02 -3.83563 -4.61129 0
M  V30 20696 H 1968.7 -4.41885 -4.72596 0
M  V30 20697 N 1968.83 1.11497 -1.11383 0
M  V30 20698 C 1970.24 1.64742 -0.878467 0
M  V30 20699 C 1970.59 1.87138 0.589393 0
M  V30 20700 O 1969.72 1.60515 1.45134 0
M  V30 20701 C 1970.31 2.99271 -1.58815 0
M  V30 20702 C 1968.87 3.49426 -1.39923 0
M  V30 20703 C 1968.02 2.24248 -1.6312 0
M  V30 20704 H 1970.97 0.951453 -1.27016 0
M  V30 20705 H 1970.99 3.66215 -1.03281 0
M  V30 20706 H 1970.5 2.82939 -2.65645 0
M  V30 20707 H 1968.6 3.70924 -0.353006 0
M  V30 20708 H 1968.72 4.28255 -2.1479 0
M  V30 20709 H 1967.08 2.31843 -1.05455 0
M  V30 20710 H 1967.86 2.10459 -2.71223 0
M  V30 20711 N 1970.31 0.904053 1.29092 0
M  V30 20712 C 1971.56 0.528154 1.94662 0
M  V30 20713 C 1971.87 -0.930986 1.72023 0
M  V30 20714 O 1973.08 -1.4146 2.31735 0
M  V30 20715 C 1971.53 0.893684 3.48628 0
M  V30 20716 C 1971.14 2.37189 3.8006 0
M  V30 20717 C 1972.88 0.587904 4.20409 0
M  V30 20718 C 1970.79 2.67805 5.2729 0
M  V30 20719 H 1969.72 0.193795 0.72867 0
M  V30 20720 H 1972.37 1.10164 1.46752 0
M  V30 20721 H 1970.75 0.249078 3.95216 0
M  V30 20722 H 1971.93 3.06241 3.44315 0
M  V30 20723 H 1970.24 2.64714 3.21428 0
M  V30 20724 H 1972.84 0.793441 5.2878 0
M  V30 20725 H 1973.18 -0.473803 4.13595 0
M  V30 20726 H 1973.72 1.19054 3.79567 0
M  V30 20727 H 1970.45 3.72791 5.39172 0
M  V30 20728 H 1969.97 2.03381 5.64266 0
M  V30 20729 H 1971.65 2.543 5.94929 0
M  V30 20730 N 1971.79 -1.4279 0.666995 0
M  V30 20731 C 1973.03 -2.01942 0.186305 0
M  V30 20732 C 1973.36 -1.52579 -1.20139 0
M  V30 20733 O 1972.64 -0.724677 -1.80496 0
M  V30 20734 C 1972.92 -3.59474 0.212322 0
M  V30 20735 C 1972.78 -4.19035 1.63491 0
M  V30 20736 C 1974.09 -4.37857 -0.443762 0
M  V30 20737 H 1971.21 -0.733747 0.0691733 0
M  V30 20738 H 1973.86 -1.69912 0.850298 0
M  V30 20739 H 1972.01 -3.86892 -0.353062 0
M  V30 20740 H 1973.68 -4.02598 2.25195 0
M  V30 20741 H 1971.92 -3.75161 2.178 0
M  V30 20742 H 1972.59 -5.28155 1.60486 0
M  V30 20743 H 1975.07 -4.16083 0.0374331 0
M  V30 20744 H 1973.94 -5.47478 -0.394887 0
M  V30 20745 H 1974.2 -4.15144 -1.52012 0
M  V30 20746 N 1973.26 -0.409806 -1.52179 0
M  V30 20747 C 1974.54 0.224342 -1.94309 0
M  V30 20748 C 1974.92 1.62561 -1.34674 0
M  V30 20749 O 1974.27 2.22438 -0.522817 0
M  V30 20750 C 1974.48 0.22999 -3.48241 0
M  V30 20751 C 1975.83 0.449011 -4.22219 0
M  V30 20752 O 1976.85 0.309316 -3.54854 0
M  V30 20753 O 1975.71 0.724419 -5.41677 0
M  V30 20754 H 1972.8 0.144759 -0.814232 0
M  V30 20755 H 1975.35 -0.465799 -1.63182 0
M  V30 20756 H 1974.12 -0.750731 -3.84031 0
M  V30 20757 H 1973.74 0.964201 -3.85732 0
M  V30 20758 N 1974.74 1.56975 -0.14025 0
M  V30 20759 C 1975.7 2.15234 0.78784 0
M  V30 20760 C 1976.7 1.09243 1.17994 0
M  V30 20761 O 1977.89 1.34916 1.10197 0
M  V30 20762 C 1975.03 2.70994 2.06821 0
M  V30 20763 H 1976.22 2.98579 0.281166 0
M  V30 20764 H 1973.77 1.55918 0.109151 0
M  V30 20765 H 1974.51 1.91297 2.6187 0
M  V30 20766 H 1974.29 3.48532 1.79633 0
M  V30 20767 H 1975.78 3.15904 2.7312 0
M  V30 20768 N 1976.22 -0.133539 1.57033 0
M  V30 20769 C 1977.15 -1.18985 1.95896 0
M  V30 20770 C 1978.16 -1.38453 0.856426 0
M  V30 20771 O 1979.35 -1.37785 1.13479 0
M  V30 20772 C 1976.45 -2.55242 2.22946 0
M  V30 20773 C 1975.63 -2.56572 3.54245 0
M  V30 20774 C 1974.69 -3.74467 3.69677 0
M  V30 20775 O 1973.71 -3.5872 4.41937 0
M  V30 20776 N 1974.91 -4.92459 3.0735 0
M  V30 20777 H 1977.68 -0.859396 2.87114 0
M  V30 20778 H 1975.24 -0.32297 1.58646 0
M  V30 20779 H 1977.23 -3.32645 2.30498 0
M  V30 20780 H 1975.8 -2.80526 1.37926 0
M  V30 20781 H 1975.02 -1.64988 3.58012 0
M  V30 20782 H 1976.31 -2.54504 4.40574 0
M  V30 20783 H 1975.71 -5.08156 2.48584 0
M  V30 20784 H 1974.26 -5.6759 3.20445 0
M  V30 20785 N 1977.7 -1.52352 -0.403298 0
M  V30 20786 C 1978.92 -1.70849 -1.17582 0
M  V30 20787 C 1979.35 -0.419696 -1.83358 0
M  V30 20788 O 1978.71 0.623346 -1.70247 0
M  V30 20789 C 1978.75 -2.8492 -2.21027 0
M  V30 20790 O 1977.86 -2.50896 -3.273 0
M  V30 20791 H 1977.2 -0.568568 -0.342967 0
M  V30 20792 H 1979.73 -1.99082 -0.471975 0
M  V30 20793 H 1979.74 -3.10002 -2.6526 0
M  V30 20794 H 1978.41 -3.78423 -1.72536 0
M  V30 20795 H 1976.99 -2.36506 -2.88304 0
M  V30 20796 N 1979.18 0.660885 -1.43074 0
M  V30 20797 C 1980.42 1.41805 -1.43999 0
M  V30 20798 C 1980.74 1.949 -0.0625341 0
M  V30 20799 O 1980.01 1.7395 0.901019 0
M  V30 20800 H 1978.59 0.526263 -0.530147 0
M  V30 20801 H 1981.26 0.779967 -1.78613 0
M  V30 20802 H 1980.35 2.2642 -2.14803 0
M  V30 20803 N 1980.65 1.29477 0.898527 0
M  V30 20804 C 1981.56 1.16595 2.03575 0
M  V30 20805 C 1982.58 0.0889285 1.73773 0
M  V30 20806 O 1983.76 0.301228 1.99135 0
M  V30 20807 C 1980.82 0.844745 3.36251 0
M  V30 20808 C 1979.88 2.00573 3.79564 0
M  V30 20809 C 1979.12 1.69975 5.05909 0
M  V30 20810 O 1979.34 0.621246 5.67007 0
M  V30 20811 O 1978.27 2.54809 5.45303 0
M  V30 20812 H 1982.1 2.12098 2.17367 0
M  V30 20813 H 1979.68 1.0894 1.02237 0
M  V30 20814 H 1981.57 0.680229 4.15874 0
M  V30 20815 H 1980.24 -0.080494 3.236 0
M  V30 20816 H 1979.15 2.22549 3.00704 0
M  V30 20817 H 1980.48 2.91221 3.96801 0
M  V30 20818 N 1982.13 -1.10905 1.11972 0
M  V30 20819 C 1983.41 -1.79218 0.783601 0
M  V30 20820 C 1983.79 -1.9817 -0.727451 0
M  V30 20821 O 1983.14 -1.57084 -1.65942 0
M  V30 20822 C 1983.35 -3.12538 1.55309 0
M  V30 20823 C 1984.7 -3.87492 1.73595 0
M  V30 20824 O 1985.72 -3.22244 1.5178 0
M  V30 20825 O 1984.58 -5.04588 2.09887 0
M  V30 20826 H 1981.67 -0.776524 0.284498 0
M  V30 20827 H 1984.22 -1.17598 1.22347 0
M  V30 20828 H 1982.99 -2.94133 2.58072 0
M  V30 20829 H 1982.61 -3.81874 1.10714 0
M  V30 20830 N 1983.61 -0.910886 -1.2861 0
M  V30 20831 C 1984.84 -0.557522 -1.98935 0
M  V30 20832 C 1985.25 0.864875 -1.68275 0
M  V30 20833 O 1984.59 1.58401 -0.930312 0
M  V30 20834 C 1984.65 -0.683336 -3.52946 0
M  V30 20835 C 1984.32 -2.07475 -4.07189 0
M  V30 20836 C 1985.31 -3.04716 -4.21241 0
M  V30 20837 C 1983 -2.38716 -4.4195 0
M  V30 20838 C 1984.99 -4.31315 -4.69303 0
M  V30 20839 C 1982.68 -3.65555 -4.89707 0
M  V30 20840 C 1983.68 -4.61669 -5.0334 0
M  V30 20841 O 1983.37 -5.86254 -5.50056 0
M  V30 20842 H 1983.1 -0.211519 -0.642056 0
M  V30 20843 H 1985.65 -1.22539 -1.64843 0
M  V30 20844 H 1983.88 0.0415955 -3.86678 0
M  V30 20845 H 1985.57 -0.337494 -4.04494 0
M  V30 20846 H 1986.34 -2.81898 -3.94662 0
M  V30 20847 H 1982.22 -1.64658 -4.30591 0
M  V30 20848 H 1985.76 -5.0634 -4.79859 0
M  V30 20849 H 1981.66 -3.88199 -5.15724 0
M  V30 20850 H 1982.43 -5.89002 -5.68347 0
M  V30 20851 N 1985.09 1.42434 -0.674558 0
M  V30 20852 C 1986.37 1.95196 -0.125683 0
M  V30 20853 C 1986.75 1.61499 1.35946 0
M  V30 20854 O 1986.09 0.911023 2.09553 0
M  V30 20855 C 1986.3 3.46762 -0.39457 0
M  V30 20856 C 1987.65 4.2346 -0.310951 0
M  V30 20857 O 1988.68 3.54684 -0.328304 0
M  V30 20858 O 1987.53 5.45914 -0.252937 0
M  V30 20859 H 1984.63 0.826995 -0.00272875 0
M  V30 20860 H 1987.17 1.52263 -0.749271 0
M  V30 20861 H 1985.95 3.64493 -1.42339 0
M  V30 20862 H 1985.57 3.96742 0.261037 0
M  V30 20863 N 1986.57 0.417871 1.51959 0
M  V30 20864 C 1987.79 -0.156736 2.06807 0
M  V30 20865 C 1988.22 -1.37354 1.28512 0
M  V30 20866 O 1987.57 -1.78494 0.317715 0
M  V30 20867 C 1987.62 -0.476913 3.57432 0
M  V30 20868 O 1986.73 -1.56654 3.81488 0
M  V30 20869 H 1986.07 -0.0103873 0.663919 0
M  V30 20870 H 1988.6 0.593593 1.958 0
M  V30 20871 H 1988.61 -0.733026 4.01361 0
M  V30 20872 H 1987.28 0.412542 4.13849 0
M  V30 20873 H 1985.86 -1.30191 3.49435 0
M  V30 20874 N 1988.04 -1.56898 0.148573 0
M  V30 20875 C 1989.29 -1.96175 -0.502146 0
M  V30 20876 C 1989.62 -1.0335 -1.6477 0
M  V30 20877 O 1988.87 -0.0630213 -1.95599 0
M  V30 20878 C 1989.17 -3.41691 -1.04795 0
M  V30 20879 C 1988.84 -4.50895 -0.0206862 0
M  V30 20880 C 1987.5 -4.80488 0.261702 0
M  V30 20881 C 1989.85 -5.16774 0.677784 0
M  V30 20882 C 1987.18 -5.73266 1.24834 0
M  V30 20883 C 1989.53 -6.10615 1.65325 0
M  V30 20884 C 1988.2 -6.38585 1.94332 0
M  V30 20885 H 1987.47 -0.717856 -0.183748 0
M  V30 20886 H 1990.11 -1.90044 0.235735 0
M  V30 20887 H 1988.42 -3.44662 -1.8632 0
M  V30 20888 H 1990.12 -3.6941 -1.56004 0
M  V30 20889 H 1986.71 -4.27865 -0.250964 0
M  V30 20890 H 1990.89 -4.94043 0.472813 0
M  V30 20891 H 1986.15 -5.93229 1.4795 0
M  V30 20892 H 1990.32 -6.60738 2.19997 0
M  V30 20893 H 1987.95 -7.1028 2.70935 0
M  V30 20894 N 1989.52 0.125209 -1.57102 0
M  V30 20895 C 1990.45 1.15521 -2.02922 0
M  V30 20896 C 1991.43 1.43549 -0.912559 0
M  V30 20897 O 1992.62 1.54097 -1.18185 0
M  V30 20898 C 1989.75 2.48297 -2.42829 0
M  V30 20899 C 1988.7 2.34744 -3.57881 0
M  V30 20900 C 1988.03 3.72427 -3.83669 0
M  V30 20901 C 1989.33 1.81317 -4.89818 0
M  V30 20902 H 1991.02 0.774129 -2.89219 0
M  V30 20903 H 1988.57 0.370935 -1.3914 0
M  V30 20904 H 1990.52 3.20597 -2.73487 0
M  V30 20905 H 1989.25 2.88283 -1.53495 0
M  V30 20906 H 1987.9 1.64893 -3.27423 0
M  V30 20907 H 1987.55 4.09887 -2.9155 0
M  V30 20908 H 1987.25 3.64215 -4.61109 0
M  V30 20909 H 1988.78 4.46242 -4.16773 0
M  V30 20910 H 1990.19 2.43429 -5.19052 0
M  V30 20911 H 1988.59 1.83941 -5.71214 0
M  V30 20912 H 1989.66 0.770291 -4.78743 0
M  V30 20913 N 1991 1.52564 0.395213 0
M  V30 20914 C 1991.93 1.71641 1.50382 0
M  V30 20915 C 1992.91 0.564147 1.525 0
M  V30 20916 O 1994.1 0.793198 1.70999 0
M  V30 20917 C 1991.22 1.76838 2.8887 0
M  V30 20918 C 1990.27 2.98527 3.04605 0
M  V30 20919 S 1991.1 4.5862 2.76456 0
M  V30 20920 C 1992.26 4.66624 4.17149 0
M  V30 20921 H 1992.49 2.65402 1.33973 0
M  V30 20922 H 1990.02 1.42778 0.587689 0
M  V30 20923 H 1991.98 1.80518 3.68678 0
M  V30 20924 H 1990.64 0.841802 3.02609 0
M  V30 20925 H 1989.84 2.98686 4.05959 0
M  V30 20926 H 1989.44 2.92806 2.32681 0
M  V30 20927 H 1991.73 4.44856 5.10988 0
M  V30 20928 H 1992.67 5.68608 4.22008 0
M  V30 20929 H 1993.08 3.95522 4.02768 0
M  V30 20930 N 1992.48 -0.653289 1.43422 0
M  V30 20931 C 1993.71 -1.43884 1.4826 0
M  V30 20932 C 1994.12 -1.88941 0.099053 0
M  V30 20933 O 1993.46 -1.60087 -0.900983 0
M  V30 20934 C 1993.52 -2.70658 2.3661 0
M  V30 20935 C 1993.19 -2.47542 3.84151 0
M  V30 20936 C 1994.18 -2.10769 4.75261 0
M  V30 20937 C 1991.87 -2.61868 4.28638 0
M  V30 20938 C 1993.86 -1.8862 6.08853 0
M  V30 20939 C 1991.55 -2.39334 5.62283 0
M  V30 20940 C 1992.55 -2.02766 6.52208 0
M  V30 20941 O 1992.23 -1.80467 7.83382 0
M  V30 20942 H 1991.97 -0.448491 0.505798 0
M  V30 20943 H 1994.52 -0.808217 1.88831 0
M  V30 20944 H 1992.75 -3.3628 1.90927 0
M  V30 20945 H 1994.44 -3.32607 2.32652 0
M  V30 20946 H 1995.21 -1.99277 4.42169 0
M  V30 20947 H 1991.08 -2.89306 3.58919 0
M  V30 20948 H 1994.63 -1.60001 6.79003 0
M  V30 20949 H 1990.53 -2.50429 5.94942 0
M  V30 20950 H 1991.29 -1.94893 7.94959 0
M  V30 20951 N 1993.96 -1.29952 -0.891648 0
M  V30 20952 C 1995.18 -1.21422 -1.68141 0
M  V30 20953 C 1995.61 0.220633 -1.86802 0
M  V30 20954 O 1994.96 1.15902 -1.39414 0
M  V30 20955 C 1995.01 -1.94116 -3.03894 0
M  V30 20956 O 1994.12 -1.26369 -3.92562 0
M  V30 20957 H 1993.46 -0.420318 -0.514032 0
M  V30 20958 H 1995.99 -1.71658 -1.11331 0
M  V30 20959 H 1996 -2.02881 -3.53982 0
M  V30 20960 H 1994.67 -2.98474 -2.89631 0
M  V30 20961 H 1993.25 -1.25915 -3.50998 0
M  V30 20962 N 1995.44 1.1031 -1.12559 0
M  V30 20963 C 1996.71 1.788 -0.793094 0
M  V30 20964 C 1997.09 1.98553 0.716932 0
M  V30 20965 O 1996.44 1.57962 1.65107 0
M  V30 20966 C 1996.65 3.1171 -1.56964 0
M  V30 20967 C 1998 3.86566 -1.75648 0
M  V30 20968 O 1999.02 3.21435 -1.53487 0
M  V30 20969 O 1997.88 5.03468 -2.1256 0
M  V30 20970 H 1994.98 0.775004 -0.288612 0
M  V30 20971 H 1997.52 1.16948 -1.22969 0
M  V30 20972 H 1996.29 2.92761 -2.59628 0
M  V30 20973 H 1995.92 3.81282 -1.12738 0
M  V30 20974 N 1996.91 0.917694 1.28125 0
M  V30 20975 C 1998.19 0.471682 1.89828 0
M  V30 20976 C 1998.57 -1.04974 1.83149 0
M  V30 20977 O 1997.92 -1.89953 1.27004 0
M  V30 20978 C 1998.13 1.00649 3.34172 0
M  V30 20979 C 1999.48 1.06095 4.11131 0
M  V30 20980 O 2000.5 0.955405 3.43148 0
M  V30 20981 O 1999.36 1.22219 5.32658 0
M  V30 20982 H 1996.45 0.150129 0.813259 0
M  V30 20983 H 1999 1.00873 1.36465 0
M  V30 20984 H 1997.77 2.05043 3.33276 0
M  V30 20985 H 1997.39 0.450491 3.9504 0
M  V30 20986 N 1998.39 -1.42074 0.682102 0
M  V30 20987 C 1999.64 -2.01733 0.207714 0
M  V30 20988 C 1999.97 -1.53844 -1.18514 0
M  V30 20989 O 1999.25 -0.74378 -1.79717 0
M  V30 20990 C 1999.53 -3.59228 0.250438 0
M  V30 20991 C 1999.38 -4.17278 1.67927 0
M  V30 20992 C 2000.7 -4.38303 -0.397296 0
M  V30 20993 H 1997.82 -0.732972 0.0769518 0
M  V30 20994 H 2000.46 -1.69 0.868272 0
M  V30 20995 H 1998.61 -3.87245 -0.312007 0
M  V30 20996 H 2000.28 -4.00187 2.29452 0
M  V30 20997 H 1998.53 -3.7283 2.21767 0
M  V30 20998 H 1999.2 -5.26423 1.66079 0
M  V30 20999 H 2001.67 -4.1602 0.0815622 0
M  V30 21000 H 2000.55 -5.47866 -0.336797 0
M  V30 21001 H 2000.81 -4.16733 -1.476 0
M  V30 21002 N 1999.87 -0.425924 -1.51735 0
M  V30 21003 C 2000.8 0.382011 -2.30354 0
M  V30 21004 C 2001.78 1.03124 -1.35276 0
M  V30 21005 O 2002.97 1.03705 -1.64191 0
M  V30 21006 C 2000.1 1.48978 -3.13724 0
M  V30 21007 C 1999.05 0.964659 -4.16987 0
M  V30 21008 C 1998.38 2.1673 -4.88807 0
M  V30 21009 C 1999.68 0.00700314 -5.223 0
M  V30 21010 H 2001.37 -0.274043 -2.98143 0
M  V30 21011 H 1998.92 -0.133238 -1.43382 0
M  V30 21012 H 2000.87 2.06211 -3.67498 0
M  V30 21013 H 1999.59 2.17396 -2.43735 0
M  V30 21014 H 1998.25 0.414618 -3.64248 0
M  V30 21015 H 1997.9 2.83741 -4.15331 0
M  V30 21016 H 1997.6 1.82239 -5.58626 0
M  V30 21017 H 1999.12 2.74538 -5.454 0
M  V30 21018 H 2000.54 0.488665 -5.71214 0
M  V30 21019 H 1998.93 -0.249924 -5.99579 0
M  V30 21020 H 2000 -0.933195 -4.75836 0
M  V30 21021 N 2001.35 1.56817 -0.156891 0
M  V30 21022 C 2002.76 1.58349 0.199431 0
M  V30 21023 C 2002.96 1.17163 1.63937 0
M  V30 21024 O 2002.02 0.87651 2.36799 0
M  V30 21025 C 2003.33 3.00622 -0.0682996 0
M  V30 21026 C 2004.88 3.13 -0.00536951 0
M  V30 21027 C 2005.36 4.57339 -0.245899 0
M  V30 21028 N 2006.85 4.62797 -0.19317 0
M  V30 21029 C 2007.58 5.72308 -0.353652 0
M  V30 21030 N 2007.08 6.90431 -0.5724 0
M  V30 21031 N 2008.87 5.61349 -0.290563 0
M  V30 21032 H 2001.02 1.8188 -1.09697 0
M  V30 21033 H 2003.28 0.842304 -0.435002 0
M  V30 21034 H 2002.99 3.3518 -1.06524 0
M  V30 21035 H 2002.86 3.71616 0.646647 0
M  V30 21036 H 2005.25 2.78277 0.98213 0
M  V30 21037 H 2005.33 2.44472 -0.752801 0
M  V30 21038 H 2004.98 4.92768 -1.23054 0
M  V30 21039 H 2004.91 5.24007 0.521974 0
M  V30 21040 H 2007.4 3.77889 -0.0291566 0
M  V30 21041 H 2007.71 7.69761 -0.684694 0
M  V30 21042 H 2006.06 6.92328 -0.608841 0
M  V30 21043 H 2009.25 4.67945 -0.120361 0
M  V30 21044 H 2009.42 6.46644 -0.419064 0
M  V30 21045 N 2002.83 -0.116876 1.57166 0
M  V30 21046 C 2004.05 -0.842338 1.89524 0
M  V30 21047 C 2004.48 -1.72543 0.749039 0
M  V30 21048 O 2003.83 -1.78795 -0.30035 0
M  V30 21049 C 2003.88 -1.64989 3.20641 0
M  V30 21050 O 2002.99 -2.75701 3.06696 0
M  V30 21051 H 2002.33 -0.232809 0.621849 0
M  V30 21052 H 2004.86 -0.0986366 2.04362 0
M  V30 21053 H 2004.87 -2.03869 3.53414 0
M  V30 21054 H 2003.54 -1.00164 4.03658 0
M  V30 21055 H 2002.12 -2.40009 2.85395 0
M  V30 21056 N 2004.3 -1.52772 -0.387116 0
M  V30 21057 C 2005.71 -1.59829 -0.964966 0
M  V30 21058 C 2006.07 -0.452304 -1.90915 0
M  V30 21059 O 2005.19 0.424353 -2.12199 0
M  V30 21060 C 2005.79 -2.89687 -1.7569 0
M  V30 21061 C 2004.34 -2.99151 -2.28442 0
M  V30 21062 C 2003.49 -2.54957 -1.0905 0
M  V30 21063 H 2006.44 -1.57823 -0.1666 0
M  V30 21064 H 2006.46 -2.76279 -2.6163 0
M  V30 21065 H 2005.98 -3.73074 -1.06945 0
M  V30 21066 H 2004.08 -2.20305 -3.00494 0
M  V30 21067 H 2004.19 -4.03827 -2.578 0
M  V30 21068 H 2002.55 -2.09321 -1.45109 0
M  V30 21069 H 2003.34 -3.40741 -0.418373 0
M  V30 21070 N 2005.78 0.645673 -1.43767 0
M  V30 21071 C 2007.01 1.43799 -1.49454 0
M  V30 21072 C 2007.43 1.87742 -0.115948 0
M  V30 21073 O 2006.79 1.57845 0.891891 0
M  V30 21074 C 2006.84 2.64416 -2.45186 0
M  V30 21075 O 2005.94 3.63742 -1.94334 0
M  V30 21076 H 2005.28 0.430858 -0.50523 0
M  V30 21077 H 2007.81 0.789424 -1.88757 0
M  V30 21078 H 2007.82 3.12139 -2.62741 0
M  V30 21079 H 2006.5 2.31776 -3.4533 0
M  V30 21080 H 2005.07 3.22926 -1.86476 0
M  V30 21081 N 2007.26 1.30423 0.884744 0
M  V30 21082 C 2008.51 1.19023 1.63334 0
M  V30 21083 C 2008.83 -0.255228 1.93322 0
M  V30 21084 O 2008.1 -1.17189 1.56983 0
M  V30 21085 H 2006.68 0.437514 0.605467 0
M  V30 21086 H 2009.34 1.63552 1.06003 0
M  V30 21087 H 2008.44 1.75125 2.58336 0
M  V30 21088 N 2008.74 -1.09711 1.13142 0
M  V30 21089 C 2009.96 -1.86136 0.914785 0
M  V30 21090 C 2010.39 -1.80448 -0.531035 0
M  V30 21091 O 2009.75 -1.17983 -1.37658 0
M  V30 21092 C 2009.79 -3.32164 1.40356 0
M  V30 21093 O 2008.9 -4.08203 0.586881 0
M  V30 21094 H 2008.24 -0.577287 0.328079 0
M  V30 21095 H 2010.77 -1.38563 1.50537 0
M  V30 21096 H 2010.78 -3.83013 1.40589 0
M  V30 21097 H 2009.45 -3.35619 2.45628 0
M  V30 21098 H 2008.03 -3.67153 0.652163 0
M  V30 21099 N 2010.22 -0.924476 -1.27637 0
M  V30 21100 C 2011.15 -0.378387 -2.26055 0
M  V30 21101 C 2012.16 0.489111 -1.55279 0
M  V30 21102 O 2013.35 0.302255 -1.75922 0
M  V30 21103 C 2010.45 0.476771 -3.3553 0
M  V30 21104 C 2009.62 -0.370688 -4.35826 0
M  V30 21105 C 2008.68 0.421299 -5.24511 0
M  V30 21106 O 2007.71 -0.16988 -5.68946 0
M  V30 21107 N 2008.91 1.72187 -5.54375 0
M  V30 21108 H 2011.68 -1.22438 -2.73549 0
M  V30 21109 H 2009.24 -0.791559 -1.4123 0
M  V30 21110 H 2011.23 1.01359 -3.91801 0
M  V30 21111 H 2009.8 1.22351 -2.87661 0
M  V30 21112 H 2009.02 -1.08882 -3.78864 0
M  V30 21113 H 2010.31 -0.950168 -4.99849 0
M  V30 21114 H 2009.7 2.22454 -5.20125 0
M  V30 21115 H 2008.26 2.20529 -6.1336 0
M  V30 21116 N 2011.69 1.41711 -0.689627 0
M  V30 21117 C 2013.11 1.55473 -0.360597 0
M  V30 21118 C 2013.31 1.66635 1.13292 0
M  V30 21119 O 2012.37 1.64148 1.91864 0
M  V30 21120 C 2013.68 2.79704 -1.10392 0
M  V30 21121 C 2015.23 2.93494 -1.08768 0
M  V30 21122 C 2015.7 4.20604 -1.81263 0
M  V30 21123 N 2017.19 4.27549 -1.78203 0
M  V30 21124 C 2017.93 5.24749 -2.3114 0
M  V30 21125 N 2017.42 6.28015 -2.92522 0
M  V30 21126 N 2019.22 5.16648 -2.21429 0
M  V30 21127 H 2011.37 1.3271 -1.65837 0
M  V30 21128 H 2013.63 0.639848 -0.699499 0
M  V30 21129 H 2013.34 2.77645 -2.15885 0
M  V30 21130 H 2013.21 3.71044 -0.678662 0
M  V30 21131 H 2015.6 2.95071 -0.0410356 0
M  V30 21132 H 2015.68 2.03343 -1.55195 0
M  V30 21133 H 2015.32 4.19788 -2.85904 0
M  V30 21134 H 2015.25 5.09716 -1.32275 0
M  V30 21135 H 2017.74 3.53555 -1.33445 0
M  V30 21136 H 2018.06 6.98563 -3.30498 0
M  V30 21137 H 2016.4 6.28534 -2.96598 0
M  V30 21138 H 2019.59 4.34898 -1.73152 0
M  V30 21139 H 2019.77 5.92234 -2.62989 0
M  V30 21140 N 2013.17 0.433965 1.51507 0
M  V30 21141 C 2014.58 -0.0299408 1.86676 0
M  V30 21142 C 2014.93 -1.42245 1.35132 0
M  V30 21143 O 2014.06 -2.0474 0.700735 0
M  V30 21144 C 2014.65 -0.0611079 3.38745 0
M  V30 21145 C 2013.21 -0.469416 3.73461 0
M  V30 21146 C 2012.36 0.340116 2.75206 0
M  V30 21147 H 2015.31 0.649958 1.4478 0
M  V30 21148 H 2015.33 -0.871298 3.7039 0
M  V30 21149 H 2014.84 0.952511 3.7623 0
M  V30 21150 H 2012.95 -1.48876 3.41565 0
M  V30 21151 H 2013.06 -0.196556 4.78697 0
M  V30 21152 H 2011.42 -0.201099 2.53905 0
M  V30 21153 H 2012.21 1.35255 3.15533 0
M  V30 21154 N 2014.65 -1.56732 0.165206 0
M  V30 21155 C 2015.88 -2.01506 -0.490943 0
M  V30 21156 C 2016.3 -1.04466 -1.56424 0
M  V30 21157 O 2015.66 -0.0232331 -1.81285 0
M  V30 21158 C 2015.71 -3.4492 -1.05179 0
M  V30 21159 O 2014.81 -3.50937 -2.16603 0
M  V30 21160 H 2014.15 -0.653393 -0.11821 0
M  V30 21161 H 2016.68 -2.02846 0.267298 0
M  V30 21162 H 2016.69 -3.84099 -1.37593 0
M  V30 21163 H 2015.37 -4.15049 -0.265916 0
M  V30 21164 H 2013.94 -3.23613 -1.85281 0
M  V30 21165 N 2016.13 0.10854 -1.57226 0
M  V30 21166 C 2017.37 0.815673 -1.85673 0
M  V30 21167 C 2017.71 1.79031 -0.752441 0
M  V30 21168 O 2016.98 1.93004 0.240811 0
M  V30 21169 C 2017.27 1.55633 -3.24731 0
M  V30 21170 C 2017.12 0.600595 -4.45772 0
M  V30 21171 C 2018.44 2.51009 -3.61501 0
M  V30 21172 H 2015.56 0.295076 -0.675351 0
M  V30 21173 H 2018.2 0.079634 -1.89833 0
M  V30 21174 H 2016.35 2.18377 -3.21316 0
M  V30 21175 H 2018.02 -0.0187984 -4.61296 0
M  V30 21176 H 2016.26 -0.0870799 -4.33713 0
M  V30 21177 H 2016.93 1.15569 -5.39766 0
M  V30 21178 H 2019.41 1.98365 -3.65774 0
M  V30 21179 H 2018.29 2.99857 -4.59758 0
M  V30 21180 H 2018.55 3.34154 -2.89472 0
M  V30 21181 N 2017.61 1.52975 0.379009 0
M  V30 21182 C 2018.83 1.72698 1.14849 0
M  V30 21183 C 2019.26 0.448814 1.82667 0
M  V30 21184 O 2018.61 -0.596182 1.71217 0
M  V30 21185 C 2018.66 2.884 2.16466 0
M  V30 21186 O 2017.77 2.56071 3.23267 0
M  V30 21187 H 2017.11 0.573952 0.333878 0
M  V30 21188 H 2019.64 1.99807 0.440243 0
M  V30 21189 H 2019.65 3.14183 2.60295 0
M  V30 21190 H 2018.32 3.8112 1.66494 0
M  V30 21191 H 2016.9 2.41063 2.84505 0
M  V30 21192 N 2019.08 -0.63804 1.44107 0
M  V30 21193 C 2020.36 -1.39606 1.37002 0
M  V30 21194 C 2020.74 -2.11085 0.0252978 0
M  V30 21195 O 2020.09 -2.0585 -0.991871 0
M  V30 21196 C 2020.3 -2.3682 2.56353 0
M  V30 21197 C 2021.65 -3.00362 3.00113 0
M  V30 21198 O 2022.67 -2.47147 2.56509 0
M  V30 21199 O 2021.53 -3.96881 3.75696 0
M  V30 21200 H 2018.62 -0.624471 0.542186 0
M  V30 21201 H 2021.17 -0.663674 1.56184 0
M  V30 21202 H 2019.94 -1.83054 3.45842 0
M  V30 21203 H 2019.57 -3.17487 2.39349 0
M  V30 21204 N 2020.56 -1.3089 -0.877815 0
M  V30 21205 C 2021.84 -1.10773 -1.6121 0
M  V30 21206 C 2022.22 0.340404 -2.08337 0
M  V30 21207 O 2021.57 1.33316 -1.85577 0
M  V30 21208 C 2021.78 -2.11499 -2.77613 0
M  V30 21209 C 2023.13 -2.43601 -3.47769 0
M  V30 21210 O 2024.15 -2.09865 -2.87811 0
M  V30 21211 O 2023.01 -3.0134 -4.55913 0
M  V30 21212 H 2020.1 -0.425928 -0.708882 0
M  V30 21213 H 2022.65 -1.42341 -0.923964 0
M  V30 21214 H 2021.42 -3.08943 -2.40146 0
M  V30 21215 H 2021.04 -1.80791 -3.54119 0
M  V30 21216 N 2022.04 1.0911 -1.13723 0
M  V30 21217 C 2023.27 1.85108 -0.924265 0
M  V30 21218 C 2023.68 1.81295 0.527025 0
M  V30 21219 O 2023.04 1.21144 1.36493 0
M  V30 21220 C 2023.09 3.3295 -1.40807 0
M  V30 21221 O 2022.81 3.36738 -2.80249 0
M  V30 21222 C 2024.31 4.25778 -1.23401 0
M  V30 21223 H 2021.53 0.584594 -0.329379 0
M  V30 21224 H 2024.08 1.37847 -1.51058 0
M  V30 21225 H 2022.23 3.77627 -0.864679 0
M  V30 21226 H 2022.65 4.28973 -3.01799 0
M  V30 21227 H 2024.12 5.27655 -1.62123 0
M  V30 21228 H 2024.6 4.38847 -0.176058 0
M  V30 21229 H 2025.2 3.8692 -1.76559 0
M  V30 21230 N 2023.52 0.931232 1.27145 0
M  V30 21231 C 2024.77 0.572394 1.93825 0
M  V30 21232 C 2025.09 -0.88981 1.73515 0
M  V30 21233 O 2024.36 -1.63113 1.08494 0
M  V30 21234 H 2022.94 0.2087 0.717254 0
M  V30 21235 H 2025.6 1.18439 1.54784 0
M  V30 21236 H 2024.7 0.781679 3.02153 0
M  V30 21237 N 2025 -1.41343 0.697132 0
M  V30 21238 C 2026.24 -2.03068 0.232937 0
M  V30 21239 C 2026.6 -1.54026 -1.14629 0
M  V30 21240 O 2027.8 -2.07688 -1.70643 0
M  V30 21241 C 2026.07 -3.56222 0.289923 0
M  V30 21242 S 2027.63 -4.38686 -0.0999966 0
M  V30 21243 H 2024.45 -0.704795 0.0937273 0
M  V30 21244 H 2027.05 -1.72752 0.915256 0
M  V30 21245 H 2025.76 -3.8941 1.29569 0
M  V30 21246 H 2025.29 -3.91242 -0.411492 0
M  V30 21247 H 2027.3 -4.78118 -1.3273 0
M  V30 21248 N 2026.48 -0.441993 -1.51275 0
M  V30 21249 C 2027.72 0.122669 -2.01727 0
M  V30 21250 C 2028.04 1.42804 -1.32786 0
M  V30 21251 O 2027.31 1.90329 -0.463874 0
M  V30 21252 H 2025.89 0.0483227 -0.745435 0
M  V30 21253 H 2028.56 -0.585765 -1.85889 0
M  V30 21254 H 2027.65 0.295224 -3.10701 0
M  V30 21255 N 2027.95 1.56642 -0.173515 0
M  V30 21256 C 2029.2 1.98012 0.465049 0
M  V30 21257 C 2029.55 1.0578 1.60712 0
M  V30 21258 O 2028.85 0.0979001 1.9135 0
M  V30 21259 C 2029.04 3.43315 0.993457 0
M  V30 21260 C 2028.87 4.49598 -0.0958779 0
M  V30 21261 C 2027.64 5.02338 -0.546281 0
M  V30 21262 C 2029.84 5.06416 -0.897069 0
M  V30 21263 N 2027.82 5.92257 -1.61569 0
M  V30 21264 C 2029.19 5.92797 -1.81636 0
M  V30 21265 C 2031.25 4.8891 -0.941903 0
M  V30 21266 C 2029.95 6.63545 -2.7767 0
M  V30 21267 C 2031.98 5.6038 -1.8902 0
M  V30 21268 C 2031.34 6.4649 -2.79696 0
M  V30 21269 H 2027.44 0.769689 0.138214 0
M  V30 21270 H 2030.02 1.92759 -0.274239 0
M  V30 21271 H 2028.19 3.4911 1.70226 0
M  V30 21272 H 2029.92 3.71693 1.60083 0
M  V30 21273 H 2026.68 4.73382 -0.143583 0
M  V30 21274 H 2027.1 6.41921 -2.15095 0
M  V30 21275 H 2031.74 4.22031 -0.254887 0
M  V30 21276 H 2029.46 7.29635 -3.47358 0
M  V30 21277 H 2033.05 5.48819 -1.93102 0
M  V30 21278 H 2031.93 7.00822 -3.51879 0
M  V30 21279 N 2029.43 -0.1002 1.57281 0
M  V30 21280 C 2030.38 -1.12192 2.01697 0
M  V30 21281 C 2031.35 -1.40092 0.892374 0
M  V30 21282 O 2032.53 -1.51641 1.158 0
M  V30 21283 C 2029.67 -2.43833 2.44212 0
M  V30 21284 C 2028.79 -2.22707 3.70169 0
M  V30 21285 C 2027.92 -3.47711 4.01585 0
M  V30 21286 C 2026.96 -3.21825 5.20668 0
M  V30 21287 N 2026.1 -4.39081 5.47862 0
M  V30 21288 H 2030.94 -0.736171 2.88764 0
M  V30 21289 H 2028.47 -0.351977 1.42827 0
M  V30 21290 H 2030.43 -3.20652 2.66904 0
M  V30 21291 H 2029.06 -2.80264 1.60162 0
M  V30 21292 H 2028.11 -1.36715 3.54983 0
M  V30 21293 H 2029.43 -1.99568 4.57137 0
M  V30 21294 H 2028.58 -4.3294 4.25027 0
M  V30 21295 H 2027.32 -3.739 3.1313 0
M  V30 21296 H 2026.32 -2.34988 4.97052 0
M  V30 21297 H 2027.55 -2.96987 6.10717 0
M  V30 21298 H 2025.5 -4.65355 4.62364 0
M  V30 21299 H 2025.41 -4.19114 6.2919 0
M  V30 21300 H 2026.68 -5.2539 5.75835 0
M  V30 21301 N 2030.91 -1.53174 -0.370891 0
M  V30 21302 C 2032.16 -1.69098 -1.11409 0
M  V30 21303 C 2032.48 -0.440066 -1.89456 0
M  V30 21304 O 2031.74 0.577901 -1.86973 0
M  V30 21305 C 2032.04 -2.88881 -2.10435 0
M  V30 21306 C 2031.7 -4.25602 -1.48908 0
M  V30 21307 C 2030.37 -4.62782 -1.31856 0
M  V30 21308 C 2032.72 -5.10648 -1.04346 0
M  V30 21309 C 2030.05 -5.8265 -0.688168 0
M  V30 21310 C 2032.4 -6.31157 -0.427093 0
M  V30 21311 C 2031.06 -6.67054 -0.244019 0
M  V30 21312 H 2030.33 -0.618775 -0.407674 0
M  V30 21313 H 2032.98 -1.8735 -0.396513 0
M  V30 21314 H 2031.28 -2.65119 -2.88477 0
M  V30 21315 H 2032.98 -2.98396 -2.67882 0
M  V30 21316 H 2029.57 -3.96324 -1.63173 0
M  V30 21317 H 2033.76 -4.82477 -1.16315 0
M  V30 21318 H 2029.01 -6.09057 -0.53469 0
M  V30 21319 H 2033.19 -6.96361 -0.0735755 0
M  V30 21320 H 2030.81 -7.598 0.246525 0
M  V30 21321 N 2032.39 0.630389 -1.44443 0
M  V30 21322 C 2033.3 1.77101 -1.53859 0
M  V30 21323 C 2034.31 1.68749 -0.424221 0
M  V30 21324 O 2035.49 1.89513 -0.681673 0
M  V30 21325 C 2032.55 3.13487 -1.48077 0
M  V30 21326 C 2031.62 3.33464 -2.7037 0
M  V30 21327 C 2030.85 4.63344 -2.64855 0
M  V30 21328 O 2031.07 5.44196 -1.70899 0
M  V30 21329 O 2030.01 4.85539 -3.55718 0
M  V30 21330 H 2033.83 1.7211 -2.50223 0
M  V30 21331 H 2031.42 0.791704 -1.26698 0
M  V30 21332 H 2033.3 3.94788 -1.47378 0
M  V30 21333 H 2031.97 3.19018 -0.54856 0
M  V30 21334 H 2030.88 2.51839 -2.76637 0
M  V30 21335 H 2032.21 3.32795 -3.6264 0
M  V30 21336 N 2033.87 1.31354 0.870861 0
M  V30 21337 C 2035.28 1.18891 1.43951 0
M  V30 21338 C 2035.63 -0.204961 1.95126 0
M  V30 21339 O 2034.75 -1.10266 1.862 0
M  V30 21340 C 2035.35 2.15226 2.61655 0
M  V30 21341 C 2033.91 2.06699 3.14567 0
M  V30 21342 C 2033.05 2.04505 1.87277 0
M  V30 21343 H 2036 1.43418 0.679486 0
M  V30 21344 H 2036.03 1.74134 3.38316 0
M  V30 21345 H 2035.54 3.16664 2.24378 0
M  V30 21346 H 2033.64 1.08452 3.56467 0
M  V30 21347 H 2033.75 2.95763 3.7691 0
M  V30 21348 H 2032.12 1.49508 2.06202 0
M  V30 21349 H 2032.9 3.07698 1.52239 0
M  V30 21350 N 2035.34 -1.08505 1.143 0
M  V30 21351 C 2036.27 -2.1741 0.851769 0
M  V30 21352 C 2037.25 -1.69004 -0.192818 0
M  V30 21353 O 2038.44 -1.94136 -0.0497098 0
M  V30 21354 C 2035.57 -3.45754 0.327364 0
M  V30 21355 C 2034.52 -4.07547 1.30728 0
M  V30 21356 C 2033.85 -5.30829 0.642225 0
M  V30 21357 C 2035.15 -4.48945 2.66919 0
M  V30 21358 H 2036.84 -2.42029 1.76245 0
M  V30 21359 H 2034.39 -1.16322 0.848834 0
M  V30 21360 H 2036.34 -4.21253 0.111237 0
M  V30 21361 H 2035.07 -3.20686 -0.618737 0
M  V30 21362 H 2033.73 -3.34077 1.50956 0
M  V30 21363 H 2033.37 -5.02046 -0.309652 0
M  V30 21364 H 2033.07 -5.73128 1.29608 0
M  V30 21365 H 2034.6 -6.09044 0.435598 0
M  V30 21366 H 2036.01 -5.15626 2.50604 0
M  V30 21367 H 2034.41 -5.02158 3.28568 0
M  V30 21368 H 2035.48 -3.60882 3.23871 0
M  V30 21369 N 2036.82 -0.937962 -1.26649 0
M  V30 21370 C 2037.75 -0.462649 -2.28871 0
M  V30 21371 C 2038.73 0.4824 -1.63116 0
M  V30 21372 O 2039.92 0.384947 -1.90347 0
M  V30 21373 C 2037.05 0.275964 -3.46202 0
M  V30 21374 C 2036 -0.582222 -4.24021 0
M  V30 21375 C 2035.33 0.286161 -5.33934 0
M  V30 21376 C 2036.63 -1.85193 -4.88365 0
M  V30 21377 H 2038.32 -1.31698 -2.68879 0
M  V30 21378 H 2035.87 -0.634709 -1.29257 0
M  V30 21379 H 2037.82 0.619496 -4.16822 0
M  V30 21380 H 2036.54 1.1644 -3.05138 0
M  V30 21381 H 2035.2 -0.908604 -3.55162 0
M  V30 21382 H 2034.85 1.17386 -4.89111 0
M  V30 21383 H 2034.55 -0.284618 -5.8691 0
M  V30 21384 H 2036.08 0.625035 -6.07393 0
M  V30 21385 H 2037.49 -1.57584 -5.51217 0
M  V30 21386 H 2035.89 -2.36702 -5.51445 0
M  V30 21387 H 2036.96 -2.56526 -4.11488 0
M  V30 21388 N 2038.3 1.40971 -0.704618 0
M  V30 21389 C 2039.55 2.00682 -0.238954 0
M  V30 21390 C 2039.87 1.56119 1.16842 0
M  V30 21391 O 2039.14 0.795777 1.79009 0
M  V30 21392 H 2037.72 0.742108 -0.0853541 0
M  V30 21393 H 2040.38 1.72467 -0.9078 0
M  V30 21394 H 2039.48 3.10986 -0.26345 0
M  V30 21395 N 2039.78 0.45001 1.51039 0
M  V30 21396 C 2040.69 -0.360857 2.31808 0
M  V30 21397 C 2041.7 -1.01585 1.41267 0
M  V30 21398 O 2042.88 -1.00845 1.74334 0
M  V30 21399 C 2039.95 -1.44034 3.15365 0
M  V30 21400 C 2039.01 -0.804156 4.21701 0
M  V30 21401 C 2038.24 -1.83221 5.01264 0
M  V30 21402 O 2038.46 -3.05609 4.81622 0
M  V30 21403 O 2037.4 -1.41571 5.85014 0
M  V30 21404 H 2041.22 0.298869 3.02226 0
M  V30 21405 H 2038.81 0.212277 1.47884 0
M  V30 21406 H 2040.69 -2.06611 3.67273 0
M  V30 21407 H 2039.36 -2.08392 2.47698 0
M  V30 21408 H 2038.27 -0.139997 3.73838 0
M  V30 21409 H 2039.6 -0.203865 4.91778 0
M  V30 21410 N 2041.26 -1.56548 0.18182 0
M  V30 21411 C 2042.17 -2.22065 -0.756597 0
M  V30 21412 C 2043.18 -1.21554 -1.24501 0
M  V30 21413 O 2044.36 -1.5425 -1.29495 0
M  V30 21414 C 2041.42 -2.85678 -1.9644 0
M  V30 21415 C 2040.48 -4.0142 -1.52185 0
M  V30 21416 C 2039.72 -4.61991 -2.67209 0
M  V30 21417 O 2039.94 -4.21463 -3.8435 0
M  V30 21418 O 2038.87 -5.51685 -2.40682 0
M  V30 21419 H 2042.7 -3.02838 -0.228696 0
M  V30 21420 H 2040.29 -1.49326 -0.0468661 0
M  V30 21421 H 2042.17 -3.25973 -2.67057 0
M  V30 21422 H 2040.84 -2.07894 -2.48116 0
M  V30 21423 H 2039.75 -3.65774 -0.784878 0
M  V30 21424 H 2041.08 -4.80828 -1.0519 0
M  V30 21425 N 2042.73 0.0918577 -1.57332 0
M  V30 21426 C 2043.66 1.11191 -2.05326 0
M  V30 21427 C 2044.65 1.41581 -0.942802 0
M  V30 21428 O 2045.83 1.51555 -1.21428 0
M  V30 21429 C 2042.96 2.4309 -2.48041 0
M  V30 21430 C 2041.91 2.271 -3.6278 0
M  V30 21431 C 2041.24 3.64205 -3.91482 0
M  V30 21432 C 2042.54 1.70886 -4.93554 0
M  V30 21433 H 2044.23 0.712608 -2.90796 0
M  V30 21434 H 2041.78 0.341338 -1.39896 0
M  V30 21435 H 2043.73 3.14724 -2.80226 0
M  V30 21436 H 2042.46 2.84962 -1.59575 0
M  V30 21437 H 2041.12 1.57911 -3.30847 0
M  V30 21438 H 2040.76 4.03611 -3.00179 0
M  V30 21439 H 2040.46 3.54352 -4.68731 0
M  V30 21440 H 2041.99 4.37302 -4.26145 0
M  V30 21441 H 2043.4 2.32364 -5.24099 0
M  V30 21442 H 2041.8 1.71783 -5.74987 0
M  V30 21443 H 2042.87 0.668569 -4.80269 0
M  V30 21444 N 2044.21 1.53368 0.362763 0
M  V30 21445 C 2045.49 1.60294 1.12095 0
M  V30 21446 C 2045.87 0.412218 2.07036 0
M  V30 21447 O 2045.22 -0.597284 2.20556 0
M  V30 21448 C 2045.43 2.95458 1.85757 0
M  V30 21449 C 2046.78 3.50135 2.40189 0
M  V30 21450 O 2047.8 2.97506 1.9588 0
M  V30 21451 O 2046.66 4.42146 3.212 0
M  V30 21452 H 2043.75 0.647572 0.514373 0
M  V30 21453 H 2046.3 1.65711 0.3658 0
M  V30 21454 H 2045.07 3.73561 1.16482 0
M  V30 21455 H 2044.69 2.93545 2.68174 0
M  V30 21456 N 2045.69 -0.62272 1.44776 0
M  V30 21457 C 2046.62 -1.74528 1.5512 0
M  V30 21458 C 2047.6 -1.65241 0.403656 0
M  V30 21459 O 2048.79 -1.83873 0.624863 0
M  V30 21460 C 2045.92 -3.13088 1.5031 0
M  V30 21461 C 2044.87 -3.37172 2.63626 0
M  V30 21462 C 2044.2 -4.75849 2.43868 0
M  V30 21463 C 2045.5 -3.28908 4.0573 0
M  V30 21464 H 2047.19 -1.66128 2.49082 0
M  V30 21465 H 2044.74 -0.797813 1.19879 0
M  V30 21466 H 2046.69 -3.91403 1.56146 0
M  V30 21467 H 2045.41 -3.22293 0.528684 0
M  V30 21468 H 2044.07 -2.61241 2.57194 0
M  V30 21469 H 2043.72 -4.81767 1.446 0
M  V30 21470 H 2043.42 -4.92921 3.19849 0
M  V30 21471 H 2044.94 -5.56383 2.51535 0
M  V30 21472 H 2046.36 -3.97117 4.13487 0
M  V30 21473 H 2044.76 -3.57513 4.8198 0
M  V30 21474 H 2045.83 -2.26581 4.28706 0
M  V30 21475 N 2047.17 -1.31814 -0.863883 0
M  V30 21476 C 2048.58 -1.10603 -1.15061 0
M  V30 21477 C 2048.78 0.119526 -2.01145 0
M  V30 21478 O 2047.84 0.807099 -2.39253 0
M  V30 21479 C 2049.15 -2.38075 -1.83686 0
M  V30 21480 C 2050.7 -2.43744 -1.96361 0
M  V30 21481 C 2051.18 -3.71113 -2.68401 0
M  V30 21482 N 2052.67 -3.72042 -2.75933 0
M  V30 21483 C 2053.4 -4.67294 -3.32301 0
M  V30 21484 N 2052.9 -5.72905 -3.89553 0
M  V30 21485 N 2054.69 -4.54804 -3.30317 0
M  V30 21486 H 2046.84 -2.10406 -0.290393 0
M  V30 21487 H 2049.11 -0.928505 -0.191264 0
M  V30 21488 H 2048.81 -3.27625 -1.27885 0
M  V30 21489 H 2048.69 -2.48336 -2.83917 0
M  V30 21490 H 2051.07 -1.54659 -2.51326 0
M  V30 21491 H 2051.15 -2.37443 -0.951544 0
M  V30 21492 H 2050.8 -4.60567 -2.14103 0
M  V30 21493 H 2050.73 -3.74682 -3.70028 0
M  V30 21494 H 2053.22 -2.95701 -2.35307 0
M  V30 21495 H 2053.53 -6.41656 -4.30694 0
M  V30 21496 H 2051.88 -5.76671 -3.87911 0
M  V30 21497 H 2055.07 -3.71468 -2.84832 0
M  V30 21498 H 2055.24 -5.29213 -3.73948 0
M  V30 21499 N 2048.65 1.07897 -1.14873 0
M  V30 21500 C 2050.06 1.32467 -0.89021 0
M  V30 21501 C 2050.26 1.96041 0.46584 0
M  V30 21502 O 2049.32 2.21675 1.20899 0
M  V30 21503 C 2050.63 2.22118 -2.02692 0
M  V30 21504 C 2052.18 2.35583 -2.06082 0
M  V30 21505 C 2052.65 3.28579 -3.19061 0
M  V30 21506 N 2054.15 3.36158 -3.18673 0
M  V30 21507 C 2054.88 4.0816 -4.02731 0
M  V30 21508 N 2054.38 4.82826 -4.96841 0
M  V30 21509 N 2056.17 4.04045 -3.90774 0
M  V30 21510 H 2048.32 0.650155 -2.02205 0
M  V30 21511 H 2050.58 0.349072 -0.881393 0
M  V30 21512 H 2050.29 1.82656 -3.00549 0
M  V30 21513 H 2050.16 3.22612 -1.95452 0
M  V30 21514 H 2052.55 2.743 -1.08829 0
M  V30 21515 H 2052.63 1.34812 -2.17392 0
M  V30 21516 H 2052.28 2.90582 -4.16563 0
M  V30 21517 H 2052.21 4.2929 -3.04988 0
M  V30 21518 H 2054.7 2.82932 -2.50515 0
M  V30 21519 H 2055.01 5.35244 -5.57434 0
M  V30 21520 H 2053.35 4.81861 -5.00834 0
M  V30 21521 H 2056.55 3.44823 -3.16567 0
M  V30 21522 H 2056.72 4.59895 -4.56509 0
M  V30 21523 N 2050.12 0.944665 1.2615 0
M  V30 21524 C 2051.37 0.594973 1.93876 0
M  V30 21525 C 2051.7 -0.864305 1.73906 0
M  V30 21526 O 2050.98 -1.61882 1.07817 0
M  V30 21527 C 2051.26 0.9423 3.47552 0
M  V30 21528 C 2051.11 2.45658 3.76792 0
M  V30 21529 C 2052.43 0.460204 4.37687 0
M  V30 21530 H 2049.55 0.217629 0.704135 0
M  V30 21531 H 2052.19 1.17952 1.48954 0
M  V30 21532 H 2050.34 0.444863 3.85945 0
M  V30 21533 H 2052.02 3.02701 3.48095 0
M  V30 21534 H 2050.26 2.89856 3.22747 0
M  V30 21535 H 2050.93 2.65011 4.84224 0
M  V30 21536 H 2053.41 0.886761 4.06541 0
M  V30 21537 H 2052.28 0.732019 5.43997 0
M  V30 21538 H 2052.54 -0.639853 4.37445 0
M  V30 21539 N 2051.6 -1.40596 0.712085 0
M  V30 21540 C 2052.83 -2.05265 0.259627 0
M  V30 21541 C 2053.25 -1.5364 -1.09728 0
M  V30 21542 O 2052.6 -0.691501 -1.68892 0
M  V30 21543 C 2052.65 -3.60787 0.22693 0
M  V30 21544 O 2052.37 -4.10506 1.53025 0
M  V30 21545 C 2053.88 -4.42625 -0.244507 0
M  V30 21546 H 2051.1 -0.660656 0.117366 0
M  V30 21547 H 2053.64 -1.80069 0.969308 0
M  V30 21548 H 2051.79 -3.84965 -0.43369 0
M  V30 21549 H 2052.21 -5.04676 1.42838 0
M  V30 21550 H 2053.68 -5.51576 -0.216241 0
M  V30 21551 H 2054.16 -4.19948 -1.2861 0
M  V30 21552 H 2054.77 -4.23547 0.385709 0
M  V30 21553 N 2053.08 -0.458013 -1.50798 0
M  V30 21554 C 2054.33 0.0937906 -2.03184 0
M  V30 21555 C 2054.68 1.38571 -1.33476 0
M  V30 21556 O 2053.97 1.86304 -0.447373 0
M  V30 21557 C 2054.17 0.346589 -3.55716 0
M  V30 21558 C 2054 -0.919282 -4.40204 0
M  V30 21559 C 2052.77 -1.45882 -4.83784 0
M  V30 21560 C 2054.97 -1.81113 -4.81355 0
M  V30 21561 N 2052.95 -2.67507 -5.52551 0
M  V30 21562 C 2054.32 -2.87332 -5.494 0
M  V30 21563 C 2056.37 -1.82308 -4.63323 0
M  V30 21564 C 2055.08 -3.94718 -6.01324 0
M  V30 21565 C 2057.1 -2.88642 -5.16178 0
M  V30 21566 C 2056.46 -3.9358 -5.84187 0
M  V30 21567 H 2052.56 -0.00537405 -0.781982 0
M  V30 21568 H 2055.15 -0.623303 -1.84453 0
M  V30 21569 H 2053.32 1.03272 -3.74419 0
M  V30 21570 H 2055.05 0.891577 -3.94757 0
M  V30 21571 H 2051.81 -1.00982 -4.62709 0
M  V30 21572 H 2052.23 -3.29238 -5.9155 0
M  V30 21573 H 2056.87 -1.025 -4.10187 0
M  V30 21574 H 2054.59 -4.75351 -6.53504 0
M  V30 21575 H 2058.18 -2.90534 -5.04065 0
M  V30 21576 H 2057.06 -4.74507 -6.2435 0
M  V30 21577 N 2054.56 1.56449 -0.190119 0
M  V30 21578 C 2055.98 1.58736 0.165798 0
M  V30 21579 C 2056.18 1.20613 1.61414 0
M  V30 21580 O 2055.23 0.926541 2.34886 0
M  V30 21581 C 2056.54 3.0041 -0.132051 0
M  V30 21582 C 2058.09 3.12918 -0.0717601 0
M  V30 21583 C 2058.57 4.56715 -0.342852 0
M  V30 21584 N 2060.06 4.62283 -0.291293 0
M  V30 21585 C 2060.79 5.71429 -0.474968 0
M  V30 21586 N 2060.29 6.89062 -0.718722 0
M  V30 21587 N 2062.08 5.60606 -0.409568 0
M  V30 21588 H 2054.23 1.79512 -1.1353 0
M  V30 21589 H 2056.5 0.832888 -0.452771 0
M  V30 21590 H 2056.2 3.32845 -1.13609 0
M  V30 21591 H 2056.08 3.72904 0.567676 0
M  V30 21592 H 2058.46 2.80298 0.922882 0
M  V30 21593 H 2058.54 2.4282 -0.804488 0
M  V30 21594 H 2058.19 4.90047 -1.33479 0
M  V30 21595 H 2058.12 5.24996 0.410707 0
M  V30 21596 H 2060.61 3.77742 -0.109306 0
M  V30 21597 H 2060.92 7.68135 -0.847818 0
M  V30 21598 H 2059.27 6.90881 -0.755557 0
M  V30 21599 H 2062.46 4.67585 -0.219592 0
M  V30 21600 H 2062.63 6.45609 -0.556132 0
M  V30 21601 N 2056.04 -0.0835127 1.57379 0
M  V30 21602 C 2056.97 -1.101 2.05913 0
M  V30 21603 C 2057.95 -1.41079 0.950298 0
M  V30 21604 O 2059.13 -1.50909 1.2223 0
M  V30 21605 C 2056.26 -2.41772 2.49327 0
M  V30 21606 C 2055.22 -2.25173 3.63979 0
M  V30 21607 C 2054.54 -3.62124 3.93408 0
M  V30 21608 C 2055.84 -1.68267 4.94453 0
M  V30 21609 H 2057.54 -0.697176 2.9117 0
M  V30 21610 H 2055.08 -0.333914 1.40075 0
M  V30 21611 H 2057.04 -3.13234 2.81891 0
M  V30 21612 H 2055.76 -2.84112 1.61084 0
M  V30 21613 H 2054.42 -1.56154 3.3168 0
M  V30 21614 H 2054.07 -4.02013 3.02315 0
M  V30 21615 H 2053.77 -3.51861 4.70603 0
M  V30 21616 H 2055.29 -4.35036 4.28458 0
M  V30 21617 H 2056.71 -2.29582 5.25324 0
M  V30 21618 H 2055.1 -1.68731 5.7589 0
M  V30 21619 H 2056.17 -0.64309 4.80617 0
M  V30 21620 N 2057.52 -1.53558 -0.354624 0
M  V30 21621 C 2058.93 -1.6184 -0.930847 0
M  V30 21622 C 2059.28 -0.492698 -1.89913 0
M  V30 21623 O 2058.4 0.379247 -2.13051 0
M  V30 21624 C 2059 -2.93348 -1.69506 0
M  V30 21625 C 2057.56 -3.03929 -2.22046 0
M  V30 21626 C 2056.7 -2.57213 -1.03618 0
M  V30 21627 H 2059.65 -1.58141 -0.133086 0
M  V30 21628 H 2059.68 -2.81766 -2.55711 0
M  V30 21629 H 2059.19 -3.75259 -0.990072 0
M  V30 21630 H 2057.29 -2.26629 -2.95753 0
M  V30 21631 H 2057.4 -4.09204 -2.49176 0
M  V30 21632 H 2055.77 -2.12352 -1.40636 0
M  V30 21633 H 2056.55 -3.41552 -0.346003 0
M  V30 21634 N 2058.99 0.615033 -1.45104 0
M  V30 21635 C 2060.4 1.19689 -1.43288 0
M  V30 21636 C 2060.76 1.95574 -0.156585 0
M  V30 21637 O 2059.88 2.03272 0.742247 0
M  V30 21638 C 2060.48 2.17717 -2.59586 0
M  V30 21639 C 2059.03 2.71295 -2.60914 0
M  V30 21640 C 2058.18 1.46569 -2.35399 0
M  V30 21641 H 2061.13 0.404769 -1.53451 0
M  V30 21642 H 2061.15 3.00617 -2.33259 0
M  V30 21643 H 2060.67 1.62458 -3.52461 0
M  V30 21644 H 2058.77 3.30513 -1.72024 0
M  V30 21645 H 2058.88 3.16236 -3.59905 0
M  V30 21646 H 2057.24 1.75266 -1.84808 0
M  V30 21647 H 2058.03 0.931898 -3.3041 0
M  V30 21648 N 2060.47 1.3227 0.85688 0
M  V30 21649 C 2061.38 1.23012 1.99763 0
M  V30 21650 C 2062.4 0.144168 1.73402 0
M  V30 21651 O 2063.57 0.364429 1.98075 0
M  V30 21652 C 2060.64 0.951293 3.33394 0
M  V30 21653 C 2059.7 2.12547 3.72991 0
M  V30 21654 C 2058.93 1.85984 5.00245 0
M  V30 21655 O 2059.16 0.801321 5.64743 0
M  V30 21656 O 2058.09 2.72029 5.36921 0
M  V30 21657 H 2061.92 2.18906 2.10509 0
M  V30 21658 H 2059.5 1.12138 0.987193 0
M  V30 21659 H 2061.38 0.812192 4.13499 0
M  V30 21660 H 2060.06 0.0224976 3.23692 0
M  V30 21661 H 2058.96 2.32003 2.93471 0
M  V30 21662 H 2060.3 3.03697 3.87336 0
M  V30 21663 N 2061.95 -1.07287 1.15444 0
M  V30 21664 C 2062.88 -2.16494 0.87478 0
M  V30 21665 C 2063.86 -1.69199 -0.174882 0
M  V30 21666 O 2065.05 -1.94178 -0.0291162 0
M  V30 21667 C 2062.18 -3.45387 0.364018 0
M  V30 21668 C 2061.13 -4.06137 1.35043 0
M  V30 21669 C 2060.46 -5.30118 0.69849 0
M  V30 21670 C 2061.76 -4.46089 2.71665 0
M  V30 21671 H 2063.45 -2.40146 1.78802 0
M  V30 21672 H 2061 -1.15415 0.861124 0
M  V30 21673 H 2062.95 -4.21111 0.15591 0
M  V30 21674 H 2061.67 -3.21324 -0.58469 0
M  V30 21675 H 2060.33 -3.32458 1.54491 0
M  V30 21676 H 2059.98 -5.02346 -0.256386 0
M  V30 21677 H 2059.68 -5.71721 1.35679 0
M  V30 21678 H 2061.2 -6.08548 0.500171 0
M  V30 21679 H 2062.62 -5.12939 2.56059 0
M  V30 21680 H 2061.01 -4.98645 3.33876 0
M  V30 21681 H 2062.08 -3.57427 3.2768 0
M  V30 21682 N 2063.43 -0.951342 -1.25647 0
M  V30 21683 C 2064.68 -0.600038 -1.92568 0
M  V30 21684 C 2064.99 0.866499 -1.7536 0
M  V30 21685 O 2066.2 1.32762 -2.36826 0
M  V30 21686 C 2064.65 -1.02246 -3.45071 0
M  V30 21687 C 2064.26 -2.51131 -3.70995 0
M  V30 21688 C 2066 -0.743532 -4.17938 0
M  V30 21689 C 2063.91 -2.87191 -5.16987 0
M  V30 21690 H 2062.84 -0.220706 -0.720975 0
M  V30 21691 H 2065.49 -1.15535 -1.42562 0
M  V30 21692 H 2063.87 -0.395588 -3.94019 0
M  V30 21693 H 2065.05 -3.18809 -3.32712 0
M  V30 21694 H 2063.36 -2.76461 -3.11381 0
M  V30 21695 H 2065.96 -0.989148 -5.25471 0
M  V30 21696 H 2066.3 0.319973 -4.15069 0
M  V30 21697 H 2066.84 -1.3306 -3.74887 0
M  V30 21698 H 2063.57 -3.92545 -5.24965 0
M  V30 21699 H 2063.09 -2.24183 -5.56329 0
M  V30 21700 H 2064.77 -2.76205 -5.85081 0
M  V30 21701 N 2064.91 1.40216 -0.719531 0
M  V30 21702 C 2066.32 1.83713 -0.33263 0
M  V30 21703 C 2066.67 1.60151 1.1334 0
M  V30 21704 O 2065.79 1.08447 1.87265 0
M  V30 21705 C 2066.39 3.335 -0.596947 0
M  V30 21706 C 2064.95 3.75475 -0.263712 0
M  V30 21707 C 2064.09 2.63387 -0.867341 0
M  V30 21708 H 2067.04 1.29428 -0.918378 0
M  V30 21709 H 2067.07 3.80255 0.136497 0
M  V30 21710 H 2066.58 3.50617 -1.66402 0
M  V30 21711 H 2064.68 3.63951 0.798139 0
M  V30 21712 H 2064.79 4.73421 -0.735465 0
M  V30 21713 H 2063.16 2.52985 -0.295091 0
M  V30 21714 H 2063.94 2.83315 -1.93876 0
M  V30 21715 N 2066.38 0.466004 1.50553 0
M  V30 21716 C 2067.8 0.119867 1.59149 0
M  V30 21717 C 2068 -1.37324 1.47459 0
M  V30 21718 O 2067.06 -2.14604 1.33047 0
M  V30 21719 C 2068.37 0.665532 2.93243 0
M  V30 21720 C 2069.92 0.628507 3.06625 0
M  V30 21721 C 2070.39 1.15163 4.43285 0
M  V30 21722 N 2071.88 1.11082 4.49683 0
M  V30 21723 C 2072.62 1.48615 5.53806 0
M  V30 21724 N 2072.11 1.93573 6.65208 0
M  V30 21725 N 2073.91 1.4025 5.44322 0
M  V30 21726 H 2066.06 1.43716 1.56395 0
M  V30 21727 H 2068.32 0.594011 0.73882 0
M  V30 21728 H 2068.03 1.71132 3.07257 0
M  V30 21729 H 2067.9 0.106264 3.7705 0
M  V30 21730 H 2070.29 -0.408356 2.92261 0
M  V30 21731 H 2070.37 1.22452 2.24587 0
M  V30 21732 H 2070.01 2.1871 4.58398 0
M  V30 21733 H 2069.94 0.531882 5.23907 0
M  V30 21734 H 2072.43 0.781025 3.69741 0
M  V30 21735 H 2072.75 2.20373 7.40713 0
M  V30 21736 H 2071.09 1.97521 6.66341 0
M  V30 21737 H 2074.28 1.04972 4.56178 0
M  V30 21738 H 2074.46 1.69827 6.2535 0
M  V30 21739 N 2067.86 -1.56346 0.198413 0
M  V30 21740 C 2068.79 -2.22244 -0.716243 0
M  V30 21741 C 2069.77 -1.1866 -1.21876 0
M  V30 21742 O 2070.96 -1.47177 -1.26699 0
M  V30 21743 C 2068.09 -2.88437 -1.93446 0
M  V30 21744 C 2067.04 -3.98294 -1.56672 0
M  V30 21745 C 2066.37 -4.51668 -2.86182 0
M  V30 21746 C 2067.67 -5.16531 -0.774153 0
M  V30 21747 H 2069.36 -2.98935 -0.166883 0
M  V30 21748 H 2066.91 -1.43784 -0.0788267 0
M  V30 21749 H 2068.86 -3.33221 -2.57957 0
M  V30 21750 H 2067.58 -2.09157 -2.5084 0
M  V30 21751 H 2066.24 -3.54206 -0.945178 0
M  V30 21752 H 2065.89 -3.69146 -3.41673 0
M  V30 21753 H 2065.59 -5.25796 -2.6232 0
M  V30 21754 H 2067.12 -4.99155 -3.51676 0
M  V30 21755 H 2068.53 -5.57839 -1.32244 0
M  V30 21756 H 2066.93 -5.96746 -0.633532 0
M  V30 21757 H 2068 -4.84382 0.224098 0
M  V30 21758 N 2069.34 0.0751653 -1.57421 0
M  V30 21759 C 2070.57 0.791793 -1.91691 0
M  V30 21760 C 2070.99 1.70496 -0.794522 0
M  V30 21761 O 2070.35 1.79528 0.25284 0
M  V30 21762 C 2070.4 1.5643 -3.24903 0
M  V30 21763 O 2069.5 2.67473 -3.13898 0
M  V30 21764 H 2068.84 0.21624 -0.627803 0
M  V30 21765 H 2071.37 0.0444189 -2.04552 0
M  V30 21766 H 2071.38 1.94427 -3.58695 0
M  V30 21767 H 2070.06 0.894266 -4.06172 0
M  V30 21768 H 2068.63 2.32357 -2.91658 0
M  V30 21769 N 2070.82 1.53744 0.346476 0
M  V30 21770 C 2071.78 1.80833 1.40826 0
M  V30 21771 C 2072.78 0.679291 1.45747 0
M  V30 21772 O 2073.97 0.947566 1.46174 0
M  V30 21773 C 2071.1 1.94771 2.79781 0
M  V30 21774 H 2072.3 2.75679 1.18071 0
M  V30 21775 H 2069.85 1.45112 0.5807 0
M  V30 21776 H 2070.58 1.02057 3.07823 0
M  V30 21777 H 2070.37 2.76908 2.77605 0
M  V30 21778 H 2071.86 2.17255 3.56637 0
M  V30 21779 N 2072.3 -0.607329 1.45428 0
M  V30 21780 C 2073.52 -1.39786 1.53214 0
M  V30 21781 C 2073.95 -1.87369 0.165684 0
M  V30 21782 O 2073.3 -1.60154 -0.849728 0
M  V30 21783 C 2073.35 -2.57823 2.52111 0
M  V30 21784 O 2072.46 -3.58462 2.03909 0
M  V30 21785 H 2071.8 -0.417312 0.516476 0
M  V30 21786 H 2074.33 -0.739101 1.90784 0
M  V30 21787 H 2074.34 -3.05064 2.70925 0
M  V30 21788 H 2073.01 -2.22539 3.51354 0
M  V30 21789 H 2071.59 -3.17868 1.94973 0
M  V30 21790 N 2073.77 -1.32722 -0.849853 0
M  V30 21791 C 2075 -1.2671 -1.64193 0
M  V30 21792 C 2075.42 0.161092 -1.87409 0
M  V30 21793 O 2074.78 1.11408 -1.43031 0
M  V30 21794 C 2074.83 -2.03686 -2.97564 0
M  V30 21795 O 2073.93 -1.38794 -3.88343 0
M  V30 21796 H 2073.28 -0.436459 -0.5004 0
M  V30 21797 H 2075.81 -1.75113 -1.05813 0
M  V30 21798 H 2075.82 -2.1404 -3.47349 0
M  V30 21799 H 2074.49 -3.07537 -2.79989 0
M  V30 21800 H 2073.07 -1.37018 -3.46815 0
M  V30 21801 N 2075.25 1.06673 -1.16011 0
M  V30 21802 C 2076.5 1.79046 -0.937394 0
M  V30 21803 C 2076.82 1.87476 0.536438 0
M  V30 21804 O 2076.09 1.38065 1.38977 0
M  V30 21805 H 2074.67 0.663167 -0.343829 0
M  V30 21806 H 2077.33 1.28878 -1.46207 0
M  V30 21807 H 2076.43 2.81259 -1.35278 0
M  V30 21808 N 2076.73 0.957992 1.25141 0
M  V30 21809 C 2078.15 0.662955 1.45179 0
M  V30 21810 C 2078.35 -0.778426 1.85857 0
M  V30 21811 O 2077.4 -1.55337 1.99065 0
M  V30 21812 C 2078.72 1.63876 2.52121 0
M  V30 21813 C 2080.26 1.65031 2.65958 0
M  V30 21814 C 2080.74 2.61384 3.76089 0
M  V30 21815 N 2082.23 2.59768 3.83503 0
M  V30 21816 C 2082.96 3.30999 4.68217 0
M  V30 21817 N 2082.46 4.11715 5.57192 0
M  V30 21818 N 2084.25 3.1987 4.62211 0
M  V30 21819 H 2076.4 1.88941 0.97031 0
M  V30 21820 H 2078.67 0.812898 0.487751 0
M  V30 21821 H 2078.37 2.66846 2.29098 0
M  V30 21822 H 2078.25 1.4039 3.50101 0
M  V30 21823 H 2080.63 0.627761 2.88346 0
M  V30 21824 H 2080.72 1.92576 1.68369 0
M  V30 21825 H 2080.36 3.63767 3.54452 0
M  V30 21826 H 2080.29 2.31121 4.73171 0
M  V30 21827 H 2082.78 2.01172 3.19903 0
M  V30 21828 H 2083.09 4.62978 6.18766 0
M  V30 21829 H 2081.44 4.15812 5.56889 0
M  V30 21830 H 2084.63 2.56282 3.91711 0
M  V30 21831 H 2084.8 3.75649 5.28008 0
M  V30 21832 N 2078.21 -1.39832 0.726957 0
M  V30 21833 C 2079.43 -2.05501 0.280008 0
M  V30 21834 C 2079.86 -1.54436 -1.07383 0
M  V30 21835 O 2079.22 -0.684615 -1.67877 0
M  V30 21836 C 2079.26 -3.59492 0.282502 0
M  V30 21837 O 2078.37 -4.05842 -0.732546 0
M  V30 21838 H 2077.71 -0.651361 0.128936 0
M  V30 21839 H 2080.24 -1.79019 0.990626 0
M  V30 21840 H 2080.25 -4.07811 0.124104 0
M  V30 21841 H 2078.92 -3.96022 1.27041 0
M  V30 21842 H 2077.5 -3.68956 -0.540943 0
M  V30 21843 N 2079.69 -0.473982 -1.50304 0
M  V30 21844 C 2080.91 0.0798733 -2.07246 0
M  V30 21845 C 2081.34 1.3249 -1.33521 0
M  V30 21846 O 2080.69 1.77192 -0.383743 0
M  V30 21847 C 2080.74 0.343926 -3.58956 0
M  V30 21848 O 2079.85 1.42387 -3.8704 0
M  V30 21849 H 2079.19 -0.0142608 -0.663847 0
M  V30 21850 H 2081.72 -0.665854 -1.93462 0
M  V30 21851 H 2081.73 0.583558 -4.03805 0
M  V30 21852 H 2080.4 -0.565855 -4.12033 0
M  V30 21853 H 2078.98 1.17132 -3.54026 0
M  V30 21854 N 2081.16 1.56239 -0.206702 0
M  V30 21855 C 2082.44 1.89689 0.477219 0
M  V30 21856 C 2082.82 1.12193 1.78818 0
M  V30 21857 O 2082.17 0.226599 2.27374 0
M  V30 21858 C 2082.38 3.42218 0.684683 0
M  V30 21859 C 2083.73 4.12685 0.998827 0
M  V30 21860 O 2084.75 3.47734 0.771997 0
M  V30 21861 O 2083.61 5.275 1.42851 0
M  V30 21862 H 2080.7 0.788217 0.250286 0
M  V30 21863 H 2083.25 1.67881 -0.247781 0
M  V30 21864 H 2082.02 3.90559 -0.240635 0
M  V30 21865 H 2081.65 3.69756 1.46172 0
M  V30 21866 N 2082.64 -0.0668159 1.57458 0
M  V30 21867 C 2083.61 -1.06329 2.03044 0
M  V30 21868 C 2084.61 -1.31301 0.928259 0
M  V30 21869 O 2085.8 -1.26938 1.193 0
M  V30 21870 C 2082.93 -2.40573 2.41532 0
M  V30 21871 H 2084.12 -0.67029 2.92313 0
M  V30 21872 H 2081.67 -0.312678 1.53141 0
M  V30 21873 H 2082.41 -2.84695 1.55303 0
M  V30 21874 H 2082.19 -2.23788 3.21965 0
M  V30 21875 H 2083.68 -3.12189 2.77359 0
M  V30 21876 N 2084.12 -1.53926 -0.338317 0
M  V30 21877 C 2085.03 -1.85282 -1.43902 0
M  V30 21878 C 2086.05 -0.743407 -1.5732 0
M  V30 21879 O 2087.22 -1.03624 -1.72697 0
M  V30 21880 C 2084.29 -2.06058 -2.78821 0
M  V30 21881 C 2083.35 -3.29903 -2.74704 0
M  V30 21882 C 2082.58 -3.49679 -4.03188 0
M  V30 21883 O 2082.81 -2.73186 -5.00725 0
M  V30 21884 O 2081.74 -4.43121 -4.07342 0
M  V30 21885 H 2085.57 -2.78849 -1.2032 0
M  V30 21886 H 2083.15 -1.39646 -0.530982 0
M  V30 21887 H 2085.03 -2.21138 -3.58714 0
M  V30 21888 H 2083.71 -1.15679 -3.02325 0
M  V30 21889 H 2082.61 -3.20222 -1.93413 0
M  V30 21890 H 2083.95 -4.20292 -2.56155 0
M  V30 21891 N 2085.6 0.599608 -1.45748 0
M  V30 21892 C 2086.56 1.6918 -1.54631 0
M  V30 21893 C 2087.56 1.55081 -0.425029 0
M  V30 21894 O 2088.75 1.60004 -0.688782 0
M  V30 21895 C 2085.88 3.08502 -1.45049 0
M  V30 21896 H 2087.08 1.62667 -2.51951 0
M  V30 21897 H 2084.63 0.816022 -1.33307 0
M  V30 21898 H 2085.37 3.20585 -0.489439 0
M  V30 21899 H 2085.15 3.20144 -2.26386 0
M  V30 21900 H 2086.64 3.88042 -1.54315 0
M  V30 21901 N 2087.08 1.33171 0.842803 0
M  V30 21902 C 2088.49 1.21918 1.41397 0
M  V30 21903 C 2088.84 -0.163526 1.95517 0
M  V30 21904 O 2087.96 -1.06291 1.88497 0
M  V30 21905 C 2088.56 2.20727 2.57031 0
M  V30 21906 C 2087.12 2.13325 3.10112 0
M  V30 21907 C 2086.27 2.08432 1.82897 0
M  V30 21908 H 2089.22 1.44827 0.648912 0
M  V30 21909 H 2089.24 1.81271 3.34546 0
M  V30 21910 H 2088.75 3.21352 2.1761 0
M  V30 21911 H 2086.85 1.15989 3.54087 0
M  V30 21912 H 2086.96 3.03691 3.70552 0
M  V30 21913 H 2085.33 1.53848 2.02985 0
M  V30 21914 H 2086.11 3.10858 1.45678 0
M  V30 21915 N 2088.56 -1.06056 1.16576 0
M  V30 21916 C 2089.51 -2.11853 0.842761 0
M  V30 21917 C 2090.49 -1.59903 -0.178851 0
M  V30 21918 O 2091.68 -1.76986 0.0223245 0
M  V30 21919 C 2088.81 -3.41529 0.348238 0
M  V30 21920 C 2087.9 -4.00299 1.40077 0
M  V30 21921 N 2088.29 -4.33148 2.61183 0
M  V30 21922 C 2086.59 -4.27932 1.25659 0
M  V30 21923 C 2087.29 -4.79896 3.28747 0
M  V30 21924 N 2086.26 -4.79479 2.56126 0
M  V30 21925 H 2090.06 -2.351 1.76366 0
M  V30 21926 H 2087.58 -1.23621 1.05317 0
M  V30 21927 H 2089.58 -4.16784 0.0984337 0
M  V30 21928 H 2088.24 -3.19719 -0.566566 0
M  V30 21929 H 2089.25 -4.23421 2.9822 0
M  V30 21930 H 2085.92 -4.15553 0.402732 0
M  V30 21931 H 2087.31 -5.14497 4.32137 0
M  V30 21932 N 2090.03 -0.964615 -1.24631 0
M  V30 21933 C 2091.28 -0.623582 -1.92239 0
M  V30 21934 C 2091.6 0.843493 -1.75813 0
M  V30 21935 O 2090.87 1.60179 -1.12781 0
M  V30 21936 H 2089.45 -0.227644 -0.711468 0
M  V30 21937 H 2092.11 -1.22502 -1.51589 0
M  V30 21938 H 2091.21 -0.861514 -2.99974 0
M  V30 21939 N 2091.51 1.39445 -0.734362 0
M  V30 21940 C 2092.92 1.8335 -0.352097 0
M  V30 21941 C 2093.27 1.61344 1.11635 0
M  V30 21942 O 2092.4 1.10427 1.86105 0
M  V30 21943 C 2092.99 3.32848 -0.632286 0
M  V30 21944 C 2091.55 3.75174 -0.303522 0
M  V30 21945 C 2090.7 2.62452 -0.895228 0
M  V30 21946 H 2093.65 1.28446 -0.932054 0
M  V30 21947 H 2093.67 3.80378 0.0961584 0
M  V30 21948 H 2093.18 3.48832 -1.70111 0
M  V30 21949 H 2091.28 3.64777 0.759492 0
M  V30 21950 H 2091.4 4.72615 -0.785637 0
M  V30 21951 H 2089.76 2.52658 -0.321907 0
M  V30 21952 H 2090.54 2.81242 -1.9687 0
M  V30 21953 N 2092.99 0.481946 1.5005 0
M  V30 21954 C 2094.4 0.0294639 1.86677 0
M  V30 21955 C 2094.75 -1.37874 1.39589 0
M  V30 21956 O 2093.88 -2.02407 0.765517 0
M  V30 21957 C 2094.47 0.0466921 3.38768 0
M  V30 21958 C 2093.03 -0.350364 3.74766 0
M  V30 21959 C 2092.18 0.427499 2.73985 0
M  V30 21960 H 2095.13 0.69569 1.42639 0
M  V30 21961 H 2095.15 -0.75302 3.72974 0
M  V30 21962 H 2094.66 1.07172 3.73009 0
M  V30 21963 H 2092.76 -1.37934 3.46128 0
M  V30 21964 H 2092.88 -0.0441626 4.7908 0
M  V30 21965 H 2091.24 -0.120219 2.54416 0
M  V30 21966 H 2092.02 1.45225 3.1107 0
M  V30 21967 N 2094.47 -1.56127 0.214985 0
M  V30 21968 C 2095.74 -1.8994 -0.467153 0
M  V30 21969 C 2096.12 -1.13139 -1.78221 0
M  V30 21970 O 2095.47 -0.238654 -2.2725 0
M  V30 21971 C 2095.68 -3.42576 -0.666524 0
M  V30 21972 C 2097.03 -4.13209 -0.976927 0
M  V30 21973 O 2098.05 -3.48138 -0.753545 0
M  V30 21974 O 2096.91 -5.2825 -1.40052 0
M  V30 21975 H 2094.01 -0.789533 -0.246102 0
M  V30 21976 H 2096.55 -1.67748 0.256681 0
M  V30 21977 H 2095.33 -3.90426 0.261344 0
M  V30 21978 H 2094.95 -3.70526 -1.44209 0
M  V30 21979 N 2095.95 0.0584645 -1.57492 0
M  V30 21980 C 2097.22 0.788828 -1.78988 0
M  V30 21981 C 2097.6 1.95112 -0.805878 0
M  V30 21982 O 2096.95 2.27951 0.158244 0
M  V30 21983 C 2097.16 1.24936 -3.25871 0
M  V30 21984 C 2098.51 1.67732 -3.90066 0
M  V30 21985 O 2099.53 1.34469 -3.29843 0
M  V30 21986 O 2098.39 2.29361 -4.9604 0
M  V30 21987 H 2095.49 0.379032 -0.735027 0
M  V30 21988 H 2098.03 0.0375096 -1.69659 0
M  V30 21989 H 2096.8 0.418302 -3.89058 0
M  V30 21990 H 2096.43 2.06159 -3.39977 0
M  V30 21991 N 2097.42 1.54103 0.330149 0
M  V30 21992 C 2098.67 1.71653 1.06675 0
M  V30 21993 C 2098.99 0.489514 1.88756 0
M  V30 21994 O 2098.26 -0.496523 1.89503 0
M  V30 21995 H 2096.84 0.63288 0.396827 0
M  V30 21996 H 2099.5 1.91391 0.36818 0
M  V30 21997 H 2098.6 2.59328 1.73653 0
M  V30 21998 N 2098.9 -0.59187 1.46064 0
M  V30 21999 C 2100.15 -1.34773 1.50601 0
M  V30 22000 C 2100.47 -1.94379 0.155452 0
M  V30 22001 O 2099.74 -1.7805 -0.816999 0
M  V30 22002 H 2098.32 -0.50037 0.554652 0
M  V30 22003 H 2100.98 -0.69386 1.82131 0
M  V30 22004 H 2100.08 -2.15914 2.25361 0
M  V30 22005 N 2100.38 -1.33616 -0.835729 0
M  V30 22006 C 2101.34 -1.24042 -1.92733 0
M  V30 22007 C 2102.34 -0.158708 -1.60015 0
M  V30 22008 O 2103.53 -0.410456 -1.69295 0
M  V30 22009 C 2100.67 -0.912113 -3.28471 0
M  V30 22010 H 2101.86 -2.21075 -2.02647 0
M  V30 22011 H 2099.41 -1.1772 -1.02819 0
M  V30 22012 H 2100.15 0.0555823 -3.24252 0
M  V30 22013 H 2099.93 -1.69441 -3.53599 0
M  V30 22014 H 2101.42 -0.869957 -4.08438 0
M  V30 22015 N 2101.86 1.05436 -1.17136 0
M  V30 22016 C 2103.11 1.78041 -0.956331 0
M  V30 22017 C 2103.43 1.88035 0.516524 0
M  V30 22018 O 2102.7 1.39532 1.37505 0
M  V30 22019 H 2101.28 0.659483 -0.350843 0
M  V30 22020 H 2103.94 1.2732 -1.47566 0
M  V30 22021 H 2103.04 2.79808 -1.38253 0
M  V30 22022 N 2103.34 0.971211 1.24118 0
M  V30 22023 C 2104.58 0.633768 1.91906 0
M  V30 22024 C 2104.91 -0.834157 1.76258 0
M  V30 22025 O 2104.18 -1.59579 1.13628 0
M  V30 22026 H 2102.76 0.231413 0.710251 0
M  V30 22027 H 2105.42 1.23304 1.50938 0
M  V30 22028 H 2104.51 0.877411 2.99513 0
M  V30 22029 N 2104.81 -1.39054 0.741747 0
M  V30 22030 C 2105.76 -2.30556 0.106197 0
M  V30 22031 C 2106.73 -1.49566 -0.722434 0
M  V30 22032 O 2107.92 -1.78233 -0.681008 0
M  V30 22033 C 2105.06 -3.35936 -0.790013 0
M  V30 22034 C 2104.17 -4.31969 0.051964 0
M  V30 22035 C 2103.3 -5.24418 -0.846146 0
M  V30 22036 C 2102.34 -6.121 0.000177444 0
M  V30 22037 N 2101.48 -6.96884 -0.854237 0
M  V30 22038 H 2106.32 -2.84333 0.892113 0
M  V30 22039 H 2103.86 -1.39997 0.451583 0
M  V30 22040 H 2105.82 -3.95629 -1.32413 0
M  V30 22041 H 2104.45 -2.83597 -1.54183 0
M  V30 22042 H 2103.5 -3.73837 0.70358 0
M  V30 22043 H 2104.81 -4.93777 0.706061 0
M  V30 22044 H 2103.96 -5.8917 -1.44786 0
M  V30 22045 H 2102.7 -4.62947 -1.53401 0
M  V30 22046 H 2101.71 -5.46353 0.614648 0
M  V30 22047 H 2102.93 -6.75637 0.684921 0
M  V30 22048 H 2100.88 -6.37974 -1.52727 0
M  V30 22049 H 2100.8 -7.55564 -0.256771 0
M  V30 22050 H 2102.06 -7.66059 -1.4413 0
M  V30 22051 N 2106.29 -0.489897 -1.49792 0
M  V30 22052 C 2107.54 0.0584284 -2.02016 0
M  V30 22053 C 2107.86 1.38507 -1.37262 0
M  V30 22054 O 2107.13 1.88757 -0.524191 0
M  V30 22055 H 2105.71 0.0245828 -0.746595 0
M  V30 22056 H 2108.37 -0.644608 -1.83932 0
M  V30 22057 H 2107.47 0.196227 -3.11483 0
M  V30 22058 N 2107.77 1.56011 -0.223262 0
M  V30 22059 C 2109.02 1.97956 0.407171 0
M  V30 22060 C 2109.34 1.11219 1.60173 0
M  V30 22061 O 2108.61 0.189604 1.9498 0
M  V30 22062 H 2107.19 0.731075 0.153424 0
M  V30 22063 H 2109.85 1.92312 -0.316554 0
M  V30 22064 H 2108.95 3.03386 0.732342 0
M  V30 22065 N 2109.25 -0.0501116 1.5752 0
M  V30 22066 C 2110.47 -0.761197 1.92926 0
M  V30 22067 C 2110.9 -1.69211 0.821546 0
M  V30 22068 O 2110.26 -1.79908 -0.224247 0
M  V30 22069 C 2110.3 -1.51241 3.27351 0
M  V30 22070 O 2109.41 -2.62445 3.18114 0
M  V30 22071 H 2108.75 -0.206224 0.631164 0
M  V30 22072 H 2111.28 -0.0118709 2.04597 0
M  V30 22073 H 2111.29 -1.88696 3.61743 0
M  V30 22074 H 2109.96 -0.829535 4.07543 0
M  V30 22075 H 2108.54 -2.27688 2.95318 0
M  V30 22076 N 2110.73 -1.54276 -0.321972 0
M  V30 22077 C 2111.66 -1.86766 -1.40146 0
M  V30 22078 C 2112.64 -0.724601 -1.53895 0
M  V30 22079 O 2113.82 -0.978478 -1.67748 0
M  V30 22080 C 2110.95 -2.09642 -2.76889 0
M  V30 22081 C 2109.91 -3.25485 -2.77927 0
M  V30 22082 C 2109.23 -3.33736 -4.17761 0
M  V30 22083 C 2110.53 -4.63097 -2.41533 0
M  V30 22084 H 2112.23 -2.77174 -1.13204 0
M  V30 22085 H 2109.77 -1.33364 -0.543134 0
M  V30 22086 H 2111.73 -2.30955 -3.52474 0
M  V30 22087 H 2110.45 -1.15985 -3.05311 0
M  V30 22088 H 2109.11 -3.04062 -2.04798 0
M  V30 22089 H 2108.76 -2.37634 -4.43327 0
M  V30 22090 H 2108.46 -4.11594 -4.19362 0
M  V30 22091 H 2109.98 -3.57285 -4.95156 0
M  V30 22092 H 2111.39 -4.84281 -3.06831 0
M  V30 22093 H 2109.79 -5.43516 -2.54382 0
M  V30 22094 H 2110.86 -4.65238 -1.3668 0
M  V30 22095 N 2112.2 0.584116 -1.46376 0
M  V30 22096 C 2113.62 1.16623 -1.45794 0
M  V30 22097 C 2113.97 1.95198 -0.198034 0
M  V30 22098 O 2113.09 2.04801 0.698962 0
M  V30 22099 C 2113.69 2.12162 -2.64145 0
M  V30 22100 C 2112.25 2.657 -2.66609 0
M  V30 22101 C 2111.39 1.41543 -2.38455 0
M  V30 22102 H 2114.34 0.372129 -1.54275 0
M  V30 22103 H 2114.36 2.95601 -2.39583 0
M  V30 22104 H 2113.88 1.54946 -3.55828 0
M  V30 22105 H 2111.98 3.26789 -1.78996 0
M  V30 22106 H 2112.09 3.08531 -3.66532 0
M  V30 22107 H 2110.45 1.71306 -1.88484 0
M  V30 22108 H 2111.24 0.861604 -3.32312 0
M  V30 22109 N 2113.68 1.34058 0.828631 0
M  V30 22110 C 2115.1 1.13615 1.12088 0
M  V30 22111 C 2115.3 -0.0661541 2.01391 0
M  V30 22112 O 2114.36 -0.743382 2.41309 0
M  V30 22113 C 2115.67 2.42862 1.7731 0
M  V30 22114 C 2117.22 2.48865 1.8983 0
M  V30 22115 C 2117.69 3.78099 2.58468 0
M  V30 22116 N 2119.18 3.79227 2.65972 0
M  V30 22117 C 2119.92 4.7594 3.19795 0
M  V30 22118 N 2119.41 5.83032 3.74226 0
M  V30 22119 N 2121.21 4.63402 3.18143 0
M  V30 22120 H 2113.36 2.11101 0.234506 0
M  V30 22121 H 2115.62 0.93325 0.166579 0
M  V30 22122 H 2115.33 3.30901 1.19153 0
M  V30 22123 H 2115.2 2.55776 2.77233 0
M  V30 22124 H 2117.59 1.61268 2.47137 0
M  V30 22125 H 2117.67 2.39883 0.888256 0
M  V30 22126 H 2117.31 4.66082 2.01817 0
M  V30 22127 H 2117.24 3.84361 3.59964 0
M  V30 22128 H 2119.73 3.01836 2.27384 0
M  V30 22129 H 2120.05 6.5285 4.1353 0
M  V30 22130 H 2118.39 5.86753 3.72486 0
M  V30 22131 H 2121.58 3.78889 2.74883 0
M  V30 22132 H 2121.76 5.38942 3.59786 0
M  V30 22133 N 2115.16 -1.04814 1.17694 0
M  V30 22134 C 2116.39 -1.82088 0.992908 0
M  V30 22135 C 2116.81 -1.82538 -0.454023 0
M  V30 22136 O 2116.17 -1.23716 -1.3253 0
M  V30 22137 C 2116.22 -3.25912 1.54318 0
M  V30 22138 O 2115.32 -4.05346 0.759486 0
M  V30 22139 H 2114.66 -0.562852 0.352268 0
M  V30 22140 H 2117.19 -1.32054 1.56279 0
M  V30 22141 H 2117.2 -3.76705 1.56708 0
M  V30 22142 H 2115.88 -3.24899 2.59641 0
M  V30 22143 H 2114.45 -3.64056 0.807298 0
M  V30 22144 N 2116.64 -0.977779 -1.23601 0
M  V30 22145 C 2117.6 -0.520908 -2.23202 0
M  V30 22146 C 2118.6 0.38804 -1.56048 0
M  V30 22147 O 2119.79 0.182096 -1.73246 0
M  V30 22148 C 2116.92 0.244298 -3.40024 0
M  V30 22149 H 2118.12 -1.40154 -2.65135 0
M  V30 22150 H 2115.67 -0.763397 -1.36389 0
M  V30 22151 H 2116.41 1.14159 -3.03543 0
M  V30 22152 H 2116.19 -0.408125 -3.8997 0
M  V30 22153 H 2117.68 0.55263 -4.13927 0
M  V30 22154 N 2118.12 1.38658 -0.749111 0
M  V30 22155 C 2119.35 2.04504 -0.313958 0
M  V30 22156 C 2119.76 1.56495 1.05616 0
M  V30 22157 O 2119.12 0.736036 1.66999 0
M  V30 22158 C 2119.17 3.60059 -0.322507 0
M  V30 22159 O 2118.89 4.06304 -1.63855 0
M  V30 22160 C 2120.39 4.43118 0.127067 0
M  V30 22161 H 2117.61 0.657312 -0.134841 0
M  V30 22162 H 2120.15 1.77435 -1.01671 0
M  V30 22163 H 2118.31 3.85979 0.331471 0
M  V30 22164 H 2118.72 5.00711 -1.56169 0
M  V30 22165 H 2120.2 5.51956 0.0699241 0
M  V30 22166 H 2120.67 4.2321 1.17431 0
M  V30 22167 H 2121.28 4.22376 -0.49787 0
M  V30 22168 N 2119.6 0.497834 1.49531 0
M  V30 22169 C 2121.01 0.0492618 1.86635 0
M  V30 22170 C 2121.36 -1.36386 1.41044 0
M  V30 22171 O 2120.48 -2.01584 0.786942 0
M  V30 22172 C 2121.08 0.0826203 3.38699 0
M  V30 22173 C 2119.64 -0.310596 3.75116 0
M  V30 22174 C 2118.78 0.456535 2.73516 0
M  V30 22175 H 2121.73 0.71078 1.41893 0
M  V30 22176 H 2121.76 -0.713419 3.73752 0
M  V30 22177 H 2121.27 1.11123 3.71851 0
M  V30 22178 H 2119.37 -1.34255 3.47572 0
M  V30 22179 H 2119.48 0.0066527 4.791 0
M  V30 22180 H 2117.85 -0.0932284 2.54529 0
M  V30 22181 H 2118.63 1.48516 3.09512 0
M  V30 22182 N 2121.07 -1.5589 0.231532 0
M  V30 22183 C 2122.32 -1.98169 -0.396667 0
M  V30 22184 C 2122.64 -1.12067 -1.59581 0
M  V30 22185 O 2121.91 -0.199942 -1.94877 0
M  V30 22186 H 2120.49 -0.731878 -0.149544 0
M  V30 22187 H 2123.15 -1.92142 0.326749 0
M  V30 22188 H 2122.25 -3.0377 -0.716243 0
M  V30 22189 N 2122.55 0.0417572 -1.57545 0
M  V30 22190 C 2123.96 0.589951 -1.77134 0
M  V30 22191 C 2124.31 1.76299 -0.860987 0
M  V30 22192 O 2123.44 2.16336 -0.0525748 0
M  V30 22193 C 2124.03 1.077 -3.21226 0
M  V30 22194 C 2122.59 1.57081 -3.42056 0
M  V30 22195 C 2121.74 0.503265 -2.72695 0
M  V30 22196 H 2124.69 -0.18447 -1.57624 0
M  V30 22197 H 2124.71 1.94485 -3.27041 0
M  V30 22198 H 2124.22 0.22303 -3.87459 0
M  V30 22199 H 2122.32 2.44704 -2.80981 0
M  V30 22200 H 2122.44 1.62706 -4.50626 0
M  V30 22201 H 2120.8 0.955366 -2.36103 0
M  V30 22202 H 2121.58 -0.341024 -3.41602 0
M  V30 22203 N 2124.03 1.54445 0.313786 0
M  V30 22204 C 2125.44 1.64251 0.887611 0
M  V30 22205 C 2125.79 0.542877 1.8854 0
M  V30 22206 O 2124.92 -0.322627 2.13981 0
M  V30 22207 C 2125.51 2.97739 1.61668 0
M  V30 22208 C 2124.07 3.09709 2.13909 0
M  V30 22209 C 2123.22 2.5987 0.967618 0
M  V30 22210 H 2126.17 1.58438 0.091111 0
M  V30 22211 H 2126.19 2.88447 2.4815 0
M  V30 22212 H 2125.7 3.77752 0.890231 0
M  V30 22213 H 2123.8 2.34391 2.89641 0
M  V30 22214 H 2123.92 4.15667 2.38239 0
M  V30 22215 H 2122.28 2.16006 1.34957 0
M  V30 22216 H 2123.06 3.42349 0.255325 0
M  V30 22217 N 2125.51 -0.576345 1.46683 0
M  V30 22218 C 2126.76 -1.33168 1.52022 0
M  V30 22219 C 2127.08 -1.94204 0.17606 0
M  V30 22220 O 2126.35 -1.78907 -0.798069 0
M  V30 22221 H 2124.93 -0.494459 0.559928 0
M  V30 22222 H 2127.59 -0.674503 1.82856 0
M  V30 22223 H 2126.68 -2.13511 2.27638 0
M  V30 22224 N 2126.99 -1.34495 -0.82151 0
M  V30 22225 C 2127.9 -1.28265 -1.96431 0
M  V30 22226 C 2128.91 -0.190092 -1.72959 0
M  V30 22227 O 2130.09 -0.416817 -1.9704 0
M  V30 22228 C 2127.15 -1.03935 -3.30754 0
M  V30 22229 C 2126.21 -2.22361 -3.67225 0
M  V30 22230 C 2125.45 -1.99182 -4.95139 0
M  V30 22231 O 2125.67 -0.950771 -5.6242 0
M  V30 22232 O 2124.6 -2.86169 -5.2952 0
M  V30 22233 H 2128.43 -2.2441 -2.04631 0
M  V30 22234 H 2126.01 -1.14716 -0.957114 0
M  V30 22235 H 2127.9 -0.921538 -4.112 0
M  V30 22236 H 2126.57 -0.108311 -3.23519 0
M  V30 22237 H 2125.48 -2.39702 -2.87217 0
M  V30 22238 H 2126.81 -3.1386 -3.79147 0
M  V30 22239 N 2128.46 1.04188 -1.18248 0
M  V30 22240 C 2129.41 2.10485 -0.876358 0
M  V30 22241 C 2130.4 1.60167 0.153389 0
M  V30 22242 O 2131.59 1.76928 -0.0504786 0
M  V30 22243 C 2128.72 3.40932 -0.402528 0
M  V30 22244 C 2127.81 3.9802 -1.46428 0
M  V30 22245 N 2128.2 4.28938 -2.68041 0
M  V30 22246 C 2126.49 4.25879 -1.32451 0
M  V30 22247 C 2127.2 4.74605 -3.3634 0
M  V30 22248 N 2126.17 4.75344 -2.63722 0
M  V30 22249 H 2129.97 2.32265 -1.80084 0
M  V30 22250 H 2127.49 1.2193 -1.0727 0
M  V30 22251 H 2129.48 4.16574 -0.164728 0
M  V30 22252 H 2128.14 3.2058 0.51563 0
M  V30 22253 H 2129.16 4.18623 -3.04918 0
M  V30 22254 H 2125.83 4.1486 -0.468792 0
M  V30 22255 H 2127.22 5.07557 -4.40267 0
M  V30 22256 N 2129.94 0.98432 1.23081 0
M  V30 22257 C 2130.87 0.547274 2.26996 0
M  V30 22258 C 2131.85 -0.421528 1.64794 0
M  V30 22259 O 2133.04 -0.314036 1.91644 0
M  V30 22260 C 2130.17 -0.147283 3.46988 0
M  V30 22261 C 2129.12 0.739194 4.21568 0
M  V30 22262 C 2128.45 -0.0877981 5.34628 0
M  V30 22263 C 2129.75 2.03191 4.81156 0
M  V30 22264 H 2131.44 1.41586 2.63806 0
M  V30 22265 H 2128.99 0.682245 1.26813 0
M  V30 22266 H 2130.94 -0.464368 4.18834 0
M  V30 22267 H 2129.67 -1.05035 3.09249 0
M  V30 22268 H 2128.32 1.03979 3.51545 0
M  V30 22269 H 2127.97 -0.99152 4.93131 0
M  V30 22270 H 2127.67 0.50225 5.8545 0
M  V30 22271 H 2129.2 -0.399175 6.09294 0
M  V30 22272 H 2130.61 1.77933 5.44989 0
M  V30 22273 H 2129.01 2.57006 5.4228 0
M  V30 22274 H 2130.08 2.71622 4.01684 0
M  V30 22275 N 2131.42 -1.38259 0.756453 0
M  V30 22276 C 2132.67 -2.00349 0.314356 0
M  V30 22277 C 2133 -1.5991 -1.10192 0
M  V30 22278 O 2132.27 -0.837999 -1.75522 0
M  V30 22279 C 2132.56 -3.57396 0.440504 0
M  V30 22280 C 2132.41 -4.0779 1.8981 0
M  V30 22281 C 2133.73 -4.39793 -0.164403 0
M  V30 22282 H 2130.85 -0.727862 0.115697 0
M  V30 22283 H 2133.49 -1.6416 0.956635 0
M  V30 22284 H 2131.64 -3.88355 -0.106298 0
M  V30 22285 H 2133.31 -3.87461 2.50343 0
M  V30 22286 H 2131.56 -3.6055 2.41218 0
M  V30 22287 H 2132.23 -5.1688 1.9375 0
M  V30 22288 H 2134.7 -4.15003 0.301971 0
M  V30 22289 H 2133.58 -5.48881 -0.0459121 0
M  V30 22290 H 2133.84 -4.23971 -1.25303 0
M  V30 22291 N 2132.9 -0.505757 -1.49264 0
M  V30 22292 C 2133.85 0.28378 -2.30862 0
M  V30 22293 C 2134.84 0.958332 -1.39687 0
M  V30 22294 O 2136.05 0.885479 -1.56714 0
M  V30 22295 H 2132.42 0.110376 -0.743856 0
M  V30 22296 H 2134.39 -0.424349 -2.95367 0
M  V30 22297 C 2133.14 1.33255 -3.21152 0
M  V30 22298 H 2132.46 0.822894 -3.9124 0
M  V30 22299 H 2133.9 1.85687 -3.81177 0
M  V30 22300 C 2132.36 2.35327 -2.41087 0
M  V30 22301 O 2132.89 3.41302 -2.1184 0
M  V30 22302 N 2131.1 2.07918 -2.03023 0
M  V30 22303 H 2130.65 1.21758 -2.27009 0
M  V30 22304 H 2130.6 2.7644 -1.49762 0
M  V30 22305 N 2134.38 1.55765 -0.239796 0
M  V30 22306 C 2135.62 1.98377 0.386152 0
M  V30 22307 C 2135.95 1.12912 1.58984 0
M  V30 22308 O 2135.22 0.210274 1.94768 0
M  V30 22309 H 2133.8 0.732661 0.145661 0
M  V30 22310 H 2136.46 1.91966 -0.336934 0
M  V30 22311 H 2135.55 3.04146 0.700123 0
M  V30 22312 N 2135.85 -0.0334016 1.57565 0
M  V30 22313 C 2137.27 -0.388971 1.54788 0
M  V30 22314 C 2137.47 -1.76871 0.965337 0
M  V30 22315 O 2136.53 -2.45642 0.584492 0
M  V30 22316 C 2137.84 -0.2948 2.99251 0
M  V30 22317 C 2139.39 -0.372199 3.10779 0
M  V30 22318 C 2139.86 -0.307524 4.56966 0
M  V30 22319 N 2141.35 -0.36645 4.61748 0
M  V30 22320 C 2142.09 -0.339229 5.72396 0
M  V30 22321 N 2141.58 -0.264554 6.92295 0
M  V30 22322 N 2143.38 -0.388638 5.60755 0
M  V30 22323 H 2135.53 0.869581 1.93783 0
M  V30 22324 H 2137.79 0.330231 0.888623 0
M  V30 22325 H 2137.5 0.653177 3.45581 0
M  V30 22326 H 2137.37 -1.09016 3.61103 0
M  V30 22327 H 2139.76 -1.31061 2.64399 0
M  V30 22328 H 2139.84 0.452431 2.51767 0
M  V30 22329 H 2139.48 0.627198 5.04013 0
M  V30 22330 H 2139.41 -1.1502 5.13885 0
M  V30 22331 H 2141.9 -0.426853 3.75482 0
M  V30 22332 H 2142.22 -0.248764 7.724 0
M  V30 22333 H 2140.56 -0.230666 6.94617 0
M  V30 22334 H 2143.75 -0.444937 4.65981 0
M  V30 22335 H 2143.93 -0.363955 6.46977 0
M  V30 22336 N 2137.33 -1.54609 -0.305591 0
M  V30 22337 C 2138.27 -1.80117 -1.40119 0
M  V30 22338 C 2139.24 -0.652099 -1.48951 0
M  V30 22339 O 2140.43 -0.891546 -1.66083 0
M  V30 22340 C 2137.55 -1.93379 -2.78069 0
M  V30 22341 C 2136.6 -3.15778 -2.86682 0
M  V30 22342 S 2137.43 -4.73958 -2.49247 0
M  V30 22343 C 2138.59 -4.90151 -3.89234 0
M  V30 22344 H 2138.82 -2.72762 -1.18272 0
M  V30 22345 H 2136.36 -1.45962 -0.503446 0
M  V30 22346 H 2138.31 -2.01706 -3.57526 0
M  V30 22347 H 2136.97 -1.0168 -2.97187 0
M  V30 22348 H 2136.17 -3.21846 -3.87854 0
M  V30 22349 H 2135.77 -3.05874 -2.15214 0
M  V30 22350 H 2138.06 -4.73892 -4.84183 0
M  V30 22351 H 2139 -5.92245 -3.88138 0
M  V30 22352 H 2139.41 -4.18332 -3.79023 0
M  V30 22353 N 2138.81 0.568558 -1.46987 0
M  V30 22354 C 2140.09 1.3291 -1.43507 0
M  V30 22355 C 2140.47 2.10724 -0.12598 0
M  V30 22356 O 2139.82 2.10348 0.892528 0
M  V30 22357 C 2140.03 2.2432 -2.6736 0
M  V30 22358 C 2141.37 2.85701 -3.14102 0
M  V30 22359 O 2142.4 2.34627 -2.68009 0
M  V30 22360 O 2141.26 3.78504 -3.94204 0
M  V30 22361 H 2138.35 0.597891 -0.571363 0
M  V30 22362 H 2140.9 0.588401 -1.59173 0
M  V30 22363 H 2139.67 1.66345 -3.54182 0
M  V30 22364 H 2139.29 3.05705 -2.54224 0
M  V30 22365 N 2140.29 1.34929 0.814366 0
M  V30 22366 C 2141.54 1.27766 1.57105 0
M  V30 22367 C 2141.86 -0.150063 1.9392 0
M  V30 22368 O 2141.12 -1.11344 1.60938 0
M  V30 22369 C 2141.42 2.12223 2.87569 0
M  V30 22370 C 2141.08 3.61119 2.70008 0
M  V30 22371 C 2139.75 4.01706 2.64926 0
M  V30 22372 C 2142.1 4.55629 2.53084 0
M  V30 22373 C 2139.43 5.34983 2.40853 0
M  V30 22374 C 2141.78 5.89095 2.30542 0
M  V30 22375 C 2140.44 6.28836 2.23877 0
M  V30 22376 H 2139.71 0.46753 0.574889 0
M  V30 22377 H 2142.36 1.66753 0.941581 0
M  V30 22378 H 2140.66 1.66092 3.54853 0
M  V30 22379 H 2142.36 2.04022 3.45219 0
M  V30 22380 H 2138.95 3.28906 2.74807 0
M  V30 22381 H 2143.13 4.25163 2.56028 0
M  V30 22382 H 2138.39 5.64783 2.34158 0
M  V30 22383 H 2142.56 6.61913 2.16436 0
M  V30 22384 H 2140.19 7.32042 2.04986 0
M  V30 22385 N 2141.77 -1.0356 1.18799 0
M  V30 22386 C 2142.73 -2.09853 0.921649 0
M  V30 22387 C 2143.73 -1.60519 -0.095096 0
M  V30 22388 O 2144.92 -1.73645 0.138909 0
M  V30 22389 C 2142.05 -3.38733 0.383809 0
M  V30 22390 H 2143.24 -2.34914 1.86428 0
M  V30 22391 H 2140.8 -1.20064 1.00071 0
M  V30 22392 H 2141.53 -3.19337 -0.565188 0
M  V30 22393 H 2141.32 -3.75859 1.11681 0
M  V30 22394 H 2142.81 -4.17039 0.216329 0
M  V30 22395 N 2143.25 -0.990834 -1.22557 0
M  V30 22396 C 2144.49 -0.665533 -1.91251 0
M  V30 22397 C 2144.82 0.802172 -1.77188 0
M  V30 22398 O 2144.08 1.5954 -1.13339 0
M  V30 22399 C 2144.37 -1.01474 -3.42692 0
M  V30 22400 C 2144.04 -2.47437 -3.76943 0
M  V30 22401 C 2142.7 -2.87325 -3.86002 0
M  V30 22402 C 2145.05 -3.42055 -3.93253 0
M  V30 22403 C 2142.38 -4.20825 -4.08807 0
M  V30 22404 C 2144.73 -4.75211 -4.17561 0
M  V30 22405 C 2143.4 -5.14843 -4.24844 0
M  V30 22406 H 2142.67 -0.243536 -0.699837 0
M  V30 22407 H 2145.32 -1.24664 -1.45366 0
M  V30 22408 H 2143.62 -0.351686 -3.90218 0
M  V30 22409 H 2145.32 -0.741104 -3.94092 0
M  V30 22410 H 2141.91 -2.15518 -3.70473 0
M  V30 22411 H 2146.09 -3.1241 -3.85634 0
M  V30 22412 H 2141.35 -4.51123 -4.12672 0
M  V30 22413 H 2145.52 -5.48475 -4.29125 0
M  V30 22414 H 2143.15 -6.18306 -4.42268 0
M  V30 22415 N 2144.72 1.37856 -0.763775 0
M  V30 22416 C 2146.13 1.82562 -0.390909 0
M  V30 22417 C 2146.49 1.63676 1.08188 0
M  V30 22418 O 2145.61 1.14349 1.8372 0
M  V30 22419 C 2146.21 3.31432 -0.702745 0
M  V30 22420 C 2144.76 3.74446 -0.383033 0
M  V30 22421 C 2143.91 2.60494 -0.950696 0
M  V30 22422 H 2146.86 1.2644 -0.95909 0
M  V30 22423 H 2146.88 3.80497 0.0154528 0
M  V30 22424 H 2146.4 3.45145 -1.77472 0
M  V30 22425 H 2144.5 3.66306 0.681946 0
M  V30 22426 H 2144.61 4.70842 -0.885708 0
M  V30 22427 H 2142.97 2.51918 -0.375427 0
M  V30 22428 H 2143.76 2.77003 -2.02791 0
M  V30 22429 N 2146.2 0.513665 1.48994 0
M  V30 22430 C 2147.45 -0.0262821 2.02083 0
M  V30 22431 C 2147.77 -1.36306 1.39448 0
M  V30 22432 O 2147.04 -1.87899 0.554154 0
M  V30 22433 H 2145.62 -0.012702 0.746892 0
M  V30 22434 H 2148.28 0.673788 1.82883 0
M  V30 22435 H 2147.38 -0.146648 3.11755 0
M  V30 22436 N 2147.68 -1.55636 0.248053 0
M  V30 22437 C 2148.9 -2.03825 -0.383439 0
M  V30 22438 C 2149.33 -1.12611 -1.50666 0
M  V30 22439 O 2148.69 -0.119296 -1.80907 0
M  V30 22440 C 2148.74 -3.5001 -0.86748 0
M  V30 22441 O 2147.84 -3.61925 -1.97696 0
M  V30 22442 H 2147.18 -0.65874 -0.0834089 0
M  V30 22443 H 2149.71 -2.01144 0.374447 0
M  V30 22444 H 2149.72 -3.90853 -1.17039 0
M  V30 22445 H 2148.4 -4.15875 -0.0455341 0
M  V30 22446 H 2146.97 -3.3298 -1.67866 0
M  V30 22447 N 2149.16 0.0250451 -1.5758 0
M  V30 22448 C 2150.39 0.72671 -1.93718 0
M  V30 22449 C 2150.8 1.68677 -0.848148 0
M  V30 22450 O 2150.16 1.81658 0.175105 0
M  V30 22451 C 2150.21 1.4803 -3.29802 0
M  V30 22452 O 2149.93 0.55877 -4.34522 0
M  V30 22453 C 2151.43 2.27876 -3.80247 0
M  V30 22454 H 2148.65 0.203986 -0.639242 0
M  V30 22455 H 2151.19 -0.0186251 -2.04492 0
M  V30 22456 H 2149.35 2.17748 -3.20413 0
M  V30 22457 H 2149.76 1.08769 -5.13098 0
M  V30 22458 H 2151.24 2.7614 -4.77965 0
M  V30 22459 H 2151.71 3.09471 -3.11648 0
M  V30 22460 H 2152.32 1.63224 -3.92731 0
M  V30 22461 N 2150.64 1.54769 0.297388 0
M  V30 22462 C 2151.58 1.86729 1.3869 0
M  V30 22463 C 2152.58 0.741344 1.52317 0
M  V30 22464 O 2153.78 0.925384 1.54391 0
M  V30 22465 H 2150.16 0.592301 0.463339 0
M  V30 22466 H 2152.13 2.77791 1.08972 0
M  V30 22467 C 2150.88 2.13444 2.74475 0
M  V30 22468 H 2150.2 2.99558 2.64773 0
M  V30 22469 H 2151.64 2.39744 3.49712 0
M  V30 22470 C 2150.1 0.934151 3.2369 0
M  V30 22471 O 2150.63 0.156464 4.01395 0
M  V30 22472 N 2148.84 0.738537 2.81059 0
M  V30 22473 H 2148.38 1.37261 2.17984 0
M  V30 22474 H 2148.34 -0.0630002 3.14337 0
M  V30 22475 N 2152.11 -0.560755 1.47286 0
M  V30 22476 C 2153.34 -1.34841 1.57584 0
M  V30 22477 C 2153.76 -1.86747 0.22521 0
M  V30 22478 O 2153.12 -1.62776 -0.798346 0
M  V30 22479 C 2153.17 -2.49671 2.60186 0
M  V30 22480 O 2152.27 -3.51793 2.1521 0
M  V30 22481 H 2151.61 -0.400669 0.529491 0
M  V30 22482 H 2154.14 -0.67803 1.93039 0
M  V30 22483 H 2154.15 -2.9629 2.80493 0
M  V30 22484 H 2152.83 -2.11248 3.58256 0
M  V30 22485 H 2151.41 -3.11504 2.04987 0
M  V30 22486 N 2153.59 -1.35359 -0.807199 0
M  V30 22487 C 2154.52 -1.30893 -1.93363 0
M  V30 22488 C 2155.5 -0.183475 -1.69108 0
M  V30 22489 O 2156.69 -0.378339 -1.90479 0
M  V30 22490 C 2153.82 -1.07954 -3.30096 0
M  V30 22491 C 2152.77 -2.17133 -3.68832 0
M  V30 22492 C 2152.1 -1.7936 -5.0372 0
M  V30 22493 C 2153.4 -3.59094 -3.79274 0
M  V30 22494 H 2155.09 -2.25145 -1.97357 0
M  V30 22495 H 2152.64 -1.08381 -0.948131 0
M  V30 22496 H 2154.59 -1.03469 -4.085 0
M  V30 22497 H 2153.31 -0.101468 -3.26442 0
M  V30 22498 H 2151.97 -2.20714 -2.92713 0
M  V30 22499 H 2151.62 -0.801733 -4.96569 0
M  V30 22500 H 2151.32 -2.52445 -5.30608 0
M  V30 22501 H 2152.85 -1.764 -5.84564 0
M  V30 22502 H 2154.26 -3.57839 -4.47911 0
M  V30 22503 H 2152.66 -4.30934 -4.17632 0
M  V30 22504 H 2153.73 -3.9529 -2.80845 0
M  V30 22505 N 2155.07 1.02928 -1.19346 0
M  V30 22506 C 2156.02 2.09544 -0.898634 0
M  V30 22507 C 2157 1.60321 0.136393 0
M  V30 22508 O 2158.2 1.76865 -0.0692414 0
M  V30 22509 C 2155.32 3.40486 -0.438666 0
M  V30 22510 C 2154.41 3.96444 -1.50641 0
M  V30 22511 N 2154.8 4.26071 -2.72575 0
M  V30 22512 C 2153.1 4.2445 -1.3696 0
M  V30 22513 C 2153.8 4.71011 -3.41355 0
M  V30 22514 N 2152.78 4.7252 -2.68749 0
M  V30 22515 H 2156.58 2.30342 -1.82538 0
M  V30 22516 H 2154.09 1.20785 -1.08557 0
M  V30 22517 H 2156.09 4.16376 -0.208902 0
M  V30 22518 H 2154.75 3.21109 0.481599 0
M  V30 22519 H 2155.76 4.15365 -3.09341 0
M  V30 22520 H 2152.44 4.14339 -0.512767 0
M  V30 22521 H 2153.83 5.02859 -4.45626 0
M  V30 22522 N 2156.55 0.997319 1.2203 0
M  V30 22523 C 2157.96 0.708807 1.42997 0
M  V30 22524 C 2158.16 -0.718903 1.88239 0
M  V30 22525 O 2157.22 -1.48925 2.03906 0
M  V30 22526 C 2158.53 1.71814 2.4678 0
M  V30 22527 C 2160.08 1.73408 2.60573 0
M  V30 22528 C 2160.56 2.73216 3.67582 0
M  V30 22529 N 2162.05 2.71837 3.75045 0
M  V30 22530 C 2162.78 3.45728 4.57449 0
M  V30 22531 N 2162.28 4.29233 5.43811 0
M  V30 22532 N 2164.07 3.34413 4.51801 0
M  V30 22533 H 2156.22 1.91932 0.909709 0
M  V30 22534 H 2158.48 0.828004 0.461642 0
M  V30 22535 H 2158.19 2.74 2.20492 0
M  V30 22536 H 2158.06 1.51457 3.45457 0
M  V30 22537 H 2160.45 0.719178 2.86202 0
M  V30 22538 H 2160.53 1.97835 1.62157 0
M  V30 22539 H 2160.18 3.74859 3.427 0
M  V30 22540 H 2160.11 2.46058 4.65578 0
M  V30 22541 H 2162.6 2.11248 3.13341 0
M  V30 22542 H 2162.91 4.82429 6.03723 0
M  V30 22543 H 2161.26 4.33319 5.43378 0
M  V30 22544 H 2164.45 2.68614 3.83359 0
M  V30 22545 H 2164.62 3.92257 5.15789 0
M  V30 22546 N 2158.03 -1.37449 0.771075 0
M  V30 22547 C 2158.96 -2.27966 0.103207 0
M  V30 22548 C 2159.94 -1.46288 -0.709827 0
M  V30 22549 O 2161.12 -1.75624 -0.684734 0
M  V30 22550 C 2158.25 -3.27597 -0.860115 0
M  V30 22551 C 2157.29 -4.26298 -0.131162 0
M  V30 22552 S 2158.13 -5.2233 1.18033 0
M  V30 22553 C 2159.28 -6.25511 0.220534 0
M  V30 22554 H 2159.52 -2.84263 0.870745 0
M  V30 22555 H 2157.05 -1.43713 0.564436 0
M  V30 22556 H 2159.01 -3.85506 -1.41052 0
M  V30 22557 H 2157.67 -2.70249 -1.60076 0
M  V30 22558 H 2156.86 -4.96584 -0.86141 0
M  V30 22559 H 2156.46 -3.72375 0.34822 0
M  V30 22560 H 2158.76 -6.74773 -0.607294 0
M  V30 22561 H 2159.7 -7.02465 0.891548 0
M  V30 22562 H 2160.11 -5.6425 -0.167959 0
M  V30 22563 N 2159.5 -0.52156 -1.4872 0
M  V30 22564 C 2160.73 0.0117966 -2.06897 0
M  V30 22565 C 2161.15 1.28928 -1.37924 0
M  V30 22566 O 2160.5 1.76502 -0.464046 0
M  V30 22567 C 2160.56 0.248161 -3.60647 0
M  V30 22568 O 2160.28 -0.978703 -4.27028 0
M  V30 22569 C 2161.78 0.822848 -4.35596 0
M  V30 22570 H 2159 -0.0297145 -0.670342 0
M  V30 22571 H 2161.54 -0.724798 -1.91225 0
M  V30 22572 H 2159.7 0.934783 -3.75953 0
M  V30 22573 H 2160.11 -0.754221 -5.19049 0
M  V30 22574 H 2161.58 0.937703 -5.43977 0
M  V30 22575 H 2162.06 1.82571 -3.99455 0
M  V30 22576 H 2162.67 0.173056 -4.24948 0
M  V30 22577 N 2160.98 1.55502 -0.256304 0
M  V30 22578 C 2162.21 2.0357 0.36969 0
M  V30 22579 C 2162.63 1.13529 1.50853 0
M  V30 22580 O 2161.98 0.151576 1.81869 0
M  V30 22581 C 2162.03 3.5091 0.868581 0
M  V30 22582 O 2161.75 4.37522 -0.224886 0
M  V30 22583 C 2163.26 4.14782 1.56431 0
M  V30 22584 H 2160.48 0.665369 0.0867485 0
M  V30 22585 H 2163.02 2.00883 -0.382912 0
M  V30 22586 H 2161.17 3.54102 1.57133 0
M  V30 22587 H 2161.59 5.2427 0.155467 0
M  V30 22588 H 2163.06 5.1954 1.865 0
M  V30 22589 H 2163.54 3.6183 2.48949 0
M  V30 22590 H 2164.15 4.1554 0.905893 0
M  V30 22591 N 2162.46 -0.0166879 1.57591 0
M  V30 22592 C 2163.69 -0.716426 1.941 0
M  V30 22593 C 2164.1 -1.68225 0.857081 0
M  V30 22594 O 2163.46 -1.81748 -0.165469 0
M  V30 22595 C 2163.51 -1.46279 3.30583 0
M  V30 22596 O 2163.23 -0.535718 4.34812 0
M  V30 22597 C 2164.73 -2.25856 3.8145 0
M  V30 22598 H 2161.95 -0.200593 0.640315 0
M  V30 22599 H 2164.5 0.0294696 2.04479 0
M  V30 22600 H 2162.65 -2.16045 3.21564 0
M  V30 22601 H 2163.07 -1.06046 5.13668 0
M  V30 22602 H 2164.54 -2.73602 4.79423 0
M  V30 22603 H 2165.02 -3.07813 3.13285 0
M  V30 22604 H 2165.62 -1.61139 3.93592 0
M  V30 22605 N 2163.94 -1.54924 -0.289176 0
M  V30 22606 C 2165.16 -1.791 -1.04585 0
M  V30 22607 C 2165.59 -0.55455 -1.7974 0
M  V30 22608 O 2164.95 0.495343 -1.74402 0
M  V30 22609 C 2164.99 -3.0053 -1.99283 0
M  V30 22610 O 2164.1 -2.74483 -3.07787 0
M  V30 22611 H 2163.44 -0.592442 -0.299847 0
M  V30 22612 H 2165.97 -2.02034 -0.323001 0
M  V30 22613 H 2165.98 -3.28824 -2.41534 0
M  V30 22614 H 2164.65 -3.90179 -1.4399 0
M  V30 22615 H 2163.23 -2.5724 -2.69966 0
M  V30 22616 N 2165.42 0.552936 -1.47582 0
M  V30 22617 C 2166.38 1.64175 -1.59936 0
M  V30 22618 C 2167.38 1.5365 -0.474152 0
M  V30 22619 O 2168.57 1.57732 -0.739338 0
M  V30 22620 C 2165.7 3.03732 -1.5479 0
M  V30 22621 H 2166.89 1.54569 -2.56999 0
M  V30 22622 H 2164.45 0.773198 -1.35836 0
M  V30 22623 H 2165.18 3.18866 -0.591183 0
M  V30 22624 H 2164.97 3.12779 -2.36456 0
M  V30 22625 H 2166.46 3.82936 -1.66582 0
M  V30 22626 N 2166.89 1.35785 0.800009 0
M  V30 22627 C 2167.86 1.29109 1.89377 0
M  V30 22628 C 2168.86 0.201077 1.59538 0
M  V30 22629 O 2170.05 0.455197 1.68148 0
M  V30 22630 C 2167.18 0.99888 3.25937 0
M  V30 22631 H 2168.37 2.2637 1.96715 0
M  V30 22632 H 2165.93 1.20404 0.996618 0
M  V30 22633 H 2166.66 0.0304071 3.24286 0
M  V30 22634 H 2166.45 1.78756 3.48982 0
M  V30 22635 H 2167.94 0.977941 4.05988 0
M  V30 22636 N 2168.37 -1.02294 1.19891 0
M  V30 22637 C 2169.34 -2.08864 0.943854 0
M  V30 22638 C 2170.34 -1.6061 -0.0780656 0
M  V30 22639 O 2171.53 -1.73488 0.157319 0
M  V30 22640 C 2168.66 -3.38306 0.419714 0
M  V30 22641 H 2169.85 -2.32924 1.88909 0
M  V30 22642 H 2167.4 -1.18996 1.01339 0
M  V30 22643 H 2168.14 -3.19918 -0.531286 0
M  V30 22644 H 2167.92 -3.74653 1.15661 0
M  V30 22645 H 2169.41 -4.16786 0.26055 0
M  V30 22646 N 2169.85 -1.00378 -1.21499 0
M  V30 22647 C 2171.08 -0.703551 -1.94252 0
M  V30 22648 C 2171.49 0.73767 -1.74227 0
M  V30 22649 O 2170.83 1.51064 -1.04525 0
M  V30 22650 C 2170.89 -0.94326 -3.46905 0
M  V30 22651 C 2170.56 -2.37108 -3.90677 0
M  V30 22652 C 2171.55 -3.35123 -3.97478 0
M  V30 22653 C 2169.24 -2.70841 -4.23025 0
M  V30 22654 C 2171.23 -4.64939 -4.36017 0
M  V30 22655 C 2168.92 -4.00873 -4.61242 0
M  V30 22656 C 2169.92 -4.97734 -4.67708 0
M  V30 22657 O 2169.61 -6.25441 -5.05054 0
M  V30 22658 H 2169.34 -0.258563 -0.624597 0
M  V30 22659 H 2171.89 -1.34429 -1.55299 0
M  V30 22660 H 2170.12 -0.245347 -3.85921 0
M  V30 22661 H 2171.81 -0.636609 -4.00877 0
M  V30 22662 H 2172.58 -3.10397 -3.72665 0
M  V30 22663 H 2168.46 -1.96145 -4.17191 0
M  V30 22664 H 2172 -5.4054 -4.40978 0
M  V30 22665 H 2167.9 -4.25385 -4.85508 0
M  V30 22666 H 2168.67 -6.29538 -5.23091 0
M  V30 22667 N 2171.33 1.37038 -0.778354 0
M  V30 22668 C 2172.58 1.99134 -0.344995 0
M  V30 22669 C 2172.9 1.62093 1.08402 0
M  V30 22670 O 2172.17 0.889547 1.74539 0
M  V30 22671 H 2170.75 0.73654 -0.124572 0
M  V30 22672 H 2173.41 1.67413 -0.997945 0
M  V30 22673 H 2172.51 3.09152 -0.427927 0
M  V30 22674 N 2172.81 0.529439 1.48441 0
M  V30 22675 C 2174.04 -0.000824174 2.069 0
M  V30 22676 C 2174.45 -1.28195 1.38605 0
M  V30 22677 O 2173.81 -1.76253 0.4734 0
M  V30 22678 C 2173.86 -0.229032 3.60774 0
M  V30 22679 O 2173.58 1.00134 4.26503 0
M  V30 22680 C 2175.08 -0.799736 4.36027 0
M  V30 22681 H 2172.3 0.0332691 0.670175 0
M  V30 22682 H 2174.84 0.734929 1.90838 0
M  V30 22683 H 2173 -0.914832 3.76443 0
M  V30 22684 H 2173.41 0.781737 5.18642 0
M  V30 22685 H 2174.89 -0.908842 5.44467 0
M  V30 22686 H 2175.36 -1.8045 4.00418 0
M  V30 22687 H 2175.97 -0.150518 4.25034 0
M  V30 22688 N 2174.29 -1.55364 0.264547 0
M  V30 22689 C 2175.24 -2.18781 -0.641787 0
M  V30 22690 C 2176.22 -1.14912 -1.12624 0
M  V30 22691 O 2177.41 -1.40763 -1.07307 0
M  V30 22692 C 2174.54 -2.90435 -1.83037 0
M  V30 22693 C 2173.63 -4.0158 -1.3636 0
M  V30 22694 N 2174.02 -5.02081 -0.612243 0
M  V30 22695 C 2172.32 -4.14458 -1.64744 0
M  V30 22696 C 2173.02 -5.80533 -0.368214 0
M  V30 22697 N 2171.99 -5.35454 -0.937575 0
M  V30 22698 H 2175.79 -2.93839 -0.0597811 0
M  V30 22699 H 2173.31 -1.62259 0.067633 0
M  V30 22700 H 2175.31 -3.34309 -2.49085 0
M  V30 22701 H 2173.97 -2.16884 -2.41643 0
M  V30 22702 H 2174.98 -5.17244 -0.260611 0
M  V30 22703 H 2171.65 -3.52091 -2.24361 0
M  V30 22704 H 2173.04 -6.71497 0.23282 0
M  V30 22705 N 2175.76 0.00833021 -1.57598 0
M  V30 22706 C 2176.69 1.0015 -2.10932 0
M  V30 22707 C 2177.67 1.36385 -1.01653 0
M  V30 22708 O 2178.86 1.44906 -1.2929 0
M  V30 22709 C 2175.99 2.296 -2.60578 0
M  V30 22710 C 2174.94 2.07551 -3.74308 0
M  V30 22711 C 2174.27 3.42942 -4.10238 0
M  V30 22712 C 2175.57 1.44484 -5.01918 0
M  V30 22713 H 2177.26 0.557461 -2.94164 0
M  V30 22714 H 2174.81 0.266703 -1.41509 0
M  V30 22715 H 2176.76 2.99428 -2.96515 0
M  V30 22716 H 2175.49 2.76103 -1.74456 0
M  V30 22717 H 2174.15 1.40152 -3.38752 0
M  V30 22718 H 2173.79 3.87132 -3.21151 0
M  V30 22719 H 2173.49 3.29007 -4.86855 0
M  V30 22720 H 2175.02 4.14098 -4.48726 0
M  V30 22721 H 2176.43 2.04256 -5.35679 0
M  V30 22722 H 2174.83 1.41063 -5.83285 0
M  V30 22723 H 2175.9 0.413049 -4.83138 0
M  V30 22724 N 2177.24 1.55075 0.280956 0
M  V30 22725 C 2178.47 1.79652 1.03634 0
M  V30 22726 C 2178.89 0.564074 1.79443 0
M  V30 22727 O 2178.25 -0.486088 1.74662 0
M  V30 22728 C 2178.3 3.01583 1.97687 0
M  V30 22729 O 2177.4 2.76111 3.06327 0
M  V30 22730 H 2176.74 0.594024 0.296701 0
M  V30 22731 H 2179.27 2.02203 0.312282 0
M  V30 22732 H 2179.28 3.301 2.39787 0
M  V30 22733 H 2177.96 3.90937 1.41919 0
M  V30 22734 H 2176.53 2.58668 2.68598 0
M  V30 22735 N 2178.72 -0.545102 1.47873 0
M  V30 22736 C 2180.13 -1.12717 1.48835 0
M  V30 22737 C 2180.48 -1.94604 0.249718 0
M  V30 22738 O 2179.61 -2.06582 -0.644417 0
M  V30 22739 C 2180.2 -2.05084 2.69678 0
M  V30 22740 C 2178.76 -2.58538 2.7356 0
M  V30 22741 C 2177.91 -1.35171 2.42124 0
M  V30 22742 H 2180.86 -0.331094 1.55208 0
M  V30 22743 H 2180.88 -2.89145 2.47336 0
M  V30 22744 H 2180.39 -1.45457 3.59811 0
M  V30 22745 H 2178.49 -3.21929 1.87597 0
M  V30 22746 H 2178.61 -2.98704 3.74583 0
M  V30 22747 H 2176.97 -1.66249 1.9296 0
M  V30 22748 H 2177.75 -0.773194 3.3448 0
M  V30 22749 N 2180.2 -1.36208 -0.792797 0
M  V30 22750 C 2181.15 -1.2679 -1.89495 0
M  V30 22751 C 2182.13 -0.160119 -1.60101 0
M  V30 22752 O 2183.32 -0.39262 -1.72591 0
M  V30 22753 C 2180.45 -1.05602 -3.26654 0
M  V30 22754 C 2179.54 -2.20832 -3.62069 0
M  V30 22755 N 2179.93 -3.46132 -3.68817 0
M  V30 22756 C 2178.23 -2.12523 -3.9211 0
M  V30 22757 C 2178.93 -4.21991 -4.00373 0
M  V30 22758 N 2177.9 -3.50895 -4.15179 0
M  V30 22759 H 2181.71 -2.21707 -1.92934 0
M  V30 22760 H 2179.22 -1.28878 -0.988137 0
M  V30 22761 H 2181.22 -0.969423 -4.05472 0
M  V30 22762 H 2179.88 -0.115827 -3.24493 0
M  V30 22763 H 2180.89 -3.8031 -3.51547 0
M  V30 22764 H 2177.57 -1.26439 -3.97894 0
M  V30 22765 H 2178.96 -5.30335 -4.12546 0
M  V30 22766 N 2181.68 1.01656 -1.20431 0
M  V30 22767 C 2182.92 1.75515 -1.016 0
M  V30 22768 C 2183.25 1.88896 0.450791 0
M  V30 22769 O 2182.53 1.4148 1.33468 0
M  V30 22770 C 2182.81 3.17433 -1.70024 0
M  V30 22771 C 2182.67 3.11847 -3.24147 0
M  V30 22772 C 2183.98 4.16105 -1.43334 0
M  V30 22773 H 2181.1 0.637102 -0.370501 0
M  V30 22774 H 2183.75 1.18591 -1.48446 0
M  V30 22775 H 2181.9 3.66035 -1.30195 0
M  V30 22776 H 2183.57 2.71049 -3.7327 0
M  V30 22777 H 2181.81 2.49242 -3.55051 0
M  V30 22778 H 2182.48 4.12169 -3.6718 0
M  V30 22779 H 2184.96 3.76159 -1.77887 0
M  V30 22780 H 2183.83 5.13571 -1.93741 0
M  V30 22781 H 2184.09 4.40624 -0.360952 0
M  V30 22782 N 2183.15 1.01021 1.20965 0
M  V30 22783 C 2184.56 0.728406 1.71904 0
M  V30 22784 C 2184.92 -0.753559 1.81152 0
M  V30 22785 O 2184.04 -1.5884 1.46966 0
M  V30 22786 C 2184.64 1.31558 3.12215 0
M  V30 22787 C 2183.19 1.08279 3.6049 0
M  V30 22788 C 2182.34 1.42521 2.37872 0
M  V30 22789 H 2185.29 1.18047 1.06069 0
M  V30 22790 H 2185.31 0.702879 3.73952 0
M  V30 22791 H 2184.83 2.39417 3.05452 0
M  V30 22792 H 2182.93 0.0215819 3.72594 0
M  V30 22793 H 2183.04 1.75834 4.45667 0
M  V30 22794 H 2181.4 0.844088 2.40307 0
M  V30 22795 H 2182.19 2.51422 2.33756 0
M  V30 22796 N 2184.63 -1.36623 0.78561 0
M  V30 22797 C 2185.58 -2.27475 0.154576 0
M  V30 22798 C 2186.57 -1.46775 -0.659246 0
M  V30 22799 O 2187.76 -1.69191 -0.519944 0
M  V30 22800 C 2184.89 -3.35819 -0.712793 0
M  V30 22801 C 2183.97 -4.23958 0.109612 0
M  V30 22802 N 2184.36 -4.92266 1.16221 0
M  V30 22803 C 2182.66 -4.45859 -0.112163 0
M  V30 22804 C 2183.36 -5.57436 1.66254 0
M  V30 22805 N 2182.34 -5.34832 0.972395 0
M  V30 22806 H 2186.14 -2.77769 0.960279 0
M  V30 22807 H 2183.65 -1.49904 0.624702 0
M  V30 22808 H 2185.65 -3.9983 -1.18075 0
M  V30 22809 H 2184.31 -2.87079 -1.51708 0
M  V30 22810 H 2185.32 -4.94331 1.54459 0
M  V30 22811 H 2182 -4.07963 -0.887264 0
M  V30 22812 H 2183.39 -6.21995 2.54111 0
M  V30 22813 N 2186.11 -0.537304 -1.48158 0
M  V30 22814 C 2187.53 -0.195663 -1.58396 0
M  V30 22815 C 2187.73 1.30132 -1.53843 0
M  V30 22816 O 2186.78 2.08011 -1.43135 0
M  V30 22817 C 2188.09 -0.804684 -2.89733 0
M  V30 22818 C 2189.64 -0.774086 -3.03277 0
M  V30 22819 C 2190.12 -1.36181 -4.37285 0
M  V30 22820 N 2191.61 -1.32411 -4.43871 0
M  V30 22821 C 2192.34 -1.74869 -5.46085 0
M  V30 22822 N 2191.84 -2.2509 -6.55215 0
M  V30 22823 N 2193.63 -1.66061 -5.3701 0
M  V30 22824 H 2185.78 -1.51014 -1.4936 0
M  V30 22825 H 2188.05 -0.628585 -0.709637 0
M  V30 22826 H 2187.75 -1.85596 -2.98742 0
M  V30 22827 H 2187.63 -0.286039 -3.76114 0
M  V30 22828 H 2190.01 0.26845 -2.93876 0
M  V30 22829 H 2190.09 -1.33028 -2.18489 0
M  V30 22830 H 2189.74 -2.40332 -4.47441 0
M  V30 22831 H 2189.67 -0.781239 -5.20773 0
M  V30 22832 H 2192.16 -0.956544 -3.65594 0
M  V30 22833 H 2192.47 -2.55463 -7.29355 0
M  V30 22834 H 2190.82 -2.29088 -6.56158 0
M  V30 22835 H 2194.01 -1.26618 -4.5065 0
M  V30 22836 H 2194.18 -1.9947 -6.16535 0
M  V30 22837 N 2187.59 1.55221 -0.272782 0
M  V30 22838 C 2188.83 1.99841 0.345178 0
M  V30 22839 C 2189.17 1.16093 1.55679 0
M  V30 22840 O 2188.44 0.230441 1.9313 0
M  V30 22841 C 2188.73 3.5263 0.729656 0
M  V30 22842 C 2188.58 4.47133 -0.489138 0
M  V30 22843 C 2189.9 4.11259 1.56698 0
M  V30 22844 H 2187.02 0.726495 0.123989 0
M  V30 22845 H 2189.66 1.86176 -0.379262 0
M  V30 22846 H 2187.81 3.64405 1.34689 0
M  V30 22847 H 2189.48 4.47304 -1.12769 0
M  V30 22848 H 2187.72 4.18888 -1.12762 0
M  V30 22849 H 2188.39 5.51718 -0.176396 0
M  V30 22850 H 2190.87 4.02745 1.04572 0
M  V30 22851 H 2189.75 5.1838 1.80481 0
M  V30 22852 H 2190.01 3.61341 2.54726 0
M  V30 22853 N 2189.07 2.77022e-05 1.576 0
M  V30 22854 C 2190 -0.990304 2.1146 0
M  V30 22855 C 2190.98 -1.35844 1.02374 0
M  V30 22856 O 2192.16 -1.44218 1.30057 0
M  V30 22857 C 2189.29 -2.28215 2.61792 0
M  V30 22858 C 2188.25 -2.05563 3.75404 0
M  V30 22859 C 2187.57 -3.40761 4.12051 0
M  V30 22860 C 2188.87 -1.4182 5.02677 0
M  V30 22861 H 2190.57 -0.541853 2.94456 0
M  V30 22862 H 2188.11 -0.259194 1.41648 0
M  V30 22863 H 2190.07 -2.97851 2.98099 0
M  V30 22864 H 2188.79 -2.75174 1.75918 0
M  V30 22865 H 2187.45 -1.38353 3.39491 0
M  V30 22866 H 2187.1 -3.85423 3.232 0
M  V30 22867 H 2186.8 -3.26421 4.88593 0
M  V30 22868 H 2188.32 -4.11712 4.50916 0
M  V30 22869 H 2189.73 -2.01413 5.36755 0
M  V30 22870 H 2188.13 -1.37967 5.84025 0
M  V30 22871 H 2189.2 -0.387421 4.8335 0
M  V30 22872 N 2190.54 -1.55222 -0.272728 0
M  V30 22873 C 2191.77 -1.80199 -1.02679 0
M  V30 22874 C 2192.19 -0.573583 -1.79141 0
M  V30 22875 O 2191.55 0.476818 -1.74918 0
M  V30 22876 C 2191.6 -3.02627 -1.96084 0
M  V30 22877 O 2190.7 -2.77732 -3.04858 0
M  V30 22878 H 2190.05 -0.595589 -0.293547 0
M  V30 22879 H 2192.58 -2.02366 -0.301554 0
M  V30 22880 H 2192.59 -3.31367 -2.38033 0
M  V30 22881 H 2191.26 -3.91684 -1.39844 0
M  V30 22882 H 2189.84 -2.60089 -2.67223 0
M  V30 22883 N 2192.02 0.537252 -1.4816 0
M  V30 22884 C 2193.25 1.31838 -1.59456 0
M  V30 22885 C 2193.67 1.87109 -0.252098 0
M  V30 22886 O 2193.02 1.66033 0.757592 0
M  V30 22887 C 2193.07 2.47434 -2.6355 0
M  V30 22888 O 2192.79 1.94443 -3.92586 0
M  V30 22889 C 2194.3 3.39361 -2.85218 0
M  V30 22890 H 2191.52 0.401186 -0.537858 0
M  V30 22891 H 2194.06 0.648857 -1.93933 0
M  V30 22892 H 2192.21 3.10286 -2.31952 0
M  V30 22893 H 2192.63 2.70056 -4.49633 0
M  V30 22894 H 2194.1 4.16838 -3.6187 0
M  V30 22895 H 2194.58 3.94144 -1.93772 0
M  V30 22896 H 2195.19 2.82308 -3.18091 0
M  V30 22897 N 2193.5 1.36626 0.785562 0
M  V30 22898 C 2194.73 1.344 1.57961 0
M  V30 22899 C 2195.15 -0.071493 1.87964 0
M  V30 22900 O 2194.51 -1.04457 1.48184 0
M  V30 22901 C 2194.56 2.17651 2.87507 0
M  V30 22902 O 2193.66 1.57165 3.81278 0
M  V30 22903 H 2193 0.459836 0.479006 0
M  V30 22904 H 2195.53 1.79962 0.973379 0
M  V30 22905 H 2195.54 2.30368 3.36741 0
M  V30 22906 H 2194.22 3.20546 2.64997 0
M  V30 22907 H 2192.79 1.53409 3.39883 0
M  V30 22908 N 2194.98 -1.01016 1.20969 0
M  V30 22909 C 2196.2 -1.78837 1.05034 0
M  V30 22910 C 2196.63 -1.8389 -0.39572 0
M  V30 22911 O 2195.99 -1.2787 -1.28527 0
M  V30 22912 C 2196.03 -3.20837 1.64608 0
M  V30 22913 O 2195.14 -4.02725 0.888059 0
M  V30 22914 H 2194.48 -0.55136 0.369997 0
M  V30 22915 H 2197.01 -1.27015 1.60401 0
M  V30 22916 H 2197.02 -3.71529 1.68613 0
M  V30 22917 H 2195.69 -3.16474 2.69846 0
M  V30 22918 H 2194.27 -3.61304 0.922711 0
M  V30 22919 N 2196.46 -1.01661 -1.20428 0
M  V30 22920 C 2197.68 -0.725166 -1.93776 0
M  V30 22921 C 2198.1 0.714135 -1.74773 0
M  V30 22922 O 2197.46 1.48438 -1.06171 0
M  V30 22923 C 2197.51 -1.05136 -3.45874 0
M  V30 22924 O 2197.23 -2.43412 -3.64255 0
M  V30 22925 C 2198.73 -0.780967 -4.36367 0
M  V30 22926 H 2195.95 -0.266294 -0.615896 0
M  V30 22927 H 2198.49 -1.35779 -1.52919 0
M  V30 22928 H 2196.65 -0.464133 -3.8461 0
M  V30 22929 H 2197.06 -2.55177 -4.58241 0
M  V30 22930 H 2198.54 -1.05928 -5.41741 0
M  V30 22931 H 2199.01 0.28486 -4.38275 0
M  V30 22932 H 2199.62 -1.35034 -4.03294 0
M  V30 22933 N 2197.93 1.36205 -0.792844 0
M  V30 22934 C 2198.86 2.32573 -0.207894 0
M  V30 22935 C 2199.85 1.56815 0.659028 0
M  V30 22936 O 2201.03 1.84952 0.592143 0
M  V30 22937 C 2198.16 3.4106 0.655389 0
M  V30 22938 C 2197.11 4.27854 -0.111917 0
M  V30 22939 C 2196.44 5.27539 0.872181 0
M  V30 22940 C 2197.74 5.05784 -1.30308 0
M  V30 22941 H 2199.43 2.81743 -1.01299 0
M  V30 22942 H 2196.98 1.35459 -0.488564 0
M  V30 22943 H 2198.93 4.07469 1.07457 0
M  V30 22944 H 2197.66 2.90466 1.49323 0
M  V30 22945 H 2196.32 3.63005 -0.512116 0
M  V30 22946 H 2195.96 4.73217 1.70514 0
M  V30 22947 H 2195.66 5.86477 0.363188 0
M  V30 22948 H 2197.19 5.96821 1.28986 0
M  V30 22949 H 2198.6 5.65214 -0.959478 0
M  V30 22950 H 2197 5.7415 -1.7456 0
M  V30 22951 H 2198.07 4.37226 -2.0967 0
M  V30 22952 N 2199.41 0.545154 1.47871 0
M  V30 22953 C 2200.64 0.0211204 2.06889 0
M  V30 22954 C 2201.06 -1.26718 1.39957 0
M  V30 22955 O 2200.41 -1.75741 0.492067 0
M  V30 22956 C 2200.46 -0.190754 3.60996 0
M  V30 22957 O 2200.18 1.04652 4.25417 0
M  V30 22958 C 2201.69 -0.753445 4.3685 0
M  V30 22959 H 2198.91 0.0403753 0.669784 0
M  V30 22960 H 2201.45 0.755128 1.90048 0
M  V30 22961 H 2199.6 -0.874854 3.77392 0
M  V30 22962 H 2200.02 0.836702 5.17783 0
M  V30 22963 H 2201.49 -0.851043 5.454 0
M  V30 22964 H 2201.97 -1.76193 4.02309 0
M  V30 22965 H 2202.58 -0.105429 4.25169 0
M  V30 22966 N 2200.89 -1.55074 0.28101 0
M  V30 22967 C 2202.31 -1.59433 -0.0729684 0
M  V30 22968 C 2202.51 -1.29819 -1.54108 0
M  V30 22969 O 2201.56 -1.06191 -2.29085 0
M  V30 22970 C 2202.88 -2.99129 0.306974 0
M  V30 22971 C 2204.42 -3.11967 0.254078 0
M  V30 22972 C 2204.9 -4.53939 0.608547 0
M  V30 22973 N 2206.39 -4.59798 0.560322 0
M  V30 22974 C 2207.12 -5.67688 0.807319 0
M  V30 22975 N 2206.62 -6.83699 1.11924 0
M  V30 22976 N 2208.41 -5.57264 0.735721 0
M  V30 22977 H 2200.56 -1.72588 1.23803 0
M  V30 22978 H 2202.83 -0.805073 0.500561 0
M  V30 22979 H 2202.53 -3.25655 1.32822 0
M  V30 22980 H 2202.41 -3.75579 -0.349297 0
M  V30 22981 H 2204.79 -2.85202 -0.75789 0
M  V30 22982 H 2204.88 -2.37717 0.94469 0
M  V30 22983 H 2204.52 -4.81431 1.61823 0
M  V30 22984 H 2204.45 -5.26497 -0.10392 0
M  V30 22985 H 2206.94 -3.76462 0.329354 0
M  V30 22986 H 2207.25 -7.61886 1.29422 0
M  V30 22987 H 2205.6 -6.853 1.15708 0
M  V30 22988 H 2208.79 -4.65509 0.491834 0
M  V30 22989 H 2208.96 -6.41269 0.931595 0
M  V30 22990 N 2202.37 -0.00838561 -1.57598 0
M  V30 22991 C 2203.65 0.712203 -1.82173 0
M  V30 22992 C 2204.03 1.91519 -0.887907 0
M  V30 22993 O 2203.37 2.28417 0.0614199 0
M  V30 22994 C 2203.58 1.11002 -3.30877 0
M  V30 22995 C 2204.93 1.51037 -3.96829 0
M  V30 22996 O 2205.96 1.20358 -3.3525 0
M  V30 22997 O 2204.82 2.08116 -5.05322 0
M  V30 22998 H 2201.91 0.347515 -0.750441 0
M  V30 22999 H 2204.46 -0.0344821 -1.69665 0
M  V30 23000 H 2203.23 0.252913 -3.90482 0
M  V30 23001 H 2202.85 1.91554 -3.48415 0
M  V30 23002 N 2203.85 1.55365 0.264492 0
M  V30 23003 C 2205.08 1.80145 1.0115 0
M  V30 23004 C 2205.49 0.579285 1.80114 0
M  V30 23005 O 2204.83 -0.461288 1.77814 0
M  V30 23006 C 2204.89 2.97997 2.01093 0
M  V30 23007 C 2204.55 4.34709 1.40988 0
M  V30 23008 C 2205.55 5.13373 0.821226 0
M  V30 23009 C 2203.24 4.8138 1.43452 0
M  V30 23010 C 2205.23 6.36848 0.265227 0
M  V30 23011 C 2202.92 6.04808 0.874665 0
M  V30 23012 C 2203.92 6.8238 0.291026 0
M  V30 23013 O 2203.6 8.03479 -0.260235 0
M  V30 23014 H 2203.34 0.603731 0.304114 0
M  V30 23015 H 2205.89 2.03226 0.298053 0
M  V30 23016 H 2204.12 2.70628 2.7622 0
M  V30 23017 H 2205.81 3.10025 2.61991 0
M  V30 23018 H 2206.57 4.78443 0.794819 0
M  V30 23019 H 2202.45 4.21005 1.87819 0
M  V30 23020 H 2206 6.97339 -0.190959 0
M  V30 23021 H 2201.89 6.39218 0.89834 0
M  V30 23022 H 2202.66 8.18362 -0.150409 0
M  V30 23023 N 2205.33 -0.529387 1.48443 0
M  V30 23024 C 2206.27 -1.65484 1.63455 0
M  V30 23025 C 2207.27 -1.61822 0.500983 0
M  V30 23026 O 2208.47 -1.66673 0.679725 0
M  V30 23027 H 2204.85 -0.548057 0.514915 0
M  V30 23028 H 2206.82 -1.49966 2.57978 0
M  V30 23029 C 2205.57 -3.03753 1.69202 0
M  V30 23030 H 2204.89 -3.07265 2.5579 0
M  V30 23031 H 2206.33 -3.82115 1.83749 0
M  V30 23032 C 2204.79 -3.34134 0.430823 0
M  V30 23033 O 2205.32 -3.99103 -0.45603 0
M  V30 23034 N 2203.53 -2.89023 0.302344 0
M  V30 23035 H 2203.07 -2.36329 1.025 0
M  V30 23036 H 2203.03 -3.09719 -0.540491 0
M  V30 23037 N 2206.8 -1.37041 -0.778305 0
M  V30 23038 C 2208.03 -1.35235 -1.57246 0
M  V30 23039 C 2208.45 0.0615238 -1.87999 0
M  V30 23040 O 2207.81 1.0367 -1.48736 0
M  V30 23041 C 2207.86 -2.19172 -2.86349 0
M  V30 23042 O 2206.96 -1.59184 -3.80439 0
M  V30 23043 H 2206.3 -0.46237 -0.47656 0
M  V30 23044 H 2208.83 -1.80476 -0.963821 0
M  V30 23045 H 2208.84 -2.32151 -3.35514 0
M  V30 23046 H 2207.52 -3.21947 -2.63293 0
M  V30 23047 H 2206.1 -1.55209 -3.39064 0
M  V30 23048 N 2208.28 1.00373 -1.21503 0
M  V30 23049 C 2209.21 2.11026 -0.999515 0
M  V30 23050 C 2210.19 1.6993 0.0759372 0
M  V30 23051 O 2211.38 1.94018 -0.0841447 0
M  V30 23052 C 2208.51 3.42677 -0.564769 0
M  V30 23053 C 2207.46 3.97573 -1.58493 0
M  V30 23054 C 2206.79 5.25144 -1.00638 0
M  V30 23055 C 2208.09 4.29491 -2.97212 0
M  V30 23056 H 2209.78 2.29313 -1.92499 0
M  V30 23057 H 2207.33 1.10198 -0.926949 0
M  V30 23058 H 2209.28 4.19486 -0.401165 0
M  V30 23059 H 2208 3.24186 0.396354 0
M  V30 23060 H 2206.66 3.22885 -1.73612 0
M  V30 23061 H 2206.31 5.02986 -0.0369323 0
M  V30 23062 H 2206.01 5.62838 -1.68781 0
M  V30 23063 H 2207.54 6.04597 -0.854121 0
M  V30 23064 H 2208.95 4.97138 -2.85529 0
M  V30 23065 H 2207.35 4.78331 -3.6238 0
M  V30 23066 H 2208.42 3.37714 -3.47962 0
M  V30 23067 N 2209.76 1.02298 1.19887 0
M  V30 23068 C 2210.99 0.735433 1.93388 0
M  V30 23069 C 2211.4 -0.704856 1.75149 0
M  V30 23070 O 2210.76 -1.47873 1.06957 0
M  V30 23071 C 2210.81 1.06968 3.45312 0
M  V30 23072 O 2210.53 2.45341 3.62959 0
M  V30 23073 C 2212.03 0.804098 4.35946 0
M  V30 23074 H 2209.25 0.269557 0.614475 0
M  V30 23075 H 2211.8 1.36588 1.52197 0
M  V30 23076 H 2209.95 0.484523 3.84358 0
M  V30 23077 H 2210.37 2.57603 4.56882 0
M  V30 23078 H 2211.84 1.08799 5.41172 0
M  V30 23079 H 2212.32 -0.261613 4.3842 0
M  V30 23080 H 2212.92 1.37171 4.02572 0
M  V30 23081 N 2211.24 -1.35782 0.800057 0
M  V30 23082 C 2212.65 -1.52116 0.483004 0
M  V30 23083 C 2212.85 -1.75111 -0.996917 0
M  V30 23084 O 2211.91 -1.78875 -1.78213 0
M  V30 23085 C 2213.22 -2.70047 1.32269 0
M  V30 23086 C 2214.77 -2.83922 1.31747 0
M  V30 23087 C 2215.25 -4.0487 2.14113 0
M  V30 23088 N 2216.74 -4.12036 2.11615 0
M  V30 23089 C 2217.47 -5.04722 2.72108 0
M  V30 23090 N 2216.97 -6.02783 3.41503 0
M  V30 23091 N 2218.76 -4.97419 2.61785 0
M  V30 23092 H 2210.91 -1.19112 1.75858 0
M  V30 23093 H 2213.17 -0.582239 0.748132 0
M  V30 23094 H 2212.88 -2.59611 2.37265 0
M  V30 23095 H 2212.75 -3.64478 0.971367 0
M  V30 23096 H 2215.14 -2.93812 0.275385 0
M  V30 23097 H 2215.22 -1.90367 1.70862 0
M  V30 23098 H 2214.87 -3.95741 3.18358 0
M  V30 23099 H 2214.8 -4.97593 1.72361 0
M  V30 23100 H 2217.29 -3.41832 1.61118 0
M  V30 23101 H 2217.6 -6.70091 3.84964 0
M  V30 23102 H 2215.95 -6.02977 3.45606 0
M  V30 23103 H 2219.14 -4.19763 2.07164 0
M  V30 23104 H 2219.31 -5.69462 3.0922 0
M  V30 23105 N 2212.72 -0.552988 -1.4758 0
M  V30 23106 C 2213.94 -0.0300957 -2.07378 0
M  V30 23107 C 2214.37 1.25226 -1.40357 0
M  V30 23108 O 2213.72 1.74909 -0.477129 0
M  V30 23109 C 2213.77 0.153168 -3.60275 0
M  V30 23110 O 2212.88 1.21671 -3.94043 0
M  V30 23111 H 2212.22 -0.0494298 -0.662158 0
M  V30 23112 H 2214.75 -0.767468 -1.8966 0
M  V30 23113 H 2214.76 0.36869 -4.06331 0
M  V30 23114 H 2213.43 -0.783469 -4.08454 0
M  V30 23115 H 2212.01 0.982016 -3.59737 0
M  V30 23116 N 2214.19 1.54923 -0.28923 0
M  V30 23117 C 2215.1 2.26749 0.601824 0
M  V30 23118 C 2216.12 1.29842 1.15832 0
M  V30 23119 O 2217.3 1.62804 1.18561 0
M  V30 23120 C 2214.36 2.98532 1.76294 0
M  V30 23121 C 2213.42 4.1095 1.2417 0
M  V30 23122 C 2212.65 4.793 2.34748 0
M  V30 23123 O 2212.88 4.46939 3.54404 0
M  V30 23124 O 2211.81 5.66954 2.02105 0
M  V30 23125 H 2215.64 3.03694 0.0195345 0
M  V30 23126 H 2213.22 1.49295 -0.0561131 0
M  V30 23127 H 2215.1 3.43596 2.43967 0
M  V30 23128 H 2213.78 2.24493 2.33205 0
M  V30 23129 H 2212.69 3.70312 0.531039 0
M  V30 23130 H 2214.02 4.86932 0.718166 0
M  V30 23131 N 2215.67 0.0167433 1.57591 0
M  V30 23132 C 2216.62 -0.9781 2.05954 0
M  V30 23133 C 2217.61 -1.29305 0.957555 0
M  V30 23134 O 2218.8 -1.28123 1.22121 0
M  V30 23135 C 2215.93 -2.26464 2.5801 0
M  V30 23136 C 2215.01 -1.9786 3.75116 0
M  V30 23137 N 2215.4 -1.39477 4.86189 0
M  V30 23138 C 2213.7 -2.27917 3.83367 0
M  V30 23139 C 2214.4 -1.27725 5.67504 0
M  V30 23140 N 2213.38 -1.76857 5.14026 0
M  V30 23141 H 2217.18 -0.521471 2.89237 0
M  V30 23142 H 2214.69 -0.188568 1.61302 0
M  V30 23143 H 2216.69 -2.98594 2.90942 0
M  V30 23144 H 2215.35 -2.72764 1.76153 0
M  V30 23145 H 2216.36 -1.07139 5.06697 0
M  V30 23146 H 2213.04 -2.76976 3.12394 0
M  V30 23147 H 2214.43 -0.826861 6.66793 0
M  V30 23148 N 2217.15 -1.55503 -0.256249 0
M  V30 23149 C 2218.38 -1.81278 -1.00762 0
M  V30 23150 C 2218.8 -0.592551 -1.78523 0
M  V30 23151 O 2218.16 0.458239 -1.75413 0
M  V30 23152 C 2218.21 -3.0469 -1.92864 0
M  V30 23153 O 2217.31 -2.8095 -3.01896 0
M  V30 23154 H 2216.65 -0.598669 -0.287213 0
M  V30 23155 H 2219.18 -2.02674 -0.280074 0
M  V30 23156 H 2219.19 -3.33873 -2.34505 0
M  V30 23157 H 2217.87 -3.93145 -1.35682 0
M  V30 23158 H 2216.44 -2.62909 -2.64449 0
M  V30 23159 N 2218.63 0.521507 -1.48721 0
M  V30 23160 C 2219.58 1.62163 -1.60272 0
M  V30 23161 C 2220.56 1.54203 -0.459377 0
M  V30 23162 O 2221.75 1.6208 -0.711269 0
M  V30 23163 C 2218.88 3.00856 -1.65349 0
M  V30 23164 C 2217.97 3.13889 -2.85192 0
M  V30 23165 N 2218.36 2.9687 -4.09514 0
M  V30 23166 C 2216.66 3.44958 -2.82701 0
M  V30 23167 C 2217.36 3.13543 -4.89965 0
M  V30 23168 N 2216.34 3.415 -4.2294 0
M  V30 23169 H 2220.14 1.47628 -2.54132 0
M  V30 23170 H 2217.65 0.727169 -1.4521 0
M  V30 23171 H 2219.65 3.79892 -1.71719 0
M  V30 23172 H 2218.31 3.16477 -0.726114 0
M  V30 23173 H 2219.32 2.7346 -4.39818 0
M  V30 23174 H 2216 3.66883 -1.99256 0
M  V30 23175 H 2217.39 3.05051 -5.9866 0
M  V30 23176 N 2220.11 1.37452 0.771027 0
M  V30 23177 C 2221.33 1.36067 1.56526 0
M  V30 23178 C 2221.76 -0.0515528 1.88029 0
M  V30 23179 O 2221.11 -1.02879 1.49283 0
M  V30 23180 C 2221.16 2.20688 2.85183 0
M  V30 23181 O 2220.27 1.612 3.7959 0
M  V30 23182 H 2219.61 0.464891 0.474102 0
M  V30 23183 H 2222.14 1.80985 0.954237 0
M  V30 23184 H 2222.15 2.33927 3.34279 0
M  V30 23185 H 2220.82 3.23338 2.61582 0
M  V30 23186 H 2219.4 1.57005 3.38236 0
M  V30 23187 N 2221.58 -0.997276 1.22033 0
M  V30 23188 C 2222.81 -1.77178 1.06844 0
M  V30 23189 C 2223.23 -1.8491 -0.381292 0
M  V30 23190 O 2222.58 -1.31607 -1.26435 0
M  V30 23191 C 2222.64 -3.20708 1.6682 0
M  V30 23192 O 2222.36 -3.13403 3.06121 0
M  V30 23193 C 2223.86 -4.14625 1.56846 0
M  V30 23194 H 2221.08 -0.556572 0.374792 0
M  V30 23195 H 2223.62 -1.25407 1.61535 0
M  V30 23196 H 2221.78 -3.69561 1.16203 0
M  V30 23197 H 2222.19 -4.03634 3.34933 0
M  V30 23198 H 2223.66 -5.13103 2.03541 0
M  V30 23199 H 2224.14 -4.3606 0.524231 0
M  V30 23200 H 2224.75 -3.71666 2.06747 0
M  V30 23201 N 2223.06 -1.02932 -1.19343 0
M  V30 23202 C 2224.29 -0.745678 -1.92995 0
M  V30 23203 C 2224.71 0.695558 -1.7552 0
M  V30 23204 O 2224.06 1.47304 -1.0774 0
M  V30 23205 C 2224.11 -1.08798 -3.44739 0
M  V30 23206 O 2223.83 -2.47262 -3.61653 0
M  V30 23207 C 2225.34 -0.827206 -4.35514 0
M  V30 23208 H 2222.56 -0.272812 -0.613037 0
M  V30 23209 H 2225.1 -1.37393 -1.51471 0
M  V30 23210 H 2223.25 -0.504899 -3.84096 0
M  V30 23211 H 2223.67 -2.60023 -4.55509 0
M  V30 23212 H 2225.14 -1.11668 -5.40587 0
M  V30 23213 H 2225.62 0.238359 -4.38553 0
M  V30 23214 H 2226.23 -1.39304 -4.01839 0
M  V30 23215 N 2224.54 1.35356 -0.807246 0
M  V30 23216 C 2225.47 2.32339 -0.23255 0
M  V30 23217 C 2226.45 1.57505 0.642358 0
M  V30 23218 O 2227.64 1.8557 0.572493 0
M  V30 23219 C 2224.77 3.41736 0.619178 0
M  V30 23220 C 2223.72 4.27711 -0.157291 0
M  V30 23221 C 2223.05 5.28434 0.81618 0
M  V30 23222 C 2224.35 5.04373 -1.35665 0
M  V30 23223 H 2226.04 2.80652 -1.04281 0
M  V30 23224 H 2223.59 1.34933 -0.502904 0
M  V30 23225 H 2225.54 4.08586 1.03129 0
M  V30 23226 H 2224.26 2.92033 1.46233 0
M  V30 23227 H 2222.92 3.62442 -0.550589 0
M  V30 23228 H 2222.57 4.74998 1.65486 0
M  V30 23229 H 2222.27 5.86829 0.300964 0
M  V30 23230 H 2223.79 5.98155 1.22649 0
M  V30 23231 H 2225.21 5.64165 -1.01937 0
M  V30 23232 H 2223.61 5.72267 -1.8064 0
M  V30 23233 H 2224.68 4.34977 -2.14296 0
M  V30 23234 N 2226.02 0.560807 1.47284 0
M  V30 23235 C 2227.43 0.128376 1.86258 0
M  V30 23236 C 2227.78 -1.30281 1.46701 0
M  V30 23237 O 2226.91 -1.98065 0.871733 0
M  V30 23238 C 2227.5 0.2262 3.38044 0
M  V30 23239 C 2226.06 -0.151217 3.76096 0
M  V30 23240 C 2225.21 0.572131 2.71334 0
M  V30 23241 H 2228.16 0.770322 1.38751 0
M  V30 23242 H 2228.18 -0.554256 3.76442 0
M  V30 23243 H 2227.69 1.26794 3.66804 0
M  V30 23244 H 2225.79 -1.19393 3.52953 0
M  V30 23245 H 2225.9 0.209849 4.7864 0
M  V30 23246 H 2224.27 0.01481 2.54696 0
M  V30 23247 H 2225.05 1.6151 3.02935 0
M  V30 23248 N 2227.5 -1.54768 0.297442 0
M  V30 23249 C 2228.91 -1.59502 -0.0560543 0
M  V30 23250 C 2229.11 -1.31446 -1.52722 0
M  V30 23251 O 2228.17 -1.08615 -2.27945 0
M  V30 23252 C 2229.48 -2.98787 0.338683 0
M  V30 23253 C 2231.03 -3.1168 0.287152 0
M  V30 23254 C 2231.5 -4.53268 0.656659 0
M  V30 23255 N 2233 -4.59178 0.609058 0
M  V30 23256 C 2233.73 -5.668 0.867485 0
M  V30 23257 N 2233.23 -6.82474 1.19169 0
M  V30 23258 N 2235.02 -5.56453 0.794785 0
M  V30 23259 H 2227.17 -1.71265 1.25627 0
M  V30 23260 H 2229.43 -0.799719 0.509071 0
M  V30 23261 H 2229.14 -3.24228 1.36268 0
M  V30 23262 H 2229.01 -3.75929 -0.309442 0
M  V30 23263 H 2231.4 -2.8599 -0.727598 0
M  V30 23264 H 2231.48 -2.36701 0.96985 0
M  V30 23265 H 2231.13 -4.79688 1.6692 0
M  V30 23266 H 2231.06 -5.26578 -0.0480724 0
M  V30 23267 H 2233.55 -3.76092 0.369265 0
M  V30 23268 H 2233.86 -7.6047 1.37496 0
M  V30 23269 H 2232.2 -6.84035 1.2297 0
M  V30 23270 H 2235.4 -4.64961 0.54118 0
M  V30 23271 H 2235.57 -6.40244 0.999557 0
M  V30 23272 N 2228.97 -0.0251005 -1.5758 0
M  V30 23273 C 2230.25 0.692841 -1.82918 0
M  V30 23274 C 2230.63 1.90566 -0.90817 0
M  V30 23275 O 2229.98 2.2847 0.0371897 0
M  V30 23276 C 2230.19 1.07486 -3.32036 0
M  V30 23277 C 2231.54 1.46819 -3.98408 0
M  V30 23278 O 2232.56 1.16796 -3.36507 0
M  V30 23279 O 2231.42 2.02745 -5.07501 0
M  V30 23280 H 2228.51 0.339537 -0.754085 0
M  V30 23281 H 2231.06 -0.0524754 -1.69619 0
M  V30 23282 H 2229.83 0.211483 -3.90728 0
M  V30 23283 H 2229.46 1.87848 -3.50427 0
M  V30 23284 N 2230.45 1.55637 0.247999 0
M  V30 23285 C 2231.68 1.81208 0.992335 0
M  V30 23286 C 2232.09 0.598356 1.79489 0
M  V30 23287 O 2231.43 -0.442403 1.78293 0
M  V30 23288 C 2231.5 3.00113 1.97921 0
M  V30 23289 C 2231.16 4.36179 1.36369 0
M  V30 23290 C 2232.16 5.14215 0.76673 0
M  V30 23291 C 2229.84 4.82874 1.38339 0
M  V30 23292 C 2231.84 6.37093 0.197666 0
M  V30 23293 C 2229.52 6.05702 0.810468 0
M  V30 23294 C 2230.52 6.8265 0.218634 0
M  V30 23295 O 2230.21 8.03157 -0.34544 0
M  V30 23296 H 2229.94 0.606922 0.297693 0
M  V30 23297 H 2232.49 2.03531 0.276482 0
M  V30 23298 H 2230.72 2.73543 2.73334 0
M  V30 23299 H 2232.41 3.12786 2.58688 0
M  V30 23300 H 2233.18 4.79259 0.744029 0
M  V30 23301 H 2229.06 4.22973 1.83343 0
M  V30 23302 H 2232.6 6.97097 -0.264911 0
M  V30 23303 H 2228.5 6.40135 0.830492 0
M  V30 23304 H 2229.27 8.18156 -0.237198 0
M  V30 23305 N 2231.93 -0.513613 1.48996 0
M  V30 23306 C 2233.16 -1.29759 1.61794 0
M  V30 23307 C 2233.58 -1.85936 0.284508 0
M  V30 23308 O 2232.94 -1.65234 -0.746156 0
M  V30 23309 C 2232.99 -2.41268 2.67997 0
M  V30 23310 O 2232.09 -3.44768 2.26294 0
M  V30 23311 H 2231.43 -0.383621 0.54197 0
M  V30 23312 H 2233.96 -0.616273 1.95098 0
M  V30 23313 H 2233.97 -2.87216 2.89777 0
M  V30 23314 H 2232.65 -1.99743 3.64795 0
M  V30 23315 H 2231.22 -3.04825 2.14793 0
M  V30 23316 N 2233.41 -1.37859 -0.763727 0
M  V30 23317 C 2234.64 -1.36721 -1.5529 0
M  V30 23318 C 2235.05 0.0455102 -1.88745 0
M  V30 23319 O 2234.41 1.00945 -1.52041 0
M  V30 23320 C 2234.46 -2.21325 -2.85827 0
M  V30 23321 O 2234.18 -3.57093 -2.53803 0
M  V30 23322 C 2235.68 -2.28256 -3.80019 0
M  V30 23323 H 2232.9 -0.468018 -0.480833 0
M  V30 23324 H 2235.45 -1.81305 -0.945977 0
M  V30 23325 H 2233.6 -1.8023 -3.42923 0
M  V30 23326 H 2234.02 -4.0153 -3.37452 0
M  V30 23327 H 2235.49 -2.9176 -4.68594 0
M  V30 23328 H 2235.97 -1.29328 -4.19727 0
M  V30 23329 H 2236.57 -2.69699 -3.28851 0
M  V30 23330 N 2234.89 0.990791 -1.22561 0
M  V30 23331 C 2235.82 2.09954 -1.02184 0
M  V30 23332 C 2236.8 1.70001 0.0579095 0
M  V30 23333 O 2237.98 1.93917 -0.104718 0
M  V30 23334 C 2235.11 3.42059 -0.601083 0
M  V30 23335 C 2234.07 3.95869 -1.627 0
M  V30 23336 C 2233.39 5.24047 -1.06202 0
M  V30 23337 C 2234.69 4.26315 -3.0175 0
M  V30 23338 H 2236.39 2.27259 -1.9492 0
M  V30 23339 H 2233.93 1.09209 -0.938585 0
M  V30 23340 H 2235.89 4.19037 -0.445634 0
M  V30 23341 H 2234.61 3.24588 0.361948 0
M  V30 23342 H 2233.27 3.21025 -1.77027 0
M  V30 23343 H 2232.92 5.02919 -0.0902787 0
M  V30 23344 H 2232.62 5.61016 -1.74741 0
M  V30 23345 H 2234.14 6.03657 -0.918198 0
M  V30 23346 H 2235.56 4.94081 -2.90786 0
M  V30 23347 H 2233.95 4.74461 -3.67433 0
M  V30 23348 H 2235.02 3.34004 -3.51524 0
M  V30 23349 N 2236.37 1.03564 1.18795 0
M  V30 23350 C 2237.59 0.755903 1.92597 0
M  V30 23351 C 2238.01 -0.68624 1.75887 0
M  V30 23352 O 2237.37 -1.4673 1.08519 0
M  V30 23353 C 2237.42 1.10625 3.44158 0
M  V30 23354 O 2237.14 2.49177 3.60337 0
M  V30 23355 C 2238.64 0.850291 4.35069 0
M  V30 23356 H 2235.86 0.276059 0.611582 0
M  V30 23357 H 2238.4 1.38194 1.5074 0
M  V30 23358 H 2236.56 0.525262 3.83823 0
M  V30 23359 H 2236.97 2.62435 4.54124 0
M  V30 23360 H 2238.45 1.14533 5.39987 0
M  V30 23361 H 2238.92 -0.215098 4.38673 0
M  V30 23362 H 2239.53 1.41433 4.01094 0
M  V30 23363 N 2237.84 -1.34926 0.814413 0
M  V30 23364 C 2239.07 -2.03304 0.410133 0
M  V30 23365 C 2239.49 -1.60953 -0.973436 0
M  V30 23366 O 2238.85 -0.789993 -1.63183 0
M  V30 23367 C 2238.9 -3.56967 0.510553 0
M  V30 23368 O 2238 -4.09679 -0.472963 0
M  V30 23369 H 2237.34 -0.641843 0.170099 0
M  V30 23370 H 2239.87 -1.72356 1.10247 0
M  V30 23371 H 2239.88 -4.06196 0.383206 0
M  V30 23372 H 2238.56 -3.87141 1.5197 0
M  V30 23373 H 2237.14 -3.71649 -0.305206 0
M  V30 23374 N 2239.32 -0.56861 -1.46985 0
M  V30 23375 C 2240.57 -0.0489066 -2.02741 0
M  V30 23376 C 2240.9 1.30211 -1.44079 0
M  V30 23377 O 2240.18 1.84995 -0.600585 0
M  V30 23378 C 2240.46 0.0319837 -3.60086 0
M  V30 23379 C 2240.31 -1.34693 -4.29159 0
M  V30 23380 C 2241.63 0.739722 -4.33839 0
M  V30 23381 H 2238.75 -0.0192468 -0.736749 0
M  V30 23382 H 2241.39 -0.733096 -1.75287 0
M  V30 23383 H 2239.54 0.614663 -3.83607 0
M  V30 23384 H 2241.21 -1.97369 -4.16945 0
M  V30 23385 H 2239.46 -1.91853 -3.89069 0
M  V30 23386 H 2240.13 -1.24294 -5.37824 0
M  V30 23387 H 2242.6 0.244866 -4.15379 0
M  V30 23388 H 2241.48 0.765311 -5.43539 0
M  V30 23389 H 2241.74 1.79819 -4.03878 0
M  V30 23390 N 2240.8 1.54608 -0.305646 0
M  V30 23391 C 2242.02 2.05107 0.307526 0
M  V30 23392 C 2242.45 1.18125 1.46383 0
M  V30 23393 O 2241.81 0.186356 1.8034 0
M  V30 23394 C 2241.86 3.52989 0.736978 0
M  V30 23395 O 2240.96 3.69013 1.84128 0
M  V30 23396 H 2240.3 0.661382 0.0589027 0
M  V30 23397 H 2242.83 1.99616 -0.448842 0
M  V30 23398 H 2242.84 3.94927 1.02452 0
M  V30 23399 H 2241.52 4.15758 -0.108847 0
M  V30 23400 H 2240.09 3.3898 1.55392 0
M  V30 23401 N 2242.28 0.033457 1.57564 0
M  V30 23402 C 2243.5 -0.657861 1.9669 0
M  V30 23403 C 2243.93 -1.64618 0.910086 0
M  V30 23404 O 2243.29 -1.80844 -0.128566 0
M  V30 23405 C 2243.33 -1.33677 3.34907 0
M  V30 23406 O 2242.44 -2.45213 3.31578 0
M  V30 23407 H 2241.78 -0.172478 0.641208 0
M  V30 23408 H 2244.31 0.096598 2.04372 0
M  V30 23409 H 2244.32 -1.69256 3.71236 0
M  V30 23410 H 2242.99 -0.612339 4.11368 0
M  V30 23411 H 2241.57 -2.11714 3.06972 0
M  V30 23412 N 2243.76 -1.55766 -0.239741 0
M  V30 23413 C 2244.71 -1.87308 -1.29999 0
M  V30 23414 C 2245.69 -0.734546 -1.43155 0
M  V30 23415 O 2246.88 -0.996615 -1.46276 0
M  V30 23416 C 2244.01 -2.1775 -2.65405 0
M  V30 23417 C 2243.1 -3.37949 -2.56225 0
M  V30 23418 N 2243.49 -4.57037 -2.16681 0
M  V30 23419 C 2241.79 -3.41202 -2.87223 0
M  V30 23420 C 2242.49 -5.39181 -2.18308 0
M  V30 23421 N 2241.46 -4.78425 -2.5809 0
M  V30 23422 H 2245.26 -2.76907 -0.984863 0
M  V30 23423 H 2242.78 -1.56088 -0.448354 0
M  V30 23424 H 2244.78 -2.38515 -3.4193 0
M  V30 23425 H 2243.44 -1.29453 -2.97778 0
M  V30 23426 H 2244.45 -4.82531 -1.88107 0
M  V30 23427 H 2241.12 -2.63197 -3.24089 0
M  V30 23428 H 2242.51 -6.44472 -1.90014 0
M  V30 23429 N 2245.23 0.505704 -1.49266 0
M  V30 23430 C 2246.51 1.26704 -1.49015 0
M  V30 23431 C 2246.89 2.1 -0.215242 0
M  V30 23432 O 2246.24 2.13944 0.802509 0
M  V30 23433 C 2246.45 2.12778 -2.76634 0
M  V30 23434 C 2247.8 2.72122 -3.25937 0
M  V30 23435 O 2248.82 2.23049 -2.77719 0
M  V30 23436 O 2247.68 3.61444 -4.09903 0
M  V30 23437 H 2244.77 0.57312 -0.596207 0
M  V30 23438 H 2247.32 0.520361 -1.61525 0
M  V30 23439 H 2246.09 1.51174 -3.60919 0
M  V30 23440 H 2245.71 2.94648 -2.66961 0
M  V30 23441 N 2246.71 1.38262 0.756405 0
M  V30 23442 C 2247.94 1.3772 1.55074 0
M  V30 23443 C 2248.36 -0.0316069 1.88073 0
M  V30 23444 O 2247.72 -1.0129 1.50366 0
M  V30 23445 C 2247.77 2.237 2.82826 0
M  V30 23446 O 2246.87 1.65217 3.77859 0
M  V30 23447 H 2246.21 0.469893 0.469144 0
M  V30 23448 H 2248.74 1.81987 0.934987 0
M  V30 23449 H 2248.75 2.37459 3.31779 0
M  V30 23450 H 2247.43 3.26095 2.58138 0
M  V30 23451 H 2246.01 1.60584 3.36552 0
M  V30 23452 N 2248.19 -0.984277 1.23084 0
M  V30 23453 C 2249.61 -1.24974 0.992659 0
M  V30 23454 C 2249.81 -1.99123 -0.308583 0
M  V30 23455 O 2248.86 -2.30581 -1.02901 0
M  V30 23456 C 2250.18 -2.05308 2.19702 0
M  V30 23457 C 2251.72 -2.18461 2.24151 0
M  V30 23458 C 2252.2 -3.02185 3.44163 0
M  V30 23459 N 2253.69 -3.09771 3.44378 0
M  V30 23460 C 2254.42 -3.74867 4.33892 0
M  V30 23461 N 2253.92 -4.41817 5.33638 0
M  V30 23462 N 2255.71 -3.71714 4.21646 0
M  V30 23463 H 2247.86 -0.487417 2.06732 0
M  V30 23464 H 2250.13 -0.277928 0.906344 0
M  V30 23465 H 2249.83 -1.58195 3.14113 0
M  V30 23466 H 2249.71 -3.0606 2.2047 0
M  V30 23467 H 2252.09 -2.64784 1.30282 0
M  V30 23468 H 2252.18 -1.17111 2.27417 0
M  V30 23469 H 2251.82 -2.56561 4.38337 0
M  V30 23470 H 2251.75 -4.03697 3.38137 0
M  V30 23471 H 2254.24 -2.6213 2.72206 0
M  V30 23472 H 2254.55 -4.89255 5.98205 0
M  V30 23473 H 2252.9 -4.40538 5.37542 0
M  V30 23474 H 2256.09 -3.18576 3.42968 0
M  V30 23475 H 2256.26 -4.22164 4.91611 0
M  V30 23476 N 2249.67 -1.04192 -1.18244 0
M  V30 23477 C 2250.6 -0.654953 -2.24126 0
M  V30 23478 C 2251.58 0.342422 -1.66618 0
M  V30 23479 O 2252.76 0.222243 -1.92924 0
M  V30 23480 C 2249.89 -0.0184367 -3.47295 0
M  V30 23481 C 2248.85 -0.939488 -4.17562 0
M  V30 23482 C 2248.17 -0.16738 -5.34438 0
M  V30 23483 C 2249.47 -2.25916 -4.70913 0
M  V30 23484 H 2251.17 -1.54012 -2.5675 0
M  V30 23485 H 2248.71 -0.741971 -1.23413 0
M  V30 23486 H 2250.67 0.264009 -4.20572 0
M  V30 23487 H 2249.39 0.901609 -3.13909 0
M  V30 23488 H 2248.05 -1.20634 -3.46184 0
M  V30 23489 H 2247.7 0.755112 -4.973 0
M  V30 23490 H 2247.4 -0.781003 -5.82387 0
M  V30 23491 H 2248.92 0.108018 -6.10504 0
M  V30 23492 H 2250.34 -2.03733 -5.35879 0
M  V30 23493 H 2248.73 -2.82586 -5.29401 0
M  V30 23494 H 2249.8 -2.90477 -3.88267 0
M  V30 23495 N 2251.15 1.34492 -0.821557 0
M  V30 23496 C 2252.37 2.02552 -0.42192 0
M  V30 23497 C 2252.79 1.61874 0.971717 0
M  V30 23498 O 2252.15 0.823524 1.62863 0
M  V30 23499 C 2252.2 3.57843 -0.512913 0
M  V30 23500 O 2251.92 3.97047 -1.85162 0
M  V30 23501 C 2253.42 4.43168 -0.107999 0
M  V30 23502 H 2250.64 0.64924 -0.169494 0
M  V30 23503 H 2253.18 1.71796 -1.10933 0
M  V30 23504 H 2251.34 3.87194 0.126406 0
M  V30 23505 H 2251.75 4.91729 -1.82491 0
M  V30 23506 H 2253.23 5.5155 -0.222754 0
M  V30 23507 H 2253.7 4.2884 0.948325 0
M  V30 23508 H 2254.31 4.19143 -0.721062 0
M  V30 23509 N 2252.62 0.576397 1.46681 0
M  V30 23510 C 2253.59 -0.150199 2.28707 0
M  V30 23511 C 2254.59 -0.82477 1.38037 0
M  V30 23512 O 2255.78 -0.677691 1.60477 0
M  V30 23513 C 2252.91 -1.22187 3.1825 0
M  V30 23514 H 2254.1 0.570573 2.94422 0
M  V30 23515 H 2251.66 0.334105 1.52687 0
M  V30 23516 H 2252.39 -1.97442 2.57269 0
M  V30 23517 H 2252.18 -0.742744 3.85001 0
M  V30 23518 H 2253.67 -1.73166 3.80004 0
M  V30 23519 N 2254.1 -1.54444 0.313841 0
M  V30 23520 C 2255.35 -1.99993 -0.291064 0
M  V30 23521 C 2255.67 -1.20369 -1.53416 0
M  V30 23522 O 2254.94 -0.302961 -1.93543 0
M  V30 23523 H 2253.52 -0.738776 -0.110539 0
M  V30 23524 H 2256.18 -1.90139 0.428139 0
M  V30 23525 H 2255.28 -3.0714 -0.554214 0
M  V30 23526 N 2255.58 -0.0418125 -1.57545 0
M  V30 23527 C 2256.83 0.634987 -1.92603 0
M  V30 23528 C 2257.16 1.71044 -0.919657 0
M  V30 23529 O 2256.43 1.9442 0.055755 0
M  V30 23530 C 2256.72 1.23973 -3.38087 0
M  V30 23531 C 2256.57 0.172978 -4.49467 0
M  V30 23532 C 2257.89 2.1541 -3.83779 0
M  V30 23533 H 2255.01 0.229362 -0.700401 0
M  V30 23534 H 2257.65 -0.101666 -1.89728 0
M  V30 23535 H 2255.8 1.86756 -3.40667 0
M  V30 23536 H 2257.47 -0.458392 -4.59017 0
M  V30 23537 H 2255.72 -0.500072 -4.30908 0
M  V30 23538 H 2256.39 0.635957 -5.48324 0
M  V30 23539 H 2258.86 1.62599 -3.83016 0
M  V30 23540 H 2257.74 2.5467 -4.86245 0
M  V30 23541 H 2258 3.05042 -3.20003 0
M  V30 23542 N 2257.06 1.55891 0.231477 0
M  V30 23543 C 2258.47 1.68725 0.799297 0
M  V30 23544 C 2258.82 0.642055 1.85397 0
M  V30 23545 O 2257.95 -0.208746 2.15391 0
M  V30 23546 C 2258.54 3.05891 1.45659 0
M  V30 23547 C 2257.1 3.20613 1.97192 0
M  V30 23548 C 2256.25 2.64634 0.828506 0
M  V30 23549 H 2259.2 1.58698 0.00699826 0
M  V30 23550 H 2259.22 3.01195 2.32512 0
M  V30 23551 H 2258.73 3.8194 0.688741 0
M  V30 23552 H 2256.83 2.49414 2.76809 0
M  V30 23553 H 2256.94 4.27711 2.15871 0
M  V30 23554 H 2255.31 2.22856 1.23317 0
M  V30 23555 H 2256.09 3.43221 0.0734941 0
M  V30 23556 N 2258.54 -0.497781 1.49532 0
M  V30 23557 C 2259.81 -1.25912 1.49685 0
M  V30 23558 C 2260.19 -2.09883 0.226376 0
M  V30 23559 O 2259.54 -2.14367 -0.791152 0
M  V30 23560 C 2259.75 -2.11308 2.77759 0
M  V30 23561 C 2261.1 -2.70389 3.27376 0
M  V30 23562 O 2262.12 -2.21573 2.78898 0
M  V30 23563 O 2260.98 -3.59265 4.11814 0
M  V30 23564 H 2258.08 -0.56995 0.599238 0
M  V30 23565 H 2260.62 -0.511788 1.61799 0
M  V30 23566 H 2259.39 -1.49257 3.61715 0
M  V30 23567 H 2259.02 -2.93228 2.6852 0
M  V30 23568 N 2260.01 -1.38661 -0.749062 0
M  V30 23569 C 2261.24 -1.3836 -1.53831 0
M  V30 23570 C 2261.66 0.0254887 -1.88783 0
M  V30 23571 O 2261.01 0.993265 -1.53103 0
M  V30 23572 C 2261.07 -2.24345 -2.83464 0
M  V30 23573 O 2260.79 -3.59765 -2.50002 0
M  V30 23574 C 2262.29 -2.32274 -3.77576 0
M  V30 23575 H 2259.51 -0.473091 -0.475842 0
M  V30 23576 H 2262.05 -1.82298 -0.926694 0
M  V30 23577 H 2260.21 -1.83857 -3.40992 0
M  V30 23578 H 2260.62 -4.05086 -3.33174 0
M  V30 23579 H 2262.09 -2.96714 -4.65473 0
M  V30 23580 H 2262.57 -1.33772 -4.18332 0
M  V30 23581 H 2263.18 -2.73171 -3.25972 0
M  V30 23582 N 2261.49 0.977736 -1.23605 0
M  V30 23583 C 2262.9 1.53396 -1.06427 0
M  V30 23584 C 2263.26 1.92727 0.367544 0
M  V30 23585 O 2262.38 1.76319 1.25462 0
M  V30 23586 C 2262.98 2.78749 -1.92573 0
M  V30 23587 C 2261.53 3.30762 -1.79648 0
M  V30 23588 C 2260.68 2.03735 -1.88115 0
M  V30 23589 H 2263.63 0.797128 -1.37228 0
M  V30 23590 H 2263.65 3.51702 -1.45209 0
M  V30 23591 H 2263.17 2.50092 -2.96775 0
M  V30 23592 H 2261.27 3.64293 -0.782389 0
M  V30 23593 H 2261.38 4.0034 -2.63181 0
M  V30 23594 H 2259.74 2.17991 -1.31726 0
M  V30 23595 H 2260.53 1.77456 -2.93878 0
M  V30 23596 N 2262.97 1.04818 1.1769 0
M  V30 23597 C 2264.2 0.776288 1.91785 0
M  V30 23598 C 2264.61 -0.667546 1.76605 0
M  V30 23599 O 2263.97 -1.45571 1.1007 0
M  V30 23600 C 2264.02 1.14269 3.42965 0
M  V30 23601 O 2263.74 2.52984 3.57674 0
M  V30 23602 C 2265.24 0.896388 4.34143 0
M  V30 23603 H 2262.46 0.28253 0.60862 0
M  V30 23604 H 2265.01 1.39785 1.49266 0
M  V30 23605 H 2263.16 0.565942 3.83244 0
M  V30 23606 H 2263.58 2.67236 4.51315 0
M  V30 23607 H 2265.05 1.20254 5.38742 0
M  V30 23608 H 2265.53 -0.168559 4.38876 0
M  V30 23609 H 2266.13 1.45679 3.99572 0
M  V30 23610 N 2264.45 -1.34055 0.828678 0
M  V30 23611 C 2265.87 -1.51057 0.515161 0
M  V30 23612 C 2266.07 -1.77186 -0.959549 0
M  V30 23613 O 2265.12 -1.82615 -1.74379 0
M  V30 23614 C 2266.43 -2.67181 1.37968 0
M  V30 23615 C 2267.98 -2.81064 1.3774 0
M  V30 23616 C 2268.46 -4.00237 2.22653 0
M  V30 23617 N 2269.95 -4.07454 2.20307 0
M  V30 23618 C 2270.68 -4.98837 2.82753 0
M  V30 23619 N 2270.18 -5.95404 3.54212 0
M  V30 23620 N 2271.97 -4.91754 2.72277 0
M  V30 23621 H 2264.12 -1.15355 1.78345 0
M  V30 23622 H 2266.39 -0.566239 0.760314 0
M  V30 23623 H 2266.09 -2.5452 2.42719 0
M  V30 23624 H 2265.97 -3.62336 1.04846 0
M  V30 23625 H 2268.35 -2.93162 0.337645 0
M  V30 23626 H 2268.43 -1.867 1.74862 0
M  V30 23627 H 2268.08 -3.88899 3.26681 0
M  V30 23628 H 2268.01 -4.93825 1.82877 0
M  V30 23629 H 2270.5 -3.38338 1.68333 0
M  V30 23630 H 2270.81 -6.61775 3.99091 0
M  V30 23631 H 2269.16 -5.95511 3.58318 0
M  V30 23632 H 2272.35 -4.15274 2.16021 0
M  V30 23633 H 2272.52 -5.62775 3.21229 0
M  V30 23634 N 2265.93 -0.584167 -1.46374 0
M  V30 23635 C 2266.86 0.135996 -2.33104 0
M  V30 23636 C 2267.84 0.88223 -1.45433 0
M  V30 23637 O 2269.02 0.857403 -1.74248 0
M  V30 23638 C 2266.15 1.14928 -3.27733 0
M  V30 23639 C 2265.11 0.517788 -4.24856 0
M  V30 23640 C 2264.43 1.63764 -5.09004 0
M  V30 23641 C 2265.73 -0.545977 -5.19439 0
M  V30 23642 H 2267.43 -0.588137 -2.93567 0
M  V30 23643 H 2264.97 -0.284284 -1.41166 0
M  V30 23644 H 2266.93 1.66146 -3.87264 0
M  V30 23645 H 2265.65 1.9037 -2.6538 0
M  V30 23646 H 2264.31 0.0266716 -3.6659 0
M  V30 23647 H 2263.96 2.38177 -4.43036 0
M  V30 23648 H 2263.66 1.22075 -5.7478 0
M  V30 23649 H 2265.18 2.15256 -5.71399 0
M  V30 23650 H 2266.6 -0.118805 -5.73177 0
M  V30 23651 H 2264.99 -0.883274 -5.93564 0
M  V30 23652 H 2266.06 -1.4317 -4.63282 0
M  V30 23653 N 2267.41 1.54275 -0.322027 0
M  V30 23654 C 2268.65 2.00838 0.281425 0
M  V30 23655 C 2268.98 1.20987 1.51907 0
M  V30 23656 O 2268.26 0.291767 1.92299 0
M  V30 23657 C 2268.54 3.54773 0.6171 0
M  V30 23658 C 2268.4 4.4535 -0.631143 0
M  V30 23659 C 2269.71 4.16036 1.43535 0
M  V30 23660 H 2266.83 0.730072 0.100813 0
M  V30 23661 H 2269.48 1.84875 -0.4383 0
M  V30 23662 H 2267.63 3.68506 1.23027 0
M  V30 23663 H 2269.3 4.4349 -1.26942 0
M  V30 23664 H 2267.54 4.15088 -1.26032 0
M  V30 23665 H 2268.21 5.50878 -0.351832 0
M  V30 23666 H 2270.69 4.05868 0.917063 0
M  V30 23667 H 2269.56 5.23859 1.63898 0
M  V30 23668 H 2269.82 3.69262 2.43101 0
M  V30 23669 N 2268.88 0.0501669 1.5752 0
M  V30 23670 C 2270.13 -0.62384 1.92651 0
M  V30 23671 C 2270.46 -1.7091 0.928441 0
M  V30 23672 O 2269.71 -1.9561 -0.0594181 0
M  V30 23673 C 2270.01 -1.25957 3.34469 0
M  V30 23674 C 2269.68 -0.30261 4.49883 0
M  V30 23675 C 2268.34 -0.039279 4.81184 0
M  V30 23676 C 2270.69 0.353296 5.20001 0
M  V30 23677 C 2268.02 0.88741 5.7995 0
M  V30 23678 C 2270.37 1.26817 6.19758 0
M  V30 23679 C 2269.04 1.54018 6.49488 0
M  V30 23680 H 2268.31 -0.228279 0.704961 0
M  V30 23681 H 2270.95 0.116431 1.91146 0
M  V30 23682 H 2269.26 -2.07509 3.32336 0
M  V30 23683 H 2270.96 -1.788 3.58931 0
M  V30 23684 H 2267.55 -0.518034 4.25458 0
M  V30 23685 H 2271.73 0.162942 4.96032 0
M  V30 23686 H 2266.99 1.10564 6.0132 0
M  V30 23687 H 2271.16 1.78248 6.73202 0
M  V30 23688 H 2268.79 2.25988 7.25833 0
M  V30 23689 N 2270.36 -1.56011 -0.223207 0
M  V30 23690 C 2271.59 -1.83374 -0.968946 0
M  V30 23691 C 2272.01 -0.630285 -1.77226 0
M  V30 23692 O 2271.37 0.420928 -1.76346 0
M  V30 23693 C 2271.42 -3.08712 -1.86357 0
M  V30 23694 O 2270.52 -2.8729 -2.95868 0
M  V30 23695 H 2269.86 -0.604626 -0.27445 0
M  V30 23696 H 2272.39 -2.03222 -0.237021 0
M  V30 23697 H 2272.4 -3.38772 -2.2737 0
M  V30 23698 H 2271.08 -3.95935 -1.27312 0
M  V30 23699 H 2269.65 -2.68459 -2.58813 0
M  V30 23700 N 2271.84 0.489844 -1.49794 0
M  V30 23701 C 2272.8 1.57243 -1.66755 0
M  V30 23702 C 2273.8 1.51501 -0.538894 0
M  V30 23703 O 2274.99 1.54454 -0.805572 0
M  V30 23704 C 2272.12 2.96893 -1.67533 0
M  V30 23705 H 2273.32 1.4353 -2.63323 0
M  V30 23706 H 2270.87 0.71489 -1.38993 0
M  V30 23707 H 2271.61 3.16072 -0.725893 0
M  V30 23708 H 2271.39 3.02469 -2.49509 0
M  V30 23709 H 2272.88 3.75526 -1.82674 0
M  V30 23710 N 2273.32 1.39056 0.741698 0
M  V30 23711 C 2274.25 1.39969 1.86898 0
M  V30 23712 C 2275.23 0.263949 1.6804 0
M  V30 23713 O 2276.41 0.468788 1.88457 0
M  V30 23714 C 2273.54 1.2358 3.24569 0
M  V30 23715 C 2272.5 2.34484 3.58052 0
M  V30 23716 C 2271.82 2.03189 4.94589 0
M  V30 23717 C 2273.12 3.7678 3.6171 0
M  V30 23718 H 2274.82 2.34305 1.86391 0
M  V30 23719 H 2272.36 1.12781 0.895341 0
M  V30 23720 H 2274.32 1.22841 4.03098 0
M  V30 23721 H 2273.04 0.257103 3.25586 0
M  V30 23722 H 2271.7 2.34428 2.81849 0
M  V30 23723 H 2271.35 1.03774 4.92179 0
M  V30 23724 H 2271.05 2.77474 5.17959 0
M  V30 23725 H 2272.57 2.04089 5.75482 0
M  V30 23726 H 2273.99 3.78802 4.30328 0
M  V30 23727 H 2272.38 4.50369 3.96595 0
M  V30 23728 H 2273.45 4.08239 2.61665 0
M  V30 23729 N 2274.8 -0.971167 1.24121 0
M  V30 23730 C 2276.04 -1.7103 1.07671 0
M  V30 23731 C 2276.36 -1.91146 -0.385764 0
M  V30 23732 O 2275.63 -1.48673 -1.27567 0
M  V30 23733 H 2274.21 -0.633748 0.39544 0
M  V30 23734 H 2276.88 -1.16852 1.55986 0
M  V30 23735 H 2275.97 -2.69619 1.572 0
M  V30 23736 N 2276.27 -1.05441 -1.17133 0
M  V30 23737 C 2277.69 -0.791706 -1.69083 0
M  V30 23738 C 2278.04 0.685806 -1.83824 0
M  V30 23739 O 2277.16 1.53276 -1.5276 0
M  V30 23740 C 2277.76 -1.43055 -3.07117 0
M  V30 23741 C 2276.32 -1.21583 -3.56222 0
M  V30 23742 C 2275.46 -1.51251 -2.32419 0
M  V30 23743 H 2278.41 -1.21902 -1.01615 0
M  V30 23744 H 2278.43 -0.841185 -3.71085 0
M  V30 23745 H 2277.95 -2.50589 -2.96356 0
M  V30 23746 H 2276.05 -0.159853 -3.72257 0
M  V30 23747 H 2276.16 -1.92254 -4.38834 0
M  V30 23748 H 2274.52 -0.932695 -2.37008 0
M  V30 23749 H 2275.31 -2.59924 -2.24264 0
M  V30 23750 N 2277.75 1.33613 -0.835776 0
M  V30 23751 C 2278.98 2.02093 -0.443379 0
M  V30 23752 C 2279.4 1.62895 0.954493 0
M  V30 23753 O 2278.75 0.840752 1.6198 0
M  V30 23754 C 2278.8 3.57279 -0.550838 0
M  V30 23755 O 2278.52 3.95061 -1.89363 0
M  V30 23756 C 2280.03 4.43029 -0.154997 0
M  V30 23757 H 2277.25 0.647406 -0.17637 0
M  V30 23758 H 2279.79 1.7061 -1.12749 0
M  V30 23759 H 2277.94 3.87306 0.0853316 0
M  V30 23760 H 2278.36 4.89766 -1.87696 0
M  V30 23761 H 2279.83 5.51283 -0.281241 0
M  V30 23762 H 2280.31 4.29821 0.902788 0
M  V30 23763 H 2280.92 4.18355 -0.765477 0
M  V30 23764 N 2279.23 0.591922 1.46062 0
M  V30 23765 C 2280.46 0.0850678 2.07225 0
M  V30 23766 C 2280.88 -1.21461 1.43628 0
M  V30 23767 O 2280.24 -1.73583 0.523336 0
M  V30 23768 C 2280.29 -0.0575933 3.60554 0
M  V30 23769 O 2279.39 -1.11181 3.9713 0
M  V30 23770 H 2278.73 0.0669684 0.660614 0
M  V30 23771 H 2281.26 0.817483 1.87559 0
M  V30 23772 H 2281.27 -0.260829 4.07165 0
M  V30 23773 H 2279.95 0.891488 4.06233 0
M  V30 23774 H 2278.52 -0.886292 3.62214 0
M  V30 23775 N 2280.71 -1.54102 0.330204 0
M  V30 23776 C 2281.64 -2.27514 -0.525313 0
M  V30 23777 C 2282.62 -1.28562 -1.11381 0
M  V30 23778 O 2283.8 -1.57385 -1.1377 0
M  V30 23779 C 2280.93 -3.03794 -1.68305 0
M  V30 23780 C 2279.89 -4.10139 -1.22353 0
M  V30 23781 C 2279.21 -4.74297 -2.46873 0
M  V30 23782 C 2280.51 -5.21234 -0.333605 0
M  V30 23783 H 2282.21 -2.99273 0.0870656 0
M  V30 23784 H 2279.75 -1.43935 0.0433146 0
M  V30 23785 H 2281.71 -3.53884 -2.28788 0
M  V30 23786 H 2280.43 -2.29663 -2.32212 0
M  V30 23787 H 2279.09 -3.60942 -0.641586 0
M  V30 23788 H 2278.74 -3.96775 -3.09159 0
M  V30 23789 H 2278.44 -5.46136 -2.16815 0
M  V30 23790 H 2279.96 -5.27164 -3.08107 0
M  V30 23791 H 2281.38 -5.6704 -0.844913 0
M  V30 23792 H 2279.77 -5.99969 -0.125507 0
M  V30 23793 H 2280.84 -4.8074 0.633808 0
M  V30 23794 N 2282.19 -0.0585199 -1.57491 0
M  V30 23795 C 2283.6 0.298063 -1.56792 0
M  V30 23796 C 2283.8 1.70942 -1.06682 0
M  V30 23797 O 2282.86 2.41816 -0.726714 0
M  V30 23798 C 2284.17 0.119826 -3.00461 0
M  V30 23799 C 2285.72 0.190373 -3.12421 0
M  V30 23800 C 2286.19 0.0405762 -4.57982 0
M  V30 23801 N 2287.69 0.0966144 -4.63099 0
M  V30 23802 C 2288.42 0.00492864 -5.734 0
M  V30 23803 N 2287.92 -0.139524 -6.92659 0
M  V30 23804 N 2289.71 0.0610403 -5.62067 0
M  V30 23805 H 2281.86 -0.981084 -1.88384 0
M  V30 23806 H 2284.12 -0.381478 -0.867858 0
M  V30 23807 H 2283.83 -0.85355 -3.41185 0
M  V30 23808 H 2283.7 0.877769 -3.66845 0
M  V30 23809 H 2286.09 1.15423 -2.71591 0
M  V30 23810 H 2286.17 -0.598449 -2.48701 0
M  V30 23811 H 2285.82 -0.919985 -4.99498 0
M  V30 23812 H 2285.75 0.848636 -5.19717 0
M  V30 23813 H 2288.24 0.20721 -3.77331 0
M  V30 23814 H 2288.55 -0.20199 -7.72536 0
M  V30 23815 H 2286.89 -0.174708 -6.9478 0
M  V30 23816 H 2290.09 0.1725 -4.67782 0
M  V30 23817 H 2290.26 -0.0138701 -6.47999 0
M  V30 23818 N 2283.66 1.56128 0.21493 0
M  V30 23819 C 2284.91 1.79713 0.93973 0
M  V30 23820 C 2285.24 0.629279 1.83722 0
M  V30 23821 O 2284.52 -0.371163 1.90926 0
M  V30 23822 C 2284.8 3.13427 1.773 0
M  V30 23823 C 2284.65 4.40672 0.901562 0
M  V30 23824 C 2285.97 3.43643 2.7495 0
M  V30 23825 H 2283.09 0.653782 0.340203 0
M  V30 23826 H 2285.73 1.88856 0.208207 0
M  V30 23827 H 2283.88 3.05764 2.39667 0
M  V30 23828 H 2285.56 4.60361 0.294125 0
M  V30 23829 H 2283.8 4.33304 0.207291 0
M  V30 23830 H 2284.47 5.30685 1.51913 0
M  V30 23831 H 2286.95 3.51477 2.22717 0
M  V30 23832 H 2285.82 4.38361 3.3035 0
M  V30 23833 H 2286.08 2.66141 3.53018 0
M  V30 23834 N 2285.14 -0.481893 1.50052 0
M  V30 23835 C 2286.37 -1.26298 1.6451 0
M  V30 23836 C 2286.79 -1.85291 0.323884 0
M  V30 23837 O 2286.15 -1.66779 -0.710939 0
M  V30 23838 C 2286.2 -2.35529 2.73054 0
M  V30 23839 O 2285.3 -3.3989 2.33556 0
M  V30 23840 H 2284.64 -0.372039 0.549985 0
M  V30 23841 H 2287.17 -0.574751 1.96361 0
M  V30 23842 H 2287.18 -2.81005 2.95804 0
M  V30 23843 H 2285.86 -1.91961 3.6895 0
M  V30 23844 H 2284.44 -3.002 2.21211 0
M  V30 23845 N 2286.62 -1.39448 -0.734313 0
M  V30 23846 C 2287.87 -1.37915 -1.49502 0
M  V30 23847 C 2288.22 0.0248078 -1.92384 0
M  V30 23848 O 2287.51 0.991477 -1.63952 0
M  V30 23849 C 2287.71 -2.28628 -2.74707 0
M  V30 23850 C 2287.54 -3.77705 -2.44068 0
M  V30 23851 C 2286.31 -4.46627 -2.3633 0
M  V30 23852 C 2288.51 -4.69667 -2.09566 0
M  V30 23853 N 2286.49 -5.81035 -1.98169 0
M  V30 23854 C 2287.86 -5.9273 -1.81854 0
M  V30 23855 C 2289.91 -4.57682 -1.9604 0
M  V30 23856 C 2288.62 -7.05148 -1.4198 0
M  V30 23857 C 2290.64 -5.70023 -1.57569 0
M  V30 23858 C 2290 -6.9216 -1.30742 0
M  V30 23859 H 2286.1 -0.559939 -0.545886 0
M  V30 23860 H 2288.69 -1.75003 -0.853342 0
M  V30 23861 H 2286.86 -1.93698 -3.36654 0
M  V30 23862 H 2288.59 -2.18084 -3.40912 0
M  V30 23863 H 2285.35 -4.00076 -2.53449 0
M  V30 23864 H 2285.77 -6.52167 -1.8168 0
M  V30 23865 H 2290.41 -3.63788 -2.15448 0
M  V30 23866 H 2288.13 -7.98942 -1.21313 0
M  V30 23867 H 2291.72 -5.62738 -1.47708 0
M  V30 23868 H 2290.6 -7.77614 -1.01418 0
M  V30 23869 N 2288.1 0.964571 -1.24635 0
M  V30 23870 C 2289.03 2.06266 -0.999339 0
M  V30 23871 C 2290.04 1.62768 0.032294 0
M  V30 23872 O 2291.23 1.77318 -0.20511 0
M  V30 23873 C 2288.33 3.35384 -0.486875 0
M  V30 23874 C 2287.51 4.07774 -1.58237 0
M  V30 23875 C 2286.56 5.15165 -1.07201 0
M  V30 23876 O 2285.59 5.41165 -1.76435 0
M  V30 23877 N 2286.79 5.80427 0.0919352 0
M  V30 23878 H 2289.56 2.28029 -1.94481 0
M  V30 23879 H 2287.12 1.13242 -1.15706 0
M  V30 23880 H 2289.11 4.04491 -0.130138 0
M  V30 23881 H 2287.68 3.10469 0.364405 0
M  V30 23882 H 2286.9 3.32903 -2.11115 0
M  V30 23883 H 2288.19 4.52899 -2.31862 0
M  V30 23884 H 2287.59 5.6171 0.670685 0
M  V30 23885 H 2286.14 6.50633 0.389791 0
M  V30 23886 N 2289.58 1.0606 1.16572 0
M  V30 23887 C 2290.49 0.680321 2.24519 0
M  V30 23888 C 2291.5 -0.302574 1.71349 0
M  V30 23889 O 2292.68 -0.152478 2.00822 0
M  V30 23890 C 2289.74 0.0700925 3.46629 0
M  V30 23891 C 2288.8 1.10455 4.14847 0
M  V30 23892 C 2288.04 0.523349 5.31128 0
M  V30 23893 O 2288.26 -0.664609 5.66515 0
M  V30 23894 O 2287.19 1.26189 5.88523 0
M  V30 23895 H 2291.02 1.58019 2.59352 0
M  V30 23896 H 2288.61 0.832715 1.24041 0
M  V30 23897 H 2290.49 -0.268593 4.20543 0
M  V30 23898 H 2289.16 -0.803298 3.13574 0
M  V30 23899 H 2288.07 1.49538 3.42913 0
M  V30 23900 H 2289.4 1.94939 4.51951 0
M  V30 23901 N 2291.06 -1.33168 0.84285 0
M  V30 23902 C 2292.47 -1.79972 0.496682 0
M  V30 23903 C 2292.82 -1.69705 -0.984611 0
M  V30 23904 O 2291.94 -1.24866 -1.76741 0
M  V30 23905 C 2292.54 -3.26771 0.894784 0
M  V30 23906 C 2291.1 -3.71576 0.600695 0
M  V30 23907 C 2290.24 -2.54508 1.10095 0
M  V30 23908 H 2293.19 -1.20633 1.03118 0
M  V30 23909 H 2293.22 -3.7994 0.206414 0
M  V30 23910 H 2292.73 -3.34211 1.97293 0
M  V30 23911 H 2290.83 -3.69659 -0.467219 0
M  V30 23912 H 2290.94 -4.64877 1.15872 0
M  V30 23913 H 2289.31 -2.49301 0.521664 0
M  V30 23914 H 2290.09 -2.64709 2.18596 0
M  V30 23915 N 2292.53 -0.599659 -1.45746 0
M  V30 23916 C 2293.95 -0.262668 -1.57424 0
M  V30 23917 C 2294.15 1.2349 -1.59224 0
M  V30 23918 O 2293.21 2.01753 -1.51828 0
M  V30 23919 C 2294.52 -0.926845 -2.8606 0
M  V30 23920 C 2296.07 -0.90202 -2.99721 0
M  V30 23921 C 2296.54 -1.54606 -4.31116 0
M  V30 23922 N 2298.03 -1.51118 -4.37856 0
M  V30 23923 C 2298.77 -1.97873 -5.38177 0
M  V30 23924 N 2298.26 -2.52677 -6.45078 0
M  V30 23925 N 2300.06 -1.88688 -5.29484 0
M  V30 23926 H 2292.21 -1.57213 -1.42821 0
M  V30 23927 H 2294.47 -0.658117 -0.682338 0
M  V30 23928 H 2294.18 -1.981 -2.90602 0
M  V30 23929 H 2294.05 -0.445304 -3.74562 0
M  V30 23930 H 2296.44 0.143565 -2.94751 0
M  V30 23931 H 2296.52 -1.42175 -2.1265 0
M  V30 23932 H 2296.16 -2.59093 -4.36845 0
M  V30 23933 H 2296.09 -1.00141 -5.16991 0
M  V30 23934 H 2298.58 -1.11074 -3.61208 0
M  V30 23935 H 2298.9 -2.86167 -7.17864 0
M  V30 23936 H 2297.24 -2.56712 -6.45851 0
M  V30 23937 H 2300.43 -1.45617 -4.44874 0
M  V30 23938 H 2300.61 -2.2544 -6.0752 0
M  V30 23939 N 2294.01 1.53925 -0.338371 0
M  V30 23940 C 2295.25 2.02738 0.260133 0
M  V30 23941 C 2295.62 1.22094 1.48179 0
M  V30 23942 O 2296.82 1.60781 2.15413 0
M  V30 23943 C 2295.09 3.528 0.571565 0
M  V30 23944 S 2296.65 4.23527 1.14762 0
M  V30 23945 H 2293.46 0.706733 0.0777786 0
M  V30 23946 H 2296.07 1.89643 -0.474932 0
M  V30 23947 H 2294.77 4.09107 -0.325464 0
M  V30 23948 H 2294.3 3.70004 1.33643 0
M  V30 23949 H 2296.32 4.32421 2.43364 0
M  V30 23950 N 2295.49 0.0668712 1.57458 0
M  V30 23951 C 2296.4 -0.916937 2.15938 0
M  V30 23952 C 2297.42 -1.33056 1.12126 0
M  V30 23953 O 2298.59 -1.40426 1.44369 0
M  V30 23954 C 2295.66 -2.16802 2.70551 0
M  V30 23955 C 2294.72 -1.81128 3.89219 0
M  V30 23956 C 2293.95 -3.00272 4.41217 0
M  V30 23957 O 2294.17 -4.14137 3.92233 0
M  V30 23958 O 2293.11 -2.80375 5.3261 0
M  V30 23959 H 2296.93 -0.449508 3.00355 0
M  V30 23960 H 2294.52 -0.155923 1.48584 0
M  V30 23961 H 2296.4 -2.90176 3.05575 0
M  V30 23962 H 2295.08 -2.62653 1.89196 0
M  V30 23963 H 2293.98 -1.05022 3.59056 0
M  V30 23964 H 2295.32 -1.40065 4.7185 0
M  V30 23965 N 2296.97 -1.56239 -0.206647 0
M  V30 23966 C 2298.38 -1.49565 -0.556998 0
M  V30 23967 C 2298.58 -0.764768 -1.86423 0
M  V30 23968 O 2297.64 -0.310535 -2.50583 0
M  V30 23969 C 2298.95 -2.94188 -0.622427 0
M  V30 23970 C 2300.5 -3.04793 -0.712046 0
M  V30 23971 C 2300.98 -4.50804 -0.808688 0
M  V30 23972 N 2302.47 -4.54908 -0.87252 0
M  V30 23973 C 2303.2 -5.65183 -0.967266 0
M  V30 23974 N 2302.7 -6.85175 -1.02503 0
M  V30 23975 N 2304.49 -5.53069 -1.00356 0
M  V30 23976 H 2296.64 -2.02178 0.650978 0
M  V30 23977 H 2298.9 -0.919575 0.230403 0
M  V30 23978 H 2298.61 -3.50671 0.268788 0
M  V30 23979 H 2298.48 -3.46908 -1.48104 0
M  V30 23980 H 2300.87 -2.48365 -1.5937 0
M  V30 23981 H 2300.95 -2.55217 0.172534 0
M  V30 23982 H 2300.6 -5.07854 0.0685647 0
M  V30 23983 H 2300.53 -4.98101 -1.7089 0
M  V30 23984 H 2303.02 -3.68501 -0.837592 0
M  V30 23985 H 2303.33 -7.64967 -1.09752 0
M  V30 23986 H 2301.68 -6.87856 -0.993905 0
M  V30 23987 H 2304.87 -4.58251 -0.955189 0
M  V30 23988 H 2305.04 -6.39039 -1.07394 0
M  V30 23989 N 2298.45 0.473929 -1.50305 0
M  V30 23990 C 2299.86 1.05487 -1.54043 0
M  V30 23991 C 2300.21 1.93191 -0.342282 0
M  V30 23992 O 2299.33 2.09422 0.54512 0
M  V30 23993 C 2299.93 1.91984 -2.79155 0
M  V30 23994 C 2298.49 2.45191 -2.85584 0
M  V30 23995 C 2297.63 1.23465 -2.48297 0
M  V30 23996 H 2300.58 0.256666 -1.56611 0
M  V30 23997 H 2300.61 2.77015 -2.6085 0
M  V30 23998 H 2300.12 1.28124 -3.66341 0
M  V30 23999 H 2298.22 3.12612 -2.02743 0
M  V30 24000 H 2298.33 2.80492 -3.88408 0
M  V30 24001 H 2296.7 1.56853 -2.00672 0
M  V30 24002 H 2297.48 0.612729 -3.37788 0
M  V30 24003 N 2299.92 1.39835 0.726907 0
M  V30 24004 C 2300.85 1.41944 1.85403 0
M  V30 24005 C 2301.83 0.281757 1.6775 0
M  V30 24006 O 2303.02 0.48875 1.87949 0
M  V30 24007 C 2300.15 1.27015 3.2324 0
M  V30 24008 C 2299.1 2.38268 3.55545 0
M  V30 24009 C 2298.43 2.08423 4.92406 0
M  V30 24010 C 2299.73 3.80595 3.57693 0
M  V30 24011 H 2301.42 2.36269 1.83895 0
M  V30 24012 H 2298.97 1.13725 0.883329 0
M  V30 24013 H 2300.92 1.2711 4.01772 0
M  V30 24014 H 2299.65 0.291621 3.25295 0
M  V30 24015 H 2298.31 2.37404 2.79347 0
M  V30 24016 H 2297.95 1.08988 4.9105 0
M  V30 24017 H 2297.65 2.82952 5.14987 0
M  V30 24018 H 2299.18 2.10181 5.73285 0
M  V30 24019 H 2300.59 3.83344 4.26286 0
M  V30 24020 H 2298.99 4.5455 3.91796 0
M  V30 24021 H 2300.06 4.10992 2.5732 0
M  V30 24022 N 2301.4 -0.957948 1.25144 0
M  V30 24023 C 2302.33 -2.05734 1.01026 0
M  V30 24024 C 2303.35 -1.62783 -0.0236616 0
M  V30 24025 O 2304.54 -1.77206 0.214511 0
M  V30 24026 C 2301.64 -3.35122 0.504654 0
M  V30 24027 C 2300.81 -4.06929 1.60397 0
M  V30 24028 C 2299.87 -5.14589 1.09931 0
M  V30 24029 O 2298.89 -5.40221 1.79303 0
M  V30 24030 N 2300.1 -5.80468 -0.0611525 0
M  V30 24031 H 2302.86 -2.26995 1.95687 0
M  V30 24032 H 2300.42 -1.12627 1.16305 0
M  V30 24033 H 2302.41 -4.04416 0.151587 0
M  V30 24034 H 2300.98 -3.10658 -0.347935 0
M  V30 24035 H 2300.2 -3.31778 2.12877 0
M  V30 24036 H 2301.49 -4.51663 2.3426 0
M  V30 24037 H 2300.89 -5.62058 -0.640887 0
M  V30 24038 H 2299.45 -6.50831 -0.355281 0
M  V30 24039 N 2302.88 -1.06677 -1.16008 0
M  V30 24040 C 2304.13 -0.784262 -1.86263 0
M  V30 24041 C 2304.45 0.691456 -1.82329 0
M  V30 24042 O 2303.72 1.50045 -1.2595 0
M  V30 24043 H 2302.3 -0.287122 -0.689616 0
M  V30 24044 H 2304.96 -1.34908 -1.40662 0
M  V30 24045 H 2304.06 -1.11264 -2.91593 0
M  V30 24046 N 2304.36 1.32719 -0.8499 0
M  V30 24047 C 2305.59 2.01319 -0.464115 0
M  V30 24048 C 2306 1.64058 0.942431 0
M  V30 24049 O 2305.34 0.855408 1.62568 0
M  V30 24050 C 2305.4 3.55749 -0.517949 0
M  V30 24051 C 2305.06 4.16424 -1.88255 0
M  V30 24052 C 2306.06 4.34997 -2.84734 0
M  V30 24053 C 2303.75 4.52605 -2.1784 0
M  V30 24054 C 2305.74 4.88913 -4.08954 0
M  V30 24055 C 2303.43 5.06226 -3.42313 0
M  V30 24056 C 2304.43 5.24328 -4.37686 0
M  V30 24057 O 2304.11 5.76805 -5.59957 0
M  V30 24058 H 2303.85 0.651224 -0.181338 0
M  V30 24059 H 2306.4 1.7038 -1.14716 0
M  V30 24060 H 2304.63 3.86063 0.221929 0
M  V30 24061 H 2306.32 4.05628 -0.148437 0
M  V30 24062 H 2307.08 4.07383 -2.63181 0
M  V30 24063 H 2302.96 4.37803 -1.44393 0
M  V30 24064 H 2306.51 5.02957 -4.83405 0
M  V30 24065 H 2302.4 5.33272 -3.63719 0
M  V30 24066 H 2303.17 5.95204 -5.61849 0
M  V30 24067 N 2305.84 0.60738 1.45426 0
M  V30 24068 C 2307.06 0.107042 2.07124 0
M  V30 24069 C 2307.49 -1.19931 1.44908 0
M  V30 24070 O 2306.84 -1.73018 0.541717 0
M  V30 24071 C 2306.89 -0.0193485 3.60595 0
M  V30 24072 O 2306 -1.06963 3.98287 0
M  V30 24073 H 2305.34 0.0739713 0.659867 0
M  V30 24074 H 2307.87 0.83733 1.86681 0
M  V30 24075 H 2307.88 -0.217629 4.07419 0
M  V30 24076 H 2306.55 0.934524 4.05265 0
M  V30 24077 H 2305.13 -0.847825 3.63134 0
M  V30 24078 N 2307.31 -1.53743 0.34653 0
M  V30 24079 C 2308.56 -2.0126 -0.249438 0
M  V30 24080 C 2308.89 -1.23389 -1.49963 0
M  V30 24081 O 2308.17 -0.322323 -1.91811 0
M  V30 24082 C 2308.45 -3.5571 -0.560581 0
M  V30 24083 C 2308.3 -4.4429 0.701914 0
M  V30 24084 C 2309.62 -4.18267 -1.36898 0
M  V30 24085 H 2306.74 -0.731584 -0.0891859 0
M  V30 24086 H 2309.38 -1.84155 0.467657 0
M  V30 24087 H 2307.53 -3.70416 -1.17149 0
M  V30 24088 H 2309.21 -4.41414 1.33982 0
M  V30 24089 H 2307.45 -4.13031 1.3262 0
M  V30 24090 H 2308.12 -5.50248 0.439427 0
M  V30 24091 H 2310.6 -4.07276 -0.852376 0
M  V30 24092 H 2309.47 -5.264 -1.55543 0
M  V30 24093 H 2309.73 -3.73082 -2.37196 0
M  V30 24094 N 2308.79 -0.0752207 -1.5742 0
M  V30 24095 C 2309.7 0.905473 -2.16422 0
M  V30 24096 C 2310.72 1.32459 -1.1283 0
M  V30 24097 O 2311.89 1.39659 -1.45112 0
M  V30 24098 C 2308.96 2.15365 -2.71696 0
M  V30 24099 C 2308.02 1.79061 -3.90174 0
M  V30 24100 C 2307.25 2.97928 -4.42803 0
M  V30 24101 O 2307.48 4.12051 -3.94423 0
M  V30 24102 O 2306.41 2.77546 -5.3409 0
M  V30 24103 H 2310.24 0.433573 -3.00589 0
M  V30 24104 H 2307.82 0.148041 -1.48665 0
M  V30 24105 H 2309.7 2.88551 -3.07109 0
M  V30 24106 H 2308.38 2.61646 -1.90587 0
M  V30 24107 H 2307.29 1.03116 -3.59608 0
M  V30 24108 H 2308.62 1.3756 -4.72587 0
M  V30 24109 N 2310.27 1.56347 0.198358 0
M  V30 24110 C 2311.5 1.84273 0.934183 0
M  V30 24111 C 2311.91 0.655156 1.77495 0
M  V30 24112 O 2311.25 -0.385456 1.7961 0
M  V30 24113 C 2311.31 3.06257 1.88273 0
M  V30 24114 C 2310.98 4.40297 1.22423 0
M  V30 24115 C 2311.97 5.16394 0.602748 0
M  V30 24116 C 2309.66 4.87031 1.22906 0
M  V30 24117 C 2311.65 6.374 -0.00512033 0
M  V30 24118 C 2309.34 6.07974 0.617358 0
M  V30 24119 C 2310.34 6.83 0.00134335 0
M  V30 24120 O 2310.03 8.01652 -0.600783 0
M  V30 24121 H 2309.76 0.616086 0.278234 0
M  V30 24122 H 2312.31 2.04307 0.21159 0
M  V30 24123 H 2310.54 2.821 2.64493 0
M  V30 24124 H 2312.23 3.20858 2.48606 0
M  V30 24125 H 2313 4.81383 0.59118 0
M  V30 24126 H 2308.88 4.28592 1.69794 0
M  V30 24127 H 2312.42 6.95901 -0.486553 0
M  V30 24128 H 2308.32 6.42453 0.626417 0
M  V30 24129 H 2309.09 8.16987 -0.497369 0
M  V30 24130 N 2311.75 -0.465951 1.50554 0
M  V30 24131 C 2312.68 -1.5809 1.65952 0
M  V30 24132 C 2313.69 -1.53553 0.540854 0
M  V30 24133 O 2314.88 -1.58848 0.814215 0
M  V30 24134 C 2311.98 -2.9698 1.63267 0
M  V30 24135 C 2311.16 -3.26331 2.9125 0
M  V30 24136 C 2310.21 -4.44801 2.81138 0
M  V30 24137 O 2309.24 -4.44856 3.55094 0
M  V30 24138 N 2310.44 -5.46753 1.95042 0
M  V30 24139 H 2313.21 -1.45296 2.62124 0
M  V30 24140 H 2310.77 -0.654454 1.48083 0
M  V30 24141 H 2312.76 -3.7421 1.54108 0
M  V30 24142 H 2311.33 -3.03517 0.748086 0
M  V30 24143 H 2310.55 -2.37666 3.14497 0
M  V30 24144 H 2311.84 -3.42755 3.76028 0
M  V30 24145 H 2311.24 -5.49532 1.34279 0
M  V30 24146 H 2309.79 -6.22947 1.91783 0
M  V30 24147 N 2313.23 -1.40218 -0.719481 0
M  V30 24148 C 2314.16 -1.42925 -1.84647 0
M  V30 24149 C 2315.14 -0.290649 -1.67598 0
M  V30 24150 O 2316.32 -0.49871 -1.87687 0
M  V30 24151 C 2313.45 -1.28728 -3.22562 0
M  V30 24152 C 2312.41 -2.4015 -3.54277 0
M  V30 24153 C 2311.73 -2.11032 -4.91294 0
M  V30 24154 C 2313.03 -3.82487 -3.5567 0
M  V30 24155 H 2314.73 -2.37241 -1.8264 0
M  V30 24156 H 2312.27 -1.14192 -0.877285 0
M  V30 24157 H 2314.23 -1.29239 -4.01093 0
M  V30 24158 H 2312.95 -0.308868 -3.25136 0
M  V30 24159 H 2311.61 -2.38882 -2.78084 0
M  V30 24160 H 2311.26 -1.11591 -4.90466 0
M  V30 24161 H 2310.96 -2.85679 -5.1348 0
M  V30 24162 H 2312.48 -2.13219 -5.72163 0
M  V30 24163 H 2313.89 -3.856 -4.24247 0
M  V30 24164 H 2312.29 -4.56621 -3.8938 0
M  V30 24165 H 2313.36 -4.12351 -2.55137 0
M  V30 24166 N 2314.7 0.951297 -1.25651 0
M  V30 24167 C 2315.63 2.06597 -1.08812 0
M  V30 24168 C 2316.62 1.701 0.00379557 0
M  V30 24169 O 2317.8 1.93486 -0.166359 0
M  V30 24170 C 2314.93 3.39973 -0.709602 0
M  V30 24171 C 2313.88 3.90493 -1.75212 0
M  V30 24172 C 2313.21 5.20403 -1.2282 0
M  V30 24173 C 2314.51 4.16499 -3.1516 0
M  V30 24174 H 2316.2 2.20942 -2.02052 0
M  V30 24175 H 2313.75 1.06168 -0.972854 0
M  V30 24176 H 2315.7 4.17407 -0.578722 0
M  V30 24177 H 2314.43 3.25575 0.258499 0
M  V30 24178 H 2313.09 3.15231 -1.8715 0
M  V30 24179 H 2312.73 5.02377 -0.250233 0
M  V30 24180 H 2312.43 5.55173 -1.92501 0
M  V30 24181 H 2313.96 6.0043 -1.10978 0
M  V30 24182 H 2315.37 4.8458 -3.06357 0
M  V30 24183 H 2313.77 4.62531 -3.82342 0
M  V30 24184 H 2314.84 3.22652 -3.61972 0
M  V30 24185 N 2316.18 1.07291 1.1544 0
M  V30 24186 C 2317.13 0.686991 2.22223 0
M  V30 24187 C 2318.12 -0.301901 1.66688 0
M  V30 24188 O 2319.33 -0.16568 1.79236 0
M  V30 24189 H 2315.71 0.204077 0.723779 0
M  V30 24190 H 2317.68 1.59724 2.52053 0
M  V30 24191 C 2316.43 0.10021 3.47556 0
M  V30 24192 H 2315.75 0.852279 3.9061 0
M  V30 24193 H 2317.19 -0.132161 4.23794 0
M  V30 24194 C 2315.65 -1.15894 3.16339 0
M  V30 24195 O 2316.18 -2.24549 3.33078 0
M  V30 24196 N 2314.38 -1.06486 2.70387 0
M  V30 24197 H 2313.93 -0.180623 2.56966 0
M  V30 24198 H 2313.89 -1.90815 2.49874 0
M  V30 24199 N 2317.66 -1.32267 0.856927 0
M  V30 24200 C 2318.91 -1.96783 0.460509 0
M  V30 24201 C 2319.23 -1.68137 -0.987672 0
M  V30 24202 O 2318.5 -0.989795 -1.69056 0
M  V30 24203 H 2317.08 -0.728024 0.167302 0
M  V30 24204 H 2319.74 -1.6131 1.09385 0
M  V30 24205 H 2318.84 -3.06132 0.607443 0
M  V30 24206 N 2319.14 -0.615084 -1.45102 0
M  V30 24207 C 2320.39 -0.112991 -2.01784 0
M  V30 24208 C 2320.71 1.26376 -1.48506 0
M  V30 24209 O 2319.98 1.83635 -0.682277 0
M  V30 24210 H 2318.56 -0.0387799 -0.745993 0
M  V30 24211 H 2321.22 -0.798172 -1.77807 0
M  V30 24212 H 2320.32 -0.0684618 -3.12025 0
M  V30 24213 N 2320.62 1.53557 -0.354678 0
M  V30 24214 C 2321.53 2.29098 0.50511 0
M  V30 24215 C 2322.54 1.34638 1.10221 0
M  V30 24216 O 2323.72 1.67686 1.1155 0
M  V30 24217 C 2320.78 3.0574 1.63474 0
M  V30 24218 C 2319.85 4.15847 1.06629 0
M  V30 24219 C 2319.08 4.88826 2.14208 0
M  V30 24220 O 2319.3 4.61568 3.35129 0
M  V30 24221 O 2318.24 5.75016 1.77877 0
M  V30 24222 H 2322.06 3.03503 -0.10929 0
M  V30 24223 H 2319.65 1.48922 -0.119384 0
M  V30 24224 H 2321.53 3.53634 2.29174 0
M  V30 24225 H 2320.2 2.34182 2.23474 0
M  V30 24226 H 2319.11 3.72231 0.373499 0
M  V30 24227 H 2320.44 4.8954 0.510995 0
M  V30 24228 N 2322.1 0.083568 1.57378 0
M  V30 24229 C 2323.03 -0.876822 2.16412 0
M  V30 24230 C 2324.01 -1.30226 1.09431 0
M  V30 24231 O 2325.19 -1.37121 1.37519 0
M  V30 24232 C 2322.32 -2.14017 2.73521 0
M  V30 24233 C 2321.28 -1.85375 3.85772 0
M  V30 24234 C 2320.6 -3.1844 4.29534 0
M  V30 24235 C 2321.9 -1.14975 5.09488 0
M  V30 24236 H 2323.6 -0.385006 2.96914 0
M  V30 24237 H 2321.14 -0.183745 1.42823 0
M  V30 24238 H 2323.09 -2.81631 3.13468 0
M  V30 24239 H 2321.82 -2.65462 1.90257 0
M  V30 24240 H 2320.48 -1.20163 3.46347 0
M  V30 24241 H 2320.13 -3.67749 3.43176 0
M  V30 24242 H 2319.83 -3.00063 5.05209 0
M  V30 24243 H 2321.35 -3.87231 4.72106 0
M  V30 24244 H 2322.76 -1.72677 5.46677 0
M  V30 24245 H 2321.16 -1.06816 5.90517 0
M  V30 24246 H 2322.23 -0.130663 4.84724 0
M  V30 24247 N 2323.57 -1.5645 -0.190064 0
M  V30 24248 C 2324.52 -1.91349 -1.23974 0
M  V30 24249 C 2325.51 -0.779717 -1.40745 0
M  V30 24250 O 2326.7 -1.04265 -1.43031 0
M  V30 24251 C 2323.83 -2.26083 -2.58343 0
M  V30 24252 C 2322.91 -3.4593 -2.45344 0
M  V30 24253 N 2323.31 -4.63699 -2.02031 0
M  V30 24254 C 2321.6 -3.50167 -2.76223 0
M  V30 24255 C 2322.3 -5.45854 -2.01044 0
M  V30 24256 N 2321.28 -4.86394 -2.42739 0
M  V30 24257 H 2325.08 -2.799 -0.896269 0
M  V30 24258 H 2322.6 -1.57436 -0.398468 0
M  V30 24259 H 2324.59 -2.49273 -3.34169 0
M  V30 24260 H 2323.25 -1.38861 -2.93509 0
M  V30 24261 H 2324.26 -4.88271 -1.72661 0
M  V30 24262 H 2320.94 -2.73374 -3.15552 0
M  V30 24263 H 2322.33 -6.50191 -1.69414 0
M  V30 24264 N 2325.05 0.45796 -1.50799 0
M  V30 24265 C 2326.47 0.792795 -1.38517 0
M  V30 24266 C 2326.67 1.96378 -0.451443 0
M  V30 24267 O 2325.72 2.52298 0.101076 0
M  V30 24268 C 2327.04 1.09253 -2.80151 0
M  V30 24269 C 2328.58 1.1982 -2.89158 0
M  V30 24270 C 2329.06 1.53098 -4.31654 0
M  V30 24271 N 2330.55 1.60064 -4.34665 0
M  V30 24272 C 2331.29 1.87345 -5.41931 0
M  V30 24273 N 2330.78 2.12556 -6.59387 0
M  V30 24274 N 2332.57 1.88956 -5.29388 0
M  V30 24275 H 2324.73 -0.313548 -2.10073 0
M  V30 24276 H 2326.99 -0.0778028 -0.944802 0
M  V30 24277 H 2326.69 0.305022 -3.50375 0
M  V30 24278 H 2326.57 2.02544 -3.18207 0
M  V30 24279 H 2328.96 1.97636 -2.19144 0
M  V30 24280 H 2329.04 0.244776 -2.54626 0
M  V30 24281 H 2328.68 0.758178 -5.02209 0
M  V30 24282 H 2328.61 2.49613 -4.63682 0
M  V30 24283 H 2331.1 1.42567 -3.49976 0
M  V30 24284 H 2331.41 2.32684 -7.36938 0
M  V30 24285 H 2329.76 2.09921 -6.62539 0
M  V30 24286 H 2332.95 1.68765 -4.36619 0
M  V30 24287 H 2333.12 2.0988 -6.1307 0
M  V30 24288 N 2326.53 1.40598 0.712035 0
M  V30 24289 C 2327.46 1.43902 1.83887 0
M  V30 24290 C 2328.44 0.299533 1.67442 0
M  V30 24291 O 2329.63 0.508657 1.8742 0
M  V30 24292 C 2326.76 1.30437 3.21875 0
M  V30 24293 C 2325.71 2.42026 3.52998 0
M  V30 24294 C 2325.04 2.13634 4.90168 0
M  V30 24295 C 2326.34 3.84368 3.53636 0
M  V30 24296 H 2328.03 2.38206 1.81379 0
M  V30 24297 H 2325.58 1.14655 0.871217 0
M  V30 24298 H 2327.53 1.31364 4.00402 0
M  V30 24299 H 2326.25 0.326107 3.24968 0
M  V30 24300 H 2324.91 2.40354 2.76813 0
M  V30 24301 H 2324.56 1.14191 4.89867 0
M  V30 24302 H 2324.26 2.88398 5.11957 0
M  V30 24303 H 2325.78 2.1625 5.71024 0
M  V30 24304 H 2327.2 3.87844 4.22196 0
M  V30 24305 H 2325.59 4.5868 3.86953 0
M  V30 24306 H 2326.66 4.13698 2.52947 0
M  V30 24307 N 2328.01 -0.94462 1.26153 0
M  V30 24308 C 2328.96 -2.06415 1.07218 0
M  V30 24309 C 2329.95 -1.694 0.000121783 0
M  V30 24310 O 2331.16 -1.79318 0.156531 0
M  V30 24311 H 2327.53 -0.675799 0.329849 0
M  V30 24312 H 2329.5 -2.19538 2.02103 0
M  V30 24313 C 2328.25 -3.402 0.718257 0
M  V30 24314 H 2327.57 -3.69157 1.53504 0
M  V30 24315 H 2329.01 -4.1936 0.625533 0
M  V30 24316 C 2327.47 -3.31933 -0.576376 0
M  V30 24317 O 2328 -3.67776 -1.61567 0
M  V30 24318 N 2326.21 -2.8504 -0.565731 0
M  V30 24319 H 2325.76 -2.56069 0.280412 0
M  V30 24320 H 2325.71 -2.79891 -1.43208 0
M  V30 24321 N 2329.49 -1.07901 -1.1487 0
M  V30 24322 C 2330.73 -0.800531 -1.85133 0
M  V30 24323 C 2331.05 0.675982 -1.83548 0
M  V30 24324 O 2332.25 1.06944 -2.4955 0
M  V30 24325 C 2330.71 -1.38203 -3.32307 0
M  V30 24326 C 2330.32 -2.88996 -3.42323 0
M  V30 24327 C 2332.06 -1.18181 -4.07717 0
M  V30 24328 C 2329.97 -3.40309 -4.83678 0
M  V30 24329 H 2328.9 -0.295792 -0.693558 0
M  V30 24330 H 2331.55 -1.29978 -1.29529 0
M  V30 24331 H 2329.93 -0.8105 -3.87617 0
M  V30 24332 H 2331.11 -3.52241 -2.97091 0
M  V30 24333 H 2329.42 -3.07872 -2.80364 0
M  V30 24334 H 2332.02 -1.53989 -5.12046 0
M  V30 24335 H 2332.36 -0.121244 -4.16123 0
M  V30 24336 H 2332.89 -1.72 -3.58693 0
M  V30 24337 H 2329.63 -4.45916 -4.80458 0
M  V30 24338 H 2329.15 -2.8182 -5.29469 0
M  V30 24339 H 2330.83 -3.36593 -5.52552 0
M  V30 24340 N 2330.96 1.31811 -0.863929 0
M  V30 24341 C 2332.37 1.79159 -0.525252 0
M  V30 24342 C 2332.73 1.7125 0.957488 0
M  V30 24343 O 2331.85 1.27662 1.74732 0
M  V30 24344 C 2332.45 3.25306 -0.946657 0
M  V30 24345 C 2331 3.70573 -0.659733 0
M  V30 24346 C 2330.15 2.52724 -1.14131 0
M  V30 24347 H 2333.1 1.18978 -1.05024 0
M  V30 24348 H 2333.12 3.79563 -0.266833 0
M  V30 24349 H 2332.64 3.3103 -2.02585 0
M  V30 24350 H 2330.74 3.70356 0.40835 0
M  V30 24351 H 2330.85 4.62975 -1.23253 0
M  V30 24352 H 2329.21 2.48439 -0.561259 0
M  V30 24353 H 2330 2.61198 -2.2278 0
M  V30 24354 N 2332.44 0.62277 1.44773 0
M  V30 24355 C 2333.39 -0.0994274 2.32387 0
M  V30 24356 C 2334.38 -0.8443 1.4686 0
M  V30 24357 O 2335.59 -0.758146 1.63255 0
M  V30 24358 H 2331.96 -0.0509159 0.750274 0
M  V30 24359 H 2333.94 0.657721 2.91061 0
M  V30 24360 C 2332.68 -1.07313 3.30725 0
M  V30 24361 H 2332.01 -0.509393 3.96542 0
M  V30 24362 H 2333.45 -1.5481 3.94728 0
M  V30 24363 C 2331.91 -2.15425 2.59025 0
M  V30 24364 O 2332.44 -3.23388 2.38291 0
M  V30 24365 N 2330.64 -1.91127 2.18904 0
M  V30 24366 H 2330.19 -1.03333 2.35966 0
M  V30 24367 H 2330.15 -2.63665 1.71255 0
M  V30 24368 N 2333.92 -1.53367 0.362817 0
M  V30 24369 C 2335.33 -1.86333 -0.116989 0
M  V30 24370 C 2335.68 -1.28349 -1.48394 0
M  V30 24371 O 2334.81 -0.604464 -2.07786 0
M  V30 24372 C 2335.4 -3.38091 -0.21906 0
M  V30 24373 C 2333.96 -3.70865 -0.643118 0
M  V30 24374 C 2333.11 -2.76493 0.211367 0
M  V30 24375 H 2336.06 -1.47654 0.581713 0
M  V30 24376 H 2336.08 -3.65922 -1.04313 0
M  V30 24377 H 2335.59 -3.80264 0.775969 0
M  V30 24378 H 2333.69 -3.34248 -1.64648 0
M  V30 24379 H 2333.81 -4.77259 -0.419646 0
M  V30 24380 H 2332.17 -2.5269 -0.319323 0
M  V30 24381 H 2332.95 -3.21499 1.20388 0
M  V30 24382 N 2335.4 -0.091913 -1.57332 0
M  V30 24383 C 2336.36 0.853653 -2.1271 0
M  V30 24384 C 2337.36 1.21298 -1.05563 0
M  V30 24385 O 2338.55 1.14294 -1.31463 0
M  V30 24386 C 2335.68 2.15056 -2.64506 0
M  V30 24387 H 2336.88 0.372848 -2.97573 0
M  V30 24388 H 2334.43 0.157045 -1.55509 0
M  V30 24389 H 2335.16 2.67629 -1.83154 0
M  V30 24390 H 2334.95 1.90266 -3.42843 0
M  V30 24391 H 2336.44 2.82705 -3.07356 0
M  V30 24392 N 2336.88 1.56548 0.181765 0
M  V30 24393 C 2337.81 1.92144 1.24953 0
M  V30 24394 C 2338.82 0.813446 1.41021 0
M  V30 24395 O 2340.01 1.09188 1.4121 0
M  V30 24396 C 2337.11 2.14991 2.61977 0
M  V30 24397 C 2336.28 3.46188 2.67344 0
M  V30 24398 C 2335.34 3.57987 3.85657 0
M  V30 24399 O 2334.37 4.30697 3.72141 0
M  V30 24400 N 2335.57 2.92062 5.01677 0
M  V30 24401 H 2338.34 2.84336 0.947279 0
M  V30 24402 H 2335.9 1.57578 0.371602 0
M  V30 24403 H 2337.89 2.2016 3.39576 0
M  V30 24404 H 2336.46 1.29235 2.84635 0
M  V30 24405 H 2335.68 3.52769 1.75919 0
M  V30 24406 H 2336.97 4.32539 2.67931 0
M  V30 24407 H 2336.36 2.32841 5.1556 0
M  V30 24408 H 2334.92 3.0284 5.77175 0
M  V30 24409 N 2338.35 -0.449957 1.5104 0
M  V30 24410 C 2339.58 -1.22317 1.66871 0
M  V30 24411 C 2340 -1.85321 0.360759 0
M  V30 24412 O 2339.35 -1.70167 -0.659501 0
M  V30 24413 C 2339.41 -2.31648 2.77528 0
M  V30 24414 O 2339.13 -1.71223 4.03255 0
M  V30 24415 C 2340.63 -3.22155 3.04518 0
M  V30 24416 H 2337.85 -0.369145 0.560333 0
M  V30 24417 H 2340.39 -0.534684 1.97386 0
M  V30 24418 H 2338.55 -2.96234 2.49648 0
M  V30 24419 H 2338.96 -2.43381 4.64614 0
M  V30 24420 H 2340.43 -3.95031 3.85557 0
M  V30 24421 H 2340.91 -3.82176 2.16422 0
M  V30 24422 H 2341.52 -2.63282 3.3401 0
M  V30 24423 N 2339.83 -1.40974 -0.704569 0
M  V30 24424 C 2341.06 -1.4338 -1.49856 0
M  V30 24425 C 2341.48 -0.0382171 -1.88061 0
M  V30 24426 O 2340.84 0.956398 -1.54022 0
M  V30 24427 C 2340.89 -2.34043 -2.74329 0
M  V30 24428 O 2339.99 -1.79127 -3.71466 0
M  V30 24429 H 2339.33 -0.486982 -0.451381 0
M  V30 24430 H 2341.86 -1.85331 -0.8668 0
M  V30 24431 H 2341.87 -2.49609 -3.22737 0
M  V30 24432 H 2340.55 -3.35451 -2.45857 0
M  V30 24433 H 2339.13 -1.72964 -3.3036 0
M  V30 24434 N 2341.31 0.937917 -1.26653 0
M  V30 24435 C 2342.56 1.68698 -1.12556 0
M  V30 24436 C 2342.89 1.9138 0.329748 0
M  V30 24437 O 2342.16 1.49682 1.242 0
M  V30 24438 C 2342.45 3.05978 -1.89867 0
M  V30 24439 C 2342.3 2.90601 -3.43323 0
M  V30 24440 C 2343.62 4.06147 -1.69506 0
M  V30 24441 H 2340.74 0.612249 -0.410268 0
M  V30 24442 H 2343.38 1.0891 -1.55687 0
M  V30 24443 H 2341.53 3.57014 -1.5321 0
M  V30 24444 H 2343.2 2.46762 -3.89752 0
M  V30 24445 H 2341.45 2.26158 -3.70183 0
M  V30 24446 H 2342.12 3.87983 -3.92649 0
M  V30 24447 H 2344.59 3.64085 -2.01449 0
M  V30 24448 H 2343.47 5.0021 -2.2601 0
M  V30 24449 H 2343.73 4.37437 -0.640442 0
M  V30 24450 N 2342.79 1.08509 1.14296 0
M  V30 24451 C 2344.03 0.816614 1.85632 0
M  V30 24452 C 2344.37 -0.655989 1.82785 0
M  V30 24453 O 2343.64 -1.48231 1.25928 0
M  V30 24454 C 2343.93 1.34047 3.34221 0
M  V30 24455 C 2343.78 2.87849 3.45634 0
M  V30 24456 C 2345.1 0.966576 4.29355 0
M  V30 24457 H 2342.22 0.298116 0.674015 0
M  V30 24458 H 2344.86 1.34489 1.34211 0
M  V30 24459 H 2343.01 0.891107 3.78142 0
M  V30 24460 H 2344.68 3.41164 3.10492 0
M  V30 24461 H 2342.92 3.25456 2.86812 0
M  V30 24462 H 2343.59 3.19576 4.50083 0
M  V30 24463 H 2346.07 1.35398 3.93455 0
M  V30 24464 H 2344.95 1.3603 5.31777 0
M  V30 24465 H 2345.21 -0.126284 4.4192 0
M  V30 24466 N 2344.27 -1.31351 0.870907 0
M  V30 24467 C 2345.51 -1.96964 0.483022 0
M  V30 24468 C 2345.85 -1.68674 -0.962433 0
M  V30 24469 O 2345.12 -0.983739 -1.67788 0
M  V30 24470 C 2345.4 -3.52376 0.741814 0
M  V30 24471 C 2345.26 -3.90236 2.23687 0
M  V30 24472 C 2346.58 -4.39604 0.208915 0
M  V30 24473 H 2343.69 -0.715438 0.176967 0
M  V30 24474 H 2346.34 -1.55462 1.09232 0
M  V30 24475 H 2344.49 -3.87858 0.223217 0
M  V30 24476 H 2346.16 -3.64851 2.82279 0
M  V30 24477 H 2344.4 -3.38809 2.70907 0
M  V30 24478 H 2345.07 -4.986 2.36859 0
M  V30 24479 H 2347.55 -4.10951 0.652601 0
M  V30 24480 H 2346.42 -5.47295 0.419432 0
M  V30 24481 H 2346.69 -4.33065 -0.889199 0
M  V30 24482 N 2345.74 -0.630439 -1.44441 0
M  V30 24483 C 2346.65 0.0761281 -2.34476 0
M  V30 24484 C 2347.67 0.836423 -1.52578 0
M  V30 24485 O 2348.85 0.788842 -1.85309 0
M  V30 24486 C 2345.91 1.04593 -3.30547 0
M  V30 24487 C 2344.97 0.285085 -4.28352 0
M  V30 24488 C 2344.21 1.20869 -5.19833 0
M  V30 24489 O 2344.43 2.44738 -5.15228 0
M  V30 24490 O 2343.36 0.693386 -5.97893 0
M  V30 24491 H 2347.19 -0.664376 -2.96344 0
M  V30 24492 H 2344.77 -0.390635 -1.44203 0
M  V30 24493 H 2346.66 1.60389 -3.89684 0
M  V30 24494 H 2345.33 1.76706 -2.71213 0
M  V30 24495 H 2344.24 -0.315903 -3.72764 0
M  V30 24496 H 2345.57 -0.39601 -4.90604 0
M  V30 24497 N 2347.22 1.53172 -0.370945 0
M  V30 24498 C 2348.5 1.93675 0.27372 0
M  V30 24499 C 2348.88 1.30493 1.65936 0
M  V30 24500 O 2348.23 0.466039 2.23697 0
M  V30 24501 C 2348.44 3.47543 0.31854 0
M  V30 24502 C 2349.79 4.2094 0.556318 0
M  V30 24503 O 2350.81 3.53952 0.399525 0
M  V30 24504 O 2349.67 5.39658 0.862038 0
M  V30 24505 H 2346.76 0.810284 0.165434 0
M  V30 24506 H 2349.31 1.64315 -0.424119 0
M  V30 24507 H 2348.08 3.85817 -0.652755 0
M  V30 24508 H 2347.7 3.83153 1.06206 0
M  V30 24509 N 2348.7 0.100255 1.57281 0
M  V30 24510 C 2349.63 -0.853819 2.1733 0
M  V30 24511 C 2350.61 -1.29058 1.10806 0
M  V30 24512 O 2351.8 -1.35655 1.38966 0
M  V30 24513 C 2348.93 -2.11104 2.75776 0
M  V30 24514 C 2347.88 -1.81273 3.87717 0
M  V30 24515 C 2347.21 -3.13867 4.32888 0
M  V30 24516 C 2348.51 -1.09565 5.10679 0
M  V30 24517 H 2350.2 -0.353493 2.97306 0
M  V30 24518 H 2347.75 -0.168587 1.4301 0
M  V30 24519 H 2349.7 -2.7829 3.16437 0
M  V30 24520 H 2348.42 -2.63429 1.93061 0
M  V30 24521 H 2347.08 -1.16483 3.47602 0
M  V30 24522 H 2346.73 -3.64089 3.47057 0
M  V30 24523 H 2346.43 -2.94687 5.08363 0
M  V30 24524 H 2347.95 -3.82202 4.76187 0
M  V30 24525 H 2349.37 -1.66869 5.48477 0
M  V30 24526 H 2347.77 -1.00546 5.91617 0
M  V30 24527 H 2348.84 -0.0792447 4.84835 0
M  V30 24528 N 2350.18 -1.56643 -0.17346 0
M  V30 24529 C 2351.11 -1.99273 -1.21706 0
M  V30 24530 C 2352.09 -0.867985 -1.46287 0
M  V30 24531 O 2353.28 -1.13391 -1.57658 0
M  V30 24532 C 2350.41 -2.35079 -2.55647 0
M  V30 24533 C 2349.36 -3.50494 -2.45639 0
M  V30 24534 C 2348.69 -3.72035 -3.84049 0
M  V30 24535 C 2349.99 -4.84011 -1.96293 0
M  V30 24536 H 2351.68 -2.86702 -0.8627 0
M  V30 24537 H 2349.23 -1.37934 -0.413547 0
M  V30 24538 H 2351.18 -2.63499 -3.28856 0
M  V30 24539 H 2349.9 -1.44557 -2.92867 0
M  V30 24540 H 2348.56 -3.22197 -1.74884 0
M  V30 24541 H 2348.21 -2.78808 -4.18659 0
M  V30 24542 H 2347.91 -4.49691 -3.78222 0
M  V30 24543 H 2349.43 -4.02854 -4.58847 0
M  V30 24544 H 2350.85 -5.11321 -2.59275 0
M  V30 24545 H 2349.24 -5.65288 -2.01419 0
M  V30 24546 H 2350.31 -4.76148 -0.917143 0
M  V30 24547 N 2351.66 0.44194 -1.51277 0
M  V30 24548 C 2353.07 1.02196 -1.56246 0
M  V30 24549 C 2353.42 1.92422 -0.383183 0
M  V30 24550 O 2352.54 2.10531 0.500576 0
M  V30 24551 C 2353.14 1.86019 -2.83165 0
M  V30 24552 C 2351.7 2.39079 -2.9072 0
M  V30 24553 C 2350.85 1.18171 -2.5086 0
M  V30 24554 H 2353.8 0.223389 -1.5712 0
M  V30 24555 H 2353.82 2.7142 -2.66667 0
M  V30 24556 H 2353.33 1.20325 -3.68976 0
M  V30 24557 H 2351.43 3.08241 -2.09328 0
M  V30 24558 H 2351.54 2.72191 -3.9427 0
M  V30 24559 H 2349.91 1.52561 -2.03954 0
M  V30 24560 H 2350.69 0.540942 -3.39011 0
M  V30 24561 N 2353.14 1.41345 0.697083 0
M  V30 24562 C 2354.08 1.43276 1.83234 0
M  V30 24563 C 2355.08 0.310976 1.66521 0
M  V30 24564 O 2356.28 0.48293 1.73401 0
M  V30 24565 H 2352.66 0.448259 0.603794 0
M  V30 24566 H 2354.63 2.38957 1.78723 0
M  V30 24567 C 2353.38 1.33034 3.21243 0
M  V30 24568 H 2352.7 2.18639 3.34719 0
M  V30 24569 H 2354.14 1.38446 4.0076 0
M  V30 24570 C 2352.6 0.0425227 3.36873 0
M  V30 24571 O 2353.13 -0.913352 3.91179 0
M  V30 24572 N 2351.34 -0.0330635 2.90581 0
M  V30 24573 H 2350.88 0.745549 2.46575 0
M  V30 24574 H 2350.84 -0.894146 3.01417 0
M  V30 24575 N 2354.61 -0.931187 1.27148 0
M  V30 24576 C 2355.56 -2.0174 1.06231 0
M  V30 24577 C 2356.55 -1.60898 -0.00856237 0
M  V30 24578 O 2357.74 -1.75755 0.209568 0
M  V30 24579 C 2354.87 -3.35923 0.707846 0
M  V30 24580 C 2353.95 -3.8322 1.81668 0
M  V30 24581 N 2354.35 -4.03063 3.05571 0
M  V30 24582 C 2352.64 -4.12224 1.70256 0
M  V30 24583 C 2353.34 -4.42396 3.77704 0
M  V30 24584 N 2352.32 -4.49669 3.05448 0
M  V30 24585 H 2356.12 -2.15108 2.00264 0
M  V30 24586 H 2353.64 -1.11777 1.17812 0
M  V30 24587 H 2355.63 -4.134 0.539115 0
M  V30 24588 H 2354.29 -3.2392 -0.224907 0
M  V30 24589 H 2355.3 -3.8947 3.4137 0
M  V30 24590 H 2351.98 -4.08954 0.840401 0
M  V30 24591 H 2353.37 -4.65857 4.84176 0
M  V30 24592 N 2356.09 -1.09114 -1.13719 0
M  V30 24593 C 2357.32 -0.847086 -1.89312 0
M  V30 24594 C 2357.74 0.595743 -1.78417 0
M  V30 24595 O 2357.1 1.41821 -1.12944 0
M  V30 24596 C 2357.15 -1.2829 -3.37008 0
M  V30 24597 O 2356.25 -0.439339 -4.10053 0
M  V30 24598 H 2355.59 -0.307054 -0.588739 0
M  V30 24599 H 2358.12 -1.45444 -1.439 0
M  V30 24600 H 2358.13 -1.2669 -3.87832 0
M  V30 24601 H 2356.81 -2.33369 -3.44256 0
M  V30 24602 H 2355.38 -0.519377 -3.69265 0
M  V30 24603 N 2357.57 1.30887 -0.877861 0
M  V30 24604 C 2358.8 2.0029 -0.506714 0
M  V30 24605 C 2359.21 1.6602 0.90742 0
M  V30 24606 O 2358.55 0.889698 1.60717 0
M  V30 24607 C 2358.61 3.54571 -0.593292 0
M  V30 24608 C 2358.28 4.12337 -1.97046 0
M  V30 24609 C 2359.27 4.2886 -2.93897 0
M  V30 24610 C 2356.96 4.47882 -2.27391 0
M  V30 24611 C 2358.95 4.80128 -4.19232 0
M  V30 24612 C 2356.64 4.98851 -3.52974 0
M  V30 24613 C 2357.64 5.14926 -4.4871 0
M  V30 24614 O 2357.33 5.64798 -5.72066 0
M  V30 24615 H 2357.06 0.647231 -0.195111 0
M  V30 24616 H 2359.61 1.67908 -1.18304 0
M  V30 24617 H 2357.84 3.86447 0.139989 0
M  V30 24618 H 2359.53 4.05222 -0.234443 0
M  V30 24619 H 2360.3 4.01709 -2.71763 0
M  V30 24620 H 2356.18 4.34642 -1.53647 0
M  V30 24621 H 2359.72 4.9259 -4.93964 0
M  V30 24622 H 2355.62 5.25437 -3.74948 0
M  V30 24623 H 2356.38 5.83153 -5.74347 0
M  V30 24624 N 2359.05 0.638091 1.44105 0
M  V30 24625 C 2360.29 0.145581 2.02277 0
M  V30 24626 C 2360.63 -1.23189 1.50127 0
M  V30 24627 O 2359.9 -1.81919 0.688165 0
M  V30 24628 C 2360.18 0.139854 3.59828 0
M  V30 24629 C 2360.04 1.55016 4.22244 0
M  V30 24630 C 2361.36 -0.531889 4.36874 0
M  V30 24631 H 2358.48 0.0543761 0.734991 0
M  V30 24632 H 2361.12 0.815893 1.7159 0
M  V30 24633 H 2359.27 -0.430939 3.86103 0
M  V30 24634 H 2360.94 2.17038 4.07053 0
M  V30 24635 H 2359.18 2.10197 3.79473 0
M  V30 24636 H 2359.85 1.49813 5.31282 0
M  V30 24637 H 2362.33 -0.046405 4.16074 0
M  V30 24638 H 2361.21 -0.50511 5.46571 0
M  V30 24639 H 2361.47 -1.60345 4.11997 0
M  V30 24640 N 2360.53 -1.52973 0.379063 0
M  V30 24641 C 2361.77 -2.01446 -0.206386 0
M  V30 24642 C 2362.1 -1.2659 -1.47666 0
M  V30 24643 O 2361.36 -0.351709 -1.92514 0
M  V30 24644 C 2361.65 -3.53435 -0.530898 0
M  V30 24645 C 2361.32 -4.46239 0.646625 0
M  V30 24646 C 2359.98 -4.71328 0.969687 0
M  V30 24647 C 2362.33 -5.0106 1.43487 0
M  V30 24648 C 2359.66 -5.48488 2.08273 0
M  V30 24649 C 2362.01 -5.79436 2.53844 0
M  V30 24650 C 2360.68 -6.02807 2.8667 0
M  V30 24651 H 2359.95 -0.737141 -0.075522 0
M  V30 24652 H 2362.6 -1.84465 0.514303 0
M  V30 24653 H 2360.9 -3.68435 -1.33278 0
M  V30 24654 H 2362.6 -3.88425 -0.996349 0
M  V30 24655 H 2359.19 -4.26869 0.384809 0
M  V30 24656 H 2363.37 -4.81611 1.19853 0
M  V30 24657 H 2358.63 -5.64812 2.34088 0
M  V30 24658 H 2362.8 -6.20919 3.1533 0
M  V30 24659 H 2360.43 -6.6238 3.73037 0
M  V30 24660 N 2362 -0.108595 -1.57225 0
M  V30 24661 C 2363.42 0.24803 -1.57661 0
M  V30 24662 C 2363.62 1.67462 -1.12066 0
M  V30 24663 O 2362.68 2.39382 -0.803278 0
M  V30 24664 C 2363.99 0.0241758 -3.0069 0
M  V30 24665 C 2365.54 0.0908822 -3.12868 0
M  V30 24666 C 2366.01 -0.105148 -4.57879 0
M  V30 24667 N 2367.5 -0.050766 -4.63172 0
M  V30 24668 C 2368.24 -0.177497 -5.73125 0
M  V30 24669 N 2367.73 -0.359817 -6.91865 0
M  V30 24670 N 2369.53 -0.117808 -5.61977 0
M  V30 24671 H 2361.68 -1.04052 -1.85167 0
M  V30 24672 H 2363.94 -0.408895 -0.855283 0
M  V30 24673 H 2363.65 -0.961663 -3.38297 0
M  V30 24674 H 2363.52 0.760615 -3.69452 0
M  V30 24675 H 2365.91 1.06724 -2.75126 0
M  V30 24676 H 2365.99 -0.677268 -2.46671 0
M  V30 24677 H 2365.63 -1.07843 -4.96319 0
M  V30 24678 H 2365.56 0.682862 -5.22154 0
M  V30 24679 H 2368.05 0.0870602 -3.778 0
M  V30 24680 H 2368.37 -0.447665 -7.71502 0
M  V30 24681 H 2366.71 -0.395658 -6.93873 0
M  V30 24682 H 2369.9 0.0235919 -4.68094 0
M  V30 24683 H 2370.08 -0.220019 -6.47626 0
M  V30 24684 N 2363.48 1.56732 0.16515 0
M  V30 24685 C 2364.73 1.82612 0.88208 0
M  V30 24686 C 2365.06 0.68741 1.81627 0
M  V30 24687 O 2364.34 -0.310234 1.9201 0
M  V30 24688 C 2364.62 3.18909 1.67239 0
M  V30 24689 C 2364.47 4.43317 0.76091 0
M  V30 24690 C 2365.79 3.52217 2.63878 0
M  V30 24691 H 2362.91 0.664275 0.319231 0
M  V30 24692 H 2365.55 1.89423 0.148019 0
M  V30 24693 H 2363.7 3.13234 2.29818 0
M  V30 24694 H 2365.37 4.61064 0.147515 0
M  V30 24695 H 2363.62 4.33745 0.069334 0
M  V30 24696 H 2364.29 5.35249 1.34953 0
M  V30 24697 H 2366.76 3.58385 2.11423 0
M  V30 24698 H 2365.64 4.48649 3.16237 0
M  V30 24699 H 2365.9 2.77237 3.44372 0
M  V30 24700 N 2364.96 -0.433911 1.51509 0
M  V30 24701 C 2366.38 -0.770658 1.39761 0
M  V30 24702 C 2366.58 -1.95635 0.482628 0
M  V30 24703 O 2365.63 -2.52426 -0.0609248 0
M  V30 24704 C 2366.95 -1.04782 2.81853 0
M  V30 24705 C 2368.49 -1.15204 2.91027 0
M  V30 24706 C 2368.97 -1.46212 4.34035 0
M  V30 24707 N 2370.46 -1.53129 4.37157 0
M  V30 24708 C 2371.19 -1.78699 5.44843 0
M  V30 24709 N 2370.69 -2.02039 6.62685 0
M  V30 24710 N 2372.48 -1.8051 5.32328 0
M  V30 24711 H 2364.63 0.346929 2.09548 0
M  V30 24712 H 2366.9 0.092824 0.943445 0
M  V30 24713 H 2366.6 -0.249242 3.50816 0
M  V30 24714 H 2366.48 -1.97456 3.21389 0
M  V30 24715 H 2368.86 -1.94124 2.22261 0
M  V30 24716 H 2368.95 -0.204236 2.54983 0
M  V30 24717 H 2368.59 -0.678185 5.03352 0
M  V30 24718 H 2368.52 -2.42204 4.67595 0
M  V30 24719 H 2371.01 -1.36981 3.522 0
M  V30 24720 H 2371.32 -2.2093 7.40547 0
M  V30 24721 H 2369.67 -1.99354 6.65795 0
M  V30 24722 H 2372.86 -1.61797 4.39249 0
M  V30 24723 H 2373.03 -2.001 6.16331 0
M  V30 24724 N 2366.44 -1.41713 -0.689577 0
M  V30 24725 C 2367.4 -1.43749 -1.78518 0
M  V30 24726 C 2368.4 -0.327218 -1.57435 0
M  V30 24727 O 2369.59 -0.587377 -1.63999 0
M  V30 24728 C 2366.72 -1.25473 -3.16969 0
M  V30 24729 H 2367.92 -2.41286 -1.78104 0
M  V30 24730 H 2365.47 -1.27943 -0.897787 0
M  V30 24731 H 2366.2 -0.288005 -3.23019 0
M  V30 24732 H 2365.99 -2.05923 -3.33674 0
M  V30 24733 H 2367.48 -1.29747 -3.96933 0
M  V30 24734 N 2367.92 0.924431 -1.2764 0
M  V30 24735 C 2368.85 2.02983 -1.06445 0
M  V30 24736 C 2369.86 1.62788 -0.0195057 0
M  V30 24737 O 2371.05 1.76575 -0.261419 0
M  V30 24738 C 2368.15 3.33666 -0.593328 0
M  V30 24739 C 2367.32 4.02534 -1.7113 0
M  V30 24740 C 2366.38 5.11493 -1.23536 0
M  V30 24741 O 2365.41 5.35278 -1.93563 0
M  V30 24742 N 2366.61 5.80426 -0.0927698 0
M  V30 24743 H 2369.38 2.21726 -2.01637 0
M  V30 24744 H 2366.94 1.09503 -1.1925 0
M  V30 24745 H 2368.93 4.03872 -0.258757 0
M  V30 24746 H 2367.5 3.11471 0.265447 0
M  V30 24747 H 2366.72 3.26018 -2.21599 0
M  V30 24748 H 2368.01 4.45293 -2.46153 0
M  V30 24749 H 2367.4 5.6356 0.491642 0
M  V30 24750 H 2365.96 6.51544 0.182599 0
M  V30 24751 N 2369.39 1.09715 1.13139 0
M  V30 24752 C 2370.62 0.857114 1.88861 0
M  V30 24753 C 2371.04 -0.586273 1.7873 0
M  V30 24754 O 2370.4 -1.4122 1.13695 0
M  V30 24755 C 2370.45 1.30075 3.36323 0
M  V30 24756 O 2369.55 0.461079 4.09814 0
M  V30 24757 H 2368.9 0.310172 0.587103 0
M  V30 24758 H 2371.43 1.46205 1.43127 0
M  V30 24759 H 2371.44 1.28745 3.87155 0
M  V30 24760 H 2370.11 2.35191 3.43013 0
M  V30 24761 H 2368.69 0.538953 3.68985 0
M  V30 24762 N 2370.87 -1.30419 0.88479 0
M  V30 24763 C 2371.8 -2.27112 0.308695 0
M  V30 24764 C 2372.82 -1.53701 -0.536628 0
M  V30 24765 O 2374.01 -1.7491 -0.356209 0
M  V30 24766 C 2371.11 -3.33905 -0.579723 0
M  V30 24767 C 2370.28 -4.3676 0.236493 0
M  V30 24768 C 2369.34 -5.22967 -0.58239 0
M  V30 24769 O 2368.36 -5.692 -0.00515497 0
M  V30 24770 N 2369.57 -5.48818 -1.89153 0
M  V30 24771 H 2372.33 -2.77184 1.13969 0
M  V30 24772 H 2369.89 -1.43597 0.747756 0
M  V30 24773 H 2371.88 -3.88499 -1.13359 0
M  V30 24774 H 2370.45 -2.83763 -1.31139 0
M  V30 24775 H 2369.67 -3.82033 0.971807 0
M  V30 24776 H 2370.96 -5.02535 0.796013 0
M  V30 24777 H 2370.36 -5.13039 -2.38343 0
M  V30 24778 H 2368.92 -6.06288 -2.39286 0
M  V30 24779 N 2372.35 -0.645724 -1.43764 0
M  V30 24780 C 2373.26 0.0512544 -2.34544 0
M  V30 24781 C 2374.28 0.820193 -1.53456 0
M  V30 24782 O 2375.45 0.769143 -1.86135 0
M  V30 24783 C 2372.52 1.01081 -3.31638 0
M  V30 24784 C 2371.58 0.239637 -4.28631 0
M  V30 24785 C 2370.81 1.15349 -5.21086 0
M  V30 24786 O 2371.03 2.39259 -5.17794 0
M  V30 24787 O 2369.97 0.629932 -5.98595 0
M  V30 24788 H 2373.79 -0.69577 -2.95623 0
M  V30 24789 H 2371.38 -0.405908 -1.4378 0
M  V30 24790 H 2373.26 1.56247 -3.91363 0
M  V30 24791 H 2371.94 1.73819 -2.73072 0
M  V30 24792 H 2370.84 -0.355422 -3.72408 0
M  V30 24793 H 2372.18 -0.448023 -4.90157 0
M  V30 24794 N 2373.83 1.5277 -0.38717 0
M  V30 24795 C 2375.08 2.01154 0.195313 0
M  V30 24796 C 2375.4 1.27551 1.47498 0
M  V30 24797 O 2374.67 0.394958 1.91877 0
M  V30 24798 H 2373.25 0.743209 0.0751649 0
M  V30 24799 H 2375.91 1.8788 -0.51837 0
M  V30 24800 H 2375.01 3.09434 0.407042 0
M  V30 24801 N 2375.31 0.116931 1.57166 0
M  V30 24802 C 2376.55 -0.536132 1.96207 0
M  V30 24803 C 2376.91 -1.64421 0.999179 0
M  V30 24804 O 2376.2 -1.91578 0.0288532 0
M  V30 24805 C 2376.39 -1.11658 3.3951 0
M  V30 24806 C 2376.22 -0.0662684 4.49651 0
M  V30 24807 C 2374.99 0.364829 5.03981 0
M  V30 24808 C 2377.19 0.713918 5.09321 0
M  V30 24809 N 2375.17 1.40113 5.97697 0
M  V30 24810 C 2376.54 1.60147 5.9896 0
M  V30 24811 C 2378.6 0.765034 4.91987 0
M  V30 24812 C 2377.3 2.53568 6.73124 0
M  V30 24813 C 2379.33 1.68695 5.6683 0
M  V30 24814 C 2378.69 2.56208 6.56153 0
M  V30 24815 H 2374.79 -0.165872 0.764206 0
M  V30 24816 H 2377.37 0.204569 1.93622 0
M  V30 24817 H 2375.54 -1.82701 3.42746 0
M  V30 24818 H 2377.28 -1.73379 3.6568 0
M  V30 24819 H 2374.03 -0.0271687 4.73592 0
M  V30 24820 H 2374.46 1.91814 6.49258 0
M  V30 24821 H 2379.1 0.102575 4.22676 0
M  V30 24822 H 2376.82 3.20829 7.41684 0
M  V30 24823 H 2380.4 1.73191 5.55424 0
M  V30 24824 H 2379.28 3.26385 7.13052 0
M  V30 24825 N 2376.78 -1.56818 -0.156836 0
M  V30 24826 C 2378.03 -1.82445 -0.869372 0
M  V30 24827 C 2378.35 -0.696262 -1.82146 0
M  V30 24828 O 2377.62 0.282836 -1.93847 0
M  V30 24829 H 2376.2 -0.673062 -0.324031 0
M  V30 24830 H 2378.87 -1.94297 -0.15319 0
M  V30 24831 H 2377.96 -2.77021 -1.43756 0
M  V30 24832 N 2378.26 0.425871 -1.51737 0
M  V30 24833 C 2379.68 0.763235 -1.40167 0
M  V30 24834 C 2379.88 1.95376 -0.492996 0
M  V30 24835 O 2378.93 2.52455 0.0475371 0
M  V30 24836 C 2380.25 1.03286 -2.82405 0
M  V30 24837 C 2381.8 1.13659 -2.91634 0
M  V30 24838 C 2382.27 1.43908 -4.34804 0
M  V30 24839 N 2383.76 1.50808 -4.37962 0
M  V30 24840 C 2384.5 1.75807 -5.45783 0
M  V30 24841 N 2383.99 1.98522 -6.63748 0
M  V30 24842 N 2385.79 1.77684 -5.33277 0
M  V30 24843 H 2377.94 -0.358037 -2.09361 0
M  V30 24844 H 2380.2 -0.097826 -0.942939 0
M  V30 24845 H 2379.91 0.230634 -3.50943 0
M  V30 24846 H 2379.78 1.95749 -3.22432 0
M  V30 24847 H 2382.17 1.92943 -2.23287 0
M  V30 24848 H 2382.25 0.190711 -2.55088 0
M  V30 24849 H 2381.89 0.651482 -5.03704 0
M  V30 24850 H 2381.82 2.39721 -4.68872 0
M  V30 24851 H 2384.31 1.35111 -3.52921 0
M  V30 24852 H 2384.63 2.17 -7.41708 0
M  V30 24853 H 2382.97 1.95821 -6.66843 0
M  V30 24854 H 2386.16 1.59465 -4.401 0
M  V30 24855 H 2386.33 1.96829 -6.17384 0
M  V30 24856 N 2379.74 1.42077 0.682052 0
M  V30 24857 C 2380.65 1.47374 1.82532 0
M  V30 24858 C 2381.67 0.363109 1.70169 0
M  V30 24859 O 2382.84 0.612908 1.91847 0
M  V30 24860 C 2379.91 1.36679 3.18622 0
M  V30 24861 C 2378.97 2.58173 3.42995 0
M  V30 24862 C 2378.2 2.47979 4.72591 0
M  V30 24863 O 2378.42 1.5117 5.50004 0
M  V30 24864 O 2377.36 3.37982 4.98048 0
M  V30 24865 H 2381.18 2.43856 1.81019 0
M  V30 24866 H 2378.77 1.23762 0.836865 0
M  V30 24867 H 2380.65 1.3305 3.99845 0
M  V30 24868 H 2379.33 0.433195 3.20788 0
M  V30 24869 H 2378.23 2.67378 2.61648 0
M  V30 24870 H 2379.57 3.50407 3.45653 0
M  V30 24871 N 2381.22 -0.917649 1.28129 0
M  V30 24872 C 2382.64 -1.19536 1.05751 0
M  V30 24873 C 2382.84 -2.00479 -0.202598 0
M  V30 24874 O 2381.89 -2.35711 -0.905341 0
M  V30 24875 C 2383.2 -1.93374 2.30276 0
M  V30 24876 C 2384.75 -2.06272 2.35416 0
M  V30 24877 C 2385.23 -2.83517 3.59697 0
M  V30 24878 N 2386.72 -2.91081 3.60314 0
M  V30 24879 C 2387.45 -3.5134 4.53153 0
M  V30 24880 N 2386.95 -4.12909 5.56307 0
M  V30 24881 N 2388.74 -3.48841 4.40757 0
M  V30 24882 H 2380.89 -0.377148 2.09025 0
M  V30 24883 H 2383.16 -0.229494 0.919802 0
M  V30 24884 H 2382.86 -1.41323 3.22057 0
M  V30 24885 H 2382.74 -2.93943 2.36384 0
M  V30 24886 H 2385.12 -2.57506 1.44134 0
M  V30 24887 H 2385.2 -1.04891 2.33305 0
M  V30 24888 H 2384.85 -2.32965 4.5132 0
M  V30 24889 H 2384.78 -3.85205 3.59061 0
M  V30 24890 H 2387.27 -2.47333 2.85718 0
M  V30 24891 H 2387.58 -4.56858 6.23298 0
M  V30 24892 H 2385.93 -4.11425 5.60138 0
M  V30 24893 H 2389.12 -2.99948 3.59373 0
M  V30 24894 H 2389.29 -3.95511 5.13298 0
M  V30 24895 N 2382.7 -1.10314 -1.12555 0
M  V30 24896 C 2383.61 -0.763181 -2.21839 0
M  V30 24897 C 2384.62 0.23877 -1.72354 0
M  V30 24898 O 2385.8 0.0778393 -2.0125 0
M  V30 24899 C 2382.86 -0.198693 -3.4613 0
M  V30 24900 C 2381.93 -1.25776 -4.10462 0
M  V30 24901 C 2381.16 -0.720113 -5.28819 0
M  V30 24902 O 2381.38 0.453893 -5.68591 0
M  V30 24903 O 2380.32 -1.47945 -5.83435 0
M  V30 24904 H 2384.14 -1.67536 -2.53309 0
M  V30 24905 H 2381.73 -0.878179 -1.20865 0
M  V30 24906 H 2383.61 0.112326 -4.2125 0
M  V30 24907 H 2382.28 0.686363 -3.1634 0
M  V30 24908 H 2381.19 -1.62162 -3.37127 0
M  V30 24909 H 2382.52 -2.11579 -4.44404 0
M  V30 24910 N 2384.18 1.29948 -0.891694 0
M  V30 24911 C 2385.42 1.95493 -0.512521 0
M  V30 24912 C 2385.74 1.70697 0.942746 0
M  V30 24913 O 2385.01 1.03427 1.66372 0
M  V30 24914 H 2383.59 0.723332 -0.186546 0
M  V30 24915 H 2386.26 1.58353 -1.13624 0
M  V30 24916 H 2385.35 3.04413 -0.688395 0
M  V30 24917 N 2385.65 0.653339 1.4342 0
M  V30 24918 C 2386.9 0.167027 2.02111 0
M  V30 24919 C 2387.23 -1.21589 1.51425 0
M  V30 24920 O 2386.51 -1.81179 0.707421 0
M  V30 24921 C 2386.79 0.178011 3.5966 0
M  V30 24922 C 2386.64 1.59485 4.20576 0
M  V30 24923 C 2387.96 -0.485523 4.37414 0
M  V30 24924 H 2385.08 0.0621686 0.734373 0
M  V30 24925 H 2387.72 0.834046 1.70715 0
M  V30 24926 H 2385.87 -0.389964 3.86538 0
M  V30 24927 H 2387.55 2.21343 4.04728 0
M  V30 24928 H 2385.79 2.1421 3.77222 0
M  V30 24929 H 2386.46 1.55439 5.29663 0
M  V30 24930 H 2388.94 -0.00227214 4.161 0
M  V30 24931 H 2387.81 -0.44711 5.47076 0
M  V30 24932 H 2388.07 -1.55966 4.13675 0
M  V30 24933 N 2387.13 -1.52563 0.395266 0
M  V30 24934 C 2388.38 -2.00838 -0.186286 0
M  V30 24935 C 2388.69 -1.28579 -1.474 0
M  V30 24936 O 2389.9 -1.67597 -2.13597 0
M  V30 24937 C 2388.36 -3.57861 -0.382533 0
M  V30 24938 C 2387.96 -4.39024 0.892279 0
M  V30 24939 C 2389.71 -4.14408 -0.920127 0
M  V30 24940 C 2387.61 -5.87661 0.663983 0
M  V30 24941 H 2386.54 -0.75042 -0.0733909 0
M  V30 24942 H 2389.2 -1.7602 0.518583 0
M  V30 24943 H 2387.58 -3.78952 -1.1494 0
M  V30 24944 H 2388.75 -4.29698 1.66422 0
M  V30 24945 H 2387.07 -3.93728 1.35526 0
M  V30 24946 H 2389.66 -5.23121 -1.10674 0
M  V30 24947 H 2390.01 -3.70879 -1.89089 0
M  V30 24948 H 2390.54 -3.97231 -0.212681 0
M  V30 24949 H 2387.28 -6.35524 1.60592 0
M  V30 24950 H 2386.8 -5.9976 -0.0689139 0
M  V30 24951 H 2388.48 -6.463 0.300813 0
M  V30 24952 N 2388.61 -0.125265 -1.57101 0
M  V30 24953 C 2389.84 0.538761 -1.99762 0
M  V30 24954 C 2390.25 1.59825 -1.00506 0
M  V30 24955 O 2389.61 1.825 0.00116266 0
M  V30 24956 C 2389.66 1.15921 -3.4241 0
M  V30 24957 O 2389.38 0.142066 -4.3787 0
M  V30 24958 C 2390.88 1.90595 -4.00235 0
M  V30 24959 H 2388.1 0.142129 -0.655775 0
M  V30 24960 H 2390.65 -0.213449 -2.03383 0
M  V30 24961 H 2388.8 1.86217 -3.39709 0
M  V30 24962 H 2389.22 0.593683 -5.21129 0
M  V30 24963 H 2390.69 2.29326 -5.02109 0
M  V30 24964 H 2391.17 2.78357 -3.39726 0
M  V30 24965 H 2391.77 1.25048 -4.06501 0
M  V30 24966 N 2390.09 1.56899 0.148518 0
M  V30 24967 C 2391.34 1.82456 0.859808 0
M  V30 24968 C 2391.65 0.706261 1.82404 0
M  V30 24969 O 2392.86 0.847394 2.57937 0
M  V30 24970 C 2391.31 3.23383 1.57961 0
M  V30 24971 C 2390.92 4.43144 0.657862 0
M  V30 24972 C 2392.66 3.58215 2.27778 0
M  V30 24973 C 2390.57 5.75093 1.3792 0
M  V30 24974 H 2389.5 0.680446 0.324822 0
M  V30 24975 H 2392.15 1.83154 0.112556 0
M  V30 24976 H 2390.53 3.17067 2.37244 0
M  V30 24977 H 2391.71 4.60692 -0.0996307 0
M  V30 24978 H 2390.02 4.16344 0.0681911 0
M  V30 24979 H 2392.62 4.54053 2.82382 0
M  V30 24980 H 2392.96 2.84198 3.04199 0
M  V30 24981 H 2393.5 3.66184 1.55415 0
M  V30 24982 H 2390.23 6.52201 0.656867 0
M  V30 24983 H 2389.75 5.61482 2.10944 0
M  V30 24984 H 2391.43 6.17839 1.92053 0
M  V30 24985 N 2391.57 -0.417818 1.51961 0
M  V30 24986 C 2392.48 -1.53333 1.77556 0
M  V30 24987 C 2393.49 -1.60969 0.660684 0
M  V30 24988 O 2394.67 -1.77846 0.945131 0
M  V30 24989 C 2391.73 -2.89148 1.91296 0
M  V30 24990 C 2390.79 -2.9147 3.15189 0
M  V30 24991 C 2390.03 -4.20808 3.28263 0
M  V30 24992 O 2390.25 -5.1424 2.46807 0
M  V30 24993 O 2389.18 -4.2981 4.21364 0
M  V30 24994 H 2393.01 -1.34642 2.72223 0
M  V30 24995 H 2390.59 -0.602804 1.36699 0
M  V30 24996 H 2392.48 -3.69717 2.02206 0
M  V30 24997 H 2391.15 -3.07925 0.998183 0
M  V30 24998 H 2390.06 -2.09786 3.09743 0
M  V30 24999 H 2391.39 -2.77641 4.06419 0
M  V30 25000 N 2393.04 -1.42436 -0.674508 0
M  V30 25001 C 2394.27 -1.46527 -1.46781 0
M  V30 25002 C 2394.69 -0.0780991 -1.87938 0
M  V30 25003 O 2394.05 0.923512 -1.56016 0
M  V30 25004 C 2394.1 -2.39809 -2.69303 0
M  V30 25005 O 2393.2 -1.86966 -3.67583 0
M  V30 25006 H 2392.54 -0.496446 -0.44095 0
M  V30 25007 H 2395.07 -1.87128 -0.827293 0
M  V30 25008 H 2395.08 -2.56399 -3.1737 0
M  V30 25009 H 2393.76 -3.4059 -2.38686 0
M  V30 25010 H 2392.34 -1.79932 -3.26617 0
M  V30 25011 N 2394.52 0.910841 -1.28614 0
M  V30 25012 C 2395.45 2.01842 -1.08592 0
M  V30 25013 C 2396.47 1.62758 -0.0367705 0
M  V30 25014 O 2397.66 1.76288 -0.280132 0
M  V30 25015 C 2394.76 3.33018 -0.628685 0
M  V30 25016 C 2393.93 4.00696 -1.75389 0
M  V30 25017 C 2392.99 5.10154 -1.28954 0
M  V30 25018 O 2392.01 5.33195 -1.99229 0
M  V30 25019 N 2393.22 5.80295 -0.154326 0
M  V30 25020 H 2395.98 2.19575 -2.03977 0
M  V30 25021 H 2393.54 1.08232 -1.20405 0
M  V30 25022 H 2395.53 4.03575 -0.301579 0
M  V30 25023 H 2394.1 3.11735 0.232397 0
M  V30 25024 H 2393.32 3.23649 -2.25044 0
M  V30 25025 H 2394.61 4.42657 -2.50862 0
M  V30 25026 H 2394.01 5.64049 0.431841 0
M  V30 25027 H 2392.57 6.51701 0.113484 0
M  V30 25028 N 2396 1.10909 1.11969 0
M  V30 25029 C 2397.25 0.855806 1.83858 0
M  V30 25030 C 2397.58 -0.61707 1.84136 0
M  V30 25031 O 2396.85 -1.45526 1.29044 0
M  V30 25032 C 2397.14 1.41106 3.31302 0
M  V30 25033 C 2396.99 2.95116 3.39451 0
M  V30 25034 C 2398.31 1.05743 4.27208 0
M  V30 25035 H 2395.43 0.312346 0.66754 0
M  V30 25036 H 2398.07 1.37306 1.31328 0
M  V30 25037 H 2396.22 0.971116 3.76167 0
M  V30 25038 H 2397.89 3.47673 3.03185 0
M  V30 25039 H 2396.14 3.31466 2.79844 0
M  V30 25040 H 2396.81 3.29051 4.43203 0
M  V30 25041 H 2399.28 1.43713 3.90494 0
M  V30 25042 H 2398.16 1.47279 5.28772 0
M  V30 25043 H 2398.42 -0.0325181 4.42088 0
M  V30 25044 N 2397.48 -1.29474 0.898573 0
M  V30 25045 C 2398.43 -2.25347 0.346807 0
M  V30 25046 C 2399.41 -1.51834 -0.532482 0
M  V30 25047 O 2400.6 -1.72989 -0.374683 0
M  V30 25048 C 2397.73 -3.40651 -0.425621 0
M  V30 25049 C 2396.82 -4.21504 0.468524 0
M  V30 25050 N 2397.21 -4.80646 1.57523 0
M  V30 25051 C 2395.51 -4.45205 0.266108 0
M  V30 25052 C 2396.21 -5.4134 2.12899 0
M  V30 25053 N 2395.19 -5.24667 1.42217 0
M  V30 25054 H 2398.99 -2.68632 1.19223 0
M  V30 25055 H 2396.5 -1.4407 0.749498 0
M  V30 25056 H 2398.5 -4.08398 -0.837644 0
M  V30 25057 H 2397.16 -2.98904 -1.26833 0
M  V30 25058 H 2398.17 -4.79462 1.95798 0
M  V30 25059 H 2394.85 -4.14015 -0.538321 0
M  V30 25060 H 2396.24 -5.98221 3.05911 0
M  V30 25061 N 2398.96 -0.660936 -1.43071 0
M  V30 25062 C 2400.37 -0.25638 -1.84931 0
M  V30 25063 C 2400.72 1.19866 -1.55328 0
M  V30 25064 O 2399.84 1.91589 -1.0061 0
M  V30 25065 C 2400.44 -0.458534 -3.35683 0
M  V30 25066 C 2399 -0.108227 -3.76244 0
M  V30 25067 C 2398.14 -0.757688 -2.66748 0
M  V30 25068 H 2401.1 -0.864074 -1.33114 0
M  V30 25069 H 2401.12 0.293617 -3.79365 0
M  V30 25070 H 2400.63 -1.51761 -3.57198 0
M  V30 25071 H 2398.73 0.94795 -3.6034 0
M  V30 25072 H 2398.84 -0.539076 -4.76058 0
M  V30 25073 H 2397.21 -0.190229 -2.53989 0
M  V30 25074 H 2397.99 -1.81995 -2.91089 0
M  V30 25075 N 2400.43 1.52351 -0.403352 0
M  V30 25076 C 2401.37 2.24531 0.46026 0
M  V30 25077 C 2402.38 1.27283 1.01503 0
M  V30 25078 O 2403.57 1.53267 0.914955 0
M  V30 25079 C 2400.67 2.95908 1.65203 0
M  V30 25080 C 2399.84 4.19978 1.22217 0
M  V30 25081 C 2398.9 4.7423 2.28019 0
M  V30 25082 O 2397.93 5.36959 1.88847 0
M  V30 25083 N 2399.13 4.55302 3.60112 0
M  V30 25084 H 2401.89 2.99282 -0.158209 0
M  V30 25085 H 2399.45 1.60252 -0.23043 0
M  V30 25086 H 2401.45 3.29097 2.35536 0
M  V30 25087 H 2400.02 2.24378 2.17654 0
M  V30 25088 H 2399.24 3.92668 0.347181 0
M  V30 25089 H 2400.52 5.00563 0.911836 0
M  V30 25090 H 2399.92 4.0526 3.94691 0
M  V30 25091 H 2398.48 4.92944 4.26438 0
M  V30 25092 N 2401.91 0.133594 1.57033 0
M  V30 25093 C 2403.14 -0.531441 2.00476 0
M  V30 25094 C 2403.56 -1.58497 1.01293 0
M  V30 25095 O 2402.92 -1.81295 -0.0132961 0
M  V30 25096 C 2402.97 -1.12107 3.42731 0
M  V30 25097 O 2402.07 -2.2363 3.46502 0
M  V30 25098 H 2401.41 -0.13135 0.650879 0
M  V30 25099 H 2403.94 0.226375 2.03344 0
M  V30 25100 H 2403.95 -1.45304 3.81249 0
M  V30 25101 H 2402.63 -0.349485 4.14429 0
M  V30 25102 H 2401.21 -1.91763 3.19815 0
M  V30 25103 N 2403.39 -1.56975 -0.140195 0
M  V30 25104 C 2404.8 -1.73098 -0.699566 0
M  V30 25105 C 2405.15 -0.749054 -1.81338 0
M  V30 25106 O 2404.28 0.0828122 -2.16241 0
M  V30 25107 C 2404.87 -3.13862 -1.27577 0
M  V30 25108 C 2403.43 -3.31564 -1.78164 0
M  V30 25109 C 2402.58 -2.69014 -0.672807 0
M  V30 25110 H 2405.53 -1.58469 0.0855394 0
M  V30 25111 H 2405.55 -3.14239 -2.14556 0
M  V30 25112 H 2405.06 -3.85306 -0.464887 0
M  V30 25113 H 2403.16 -2.65129 -2.61796 0
M  V30 25114 H 2403.28 -4.39569 -1.90567 0
M  V30 25115 H 2401.64 -2.29667 -1.10114 0
M  V30 25116 H 2402.42 -3.43066 0.126739 0
M  V30 25117 N 2404.87 0.409753 -1.5218 0
M  V30 25118 C 2405.8 1.50606 -1.78438 0
M  V30 25119 C 2406.78 1.5779 -0.635323 0
M  V30 25120 O 2407.96 1.73074 -0.880853 0
M  V30 25121 C 2405.09 2.88435 -1.93449 0
M  V30 25122 C 2404.05 2.96102 -3.09043 0
M  V30 25123 C 2403.37 4.36179 -3.09276 0
M  V30 25124 C 2404.67 2.67645 -4.48513 0
M  V30 25125 H 2406.37 1.28884 -2.70239 0
M  V30 25126 H 2403.91 0.618582 -1.30037 0
M  V30 25127 H 2405.87 3.65116 -2.10401 0
M  V30 25128 H 2404.59 3.1145 -0.983184 0
M  V30 25129 H 2403.25 2.21866 -2.9184 0
M  V30 25130 H 2402.9 4.56202 -2.11869 0
M  V30 25131 H 2402.6 4.42234 -3.86915 0
M  V30 25132 H 2404.12 5.14795 -3.28357 0
M  V30 25133 H 2405.54 3.34048 -4.65924 0
M  V30 25134 H 2403.93 2.85076 -5.28064 0
M  V30 25135 H 2405 1.63087 -4.56652 0
M  V30 25136 N 2406.35 1.42792 0.666944 0
M  V30 25137 C 2407.59 1.45172 1.4389 0
M  V30 25138 C 2407.95 0.0687888 1.91877 0
M  V30 25139 O 2409.15 -0.0326983 2.6878 0
M  V30 25140 C 2407.42 2.45399 2.59834 0
M  V30 25141 S 2408.98 2.66545 3.48567 0
M  V30 25142 H 2405.8 0.513906 0.491347 0
M  V30 25143 H 2408.4 1.79456 0.775624 0
M  V30 25144 H 2407.11 3.44636 2.22832 0
M  V30 25145 H 2406.64 2.12568 3.31026 0
M  V30 25146 H 2408.65 1.95437 4.56091 0
M  V30 25147 N 2407.82 -0.904008 1.29095 0
M  V30 25148 C 2409.24 -1.4693 1.15189 0
M  V30 25149 C 2409.59 -1.94542 -0.254553 0
M  V30 25150 O 2408.71 -1.83334 -1.14969 0
M  V30 25151 C 2409.31 -2.67048 2.08497 0
M  V30 25152 C 2407.87 -3.19726 1.98627 0
M  V30 25153 C 2407.01 -1.92421 1.99673 0
M  V30 25154 H 2409.96 -0.715764 1.41642 0
M  V30 25155 H 2409.98 -3.42638 1.65467 0
M  V30 25156 H 2409.5 -2.32364 3.10851 0
M  V30 25157 H 2407.6 -3.59112 0.993452 0
M  V30 25158 H 2407.71 -3.84315 2.86075 0
M  V30 25159 H 2406.07 -2.09941 1.44212 0
M  V30 25160 H 2406.86 -1.6002 3.03724 0
M  V30 25161 N 2409.3 -1.11501 -1.11379 0
M  V30 25162 C 2410.23 -0.796163 -2.19507 0
M  V30 25163 C 2411.21 0.235766 -1.68458 0
M  V30 25164 O 2412.4 0.0991003 -1.93947 0
M  V30 25165 C 2409.53 -0.239266 -3.46475 0
M  V30 25166 C 2408.48 -1.20314 -4.10741 0
M  V30 25167 C 2407.81 -0.506924 -5.32292 0
M  V30 25168 C 2409.11 -2.55407 -4.55593 0
M  V30 25169 H 2410.8 -1.70028 -2.46436 0
M  V30 25170 H 2408.35 -0.818956 -1.18445 0
M  V30 25171 H 2410.3 -0.00399414 -4.214 0
M  V30 25172 H 2409.03 0.70015 -3.19007 0
M  V30 25173 H 2407.68 -1.42405 -3.37811 0
M  V30 25174 H 2407.33 0.43732 -5.01095 0
M  V30 25175 H 2407.03 -1.1498 -5.76241 0
M  V30 25176 H 2408.56 -0.280459 -6.09956 0
M  V30 25177 H 2409.97 -2.374 -5.21837 0
M  V30 25178 H 2408.37 -3.15682 -5.10358 0
M  V30 25179 H 2409.44 -3.14581 -3.69007 0
M  V30 25180 N 2410.78 1.28995 -0.905426 0
M  V30 25181 C 2412.19 1.77397 -0.581984 0
M  V30 25182 C 2412.54 1.7421 0.902521 0
M  V30 25183 O 2411.67 1.33157 1.70582 0
M  V30 25184 C 2412.26 3.22129 -1.04967 0
M  V30 25185 C 2410.82 3.68287 -0.777294 0
M  V30 25186 C 2409.97 2.48965 -1.22113 0
M  V30 25187 H 2412.92 1.15576 -1.08756 0
M  V30 25188 H 2412.94 3.78522 -0.387453 0
M  V30 25189 H 2412.45 3.24417 -2.13014 0
M  V30 25190 H 2410.55 3.71467 0.290318 0
M  V30 25191 H 2410.67 4.58819 -1.3792 0
M  V30 25192 H 2409.03 2.46528 -0.640014 0
M  V30 25193 H 2409.81 2.53978 -2.30977 0
M  V30 25194 N 2412.26 0.668514 1.42719 0
M  V30 25195 C 2413.51 0.187804 2.01226 0
M  V30 25196 C 2413.83 -1.20777 1.53094 0
M  V30 25197 O 2413.1 -1.80976 0.749962 0
M  V30 25198 H 2411.68 0.0664403 0.744039 0
M  V30 25199 H 2414.34 0.863614 1.74722 0
M  V30 25200 H 2413.44 0.184221 3.11556 0
M  V30 25201 N 2413.74 -1.52135 0.411426 0
M  V30 25202 C 2414.96 -2.06739 -0.165502 0
M  V30 25203 C 2415.39 -1.27929 -1.37898 0
M  V30 25204 O 2414.75 -0.310146 -1.78628 0
M  V30 25205 C 2414.79 -3.57227 -0.492061 0
M  V30 25206 O 2413.9 -3.80821 -1.5827 0
M  V30 25207 H 2413.24 -0.663869 -0.0132016 0
M  V30 25208 H 2415.77 -1.9605 0.585287 0
M  V30 25209 H 2415.78 -4.01047 -0.750033 0
M  V30 25210 H 2414.45 -4.1402 0.394995 0
M  V30 25211 H 2413.03 -3.4888 -1.31671 0
M  V30 25212 N 2415.22 -0.14192 -1.5696 0
M  V30 25213 C 2416.18 0.785549 -2.15318 0
M  V30 25214 C 2417.18 1.17878 -1.09368 0
M  V30 25215 O 2418.37 1.10053 -1.35033 0
M  V30 25216 C 2415.5 2.06532 -2.71214 0
M  V30 25217 H 2416.69 0.277988 -2.98609 0
M  V30 25218 H 2414.25 0.107491 -1.5593 0
M  V30 25219 H 2414.98 2.61667 -1.91575 0
M  V30 25220 H 2414.77 1.79262 -3.48723 0
M  V30 25221 H 2416.26 2.72784 -3.16194 0
M  V30 25222 N 2416.69 1.57047 0.131868 0
M  V30 25223 C 2417.94 1.84169 0.8419 0
M  V30 25224 C 2418.27 0.725098 1.80479 0
M  V30 25225 O 2417.52 -0.284658 1.93619 0
M  V30 25226 C 2417.82 3.17707 1.63698 0
M  V30 25227 C 2417.49 4.4339 0.819532 0
M  V30 25228 C 2416.15 4.77519 0.594064 0
M  V30 25229 C 2418.5 5.20605 0.248885 0
M  V30 25230 C 2415.83 5.86315 -0.212512 0
M  V30 25231 C 2418.18 6.3025 -0.544812 0
M  V30 25232 C 2416.85 6.62919 -0.780716 0
M  V30 25233 H 2416.12 0.673923 0.308073 0
M  V30 25234 H 2418.76 1.91213 0.104833 0
M  V30 25235 H 2417.07 3.06182 2.44459 0
M  V30 25236 H 2418.77 3.35911 2.19009 0
M  V30 25237 H 2415.36 4.16642 1.00534 0
M  V30 25238 H 2419.54 4.94601 0.410321 0
M  V30 25239 H 2414.8 6.1006 -0.404631 0
M  V30 25240 H 2418.97 6.89269 -0.994043 0
M  V30 25241 H 2416.6 7.47056 -1.40755 0
M  V30 25242 N 2418.17 -0.401677 1.52395 0
M  V30 25243 C 2419.4 -1.16946 1.70678 0
M  V30 25244 C 2419.81 -1.8408 0.419535 0
M  V30 25245 O 2419.17 -1.72179 -0.60503 0
M  V30 25246 C 2419.22 -2.22701 2.84757 0
M  V30 25247 O 2418.94 -1.58307 4.08498 0
M  V30 25248 C 2420.44 -3.12304 3.14613 0
M  V30 25249 H 2417.66 -0.351132 0.571793 0
M  V30 25250 H 2420.21 -0.471617 1.98988 0
M  V30 25251 H 2418.36 -2.88142 2.58946 0
M  V30 25252 H 2418.78 -2.28477 4.72121 0
M  V30 25253 H 2420.25 -3.82565 3.9793 0
M  V30 25254 H 2420.73 -3.75097 2.28471 0
M  V30 25255 H 2421.33 -2.52523 3.42217 0
M  V30 25256 N 2419.65 -1.43144 -0.659362 0
M  V30 25257 C 2420.58 -1.50628 -1.78419 0
M  V30 25258 C 2421.56 -0.361472 -1.66215 0
M  V30 25259 O 2422.75 -0.577866 -1.85403 0
M  V30 25260 C 2419.88 -1.42293 -3.16812 0
M  V30 25261 C 2418.83 -2.5496 -3.43772 0
M  V30 25262 C 2418.16 -2.31679 -4.81901 0
M  V30 25263 C 2419.46 -3.97228 -3.39127 0
M  V30 25264 H 2421.15 -2.44774 -1.72413 0
M  V30 25265 H 2418.7 -1.1781 -0.828063 0
M  V30 25266 H 2420.65 -1.46134 -3.9525 0
M  V30 25267 H 2419.37 -0.446492 -3.23534 0
M  V30 25268 H 2418.03 -2.50462 -2.67702 0
M  V30 25269 H 2417.68 -1.32293 -4.85291 0
M  V30 25270 H 2417.38 -3.072 -5.00901 0
M  V30 25271 H 2418.9 -2.37294 -5.62604 0
M  V30 25272 H 2420.32 -4.03247 -4.07511 0
M  V30 25273 H 2418.71 -4.72725 -3.69663 0
M  V30 25274 H 2419.78 -4.22801 -2.37418 0
M  V30 25275 N 2421.13 0.897149 -1.29572 0
M  V30 25276 C 2422.35 1.68654 -1.20708 0
M  V30 25277 C 2422.78 1.86706 0.22855 0
M  V30 25278 O 2422.14 1.38922 1.16492 0
M  V30 25279 C 2422.18 3.04714 -1.92826 0
M  V30 25280 O 2421.29 3.93094 -1.24704 0
M  V30 25281 H 2420.63 0.515809 -0.418135 0
M  V30 25282 H 2423.16 1.12057 -1.71185 0
M  V30 25283 H 2423.17 3.54839 -2.01378 0
M  V30 25284 H 2421.84 2.90894 -2.97244 0
M  V30 25285 H 2420.42 3.51529 -1.24426 0
M  V30 25286 N 2422.61 1.1209 1.10786 0
M  V30 25287 C 2423.83 0.896684 1.8646 0
M  V30 25288 C 2424.25 -0.55388 1.80493 0
M  V30 25289 O 2423.61 -1.38276 1.19105 0
M  V30 25290 C 2423.66 1.35849 3.35004 0
M  V30 25291 O 2423.38 2.75219 3.40861 0
M  V30 25292 C 2424.88 1.17067 4.27563 0
M  V30 25293 H 2422.1 0.320664 0.58942 0
M  V30 25294 H 2424.64 1.48995 1.40074 0
M  V30 25295 H 2422.8 0.808525 3.78869 0
M  V30 25296 H 2423.21 2.95397 4.33406 0
M  V30 25297 H 2424.69 1.54272 5.30004 0
M  V30 25298 H 2425.16 0.110891 4.3906 0
M  V30 25299 H 2425.77 1.70796 3.89498 0
M  V30 25300 N 2424.08 -1.28513 0.912254 0
M  V30 25301 C 2425.49 -1.77086 0.591383 0
M  V30 25302 C 2425.85 -1.74686 -0.89327 0
M  V30 25303 O 2424.97 -1.34059 -1.69874 0
M  V30 25304 C 2425.57 -3.21568 1.06674 0
M  V30 25305 C 2424.12 -3.67869 0.796814 0
M  V30 25306 C 2423.27 -2.48314 1.23432 0
M  V30 25307 H 2426.22 -1.14998 1.09367 0
M  V30 25308 H 2426.24 -3.78311 0.407522 0
M  V30 25309 H 2425.76 -3.23283 2.14731 0
M  V30 25310 H 2423.86 -3.71616 -0.270614 0
M  V30 25311 H 2423.97 -4.58081 1.40351 0
M  V30 25312 H 2422.33 -2.46185 0.653079 0
M  V30 25313 H 2423.12 -2.52749 2.3232 0
M  V30 25314 N 2425.56 -0.676073 -1.42362 0
M  V30 25315 C 2426.79 -0.205741 -2.06377 0
M  V30 25316 C 2427.21 1.1288 -1.50465 0
M  V30 25317 O 2426.57 1.70236 -0.623649 0
M  V30 25318 C 2426.62 -0.152718 -3.60276 0
M  V30 25319 O 2425.72 0.878379 -4.02937 0
M  V30 25320 H 2425.06 -0.10537 -0.655586 0
M  V30 25321 H 2427.59 -0.925445 -1.82474 0
M  V30 25322 H 2427.6 0.0229958 -4.07994 0
M  V30 25323 H 2426.28 -1.12682 -4.00344 0
M  V30 25324 H 2424.86 0.673603 -3.66766 0
M  V30 25325 N 2427.04 1.51915 -0.419488 0
M  V30 25326 C 2428 2.25874 0.389076 0
M  V30 25327 C 2429 1.28632 0.964901 0
M  V30 25328 O 2430.19 1.52491 0.842152 0
M  V30 25329 C 2427.33 3.03691 1.54869 0
M  V30 25330 H 2428.52 2.98781 -0.258851 0
M  V30 25331 H 2426.07 1.55348 -0.172236 0
M  V30 25332 H 2426.81 2.35158 2.23318 0
M  V30 25333 H 2426.59 3.75096 1.14217 0
M  V30 25334 H 2428.08 3.59762 2.1204 0
M  V30 25335 N 2428.52 0.150242 1.56882 0
M  V30 25336 C 2429.93 -0.370044 1.82996 0
M  V30 25337 C 2430.28 -1.64514 1.0691 0
M  V30 25338 O 2429.41 -2.14089 0.315407 0
M  V30 25339 C 2430 -0.67815 3.31944 0
M  V30 25340 C 2428.56 -1.14295 3.58627 0
M  V30 25341 C 2427.71 -0.167729 2.76792 0
M  V30 25342 H 2430.66 0.374885 1.54209 0
M  V30 25343 H 2430.68 -1.53248 3.48275 0
M  V30 25344 H 2430.19 0.25006 3.87294 0
M  V30 25345 H 2428.29 -2.08699 3.08668 0
M  V30 25346 H 2428.4 -1.06668 4.67075 0
M  V30 25347 H 2426.77 -0.660994 2.45974 0
M  V30 25348 H 2427.55 0.754128 3.34915 0
M  V30 25349 N 2430 -1.57115 -0.123538 0
M  V30 25350 C 2431.24 -1.84248 -0.830477 0
M  V30 25351 C 2431.57 -0.734742 -1.80628 0
M  V30 25352 O 2430.84 0.241654 -1.94404 0
M  V30 25353 H 2429.42 -0.679784 -0.309682 0
M  V30 25354 H 2432.08 -1.94578 -0.111942 0
M  V30 25355 H 2431.17 -2.80008 -1.37847 0
M  V30 25356 N 2431.47 0.393589 -1.52606 0
M  V30 25357 C 2432.89 0.971733 -1.59418 0
M  V30 25358 C 2433.24 1.91105 -0.444207 0
M  V30 25359 O 2432.36 2.12017 0.433344 0
M  V30 25360 C 2432.96 1.76916 -2.8894 0
M  V30 25361 C 2431.52 2.29708 -2.98179 0
M  V30 25362 C 2430.66 1.1013 -2.54493 0
M  V30 25363 H 2433.61 0.173289 -1.57751 0
M  V30 25364 H 2433.63 2.62799 -2.75167 0
M  V30 25365 H 2433.15 1.08525 -3.72618 0
M  V30 25366 H 2431.25 3.01425 -2.19029 0
M  V30 25367 H 2431.36 2.59509 -4.0273 0
M  V30 25368 H 2429.72 1.45995 -2.08704 0
M  V30 25369 H 2430.51 0.432814 -3.40561 0
M  V30 25370 N 2432.95 1.43492 0.651762 0
M  V30 25371 C 2433.88 1.51572 1.77618 0
M  V30 25372 C 2434.86 0.370282 1.66021 0
M  V30 25373 O 2436.05 0.587691 1.85094 0
M  V30 25374 C 2433.18 1.43971 3.16053 0
M  V30 25375 C 2432.13 2.5678 3.42415 0
M  V30 25376 C 2431.46 2.34232 4.80666 0
M  V30 25377 C 2432.76 3.99021 3.37016 0
M  V30 25378 H 2434.45 2.45684 1.71113 0
M  V30 25379 H 2432 1.18247 0.821804 0
M  V30 25380 H 2433.95 1.48228 3.9447 0
M  V30 25381 H 2432.68 0.463643 3.23292 0
M  V30 25382 H 2431.33 2.51878 2.6637 0
M  V30 25383 H 2430.98 1.34865 4.84583 0
M  V30 25384 H 2430.68 3.09852 4.99265 0
M  V30 25385 H 2432.21 2.40275 5.61338 0
M  V30 25386 H 2433.62 4.05402 4.05367 0
M  V30 25387 H 2432.02 4.74679 3.67151 0
M  V30 25388 H 2433.09 4.24054 2.35173 0
M  V30 25389 N 2434.43 -0.890264 1.30046 0
M  V30 25390 C 2435.68 -1.64404 1.1874 0
M  V30 25391 C 2436.01 -1.92472 -0.258491 0
M  V30 25392 O 2435.28 -1.54188 -1.18559 0
M  V30 25393 C 2435.57 -2.9872 2.01092 0
M  V30 25394 C 2435.42 -2.77659 3.53872 0
M  V30 25395 C 2436.74 -3.99576 1.84464 0
M  V30 25396 H 2433.86 -0.596601 0.432708 0
M  V30 25397 H 2436.5 -1.03057 1.59622 0
M  V30 25398 H 2434.65 -3.51082 1.66355 0
M  V30 25399 H 2436.32 -2.32126 3.98641 0
M  V30 25400 H 2434.57 -2.12263 3.78321 0
M  V30 25401 H 2435.24 -3.73143 4.06778 0
M  V30 25402 H 2437.71 -3.56357 2.14823 0
M  V30 25403 H 2436.59 -4.91478 2.4442 0
M  V30 25404 H 2436.85 -4.34758 0.802353 0
M  V30 25405 N 2435.91 -1.12676 -1.1019 0
M  V30 25406 C 2437.16 -0.883638 -1.82203 0
M  V30 25407 C 2437.48 0.590459 -1.85321 0
M  V30 25408 O 2436.74 1.45261 -1.3114 0
M  V30 25409 C 2437.04 -1.40676 -3.2855 0
M  V30 25410 C 2436.7 -2.89633 -3.45577 0
M  V30 25411 C 2435.37 -3.30305 -3.49931 0
M  V30 25412 C 2437.72 -3.85507 -3.50762 0
M  V30 25413 C 2435.05 -4.65552 -3.57041 0
M  V30 25414 C 2437.4 -5.20587 -3.59404 0
M  V30 25415 C 2436.06 -5.60798 -3.62024 0
M  V30 25416 H 2435.33 -0.323346 -0.66673 0
M  V30 25417 H 2437.98 -1.40738 -1.29866 0
M  V30 25418 H 2436.28 -0.803538 -3.83472 0
M  V30 25419 H 2437.98 -1.19482 -3.82786 0
M  V30 25420 H 2434.57 -2.57178 -3.42866 0
M  V30 25421 H 2438.75 -3.55177 -3.46645 0
M  V30 25422 H 2434.01 -4.96094 -3.57353 0
M  V30 25423 H 2438.18 -5.947 -3.62361 0
M  V30 25424 H 2435.81 -6.65586 -3.67286 0
M  V30 25425 N 2437.39 1.28028 -0.919057 0
M  V30 25426 C 2438.61 1.98865 -0.571006 0
M  V30 25427 C 2439.03 1.68636 0.848966 0
M  V30 25428 O 2438.39 0.942063 1.56306 0
M  V30 25429 C 2438.44 3.53052 -0.776939 0
M  V30 25430 O 2438.16 3.82219 -2.14104 0
M  V30 25431 C 2439.66 4.41146 -0.436433 0
M  V30 25432 H 2436.88 0.634879 -0.217186 0
M  V30 25433 H 2439.42 1.63094 -1.23371 0
M  V30 25434 H 2437.58 3.87065 -0.161153 0
M  V30 25435 H 2437.99 4.76838 -2.18463 0
M  V30 25436 H 2439.47 5.48379 -0.631267 0
M  V30 25437 H 2439.94 4.34693 0.62761 0
M  V30 25438 H 2440.55 4.1264 -1.02999 0
M  V30 25439 N 2438.86 0.683613 1.42002 0
M  V30 25440 C 2439.83 0.0198645 2.29191 0
M  V30 25441 C 2440.83 -0.720105 1.43775 0
M  V30 25442 O 2442.02 -0.556786 1.65062 0
M  V30 25443 C 2439.15 -0.98243 3.26437 0
M  V30 25444 H 2440.34 0.787396 2.89379 0
M  V30 25445 H 2437.9 0.446445 1.49788 0
M  V30 25446 H 2438.63 -1.77814 2.71206 0
M  V30 25447 H 2438.42 -0.455113 3.8945 0
M  V30 25448 H 2439.91 -1.44501 3.91803 0
M  V30 25449 N 2440.34 -1.5169 0.427538 0
M  V30 25450 C 2441.27 -2.30394 -0.379559 0
M  V30 25451 C 2442.25 -1.35385 -1.0298 0
M  V30 25452 O 2443.44 -1.64302 -1.03531 0
M  V30 25453 C 2440.57 -3.13883 -1.48644 0
M  V30 25454 C 2439.52 -4.1709 -0.960221 0
M  V30 25455 C 2438.85 -4.89037 -2.1621 0
M  V30 25456 C 2440.15 -5.223 -0.00144499 0
M  V30 25457 H 2441.84 -2.98114 0.277216 0
M  V30 25458 H 2439.39 -1.43368 0.134764 0
M  V30 25459 H 2441.34 -3.67718 -2.0582 0
M  V30 25460 H 2440.07 -2.43966 -2.17136 0
M  V30 25461 H 2438.73 -3.64292 -0.410742 0
M  V30 25462 H 2438.37 -4.15633 -2.83299 0
M  V30 25463 H 2438.07 -5.58819 -1.81644 0
M  V30 25464 H 2439.6 -5.45692 -2.73958 0
M  V30 25465 H 2441.01 -5.71265 -0.482586 0
M  V30 25466 H 2439.41 -5.99552 0.256305 0
M  V30 25467 H 2440.48 -4.75736 0.938258 0
M  V30 25468 N 2441.82 -0.15856 -1.568 0
M  V30 25469 C 2443.05 0.49948 -2.01296 0
M  V30 25470 C 2443.47 1.56865 -1.03802 0
M  V30 25471 O 2442.83 1.81293 -0.0155481 0
M  V30 25472 C 2442.88 1.0664 -3.44471 0
M  V30 25473 O 2441.98 2.18089 -3.50016 0
M  V30 25474 H 2441.32 0.120979 -0.652886 0
M  V30 25475 H 2443.85 -0.258697 -2.02958 0
M  V30 25476 H 2443.86 1.3922 -3.83512 0
M  V30 25477 H 2442.54 0.283508 -4.14933 0
M  V30 25478 H 2441.11 1.86651 -3.22825 0
M  V30 25479 N 2443.3 1.57178 0.115204 0
M  V30 25480 C 2444.71 1.74189 0.671939 0
M  V30 25481 C 2445.06 0.777809 1.80124 0
M  V30 25482 O 2444.19 -0.0483996 2.16346 0
M  V30 25483 C 2444.78 3.15852 1.22567 0
M  V30 25484 C 2443.34 3.34356 1.72866 0
M  V30 25485 C 2442.49 2.7005 0.629924 0
M  V30 25486 H 2445.44 1.58313 -0.11074 0
M  V30 25487 H 2445.46 3.17613 2.09529 0
M  V30 25488 H 2444.97 3.85996 0.40353 0
M  V30 25489 H 2443.07 2.6926 2.57545 0
M  V30 25490 H 2443.19 4.42545 1.83549 0
M  V30 25491 H 2441.55 2.3139 1.06446 0
M  V30 25492 H 2442.33 3.42821 -0.181302 0
M  V30 25493 N 2444.78 -0.38549 1.52813 0
M  V30 25494 C 2446.05 -1.14462 1.58612 0
M  V30 25495 C 2446.43 -2.07625 0.381438 0
M  V30 25496 O 2445.78 -2.19645 -0.62996 0
M  V30 25497 C 2445.99 -1.90123 2.92668 0
M  V30 25498 C 2447.34 -2.45361 3.4653 0
M  V30 25499 O 2448.36 -2.00275 2.94565 0
M  V30 25500 O 2447.22 -3.27728 4.37329 0
M  V30 25501 H 2444.32 -0.52393 0.639865 0
M  V30 25502 H 2446.86 -0.39036 1.65149 0
M  V30 25503 H 2445.64 -1.22015 3.7179 0
M  V30 25504 H 2445.26 -2.72502 2.89531 0
M  V30 25505 N 2446.26 -1.43835 -0.644143 0
M  V30 25506 C 2447.48 -1.49607 -1.4364 0
M  V30 25507 C 2447.91 -0.117946 -1.8773 0
M  V30 25508 O 2447.26 0.890211 -1.5794 0
M  V30 25509 C 2447.31 -2.45468 -2.64155 0
M  V30 25510 O 2446.42 -1.94721 -3.63535 0
M  V30 25511 H 2445.76 -0.505688 -0.43032 0
M  V30 25512 H 2448.29 -1.88841 -0.787415 0
M  V30 25513 H 2448.3 -2.63073 -3.1186 0
M  V30 25514 H 2446.97 -3.45576 -2.31408 0
M  V30 25515 H 2445.55 -1.8682 -3.22727 0
M  V30 25516 N 2447.73 0.883355 -1.30517 0
M  V30 25517 C 2448.66 2.00538 -1.1961 0
M  V30 25518 C 2449.64 1.69881 -0.0863759 0
M  V30 25519 O 2450.83 1.92332 -0.268687 0
M  V30 25520 C 2447.96 3.35734 -0.888817 0
M  V30 25521 C 2446.91 3.80656 -1.95665 0
M  V30 25522 C 2446.24 5.13161 -1.50233 0
M  V30 25523 C 2447.54 3.99207 -3.36795 0
M  V30 25524 H 2449.23 2.09921 -2.13479 0
M  V30 25525 H 2446.78 1.00861 -1.02776 0
M  V30 25526 H 2448.73 4.13753 -0.799167 0
M  V30 25527 H 2447.46 3.26488 0.0855552 0
M  V30 25528 H 2446.12 3.04867 -2.03597 0
M  V30 25529 H 2445.76 5.00344 -0.51618 0
M  V30 25530 H 2445.46 5.44188 -2.21659 0
M  V30 25531 H 2446.99 5.93703 -1.4265 0
M  V30 25532 H 2448.4 4.6766 -3.31613 0
M  V30 25533 H 2446.8 4.41614 -4.06322 0
M  V30 25534 H 2447.87 3.03011 -3.78566 0
M  V30 25535 N 2449.21 1.13259 1.09591 0
M  V30 25536 C 2450.14 0.766205 2.16014 0
M  V30 25537 C 2451.16 -0.211274 1.61423 0
M  V30 25538 O 2452.35 0.00867083 1.78498 0
M  V30 25539 C 2449.45 0.114722 3.38706 0
M  V30 25540 C 2448.62 1.12387 4.22715 0
M  V30 25541 C 2447.68 0.498393 5.23834 0
M  V30 25542 O 2446.7 1.15791 5.57298 0
M  V30 25543 N 2447.91 -0.730316 5.75888 0
M  V30 25544 H 2450.67 1.68197 2.48052 0
M  V30 25545 H 2448.23 1.02537 1.25291 0
M  V30 25546 H 2450.22 -0.31592 4.03465 0
M  V30 25547 H 2448.79 -0.703957 3.04571 0
M  V30 25548 H 2448.01 1.73186 3.54119 0
M  V30 25549 H 2449.3 1.80597 4.7567 0
M  V30 25550 H 2448.7 -1.28494 5.50913 0
M  V30 25551 H 2447.26 -1.10365 6.42388 0
M  V30 25552 N 2450.69 -1.27539 0.925834 0
M  V30 25553 C 2451.62 -2.29302 0.440788 0
M  V30 25554 C 2452.6 -1.62649 -0.497942 0
M  V30 25555 O 2453.79 -1.89971 -0.403093 0
M  V30 25556 C 2450.92 -3.45923 -0.308987 0
M  V30 25557 C 2449.87 -4.24558 0.541735 0
M  V30 25558 C 2449.2 -5.33636 -0.337097 0
M  V30 25559 C 2450.5 -4.9011 1.80524 0
M  V30 25560 H 2452.19 -2.70124 1.29126 0
M  V30 25561 H 2449.74 -1.29857 0.622346 0
M  V30 25562 H 2451.69 -4.16211 -0.659242 0
M  V30 25563 H 2450.41 -3.04013 -1.19347 0
M  V30 25564 H 2449.07 -3.56013 0.874672 0
M  V30 25565 H 2448.72 -4.87969 -1.22048 0
M  V30 25566 H 2448.42 -5.87155 0.228601 0
M  V30 25567 H 2449.94 -6.06768 -0.682965 0
M  V30 25568 H 2451.36 -5.52696 1.52317 0
M  V30 25569 H 2449.75 -5.53679 2.3143 0
M  V30 25570 H 2450.82 -4.13917 2.52588 0
M  V30 25571 N 2452.17 -0.691135 -1.41637 0
M  V30 25572 C 2453.39 -0.227619 -2.06147 0
M  V30 25573 C 2453.82 1.11278 -1.51654 0
M  V30 25574 O 2453.18 1.69565 -0.64167 0
M  V30 25575 C 2453.22 -0.190922 -3.60094 0
M  V30 25576 O 2452.33 0.835593 -4.03846 0
M  V30 25577 H 2451.67 -0.112318 -0.654432 0
M  V30 25578 H 2454.2 -0.944746 -1.81482 0
M  V30 25579 H 2454.21 -0.0202787 -4.07995 0
M  V30 25580 H 2452.88 -1.16922 -3.99127 0
M  V30 25581 H 2451.46 0.634665 -3.67459 0
M  V30 25582 N 2453.65 1.51461 -0.435577 0
M  V30 25583 C 2454.89 2.03022 0.123943 0
M  V30 25584 C 2455.25 1.31404 1.40538 0
M  V30 25585 O 2454.54 0.419667 1.86947 0
M  V30 25586 C 2454.73 3.55162 0.399357 0
M  V30 25587 C 2454.56 4.4152 -0.853832 0
M  V30 25588 C 2453.33 4.85896 -1.38684 0
M  V30 25589 C 2455.53 4.8399 -1.73947 0
M  V30 25590 N 2453.51 5.56462 -2.59275 0
M  V30 25591 C 2454.88 5.53605 -2.79145 0
M  V30 25592 C 2456.94 4.65978 -1.7541 0
M  V30 25593 C 2455.64 6.07117 -3.85748 0
M  V30 25594 C 2457.67 5.20406 -2.80948 0
M  V30 25595 C 2457.03 5.89965 -3.84865 0
M  V30 25596 H 2453.13 0.781975 0.00623513 0
M  V30 25597 H 2455.71 1.85358 -0.595852 0
M  V30 25598 H 2453.88 3.72844 1.08819 0
M  V30 25599 H 2455.62 3.9339 0.950081 0
M  V30 25600 H 2452.37 4.64157 -0.941021 0
M  V30 25601 H 2452.79 5.96372 -3.2042 0
M  V30 25602 H 2457.44 4.11664 -0.963999 0
M  V30 25603 H 2455.15 6.60488 -4.65597 0
M  V30 25604 H 2458.74 5.08322 -2.83019 0
M  V30 25605 H 2457.62 6.31325 -4.65187 0
M  V30 25606 N 2455.12 0.166873 1.56714 0
M  V30 25607 C 2456.03 -0.777752 2.21333 0
M  V30 25608 C 2457.05 -1.25656 1.20361 0
M  V30 25609 O 2458.23 -1.30961 1.53007 0
M  V30 25610 C 2455.29 -1.99158 2.83791 0
M  V30 25611 C 2454.35 -1.56009 3.9995 0
M  V30 25612 C 2453.59 -2.71605 4.5942 0
M  V30 25613 O 2453.81 -3.88355 4.17776 0
M  V30 25614 O 2452.74 -2.45935 5.49363 0
M  V30 25615 H 2456.57 -0.257583 3.02606 0
M  V30 25616 H 2454.15 -0.061113 1.49275 0
M  V30 25617 H 2456.04 -2.70155 3.2341 0
M  V30 25618 H 2454.71 -2.50089 2.05517 0
M  V30 25619 H 2453.62 -0.819745 3.65008 0
M  V30 25620 H 2454.95 -1.09773 4.79803 0
M  V30 25621 N 2456.6 -1.57237 -0.106866 0
M  V30 25622 C 2458.02 -1.52805 -0.460753 0
M  V30 25623 C 2458.22 -0.881778 -1.81182 0
M  V30 25624 O 2457.27 -0.469268 -2.48101 0
M  V30 25625 C 2458.59 -2.9755 -0.434074 0
M  V30 25626 C 2460.14 -3.08705 -0.516767 0
M  V30 25627 C 2460.61 -4.55034 -0.520356 0
M  V30 25628 N 2462.1 -4.59536 -0.581449 0
M  V30 25629 C 2462.84 -5.7019 -0.605872 0
M  V30 25630 N 2462.33 -6.90307 -0.58721 0
M  V30 25631 N 2464.13 -5.58331 -0.649797 0
M  V30 25632 H 2456.28 -1.97629 0.778238 0
M  V30 25633 H 2458.54 -0.903061 0.288418 0
M  V30 25634 H 2458.25 -3.48252 0.491258 0
M  V30 25635 H 2458.12 -3.55625 -1.25742 0
M  V30 25636 H 2460.51 -2.57998 -1.43252 0
M  V30 25637 H 2460.59 -2.53604 0.334494 0
M  V30 25638 H 2460.23 -5.0639 0.391402 0
M  V30 25639 H 2460.16 -5.0796 -1.38867 0
M  V30 25640 H 2462.65 -3.73082 -0.601544 0
M  V30 25641 H 2462.97 -7.70398 -0.608804 0
M  V30 25642 H 2461.31 -6.92785 -0.554442 0
M  V30 25643 H 2464.5 -4.63398 -0.661825 0
M  V30 25644 H 2464.67 -6.44575 -0.665363 0
M  V30 25645 N 2458.08 0.377381 -1.53015 0
M  V30 25646 C 2459.49 0.95477 -1.6044 0
M  V30 25647 C 2459.84 1.90623 -0.464451 0
M  V30 25648 O 2458.97 2.12464 0.410833 0
M  V30 25649 C 2459.56 1.73842 -2.908 0
M  V30 25650 C 2458.12 2.26533 -3.00599 0
M  V30 25651 C 2457.27 1.07425 -2.55647 0
M  V30 25652 H 2460.22 0.156548 -1.57926 0
M  V30 25653 H 2460.24 2.59865 -2.77939 0
M  V30 25654 H 2459.75 1.04567 -3.73748 0
M  V30 25655 H 2457.85 2.99085 -2.22214 0
M  V30 25656 H 2457.97 2.55223 -4.0546 0
M  V30 25657 H 2456.33 1.43773 -2.10241 0
M  V30 25658 H 2457.11 0.396669 -3.41001 0
M  V30 25659 N 2459.56 1.44175 0.636506 0
M  V30 25660 C 2460.97 1.27943 0.954081 0
M  V30 25661 C 2461.17 0.211283 2.00389 0
M  V30 25662 O 2460.23 -0.404651 2.49236 0
M  V30 25663 C 2461.54 2.64928 1.42246 0
M  V30 25664 C 2463.09 2.72594 1.53822 0
M  V30 25665 C 2463.57 4.10036 2.04045 0
M  V30 25666 N 2465.06 4.12185 2.11323 0
M  V30 25667 C 2465.79 5.15378 2.51343 0
M  V30 25668 N 2465.29 6.28935 2.90538 0
M  V30 25669 N 2467.08 5.02732 2.51429 0
M  V30 25670 H 2459.23 2.12321 -0.0578759 0
M  V30 25671 H 2461.5 0.947288 0.036724 0
M  V30 25672 H 2461.2 3.44138 0.725406 0
M  V30 25673 H 2461.08 2.91454 2.39446 0
M  V30 25674 H 2463.46 1.93706 2.22625 0
M  V30 25675 H 2463.54 2.49815 0.550111 0
M  V30 25676 H 2463.19 4.89398 1.35839 0
M  V30 25677 H 2463.12 4.30189 3.03718 0
M  V30 25678 H 2465.61 3.30225 1.83739 0
M  V30 25679 H 2465.92 7.03493 3.19872 0
M  V30 25680 H 2464.27 6.32382 2.88302 0
M  V30 25681 H 2467.46 4.13075 2.20196 0
M  V30 25682 H 2467.63 5.83279 2.82294 0
M  V30 25683 N 2461.04 -0.876421 1.30983 0
M  V30 25684 C 2462.45 -1.16111 1.095 0
M  V30 25685 C 2462.65 -2.01022 -0.138714 0
M  V30 25686 O 2461.71 -2.38472 -0.829893 0
M  V30 25687 C 2463.02 -1.8595 2.36312 0
M  V30 25688 C 2464.57 -1.98678 2.41859 0
M  V30 25689 C 2465.04 -2.7193 3.68535 0
M  V30 25690 N 2466.54 -2.7947 3.69392 0
M  V30 25691 C 2467.27 -3.36745 4.64101 0
M  V30 25692 N 2466.77 -3.95002 5.69162 0
M  V30 25693 N 2468.56 -3.34642 4.51632 0
M  V30 25694 H 2460.71 -0.310457 2.10119 0
M  V30 25695 H 2462.97 -0.200115 0.926638 0
M  V30 25696 H 2462.68 -1.31005 3.2639 0
M  V30 25697 H 2462.55 -2.86274 2.45615 0
M  V30 25698 H 2464.94 -2.5279 1.52254 0
M  V30 25699 H 2465.02 -0.974158 2.36524 0
M  V30 25700 H 2464.67 -2.18488 4.58503 0
M  V30 25701 H 2464.6 -3.73587 3.71134 0
M  V30 25702 H 2467.09 -2.38118 2.93442 0
M  V30 25703 H 2467.4 -4.36797 6.37517 0
M  V30 25704 H 2465.74 -3.93396 5.72944 0
M  V30 25705 H 2468.94 -2.88363 3.68733 0
M  V30 25706 H 2469.11 -3.78981 5.25621 0
M  V30 25707 N 2462.51 -1.13839 -1.08989 0
M  V30 25708 C 2463.93 -0.914946 -1.62744 0
M  V30 25709 C 2464.28 0.547561 -1.88404 0
M  V30 25710 O 2463.4 1.41522 -1.63708 0
M  V30 25711 C 2464 -1.65442 -2.95659 0
M  V30 25712 C 2462.56 -1.47672 -3.46222 0
M  V30 25713 C 2461.7 -1.68074 -2.20559 0
M  V30 25714 H 2464.65 -1.29104 -0.922923 0
M  V30 25715 H 2464.67 -1.11413 -3.63823 0
M  V30 25716 H 2464.19 -2.71882 -2.76951 0
M  V30 25717 H 2462.29 -0.435543 -3.70046 0
M  V30 25718 H 2462.4 -2.24276 -4.23364 0
M  V30 25719 H 2460.76 -1.10593 -2.29437 0
M  V30 25720 H 2461.55 -2.75843 -2.04366 0
M  V30 25721 N 2463.99 1.27046 -0.932584 0
M  V30 25722 C 2464.94 2.28664 -0.42607 0
M  V30 25723 C 2465.93 1.62093 0.492161 0
M  V30 25724 O 2467.14 1.76128 0.371324 0
M  V30 25725 H 2463.52 0.742488 -0.119226 0
M  V30 25726 H 2465.49 2.68795 -1.29583 0
M  V30 25727 C 2464.24 3.46392 0.301365 0
M  V30 25728 H 2463.56 3.97834 -0.39602 0
M  V30 25729 H 2465 4.19441 0.620127 0
M  V30 25730 C 2463.46 3.00859 1.5161 0
M  V30 25731 O 2463.99 3.04952 2.61471 0
M  V30 25732 N 2462.19 2.56299 1.36965 0
M  V30 25733 H 2461.74 2.53167 0.475828 0
M  V30 25734 H 2461.7 2.26196 2.18364 0
M  V30 25735 N 2465.47 0.698636 1.41269 0
M  V30 25736 C 2466.72 0.230445 2.00782 0
M  V30 25737 C 2467.04 -1.17503 1.55622 0
M  V30 25738 O 2466.31 -1.79345 0.788181 0
M  V30 25739 H 2464.89 0.0822075 0.742463 0
M  V30 25740 H 2467.55 0.90048 1.72851 0
M  V30 25741 H 2466.65 0.250265 3.11095 0
M  V30 25742 N 2466.95 -1.51228 0.443603 0
M  V30 25743 C 2468.23 -1.94761 -0.181003 0
M  V30 25744 C 2468.61 -1.38262 -1.59521 0
M  V30 25745 O 2467.95 -0.572237 -2.21219 0
M  V30 25746 C 2468.16 -3.48667 -0.15236 0
M  V30 25747 C 2469.51 -4.23115 -0.354849 0
M  V30 25748 O 2470.54 -3.55455 -0.230194 0
M  V30 25749 O 2469.39 -5.43157 -0.603578 0
M  V30 25750 H 2466.49 -0.817255 -0.126586 0
M  V30 25751 H 2469.03 -1.62104 0.502033 0
M  V30 25752 H 2467.81 -3.82263 0.83609 0
M  V30 25753 H 2467.43 -3.87784 -0.878038 0
M  V30 25754 N 2468.43 -0.175182 -1.56623 0
M  V30 25755 C 2469.68 0.468887 -1.96174 0
M  V30 25756 C 2469.99 1.64127 -1.06404 0
M  V30 25757 O 2471.19 2.35182 -1.35652 0
M  V30 25758 C 2469.65 0.885572 -3.48835 0
M  V30 25759 C 2469.26 -0.261422 -4.47237 0
M  V30 25760 C 2471 1.49784 -3.97196 0
M  V30 25761 C 2468.91 0.17511 -5.91141 0
M  V30 25762 H 2467.84 0.178945 -0.732458 0
M  V30 25763 H 2470.49 -0.264029 -1.81591 0
M  V30 25764 H 2468.87 1.67458 -3.58851 0
M  V30 25765 H 2470.05 -1.03879 -4.48939 0
M  V30 25766 H 2468.36 -0.783898 -4.08955 0
M  V30 25767 H 2470.96 1.83656 -5.0217 0
M  V30 25768 H 2471.3 2.39716 -3.40355 0
M  V30 25769 H 2471.83 0.773199 -3.90213 0
M  V30 25770 H 2468.57 -0.689529 -6.51863 0
M  V30 25771 H 2468.09 0.917756 -5.92737 0
M  V30 25772 H 2469.77 0.617679 -6.44045 0
M  V30 25773 N 2469.91 1.57292 0.0985263 0
M  V30 25774 C 2471.15 1.86189 0.803834 0
M  V30 25775 C 2471.48 0.763826 1.78548 0
M  V30 25776 O 2470.76 -0.228516 1.93153 0
M  V30 25777 C 2471.04 3.25716 1.53562 0
M  V30 25778 C 2470.9 4.46146 0.572199 0
M  V30 25779 C 2472.21 3.63092 2.48702 0
M  V30 25780 H 2469.33 0.677216 0.290769 0
M  V30 25781 H 2471.98 1.8988 0.067545 0
M  V30 25782 H 2470.13 3.227 2.16326 0
M  V30 25783 H 2471.8 4.61275 -0.0481705 0
M  V30 25784 H 2470.04 4.33648 -0.114694 0
M  V30 25785 H 2470.71 5.40491 1.1213 0
M  V30 25786 H 2473.19 3.67029 1.96032 0
M  V30 25787 H 2472.06 4.61658 2.96923 0
M  V30 25788 H 2472.32 2.91593 3.32304 0
M  V30 25789 N 2471.38 -0.369261 1.53213 0
M  V30 25790 C 2472.63 -1.11009 1.68883 0
M  V30 25791 C 2472.95 -1.8994 0.441319 0
M  V30 25792 O 2472.22 -1.88178 -0.54459 0
M  V30 25793 H 2470.8 -0.412805 0.622576 0
M  V30 25794 H 2473.46 -0.416768 1.90392 0
M  V30 25795 H 2472.56 -1.80196 2.54825 0
M  V30 25796 N 2472.86 -1.4451 -0.628851 0
M  V30 25797 C 2474.09 -1.50681 -1.41346 0
M  V30 25798 C 2474.5 -0.131108 -1.88745 0
M  V30 25799 O 2473.84 0.873681 -1.61594 0
M  V30 25800 C 2473.9 -2.4117 -2.66603 0
M  V30 25801 C 2473.57 -3.88297 -2.40986 0
M  V30 25802 C 2474.57 -4.7877 -2.02672 0
M  V30 25803 C 2472.25 -4.33021 -2.54555 0
M  V30 25804 C 2474.24 -6.11966 -1.78258 0
M  V30 25805 C 2471.93 -5.66264 -2.29756 0
M  V30 25806 C 2472.93 -6.55555 -1.91667 0
M  V30 25807 O 2472.62 -7.86332 -1.67144 0
M  V30 25808 H 2472.35 -0.513337 -0.439842 0
M  V30 25809 H 2474.9 -1.90175 -0.77605 0
M  V30 25810 H 2473.13 -1.96607 -3.3299 0
M  V30 25811 H 2474.82 -2.38264 -3.28611 0
M  V30 25812 H 2475.59 -4.45488 -1.91743 0
M  V30 25813 H 2471.47 -3.63778 -2.83173 0
M  V30 25814 H 2475.01 -6.81621 -1.48453 0
M  V30 25815 H 2470.91 -5.99106 -2.40295 0
M  V30 25816 H 2471.68 -7.98152 -1.81372 0
M  V30 25817 N 2474.34 0.869463 -1.31446 0
M  V30 25818 C 2475.27 1.99259 -1.2173 0
M  V30 25819 C 2476.25 1.69779 -0.104389 0
M  V30 25820 O 2477.44 1.92036 -0.289072 0
M  V30 25821 C 2474.57 3.34772 -0.924376 0
M  V30 25822 C 2473.52 3.78559 -1.99692 0
M  V30 25823 C 2472.85 5.11539 -1.55667 0
M  V30 25824 C 2474.15 3.95613 -3.4101 0
M  V30 25825 H 2475.84 2.07645 -2.15694 0
M  V30 25826 H 2473.39 0.997657 -1.0384 0
M  V30 25827 H 2475.34 4.12882 -0.843006 0
M  V30 25828 H 2474.06 3.2656 0.0509219 0
M  V30 25829 H 2472.72 3.02691 -2.06819 0
M  V30 25830 H 2472.37 4.99769 -0.569219 0
M  V30 25831 H 2472.07 5.41807 -2.27419 0
M  V30 25832 H 2473.59 5.92157 -1.48939 0
M  V30 25833 H 2475.01 4.64116 -3.36555 0
M  V30 25834 H 2473.4 4.37279 -4.10983 0
M  V30 25835 H 2474.47 2.98979 -3.81759 0
M  V30 25836 N 2475.82 1.14415 1.08383 0
M  V30 25837 C 2477.06 0.913865 1.81042 0
M  V30 25838 C 2477.4 -0.558177 1.86005 0
M  V30 25839 O 2476.67 -1.41347 1.33609 0
M  V30 25840 C 2476.95 1.51575 3.26645 0
M  V30 25841 C 2476.81 3.05766 3.2989 0
M  V30 25842 C 2478.13 1.19281 4.23627 0
M  V30 25843 H 2475.25 0.333425 0.657265 0
M  V30 25844 H 2477.89 1.41414 1.26894 0
M  V30 25845 H 2476.04 1.0903 3.72887 0
M  V30 25846 H 2477.71 3.57143 2.91971 0
M  V30 25847 H 2475.95 3.40202 2.69157 0
M  V30 25848 H 2476.62 3.42985 4.3251 0
M  V30 25849 H 2479.1 1.56063 3.85725 0
M  V30 25850 H 2477.98 1.64027 5.23819 0
M  V30 25851 H 2478.24 0.108145 4.41968 0
M  V30 25852 N 2477.3 -1.26549 0.939309 0
M  V30 25853 C 2478.52 -1.97931 0.602571 0
M  V30 25854 C 2478.94 -1.69965 -0.82203 0
M  V30 25855 O 2478.3 -0.966811 -1.54787 0
M  V30 25856 C 2478.35 -3.51772 0.833008 0
M  V30 25857 O 2478.07 -3.78764 2.20158 0
M  V30 25858 C 2479.57 -4.40396 0.50656 0
M  V30 25859 H 2476.79 -0.631343 0.227259 0
M  V30 25860 H 2479.33 -1.61111 1.2595 0
M  V30 25861 H 2477.49 -3.86759 0.222712 0
M  V30 25862 H 2477.9 -4.73302 2.26022 0
M  V30 25863 H 2479.38 -5.47305 0.718429 0
M  V30 25864 H 2479.85 -4.35636 -0.558375 0
M  V30 25865 H 2480.46 -4.10949 1.0955 0
M  V30 25866 N 2478.77 -0.706118 -1.40896 0
M  V30 25867 C 2480.01 -0.245862 -2.02916 0
M  V30 25868 C 2480.38 1.13646 -1.54753 0
M  V30 25869 O 2481.58 1.69317 -2.08771 0
M  V30 25870 C 2479.85 -0.3126 -3.5603 0
M  V30 25871 S 2481.41 0.0720617 -4.38741 0
M  V30 25872 H 2478.23 -0.0982131 -0.704184 0
M  V30 25873 H 2480.83 -0.926238 -1.72166 0
M  V30 25874 H 2479.53 -1.32046 -3.88577 0
M  V30 25875 H 2479.06 0.386572 -3.91496 0
M  V30 25876 H 2481.08 1.29683 -4.78954 0
M  V30 25877 N 2480.25 1.50991 -0.451617 0
M  V30 25878 C 2481.16 2.31846 0.35839 0
M  V30 25879 C 2482.18 1.41375 1.01435 0
M  V30 25880 O 2483.35 1.74441 1.0066 0
M  V30 25881 C 2480.42 3.15518 1.43699 0
M  V30 25882 C 2479.48 4.21786 0.799668 0
M  V30 25883 C 2478.71 5.01459 1.82687 0
M  V30 25884 O 2478.94 4.81947 3.05096 0
M  V30 25885 O 2477.87 5.85164 1.40948 0
M  V30 25886 H 2481.7 3.02194 -0.302085 0
M  V30 25887 H 2479.28 1.47862 -0.213851 0
M  V30 25888 H 2481.16 3.67493 2.0622 0
M  V30 25889 H 2479.84 2.4792 2.08129 0
M  V30 25890 H 2478.74 3.73853 0.136018 0
M  V30 25891 H 2480.08 4.91799 0.198632 0
M  V30 25892 N 2481.73 0.183486 1.56528 0
M  V30 25893 C 2482.66 -0.781015 2.14419 0
M  V30 25894 C 2483.64 -1.21761 1.07763 0
M  V30 25895 O 2484.82 -1.30721 1.35809 0
M  V30 25896 C 2481.95 -2.0533 2.69365 0
M  V30 25897 C 2481 -1.75975 3.88503 0
M  V30 25898 S 2481.83 -0.918164 5.2757 0
M  V30 25899 C 2482.99 -2.20085 5.8593 0
M  V30 25900 H 2483.22 -0.288848 2.95893 0
M  V30 25901 H 2480.75 -0.0313573 1.54368 0
M  V30 25902 H 2482.71 -2.78401 3.01667 0
M  V30 25903 H 2481.37 -2.51659 1.87953 0
M  V30 25904 H 2480.56 -2.70407 4.25319 0
M  V30 25905 H 2480.17 -1.10993 3.57151 0
M  V30 25906 H 2482.46 -3.15443 5.99585 0
M  V30 25907 H 2483.4 -1.87719 6.82764 0
M  V30 25908 H 2483.81 -2.324 5.14442 0
M  V30 25909 N 2483.21 -1.57342 -0.0901833 0
M  V30 25910 C 2484.17 -2.01443 -1.09332 0
M  V30 25911 C 2485.17 -0.908664 -1.32665 0
M  V30 25912 O 2486.36 -1.17402 -1.28695 0
M  V30 25913 C 2483.49 -2.37934 -2.44132 0
M  V30 25914 H 2484.69 -2.91286 -0.713611 0
M  V30 25915 H 2482.24 -1.52659 -0.335377 0
M  V30 25916 H 2482.97 -1.5106 -2.86969 0
M  V30 25917 H 2482.76 -3.18607 -2.28543 0
M  V30 25918 H 2484.25 -2.72694 -3.16272 0
M  V30 25919 N 2484.69 0.36113 -1.53407 0
M  V30 25920 C 2485.62 1.46282 -1.76449 0
M  V30 25921 C 2486.63 1.49463 -0.645348 0
M  V30 25922 O 2487.82 1.52862 -0.921708 0
M  V30 25923 C 2484.92 2.85028 -1.83337 0
M  V30 25924 C 2484.09 3.05492 -3.13039 0
M  V30 25925 C 2483.15 4.24377 -3.11112 0
M  V30 25926 O 2482.18 4.19338 -3.84896 0
M  V30 25927 N 2483.38 5.32018 -2.32243 0
M  V30 25928 H 2486.15 1.26894 -2.71511 0
M  V30 25929 H 2483.71 0.550888 -1.52239 0
M  V30 25930 H 2485.7 3.62705 -1.7952 0
M  V30 25931 H 2484.27 2.97642 -0.955395 0
M  V30 25932 H 2483.49 2.15436 -3.30122 0
M  V30 25933 H 2484.78 3.16037 -3.98746 0
M  V30 25934 H 2484.17 5.38976 -1.71816 0
M  V30 25935 H 2482.73 6.08255 -2.34241 0
M  V30 25936 N 2486.16 1.44842 0.621179 0
M  V30 25937 C 2487.41 1.47855 1.3778 0
M  V30 25938 C 2487.73 0.116258 1.94653 0
M  V30 25939 O 2487 -0.852706 1.76368 0
M  V30 25940 H 2485.58 0.544458 0.511443 0
M  V30 25941 H 2488.25 1.80696 0.730414 0
M  V30 25942 H 2487.34 2.20965 2.20411 0
M  V30 25943 N 2487.64 -0.862479 1.31905 0
M  V30 25944 C 2488.89 -1.6129 1.21778 0
M  V30 25945 C 2489.21 -1.93728 -0.222378 0
M  V30 25946 O 2488.48 -1.58949 -1.14508 0
M  V30 25947 H 2487.06 -0.597954 0.447728 0
M  V30 25948 H 2489.72 -1.03212 1.65328 0
M  V30 25949 H 2488.82 -2.55326 1.79485 0
M  V30 25950 N 2489.12 -1.14988 -1.07775 0
M  V30 25951 C 2490.37 -0.920266 -1.79932 0
M  V30 25952 C 2490.69 0.554303 -1.86956 0
M  V30 25953 O 2489.96 1.40289 -1.36733 0
M  V30 25954 H 2488.54 -0.337485 -0.666418 0
M  V30 25955 H 2491.2 -1.4497 -1.30267 0
M  V30 25956 H 2490.3 -1.32588 -2.82537 0
M  V30 25957 N 2490.6 1.26049 -0.946007 0
M  V30 25958 C 2492.01 1.75456 -0.638127 0
M  V30 25959 C 2492.36 1.76993 0.846641 0
M  V30 25960 O 2491.49 1.38516 1.66259 0
M  V30 25961 C 2492.08 3.18627 -1.15162 0
M  V30 25962 C 2490.64 3.65627 -0.894068 0
M  V30 25963 C 2489.79 2.44954 -1.29972 0
M  V30 25964 H 2492.74 1.12058 -1.12378 0
M  V30 25965 H 2492.76 3.77098 -0.507681 0
M  V30 25966 H 2492.27 3.17476 -2.23227 0
M  V30 25967 H 2490.37 3.72203 0.171992 0
M  V30 25968 H 2490.48 4.54199 -1.52447 0
M  V30 25969 H 2488.85 2.44367 -0.718121 0
M  V30 25970 H 2489.63 2.46501 -2.3894 0
M  V30 25971 N 2492.08 0.71358 1.4052 0
M  V30 25972 C 2493.04 0.068475 2.29098 0
M  V30 25973 C 2494.04 -0.689446 1.4527 0
M  V30 25974 O 2495.23 -0.521648 1.66206 0
M  V30 25975 C 2492.36 -0.912966 3.28447 0
M  V30 25976 H 2493.55 0.848601 2.87643 0
M  V30 25977 H 2491.11 0.478116 1.48808 0
M  V30 25978 H 2491.84 -1.72022 2.74916 0
M  V30 25979 H 2491.63 -0.372403 3.90328 0
M  V30 25980 H 2493.12 -1.36158 3.9478 0
M  V30 25981 N 2493.55 -1.50749 0.459618 0
M  V30 25982 C 2494.78 -2.06671 -0.0973386 0
M  V30 25983 C 2495.2 -1.32475 -1.34521 0
M  V30 25984 O 2494.55 -0.390665 -1.7827 0
M  V30 25985 C 2494.61 -3.59313 -0.397077 0
M  V30 25986 O 2494.33 -4.3071 0.801289 0
M  V30 25987 C 2495.83 -4.31821 -1.00226 0
M  V30 25988 H 2493.05 -0.670997 0.00197033 0
M  V30 25989 H 2495.59 -1.94058 0.645106 0
M  V30 25990 H 2493.75 -3.71766 -1.08944 0
M  V30 25991 H 2494.16 -5.21724 0.538949 0
M  V30 25992 H 2495.63 -5.39634 -1.16184 0
M  V30 25993 H 2496.11 -3.91564 -1.98933 0
M  V30 25994 H 2496.72 -4.23869 -0.348625 0
M  V30 25995 N 2495.03 -0.191784 -1.56429 0
M  V30 25996 C 2496 0.71665 -2.17708 0
M  V30 25997 C 2497 1.14339 -1.13063 0
M  V30 25998 O 2498.19 1.05702 -1.38466 0
M  V30 25999 C 2495.32 1.97799 -2.77648 0
M  V30 26000 H 2496.51 0.182847 -2.99342 0
M  V30 26001 H 2494.06 0.0578291 -1.56193 0
M  V30 26002 H 2494.8 2.55439 -1.99803 0
M  V30 26003 H 2494.58 1.68077 -3.54249 0
M  V30 26004 H 2496.07 2.62586 -3.24712 0
M  V30 26005 N 2496.51 1.57387 0.0818378 0
M  V30 26006 C 2497.76 1.86754 0.782882 0
M  V30 26007 C 2498.09 0.782149 1.78081 0
M  V30 26008 O 2497.34 -0.222916 1.94426 0
M  V30 26009 C 2497.64 3.22754 1.53507 0
M  V30 26010 C 2497.31 4.45773 0.678056 0
M  V30 26011 C 2495.97 4.79167 0.441845 0
M  V30 26012 C 2498.32 5.21134 0.0831327 0
M  V30 26013 C 2495.65 5.85342 -0.398936 0
M  V30 26014 C 2498 6.28197 -0.745045 0
M  V30 26015 C 2496.66 6.60099 -0.991223 0
M  V30 26016 H 2495.93 0.683383 0.286477 0
M  V30 26017 H 2498.58 1.9145 0.0439472 0
M  V30 26018 H 2496.89 3.13804 2.34594 0
M  V30 26019 H 2498.58 3.42708 2.08212 0
M  V30 26020 H 2495.17 4.1963 0.872283 0
M  V30 26021 H 2499.36 4.95656 0.25276 0
M  V30 26022 H 2494.61 6.08463 -0.598512 0
M  V30 26023 H 2498.79 6.85758 -1.21283 0
M  V30 26024 H 2496.41 7.42199 -1.6445 0
M  V30 26025 N 2497.99 -0.35299 1.53596 0
M  V30 26026 C 2499.4 -0.69549 1.43649 0
M  V30 26027 C 2499.6 -1.92801 0.585651 0
M  V30 26028 O 2498.66 -2.52395 0.0729667 0
M  V30 26029 C 2499.97 -0.896941 2.87011 0
M  V30 26030 C 2501.52 -0.996157 2.96725 0
M  V30 26031 C 2502 -1.22999 4.41175 0
M  V30 26032 N 2503.49 -1.29741 4.44659 0
M  V30 26033 C 2504.22 -1.49567 5.5355 0
M  V30 26034 N 2503.72 -1.66628 6.72463 0
M  V30 26035 N 2505.51 -1.52038 5.41148 0
M  V30 26036 H 2497.66 0.457518 2.07414 0
M  V30 26037 H 2499.93 0.142703 0.937198 0
M  V30 26038 H 2499.63 -0.062932 3.51644 0
M  V30 26039 H 2499.51 -1.80142 3.31404 0
M  V30 26040 H 2501.89 -1.8207 2.32238 0
M  V30 26041 H 2501.97 -0.0687881 2.55707 0
M  V30 26042 H 2501.62 -0.410416 5.06239 0
M  V30 26043 H 2501.55 -2.17078 4.79776 0
M  V30 26044 H 2504.04 -1.18119 3.58966 0
M  V30 26045 H 2504.35 -1.81365 7.51217 0
M  V30 26046 H 2502.7 -1.63782 6.75426 0
M  V30 26047 H 2505.89 -1.38286 4.47208 0
M  V30 26048 H 2506.06 -1.67148 6.26071 0
M  V30 26049 N 2499.47 -1.45169 -0.613489 0
M  V30 26050 C 2500.71 -1.49098 -1.37469 0
M  V30 26051 C 2501.05 -0.129935 -1.93765 0
M  V30 26052 O 2500.32 0.854827 -1.74708 0
M  V30 26053 C 2500.6 -2.56547 -2.52697 0
M  V30 26054 C 2500.46 -4.02074 -2.01636 0
M  V30 26055 C 2501.78 -2.60333 -3.54844 0
M  V30 26056 H 2498.9 -0.542839 -0.498493 0
M  V30 26057 H 2501.54 -1.76946 -0.692094 0
M  V30 26058 H 2499.69 -2.32931 -3.10927 0
M  V30 26059 H 2501.36 -4.3688 -1.481 0
M  V30 26060 H 2499.6 -4.13011 -1.32681 0
M  V30 26061 H 2500.27 -4.72933 -2.84673 0
M  V30 26062 H 2502.75 -2.81479 -3.06445 0
M  V30 26063 H 2501.63 -3.37388 -4.32967 0
M  V30 26064 H 2501.89 -1.65198 -4.10076 0
M  V30 26065 N 2500.95 0.855472 -1.32361 0
M  V30 26066 C 2502.22 1.59307 -1.13494 0
M  V30 26067 C 2502.6 2.08885 0.304993 0
M  V30 26068 O 2501.95 1.87814 1.30147 0
M  V30 26069 C 2502.16 2.73984 -2.16181 0
M  V30 26070 C 2503.51 3.43585 -2.49469 0
M  V30 26071 O 2504.53 2.84207 -2.1472 0
M  V30 26072 O 2503.39 4.50733 -3.09034 0
M  V30 26073 H 2500.49 0.701551 -0.437899 0
M  V30 26074 H 2503.03 0.899671 -1.43889 0
M  V30 26075 H 2501.8 2.34868 -3.12974 0
M  V30 26076 H 2501.43 3.51 -1.86775 0
M  V30 26077 N 2502.42 1.15558 1.07164 0
M  V30 26078 C 2503.67 0.929795 1.79441 0
M  V30 26079 C 2503.99 -0.544381 1.87247 0
M  V30 26080 O 2503.26 -1.39562 1.37475 0
M  V30 26081 H 2501.84 0.341014 0.664619 0
M  V30 26082 H 2504.5 1.45659 1.29497 0
M  V30 26083 H 2503.6 1.34084 2.8183 0
M  V30 26084 N 2503.9 -1.25546 0.952678 0
M  V30 26085 C 2505.18 -1.88455 0.523851 0
M  V30 26086 C 2505.56 -1.85974 -0.998838 0
M  V30 26087 O 2504.91 -1.32194 -1.86379 0
M  V30 26088 C 2505.12 -3.31269 1.09826 0
M  V30 26089 C 2506.46 -4.08049 1.17392 0
M  V30 26090 O 2507.49 -3.40383 1.04967 0
M  V30 26091 O 2506.35 -5.29085 1.36861 0
M  V30 26092 H 2503.44 -0.80881 0.172499 0
M  V30 26093 H 2505.99 -1.33631 1.04598 0
M  V30 26094 H 2504.76 -3.27495 2.14156 0
M  V30 26095 H 2504.38 -3.93647 0.55926 0
M  V30 26096 N 2505.38 -0.721022 -1.40139 0
M  V30 26097 C 2506.6 -0.271295 -2.05618 0
M  V30 26098 C 2507.03 1.08036 -1.5398 0
M  V30 26099 O 2506.39 1.68166 -0.677493 0
M  V30 26100 C 2506.44 -0.26726 -3.59608 0
M  V30 26101 O 2505.54 0.749743 -4.05528 0
M  V30 26102 H 2504.88 -0.126174 -0.651902 0
M  V30 26103 H 2507.41 -0.983029 -1.79437 0
M  V30 26104 H 2507.42 -0.106816 -4.0786 0
M  V30 26105 H 2506.1 -1.25361 -3.96557 0
M  V30 26106 H 2504.67 0.556579 -3.68723 0
M  V30 26107 N 2506.86 1.50503 -0.467606 0
M  V30 26108 C 2508.27 1.86696 -0.0116494 0
M  V30 26109 C 2508.62 1.38267 1.392 0
M  V30 26110 O 2507.74 0.746168 2.03129 0
M  V30 26111 C 2508.34 3.38797 -0.014364 0
M  V30 26112 C 2506.9 3.74414 0.386109 0
M  V30 26113 C 2506.05 2.7438 -0.401335 0
M  V30 26114 H 2509 1.43296 -0.682047 0
M  V30 26115 H 2509.02 3.72239 0.788576 0
M  V30 26116 H 2508.53 3.74015 -1.03608 0
M  V30 26117 H 2506.63 3.44796 1.41231 0
M  V30 26118 H 2506.74 4.79016 0.0898754 0
M  V30 26119 H 2505.11 2.5429 0.144491 0
M  V30 26120 H 2505.89 3.12442 -1.4225 0
M  V30 26121 N 2508.34 0.200077 1.56325 0
M  V30 26122 C 2509.25 -0.730629 2.22933 0
M  V30 26123 C 2510.26 -1.23074 1.22999 0
M  V30 26124 O 2511.44 -1.27686 1.55751 0
M  V30 26125 C 2508.5 -1.93093 2.87951 0
M  V30 26126 C 2507.56 -1.4749 4.03169 0
M  V30 26127 C 2506.8 -2.61799 4.65078 0
M  V30 26128 O 2507.02 -3.79406 4.2592 0
M  V30 26129 O 2505.95 -2.34227 5.54456 0
M  V30 26130 H 2509.78 -0.193338 3.03084 0
M  V30 26131 H 2507.36 -0.0294359 1.49371 0
M  V30 26132 H 2509.25 -2.63234 3.29068 0
M  V30 26133 H 2507.92 -2.45673 2.10776 0
M  V30 26134 H 2506.83 -0.742137 3.66665 0
M  V30 26135 H 2508.16 -0.995711 4.82023 0
M  V30 26136 N 2509.81 -1.57429 -0.0734901 0
M  V30 26137 C 2511.04 -1.91775 -0.789753 0
M  V30 26138 C 2511.46 -0.796336 -1.70412 0
M  V30 26139 O 2510.82 0.250929 -1.79555 0
M  V30 26140 C 2510.87 -3.25069 -1.56084 0
M  V30 26141 O 2509.97 -3.14183 -2.67138 0
M  V30 26142 H 2509.31 -0.628033 -0.215571 0
M  V30 26143 H 2511.84 -2.04556 -0.0422421 0
M  V30 26144 H 2511.85 -3.58902 -1.94045 0
M  V30 26145 H 2510.53 -4.06267 -0.889943 0
M  V30 26146 H 2509.11 -2.91905 -2.32047 0
M  V30 26147 N 2511.29 0.344839 -1.53781 0
M  V30 26148 C 2512.71 0.687863 -1.44016 0
M  V30 26149 C 2512.91 1.92488 -0.595868 0
M  V30 26150 O 2511.96 2.52352 -0.0863508 0
M  V30 26151 C 2513.28 0.881707 -2.87483 0
M  V30 26152 C 2514.82 0.980407 -2.97249 0
M  V30 26153 C 2515.3 1.20658 -4.41821 0
M  V30 26154 N 2516.79 1.27381 -4.45341 0
M  V30 26155 C 2517.53 1.46629 -5.54335 0
M  V30 26156 N 2517.02 1.63059 -6.73338 0
M  V30 26157 N 2518.81 1.49166 -5.41946 0
M  V30 26158 H 2510.97 -0.468511 -2.07168 0
M  V30 26159 H 2513.23 -0.147672 -0.936428 0
M  V30 26160 H 2512.93 0.0442826 -3.51672 0
M  V30 26161 H 2512.81 1.78382 -3.32355 0
M  V30 26162 H 2515.2 1.80835 -2.33201 0
M  V30 26163 H 2515.28 0.0552264 -2.5574 0
M  V30 26164 H 2514.92 0.383563 -5.0645 0
M  V30 26165 H 2514.85 2.1453 -4.8092 0
M  V30 26166 H 2517.34 1.16214 -3.59587 0
M  V30 26167 H 2517.65 1.77378 -7.52168 0
M  V30 26168 H 2516 1.60197 -6.76285 0
M  V30 26169 H 2519.19 1.35912 -4.47935 0
M  V30 26170 H 2519.36 1.63826 -6.26949 0
M  V30 26171 N 2512.77 1.45492 0.605781 0
M  V30 26172 C 2513.7 1.57146 1.72706 0
M  V30 26173 C 2514.68 0.422913 1.64759 0
M  V30 26174 O 2515.87 0.646279 1.83131 0
M  V30 26175 C 2513 1.53953 3.11313 0
M  V30 26176 C 2511.95 2.67543 3.34073 0
M  V30 26177 C 2511.28 2.49405 4.72971 0
M  V30 26178 C 2512.58 4.09541 3.24151 0
M  V30 26179 H 2514.27 2.51004 1.6321 0
M  V30 26180 H 2511.82 1.20802 0.783769 0
M  V30 26181 H 2513.77 1.60703 3.89554 0
M  V30 26182 H 2512.49 0.566261 3.21654 0
M  V30 26183 H 2511.15 2.60225 2.58222 0
M  V30 26184 H 2510.8 1.50213 4.80047 0
M  V30 26185 H 2510.5 3.25579 4.89154 0
M  V30 26186 H 2512.02 2.58011 5.5341 0
M  V30 26187 H 2513.44 4.18093 3.92264 0
M  V30 26188 H 2511.83 4.86119 3.51863 0
M  V30 26189 H 2512.9 4.31321 2.21563 0
M  V30 26190 N 2514.25 -0.848441 1.32813 0
M  V30 26191 C 2515.48 -1.63536 1.26742 0
M  V30 26192 C 2515.89 -1.88091 -0.163451 0
M  V30 26193 O 2515.25 -1.45431 -1.10255 0
M  V30 26194 C 2515.3 -2.99108 2.03018 0
M  V30 26195 O 2515.02 -2.75637 3.40523 0
M  V30 26196 C 2516.52 -3.93549 2.04045 0
M  V30 26197 H 2513.74 -0.509159 0.437033 0
M  V30 26198 H 2516.29 -1.0575 1.75035 0
M  V30 26199 H 2514.44 -3.53522 1.58432 0
M  V30 26200 H 2514.85 -3.61901 3.79642 0
M  V30 26201 H 2516.33 -4.85922 2.61886 0
M  V30 26202 H 2516.81 -4.26993 1.02827 0
M  V30 26203 H 2517.41 -3.45072 2.48606 0
M  V30 26204 N 2515.73 -1.16125 -1.06549 0
M  V30 26205 C 2516.97 -0.942552 -1.79566 0
M  V30 26206 C 2517.31 0.528514 -1.8687 0
M  V30 26207 O 2516.58 1.39204 -1.3584 0
M  V30 26208 C 2516.86 -1.56752 -3.24192 0
M  V30 26209 C 2516.72 -3.10975 -3.24984 0
M  V30 26210 C 2518.04 -1.26005 -4.21676 0
M  V30 26211 H 2515.15 -0.343839 -0.651877 0
M  V30 26212 H 2517.8 -1.43415 -1.24628 0
M  V30 26213 H 2515.95 -1.14948 -3.71105 0
M  V30 26214 H 2517.62 -3.61742 -2.86252 0
M  V30 26215 H 2515.86 -3.44441 -2.6371 0
M  V30 26216 H 2516.53 -3.49823 -4.26999 0
M  V30 26217 H 2519.01 -1.6218 -3.83193 0
M  V30 26218 H 2517.88 -1.72339 -5.21143 0
M  V30 26219 H 2518.15 -0.178445 -4.4174 0
M  V30 26220 N 2517.2 1.25039 -0.959323 0
M  V30 26221 C 2518.62 1.74769 -0.6567 0
M  V30 26222 C 2518.97 1.77881 0.827821 0
M  V30 26223 O 2518.09 1.40272 1.64781 0
M  V30 26224 C 2518.69 3.17387 -1.18535 0
M  V30 26225 C 2517.25 3.64659 -0.932798 0
M  V30 26226 C 2516.39 2.43562 -1.32563 0
M  V30 26227 H 2519.34 1.1086 -1.1356 0
M  V30 26228 H 2519.36 3.76538 -0.547649 0
M  V30 26229 H 2518.88 3.15091 -2.26582 0
M  V30 26230 H 2516.98 3.72364 0.132505 0
M  V30 26231 H 2517.09 4.52557 -1.57256 0
M  V30 26232 H 2515.45 2.43591 -0.743999 0
M  V30 26233 H 2516.24 2.43953 -2.41541 0
M  V30 26234 N 2518.68 0.728444 1.39755 0
M  V30 26235 C 2519.93 0.272982 2.00248 0
M  V30 26236 C 2520.25 -1.14175 1.58079 0
M  V30 26237 O 2519.52 -1.77632 0.826046 0
M  V30 26238 H 2518.1 0.0979377 0.740552 0
M  V30 26239 H 2520.76 0.936942 1.70902 0
M  V30 26240 H 2519.86 0.316196 3.10494 0
M  V30 26241 N 2520.16 -1.50253 0.475581 0
M  V30 26242 C 2521.09 -2.31485 -0.306069 0
M  V30 26243 C 2522.07 -1.38593 -0.986204 0
M  V30 26244 O 2523.26 -1.67512 -0.982511 0
M  V30 26245 C 2520.39 -3.18453 -1.38583 0
M  V30 26246 C 2519.34 -4.19933 -0.827041 0
M  V30 26247 C 2518.67 -4.95668 -2.00542 0
M  V30 26248 C 2519.97 -5.2204 0.164722 0
M  V30 26249 H 2521.66 -2.97081 0.371918 0
M  V30 26250 H 2519.21 -1.42867 0.180307 0
M  V30 26251 H 2521.16 -3.74079 -1.94017 0
M  V30 26252 H 2519.88 -2.50751 -2.09265 0
M  V30 26253 H 2518.54 -3.65414 -0.294637 0
M  V30 26254 H 2518.19 -4.24435 -2.69933 0
M  V30 26255 H 2517.89 -5.64315 -1.63774 0
M  V30 26256 H 2519.41 -5.54131 -2.56459 0
M  V30 26257 H 2520.83 -5.72511 -0.300598 0
M  V30 26258 H 2519.23 -5.98433 0.446918 0
M  V30 26259 H 2520.3 -4.7251 1.08913 0
M  V30 26260 N 2521.64 -0.208365 -1.56217 0
M  V30 26261 C 2522.86 0.435187 -2.02783 0
M  V30 26262 C 2523.29 1.53483 -1.0874 0
M  V30 26263 O 2522.65 1.81152 -0.0732173 0
M  V30 26264 C 2522.69 0.956274 -3.47689 0
M  V30 26265 O 2521.8 2.06843 -3.56777 0
M  V30 26266 H 2521.14 0.100146 -0.656404 0
M  V30 26267 H 2523.67 -0.323135 -2.02032 0
M  V30 26268 H 2523.68 1.26948 -3.87747 0
M  V30 26269 H 2522.35 0.151357 -4.15624 0
M  V30 26270 H 2520.93 1.76286 -3.286 0
M  V30 26271 N 2523.12 1.57465 0.0651402 0
M  V30 26272 C 2524.03 2.07507 1.09444 0
M  V30 26273 C 2525.04 1.00597 1.41973 0
M  V30 26274 O 2526.22 1.3211 1.52016 0
M  V30 26275 C 2523.28 2.51457 2.38684 0
M  V30 26276 C 2522.34 3.72695 2.13066 0
M  V30 26277 C 2521.58 4.14539 3.36144 0
M  V30 26278 O 2521.8 3.56197 4.45511 0
M  V30 26279 O 2520.73 5.07277 3.23965 0
M  V30 26280 H 2524.56 2.95539 0.699298 0
M  V30 26281 H 2522.15 1.46758 0.279726 0
M  V30 26282 H 2524.03 2.80218 3.14732 0
M  V30 26283 H 2522.7 1.66551 2.77565 0
M  V30 26284 H 2521.61 3.49007 1.34703 0
M  V30 26285 H 2522.94 4.58473 1.79062 0
M  V30 26286 N 2524.59 -0.336679 1.53962 0
M  V30 26287 C 2525.54 -1.43398 1.83139 0
M  V30 26288 C 2526.54 -1.54154 0.70234 0
M  V30 26289 O 2527.74 -1.56696 0.885792 0
M  V30 26290 H 2524.12 -0.478263 0.580318 0
M  V30 26291 H 2526.09 -1.16007 2.74927 0
M  V30 26292 C 2524.84 -2.79819 2.0639 0
M  V30 26293 H 2524.16 -2.72311 2.92723 0
M  V30 26294 H 2525.6 -3.557 2.30767 0
M  V30 26295 C 2524.06 -3.25963 0.851472 0
M  V30 26296 O 2524.59 -4.01663 0.054261 0
M  V30 26297 N 2522.8 -2.82847 0.66677 0
M  V30 26298 H 2522.34 -2.21407 1.31669 0
M  V30 26299 H 2522.3 -3.14075 -0.142977 0
M  V30 26300 N 2526.07 -1.45812 -0.598057 0
M  V30 26301 C 2527.32 -1.50548 -1.35879 0
M  V30 26302 C 2527.65 -0.150479 -1.93616 0
M  V30 26303 O 2526.93 0.836249 -1.75605 0
M  V30 26304 C 2527.21 -2.59213 -2.49962 0
M  V30 26305 C 2527.06 -4.0419 -1.9736 0
M  V30 26306 C 2528.38 -2.64082 -3.52063 0
M  V30 26307 H 2525.5 -0.548095 -0.492707 0
M  V30 26308 H 2528.14 -1.77671 -0.673288 0
M  V30 26309 H 2526.29 -2.36216 -3.08439 0
M  V30 26310 H 2527.96 -4.38426 -1.43458 0
M  V30 26311 H 2526.21 -4.14395 -1.28293 0
M  V30 26312 H 2526.88 -4.75925 -2.79641 0
M  V30 26313 H 2529.35 -2.84713 -3.03443 0
M  V30 26314 H 2528.23 -3.41961 -4.29364 0
M  V30 26315 H 2528.49 -1.69538 -4.08301 0
M  V30 26316 N 2527.55 0.841385 -1.33261 0
M  V30 26317 C 2528.96 1.41267 -1.22068 0
M  V30 26318 C 2529.31 1.95535 0.161445 0
M  V30 26319 O 2528.44 1.8861 1.06091 0
M  V30 26320 C 2529.03 2.56796 -2.21001 0
M  V30 26321 C 2527.59 3.09885 -2.13655 0
M  V30 26322 C 2526.74 1.82675 -2.08626 0
M  V30 26323 H 2529.69 0.64737 -1.44896 0
M  V30 26324 H 2529.71 3.34353 -1.81626 0
M  V30 26325 H 2529.22 2.17268 -3.21584 0
M  V30 26326 H 2527.32 3.53963 -1.16366 0
M  V30 26327 H 2527.44 3.70228 -3.04085 0
M  V30 26328 H 2525.8 2.02821 -1.54064 0
M  V30 26329 H 2526.58 1.45347 -3.11013 0
M  V30 26330 N 2529.03 1.16688 1.05932 0
M  V30 26331 C 2530.26 0.973547 1.82224 0
M  V30 26332 C 2530.67 -0.4815 1.82971 0
M  V30 26333 O 2530.01 -1.34602 1.25012 0
M  V30 26334 C 2530.07 1.42864 3.29894 0
M  V30 26335 C 2529.74 2.90431 3.52844 0
M  V30 26336 C 2530.73 3.88413 3.45588 0
M  V30 26337 C 2528.42 3.28435 3.80047 0
M  V30 26338 C 2530.41 5.224 3.65208 0
M  V30 26339 C 2528.1 4.6259 3.99317 0
M  V30 26340 C 2529.1 5.59381 3.91895 0
M  V30 26341 O 2528.79 6.91111 4.10635 0
M  V30 26342 H 2528.52 0.345046 0.581308 0
M  V30 26343 H 2531.07 1.55215 1.34527 0
M  V30 26344 H 2529.3 0.793543 3.7847 0
M  V30 26345 H 2530.99 1.20214 3.8769 0
M  V30 26346 H 2531.76 3.60399 3.24557 0
M  V30 26347 H 2527.64 2.5367 3.84932 0
M  V30 26348 H 2531.18 5.97936 3.59331 0
M  V30 26349 H 2527.08 4.90313 4.19837 0
M  V30 26350 H 2527.84 6.9774 4.27903 0
M  V30 26351 N 2530.51 -1.24529 0.96594 0
M  V30 26352 C 2531.45 -2.2545 0.49406 0
M  V30 26353 C 2532.42 -1.59619 -0.459452 0
M  V30 26354 O 2533.61 -1.87174 -0.370205 0
M  V30 26355 C 2530.75 -3.44453 -0.211298 0
M  V30 26356 C 2529.86 -4.24886 0.780775 0
M  V30 26357 C 2529 -5.31175 0.0517039 0
M  V30 26358 C 2528.04 -6.03304 1.03396 0
M  V30 26359 N 2527.17 -7.013 0.33501 0
M  V30 26360 H 2532.01 -2.65182 1.35951 0
M  V30 26361 H 2529.55 -1.30359 0.681538 0
M  V30 26362 H 2531.51 -4.12309 -0.636927 0
M  V30 26363 H 2530.14 -3.05563 -1.04072 0
M  V30 26364 H 2529.19 -3.56584 1.32485 0
M  V30 26365 H 2530.5 -4.74759 1.52987 0
M  V30 26366 H 2529.66 -6.0516 -0.432008 0
M  V30 26367 H 2528.4 -4.82204 -0.730095 0
M  V30 26368 H 2527.4 -5.28124 1.52856 0
M  V30 26369 H 2528.63 -6.54364 1.81617 0
M  V30 26370 H 2526.57 -6.54603 -0.427844 0
M  V30 26371 H 2526.49 -7.49047 1.023 0
M  V30 26372 H 2527.76 -7.79397 -0.126791 0
M  V30 26373 N 2531.99 -0.735845 -1.39367 0
M  V30 26374 C 2533.23 -0.284159 -2.00496 0
M  V30 26375 C 2533.56 1.12886 -1.58389 0
M  V30 26376 O 2532.82 1.78404 -0.80439 0
M  V30 26377 C 2533.11 -0.334714 -3.55829 0
M  V30 26378 C 2532.78 -1.70087 -4.1759 0
M  V30 26379 C 2531.44 -2.07479 -4.34173 0
M  V30 26380 C 2533.79 -2.59783 -4.51843 0
M  V30 26381 C 2531.12 -3.34074 -4.82298 0
M  V30 26382 C 2533.47 -3.8575 -5.01378 0
M  V30 26383 C 2532.14 -4.23234 -5.16168 0
M  V30 26384 H 2531.41 -0.103981 -0.733668 0
M  V30 26385 H 2534.06 -0.942854 -1.66681 0
M  V30 26386 H 2532.36 0.407557 -3.89675 0
M  V30 26387 H 2534.06 0.0329222 -4.00986 0
M  V30 26388 H 2530.65 -1.40016 -4.05085 0
M  V30 26389 H 2534.83 -2.32165 -4.38649 0
M  V30 26390 H 2530.09 -3.63057 -4.91934 0
M  V30 26391 H 2534.26 -4.55409 -5.26855 0
M  V30 26392 H 2531.89 -5.21394 -5.5322 0
M  V30 26393 N 2533.46 1.49999 -0.483543 0
M  V30 26394 C 2534.41 2.28788 0.304124 0
M  V30 26395 C 2535.38 1.34394 0.97609 0
M  V30 26396 O 2536.57 1.63341 0.986128 0
M  V30 26397 C 2533.71 3.16615 1.37292 0
M  V30 26398 C 2532.82 4.26051 0.714486 0
M  V30 26399 C 2531.95 5.01117 1.76223 0
M  V30 26400 C 2530.99 6.02412 1.08472 0
M  V30 26401 N 2530.13 6.7071 2.07588 0
M  V30 26402 H 2534.97 2.95643 -0.374033 0
M  V30 26403 H 2532.51 1.45784 -0.1963 0
M  V30 26404 H 2534.46 3.65896 2.00439 0
M  V30 26405 H 2533.09 2.51779 2.02007 0
M  V30 26406 H 2532.15 3.80388 -0.0298467 0
M  V30 26407 H 2533.46 4.98474 0.180296 0
M  V30 26408 H 2532.61 5.5418 2.46919 0
M  V30 26409 H 2531.35 4.28428 2.33025 0
M  V30 26410 H 2530.36 5.48597 0.363448 0
M  V30 26411 H 2531.58 6.7708 0.523432 0
M  V30 26412 H 2529.53 6.00804 2.63384 0
M  V30 26413 H 2529.44 7.3905 1.59188 0
M  V30 26414 H 2530.71 7.28385 2.77626 0
M  V30 26415 N 2534.94 0.216646 1.56104 0
M  V30 26416 C 2536.19 -0.416998 1.98467 0
M  V30 26417 C 2536.52 -1.59763 1.10405 0
M  V30 26418 O 2535.8 -1.93835 0.160666 0
M  V30 26419 C 2536.08 -0.856308 3.4977 0
M  V30 26420 C 2535.93 0.327625 4.48605 0
M  V30 26421 C 2537.25 -1.71423 4.05342 0
M  V30 26422 H 2534.37 -0.150099 0.721553 0
M  V30 26423 H 2537.01 0.311897 1.87423 0
M  V30 26424 H 2535.16 -1.47738 3.59313 0
M  V30 26425 H 2536.83 0.965697 4.51079 0
M  V30 26426 H 2535.08 0.975879 4.22681 0
M  V30 26427 H 2535.75 -0.0226179 5.51995 0
M  V30 26428 H 2538.22 -1.19024 3.98714 0
M  V30 26429 H 2537.1 -1.99052 5.11536 0
M  V30 26430 H 2537.36 -2.67587 3.51923 0
M  V30 26431 N 2536.42 -1.57498 -0.0567885 0
M  V30 26432 C 2537.35 -2.01466 -1.09289 0
M  V30 26433 C 2538.36 -0.922936 -1.34111 0
M  V30 26434 O 2539.55 -1.20064 -1.32086 0
M  V30 26435 C 2536.65 -2.3513 -2.44064 0
M  V30 26436 C 2535.83 -3.66338 -2.38989 0
M  V30 26437 C 2534.89 -3.87501 -3.5599 0
M  V30 26438 O 2533.91 -4.58907 -3.36738 0
M  V30 26439 N 2535.11 -3.31004 -4.76882 0
M  V30 26440 H 2537.88 -2.90964 -0.718335 0
M  V30 26441 H 2535.44 -1.60032 -0.245207 0
M  V30 26442 H 2537.43 -2.46448 -3.21007 0
M  V30 26443 H 2536 -1.51445 -2.73465 0
M  V30 26444 H 2535.22 -3.65633 -1.47329 0
M  V30 26445 H 2536.51 -4.52463 -2.32712 0
M  V30 26446 H 2535.91 -2.73073 -4.95427 0
M  V30 26447 H 2534.46 -3.47747 -5.51285 0
M  V30 26448 N 2537.9 0.328509 -1.54138 0
M  V30 26449 C 2538.86 1.38706 -1.82465 0
M  V30 26450 C 2539.86 1.44945 -0.696254 0
M  V30 26451 O 2541.05 1.45058 -0.964561 0
M  V30 26452 C 2538.18 2.77488 -1.98023 0
M  V30 26453 H 2539.38 1.14846 -2.77039 0
M  V30 26454 H 2536.93 0.563725 -1.4578 0
M  V30 26455 H 2537.66 3.06611 -1.05643 0
M  V30 26456 H 2537.45 2.74354 -2.80129 0
M  V30 26457 H 2538.94 3.54077 -2.21403 0
M  V30 26458 N 2539.38 1.46127 0.590316 0
M  V30 26459 C 2540.79 1.30914 0.912894 0
M  V30 26460 C 2540.99 0.274928 1.99616 0
M  V30 26461 O 2540.05 -0.325153 2.50398 0
M  V30 26462 C 2541.36 2.69319 1.33745 0
M  V30 26463 C 2542.91 2.7735 1.45072 0
M  V30 26464 C 2543.38 4.1632 1.90897 0
M  V30 26465 N 2544.87 4.187 1.98103 0
M  V30 26466 C 2545.61 5.23113 2.34819 0
M  V30 26467 N 2545.11 6.3786 2.70381 0
M  V30 26468 N 2546.9 5.10477 2.35308 0
M  V30 26469 H 2539.05 2.1203 -0.125395 0
M  V30 26470 H 2541.31 0.947977 0.00656814 0
M  V30 26471 H 2541.02 3.46271 0.615554 0
M  V30 26472 H 2540.89 2.98924 2.30053 0
M  V30 26473 H 2543.28 2.00691 2.1635 0
M  V30 26474 H 2543.36 2.51438 0.470355 0
M  V30 26475 H 2543 4.93472 1.202 0
M  V30 26476 H 2542.93 4.39634 2.89878 0
M  V30 26477 H 2545.43 3.35903 1.7314 0
M  V30 26478 H 2545.74 7.13313 2.97329 0
M  V30 26479 H 2544.08 6.41234 2.68037 0
M  V30 26480 H 2547.27 4.19872 2.06943 0
M  V30 26481 H 2547.45 5.91964 2.63595 0
M  V30 26482 N 2540.85 -0.834306 1.33705 0
M  V30 26483 C 2542.08 -1.62182 1.2847 0
M  V30 26484 C 2542.5 -1.88254 -0.143493 0
M  V30 26485 O 2541.85 -1.46592 -1.08706 0
M  V30 26486 C 2541.9 -2.96938 2.06179 0
M  V30 26487 O 2541.63 -2.7201 3.43427 0
M  V30 26488 C 2543.13 -3.91362 2.08208 0
M  V30 26489 H 2540.35 -0.504495 0.442409 0
M  V30 26490 H 2542.89 -1.03888 1.76146 0
M  V30 26491 H 2541.05 -3.51822 1.62173 0
M  V30 26492 H 2541.46 -3.57854 3.83459 0
M  V30 26493 H 2542.93 -4.83117 2.67025 0
M  V30 26494 H 2543.41 -4.25879 1.0735 0
M  V30 26495 H 2544.02 -3.42416 2.52252 0
M  V30 26496 N 2542.33 -1.17248 -1.05312 0
M  V30 26497 C 2543.56 -0.984625 -1.81969 0
M  V30 26498 C 2543.97 0.467134 -1.8293 0
M  V30 26499 O 2543.33 1.32436 -1.25566 0
M  V30 26500 C 2543.38 -1.51677 -3.28141 0
M  V30 26501 O 2543.1 -2.91169 -3.27342 0
M  V30 26502 C 2544.6 -1.37333 -4.21491 0
M  V30 26503 H 2541.82 -0.348421 -0.573449 0
M  V30 26504 H 2544.37 -1.55509 -1.32806 0
M  V30 26505 H 2542.52 -0.988367 -3.7458 0
M  V30 26506 H 2542.94 -3.15739 -4.18818 0
M  V30 26507 H 2544.41 -1.79384 -5.2204 0
M  V30 26508 H 2544.89 -0.320246 -4.38031 0
M  V30 26509 H 2545.49 -1.89185 -3.80906 0
M  V30 26510 N 2543.81 1.24015 -0.972531 0
M  V30 26511 C 2544.72 2.28892 -0.51434 0
M  V30 26512 C 2545.74 1.68678 0.427048 0
M  V30 26513 O 2546.91 1.9917 0.298904 0
M  V30 26514 C 2543.98 3.46214 0.183537 0
M  V30 26515 C 2543.04 4.21813 -0.798276 0
M  V30 26516 C 2542.27 5.33533 -0.133608 0
M  V30 26517 O 2542.49 5.60139 1.07704 0
M  V30 26518 O 2541.43 5.96175 -0.828208 0
M  V30 26519 H 2545.25 2.70212 -1.38633 0
M  V30 26520 H 2542.84 1.29798 -0.739792 0
M  V30 26521 H 2544.72 4.17454 0.57536 0
M  V30 26522 H 2543.4 3.06862 1.03042 0
M  V30 26523 H 2542.3 3.52929 -1.24065 0
M  V30 26524 H 2543.64 4.64994 -1.61372 0
M  V30 26525 N 2545.29 0.743226 1.38974 0
M  V30 26526 C 2546.54 0.294205 1.99947 0
M  V30 26527 C 2546.86 -1.12492 1.59281 0
M  V30 26528 O 2546.13 -1.76746 0.844839 0
M  V30 26529 H 2544.71 0.105787 0.739472 0
M  V30 26530 H 2547.37 0.955016 1.69898 0
M  V30 26531 H 2546.47 0.349111 3.10141 0
M  V30 26532 N 2546.77 -1.4974 0.491491 0
M  V30 26533 C 2548.01 -2.02421 -0.05639 0
M  V30 26534 C 2548.34 -1.37195 -1.37869 0
M  V30 26535 O 2547.6 -0.493542 -1.89374 0
M  V30 26536 C 2547.9 -3.56399 -0.267266 0
M  V30 26537 C 2547.56 -4.40213 0.975853 0
M  V30 26538 C 2546.22 -4.62837 1.31664 0
M  V30 26539 C 2548.58 -4.89036 1.80259 0
M  V30 26540 C 2545.9 -5.31528 2.48385 0
M  V30 26541 C 2548.26 -5.5901 2.96126 0
M  V30 26542 C 2546.92 -5.79882 3.30595 0
M  V30 26543 H 2546.19 -0.740713 -0.0206346 0
M  V30 26544 H 2548.84 -1.80141 0.649718 0
M  V30 26545 H 2547.14 -3.77306 -1.05581 0
M  V30 26546 H 2548.84 -3.94745 -0.70548 0
M  V30 26547 H 2545.43 -4.22839 0.700389 0
M  V30 26548 H 2549.61 -4.71394 1.55247 0
M  V30 26549 H 2544.87 -5.45892 2.7534 0
M  V30 26550 H 2549.04 -5.95817 3.6052 0
M  V30 26551 H 2546.67 -6.32884 4.21143 0
M  V30 26552 N 2548.24 -0.224922 -1.55987 0
M  V30 26553 C 2549.49 0.405064 -1.97999 0
M  V30 26554 C 2549.81 1.60054 -1.1139 0
M  V30 26555 O 2549.08 1.9496 -0.191679 0
M  V30 26556 H 2547.66 0.152645 -0.731238 0
M  V30 26557 H 2550.33 -0.318601 -1.92278 0
M  V30 26558 H 2549.42 0.729113 -3.03464 0
M  V30 26559 N 2549.72 1.57526 0.0484352 0
M  V30 26560 C 2551.13 1.76882 0.597455 0
M  V30 26561 C 2551.48 0.853506 1.76663 0
M  V30 26562 O 2550.61 0.0434036 2.16356 0
M  V30 26563 C 2551.2 3.20767 1.0906 0
M  V30 26564 C 2549.76 3.41387 1.58529 0
M  V30 26565 C 2548.91 2.72479 0.51482 0
M  V30 26566 H 2551.86 1.57701 -0.177786 0
M  V30 26567 H 2551.88 3.26214 1.95869 0
M  V30 26568 H 2551.39 3.87361 0.239452 0
M  V30 26569 H 2549.5 2.79941 2.45893 0
M  V30 26570 H 2549.61 4.49932 1.64614 0
M  V30 26571 H 2547.97 2.35696 0.965366 0
M  V30 26572 H 2548.76 3.41743 -0.326541 0
M  V30 26573 N 2551.2 -0.32033 1.5431 0
M  V30 26574 C 2552.11 -1.4173 1.86948 0
M  V30 26575 C 2553.13 -1.56441 0.761717 0
M  V30 26576 O 2554.3 -1.71475 1.05632 0
M  V30 26577 C 2551.37 -2.76397 2.09297 0
M  V30 26578 C 2550.43 -2.70835 3.33087 0
M  V30 26579 C 2549.66 -3.99079 3.5436 0
M  V30 26580 O 2549.88 -4.97503 2.79011 0
M  V30 26581 O 2548.82 -4.02142 4.47845 0
M  V30 26582 H 2552.64 -1.17057 2.80234 0
M  V30 26583 H 2550.23 -0.514649 1.40256 0
M  V30 26584 H 2552.11 -3.56109 2.25309 0
M  V30 26585 H 2550.79 -3.00954 1.19199 0
M  V30 26586 H 2549.69 -1.89663 3.22458 0
M  V30 26587 H 2551.03 -2.51232 4.23253 0
M  V30 26588 N 2552.68 -1.46438 -0.582558 0
M  V30 26589 C 2554.09 -1.31396 -0.905939 0
M  V30 26590 C 2554.29 -0.285511 -1.99467 0
M  V30 26591 O 2553.35 0.311869 -2.50567 0
M  V30 26592 C 2554.66 -2.70024 -1.32315 0
M  V30 26593 C 2556.21 -2.78116 -1.43599 0
M  V30 26594 C 2556.69 -4.17326 -1.88687 0
M  V30 26595 N 2558.18 -4.19744 -1.9588 0
M  V30 26596 C 2558.91 -5.24351 -2.32042 0
M  V30 26597 N 2558.41 -6.39285 -2.66995 0
M  V30 26598 N 2560.2 -5.11718 -2.32597 0
M  V30 26599 H 2552.35 -2.1196 0.136638 0
M  V30 26600 H 2554.62 -0.947999 -0.0015407 0
M  V30 26601 H 2554.32 -3.46593 -0.597181 0
M  V30 26602 H 2554.2 -3.0014 -2.28464 0
M  V30 26603 H 2556.58 -2.01835 -2.15282 0
M  V30 26604 H 2556.66 -2.51684 -0.457014 0
M  V30 26605 H 2556.31 -4.94102 -1.17582 0
M  V30 26606 H 2556.24 -4.41165 -2.87543 0
M  V30 26607 H 2558.73 -3.36817 -1.71356 0
M  V30 26608 H 2559.04 -7.1488 -2.93542 0
M  V30 26609 H 2557.39 -6.42646 -2.64633 0
M  V30 26610 H 2560.58 -4.20963 -2.04713 0
M  V30 26611 H 2560.75 -5.93354 -2.60452 0
M  V30 26612 N 2554.16 0.827204 -1.34146 0
M  V30 26613 C 2555.07 1.96973 -1.27432 0
M  V30 26614 C 2556.08 1.73038 -0.182758 0
M  V30 26615 O 2557.26 1.97214 -0.408461 0
M  V30 26616 C 2554.32 3.31192 -1.02532 0
M  V30 26617 C 2553.38 3.68164 -2.20802 0
M  V30 26618 C 2552.62 4.95978 -1.97081 0
M  V30 26619 O 2552.84 5.62818 -0.926921 0
M  V30 26620 O 2551.77 5.30728 -2.83921 0
M  V30 26621 H 2555.6 2.0558 -2.23541 0
M  V30 26622 H 2553.19 0.961969 -1.14309 0
M  V30 26623 H 2555.07 4.11587 -0.904099 0
M  V30 26624 H 2553.74 3.23562 -0.0945958 0
M  V30 26625 H 2552.65 2.88231 -2.38483 0
M  V30 26626 H 2553.98 3.80474 -3.1225 0
M  V30 26627 N 2555.63 1.17805 1.04688 0
M  V30 26628 C 2556.88 0.967648 1.77429 0
M  V30 26629 C 2557.2 -0.50454 1.8836 0
M  V30 26630 O 2556.47 -1.36614 1.40404 0
M  V30 26631 H 2555.05 0.355035 0.657236 0
M  V30 26632 H 2557.72 1.48373 1.26378 0
M  V30 26633 H 2556.81 1.40032 2.78922 0
M  V30 26634 N 2557.11 -1.23497 0.979094 0
M  V30 26635 C 2558.36 -1.91184 0.642784 0
M  V30 26636 C 2558.67 -1.77247 -0.827222 0
M  V30 26637 O 2559.88 -2.39724 -1.27454 0
M  V30 26638 C 2558.34 -3.42707 1.09907 0
M  V30 26639 C 2557.94 -3.65309 2.59333 0
M  V30 26640 C 2559.69 -4.16178 0.836444 0
M  V30 26641 C 2557.6 -5.10461 2.98636 0
M  V30 26642 H 2556.53 -0.71588 0.236711 0
M  V30 26643 H 2559.18 -1.39953 1.18682 0
M  V30 26644 H 2557.56 -3.9304 0.483259 0
M  V30 26645 H 2558.73 -3.25528 3.26142 0
M  V30 26646 H 2557.05 -3.05146 2.83328 0
M  V30 26647 H 2559.64 -5.23137 1.10595 0
M  V30 26648 H 2559.99 -4.15678 -0.227436 0
M  V30 26649 H 2560.52 -3.7183 1.41377 0
M  V30 26650 H 2557.26 -5.16091 4.04142 0
M  V30 26651 H 2556.78 -5.51197 2.3652 0
M  V30 26652 H 2558.46 -5.78783 2.89169 0
M  V30 26653 N 2558.59 -0.750586 -1.38578 0
M  V30 26654 C 2559.84 -0.302207 -1.99423 0
M  V30 26655 C 2560.15 1.1215 -1.60255 0
M  V30 26656 O 2561.36 1.67019 -2.14049 0
M  V30 26657 C 2559.82 -0.48937 -3.56557 0
M  V30 26658 C 2559.42 -1.92196 -4.04678 0
M  V30 26659 C 2561.17 -0.103553 -4.24374 0
M  V30 26660 C 2559.07 -2.05785 -5.54443 0
M  V30 26661 H 2558 -0.109243 -0.746044 0
M  V30 26662 H 2560.66 -0.926698 -1.58381 0
M  V30 26663 H 2559.04 0.204259 -3.95473 0
M  V30 26664 H 2560.21 -2.64882 -3.7706 0
M  V30 26665 H 2558.53 -2.26242 -3.49576 0
M  V30 26666 H 2561.12 -0.183881 -5.34384 0
M  V30 26667 H 2561.47 0.943409 -4.05469 0
M  V30 26668 H 2562 -0.748923 -3.90687 0
M  V30 26669 H 2558.74 -3.08725 -5.78247 0
M  V30 26670 H 2558.26 -1.37556 -5.83814 0
M  V30 26671 H 2559.94 -1.84637 -6.20095 0
M  V30 26672 N 2560.07 1.49477 -0.499425 0
M  V30 26673 C 2561.3 2.06856 0.0425093 0
M  V30 26674 C 2561.71 1.35995 1.30962 0
M  V30 26675 O 2561.07 0.437793 1.77171 0
M  V30 26676 C 2561.12 3.60239 0.301672 0
M  V30 26677 O 2560.84 4.28434 -0.915203 0
M  V30 26678 C 2562.34 4.34327 0.887422 0
M  V30 26679 H 2559.56 0.670709 -0.0197599 0
M  V30 26680 H 2562.11 1.9228 -0.69633 0
M  V30 26681 H 2560.26 3.74524 0.99049 0
M  V30 26682 H 2560.68 5.20111 -0.677085 0
M  V30 26683 H 2562.15 5.42525 1.01835 0
M  V30 26684 H 2562.63 3.96701 1.88481 0
M  V30 26685 H 2563.23 4.24644 0.236121 0
M  V30 26686 N 2561.55 0.233191 1.55865 0
M  V30 26687 C 2562.8 -0.395755 1.97779 0
M  V30 26688 C 2563.11 -1.60064 1.12422 0
M  V30 26689 O 2564.32 -2.29986 1.44287 0
M  V30 26690 C 2562.77 -0.755494 3.51881 0
M  V30 26691 C 2562.38 0.42723 4.45958 0
M  V30 26692 C 2564.12 -1.34939 4.02482 0
M  V30 26693 C 2562.03 0.0444083 5.91383 0
M  V30 26694 H 2560.96 -0.151637 0.738595 0
M  V30 26695 H 2563.61 0.331243 1.80486 0
M  V30 26696 H 2561.99 -1.54024 3.64819 0
M  V30 26697 H 2563.17 1.20469 4.44774 0
M  V30 26698 H 2561.48 0.935139 4.05764 0
M  V30 26699 H 2564.08 -1.64891 5.0864 0
M  V30 26700 H 2564.42 -2.26919 3.49018 0
M  V30 26701 H 2564.96 -0.627841 3.92814 0
M  V30 26702 H 2561.69 0.930988 6.48855 0
M  V30 26703 H 2561.21 -0.697133 5.95735 0
M  V30 26704 H 2562.89 -0.378221 6.45894 0
M  V30 26705 N 2563.03 -1.57549 -0.0400806 0
M  V30 26706 C 2563.94 -2.09222 -1.06129 0
M  V30 26707 C 2564.95 -1.02843 -1.40354 0
M  V30 26708 O 2566.13 -1.34512 -1.49895 0
M  V30 26709 C 2563.19 -2.55223 -2.34654 0
M  V30 26710 C 2562.25 -3.76037 -2.0711 0
M  V30 26711 C 2561.49 -4.19834 -3.29507 0
M  V30 26712 O 2561.71 -3.6324 -4.39787 0
M  V30 26713 O 2560.64 -5.12367 -3.15854 0
M  V30 26714 H 2564.47 -2.96614 -0.652192 0
M  V30 26715 H 2562.05 -1.47184 -0.256343 0
M  V30 26716 H 2563.94 -2.85189 -3.10234 0
M  V30 26717 H 2562.61 -1.70946 -2.7488 0
M  V30 26718 H 2561.52 -3.51106 -1.29133 0
M  V30 26719 H 2562.85 -4.61264 -1.71746 0
M  V30 26720 N 2564.5 0.312142 -1.54478 0
M  V30 26721 C 2565.73 1.07232 -1.77528 0
M  V30 26722 C 2566.15 1.80543 -0.527807 0
M  V30 26723 O 2565.51 1.73647 0.521179 0
M  V30 26724 C 2565.56 2.03723 -2.97539 0
M  V30 26725 O 2564.66 3.11828 -2.69884 0
M  V30 26726 H 2564 0.308609 -0.587925 0
M  V30 26727 H 2566.53 0.352957 -2.01533 0
M  V30 26728 H 2566.54 2.46389 -3.25202 0
M  V30 26729 H 2565.22 1.49767 -3.87998 0
M  V30 26730 H 2563.8 2.73755 -2.53204 0
M  V30 26731 N 2565.98 1.46745 0.574784 0
M  V30 26732 C 2566.91 1.53949 1.69801 0
M  V30 26733 C 2567.93 0.427134 1.57097 0
M  V30 26734 O 2569.12 0.695892 1.64376 0
M  V30 26735 C 2566.22 1.41116 3.08123 0
M  V30 26736 C 2565.39 2.66611 3.46753 0
M  V30 26737 C 2564.45 2.47864 4.64166 0
M  V30 26738 O 2563.47 3.21617 4.69629 0
M  V30 26739 N 2564.68 1.54544 5.5955 0
M  V30 26740 H 2567.44 2.50799 1.64073 0
M  V30 26741 H 2565 1.42901 0.760975 0
M  V30 26742 H 2566.99 1.26334 3.84476 0
M  V30 26743 H 2565.56 0.524163 3.08174 0
M  V30 26744 H 2564.78 2.96278 2.60025 0
M  V30 26745 H 2566.07 3.4996 3.69331 0
M  V30 26746 H 2565.47 0.937402 5.57879 0
M  V30 26747 H 2564.03 1.45722 6.35302 0
M  V30 26748 N 2567.46 -0.820078 1.34583 0
M  V30 26749 C 2568.74 -1.56241 1.17677 0
M  V30 26750 C 2569.12 -2.0962 -0.249504 0
M  V30 26751 O 2568.46 -1.91198 -1.25122 0
M  V30 26752 C 2568.67 -2.68156 2.23369 0
M  V30 26753 C 2570.02 -3.36849 2.58491 0
M  V30 26754 O 2571.05 -2.78415 2.2218 0
M  V30 26755 O 2569.91 -4.42381 3.20876 0
M  V30 26756 H 2567 -0.689694 0.456345 0
M  V30 26757 H 2569.55 -0.861205 1.46224 0
M  V30 26758 H 2568.32 -2.26487 3.19091 0
M  V30 26759 H 2567.94 -3.45924 1.96015 0
M  V30 26760 N 2568.94 -1.18359 -1.04062 0
M  V30 26761 C 2570.19 -0.977044 -1.76913 0
M  V30 26762 C 2570.51 0.494544 -1.88625 0
M  V30 26763 O 2569.78 1.35868 -1.41127 0
M  V30 26764 H 2568.36 -0.358516 -0.655344 0
M  V30 26765 H 2571.02 -1.49041 -1.25589 0
M  V30 26766 H 2570.11 -1.41509 -2.78175 0
M  V30 26767 N 2570.42 1.22976 -0.98563 0
M  V30 26768 C 2571.66 1.91153 -0.656121 0
M  V30 26769 C 2571.98 1.77219 0.81353 0
M  V30 26770 O 2571.25 1.15483 1.58242 0
M  V30 26771 H 2569.83 0.707502 -0.239687 0
M  V30 26772 H 2572.5 1.49488 -1.25057 0
M  V30 26773 H 2571.59 2.98468 -0.912305 0
M  V30 26774 N 2571.89 0.757924 1.38178 0
M  V30 26775 C 2573.3 0.383166 1.82726 0
M  V30 26776 C 2573.66 -1.08881 1.63216 0
M  V30 26777 O 2572.78 -1.84203 1.1357 0
M  V30 26778 C 2573.38 0.688689 3.31727 0
M  V30 26779 C 2571.93 0.367157 3.74605 0
M  V30 26780 C 2571.08 0.939645 2.60895 0
M  V30 26781 H 2574.03 0.953721 1.26846 0
M  V30 26782 H 2574.05 -0.0315823 3.80487 0
M  V30 26783 H 2573.57 1.76007 3.45895 0
M  V30 26784 H 2571.67 -0.697468 3.66014 0
M  V30 26785 H 2571.78 0.865741 4.71213 0
M  V30 26786 H 2570.14 0.364745 2.52075 0
M  V30 26787 H 2570.93 2.01615 2.7786 0
M  V30 26788 N 2573.37 -1.4921 0.507345 0
M  V30 26789 C 2574.62 -2.0247 -0.0349173 0
M  V30 26790 C 2574.95 -1.38649 -1.36406 0
M  V30 26791 O 2574.2 -0.5136 -1.8884 0
M  V30 26792 C 2574.5 -3.56663 -0.22945 0
M  V30 26793 C 2574.17 -4.39154 1.02249 0
M  V30 26794 C 2572.83 -4.61415 1.36565 0
M  V30 26795 C 2575.18 -4.87096 1.85436 0
M  V30 26796 C 2572.51 -5.28864 2.54008 0
M  V30 26797 C 2574.86 -5.55838 3.02038 0
M  V30 26798 C 2573.53 -5.76343 3.36727 0
M  V30 26799 H 2572.8 -0.74089 -0.0127772 0
M  V30 26800 H 2575.44 -1.79442 0.668788 0
M  V30 26801 H 2573.75 -3.78405 -1.01574 0
M  V30 26802 H 2575.44 -3.95472 -0.663572 0
M  V30 26803 H 2572.03 -4.22072 0.745198 0
M  V30 26804 H 2576.22 -4.69721 1.60238 0
M  V30 26805 H 2571.47 -5.42941 2.81114 0
M  V30 26806 H 2575.65 -5.9196 3.66819 0
M  V30 26807 H 2573.28 -6.28382 4.27832 0
M  V30 26808 N 2574.85 -0.241454 -1.55739 0
M  V30 26809 C 2576.26 0.262722 -1.84842 0
M  V30 26810 C 2576.61 1.58001 -1.1632 0
M  V30 26811 O 2575.74 2.11886 -0.43969 0
M  V30 26812 C 2576.33 0.483464 -3.35333 0
M  V30 26813 C 2574.89 0.931913 -3.64681 0
M  V30 26814 C 2574.04 0.00606635 -2.77299 0
M  V30 26815 H 2576.99 -0.464155 -1.51761 0
M  V30 26816 H 2577.01 1.32682 -3.56617 0
M  V30 26817 H 2576.52 -0.475437 -3.85177 0
M  V30 26818 H 2574.62 1.90347 -3.2031 0
M  V30 26819 H 2574.74 0.792545 -4.72499 0
M  V30 26820 H 2573.1 0.51646 -2.49409 0
M  V30 26821 H 2573.88 -0.94811 -3.29948 0
M  V30 26822 N 2576.33 1.57568 0.0317248 0
M  V30 26823 C 2577.26 2.03179 1.0607 0
M  V30 26824 C 2578.27 0.944156 1.32626 0
M  V30 26825 O 2579.46 1.2215 1.3016 0
M  V30 26826 C 2576.56 2.38983 2.40293 0
M  V30 26827 C 2575.74 3.70093 2.3313 0
M  V30 26828 C 2574.79 3.93116 3.49781 0
M  V30 26829 O 2573.82 4.64206 3.29395 0
M  V30 26830 N 2575.02 3.38549 4.71556 0
M  V30 26831 H 2577.79 2.9207 0.671954 0
M  V30 26832 H 2575.35 1.60402 0.219717 0
M  V30 26833 H 2577.34 2.51524 3.17045 0
M  V30 26834 H 2575.91 1.55776 2.71021 0
M  V30 26835 H 2575.13 3.67931 1.41494 0
M  V30 26836 H 2576.42 4.56108 2.25485 0
M  V30 26837 H 2575.82 2.80921 4.91019 0
M  V30 26838 H 2574.37 3.56474 5.45683 0
M  V30 26839 N 2577.81 -0.303946 1.54641 0
M  V30 26840 C 2578.74 -1.37957 1.88389 0
M  V30 26841 C 2579.72 -1.53038 0.742512 0
M  V30 26842 O 2580.9 -1.66595 0.997988 0
M  V30 26843 C 2578.03 -2.74424 2.12859 0
M  V30 26844 C 2576.99 -2.7411 3.28706 0
M  V30 26845 C 2576.31 -4.13838 3.38589 0
M  V30 26846 C 2577.61 -2.36112 4.65885 0
M  V30 26847 H 2579.31 -1.09961 2.78476 0
M  V30 26848 H 2576.85 -0.527533 1.33989 0
M  V30 26849 H 2578.81 -3.49754 2.35053 0
M  V30 26850 H 2577.53 -3.03937 1.1954 0
M  V30 26851 H 2576.19 -2.01235 3.06431 0
M  V30 26852 H 2575.84 -4.40524 2.42792 0
M  V30 26853 H 2575.54 -4.1453 4.1646 0
M  V30 26854 H 2577.06 -4.90953 3.6304 0
M  V30 26855 H 2578.47 -3.01158 4.87829 0
M  V30 26856 H 2576.87 -2.48021 5.46448 0
M  V30 26857 H 2577.94 -1.31241 4.66802 0
M  V30 26858 N 2579.28 -1.47047 -0.566994 0
M  V30 26859 C 2580.53 -1.52867 -1.32198 0
M  V30 26860 C 2580.85 -0.188422 -1.94088 0
M  V30 26861 O 2580.12 0.786661 -1.79411 0
M  V30 26862 H 2578.7 -0.563065 -0.490884 0
M  V30 26863 H 2581.37 -1.83282 -0.662847 0
M  V30 26864 H 2580.46 -2.28993 -2.12058 0
M  V30 26865 N 2580.76 0.812929 -1.35016 0
M  V30 26866 C 2581.99 1.60636 -1.3119 0
M  V30 26867 C 2582.41 1.87782 0.109349 0
M  V30 26868 O 2581.77 1.46049 1.07421 0
M  V30 26869 C 2581.82 2.91834 -2.11814 0
M  V30 26870 O 2580.92 3.84367 -1.49451 0
M  V30 26871 H 2580.26 0.488173 -0.450092 0
M  V30 26872 H 2582.79 1.00944 -1.77965 0
M  V30 26873 H 2582.8 3.41314 -2.23537 0
M  V30 26874 H 2581.48 2.71401 -3.15142 0
M  V30 26875 H 2580.06 3.42904 -1.4653 0
M  V30 26876 N 2582.24 1.18909 1.03433 0
M  V30 26877 C 2583.66 0.940134 1.28972 0
M  V30 26878 C 2583.86 -0.390656 1.97677 0
M  V30 26879 O 2582.91 -1.12348 2.26129 0
M  V30 26880 C 2584.23 2.11025 2.14217 0
M  V30 26881 C 2585.77 2.14926 2.27543 0
M  V30 26882 C 2586.25 3.31373 3.16158 0
M  V30 26883 N 2587.74 3.31274 3.23746 0
M  V30 26884 C 2588.47 4.18021 3.92487 0
M  V30 26885 N 2587.97 5.14912 4.63506 0
M  V30 26886 N 2589.76 4.05915 3.88831 0
M  V30 26887 H 2581.91 2.04539 0.572484 0
M  V30 26888 H 2584.18 0.894077 0.315168 0
M  V30 26889 H 2583.88 3.07303 1.71049 0
M  V30 26890 H 2583.76 2.07626 3.14915 0
M  V30 26891 H 2586.14 1.19222 2.69945 0
M  V30 26892 H 2586.23 2.2238 1.26415 0
M  V30 26893 H 2585.87 4.27353 2.74466 0
M  V30 26894 H 2585.8 3.21155 4.17333 0
M  V30 26895 H 2588.29 2.61134 2.73162 0
M  V30 26896 H 2588.6 5.77463 5.13573 0
M  V30 26897 H 2586.95 5.18866 4.62389 0
M  V30 26898 H 2590.14 3.29501 3.32485 0
M  V30 26899 H 2590.31 4.73734 4.42131 0
M  V30 26900 N 2583.72 -1.22452 0.992137 0
M  V30 26901 C 2584.68 -2.22579 0.546922 0
M  V30 26902 C 2585.68 -1.5649 -0.369802 0
M  V30 26903 O 2586.87 -1.73446 -0.161865 0
M  V30 26904 C 2584 -3.40285 -0.204599 0
M  V30 26905 H 2585.2 -2.63482 1.43239 0
M  V30 26906 H 2582.75 -1.35489 0.779263 0
M  V30 26907 H 2583.48 -3.04854 -1.10609 0
M  V30 26908 H 2583.27 -3.89467 0.453609 0
M  V30 26909 H 2584.76 -4.14544 -0.504285 0
M  V30 26910 N 2585.2 -0.765242 -1.37774 0
M  V30 26911 C 2586.44 -0.325978 -1.99454 0
M  V30 26912 C 2586.77 1.09944 -1.61051 0
M  V30 26913 O 2586.04 1.7538 -0.872851 0
M  V30 26914 H 2584.62 -0.117538 -0.737695 0
M  V30 26915 H 2587.28 -0.981924 -1.68358 0
M  V30 26916 H 2586.37 -0.398407 -3.09547 0
M  V30 26917 N 2586.67 1.48939 -0.515251 0
M  V30 26918 C 2587.6 2.32215 0.244587 0
M  V30 26919 C 2588.59 1.41159 0.949111 0
M  V30 26920 O 2589.77 1.70058 0.937753 0
M  V30 26921 C 2586.9 3.22015 1.30091 0
M  V30 26922 C 2585.85 4.21978 0.715412 0
M  V30 26923 C 2585.18 5.00811 1.8733 0
M  V30 26924 C 2586.48 5.2142 -0.303073 0
M  V30 26925 H 2588.17 2.95991 -0.450553 0
M  V30 26926 H 2585.72 1.42338 -0.218123 0
M  V30 26927 H 2587.67 3.79092 1.84031 0
M  V30 26928 H 2586.4 2.56211 2.02543 0
M  V30 26929 H 2585.06 3.66067 0.197651 0
M  V30 26930 H 2584.7 4.31443 2.58585 0
M  V30 26931 H 2584.4 5.68459 1.48754 0
M  V30 26932 H 2585.93 5.60736 2.41677 0
M  V30 26933 H 2587.34 5.73107 0.148701 0
M  V30 26934 H 2585.74 5.97038 -0.605425 0
M  V30 26935 H 2586.81 4.69456 -1.21403 0
M  V30 26936 N 2588.15 0.249709 1.55609 0
M  V30 26937 C 2589.4 -0.374252 1.99012 0
M  V30 26938 C 2589.73 -1.57742 1.13788 0
M  V30 26939 O 2588.98 -1.94782 0.18936 0
M  V30 26940 C 2589.28 -0.824826 3.47752 0
M  V30 26941 C 2588.95 0.270898 4.50085 0
M  V30 26942 C 2587.61 0.57183 4.7779 0
M  V30 26943 C 2589.96 1.0105 5.1131 0
M  V30 26944 C 2587.29 1.61639 5.63994 0
M  V30 26945 C 2589.64 2.0446 5.98647 0
M  V30 26946 C 2588.31 2.35215 6.24684 0
M  V30 26947 H 2587.58 -0.136948 0.728235 0
M  V30 26948 H 2590.22 0.35812 1.88122 0
M  V30 26949 H 2588.53 -1.63645 3.55988 0
M  V30 26950 H 2590.23 -1.31793 3.78724 0
M  V30 26951 H 2586.82 0.0262114 4.28592 0
M  V30 26952 H 2591 0.791263 4.89952 0
M  V30 26953 H 2586.26 1.85998 5.82421 0
M  V30 26954 H 2590.43 2.62259 6.4513 0
M  V30 26955 H 2588.06 3.16294 6.91276 0
M  V30 26956 N 2589.63 -1.57583 -0.0233682 0
M  V30 26957 C 2590.56 -2.03739 -1.04991 0
M  V30 26958 C 2591.58 -0.951176 -1.32123 0
M  V30 26959 O 2592.77 -1.22839 -1.2951 0
M  V30 26960 C 2589.87 -2.40254 -2.39022 0
M  V30 26961 C 2589.04 -3.71324 -2.31164 0
M  V30 26962 C 2588.1 -3.94965 -3.47691 0
M  V30 26963 O 2587.12 -4.65947 -3.26928 0
M  V30 26964 N 2588.33 -3.41045 -4.69754 0
M  V30 26965 H 2591.09 -2.92422 -0.656456 0
M  V30 26966 H 2588.65 -1.60516 -0.211207 0
M  V30 26967 H 2590.64 -2.53202 -3.15707 0
M  V30 26968 H 2589.21 -1.57211 -2.70191 0
M  V30 26969 H 2588.43 -3.68676 -1.39541 0
M  V30 26970 H 2589.72 -4.57297 -2.23063 0
M  V30 26971 H 2589.12 -2.83521 -4.89523 0
M  V30 26972 H 2587.68 -3.59363 -5.43785 0
M  V30 26973 N 2591.11 0.29574 -1.548 0
M  V30 26974 C 2592.06 1.36667 -1.825 0
M  V30 26975 C 2593.04 1.4571 -0.68246 0
M  V30 26976 O 2594.24 1.49773 -0.943234 0
M  V30 26977 C 2591.36 2.73083 -2.0804 0
M  V30 26978 C 2590.45 2.68242 -3.28492 0
M  V30 26979 N 2590.84 2.33017 -4.48929 0
M  V30 26980 C 2589.14 2.99337 -3.30626 0
M  V30 26981 C 2589.84 2.37604 -5.30961 0
M  V30 26982 N 2588.82 2.7517 -4.6881 0
M  V30 26983 H 2592.62 1.08405 -2.73177 0
M  V30 26984 H 2590.13 0.504333 -1.5437 0
M  V30 26985 H 2592.13 3.50306 -2.26033 0
M  V30 26986 H 2590.79 3.02252 -1.18634 0
M  V30 26987 H 2591.8 2.05381 -4.75436 0
M  V30 26988 H 2588.48 3.33367 -2.51342 0
M  V30 26989 H 2589.87 2.13124 -6.37203 0
M  V30 26990 N 2592.59 1.47346 0.559187 0
M  V30 26991 C 2594 1.47753 1.14132 0
M  V30 26992 C 2594.35 0.231137 1.94834 0
M  V30 26993 O 2593.47 -0.664101 2.05958 0
M  V30 26994 C 2594.07 2.67708 2.07648 0
M  V30 26995 C 2592.63 2.71081 2.61136 0
M  V30 26996 C 2591.78 2.40823 1.37476 0
M  V30 26997 H 2594.73 1.54885 0.34589 0
M  V30 26998 H 2594.75 2.44566 2.91492 0
M  V30 26999 H 2594.26 3.58407 1.48884 0
M  V30 27000 H 2592.36 1.84517 3.23704 0
M  V30 27001 H 2592.47 3.71716 3.02265 0
M  V30 27002 H 2590.84 1.91365 1.68082 0
M  V30 27003 H 2591.62 3.33727 0.805076 0
M  V30 27004 N 2594.07 -0.805758 1.35445 0
M  V30 27005 C 2595 -1.93224 1.31099 0
M  V30 27006 C 2595.98 -1.69088 0.185274 0
M  V30 27007 O 2597.16 -1.90439 0.380366 0
M  V30 27008 C 2594.29 -3.29981 1.08305 0
M  V30 27009 C 2593.25 -3.68601 2.17526 0
M  V30 27010 C 2592.57 -5.03529 1.79896 0
M  V30 27011 C 2593.87 -3.78892 3.59497 0
M  V30 27012 H 2595.57 -1.97118 2.25355 0
M  V30 27013 H 2593.11 -0.946977 1.08482 0
M  V30 27014 H 2595.06 -4.08389 1.03904 0
M  V30 27015 H 2593.79 -3.26431 0.104942 0
M  V30 27016 H 2592.45 -2.92478 2.21025 0
M  V30 27017 H 2592.1 -4.96484 0.807017 0
M  V30 27018 H 2591.8 -5.30339 2.5301 0
M  V30 27019 H 2593.32 -5.84376 1.77022 0
M  V30 27020 H 2594.73 -4.4753 3.58315 0
M  V30 27021 H 2593.13 -4.17173 4.31378 0
M  V30 27022 H 2594.2 -2.80424 3.95589 0
M  V30 27023 N 2595.54 -1.19456 -1.02801 0
M  V30 27024 C 2596.48 -0.890844 -2.11179 0
M  V30 27025 C 2597.49 0.1168 -1.6238 0
M  V30 27026 O 2598.68 -0.112725 -1.78144 0
M  V30 27027 C 2595.78 -0.312002 -3.37461 0
M  V30 27028 C 2594.95 -1.36841 -4.15443 0
M  V30 27029 C 2594.01 -0.802955 -5.20038 0
M  V30 27030 O 2593.04 -1.48086 -5.49599 0
M  V30 27031 N 2594.24 0.393315 -5.79166 0
M  V30 27032 H 2597 -1.82373 -2.37824 0
M  V30 27033 H 2594.56 -1.09668 -1.19099 0
M  V30 27034 H 2596.56 0.0801514 -4.04621 0
M  V30 27035 H 2595.13 0.525186 -3.08157 0
M  V30 27036 H 2594.35 -1.93537 -3.4342 0
M  V30 27037 H 2595.63 -2.08023 -4.64332 0
M  V30 27038 H 2595.03 0.96156 -5.57468 0
M  V30 27039 H 2593.59 0.727237 -6.4773 0
M  V30 27040 N 2597.02 1.21924 -0.998617 0
M  V30 27041 C 2598.25 1.95371 -0.69605 0
M  V30 27042 C 2598.67 1.73197 0.733795 0
M  V30 27043 O 2598.03 1.01477 1.5024 0
M  V30 27044 C 2598.08 3.46029 -1.01472 0
M  V30 27045 O 2597.18 4.12235 -0.116487 0
M  V30 27046 H 2596.52 0.611001 -0.259949 0
M  V30 27047 H 2599.05 1.5486 -1.33714 0
M  V30 27048 H 2599.06 3.96571 -0.958924 0
M  V30 27049 H 2597.74 3.61493 -2.05659 0
M  V30 27050 H 2596.31 3.72201 -0.228258 0
M  V30 27051 N 2598.5 0.772537 1.37367 0
M  V30 27052 C 2599.41 0.160122 2.34053 0
M  V30 27053 C 2600.43 -0.6787 1.60218 0
M  V30 27054 O 2601.6 -0.598436 1.92304 0
M  V30 27055 C 2598.67 -0.708122 3.39391 0
M  V30 27056 C 2597.73 0.147248 4.29047 0
M  V30 27057 C 2596.96 -0.679651 5.29355 0
M  V30 27058 O 2597.18 -1.91669 5.37233 0
M  V30 27059 O 2596.12 -0.0884386 6.01835 0
M  V30 27060 H 2599.94 0.959103 2.88158 0
M  V30 27061 H 2597.53 0.53371 1.39542 0
M  V30 27062 H 2599.41 -1.20377 4.03841 0
M  V30 27063 H 2598.09 -1.48528 2.87613 0
M  V30 27064 H 2596.99 0.68927 3.67695 0
M  V30 27065 H 2598.33 0.887508 4.84132 0
M  V30 27066 N 2599.98 -1.48664 0.523142 0
M  V30 27067 C 2601.21 -2.06598 -0.00958092 0
M  V30 27068 C 2601.62 -1.38095 -1.29331 0
M  V30 27069 O 2600.96 -0.460101 -1.77845 0
M  V30 27070 C 2601.02 -3.58152 -0.311072 0
M  V30 27071 C 2600.68 -4.48483 0.878171 0
M  V30 27072 C 2601.68 -4.88671 1.77473 0
M  V30 27073 C 2599.37 -4.90481 1.08324 0
M  V30 27074 C 2601.36 -5.69618 2.86031 0
M  V30 27075 C 2599.05 -5.71199 2.17197 0
M  V30 27076 C 2600.05 -6.10675 3.05884 0
M  V30 27077 O 2599.73 -6.89775 4.12874 0
M  V30 27078 H 2599.47 -0.675449 0.0272777 0
M  V30 27079 H 2602.02 -1.92134 0.72619 0
M  V30 27080 H 2600.25 -3.70703 -1.10073 0
M  V30 27081 H 2601.94 -3.98236 -0.785055 0
M  V30 27082 H 2602.7 -4.56853 1.62821 0
M  V30 27083 H 2598.58 -4.59242 0.402229 0
M  V30 27084 H 2602.13 -6.0035 3.55282 0
M  V30 27085 H 2598.02 -6.02431 2.31835 0
M  V30 27086 H 2598.79 -7.08119 4.105 0
M  V30 27087 N 2601.46 -0.257958 -1.55475 0
M  V30 27088 C 2602.68 0.370453 -2.04065 0
M  V30 27089 C 2603.11 1.49946 -1.13568 0
M  V30 27090 O 2602.46 1.80827 -0.130812 0
M  V30 27091 C 2602.51 0.845176 -3.50555 0
M  V30 27092 O 2601.62 1.95388 -3.63177 0
M  V30 27093 H 2600.96 0.0792128 -0.659258 0
M  V30 27094 H 2603.49 -0.387247 -2.00902 0
M  V30 27095 H 2603.5 1.14548 -3.9159 0
M  V30 27096 H 2602.17 0.0190528 -4.15896 0
M  V30 27097 H 2600.75 1.65742 -3.34042 0
M  V30 27098 N 2602.93 1.57593 0.0150108 0
M  V30 27099 C 2604.16 1.94574 0.718033 0
M  V30 27100 C 2604.58 0.859035 1.67339 0
M  V30 27101 O 2603.94 -0.184116 1.80363 0
M  V30 27102 C 2603.99 3.30638 1.43912 0
M  V30 27103 O 2603.09 3.23881 2.55294 0
M  V30 27104 H 2602.44 0.635601 0.192114 0
M  V30 27105 H 2604.97 2.04572 -0.0337068 0
M  V30 27106 H 2604.98 3.65856 1.80591 0
M  V30 27107 H 2603.65 4.0929 0.738547 0
M  V30 27108 H 2602.23 3.00316 2.21053 0
M  V30 27109 N 2604.41 -0.287527 1.54955 0
M  V30 27110 C 2605.66 -1.01874 1.74082 0
M  V30 27111 C 2605.97 -1.87965 0.541168 0
M  V30 27112 O 2607.18 -2.64454 0.614538 0
M  V30 27113 C 2605.64 -1.86107 3.08046 0
M  V30 27114 C 2605.24 -1.04953 4.35533 0
M  V30 27115 C 2606.99 -2.58746 3.36528 0
M  V30 27116 C 2604.9 -1.88541 5.60541 0
M  V30 27117 H 2603.83 -0.384075 0.648847 0
M  V30 27118 H 2606.48 -0.275069 1.81427 0
M  V30 27119 H 2604.86 -2.64513 2.94701 0
M  V30 27120 H 2606.03 -0.310659 4.59752 0
M  V30 27121 H 2604.35 -0.438357 4.14086 0
M  V30 27122 H 2606.94 -3.21661 4.27128 0
M  V30 27123 H 2607.29 -3.28279 2.56005 0
M  V30 27124 H 2607.82 -1.87379 3.50904 0
M  V30 27125 H 2604.56 -1.23455 6.43769 0
M  V30 27126 H 2604.08 -2.60065 5.40487 0
M  V30 27127 H 2605.76 -2.46262 5.98301 0
M  V30 27128 N 2605.89 -1.47641 -0.551365 0
M  V30 27129 C 2607.12 -1.58191 -1.33354 0
M  V30 27130 C 2607.53 -0.234232 -1.87341 0
M  V30 27131 O 2606.89 0.773401 -1.65302 0
M  V30 27132 C 2606.94 -2.61177 -2.49938 0
M  V30 27133 O 2606.66 -3.90713 -1.9818 0
M  V30 27134 C 2608.16 -2.81966 -3.42067 0
M  V30 27135 H 2605.38 -0.534005 -0.4063 0
M  V30 27136 H 2607.93 -1.93305 -0.667333 0
M  V30 27137 H 2606.08 -2.2898 -3.12485 0
M  V30 27138 H 2606.5 -4.47036 -2.74334 0
M  V30 27139 H 2607.97 -3.57876 -4.20272 0
M  V30 27140 H 2608.45 -1.90002 -3.95975 0
M  V30 27141 H 2609.05 -3.15383 -2.85331 0
M  V30 27142 N 2607.37 0.798563 -1.3587 0
M  V30 27143 C 2608.6 1.58719 -1.32725 0
M  V30 27144 C 2609.01 1.88568 0.09353 0
M  V30 27145 O 2608.37 1.49423 1.04781 0
M  V30 27146 C 2608.42 2.91367 -2.1398 0
M  V30 27147 O 2608.14 2.62809 -3.50518 0
M  V30 27148 C 2609.64 3.85705 -2.18511 0
M  V30 27149 H 2606.86 0.492588 -0.455629 0
M  V30 27150 H 2609.41 0.991812 -1.78839 0
M  V30 27151 H 2607.56 3.47399 -1.71444 0
M  V30 27152 H 2607.97 3.47562 -3.92812 0
M  V30 27153 H 2609.45 4.75867 -2.7974 0
M  V30 27154 H 2609.93 4.22883 -1.18604 0
M  V30 27155 H 2610.53 3.35608 -2.61242 0
M  V30 27156 N 2608.85 1.19999 1.02166 0
M  V30 27157 C 2610.07 1.03252 1.79295 0
M  V30 27158 C 2610.49 -0.41847 1.84104 0
M  V30 27159 O 2609.85 -1.29061 1.29033 0
M  V30 27160 C 2609.9 1.60324 3.24004 0
M  V30 27161 O 2609.62 2.99745 3.19507 0
M  V30 27162 C 2611.12 1.4846 4.17701 0
M  V30 27163 H 2608.34 0.363502 0.56401 0
M  V30 27164 H 2610.88 1.58975 1.28636 0
M  V30 27165 H 2609.04 1.08733 3.71828 0
M  V30 27166 H 2609.45 3.26733 4.103 0
M  V30 27167 H 2610.93 1.93162 5.171 0
M  V30 27168 H 2611.4 0.436269 4.37028 0
M  V30 27169 H 2612.01 1.99217 3.75756 0
M  V30 27170 N 2610.32 -1.21392 1.00507 0
M  V30 27171 C 2611.27 -2.21597 0.536542 0
M  V30 27172 C 2612.26 -1.558 -0.401886 0
M  V30 27173 O 2613.45 -1.75542 -0.226726 0
M  V30 27174 C 2610.58 -3.43033 -0.135386 0
M  V30 27175 C 2609.67 -4.16017 0.824065 0
M  V30 27176 N 2610.06 -4.65566 1.97691 0
M  V30 27177 C 2608.35 -4.41348 0.642464 0
M  V30 27178 C 2609.06 -5.21349 2.58012 0
M  V30 27179 N 2608.03 -5.10726 1.86171 0
M  V30 27180 H 2611.83 -2.57561 1.41561 0
M  V30 27181 H 2609.35 -1.372 0.868902 0
M  V30 27182 H 2611.34 -4.14028 -0.488511 0
M  V30 27183 H 2610 -3.08578 -1.01044 0
M  V30 27184 H 2611.02 -4.61143 2.35728 0
M  V30 27185 H 2607.69 -4.17088 -0.185504 0
M  V30 27186 H 2609.08 -5.70142 3.5551 0
M  V30 27187 N 2611.8 -0.779811 -1.36955 0
M  V30 27188 C 2613.03 -0.359434 -2.03754 0
M  V30 27189 C 2613.45 1.02103 -1.58809 0
M  V30 27190 O 2612.8 1.65318 -0.773053 0
M  V30 27191 C 2612.85 -0.402631 -3.59251 0
M  V30 27192 O 2612.57 -1.72865 -4.02553 0
M  V30 27193 C 2614.08 0.0283289 -4.43291 0
M  V30 27194 H 2611.3 -0.149449 -0.654145 0
M  V30 27195 H 2613.84 -1.05598 -1.75126 0
M  V30 27196 H 2611.99 0.24541 -3.86622 0
M  V30 27197 H 2612.41 -1.67283 -4.97108 0
M  V30 27198 H 2613.88 -0.0530436 -5.51975 0
M  V30 27199 H 2614.36 1.07975 -4.25721 0
M  V30 27200 H 2614.97 -0.591832 -4.21162 0
M  V30 27201 N 2613.28 1.48384 -0.531019 0
M  V30 27202 C 2614.51 2.074 0.000693079 0
M  V30 27203 C 2614.93 1.38482 1.27296 0
M  V30 27204 O 2614.29 0.451111 1.75598 0
M  V30 27205 C 2614.34 3.60007 0.206634 0
M  V30 27206 O 2613.44 3.92193 1.27507 0
M  V30 27207 H 2612.78 0.662818 -0.0395946 0
M  V30 27208 H 2615.31 1.90779 -0.739228 0
M  V30 27209 H 2615.32 4.05739 0.428969 0
M  V30 27210 H 2614 4.09572 -0.722747 0
M  V30 27211 H 2612.57 3.5824 1.03531 0
M  V30 27212 N 2614.76 0.2662 1.55336 0
M  V30 27213 C 2615.72 -0.611962 2.20879 0
M  V30 27214 C 2616.72 -1.08814 1.1839 0
M  V30 27215 O 2617.91 -0.989749 1.43351 0
M  V30 27216 C 2615.04 -1.84327 2.86769 0
M  V30 27217 H 2616.24 -0.0398191 2.99874 0
M  V30 27218 H 2613.79 0.0167584 1.56291 0
M  V30 27219 H 2614.52 -2.45615 2.11763 0
M  V30 27220 H 2614.31 -1.50984 3.61865 0
M  V30 27221 H 2615.8 -2.46795 3.36871 0
M  V30 27222 N 2616.24 -1.57599 -0.0066531 0
M  V30 27223 C 2617.46 -1.94553 -0.704053 0
M  V30 27224 C 2617.88 -0.867775 -1.67676 0
M  V30 27225 O 2617.24 0.153893 -1.8185 0
M  V30 27226 C 2617.29 -3.31507 -1.44171 0
M  V30 27227 O 2617.01 -4.35145 -0.508021 0
M  V30 27228 C 2618.51 -3.8288 -2.23422 0
M  V30 27229 H 2615.73 -0.641579 -0.196512 0
M  V30 27230 H 2618.27 -2.04456 0.0424889 0
M  V30 27231 H 2616.43 -3.22933 -2.13994 0
M  V30 27232 H 2616.84 -5.14332 -1.02773 0
M  V30 27233 H 2618.32 -4.81155 -2.70543 0
M  V30 27234 H 2618.79 -3.15239 -3.05812 0
M  V30 27235 H 2619.4 -3.9461 -1.5863 0
M  V30 27236 N 2617.72 0.279305 -1.55105 0
M  V30 27237 C 2618.63 1.36724 -1.9064 0
M  V30 27238 C 2619.64 1.54367 -0.802926 0
M  V30 27239 O 2620.82 1.68615 -1.10141 0
M  V30 27240 C 2617.88 2.70751 -2.16552 0
M  V30 27241 C 2616.94 2.61909 -3.40151 0
M  V30 27242 C 2616.18 3.89544 -3.64817 0
M  V30 27243 O 2616.4 4.8993 -2.92103 0
M  V30 27244 O 2615.33 3.90127 -4.5835 0
M  V30 27245 H 2619.16 1.09586 -2.83239 0
M  V30 27246 H 2616.74 0.477281 -1.41571 0
M  V30 27247 H 2618.63 3.5001 -2.34671 0
M  V30 27248 H 2617.3 2.97688 -1.27136 0
M  V30 27249 H 2616.21 1.81046 -3.27373 0
M  V30 27250 H 2617.54 2.39922 -4.29765 0
M  V30 27251 N 2619.19 1.47931 0.543528 0
M  V30 27252 C 2620.6 1.48955 1.12558 0
M  V30 27253 C 2620.96 0.251788 1.94578 0
M  V30 27254 O 2620.08 -0.642219 2.06651 0
M  V30 27255 C 2620.68 2.69896 2.04797 0
M  V30 27256 C 2619.23 2.73835 2.58246 0
M  V30 27257 C 2618.38 2.42268 1.34914 0
M  V30 27258 H 2621.33 1.55243 0.329443 0
M  V30 27259 H 2621.35 2.47644 2.88882 0
M  V30 27260 H 2620.87 3.59965 1.45074 0
M  V30 27261 H 2618.97 1.8794 3.21729 0
M  V30 27262 H 2619.08 3.74901 2.98306 0
M  V30 27263 H 2617.44 1.93137 1.66043 0
M  V30 27264 H 2618.23 3.34562 0.769634 0
M  V30 27265 N 2620.67 -0.791347 1.36292 0
M  V30 27266 C 2621.92 -1.54914 1.30414 0
M  V30 27267 C 2622.25 -1.94147 -0.117127 0
M  V30 27268 O 2621.5 -1.62805 -1.08596 0
M  V30 27269 C 2621.8 -2.83926 2.17073 0
M  V30 27270 C 2621.47 -2.6384 3.65649 0
M  V30 27271 C 2620.13 -2.5807 4.06145 0
M  V30 27272 C 2622.48 -2.45314 4.59859 0
M  V30 27273 C 2619.81 -2.31738 5.38994 0
M  V30 27274 C 2622.16 -2.2051 5.92923 0
M  V30 27275 C 2620.82 -2.13172 6.32546 0
M  V30 27276 H 2620.09 -0.56687 0.47722 0
M  V30 27277 H 2622.74 -0.913143 1.68327 0
M  V30 27278 H 2621.05 -3.51983 1.72091 0
M  V30 27279 H 2622.74 -3.41706 2.09852 0
M  V30 27280 H 2619.33 -2.69185 3.33523 0
M  V30 27281 H 2623.52 -2.48775 4.29447 0
M  V30 27282 H 2618.77 -2.24538 5.68676 0
M  V30 27283 H 2622.95 -2.0517 6.65491 0
M  V30 27284 H 2620.57 -1.92531 7.35415 0
M  V30 27285 N 2622.15 -1.2054 -1.01528 0
M  V30 27286 C 2623.08 -0.979333 -2.1197 0
M  V30 27287 C 2624.06 0.0921489 -1.6985 0
M  V30 27288 O 2625.25 -0.0656273 -1.94089 0
M  V30 27289 C 2622.38 -0.532044 -3.432 0
M  V30 27290 C 2621.33 -1.54692 -3.99067 0
M  V30 27291 C 2620.66 -0.95622 -5.2608 0
M  V30 27292 C 2621.96 -2.931 -4.32308 0
M  V30 27293 H 2623.65 -1.90302 -2.3114 0
M  V30 27294 H 2621.2 -0.916392 -1.11078 0
M  V30 27295 H 2623.15 -0.361118 -4.1985 0
M  V30 27296 H 2621.87 0.427271 -3.23793 0
M  V30 27297 H 2620.53 -1.70523 -3.24527 0
M  V30 27298 H 2620.18 0.0110654 -5.02999 0
M  V30 27299 H 2619.88 -1.63403 -5.64423 0
M  V30 27300 H 2621.4 -0.79639 -6.05384 0
M  V30 27301 H 2622.82 -2.80772 -4.9984 0
M  V30 27302 H 2621.21 -3.57799 -4.81767 0
M  V30 27303 H 2622.28 -3.44723 -3.41019 0
M  V30 27304 N 2623.63 1.20858 -1.01149 0
M  V30 27305 C 2624.87 1.90375 -0.698932 0
M  V30 27306 C 2625.21 1.78325 0.769009 0
M  V30 27307 O 2624.48 1.16412 1.55815 0
M  V30 27308 C 2624.76 3.41949 -1.12884 0
M  V30 27309 C 2624.62 3.62958 -2.65672 0
M  V30 27310 C 2625.94 4.34559 -0.69619 0
M  V30 27311 H 2623.06 0.691338 -0.255384 0
M  V30 27312 H 2625.7 1.42359 -1.25833 0
M  V30 27313 H 2623.85 3.82975 -0.652894 0
M  V30 27314 H 2625.52 3.31218 -3.2108 0
M  V30 27315 H 2623.76 3.06602 -3.06883 0
M  V30 27316 H 2624.43 4.69187 -2.90805 0
M  V30 27317 H 2626.91 4.01152 -1.10528 0
M  V30 27318 H 2625.79 5.39243 -1.02509 0
M  V30 27319 H 2626.05 4.40265 0.402388 0
M  V30 27320 N 2625.11 0.787064 1.3654 0
M  V30 27321 C 2626.38 0.282458 1.9355 0
M  V30 27322 C 2626.76 -1.225 1.71922 0
M  V30 27323 O 2626.11 -2.01537 1.07681 0
M  V30 27324 C 2626.32 0.672522 3.42459 0
M  V30 27325 C 2627.67 0.650936 4.19581 0
M  V30 27326 O 2628.69 0.612851 3.50888 0
M  V30 27327 O 2627.55 0.691718 5.42105 0
M  V30 27328 H 2624.65 0.0693144 0.82409 0
M  V30 27329 H 2627.19 0.869449 1.45735 0
M  V30 27330 H 2625.96 1.71228 3.51848 0
M  V30 27331 H 2625.59 0.059291 3.97556 0
M  V30 27332 N 2626.58 -1.48101 0.53888 0
M  V30 27333 C 2627.83 -2.02098 0.00802152 0
M  V30 27334 C 2628.15 -1.41741 -1.33919 0
M  V30 27335 O 2627.42 -0.585967 -1.86931 0
M  V30 27336 H 2626 -0.747 -2.30875e-05 0
M  V30 27337 H 2628.66 -1.81713 0.704732 0
M  V30 27338 H 2627.76 -3.11959 -0.0937124 0
M  V30 27339 N 2628.06 -0.274434 -1.55192 0
M  V30 27340 C 2628.99 0.606993 -2.25473 0
M  V30 27341 C 2629.97 1.15944 -1.24463 0
M  V30 27342 O 2631.16 1.1937 -1.53181 0
M  V30 27343 C 2628.29 1.79147 -2.97529 0
M  V30 27344 C 2627.24 1.37059 -4.05461 0
M  V30 27345 C 2626.57 2.63812 -4.65089 0
M  V30 27346 C 2627.87 0.521298 -5.19692 0
M  V30 27347 H 2629.56 0.0208817 -2.99393 0
M  V30 27348 H 2627.11 0.00860334 -1.43997 0
M  V30 27349 H 2629.06 2.41398 -3.45406 0
M  V30 27350 H 2627.78 2.4034 -2.21143 0
M  V30 27351 H 2626.44 0.771292 -3.58395 0
M  V30 27352 H 2626.09 3.23262 -3.85371 0
M  V30 27353 H 2625.79 2.36363 -5.37965 0
M  V30 27354 H 2627.32 3.26912 -5.15714 0
M  V30 27355 H 2628.73 1.04879 -5.63625 0
M  V30 27356 H 2627.13 0.34172 -5.99126 0
M  V30 27357 H 2628.2 -0.460085 -4.82712 0
M  V30 27358 N 2629.54 1.576 -0.00170483 0
M  V30 27359 C 2630.77 1.94923 0.693725 0
M  V30 27360 C 2631.18 0.876655 1.67213 0
M  V30 27361 O 2630.54 -0.144247 1.81929 0
M  V30 27362 C 2630.59 3.32267 1.42411 0
M  V30 27363 O 2630.31 4.35408 0.484937 0
M  V30 27364 C 2631.81 3.8406 2.21389 0
M  V30 27365 H 2629.03 0.642612 0.193107 0
M  V30 27366 H 2631.58 2.0443 -0.0533311 0
M  V30 27367 H 2629.73 3.24063 2.12278 0
M  V30 27368 H 2630.15 5.1487 1.00044 0
M  V30 27369 H 2631.62 4.82583 2.67988 0
M  V30 27370 H 2632.1 3.16856 3.04136 0
M  V30 27371 H 2632.7 3.95445 1.56535 0
M  V30 27372 N 2631.02 -0.271076 1.55251 0
M  V30 27373 C 2631.95 -1.33929 1.91272 0
M  V30 27374 C 2632.93 -1.51429 0.774806 0
M  V30 27375 O 2634.11 -1.6444 1.0331 0
M  V30 27376 C 2631.24 -2.69847 2.18632 0
M  V30 27377 C 2630.2 -2.67076 3.34447 0
M  V30 27378 C 2629.52 -4.06563 3.47291 0
M  V30 27379 C 2630.82 -2.26176 4.70788 0
M  V30 27380 H 2632.52 -1.0403 2.80746 0
M  V30 27381 H 2630.06 -0.498993 1.35078 0
M  V30 27382 H 2632.02 -3.4469 2.42419 0
M  V30 27383 H 2630.74 -3.01333 1.2596 0
M  V30 27384 H 2629.4 -1.9469 3.10631 0
M  V30 27385 H 2629.05 -4.35274 2.52082 0
M  V30 27386 H 2628.75 -4.05603 4.25159 0
M  V30 27387 H 2630.27 -4.83142 3.73372 0
M  V30 27388 H 2631.69 -2.90743 4.94107 0
M  V30 27389 H 2630.08 -2.36375 5.51586 0
M  V30 27390 H 2631.15 -1.2131 4.6948 0
M  V30 27391 N 2632.5 -1.48217 -0.535675 0
M  V30 27392 C 2633.74 -1.55636 -1.28925 0
M  V30 27393 C 2634.07 -0.229548 -1.93644 0
M  V30 27394 O 2633.34 0.748428 -1.8104 0
M  V30 27395 H 2631.92 -0.573351 -0.47883 0
M  V30 27396 H 2634.58 -1.84647 -0.623821 0
M  V30 27397 H 2633.67 -2.3344 -2.07153 0
M  V30 27398 N 2633.97 0.784108 -1.3671 0
M  V30 27399 C 2634.94 1.87857 -1.3131 0
M  V30 27400 C 2635.94 1.59292 -0.219682 0
M  V30 27401 O 2637.13 1.67605 -0.47479 0
M  V30 27402 C 2634.26 3.24749 -1.03685 0
M  V30 27403 H 2635.45 1.9406 -2.2865 0
M  V30 27404 H 2633.01 0.982499 -1.21559 0
M  V30 27405 H 2633.74 3.24228 -0.0682506 0
M  V30 27406 H 2633.53 3.46872 -1.82817 0
M  V30 27407 H 2635.02 4.04819 -1.02526 0
M  V30 27408 N 2635.45 1.21076 1.00888 0
M  V30 27409 C 2636.38 0.924328 2.09735 0
M  V30 27410 C 2637.4 -0.0909523 1.62546 0
M  V30 27411 O 2638.59 0.141052 1.77942 0
M  V30 27412 C 2635.69 0.365649 3.36922 0
M  V30 27413 C 2634.86 1.43433 4.13214 0
M  V30 27414 C 2633.92 0.885587 5.18694 0
M  V30 27415 O 2632.94 1.56811 5.47174 0
M  V30 27416 N 2634.15 -0.301125 5.79718 0
M  V30 27417 H 2636.91 1.86134 2.34892 0
M  V30 27418 H 2634.47 1.11549 1.17339 0
M  V30 27419 H 2636.46 -0.0157696 4.04697 0
M  V30 27420 H 2635.03 -0.476095 3.08953 0
M  V30 27421 H 2634.25 1.98976 3.40297 0
M  V30 27422 H 2635.54 2.15384 4.60963 0
M  V30 27423 H 2634.94 -0.87275 5.58927 0
M  V30 27424 H 2633.5 -0.624097 6.48805 0
M  V30 27425 N 2636.93 -1.2032 1.01789 0
M  V30 27426 C 2637.88 -2.21015 0.560015 0
M  V30 27427 C 2638.86 -1.56218 -0.385339 0
M  V30 27428 O 2640.06 -1.75772 -0.208095 0
M  V30 27429 C 2637.19 -3.43157 -0.098995 0
M  V30 27430 C 2636.27 -4.15119 0.868143 0
M  V30 27431 N 2636.66 -4.63443 2.02618 0
M  V30 27432 C 2634.96 -4.40642 0.689239 0
M  V30 27433 C 2635.66 -5.18583 2.63527 0
M  V30 27434 N 2634.64 -5.08723 1.91578 0
M  V30 27435 H 2638.44 -2.56045 1.44285 0
M  V30 27436 H 2635.95 -1.36271 0.883405 0
M  V30 27437 H 2637.95 -4.14523 -0.44457 0
M  V30 27438 H 2636.61 -3.09632 -0.977654 0
M  V30 27439 H 2637.62 -4.58617 2.40606 0
M  V30 27440 H 2634.3 -4.17261 -0.141256 0
M  V30 27441 H 2635.69 -5.6634 3.61537 0
M  V30 27442 N 2638.41 -0.794293 -1.3612 0
M  V30 27443 C 2639.34 -0.210369 -2.3255 0
M  V30 27444 C 2640.32 0.657359 -1.56885 0
M  V30 27445 O 2641.5 0.590174 -1.85015 0
M  V30 27446 C 2638.63 0.651759 -3.4113 0
M  V30 27447 C 2637.59 -0.11647 -4.27841 0
M  V30 27448 C 2636.91 0.866567 -5.27631 0
M  V30 27449 C 2638.21 -1.30846 -5.05645 0
M  V30 27450 H 2639.91 -1.01599 -2.81635 0
M  V30 27451 H 2637.45 -0.490005 -1.35407 0
M  V30 27452 H 2639.41 1.07023 -4.07583 0
M  V30 27453 H 2638.13 1.49013 -2.90624 0
M  V30 27454 H 2636.79 -0.515979 -3.62951 0
M  V30 27455 H 2636.44 1.70011 -4.73398 0
M  V30 27456 H 2636.14 0.356947 -5.86515 0
M  V30 27457 H 2637.66 1.28351 -5.96958 0
M  V30 27458 H 2639.08 -0.965492 -5.65112 0
M  V30 27459 H 2637.47 -1.75171 -5.73964 0
M  V30 27460 H 2638.54 -2.10136 -4.37002 0
M  V30 27461 N 2639.89 1.47813 -0.546727 0
M  V30 27462 C 2640.8 2.33656 0.210219 0
M  V30 27463 C 2641.81 1.4754 0.922387 0
M  V30 27464 O 2642.99 1.80489 0.89362 0
M  V30 27465 C 2640.05 3.24018 1.23342 0
M  V30 27466 C 2639.11 4.26018 0.529809 0
M  V30 27467 C 2638.35 5.12062 1.50426 0
M  V30 27468 O 2638.57 5.00374 2.73828 0
M  V30 27469 O 2637.5 5.92944 1.03449 0
M  V30 27470 H 2641.33 2.99661 -0.493658 0
M  V30 27471 H 2638.92 1.46202 -0.307452 0
M  V30 27472 H 2640.8 3.79864 1.82432 0
M  V30 27473 H 2639.47 2.60654 1.91941 0
M  V30 27474 H 2638.38 3.73961 -0.102013 0
M  V30 27475 H 2639.71 4.92067 -0.114536 0
M  V30 27476 N 2641.36 0.28266 1.55044 0
M  V30 27477 C 2642.33 -0.588501 2.21516 0
M  V30 27478 C 2643.33 -1.07552 1.19537 0
M  V30 27479 O 2644.52 -0.974489 1.44393 0
M  V30 27480 C 2641.65 -1.81275 2.88708 0
M  V30 27481 H 2642.84 -0.00801126 2.99899 0
M  V30 27482 H 2640.4 0.0333342 1.56264 0
M  V30 27483 H 2641.13 -2.43356 2.14356 0
M  V30 27484 H 2640.92 -1.47137 3.63446 0
M  V30 27485 H 2642.41 -2.43208 3.3947 0
M  V30 27486 N 2642.84 -1.57597 0.0100627 0
M  V30 27487 C 2644.09 -1.90624 -0.671338 0
M  V30 27488 C 2644.41 -0.885181 -1.73751 0
M  V30 27489 O 2643.68 0.0760267 -1.95752 0
M  V30 27490 H 2642.26 -0.703584 -0.250956 0
M  V30 27491 H 2644.92 -1.94827 0.0533667 0
M  V30 27492 H 2644.02 -2.90683 -1.13621 0
M  V30 27493 N 2644.32 0.262839 -1.55393 0
M  V30 27494 C 2645.57 0.991116 -1.76129 0
M  V30 27495 C 2645.89 1.86449 -0.571116 0
M  V30 27496 O 2645.16 1.91483 0.413664 0
M  V30 27497 H 2643.74 0.368936 -0.649534 0
M  V30 27498 H 2646.4 0.284621 -1.92811 0
M  V30 27499 H 2645.5 1.62214 -2.66633 0
M  V30 27500 N 2645.8 1.48499 0.527807 0
M  V30 27501 C 2647.02 1.60549 1.31297 0
M  V30 27502 C 2647.45 0.266753 1.86199 0
M  V30 27503 O 2646.81 -0.761889 1.64514 0
M  V30 27504 C 2646.85 2.65682 2.43814 0
M  V30 27505 O 2645.96 2.22993 3.46912 0
M  V30 27506 H 2645.3 0.538284 0.388775 0
M  V30 27507 H 2647.83 1.94501 0.634862 0
M  V30 27508 H 2647.84 2.87023 2.89968 0
M  V30 27509 H 2646.51 3.62872 2.03215 0
M  V30 27510 H 2645.09 2.11875 3.06861 0
M  V30 27511 N 2647.28 -0.776847 1.37123 0
M  V30 27512 C 2648.21 -1.90399 1.35168 0
M  V30 27513 C 2649.19 -1.68657 0.221099 0
M  V30 27514 O 2650.37 -1.89589 0.420675 0
M  V30 27515 C 2647.5 -3.27609 1.1528 0
M  V30 27516 C 2646.46 -3.63904 2.25295 0
M  V30 27517 C 2645.78 -4.996 1.90536 0
M  V30 27518 C 2647.08 -3.71181 3.67453 0
M  V30 27519 H 2648.78 -1.92293 2.29486 0
M  V30 27520 H 2646.32 -0.923753 1.10466 0
M  V30 27521 H 2648.28 -4.06094 1.12543 0
M  V30 27522 H 2647 -3.26135 0.17416 0
M  V30 27523 H 2645.66 -2.87724 2.27179 0
M  V30 27524 H 2645.31 -4.9466 0.912147 0
M  V30 27525 H 2645.01 -5.24853 2.64202 0
M  V30 27526 H 2646.53 -5.8049 1.89377 0
M  V30 27527 H 2647.95 -4.39829 3.67727 0
M  V30 27528 H 2646.34 -4.07929 4.4013 0
M  V30 27529 H 2647.41 -2.7197 4.01448 0
M  V30 27530 N 2648.76 -1.2161 -1.00244 0
M  V30 27531 C 2649.98 -1.06092 -1.77629 0
M  V30 27532 C 2650.4 0.389127 -1.84746 0
M  V30 27533 O 2649.76 1.26991 -1.3107 0
M  V30 27534 C 2649.81 -1.65459 -3.21412 0
M  V30 27535 O 2649.53 -3.0479 -3.14698 0
M  V30 27536 C 2651.03 -1.55087 -4.15287 0
M  V30 27537 H 2648.25 -0.372429 -0.558155 0
M  V30 27538 H 2650.79 -1.61001 -1.2609 0
M  V30 27539 H 2648.95 -1.14635 -3.70051 0
M  V30 27540 H 2649.36 -3.33219 -4.0505 0
M  V30 27541 H 2650.84 -2.01364 -5.13962 0
M  V30 27542 H 2651.31 -0.505742 -4.36278 0
M  V30 27543 H 2651.92 -2.0517 -3.72539 0
M  V30 27544 N 2650.23 1.19778 -1.02425 0
M  V30 27545 C 2651.65 1.41382 -0.740484 0
M  V30 27546 C 2651.85 1.89794 0.676794 0
M  V30 27547 O 2650.91 2.07173 1.44346 0
M  V30 27548 C 2652.22 2.42892 -1.77268 0
M  V30 27549 C 2653.77 2.56646 -1.7917 0
M  V30 27550 C 2654.24 3.61405 -2.81337 0
M  V30 27551 N 2655.73 3.68897 -2.80124 0
M  V30 27552 C 2656.47 4.49634 -3.55832 0
M  V30 27553 N 2655.96 5.34115 -4.4124 0
M  V30 27554 N 2657.76 4.4424 -3.44394 0
M  V30 27555 H 2649.91 0.86673 -1.93911 0
M  V30 27556 H 2652.17 0.443083 -0.838082 0
M  V30 27557 H 2651.88 2.14334 -2.78844 0
M  V30 27558 H 2651.75 3.41998 -1.59114 0
M  V30 27559 H 2654.14 2.84529 -0.782752 0
M  V30 27560 H 2654.22 1.57709 -2.01398 0
M  V30 27561 H 2653.86 3.34265 -3.824 0
M  V30 27562 H 2653.79 4.59982 -2.56367 0
M  V30 27563 H 2656.28 3.08558 -2.18176 0
M  V30 27564 H 2656.6 5.92827 -4.95758 0
M  V30 27565 H 2654.94 5.33591 -4.45315 0
M  V30 27566 H 2658.13 3.7728 -2.77087 0
M  V30 27567 H 2658.31 5.06924 -4.03649 0
M  V30 27568 N 2651.71 0.801501 1.35697 0
M  V30 27569 C 2652.66 0.181113 2.2728 0
M  V30 27570 C 2653.65 -0.642072 1.47534 0
M  V30 27571 O 2654.84 -0.500163 1.69786 0
M  V30 27572 C 2651.97 -0.673553 3.36628 0
M  V30 27573 C 2651.05 0.159082 4.23802 0
M  V30 27574 N 2651.44 1.21958 4.90877 0
M  V30 27575 C 2649.74 -0.0601221 4.45959 0
M  V30 27576 C 2650.44 1.72748 5.55457 0
M  V30 27577 N 2649.42 1.03475 5.33661 0
M  V30 27578 H 2653.22 0.99263 2.7663 0
M  V30 27579 H 2650.73 0.642153 1.49165 0
M  V30 27580 H 2652.73 -1.13401 4.01181 0
M  V30 27581 H 2651.39 -1.48348 2.8883 0
M  V30 27582 H 2652.4 1.60217 4.92495 0
M  V30 27583 H 2649.08 -0.839592 4.08971 0
M  V30 27584 H 2650.47 2.61353 6.18987 0
M  V30 27585 N 2653.19 -1.47521 0.554558 0
M  V30 27586 C 2654.44 -2.02778 0.0295583 0
M  V30 27587 C 2654.77 -1.4283 -1.3158 0
M  V30 27588 O 2654.04 -0.582905 -1.8556 0
M  V30 27589 C 2654.33 -3.60039 -0.0663424 0
M  V30 27590 C 2654.18 -4.30425 1.30592 0
M  V30 27591 C 2655.5 -4.33113 -0.781086 0
M  V30 27592 H 2652.62 -0.736899 0.0122157 0
M  V30 27593 H 2655.26 -1.75979 0.716336 0
M  V30 27594 H 2653.41 -3.83003 -0.65124 0
M  V30 27595 H 2655.08 -4.18809 1.93382 0
M  V30 27596 H 2653.32 -3.90882 1.88131 0
M  V30 27597 H 2654 -5.38986 1.19156 0
M  V30 27598 H 2656.47 -4.15126 -0.284492 0
M  V30 27599 H 2655.35 -5.42784 -0.817142 0
M  V30 27600 H 2655.61 -4.02144 -1.83665 0
M  V30 27601 N 2654.67 -0.290879 -1.54892 0
M  V30 27602 C 2655.9 0.324252 -2.04343 0
M  V30 27603 C 2656.31 1.48287 -1.16861 0
M  V30 27604 O 2655.67 1.81487 -0.19205 0
M  V30 27605 C 2655.72 0.790198 -3.52758 0
M  V30 27606 O 2655.44 -0.32229 -4.36913 0
M  V30 27607 C 2656.94 1.47153 -4.18164 0
M  V30 27608 H 2654.16 0.0719056 -0.667136 0
M  V30 27609 H 2656.7 -0.427564 -1.9998 0
M  V30 27610 H 2654.86 1.49206 -3.57514 0
M  V30 27611 H 2655.27 0.038645 -5.24486 0
M  V30 27612 H 2656.75 1.74881 -5.23565 0
M  V30 27613 H 2657.22 2.40827 -3.67286 0
M  V30 27614 H 2657.83 0.813105 -4.17455 0
M  V30 27615 N 2656.15 1.57589 -0.0184203 0
M  V30 27616 C 2657.08 2.06451 0.99552 0
M  V30 27617 C 2658.09 0.985871 1.29555 0
M  V30 27618 O 2659.28 1.26229 1.26208 0
M  V30 27619 C 2656.38 2.46506 2.32568 0
M  V30 27620 C 2655.55 3.77323 2.21238 0
M  V30 27621 C 2654.61 4.04045 3.37097 0
M  V30 27622 O 2653.64 4.74451 3.1446 0
M  V30 27623 N 2654.84 3.5338 4.60547 0
M  V30 27624 H 2657.6 2.9406 0.578694 0
M  V30 27625 H 2655.17 1.6102 0.168575 0
M  V30 27626 H 2657.16 2.61483 3.08883 0
M  V30 27627 H 2655.73 1.6432 2.65928 0
M  V30 27628 H 2654.95 3.72246 1.29717 0
M  V30 27629 H 2656.24 4.6305 2.1086 0
M  V30 27630 H 2655.63 2.964 4.81834 0
M  V30 27631 H 2654.19 3.73654 5.34066 0
M  V30 27632 N 2657.62 -0.254594 1.5553 0
M  V30 27633 C 2658.53 -1.33674 1.92791 0
M  V30 27634 C 2659.55 -1.5307 0.827383 0
M  V30 27635 O 2660.73 -1.66841 1.1281 0
M  V30 27636 C 2657.79 -2.67272 2.20832 0
M  V30 27637 C 2656.85 -2.56464 3.44274 0
M  V30 27638 C 2656.08 -3.83691 3.70968 0
M  V30 27639 O 2656.31 -4.85221 2.99861 0
M  V30 27640 O 2655.24 -3.82786 4.64498 0
M  V30 27641 H 2659.07 -1.05066 2.84947 0
M  V30 27642 H 2656.65 -0.454698 1.42313 0
M  V30 27643 H 2658.53 -3.46233 2.4021 0
M  V30 27644 H 2657.21 -2.95627 1.31856 0
M  V30 27645 H 2656.12 -1.75815 3.30212 0
M  V30 27646 H 2657.45 -2.33055 4.33528 0
M  V30 27647 N 2659.1 -1.48777 -0.519925 0
M  V30 27648 C 2660.35 -1.57306 -1.27519 0
M  V30 27649 C 2660.68 -0.251362 -1.92869 0
M  V30 27650 O 2659.93 0.759212 -1.80373 0
M  V30 27651 C 2660.23 -2.66754 -2.37859 0
M  V30 27652 C 2659.9 -4.0887 -1.90095 0
M  V30 27653 C 2658.56 -4.47549 -1.76787 0
M  V30 27654 C 2660.91 -4.97891 -1.54124 0
M  V30 27655 C 2658.24 -5.73042 -1.25858 0
M  V30 27656 C 2660.59 -6.23883 -1.04654 0
M  V30 27657 C 2659.25 -6.61409 -0.899707 0
M  V30 27658 H 2658.52 -0.575622 -0.466626 0
M  V30 27659 H 2661.17 -1.82535 -0.579077 0
M  V30 27660 H 2659.48 -2.35423 -3.13182 0
M  V30 27661 H 2661.17 -2.70566 -2.95964 0
M  V30 27662 H 2657.76 -3.78329 -2.01407 0
M  V30 27663 H 2661.95 -4.68678 -1.63261 0
M  V30 27664 H 2657.2 -6.00832 -1.13185 0
M  V30 27665 H 2661.38 -6.92252 -0.758952 0
M  V30 27666 H 2659 -7.58535 -0.502878 0
M  V30 27667 N 2660.58 0.769564 -1.37534 0
M  V30 27668 C 2661.83 1.53046 -1.33059 0
M  V30 27669 C 2662.16 1.94018 0.0841524 0
M  V30 27670 O 2661.43 1.64236 1.04195 0
M  V30 27671 C 2661.72 2.79402 -2.27171 0
M  V30 27672 C 2661.57 2.44671 -3.77434 0
M  V30 27673 C 2662.89 3.81346 -2.1969 0
M  V30 27674 H 2660.01 0.55522 -0.484665 0
M  V30 27675 H 2662.65 0.882673 -1.68252 0
M  V30 27676 H 2660.8 3.34678 -1.97288 0
M  V30 27677 H 2662.47 1.95293 -4.17922 0
M  V30 27678 H 2660.71 1.77339 -3.95896 0
M  V30 27679 H 2661.39 3.35004 -4.38721 0
M  V30 27680 H 2663.86 3.35569 -2.46034 0
M  V30 27681 H 2662.74 4.67476 -2.87676 0
M  V30 27682 H 2663 4.25769 -1.19052 0
M  V30 27683 N 2662.06 1.22139 0.995977 0
M  V30 27684 C 2663.28 1.07113 1.77599 0
M  V30 27685 C 2663.71 -0.374232 1.8434 0
M  V30 27686 O 2663.07 -1.27026 1.29361 0
M  V30 27687 C 2663.11 1.68341 3.18894 0
M  V30 27688 O 2662.22 0.934998 4.01661 0
M  V30 27689 H 2661.56 0.376406 0.547005 0
M  V30 27690 H 2664.09 1.61872 1.25134 0
M  V30 27691 H 2664.1 1.72937 3.69536 0
M  V30 27692 H 2662.77 2.73521 3.13303 0
M  V30 27693 H 2661.35 0.964814 3.60202 0
M  V30 27694 N 2663.54 -1.19233 1.03059 0
M  V30 27695 C 2664.95 -1.40988 0.747971 0
M  V30 27696 C 2665.15 -1.9015 -0.666719 0
M  V30 27697 O 2664.21 -2.07935 -1.43245 0
M  V30 27698 C 2665.52 -2.41948 1.78554 0
M  V30 27699 C 2667.07 -2.55692 1.80528 0
M  V30 27700 C 2667.54 -3.59908 2.83249 0
M  V30 27701 N 2669.04 -3.67406 2.82077 0
M  V30 27702 C 2669.77 -4.47741 3.58211 0
M  V30 27703 N 2669.27 -5.31767 4.44067 0
M  V30 27704 N 2671.06 -4.42407 3.46746 0
M  V30 27705 H 2663.21 -0.856434 1.94368 0
M  V30 27706 H 2665.47 -0.438633 0.84042 0
M  V30 27707 H 2665.18 -2.12852 2.79976 0
M  V30 27708 H 2665.05 -3.41149 1.60926 0
M  V30 27709 H 2667.44 -2.8411 0.79783 0
M  V30 27710 H 2667.52 -1.56639 2.02232 0
M  V30 27711 H 2667.17 -3.32232 3.84167 0
M  V30 27712 H 2667.1 -4.58616 2.58803 0
M  V30 27713 H 2669.59 -3.07396 2.19809 0
M  V30 27714 H 2669.9 -5.9019 4.98895 0
M  V30 27715 H 2668.24 -5.31222 4.48138 0
M  V30 27716 H 2671.44 -3.75806 2.79084 0
M  V30 27717 H 2671.61 -5.04776 4.06331 0
M  V30 27718 N 2665.01 -0.808686 -1.3527 0
M  V30 27719 C 2666.24 -0.402572 -2.02946 0
M  V30 27720 C 2666.66 0.987119 -1.60939 0
M  V30 27721 O 2666.01 1.63641 -0.807946 0
M  V30 27722 C 2666.07 -0.478743 -3.58316 0
M  V30 27723 O 2665.79 -1.81365 -3.98796 0
M  V30 27724 C 2667.29 -0.065706 -4.43251 0
M  V30 27725 H 2664.51 -0.163291 -0.650828 0
M  V30 27726 H 2667.05 -1.09289 -1.72847 0
M  V30 27727 H 2665.21 0.163347 -3.87055 0
M  V30 27728 H 2665.62 -1.7779 -4.93448 0
M  V30 27729 H 2667.09 -0.170114 -5.51738 0
M  V30 27730 H 2667.57 0.989203 -4.27915 0
M  V30 27731 H 2668.18 -0.681034 -4.19812 0
M  V30 27732 N 2666.49 1.47225 -0.562374 0
M  V30 27733 C 2667.42 2.32876 0.170586 0
M  V30 27734 C 2668.4 1.44107 0.903722 0
M  V30 27735 O 2669.59 1.72956 0.883176 0
M  V30 27736 C 2666.72 3.25991 1.1978 0
M  V30 27737 C 2665.67 4.24041 0.580801 0
M  V30 27738 C 2665 5.06517 1.71302 0
M  V30 27739 C 2666.3 5.20192 -0.468806 0
M  V30 27740 H 2667.99 2.94407 -0.544492 0
M  V30 27741 H 2665.54 1.41572 -0.263296 0
M  V30 27742 H 2667.49 3.84755 1.71877 0
M  V30 27743 H 2666.22 2.62525 1.94289 0
M  V30 27744 H 2664.87 3.6651 0.0810894 0
M  V30 27745 H 2664.52 4.39451 2.44728 0
M  V30 27746 H 2664.22 5.72904 1.30594 0
M  V30 27747 H 2665.75 5.68141 2.23715 0
M  V30 27748 H 2667.16 5.7329 -0.0337035 0
M  V30 27749 H 2665.56 5.9481 -0.795062 0
M  V30 27750 H 2666.63 4.65356 -1.36277 0
M  V30 27751 N 2667.97 0.299089 1.54736 0
M  V30 27752 C 2669.2 -0.313411 2.04512 0
M  V30 27753 C 2669.61 -1.47665 1.17646 0
M  V30 27754 O 2668.97 -1.81382 0.201672 0
M  V30 27755 C 2669.02 -0.77148 3.53172 0
M  V30 27756 O 2668.74 0.345456 4.36736 0
M  V30 27757 C 2670.24 -1.44933 4.18938 0
M  V30 27758 H 2667.46 -0.0683666 0.667508 0
M  V30 27759 H 2670.01 0.438164 1.99751 0
M  V30 27760 H 2668.16 -1.47308 3.583 0
M  V30 27761 H 2668.58 -0.0108297 5.24499 0
M  V30 27762 H 2670.05 -1.72102 5.24485 0
M  V30 27763 H 2670.53 -2.38876 3.68558 0
M  V30 27764 H 2671.13 -0.790955 4.1788 0
M  V30 27765 N 2669.45 -1.57577 0.0267774 0
M  V30 27766 C 2670.68 -1.96002 -0.662627 0
M  V30 27767 C 2671.09 -0.903146 -1.65797 0
M  V30 27768 O 2670.45 0.115285 -1.82136 0
M  V30 27769 C 2670.5 -3.34491 -1.37107 0
M  V30 27770 O 2670.22 -4.36124 -0.415606 0
M  V30 27771 C 2671.72 -3.87533 -2.15251 0
M  V30 27772 H 2668.94 -0.645603 -0.182859 0
M  V30 27773 H 2671.49 -2.0432 0.0858475 0
M  V30 27774 H 2669.64 -3.27399 -2.07096 0
M  V30 27775 H 2670.05 -5.16397 -0.918405 0
M  V30 27776 H 2671.53 -4.86786 -2.60277 0
M  V30 27777 H 2672.01 -3.21654 -2.99057 0
M  V30 27778 H 2672.61 -3.97886 -1.50224 0
M  V30 27779 N 2670.93 0.246342 -1.55663 0
M  V30 27780 C 2672.15 0.996061 -1.81916 0
M  V30 27781 C 2672.58 1.78142 -0.603906 0
M  V30 27782 O 2671.93 1.75702 0.44706 0
M  V30 27783 C 2671.98 1.9092 -3.05912 0
M  V30 27784 O 2671.09 3.001 -2.82866 0
M  V30 27785 H 2670.43 0.283396 -0.600486 0
M  V30 27786 H 2672.96 0.267163 -2.02848 0
M  V30 27787 H 2672.97 2.32374 -3.3536 0
M  V30 27788 H 2671.64 1.33176 -3.94001 0
M  V30 27789 H 2670.22 2.6277 -2.64587 0
M  V30 27790 N 2672.4 1.4905 0.512027 0
M  V30 27791 C 2673.65 1.57668 1.26433 0
M  V30 27792 C 2673.97 0.260326 1.93254 0
M  V30 27793 O 2673.24 -0.719532 1.82207 0
M  V30 27794 H 2671.82 0.580896 0.469648 0
M  V30 27795 H 2674.49 1.85616 0.594366 0
M  V30 27796 H 2673.58 2.36706 2.03413 0
M  V30 27797 N 2673.88 -0.762259 1.3794 0
M  V30 27798 C 2675.11 -1.55145 1.36886 0
M  V30 27799 C 2675.53 -1.8875 -0.0435016 0
M  V30 27800 O 2674.88 -1.52148 -1.00783 0
M  V30 27801 C 2674.93 -2.85592 2.21629 0
M  V30 27802 O 2674.65 -2.53423 3.57363 0
M  V30 27803 C 2676.16 -3.79776 2.2866 0
M  V30 27804 H 2673.38 -0.480335 0.468529 0
M  V30 27805 H 2675.92 -0.944047 1.81406 0
M  V30 27806 H 2674.07 -3.42731 1.80594 0
M  V30 27807 H 2674.49 -3.37025 4.01889 0
M  V30 27808 H 2675.96 -4.68283 2.92259 0
M  V30 27809 H 2676.44 -4.19589 1.29774 0
M  V30 27810 H 2677.05 -3.28563 2.70049 0
M  V30 27811 N 2675.36 -1.22666 -0.989486 0
M  V30 27812 C 2676.29 -1.02407 -2.09845 0
M  V30 27813 C 2677.27 0.0561004 -1.70007 0
M  V30 27814 O 2678.46 -0.106782 -1.93906 0
M  V30 27815 C 2675.59 -0.604723 -3.41995 0
M  V30 27816 C 2674.54 -1.63122 -3.95696 0
M  V30 27817 C 2673.87 -1.06759 -5.23934 0
M  V30 27818 C 2675.17 -3.02204 -4.25993 0
M  V30 27819 H 2676.86 -1.95162 -2.27051 0
M  V30 27820 H 2674.41 -0.939747 -1.09109 0
M  V30 27821 H 2676.36 -0.450093 -4.18989 0
M  V30 27822 H 2675.08 0.358493 -3.24627 0
M  V30 27823 H 2673.74 -1.77368 -3.20837 0
M  V30 27824 H 2673.39 -0.0956306 -5.02909 0
M  V30 27825 H 2673.09 -1.75338 -5.6083 0
M  V30 27826 H 2674.61 -0.924622 -6.03559 0
M  V30 27827 H 2676.03 -2.91311 -4.93772 0
M  V30 27828 H 2674.43 -3.67938 -4.74069 0
M  V30 27829 H 2675.5 -3.51879 -3.3363 0
M  V30 27830 N 2676.84 1.18685 -1.0369 0
M  V30 27831 C 2678.06 1.93058 -0.757853 0
M  V30 27832 C 2678.49 1.75443 0.678323 0
M  V30 27833 O 2677.85 1.06205 1.46936 0
M  V30 27834 C 2677.9 3.42625 -1.12429 0
M  V30 27835 O 2677 4.11656 -0.247578 0
M  V30 27836 H 2676.34 0.602422 -0.279256 0
M  V30 27837 H 2678.87 1.50528 -1.38573 0
M  V30 27838 H 2678.88 3.9332 -1.0846 0
M  V30 27839 H 2677.56 3.54767 -2.17056 0
M  V30 27840 H 2676.13 3.71286 -0.346555 0
M  V30 27841 N 2678.32 0.815849 1.34839 0
M  V30 27842 C 2679.55 0.41333 2.02729 0
M  V30 27843 C 2679.96 -0.97857 1.6146 0
M  V30 27844 O 2679.32 -1.63211 0.816613 0
M  V30 27845 C 2679.37 0.497739 3.58057 0
M  V30 27846 O 2679.09 1.83477 3.97829 0
M  V30 27847 C 2680.59 0.0892118 4.4321 0
M  V30 27848 H 2677.81 0.16674 0.649953 0
M  V30 27849 H 2680.35 1.10204 1.72265 0
M  V30 27850 H 2678.51 -0.142818 3.87137 0
M  V30 27851 H 2678.92 1.80404 4.92498 0
M  V30 27852 H 2680.4 0.199371 5.5164 0
M  V30 27853 H 2680.87 -0.966496 4.28434 0
M  V30 27854 H 2681.48 0.703288 4.19445 0
M  V30 27855 N 2679.8 -1.46924 0.570174 0
M  V30 27856 C 2680.75 -2.272 -0.190881 0
M  V30 27857 C 2681.73 -1.35129 -0.873433 0
M  V30 27858 O 2682.92 -1.59393 -0.769599 0
M  V30 27859 C 2680.05 -3.21194 -1.21198 0
M  V30 27860 C 2679.14 -4.20748 -0.532187 0
M  V30 27861 N 2679.53 -5.04175 0.405127 0
M  V30 27862 C 2677.83 -4.39046 -0.784505 0
M  V30 27863 C 2678.53 -5.76155 0.80125 0
M  V30 27864 N 2677.5 -5.43384 0.153178 0
M  V30 27865 H 2681.3 -2.89089 0.529586 0
M  V30 27866 H 2678.82 -1.57622 0.391047 0
M  V30 27867 H 2680.82 -3.77401 -1.77128 0
M  V30 27868 H 2679.48 -2.60863 -1.93341 0
M  V30 27869 H 2680.49 -5.11993 0.779993 0
M  V30 27870 H 2677.16 -3.89875 -1.49345 0
M  V30 27871 H 2678.55 -6.53247 1.5722 0
M  V30 27872 N 2681.27 -0.307291 -1.54575 0
M  V30 27873 C 2682.21 0.608157 -2.19947 0
M  V30 27874 C 2683.18 1.12813 -1.17098 0
M  V30 27875 O 2684.37 1.19516 -1.45768 0
M  V30 27876 C 2681.5 1.83275 -2.84829 0
M  V30 27877 C 2680.54 1.44546 -4.01259 0
M  V30 27878 S 2681.37 0.496026 -5.33198 0
M  V30 27879 C 2682.53 1.72828 -6.01566 0
M  V30 27880 H 2682.76 0.0528022 -2.97253 0
M  V30 27881 H 2680.3 -0.0914107 -1.54129 0
M  V30 27882 H 2682.25 2.53549 -3.22836 0
M  V30 27883 H 2680.92 2.35928 -2.07357 0
M  V30 27884 H 2680.11 2.35754 -4.45462 0
M  V30 27885 H 2679.71 0.822607 -3.64841 0
M  V30 27886 H 2682 2.66799 -6.22756 0
M  V30 27887 H 2682.95 1.3287 -6.95522 0
M  V30 27888 H 2683.35 1.90785 -5.31283 0
M  V30 27889 N 2682.75 1.57561 -0.0351337 0
M  V30 27890 C 2684.03 1.83356 0.68118 0
M  V30 27891 C 2684.41 0.920286 1.89984 0
M  V30 27892 O 2683.76 -0.0226414 2.28489 0
M  V30 27893 C 2683.97 3.32713 1.0537 0
M  V30 27894 C 2685.31 3.99335 1.44279 0
M  V30 27895 O 2686.34 3.37244 1.14651 0
M  V30 27896 O 2685.2 5.08781 1.99509 0
M  V30 27897 H 2682.29 0.756232 0.334728 0
M  V30 27898 H 2684.84 1.69582 -0.0632746 0
M  V30 27899 H 2683.61 3.90855 0.1866 0
M  V30 27900 H 2683.23 3.51616 1.85612 0
M  V30 27901 N 2684.23 -0.238084 1.55791 0
M  V30 27902 C 2685.16 -1.31798 1.87515 0
M  V30 27903 C 2686.17 -1.43862 0.762078 0
M  V30 27904 O 2687.36 -1.45054 1.04027 0
M  V30 27905 C 2684.46 -2.69557 2.05407 0
M  V30 27906 C 2683.64 -2.7965 3.36325 0
M  V30 27907 C 2682.7 -3.98313 3.43851 0
M  V30 27908 O 2681.72 -3.87426 4.17001 0
M  V30 27909 N 2682.92 -5.1188 2.73786 0
M  V30 27910 H 2685.69 -1.04917 2.80736 0
M  V30 27911 H 2683.25 -0.428168 1.56136 0
M  V30 27912 H 2685.24 -3.47292 2.07775 0
M  V30 27913 H 2683.81 -2.89109 1.1889 0
M  V30 27914 H 2683.03 -1.88522 3.46198 0
M  V30 27915 H 2684.32 -2.83351 4.22599 0
M  V30 27916 H 2683.72 -5.23619 2.14103 0
M  V30 27917 H 2682.27 -5.87718 2.81835 0
M  V30 27918 N 2685.71 -1.4932 -0.504115 0
M  V30 27919 C 2686.64 -1.61875 -1.62262 0
M  V30 27920 C 2687.65 -0.5016 -1.5488 0
M  V30 27921 O 2688.84 -0.773525 -1.60869 0
M  V30 27922 C 2685.94 -1.55656 -3.01039 0
M  V30 27923 C 2685.11 -2.82851 -3.33637 0
M  V30 27924 C 2684.17 -2.69727 -4.51812 0
M  V30 27925 O 2683.2 -3.43658 -4.53749 0
M  V30 27926 N 2684.4 -1.81064 -5.5154 0
M  V30 27927 H 2687.17 -2.58342 -1.5192 0
M  V30 27928 H 2684.73 -1.46369 -0.691928 0
M  V30 27929 H 2686.72 -1.44534 -3.7801 0
M  V30 27930 H 2685.29 -0.6706 -3.05322 0
M  V30 27931 H 2684.51 -3.08347 -2.45593 0
M  V30 27932 H 2685.8 -3.67183 -3.52213 0
M  V30 27933 H 2685.2 -1.20251 -5.52771 0
M  V30 27934 H 2683.75 -1.75867 -6.27626 0
M  V30 27935 N 2687.19 0.754933 -1.38342 0
M  V30 27936 C 2688.43 1.51402 -1.34476 0
M  V30 27937 C 2688.76 1.94389 0.0656116 0
M  V30 27938 O 2688.02 1.65627 1.04241 0
M  V30 27939 C 2688.31 2.78071 -2.24525 0
M  V30 27940 C 2687.98 2.54052 -3.72516 0
M  V30 27941 C 2686.64 2.47211 -4.12844 0
M  V30 27942 C 2688.99 2.33036 -4.66201 0
M  V30 27943 C 2686.32 2.17366 -5.44948 0
M  V30 27944 C 2688.67 2.04712 -5.98561 0
M  V30 27945 C 2687.34 1.96326 -6.37975 0
M  V30 27946 H 2686.61 0.554018 -0.492082 0
M  V30 27947 H 2689.26 0.868193 -1.70689 0
M  V30 27948 H 2687.56 3.47296 -1.81363 0
M  V30 27949 H 2689.26 3.36022 -2.18838 0
M  V30 27950 H 2685.85 2.60247 -3.40543 0
M  V30 27951 H 2690.03 2.37301 -4.35892 0
M  V30 27952 H 2685.29 2.09381 -5.7443 0
M  V30 27953 H 2689.46 1.87453 -6.70697 0
M  V30 27954 H 2687.09 1.72965 -7.40261 0
M  V30 27955 N 2688.66 1.23189 0.982967 0
M  V30 27956 C 2689.91 1.06244 1.72391 0
M  V30 27957 C 2690.24 -0.401047 1.9032 0
M  V30 27958 O 2689.49 -1.31333 1.45087 0
M  V30 27959 C 2689.79 1.73012 3.12733 0
M  V30 27960 C 2689.46 3.22927 3.14689 0
M  V30 27961 C 2688.12 3.6383 3.1493 0
M  V30 27962 C 2690.47 4.18835 3.10204 0
M  V30 27963 C 2687.8 4.99106 3.08399 0
M  V30 27964 C 2690.15 5.541 3.05215 0
M  V30 27965 C 2688.82 5.9437 3.03776 0
M  V30 27966 H 2688.09 0.388774 0.630822 0
M  V30 27967 H 2690.73 1.53087 1.1505 0
M  V30 27968 H 2689.04 1.1852 3.73444 0
M  V30 27969 H 2690.74 1.57381 3.68826 0
M  V30 27970 H 2687.33 2.90363 3.15257 0
M  V30 27971 H 2691.51 3.88245 3.09159 0
M  V30 27972 H 2686.77 5.29524 3.05637 0
M  V30 27973 H 2690.94 6.28134 3.00701 0
M  V30 27974 H 2688.57 6.99156 2.98471 0
M  V30 27975 N 2690.14 -1.18133 1.04318 0
M  V30 27976 C 2691.07 -2.21356 0.594483 0
M  V30 27977 C 2692.09 -1.5927 -0.337187 0
M  V30 27978 O 2693.28 -1.78016 -0.131306 0
M  V30 27979 C 2690.38 -3.38563 -0.151191 0
M  V30 27980 C 2689.55 -4.30225 0.788982 0
M  V30 27981 C 2688.61 -5.26129 0.0861497 0
M  V30 27982 O 2687.63 -5.64661 0.717401 0
M  V30 27983 N 2688.84 -5.68389 -1.17959 0
M  V30 27984 H 2691.6 -2.60476 1.48231 0
M  V30 27985 H 2689.16 -1.32944 0.923983 0
M  V30 27986 H 2691.15 -3.99746 -0.631282 0
M  V30 27987 H 2689.72 -2.98114 -0.940586 0
M  V30 27988 H 2688.94 -3.66608 1.44888 0
M  V30 27989 H 2690.23 -4.88365 1.42747 0
M  V30 27990 H 2689.63 -5.39143 -1.71293 0
M  V30 27991 H 2688.19 -6.31758 -1.60391 0
M  V30 27992 N 2691.62 -0.822988 -1.34405 0
M  V30 27993 C 2692.85 -0.424075 -2.02507 0
M  V30 27994 C 2693.26 0.969994 -1.61977 0
M  V30 27995 O 2692.62 1.62775 -0.825257 0
M  V30 27996 C 2692.67 -0.51672 -3.57788 0
M  V30 27997 O 2692.39 -1.85584 -3.9685 0
M  V30 27998 C 2693.89 -0.112715 -4.43157 0
M  V30 27999 H 2691.11 -0.170184 -0.64906 0
M  V30 28000 H 2693.66 -1.11116 -1.71678 0
M  V30 28001 H 2691.81 0.122285 -3.87207 0
M  V30 28002 H 2692.23 -1.83014 -4.91535 0
M  V30 28003 H 2693.7 -0.228623 -5.51526 0
M  V30 28004 H 2694.18 0.943761 -4.2894 0
M  V30 28005 H 2694.78 -0.725522 -4.19066 0
M  V30 28006 O 2693.14 1.44625 -0.718749 0
M  V30 28007 H 2693.83 1.91879 -0.264972 0
M  V30 END ATOM
M  V30 BEGIN BOND
M  V30 END BOND
M  V30 END CTAB
M  END
$$$$
