drugbank_target|P16278 Beta-galactosidase (DB04465)
 OpenBabel12092121243D

  0  0  0     0  0            999 V3000
M  V30 BEGIN CTAB
M  V30 COUNTS 10656 10827 0 0 0
M  V30 BEGIN ATOM
M  V30 1 H -0.908 1.98254 -0.117106 0
M  V30 2 N 0 1.576 0 0
M  V30 3 C 0.933 2.03868 1.02534 0
M  V30 4 C 1.911 0.928543 1.3348 0
M  V30 5 O 3.095 1.19667 1.45644 0
M  V30 6 C 0.222 2.43627 2.35294 0
M  V30 7 C -0.732 3.65373 2.2001 0
M  V30 8 S 0.101 5.13292 1.52614 0
M  V30 9 C 1.257 5.56322 2.86805 0
M  V30 10 H 1.49 2.90518 0.631377 0
M  V30 11 H -0.977 1.52953 0.210867 0
M  V30 12 H 0.981 2.67203 3.11629 0
M  V30 13 H -0.358 1.57376 2.7183 0
M  V30 14 H -1.165 3.90944 3.18086 0
M  V30 15 H -1.563 3.418 1.51819 0
M  V30 16 H 0.729 5.58782 3.83104 0
M  V30 17 H 1.672 6.56266 2.65933 0
M  V30 18 H 2.08 4.83886 2.90714 0
M  V30 19 N 1.4781 -0.272755 1.55222 0
M  V30 20 C 2.8891 -0.84378 1.66545 0
M  V30 21 C 3.2401 -1.87035 0.592641 0
M  V30 22 O 2.3651 -2.14761 -0.265818 0
M  V30 23 C 2.9601 -1.53723 3.01918 0
M  V30 24 C 1.5191 -2.05628 3.15268 0
M  V30 25 C 0.6661 -0.898424 2.62343 0
M  V30 26 H 3.6171 -0.0490998 1.58624 0
M  V30 27 H 3.6381 -2.40421 2.94921 0
M  V30 28 H 3.1501 -0.78983 3.79978 0
M  V30 29 H 1.2511 -2.83329 2.41983 0
M  V30 30 H 1.3641 -2.27142 4.21833 0
M  V30 31 H -0.2719 -1.29186 2.19506 0
M  V30 32 H 0.5111 -0.164528 3.42906 0
M  V30 33 N 2.9562 -1.48159 -0.537278 0
M  V30 34 C 4.2042 -1.55497 -1.29094 0
M  V30 35 C 4.5252 -0.227454 -1.93669 0
M  V30 36 O 3.7952 0.750386 -1.80959 0
M  V30 37 H 2.3752 -0.572832 -0.47945 0
M  V30 38 H 5.0372 -1.84579 -0.625818 0
M  V30 39 H 4.1332 -2.33216 -2.07405 0
M  V30 40 N 4.4343 0.785586 -1.36625 0
M  V30 41 C 5.6813 1.54362 -1.31067 0
M  V30 42 C 6.0093 1.94195 0.10893 0
M  V30 43 O 5.2643 1.63262 1.07908 0
M  V30 44 C 5.5633 2.83007 -2.1827 0
M  V30 45 C 5.2293 2.62294 -3.6676 0
M  V30 46 C 3.8913 2.56353 -4.0723 0
M  V30 47 C 6.2433 2.43371 -4.6089 0
M  V30 48 C 3.5713 2.29461 -5.39967 0
M  V30 49 C 5.9233 2.18005 -5.93849 0
M  V30 50 C 4.5873 2.105 -6.3344 0
M  V30 51 H 3.8573 0.564851 -0.479609 0
M  V30 52 H 6.5043 0.906028 -1.68711 0
M  V30 53 H 4.8093 3.51253 -1.73576 0
M  V30 54 H 6.5063 3.40817 -2.11292 0
M  V30 55 H 3.0963 2.67774 -3.34656 0
M  V30 56 H 7.2803 2.46959 -4.30494 0
M  V30 57 H 2.5363 2.22135 -5.69619 0
M  V30 58 H 6.7103 2.02359 -6.66351 0
M  V30 59 H 4.3373 1.89425 -7.36222 0
M  V30 60 N 5.9124 1.20967 1.01018 0
M  V30 61 C 6.8424 0.988272 2.11555 0
M  V30 62 C 7.8234 -0.0849778 1.69888 0
M  V30 63 O 9.0084 0.0738202 1.9406 0
M  V30 64 C 6.1384 0.546528 3.42973 0
M  V30 65 C 5.0924 1.56375 3.9841 0
M  V30 66 C 4.4184 0.97842 5.25672 0
M  V30 67 C 5.7184 2.94922 4.31066 0
M  V30 68 H 7.4124 1.91276 2.30334 0
M  V30 69 H 4.9584 0.921073 1.1069 0
M  V30 70 H 6.9114 0.378839 4.19694 0
M  V30 71 H 5.6354 -0.413598 3.23971 0
M  V30 72 H 4.2944 1.71891 3.23804 0
M  V30 73 H 3.9424 0.0101688 5.02999 0
M  V30 74 H 3.6424 1.65784 5.63728 0
M  V30 75 H 5.1664 0.821939 6.05043 0
M  V30 76 H 6.5804 2.8288 4.9865 0
M  V30 77 H 4.9774 3.5983 4.80253 0
M  V30 78 H 6.0474 3.4616 3.39561 0
M  V30 79 N 7.3905 -1.2043 1.01659 0
M  V30 80 C 8.6365 -1.90079 0.706963 0
M  V30 81 C 8.9695 -1.78648 -0.761474 0
M  V30 82 O 8.2445 -1.17069 -1.55323 0
M  V30 83 C 8.5275 -3.41469 1.14327 0
M  V30 84 C 8.3805 -3.61833 2.67201 0
M  V30 85 C 9.6995 -4.34261 0.714529 0
M  V30 86 H 6.8185 -0.690254 0.2583 0
M  V30 87 H 9.4605 -1.41826 1.26433 0
M  V30 88 H 7.6105 -3.82696 0.669056 0
M  V30 89 H 9.2825 -3.2986 3.22475 0
M  V30 90 H 7.5255 -3.05304 3.08175 0
M  V30 91 H 8.1965 -4.67955 2.92783 0
M  V30 92 H 10.6725 -4.00682 1.12221 0
M  V30 93 H 9.5485 -5.38806 1.04784 0
M  V30 94 H 9.8095 -4.40431 -0.383799 0
M  V30 95 N 8.8686 -0.792821 -1.36206 0
M  V30 96 C 10.2846 -0.474903 -1.52371 0
M  V30 97 C 10.4846 1.00622 -1.74578 0
M  V30 98 O 9.5406 1.79162 -1.77924 0
M  V30 99 C 10.8536 -1.3083 -2.70747 0
M  V30 100 C 12.4016 -1.30234 -2.84619 0
M  V30 101 C 12.8766 -2.11956 -4.06004 0
M  V30 102 N 14.3676 -2.09419 -4.13156 0
M  V30 103 C 15.1026 -2.69419 -5.06163 0
M  V30 104 N 14.5986 -3.3829 -6.04592 0
M  V30 105 N 16.3916 -2.59134 -4.98804 0
M  V30 106 H 8.5426 -1.75222 -1.20046 0
M  V30 107 H 10.8056 -0.745024 -0.586211 0
M  V30 108 H 10.5116 -2.35881 -2.6087 0
M  V30 109 H 10.3856 -0.95196 -3.6499 0
M  V30 110 H 12.7726 -0.259748 -2.93955 0
M  V30 111 H 12.8536 -1.69847 -1.91274 0
M  V30 112 H 12.4976 -3.16248 -3.97429 0
M  V30 113 H 12.4276 -1.69711 -4.98503 0
M  V30 114 H 14.9186 -1.59297 -3.42685 0
M  V30 115 H 15.2316 -3.81394 -6.7213 0
M  V30 116 H 13.5766 -3.42393 -6.04807 0
M  V30 117 H 16.7676 -2.04927 -4.20859 0
M  V30 118 H 16.9406 -3.06185 -5.711 0
M  V30 119 N 10.3467 1.47872 -0.545128 0
M  V30 120 C 11.5957 2.01695 -0.0145033 0
M  V30 121 C 11.9087 1.42609 1.33873 0
M  V30 122 O 13.1147 1.88021 1.95858 0
M  V30 123 C 11.5707 3.59892 0.0245068 0
M  V30 124 C 11.1787 4.27966 -1.32475 0
M  V30 125 C 12.9227 4.21507 0.50316 0
M  V30 126 C 10.8297 5.78136 -1.2455 0
M  V30 127 H 9.7597 0.753998 -0.00165172 0
M  V30 128 H 12.4107 1.69985 -0.691175 0
M  V30 129 H 10.7927 3.88509 0.766575 0
M  V30 130 H 11.9667 4.11003 -2.08357 0
M  V30 131 H 10.2817 3.78286 -1.74036 0
M  V30 132 H 12.8787 5.31538 0.580656 0
M  V30 133 H 13.2217 3.87855 1.51243 0
M  V30 134 H 13.7547 3.97376 -0.183681 0
M  V30 135 H 10.4937 6.16388 -2.23039 0
M  V30 136 H 10.0137 5.97469 -0.528282 0
M  V30 137 H 11.6927 6.40099 -0.942488 0
M  V30 138 N 11.8248 0.280983 1.55075 0
M  V30 139 C 12.7548 -0.597469 2.25727 0
M  V30 140 C 13.7358 -1.15417 1.24952 0
M  V30 141 O 14.9208 -1.18722 1.53684 0
M  V30 142 C 12.0508 -1.7789 2.98283 0
M  V30 143 C 11.0048 -1.35347 4.06036 0
M  V30 144 C 10.3308 -2.61846 4.66198 0
M  V30 145 C 11.6308 -0.499354 5.19907 0
M  V30 146 H 13.3248 -0.00824265 2.99399 0
M  V30 147 H 10.8708 -0.0025244 1.44 0
M  V30 148 H 12.8238 -2.39937 3.46422 0
M  V30 149 H 11.5478 -2.39405 2.22155 0
M  V30 150 H 10.2068 -0.756156 3.58717 0
M  V30 151 H 9.8548 -3.21632 3.86732 0
M  V30 152 H 9.5548 -2.3409 5.38958 0
M  V30 153 H 11.0788 -3.24732 5.1709 0
M  V30 154 H 12.4928 -1.02498 5.64063 0
M  V30 155 H 10.8898 -0.316424 5.99265 0
M  V30 156 H 11.9598 0.480459 4.82514 0
M  V30 157 N 13.3029 -1.57598 0.00835791 0
M  V30 158 C 14.7139 -1.7892 -0.53333 0
M  V30 159 C 15.0649 -0.916609 -1.73473 0
M  V30 160 O 14.1899 -0.121336 -2.1606 0
M  V30 161 C 14.7849 -3.24488 -0.974313 0
M  V30 162 C 13.3439 -3.46878 -1.46125 0
M  V30 163 C 12.4909 -2.74157 -0.416302 0
M  V30 164 H 15.4419 -1.56958 0.234495 0
M  V30 165 H 15.4629 -3.3306 -1.83988 0
M  V30 166 H 14.9749 -3.87972 -0.099718 0
M  V30 167 H 13.0759 -2.8862 -2.35646 0
M  V30 168 H 13.1889 -4.55572 -1.48295 0
M  V30 169 H 11.5529 -2.39022 -0.87981 0
M  V30 170 H 12.3359 -3.40345 0.44947 0
M  V30 171 N 14.781 0.264519 -1.55364 0
M  V30 172 C 15.711 1.33121 -1.91836 0
M  V30 173 C 16.692 1.51101 -0.781192 0
M  V30 174 O 17.877 1.64003 -1.04003 0
M  V30 175 C 15.007 2.68921 -2.19769 0
M  V30 176 C 13.961 2.65661 -3.35571 0
M  V30 177 C 13.287 4.05093 -3.49004 0
M  V30 178 C 14.587 2.24187 -4.71739 0
M  V30 179 H 16.281 1.02844 -2.81182 0
M  V30 180 H 13.827 0.493286 -1.35287 0
M  V30 181 H 15.78 3.43663 -2.43872 0
M  V30 182 H 14.504 3.00799 -1.27231 0
M  V30 183 H 13.163 1.93377 -3.1145 0
M  V30 184 H 12.811 4.34206 -2.53917 0
M  V30 185 H 12.511 4.03804 -4.26868 0
M  V30 186 H 14.035 4.81561 -3.75408 0
M  V30 187 H 15.449 2.88654 -4.9533 0
M  V30 188 H 13.846 2.34044 -5.52579 0
M  V30 189 H 14.916 1.19327 -4.69988 0
M  V30 190 N 16.2591 1.48442 0.529413 0
M  V30 191 C 17.1891 1.65902 1.64313 0
M  V30 192 C 18.1701 0.507897 1.6234 0
M  V30 193 O 19.3551 0.740503 1.79528 0
M  V30 194 C 16.4851 1.69911 3.02898 0
M  V30 195 C 15.4391 2.8453 3.19729 0
M  V30 196 C 14.7651 2.73629 4.59381 0
M  V30 197 C 16.0651 4.25821 3.02447 0
M  V30 198 H 17.7591 2.5914 1.49955 0
M  V30 199 H 15.3051 1.24709 0.719982 0
M  V30 200 H 17.2581 1.80715 3.80684 0
M  V30 201 H 15.9821 0.732524 3.18279 0
M  V30 202 H 14.6411 2.73283 2.44361 0
M  V30 203 H 14.2891 1.74938 4.71599 0
M  V30 204 H 13.9891 3.50541 4.71588 0
M  V30 205 H 15.5131 2.86401 5.39265 0
M  V30 206 H 16.9271 4.37898 3.70024 0
M  V30 207 H 15.3241 5.03735 3.26146 0
M  V30 208 H 16.3941 4.42244 1.98867 0
M  V30 209 N 17.7372 -0.778329 1.37039 0
M  V30 210 C 18.6672 -1.90546 1.34962 0
M  V30 211 C 19.6482 -1.68681 0.219274 0
M  V30 212 O 20.8332 -1.89634 0.418624 0
M  V30 213 C 17.9632 -3.27734 1.14925 0
M  V30 214 C 16.9172 -3.64147 2.24902 0
M  V30 215 C 16.2432 -4.99806 1.89996 0
M  V30 216 C 17.5432 -3.71579 3.67051 0
M  V30 217 H 19.2372 -1.92541 2.29277 0
M  V30 218 H 16.7832 -0.924948 1.10366 0
M  V30 219 H 18.7362 -4.06215 1.12104 0
M  V30 220 H 17.4602 -3.26154 0.170631 0
M  V30 221 H 16.1192 -2.8797 2.26868 0
M  V30 222 H 15.7672 -4.94759 0.906796 0
M  V30 223 H 15.4672 -5.25139 2.63634 0
M  V30 224 H 16.9912 -5.80694 1.88749 0
M  V30 225 H 18.4052 -4.40227 3.67251 0
M  V30 226 H 16.8022 -4.08405 4.39688 0
M  V30 227 H 17.8722 -2.72404 4.01154 0
M  V30 228 N 19.2153 -1.21501 -1.00376 0
M  V30 229 C 20.4613 -1.03452 -1.74429 0
M  V30 230 C 20.7943 0.430764 -1.89362 0
M  V30 231 O 20.0693 1.31962 -1.42886 0
M  V30 232 C 20.3523 -1.73375 -3.15615 0
M  V30 233 C 20.2053 -3.27431 -3.08397 0
M  V30 234 C 21.5243 -1.47732 -4.14564 0
M  V30 235 H 18.6433 -0.377226 -0.633143 0
M  V30 236 H 21.2853 -1.49693 -1.17013 0
M  V30 237 H 19.4353 -1.34064 -3.64636 0
M  V30 238 H 21.1073 -3.76119 -2.67081 0
M  V30 239 H 19.3503 -3.5767 -2.45468 0
M  V30 240 H 20.0213 -3.71524 -4.08258 0
M  V30 241 H 22.4973 -1.8186 -3.74254 0
M  V30 242 H 21.3733 -1.99169 -5.11491 0
M  V30 243 H 21.6343 -0.407589 -4.40217 0
M  V30 244 N 20.6934 1.19889 -1.02296 0
M  V30 245 C 21.6234 2.25141 -0.619174 0
M  V30 246 C 22.6044 1.66051 0.368915 0
M  V30 247 O 23.7894 1.92546 0.252941 0
M  V30 248 C 20.9194 3.4728 0.0368783 0
M  V30 249 C 19.8734 4.19005 -0.872865 0
M  V30 250 C 19.1994 5.34637 -0.0822402 0
M  V30 251 C 20.4994 4.74452 -2.18387 0
M  V30 252 H 22.1934 2.59171 -1.49903 0
M  V30 253 H 19.7394 1.24579 -0.722222 0
M  V30 254 H 21.6924 4.20098 0.330958 0
M  V30 255 H 20.4164 3.12433 0.95149 0
M  V30 256 H 19.0754 3.48061 -1.15105 0
M  V30 257 H 18.7234 4.96034 0.83422 0
M  V30 258 H 18.4234 5.83557 -0.688149 0
M  V30 259 H 19.9474 6.10255 0.205238 0
M  V30 260 H 21.3614 5.39055 -1.95172 0
M  V30 261 H 19.7584 5.33834 -2.74119 0
M  V30 262 H 20.8284 3.92844 -2.84257 0
M  V30 263 N 22.1715 0.800033 1.35784 0
M  V30 264 C 23.1015 0.220184 2.3246 0
M  V30 265 C 24.0825 -0.65073 1.57161 0
M  V30 266 O 25.2675 -0.582359 1.85263 0
M  V30 267 C 22.3975 -0.637353 3.41402 0
M  V30 268 C 21.3515 0.134531 4.27789 0
M  V30 269 C 20.6775 -0.844285 5.27992 0
M  V30 270 C 21.9775 1.32979 5.05088 0
M  V30 271 H 23.6715 1.02787 2.81203 0
M  V30 272 H 21.2175 0.495717 1.35199 0
M  V30 273 H 23.1705 -1.05302 4.08031 0
M  V30 274 H 21.8945 -1.47785 2.91251 0
M  V30 275 H 20.5535 0.531296 3.6273 0
M  V30 276 H 20.2015 -1.68011 4.74111 0
M  V30 277 H 19.9015 -0.332184 5.8666 0
M  V30 278 H 21.4255 -1.2583 5.97494 0
M  V30 279 H 22.8395 0.98934 5.64699 0
M  V30 280 H 21.2365 1.77593 5.7322 0
M  V30 281 H 22.3065 2.11978 4.36111 0
M  V30 282 N 23.6496 -1.47581 0.552962 0
M  V30 283 C 24.5796 -2.32762 -0.185451 0
M  V30 284 C 25.5606 -1.43527 -0.912905 0
M  V30 285 O 26.7456 -1.72388 -0.894201 0
M  V30 286 C 23.8756 -3.25219 -1.21859 0
M  V30 287 C 22.8296 -4.23661 -0.607864 0
M  V30 288 C 22.1556 -5.05413 -1.74533 0
M  V30 289 C 23.4556 -5.20481 0.435582 0
M  V30 290 H 25.1496 -2.94749 0.525684 0
M  V30 291 H 22.6956 -1.41738 0.254251 0
M  V30 292 H 24.6486 -3.8365 -1.7433 0
M  V30 293 H 23.3726 -2.61279 -1.95961 0
M  V30 294 H 22.0316 -3.66451 -0.104489 0
M  V30 295 H 21.6796 -4.3788 -2.47529 0
M  V30 296 H 21.3796 -5.72059 -1.34249 0
M  V30 297 H 22.9036 -5.66701 -2.27338 0
M  V30 298 H 24.3176 -5.733 -0.00290157 0
M  V30 299 H 22.7146 -5.95305 0.757067 0
M  V30 300 H 23.7846 -4.66217 1.33303 0
M  V30 301 N 25.1277 -0.289203 -1.54924 0
M  V30 302 C 26.0577 0.58549 -2.2604 0
M  V30 303 C 27.0387 1.14753 -1.25562 0
M  V30 304 O 28.2237 1.17906 -1.54311 0
M  V30 305 C 25.3537 1.76305 -2.99222 0
M  V30 306 C 24.3077 1.33191 -4.06748 0
M  V30 307 C 23.6337 2.5937 -4.6758 0
M  V30 308 C 24.9337 0.471775 -5.20165 0
M  V30 309 H 26.6277 -0.00763532 -2.99399 0
M  V30 310 H 24.1737 -0.00511229 -1.43999 0
M  V30 311 H 26.1267 2.38097 -3.47689 0
M  V30 312 H 24.8507 2.38223 -2.23422 0
M  V30 313 H 23.5097 0.737121 -3.59113 0
M  V30 314 H 23.1577 3.19576 -3.88433 0
M  V30 315 H 22.8577 2.31228 -5.40192 0
M  V30 316 H 24.3817 3.21985 -5.18804 0
M  V30 317 H 25.7957 0.995056 -5.64599 0
M  V30 318 H 24.1927 0.284639 -5.99425 0
M  V30 319 H 25.2627 -0.506041 -4.82252 0
M  V30 320 N 26.6058 1.57591 -0.0167156 0
M  V30 321 C 27.8538 1.90906 0.663285 0
M  V30 322 C 28.1748 0.892509 1.73376 0
M  V30 323 O 27.4448 -0.0677623 1.95783 0
M  V30 324 H 26.0248 0.704637 0.247983 0
M  V30 325 H 28.6868 1.94803 -0.0615909 0
M  V30 326 H 27.7828 2.9116 1.12393 0
M  V30 327 N 28.0839 -0.256276 1.55502 0
M  V30 328 C 29.4949 -0.826068 1.67431 0
M  V30 329 C 29.8459 -1.86396 0.612446 0
M  V30 330 O 28.9709 -2.15031 -0.243025 0
M  V30 331 C 29.5659 -1.50512 3.03532 0
M  V30 332 C 28.1249 -2.02273 3.17431 0
M  V30 333 C 27.2719 -0.870548 2.63281 0
M  V30 334 H 30.2229 -0.0322728 1.58667 0
M  V30 335 H 30.2439 -2.37279 2.97454 0
M  V30 336 H 29.7559 -0.749484 3.80794 0
M  V30 337 H 27.8569 -2.80746 2.44974 0
M  V30 338 H 27.9699 -2.22655 4.24219 0
M  V30 339 H 26.3339 -1.26851 2.20864 0
M  V30 340 H 27.1169 -0.128149 3.43061 0
M  V30 341 N 29.562 -1.4872 -0.521534 0
M  V30 342 C 30.79 -1.60843 -1.30142 0
M  V30 343 C 31.205 -0.271897 -1.86832 0
M  V30 344 O 30.562 0.739969 -1.66825 0
M  V30 345 C 30.613 -2.66155 -2.4463 0
M  V30 346 O 30.334 -3.94623 -1.90275 0
M  V30 347 C 31.835 -2.88795 -3.36322 0
M  V30 348 H 29.055 -0.542075 -0.395468 0
M  V30 349 H 31.599 -1.94609 -0.628285 0
M  V30 350 H 29.754 -2.35224 -3.07812 0
M  V30 351 H 30.168 -4.52468 -2.65279 0
M  V30 352 H 31.642 -3.66264 -4.12983 0
M  V30 353 H 32.119 -1.97934 -3.9207 0
M  V30 354 H 32.725 -3.21063 -2.78924 0
M  V30 355 N 31.0401 0.771051 -1.3745 0
M  V30 356 C 32.4561 1.07171 -1.18265 0
M  V30 357 C 32.6561 2.01491 -0.019287 0
M  V30 358 O 31.7121 2.44244 0.640408 0
M  V30 359 C 33.0251 1.66854 -2.50161 0
M  V30 360 C 34.5731 1.79109 -2.56689 0
M  V30 361 C 35.0481 2.42205 -3.88717 0
M  V30 362 N 36.5391 2.49655 -3.90162 0
M  V30 363 C 37.2741 2.9933 -4.8907 0
M  V30 364 N 36.7701 3.49172 -5.98374 0
M  V30 365 N 38.5631 2.9821 -4.76474 0
M  V30 366 H 30.7141 0.144796 -2.11906 0
M  V30 367 H 32.9771 0.126863 -0.939473 0
M  V30 368 H 32.6831 1.05017 -3.35655 0
M  V30 369 H 32.5571 2.6614 -2.673 0
M  V30 370 H 34.9441 2.40077 -1.71601 0
M  V30 371 H 35.0251 0.785757 -2.43433 0
M  V30 372 H 34.6691 1.81875 -4.74219 0
M  V30 373 H 34.5991 3.43345 -3.99276 0
M  V30 374 H 37.0901 2.14383 -3.11205 0
M  V30 375 H 37.4031 3.8548 -6.69795 0
M  V30 376 H 35.7481 3.47275 -6.02018 0
M  V30 377 H 38.9391 2.58572 -3.90203 0
M  V30 378 H 39.1121 3.36613 -5.53711 0
M  V30 379 N 32.5182 1.22032 0.997298 0
M  V30 380 C 33.7662 1.04016 1.73278 0
M  V30 381 C 34.0872 -0.426255 1.90284 0
M  V30 382 O 33.3572 -1.30694 1.45931 0
M  V30 383 H 31.9372 0.381897 0.642 0
M  V30 384 H 34.5992 1.5347 1.20137 0
M  V30 385 H 33.6952 1.51441 2.72896 0
M  V30 386 N 33.9963 -1.19345 1.0293 0
M  V30 387 C 34.9263 -2.2481 0.631105 0
M  V30 388 C 35.9073 -1.66245 -0.360104 0
M  V30 389 O 37.0923 -1.92677 -0.242726 0
M  V30 390 C 34.2223 -3.47295 -0.0184607 0
M  V30 391 C 33.1763 -4.18536 0.895073 0
M  V30 392 C 32.5023 -5.34586 0.110592 0
M  V30 393 C 33.8023 -4.73287 2.209 0
M  V30 394 H 35.4963 -2.58372 1.51275 0
M  V30 395 H 33.0423 -1.24194 0.728818 0
M  V30 396 H 34.9953 -4.20268 -0.308675 0
M  V30 397 H 33.7193 -3.12933 -0.934907 0
M  V30 398 H 32.3783 -3.47446 1.16949 0
M  V30 399 H 32.0263 -4.96469 -0.807902 0
M  V30 400 H 31.7263 -5.83183 0.719087 0
M  V30 401 H 33.2503 -6.10355 -0.172871 0
M  V30 402 H 34.6643 -5.38013 1.98028 0
M  V30 403 H 33.0613 -5.32373 2.76946 0
M  V30 404 H 34.1313 -3.91331 2.86336 0
M  V30 405 N 35.4744 -0.807222 -1.35358 0
M  V30 406 C 36.8904 -0.491038 -1.51858 0
M  V30 407 C 37.0904 0.987648 -1.75635 0
M  V30 408 O 36.1464 1.77265 -1.79815 0
M  V30 409 C 37.4594 -1.33695 -2.69344 0
M  V30 410 C 39.0074 -1.33246 -2.83222 0
M  V30 411 C 39.4824 -2.1625 -4.03733 0
M  V30 412 N 40.9734 -2.1379 -4.10911 0
M  V30 413 C 41.7084 -2.74772 -5.03277 0
M  V30 414 N 41.2044 -3.44684 -6.0097 0
M  V30 415 N 42.9974 -2.6441 -4.96028 0
M  V30 416 H 35.1484 -1.76485 -1.18181 0
M  V30 417 H 37.4114 -0.751199 -0.578276 0
M  V30 418 H 37.1174 -2.38634 -2.58354 0
M  V30 419 H 36.9914 -0.990618 -3.6396 0
M  V30 420 H 39.3784 -0.290911 -2.93663 0
M  V30 421 H 39.4594 -1.71866 -1.89461 0
M  V30 422 H 39.1034 -3.20445 -3.94052 0
M  V30 423 H 39.0334 -1.74989 -4.96675 0
M  V30 424 H 41.5244 -1.62923 -3.40976 0
M  V30 425 H 41.8374 -3.88501 -6.68047 0
M  V30 426 H 40.1824 -3.48788 -6.01142 0
M  V30 427 H 43.3734 -2.0938 -4.18662 0
M  V30 428 H 43.5464 -3.12225 -5.6782 0
M  V30 429 N 36.9525 1.47285 -0.560781 0
M  V30 430 C 37.9005 2.31756 0.197942 0
M  V30 431 C 38.8945 1.43146 0.905854 0
M  V30 432 O 40.1005 1.59891 0.826733 0
M  V30 433 H 36.4755 0.747438 0.0827049 0
M  V30 434 H 38.4465 2.9359 -0.533629 0
M  V30 435 C 37.1955 3.25874 1.21249 0
M  V30 436 H 36.5185 3.94023 0.67719 0
M  V30 437 H 37.9585 3.87803 1.71419 0
M  V30 438 C 36.4175 2.49651 2.26221 0
M  V30 439 O 36.9475 2.24355 3.33208 0
M  V30 440 N 35.1535 2.10597 2.00243 0
M  V30 441 H 34.7005 2.31369 1.13252 0
M  V30 442 H 34.6585 1.59913 2.70694 0
M  V30 443 N 38.4306 0.297415 1.54768 0
M  V30 444 C 39.3936 -0.567375 2.22066 0
M  V30 445 C 40.3936 -1.06409 1.20556 0
M  V30 446 O 41.5836 -0.960691 1.45315 0
M  V30 447 C 38.7156 -1.78517 2.90421 0
M  V30 448 H 39.9086 0.0205534 2.99893 0
M  V30 449 H 37.4616 0.0482163 1.56226 0
M  V30 450 H 38.1966 -2.41303 2.16664 0
M  V30 451 H 37.9816 -1.43669 3.64831 0
M  V30 452 H 39.4716 -2.39964 3.41771 0
M  V30 453 N 39.9087 -1.5758 0.0250728 0
M  V30 454 C 41.1367 -1.9593 -0.664747 0
M  V30 455 C 41.5517 -0.901352 -1.65895 0
M  V30 456 O 40.9087 0.117255 -1.82123 0
M  V30 457 C 40.9597 -3.34342 -1.37468 0
M  V30 458 O 40.6807 -4.36079 -0.420324 0
M  V30 459 C 42.1817 -3.873 -2.1567 0
M  V30 460 H 39.4017 -0.645405 -0.183557 0
M  V30 461 H 41.9457 -2.04329 0.0836372 0
M  V30 462 H 40.1007 -3.27175 -2.0745 0
M  V30 463 H 40.5147 -5.16297 -0.923991 0
M  V30 464 H 41.9887 -4.86504 -2.60803 0
M  V30 465 H 42.4657 -3.21331 -2.99405 0
M  V30 466 H 43.0717 -3.97723 -1.50654 0
M  V30 467 N 41.3868 0.248026 -1.55636 0
M  V30 468 C 42.3188 1.32993 -1.8667 0
M  V30 469 C 43.3318 1.44345 -0.752877 0
M  V30 470 O 44.5208 1.45715 -1.03098 0
M  V30 471 C 41.6208 2.70863 -2.03682 0
M  V30 472 C 40.7938 2.81792 -3.34532 0
M  V30 473 C 39.8528 4.005 -3.41301 0
M  V30 474 O 38.8788 3.9008 -4.14519 0
M  V30 475 N 40.0808 5.13618 -2.70512 0
M  V30 476 H 42.8458 1.06707 -2.8006 0
M  V30 477 H 40.4068 0.438129 -1.55859 0
M  V30 478 H 42.3988 3.48612 -2.05553 0
M  V30 479 H 40.9688 2.89862 -1.17041 0
M  V30 480 H 40.1888 1.90729 -3.44987 0
M  V30 481 H 41.4768 2.86043 -4.20781 0
M  V30 482 H 40.8748 5.24975 -2.10755 0
M  V30 483 H 39.4318 5.89505 -2.78077 0
M  V30 484 N 42.8649 1.48995 0.513639 0
M  V30 485 C 44.2809 1.35478 0.843682 0
M  V30 486 C 44.4809 0.378213 1.97919 0
M  V30 487 O 43.5369 -0.194689 2.51748 0
M  V30 488 C 44.8499 2.75901 1.1958 0
M  V30 489 C 46.3979 2.84509 1.30474 0
M  V30 490 C 46.8729 4.25671 1.69021 0
M  V30 491 N 48.3639 4.28422 1.76094 0
M  V30 492 C 49.0989 5.34601 2.07338 0
M  V30 493 N 48.5949 6.5104 2.36894 0
M  V30 494 N 50.3879 5.22007 2.08483 0
M  V30 495 H 42.5389 2.11092 -0.235328 0
M  V30 496 H 44.8019 0.947039 -0.0426669 0
M  V30 497 H 44.5079 3.49001 0.434913 0
M  V30 498 H 44.3819 3.10467 2.1422 0
M  V30 499 H 46.7689 2.11655 2.05637 0
M  V30 500 H 46.8499 2.53542 0.339155 0
M  V30 501 H 46.4939 4.99048 0.944135 0
M  V30 502 H 46.4239 4.54094 2.66658 0
M  V30 503 H 48.9149 3.44441 1.55464 0
M  V30 504 H 49.2279 7.2779 2.59887 0
M  V30 505 H 47.5729 6.54287 2.34378 0
M  V30 506 H 50.7639 4.30051 1.84861 0
M  V30 507 H 50.9369 6.04854 2.325 0
M  V30 508 N 44.343 -0.763751 1.37857 0
M  V30 509 C 45.276 -1.88486 1.28639 0
M  V30 510 C 46.254 -1.61757 0.165363 0
M  V30 511 O 47.438 -1.85391 0.340948 0
M  V30 512 C 44.565 -3.23884 0.990811 0
M  V30 513 C 43.611 -3.69514 2.12983 0
M  V30 514 S 44.444 -3.82244 3.75033 0
M  V30 515 C 45.6 -5.20477 3.47641 0
M  V30 516 H 45.833 -1.96017 2.23527 0
M  V30 517 H 43.366 -0.925684 1.23574 0
M  V30 518 H 45.324 -4.02081 0.827101 0
M  V30 519 H 43.985 -3.14044 0.0592832 0
M  V30 520 H 43.178 -4.67696 1.87821 0
M  V30 521 H 42.78 -2.98441 2.25408 0
M  V30 522 H 45.072 -6.05905 3.03125 0
M  V30 523 H 46.015 -5.50655 4.4518 0
M  V30 524 H 46.423 -4.88793 2.82385 0
M  V30 525 N 45.8211 -1.22559 -0.990812 0
M  V30 526 C 47.0681 -1.05141 -1.73065 0
M  V30 527 C 47.3961 0.413191 -1.9006 0
M  V30 528 O 46.6511 1.32257 -1.44245 0
M  V30 529 C 46.9501 -1.71011 -3.13831 0
M  V30 530 C 46.6161 -3.20911 -3.16745 0
M  V30 531 C 45.2781 -3.61812 -3.17247 0
M  V30 532 C 47.6301 -4.16846 -3.12872 0
M  V30 533 C 44.9581 -4.97127 -3.1158 0
M  V30 534 C 47.3101 -5.5214 -3.08746 0
M  V30 535 C 45.9741 -5.92419 -3.07565 0
M  V30 536 H 45.2441 -0.384738 -0.633291 0
M  V30 537 H 47.8911 -1.5235 -1.16025 0
M  V30 538 H 46.1961 -1.16133 -3.74193 0
M  V30 539 H 47.8931 -1.55023 -3.69823 0
M  V30 540 H 44.4831 -2.88344 -3.17105 0
M  V30 541 H 48.6671 -3.86263 -3.11632 0
M  V30 542 H 43.9231 -5.27562 -3.09012 0
M  V30 543 H 48.0971 -6.26201 -3.04705 0
M  V30 544 H 45.7241 -6.97236 -3.02929 0
M  V30 545 N 47.2992 1.18797 -1.03562 0
M  V30 546 C 48.2092 2.25913 -0.632505 0
M  V30 547 C 49.2252 1.70668 0.338882 0
M  V30 548 O 50.4012 2.00453 0.195076 0
M  V30 549 C 47.4662 3.467 0.00350942 0
M  V30 550 C 46.5272 4.17098 -1.01624 0
M  V30 551 C 45.7602 5.32119 -0.410478 0
M  V30 552 O 45.9832 5.64976 0.784725 0
M  V30 553 O 44.9172 5.9107 -1.13667 0
M  V30 554 H 48.7432 2.62648 -1.52478 0
M  V30 555 H 46.3282 1.25781 -0.806195 0
M  V30 556 H 48.2102 4.19878 0.35781 0
M  V30 557 H 46.8852 3.11798 0.869686 0
M  V30 558 H 45.7922 3.4601 -1.42224 0
M  V30 559 H 47.1252 4.55987 -1.85301 0
M  V30 560 N 48.7773 0.814389 1.34928 0
M  V30 561 C 50.0263 0.394871 1.97797 0
M  V30 562 C 50.3393 -1.04555 1.65311 0
M  V30 563 O 51.5453 -1.56856 2.21604 0
M  V30 564 C 50.0013 0.655103 3.53888 0
M  V30 565 C 49.6093 2.10858 3.95276 0
M  V30 566 C 51.3533 0.301329 4.23429 0
M  V30 567 C 49.2603 2.31415 5.44244 0
M  V30 568 H 48.1903 0.143913 0.740139 0
M  V30 569 H 50.8413 0.999544 1.53888 0
M  V30 570 H 49.2233 -0.0196253 3.95995 0
M  V30 571 H 50.3973 2.82176 3.64298 0
M  V30 572 H 48.7123 2.42297 3.38646 0
M  V30 573 H 51.3093 0.432869 5.32945 0
M  V30 574 H 51.6523 -0.75331 4.09428 0
M  V30 575 H 52.1853 0.930288 3.86769 0
M  V30 576 H 48.9243 3.35353 5.63222 0
M  V30 577 H 48.4443 1.6463 5.76764 0
M  V30 578 H 50.1233 2.13352 6.10811 0
M  V30 579 N 50.2554 -1.46986 0.568584 0
M  V30 580 C 51.5324 -1.95592 -0.0174074 0
M  V30 581 C 51.9124 -1.51124 -1.47393 0
M  V30 582 O 51.2604 -0.755329 -2.15655 0
M  V30 583 C 51.4704 -3.48719 0.139913 0
M  V30 584 C 52.8184 -4.246 0.000426376 0
M  V30 585 O 53.8424 -3.56135 0.0680316 0
M  V30 586 O 52.7014 -5.46302 -0.146988 0
M  V30 587 H 49.7954 -0.82498 -0.0577599 0
M  V30 588 H 52.3414 -1.57335 0.635909 0
M  V30 589 H 51.1134 -3.73927 1.15301 0
M  V30 590 H 50.7364 -3.93771 -0.550491 0
M  V30 591 N 51.7335 -0.305618 -1.54608 0
M  V30 592 C 52.9635 0.304333 -2.04346 0
M  V30 593 C 53.3715 1.47715 -1.18224 0
M  V30 594 O 52.7145 1.82591 -0.201577 0
M  V30 595 C 52.7765 0.819031 -3.50046 0
M  V30 596 C 52.4405 -0.22912 -4.56425 0
M  V30 597 C 53.4375 -1.05914 -5.08997 0
M  V30 598 C 51.1225 -0.372148 -5.0092 0
M  V30 599 C 53.1165 -2.01809 -6.04609 0
M  V30 600 C 50.8035 -1.33454 -5.9635 0
M  V30 601 C 51.8015 -2.15599 -6.48079 0
M  V30 602 O 51.4895 -3.10205 -7.41639 0
M  V30 603 H 51.2215 0.0693996 -0.672428 0
M  V30 604 H 53.7755 -0.444548 -2.00532 0
M  V30 605 H 52.0055 1.61852 -3.51199 0
M  V30 606 H 53.6945 1.34537 -3.82955 0
M  V30 607 H 54.4605 -0.959538 -4.75413 0
M  V30 608 H 50.3395 0.257304 -4.60281 0
M  V30 609 H 53.8835 -2.65966 -6.44909 0
M  V30 610 H 49.7805 -1.43485 -6.29351 0
M  V30 611 H 50.5485 -3.05237 -7.59455 0
M  V30 612 N 53.2116 1.57565 -0.0334293 0
M  V30 613 C 54.4366 1.96689 0.657895 0
M  V30 614 C 54.8616 0.910057 1.64619 0
M  V30 615 O 54.2196 -0.128598 1.80843 0
M  V30 616 C 54.2676 3.34905 1.33683 0
M  V30 617 O 53.3716 3.31574 2.45219 0
M  V30 618 H 52.7126 0.641205 0.172489 0
M  V30 619 H 55.2426 2.04372 -0.0965621 0
M  V30 620 H 55.2526 3.71234 1.69262 0
M  V30 621 H 53.9276 4.11366 0.612411 0
M  V30 622 H 52.5046 3.06968 2.11719 0
M  V30 623 N 54.6897 -0.239769 1.55765 0
M  V30 624 C 56.1057 -0.588624 1.48349 0
M  V30 625 C 56.3057 -1.88005 0.72502 0
M  V30 626 O 55.3617 -2.51186 0.257269 0
M  V30 627 C 56.6747 -0.68474 2.928 0
M  V30 628 C 58.2227 -0.77659 3.03213 0
M  V30 629 C 58.6977 -0.904207 4.48986 0
M  V30 630 N 60.1887 -0.968896 4.52953 0
M  V30 631 C 60.9237 -1.08703 5.63002 0
M  V30 632 N 60.4197 -1.17026 6.82845 0
M  V30 633 N 62.2127 -1.12074 5.50814 0
M  V30 634 H 54.3637 0.607911 2.03515 0
M  V30 635 H 56.6267 0.21083 0.924259 0
M  V30 636 H 56.3327 0.194284 3.51163 0
M  V30 637 H 56.2067 -1.55435 3.43686 0
M  V30 638 H 58.5937 -1.64606 2.44926 0
M  V30 639 H 58.6747 0.118315 2.55526 0
M  V30 640 H 58.3187 -0.0392633 5.07885 0
M  V30 641 H 58.2487 -1.81426 4.9436 0
M  V30 642 H 60.7397 -0.915633 3.6664 0
M  V30 643 H 61.0527 -1.25966 7.62465 0
M  V30 644 H 59.3977 -1.13971 6.85591 0
M  V30 645 H 62.5887 -1.05226 4.5612 0
M  V30 646 H 62.7617 -1.20936 6.36615 0
M  V30 647 N 56.1678 -1.49265 -0.50573 0
M  V30 648 C 57.4448 -1.49012 -1.26707 0
M  V30 649 C 57.8248 -0.215205 -2.1 0
M  V30 650 O 57.1728 0.802547 -2.13943 0
M  V30 651 C 57.3828 -2.7663 -2.12783 0
M  V30 652 C 58.7308 -3.25932 -2.72127 0
M  V30 653 O 59.7548 -2.77715 -2.23054 0
M  V30 654 O 58.6138 -4.09897 -3.61451 0
M  V30 655 H 55.7078 -0.596197 -0.57313 0
M  V30 656 H 58.2538 -1.61524 -0.52039 0
M  V30 657 H 57.0258 -3.60916 -1.5118 0
M  V30 658 H 56.6488 -2.66956 -2.94653 0
M  V30 659 N 57.6459 0.756429 -1.3826 0
M  V30 660 C 58.8709 1.55077 -1.37717 0
M  V30 661 C 59.2959 1.88073 0.03164 0
M  V30 662 O 58.6539 1.50364 1.01293 0
M  V30 663 C 58.7019 2.8283 -2.23695 0
M  V30 664 O 57.8059 3.77862 -1.6521 0
M  V30 665 H 57.1469 0.469152 -0.469885 0
M  V30 666 H 59.6769 0.935019 -1.81985 0
M  V30 667 H 59.6869 3.31783 -2.37453 0
M  V30 668 H 58.3619 2.58144 -3.2609 0
M  V30 669 H 56.9389 3.36555 -1.60578 0
M  V30 670 N 59.124 1.23083 0.984299 0
M  V30 671 C 60.371 1.06057 1.72505 0
M  V30 672 C 60.699 -0.403105 1.90277 0
M  V30 673 O 59.954 -1.3149 1.44944 0
M  V30 674 C 60.253 1.72673 3.1292 0
M  V30 675 C 59.919 3.22586 3.15038 0
M  V30 676 C 58.581 3.63489 3.15324 0
M  V30 677 C 60.933 4.185 3.10657 0
M  V30 678 C 58.261 4.98772 3.08939 0
M  V30 679 C 60.613 5.53769 3.05814 0
M  V30 680 C 59.277 5.94041 3.04419 0
M  V30 681 H 58.547 0.388091 0.631242 0
M  V30 682 H 61.194 1.52963 1.15215 0
M  V30 683 H 59.499 1.18116 3.73572 0
M  V30 684 H 61.196 1.56982 3.68996 0
M  V30 685 H 57.786 2.90022 3.15571 0
M  V30 686 H 61.97 3.87911 3.09579 0
M  V30 687 H 57.226 5.29193 3.0621 0
M  V30 688 H 61.4 6.27808 3.0138 0
M  V30 689 H 59.027 6.98833 2.99227 0
M  V30 690 N 60.6021 -1.18246 1.0419 0
M  V30 691 C 61.5321 -2.24127 0.654914 0
M  V30 692 C 62.5131 -1.66617 -0.342451 0
M  V30 693 O 63.6981 -1.92924 -0.222277 0
M  V30 694 C 60.8281 -3.47295 0.0183757 0
M  V30 695 C 59.7821 -4.17563 0.939414 0
M  V30 696 C 59.1081 -5.34438 0.167286 0
M  V30 697 C 60.4081 -4.70917 2.25908 0
M  V30 698 H 62.1021 -2.56753 1.54007 0
M  V30 699 H 59.6481 -1.23414 0.74195 0
M  V30 700 H 61.6011 -4.20572 -0.264082 0
M  V30 701 H 60.3251 -3.13907 -0.901664 0
M  V30 702 H 58.9841 -3.46186 1.20628 0
M  V30 703 H 58.6321 -4.97298 -0.7552 0
M  V30 704 H 58.3321 -5.82388 0.780901 0
M  V30 705 H 59.8561 -6.10504 -0.108125 0
M  V30 706 H 61.2701 -5.35882 2.03724 0
M  V30 707 H 59.6671 -5.29406 2.82577 0
M  V30 708 H 60.7371 -3.88272 2.9047 0
M  V30 709 N 62.0802 -0.821533 -1.34494 0
M  V30 710 C 63.0272 -0.240397 -2.29545 0
M  V30 711 C 63.9972 0.634031 -1.53523 0
M  V30 712 O 65.1822 0.575966 -1.81899 0
M  V30 713 C 62.3222 0.592869 -3.39969 0
M  V30 714 C 61.4352 -0.30365 -4.30932 0
M  V30 715 C 60.5702 0.539049 -5.28458 0
M  V30 716 C 59.6092 -0.356942 -6.11058 0
M  V30 717 N 58.7462 0.446603 -7.00678 0
M  V30 718 H 63.5862 -1.05632 -2.7865 0
M  V30 719 H 61.1232 -0.532413 -1.37127 0
M  V30 720 H 63.0812 1.09129 -4.02675 0
M  V30 721 H 61.7112 1.37392 -2.92102 0
M  V30 722 H 60.7632 -0.920276 -3.691 0
M  V30 723 H 62.0752 -0.992661 -4.88823 0
M  V30 724 H 61.2292 1.102 -5.96608 0
M  V30 725 H 59.9682 1.26157 -4.71101 0
M  V30 726 H 58.9732 -0.932047 -5.41842 0
M  V30 727 H 60.1982 -1.07755 -6.70497 0
M  V30 728 H 58.1442 1.15282 -6.45791 0
M  V30 729 H 58.0612 -0.184048 -7.55776 0
M  V30 730 H 59.3292 0.992352 -7.73158 0
M  V30 731 N 63.5583 1.46682 -0.576371 0
M  V30 732 C 64.8353 1.95599 0.00703437 0
M  V30 733 C 65.2153 1.51904 1.46589 0
M  V30 734 O 64.5633 0.766755 2.15251 0
M  V30 735 C 64.7733 3.4864 -0.158404 0
M  V30 736 C 66.1213 4.24594 -0.0229439 0
M  V30 737 O 67.1453 3.56094 -0.0869173 0
M  V30 738 O 66.0043 5.46373 0.118015 0
M  V30 739 H 63.0983 0.825275 0.053384 0
M  V30 740 H 65.6443 1.56996 -0.644244 0
M  V30 741 H 64.4163 3.7331 -1.17282 0
M  V30 742 H 64.0393 3.94057 0.5296 0
M  V30 743 N 65.0364 0.313813 1.54444 0
M  V30 744 C 66.2844 -0.291099 1.99993 0
M  V30 745 C 66.6054 -1.53418 1.20366 0
M  V30 746 O 65.8754 -1.93544 0.302927 0
M  V30 747 H 64.4554 -0.110552 0.738774 0
M  V30 748 H 67.1174 0.428106 1.9014 0
M  V30 749 H 66.2134 -0.554268 3.07139 0
M  V30 750 N 66.5145 -1.57545 0.0417849 0
M  V30 751 C 67.4465 -2.07904 -0.964799 0
M  V30 752 C 68.4595 -1.00497 -1.28079 0
M  V30 753 O 69.6485 -1.28087 -1.24322 0
M  V30 754 C 66.7485 -2.49928 -2.28887 0
M  V30 755 C 65.9215 -3.80562 -2.15619 0
M  V30 756 C 64.9805 -4.08999 -3.31069 0
M  V30 757 O 64.0065 -4.79061 -3.0739 0
M  V30 758 N 65.2085 -3.6017 -4.55256 0
M  V30 759 H 67.9735 -2.94886 -0.535029 0
M  V30 760 H 65.5345 -1.61252 -0.144681 0
M  V30 761 H 67.5265 -2.66034 -3.04972 0
M  V30 762 H 66.0965 -1.68245 -2.63463 0
M  V30 763 H 65.3165 -3.74129 -1.24183 0
M  V30 764 H 66.6045 -4.66126 -2.03971 0
M  V30 765 H 66.0025 -3.03512 -4.77386 0
M  V30 766 H 64.5595 -3.81532 -5.28466 0
M  V30 767 N 67.9926 0.231505 -1.5589 0
M  V30 768 C 69.4036 0.799327 -1.68724 0
M  V30 769 C 69.7546 1.85398 -0.642022 0
M  V30 770 O 68.8796 2.1539 0.208784 0
M  V30 771 C 69.4746 1.45664 -3.05888 0
M  V30 772 C 68.0336 1.97197 -3.20609 0
M  V30 773 C 67.1806 0.828552 -2.64632 0
M  V30 774 H 70.1316 0.00702616 -1.58698 0
M  V30 775 H 70.1526 2.32517 -3.01191 0
M  V30 776 H 69.6646 0.688808 -3.81939 0
M  V30 777 H 67.7656 2.76813 -2.4941 0
M  V30 778 H 67.8786 2.15878 -4.27707 0
M  V30 779 H 66.2426 1.23321 -2.22854 0
M  V30 780 H 67.0256 0.0735544 -3.43221 0
M  V30 781 N 69.4707 1.49531 0.497807 0
M  V30 782 C 70.7177 1.59179 1.25173 0
M  V30 783 C 71.0457 0.279932 1.92475 0
M  V30 784 O 70.3007 -0.732383 1.81479 0
M  V30 785 C 70.5997 2.70252 2.33878 0
M  V30 786 C 70.2657 4.11644 1.84012 0
M  V30 787 C 68.9277 4.50121 1.70132 0
M  V30 788 C 71.2797 5.00121 1.46725 0
M  V30 789 C 68.6077 5.74845 1.17348 0
M  V30 790 C 70.9597 6.25366 0.95392 0
M  V30 791 C 69.6237 6.6267 0.801538 0
M  V30 792 H 68.8937 0.582478 0.45804 0
M  V30 793 H 71.5407 1.83373 0.551948 0
M  V30 794 H 69.8457 2.40041 3.09657 0
M  V30 795 H 71.5427 2.74925 2.9192 0
M  V30 796 H 68.1327 3.81274 1.95775 0
M  V30 797 H 72.3167 4.71048 1.56294 0
M  V30 798 H 67.5727 6.02444 1.04264 0
M  V30 799 H 71.7467 6.93301 0.656225 0
M  V30 800 H 69.3737 7.59197 0.390351 0
M  V30 801 N 70.9488 -0.749086 1.3866 0
M  V30 802 C 72.3648 -1.05276 1.19955 0
M  V30 803 C 72.5648 -2.01435 0.05134 0
M  V30 804 O 71.6208 -2.45232 -0.60147 0
M  V30 805 C 72.9338 -1.62853 2.52783 0
M  V30 806 C 74.4818 -1.75002 2.59506 0
M  V30 807 C 74.9568 -2.35991 3.92521 0
M  V30 808 N 76.4478 -2.43416 3.94085 0
M  V30 809 C 77.1828 -2.91511 4.9377 0
M  V30 810 N 76.6788 -3.39608 6.03853 0
M  V30 811 N 78.4718 -2.90592 4.81157 0
M  V30 812 H 70.6228 -0.111066 2.12109 0
M  V30 813 H 72.8858 -0.111901 0.941373 0
M  V30 814 H 72.5918 -0.99664 3.37283 0
M  V30 815 H 72.4658 -2.61854 2.715 0
M  V30 816 H 74.8528 -2.37317 1.75398 0
M  V30 817 H 74.9338 -0.74693 2.44652 0
M  V30 818 H 74.5778 -1.74308 4.77053 0
M  V30 819 H 74.5078 -3.3695 4.04688 0
M  V30 820 H 76.9988 -2.09405 3.14576 0
M  V30 821 H 77.3118 -3.74775 6.75843 0
M  V30 822 H 75.6568 -3.37653 6.07466 0
M  V30 823 H 78.8478 -2.52332 3.94267 0
M  V30 824 H 79.0208 -3.27762 5.58996 0
M  V30 825 N 72.4269 -1.23603 -0.977757 0
M  V30 826 C 73.6569 -1.09487 -1.75203 0
M  V30 827 C 74.0649 0.356321 -1.85814 0
M  V30 828 O 73.4079 1.25816 -1.33851 0
M  V30 829 C 73.4699 -1.64905 -3.19447 0
M  V30 830 C 73.1339 -3.13688 -3.32338 0
M  V30 831 C 74.1309 -4.10953 -3.18455 0
M  V30 832 C 71.8159 -3.53449 -3.56902 0
M  V30 833 C 73.8099 -5.45962 -3.28944 0
M  V30 834 C 71.4969 -4.88602 -3.6703 0
M  V30 835 C 72.4949 -5.84668 -3.53062 0
M  V30 836 O 72.1829 -7.17365 -3.62826 0
M  V30 837 H 71.9149 -0.38367 -0.556573 0
M  V30 838 H 74.4689 -1.6398 -1.23693 0
M  V30 839 H 72.6989 -1.04835 -3.72218 0
M  V30 840 H 74.3879 -1.46226 -3.78646 0
M  V30 841 H 75.1539 -3.81577 -2.99372 0
M  V30 842 H 71.0329 -2.79188 -3.66844 0
M  V30 843 H 74.5769 -6.20925 -3.17958 0
M  V30 844 H 70.4739 -5.17653 -3.85623 0
M  V30 845 H 71.2419 -7.2515 -3.79605 0
M  V30 846 N 73.905 1.17692 -1.04816 0
M  V30 847 C 75.154 1.87192 -0.751132 0
M  V30 848 C 75.467 1.8169 0.724441 0
M  V30 849 O 76.673 2.46625 1.13527 0
M  V30 850 C 75.129 3.35857 -1.29338 0
M  V30 851 C 74.737 3.4987 -2.79812 0
M  V30 852 C 76.481 4.10709 -1.07322 0
M  V30 853 C 74.388 4.92536 -3.27356 0
M  V30 854 H 73.318 0.701162 -0.277288 0
M  V30 855 H 75.969 1.32932 -1.26496 0
M  V30 856 H 74.351 3.89631 -0.707376 0
M  V30 857 H 75.525 3.06332 -3.44235 0
M  V30 858 H 73.84 2.88433 -3.00325 0
M  V30 859 H 76.437 5.15952 -1.4035 0
M  V30 860 H 76.78 4.16299 -0.0108001 0
M  V30 861 H 77.313 3.6313 -1.62423 0
M  V30 862 H 74.052 4.92119 -4.33012 0
M  V30 863 H 73.572 5.3676 -2.67673 0
M  V30 864 H 75.251 5.61288 -3.21815 0
M  V30 865 N 75.3831 0.828654 1.34056 0
M  V30 866 C 76.6081 0.431637 2.02859 0
M  V30 867 C 77.0331 -0.956339 1.61975 0
M  V30 868 O 76.3911 -1.62338 0.807228 0
M  V30 869 C 76.4391 0.548323 3.56407 0
M  V30 870 O 75.5431 -0.429556 4.10157 0
M  V30 871 H 74.8841 0.176886 0.640006 0
M  V30 872 H 77.4141 1.12066 1.71179 0
M  V30 873 H 77.4241 0.426196 4.05768 0
M  V30 874 H 76.0991 1.5606 3.8551 0
M  V30 875 H 74.6761 -0.265836 3.71951 0
M  V30 876 N 76.8612 -1.46375 0.584142 0
M  V30 877 C 78.1092 -2.01978 0.0701287 0
M  V30 878 C 78.4302 -1.4579 -1.295 0
M  V30 879 O 77.7002 -0.64314 -1.85042 0
M  V30 880 H 76.2802 -0.746648 0.0229345 0
M  V30 881 H 78.9422 -1.79461 0.760245 0
M  V30 882 H 78.0382 -3.121 0.0022064 0
M  V30 883 N 78.3393 -0.321999 -1.54275 0
M  V30 884 C 79.5643 0.285791 -2.05422 0
M  V30 885 C 79.9893 1.45124 -1.19669 0
M  V30 886 O 79.3473 1.80132 -0.205441 0
M  V30 887 C 79.3953 0.69956 -3.53749 0
M  V30 888 O 78.4993 1.8021 -3.70942 0
M  V30 889 H 77.8403 0.0518962 -0.661969 0
M  V30 890 H 80.3703 -0.469954 -1.9913 0
M  V30 891 H 80.3803 0.982649 -3.9599 0
M  V30 892 H 79.0553 -0.152864 -4.15619 0
M  V30 893 H 77.6323 1.51794 -3.40607 0
M  V30 894 N 79.8174 1.5752 -0.0501392 0
M  V30 895 C 81.0664 1.91827 0.623328 0
M  V30 896 C 81.3794 0.930222 1.72065 0
M  V30 897 O 82.5854 1.1653 2.4522 0
M  V30 898 C 81.0414 3.40692 1.16003 0
M  V30 899 C 80.6494 4.479 0.0948811 0
M  V30 900 C 82.3934 3.84034 1.80881 0
M  V30 901 C 80.3004 5.87879 0.644411 0
M  V30 902 H 79.2304 0.715918 0.236596 0
M  V30 903 H 81.8814 1.83115 -0.118861 0
M  V30 904 H 80.2634 3.44405 1.9545 0
M  V30 905 H 81.4374 4.55775 -0.678675 0
M  V30 906 H 79.7524 4.13892 -0.45637 0
M  V30 907 H 82.3494 4.85984 2.22988 0
M  V30 908 H 82.6924 3.20225 2.6601 0
M  V30 909 H 83.2254 3.82833 1.0809 0
M  V30 910 H 79.9644 6.55282 -0.169229 0
M  V30 911 H 79.4844 5.83567 1.38598 0
M  V30 912 H 81.1634 6.37098 1.12763 0
M  V30 913 N 81.2955 -0.223234 1.56011 0
M  V30 914 C 82.2455 -1.28008 1.88674 0
M  V30 915 C 83.2295 -1.42369 0.749663 0
M  V30 916 O 84.4215 -1.45212 1.01205 0
M  V30 917 C 81.5505 -2.63084 2.20548 0
M  V30 918 C 80.6365 -2.52632 3.40643 0
M  V30 919 N 81.0275 -2.11829 4.59306 0
M  V30 920 C 79.3255 -2.83594 3.44224 0
M  V30 921 C 80.0265 -2.12587 5.41463 0
M  V30 922 N 79.0025 -2.5301 4.81131 0
M  V30 923 H 82.8045 -0.955487 2.77935 0
M  V30 924 H 80.3185 -0.431801 1.56554 0
M  V30 925 H 82.3155 -3.39385 2.42122 0
M  V30 926 H 80.9755 -2.96391 1.32599 0
M  V30 927 H 81.9865 -1.82988 4.84496 0
M  V30 928 H 78.6635 -3.21284 2.66614 0
M  V30 929 H 80.0535 -1.83179 6.46448 0
M  V30 930 N 82.7736 -1.49793 -0.48987 0
M  V30 931 C 84.0036 -1.6333 -1.26518 0
M  V30 932 C 84.4116 -0.308392 -1.8667 0
M  V30 933 O 83.7546 0.717512 -1.69108 0
M  V30 934 C 83.8166 -2.6522 -2.4269 0
M  V30 935 C 83.4806 -4.09279 -2.03321 0
M  V30 936 C 84.4776 -4.95738 -1.56652 0
M  V30 937 C 82.1626 -4.55082 -2.12616 0
M  V30 938 C 84.1566 -6.26041 -1.19795 0
M  V30 939 C 81.8436 -5.85396 -1.75371 0
M  V30 940 C 82.8416 -6.707 -1.29036 0
M  V30 941 O 82.5296 -7.98584 -0.92299 0
M  V30 942 H 82.2616 -0.552502 -0.389509 0
M  V30 943 H 84.8156 -1.96642 -0.593381 0
M  V30 944 H 83.0456 -2.27112 -3.12981 0
M  V30 945 H 84.7346 -2.68171 -3.04695 0
M  V30 946 H 85.5006 -4.61575 -1.48908 0
M  V30 947 H 81.3796 -3.88844 -2.47631 0
M  V30 948 H 84.9236 -6.92578 -0.835582 0
M  V30 949 H 80.8206 -6.19085 -1.82768 0
M  V30 950 H 81.5886 -8.11692 -1.05349 0
M  V30 951 N 84.2517 0.741722 -1.39055 0
M  V30 952 C 85.4767 1.53607 -1.39354 0
M  V30 953 C 85.9017 1.88096 0.0116905 0
M  V30 954 O 85.2597 1.5143 0.996924 0
M  V30 955 C 85.3077 2.80441 -2.26682 0
M  V30 956 O 84.4117 3.76088 -1.69208 0
M  V30 957 H 83.7527 0.464142 -0.474835 0
M  V30 958 H 86.2827 0.915665 -1.82967 0
M  V30 959 H 86.2927 3.29246 -2.40959 0
M  V30 960 H 84.9677 2.5467 -3.2881 0
M  V30 961 H 83.5447 3.34833 -1.64138 0
M  V30 962 N 85.7298 1.2412 0.971189 0
M  V30 963 C 87.1458 1.00584 1.23916 0
M  V30 964 C 87.3458 -0.287481 1.99439 0
M  V30 965 O 86.4018 -1.00454 2.31658 0
M  V30 966 C 87.7148 2.21864 2.0297 0
M  V30 967 C 89.2628 2.26452 2.16076 0
M  V30 968 C 89.7378 3.47343 2.98524 0
M  V30 969 N 91.2288 3.47639 3.06107 0
M  V30 970 C 91.9638 4.37837 3.70251 0
M  V30 971 N 91.4598 5.38286 4.36142 0
M  V30 972 N 93.2528 4.25558 3.67228 0
M  V30 973 H 85.4038 2.07236 0.465499 0
M  V30 974 H 87.6668 0.909236 0.268315 0
M  V30 975 H 87.3728 3.15771 1.54861 0
M  V30 976 H 87.2468 2.23698 3.03709 0
M  V30 977 H 89.6338 1.33078 2.6339 0
M  V30 978 H 89.7148 2.28645 1.14696 0
M  V30 979 H 89.3588 4.41029 2.51905 0
M  V30 980 H 89.2888 3.42393 4.00093 0
M  V30 981 H 91.7798 2.74966 2.59233 0
M  V30 982 H 92.0928 6.03352 4.82894 0
M  V30 983 H 90.4378 5.42176 4.34822 0
M  V30 984 H 93.6288 3.46322 3.14927 0
M  V30 985 H 93.8018 4.96054 4.16935 0
M  V30 986 N 87.2079 -1.17134 1.05439 0
M  V30 987 C 88.4539 -1.87733 0.767077 0
M  V30 988 C 88.7869 -1.8098 -0.704253 0
M  V30 989 O 88.0619 -1.21951 -1.5152 0
M  V30 990 C 88.3449 -3.37659 1.25133 0
M  V30 991 C 88.1979 -3.53149 2.78578 0
M  V30 992 C 89.5169 -4.31768 0.852324 0
M  V30 993 H 86.6359 -0.681687 0.280129 0
M  V30 994 H 89.2779 -1.37732 1.30881 0
M  V30 995 H 87.4279 -3.80373 0.790469 0
M  V30 996 H 89.0999 -3.19434 3.32806 0
M  V30 997 H 87.3429 -2.95345 3.17732 0
M  V30 998 H 88.0139 -4.58403 3.07523 0
M  V30 999 H 90.4899 -3.96909 1.24911 0
M  V30 1000 H 89.3659 -5.35199 1.21873 0
M  V30 1001 H 89.6269 -4.41429 -0.243485 0
M  V30 1002 N 88.686 -0.835752 -1.33615 0
M  V30 1003 C 90.097 -0.487099 -1.80234 0
M  V30 1004 C 90.448 0.993627 -1.69179 0
M  V30 1005 O 89.573 1.77403 -1.23924 0
M  V30 1006 C 90.168 -0.877385 -3.27242 0
M  V30 1007 C 88.727 -0.580915 -3.7189 0
M  V30 1008 C 87.874 -1.0874 -2.5509 0
M  V30 1009 H 90.825 -1.02474 -1.2118 0
M  V30 1010 H 90.846 -0.186195 -3.80044 0
M  V30 1011 H 90.358 -1.95512 -3.35256 0
M  V30 1012 H 88.459 0.486881 -3.69405 0
M  V30 1013 H 88.572 -1.13396 -4.65487 0
M  V30 1014 H 86.936 -0.508392 -2.49575 0
M  V30 1015 H 87.719 -2.17184 -2.65868 0
M  V30 1016 N 90.1641 1.46063 -0.591896 0
M  V30 1017 C 91.5801 1.57561 -0.254288 0
M  V30 1018 C 91.7801 1.58565 1.24336 0
M  V30 1019 O 90.8361 1.50753 2.02558 0
M  V30 1020 C 92.1491 2.86549 -0.911611 0
M  V30 1021 C 93.6971 3.00197 -0.886059 0
M  V30 1022 C 94.1721 4.31933 -1.5231 0
M  V30 1023 N 95.6631 4.38654 -1.48786 0
M  V30 1024 C 96.3981 5.39222 -1.95006 0
M  V30 1025 N 95.8941 6.46414 -2.49241 0
M  V30 1026 N 97.6871 5.3048 -1.85868 0
M  V30 1027 H 89.8381 1.43655 -1.56451 0
M  V30 1028 H 92.1011 0.68583 -0.654478 0
M  V30 1029 H 91.8071 2.91651 -1.96551 0
M  V30 1030 H 91.6811 3.74794 -0.425368 0
M  V30 1031 H 94.0681 2.9467 0.159246 0
M  V30 1032 H 94.1491 2.13403 -1.41041 0
M  V30 1033 H 93.7931 4.38217 -2.56765 0
M  V30 1034 H 93.7231 5.17516 -0.973891 0
M  V30 1035 H 96.2141 3.61793 -1.09151 0
M  V30 1036 H 96.5271 7.19376 -2.82344 0
M  V30 1037 H 94.8721 6.47208 -2.53272 0
M  V30 1038 H 98.0631 4.45643 -1.43248 0
M  V30 1039 H 98.2361 6.08711 -2.22204 0
M  V30 1040 N 91.6422 0.330177 1.54103 0
M  V30 1041 C 92.8892 -0.270405 2.00686 0
M  V30 1042 C 93.2172 -1.51621 1.21825 0
M  V30 1043 O 92.4722 -1.93536 0.29025 0
M  V30 1044 C 92.7712 -0.643134 3.51566 0
M  V30 1045 C 92.4372 0.504251 4.48072 0
M  V30 1046 C 91.0992 0.819163 4.74176 0
M  V30 1047 C 93.4512 1.27465 5.05373 0
M  V30 1048 C 90.7792 1.90708 5.5484 0
M  V30 1049 C 93.1312 2.35271 5.87223 0
M  V30 1050 C 91.7952 2.67336 6.11627 0
M  V30 1051 H 91.0652 -0.0989482 0.734364 0
M  V30 1052 H 93.7122 0.455324 1.86008 0
M  V30 1053 H 92.0172 -1.44938 3.64006 0
M  V30 1054 H 93.7142 -1.11949 3.85056 0
M  V30 1055 H 90.3042 0.248733 4.27878 0
M  V30 1056 H 94.4882 1.04462 4.85182 0
M  V30 1057 H 89.7442 2.15991 5.71977 0
M  V30 1058 H 93.9182 2.95405 6.30641 0
M  V30 1059 H 91.5452 3.51763 6.73919 0
M  V30 1060 N 93.1203 -1.57491 0.0584922 0
M  V30 1061 C 94.3503 -1.9701 -0.622134 0
M  V30 1062 C 94.7583 -0.935034 -1.6448 0
M  V30 1063 O 94.1013 0.0882904 -1.83488 0
M  V30 1064 C 94.1633 -3.32794 -1.35972 0
M  V30 1065 C 93.8273 -4.54343 -0.492043 0
M  V30 1066 C 94.8243 -5.19323 0.244901 0
M  V30 1067 C 92.5093 -5.00534 -0.420821 0
M  V30 1068 C 94.5033 -6.28835 1.04143 0
M  V30 1069 C 92.1903 -6.09921 0.379389 0
M  V30 1070 C 93.1883 -6.73933 1.10919 0
M  V30 1071 O 92.8763 -7.81216 1.89623 0
M  V30 1072 H 92.6083 -0.653127 -0.174359 0
M  V30 1073 H 95.1623 -2.05029 0.123418 0
M  V30 1074 H 93.3923 -3.21351 -2.15105 0
M  V30 1075 H 95.0813 -3.5701 -1.93129 0
M  V30 1076 H 95.8473 -4.8459 0.19939 0
M  V30 1077 H 91.7263 -4.50496 -0.978474 0
M  V30 1078 H 95.2703 -6.7873 1.61157 0
M  V30 1079 H 91.1673 -6.44089 0.426512 0
M  V30 1080 H 91.9353 -7.98029 1.81913 0
M  V30 1081 N 94.5984 0.214957 -1.56127 0
M  V30 1082 C 95.8444 0.935325 -1.80619 0
M  V30 1083 C 96.1994 1.81706 -0.632507 0
M  V30 1084 O 95.4924 1.87931 0.373182 0
M  V30 1085 C 95.6864 1.80314 -3.0858 0
M  V30 1086 C 95.5154 1.00691 -4.38282 0
M  V30 1087 C 94.2854 0.699211 -5.00439 0
M  V30 1088 C 96.4834 0.369057 -5.12974 0
M  V30 1089 N 94.4654 -0.117734 -6.13787 0
M  V30 1090 C 95.8364 -0.310981 -6.1922 0
M  V30 1091 C 97.8914 0.282759 -4.97096 0
M  V30 1092 C 96.5944 -1.06907 -7.11311 0
M  V30 1093 C 98.6204 -0.461881 -5.89594 0
M  V30 1094 C 97.9824 -1.13044 -6.9527 0
M  V30 1095 H 94.0814 0.322307 -0.71249 0
M  V30 1096 H 96.6654 0.205649 -1.93611 0
M  V30 1097 H 94.8364 2.50458 -2.96859 0
M  V30 1098 H 96.5684 2.46148 -3.21237 0
M  V30 1099 H 93.3234 1.01884 -4.62511 0
M  V30 1100 H 93.7474 -0.515235 -6.75037 0
M  V30 1101 H 98.3894 0.785292 -4.15443 0
M  V30 1102 H 96.1074 -1.5831 -7.92442 0
M  V30 1103 H 99.6934 -0.529746 -5.79383 0
M  V30 1104 H 98.5734 -1.69742 -7.65609 0
M  V30 1105 N 96.0765 1.50051 0.48192 0
M  V30 1106 C 97.0235 1.68122 1.58125 0
M  V30 1107 C 97.9935 0.522545 1.57666 0
M  V30 1108 O 99.1785 0.751844 1.75362 0
M  V30 1109 C 96.3185 1.77142 2.96167 0
M  V30 1110 C 95.4315 3.0444 3.06497 0
M  V30 1111 C 94.5665 3.04321 4.35387 0
M  V30 1112 C 93.6055 4.26118 4.3942 0
M  V30 1113 N 92.7425 4.238 5.59766 0
M  V30 1114 H 97.5825 2.6198 1.42022 0
M  V30 1115 H 95.1195 1.29877 0.690687 0
M  V30 1116 H 97.0775 1.80352 3.76203 0
M  V30 1117 H 95.7075 0.867329 3.1093 0
M  V30 1118 H 94.7595 3.10752 2.19402 0
M  V30 1119 H 96.0715 3.94426 3.05336 0
M  V30 1120 H 95.2255 3.062 5.23762 0
M  V30 1121 H 93.9645 2.12147 4.39141 0
M  V30 1122 H 92.9695 4.24463 3.49444 0
M  V30 1123 H 94.1945 5.19507 4.37366 0
M  V30 1124 H 92.1405 3.34474 5.64326 0
M  V30 1125 H 92.0575 5.07542 5.60301 0
M  V30 1126 H 93.3255 4.2981 6.50295 0
M  V30 1127 N 97.5546 -0.734337 1.39446 0
M  V30 1128 C 98.8316 -1.48579 1.27215 0
M  V30 1129 C 99.2116 -2.1077 -0.117968 0
M  V30 1130 O 98.5596 -1.98646 -1.12924 0
M  V30 1131 C 98.7696 -2.53667 2.39696 0
M  V30 1132 C 100.118 -3.20031 2.79044 0
M  V30 1133 O 101.142 -2.6398 2.39151 0
M  V30 1134 O 100.001 -4.21455 3.47905 0
M  V30 1135 H 97.0946 -0.659816 0.49857 0
M  V30 1136 H 99.6406 -0.768106 1.51322 0
M  V30 1137 H 98.4126 -2.06096 3.32626 0
M  V30 1138 H 98.0356 -3.32994 2.17258 0
M  V30 1139 N 99.0327 -1.24633 -0.964593 0
M  V30 1140 C 100.449 -1.01239 -1.2338 0
M  V30 1141 C 100.649 0.2769 -1.99588 0
M  V30 1142 O 99.7047 0.992241 -2.32187 0
M  V30 1143 C 101.018 -2.22937 -2.01791 0
M  V30 1144 C 102.566 -2.27594 -2.14872 0
M  V30 1145 C 103.041 -3.48921 -2.96678 0
M  V30 1146 N 104.532 -3.49257 -3.04259 0
M  V30 1147 C 105.267 -4.39795 -3.67924 0
M  V30 1148 N 104.763 -5.40591 -4.33281 0
M  V30 1149 N 106.556 -4.275 -3.64966 0
M  V30 1150 H 98.7067 -2.0748 -0.454502 0
M  V30 1151 H 100.97 -0.910647 -0.26349 0
M  V30 1152 H 100.676 -3.16587 -1.53184 0
M  V30 1153 H 100.55 -2.25306 -3.02518 0
M  V30 1154 H 102.937 -1.34473 -2.6268 0
M  V30 1155 H 103.018 -2.2925 -1.13482 0
M  V30 1156 H 102.662 -4.42359 -2.49562 0
M  V30 1157 H 102.592 -3.4451 -3.98272 0
M  V30 1158 H 105.083 -2.76337 -2.57771 0
M  V30 1159 H 105.396 -6.05904 -4.79687 0
M  V30 1160 H 103.741 -5.44475 -4.3194 0
M  V30 1161 H 106.932 -3.47987 -3.13086 0
M  V30 1162 H 107.105 -4.98258 -4.14298 0
M  V30 1163 N 100.511 1.16574 -1.06058 0
M  V30 1164 C 101.441 2.23057 -0.690488 0
M  V30 1165 C 102.422 1.67141 0.315901 0
M  V30 1166 O 103.607 1.93253 0.191556 0
M  V30 1167 C 100.737 3.47222 -0.073625 0
M  V30 1168 C 99.6908 4.16016 -1.00573 0
M  V30 1169 C 99.0168 5.34104 -0.252289 0
M  V30 1170 C 100.317 4.67264 -2.33371 0
M  V30 1171 H 102.011 2.54271 -1.58072 0
M  V30 1172 H 99.5568 1.22218 -0.76149 0
M  V30 1173 H 101.51 4.20939 0.19714 0
M  V30 1174 H 100.234 3.15302 0.85161 0
M  V30 1175 H 98.8928 3.44223 -1.2612 0
M  V30 1176 H 98.5408 4.98437 0.675988 0
M  V30 1177 H 98.2408 5.81072 -0.873455 0
M  V30 1178 H 99.7648 6.10599 0.0109857 0
M  V30 1179 H 101.179 5.32573 -2.12223 0
M  V30 1180 H 99.5758 5.24843 -2.90963 0
M  V30 1181 H 100.646 3.83602 -2.96611 0
M  V30 1182 N 101.989 0.842826 1.3317 0
M  V30 1183 C 102.919 0.294028 2.31641 0
M  V30 1184 C 103.9 -0.600401 1.59151 0
M  V30 1185 O 105.085 -0.523124 1.87022 0
M  V30 1186 C 102.215 -0.528416 3.43257 0
M  V30 1187 C 101.169 0.27056 4.27144 0
M  V30 1188 C 100.495 -0.675881 5.30411 0
M  V30 1189 C 101.795 1.48981 5.00602 0
M  V30 1190 H 103.489 1.11681 2.77791 0
M  V30 1191 H 101.035 0.538478 1.33553 0
M  V30 1192 H 102.988 -0.922674 4.11175 0
M  V30 1193 H 101.712 -1.38445 2.95805 0
M  V30 1194 H 100.371 0.646427 3.60856 0
M  V30 1195 H 100.019 -1.52842 4.79216 0
M  V30 1196 H 99.7189 -0.145374 5.8742 0
M  V30 1197 H 101.243 -1.06757 6.01195 0
M  V30 1198 H 102.657 1.16849 5.61266 0
M  V30 1199 H 101.054 1.95739 5.6728 0
M  V30 1200 H 102.124 2.25746 4.29147 0
M  V30 1201 N 103.467 -1.45747 0.599634 0
M  V30 1202 C 104.414 -2.30467 -0.123849 0
M  V30 1203 C 105.384 -1.41632 -0.86774 0
M  V30 1204 O 106.569 -1.70568 -0.855056 0
M  V30 1205 C 103.709 -3.26402 -1.12051 0
M  V30 1206 C 102.822 -4.3034 -0.37832 0
M  V30 1207 C 101.957 -5.13389 -1.364 0
M  V30 1208 C 100.996 -6.09061 -0.609171 0
M  V30 1209 N 100.133 -6.84918 -1.54374 0
M  V30 1210 H 104.973 -2.91802 0.604627 0
M  V30 1211 H 102.51 -1.43797 0.309972 0
M  V30 1212 H 104.468 -3.80482 -1.7114 0
M  V30 1213 H 103.098 -2.66839 -1.8165 0
M  V30 1214 H 102.15 -3.78984 0.327929 0
M  V30 1215 H 103.462 -4.98354 0.210997 0
M  V30 1216 H 102.616 -5.7183 -2.02719 0
M  V30 1217 H 101.355 -4.45376 -1.98725 0
M  V30 1218 H 100.36 -5.49758 0.0676979 0
M  V30 1219 H 101.585 -6.79099 0.00891991 0
M  V30 1220 H 99.531 -6.19601 -2.15478 0
M  V30 1221 H 99.448 -7.49254 -1.00766 0
M  V30 1222 H 100.716 -7.47906 -2.19676 0
M  V30 1223 N 104.945 -0.338344 -1.53925 0
M  V30 1224 C 105.878 0.563758 -2.21127 0
M  V30 1225 C 106.856 1.10433 -1.19345 0
M  V30 1226 O 108.04 1.16557 -1.48144 0
M  V30 1227 C 105.167 1.77505 -2.88461 0
M  V30 1228 C 104.213 1.3644 -4.04087 0
M  V30 1229 S 105.046 0.388593 -5.34088 0
M  V30 1230 C 106.202 1.60683 -6.04923 0
M  V30 1231 H 106.435 -0.00704546 -2.97299 0
M  V30 1232 H 103.968 -0.122418 -1.53914 0
M  V30 1233 H 105.926 2.46999 -3.27875 0
M  V30 1234 H 104.587 2.31706 -2.12064 0
M  V30 1235 H 103.78 2.26739 -4.50117 0
M  V30 1236 H 103.382 0.748998 -3.66423 0
M  V30 1237 H 105.674 2.54209 -6.28 0
M  V30 1238 H 106.617 1.18842 -6.98056 0
M  V30 1239 H 107.025 1.80052 -5.35015 0
M  V30 1240 N 106.423 1.57458 -0.0668435 0
M  V30 1241 C 107.37 2.12439 0.902122 0
M  V30 1242 C 108.34 1.03565 1.2986 0
M  V30 1243 O 109.525 1.312 1.38532 0
M  V30 1244 C 106.665 2.6865 2.16614 0
M  V30 1245 C 105.778 3.91663 1.82274 0
M  V30 1246 C 104.913 4.36134 3.0325 0
M  V30 1247 C 103.952 5.51808 2.64904 0
M  V30 1248 N 103.089 5.9126 3.78624 0
M  V30 1249 H 107.929 2.94934 0.426382 0
M  V30 1250 H 105.466 1.4575 0.198819 0
M  V30 1251 H 107.424 2.99346 2.90599 0
M  V30 1252 H 106.054 1.88928 2.61737 0
M  V30 1253 H 105.106 3.6746 0.983719 0
M  V30 1254 H 106.418 4.75693 1.50059 0
M  V30 1255 H 105.572 4.68465 3.85519 0
M  V30 1256 H 104.311 3.50948 3.38655 0
M  V30 1257 H 103.316 5.19133 1.81055 0
M  V30 1258 H 104.541 6.38722 2.30675 0
M  V30 1259 H 102.487 5.09024 4.138 0
M  V30 1260 H 102.404 6.70018 3.5016 0
M  V30 1261 H 103.672 6.28212 4.61486 0
M  V30 1262 N 107.901 -0.206675 1.56239 0
M  V30 1263 C 108.834 -1.28383 1.88661 0
M  V30 1264 C 109.812 -1.44504 0.745481 0
M  V30 1265 O 110.996 -1.60079 0.995336 0
M  V30 1266 C 108.123 -2.65211 2.10667 0
M  V30 1267 C 107.169 -2.66025 3.33366 0
M  V30 1268 S 108.002 -2.18609 4.88846 0
M  V30 1269 C 109.158 -3.57283 5.13906 0
M  V30 1270 H 109.391 -1.00691 2.7973 0
M  V30 1271 H 106.924 -0.409627 1.48867 0
M  V30 1272 H 108.882 -3.43979 2.24029 0
M  V30 1273 H 107.543 -2.90121 1.20369 0
M  V30 1274 H 106.736 -3.66607 3.45855 0
M  V30 1275 H 106.338 -1.95331 3.18938 0
M  V30 1276 H 108.63 -4.53074 5.03717 0
M  V30 1277 H 109.573 -3.49699 6.15724 0
M  V30 1278 H 109.981 -3.51659 4.41583 0
M  V30 1279 N 109.379 -1.50304 -0.473955 0
M  V30 1280 C 110.342 -1.6841 -1.55469 0
M  V30 1281 C 111.342 -0.554905 -1.50922 0
M  V30 1282 O 112.532 -0.821882 -1.53593 0
M  V30 1283 C 109.664 -1.70667 -2.95102 0
M  V30 1284 H 110.857 -2.64828 -1.40733 0
M  V30 1285 H 108.41 -1.39742 -0.700132 0
M  V30 1286 H 109.145 -0.75932 -3.15285 0
M  V30 1287 H 108.93 -2.52698 -2.9981 0
M  V30 1288 H 110.42 -1.8664 -3.73571 0
M  V30 1289 N 110.857 0.726932 -1.39834 0
M  V30 1290 C 112.105 1.4837 -1.37225 0
M  V30 1291 C 112.426 1.94979 0.0284857 0
M  V30 1292 O 111.696 1.69555 0.981213 0
M  V30 1293 H 110.276 0.55043 -0.505011 0
M  V30 1294 H 112.938 0.862468 -1.74778 0
M  V30 1295 H 112.034 2.36198 -2.04003 0
M  V30 1296 N 112.336 1.25143 0.95797 0
M  V30 1297 C 113.266 1.07711 2.07173 0
M  V30 1298 C 114.247 -0.0128462 1.70095 0
M  V30 1299 O 115.432 0.156061 1.93572 0
M  V30 1300 C 112.562 0.691503 3.40346 0
M  V30 1301 C 111.516 1.73132 3.9142 0
M  V30 1302 C 110.842 1.20049 5.21049 0
M  V30 1303 C 112.142 3.1294 4.1817 0
M  V30 1304 H 113.836 2.00873 2.22014 0
M  V30 1305 H 111.382 0.967191 1.06684 0
M  V30 1306 H 113.335 0.556505 4.17709 0
M  V30 1307 H 112.059 -0.275819 3.25433 0
M  V30 1308 H 110.718 1.8547 3.16222 0
M  V30 1309 H 110.366 0.223499 5.02503 0
M  V30 1310 H 110.066 1.89545 5.56189 0
M  V30 1311 H 111.59 1.07782 6.01012 0
M  V30 1312 H 113.004 3.03775 4.86203 0
M  V30 1313 H 111.401 3.79875 4.64559 0
M  V30 1314 H 112.471 3.6025 3.24573 0
M  V30 1315 N 113.814 -1.1601 1.06675 0
M  V30 1316 C 114.762 -2.22586 0.675157 0
M  V30 1317 C 115.756 -1.66525 -0.310766 0
M  V30 1318 O 116.962 -1.79145 -0.175215 0
M  V30 1319 H 113.337 -0.724855 0.200223 0
M  V30 1320 H 115.308 -2.52899 1.58381 0
M  V30 1321 C 114.057 -3.47604 0.0817162 0
M  V30 1322 H 113.38 -3.91058 0.831484 0
M  V30 1323 H 114.82 -4.23718 -0.154708 0
M  V30 1324 C 113.279 -3.15718 -1.17576 0
M  V30 1325 O 113.809 -3.31878 -2.26318 0
M  V30 1326 N 112.015 -2.69816 -1.07923 0
M  V30 1327 H 111.562 -2.56866 -0.194293 0
M  V30 1328 H 111.52 -2.48855 -1.92141 0
M  V30 1329 N 115.292 -0.849877 -1.32721 0
M  V30 1330 C 116.255 -0.296122 -2.27279 0
M  V30 1331 C 117.255 0.541458 -1.5141 0
M  V30 1332 O 118.445 0.353658 -1.70572 0
M  V30 1333 C 115.577 0.581579 -3.35902 0
M  V30 1334 H 116.77 -1.13064 -2.77771 0
M  V30 1335 H 114.323 -0.62383 -1.43311 0
M  V30 1336 H 115.058 1.43809 -2.9067 0
M  V30 1337 H 114.843 -0.0178814 -3.92096 0
M  V30 1338 H 116.333 0.961951 -4.0637 0
M  V30 1339 N 116.77 1.45427 -0.607355 0
M  V30 1340 C 118.019 2.01452 -0.100036 0
M  V30 1341 C 118.332 1.48159 1.27704 0
M  V30 1342 O 119.538 1.96159 1.87707 0
M  V30 1343 C 117.994 3.59672 -0.128158 0
M  V30 1344 C 117.602 4.21962 -1.50507 0
M  V30 1345 C 119.346 4.23262 0.323932 0
M  V30 1346 C 117.253 5.72333 -1.48959 0
M  V30 1347 H 116.183 0.75325 -0.0336299 0
M  V30 1348 H 118.834 1.66901 -0.76265 0
M  V30 1349 H 117.216 3.91411 0.601105 0
M  V30 1350 H 118.39 4.01796 -2.25602 0
M  V30 1351 H 116.705 3.70565 -1.89923 0
M  V30 1352 H 119.302 5.33522 0.354691 0
M  V30 1353 H 119.645 3.93921 1.34656 0
M  V30 1354 H 120.178 3.96239 -0.352056 0
M  V30 1355 H 116.917 6.06373 -2.48981 0
M  V30 1356 H 116.437 5.94691 -0.781214 0
M  V30 1357 H 118.116 6.35525 -1.21313 0
M  V30 1358 N 118.248 0.346503 1.53744 0
M  V30 1359 C 119.18 -0.543316 2.22667 0
M  V30 1360 C 120.193 -1.06159 1.23427 0
M  V30 1361 O 121.382 -0.971235 1.49764 0
M  V30 1362 C 118.482 -1.76076 2.89569 0
M  V30 1363 C 117.655 -1.37727 4.15151 0
M  V30 1364 C 116.714 -2.45471 4.65436 0
M  V30 1365 O 115.74 -2.08655 5.29577 0
M  V30 1366 N 116.942 -3.7677 4.41616 0
M  V30 1367 H 119.707 0.0469703 2.99663 0
M  V30 1368 H 117.268 0.170766 1.60997 0
M  V30 1369 H 119.26 -2.47593 3.20125 0
M  V30 1370 H 117.83 -2.25835 2.16142 0
M  V30 1371 H 117.05 -0.492746 3.91108 0
M  V30 1372 H 118.338 -1.09708 4.96832 0
M  V30 1373 H 117.736 -4.09467 3.90325 0
M  V30 1374 H 116.293 -4.44448 4.7677 0
M  V30 1375 N 119.726 -1.57421 0.075193 0
M  V30 1376 C 120.954 -1.97946 -0.602076 0
M  V30 1377 C 121.369 -0.953674 -1.62943 0
M  V30 1378 O 120.726 0.0592551 -1.82404 0
M  V30 1379 C 120.777 -3.38546 -1.26762 0
M  V30 1380 O 120.498 -4.37195 -0.281376 0
M  V30 1381 C 121.999 -3.93966 -2.03239 0
M  V30 1382 H 119.219 -0.650918 -0.162931 0
M  V30 1383 H 121.763 -2.03959 0.148601 0
M  V30 1384 H 119.918 -3.33609 -1.96936 0
M  V30 1385 H 120.332 -5.18975 -0.759267 0
M  V30 1386 H 121.806 -4.94555 -2.45193 0
M  V30 1387 H 122.283 -3.30693 -2.8903 0
M  V30 1388 H 122.889 -4.02315 -1.37924 0
M  V30 1389 N 121.204 0.198386 -1.56346 0
M  V30 1390 C 122.434 0.934215 -1.84271 0
M  V30 1391 C 122.842 1.77496 -0.655125 0
M  V30 1392 O 122.185 1.7961 0.385488 0
M  V30 1393 C 122.247 1.88278 -3.06254 0
M  V30 1394 C 121.911 1.22431 -4.40295 0
M  V30 1395 C 122.908 0.602839 -5.16393 0
M  V30 1396 C 120.593 1.22915 -4.87029 0
M  V30 1397 C 122.587 -0.0050083 -6.374 0
M  V30 1398 C 120.274 0.617465 -6.07973 0
M  V30 1399 C 121.272 0.00146341 -6.83 0
M  V30 1400 O 120.96 -0.600642 -8.01653 0
M  V30 1401 H 120.692 0.278245 -0.616081 0
M  V30 1402 H 123.246 0.211626 -2.04307 0
M  V30 1403 H 121.476 2.64498 -2.82095 0
M  V30 1404 H 123.165 2.48612 -3.20853 0
M  V30 1405 H 123.931 0.591265 -4.81382 0
M  V30 1406 H 119.81 1.69801 -4.28589 0
M  V30 1407 H 123.354 -0.48643 -6.95902 0
M  V30 1408 H 119.251 0.62653 -6.42452 0
M  V30 1409 H 120.019 -0.497225 -8.16988 0
M  V30 1410 N 122.682 1.50554 0.465978 0
M  V30 1411 C 123.928 1.62038 1.21949 0
M  V30 1412 C 124.261 0.322116 1.9151 0
M  V30 1413 O 123.536 -0.676723 1.82348 0
M  V30 1414 C 123.819 2.80421 2.25912 0
M  V30 1415 C 123.672 4.20144 1.60622 0
M  V30 1416 C 124.991 2.94354 3.27176 0
M  V30 1417 H 122.11 0.589752 0.441998 0
M  V30 1418 H 124.752 1.82956 0.51257 0
M  V30 1419 H 122.902 2.62717 2.86203 0
M  V30 1420 H 124.574 4.49449 1.03889 0
M  V30 1421 H 122.817 4.24165 0.909211 0
M  V30 1422 H 123.488 4.98914 2.36196 0
M  V30 1423 H 125.964 3.10578 2.76913 0
M  V30 1424 H 124.84 3.788 3.97242 0
M  V30 1425 H 125.101 2.05186 3.916 0
M  V30 1426 N 124.16 -0.719506 1.40217 0
M  V30 1427 C 125.571 -1.29848 1.34151 0
M  V30 1428 C 125.922 -1.96196 0.0131349 0
M  V30 1429 O 125.047 -1.973 -0.88892 0
M  V30 1430 C 125.642 -2.36118 2.42968 0
M  V30 1431 C 124.201 -2.8965 2.40374 0
M  V30 1432 C 123.348 -1.63393 2.24049 0
M  V30 1433 H 126.299 -0.51591 1.5008 0
M  V30 1434 H 126.32 -3.16871 2.10649 0
M  V30 1435 H 125.832 -1.878 3.39636 0
M  V30 1436 H 123.933 -3.42208 1.47392 0
M  V30 1437 H 124.046 -3.4171 3.35814 0
M  V30 1438 H 122.41 -1.88312 1.71495 0
M  V30 1439 H 123.193 -1.17104 3.2271 0
M  V30 1440 N 125.638 -1.25649 -0.95132 0
M  V30 1441 C 126.884 -1.11766 -1.69941 0
M  V30 1442 C 127.239 0.33735 -1.89419 0
M  V30 1443 O 126.532 1.24491 -1.45645 0
M  V30 1444 C 126.726 -1.80909 -3.08231 0
M  V30 1445 C 126.555 -3.32984 -3.02245 0
M  V30 1446 C 125.325 -4.02247 -3.05819 0
M  V30 1447 C 127.523 -4.29332 -2.83157 0
M  V30 1448 N 125.505 -5.41072 -2.90024 0
M  V30 1449 C 126.876 -5.55265 -2.75828 0
M  V30 1450 C 128.931 -4.19707 -2.67863 0
M  V30 1451 C 127.634 -6.72671 -2.54767 0
M  V30 1452 C 129.66 -5.36809 -2.48173 0
M  V30 1453 C 129.022 -6.61683 -2.41567 0
M  V30 1454 H 125.121 -0.463708 -0.629682 0
M  V30 1455 H 127.705 -1.58796 -1.12659 0
M  V30 1456 H 125.876 -1.36369 -3.63673 0
M  V30 1457 H 127.608 -1.59739 -3.71841 0
M  V30 1458 H 124.363 -3.53531 -3.15139 0
M  V30 1459 H 124.787 -6.13938 -2.85323 0
M  V30 1460 H 129.429 -3.23907 -2.71743 0
M  V30 1461 H 127.147 -7.68577 -2.49629 0
M  V30 1462 H 130.733 -5.31224 -2.37259 0
M  V30 1463 H 129.613 -7.50768 -2.26531 0
M  V30 1464 N 127.117 1.15442 -1.07289 0
M  V30 1465 C 128.065 2.22225 -0.686952 0
M  V30 1466 C 129.059 1.66688 0.30193 0
M  V30 1467 O 130.265 1.79236 0.165712 0
M  V30 1468 H 126.64 0.723783 -0.204064 0
M  V30 1469 H 128.611 2.52056 -1.5972 0
M  V30 1470 C 127.36 3.47556 -0.100149 0
M  V30 1471 H 126.683 3.90612 -0.852211 0
M  V30 1472 H 128.123 4.23794 0.132235 0
M  V30 1473 C 126.582 3.16337 1.159 0
M  V30 1474 O 127.112 3.33074 2.24555 0
M  V30 1475 N 125.318 2.70385 1.06491 0
M  V30 1476 H 124.865 2.56966 0.180668 0
M  V30 1477 H 124.823 2.49871 1.90819 0
M  V30 1478 N 128.595 0.856903 1.32268 0
M  V30 1479 C 129.842 0.461386 1.97174 0
M  V30 1480 C 130.17 -0.983491 1.67803 0
M  V30 1481 O 129.425 -1.70541 0.959903 0
M  V30 1482 C 129.724 0.649919 3.51441 0
M  V30 1483 C 129.39 2.0656 4.00804 0
M  V30 1484 C 128.052 2.45279 4.13995 0
M  V30 1485 C 130.404 2.98947 4.26943 0
M  V30 1486 C 127.732 3.75653 4.50668 0
M  V30 1487 C 130.084 4.28822 4.65075 0
M  V30 1488 C 128.748 4.67472 4.76472 0
M  V30 1489 H 128.018 0.168833 0.72151 0
M  V30 1490 H 130.665 1.08739 1.57633 0
M  V30 1491 H 128.97 -0.0593018 3.91755 0
M  V30 1492 H 130.667 0.32391 3.9969 0
M  V30 1493 H 127.257 1.75495 3.91024 0
M  V30 1494 H 131.441 2.70265 4.16258 0
M  V30 1495 H 126.697 4.05379 4.57688 0
M  V30 1496 H 130.871 5.0047 4.84255 0
M  V30 1497 H 128.498 5.68539 5.04646 0
M  V30 1498 N 130.073 -1.45103 0.615059 0
M  V30 1499 C 131.023 -2.27679 -0.120966 0
M  V30 1500 C 132.007 -1.3775 -0.831491 0
M  V30 1501 O 133.199 -1.61683 -0.720249 0
M  V30 1502 C 130.328 -3.24767 -1.1127 0
M  V30 1503 C 129.414 -4.22184 -0.402627 0
M  V30 1504 N 129.805 -5.02692 0.559884 0
M  V30 1505 C 128.103 -4.4125 -0.649202 0
M  V30 1506 C 128.804 -5.73421 0.977942 0
M  V30 1507 N 127.78 -5.42657 0.320104 0
M  V30 1508 H 131.582 -2.87325 0.618181 0
M  V30 1509 H 129.096 -1.56345 0.439304 0
M  V30 1510 H 131.093 -3.82666 -1.65446 0
M  V30 1511 H 129.753 -2.66682 -1.85232 0
M  V30 1512 H 130.764 -5.09354 0.936976 0
M  V30 1513 H 127.441 -3.9428 -1.37293 0
M  V30 1514 H 128.831 -6.48107 1.77222 0
M  V30 1515 N 131.551 -0.354651 -1.53558 0
M  V30 1516 C 132.461 0.50515 -2.29097 0
M  V30 1517 C 133.477 1.10223 -1.34636 0
M  V30 1518 O 134.653 1.11553 -1.67684 0
M  V30 1519 C 131.718 1.63479 -3.05738 0
M  V30 1520 C 130.779 1.06636 -4.15845 0
M  V30 1521 C 130.012 2.14217 -4.88822 0
M  V30 1522 O 130.235 3.35137 -4.61562 0
M  V30 1523 O 129.169 1.77887 -5.75013 0
M  V30 1524 H 132.995 -0.109237 -3.03503 0
M  V30 1525 H 130.58 -0.119357 -1.48922 0
M  V30 1526 H 132.462 2.2918 -3.5363 0
M  V30 1527 H 131.137 2.23478 -2.34178 0
M  V30 1528 H 130.044 0.373565 -3.7223 0
M  V30 1529 H 131.377 0.511081 -4.89539 0
M  V30 1530 N 133.029 1.57378 -0.0835403 0
M  V30 1531 C 134.44 1.81261 0.447358 0
M  V30 1532 C 134.791 0.998331 1.68902 0
M  V30 1533 O 133.916 0.224282 2.15235 0
M  V30 1534 C 134.511 3.28767 0.818386 0
M  V30 1535 C 133.07 3.53455 1.29409 0
M  V30 1536 C 132.217 2.75831 0.285024 0
M  V30 1537 H 135.168 1.5566 -0.309115 0
M  V30 1538 H 135.189 3.41459 1.67887 0
M  V30 1539 H 134.701 3.88006 -0.0855019 0
M  V30 1540 H 132.802 2.99534 2.21608 0
M  V30 1541 H 132.915 4.62128 1.2639 0
M  V30 1542 H 131.279 2.42947 0.764767 0
M  V30 1543 H 132.062 3.37813 -0.611341 0
M  V30 1544 N 134.507 -0.190092 1.56449 0
M  V30 1545 C 135.753 -0.906472 1.82084 0
M  V30 1546 C 136.108 -1.80677 0.661335 0
M  V30 1547 O 135.401 -1.88501 -0.343237 0
M  V30 1548 C 135.595 -1.75382 3.1141 0
M  V30 1549 C 135.424 -0.937053 4.39829 0
M  V30 1550 C 134.194 -0.619507 5.01488 0
M  V30 1551 C 136.392 -0.2874 5.13496 0
M  V30 1552 N 134.374 0.215367 6.13522 0
M  V30 1553 C 135.745 0.409454 6.18646 0
M  V30 1554 C 137.8 -0.203639 4.97483 0
M  V30 1555 C 136.503 1.1821 7.0952 0
M  V30 1556 C 138.529 0.555622 5.88784 0
M  V30 1557 C 137.891 1.24091 6.93384 0
M  V30 1558 H 133.99 -0.310931 0.717528 0
M  V30 1559 H 136.574 -0.174821 1.93914 0
M  V30 1560 H 134.745 -2.45703 3.00806 0
M  V30 1561 H 136.477 -2.41006 3.25112 0
M  V30 1562 H 133.232 -0.945126 4.64074 0
M  V30 1563 H 133.656 0.622562 6.74131 0
M  V30 1564 H 138.298 -0.719099 4.1664 0
M  V30 1565 H 136.016 1.70897 7.89823 0
M  V30 1566 H 139.602 0.621854 5.78467 0
M  V30 1567 H 138.482 1.81901 7.62812 0
M  V30 1568 N 135.985 -1.50799 -0.457987 0
M  V30 1569 C 137.396 -1.55152 -1.0385 0
M  V30 1570 C 137.747 -0.362719 -1.92818 0
M  V30 1571 O 136.872 0.522915 -2.09987 0
M  V30 1572 C 137.467 -2.81173 -1.89017 0
M  V30 1573 C 136.026 -2.88164 -2.42154 0
M  V30 1574 C 135.173 -2.49591 -1.20829 0
M  V30 1575 H 138.124 -1.56874 -0.240068 0
M  V30 1576 H 138.145 -2.63769 -2.74238 0
M  V30 1577 H 137.657 -3.67677 -1.24238 0
M  V30 1578 H 135.758 -2.06042 -3.10447 0
M  V30 1579 H 135.871 -3.91356 -2.76364 0
M  V30 1580 H 134.235 -2.02322 -1.54719 0
M  V30 1581 H 135.018 -3.38418 -0.576927 0
M  V30 1582 N 137.463 0.71206 -1.40597 0
M  V30 1583 C 138.711 1.46907 -1.38791 0
M  V30 1584 C 139.032 1.94998 0.00780391 0
M  V30 1585 O 138.302 1.70587 0.963174 0
M  V30 1586 H 136.882 0.545043 -0.51082 0
M  V30 1587 H 139.544 0.843882 -1.75683 0
M  V30 1588 H 138.64 2.34021 -2.06496 0
M  V30 1589 N 138.941 1.26152 0.944643 0
M  V30 1590 C 139.873 1.03199 2.04652 0
M  V30 1591 C 140.886 -0.00642356 1.62799 0
M  V30 1592 O 142.075 0.233263 1.76969 0
M  V30 1593 C 139.175 0.540111 3.34568 0
M  V30 1594 C 138.348 1.64697 4.05208 0
M  V30 1595 C 137.407 1.15374 5.13396 0
M  V30 1596 O 136.433 1.85013 5.38293 0
M  V30 1597 N 137.635 0.00031529 5.805 0
M  V30 1598 H 140.4 1.9808 2.2491 0
M  V30 1599 H 137.961 1.17491 1.11389 0
M  V30 1600 H 139.953 0.194401 4.04233 0
M  V30 1601 H 138.523 -0.315021 3.11009 0
M  V30 1602 H 137.743 2.16379 3.29506 0
M  V30 1603 H 139.031 2.3903 4.49157 0
M  V30 1604 H 138.429 -0.581336 5.62705 0
M  V30 1605 H 136.986 -0.286346 6.51171 0
M  V30 1606 N 140.419 -1.14872 1.07899 0
M  V30 1607 C 141.649 -1.89386 0.825631 0
M  V30 1608 C 142.057 -1.78565 -0.625406 0
M  V30 1609 O 141.4 -1.13918 -1.44113 0
M  V30 1610 C 141.462 -3.40206 1.16191 0
M  V30 1611 C 141.126 -3.74812 2.61467 0
M  V30 1612 C 142.123 -3.75367 3.59716 0
M  V30 1613 C 139.808 -4.0495 2.97189 0
M  V30 1614 C 141.802 -4.05574 4.9172 0
M  V30 1615 C 139.489 -4.34821 4.29388 0
M  V30 1616 C 140.487 -4.35116 5.26463 0
M  V30 1617 O 140.175 -4.64267 6.56286 0
M  V30 1618 H 139.907 -0.606894 0.297751 0
M  V30 1619 H 142.461 -1.46438 1.44031 0
M  V30 1620 H 140.691 -3.8358 0.490214 0
M  V30 1621 H 142.38 -3.96018 0.890193 0
M  V30 1622 H 143.146 -3.52176 3.33462 0
M  V30 1623 H 139.025 -4.03876 2.22273 0
M  V30 1624 H 142.569 -4.05719 5.67484 0
M  V30 1625 H 138.466 -4.5748 4.55392 0
M  V30 1626 H 139.234 -4.82007 6.61522 0
M  V30 1627 N 141.898 -0.863906 -1.31812 0
M  V30 1628 C 142.83 -0.272485 -2.27575 0
M  V30 1629 C 143.843 0.56104 -1.52827 0
M  V30 1630 O 145.032 0.384021 -1.7432 0
M  V30 1631 C 142.132 0.63283 -3.32939 0
M  V30 1632 C 141.305 -0.166902 -4.37081 0
M  V30 1633 C 140.364 0.665608 -5.21973 0
M  V30 1634 O 139.39 0.0958091 -5.69119 0
M  V30 1635 N 140.592 1.9787 -5.45736 0
M  V30 1636 H 143.357 -1.0954 -2.78964 0
M  V30 1637 H 140.918 -0.724791 -1.4477 0
M  V30 1638 H 142.91 1.19532 -3.86645 0
M  V30 1639 H 141.48 1.35642 -2.81638 0
M  V30 1640 H 140.7 -0.910838 -3.83533 0
M  V30 1641 H 141.988 -0.715874 -5.03739 0
M  V30 1642 H 141.386 2.46484 -5.09178 0
M  V30 1643 H 139.943 2.48911 -6.024 0
M  V30 1644 N 143.376 1.44774 -0.622745 0
M  V30 1645 C 144.623 2.02121 -0.1239 0
M  V30 1646 C 144.951 1.48915 1.25118 0
M  V30 1647 O 144.206 0.660045 1.84233 0
M  V30 1648 C 144.505 3.57364 -0.0508323 0
M  V30 1649 C 144.171 4.29787 -1.36358 0
M  V30 1650 C 142.833 4.4929 -1.72314 0
M  V30 1651 C 145.185 4.71062 -2.23048 0
M  V30 1652 C 142.513 5.07325 -2.94682 0
M  V30 1653 C 144.865 5.30452 -3.44679 0
M  V30 1654 C 143.529 5.48175 -3.80868 0
M  V30 1655 H 142.799 0.739612 -0.0453381 0
M  V30 1656 H 145.446 1.73648 -0.807389 0
M  V30 1657 H 143.751 3.85202 0.715991 0
M  V30 1658 H 145.448 3.99456 0.351533 0
M  V30 1659 H 142.038 4.14932 -1.07375 0
M  V30 1660 H 146.222 4.55715 -1.96565 0
M  V30 1661 H 141.478 5.19235 -3.22809 0
M  V30 1662 H 145.652 5.61385 -4.12092 0
M  V30 1663 H 143.279 5.92912 -4.75773 0
M  V30 1664 N 144.854 0.36279 1.53368 0
M  V30 1665 C 146.079 -0.231226 2.06107 0
M  V30 1666 C 146.504 -1.419 1.23474 0
M  V30 1667 O 145.862 -1.79524 0.253128 0
M  V30 1668 C 145.91 -0.605523 3.5548 0
M  V30 1669 O 145.014 -1.70312 3.7559 0
M  V30 1670 H 144.355 -0.034327 0.663112 0
M  V30 1671 H 146.885 0.522584 1.97814 0
M  V30 1672 H 146.895 -0.877314 3.98456 0
M  V30 1673 H 145.57 0.263004 4.15068 0
M  V30 1674 H 144.147 -1.4271 3.44512 0
M  V30 1675 N 146.332 -1.57332 0.0918853 0
M  V30 1676 C 147.242 -2.17368 -0.882505 0
M  V30 1677 C 148.258 -1.14226 -1.31257 0
M  V30 1678 O 149.434 -1.46582 -1.38115 0
M  V30 1679 C 146.499 -2.73962 -2.12476 0
M  V30 1680 C 145.56 -3.92048 -1.7492 0
M  V30 1681 C 144.793 -4.45933 -2.93223 0
M  V30 1682 O 145.016 -3.98764 -4.07852 0
M  V30 1683 O 143.95 -5.36999 -2.71875 0
M  V30 1684 H 147.776 -3.01031 -0.40172 0
M  V30 1685 H 145.361 -1.48813 -0.132291 0
M  V30 1686 H 147.243 -3.10147 -2.85283 0
M  V30 1687 H 145.918 -1.93347 -2.59613 0
M  V30 1688 H 144.825 -3.6068 -0.993025 0
M  V30 1689 H 146.158 -4.74017 -1.32548 0
M  V30 1690 N 147.81 0.181792 -1.56548 0
M  V30 1691 C 149.087 0.926765 -1.72251 0
M  V30 1692 C 149.467 2.00831 -0.650386 0
M  V30 1693 O 148.815 2.26008 0.336521 0
M  V30 1694 C 149.025 1.50106 -3.1507 0
M  V30 1695 C 150.373 1.97805 -3.75711 0
M  V30 1696 O 151.397 1.59922 -3.18282 0
M  V30 1697 O 150.256 2.67555 -4.76525 0
M  V30 1698 H 147.35 0.435506 -0.703039 0
M  V30 1699 H 149.896 0.170443 -1.68842 0
M  V30 1700 H 148.668 0.72212 -3.84579 0
M  V30 1701 H 148.291 2.32186 -3.22763 0
M  V30 1702 N 149.288 1.51039 0.449983 0
M  V30 1703 C 150.238 1.67824 1.54335 0
M  V30 1704 C 151.222 0.5324 1.51836 0
M  V30 1705 O 152.414 0.787762 1.58503 0
M  V30 1706 C 149.543 1.7951 2.92628 0
M  V30 1707 C 148.629 2.99838 2.9993 0
M  V30 1708 N 149.02 4.23207 2.77001 0
M  V30 1709 C 147.318 2.98832 3.31082 0
M  V30 1710 C 148.019 5.04361 2.89818 0
M  V30 1711 N 146.995 4.38746 3.2094 0
M  V30 1712 H 150.797 2.60884 1.35339 0
M  V30 1713 H 148.311 1.48513 0.657085 0
M  V30 1714 H 150.308 1.89642 3.7127 0
M  V30 1715 H 148.968 0.876227 3.12654 0
M  V30 1716 H 149.979 4.5236 2.52172 0
M  V30 1717 H 146.656 2.16527 3.56963 0
M  V30 1718 H 148.046 6.12528 2.76151 0
M  V30 1719 N 150.766 -0.704594 1.40972 0
M  V30 1720 C 152.043 -1.45847 1.30338 0
M  V30 1721 C 152.423 -2.10973 -0.0732344 0
M  V30 1722 O 151.771 -2.00997 -1.08685 0
M  V30 1723 C 151.981 -2.48525 2.45023 0
M  V30 1724 C 153.329 -3.1404 2.8577 0
M  V30 1725 O 154.353 -2.58848 2.44696 0
M  V30 1726 O 153.212 -4.13981 3.56766 0
M  V30 1727 H 150.306 -0.649092 0.512454 0
M  V30 1728 H 152.852 -0.735836 1.52917 0
M  V30 1729 H 151.624 -1.98994 3.36923 0
M  V30 1730 H 151.247 -3.2831 2.24272 0
M  V30 1731 N 152.244 -1.26651 -0.937939 0
M  V30 1732 C 153.49 -1.12553 -1.687 0
M  V30 1733 C 153.823 0.329782 -1.91379 0
M  V30 1734 O 153.098 1.24202 -1.4968 0
M  V30 1735 C 153.381 -1.89862 -3.05981 0
M  V30 1736 C 153.234 -3.43318 -2.90607 0
M  V30 1737 C 154.553 -1.69499 -4.0615 0
M  V30 1738 H 151.672 -0.410257 -0.612257 0
M  V30 1739 H 154.314 -1.55685 -1.08913 0
M  V30 1740 H 152.464 -1.53204 -3.57017 0
M  V30 1741 H 154.136 -3.89747 -2.46769 0
M  V30 1742 H 152.379 -3.70179 -2.26164 0
M  V30 1743 H 153.05 -3.92642 -3.8799 0
M  V30 1744 H 155.526 -2.01442 -3.64088 0
M  V30 1745 H 154.402 -2.26002 -5.00214 0
M  V30 1746 H 154.663 -0.640365 -4.37438 0
M  V30 1747 N 153.722 1.14298 -1.08507 0
M  V30 1748 C 154.632 2.23027 -0.727753 0
M  V30 1749 C 155.648 1.71952 0.26619 0
M  V30 1750 O 156.824 2.011 0.109882 0
M  V30 1751 C 153.889 3.46403 -0.143541 0
M  V30 1752 C 152.95 4.12413 -1.19223 0
M  V30 1753 C 152.183 5.29899 -0.635798 0
M  V30 1754 O 152.406 5.67796 0.544393 0
M  V30 1755 O 151.34 5.85717 -1.38634 0
M  V30 1756 H 155.166 2.55945 -1.63481 0
M  V30 1757 H 152.751 1.22248 -0.858817 0
M  V30 1758 H 154.633 4.21018 0.179404 0
M  V30 1759 H 153.308 3.15206 0.736659 0
M  V30 1760 H 152.215 3.39667 -1.56772 0
M  V30 1761 H 153.548 4.47718 -2.04474 0
M  V30 1762 N 155.201 0.870884 1.31352 0
M  V30 1763 C 156.431 0.496049 2.00557 0
M  V30 1764 C 156.839 -0.916241 1.65534 0
M  V30 1765 O 156.182 -1.61188 0.881134 0
M  V30 1766 C 156.244 0.574418 3.54881 0
M  V30 1767 C 155.908 1.94849 4.1338 0
M  V30 1768 C 156.905 2.91611 4.30417 0
M  V30 1769 C 154.59 2.25005 4.49086 0
M  V30 1770 C 156.584 4.16672 4.82352 0
M  V30 1771 C 154.271 3.50315 5.00722 0
M  V30 1772 C 155.269 4.45964 5.17306 0
M  V30 1773 O 154.957 5.69052 5.67833 0
M  V30 1774 H 154.689 0.191664 0.64826 0
M  V30 1775 H 157.243 1.17409 1.68536 0
M  V30 1776 H 155.473 -0.160549 3.86367 0
M  V30 1777 H 157.162 0.212879 4.05341 0
M  V30 1778 H 157.928 2.69622 4.03149 0
M  V30 1779 H 153.807 1.51332 4.35453 0
M  V30 1780 H 157.351 4.91336 4.95211 0
M  V30 1781 H 153.248 3.72147 5.27424 0
M  V30 1782 H 154.016 5.71236 5.86201 0
M  V30 1783 N 156.679 -1.44442 0.630414 0
M  V30 1784 C 157.926 -2.02052 0.134617 0
M  V30 1785 C 158.254 -1.49576 -1.24327 0
M  V30 1786 O 157.509 -0.669806 -1.83881 0
M  V30 1787 C 157.808 -3.57332 0.0697835 0
M  V30 1788 C 157.474 -4.29058 1.38635 0
M  V30 1789 C 156.136 -4.4837 1.74694 0
M  V30 1790 C 158.488 -4.69872 2.25543 0
M  V30 1791 C 155.816 -5.05756 2.97369 0
M  V30 1792 C 158.168 -5.28616 3.47487 0
M  V30 1793 C 156.832 -5.46147 3.8377 0
M  V30 1794 H 156.102 -0.739361 0.0492598 0
M  V30 1795 H 158.749 -1.73217 0.816586 0
M  V30 1796 H 157.054 -3.85577 -0.695553 0
M  V30 1797 H 158.751 -3.99637 -0.330344 0
M  V30 1798 H 155.341 -4.14357 1.09574 0
M  V30 1799 H 159.525 -4.54666 1.98979 0
M  V30 1800 H 154.781 -5.17515 3.25558 0
M  V30 1801 H 158.955 -5.59192 4.15063 0
M  V30 1802 H 156.582 -5.9038 4.7891 0
M  V30 1803 N 158.157 -0.370918 -1.53173 0
M  V30 1804 C 159.087 0.464847 -2.28826 0
M  V30 1805 C 160.068 1.07936 -1.31468 0
M  V30 1806 O 161.253 1.0956 -1.60344 0
M  V30 1807 C 158.383 1.60196 -3.08147 0
M  V30 1808 C 157.337 1.11443 -4.13237 0
M  V30 1809 C 156.663 2.3422 -4.80672 0
M  V30 1810 C 157.963 0.195384 -5.21934 0
M  V30 1811 H 159.657 -0.166329 -2.98938 0
M  V30 1812 H 157.203 -0.0814359 -1.4377 0
M  V30 1813 H 159.156 2.19332 -3.59822 0
M  V30 1814 H 157.88 2.26045 -2.35735 0
M  V30 1815 H 156.539 0.545727 -3.62515 0
M  V30 1816 H 156.187 2.98537 -4.04827 0
M  V30 1817 H 155.887 2.02269 -5.51689 0
M  V30 1818 H 157.411 2.94032 -5.35143 0
M  V30 1819 H 158.825 0.694375 -5.69079 0
M  V30 1820 H 157.222 -0.0335027 -6.00091 0
M  V30 1821 H 158.292 -0.760961 -4.78892 0
M  V30 1822 N 159.635 1.57281 -0.100228 0
M  V30 1823 C 161.051 1.57527 0.256416 0
M  V30 1824 C 161.251 1.11173 1.68056 0
M  V30 1825 O 160.307 0.79053 2.39806 0
M  V30 1826 C 161.62 3.00673 0.0401747 0
M  V30 1827 C 163.168 3.12815 0.107528 0
M  V30 1828 C 163.643 4.57929 -0.0807834 0
M  V30 1829 N 165.134 4.63193 -0.0261207 0
M  V30 1830 C 165.869 5.73212 -0.146999 0
M  V30 1831 N 165.365 6.92047 -0.322999 0
M  V30 1832 N 167.158 5.62031 -0.0879044 0
M  V30 1833 H 159.309 1.85718 -1.03065 0
M  V30 1834 H 161.572 0.857446 -0.404339 0
M  V30 1835 H 161.278 3.38804 -0.943649 0
M  V30 1836 H 161.152 3.69042 0.780262 0
M  V30 1837 H 163.539 2.74554 1.08186 0
M  V30 1838 H 163.62 2.47028 -0.664134 0
M  V30 1839 H 163.264 4.96886 -1.05201 0
M  V30 1840 H 163.194 5.21783 0.710635 0
M  V30 1841 H 165.685 3.77748 0.107161 0
M  V30 1842 H 165.998 7.7173 -0.406608 0
M  V30 1843 H 164.343 6.94074 -0.358733 0
M  V30 1844 H 167.534 4.68075 0.048498 0
M  V30 1845 H 167.707 6.47734 -0.185557 0
M  V30 1846 N 161.113 -0.173488 1.56642 0
M  V30 1847 C 162.043 -1.2171 1.99271 0
M  V30 1848 C 163.024 -1.46289 0.867959 0
M  V30 1849 O 164.209 -1.5766 1.13388 0
M  V30 1850 C 161.339 -2.55651 2.35074 0
M  V30 1851 C 160.293 -2.45645 3.50489 0
M  V30 1852 C 159.619 -3.84056 3.72028 0
M  V30 1853 C 160.919 -1.96302 4.84007 0
M  V30 1854 H 162.613 -0.86275 2.867 0
M  V30 1855 H 160.159 -0.413571 1.37933 0
M  V30 1856 H 162.112 -3.2886 2.63494 0
M  V30 1857 H 160.836 -2.92869 1.44552 0
M  V30 1858 H 159.495 -1.7489 3.22194 0
M  V30 1859 H 159.143 -4.18664 2.788 0
M  V30 1860 H 158.843 -3.7823 4.49684 0
M  V30 1861 H 160.367 -4.58854 4.02846 0
M  V30 1862 H 161.781 -2.59284 5.11317 0
M  V30 1863 H 160.178 -2.01429 5.65284 0
M  V30 1864 H 161.248 -0.917226 4.76146 0
M  V30 1865 N 162.591 -1.51276 -0.441967 0
M  V30 1866 C 163.554 -1.7167 -1.51862 0
M  V30 1867 C 164.554 -0.586793 -1.49711 0
M  V30 1868 O 165.744 -0.854276 -1.51815 0
M  V30 1869 C 162.876 -1.76889 -2.91416 0
M  V30 1870 H 164.069 -2.67754 -1.35084 0
M  V30 1871 H 161.622 -1.41196 -0.670333 0
M  V30 1872 H 162.357 -0.826026 -3.13604 0
M  V30 1873 H 162.142 -2.59001 -2.94382 0
M  V30 1874 H 163.632 -1.94522 -3.69528 0
M  V30 1875 N 164.069 0.697108 -1.41344 0
M  V30 1876 C 165.019 1.80313 -1.39539 0
M  V30 1877 C 166.003 1.58618 -0.270001 0
M  V30 1878 O 167.195 1.69477 -0.510551 0
M  V30 1879 C 164.324 3.18606 -1.27848 0
M  V30 1880 C 163.41 3.46001 -2.45244 0
M  V30 1881 N 163.801 3.44103 -3.70711 0
M  V30 1882 C 162.099 3.76542 -2.39023 0
M  V30 1883 C 162.8 3.7036 -4.48563 0
M  V30 1884 N 161.776 3.90027 -3.78655 0
M  V30 1885 H 165.578 1.77207 -2.34468 0
M  V30 1886 H 163.092 0.897031 -1.35378 0
M  V30 1887 H 165.089 3.97833 -1.24637 0
M  V30 1888 H 163.749 3.22925 -0.339032 0
M  V30 1889 H 164.76 3.2452 -4.03618 0
M  V30 1890 H 161.437 3.88241 -1.53542 0
M  V30 1891 H 162.827 3.75042 -5.57488 0
M  V30 1892 N 165.547 1.27147 0.931209 0
M  V30 1893 C 166.457 1.11372 2.06478 0
M  V30 1894 C 167.473 0.044645 1.73943 0
M  V30 1895 O 168.649 0.250417 1.99837 0
M  V30 1896 C 165.714 0.758838 3.38294 0
M  V30 1897 C 164.775 1.90841 3.84549 0
M  V30 1898 C 164.008 1.57036 5.10074 0
M  V30 1899 O 164.231 0.476645 5.68405 0
M  V30 1900 O 163.165 2.40839 5.51616 0
M  V30 1901 H 166.991 2.06493 2.22698 0
M  V30 1902 H 164.576 1.06301 1.04978 0
M  V30 1903 H 166.458 0.574098 4.17471 0
M  V30 1904 H 165.133 -0.162879 3.2329 0
M  V30 1905 H 164.04 2.14819 3.06274 0
M  V30 1906 H 165.373 2.81021 4.04089 0
M  V30 1907 N 167.025 -1.13721 1.09112 0
M  V30 1908 C 167.955 -2.21148 0.749385 0
M  V30 1909 C 168.936 -1.6792 -0.271475 0
M  V30 1910 O 170.121 -1.93693 -0.140251 0
M  V30 1911 C 167.251 -3.46905 0.165659 0
M  V30 1912 C 166.205 -4.13203 1.11567 0
M  V30 1913 C 165.531 -5.33248 0.393809 0
M  V30 1914 C 166.831 -4.60912 2.45678 0
M  V30 1915 H 168.525 -2.4999 1.64758 0
M  V30 1916 H 166.071 -1.20156 0.793626 0
M  V30 1917 H 168.024 -4.21313 -0.085466 0
M  V30 1918 H 166.748 -3.17449 -0.767714 0
M  V30 1919 H 165.407 -3.40758 1.35202 0
M  V30 1920 H 165.055 -5.00054 -0.543599 0
M  V30 1921 H 164.755 -5.78552 1.02721 0
M  V30 1922 H 166.279 -6.10413 0.150908 0
M  V30 1923 H 167.693 -5.26759 2.26269 0
M  V30 1924 H 166.09 -5.16944 3.04776 0
M  V30 1925 H 167.16 -3.75603 3.06677 0
M  V30 1926 N 168.503 -0.877838 -1.30888 0
M  V30 1927 C 169.751 -0.491723 -1.96027 0
M  V30 1928 C 170.072 0.960827 -1.69685 0
M  V30 1929 O 169.342 1.67462 -1.01654 0
M  V30 1930 H 167.922 -0.17885 -0.725273 0
M  V30 1931 H 170.584 -1.11935 -1.59551 0
M  V30 1932 H 169.68 -0.656016 -3.05128 0
M  V30 1933 N 169.982 1.44106 -0.638065 0
M  V30 1934 C 170.912 2.33448 0.0494287 0
M  V30 1935 C 171.893 1.48606 0.827672 0
M  V30 1936 O 173.078 1.77308 0.792173 0
M  V30 1937 C 170.208 3.31771 1.02691 0
M  V30 1938 C 169.162 4.26485 0.359823 0
M  V30 1939 C 168.488 5.14729 1.44769 0
M  V30 1940 C 169.788 5.17056 -0.738296 0
M  V30 1941 H 171.482 2.91183 -0.696636 0
M  V30 1942 H 169.028 1.40014 -0.336456 0
M  V30 1943 H 170.981 3.93161 1.51666 0
M  V30 1944 H 169.705 2.7226 1.80395 0
M  V30 1945 H 168.364 3.66437 -0.10934 0
M  V30 1946 H 168.012 4.51566 2.21578 0
M  V30 1947 H 167.712 5.78913 1.00668 0
M  V30 1948 H 169.236 5.78991 1.93911 0
M  V30 1949 H 170.65 5.72342 -0.331354 0
M  V30 1950 H 169.047 5.89879 -1.10286 0
M  V30 1951 H 170.117 4.57652 -1.60258 0
M  V30 1952 N 171.46 0.379036 1.52974 0
M  V30 1953 C 172.39 -0.452706 2.29069 0
M  V30 1954 C 173.371 -1.07237 1.32039 0
M  V30 1955 O 174.556 -1.08708 1.60923 0
M  V30 1956 C 171.686 -1.5856 3.08992 0
M  V30 1957 C 170.64 -1.0925 4.13822 0
M  V30 1958 C 169.966 -2.31668 4.81907 0
M  V30 1959 C 171.266 -0.167702 5.22031 0
M  V30 1960 H 172.96 0.182181 2.98845 0
M  V30 1961 H 170.506 0.0890592 1.43724 0
M  V30 1962 H 172.459 -2.1742 3.6098 0
M  V30 1963 H 171.183 -2.24792 2.36931 0
M  V30 1964 H 169.842 -0.526494 3.628 0
M  V30 1965 H 169.49 -2.96386 4.06404 0
M  V30 1966 H 169.19 -1.9934 5.52754 0
M  V30 1967 H 170.714 -2.91189 5.36695 0
M  V30 1968 H 172.128 -0.664186 5.6944 0
M  V30 1969 H 170.525 0.0653265 6.00064 0
M  V30 1970 H 171.595 0.786347 4.78482 0
M  V30 1971 N 172.938 -1.57226 0.108567 0
M  V30 1972 C 174.184 -1.95121 -0.552761 0
M  V30 1973 C 174.517 -0.991345 -1.66991 0
M  V30 1974 O 173.792 -0.0267211 -1.94482 0
M  V30 1975 C 174.075 -3.43039 -1.09528 0
M  V30 1976 C 173.928 -4.49797 0.0177332 0
M  V30 1977 C 175.247 -3.92567 -1.98945 0
M  V30 1978 H 172.366 -0.709496 -0.199461 0
M  V30 1979 H 175.008 -1.89126 0.182011 0
M  V30 1980 H 173.158 -3.48279 -1.72146 0
M  V30 1981 H 174.83 -4.56661 0.652584 0
M  V30 1982 H 173.073 -4.284 0.682309 0
M  V30 1983 H 173.744 -5.50528 -0.402919 0
M  V30 1984 H 176.22 -3.89565 -1.46214 0
M  V30 1985 H 175.096 -4.96605 -2.33827 0
M  V30 1986 H 175.357 -3.32648 -2.91201 0
M  V30 1987 N 174.416 0.165178 -1.56732 0
M  V30 1988 C 175.665 0.879143 -1.81532 0
M  V30 1989 C 175.978 1.83144 -0.686842 0
M  V30 1990 O 177.184 2.58823 -0.819944 0
M  V30 1991 C 175.64 1.61388 -3.21686 0
M  V30 1992 C 175.248 0.704904 -4.4242 0
M  V30 1993 C 176.992 2.3157 -3.55774 0
M  V30 1994 C 174.899 1.44022 -5.73595 0
M  V30 1995 H 173.829 0.332033 -0.676957 0
M  V30 1996 H 176.48 0.132008 -1.83025 0
M  V30 1997 H 174.862 2.40599 -3.14529 0
M  V30 1998 H 176.036 -0.0506815 -4.60772 0
M  V30 1999 H 174.351 0.112419 -4.16248 0
M  V30 2000 H 176.948 2.8719 -4.51028 0
M  V30 2001 H 177.291 3.07201 -2.8095 0
M  V30 2002 H 177.824 1.59297 -3.64513 0
M  V30 2003 H 174.563 0.72612 -6.51466 0
M  V30 2004 H 174.083 2.16898 -5.5921 0
M  V30 2005 H 175.762 1.98606 -6.15764 0
M  V30 2006 N 175.894 1.51508 0.433938 0
M  V30 2007 C 176.824 1.76016 1.53429 0
M  V30 2008 C 177.805 0.610112 1.58782 0
M  V30 2009 O 178.99 0.853177 1.74455 0
M  V30 2010 C 176.12 1.88831 2.9148 0
M  V30 2011 C 175.074 3.04288 3.00987 0
M  V30 2012 C 174.4 3.0229 4.4105 0
M  V30 2013 C 175.7 4.44193 2.74754 0
M  V30 2014 H 177.394 2.68152 1.33171 0
M  V30 2015 H 174.94 1.29035 0.639214 0
M  V30 2016 H 176.893 2.04559 3.6842 0
M  V30 2017 H 175.617 0.933455 3.12976 0
M  V30 2018 H 174.276 2.8827 2.26486 0
M  V30 2019 H 173.924 2.04576 4.59519 0
M  V30 2020 H 173.624 3.79822 4.4834 0
M  V30 2021 H 175.148 3.20116 5.1996 0
M  V30 2022 H 176.562 4.60544 3.41426 0
M  V30 2023 H 174.959 5.23457 2.9345 0
M  V30 2024 H 176.029 4.53996 1.70339 0
M  V30 2025 N 177.372 -0.689602 1.41712 0
M  V30 2026 C 178.788 -1.00093 1.24312 0
M  V30 2027 C 178.988 -2.01036 0.136729 0
M  V30 2028 O 178.044 -2.47562 -0.496918 0
M  V30 2029 C 179.357 -1.51985 2.59463 0
M  V30 2030 C 180.905 -1.63838 2.66695 0
M  V30 2031 C 181.38 -2.1913 4.02177 0
M  V30 2032 N 182.871 -2.26483 4.04054 0
M  V30 2033 C 183.606 -2.70306 5.0569 0
M  V30 2034 N 183.102 -3.13691 6.17713 0
M  V30 2035 N 184.895 -2.69923 4.9305 0
M  V30 2036 H 177.046 -0.0210029 2.1239 0
M  V30 2037 H 179.309 -0.0718733 0.945272 0
M  V30 2038 H 179.015 -0.85269 3.41207 0
M  V30 2039 H 178.889 -2.50103 2.82362 0
M  V30 2040 H 181.276 -2.29664 1.85306 0
M  V30 2041 H 181.357 -0.642492 2.476 0
M  V30 2042 H 181.001 -1.53918 4.84016 0
M  V30 2043 H 180.931 -3.19482 4.18615 0
M  V30 2044 H 183.422 -1.95874 3.23174 0
M  V30 2045 H 183.735 -3.45773 6.9113 0
M  V30 2046 H 182.08 -3.11585 6.21241 0
M  V30 2047 H 185.271 -2.35382 4.04614 0
M  V30 2048 H 185.444 -3.03758 5.72394 0
M  V30 2049 N 178.85 -1.27639 -0.924453 0
M  V30 2050 C 180.261 -1.12834 -1.48746 0
M  V30 2051 C 180.612 0.285505 -1.94112 0
M  V30 2052 O 179.737 1.17874 -1.81479 0
M  V30 2053 C 180.332 -2.04217 -2.70334 0
M  V30 2054 C 178.891 -1.93509 -3.22848 0
M  V30 2055 C 178.038 -1.96583 -1.95577 0
M  V30 2056 H 180.989 -1.40484 -0.738233 0
M  V30 2057 H 181.01 -1.59989 -3.4523 0
M  V30 2058 H 180.522 -3.07111 -2.37285 0
M  V30 2059 H 178.623 -0.936131 -3.60649 0
M  V30 2060 H 178.736 -2.79917 -3.88823 0
M  V30 2061 H 177.1 -1.4085 -2.12211 0
M  V30 2062 H 177.883 -3.01137 -1.64837 0
M  V30 2063 N 180.328 1.1314 -1.09713 0
M  V30 2064 C 181.576 1.84119 -0.833338 0
M  V30 2065 C 181.897 1.84097 0.642904 0
M  V30 2066 O 181.167 1.29881 1.46655 0
M  V30 2067 H 179.747 0.681766 -0.305293 0
M  V30 2068 H 182.409 1.37038 -1.38588 0
M  V30 2069 H 181.505 2.88543 -1.18951 0
M  V30 2070 N 181.806 0.884767 1.30421 0
M  V30 2071 C 183.217 0.553656 1.78302 0
M  V30 2072 C 183.568 -0.930153 1.7275 0
M  V30 2073 O 182.693 -1.72681 1.30423 0
M  V30 2074 C 183.288 0.998234 3.2376 0
M  V30 2075 C 181.847 0.71854 3.69478 0
M  V30 2076 C 180.994 1.18132 2.50879 0
M  V30 2077 H 183.945 1.06901 1.17294 0
M  V30 2078 H 183.966 0.327118 3.79091 0
M  V30 2079 H 183.478 2.0782 3.27769 0
M  V30 2080 H 181.579 -0.349444 3.70958 0
M  V30 2081 H 181.692 1.30595 4.60958 0
M  V30 2082 H 180.056 0.600669 2.47516 0
M  V30 2083 H 180.839 2.26902 2.57624 0
M  V30 2084 N 183.284 -1.43765 0.645699 0
M  V30 2085 C 184.514 -2.05953 0.163318 0
M  V30 2086 C 184.922 -1.48432 -1.17322 0
M  V30 2087 O 184.265 -0.607295 -1.73371 0
M  V30 2088 C 184.327 -3.59499 -0.0103065 0
M  V30 2089 C 183.991 -4.39563 1.25035 0
M  V30 2090 C 184.988 -4.72108 2.17739 0
M  V30 2091 C 182.673 -4.79697 1.48983 0
M  V30 2092 C 184.667 -5.43688 3.3269 0
M  V30 2093 C 182.354 -5.51023 2.64229 0
M  V30 2094 C 183.352 -5.8294 3.55908 0
M  V30 2095 O 183.04 -6.5281 4.69142 0
M  V30 2096 H 182.772 -0.670798 0.0836986 0
M  V30 2097 H 185.326 -1.85384 0.884407 0
M  V30 2098 H 183.556 -3.78613 -0.78669 0
M  V30 2099 H 185.245 -4.03408 -0.449087 0
M  V30 2100 H 186.011 -4.41627 2.00476 0
M  V30 2101 H 181.89 -4.54266 0.785078 0
M  V30 2102 H 185.434 -5.68517 4.04269 0
M  V30 2103 H 181.331 -5.8092 2.81429 0
M  V30 2104 H 182.099 -6.71288 4.6831 0
M  V30 2105 N 184.763 -0.387143 -1.52771 0
M  V30 2106 C 186.012 0.19697 -2.00736 0
M  V30 2107 C 186.325 1.48082 -1.27793 0
M  V30 2108 O 187.531 2.14485 -1.66458 0
M  V30 2109 C 185.987 0.401568 -3.57653 0
M  V30 2110 C 185.595 -0.868907 -4.39493 0
M  V30 2111 C 187.339 0.942164 -4.13912 0
M  V30 2112 C 185.246 -0.632705 -5.88006 0
M  V30 2113 H 184.176 0.0773827 -0.750019 0
M  V30 2114 H 186.827 -0.50921 -1.76293 0
M  V30 2115 H 185.209 1.16954 -3.78335 0
M  V30 2116 H 186.383 -1.64133 -4.30577 0
M  V30 2117 H 184.698 -1.33429 -3.94443 0
M  V30 2118 H 187.295 1.13455 -5.22525 0
M  V30 2119 H 187.638 1.9106 -3.69867 0
M  V30 2120 H 188.171 0.233814 -3.97112 0
M  V30 2121 H 184.91 -1.57208 -6.36369 0
M  V30 2122 H 184.43 0.100825 -5.99715 0
M  V30 2123 H 186.109 -0.26642 -6.46451 0
M  V30 2124 N 186.241 1.57166 -0.116904 0
M  V30 2125 C 187.481 1.97008 0.544715 0
M  V30 2126 C 187.845 0.998713 1.63981 0
M  V30 2127 O 189.046 1.28644 2.36018 0
M  V30 2128 C 187.317 3.41145 1.06559 0
M  V30 2129 S 188.876 4.02998 1.73603 0
M  V30 2130 H 185.694 0.688587 0.177112 0
M  V30 2131 H 188.296 1.94459 -0.201487 0
M  V30 2132 H 187 4.09592 0.257374 0
M  V30 2133 H 186.531 3.4734 1.84712 0
M  V30 2134 H 188.546 3.93585 3.02168 0
M  V30 2135 N 187.719 -0.156864 1.56817 0
M  V30 2136 C 188.682 -1.17781 1.96622 0
M  V30 2137 C 189.682 -1.36401 0.851555 0
M  V30 2138 O 190.872 -1.33561 1.11836 0
M  V30 2139 C 188.004 -2.54008 2.27361 0
M  V30 2140 H 189.197 -0.836564 2.87996 0
M  V30 2141 H 186.75 -0.39985 1.51099 0
M  V30 2142 H 187.485 -2.9312 1.38748 0
M  V30 2143 H 187.27 -2.41856 3.08623 0
M  V30 2144 H 188.76 -3.27558 2.59029 0
M  V30 2145 N 189.197 -1.51736 -0.425897 0
M  V30 2146 C 190.107 -1.76738 -1.54275 0
M  V30 2147 C 191.123 -0.65211 -1.61318 0
M  V30 2148 O 192.299 -0.935654 -1.78346 0
M  V30 2149 C 189.364 -1.89755 -2.90162 0
M  V30 2150 C 188.425 -3.13633 -2.93143 0
M  V30 2151 C 187.658 -3.2602 -4.22548 0
M  V30 2152 O 187.881 -2.44067 -5.15546 0
M  V30 2153 O 186.815 -4.19071 -4.32046 0
M  V30 2154 H 190.641 -2.71502 -1.36089 0
M  V30 2155 H 188.226 -1.36376 -0.610069 0
M  V30 2156 H 190.108 -2.00236 -3.70788 0
M  V30 2157 H 188.783 -0.981785 -3.08452 0
M  V30 2158 H 187.69 -3.08622 -2.11431 0
M  V30 2159 H 189.023 -4.04936 -2.798 0
M  V30 2160 N 190.675 0.682077 -1.42076 0
M  V30 2161 C 191.921 1.44283 -1.43366 0
M  V30 2162 C 192.276 1.92344 -0.0465775 0
M  V30 2163 O 191.569 1.67517 0.929973 0
M  V30 2164 C 191.763 2.66036 -2.38662 0
M  V30 2165 C 191.592 2.29889 -3.86499 0
M  V30 2166 C 190.362 2.19599 -4.55087 0
M  V30 2167 C 192.56 1.91999 -4.77117 0
M  V30 2168 N 190.542 1.76478 -5.87987 0
M  V30 2169 C 191.913 1.59741 -5.99068 0
M  V30 2170 C 193.968 1.78927 -4.64639 0
M  V30 2171 C 192.671 1.15723 -7.0993 0
M  V30 2172 C 194.697 1.36314 -5.75476 0
M  V30 2173 C 194.059 1.04975 -6.96534 0
M  V30 2174 H 190.158 0.524739 -0.579805 0
M  V30 2175 H 192.742 0.787834 -1.78048 0
M  V30 2176 H 190.913 3.29237 -2.06053 0
M  V30 2177 H 192.645 3.32588 -2.30581 0
M  V30 2178 H 189.4 2.38433 -4.09202 0
M  V30 2179 H 189.824 1.57362 -6.58458 0
M  V30 2180 H 194.466 2.01805 -3.7153 0
M  V30 2181 H 192.184 0.91591 -8.02893 0
M  V30 2182 H 195.77 1.26731 -5.6783 0
M  V30 2183 H 194.65 0.725017 -7.80841 0
M  V30 2184 N 192.153 1.28127 0.917671 0
M  V30 2185 C 193.063 1.13556 2.05286 0
M  V30 2186 C 194.079 0.0630914 1.73886 0
M  V30 2187 O 195.255 0.271598 1.9956 0
M  V30 2188 C 192.32 0.794676 3.3747 0
M  V30 2189 C 191.381 1.94909 3.82504 0
M  V30 2190 C 190.614 1.62437 5.0838 0
M  V30 2191 O 190.837 0.536905 5.67867 0
M  V30 2192 O 189.771 2.46677 5.4903 0
M  V30 2193 H 193.597 2.08844 2.20495 0
M  V30 2194 H 191.182 1.07409 1.03845 0
M  V30 2195 H 193.064 0.618344 4.16839 0
M  V30 2196 H 191.739 -0.128581 3.23445 0
M  V30 2197 H 190.646 2.18055 3.03978 0
M  V30 2198 H 191.979 2.85291 4.01086 0
M  V30 2199 N 193.631 -1.12557 1.10312 0
M  V30 2200 C 194.564 -2.1737 0.694674 0
M  V30 2201 C 195.542 -1.59745 -0.303373 0
M  V30 2202 O 196.726 -1.87408 -0.202578 0
M  V30 2203 C 193.853 -3.38691 0.0248052 0
M  V30 2204 C 192.899 -4.14943 0.986121 0
M  V30 2205 S 193.732 -4.73413 2.50281 0
M  V30 2206 C 194.888 -5.9807 1.84562 0
M  V30 2207 H 195.121 -2.5168 1.58255 0
M  V30 2208 H 192.654 -1.23998 0.919992 0
M  V30 2209 H 194.612 -4.08959 -0.355361 0
M  V30 2210 H 193.273 -3.02664 -0.839851 0
M  V30 2211 H 192.466 -5.01854 0.464651 0
M  V30 2212 H 192.068 -3.50377 1.30813 0
M  V30 2213 H 194.36 -6.67232 1.17507 0
M  V30 2214 H 195.303 -6.54841 2.69423 0
M  V30 2215 H 195.711 -5.49073 1.31069 0
M  V30 2216 N 195.109 -0.891671 -1.2995 0
M  V30 2217 C 196.357 -0.512486 -1.95494 0
M  V30 2218 C 196.678 0.942776 -1.70695 0
M  V30 2219 O 195.948 1.66374 -1.03424 0
M  V30 2220 H 194.528 -0.186533 -0.723336 0
M  V30 2221 H 197.19 -1.13621 -1.58355 0
M  V30 2222 H 196.286 -0.688342 -3.04415 0
M  V30 2223 N 196.587 1.43421 -0.653314 0
M  V30 2224 C 197.835 2.01414 -0.166415 0
M  V30 2225 C 198.156 1.51803 1.22397 0
M  V30 2226 O 197.426 0.730693 1.81763 0
M  V30 2227 H 196.006 0.744703 -0.0585319 0
M  V30 2228 H 198.668 1.75629 -0.845003 0
M  V30 2229 H 197.764 3.11734 -0.151111 0
M  V30 2230 N 198.065 0.39524 1.52563 0
M  V30 2231 C 198.995 -0.428384 2.29537 0
M  V30 2232 C 199.976 -1.05831 1.33169 0
M  V30 2233 O 201.161 -1.06995 1.62067 0
M  V30 2234 C 198.291 -1.55274 3.10656 0
M  V30 2235 C 197.245 -1.04855 4.14957 0
M  V30 2236 C 196.571 -2.26543 4.84337 0
M  V30 2237 C 197.871 -0.112324 5.22179 0
M  V30 2238 H 199.565 0.213867 2.98635 0
M  V30 2239 H 197.111 0.104298 1.43622 0
M  V30 2240 H 199.064 -2.1358 3.63265 0
M  V30 2241 H 197.788 -2.22266 2.39302 0
M  V30 2242 H 196.447 -0.487985 3.63338 0
M  V30 2243 H 196.095 -2.92059 4.09525 0
M  V30 2244 H 195.795 -1.93466 5.54837 0
M  V30 2245 H 197.319 -2.85481 5.39753 0
M  V30 2246 H 198.733 -0.603752 5.70112 0
M  V30 2247 H 197.13 0.128968 5.99961 0
M  V30 2248 H 198.2 0.837052 4.77621 0
M  V30 2249 N 199.544 -1.57102 0.125237 0
M  V30 2250 C 200.955 -1.82384 -0.399142 0
M  V30 2251 C 201.306 -1.04276 -1.66195 0
M  V30 2252 O 200.431 -0.281269 -2.14564 0
M  V30 2253 C 201.026 -3.30821 -0.730932 0
M  V30 2254 C 199.585 -3.56762 -1.19992 0
M  V30 2255 C 198.732 -2.7649 -0.211792 0
M  V30 2256 H 201.683 -1.54786 0.350277 0
M  V30 2257 H 201.704 -3.4579 -1.58775 0
M  V30 2258 H 201.216 -3.87643 0.188345 0
M  V30 2259 H 199.317 -3.05305 -2.13588 0
M  V30 2260 H 199.43 -4.65317 -1.14093 0
M  V30 2261 H 197.794 -2.4489 -0.700085 0
M  V30 2262 H 198.577 -3.36073 0.700691 0
M  V30 2263 N 201.022 0.148545 -1.56898 0
M  V30 2264 C 201.985 1.16736 -1.97244 0
M  V30 2265 C 202.985 1.35947 -0.858777 0
M  V30 2266 O 204.175 1.32966 -1.12542 0
M  V30 2267 C 201.307 2.52798 -2.28705 0
M  V30 2268 H 202.5 0.821279 -2.88435 0
M  V30 2269 H 200.053 0.391831 -1.51309 0
M  V30 2270 H 200.788 2.92381 -1.403 0
M  V30 2271 H 200.573 2.40216 -3.09901 0
M  V30 2272 H 202.063 3.26179 -2.60762 0
M  V30 2273 N 202.5 1.5196 0.417844 0
M  V30 2274 C 203.746 1.66793 1.16411 0
M  V30 2275 C 204.101 0.388758 1.88432 0
M  V30 2276 O 203.394 -0.616409 1.81414 0
M  V30 2277 C 203.588 2.82269 2.19223 0
M  V30 2278 C 203.417 4.21293 1.57297 0
M  V30 2279 C 202.187 4.86948 1.34944 0
M  V30 2280 C 204.385 5.03704 1.03858 0
M  V30 2281 N 202.367 6.1003 0.688195 0
M  V30 2282 C 203.738 6.1795 0.503742 0
M  V30 2283 C 205.793 4.89095 0.932203 0
M  V30 2284 C 204.496 7.19188 -0.127034 0
M  V30 2285 C 206.522 5.90559 0.315293 0
M  V30 2286 C 205.884 7.0409 -0.208906 0
M  V30 2287 H 201.983 0.66407 0.412959 0
M  V30 2288 H 204.567 1.89242 0.457772 0
M  V30 2289 H 202.738 2.61451 2.87225 0
M  V30 2290 H 204.47 2.86183 2.86149 0
M  V30 2291 H 201.225 4.45156 1.61657 0
M  V30 2292 H 201.649 6.75964 0.374449 0
M  V30 2293 H 206.291 4.01557 1.32332 0
M  V30 2294 H 204.009 8.06359 -0.530231 0
M  V30 2295 H 207.595 5.81327 0.234625 0
M  V30 2296 H 206.475 7.81257 -0.67875 0
M  V30 2297 N 203.978 -0.674533 1.42435 0
M  V30 2298 C 204.908 -1.80009 1.48724 0
M  V30 2299 C 205.889 -1.6659 0.343793 0
M  V30 2300 O 207.074 -1.86007 0.558137 0
M  V30 2301 C 204.204 -3.18306 1.38919 0
M  V30 2302 C 203.158 -3.46461 2.51294 0
M  V30 2303 C 202.484 -4.84335 2.26547 0
M  V30 2304 C 203.784 -3.43328 3.93603 0
M  V30 2305 H 205.478 -1.75004 2.42928 0
M  V30 2306 H 203.024 -0.840533 1.16923 0
M  V30 2307 H 204.977 -3.9678 1.41927 0
M  V30 2308 H 203.701 -3.2399 0.412094 0
M  V30 2309 H 202.36 -2.70348 2.47604 0
M  V30 2310 H 202.008 -4.86669 1.2713 0
M  V30 2311 H 201.708 -5.04136 3.01861 0
M  V30 2312 H 203.232 -5.65094 2.31304 0
M  V30 2313 H 204.646 -4.11772 3.98894 0
M  V30 2314 H 203.043 -3.74664 4.68771 0
M  V30 2315 H 204.113 -2.41897 4.20255 0
M  V30 2316 N 205.456 -1.28612 -0.910864 0
M  V30 2317 C 206.386 -1.15326 -2.03032 0
M  V30 2318 C 207.367 -0.0502924 -1.70026 0
M  V30 2319 O 208.552 -0.227797 -1.92859 0
M  V30 2320 C 205.682 -0.817343 -3.37545 0
M  V30 2321 C 204.636 -1.8754 -3.84724 0
M  V30 2322 C 203.962 -1.39305 -5.16235 0
M  V30 2323 C 205.262 -3.28244 -4.06267 0
M  V30 2324 H 206.956 -2.08975 -2.14406 0
M  V30 2325 H 204.502 -1.00612 -1.03021 0
M  V30 2326 H 206.455 -0.711151 -4.15356 0
M  V30 2327 H 205.179 0.154846 -3.26233 0
M  V30 2328 H 203.838 -1.97079 -3.09121 0
M  V30 2329 H 203.486 -0.409846 -5.01328 0
M  V30 2330 H 203.186 -2.10057 -5.48771 0
M  V30 2331 H 204.71 -1.30014 -5.96598 0
M  V30 2332 H 206.124 -3.21611 -4.74594 0
M  V30 2333 H 204.521 -3.96855 -4.5014 0
M  V30 2334 H 205.591 -3.72048 -3.10979 0
M  V30 2335 N 206.934 1.1197 -1.10907 0
M  V30 2336 C 207.844 2.21433 -0.774896 0
M  V30 2337 C 208.86 1.72478 0.229657 0
M  V30 2338 O 210.036 2.01288 0.0672008 0
M  V30 2339 C 207.101 3.4602 -0.216986 0
M  V30 2340 C 206.162 4.09791 -1.27944 0
M  V30 2341 C 205.395 5.28431 -0.748055 0
M  V30 2342 O 205.618 5.68823 0.423833 0
M  V30 2343 O 204.552 5.82644 -1.51027 0
M  V30 2344 H 208.378 2.5242 -1.68873 0
M  V30 2345 H 205.963 1.20399 -0.884555 0
M  V30 2346 H 207.845 4.21304 0.090059 0
M  V30 2347 H 206.52 3.16698 0.669633 0
M  V30 2348 H 205.427 3.36265 -1.63941 0
M  V30 2349 H 206.76 4.4328 -2.13925 0
M  V30 2350 N 208.412 0.89855 1.29475 0
M  V30 2351 C 209.359 0.373819 2.27753 0
M  V30 2352 C 210.329 -0.543444 1.56958 0
M  V30 2353 O 211.514 -0.468934 1.84948 0
M  V30 2354 C 208.654 -0.393648 3.42848 0
M  V30 2355 C 207.767 0.554379 4.28428 0
M  V30 2356 C 206.902 -0.230026 5.30702 0
M  V30 2357 C 205.941 0.712599 6.07938 0
M  V30 2358 N 205.078 -0.0373283 7.0209 0
M  V30 2359 H 209.918 1.21699 2.72017 0
M  V30 2360 H 207.455 0.611456 1.33789 0
M  V30 2361 H 209.413 -0.85466 4.08352 0
M  V30 2362 H 208.043 -1.20128 2.99615 0
M  V30 2363 H 207.095 1.13391 3.63107 0
M  V30 2364 H 208.407 1.27597 4.82204 0
M  V30 2365 H 207.561 -0.752288 6.02018 0
M  V30 2366 H 206.3 -0.984758 4.77654 0
M  V30 2367 H 205.305 1.24637 5.35486 0
M  V30 2368 H 206.53 1.46664 6.63074 0
M  V30 2369 H 204.476 -0.774348 6.51414 0
M  V30 2370 H 204.393 0.624374 7.53417 0
M  V30 2371 H 205.661 -0.539891 7.77628 0
M  V30 2372 N 209.89 -1.43072 0.660911 0
M  V30 2373 C 210.8 -2.34585 -0.0264163 0
M  V30 2374 C 211.816 -1.54316 -0.803898 0
M  V30 2375 O 212.992 -1.86939 -0.749391 0
M  V30 2376 C 210.057 -3.32689 -0.975639 0
M  V30 2377 C 209.118 -4.2886 -0.194236 0
M  V30 2378 C 208.351 -5.22278 -1.09825 0
M  V30 2379 O 208.574 -5.20299 -2.33763 0
M  V30 2380 O 207.508 -5.99228 -0.566513 0
M  V30 2381 H 211.334 -2.94869 0.727034 0
M  V30 2382 H 208.919 -1.43342 0.42111 0
M  V30 2383 H 210.801 -3.92995 -1.52094 0
M  V30 2384 H 209.476 -2.74898 -1.70918 0
M  V30 2385 H 208.383 -3.72011 0.394835 0
M  V30 2386 H 209.716 -4.89655 0.499899 0
M  V30 2387 N 211.368 -0.403325 -1.52352 0
M  V30 2388 C 212.593 0.176499 -2.06648 0
M  V30 2389 C 213.018 1.38577 -1.27193 0
M  V30 2390 O 212.376 1.7879 -0.300637 0
M  V30 2391 C 212.424 0.511061 -3.5696 0
M  V30 2392 O 211.528 1.60294 -3.79973 0
M  V30 2393 H 210.869 0.0167337 -0.663789 0
M  V30 2394 H 213.399 -0.574848 -1.96359 0
M  V30 2395 H 213.409 0.771362 -4.00642 0
M  V30 2396 H 212.084 -0.37296 -4.14224 0
M  V30 2397 H 210.661 1.33526 -3.48174 0
M  V30 2398 N 212.846 1.57033 -0.133567 0
M  V30 2399 C 214.095 1.94861 0.520768 0
M  V30 2400 C 214.408 1.02012 1.66892 0
M  V30 2401 O 215.614 1.29365 2.38699 0
M  V30 2402 C 214.07 3.46362 0.977809 0
M  V30 2403 C 213.678 4.47773 -0.142674 0
M  V30 2404 C 215.422 3.93083 1.60269 0
M  V30 2405 C 213.329 5.90468 0.331883 0
M  V30 2406 H 212.259 0.727453 0.198315 0
M  V30 2407 H 214.91 1.82227 -0.215759 0
M  V30 2408 H 213.292 3.54282 1.7692 0
M  V30 2409 H 214.466 4.51536 -0.919317 0
M  V30 2410 H 212.781 4.10891 -0.675124 0
M  V30 2411 H 215.378 4.97121 1.96914 0
M  V30 2412 H 215.721 3.33876 2.48662 0
M  V30 2413 H 216.254 3.88025 0.876453 0
M  V30 2414 H 212.993 6.53463 -0.516341 0
M  V30 2415 H 212.513 5.90094 1.07469 0
M  V30 2416 H 214.192 6.42179 0.788332 0
M  V30 2417 N 214.325 -0.140222 1.56975 0
M  V30 2418 C 215.255 -1.17456 2.01808 0
M  V30 2419 C 216.236 -1.44415 0.898794 0
M  V30 2420 O 217.421 -1.5522 1.16707 0
M  V30 2421 C 214.551 -2.50607 2.40444 0
M  V30 2422 C 213.505 -2.38155 3.55621 0
M  V30 2423 C 212.831 -3.76078 3.80091 0
M  V30 2424 C 214.131 -1.85991 4.88062 0
M  V30 2425 H 215.825 -0.801743 2.88466 0
M  V30 2426 H 213.371 -0.38422 1.38779 0
M  V30 2427 H 215.324 -3.23197 2.7041 0
M  V30 2428 H 214.048 -2.89737 1.50732 0
M  V30 2429 H 212.707 -1.68016 3.25832 0
M  V30 2430 H 212.355 -4.12656 2.87618 0
M  V30 2431 H 212.055 -3.68606 4.57606 0
M  V30 2432 H 213.579 -4.50206 4.12488 0
M  V30 2433 H 214.993 -2.4838 5.16701 0
M  V30 2434 H 213.39 -1.89393 5.6943 0
M  V30 2435 H 214.46 -0.816023 4.77984 0
M  V30 2436 N 215.803 -1.52179 -0.40978 0
M  V30 2437 C 216.733 -1.78435 -1.5061 0
M  V30 2438 C 217.714 -0.635295 -1.57791 0
M  V30 2439 O 218.899 -0.880823 -1.73076 0
M  V30 2440 C 216.029 -1.93444 -2.88439 0
M  V30 2441 C 214.983 -3.09038 -2.96108 0
M  V30 2442 C 214.309 -3.09268 -4.36185 0
M  V30 2443 C 215.609 -4.48508 -2.67652 0
M  V30 2444 H 217.303 -2.70237 -1.28889 0
M  V30 2445 H 214.849 -1.30036 -0.618605 0
M  V30 2446 H 216.802 -2.10394 -3.65119 0
M  V30 2447 H 215.526 -0.983129 -3.11452 0
M  V30 2448 H 214.185 -2.91837 -2.21872 0
M  V30 2449 H 213.833 -2.11861 -4.56206 0
M  V30 2450 H 213.533 -3.86907 -4.42241 0
M  V30 2451 H 215.057 -3.28348 -5.14801 0
M  V30 2452 H 216.471 -4.65918 -3.34056 0
M  V30 2453 H 214.868 -5.28059 -2.85085 0
M  V30 2454 H 215.938 -4.56649 -1.63095 0
M  V30 2455 N 217.281 0.66697 -1.42791 0
M  V30 2456 C 218.697 0.981027 -1.25889 0
M  V30 2457 C 218.897 2.00793 -0.168695 0
M  V30 2458 O 217.953 2.48321 0.45747 0
M  V30 2459 C 219.266 1.47838 -2.61848 0
M  V30 2460 C 220.814 1.59575 -2.69267 0
M  V30 2461 C 221.289 2.12704 -4.05612 0
M  V30 2462 N 222.78 2.20026 -4.07606 0
M  V30 2463 C 223.515 2.62227 -5.09926 0
M  V30 2464 N 223.011 3.03824 -6.22626 0
M  V30 2465 N 224.804 2.62045 -4.97281 0
M  V30 2466 H 216.955 -0.0127891 -2.12396 0
M  V30 2467 H 219.218 0.0568258 -0.946295 0
M  V30 2468 H 218.924 0.798299 -3.4252 0
M  V30 2469 H 218.798 2.45579 -2.86305 0
M  V30 2470 H 221.185 2.26687 -1.88936 0
M  V30 2471 H 221.266 0.60302 -2.48591 0
M  V30 2472 H 220.91 1.46198 -4.86404 0
M  V30 2473 H 220.84 3.12782 -4.23645 0
M  V30 2474 H 223.331 1.90708 -3.2625 0
M  V30 2475 H 223.644 3.34734 -6.96544 0
M  V30 2476 H 221.989 3.01662 -6.26119 0
M  V30 2477 H 225.18 2.28916 -4.08308 0
M  V30 2478 H 225.353 2.94613 -5.77154 0
M  V30 2479 N 218.759 1.29093 0.90403 0
M  V30 2480 C 219.984 1.19809 1.69294 0
M  V30 2481 C 220.409 -0.238481 1.86582 0
M  V30 2482 O 219.767 -1.1723 1.383 0
M  V30 2483 C 219.815 1.91202 3.05736 0
M  V30 2484 O 218.919 1.22611 3.93752 0
M  V30 2485 H 218.26 0.415385 0.518027 0
M  V30 2486 H 220.79 1.70586 1.12967 0
M  V30 2487 H 220.8 1.99487 3.55906 0
M  V30 2488 H 219.475 2.95692 2.92471 0
M  V30 2489 H 218.052 1.22554 3.52186 0
M  V30 2490 N 220.237 -1.11381 1.11499 0
M  V30 2491 C 221.462 -1.87475 0.887019 0
M  V30 2492 C 221.887 -1.79639 -0.557796 0
M  V30 2493 O 221.245 -1.15924 -1.39396 0
M  V30 2494 C 221.293 -3.34213 1.35403 0
M  V30 2495 O 220.397 -4.0903 0.526146 0
M  V30 2496 H 219.738 -0.582099 0.319463 0
M  V30 2497 H 222.268 -1.40785 1.48461 0
M  V30 2498 H 222.278 -3.8506 1.34881 0
M  V30 2499 H 220.953 -3.39232 2.40612 0
M  V30 2500 H 219.53 -3.68082 0.597522 0
M  V30 2501 N 221.715 -0.905404 -1.28997 0
M  V30 2502 C 222.992 -0.453513 -1.9027 0
M  V30 2503 C 223.372 1.06721 -1.82137 0
M  V30 2504 O 222.72 1.91159 -1.25182 0
M  V30 2505 C 222.93 -0.974494 -3.35119 0
M  V30 2506 C 224.278 -1.0216 -4.12127 0
M  V30 2507 O 225.302 -0.922557 -3.44046 0
M  V30 2508 O 224.161 -1.17121 -5.33802 0
M  V30 2509 H 221.255 -0.142347 -0.814657 0
M  V30 2510 H 223.801 -0.995642 -1.37423 0
M  V30 2511 H 222.573 -2.01848 -3.35221 0
M  V30 2512 H 222.196 -0.412706 -3.95452 0
M  V30 2513 N 223.193 1.4272 -0.668489 0
M  V30 2514 C 224.604 1.84793 -0.266151 0
M  V30 2515 C 224.955 1.55959 1.19043 0
M  V30 2516 O 224.08 1.01622 1.91055 0
M  V30 2517 C 224.675 3.35436 -0.476271 0
M  V30 2518 C 223.234 3.76182 -0.128113 0
M  V30 2519 C 222.381 2.66344 -0.771777 0
M  V30 2520 H 225.332 1.32656 -0.871098 0
M  V30 2521 H 225.353 3.79515 0.273561 0
M  V30 2522 H 224.865 3.5639 -1.53647 0
M  V30 2523 H 222.966 3.60836 0.928891 0
M  V30 2524 H 223.079 4.75766 -0.564231 0
M  V30 2525 H 221.443 2.53885 -0.203652 0
M  V30 2526 H 222.226 2.90123 -1.83531 0
M  V30 2527 N 224.671 0.411399 1.52136 0
M  V30 2528 C 225.948 -0.222308 1.94333 0
M  V30 2529 C 226.328 -1.6242 1.34844 0
M  V30 2530 O 225.676 -2.22384 0.525145 0
M  V30 2531 C 225.886 -0.226345 3.48265 0
M  V30 2532 C 227.234 -0.444592 4.22266 0
M  V30 2533 O 228.258 -0.305602 3.54887 0
M  V30 2534 O 227.117 -0.718749 5.41753 0
M  V30 2535 H 224.211 -0.143907 0.814383 0
M  V30 2536 H 226.757 0.467506 1.63133 0
M  V30 2537 H 225.529 0.75475 3.83952 0
M  V30 2538 H 225.152 -0.960163 3.85832 0
M  V30 2539 N 226.149 -1.5696 0.141893 0
M  V30 2540 C 227.379 -2.00031 -0.516828 0
M  V30 2541 C 227.787 -1.02091 -1.59293 0
M  V30 2542 O 227.13 -0.00909657 -1.83698 0
M  V30 2543 C 227.192 -3.39534 -1.1814 0
M  V30 2544 C 226.856 -4.56313 -0.250513 0
M  V30 2545 C 227.853 -5.17295 0.519839 0
M  V30 2546 C 225.538 -5.02061 -0.154907 0
M  V30 2547 C 227.532 -6.2243 1.3733 0
M  V30 2548 C 225.219 -6.07053 0.702161 0
M  V30 2549 C 226.217 -6.67106 1.46487 0
M  V30 2550 O 225.905 -7.70066 2.30767 0
M  V30 2551 H 225.637 -0.661451 -0.139493 0
M  V30 2552 H 228.191 -2.04086 0.231926 0
M  V30 2553 H 226.421 -3.32302 -1.97769 0
M  V30 2554 H 228.11 -3.66745 -1.73933 0
M  V30 2555 H 228.876 -4.82852 0.45598 0
M  V30 2556 H 224.755 -4.5505 -0.7383 0
M  V30 2557 H 228.299 -6.69233 1.96909 0
M  V30 2558 H 224.196 -6.40923 0.76733 0
M  V30 2559 H 224.964 -7.87264 2.23959 0
M  V30 2560 N 227.627 0.131896 -1.57047 0
M  V30 2561 C 228.557 1.16384 -2.02428 0
M  V30 2562 C 229.538 1.43936 -0.90644 0
M  V30 2563 O 230.723 1.54599 -1.17528 0
M  V30 2564 C 227.853 2.49328 -2.4177 0
M  V30 2565 C 226.807 2.36266 -3.56879 0
M  V30 2566 C 226.133 3.74057 -3.8208 0
M  V30 2567 C 227.433 1.834 -4.89042 0
M  V30 2568 H 229.127 0.786433 -2.88887 0
M  V30 2569 H 226.673 0.376855 -1.38981 0
M  V30 2570 H 228.626 3.21759 -2.7212 0
M  V30 2571 H 227.35 2.88934 -1.52266 0
M  V30 2572 H 226.009 1.66286 -3.26718 0
M  V30 2573 H 225.657 4.11125 -2.89803 0
M  V30 2574 H 225.357 3.66174 -4.59554 0
M  V30 2575 H 226.881 4.48012 -4.1487 0
M  V30 2576 H 228.295 2.45636 -5.18011 0
M  V30 2577 H 226.692 1.8637 -5.70426 0
M  V30 2578 H 227.762 0.790662 -4.7841 0
M  V30 2579 N 229.106 1.52395 0.401703 0
M  V30 2580 C 230.069 1.75636 1.47257 0
M  V30 2581 C 231.069 0.62628 1.48103 0
M  V30 2582 O 232.259 0.894227 1.49497 0
M  V30 2583 C 229.391 1.84553 2.86624 0
M  V30 2584 H 230.584 2.71241 1.27938 0
M  V30 2585 H 228.137 1.42923 0.632662 0
M  V30 2586 H 228.872 0.908882 3.11303 0
M  V30 2587 H 228.657 2.66715 2.87412 0
M  V30 2588 H 230.147 2.04251 3.64241 0
M  V30 2589 N 230.584 -0.659388 1.43143 0
M  V30 2590 C 231.547 -1.75432 1.47501 0
M  V30 2591 C 232.547 -1.56707 0.360512 0
M  V30 2592 O 233.737 -1.62717 0.622002 0
M  V30 2593 C 230.869 -3.14239 1.32162 0
M  V30 2594 H 232.062 -1.7295 2.45006 0
M  V30 2595 H 229.615 -0.870469 1.29817 0
M  V30 2596 H 230.35 -3.22336 0.356401 0
M  V30 2597 H 230.135 -3.29235 2.12948 0
M  V30 2598 H 231.625 -3.94094 1.3813 0
M  V30 2599 N 232.062 -1.29571 -0.897171 0
M  V30 2600 C 233.308 -1.17863 -1.65034 0
M  V30 2601 C 233.641 0.268729 -1.92332 0
M  V30 2602 O 232.916 1.19378 -1.53555 0
M  V30 2603 C 233.199 -1.995 -2.99786 0
M  V30 2604 C 233.052 -3.5239 -2.79538 0
M  V30 2605 C 234.371 -1.82335 -4.00552 0
M  V30 2606 H 231.49 -0.429528 -0.598895 0
M  V30 2607 H 234.132 -1.59072 -1.03905 0
M  V30 2608 H 232.282 -1.64485 -3.51962 0
M  V30 2609 H 233.954 -3.97401 -2.34244 0
M  V30 2610 H 232.197 -3.77187 -2.14273 0
M  V30 2611 H 232.868 -4.04787 -3.75302 0
M  V30 2612 H 235.344 -2.12924 -3.57495 0
M  V30 2613 H 234.22 -2.41801 -4.92771 0
M  V30 2614 H 234.481 -0.779209 -4.35179 0
M  V30 2615 N 233.54 1.10788 -1.12088 0
M  V30 2616 C 234.817 1.79136 -0.785476 0
M  V30 2617 C 235.197 1.98246 0.725377 0
M  V30 2618 O 234.545 1.57258 1.65778 0
M  V30 2619 C 234.755 3.12375 -1.55636 0
M  V30 2620 C 236.103 3.8731 -1.74001 0
M  V30 2621 O 237.127 3.22085 -1.52117 0
M  V30 2622 O 235.986 5.04369 -2.10415 0
M  V30 2623 H 233.08 0.776226 -0.285311 0
M  V30 2624 H 235.626 1.1747 -1.2247 0
M  V30 2625 H 234.398 2.93863 -2.5838 0
M  V30 2626 H 234.021 3.81758 -1.11114 0
M  V30 2627 N 235.018 0.912232 1.28515 0
M  V30 2628 C 235.965 0.397954 2.27343 0
M  V30 2629 C 236.935 -0.526766 1.57526 0
M  V30 2630 O 238.12 -0.449292 1.85435 0
M  V30 2631 C 235.26 -0.357263 3.43246 0
M  V30 2632 C 234.373 0.599788 4.27816 0
M  V30 2633 C 233.508 -0.173725 5.30916 0
M  V30 2634 C 232.547 0.777039 6.07148 0
M  V30 2635 N 231.684 0.0371398 7.0209 0
M  V30 2636 H 236.524 1.24577 2.70711 0
M  V30 2637 H 234.061 0.625612 1.33133 0
M  V30 2638 H 236.019 -0.8113 4.09236 0
M  V30 2639 H 234.649 -1.16943 3.00872 0
M  V30 2640 H 233.701 1.17235 3.61884 0
M  V30 2641 H 235.013 1.32704 4.80823 0
M  V30 2642 H 234.167 -0.688394 6.02782 0
M  V30 2643 H 232.906 -0.934041 4.78672 0
M  V30 2644 H 231.911 1.3031 5.34134 0
M  V30 2645 H 233.136 1.53689 6.61481 0
M  V30 2646 H 231.082 -0.705213 6.52198 0
M  V30 2647 H 230.999 0.704249 7.52713 0
M  V30 2648 H 232.267 -0.457383 7.78157 0
M  V30 2649 N 236.496 -1.42363 0.676048 0
M  V30 2650 C 237.742 -2.02336 0.207809 0
M  V30 2651 C 238.097 -1.52506 -1.17302 0
M  V30 2652 O 237.39 -0.718048 -1.77636 0
M  V30 2653 C 237.584 -3.56929 0.183431 0
M  V30 2654 C 237.413 -4.21762 1.56036 0
M  V30 2655 C 236.183 -4.56881 2.15842 0
M  V30 2656 C 238.381 -4.49267 2.50327 0
M  V30 2657 N 236.363 -5.069 3.46303 0
M  V30 2658 C 237.734 -5.00851 3.65443 0
M  V30 2659 C 239.789 -4.31257 2.48841 0
M  V30 2660 C 238.492 -5.36317 4.79329 0
M  V30 2661 C 240.518 -4.678 3.61824 0
M  V30 2662 C 239.88 -5.19537 4.75668 0
M  V30 2663 H 235.979 -0.772583 0.120993 0
M  V30 2664 H 238.563 -1.73203 0.889306 0
M  V30 2665 H 236.734 -3.85576 -0.467483 0
M  V30 2666 H 238.466 -4.03603 -0.297808 0
M  V30 2667 H 235.221 -4.4268 1.68319 0
M  V30 2668 H 235.645 -5.36338 4.13123 0
M  V30 2669 H 240.287 -3.90511 1.62051 0
M  V30 2670 H 238.005 -5.75995 5.66794 0
M  V30 2671 H 241.591 -4.55541 3.61903 0
M  V30 2672 H 240.471 -5.47287 5.61646 0
M  V30 2673 N 237.974 -0.419461 -1.51915 0
M  V30 2674 C 238.904 0.391813 -2.30189 0
M  V30 2675 C 239.885 1.03699 -1.34836 0
M  V30 2676 O 241.07 1.04403 -1.63748 0
M  V30 2677 C 238.2 1.50312 -3.13087 0
M  V30 2678 C 237.154 0.9824 -4.16573 0
M  V30 2679 C 236.48 2.18809 -4.8788 0
M  V30 2680 C 237.78 0.0292356 -5.22292 0
M  V30 2681 H 239.474 -0.26135 -2.98257 0
M  V30 2682 H 237.02 -0.127134 -1.43438 0
M  V30 2683 H 238.973 2.07773 -3.66617 0
M  V30 2684 H 237.697 2.18431 -2.42807 0
M  V30 2685 H 236.356 0.430119 -3.64068 0
M  V30 2686 H 236.004 2.85507 -4.14119 0
M  V30 2687 H 235.704 1.84615 -5.57845 0
M  V30 2688 H 237.228 2.76858 -5.44226 0
M  V30 2689 H 238.642 0.512976 -5.71 0
M  V30 2690 H 237.039 -0.2244 -5.9968 0
M  V30 2691 H 238.109 -0.912931 -4.76228 0
M  V30 2692 N 239.452 1.56882 -0.150215 0
M  V30 2693 C 240.7 1.9584 0.499105 0
M  V30 2694 C 241.021 1.03623 1.65188 0
M  V30 2695 O 240.291 0.0984084 1.95653 0
M  V30 2696 H 238.871 0.723119 0.187373 0
M  V30 2697 H 241.533 1.9358 -0.226466 0
M  V30 2698 H 240.629 2.99638 0.873122 0
M  V30 2699 N 240.93 -0.123565 1.57115 0
M  V30 2700 C 242.176 -0.833386 1.84885 0
M  V30 2701 C 242.509 -1.79742 0.735292 0
M  V30 2702 O 241.784 -1.92764 -0.25925 0
M  V30 2703 C 242.067 -1.5873 3.23228 0
M  V30 2704 C 241.92 -0.643183 4.45178 0
M  V30 2705 C 243.239 -2.54453 3.59085 0
M  V30 2706 H 240.358 -0.301518 0.6725 0
M  V30 2707 H 243 -0.097778 1.89748 0
M  V30 2708 H 241.15 -2.21438 3.19214 0
M  V30 2709 H 242.822 -0.0253015 4.61293 0
M  V30 2710 H 241.065 0.0456139 4.33776 0
M  V30 2711 H 241.736 -1.20724 5.38637 0
M  V30 2712 H 244.212 -2.01853 3.63861 0
M  V30 2713 H 243.088 -3.04238 4.5687 0
M  V30 2714 H 243.349 -3.36906 2.86264 0
M  V30 2715 N 242.408 -1.52605 -0.393616 0
M  V30 2716 C 243.338 -1.80022 -1.48709 0
M  V30 2717 C 244.319 -0.651995 -1.57108 0
M  V30 2718 O 245.504 -0.89913 -1.72132 0
M  V30 2719 C 242.634 -1.96492 -2.86371 0
M  V30 2720 C 241.588 -3.12161 -2.92813 0
M  V30 2721 C 240.914 -3.13877 -4.3288 0
M  V30 2722 C 242.214 -4.51322 -2.6288 0
M  V30 2723 H 243.908 -2.71589 -1.26015 0
M  V30 2724 H 241.454 -1.30684 -0.604778 0
M  V30 2725 H 243.407 -2.14255 -3.62867 0
M  V30 2726 H 242.131 -1.01611 -3.10391 0
M  V30 2727 H 240.79 -2.94173 -2.18764 0
M  V30 2728 H 240.438 -2.16687 -4.53933 0
M  V30 2729 H 240.138 -3.91576 -4.38112 0
M  V30 2730 H 241.662 -3.33789 -5.1129 0
M  V30 2731 H 243.076 -4.69435 -3.29096 0
M  V30 2732 H 241.473 -5.31053 -2.79468 0
M  V30 2733 H 242.543 -4.58353 -1.58242 0
M  V30 2734 N 243.887 0.651787 -1.4349 0
M  V30 2735 C 244.817 1.77621 -1.51569 0
M  V30 2736 C 245.798 1.66022 -0.370253 0
M  V30 2737 O 246.983 1.85095 -0.587658 0
M  V30 2738 C 244.113 3.16056 -1.43966 0
M  V30 2739 C 243.067 3.4242 -2.56774 0
M  V30 2740 C 242.393 4.8067 -2.34223 0
M  V30 2741 C 243.693 3.37023 -3.99015 0
M  V30 2742 H 245.387 1.71117 -2.45681 0
M  V30 2743 H 242.933 0.821825 -1.18246 0
M  V30 2744 H 244.886 3.94472 -1.48221 0
M  V30 2745 H 243.61 3.23293 -0.463586 0
M  V30 2746 H 242.269 2.66375 -2.51873 0
M  V30 2747 H 241.917 4.84585 -1.34856 0
M  V30 2748 H 241.617 4.9927 -3.09844 0
M  V30 2749 H 243.141 5.61342 -2.40265 0
M  V30 2750 H 244.555 4.05374 -4.05395 0
M  V30 2751 H 242.952 3.67159 -4.74673 0
M  V30 2752 H 244.022 2.3518 -4.2405 0
M  V30 2753 N 245.365 1.30045 0.890287 0
M  V30 2754 C 246.776 1.16738 1.45702 0
M  V30 2755 C 247.127 -0.233939 1.948 0
M  V30 2756 O 246.252 -1.13021 1.84541 0
M  V30 2757 C 246.847 2.11313 2.64825 0
M  V30 2758 C 245.406 2.02001 3.17604 0
M  V30 2759 C 244.553 2.01699 1.90296 0
M  V30 2760 H 247.504 1.42392 0.700726 0
M  V30 2761 H 247.525 1.69086 3.40867 0
M  V30 2762 H 247.037 3.13294 2.2906 0
M  V30 2763 H 245.138 1.03142 3.5804 0
M  V30 2764 H 245.251 2.90128 3.81264 0
M  V30 2765 H 243.615 1.46427 2.08402 0
M  V30 2766 H 244.398 3.05402 1.56795 0
M  V30 2767 N 246.843 -1.10192 1.12674 0
M  V30 2768 C 247.79 -2.16606 0.796906 0
M  V30 2769 C 248.76 -1.64394 -0.237476 0
M  V30 2770 O 249.945 -1.90474 -0.111484 0
M  V30 2771 C 247.085 -3.44116 0.26043 0
M  V30 2772 C 246.198 -4.10268 1.35293 0
M  V30 2773 C 245.333 -5.25507 0.775621 0
M  V30 2774 C 244.372 -5.83567 1.84706 0
M  V30 2775 N 243.509 -6.90179 1.28829 0
M  V30 2776 H 248.349 -2.44163 1.70846 0
M  V30 2777 H 245.886 -1.19846 0.85295 0
M  V30 2778 H 247.844 -4.17143 -0.0686814 0
M  V30 2779 H 246.474 -3.16901 -0.614274 0
M  V30 2780 H 245.526 -3.35184 1.79877 0
M  V30 2781 H 246.838 -4.4946 2.16303 0
M  V30 2782 H 245.992 -6.05398 0.397327 0
M  V30 2783 H 244.731 -4.87656 -0.0656581 0
M  V30 2784 H 243.736 -5.02344 2.23452 0
M  V30 2785 H 244.961 -6.23482 2.69161 0
M  V30 2786 H 242.907 -6.54322 0.468881 0
M  V30 2787 H 242.824 -7.28097 2.03497 0
M  V30 2788 H 244.092 -7.73844 0.937311 0
M  V30 2789 N 248.321 -0.919034 -1.28029 0
M  V30 2790 C 249.254 -0.355887 -2.25408 0
M  V30 2791 C 250.232 0.542874 -1.5327 0
M  V30 2792 O 251.416 0.485338 -1.82145 0
M  V30 2793 C 248.543 0.490759 -3.35126 0
M  V30 2794 C 247.589 -0.343358 -4.25116 0
M  V30 2795 S 248.422 -1.75344 -5.05979 0
M  V30 2796 C 249.578 -0.914244 -6.19187 0
M  V30 2797 H 249.811 -1.18123 -2.72826 0
M  V30 2798 H 247.344 -0.720636 -1.36551 0
M  V30 2799 H 249.302 0.973404 -3.98792 0
M  V30 2800 H 247.963 1.29054 -2.86363 0
M  V30 2801 H 247.156 0.304266 -5.03081 0
M  V30 2802 H 246.758 -0.759851 -3.662 0
M  V30 2803 H 249.05 -0.146282 -6.77342 0
M  V30 2804 H 249.993 -1.66661 -6.88208 0
M  V30 2805 H 250.401 -0.460082 -5.62622 0
M  V30 2806 N 249.799 1.42003 -0.683588 0
M  V30 2807 C 250.746 2.30798 -0.0107309 0
M  V30 2808 C 251.716 1.4645 0.783688 0
M  V30 2809 O 252.901 1.75263 0.754156 0
M  V30 2810 C 250.041 3.3238 0.928306 0
M  V30 2811 C 249.154 4.31814 0.126776 0
M  V30 2812 C 248.289 5.20468 1.06236 0
M  V30 2813 C 247.328 6.11577 0.253035 0
M  V30 2814 N 246.465 6.92754 1.14179 0
M  V30 2815 H 251.305 2.8778 -0.773727 0
M  V30 2816 H 248.842 1.41745 -0.393283 0
M  V30 2817 H 250.8 3.89813 1.48666 0
M  V30 2818 H 249.43 2.76976 1.65783 0
M  V30 2819 H 248.482 3.76427 -0.54833 0
M  V30 2820 H 249.794 4.96276 -0.501192 0
M  V30 2821 H 248.948 5.82677 1.69035 0
M  V30 2822 H 247.687 4.56204 1.7242 0
M  V30 2823 H 246.692 5.48428 -0.388108 0
M  V30 2824 H 247.917 6.77892 -0.404839 0
M  V30 2825 H 245.863 6.3111 1.78987 0
M  V30 2826 H 245.78 7.53855 0.569111 0
M  V30 2827 H 247.048 7.59441 1.75697 0
M  V30 2828 N 251.277 0.427512 1.51691 0
M  V30 2829 C 252.688 -0.0378867 1.86662 0
M  V30 2830 C 253.039 -1.42819 1.34525 0
M  V30 2831 O 252.164 -2.05037 0.692014 0
M  V30 2832 C 252.759 -0.0755266 3.38716 0
M  V30 2833 C 251.318 -0.485309 3.73258 0
M  V30 2834 C 250.465 0.328399 2.75349 0
M  V30 2835 H 253.416 0.64379 1.45055 0
M  V30 2836 H 253.437 -0.887056 3.70016 0
M  V30 2837 H 252.949 0.936487 3.76632 0
M  V30 2838 H 251.05 -1.50329 3.40928 0
M  V30 2839 H 251.163 -0.21693 4.78609 0
M  V30 2840 H 249.527 -0.211905 2.53817 0
M  V30 2841 H 250.31 1.3391 3.16106 0
M  V30 2842 N 252.755 -1.56801 0.158532 0
M  V30 2843 C 253.685 -2.20347 -0.772609 0
M  V30 2844 C 254.666 -1.15518 -1.24859 0
M  V30 2845 O 255.851 -1.43902 -1.30406 0
M  V30 2846 C 252.981 -2.83417 -2.00729 0
M  V30 2847 C 251.935 -3.94174 -1.66765 0
M  V30 2848 C 251.261 -4.44233 -2.97592 0
M  V30 2849 C 252.561 -5.14392 -0.905447 0
M  V30 2850 H 254.255 -2.98413 -0.242959 0
M  V30 2851 H 251.801 -1.43537 -0.115419 0
M  V30 2852 H 253.754 -3.26543 -2.6636 0
M  V30 2853 H 252.478 -2.02701 -2.56086 0
M  V30 2854 H 251.137 -3.51684 -1.03508 0
M  V30 2855 H 250.785 -3.60325 -3.50963 0
M  V30 2856 H 250.485 -5.18945 -2.75626 0
M  V30 2857 H 252.009 -4.90037 -3.64274 0
M  V30 2858 H 253.423 -5.5429 -1.46408 0
M  V30 2859 H 251.82 -5.9494 -0.7853 0
M  V30 2860 H 252.89 -4.84795 0.100668 0
M  V30 2861 N 254.233 0.115231 -1.57178 0
M  V30 2862 C 255.163 1.1423 -2.03651 0
M  V30 2863 C 256.144 1.42967 -0.921655 0
M  V30 2864 O 257.329 1.53343 -1.19162 0
M  V30 2865 C 254.459 2.4675 -2.44401 0
M  V30 2866 C 253.413 2.32467 -3.59365 0
M  V30 2867 C 252.739 3.69984 -3.86026 0
M  V30 2868 C 254.039 1.78203 -4.90959 0
M  V30 2869 H 255.733 0.755749 -2.89705 0
M  V30 2870 H 253.279 0.362093 -1.39373 0
M  V30 2871 H 255.232 3.18854 -2.75517 0
M  V30 2872 H 253.956 2.87302 -1.55322 0
M  V30 2873 H 252.615 1.62811 -3.28463 0
M  V30 2874 H 252.263 4.08028 -2.94147 0
M  V30 2875 H 251.963 3.61279 -4.63412 0
M  V30 2876 H 253.487 4.43587 -4.19599 0
M  V30 2877 H 254.901 2.40128 -5.20587 0
M  V30 2878 H 253.298 1.8031 -5.72371 0
M  V30 2879 H 254.368 0.739876 -4.79222 0
M  V30 2880 N 255.711 1.52812 0.385517 0
M  V30 2881 C 256.941 1.71658 1.14966 0
M  V30 2882 C 257.349 0.436253 1.84102 0
M  V30 2883 O 256.692 -0.599313 1.73649 0
M  V30 2884 C 256.754 2.81309 2.23843 0
M  V30 2885 C 256.418 4.22313 1.74644 0
M  V30 2886 C 257.415 5.05352 1.22129 0
M  V30 2887 C 255.1 4.68648 1.80761 0
M  V30 2888 C 257.094 6.32807 0.763838 0
M  V30 2889 C 254.781 5.96086 1.34627 0
M  V30 2890 C 255.779 6.77996 0.825264 0
M  V30 2891 O 255.467 8.03045 0.370669 0
M  V30 2892 H 255.199 0.578022 0.350523 0
M  V30 2893 H 257.753 2.00263 0.456509 0
M  V30 2894 H 255.983 2.48133 2.96592 0
M  V30 2895 H 257.672 2.88524 2.85497 0
M  V30 2896 H 258.438 4.70736 1.16758 0
M  V30 2897 H 254.317 4.04979 2.20256 0
M  V30 2898 H 257.861 6.96689 0.356494 0
M  V30 2899 H 253.758 6.30205 1.39686 0
M  V30 2900 H 254.526 8.17021 0.491829 0
M  V30 2901 N 257.189 -0.644168 1.43834 0
M  V30 2902 C 258.121 -1.76955 1.45669 0
M  V30 2903 C 259.134 -1.58956 0.351666 0
M  V30 2904 O 260.323 -1.6751 0.616644 0
M  V30 2905 C 257.423 -3.14507 1.26248 0
M  V30 2906 C 256.596 -3.59083 2.49757 0
M  V30 2907 C 255.655 -4.75467 2.25427 0
M  V30 2908 O 254.681 -4.84444 2.98836 0
M  V30 2909 N 255.883 -5.66289 1.27661 0
M  V30 2910 H 258.648 -1.75856 2.42682 0
M  V30 2911 H 256.209 -0.828312 1.39106 0
M  V30 2912 H 258.201 -3.90067 1.0784 0
M  V30 2913 H 256.771 -3.10325 0.376478 0
M  V30 2914 H 255.991 -2.7387 2.8353 0
M  V30 2915 H 257.279 -3.85613 3.31934 0
M  V30 2916 H 256.677 -5.61718 0.670064 0
M  V30 2917 H 255.234 -6.41533 1.15234 0
M  V30 2918 N 258.668 -1.30515 -0.883378 0
M  V30 2919 C 259.616 -1.16941 -2.01066 0
M  V30 2920 C 260.61 -0.0809148 -1.69207 0
M  V30 2921 O 261.816 -0.241877 -1.78367 0
M  V30 2922 H 258.191 -0.361705 -0.659298 0
M  V30 2923 H 260.162 -2.12344 -2.09649 0
M  V30 2924 C 258.911 -0.879694 -3.36388 0
M  V30 2925 H 258.234 -1.70936 -3.61415 0
M  V30 2926 H 259.674 -0.82483 -4.159 0
M  V30 2927 C 258.133 0.417409 -3.34304 0
M  V30 2928 O 258.663 1.43843 -3.75063 0
M  V30 2929 N 256.869 0.429141 -2.87414 0
M  V30 2930 H 256.416 -0.402222 -2.5444 0
M  V30 2931 H 256.374 1.29696 -2.86403 0
M  V30 2932 N 260.146 1.09593 -1.13257 0
M  V30 2933 C 261.394 1.81375 -0.891492 0
M  V30 2934 C 261.715 1.86049 0.584009 0
M  V30 2935 O 260.985 1.34481 1.42449 0
M  V30 2936 H 259.565 0.671708 -0.326828 0
M  V30 2937 H 262.227 1.3256 -1.42877 0
M  V30 2938 H 261.323 2.84612 -1.28071 0
M  V30 2939 N 261.624 0.925811 1.2754 0
M  V30 2940 C 262.872 0.564138 1.94067 0
M  V30 2941 C 263.193 -0.897188 1.73134 0
M  V30 2942 O 262.463 -1.63573 1.07799 0
M  V30 2943 H 261.043 0.205645 0.718136 0
M  V30 2944 H 263.705 1.1778 1.55287 0
M  V30 2945 H 262.801 0.76881 3.02483 0
M  V30 2946 N 263.102 -1.41638 0.69111 0
M  V30 2947 C 264.513 -1.84346 0.295517 0
M  V30 2948 C 264.864 -1.57833 -1.16547 0
M  V30 2949 O 263.989 -1.04648 -1.89414 0
M  V30 2950 C 264.584 -3.34636 0.529575 0
M  V30 2951 C 263.143 -3.7593 0.187944 0
M  V30 2952 C 262.29 -2.65082 0.814052 0
M  V30 2953 H 265.241 -1.31253 0.892092 0
M  V30 2954 H 265.262 -3.79903 -0.213148 0
M  V30 2955 H 264.774 -3.53901 1.59297 0
M  V30 2956 H 262.875 -3.62268 -0.871367 0
M  V30 2957 H 262.988 -4.74808 0.63985 0
M  V30 2958 H 261.352 -2.53528 0.244017 0
M  V30 2959 H 262.135 -2.87167 1.88123 0
M  V30 2960 N 264.58 -0.43555 -1.51462 0
M  V30 2961 C 265.826 0.131709 -2.02372 0
M  V30 2962 C 266.159 1.42516 -1.3192 0
M  V30 2963 O 265.434 1.89606 -0.433573 0
M  V30 2964 C 265.717 0.352301 -3.58373 0
M  V30 2965 C 265.57 -0.959676 -4.39443 0
M  V30 2966 C 266.889 1.12286 -4.25535 0
M  V30 2967 H 264.008 0.0463936 -0.735538 0
M  V30 2968 H 266.65 -0.574197 -1.81116 0
M  V30 2969 H 264.8 0.9536 -3.76615 0
M  V30 2970 H 266.472 -1.59482 -4.32855 0
M  V30 2971 H 264.715 -1.56468 -4.04599 0
M  V30 2972 H 265.386 -0.759394 -5.46752 0
M  V30 2973 H 267.862 0.613545 -4.11552 0
M  V30 2974 H 266.738 1.24598 -5.34571 0
M  V30 2975 H 266.999 2.15048 -3.86273 0
M  V30 2976 N 266.058 1.56714 -0.166846 0
M  V30 2977 C 267.307 1.95922 0.479318 0
M  V30 2978 C 267.62 1.05529 1.6469 0
M  V30 2979 O 268.826 1.34399 2.35901 0
M  V30 2980 C 267.282 3.48359 0.90412 0
M  V30 2981 C 266.89 4.47369 -0.237621 0
M  V30 2982 C 268.634 3.96394 1.51896 0
M  V30 2983 C 266.541 5.91039 0.206561 0
M  V30 2984 H 265.471 0.731495 0.18284 0
M  V30 2985 H 268.122 1.81728 -0.254363 0
M  V30 2986 H 266.504 3.57955 1.69365 0
M  V30 2987 H 267.678 4.49485 -1.01489 0
M  V30 2988 H 265.993 4.09366 -0.762128 0
M  V30 2989 H 268.59 5.01186 1.86325 0
M  V30 2990 H 268.933 3.39075 2.41524 0
M  V30 2991 H 269.466 3.89796 0.79395 0
M  V30 2992 H 266.205 6.52221 -0.654834 0
M  V30 2993 H 265.725 5.9224 0.949282 0
M  V30 2994 H 267.404 6.43707 0.651939 0
M  V30 2995 N 267.536 -0.106894 1.57237 0
M  V30 2996 C 268.764 -0.826389 1.8968 0
M  V30 2997 C 269.179 -1.72856 0.759353 0
M  V30 2998 O 268.536 -1.80503 -0.269263 0
M  V30 2999 C 268.587 -1.64967 3.21665 0
M  V30 3000 O 268.308 -0.783804 4.31031 0
M  V30 3001 C 269.809 -2.47326 3.67892 0
M  V30 3002 H 267.029 -0.236927 0.627779 0
M  V30 3003 H 269.573 -0.0876593 2.04312 0
M  V30 3004 H 267.728 -2.34103 3.08666 0
M  V30 3005 H 268.142 -1.35284 5.06753 0
M  V30 3006 H 269.616 -3.00604 4.6297 0
M  V30 3007 H 270.093 -3.25247 2.95146 0
M  V30 3008 H 270.699 -1.83411 3.83719 0
M  V30 3009 N 269.014 -1.53014 -0.377408 0
M  V30 3010 C 270.26 -1.68872 -1.12294 0
M  V30 3011 C 270.593 -0.433224 -1.89306 0
M  V30 3012 O 269.868 0.569258 -1.85983 0
M  V30 3013 C 270.151 -2.93115 -2.09179 0
M  V30 3014 C 270.004 -4.28794 -1.35853 0
M  V30 3015 C 271.323 -3.12928 -3.09458 0
M  V30 3016 H 268.442 -0.614518 -0.406862 0
M  V30 3017 H 271.084 -1.85633 -0.40503 0
M  V30 3018 H 269.234 -2.78956 -2.70399 0
M  V30 3019 H 270.906 -4.54742 -0.775082 0
M  V30 3020 H 269.149 -4.28744 -0.660364 0
M  V30 3021 H 269.82 -5.11837 -2.06706 0
M  V30 3022 H 272.296 -3.26194 -2.58334 0
M  V30 3023 H 271.172 -4.01316 -3.74482 0
M  V30 3024 H 271.433 -2.27669 -3.78971 0
M  V30 3025 N 270.492 0.636531 -1.44174 0
M  V30 3026 C 271.424 1.7618 -1.46606 0
M  V30 3027 C 272.437 1.58768 -0.360091 0
M  V30 3028 O 273.626 1.67181 -0.625518 0
M  V30 3029 C 270.726 3.13833 -1.27915 0
M  V30 3030 C 269.899 3.57753 -2.51658 0
M  V30 3031 C 268.958 4.74265 -2.27945 0
M  V30 3032 O 267.984 4.82852 -3.01401 0
M  V30 3033 N 269.186 5.65604 -1.30662 0
M  V30 3034 H 271.951 1.74567 -2.43612 0
M  V30 3035 H 269.512 0.820924 -1.39544 0
M  V30 3036 H 271.504 3.8949 -1.09907 0
M  V30 3037 H 270.074 3.10121 -0.39293 0
M  V30 3038 H 269.294 2.72362 -2.84978 0
M  V30 3039 H 270.582 3.83847 -3.33974 0
M  V30 3040 H 269.98 5.61354 -0.699844 0
M  V30 3041 H 268.537 6.40913 -1.18634 0
M  V30 3042 N 271.97 1.30982 0.876444 0
M  V30 3043 C 273.216 1.20474 1.63138 0
M  V30 3044 C 273.549 -0.238096 1.92735 0
M  V30 3045 O 272.824 -1.1692 1.55435 0
M  V30 3046 C 273.107 2.04244 2.96574 0
M  V30 3047 C 272.96 3.56793 2.73896 0
M  V30 3048 C 274.279 1.88684 3.97601 0
M  V30 3049 H 271.398 0.439001 0.591985 0
M  V30 3050 H 274.04 1.60704 1.01361 0
M  V30 3051 H 272.19 1.70063 3.493 0
M  V30 3052 H 273.862 4.01077 2.27892 0
M  V30 3053 H 272.105 3.80548 2.08245 0
M  V30 3054 H 272.776 4.10706 3.68815 0
M  V30 3055 H 275.252 2.18584 3.54062 0
M  V30 3056 H 274.128 2.4961 4.88862 0
M  V30 3057 H 274.389 0.848343 4.33884 0
M  V30 3058 N 273.449 -1.08991 1.13837 0
M  V30 3059 C 274.359 -2.19301 0.833333 0
M  V30 3060 C 275.375 -1.73026 -0.183847 0
M  V30 3061 O 276.551 -2.01395 -0.0138092 0
M  V30 3062 C 273.616 -3.45323 0.308651 0
M  V30 3063 C 272.677 -4.06255 1.38764 0
M  V30 3064 C 271.91 -5.26262 0.887896 0
M  V30 3065 O 272.133 -5.69747 -0.27287 0
M  V30 3066 O 271.067 -5.78435 1.66421 0
M  V30 3067 H 274.893 -2.47854 1.75506 0
M  V30 3068 H 272.478 -1.18012 0.916166 0
M  V30 3069 H 274.36 -4.21394 0.0216739 0
M  V30 3070 H 273.035 -3.18362 -0.585431 0
M  V30 3071 H 271.942 -3.318 1.72799 0
M  V30 3072 H 273.275 -4.37452 2.25602 0
M  V30 3073 N 274.927 -0.932562 -1.27047 0
M  V30 3074 C 275.875 -0.42603 -2.28665 0
M  V30 3075 C 276.869 0.49219 -1.62092 0
M  V30 3076 O 278.075 0.371355 -1.76128 0
M  V30 3077 H 274.45 -0.119213 -0.742491 0
M  V30 3078 H 276.421 -1.29579 -2.68797 0
M  V30 3079 C 275.17 0.301426 -3.46391 0
M  V30 3080 H 274.493 -0.39595 -3.97834 0
M  V30 3081 H 275.933 0.6202 -4.1944 0
M  V30 3082 C 274.392 1.51616 -3.00856 0
M  V30 3083 O 274.922 2.61476 -3.04948 0
M  V30 3084 N 273.128 1.36969 -2.56296 0
M  V30 3085 H 272.675 0.475873 -2.53166 0
M  V30 3086 H 272.633 2.18368 -2.26192 0
M  V30 3087 N 276.405 1.4127 -0.698611 0
M  V30 3088 C 277.315 2.34573 -0.0357891 0
M  V30 3089 C 278.331 1.56393 0.762701 0
M  V30 3090 O 279.507 1.8886 0.699564 0
M  V30 3091 C 276.572 3.35159 0.887089 0
M  V30 3092 C 275.633 4.29225 0.0804634 0
M  V30 3093 C 274.866 5.25006 0.959387 0
M  V30 3094 O 275.089 5.26314 2.19886 0
M  V30 3095 O 274.023 6.00519 0.407439 0
M  V30 3096 H 277.849 2.92838 -0.804957 0
M  V30 3097 H 275.434 1.42175 -0.458966 0
M  V30 3098 H 277.316 3.9689 1.41621 0
M  V30 3099 H 275.991 2.79333 1.6357 0
M  V30 3100 H 274.898 3.70833 -0.493328 0
M  V30 3101 H 276.231 4.88157 -0.629547 0
M  V30 3102 N 277.883 0.443576 1.51229 0
M  V30 3103 C 279.113 -0.119117 2.06256 0
M  V30 3104 C 279.521 -1.36471 1.31043 0
M  V30 3105 O 278.864 -1.80034 0.365151 0
M  V30 3106 C 278.926 -0.500546 3.55998 0
M  V30 3107 C 278.59 0.639125 4.52509 0
M  V30 3108 C 279.587 1.51311 4.97394 0
M  V30 3109 C 277.272 0.821632 4.95535 0
M  V30 3110 C 279.266 2.55425 5.83984 0
M  V30 3111 C 276.953 1.86603 5.81913 0
M  V30 3112 C 277.951 2.73072 6.26036 0
M  V30 3113 O 277.639 3.75718 7.10698 0
M  V30 3114 H 277.371 -0.00857665 0.675946 0
M  V30 3115 H 279.925 0.623288 1.95715 0
M  V30 3116 H 278.155 -1.29575 3.64345 0
M  V30 3117 H 279.844 -0.995116 3.93513 0
M  V30 3118 H 280.61 1.38367 4.64844 0
M  V30 3119 H 276.489 0.158149 4.60729 0
M  V30 3120 H 280.033 3.22949 6.18344 0
M  V30 3121 H 275.93 1.99564 6.13876 0
M  V30 3122 H 276.698 3.72374 7.2889 0
M  V30 3123 N 279.361 -1.56624 0.175154 0
M  V30 3124 C 280.609 -1.96609 -0.467885 0
M  V30 3125 C 280.93 -1.06238 -1.63519 0
M  V30 3126 O 280.2 -0.129523 -1.95471 0
M  V30 3127 H 278.78 -0.726008 -0.175845 0
M  V30 3128 H 281.442 -1.93195 0.257234 0
M  V30 3129 H 280.538 -3.00989 -0.825342 0
M  V30 3130 N 280.839 0.0985539 -1.57292 0
M  V30 3131 C 282.064 0.820196 -1.90493 0
M  V30 3132 C 282.489 1.71658 -0.769094 0
M  V30 3133 O 281.847 1.79133 0.279495 0
M  V30 3134 C 281.895 1.61242 -3.22542 0
M  V30 3135 O 280.999 2.72108 -3.09888 0
M  V30 3136 H 280.34 0.225547 -0.62452 0
M  V30 3137 H 282.87 0.0748159 -2.04463 0
M  V30 3138 H 282.88 1.99737 -3.55766 0
M  V30 3139 H 281.555 0.954535 -4.04798 0
M  V30 3140 H 280.132 2.36667 -2.88172 0
M  V30 3141 N 282.317 1.53212 0.369288 0
M  V30 3142 C 283.547 1.72868 1.13139 0
M  V30 3143 C 283.955 0.455754 1.83629 0
M  V30 3144 O 283.298 -0.580861 1.74275 0
M  V30 3145 C 283.36 2.83667 2.20847 0
M  V30 3146 C 283.024 4.24142 1.70155 0
M  V30 3147 C 284.021 5.06619 1.16763 0
M  V30 3148 C 281.706 4.70539 1.7578 0
M  V30 3149 C 283.7 6.33581 0.696678 0
M  V30 3150 C 281.387 5.97481 1.28297 0
M  V30 3151 C 282.385 6.78833 0.753307 0
M  V30 3152 O 282.073 8.03393 0.285475 0
M  V30 3153 H 281.805 0.581707 0.344373 0
M  V30 3154 H 284.359 2.00736 0.435243 0
M  V30 3155 H 282.589 2.51265 2.93944 0
M  V30 3156 H 284.278 2.91536 2.82421 0
M  V30 3157 H 285.044 4.71948 1.11758 0
M  V30 3158 H 280.923 4.07293 2.15949 0
M  V30 3159 H 284.467 6.97027 0.282581 0
M  V30 3160 H 280.364 6.31651 1.32994 0
M  V30 3161 H 281.132 8.17497 0.405145 0
M  V30 3162 N 283.795 -0.628877 1.44509 0
M  V30 3163 C 285.042 -1.38839 1.47411 0
M  V30 3164 C 285.37 -1.94202 0.10757 0
M  V30 3165 O 284.625 -1.74243 -0.890947 0
M  V30 3166 C 284.924 -2.56995 2.48371 0
M  V30 3167 C 284.59 -2.19908 3.93639 0
M  V30 3168 C 283.252 -2.09506 4.33198 0
M  V30 3169 C 285.604 -1.9064 4.85083 0
M  V30 3170 C 282.932 -1.68028 5.62124 0
M  V30 3171 C 285.284 -1.50655 6.14399 0
M  V30 3172 C 283.948 -1.38796 6.5291 0
M  V30 3173 H 283.218 -0.508048 0.539414 0
M  V30 3174 H 285.865 -0.712913 1.77735 0
M  V30 3175 H 284.17 -3.29786 2.11538 0
M  V30 3176 H 285.867 -3.15223 2.47861 0
M  V30 3177 H 282.457 -2.28922 3.62343 0
M  V30 3178 H 286.641 -1.97585 4.55273 0
M  V30 3179 H 281.897 -1.57452 5.90778 0
M  V30 3180 H 286.071 -1.27048 6.84713 0
M  V30 3181 H 283.698 -1.06429 7.52713 0
M  V30 3182 N 285.273 -1.31445 -0.869486 0
M  V30 3183 C 286.236 -1.19094 -1.9583 0
M  V30 3184 C 287.236 -0.117906 -1.60367 0
M  V30 3185 O 288.426 -0.367208 -1.70286 0
M  V30 3186 C 285.558 -0.828165 -3.30688 0
M  V30 3187 H 286.751 -2.15842 -2.08212 0
M  V30 3188 H 284.304 -1.15063 -1.05784 0
M  V30 3189 H 285.039 0.138142 -3.24006 0
M  V30 3190 H 284.824 -1.6038 -3.578 0
M  V30 3191 H 286.314 -0.765658 -4.10521 0
M  V30 3192 N 286.751 1.08385 -1.14413 0
M  V30 3193 C 287.991 1.8238 -0.922868 0
M  V30 3194 C 288.355 1.84225 0.540842 0
M  V30 3195 O 289.556 2.53985 0.880058 0
M  V30 3196 C 287.827 3.24048 -1.50757 0
M  V30 3197 S 289.386 4.14917 -1.4279 0
M  V30 3198 H 286.204 0.628524 -0.332384 0
M  V30 3199 H 288.806 1.30278 -1.45766 0
M  V30 3200 H 287.51 3.20288 -2.56601 0
M  V30 3201 H 287.041 3.81224 -0.971178 0
M  V30 3202 H 289.056 4.94473 -0.413582 0
M  V30 3203 N 288.23 0.939286 1.26551 0
M  V30 3204 C 289.507 0.5038 1.89001 0
M  V30 3205 C 289.887 -1.01854 1.84903 0
M  V30 3206 O 289.235 -1.87773 1.30206 0
M  V30 3207 C 289.445 1.063 3.32417 0
M  V30 3208 C 290.793 1.13051 4.09273 0
M  V30 3209 O 291.817 1.01345 3.41479 0
M  V30 3210 O 290.676 1.31233 5.30509 0
M  V30 3211 H 287.77 0.163897 0.810597 0
M  V30 3212 H 290.316 1.03173 1.34735 0
M  V30 3213 H 289.088 2.10665 3.29752 0
M  V30 3214 H 288.711 0.517408 3.94219 0
M  V30 3215 N 289.708 -1.40897 0.706093 0
M  V30 3216 C 290.955 -2.01054 0.241531 0
M  V30 3217 C 291.283 -1.55956 -1.16223 0
M  V30 3218 O 290.538 -0.766336 -1.80072 0
M  V30 3219 C 290.837 -3.5646 0.259099 0
M  V30 3220 C 290.503 -4.21106 1.61184 0
M  V30 3221 C 289.165 -4.38479 1.98216 0
M  V30 3222 C 291.517 -4.57256 2.50132 0
M  V30 3223 C 288.845 -4.89282 3.2376 0
M  V30 3224 C 291.197 -5.09454 3.7502 0
M  V30 3225 C 289.861 -5.25037 4.12181 0
M  V30 3226 H 289.131 -0.73571 0.0883825 0
M  V30 3227 H 291.778 -1.68645 0.907257 0
M  V30 3228 H 290.083 -3.88721 -0.490189 0
M  V30 3229 H 291.78 -4.00826 -0.11804 0
M  V30 3230 H 288.37 -4.07966 1.31384 0
M  V30 3231 H 292.554 -4.43479 2.228 0
M  V30 3232 H 287.81 -4.99531 3.52532 0
M  V30 3233 H 291.984 -5.36404 4.44121 0
M  V30 3234 H 289.611 -5.64164 5.09532 0
M  V30 3235 N 291.186 -0.45159 -1.50991 0
M  V30 3236 C 292.463 0.170707 -1.94854 0
M  V30 3237 C 292.843 1.58788 -1.39103 0
M  V30 3238 O 292.191 2.20913 -0.583921 0
M  V30 3239 C 292.401 0.133929 -3.48743 0
M  V30 3240 C 293.749 0.33248 -4.23296 0
M  V30 3241 O 294.773 0.211403 -3.55572 0
M  V30 3242 O 293.632 0.57486 -5.43468 0
M  V30 3243 H 290.726 0.122264 -0.817912 0
M  V30 3244 H 293.272 -0.510594 -1.61836 0
M  V30 3245 H 292.044 -0.856283 -3.81816 0
M  V30 3246 H 291.667 0.857529 -3.88242 0
M  V30 3247 N 292.664 1.56529 -0.183458 0
M  V30 3248 C 293.894 2.01331 0.463612 0
M  V30 3249 C 294.302 1.06278 1.5653 0
M  V30 3250 O 293.645 0.0577976 1.83609 0
M  V30 3251 C 293.707 3.42547 1.09096 0
M  V30 3252 C 293.371 4.56817 0.129442 0
M  V30 3253 C 294.368 5.15734 -0.656807 0
M  V30 3254 C 292.053 5.02295 0.02174 0
M  V30 3255 C 294.047 6.1857 -1.53784 0
M  V30 3256 C 291.734 6.04978 -0.862864 0
M  V30 3257 C 292.732 6.62988 -1.64123 0
M  V30 3258 O 292.42 7.63677 -2.51103 0
M  V30 3259 H 292.152 0.664917 0.121907 0
M  V30 3260 H 294.706 2.034 -0.285954 0
M  V30 3261 H 292.936 3.37428 1.88889 0
M  V30 3262 H 294.625 3.71228 1.64148 0
M  V30 3263 H 295.391 4.81473 -0.583839 0
M  V30 3264 H 291.27 4.56847 0.617392 0
M  V30 3265 H 294.814 6.63777 -2.14583 0
M  V30 3266 H 290.711 6.38663 -0.93699 0
M  V30 3267 H 291.479 7.81049 -2.44753 0
M  V30 3268 N 294.142 -0.090211 1.57342 0
M  V30 3269 C 295.072 -1.10976 2.05443 0
M  V30 3270 C 296.053 -1.41482 0.944284 0
M  V30 3271 O 297.238 -1.51428 1.21586 0
M  V30 3272 C 294.368 -2.42831 2.48295 0
M  V30 3273 C 293.322 -2.26721 3.63018 0
M  V30 3274 C 292.648 -3.63796 3.91863 0
M  V30 3275 C 293.948 -1.7037 4.93732 0
M  V30 3276 H 295.642 -0.709564 2.9087 0
M  V30 3277 H 293.188 -0.339874 1.39932 0
M  V30 3278 H 295.141 -3.14431 2.80555 0
M  V30 3279 H 293.865 -2.84795 1.59873 0
M  V30 3280 H 292.524 -1.57565 3.31012 0
M  V30 3281 H 292.172 -4.03297 3.00601 0
M  V30 3282 H 291.872 -3.53861 4.69101 0
M  V30 3283 H 293.396 -4.36855 4.26603 0
M  V30 3284 H 294.81 -2.31816 5.24342 0
M  V30 3285 H 293.207 -1.71181 5.75167 0
M  V30 3286 H 294.277 -0.663542 4.80339 0
M  V30 3287 N 295.62 -1.53406 -0.361157 0
M  V30 3288 C 297.036 -1.43277 -0.703124 0
M  V30 3289 C 297.236 -0.575384 -1.9311 0
M  V30 3290 O 296.292 -0.0595362 -2.5243 0
M  V30 3291 C 297.605 -2.8653 -0.9122 0
M  V30 3292 C 299.153 -2.96191 -1.01193 0
M  V30 3293 C 299.628 -4.40514 -1.25345 0
M  V30 3294 N 301.119 -4.43962 -1.32105 0
M  V30 3295 C 301.854 -5.52746 -1.5251 0
M  V30 3296 N 301.35 -6.71567 -1.70203 0
M  V30 3297 N 303.143 -5.40331 -1.54916 0
M  V30 3298 H 295.294 -2.07654 0.446475 0
M  V30 3299 H 297.557 -0.937944 0.137715 0
M  V30 3300 H 297.263 -3.51605 -0.0816414 0
M  V30 3301 H 297.137 -3.30441 -1.81903 0
M  V30 3302 H 299.524 -2.31266 -1.83303 0
M  V30 3303 H 299.605 -2.55667 -0.0823929 0
M  V30 3304 H 299.249 -5.06014 -0.437346 0
M  V30 3305 H 299.179 -4.78614 -2.19627 0
M  V30 3306 H 301.67 -3.58332 -1.20028 0
M  V30 3307 H 301.983 -7.50241 -1.85359 0
M  V30 3308 H 300.328 -6.74545 -1.67373 0
M  V30 3309 H 303.519 -4.46465 -1.40663 0
M  V30 3310 H 303.692 -6.25173 -1.70477 0
M  V30 3311 N 297.098 0.621204 -1.44841 0
M  V30 3312 C 298.345 1.38055 -1.48145 0
M  V30 3313 C 298.673 1.94143 -0.117867 0
M  V30 3314 O 297.928 1.74713 0.881694 0
M  V30 3315 C 298.227 2.55675 -2.4973 0
M  V30 3316 C 297.893 2.17817 -3.94799 0
M  V30 3317 C 296.555 2.07205 -4.34303 0
M  V30 3318 C 298.907 1.88065 -4.86087 0
M  V30 3319 C 296.235 1.65045 -5.63007 0
M  V30 3320 C 298.587 1.47394 -6.15189 0
M  V30 3321 C 297.251 1.35331 -6.53637 0
M  V30 3322 H 296.521 0.505181 -0.542101 0
M  V30 3323 H 299.168 0.703477 -1.78111 0
M  V30 3324 H 297.473 3.2866 -2.13284 0
M  V30 3325 H 299.17 3.13904 -2.4953 0
M  V30 3326 H 295.76 2.26998 -3.63552 0
M  V30 3327 H 299.944 1.95168 -4.56315 0
M  V30 3328 H 295.2 1.54317 -5.91605 0
M  V30 3329 H 299.374 1.23415 -6.85377 0
M  V30 3330 H 297.001 1.02435 -7.53267 0
M  V30 3331 N 298.576 1.31904 0.862503 0
M  V30 3332 C 299.506 1.22782 1.98612 0
M  V30 3333 C 300.487 0.113362 1.69722 0
M  V30 3334 O 301.672 0.299218 1.91881 0
M  V30 3335 C 298.802 0.942058 3.34279 0
M  V30 3336 C 297.756 2.0169 3.77499 0
M  V30 3337 C 297.082 1.58369 5.10709 0
M  V30 3338 C 298.382 3.43096 3.93805 0
M  V30 3339 H 300.076 2.16788 2.06502 0
M  V30 3340 H 297.622 1.04366 0.992154 0
M  V30 3341 H 299.575 0.864818 4.1243 0
M  V30 3342 H 298.299 -0.0336603 3.26583 0
M  V30 3343 H 296.958 2.08416 3.01593 0
M  V30 3344 H 296.606 0.595628 4.99461 0
M  V30 3345 H 296.306 2.30279 5.40597 0
M  V30 3346 H 297.83 1.52067 5.91361 0
M  V30 3347 H 299.244 3.39003 4.62331 0
M  V30 3348 H 297.641 4.13288 4.35101 0
M  V30 3349 H 298.711 3.83334 2.96957 0
M  V30 3350 N 300.054 -1.07777 1.14986 0
M  V30 3351 C 300.986 -2.14769 0.800436 0
M  V30 3352 C 301.999 -1.61739 -0.185595 0
M  V30 3353 O 303.188 -1.78462 0.0370358 0
M  V30 3354 C 300.288 -3.38481 0.168533 0
M  V30 3355 C 299.461 -4.20876 1.1909 0
M  V30 3356 C 298.52 -5.22976 0.581575 0
M  V30 3357 O 297.546 -5.55388 1.24633 0
M  V30 3358 N 298.748 -5.76976 -0.638706 0
M  V30 3359 H 301.513 -2.45348 1.72118 0
M  V30 3360 H 299.074 -1.23645 1.04515 0
M  V30 3361 H 301.066 -4.03916 -0.251764 0
M  V30 3362 H 299.636 -3.05651 -0.655467 0
M  V30 3363 H 298.856 -3.51322 1.78791 0
M  V30 3364 H 300.144 -4.7274 1.88133 0
M  V30 3365 H 299.542 -5.52886 -1.19723 0
M  V30 3366 H 298.099 -6.44061 -1.00142 0
M  V30 3367 N 301.532 -0.945985 -1.26051 0
M  V30 3368 C 302.479 -0.45809 -2.26208 0
M  V30 3369 C 303.449 0.484816 -1.58867 0
M  V30 3370 O 304.634 0.399969 -1.86561 0
M  V30 3371 C 301.774 0.266131 -3.44072 0
M  V30 3372 C 300.887 -0.713005 -4.26075 0
M  V30 3373 C 300.022 0.0329013 -5.3119 0
M  V30 3374 C 299.061 -0.93774 -6.04874 0
M  V30 3375 N 298.198 -0.223274 -7.01745 0
M  V30 3376 H 303.038 -1.3171 -2.67313 0
M  V30 3377 H 300.575 -0.66069 -1.31428 0
M  V30 3378 H 302.533 0.702514 -4.11243 0
M  V30 3379 H 301.163 1.08925 -3.03867 0
M  V30 3380 H 300.215 -1.26789 -3.58648 0
M  V30 3381 H 301.527 -1.45406 -4.77136 0
M  V30 3382 H 300.681 0.528335 -6.04395 0
M  V30 3383 H 299.42 0.806801 -4.8098 0
M  V30 3384 H 298.425 -1.44425 -5.30492 0
M  V30 3385 H 299.65 -1.71172 -6.57173 0
M  V30 3386 H 297.596 0.532046 -6.53839 0
M  V30 3387 H 297.513 -0.90357 -7.50581 0
M  V30 3388 H 298.781 0.250907 -7.79096 0
M  V30 3389 N 303.011 1.40521 -0.713556 0
M  V30 3390 C 304.427 1.54839 -0.386907 0
M  V30 3391 C 304.627 1.68532 1.1045 0
M  V30 3392 O 303.683 1.67377 1.89053 0
M  V30 3393 C 304.996 2.77792 -1.15118 0
M  V30 3394 C 306.544 2.91607 -1.13729 0
M  V30 3395 C 307.019 4.1747 -1.88368 0
M  V30 3396 N 308.51 4.24466 -1.85427 0
M  V30 3397 C 309.245 5.20755 -2.40004 0
M  V30 3398 N 308.741 6.22965 -3.03129 0
M  V30 3399 N 310.534 5.1282 -2.30158 0
M  V30 3400 H 302.685 1.29879 -1.68063 0
M  V30 3401 H 304.948 0.627896 -0.710247 0
M  V30 3402 H 304.654 2.73944 -2.20561 0
M  V30 3403 H 304.528 3.6984 -0.741477 0
M  V30 3404 H 306.915 2.94959 -0.0910608 0
M  V30 3405 H 306.996 2.00682 -1.5862 0
M  V30 3406 H 306.64 4.1488 -2.9298 0
M  V30 3407 H 306.57 5.074 -1.40898 0
M  V30 3408 H 309.061 3.51241 -1.3942 0
M  V30 3409 H 309.374 6.92859 -3.42295 0
M  V30 3410 H 307.719 6.23415 -3.07212 0
M  V30 3411 H 310.91 4.31899 -1.80501 0
M  V30 3412 H 311.083 5.87689 -2.72993 0
M  V30 3413 N 304.489 0.459591 1.5075 0
M  V30 3414 C 305.736 -0.0993495 2.02256 0
M  V30 3415 C 306.064 -1.40751 1.34237 0
M  V30 3416 O 305.319 -1.90379 0.453228 0
M  V30 3417 C 305.618 -0.342866 3.55752 0
M  V30 3418 C 305.284 0.88218 4.42186 0
M  V30 3419 C 303.946 1.21808 4.65528 0
M  V30 3420 C 306.298 1.69837 4.92752 0
M  V30 3421 C 303.626 2.37045 5.36681 0
M  V30 3422 C 305.978 2.84192 5.65171 0
M  V30 3423 C 304.642 3.1821 5.8677 0
M  V30 3424 H 303.912 -0.0363545 0.740108 0
M  V30 3425 H 306.559 0.611329 1.8148 0
M  V30 3426 H 304.864 -1.13567 3.7498 0
M  V30 3427 H 306.561 -0.789121 3.93159 0
M  V30 3428 H 303.151 0.610467 4.2423 0
M  V30 3429 H 307.335 1.45205 4.74583 0
M  V30 3430 H 302.591 2.63689 5.51614 0
M  V30 3431 H 306.765 3.4779 6.03337 0
M  V30 3432 H 304.392 4.07613 6.41682 0
M  V30 3433 N 305.967 -1.56429 0.191757 0
M  V30 3434 C 307.383 -1.58754 -0.164137 0
M  V30 3435 C 307.583 -1.20782 -1.61288 0
M  V30 3436 O 306.639 -0.928999 -2.34789 0
M  V30 3437 C 307.952 -3.00396 0.135195 0
M  V30 3438 C 309.5 -3.1291 0.0750351 0
M  V30 3439 C 309.975 -4.56679 0.347632 0
M  V30 3440 N 311.466 -4.62252 0.296131 0
M  V30 3441 C 312.201 -5.71379 0.480948 0
M  V30 3442 N 311.697 -6.88986 0.725933 0
M  V30 3443 N 313.49 -5.60563 0.415435 0
M  V30 3444 H 305.641 -1.79393 1.13718 0
M  V30 3445 H 307.904 -0.832414 0.453643 0
M  V30 3446 H 307.61 -3.32726 1.13958 0
M  V30 3447 H 307.484 -3.72963 -0.563773 0
M  V30 3448 H 309.871 -2.80394 -0.919948 0
M  V30 3449 H 309.952 -2.42736 0.807029 0
M  V30 3450 H 309.596 -4.89907 1.33992 0
M  V30 3451 H 309.526 -5.25039 -0.405212 0
M  V30 3452 H 312.017 -3.7773 0.113259 0
M  V30 3453 H 312.33 -7.68046 0.855857 0
M  V30 3454 H 310.675 -6.90801 0.762788 0
M  V30 3455 H 313.866 -4.67561 0.224486 0
M  V30 3456 H 314.039 -6.45551 0.562889 0
M  V30 3457 N 307.445 0.0818655 -1.57387 0
M  V30 3458 C 308.395 1.10501 -1.99433 0
M  V30 3459 C 309.379 1.35041 -0.874798 0
M  V30 3460 O 310.571 1.35511 -1.13868 0
M  V30 3461 C 307.7 2.42159 -2.43339 0
M  V30 3462 C 306.786 2.20937 -3.62005 0
M  V30 3463 N 307.177 1.69616 -4.76512 0
M  V30 3464 C 305.475 2.51451 -3.68359 0
M  V30 3465 C 306.176 1.62973 -5.58404 0
M  V30 3466 N 305.152 2.08664 -5.01956 0
M  V30 3467 H 308.954 0.701373 -2.85408 0
M  V30 3468 H 306.468 0.289096 -1.59806 0
M  V30 3469 H 308.465 3.16208 -2.71695 0
M  V30 3470 H 307.125 2.83249 -1.58746 0
M  V30 3471 H 308.136 1.38624 -4.99003 0
M  V30 3472 H 304.813 2.95975 -2.94457 0
M  V30 3473 H 306.203 1.24233 -6.60315 0
M  V30 3474 N 308.923 1.53595 0.353017 0
M  V30 3475 C 309.873 1.77299 1.43349 0
M  V30 3476 C 310.857 0.627884 1.48143 0
M  V30 3477 O 312.049 0.88697 1.53173 0
M  V30 3478 C 309.178 1.97757 2.80619 0
M  V30 3479 C 308.264 3.18305 2.80254 0
M  V30 3480 N 308.655 4.39967 2.49526 0
M  V30 3481 C 306.953 3.19283 3.11407 0
M  V30 3482 C 307.654 5.21772 2.57156 0
M  V30 3483 N 306.63 4.58269 2.92388 0
M  V30 3484 H 310.432 2.68963 1.18474 0
M  V30 3485 H 307.946 1.52391 0.561306 0
M  V30 3486 H 309.943 2.1287 3.58458 0
M  V30 3487 H 308.603 1.07329 3.06448 0
M  V30 3488 H 309.614 4.67482 2.22893 0
M  V30 3489 H 306.291 2.3879 3.4247 0
M  V30 3490 H 307.681 6.2885 2.36638 0
M  V30 3491 N 310.401 -0.613514 1.45168 0
M  V30 3492 C 311.331 -1.7354 1.56225 0
M  V30 3493 C 312.312 -1.64981 0.41414 0
M  V30 3494 O 313.497 -1.83472 0.636526 0
M  V30 3495 C 310.627 -3.12128 1.52295 0
M  V30 3496 C 309.581 -3.35491 2.65762 0
M  V30 3497 C 308.907 -4.74291 2.46885 0
M  V30 3498 C 310.207 -3.26325 4.0781 0
M  V30 3499 H 311.901 -1.64543 2.50132 0
M  V30 3500 H 309.447 -0.790185 1.20383 0
M  V30 3501 H 311.4 -3.90404 1.58628 0
M  V30 3502 H 310.124 -3.2195 0.549139 0
M  V30 3503 H 308.783 -2.59603 2.58847 0
M  V30 3504 H 308.431 -4.80839 1.47657 0
M  V30 3505 H 308.131 -4.9088 3.22972 0
M  V30 3506 H 309.655 -5.54775 2.55063 0
M  V30 3507 H 311.069 -3.94483 4.16 0
M  V30 3508 H 309.466 -3.54445 4.8424 0
M  V30 3509 H 310.536 -2.23855 4.30136 0
M  V30 3510 N 311.879 -1.3236 -0.855495 0
M  V30 3511 C 313.127 -1.22629 -1.60644 0
M  V30 3512 C 313.448 0.212136 -1.93843 0
M  V30 3513 O 312.718 1.13666 -1.59552 0
M  V30 3514 H 311.298 -0.450882 -0.595579 0
M  V30 3515 H 313.96 -1.65871 -1.02337 0
M  V30 3516 H 313.056 -1.80832 -2.54374 0
M  V30 3517 N 313.357 1.07166 -1.15556 0
M  V30 3518 C 314.634 1.76546 -0.842069 0
M  V30 3519 C 315.014 2.00453 0.661939 0
M  V30 3520 O 314.362 1.62452 1.60691 0
M  V30 3521 C 314.572 3.07266 -1.65495 0
M  V30 3522 C 315.92 3.81578 -1.86234 0
M  V30 3523 O 316.944 3.17083 -1.62287 0
M  V30 3524 O 315.803 4.97419 -2.26355 0
M  V30 3525 H 312.897 0.766756 -0.309862 0
M  V30 3526 H 315.443 1.13514 -1.26145 0
M  V30 3527 H 314.215 2.85494 -2.67598 0
M  V30 3528 H 313.838 3.7803 -1.23203 0
M  V30 3529 N 314.835 0.952656 1.25548 0
M  V30 3530 C 316.112 0.523818 1.88456 0
M  V30 3531 C 316.492 -0.998871 1.85973 0
M  V30 3532 O 315.84 -1.86381 1.3219 0
M  V30 3533 C 316.05 1.0982 3.31271 0
M  V30 3534 C 317.398 1.17385 4.08051 0
M  V30 3535 O 318.422 1.04961 3.40384 0
M  V30 3536 O 317.281 1.36852 5.29088 0
M  V30 3537 H 314.375 0.172485 0.808813 0
M  V30 3538 H 316.921 1.04596 1.33633 0
M  V30 3539 H 315.693 2.1415 3.27499 0
M  V30 3540 H 315.316 0.559191 3.93648 0
M  V30 3541 N 316.313 -1.40141 0.720998 0
M  V30 3542 C 317.559 -2.01084 0.263231 0
M  V30 3543 C 317.892 -1.57052 -1.14229 0
M  V30 3544 O 317.167 -0.793027 -1.77599 0
M  V30 3545 C 317.45 -3.58401 0.349344 0
M  V30 3546 C 317.303 -4.12491 1.79363 0
M  V30 3547 C 318.622 -4.39231 -0.276351 0
M  V30 3548 H 315.741 -0.730572 0.0971228 0
M  V30 3549 H 318.383 -1.66543 0.914518 0
M  V30 3550 H 316.533 -3.87958 -0.205165 0
M  V30 3551 H 318.205 -3.93711 2.40394 0
M  V30 3552 H 316.448 -3.66576 2.31958 0
M  V30 3553 H 317.119 -5.21646 1.80524 0
M  V30 3554 H 319.595 -4.15637 0.196184 0
M  V30 3555 H 318.471 -5.48586 -0.185681 0
M  V30 3556 H 318.732 -4.20643 -1.36059 0
M  V30 3557 N 317.792 -0.46758 -1.50504 0
M  V30 3558 C 319.038 0.0887532 -2.02606 0
M  V30 3559 C 319.371 1.39686 -1.34913 0
M  V30 3560 O 318.646 1.88644 -0.473694 0
M  V30 3561 C 318.929 0.276206 -3.59039 0
M  V30 3562 C 318.782 -1.05267 -4.37309 0
M  V30 3563 C 320.101 1.03235 -4.27821 0
M  V30 3564 H 317.22 0.0307814 -0.736357 0
M  V30 3565 H 319.862 -0.612485 -1.79857 0
M  V30 3566 H 318.012 0.8735 -3.78553 0
M  V30 3567 H 319.684 -1.68628 -4.29374 0
M  V30 3568 H 317.927 -1.65015 -4.01189 0
M  V30 3569 H 318.598 -0.875197 -5.45018 0
M  V30 3570 H 321.074 0.526111 -4.12761 0
M  V30 3571 H 319.95 1.1323 -5.37094 0
M  V30 3572 H 320.211 2.06806 -3.90748 0
M  V30 3573 N 319.27 1.56325 -0.20005 0
M  V30 3574 C 320.2 2.22318 0.713916 0
M  V30 3575 C 321.181 1.18788 1.21752 0
M  V30 3576 O 322.366 1.47309 1.26545 0
M  V30 3577 C 319.496 2.88639 1.93144 0
M  V30 3578 C 318.45 3.98457 1.56255 0
M  V30 3579 C 317.776 4.51967 2.85709 0
M  V30 3580 C 319.076 5.16612 0.768747 0
M  V30 3581 H 320.77 2.98952 0.163755 0
M  V30 3582 H 318.316 1.43792 0.0773219 0
M  V30 3583 H 320.269 3.33491 2.57608 0
M  V30 3584 H 318.993 2.09419 2.50621 0
M  V30 3585 H 317.652 3.54305 0.941471 0
M  V30 3586 H 317.3 3.69503 3.41287 0
M  V30 3587 H 317 5.26071 2.6177 0
M  V30 3588 H 318.524 4.99523 3.51154 0
M  V30 3589 H 319.938 5.57977 1.3166 0
M  V30 3590 H 318.335 5.96812 0.627286 0
M  V30 3591 H 319.405 4.84358 -0.229168 0
M  V30 3592 N 320.748 -0.0735177 1.57428 0
M  V30 3593 C 321.995 -0.772999 1.87166 0
M  V30 3594 C 322.323 -1.77665 0.791551 0
M  V30 3595 O 321.578 -1.94541 -0.212636 0
M  V30 3596 C 321.877 -1.51799 3.23561 0
M  V30 3597 C 321.543 -0.654484 4.46125 0
M  V30 3598 C 320.205 -0.416511 4.79394 0
M  V30 3599 C 322.557 -0.0555862 5.2117 0
M  V30 3600 C 319.885 0.429869 5.85123 0
M  V30 3601 C 322.237 0.778239 6.27795 0
M  V30 3602 C 320.901 1.0261 6.59566 0
M  V30 3603 H 320.171 -0.282861 0.684888 0
M  V30 3604 H 322.818 -0.0338272 1.9147 0
M  V30 3605 H 321.123 -2.32932 3.1504 0
M  V30 3606 H 322.82 -2.06397 3.43804 0
M  V30 3607 H 319.41 -0.850091 4.20085 0
M  V30 3608 H 323.594 -0.226558 4.95783 0
M  V30 3609 H 318.85 0.630665 6.08139 0
M  V30 3610 H 323.024 1.24906 6.85107 0
M  V30 3611 H 320.651 1.68371 7.4132 0
M  V30 3612 N 322.226 -1.5378 -0.344866 0
M  V30 3613 C 323.454 -1.74899 -1.10534 0
M  V30 3614 C 323.869 -0.487534 -1.82397 0
M  V30 3615 O 323.226 0.540741 -1.74305 0
M  V30 3616 C 323.277 -2.92822 -2.11984 0
M  V30 3617 O 322.998 -4.14089 -1.43044 0
M  V30 3618 C 324.499 -3.25982 -3.00417 0
M  V30 3619 H 321.719 -0.584426 -0.329678 0
M  V30 3620 H 324.263 -2.006 -0.397474 0
M  V30 3621 H 322.418 -2.69457 -2.78338 0
M  V30 3622 H 322.832 -4.80272 -2.10805 0
M  V30 3623 H 324.306 -4.11848 -3.67539 0
M  V30 3624 H 324.783 -2.42228 -3.66363 0
M  V30 3625 H 325.389 -3.51349 -2.39654 0
M  V30 3626 N 323.704 0.605807 -1.45491 0
M  V30 3627 C 324.932 1.39136 -1.5313 0
M  V30 3628 C 325.347 1.88082 -0.164507 0
M  V30 3629 O 324.704 1.62316 0.834247 0
M  V30 3630 C 324.755 2.59463 -2.51716 0
M  V30 3631 O 324.476 2.12551 -3.83084 0
M  V30 3632 C 325.977 3.52301 -2.6907 0
M  V30 3633 H 323.197 0.425849 -0.51855 0
M  V30 3634 H 325.741 0.73865 -1.90694 0
M  V30 3635 H 323.896 3.20772 -2.17219 0
M  V30 3636 H 324.31 2.90744 -4.36541 0
M  V30 3637 H 325.784 4.33271 -3.42024 0
M  V30 3638 H 326.261 4.02757 -1.75167 0
M  V30 3639 H 326.867 2.96845 -3.04571 0
M  V30 3640 N 325.182 1.32811 0.848464 0
M  V30 3641 C 326.459 1.14334 1.58704 0
M  V30 3642 C 326.839 -0.293948 2.09043 0
M  V30 3643 O 326.187 -1.29153 1.88499 0
M  V30 3644 C 326.397 2.17626 2.72837 0
M  V30 3645 C 327.745 2.51282 3.42261 0
M  V30 3646 O 328.769 2.16219 2.83068 0
M  V30 3647 O 327.628 3.11413 4.49093 0
M  V30 3648 H 324.722 0.441601 0.699226 0
M  V30 3649 H 327.268 1.44362 0.892053 0
M  V30 3650 H 326.04 3.14211 2.3321 0
M  V30 3651 H 325.663 1.88628 3.50008 0
M  V30 3652 N 326.66 -1.06551 1.16123 0
M  V30 3653 C 327.908 -1.78947 0.939267 0
M  V30 3654 C 328.229 -1.87532 -0.534476 0
M  V30 3655 O 327.499 -1.38211 -1.38833 0
M  V30 3656 H 326.079 -0.662807 0.344523 0
M  V30 3657 H 328.741 -1.28725 1.46342 0
M  V30 3658 H 327.837 -2.81117 1.35572 0
M  V30 3659 N 328.138 -0.959301 -1.25041 0
M  V30 3660 C 329.101 -0.487677 -2.23952 0
M  V30 3661 C 330.101 0.41119 -1.55454 0
M  V30 3662 O 331.291 0.207825 -1.72956 0
M  V30 3663 C 328.423 0.294807 -3.39623 0
M  V30 3664 H 329.616 -1.36198 -2.67189 0
M  V30 3665 H 327.169 -0.743042 -1.37508 0
M  V30 3666 H 327.904 1.18658 -3.01813 0
M  V30 3667 H 327.689 -0.35012 -3.90534 0
M  V30 3668 H 329.179 0.614089 -4.1306 0
M  V30 3669 N 329.616 1.39756 -0.72842 0
M  V30 3670 C 330.566 2.2792 -0.0603424 0
M  V30 3671 C 331.55 1.43922 0.719399 0
M  V30 3672 O 332.742 1.66895 0.589489 0
M  V30 3673 C 329.871 3.32582 0.851104 0
M  V30 3674 C 328.957 4.24049 0.0658641 0
M  V30 3675 N 329.348 4.96653 -0.957578 0
M  V30 3676 C 327.646 4.45013 0.296509 0
M  V30 3677 C 328.347 5.63836 -1.43052 0
M  V30 3678 N 327.323 5.38397 -0.750315 0
M  V30 3679 H 331.125 2.81504 -0.84455 0
M  V30 3680 H 328.639 1.5236 -0.562155 0
M  V30 3681 H 330.636 3.94603 1.34514 0
M  V30 3682 H 329.296 2.80558 1.63454 0
M  V30 3683 H 330.307 5.00297 -1.33877 0
M  V30 3684 H 326.984 4.03943 1.05527 0
M  V30 3685 H 328.374 6.31974 -2.28163 0
M  V30 3686 N 331.094 0.475555 1.50254 0
M  V30 3687 C 332.041 -0.316293 2.28622 0
M  V30 3688 C 333.011 -0.983227 1.33873 0
M  V30 3689 O 334.196 -0.994805 1.62814 0
M  V30 3690 C 331.336 -1.38975 3.1588 0
M  V30 3691 C 330.449 -0.737146 4.25664 0
M  V30 3692 C 329.584 -1.78887 5.00173 0
M  V30 3693 C 328.623 -1.11676 6.01826 0
M  V30 3694 N 327.76 -2.11154 6.69596 0
M  V30 3695 H 332.6 0.358297 2.95838 0
M  V30 3696 H 330.137 0.188541 1.45887 0
M  V30 3697 H 332.095 -2.02383 3.64825 0
M  V30 3698 H 330.725 -2.03344 2.50701 0
M  V30 3699 H 329.777 0.0096065 3.80399 0
M  V30 3700 H 331.089 -0.206816 4.98371 0
M  V30 3701 H 330.243 -2.49865 5.52859 0
M  V30 3702 H 328.982 -2.35302 4.27182 0
M  V30 3703 H 327.987 -0.392633 5.48396 0
M  V30 3704 H 329.212 -0.55945 6.76792 0
M  V30 3705 H 327.158 -2.66577 5.99394 0
M  V30 3706 H 327.075 -1.63118 7.38193 0
M  V30 3707 H 328.343 -2.81497 7.26897 0
M  V30 3708 N 332.573 -1.56217 0.208337 0
M  V30 3709 C 333.801 -2.02337 -0.43215 0
M  V30 3710 C 334.216 -1.08834 -1.54275 0
M  V30 3711 O 333.573 -0.0955462 -1.8225 0
M  V30 3712 C 333.624 -3.48072 -0.976138 0
M  V30 3713 O 333.345 -4.38007 0.0901621 0
M  V30 3714 C 334.846 -4.09773 -1.69119 0
M  V30 3715 H 332.066 -0.662385 -0.10718 0
M  V30 3716 H 334.61 -2.01966 0.320923 0
M  V30 3717 H 332.765 -3.49099 -1.67954 0
M  V30 3718 H 333.179 -5.23543 -0.316701 0
M  V30 3719 H 334.653 -5.13556 -2.02397 0
M  V30 3720 H 335.13 -3.53999 -2.59964 0
M  V30 3721 H 335.736 -4.12556 -1.03332 0
M  V30 3722 N 334.051 0.0651679 -1.57465 0
M  V30 3723 C 335.298 0.763063 -1.87573 0
M  V30 3724 C 335.626 1.77242 -0.800961 0
M  V30 3725 O 334.881 1.94651 0.202316 0
M  V30 3726 C 335.18 1.50081 -3.24362 0
M  V30 3727 C 334.846 0.630816 -4.46466 0
M  V30 3728 C 333.508 0.391082 -4.79608 0
M  V30 3729 C 335.86 0.0279465 -5.21193 0
M  V30 3730 C 333.188 -0.460894 -5.84887 0
M  V30 3731 C 335.54 -0.811522 -6.27373 0
M  V30 3732 C 334.204 -1.06106 -6.59013 0
M  V30 3733 H 333.474 0.279224 -0.686378 0
M  V30 3734 H 336.121 0.0236726 -1.91485 0
M  V30 3735 H 334.426 2.31258 -3.16271 0
M  V30 3736 H 336.123 2.04571 -3.44894 0
M  V30 3737 H 332.713 0.8278 -4.2053 0
M  V30 3738 H 336.897 0.200262 -4.95896 0
M  V30 3739 H 332.153 -0.662907 -6.07796 0
M  V30 3740 H 336.327 -1.28537 -6.84435 0
M  V30 3741 H 333.954 -1.723 -7.40417 0
M  V30 3742 N 335.529 1.53961 0.336706 0
M  V30 3743 C 336.459 1.85417 1.41925 0
M  V30 3744 C 337.44 0.709856 1.5458 0
M  V30 3745 O 338.625 0.962396 1.68676 0
M  V30 3746 C 335.755 2.06985 2.78881 0
M  V30 3747 C 334.709 3.22813 2.81026 0
M  V30 3748 C 334.035 3.29727 4.20932 0
M  V30 3749 C 335.335 4.60767 2.45949 0
M  V30 3750 H 337.029 2.76079 1.15848 0
M  V30 3751 H 334.575 1.32839 0.555859 0
M  V30 3752 H 336.528 2.27575 3.54665 0
M  V30 3753 H 335.252 1.13061 3.06406 0
M  V30 3754 H 333.911 3.0209 2.07695 0
M  V30 3755 H 333.559 2.33385 4.45579 0
M  V30 3756 H 333.259 4.07566 4.23277 0
M  V30 3757 H 334.783 3.52536 4.98549 0
M  V30 3758 H 336.197 4.81325 3.11446 0
M  V30 3759 H 334.594 5.4106 2.59566 0
M  V30 3760 H 335.664 4.6391 1.41122 0
M  V30 3761 N 337.007 -0.598083 1.45811 0
M  V30 3762 C 337.954 -1.7082 1.55207 0
M  V30 3763 C 338.924 -1.61278 0.39732 0
M  V30 3764 O 340.109 -1.80717 0.612038 0
M  V30 3765 C 337.249 -3.09144 1.53376 0
M  V30 3766 C 336.362 -3.29423 2.79472 0
M  V30 3767 C 335.497 -4.57907 2.69248 0
M  V30 3768 C 334.536 -4.71476 3.90354 0
M  V30 3769 N 333.673 -5.9127 3.78608 0
M  V30 3770 H 338.513 -1.62125 2.50039 0
M  V30 3771 H 336.05 -0.790389 1.24062 0
M  V30 3772 H 338.008 -3.89186 1.50301 0
M  V30 3773 H 336.638 -3.16773 0.620876 0
M  V30 3774 H 335.69 -2.43091 2.92594 0
M  V30 3775 H 337.002 -3.3532 3.69272 0
M  V30 3776 H 336.156 -5.46157 2.64192 0
M  V30 3777 H 334.895 -4.54423 1.77063 0
M  V30 3778 H 333.9 -3.81648 3.95759 0
M  V30 3779 H 335.125 -4.76751 4.83617 0
M  V30 3780 H 333.071 -5.88813 2.89199 0
M  V30 3781 H 332.988 -5.98369 4.6205 0
M  V30 3782 H 334.256 -6.81992 3.77501 0
M  V30 3783 N 338.485 -1.33259 -0.841409 0
M  V30 3784 C 339.725 -1.25902 -1.61022 0
M  V30 3785 C 340.089 0.173325 -1.91216 0
M  V30 3786 O 341.29 0.370824 -2.6623 0
M  V30 3787 C 339.561 -2.10735 -2.88662 0
M  V30 3788 S 341.12 -2.20541 -3.79351 0
M  V30 3789 H 337.938 -0.447958 -0.552137 0
M  V30 3790 H 340.54 -1.68263 -0.995382 0
M  V30 3791 H 339.244 -3.1384 -2.64448 0
M  V30 3792 H 338.775 -1.69201 -3.55154 0
M  V30 3793 H 340.79 -1.36462 -4.77067 0
M  V30 3794 N 339.963 1.05934 -1.16686 0
M  V30 3795 C 341.211 1.78447 -0.948744 0
M  V30 3796 C 341.532 1.87813 0.524523 0
M  V30 3797 O 340.802 1.38945 1.38098 0
M  V30 3798 H 339.382 0.660971 -0.348033 0
M  V30 3799 H 342.044 1.27947 -1.47022 0
M  V30 3800 H 341.14 2.80394 -1.37061 0
M  V30 3801 N 341.441 0.965919 1.2453 0
M  V30 3802 C 342.404 0.499547 2.2369 0
M  V30 3803 C 343.404 -0.40294 1.5567 0
M  V30 3804 O 344.594 -0.19865 1.73064 0
M  V30 3805 C 341.726 -0.276792 3.39774 0
M  V30 3806 H 342.919 1.37613 2.66463 0
M  V30 3807 H 340.472 0.750324 1.37112 0
M  V30 3808 H 341.207 -1.17055 3.02438 0
M  V30 3809 H 340.992 0.370826 3.90343 0
M  V30 3810 H 342.482 -0.592175 4.1338 0
M  V30 3811 N 342.919 -1.39368 0.735821 0
M  V30 3812 C 343.849 -2.33234 0.111506 0
M  V30 3813 C 344.83 -1.53954 -0.723334 0
M  V30 3814 O 346.015 -1.82344 -0.668147 0
M  V30 3815 C 343.145 -3.38057 -0.795917 0
M  V30 3816 C 342.099 -4.2795 -0.065172 0
M  V30 3817 C 341.425 -5.23479 -1.08967 0
M  V30 3818 C 342.725 -5.10741 1.09273 0
M  V30 3819 H 344.419 -2.85692 0.895571 0
M  V30 3820 H 341.965 -1.37364 0.432109 0
M  V30 3821 H 343.918 -4.02675 -1.24221 0
M  V30 3822 H 342.642 -2.8404 -1.61211 0
M  V30 3823 H 341.301 -3.64813 0.361511 0
M  V30 3824 H 340.949 -4.65758 -1.89944 0
M  V30 3825 H 340.649 -5.84472 -0.605489 0
M  V30 3826 H 342.173 -5.90974 -1.53565 0
M  V30 3827 H 343.587 -5.68699 0.724841 0
M  V30 3828 H 341.984 -5.8088 1.50659 0
M  V30 3829 H 343.054 -4.45525 1.91404 0
M  V30 3830 N 344.397 -0.483516 -1.5 0
M  V30 3831 C 345.329 0.340634 -2.26655 0
M  V30 3832 C 346.342 0.946152 -1.32483 0
M  V30 3833 O 347.531 0.832453 -1.579 0
M  V30 3834 C 344.631 1.4929 -3.04246 0
M  V30 3835 C 343.804 0.997903 -4.25865 0
M  V30 3836 C 342.863 2.02569 -4.85646 0
M  V30 3837 O 341.889 1.60128 -5.46212 0
M  V30 3838 N 343.091 3.3548 -4.73744 0
M  V30 3839 H 345.856 -0.316577 -2.98023 0
M  V30 3840 H 343.417 -0.315024 -1.58806 0
M  V30 3841 H 345.409 2.17766 -3.41116 0
M  V30 3842 H 343.979 2.05458 -2.35597 0
M  V30 3843 H 343.199 0.138617 -3.93956 0
M  V30 3844 H 344.487 0.645305 -5.04691 0
M  V30 3845 H 343.885 3.72661 -4.25605 0
M  V30 3846 H 342.442 3.99718 -5.14848 0
M  V30 3847 N 345.875 1.56104 -0.216619 0
M  V30 3848 C 347.123 1.97781 0.415593 0
M  V30 3849 C 347.444 1.10536 1.60645 0
M  V30 3850 O 346.714 0.181303 1.95059 0
M  V30 3851 H 345.294 0.730415 0.156534 0
M  V30 3852 H 347.956 1.92445 -0.308366 0
M  V30 3853 H 347.052 3.03072 0.74525 0
M  V30 3854 N 347.353 -0.0568162 1.57498 0
M  V30 3855 C 348.283 -1.06593 2.0775 0
M  V30 3856 C 349.264 -1.39448 0.974082 0
M  V30 3857 O 350.449 -1.48815 1.24771 0
M  V30 3858 C 347.579 -2.37509 2.5339 0
M  V30 3859 C 346.533 -2.1897 3.67745 0
M  V30 3860 C 345.859 -3.55402 3.99492 0
M  V30 3861 C 347.159 -1.59859 4.97235 0
M  V30 3862 H 348.853 -0.647706 2.9231 0
M  V30 3863 H 346.399 -0.310116 1.40621 0
M  V30 3864 H 348.352 -3.08409 2.87162 0
M  V30 3865 H 347.076 -2.8134 1.65878 0
M  V30 3866 H 345.735 -1.50508 3.3428 0
M  V30 3867 H 345.383 -3.9683 3.09088 0
M  V30 3868 H 345.083 -3.43831 4.76502 0
M  V30 3869 H 346.607 -4.27708 4.35773 0
M  V30 3870 H 348.021 -2.20642 5.29141 0
M  V30 3871 H 346.418 -1.58942 5.78669 0
M  V30 3872 H 347.488 -0.561506 4.81638 0
M  V30 3873 N 348.832 -1.54138 -0.328536 0
M  V30 3874 C 350.062 -1.75807 -1.08516 0
M  V30 3875 C 350.47 -0.50428 -1.82356 0
M  V30 3876 O 349.813 0.534451 -1.75754 0
M  V30 3877 C 349.875 -2.89423 -2.13248 0
M  V30 3878 C 349.539 -4.28504 -1.5885 0
M  V30 3879 C 350.536 -5.09536 -1.03289 0
M  V30 3880 C 348.221 -4.75034 -1.63243 0
M  V30 3881 C 350.215 -6.35206 -0.52845 0
M  V30 3882 C 347.902 -6.00672 -1.12411 0
M  V30 3883 C 348.9 -6.80592 -0.573062 0
M  V30 3884 O 348.588 -8.03867 -0.0723692 0
M  V30 3885 H 348.32 -0.590633 -0.328829 0
M  V30 3886 H 350.874 -2.01819 -0.381868 0
M  V30 3887 H 349.104 -2.5897 -2.87178 0
M  V30 3888 H 350.793 -2.98921 -2.74592 0
M  V30 3889 H 351.559 -4.74745 -0.99206 0
M  V30 3890 H 347.438 -4.12875 -2.05074 0
M  V30 3891 H 350.982 -6.97532 -0.0976774 0
M  V30 3892 H 346.879 -6.34955 -1.162 0
M  V30 3893 H 347.647 -8.18283 -0.188258 0
M  V30 3894 N 350.31 0.590341 -1.46126 0
M  V30 3895 C 351.538 1.37504 -1.54597 0
M  V30 3896 C 351.953 1.87897 -0.184447 0
M  V30 3897 O 351.31 1.63192 0.816984 0
M  V30 3898 C 351.361 2.56779 -2.54454 0
M  V30 3899 O 351.082 2.08476 -3.85317 0
M  V30 3900 C 352.583 3.49427 -2.72792 0
M  V30 3901 H 349.803 0.420325 -0.523037 0
M  V30 3902 H 352.347 0.718383 -1.91467 0
M  V30 3903 H 350.502 3.1845 -2.20609 0
M  V30 3904 H 350.916 2.86097 -4.396 0
M  V30 3905 H 352.39 4.29619 -3.466 0
M  V30 3906 H 352.867 4.00876 -1.79429 0
M  V30 3907 H 353.473 2.93598 -3.07702 0
M  V30 3908 N 351.788 1.33704 0.83433 0
M  V30 3909 C 353.016 1.28467 1.62185 0
M  V30 3910 C 353.431 -0.143526 1.88254 0
M  V30 3911 O 352.788 -1.08709 1.4659 0
M  V30 3912 C 352.839 2.06174 2.96942 0
M  V30 3913 O 352.56 3.43422 2.72016 0
M  V30 3914 C 354.061 2.08201 3.91366 0
M  V30 3915 H 351.281 0.4424 0.504503 0
M  V30 3916 H 353.825 1.76145 1.03891 0
M  V30 3917 H 351.98 1.62167 3.51825 0
M  V30 3918 H 352.394 3.83453 3.57861 0
M  V30 3919 H 353.868 2.67017 4.83121 0
M  V30 3920 H 354.345 1.07343 4.2588 0
M  V30 3921 H 354.951 2.52246 3.42421 0
M  V30 3922 N 353.266 -1.05314 1.17247 0
M  V30 3923 C 354.512 -1.78557 0.961513 0
M  V30 3924 C 354.845 -1.87419 -0.508697 0
M  V30 3925 O 354.12 -1.37307 -1.37757 0
M  V30 3926 C 354.403 -3.22514 1.60176 0
M  V30 3927 C 354.256 -3.21673 3.14399 0
M  V30 3928 C 355.575 -4.20318 1.30463 0
M  V30 3929 H 352.694 -0.6482 0.350723 0
M  V30 3930 H 355.336 -1.23102 1.44727 0
M  V30 3931 H 353.486 -3.69867 1.18871 0
M  V30 3932 H 355.158 -2.82405 3.64753 0
M  V30 3933 H 353.401 -2.60048 3.47214 0
M  V30 3934 H 354.072 -4.23271 3.54324 0
M  V30 3935 H 356.548 -3.81454 1.66229 0
M  V30 3936 H 355.424 -5.19289 1.77848 0
M  V30 3937 H 355.685 -4.41526 0.22521 0
M  V30 3938 N 354.744 -0.972509 -1.24016 0
M  V30 3939 C 356.021 -0.553733 -1.87598 0
M  V30 3940 C 356.401 0.969158 -1.87538 0
M  V30 3941 O 355.749 1.84255 -1.35139 0
M  V30 3942 C 355.959 -1.15076 -3.29482 0
M  V30 3943 C 357.307 -1.23862 -4.06132 0
M  V30 3944 O 358.331 -1.10363 -3.38672 0
M  V30 3945 O 357.19 -1.45252 -5.26844 0
M  V30 3946 H 354.284 -0.185331 -0.805966 0
M  V30 3947 H 356.83 -1.06709 -1.31952 0
M  V30 3948 H 355.602 -2.19333 -3.2405 0
M  V30 3949 H 355.225 -0.621746 -3.92709 0
M  V30 3950 N 356.222 1.38976 -0.743202 0
M  V30 3951 C 357.469 2.00343 -0.294752 0
M  V30 3952 C 357.797 1.58983 1.12047 0
M  V30 3953 O 357.052 0.813809 1.77977 0
M  V30 3954 C 357.351 3.55647 -0.353517 0
M  V30 3955 C 357.017 4.16685 -1.72292 0
M  V30 3956 C 355.679 4.3307 -2.09771 0
M  V30 3957 C 358.031 4.50464 -2.62168 0
M  V30 3958 C 355.359 4.80526 -3.36618 0
M  V30 3959 C 357.711 4.99332 -3.88395 0
M  V30 3960 C 356.375 5.13924 -4.25956 0
M  V30 3961 H 355.645 0.733108 -0.107857 0
M  V30 3962 H 358.292 1.6618 -0.951651 0
M  V30 3963 H 356.597 3.89884 0.386954 0
M  V30 3964 H 358.294 4.00998 0.0117269 0
M  V30 3965 H 354.884 4.04339 -1.42155 0
M  V30 3966 H 359.068 4.37416 -2.3448 0
M  V30 3967 H 354.324 4.90008 -3.65653 0
M  V30 3968 H 358.498 5.2444 -4.58187 0
M  V30 3969 H 356.125 5.50457 -5.2431 0
M  V30 3970 N 357.7 0.491464 1.49741 0
M  V30 3971 C 358.948 -0.0563141 2.02022 0
M  V30 3972 C 359.269 -1.38363 1.37407 0
M  V30 3973 O 358.539 -1.88702 0.526166 0
M  V30 3974 H 357.119 -0.0238014 0.746621 0
M  V30 3975 H 359.781 0.646533 1.83864 0
M  V30 3976 H 358.877 -0.192967 3.11503 0
M  V30 3977 N 359.178 -1.55987 0.224894 0
M  V30 3978 C 360.406 -2.02784 -0.410665 0
M  V30 3979 C 360.821 -1.10464 -1.53112 0
M  V30 3980 O 360.178 -0.114871 -1.82138 0
M  V30 3981 C 360.229 -3.49087 -0.939165 0
M  V30 3982 O 359.95 -4.37887 0.136614 0
M  V30 3983 C 361.451 -4.11543 -1.64763 0
M  V30 3984 H 358.671 -0.663484 -0.100148 0
M  V30 3985 H 361.215 -2.01614 0.342326 0
M  V30 3986 H 359.37 -3.50861 -1.64242 0
M  V30 3987 H 359.784 -5.23849 -0.261155 0
M  V30 3988 H 361.258 -5.15673 -1.96939 0
M  V30 3989 H 361.735 -3.56736 -2.56195 0
M  V30 3990 H 362.341 -4.13629 -0.989503 0
M  V30 3991 N 360.656 0.0484629 -1.57525 0
M  V30 3992 C 361.904 0.741657 -1.88 0
M  V30 3993 C 362.225 1.76918 -0.820054 0
M  V30 3994 O 361.495 1.95335 0.148661 0
M  V30 3995 H 360.075 0.276908 -0.69378 0
M  V30 3996 H 362.737 0.019013 -1.94891 0
M  V30 3997 H 361.833 1.24336 -2.86264 0
M  V30 3998 N 362.134 1.5431 0.320358 0
M  V30 3999 C 363.359 1.76954 1.08175 0
M  V30 4000 C 363.784 0.518193 1.80821 0
M  V30 4001 O 363.142 -0.530411 1.73368 0
M  V30 4002 C 363.19 2.96451 2.05303 0
M  V30 4003 O 362.294 2.68221 3.13259 0
M  V30 4004 H 361.635 0.586275 0.311733 0
M  V30 4005 H 364.165 2.01342 0.363676 0
M  V30 4006 H 364.175 3.23887 2.48116 0
M  V30 4007 H 362.85 3.87196 1.51829 0
M  V30 4008 H 361.427 2.51744 2.75099 0
M  V30 4009 N 363.613 -0.582584 1.46437 0
M  V30 4010 C 364.561 -1.71272 1.5738 0
M  V30 4011 C 365.555 -1.63524 0.44229 0
M  V30 4012 O 366.761 -1.69016 0.619166 0
M  V30 4013 H 363.136 -0.566273 0.494813 0
M  V30 4014 H 365.107 -1.59174 2.52401 0
M  V30 4015 C 363.856 -3.09658 1.58136 0
M  V30 4016 H 363.179 -3.16291 2.44541 0
M  V30 4017 H 364.619 -3.88494 1.69847 0
M  V30 4018 C 363.078 -3.3547 0.310026 0
M  V30 4019 O 363.608 -3.97199 -0.599683 0
M  V30 4020 N 361.814 -2.89925 0.197901 0
M  V30 4021 H 361.361 -2.39873 0.93909 0
M  V30 4022 H 361.319 -3.07568 -0.65185 0
M  V30 4023 N 365.091 -1.34144 -0.827227 0
M  V30 4024 C 366.34 -1.25602 -1.5782 0
M  V30 4025 C 366.653 0.173445 -1.94829 0
M  V30 4026 O 367.859 0.380984 -2.68814 0
M  V30 4027 C 366.315 -2.20151 -2.84713 0
M  V30 4028 C 365.923 -3.68331 -2.55021 0
M  V30 4029 C 367.667 -2.20508 -3.62735 0
M  V30 4030 C 365.574 -4.54762 -3.78082 0
M  V30 4031 H 364.504 -0.466573 -0.592306 0
M  V30 4032 H 367.155 -1.59283 -0.911116 0
M  V30 4033 H 365.537 -1.79417 -3.53023 0
M  V30 4034 H 366.711 -4.17577 -1.94849 0
M  V30 4035 H 365.026 -3.7038 -1.90283 0
M  V30 4036 H 367.623 -2.82306 -4.54101 0
M  V30 4037 H 367.966 -1.20322 -3.98533 0
M  V30 4038 H 368.499 -2.59664 -3.01362 0
M  V30 4039 H 365.238 -5.55867 -3.47407 0
M  V30 4040 H 364.758 -4.10254 -4.37552 0
M  V30 4041 H 366.437 -4.69153 -4.45538 0
M  V30 4042 N 366.569 1.04691 -1.17803 0
M  V30 4043 C 367.797 1.81446 -0.99423 0
M  V30 4044 C 368.212 1.83174 0.457459 0
M  V30 4045 O 367.569 1.26265 1.31771 0
M  V30 4046 C 367.62 3.27334 -1.5341 0
M  V30 4047 O 367.341 3.25798 -2.92895 0
M  V30 4048 C 368.842 4.20759 -1.39559 0
M  V30 4049 H 366.062 0.571599 -0.351447 0
M  V30 4050 H 368.606 1.31982 -1.56208 0
M  V30 4051 H 366.761 3.74052 -1.00815 0
M  V30 4052 H 367.175 4.17144 -3.17949 0
M  V30 4053 H 368.649 5.21084 -1.82141 0
M  V30 4054 H 369.126 4.37856 -0.343394 0
M  V30 4055 H 369.732 3.79901 -1.91195 0
M  V30 4056 N 368.047 0.979072 1.23499 0
M  V30 4057 C 369.324 0.563674 1.87302 0
M  V30 4058 C 369.704 -0.959199 1.88049 0
M  V30 4059 O 369.052 -1.83535 1.36114 0
M  V30 4060 C 369.262 1.16822 3.28867 0
M  V30 4061 C 370.61 1.26014 4.0547 0
M  V30 4062 O 371.634 1.12158 3.38082 0
M  V30 4063 O 370.493 1.48044 5.26066 0
M  V30 4064 H 367.587 0.189602 0.804972 0
M  V30 4065 H 370.133 1.07407 1.31384 0
M  V30 4066 H 368.905 2.21049 3.22883 0
M  V30 4067 H 368.528 0.642564 3.92373 0
M  V30 4068 N 369.525 -1.3858 0.750561 0
M  V30 4069 C 370.488 -2.28836 0.129152 0
M  V30 4070 C 371.488 -1.47045 -0.650714 0
M  V30 4071 O 372.678 -1.6753 -0.477428 0
M  V30 4072 C 369.81 -3.30751 -0.825622 0
M  V30 4073 H 371.003 -2.85294 0.924516 0
M  V30 4074 H 368.556 -1.47489 0.517376 0
M  V30 4075 H 369.291 -2.79378 -1.64677 0
M  V30 4076 H 369.076 -3.91177 -0.268852 0
M  V30 4077 H 370.566 -3.98249 -1.2565 0
M  V30 4078 N 371.003 -0.499398 -1.49478 0
M  V30 4079 C 372.25 0.0456899 -2.02448 0
M  V30 4080 C 372.578 1.37142 -1.37921 0
M  V30 4081 O 371.833 1.89111 -0.503544 0
M  V30 4082 C 372.132 0.248424 -3.56536 0
M  V30 4083 C 371.798 -0.999107 -4.39692 0
M  V30 4084 C 370.46 -1.34108 -4.62135 0
M  V30 4085 C 372.812 -1.82842 -4.88076 0
M  V30 4086 C 370.14 -2.51191 -5.30208 0
M  V30 4087 C 372.492 -2.99076 -5.57437 0
M  V30 4088 C 371.156 -3.33655 -5.78127 0
M  V30 4089 H 370.426 0.0167191 -0.740811 0
M  V30 4090 H 373.073 -0.65923 -1.79795 0
M  V30 4091 H 371.378 1.03586 -3.77859 0
M  V30 4092 H 373.075 0.684605 -3.95113 0
M  V30 4093 H 369.665 -0.722729 -4.22463 0
M  V30 4094 H 373.849 -1.57737 -4.70566 0
M  V30 4095 H 369.105 -2.78221 -5.44429 0
M  V30 4096 H 373.279 -3.63664 -5.93904 0
M  V30 4097 H 370.906 -4.24483 -6.30649 0
M  V30 4098 N 372.481 1.55866 -0.233164 0
M  V30 4099 C 373.411 2.23783 0.666599 0
M  V30 4100 C 374.392 1.21343 1.19205 0
M  V30 4101 O 375.577 1.4996 1.23392 0
M  V30 4102 C 372.707 2.92671 1.86978 0
M  V30 4103 C 371.661 4.01682 1.47768 0
M  V30 4104 C 370.987 4.57926 2.76058 0
M  V30 4105 C 372.287 5.18126 0.658993 0
M  V30 4106 H 373.981 2.99232 0.100306 0
M  V30 4107 H 371.527 1.43924 0.046804 0
M  V30 4108 H 373.48 3.3888 2.50476 0
M  V30 4109 H 372.204 2.14688 2.46123 0
M  V30 4110 H 370.863 3.56222 0.866106 0
M  V30 4111 H 370.511 3.76659 3.33372 0
M  V30 4112 H 370.211 5.31505 2.50552 0
M  V30 4113 H 371.735 5.06859 3.40479 0
M  V30 4114 H 373.149 5.60644 1.19795 0
M  V30 4115 H 371.546 5.98009 0.500552 0
M  V30 4116 H 372.616 4.83763 -0.331856 0
M  V30 4117 N 373.959 -0.0401083 1.57549 0
M  V30 4118 C 375.184 -0.748931 1.93406 0
M  V30 4119 C 375.609 -1.68686 0.832274 0
M  V30 4120 O 374.967 -1.80047 -0.212818 0
M  V30 4121 C 375.015 -1.4916 3.28304 0
M  V30 4122 O 374.119 -2.6042 3.19774 0
M  V30 4123 H 373.46 -0.202212 0.63246 0
M  V30 4124 H 375.99 0.00112086 2.046 0
M  V30 4125 H 376 -1.86395 3.62934 0
M  V30 4126 H 374.675 -0.80364 4.08062 0
M  V30 4127 H 373.252 -2.25808 2.96758 0
M  V30 4128 N 375.437 -1.54477 -0.31217 0
M  V30 4129 C 376.369 -1.81011 -1.40598 0
M  V30 4130 C 377.382 -0.692546 -1.47335 0
M  V30 4131 O 378.571 -0.969847 -1.49854 0
M  V30 4132 C 375.671 -1.92307 -2.79054 0
M  V30 4133 C 374.844 -3.22594 -2.95384 0
M  V30 4134 C 373.903 -3.24448 -4.1427 0
M  V30 4135 O 372.929 -3.98035 -4.06887 0
M  V30 4136 N 374.131 -2.49042 -5.24365 0
M  V30 4137 H 376.896 -2.75408 -1.18196 0
M  V30 4138 H 374.457 -1.53914 -0.502202 0
M  V30 4139 H 376.449 -1.90962 -3.56813 0
M  V30 4140 H 375.019 -1.04955 -2.94454 0
M  V30 4141 H 374.239 -3.36806 -2.04831 0
M  V30 4142 H 375.527 -4.08593 -3.03198 0
M  V30 4143 H 374.925 -1.88867 -5.33241 0
M  V30 4144 H 373.482 -2.53463 -6.005 0
M  V30 4145 N 376.915 0.57481 -1.46744 0
M  V30 4146 C 378.331 0.898981 -1.31873 0
M  V30 4147 C 378.531 1.99313 -0.29605 0
M  V30 4148 O 377.587 2.50728 0.298621 0
M  V30 4149 C 378.9 1.30886 -2.7072 0
M  V30 4150 C 380.448 1.42127 -2.78871 0
M  V30 4151 C 380.923 1.86478 -4.18318 0
M  V30 4152 N 382.414 1.93658 -4.20774 0
M  V30 4153 C 383.149 2.29267 -5.2557 0
M  V30 4154 N 382.645 2.63612 -6.40688 0
M  V30 4155 N 384.438 2.29889 -5.1294 0
M  V30 4156 H 376.589 -0.147839 -2.11885 0
M  V30 4157 H 378.852 -0.00347013 -0.947994 0
M  V30 4158 H 378.558 0.578853 -3.46904 0
M  V30 4159 H 378.432 2.26874 -3.01343 0
M  V30 4160 H 380.819 2.14213 -2.0297 0
M  V30 4161 H 380.9 0.443705 -2.51922 0
M  V30 4162 H 380.544 1.14968 -4.94717 0
M  V30 4163 H 380.474 2.85207 -4.42679 0
M  V30 4164 H 382.965 1.69574 -3.37718 0
M  V30 4165 H 383.278 2.89759 -7.16421 0
M  V30 4166 H 381.623 2.61232 -6.44036 0
M  V30 4167 H 384.814 2.02485 -4.22039 0
M  V30 4168 H 384.987 2.57312 -5.94722 0
M  V30 4169 N 378.394 1.34581 0.820102 0
M  V30 4170 C 379.341 1.2639 1.93117 0
M  V30 4171 C 380.311 0.138554 1.65521 0
M  V30 4172 O 381.496 0.320004 1.88097 0
M  V30 4173 C 378.636 1.02812 3.29429 0
M  V30 4174 C 377.749 2.24146 3.693 0
M  V30 4175 C 376.884 1.93829 4.94574 0
M  V30 4176 C 375.923 3.1129 5.27034 0
M  V30 4177 N 375.06 2.80838 6.43486 0
M  V30 4178 H 379.9 2.21408 1.99455 0
M  V30 4179 H 377.437 1.10077 0.975784 0
M  V30 4180 H 379.395 0.871788 4.0799 0
M  V30 4181 H 378.025 0.114612 3.22596 0
M  V30 4182 H 377.077 2.50691 2.86109 0
M  V30 4183 H 378.389 3.11899 3.89257 0
M  V30 4184 H 377.543 1.74948 5.80929 0
M  V30 4185 H 376.282 1.03341 4.76626 0
M  V30 4186 H 375.287 3.30764 4.39175 0
M  V30 4187 H 376.512 4.02561 5.4692 0
M  V30 4188 H 374.458 1.92929 6.26988 0
M  V30 4189 H 374.375 3.62123 6.63629 0
M  V30 4190 H 375.643 2.65467 7.32903 0
M  V30 4191 N 379.872 -1.04064 1.18357 0
M  V30 4192 C 381.112 -1.78829 0.989921 0
M  V30 4193 C 381.476 -1.86106 -0.472095 0
M  V30 4194 O 382.677 -2.57076 -0.785187 0
M  V30 4195 C 380.948 -3.1823 1.6268 0
M  V30 4196 S 382.507 -4.09332 1.58091 0
M  V30 4197 H 379.325 -0.615754 0.355482 0
M  V30 4198 H 381.927 -1.24778 1.50501 0
M  V30 4199 H 380.631 -3.10543 2.68311 0
M  V30 4200 H 380.162 -3.77357 1.112 0
M  V30 4201 H 382.177 -4.92598 0.596817 0
M  V30 4202 N 381.35 -0.985608 -1.22978 0
M  V30 4203 C 382.26 -0.538548 -2.28335 0
M  V30 4204 C 383.276 0.409163 -1.69121 0
M  V30 4205 O 384.452 0.277797 -1.99475 0
M  V30 4206 C 381.517 0.146867 -3.46389 0
M  V30 4207 C 380.578 -0.842896 -4.20944 0
M  V30 4208 C 379.811 -0.190095 -5.33361 0
M  V30 4209 O 380.034 1.01767 -5.61248 0
M  V30 4210 O 378.968 -0.891289 -5.95264 0
M  V30 4211 H 382.794 -1.41487 -2.68729 0
M  V30 4212 H 380.379 -0.753495 -1.29007 0
M  V30 4213 H 382.261 0.531125 -4.1804 0
M  V30 4214 H 380.936 0.997871 -3.07935 0
M  V30 4215 H 379.843 -1.27795 -3.51595 0
M  V30 4216 H 381.176 -1.66287 -4.6326 0
M  V30 4217 N 382.828 1.3818 -0.7579 0
M  V30 4218 C 384.239 1.82726 -0.383134 0
M  V30 4219 C 384.59 1.63214 1.08884 0
M  V30 4220 O 383.715 1.13566 1.84205 0
M  V30 4221 C 384.31 3.31728 -0.688631 0
M  V30 4222 C 382.869 3.74606 -0.367091 0
M  V30 4223 C 382.016 2.60896 -0.939599 0
M  V30 4224 H 384.967 1.26847 -0.953699 0
M  V30 4225 H 384.988 3.80487 0.0316492 0
M  V30 4226 H 384.5 3.45898 -1.76001 0
M  V30 4227 H 382.601 3.66013 0.697532 0
M  V30 4228 H 382.714 4.71215 -0.865658 0
M  V30 4229 H 381.078 2.52075 -0.3647 0
M  V30 4230 H 381.861 2.77864 -2.0161 0
M  V30 4231 N 384.306 0.507319 1.49211 0
M  V30 4232 C 385.253 -0.267728 2.29242 0
M  V30 4233 C 386.223 -0.954609 1.35928 0
M  V30 4234 O 387.408 -0.960046 1.64887 0
M  V30 4235 C 384.548 -1.32243 3.18756 0
M  V30 4236 C 383.661 -0.64669 4.27132 0
M  V30 4237 C 382.796 -1.68238 5.03855 0
M  V30 4238 C 381.835 -0.98885 6.0406 0
M  V30 4239 N 380.972 -1.96903 6.73924 0
M  V30 4240 H 385.812 0.420968 2.95012 0
M  V30 4241 H 383.349 0.219443 1.45454 0
M  V30 4242 H 385.307 -1.94599 3.69036 0
M  V30 4243 H 383.937 -1.97981 2.54958 0
M  V30 4244 H 382.989 0.0902926 3.80293 0
M  V30 4245 H 384.301 -0.101058 4.98698 0
M  V30 4246 H 383.455 -2.38081 5.58034 0
M  V30 4247 H 382.194 -2.26187 4.32077 0
M  V30 4248 H 381.199 -0.276222 5.49106 0
M  V30 4249 H 382.424 -0.415767 6.77826 0
M  V30 4250 H 380.37 -2.53803 6.04913 0
M  V30 4251 H 380.287 -1.47423 7.41487 0
M  V30 4252 H 381.555 -2.66015 7.32705 0
M  V30 4253 N 385.784 -1.5574 0.241426 0
M  V30 4254 C 387.032 -1.98417 -0.384075 0
M  V30 4255 C 387.353 -1.13078 -1.58866 0
M  V30 4256 O 386.623 -0.212312 -1.94746 0
M  V30 4257 H 385.203 -0.732813 -0.144894 0
M  V30 4258 H 387.865 -1.9193 0.338943 0
M  V30 4259 H 386.961 -3.04219 -0.696939 0
M  V30 4260 N 387.262 0.0317525 -1.57568 0
M  V30 4261 C 388.673 0.578692 -1.77505 0
M  V30 4262 C 389.024 1.75749 -0.872164 0
M  V30 4263 O 388.149 2.16298 -0.0663106 0
M  V30 4264 C 388.744 1.05658 -3.21904 0
M  V30 4265 C 387.303 1.54906 -3.43047 0
M  V30 4266 C 386.45 0.485939 -2.73009 0
M  V30 4267 H 389.401 -0.194475 -1.57504 0
M  V30 4268 H 389.422 1.92404 -3.28269 0
M  V30 4269 H 388.934 0.198422 -3.87592 0
M  V30 4270 H 387.035 2.42915 -2.82529 0
M  V30 4271 H 387.148 1.59841 -4.5165 0
M  V30 4272 H 385.512 0.940354 -2.36705 0
M  V30 4273 H 386.295 -0.362709 -3.41379 0
M  V30 4274 N 388.74 1.54641 0.303973 0
M  V30 4275 C 389.67 1.88386 1.3796 0
M  V30 4276 C 390.651 0.742485 1.5304 0
M  V30 4277 O 391.836 0.997959 1.66597 0
M  V30 4278 C 388.966 2.12854 2.74427 0
M  V30 4279 C 387.92 3.28702 2.74115 0
M  V30 4280 C 387.246 3.38582 4.13844 0
M  V30 4281 C 388.546 4.65881 2.3612 0
M  V30 4282 H 390.24 2.78474 1.09966 0
M  V30 4283 H 387.786 1.33988 0.527556 0
M  V30 4284 H 389.739 2.35047 3.49758 0
M  V30 4285 H 388.463 1.19535 3.03939 0
M  V30 4286 H 387.122 3.06428 2.0124 0
M  V30 4287 H 386.77 2.42784 4.40528 0
M  V30 4288 H 386.47 4.16453 4.14537 0
M  V30 4289 H 387.994 3.63031 4.90959 0
M  V30 4290 H 389.408 4.87823 3.01167 0
M  V30 4291 H 387.805 5.46444 2.48031 0
M  V30 4292 H 388.875 4.66799 1.3125 0
M  V30 4293 N 390.218 -0.567019 1.47046 0
M  V30 4294 C 391.467 -1.32091 1.5243 0
M  V30 4295 C 391.78 -1.94704 0.187021 0
M  V30 4296 O 392.986 -2.7124 0.118771 0
M  V30 4297 C 391.442 -2.39479 2.68659 0
M  V30 4298 C 391.05 -1.831 4.08874 0
M  V30 4299 C 392.794 -3.16111 2.83327 0
M  V30 4300 C 390.701 -2.8821 5.16419 0
M  V30 4301 H 389.631 -0.496629 0.56734 0
M  V30 4302 H 392.282 -0.603354 1.73297 0
M  V30 4303 H 390.664 -3.14105 2.41152 0
M  V30 4304 H 391.838 -1.14913 4.46242 0
M  V30 4305 H 390.153 -1.19085 3.99008 0
M  V30 4306 H 392.75 -3.94585 3.60842 0
M  V30 4307 H 393.093 -3.69686 1.91411 0
M  V30 4308 H 393.626 -2.48595 3.10556 0
M  V30 4309 H 390.365 -2.39504 6.10179 0
M  V30 4310 H 389.885 -3.54839 4.8358 0
M  V30 4311 H 391.564 -3.51881 5.42945 0
M  V30 4312 N 391.696 -1.35014 -0.812953 0
M  V30 4313 C 392.644 -1.27435 -1.94585 0
M  V30 4314 C 393.638 -0.170494 -1.6854 0
M  V30 4315 O 394.844 -0.336085 -1.76835 0
M  V30 4316 H 391.219 -0.396144 -0.639198 0
M  V30 4317 H 393.19 -2.23158 -1.98098 0
M  V30 4318 C 391.939 -1.05677 -3.31252 0
M  V30 4319 H 391.262 -1.89853 -3.51846 0
M  V30 4320 H 392.702 -1.04413 -4.10943 0
M  V30 4321 C 391.161 0.239615 -3.36047 0
M  V30 4322 O 391.691 1.23759 -3.8216 0
M  V30 4323 N 389.897 0.276186 -2.89285 0
M  V30 4324 H 389.444 -0.53653 -2.51951 0
M  V30 4325 H 389.402 1.14332 -2.92875 0
M  V30 4326 N 393.175 1.03435 -1.18907 0
M  V30 4327 C 394.4 1.80919 -1.01406 0
M  V30 4328 C 394.825 1.83055 0.432721 0
M  V30 4329 O 394.183 1.25252 1.31079 0
M  V30 4330 C 394.231 3.24091 -1.58105 0
M  V30 4331 O 393.335 4.04434 -0.806669 0
M  V30 4332 H 392.676 0.558709 -0.358803 0
M  V30 4333 H 395.206 1.30223 -1.57807 0
M  V30 4334 H 395.216 3.74853 -1.61087 0
M  V30 4335 H 393.891 3.21851 -2.6341 0
M  V30 4336 H 392.468 3.63091 -0.849666 0
M  V30 4337 N 394.653 0.992116 1.22453 0
M  V30 4338 C 395.563 0.55065 2.28046 0
M  V30 4339 C 396.579 -0.400189 1.69335 0
M  V30 4340 O 397.755 -0.267215 1.99619 0
M  V30 4341 C 394.82 -0.128496 3.46462 0
M  V30 4342 C 393.881 0.865208 4.20491 0
M  V30 4343 C 393.114 0.218377 5.33253 0
M  V30 4344 O 393.337 -0.987894 5.6178 0
M  V30 4345 O 392.271 0.922845 5.94783 0
M  V30 4346 H 396.097 1.4291 2.67975 0
M  V30 4347 H 393.682 0.760326 1.28606 0
M  V30 4348 H 395.564 -0.508947 4.18315 0
M  V30 4349 H 394.239 -0.981526 3.0846 0
M  V30 4350 H 393.146 1.29658 3.50913 0
M  V30 4351 H 394.479 1.68741 4.62371 0
M  V30 4352 N 396.131 -1.37776 0.765217 0
M  V30 4353 C 397.378 -1.99849 0.326588 0
M  V30 4354 C 397.706 -1.60746 -1.09504 0
M  V30 4355 O 396.961 -0.84202 -1.76659 0
M  V30 4356 C 397.26 -3.5504 0.410053 0
M  V30 4357 C 396.926 -4.13891 1.78899 0
M  V30 4358 C 395.588 -4.29678 2.16635 0
M  V30 4359 C 397.94 -4.46236 2.69301 0
M  V30 4360 C 395.268 -4.7511 3.44221 0
M  V30 4361 C 397.62 -4.93089 3.9629 0
M  V30 4362 C 396.284 -5.07082 4.34078 0
M  V30 4363 H 395.554 -0.7313 0.119507 0
M  V30 4364 H 398.201 -1.64645 0.977968 0
M  V30 4365 H 396.506 -3.90451 -0.324878 0
M  V30 4366 H 398.203 -4.00966 0.0520699 0
M  V30 4367 H 394.793 -4.02026 1.48569 0
M  V30 4368 H 398.977 -4.3363 2.41409 0
M  V30 4369 H 394.233 -4.84129 3.73402 0
M  V30 4370 H 398.407 -5.17084 4.66472 0
M  V30 4371 H 396.034 -5.42046 5.33001 0
M  V30 4372 N 397.609 -0.515225 -1.4894 0
M  V30 4373 C 398.839 0.0205735 -2.0659 0
M  V30 4374 C 399.247 1.30064 -1.37405 0
M  V30 4375 O 398.59 1.78087 -0.450632 0
M  V30 4376 C 398.652 0.330124 -3.57981 0
M  V30 4377 C 398.316 -0.854295 -4.48944 0
M  V30 4378 C 399.313 -1.7487 -4.89609 0
M  V30 4379 C 396.998 -1.05712 -4.9105 0
M  V30 4380 C 398.992 -2.82996 -5.71132 0
M  V30 4381 C 396.679 -2.14154 -5.72347 0
M  V30 4382 C 397.677 -3.0263 -6.12294 0
M  V30 4383 O 397.365 -4.09198 -6.91962 0
M  V30 4384 H 397.097 -0.0236833 -0.675585 0
M  V30 4385 H 399.651 -0.715956 -1.92518 0
M  V30 4386 H 397.881 1.12044 -3.70112 0
M  V30 4387 H 399.57 0.806233 -3.97812 0
M  V30 4388 H 400.336 -1.60388 -4.57712 0
M  V30 4389 H 396.215 -0.377788 -4.59449 0
M  V30 4390 H 399.759 -3.52083 -6.02232 0
M  V30 4391 H 395.656 -2.28626 -6.03656 0
M  V30 4392 H 396.424 -4.06726 -7.10293 0
M  V30 4393 N 399.087 1.5561 -0.249682 0
M  V30 4394 C 400.315 2.03411 0.378352 0
M  V30 4395 C 400.73 1.12886 1.51335 0
M  V30 4396 O 400.087 0.143833 1.81932 0
M  V30 4397 C 400.138 3.50537 0.88351 0
M  V30 4398 O 399.859 4.37614 -0.20626 0
M  V30 4399 C 401.36 4.14113 1.58195 0
M  V30 4400 H 398.58 0.664994 0.08958 0
M  V30 4401 H 401.124 2.01044 -0.374357 0
M  V30 4402 H 399.279 3.5343 1.58639 0
M  V30 4403 H 399.693 5.24199 0.177782 0
M  V30 4404 H 401.167 5.18741 1.8871 0
M  V30 4405 H 401.644 3.60767 2.50487 0
M  V30 4406 H 402.25 4.15151 0.923573 0
M  V30 4407 N 400.565 -0.0233959 1.57583 0
M  V30 4408 C 401.813 -0.711654 1.89156 0
M  V30 4409 C 402.134 -1.75591 0.848096 0
M  V30 4410 O 401.404 -1.95547 -0.117566 0
M  V30 4411 H 399.984 -0.265835 0.698098 0
M  V30 4412 H 402.646 0.0119948 1.94896 0
M  V30 4413 H 401.742 -1.19766 2.88206 0
M  V30 4414 N 402.043 -1.548 -0.295768 0
M  V30 4415 C 403.289 -1.75517 -1.02789 0
M  V30 4416 C 403.644 -0.537266 -1.84746 0
M  V30 4417 O 402.937 0.470299 -1.85738 0
M  V30 4418 C 403.131 -2.98797 -1.961 0
M  V30 4419 C 402.96 -4.3246 -1.23321 0
M  V30 4420 C 401.73 -4.96131 -0.95822 0
M  V30 4421 C 403.928 -5.10365 -0.635024 0
M  V30 4422 N 401.91 -6.1357 -0.201257 0
M  V30 4423 C 403.281 -6.19999 -0.0110937 0
M  V30 4424 C 405.336 -4.94957 -0.540594 0
M  V30 4425 C 404.039 -7.15904 0.698136 0
M  V30 4426 C 406.065 -5.91197 0.154992 0
M  V30 4427 C 405.427 -7.00203 0.767752 0
M  V30 4428 H 401.526 -0.694786 -0.358882 0
M  V30 4429 H 404.11 -1.92281 -0.305943 0
M  V30 4430 H 402.281 -2.83448 -2.6554 0
M  V30 4431 H 404.013 -3.08017 -2.62502 0
M  V30 4432 H 400.768 -4.56595 -1.25771 0
M  V30 4433 H 401.192 -6.76802 0.16389 0
M  V30 4434 H 405.834 -4.10803 -1.00003 0
M  V30 4435 H 403.552 -7.99595 1.16933 0
M  V30 4436 H 407.138 -5.81353 0.228069 0
M  V30 4437 H 406.018 -7.73393 1.29743 0
M  V30 4438 N 403.521 0.559213 -1.47345 0
M  V30 4439 C 404.451 1.67622 -1.62558 0
M  V30 4440 C 405.432 1.63331 -0.475087 0
M  V30 4441 O 406.617 1.80983 -0.704182 0
M  V30 4442 C 403.747 3.0626 -1.63774 0
M  V30 4443 C 402.701 3.25397 -2.7803 0
M  V30 4444 C 402.027 4.64801 -2.64318 0
M  V30 4445 C 403.327 3.10965 -4.19641 0
M  V30 4446 H 405.021 1.55146 -2.56067 0
M  V30 4447 H 402.567 0.744961 -1.23233 0
M  V30 4448 H 404.52 3.84247 -1.73008 0
M  V30 4449 H 403.244 3.1969 -0.66825 0
M  V30 4450 H 401.903 2.49817 -2.68304 0
M  V30 4451 H 401.551 4.75028 -1.65401 0
M  V30 4452 H 401.251 4.78555 -3.40968 0
M  V30 4453 H 402.775 5.44926 -2.75478 0
M  V30 4454 H 404.189 3.78772 -4.30354 0
M  V30 4455 H 402.586 3.36229 -4.97062 0
M  V30 4456 H 403.656 2.07736 -4.38148 0
M  V30 4457 N 404.999 1.35443 0.805782 0
M  V30 4458 C 406.276 1.19325 1.54987 0
M  V30 4459 C 406.656 -0.227294 2.09873 0
M  V30 4460 O 406.004 -1.2309 1.92512 0
M  V30 4461 C 406.214 2.26196 2.65775 0
M  V30 4462 C 407.562 2.62043 3.34094 0
M  V30 4463 O 408.586 2.25115 2.76046 0
M  V30 4464 O 407.445 3.25542 4.38958 0
M  V30 4465 H 404.539 0.463623 0.684823 0
M  V30 4466 H 407.085 1.47127 0.845674 0
M  V30 4467 H 405.857 3.21471 2.23096 0
M  V30 4468 H 405.48 1.99667 3.43829 0
M  V30 4469 N 406.477 -1.02803 1.19454 0
M  V30 4470 C 407.427 -2.0945 0.900827 0
M  V30 4471 C 408.411 -1.60335 -0.134715 0
M  V30 4472 O 409.603 -1.76857 0.0710924 0
M  V30 4473 C 406.732 -3.4044 0.442229 0
M  V30 4474 C 405.818 -3.96286 1.51056 0
M  V30 4475 N 406.209 -4.25785 2.73021 0
M  V30 4476 C 404.507 -4.24307 1.37404 0
M  V30 4477 C 405.208 -4.70654 3.41848 0
M  V30 4478 N 404.184 -4.72238 2.69243 0
M  V30 4479 H 407.986 -2.3015 1.82779 0
M  V30 4480 H 405.5 -1.20672 1.08683 0
M  V30 4481 H 407.497 -4.16354 0.21326 0
M  V30 4482 H 406.157 -3.21159 -0.478238 0
M  V30 4483 H 407.168 -4.15041 3.09776 0
M  V30 4484 H 403.845 -4.14285 0.517103 0
M  V30 4485 H 405.235 -5.02392 4.46152 0
M  V30 4486 N 407.956 -0.998596 -1.21925 0
M  V30 4487 C 409.202 -0.688337 -1.91399 0
M  V30 4488 C 409.557 0.771805 -1.76241 0
M  V30 4489 O 408.85 1.55153 -1.1242 0
M  V30 4490 C 409.044 -1.03648 -3.42041 0
M  V30 4491 C 408.873 -2.52892 -3.71855 0
M  V30 4492 C 407.643 -3.19389 -3.91559 0
M  V30 4493 C 409.841 -3.5103 -3.75875 0
M  V30 4494 N 407.823 -4.5805 -4.08734 0
M  V30 4495 C 409.194 -4.75174 -3.98259 0
M  V30 4496 C 411.249 -3.45257 -3.58751 0
M  V30 4497 C 409.952 -5.94247 -4.05294 0
M  V30 4498 C 411.978 -4.63712 -3.67049 0
M  V30 4499 C 411.34 -5.86658 -3.89887 0
M  V30 4500 H 407.439 -0.303251 -0.720807 0
M  V30 4501 H 410.023 -1.27977 -1.46731 0
M  V30 4502 H 408.194 -0.473569 -3.85502 0
M  V30 4503 H 409.926 -0.681619 -3.98919 0
M  V30 4504 H 406.681 -2.69846 -3.89205 0
M  V30 4505 H 407.105 -5.29989 -4.21237 0
M  V30 4506 H 411.747 -2.51215 -3.40075 0
M  V30 4507 H 409.465 -6.88687 -4.22772 0
M  V30 4508 H 413.051 -4.6084 -3.5513 0
M  V30 4509 H 411.931 -6.76786 -3.96144 0
M  V30 4510 N 409.434 1.37368 -0.772513 0
M  V30 4511 C 410.682 1.99279 -0.336516 0
M  V30 4512 C 411.003 1.6163 1.09091 0
M  V30 4513 O 410.273 0.882109 1.74916 0
M  V30 4514 H 408.853 0.737063 -0.121435 0
M  V30 4515 H 411.515 1.67836 -0.990809 0
M  V30 4516 H 410.611 3.09332 -0.414763 0
M  V30 4517 N 410.912 0.523116 1.48665 0
M  V30 4518 C 411.844 -0.280421 2.27478 0
M  V30 4519 C 412.857 -0.910694 1.34945 0
M  V30 4520 O 414.046 -0.790295 1.60052 0
M  V30 4521 C 411.146 -1.41171 3.08097 0
M  V30 4522 C 410.319 -0.884642 4.28361 0
M  V30 4523 C 409.378 -1.89622 4.90846 0
M  V30 4524 O 408.404 -1.4559 5.50265 0
M  V30 4525 N 409.606 -3.22801 4.82472 0
M  V30 4526 H 412.371 0.395481 2.97079 0
M  V30 4527 H 409.932 0.357018 1.57915 0
M  V30 4528 H 411.924 -2.08645 3.4677 0
M  V30 4529 H 410.494 -1.99139 2.40961 0
M  V30 4530 H 409.714 -0.0341177 3.94185 0
M  V30 4531 H 411.002 -0.511268 5.06225 0
M  V30 4532 H 410.4 -3.61246 4.35336 0
M  V30 4533 H 408.957 -3.85927 5.25265 0
M  V30 4534 N 412.39 -1.55475 0.257931 0
M  V30 4535 C 413.801 -1.8511 -0.243135 0
M  V30 4536 C 414.152 -1.17986 -1.5676 0
M  V30 4537 O 413.277 -0.462102 -2.11409 0
M  V30 4538 C 413.872 -3.35826 -0.447929 0
M  V30 4539 C 412.431 -3.65647 -0.893245 0
M  V30 4540 C 411.578 -2.7729 0.0232965 0
M  V30 4541 H 414.529 -1.51261 0.480199 0
M  V30 4542 H 414.55 -3.58002 -1.28898 0
M  V30 4543 H 414.062 -3.84652 0.516196 0
M  V30 4544 H 412.163 -3.22308 -1.86945 0
M  V30 4545 H 412.276 -4.73312 -0.742469 0
M  V30 4546 H 410.64 -2.49942 -0.490021 0
M  V30 4547 H 411.423 -3.28926 0.982994 0
M  V30 4548 N 413.868 0.0150385 -1.57593 0
M  V30 4549 C 414.818 1.01943 -2.0394 0
M  V30 4550 C 415.802 1.31209 -0.931286 0
M  V30 4551 O 416.994 1.30559 -1.19513 0
M  V30 4552 C 414.123 2.31621 -2.53391 0
M  V30 4553 C 413.209 2.05384 -3.7105 0
M  V30 4554 N 413.6 1.49253 -4.83278 0
M  V30 4555 C 411.898 2.35601 -3.78693 0
M  V30 4556 C 412.599 1.39143 -5.64813 0
M  V30 4557 N 411.575 1.87187 -5.10355 0
M  V30 4558 H 415.377 0.57969 -2.88126 0
M  V30 4559 H 412.891 0.221056 -1.60888 0
M  V30 4560 H 414.888 3.044 -2.84862 0
M  V30 4561 H 413.548 2.76261 -1.70616 0
M  V30 4562 H 414.559 1.17334 -5.04433 0
M  V30 4563 H 411.236 2.8322 -3.06746 0
M  V30 4564 H 412.626 0.961153 -6.6499 0
M  V30 4565 N 415.346 1.54954 0.287554 0
M  V30 4566 C 416.571 1.79209 1.04397 0
M  V30 4567 C 416.996 0.556431 1.79682 0
M  V30 4568 O 416.354 -0.493518 1.74454 0
M  V30 4569 C 416.402 3.00739 1.98969 0
M  V30 4570 O 415.506 2.74805 3.075 0
M  V30 4571 H 414.847 0.592755 0.299227 0
M  V30 4572 H 417.377 2.02068 0.320886 0
M  V30 4573 H 417.387 3.29077 2.4119 0
M  V30 4574 H 416.062 3.90329 1.43582 0
M  V30 4575 H 414.639 2.57523 2.69697 0
M  V30 4576 N 416.824 -0.551391 1.4764 0
M  V30 4577 C 418.052 -1.33357 1.58189 0
M  V30 4578 C 418.467 -1.87342 0.234199 0
M  V30 4579 O 417.824 -1.65301 -0.77343 0
M  V30 4580 C 417.875 -2.49942 2.61173 0
M  V30 4581 O 417.596 -1.98187 3.90709 0
M  V30 4582 C 419.097 -3.42072 2.8196 0
M  V30 4583 H 416.317 -0.40631 0.533998 0
M  V30 4584 H 418.861 -0.667367 1.93304 0
M  V30 4585 H 417.016 -3.12489 2.28975 0
M  V30 4586 H 417.43 -2.74342 4.47031 0
M  V30 4587 H 418.904 -4.20278 3.57869 0
M  V30 4588 H 419.381 -3.95978 1.89995 0
M  V30 4589 H 419.987 -2.85336 3.15378 0
M  V30 4590 N 418.302 -1.35869 -0.798587 0
M  V30 4591 C 419.551 -1.28921 -1.5512 0
M  V30 4592 C 419.864 0.13208 -1.95154 0
M  V30 4593 O 421.07 0.323879 -2.69561 0
M  V30 4594 C 419.526 -2.26141 -2.79979 0
M  V30 4595 C 419.134 -3.73658 -2.47151 0
M  V30 4596 C 420.878 -2.28152 -3.57976 0
M  V30 4597 C 418.785 -4.62679 -3.6835 0
M  V30 4598 H 417.715 -0.479031 -0.582276 0
M  V30 4599 H 420.366 -1.61179 -0.877125 0
M  V30 4600 H 418.748 -1.86865 -3.49138 0
M  V30 4601 H 419.922 -4.21616 -1.85947 0
M  V30 4602 H 418.237 -3.74333 -1.82383 0
M  V30 4603 H 420.834 -2.91875 -4.4801 0
M  V30 4604 H 421.177 -1.28748 -3.95891 0
M  V30 4605 H 421.71 -2.65998 -2.95787 0
M  V30 4606 H 418.449 -5.63111 -3.35538 0
M  V30 4607 H 417.969 -4.19442 -4.28752 0
M  V30 4608 H 419.648 -4.78498 -4.35487 0
M  V30 4609 N 419.78 1.02168 -1.19998 0
M  V30 4610 C 420.727 2.10601 -0.944228 0
M  V30 4611 C 421.697 1.65639 0.123664 0
M  V30 4612 O 422.882 1.9079 -0.0199941 0
M  V30 4613 C 420.022 3.41504 -0.496865 0
M  V30 4614 C 419.135 3.99973 -1.63234 0
M  V30 4615 C 418.27 5.18915 -1.13579 0
M  V30 4616 C 417.309 5.69456 -2.24468 0
M  V30 4617 N 416.446 6.79665 -1.76068 0
M  V30 4618 H 421.286 2.31814 -1.8726 0
M  V30 4619 H 418.823 1.13686 -0.933483 0
M  V30 4620 H 420.781 4.16626 -0.218843 0
M  V30 4621 H 419.411 3.2038 0.394508 0
M  V30 4622 H 418.463 3.21997 -2.0254 0
M  V30 4623 H 419.775 4.33492 -2.46752 0
M  V30 4624 H 418.929 6.01222 -0.813429 0
M  V30 4625 H 417.668 4.8695 -0.270434 0
M  V30 4626 H 416.673 4.85757 -2.57526 0
M  V30 4627 H 417.898 6.03459 -3.11472 0
M  V30 4628 H 415.844 6.49538 -0.918516 0
M  V30 4629 H 415.761 7.12349 -2.5317 0
M  V30 4630 H 417.029 7.65549 -1.46817 0
M  V30 4631 N 421.258 1.00505 1.21394 0
M  V30 4632 C 422.486 0.706609 1.9446 0
M  V30 4633 C 422.901 -0.73081 1.74082 0
M  V30 4634 O 422.258 -1.49446 1.04747 0
M  V30 4635 C 422.309 1.01824 3.46863 0
M  V30 4636 O 422.03 2.39919 3.66566 0
M  V30 4637 C 423.531 0.739216 4.37093 0
M  V30 4638 H 420.751 0.260394 0.618414 0
M  V30 4639 H 423.295 1.34311 1.54211 0
M  V30 4640 H 421.45 0.427343 3.85036 0
M  V30 4641 H 421.864 2.50784 4.6066 0
M  V30 4642 H 423.338 1.00744 5.42729 0
M  V30 4643 H 423.815 -0.326746 4.37983 0
M  V30 4644 H 424.421 1.31173 4.04566 0
M  V30 4645 N 422.737 -1.36956 0.779787 0
M  V30 4646 C 423.647 -2.33965 0.172491 0
M  V30 4647 C 424.663 -1.60574 -0.670222 0
M  V30 4648 O 425.839 -1.92617 -0.588263 0
M  V30 4649 C 422.904 -3.39761 -0.690173 0
M  V30 4650 C 421.965 -4.28964 0.169924 0
M  V30 4651 C 421.198 -5.29707 -0.651662 0
M  V30 4652 O 421.421 -5.38238 -1.88827 0
M  V30 4653 O 420.355 -6.01873 -0.0566264 0
M  V30 4654 H 424.181 -2.87647 0.974321 0
M  V30 4655 H 421.766 -1.39258 0.541078 0
M  V30 4656 H 423.648 -4.04471 -1.1824 0
M  V30 4657 H 422.323 -2.88394 -1.47006 0
M  V30 4658 H 421.23 -3.67326 0.708696 0
M  V30 4659 H 422.563 -4.83656 0.913085 0
M  V30 4660 N 424.215 -0.530993 -1.48385 0
M  V30 4661 C 425.178 0.220497 -2.28137 0
M  V30 4662 C 426.178 0.866851 -1.35434 0
M  V30 4663 O 427.368 0.726746 -1.58316 0
M  V30 4664 C 424.5 1.31921 -3.1434 0
M  V30 4665 H 425.693 -0.479714 -2.96038 0
M  V30 4666 H 423.246 -0.286968 -1.53643 0
M  V30 4667 H 423.981 2.05264 -2.51072 0
M  V30 4668 H 423.766 0.86085 -3.82533 0
M  V30 4669 H 425.256 1.84776 -3.74497 0
M  V30 4670 N 425.693 1.55336 -0.266172 0
M  V30 4671 C 426.939 1.99692 0.353681 0
M  V30 4672 C 427.272 1.1543 1.56172 0
M  V30 4673 O 426.547 0.222218 1.93226 0
M  V30 4674 C 426.83 3.52316 0.74466 0
M  V30 4675 C 426.683 4.47337 -0.470101 0
M  V30 4676 C 428.002 4.10588 1.58447 0
M  V30 4677 H 425.121 0.725961 0.12708 0
M  V30 4678 H 427.763 1.86336 -0.371333 0
M  V30 4679 H 425.913 3.63829 1.36239 0
M  V30 4680 H 427.585 4.4778 -1.10864 0
M  V30 4681 H 425.828 4.19364 -1.10978 0
M  V30 4682 H 426.499 5.51788 -0.15291 0
M  V30 4683 H 428.975 4.02297 1.06286 0
M  V30 4684 H 427.851 5.17607 1.82686 0
M  V30 4685 H 428.112 3.60253 2.56262 0
M  V30 4686 N 427.171 -0.0066808 1.57599 0
M  V30 4687 C 428.134 -0.985035 2.06953 0
M  V30 4688 C 429.134 -1.27663 0.977687 0
M  V30 4689 O 430.324 -1.22293 1.24057 0
M  V30 4690 C 427.456 -2.3118 2.50536 0
M  V30 4691 H 428.649 -0.558255 2.94658 0
M  V30 4692 H 426.202 -0.254011 1.54222 0
M  V30 4693 H 426.937 -2.78561 1.66054 0
M  V30 4694 H 426.722 -2.11338 3.3027 0
M  V30 4695 H 428.212 -3.01377 2.8907 0
M  V30 4696 N 428.649 -1.55105 -0.279332 0
M  V30 4697 C 429.874 -1.7976 -1.03446 0
M  V30 4698 C 430.299 -0.565952 -1.79384 0
M  V30 4699 O 429.657 0.484259 -1.74713 0
M  V30 4700 C 429.705 -3.0179 -1.97371 0
M  V30 4701 O 428.809 -2.76432 -3.06038 0
M  V30 4702 H 428.15 -0.594334 -0.29608 0
M  V30 4703 H 430.68 -2.02235 -0.310165 0
M  V30 4704 H 430.69 -3.30351 -2.39441 0
M  V30 4705 H 429.365 -3.91085 -1.4151 0
M  V30 4706 H 427.942 -2.58949 -2.68328 0
M  V30 4707 N 430.127 0.543554 -1.4793 0
M  V30 4708 C 431.352 1.32995 -1.59145 0
M  V30 4709 C 431.777 1.86472 -0.246956 0
M  V30 4710 O 431.135 1.63696 0.779324 0
M  V30 4711 C 431.183 2.46623 -2.63077 0
M  V30 4712 O 430.287 3.49261 -2.19295 0
M  V30 4713 H 429.628 0.394472 -0.534124 0
M  V30 4714 H 432.158 0.655489 -1.93816 0
M  V30 4715 H 432.168 2.93001 -2.83926 0
M  V30 4716 H 430.843 2.07059 -3.60693 0
M  V30 4717 H 429.42 3.09094 -2.08603 0
M  V30 4718 N 431.605 1.3629 0.791371 0
M  V30 4719 C 432.535 1.33137 1.91825 0
M  V30 4720 C 433.516 0.203168 1.68882 0
M  V30 4721 O 434.701 0.400509 1.90025 0
M  V30 4722 C 431.831 1.11793 3.28816 0
M  V30 4723 C 430.785 2.21417 3.66277 0
M  V30 4724 C 430.111 1.85218 5.01596 0
M  V30 4725 C 431.411 3.63489 3.75064 0
M  V30 4726 H 433.105 2.2743 1.9472 0
M  V30 4727 H 430.651 1.09479 0.935437 0
M  V30 4728 H 432.604 1.08222 4.07266 0
M  V30 4729 H 431.328 0.139501 3.26302 0
M  V30 4730 H 429.987 2.2411 2.90121 0
M  V30 4731 H 429.635 0.859544 4.95602 0
M  V30 4732 H 429.335 2.58611 5.27631 0
M  V30 4733 H 430.859 1.832 5.82469 0
M  V30 4734 H 432.273 3.63034 4.43711 0
M  V30 4735 H 430.67 4.35771 4.12582 0
M  V30 4736 H 431.74 3.98536 2.76219 0
M  V30 4737 N 433.083 -1.0153 1.20538 0
M  V30 4738 C 434.313 -1.78487 1.04048 0
M  V30 4739 C 434.721 -1.84631 -0.413292 0
M  V30 4740 O 434.064 -1.29919 -1.29872 0
M  V30 4741 C 434.126 -3.24367 1.55003 0
M  V30 4742 C 433.79 -3.41827 3.0332 0
M  V30 4743 C 434.787 -3.30941 4.00966 0
M  V30 4744 C 432.472 -3.67602 3.42307 0
M  V30 4745 C 434.466 -3.45577 5.35589 0
M  V30 4746 C 432.153 -3.81881 4.77085 0
M  V30 4747 C 433.151 -3.70874 5.73534 0
M  V30 4748 O 432.839 -3.84714 7.05868 0
M  V30 4749 H 432.571 -0.568108 0.366373 0
M  V30 4750 H 435.125 -1.28677 1.60098 0
M  V30 4751 H 433.355 -3.75266 0.933397 0
M  V30 4752 H 435.044 -3.82963 1.34514 0
M  V30 4753 H 435.81 -3.10964 3.72191 0
M  V30 4754 H 431.689 -3.75256 2.67776 0
M  V30 4755 H 435.233 -3.36902 6.10854 0
M  V30 4756 H 431.13 -4.01359 5.0555 0
M  V30 4757 H 431.898 -4.01724 7.13134 0
M  V30 4758 N 434.561 -1.01147 -1.20859 0
M  V30 4759 C 435.838 -0.613136 -1.85742 0
M  V30 4760 C 436.218 0.909004 -1.90526 0
M  V30 4761 O 435.566 1.79862 -1.40932 0
M  V30 4762 C 435.776 -1.255 -3.25654 0
M  V30 4763 C 437.124 -1.3672 -4.01986 0
M  V30 4764 O 438.148 -1.21082 -3.34989 0
M  V30 4765 O 437.007 -1.6194 -5.21956 0
M  V30 4766 H 434.101 -0.210878 -0.799662 0
M  V30 4767 H 436.647 -1.10853 -1.2849 0
M  V30 4768 H 435.419 -2.29532 -3.16908 0
M  V30 4769 H 435.042 -0.746369 -3.90532 0
M  V30 4770 N 436.039 1.36541 -0.78704 0
M  V30 4771 C 437.288 1.98552 -0.35494 0
M  V30 4772 C 437.601 1.63171 1.07864 0
M  V30 4773 O 438.807 2.18399 1.61289 0
M  V30 4774 C 437.263 3.55136 -0.583671 0
M  V30 4775 C 436.871 3.99444 -2.02851 0
M  V30 4776 C 438.615 4.2395 -0.215957 0
M  V30 4777 C 436.522 5.48796 -2.20403 0
M  V30 4778 H 435.452 0.742888 -0.128972 0
M  V30 4779 H 438.103 1.5587 -0.968337 0
M  V30 4780 H 436.485 3.95875 0.0994046 0
M  V30 4781 H 437.659 3.6991 -2.74779 0
M  V30 4782 H 435.974 3.43459 -2.35425 0
M  V30 4783 H 438.571 5.33709 -0.325405 0
M  V30 4784 H 438.914 4.07827 0.835646 0
M  V30 4785 H 439.447 3.88565 -0.852175 0
M  V30 4786 H 436.186 5.69864 -3.23937 0
M  V30 4787 H 435.706 5.79964 -1.52977 0
M  V30 4788 H 437.385 6.14986 -2.01002 0
M  V30 4789 N 437.518 0.538854 1.48102 0
M  V30 4790 C 438.448 -0.207654 2.32575 0
M  V30 4791 C 439.429 -0.926559 1.4265 0
M  V30 4792 O 440.614 -0.91061 1.71527 0
M  V30 4793 C 437.744 -1.24957 3.24042 0
M  V30 4794 C 436.698 -0.648263 4.23062 0
M  V30 4795 C 436.024 -1.79348 5.03725 0
M  V30 4796 C 437.324 0.385897 5.20872 0
M  V30 4797 H 439.018 0.497534 2.95237 0
M  V30 4798 H 436.564 0.240715 1.41974 0
M  V30 4799 H 438.517 -1.77983 3.81969 0
M  V30 4800 H 437.241 -1.98446 2.59397 0
M  V30 4801 H 435.9 -0.139452 3.66335 0
M  V30 4802 H 435.548 -2.51696 4.35498 0
M  V30 4803 H 435.248 -1.39702 5.70751 0
M  V30 4804 H 436.772 -2.32735 5.64506 0
M  V30 4805 H 438.186 -0.057607 5.73271 0
M  V30 4806 H 436.583 0.700227 5.96001 0
M  V30 4807 H 437.653 1.28848 4.67468 0
M  V30 4808 N 438.996 -1.55193 0.274407 0
M  V30 4809 C 439.959 -2.212 -0.600279 0
M  V30 4810 C 440.959 -1.18963 -1.08187 0
M  V30 4811 O 442.149 -1.43873 -0.982158 0
M  V30 4812 C 439.281 -2.87739 -1.82809 0
M  V30 4813 H 440.474 -2.9989 -0.0239682 0
M  V30 4814 H 438.027 -1.5628 0.0250192 0
M  V30 4815 H 438.762 -2.13058 -2.44493 0
M  V30 4816 H 438.547 -3.62658 -1.49069 0
M  V30 4817 H 440.037 -3.38171 -2.45011 0
M  V30 4818 N 440.474 -0.00167713 -1.576 0
M  V30 4819 C 441.89 0.354422 -1.55615 0
M  V30 4820 C 442.09 1.74679 -1.00447 0
M  V30 4821 O 441.146 2.4428 -0.639022 0
M  V30 4822 C 442.459 0.22812 -2.99833 0
M  V30 4823 C 444.007 0.302934 -3.11531 0
M  V30 4824 C 444.482 0.205737 -4.57538 0
M  V30 4825 N 445.973 0.263584 -4.62449 0
M  V30 4826 C 446.708 0.211742 -5.73009 0
M  V30 4827 N 446.204 0.110399 -6.92712 0
M  V30 4828 N 447.997 0.263729 -5.61481 0
M  V30 4829 H 440.148 -0.912498 -1.918 0
M  V30 4830 H 442.411 -0.349928 -0.881053 0
M  V30 4831 H 442.117 -0.729934 -3.44042 0
M  V30 4832 H 441.991 1.00951 -3.6344 0
M  V30 4833 H 444.378 1.25143 -2.67251 0
M  V30 4834 H 444.459 -0.508357 -2.50698 0
M  V30 4835 H 444.103 -0.739225 -5.02492 0
M  V30 4836 H 444.033 1.03554 -5.16318 0
M  V30 4837 H 446.524 0.343173 -3.76339 0
M  V30 4838 H 446.837 0.0767828 -7.72762 0
M  V30 4839 H 445.182 0.0760025 -6.94958 0
M  V30 4840 H 448.373 0.34111 -4.66855 0
M  V30 4841 H 448.546 0.219862 -6.47627 0
M  V30 4842 N 441.952 1.55251 0.271103 0
M  V30 4843 C 443.2 1.75599 1.00047 0
M  V30 4844 C 443.521 0.561188 1.8675 0
M  V30 4845 O 442.791 -0.423846 1.9126 0
M  V30 4846 H 441.371 0.647562 0.372387 0
M  V30 4847 H 444.033 1.92656 0.294876 0
M  V30 4848 H 443.129 2.65766 1.6363 0
M  V30 4849 N 443.43 -0.535701 1.48216 0
M  V30 4850 C 444.393 -1.623 1.61838 0
M  V30 4851 C 445.393 -1.53087 0.492024 0
M  V30 4852 O 446.583 -1.5686 0.757668 0
M  V30 4853 C 443.715 -3.01907 1.58319 0
M  V30 4854 H 444.908 -1.51564 2.58783 0
M  V30 4855 H 442.461 -0.757317 1.36727 0
M  V30 4856 H 443.196 -3.18155 0.628299 0
M  V30 4857 H 442.981 -3.10003 2.40085 0
M  V30 4858 H 444.471 -3.80969 1.71033 0
M  V30 4859 N 444.908 -1.36708 -0.784132 0
M  V30 4860 C 446.133 -1.34565 -1.5782 0
M  V30 4861 C 446.558 0.0695257 -1.87971 0
M  V30 4862 O 445.916 1.04302 -1.48293 0
M  V30 4863 C 445.964 -2.17952 -2.87279 0
M  V30 4864 O 445.068 -1.57563 -3.81114 0
M  V30 4865 H 444.409 -0.460337 -0.478524 0
M  V30 4866 H 446.939 -1.80064 -0.971495 0
M  V30 4867 H 446.949 -2.30721 -3.365 0
M  V30 4868 H 445.624 -3.20823 -2.64661 0
M  V30 4869 H 444.201 -1.53764 -3.39722 0
M  V30 4870 N 446.386 1.0089 -1.21074 0
M  V30 4871 C 447.632 1.74866 -1.02712 0
M  V30 4872 C 447.965 1.89178 0.438787 0
M  V30 4873 O 447.24 1.42325 1.32567 0
M  V30 4874 C 447.523 3.16347 -1.72036 0
M  V30 4875 C 447.376 3.09782 -3.26121 0
M  V30 4876 C 448.695 4.15187 -1.45973 0
M  V30 4877 H 445.814 0.634736 -0.374539 0
M  V30 4878 H 448.456 1.17646 -1.49196 0
M  V30 4879 H 446.606 3.65201 -1.32517 0
M  V30 4880 H 448.278 2.68673 -3.74983 0
M  V30 4881 H 446.521 2.46982 -3.56626 0
M  V30 4882 H 447.192 4.09829 -3.6979 0
M  V30 4883 H 449.668 3.75022 -1.80272 0
M  V30 4884 H 448.544 5.12331 -1.96999 0
M  V30 4885 H 448.805 4.40386 -0.388924 0
M  V30 4886 N 447.864 1.01787 1.20321 0
M  V30 4887 C 448.812 0.58254 2.25187 0
M  V30 4888 C 449.806 -0.379359 1.65098 0
M  V30 4889 O 451.012 -0.249142 1.78267 0
M  V30 4890 H 447.387 0.170078 0.732514 0
M  V30 4891 H 449.358 1.47788 2.59232 0
M  V30 4892 C 448.107 -0.0620885 3.47645 0
M  V30 4893 H 447.43 0.669069 3.94162 0
M  V30 4894 H 448.87 -0.329784 4.22716 0
M  V30 4895 C 447.329 -1.3053 3.10586 0
M  V30 4896 O 447.859 -2.39848 3.22236 0
M  V30 4897 N 446.065 -1.18988 2.65123 0
M  V30 4898 H 445.612 -0.300341 2.55843 0
M  V30 4899 H 445.57 -2.02267 2.40698 0
M  V30 4900 N 449.342 -1.36122 0.79427 0
M  V30 4901 C 450.272 -2.32551 0.210328 0
M  V30 4902 C 451.253 -1.56884 -0.657386 0
M  V30 4903 O 452.438 -1.85014 -0.590207 0
M  V30 4904 C 449.568 -3.41128 -0.651819 0
M  V30 4905 C 448.522 -4.27842 0.116395 0
M  V30 4906 C 447.848 -5.2763 -0.86666 0
M  V30 4907 C 449.148 -5.05647 1.30837 0
M  V30 4908 H 450.842 -2.81636 1.01594 0
M  V30 4909 H 448.388 -1.35407 0.489981 0
M  V30 4910 H 450.341 -4.07581 -1.07031 0
M  V30 4911 H 449.065 -2.90622 -1.49019 0
M  V30 4912 H 447.724 -3.62952 0.515915 0
M  V30 4913 H 447.372 -4.73395 -1.70019 0
M  V30 4914 H 447.072 -5.86514 -0.35705 0
M  V30 4915 H 448.596 -5.96955 -1.28361 0
M  V30 4916 H 450.01 -5.65113 0.965393 0
M  V30 4917 H 448.407 -5.73967 1.75161 0
M  V30 4918 H 449.477 -4.37006 2.10128 0
M  V30 4919 N 450.82 -0.546701 -1.47814 0
M  V30 4920 C 452.05 -0.0232519 -2.06587 0
M  V30 4921 C 452.458 1.2712 -1.40133 0
M  V30 4922 O 451.801 1.77091 -0.488305 0
M  V30 4923 C 451.863 0.254117 -3.58601 0
M  V30 4924 C 451.527 -0.949331 -4.47031 0
M  V30 4925 C 452.524 -1.85216 -4.85789 0
M  V30 4926 C 450.209 -1.16104 -4.88697 0
M  V30 4927 C 452.203 -2.95047 -5.65001 0
M  V30 4928 C 449.89 -2.26247 -5.67676 0
M  V30 4929 C 450.888 -3.1555 -6.05737 0
M  V30 4930 O 450.576 -4.23784 -6.83127 0
M  V30 4931 H 450.308 -0.0380082 -0.674931 0
M  V30 4932 H 452.862 -0.756631 -1.90956 0
M  V30 4933 H 451.092 1.04168 -3.72406 0
M  V30 4934 H 452.781 0.72167 -3.99433 0
M  V30 4935 H 453.547 -1.70061 -4.54207 0
M  V30 4936 H 449.426 -0.475159 -4.58545 0
M  V30 4937 H 452.97 -3.64778 -5.94628 0
M  V30 4938 H 448.867 -2.41379 -5.98671 0
M  V30 4939 H 449.635 -4.21701 -7.01506 0
M  V30 4940 N 452.299 1.55045 -0.282633 0
M  V30 4941 C 453.232 2.18951 0.64311 0
M  V30 4942 C 454.21 1.15287 1.14664 0
M  V30 4943 O 455.394 1.43846 1.21822 0
M  V30 4944 C 452.521 2.81874 1.87789 0
M  V30 4945 C 451.567 3.98906 1.50919 0
M  V30 4946 S 452.4 5.3234 0.580884 0
M  V30 4947 C 453.556 5.98737 1.82387 0
M  V30 4948 H 453.789 2.97131 0.100138 0
M  V30 4949 H 451.322 1.54255 -0.0668514 0
M  V30 4950 H 453.28 3.18757 2.58658 0
M  V30 4951 H 451.941 2.03573 2.392 0
M  V30 4952 H 451.134 4.4165 2.42819 0
M  V30 4953 H 450.736 3.63485 0.88061 0
M  V30 4954 H 453.028 6.18427 2.76684 0
M  V30 4955 H 453.971 6.93318 1.4393 0
M  V30 4956 H 454.379 5.28177 1.99223 0
M  V30 4957 N 453.777 0.010035 1.57597 0
M  V30 4958 C 455.024 -0.6727 1.91 0
M  V30 4959 C 455.352 -1.73219 0.884614 0
M  V30 4960 O 454.607 -1.95395 -0.109215 0
M  V30 4961 C 454.906 -1.34434 3.31153 0
M  V30 4962 C 454.572 -0.417083 4.48967 0
M  V30 4963 C 453.234 -0.161809 4.80928 0
M  V30 4964 C 455.586 0.220753 5.20732 0
M  V30 4965 C 452.914 0.739426 5.82022 0
M  V30 4966 C 455.266 1.10993 6.22787 0
M  V30 4967 C 453.93 1.37428 6.532 0
M  V30 4968 H 453.2 -0.246158 0.698918 0
M  V30 4969 H 455.847 0.0677145 1.9138 0
M  V30 4970 H 454.152 -2.15905 3.26944 0
M  V30 4971 H 455.849 -1.87883 3.54261 0
M  V30 4972 H 452.439 -0.626217 4.24001 0
M  V30 4973 H 456.623 0.0365643 4.96287 0
M  V30 4974 H 451.879 0.952139 6.03941 0
M  V30 4975 H 456.053 1.61046 6.77523 0
M  V30 4976 H 453.68 2.0743 7.31353 0
M  V30 4977 N 455.255 -1.55392 -0.262866 0
M  V30 4978 C 456.504 -1.75679 -0.990943 0
M  V30 4979 C 456.817 -0.57097 -1.87081 0
M  V30 4980 O 458.023 -0.656486 -2.63444 0
M  V30 4981 C 456.479 -3.10964 -1.81188 0
M  V30 4982 C 456.087 -4.37146 -0.980188 0
M  V30 4983 C 457.831 -3.40597 -2.53365 0
M  V30 4984 C 455.738 -5.63466 -1.7961 0
M  V30 4985 H 454.668 -0.654868 -0.373716 0
M  V30 4986 H 457.319 -1.81841 -0.246203 0
M  V30 4987 H 455.701 -2.98867 -2.59797 0
M  V30 4988 H 456.875 -4.60187 -0.237558 0
M  V30 4989 H 455.19 -4.14731 -0.372497 0
M  V30 4990 H 457.787 -4.32186 -3.14833 0
M  V30 4991 H 458.13 -2.6119 -3.24169 0
M  V30 4992 H 458.663 -3.53838 -1.81779 0
M  V30 4993 H 455.402 -6.4565 -1.13209 0
M  V30 4994 H 454.922 -5.44552 -2.51443 0
M  V30 4995 H 456.601 -6.02139 -2.36723 0
M  V30 4996 N 456.733 0.527833 -1.48498 0
M  V30 4997 C 457.981 1.28101 -1.56316 0
M  V30 4998 C 458.302 1.9352 -0.239781 0
M  V30 4999 O 457.572 1.81433 0.738849 0
M  V30 5000 H 456.152 0.475793 -0.575873 0
M  V30 5001 H 458.814 0.614052 -1.84974 0
M  V30 5002 H 457.91 2.05916 -2.34532 0
M  V30 5003 N 458.211 1.37122 0.776871 0
M  V30 5004 C 459.459 1.31787 1.53221 0
M  V30 5005 C 459.78 -0.0987589 1.9475 0
M  V30 5006 O 459.05 -1.0417 1.65908 0
M  V30 5007 H 457.63 0.484839 0.568278 0
M  V30 5008 H 460.292 1.71556 0.924917 0
M  V30 5009 H 459.388 1.95355 2.43398 0
M  V30 5010 N 459.689 -1.00246 1.21608 0
M  V30 5011 C 460.917 -1.77631 1.06089 0
M  V30 5012 C 461.332 -1.84746 -0.38916 0
M  V30 5013 O 460.689 -1.31068 -1.26994 0
M  V30 5014 C 460.74 -3.21415 1.65453 0
M  V30 5015 O 460.461 -3.14703 3.04785 0
M  V30 5016 C 461.962 -4.15289 1.55079 0
M  V30 5017 H 459.182 -0.558162 0.37242 0
M  V30 5018 H 461.726 -1.26093 1.60999 0
M  V30 5019 H 459.881 -3.70053 1.14629 0
M  V30 5020 H 460.295 -4.05056 3.33212 0
M  V30 5021 H 461.769 -5.13965 2.01355 0
M  V30 5022 H 462.246 -4.36279 0.505665 0
M  V30 5023 H 462.852 -3.72543 2.05163 0
M  V30 5024 N 461.167 -1.02423 -1.1978 0
M  V30 5025 C 462.115 -0.594474 -2.24875 0
M  V30 5026 C 463.109 0.370598 -1.65296 0
M  V30 5027 O 464.315 0.239684 -1.78397 0
M  V30 5028 H 460.69 -0.173961 -0.731602 0
M  V30 5029 H 462.661 -1.4916 -2.58445 0
M  V30 5030 C 461.41 0.0436512 -3.47673 0
M  V30 5031 H 460.733 -0.689963 -3.93801 0
M  V30 5032 H 462.173 0.307362 -4.22884 0
M  V30 5033 C 460.632 1.28881 -3.11274 0
M  V30 5034 O 461.162 2.38135 -3.23503 0
M  V30 5035 N 459.368 1.1758 -2.6575 0
M  V30 5036 H 458.915 0.286769 -2.55999 0
M  V30 5037 H 458.873 2.00988 -2.41767 0
M  V30 5038 N 462.645 1.35699 -0.801477 0
M  V30 5039 C 463.892 1.98913 -0.379459 0
M  V30 5040 C 464.22 1.63592 1.05204 0
M  V30 5041 O 463.475 0.888563 1.74365 0
M  V30 5042 C 463.774 3.53828 -0.504041 0
M  V30 5043 C 463.44 4.09002 -1.8981 0
M  V30 5044 C 462.102 4.23783 -2.27951 0
M  V30 5045 C 464.454 4.38939 -2.81038 0
M  V30 5046 C 461.782 4.65816 -3.56696 0
M  V30 5047 C 464.134 4.82409 -4.09224 0
M  V30 5048 C 462.798 4.95395 -4.4737 0
M  V30 5049 H 462.068 0.727874 -0.138854 0
M  V30 5050 H 464.715 1.61994 -1.02128 0
M  V30 5051 H 463.02 3.91175 0.221242 0
M  V30 5052 H 464.717 4.00687 -0.158361 0
M  V30 5053 H 461.307 3.97946 -1.59176 0
M  V30 5054 H 465.491 4.27077 -2.52821 0
M  V30 5055 H 460.747 4.74059 -3.86106 0
M  V30 5056 H 464.921 5.04535 -4.80018 0
M  V30 5057 H 462.548 5.27724 -5.47185 0
M  V30 5058 N 464.123 0.554532 1.47522 0
M  V30 5059 C 465.086 -0.184174 2.28459 0
M  V30 5060 C 466.086 -0.845195 1.36796 0
M  V30 5061 O 467.276 -0.701467 1.59452 0
M  V30 5062 C 464.408 -1.26903 3.16399 0
M  V30 5063 H 465.601 0.526751 2.95238 0
M  V30 5064 H 463.154 0.311375 1.53167 0
M  V30 5065 H 463.889 -2.01244 2.54306 0
M  V30 5066 H 463.674 -0.799883 3.83854 0
M  V30 5067 H 465.164 -1.78794 3.77389 0
M  V30 5068 N 465.601 -1.54893 0.290851 0
M  V30 5069 C 466.831 -2.04047 -0.323818 0
M  V30 5070 C 467.239 -1.16809 -1.48837 0
M  V30 5071 O 466.582 -0.184145 -1.82775 0
M  V30 5072 C 466.644 -3.49248 -0.852395 0
M  V30 5073 C 466.308 -4.56623 0.185557 0
M  V30 5074 C 467.305 -5.09985 1.01053 0
M  V30 5075 C 464.99 -5.01252 0.324332 0
M  V30 5076 C 466.984 -6.06507 1.96031 0
M  V30 5077 C 464.671 -5.97596 1.27757 0
M  V30 5078 C 465.669 -6.50107 2.09405 0
M  V30 5079 O 465.357 -7.44565 3.03114 0
M  V30 5080 H 465.089 -0.671735 -0.0758129 0
M  V30 5081 H 467.643 -2.00947 0.425393 0
M  V30 5082 H 465.873 -3.49639 -1.65195 0
M  V30 5083 H 467.562 -3.81654 -1.38185 0
M  V30 5084 H 468.328 -4.76307 0.914129 0
M  V30 5085 H 464.207 -4.60015 -0.301213 0
M  V30 5086 H 467.751 -6.47418 2.598 0
M  V30 5087 H 463.648 -6.30691 1.37473 0
M  V30 5088 H 464.416 -7.62334 2.97976 0
M  V30 5089 N 467.08 -0.0183926 -1.57589 0
M  V30 5090 C 468.326 0.657813 -1.92469 0
M  V30 5091 C 468.681 1.70349 -0.894375 0
M  V30 5092 O 467.974 1.91384 0.0910389 0
M  V30 5093 C 468.168 1.32676 -3.31861 0
M  V30 5094 C 467.997 0.347403 -4.48356 0
M  V30 5095 C 466.767 -0.0488653 -5.05276 0
M  V30 5096 C 468.965 -0.393931 -5.12789 0
M  V30 5097 N 466.947 -1.02451 -6.05291 0
M  V30 5098 C 468.318 -1.22367 -6.07804 0
M  V30 5099 C 470.373 -0.455789 -4.95809 0
M  V30 5100 C 469.076 -2.10966 -6.87667 0
M  V30 5101 C 471.102 -1.32908 -5.76272 0
M  V30 5102 C 470.464 -2.14662 -6.70894 0
M  V30 5103 H 466.563 0.21335 -0.752334 0
M  V30 5104 H 469.147 -0.0830547 -1.94523 0
M  V30 5105 H 467.318 2.03782 -3.30647 0
M  V30 5106 H 469.05 1.95913 -3.54119 0
M  V30 5107 H 465.805 0.323356 -4.72495 0
M  V30 5108 H 466.229 -1.50826 -6.59985 0
M  V30 5109 H 470.871 0.162017 -4.22489 0
M  V30 5110 H 468.589 -2.73807 -7.603 0
M  V30 5111 H 472.175 -1.38109 -5.6517 0
M  V30 5112 H 471.055 -2.81143 -7.32071 0
M  V30 5113 N 468.558 1.5553 0.254621 0
M  V30 5114 C 469.506 1.9048 1.33492 0
M  V30 5115 C 470.5 0.78304 1.50216 0
M  V30 5116 O 471.706 0.967582 1.51782 0
M  V30 5117 H 468.081 0.604846 0.44684 0
M  V30 5118 H 470.052 2.80688 1.01275 0
M  V30 5119 C 468.801 2.20928 2.68489 0
M  V30 5120 H 468.124 3.06742 2.56417 0
M  V30 5121 H 469.564 2.49291 3.42972 0
M  V30 5122 C 468.023 1.023 3.20993 0
M  V30 5123 O 468.553 0.267027 4.00811 0
M  V30 5124 N 466.759 0.815714 2.78917 0
M  V30 5125 H 466.306 1.43217 2.14119 0
M  V30 5126 H 466.264 0.0236532 3.14391 0
M  V30 5127 N 470.036 -0.519951 1.48776 0
M  V30 5128 C 471.284 -1.2727 1.56993 0
M  V30 5129 C 471.605 -1.9339 0.25004 0
M  V30 5130 O 470.875 -1.81822 -0.729216 0
M  V30 5131 H 469.455 -0.472732 0.578389 0
M  V30 5132 H 472.117 -0.604234 1.85297 0
M  V30 5133 H 471.213 -2.04669 2.3562 0
M  V30 5134 N 471.514 -1.37532 -0.769588 0
M  V30 5135 C 472.477 -1.33292 -1.86456 0
M  V30 5136 C 473.477 -0.236537 -1.59051 0
M  V30 5137 O 474.667 -0.492511 -1.67093 0
M  V30 5138 C 471.799 -1.07118 -3.23633 0
M  V30 5139 H 472.992 -2.30692 -1.91628 0
M  V30 5140 H 470.545 -1.22593 -0.969572 0
M  V30 5141 H 471.28 -0.102578 -3.24138 0
M  V30 5142 H 471.065 -1.86479 -3.44917 0
M  V30 5143 H 472.555 -1.06806 -4.03711 0
M  V30 5144 N 472.992 0.995999 -1.22138 0
M  V30 5145 C 473.94 2.10673 -0.985876 0
M  V30 5146 C 474.934 1.69255 0.0699553 0
M  V30 5147 O 476.14 1.79812 -0.0822176 0
M  V30 5148 H 472.515 0.688865 -0.30161 0
M  V30 5149 H 474.486 2.27711 -1.92848 0
M  V30 5150 C 473.235 3.42881 -0.576909 0
M  V30 5151 H 472.558 3.75191 -1.38101 0
M  V30 5152 H 473.998 4.21589 -0.451518 0
M  V30 5153 C 472.457 3.29265 0.713196 0
M  V30 5154 O 472.987 3.60777 1.76643 0
M  V30 5155 N 471.193 2.82456 0.683162 0
M  V30 5156 H 470.74 2.5701 -0.174242 0
M  V30 5157 H 470.698 2.73727 1.54663 0
M  V30 5158 N 474.47 1.03057 1.19235 0
M  V30 5159 C 475.695 0.74757 1.93458 0
M  V30 5160 C 476.12 -0.687648 1.7508 0
M  V30 5161 O 475.478 -1.47499 1.05422 0
M  V30 5162 C 475.526 1.10604 3.43219 0
M  V30 5163 O 474.63 0.225671 4.11782 0
M  V30 5164 H 473.971 0.276047 0.603899 0
M  V30 5165 H 476.501 1.3777 1.51263 0
M  V30 5166 H 476.511 1.06366 3.93891 0
M  V30 5167 H 475.186 2.15165 3.55917 0
M  V30 5168 H 473.763 0.326795 3.71465 0
M  V30 5169 N 475.948 -1.35272 0.808662 0
M  V30 5170 C 477.359 -1.81179 0.450688 0
M  V30 5171 C 477.71 -1.67143 -1.02751 0
M  V30 5172 O 476.835 -1.20325 -1.79864 0
M  V30 5173 C 477.43 -3.28943 0.811275 0
M  V30 5174 C 475.989 -3.72985 0.505871 0
M  V30 5175 C 475.136 -2.57229 1.03578 0
M  V30 5176 H 478.087 -1.2322 1.00012 0
M  V30 5177 H 478.108 -3.80342 0.109588 0
M  V30 5178 H 477.62 -3.39127 1.88718 0
M  V30 5179 H 475.721 -3.68349 -0.561209 0
M  V30 5180 H 475.834 -4.67677 1.03995 0
M  V30 5181 H 474.198 -2.50548 0.458005 0
M  V30 5182 H 474.981 -2.7019 2.11784 0
M  V30 5183 N 477.426 -0.562348 -1.47226 0
M  V30 5184 C 478.656 -0.0451619 -2.06551 0
M  V30 5185 C 479.064 1.25626 -1.41473 0
M  V30 5186 O 478.407 1.76563 -0.507061 0
M  V30 5187 C 478.469 0.216068 -3.5885 0
M  V30 5188 C 478.133 -0.996691 -4.45999 0
M  V30 5189 C 479.13 -1.90358 -4.83797 0
M  V30 5190 C 476.815 -1.21281 -4.87438 0
M  V30 5191 C 478.809 -3.01023 -5.6184 0
M  V30 5192 C 476.496 -2.32255 -5.65244 0
M  V30 5193 C 477.494 -3.21956 -6.02356 0
M  V30 5194 O 477.182 -4.31005 -6.78594 0
M  V30 5195 H 476.914 -0.0451646 -0.67449 0
M  V30 5196 H 479.468 -0.776842 -1.90143 0
M  V30 5197 H 477.698 1.00212 -3.7349 0
M  V30 5198 H 479.387 0.679264 -4.00176 0
M  V30 5199 H 480.153 -1.74868 -4.52378 0
M  V30 5200 H 476.032 -0.523767 -4.58015 0
M  V30 5201 H 479.576 -3.71064 -5.90726 0
M  V30 5202 H 475.473 -2.47715 -5.96077 0
M  V30 5203 H 476.241 -4.29118 -6.96994 0
M  V30 5204 N 478.904 1.54736 -0.299062 0
M  V30 5205 C 479.867 2.22127 0.565012 0
M  V30 5206 C 480.867 1.20669 1.06281 0
M  V30 5207 O 482.057 1.45417 0.959145 0
M  V30 5208 C 479.189 2.90611 1.78208 0
M  V30 5209 H 480.382 2.99891 -0.0237448 0
M  V30 5210 H 477.935 1.5622 -0.0498788 0
M  V30 5211 H 478.67 2.16921 2.41072 0
M  V30 5212 H 478.455 3.64984 1.43281 0
M  V30 5213 H 479.945 3.42026 2.396 0
M  V30 5214 N 480.382 0.0267497 1.57577 0
M  V30 5215 C 481.345 -0.940916 2.08996 0
M  V30 5216 C 482.345 -1.25561 1.00455 0
M  V30 5217 O 483.535 -1.19634 1.26623 0
M  V30 5218 C 480.667 -2.25814 2.55384 0
M  V30 5219 H 481.86 -0.495628 2.95776 0
M  V30 5220 H 479.413 -0.221241 1.54726 0
M  V30 5221 H 480.148 -2.74976 1.71926 0
M  V30 5222 H 479.933 -2.04285 3.34679 0
M  V30 5223 H 481.423 -2.95178 2.95398 0
M  V30 5224 N 481.861 -1.55662 -0.24637 0
M  V30 5225 C 482.793 -1.86811 -1.32794 0
M  V30 5226 C 483.806 -0.754413 -1.44265 0
M  V30 5227 O 484.995 -1.03253 -1.45606 0
M  V30 5228 C 482.095 -2.0397 -2.70646 0
M  V30 5229 C 481.268 -3.34832 -2.81436 0
M  V30 5230 C 480.327 -3.41727 -4.00136 0
M  V30 5231 O 479.353 -4.14934 -3.89639 0
M  V30 5232 N 480.555 -2.71058 -5.1333 0
M  V30 5233 H 483.32 -2.80174 -1.06409 0
M  V30 5234 H 480.881 -1.55906 -0.43647 0
M  V30 5235 H 482.873 -2.05924 -3.48393 0
M  V30 5236 H 481.443 -1.1735 -2.89738 0
M  V30 5237 H 480.663 -3.4519 -1.90361 0
M  V30 5238 H 481.951 -4.21085 -2.85595 0
M  V30 5239 H 481.349 -2.11314 -5.2475 0
M  V30 5240 H 479.906 -2.78704 -5.89209 0
M  V30 5241 N 483.339 0.512053 -1.4905 0
M  V30 5242 C 484.75 1.09376 -1.51307 0
M  V30 5243 C 485.101 1.94 -0.292971 0
M  V30 5244 O 484.226 2.07965 0.598277 0
M  V30 5245 C 484.821 1.99031 -2.74176 0
M  V30 5246 C 483.38 2.52385 -2.79247 0
M  V30 5247 C 482.527 1.29749 -2.45073 0
M  V30 5248 H 485.478 0.296467 -1.55906 0
M  V30 5249 H 485.499 2.83569 -2.53711 0
M  V30 5250 H 485.011 1.37412 -3.62959 0
M  V30 5251 H 483.112 3.17673 -1.94716 0
M  V30 5252 H 483.225 2.90293 -3.81139 0
M  V30 5253 H 481.589 1.61912 -1.96612 0
M  V30 5254 H 482.372 0.698555 -3.36118 0
M  V30 5255 N 484.817 1.37938 0.762283 0
M  V30 5256 C 486.045 1.36883 1.55147 0
M  V30 5257 C 486.46 -0.0435348 1.8875 0
M  V30 5258 O 485.817 -1.00786 1.52146 0
M  V30 5259 C 485.868 2.21624 2.85596 0
M  V30 5260 O 485.589 3.57358 2.5343 0
M  V30 5261 C 487.09 2.28653 3.7978 0
M  V30 5262 H 484.31 0.468521 0.480343 0
M  V30 5263 H 486.854 1.81404 0.944079 0
M  V30 5264 H 485.009 1.80588 3.42734 0
M  V30 5265 H 485.423 4.01883 3.37032 0
M  V30 5266 H 486.897 2.9225 4.68288 0
M  V30 5267 H 487.374 1.29767 4.19592 0
M  V30 5268 H 487.98 2.70043 3.28568 0
M  V30 5269 N 486.295 -0.989507 1.22664 0
M  V30 5270 C 487.52 -1.77031 1.08051 0
M  V30 5271 C 487.945 -1.84535 -0.364483 0
M  V30 5272 O 487.303 -1.3003 -1.2634 0
M  V30 5273 C 487.351 -3.18 1.70024 0
M  V30 5274 O 486.455 -4.01161 0.956216 0
M  V30 5275 H 485.796 -0.545008 0.379292 0
M  V30 5276 H 488.326 -1.24277 1.62531 0
M  V30 5277 H 488.336 -3.68616 1.74888 0
M  V30 5278 H 487.011 -3.11853 2.75174 0
M  V30 5279 H 485.588 -3.59687 0.98384 0
M  V30 5280 N 487.773 -1.03688 -1.18687 0
M  V30 5281 C 489.003 -0.756819 -1.92239 0
M  V30 5282 C 489.411 0.689374 -1.76194 0
M  V30 5283 O 488.754 1.48126 -1.08648 0
M  V30 5284 C 488.816 -1.03851 -3.44173 0
M  V30 5285 C 488.48 -2.47785 -3.83994 0
M  V30 5286 C 489.477 -3.4595 -3.88091 0
M  V30 5287 C 487.162 -2.82397 -4.154 0
M  V30 5288 C 489.156 -4.76779 -4.23038 0
M  V30 5289 C 486.843 -4.13433 -4.50018 0
M  V30 5290 C 487.841 -5.10434 -4.53813 0
M  V30 5291 O 487.529 -6.39122 -4.87625 0
M  V30 5292 H 487.261 -0.275678 -0.617234 0
M  V30 5293 H 489.815 -1.38658 -1.51536 0
M  V30 5294 H 488.045 -0.351612 -3.85098 0
M  V30 5295 H 489.734 -0.746846 -3.9897 0
M  V30 5296 H 490.5 -3.20549 -3.63969 0
M  V30 5297 H 486.379 -2.07568 -4.11627 0
M  V30 5298 H 489.923 -5.52488 -4.25914 0
M  V30 5299 H 485.82 -4.38604 -4.736 0
M  V30 5300 H 486.588 -6.43715 -5.05542 0
M  V30 5301 N 489.251 1.34841 -0.815825 0
M  V30 5302 C 490.528 1.92908 -0.323416 0
M  V30 5303 C 490.908 1.74479 1.18828 0
M  V30 5304 O 490.256 1.11928 1.99209 0
M  V30 5305 C 490.466 3.40957 -0.744952 0
M  V30 5306 C 491.814 4.18107 -0.739716 0
M  V30 5307 O 492.838 3.49511 -0.68708 0
M  V30 5308 O 491.697 5.40517 -0.806456 0
M  V30 5309 H 488.791 0.822436 -0.0867646 0
M  V30 5310 H 491.337 1.4386 -0.90014 0
M  V30 5311 H 490.109 3.4814 -1.78646 0
M  V30 5312 H 489.732 3.97341 -0.143535 0
M  V30 5313 N 490.729 0.570148 1.46925 0
M  V30 5314 C 491.959 0.0561151 2.06524 0
M  V30 5315 C 492.367 -1.24874 1.42137 0
M  V30 5316 O 491.71 -1.76292 0.516417 0
M  V30 5317 C 491.772 -0.197035 3.5896 0
M  V30 5318 C 491.436 1.02033 4.45464 0
M  V30 5319 C 492.433 1.92921 4.82781 0
M  V30 5320 C 490.118 1.23864 4.86788 0
M  V30 5321 C 492.112 3.03999 5.60235 0
M  V30 5322 C 489.799 2.35249 5.64004 0
M  V30 5323 C 490.797 3.25146 6.0064 0
M  V30 5324 O 490.485 4.34598 6.76299 0
M  V30 5325 H 490.217 0.0487409 0.674241 0
M  V30 5326 H 492.771 0.786915 1.89728 0
M  V30 5327 H 491.001 -0.982299 3.74016 0
M  V30 5328 H 492.69 -0.658032 4.00531 0
M  V30 5329 H 493.456 1.77265 4.51444 0
M  V30 5330 H 489.335 0.54805 4.57731 0
M  V30 5331 H 492.879 3.74192 5.8875 0
M  V30 5332 H 488.776 2.50873 5.94755 0
M  V30 5333 H 489.544 4.32808 6.94708 0
M  V30 5334 N 492.207 -1.54576 0.307264 0
M  V30 5335 C 493.484 -1.92377 -0.353605 0
M  V30 5336 C 493.864 -1.23517 -1.71192 0
M  V30 5337 O 493.212 -0.373101 -2.25433 0
M  V30 5338 C 493.422 -3.45928 -0.462039 0
M  V30 5339 C 494.77 -4.18278 -0.729975 0
M  V30 5340 O 495.794 -3.51997 -0.545605 0
M  V30 5341 O 494.653 -5.3563 -1.08454 0
M  V30 5342 H 491.747 -0.802747 -0.198812 0
M  V30 5343 H 494.293 -1.65929 0.355783 0
M  V30 5344 H 493.065 -3.88187 0.492592 0
M  V30 5345 H 492.688 -3.78431 -1.21965 0
M  V30 5346 N 493.685 -0.035106 -1.57561 0
M  V30 5347 C 494.648 0.929819 -2.09492 0
M  V30 5348 C 495.648 1.25026 -1.01119 0
M  V30 5349 O 496.838 1.18961 -1.27255 0
M  V30 5350 C 493.97 2.24457 -2.56577 0
M  V30 5351 H 495.163 0.479935 -2.96035 0
M  V30 5352 H 492.716 0.213033 -1.54841 0
M  V30 5353 H 493.451 2.74061 -1.73382 0
M  V30 5354 H 493.236 2.02508 -3.35757 0
M  V30 5355 H 494.726 2.93607 -2.96959 0
M  V30 5356 N 495.163 1.55791 0.238111 0
M  V30 5357 C 496.574 1.68383 0.806472 0
M  V30 5358 C 496.925 0.634157 1.85669 0
M  V30 5359 O 496.05 -0.217913 2.153 0
M  V30 5360 C 496.645 3.05268 1.46959 0
M  V30 5361 C 495.204 3.1977 1.98555 0
M  V30 5362 C 494.351 2.64279 0.839763 0
M  V30 5363 H 497.302 1.58694 0.0137535 0
M  V30 5364 H 497.323 3.00203 2.33792 0
M  V30 5365 H 496.835 3.81643 0.704993 0
M  V30 5366 H 494.936 2.48234 2.77868 0
M  V30 5367 H 495.049 4.26788 2.17689 0
M  V30 5368 H 493.413 2.22329 1.24265 0
M  V30 5369 H 494.196 3.43187 0.0881032 0
M  V30 5370 N 496.642 -0.504142 1.49319 0
M  V30 5371 C 497.572 -1.61473 1.68667 0
M  V30 5372 C 498.553 -1.61455 0.535378 0
M  V30 5373 O 499.738 -1.78245 0.770868 0
M  V30 5374 C 496.868 -2.99971 1.75028 0
M  V30 5375 C 495.822 -3.14854 2.89916 0
M  V30 5376 C 495.148 -4.54671 2.81387 0
M  V30 5377 C 496.448 -2.95176 4.30893 0
M  V30 5378 H 498.142 -1.45535 2.61648 0
M  V30 5379 H 495.688 -0.698711 1.25913 0
M  V30 5380 H 497.641 -3.77562 1.8715 0
M  V30 5381 H 496.365 -3.1699 0.786441 0
M  V30 5382 H 495.024 -2.39687 2.77391 0
M  V30 5383 H 494.672 -4.68562 1.82917 0
M  V30 5384 H 494.372 -4.6557 3.58494 0
M  V30 5385 H 495.896 -5.34327 2.95512 0
M  V30 5386 H 497.31 -3.62538 4.44116 0
M  V30 5387 H 495.707 -3.17549 5.09198 0
M  V30 5388 H 496.777 -1.91332 4.45556 0
M  V30 5389 N 498.12 -1.38341 -0.754957 0
M  V30 5390 C 499.345 -1.37882 -1.5493 0
M  V30 5391 C 499.77 0.0296385 -1.88077 0
M  V30 5392 O 499.128 1.01133 -1.50472 0
M  V30 5393 C 499.176 -2.23996 -2.82592 0
M  V30 5394 O 498.28 -1.65612 -3.77686 0
M  V30 5395 H 497.621 -0.470384 -0.468652 0
M  V30 5396 H 500.151 -1.82084 -0.933082 0
M  V30 5397 H 500.161 -2.37806 -3.3153 0
M  V30 5398 H 498.836 -3.26365 -2.57796 0
M  V30 5399 H 497.413 -1.60936 -3.36384 0
M  V30 5400 N 499.598 0.982988 -1.23187 0
M  V30 5401 C 500.508 2.10907 -1.02739 0
M  V30 5402 C 501.524 1.73979 0.0273188 0
M  V30 5403 O 502.7 2.00702 -0.16757 0
M  V30 5404 C 499.765 3.41142 -0.618304 0
M  V30 5405 C 498.826 3.92112 -1.74777 0
M  V30 5406 C 498.059 5.16131 -1.3581 0
M  V30 5407 O 498.282 5.6989 -0.241201 0
M  V30 5408 O 497.216 5.61103 -2.17824 0
M  V30 5409 H 501.042 2.31046 -1.97108 0
M  V30 5410 H 498.627 1.09284 -1.01869 0
M  V30 5411 H 500.509 4.19488 -0.400982 0
M  V30 5412 H 499.184 3.2234 0.296421 0
M  V30 5413 H 498.091 3.14895 -2.0197 0
M  V30 5414 H 499.424 4.15364 -2.64071 0
M  V30 5415 N 501.076 1.04316 1.18135 0
M  V30 5416 C 502.039 0.640794 2.2006 0
M  V30 5417 C 503.039 -0.303124 1.57917 0
M  V30 5418 O 504.229 -0.0881855 1.73977 0
M  V30 5419 C 501.361 -0.060148 3.40847 0
M  V30 5420 H 502.554 1.54281 2.57172 0
M  V30 5421 H 500.107 0.836004 1.32063 0
M  V30 5422 H 500.842 -0.975845 3.0927 0
M  V30 5423 H 500.627 0.618319 3.87194 0
M  V30 5424 H 502.117 -0.328082 4.16309 0
M  V30 5425 N 502.554 -1.34406 0.822964 0
M  V30 5426 C 503.802 -1.97892 0.410245 0
M  V30 5427 C 504.123 -1.65567 -1.03017 0
M  V30 5428 O 503.393 -0.94642 -1.71522 0
M  V30 5429 H 501.973 -0.732049 0.148707 0
M  V30 5430 H 504.635 -1.64043 1.05242 0
M  V30 5431 H 503.731 -3.07579 0.529284 0
M  V30 5432 N 504.032 -0.577932 -1.46621 0
M  V30 5433 C 505.309 0.00495287 -1.95599 0
M  V30 5434 C 505.689 1.46428 -1.5206 0
M  V30 5435 O 505.037 2.1517 -0.769046 0
M  V30 5436 C 505.247 -0.162114 -3.48623 0
M  V30 5437 C 506.595 -0.0274623 -4.24591 0
M  V30 5438 O 507.619 -0.0907067 -3.56084 0
M  V30 5439 O 506.478 0.1122 -5.46385 0
M  V30 5440 H 503.572 0.0525057 -0.825332 0
M  V30 5441 H 506.118 -0.645914 -1.56927 0
M  V30 5442 H 504.89 -1.17679 -3.73185 0
M  V30 5443 H 504.513 0.525407 -3.94113 0
M  V30 5444 N 505.51 1.54411 -0.315457 0
M  V30 5445 C 506.44 2.27002 0.547039 0
M  V30 5446 C 507.421 1.27492 1.12605 0
M  V30 5447 O 508.606 1.5629 1.15269 0
M  V30 5448 C 505.736 3.02171 1.71201 0
M  V30 5449 C 504.69 4.0895 1.26268 0
M  V30 5450 C 504.016 4.71915 2.51396 0
M  V30 5451 C 505.316 5.20891 0.383419 0
M  V30 5452 H 507.01 2.99343 -0.0584517 0
M  V30 5453 H 504.556 1.4397 -0.0295527 0
M  V30 5454 H 506.509 3.51681 2.32161 0
M  V30 5455 H 505.233 2.27433 2.34397 0
M  V30 5456 H 503.892 3.60312 0.676062 0
M  V30 5457 H 503.54 3.93801 3.12937 0
M  V30 5458 H 503.24 5.44039 2.22026 0
M  V30 5459 H 504.764 5.24195 3.13133 0
M  V30 5460 H 506.178 5.66206 0.899082 0
M  V30 5461 H 504.575 5.99821 0.182857 0
M  V30 5462 H 505.645 4.81324 -0.587821 0
M  V30 5463 N 506.988 0.0434614 1.5754 0
M  V30 5464 C 508.216 -0.641835 1.96693 0
M  V30 5465 C 508.631 -1.64832 0.920652 0
M  V30 5466 O 507.988 -1.82247 -0.095993 0
M  V30 5467 C 508.039 -1.33557 3.35924 0
M  V30 5468 O 507.76 -0.369403 4.3654 0
M  V30 5469 C 509.261 -2.11135 3.89791 0
M  V30 5470 H 506.481 -0.176013 0.647503 0
M  V30 5471 H 509.025 0.107478 2.04217 0
M  V30 5472 H 507.18 -2.03617 3.29574 0
M  V30 5473 H 507.594 -0.863674 5.1734 0
M  V30 5474 H 509.068 -2.55107 4.89514 0
M  V30 5475 H 509.545 -2.95634 3.24803 0
M  V30 5476 H 510.151 -1.46002 3.99454 0
M  V30 5477 N 508.466 -1.55915 -0.229846 0
M  V30 5478 C 509.376 -1.94891 -1.30593 0
M  V30 5479 C 510.392 -0.851604 -1.51736 0
M  V30 5480 O 511.568 -1.15447 -1.65027 0
M  V30 5481 C 508.633 -2.25052 -2.63728 0
M  V30 5482 C 507.694 -3.48306 -2.5096 0
M  V30 5483 C 506.927 -3.77019 -3.77747 0
M  V30 5484 O 507.15 -3.07534 -4.80395 0
M  V30 5485 O 506.084 -4.70523 -3.75356 0
M  V30 5486 H 509.91 -2.86581 -1.00525 0
M  V30 5487 H 507.495 -1.43017 -0.432025 0
M  V30 5488 H 509.377 -2.45682 -3.42372 0
M  V30 5489 H 508.052 -1.36538 -2.93495 0
M  V30 5490 H 506.959 -3.32964 -1.70546 0
M  V30 5491 H 508.292 -4.37177 -2.26136 0
M  V30 5492 N 509.944 0.496216 -1.49584 0
M  V30 5493 C 510.891 1.59722 -1.66606 0
M  V30 5494 C 511.861 1.58158 -0.507477 0
M  V30 5495 O 513.046 1.76072 -0.735076 0
M  V30 5496 C 510.186 2.97844 -1.74308 0
M  V30 5497 C 509.299 3.09388 -3.01502 0
M  V30 5498 C 508.434 4.38271 -3.00153 0
M  V30 5499 C 507.473 4.43466 -4.21906 0
M  V30 5500 N 506.61 5.63784 -4.1844 0
M  V30 5501 H 511.45 1.44515 -2.60613 0
M  V30 5502 H 508.987 0.703048 -1.29212 0
M  V30 5503 H 510.945 3.77907 -1.76754 0
M  V30 5504 H 509.575 3.11743 -0.837619 0
M  V30 5505 H 508.627 2.22357 -3.08645 0
M  V30 5506 H 509.939 3.09085 -3.91494 0
M  V30 5507 H 509.093 5.2666 -3.01188 0
M  V30 5508 H 507.832 4.41146 -2.07947 0
M  V30 5509 H 506.837 3.53478 -4.21109 0
M  V30 5510 H 508.062 4.42303 -5.1531 0
M  V30 5511 H 506.008 5.67491 -3.29074 0
M  V30 5512 H 505.925 5.65118 -5.02173 0
M  V30 5513 H 507.193 6.54367 -4.23585 0
M  V30 5514 N 511.423 1.38739 0.74761 0
M  V30 5515 C 512.653 1.3832 1.53464 0
M  V30 5516 C 513.061 -0.0273464 1.8918 0
M  V30 5517 O 512.404 -1.00588 1.53713 0
M  V30 5518 C 512.466 2.18007 2.85855 0
M  V30 5519 C 512.13 3.66762 2.72644 0
M  V30 5520 C 513.127 4.60124 2.42037 0
M  V30 5521 C 510.812 4.10193 2.89909 0
M  V30 5522 C 512.806 5.94897 2.28859 0
M  V30 5523 C 510.493 5.45045 2.7635 0
M  V30 5524 C 511.491 6.37211 2.45869 0
M  V30 5525 O 511.179 7.69581 2.3238 0
M  V30 5526 H 510.911 0.474718 0.481268 0
M  V30 5527 H 513.465 1.83012 0.932518 0
M  V30 5528 H 511.695 1.68043 3.48279 0
M  V30 5529 H 513.384 2.09921 3.47402 0
M  V30 5530 H 514.15 4.27874 2.28361 0
M  V30 5531 H 510.029 3.38797 3.1263 0
M  V30 5532 H 513.573 6.66802 2.04989 0
M  V30 5533 H 509.47 5.76889 2.89601 0
M  V30 5534 H 510.238 7.80169 2.47546 0
M  V30 5535 N 512.901 -0.976442 1.23707 0
M  V30 5536 C 514.148 -1.71827 1.07153 0
M  V30 5537 C 514.476 -1.9053 -0.390982 0
M  V30 5538 O 513.731 -1.45779 -1.30564 0
M  V30 5539 C 514.03 -3.11814 1.74662 0
M  V30 5540 C 513.696 -3.12978 3.24585 0
M  V30 5541 C 512.358 -3.13003 3.6549 0
M  V30 5542 C 514.71 -3.07986 4.20469 0
M  V30 5543 C 512.038 -3.05757 5.00729 0
M  V30 5544 C 514.39 -3.02282 5.55705 0
M  V30 5545 C 513.054 -3.00631 5.95968 0
M  V30 5546 H 512.324 -0.628758 0.392102 0
M  V30 5547 H 514.971 -1.14239 1.53693 0
M  V30 5548 H 513.276 -3.72812 1.20492 0
M  V30 5549 H 514.973 -3.67989 1.59328 0
M  V30 5550 H 511.563 -3.13718 2.92026 0
M  V30 5551 H 515.747 -3.07103 3.89874 0
M  V30 5552 H 511.003 -3.02834 5.31132 0
M  V30 5553 H 515.177 -2.97376 6.29714 0
M  V30 5554 H 512.804 -2.94771 7.00724 0
M  V30 5555 N 514.379 -1.04941 -1.1758 0
M  V30 5556 C 515.342 -0.652456 -2.19717 0
M  V30 5557 C 516.342 0.294745 -1.58076 0
M  V30 5558 O 517.532 0.0789579 -1.74021 0
M  V30 5559 C 514.664 0.0420712 -3.40874 0
M  V30 5560 H 515.857 -1.55642 -2.5635 0
M  V30 5561 H 513.41 -0.842995 -1.31618 0
M  V30 5562 H 514.145 0.95943 -3.09783 0
M  V30 5563 H 513.93 -0.638844 -3.86861 0
M  V30 5564 H 515.42 0.306 -4.16477 0
M  V30 5565 N 515.857 1.33968 -0.830081 0
M  V30 5566 C 516.787 2.31911 -0.271911 0
M  V30 5567 C 517.768 1.58571 0.61556 0
M  V30 5568 O 518.953 1.86514 0.540946 0
M  V30 5569 C 516.083 3.42737 0.561146 0
M  V30 5570 C 515.037 4.27383 -0.229789 0
M  V30 5571 C 514.363 5.29742 0.726463 0
M  V30 5572 C 515.663 5.02 -1.44197 0
M  V30 5573 H 517.357 2.78844 -1.09025 0
M  V30 5574 H 514.903 1.34061 -0.52571 0
M  V30 5575 H 516.856 4.10276 0.961867 0
M  V30 5576 H 515.58 2.94471 1.41261 0
M  V30 5577 H 514.239 3.61456 -0.611964 0
M  V30 5578 H 513.887 4.77736 1.57408 0
M  V30 5579 H 513.587 5.87255 0.20142 0
M  V30 5580 H 515.111 6.00149 1.12489 0
M  V30 5581 H 516.525 5.62355 -1.11488 0
M  V30 5582 H 514.922 5.69122 -1.90317 0
M  V30 5583 H 515.992 4.31281 -2.2164 0
M  V30 5584 N 517.335 0.585699 1.46312 0
M  V30 5585 C 518.751 0.247607 1.57668 0
M  V30 5586 C 518.951 -1.25007 1.58037 0
M  V30 5587 O 518.007 -2.03196 1.49893 0
M  V30 5588 C 519.32 0.899456 2.86933 0
M  V30 5589 C 520.868 0.873326 3.00569 0
M  V30 5590 C 521.343 1.50477 4.32574 0
M  V30 5591 N 522.834 1.46925 4.3928 0
M  V30 5592 C 523.569 1.92719 5.40044 0
M  V30 5593 N 523.065 2.46499 6.47464 0
M  V30 5594 N 524.858 1.83617 5.31264 0
M  V30 5595 H 517.009 1.55841 1.44317 0
M  V30 5596 H 519.272 0.651564 0.688599 0
M  V30 5597 H 518.978 1.95313 2.92482 0
M  V30 5598 H 518.852 0.409476 3.74971 0
M  V30 5599 H 521.239 -0.171736 2.946 0
M  V30 5600 H 521.32 1.40136 2.13999 0
M  V30 5601 H 520.964 2.54905 4.39302 0
M  V30 5602 H 520.894 0.951944 5.17924 0
M  V30 5603 H 523.385 1.07616 3.62253 0
M  V30 5604 H 523.698 2.79291 7.20567 0
M  V30 5605 H 522.043 2.50526 6.48276 0
M  V30 5606 H 525.234 1.41358 4.46246 0
M  V30 5607 H 525.407 2.19622 6.09648 0
M  V30 5608 N 518.813 -1.54241 0.323641 0
M  V30 5609 C 519.761 -2.25813 -0.557804 0
M  V30 5610 C 520.755 -1.27225 -1.11849 0
M  V30 5611 O 521.961 -1.45001 -1.06652 0
M  V30 5612 H 518.336 -0.72532 -0.198532 0
M  V30 5613 H 520.307 -2.98322 0.0681112 0
M  V30 5614 C 519.056 -3.02913 -1.70701 0
M  V30 5615 H 518.379 -3.78593 -1.28482 0
M  V30 5616 H 519.819 -3.56238 -2.29935 0
M  V30 5617 C 518.278 -2.11217 -2.62467 0
M  V30 5618 O 518.808 -1.69508 -3.64184 0
M  V30 5619 N 517.014 -1.76704 -2.30703 0
M  V30 5620 H 516.561 -2.1082 -1.48029 0
M  V30 5621 H 516.519 -1.15631 -2.92364 0
M  V30 5622 N 520.291 -0.0518155 -1.57515 0
M  V30 5623 C 521.54 0.621286 -1.91893 0
M  V30 5624 C 521.853 1.71966 -0.932052 0
M  V30 5625 O 523.059 2.45096 -1.16791 0
M  V30 5626 C 521.515 1.15641 -3.40816 0
M  V30 5627 C 521.123 0.0901146 -4.47909 0
M  V30 5628 C 522.867 1.80472 -3.84227 0
M  V30 5629 C 520.774 0.638154 -5.87947 0
M  V30 5630 H 519.704 0.235835 -0.716169 0
M  V30 5631 H 522.355 -0.120809 -1.83102 0
M  V30 5632 H 520.737 1.95084 -3.44613 0
M  V30 5633 H 521.911 -0.683525 -4.55702 0
M  V30 5634 H 520.226 -0.460774 -4.13843 0
M  V30 5635 H 522.823 2.22471 -4.86221 0
M  V30 5636 H 523.166 2.65669 -3.20508 0
M  V30 5637 H 523.699 1.07683 -3.82948 0
M  V30 5638 H 520.438 -0.176202 -6.55263 0
M  V30 5639 H 519.958 1.37976 -5.83714 0
M  V30 5640 H 521.637 1.12085 -6.37217 0
M  V30 5641 N 521.769 1.56035 0.221574 0
M  V30 5642 C 523.018 1.78245 0.944016 0
M  V30 5643 C 523.331 0.620371 1.85501 0
M  V30 5644 O 524.537 0.726103 2.6161 0
M  V30 5645 C 522.993 3.15659 1.7288 0
M  V30 5646 C 522.601 4.39591 0.863942 0
M  V30 5647 C 524.345 3.47195 2.44246 0
M  V30 5648 C 522.252 5.6803 1.64607 0
M  V30 5649 H 521.182 0.664547 0.356222 0
M  V30 5650 H 523.833 1.8243 0.197904 0
M  V30 5651 H 522.215 3.0565 2.51781 0
M  V30 5652 H 523.389 4.60655 0.115464 0
M  V30 5653 H 521.704 4.15572 0.262407 0
M  V30 5654 H 524.301 4.40381 3.03263 0
M  V30 5655 H 524.644 2.69693 3.1713 0
M  V30 5656 H 525.177 3.58533 1.72334 0
M  V30 5657 H 521.916 6.48425 0.960507 0
M  V30 5658 H 521.436 5.51027 2.36917 0
M  V30 5659 H 523.115 6.08203 2.20675 0
M  V30 5660 N 523.247 -0.488276 1.49845 0
M  V30 5661 C 524.179 -1.60539 1.63584 0
M  V30 5662 C 525.192 -1.5434 0.517972 0
M  V30 5663 O 526.381 -1.60041 0.790516 0
M  V30 5664 C 523.481 -2.99374 1.58835 0
M  V30 5665 C 522.654 -3.30624 2.86368 0
M  V30 5666 C 521.713 -4.4893 2.74496 0
M  V30 5667 O 520.739 -4.50085 3.48443 0
M  V30 5668 N 521.941 -5.49591 1.86894 0
M  V30 5669 H 524.706 -1.49176 2.59936 0
M  V30 5670 H 522.267 -0.67639 1.47094 0
M  V30 5671 H 524.259 -3.76459 1.48529 0
M  V30 5672 H 522.829 -3.04595 0.702892 0
M  V30 5673 H 522.049 -2.42314 3.1093 0
M  V30 5674 H 523.337 -3.48305 3.70892 0
M  V30 5675 H 522.735 -5.51467 1.26097 0
M  V30 5676 H 521.292 -6.25728 1.82503 0
M  V30 5677 N 524.725 -1.39134 -0.740242 0
M  V30 5678 C 525.672 -1.37434 -1.8542 0
M  V30 5679 C 526.642 -0.234822 -1.64432 0
M  V30 5680 O 527.827 -0.429125 -1.85912 0
M  V30 5681 C 524.967 -1.21844 -3.22875 0
M  V30 5682 C 524.08 -2.45296 -3.55603 0
M  V30 5683 C 523.215 -2.22334 -4.82432 0
M  V30 5684 C 522.254 -3.41488 -5.07988 0
M  V30 5685 N 521.391 -3.17877 -6.26018 0
M  V30 5686 H 526.231 -2.3266 -1.86207 0
M  V30 5687 H 523.768 -1.15578 -0.909946 0
M  V30 5688 H 525.726 -1.10818 -4.02213 0
M  V30 5689 H 524.356 -0.3025 -3.21379 0
M  V30 5690 H 523.408 -2.66945 -2.71006 0
M  V30 5691 H 524.72 -3.34063 -3.7041 0
M  V30 5692 H 523.874 -2.0852 -5.69741 0
M  V30 5693 H 522.613 -1.30954 -4.6979 0
M  V30 5694 H 521.618 -3.55807 -4.19144 0
M  V30 5695 H 522.843 -4.33763 -5.22519 0
M  V30 5696 H 520.789 -2.29156 -6.14673 0
M  V30 5697 H 520.706 -4.00198 -6.41387 0
M  V30 5698 H 521.974 -3.07746 -7.16179 0
M  V30 5699 N 526.204 0.969867 -1.24223 0
M  V30 5700 C 527.451 1.71256 -1.08063 0
M  V30 5701 C 527.779 1.90734 0.380872 0
M  V30 5702 O 527.034 1.46469 1.29789 0
M  V30 5703 C 527.333 3.10883 -1.76314 0
M  V30 5704 C 526.999 3.11252 -3.26241 0
M  V30 5705 C 525.661 3.1106 -3.67144 0
M  V30 5706 C 528.013 3.05751 -4.22097 0
M  V30 5707 C 525.341 3.03097 -5.02344 0
M  V30 5708 C 527.693 2.9933 -5.57301 0
M  V30 5709 C 526.357 2.97466 -5.97554 0
M  V30 5710 H 525.627 0.62667 -0.395431 0
M  V30 5711 H 528.274 1.13422 -1.54297 0
M  V30 5712 H 526.579 3.72168 -1.22468 0
M  V30 5713 H 528.276 3.67138 -1.61277 0
M  V30 5714 H 524.866 3.12165 -2.93685 0
M  V30 5715 H 529.05 3.05031 -3.91497 0
M  V30 5716 H 524.306 3.00013 -5.32731 0
M  V30 5717 H 528.48 2.94033 -6.31283 0
M  V30 5718 H 526.107 2.91051 -7.02277 0
M  V30 5719 N 527.682 1.05563 1.17022 0
M  V30 5720 C 528.592 0.670758 2.24807 0
M  V30 5721 C 529.608 -0.309865 1.71219 0
M  V30 5722 O 530.784 -0.161025 2.00755 0
M  V30 5723 C 527.849 0.055337 3.46656 0
M  V30 5724 C 526.91 1.08688 4.15314 0
M  V30 5725 C 526.143 0.500736 5.31346 0
M  V30 5726 O 526.366 -0.688718 5.66227 0
M  V30 5727 O 525.3 1.23683 5.89055 0
M  V30 5728 H 529.126 1.56914 2.60023 0
M  V30 5729 H 526.711 0.827428 1.24395 0
M  V30 5730 H 528.593 -0.286492 4.20425 0
M  V30 5731 H 527.268 -0.816638 3.13229 0
M  V30 5732 H 526.175 1.48077 3.43546 0
M  V30 5733 H 527.508 1.93014 4.52777 0
M  V30 5734 N 529.16 -1.33526 0.837174 0
M  V30 5735 C 530.107 -2.29248 0.267169 0
M  V30 5736 C 531.077 -1.54252 -0.616071 0
M  V30 5737 O 532.262 -1.82559 -0.554699 0
M  V30 5738 C 529.402 -3.40638 -0.553152 0
M  V30 5739 C 528.515 -4.30548 0.353921 0
M  V30 5740 C 527.65 -5.29051 -0.477339 0
M  V30 5741 C 526.689 -6.106 0.42823 0
M  V30 5742 N 525.826 -7.01152 -0.364801 0
M  V30 5743 H 530.666 -2.77398 1.08877 0
M  V30 5744 H 528.203 -1.36496 0.54838 0
M  V30 5745 H 530.161 -4.03921 -1.04422 0
M  V30 5746 H 528.791 -2.93685 -1.33973 0
M  V30 5747 H 527.843 -3.68001 0.963289 0
M  V30 5748 H 529.155 -4.87631 1.04964 0
M  V30 5749 H 528.309 -5.97853 -1.0323 0
M  V30 5750 H 527.048 -4.72541 -1.2065 0
M  V30 5751 H 526.053 -5.40718 0.995219 0
M  V30 5752 H 527.278 -6.69193 1.15573 0
M  V30 5753 H 525.224 -6.47092 -1.07738 0
M  V30 5754 H 525.141 -7.5551 0.272238 0
M  V30 5755 H 526.409 -7.74263 -0.902054 0
M  V30 5756 N 530.638 -0.59345 -1.46 0
M  V30 5757 C 531.884 -0.0832754 -2.02629 0
M  V30 5758 C 532.217 1.27749 -1.46266 0
M  V30 5759 O 531.492 1.8395 -0.631866 0
M  V30 5760 C 531.775 -0.0290756 -3.60088 0
M  V30 5761 C 531.628 -1.41951 -4.26814 0
M  V30 5762 C 532.947 0.666055 -4.35031 0
M  V30 5763 H 530.066 -0.031736 -0.736316 0
M  V30 5764 H 532.708 -0.762711 -1.74019 0
M  V30 5765 H 530.858 0.549532 -3.84594 0
M  V30 5766 H 532.53 -2.04411 -4.13538 0
M  V30 5767 H 530.773 -1.98422 -3.8576 0
M  V30 5768 H 531.444 -1.33395 -5.3564 0
M  V30 5769 H 533.92 0.174401 -4.15734 0
M  V30 5770 H 532.796 0.673041 -5.44758 0
M  V30 5771 H 533.057 1.72946 -4.06869 0
M  V30 5772 N 532.116 1.54067 -0.331816 0
M  V30 5773 C 533.527 1.86059 0.15454 0
M  V30 5774 C 533.878 1.25331 1.50952 0
M  V30 5775 O 533.003 0.562441 2.08963 0
M  V30 5776 C 533.598 3.37581 0.287192 0
M  V30 5777 C 532.157 3.69493 0.717773 0
M  V30 5778 C 531.304 2.76863 -0.155569 0
M  V30 5779 H 534.255 1.48797 -0.55182 0
M  V30 5780 H 534.276 3.63744 1.11671 0
M  V30 5781 H 533.788 3.81751 -0.699131 0
M  V30 5782 H 531.889 3.3086 1.71354 0
M  V30 5783 H 532.002 4.76315 0.5158 0
M  V30 5784 H 530.366 2.51995 0.370213 0
M  V30 5785 H 531.149 3.23861 -1.13881 0
M  V30 5786 N 533.594 0.0601682 1.57485 0
M  V30 5787 C 534.504 -0.926121 2.15546 0
M  V30 5788 C 535.52 -1.33532 1.11558 0
M  V30 5789 O 536.696 -1.4104 1.4377 0
M  V30 5790 C 533.761 -2.17952 2.69625 0
M  V30 5791 C 532.822 -1.82783 3.88444 0
M  V30 5792 C 532.055 -3.02148 4.39935 0
M  V30 5793 O 532.278 -4.15803 3.90466 0
M  V30 5794 O 531.212 -2.82639 5.31412 0
M  V30 5795 H 535.038 -0.462289 3.00161 0
M  V30 5796 H 532.623 -0.162246 1.48516 0
M  V30 5797 H 534.505 -2.91474 3.04337 0
M  V30 5798 H 533.18 -2.63456 1.88077 0
M  V30 5799 H 532.087 -1.06549 3.58606 0
M  V30 5800 H 533.42 -1.42072 4.7125 0
M  V30 5801 N 535.072 -1.5615 -0.213296 0
M  V30 5802 C 536.32 -1.79191 -0.934612 0
M  V30 5803 C 536.641 -0.630112 -1.84539 0
M  V30 5804 O 535.911 0.35257 -1.92701 0
M  V30 5805 H 534.491 -0.660937 -0.348097 0
M  V30 5806 H 537.153 -1.93618 -0.22317 0
M  V30 5807 H 536.249 -2.71656 -1.53654 0
M  V30 5808 N 536.55 0.480323 -1.50102 0
M  V30 5809 C 537.961 1.06142 -1.53593 0
M  V30 5810 C 538.312 1.93335 -0.334055 0
M  V30 5811 O 537.437 2.09188 0.55403 0
M  V30 5812 C 538.032 1.9317 -2.78336 0
M  V30 5813 C 536.591 2.46405 -2.84538 0
M  V30 5814 C 535.738 1.24521 -2.4777 0
M  V30 5815 H 538.689 0.26333 -1.565 0
M  V30 5816 H 538.71 2.78123 -2.59669 0
M  V30 5817 H 538.222 1.29683 -3.65792 0
M  V30 5818 H 536.323 3.13472 -2.01411 0
M  V30 5819 H 536.436 2.82143 -3.87211 0
M  V30 5820 H 534.8 1.57706 -2.00003 0
M  V30 5821 H 535.583 0.627102 -3.37524 0
M  V30 5822 N 538.028 1.39524 0.732853 0
M  V30 5823 C 539.277 1.36175 1.48792 0
M  V30 5824 C 539.59 -0.0388195 1.95561 0
M  V30 5825 O 540.796 -0.194899 2.708 0
M  V30 5826 C 539.252 2.39242 2.68871 0
M  V30 5827 C 538.86 3.85024 2.29042 0
M  V30 5828 C 540.604 2.44972 3.46683 0
M  V30 5829 C 538.511 4.79727 3.45856 0
M  V30 5830 H 537.441 0.506267 0.558757 0
M  V30 5831 H 540.092 1.65181 0.799226 0
M  V30 5832 H 538.474 2.0331 3.39825 0
M  V30 5833 H 539.648 4.30008 1.6562 0
M  V30 5834 H 537.963 3.82609 1.64316 0
M  V30 5835 H 540.56 3.12918 4.33574 0
M  V30 5836 H 540.903 1.4749 3.89297 0
M  V30 5837 H 541.436 2.79808 2.82759 0
M  V30 5838 H 538.175 5.78479 3.08289 0
M  V30 5839 H 537.695 4.39421 4.08251 0
M  V30 5840 H 539.374 4.98731 4.12161 0
M  V30 5841 N 539.506 -0.963266 1.24736 0
M  V30 5842 C 540.917 -1.52145 1.08207 0
M  V30 5843 C 541.268 -1.93142 -0.345061 0
M  V30 5844 O 540.393 -1.77769 -1.23399 0
M  V30 5845 C 540.988 -2.76486 1.95808 0
M  V30 5846 C 539.547 -3.28646 1.8349 0
M  V30 5847 C 538.694 -2.01529 1.90476 0
M  V30 5848 H 541.645 -0.781083 1.38148 0
M  V30 5849 H 541.666 -3.49986 1.49297 0
M  V30 5850 H 541.178 -2.46617 2.99669 0
M  V30 5851 H 539.279 -3.63357 0.824787 0
M  V30 5852 H 539.392 -3.97246 2.67829 0
M  V30 5853 H 537.756 -2.16442 1.34258 0
M  V30 5854 H 538.539 -1.7402 2.95926 0
M  V30 5855 N 540.985 -1.06182 -1.16461 0
M  V30 5856 C 542.396 -0.802426 -1.68576 0
M  V30 5857 C 542.747 0.67412 -1.84255 0
M  V30 5858 O 541.872 1.52303 -1.5373 0
M  V30 5859 C 542.467 -1.45002 -3.06202 0
M  V30 5860 C 541.026 -1.23843 -3.55443 0
M  V30 5861 C 540.173 -1.52724 -2.31454 0
M  V30 5862 H 543.124 -1.22545 -1.00839 0
M  V30 5863 H 543.145 -0.864731 -3.70544 0
M  V30 5864 H 542.657 -2.52466 -2.94759 0
M  V30 5865 H 540.758 -0.183487 -3.72148 0
M  V30 5866 H 540.871 -1.95036 -4.37604 0
M  V30 5867 H 539.235 -0.947726 -2.36411 0
M  V30 5868 H 540.018 -2.61343 -2.22609 0
M  V30 5869 N 542.463 1.3308 -0.844243 0
M  V30 5870 C 543.688 2.02341 -0.455282 0
M  V30 5871 C 544.113 1.6308 0.93737 0
M  V30 5872 O 543.471 0.826118 1.61385 0
M  V30 5873 C 543.519 3.55743 -0.58988 0
M  V30 5874 O 542.623 4.1063 0.38166 0
M  V30 5875 H 541.964 0.637898 -0.184343 0
M  V30 5876 H 544.494 1.6986 -1.14056 0
M  V30 5877 H 544.504 4.05243 -0.473522 0
M  V30 5878 H 543.179 3.83662 -1.60549 0
M  V30 5879 H 541.756 3.72236 0.22241 0
M  V30 5880 N 543.941 0.601185 1.45683 0
M  V30 5881 C 545.169 0.100054 2.06658 0
M  V30 5882 C 545.584 -1.21285 1.44691 0
M  V30 5883 O 544.941 -1.73735 0.558772 0
M  V30 5884 C 544.992 -0.0528579 3.61461 0
M  V30 5885 O 544.713 1.20809 4.21114 0
M  V30 5886 C 546.214 -0.586193 4.39407 0
M  V30 5887 H 543.434 0.065905 0.667756 0
M  V30 5888 H 545.978 0.827101 1.87028 0
M  V30 5889 H 544.133 -0.730203 3.80456 0
M  V30 5890 H 544.547 1.03368 5.14213 0
M  V30 5891 H 546.021 -0.642297 5.4825 0
M  V30 5892 H 546.498 -1.60713 4.0874 0
M  V30 5893 H 547.104 0.0568935 4.25262 0
M  V30 5894 N 545.419 -1.53889 0.339982 0
M  V30 5895 C 546.83 -1.86139 -0.144671 0
M  V30 5896 C 547.181 -1.2613 -1.50285 0
M  V30 5897 O 546.306 -0.573515 -2.08662 0
M  V30 5898 C 546.901 -3.37728 -0.269285 0
M  V30 5899 C 545.46 -3.69868 -0.698168 0
M  V30 5900 C 544.607 -2.76777 0.170249 0
M  V30 5901 H 547.558 -1.48503 0.559704 0
M  V30 5902 H 547.579 -3.64331 -1.0974 0
M  V30 5903 H 547.091 -3.81375 0.719366 0
M  V30 5904 H 545.192 -3.31764 -1.69597 0
M  V30 5905 H 545.305 -4.76582 -0.490533 0
M  V30 5906 H 543.669 -2.52188 -0.356844 0
M  V30 5907 H 544.452 -3.23253 1.15597 0
M  V30 5908 N 546.897 -0.0685191 -1.57451 0
M  V30 5909 C 547.844 0.899861 -2.12535 0
M  V30 5910 C 548.814 1.29749 -1.03703 0
M  V30 5911 O 549.999 1.38392 -1.31348 0
M  V30 5912 C 547.139 2.16328 -2.6888 0
M  V30 5913 C 546.252 1.81857 -3.91857 0
M  V30 5914 C 545.387 3.02786 -4.36457 0
M  V30 5915 C 544.426 2.64317 -5.5209 0
M  V30 5916 N 543.563 3.77994 -5.91663 0
M  V30 5917 H 548.403 0.423243 -2.94979 0
M  V30 5918 H 545.94 0.197268 -1.45771 0
M  V30 5919 H 547.898 2.90281 -2.99655 0
M  V30 5920 H 546.528 2.61536 -1.89206 0
M  V30 5921 H 545.58 0.979808 -3.67565 0
M  V30 5922 H 546.892 1.49553 -4.75852 0
M  V30 5923 H 546.046 3.85021 -4.68875 0
M  V30 5924 H 544.785 3.38281 -3.51308 0
M  V30 5925 H 543.79 1.80503 -5.19325 0
M  V30 5926 H 545.015 2.29995 -6.38967 0
M  V30 5927 H 542.961 4.13258 -5.09464 0
M  V30 5928 H 542.878 3.49447 -6.7039 0
M  V30 5929 H 544.146 4.60818 -6.28703 0
M  V30 5930 N 548.375 1.56261 0.205012 0
M  V30 5931 C 549.622 1.8004 0.926927 0
M  V30 5932 C 549.95 0.640086 1.83666 0
M  V30 5933 O 549.205 -0.374702 1.92079 0
M  V30 5934 C 549.504 3.09722 1.78345 0
M  V30 5935 C 549.17 4.39082 1.02555 0
M  V30 5936 C 547.832 4.74226 0.816256 0
M  V30 5937 C 550.184 5.18877 0.491559 0
M  V30 5938 C 547.512 5.86668 0.0613287 0
M  V30 5939 C 549.864 6.32105 -0.250107 0
M  V30 5940 C 548.528 6.6584 -0.470508 0
M  V30 5941 H 547.798 0.658812 0.339187 0
M  V30 5942 H 550.445 1.90515 0.19395 0
M  V30 5943 H 548.75 2.9444 2.5848 0
M  V30 5944 H 550.447 3.25324 2.34446 0
M  V30 5945 H 547.037 4.11497 1.19868 0
M  V30 5946 H 551.221 4.92147 0.640684 0
M  V30 5947 H 546.477 6.11283 -0.119501 0
M  V30 5948 H 550.651 6.93157 -0.671307 0
M  V30 5949 H 548.278 7.5281 -1.05739 0
M  V30 5950 N 549.853 -0.472356 1.50355 0
M  V30 5951 C 550.816 -1.5529 1.68576 0
M  V30 5952 C 551.816 -1.50863 0.556511 0
M  V30 5953 O 553.006 -1.53505 0.823516 0
M  V30 5954 C 550.138 -2.94921 1.70981 0
M  V30 5955 H 551.331 -1.40451 2.64978 0
M  V30 5956 H 548.884 -0.698645 1.39816 0
M  V30 5957 H 549.619 -3.15204 0.762675 0
M  V30 5958 H 549.404 -2.99541 2.53017 0
M  V30 5959 H 550.894 -3.73372 1.87037 0
M  V30 5960 N 551.331 -1.39911 -0.725443 0
M  V30 5961 C 552.561 -1.40744 -1.51244 0
M  V30 5962 C 552.969 -0.00275403 -1.892 0
M  V30 5963 O 552.312 0.981299 -1.55294 0
M  V30 5964 C 552.374 -2.22527 -2.82351 0
M  V30 5965 C 552.038 -3.71053 -2.66774 0
M  V30 5966 C 553.035 -4.63916 -2.34686 0
M  V30 5967 C 550.72 -4.14753 -2.83347 0
M  V30 5968 C 552.714 -5.98463 -2.19366 0
M  V30 5969 C 550.401 -5.49372 -2.67644 0
M  V30 5970 C 551.399 -6.41042 -2.357 0
M  V30 5971 O 551.087 -7.73181 -2.20107 0
M  V30 5972 H 550.819 -0.482314 -0.473655 0
M  V30 5973 H 553.373 -1.84472 -0.903284 0
M  V30 5974 H 551.603 -1.73563 -3.45562 0
M  V30 5975 H 553.292 -2.15421 -3.44018 0
M  V30 5976 H 554.058 -4.31453 -2.21525 0
M  V30 5977 H 549.937 -3.43728 -3.072 0
M  V30 5978 H 553.481 -6.69979 -1.94354 0
M  V30 5979 H 549.378 -5.81424 -2.80387 0
M  V30 5980 H 550.146 -7.84008 -2.35103 0
M  V30 5981 N 552.809 0.956637 -1.25245 0
M  V30 5982 C 554.057 1.69764 -1.09657 0
M  V30 5983 C 554.378 1.91583 0.363464 0
M  V30 5984 O 553.648 1.50149 1.25825 0
M  V30 5985 H 552.228 0.629097 -0.402798 0
M  V30 5986 H 554.89 1.15026 -1.57337 0
M  V30 5987 H 553.986 2.67769 -1.60331 0
M  V30 5988 N 554.287 1.06798 1.15896 0
M  V30 5989 C 555.234 0.683314 2.20453 0
M  V30 5990 C 556.204 -0.32255 1.62938 0
M  V30 5991 O 557.389 -0.210276 1.89638 0
M  V30 5992 C 554.529 0.0813266 3.45004 0
M  V30 5993 C 553.642 1.13799 4.16742 0
M  V30 5994 C 552.777 0.501598 5.28826 0
M  V30 5995 C 551.816 1.54144 5.92373 0
M  V30 5996 N 550.953 0.928038 6.9594 0
M  V30 5997 H 555.793 1.57932 2.52708 0
M  V30 5998 H 553.33 0.789544 1.24115 0
M  V30 5999 H 555.288 -0.285274 4.16224 0
M  V30 6000 H 553.918 -0.77806 3.13283 0
M  V30 6001 H 552.97 1.62223 3.44075 0
M  V30 6002 H 554.282 1.92664 4.60089 0
M  V30 6003 H 553.436 0.0823162 6.06644 0
M  V30 6004 H 552.175 -0.318883 4.86656 0
M  V30 6005 H 551.18 1.97056 5.13273 0
M  V30 6006 H 552.405 2.3641 6.36621 0
M  V30 6007 H 550.351 0.12836 6.55874 0
M  V30 6008 H 550.268 1.65401 7.37685 0
M  V30 6009 H 551.536 0.534071 7.77668 0
M  V30 6010 N 555.766 -1.3263 0.851289 0
M  V30 6011 C 557.012 -1.9766 0.453694 0
M  V30 6012 C 557.345 -1.67225 -0.987396 0
M  V30 6013 O 556.62 -0.958693 -1.69232 0
M  V30 6014 C 556.903 -3.5344 0.68936 0
M  V30 6015 C 556.756 -3.93517 2.17862 0
M  V30 6016 C 558.075 -4.39866 0.143555 0
M  V30 6017 H 555.194 -0.717989 0.166314 0
M  V30 6018 H 557.836 -1.57068 1.06909 0
M  V30 6019 H 555.986 -3.88147 0.165546 0
M  V30 6020 H 557.658 -3.69006 2.76826 0
M  V30 6021 H 555.901 -3.42798 2.65841 0
M  V30 6022 H 556.572 -5.02065 2.29422 0
M  V30 6023 H 559.048 -4.11875 0.591451 0
M  V30 6024 H 557.924 -5.47858 0.338043 0
M  V30 6025 H 558.185 -4.31696 -0.953466 0
M  V30 6026 N 557.244 -0.608902 -1.45362 0
M  V30 6027 C 558.472 -0.111013 -2.06602 0
M  V30 6028 C 558.887 1.20516 -1.45332 0
M  V30 6029 O 558.244 1.73437 -0.567978 0
M  V30 6030 C 558.295 0.033688 -3.61484 0
M  V30 6031 O 558.016 -1.23041 -4.20467 0
M  V30 6032 C 559.517 0.562882 -4.39712 0
M  V30 6033 H 556.737 -0.0694453 -0.667397 0
M  V30 6034 H 559.281 -0.837008 -1.86586 0
M  V30 6035 H 557.436 0.710016 -3.80838 0
M  V30 6036 H 557.85 -1.06094 -5.13658 0
M  V30 6037 H 559.324 0.613213 -5.48583 0
M  V30 6038 H 559.801 1.58543 -4.09586 0
M  V30 6039 H 560.407 -0.0794454 -4.25226 0
M  V30 6040 N 558.722 1.53707 -0.348139 0
M  V30 6041 C 559.652 2.28111 0.498766 0
M  V30 6042 C 560.633 1.29851 1.09876 0
M  V30 6043 O 561.818 1.587 1.11928 0
M  V30 6044 C 558.948 3.05735 1.64753 0
M  V30 6045 C 557.902 4.11537 1.17565 0
M  V30 6046 C 557.228 4.77142 2.4133 0
M  V30 6047 C 558.528 5.21587 0.272844 0
M  V30 6048 H 560.222 2.99152 -0.121934 0
M  V30 6049 H 557.768 1.43875 -0.0600842 0
M  V30 6050 H 559.721 3.56526 2.24649 0
M  V30 6051 H 558.445 2.32354 2.2952 0
M  V30 6052 H 557.104 3.61665 0.599483 0
M  V30 6053 H 556.752 4.0035 3.04514 0
M  V30 6054 H 556.452 5.48626 2.10436 0
M  V30 6055 H 557.976 5.30719 3.01943 0
M  V30 6056 H 559.39 5.67986 0.778779 0
M  V30 6057 H 557.787 6.00074 0.0555849 0
M  V30 6058 H 558.857 4.79969 -0.689785 0
M  V30 6059 N 560.2 0.0768682 1.57412 0
M  V30 6060 C 561.11 -0.903207 2.16516 0
M  V30 6061 C 562.126 -1.32341 1.12968 0
M  V30 6062 O 563.302 -1.39507 1.45258 0
M  V30 6063 C 560.367 -2.1508 2.71922 0
M  V30 6064 C 559.428 -1.78653 3.90361 0
M  V30 6065 C 558.661 -2.97465 4.43114 0
M  V30 6066 O 558.884 -4.11638 3.94854 0
M  V30 6067 O 557.818 -2.76987 5.3438 0
M  V30 6068 H 561.644 -0.430427 3.00634 0
M  V30 6069 H 559.229 -0.146485 1.4868 0
M  V30 6070 H 561.111 -2.8823 3.07411 0
M  V30 6071 H 559.786 -2.61446 1.9086 0
M  V30 6072 H 558.693 -1.0274 3.59716 0
M  V30 6073 H 560.026 -1.37066 4.7273 0
M  V30 6074 N 561.678 -1.56367 -0.196722 0
M  V30 6075 C 562.625 -1.94417 -1.24382 0
M  V30 6076 C 563.595 -0.804543 -1.45315 0
M  V30 6077 O 564.78 -1.06256 -1.58475 0
M  V30 6078 C 561.92 -2.28757 -2.58388 0
M  V30 6079 C 561.033 -3.55775 -2.45047 0
M  V30 6080 C 560.168 -3.79445 -3.71746 0
M  V30 6081 C 559.207 -4.99894 -3.53231 0
M  V30 6082 N 558.344 -5.19826 -4.71938 0
M  V30 6083 H 563.184 -2.83691 -0.912338 0
M  V30 6084 H 560.721 -1.40392 -0.439135 0
M  V30 6085 H 562.679 -2.46682 -3.36457 0
M  V30 6086 H 561.309 -1.42625 -2.89582 0
M  V30 6087 H 560.361 -3.45905 -1.58284 0
M  V30 6088 H 561.673 -4.44 -2.27299 0
M  V30 6089 H 560.827 -3.97601 -4.58256 0
M  V30 6090 H 559.566 -2.89546 -3.92446 0
M  V30 6091 H 558.571 -4.81662 -2.65107 0
M  V30 6092 H 559.796 -5.913 -3.33978 0
M  V30 6093 H 557.742 -4.32875 -4.92905 0
M  V30 6094 H 557.659 -6.02228 -4.57009 0
M  V30 6095 H 558.927 -5.42439 -5.59803 0
M  V30 6096 N 563.156 0.464375 -1.50603 0
M  V30 6097 C 564.086 1.56944 -1.72889 0
M  V30 6098 C 565.067 1.59979 -0.577997 0
M  V30 6099 O 566.252 1.76138 -0.817855 0
M  V30 6100 C 563.382 2.95225 -1.8292 0
M  V30 6101 C 562.336 3.07056 -2.98162 0
M  V30 6102 C 561.662 4.47051 -2.93343 0
M  V30 6103 C 562.962 2.83648 -4.38567 0
M  V30 6104 H 564.656 1.38547 -2.65415 0
M  V30 6105 H 562.202 0.665082 -1.27721 0
M  V30 6106 H 564.155 3.72467 -1.97095 0
M  V30 6107 H 562.879 3.14793 -0.870209 0
M  V30 6108 H 561.538 2.32248 -2.83648 0
M  V30 6109 H 561.186 4.63547 -1.95276 0
M  V30 6110 H 560.886 4.55902 -3.70712 0
M  V30 6111 H 562.41 5.26304 -3.09575 0
M  V30 6112 H 563.824 3.50636 -4.53572 0
M  V30 6113 H 562.221 3.03937 -5.17438 0
M  V30 6114 H 563.291 1.79451 -4.50472 0
M  V30 6115 N 564.634 1.40294 0.718013 0
M  V30 6116 C 565.581 1.40367 1.8321 0
M  V30 6117 C 566.551 0.260952 1.64037 0
M  V30 6118 O 567.736 0.458648 1.85205 0
M  V30 6119 C 564.876 1.26965 3.20895 0
M  V30 6120 C 563.989 2.50922 3.51656 0
M  V30 6121 C 563.124 2.29981 4.78834 0
M  V30 6122 C 562.163 3.49527 5.02491 0
M  V30 6123 N 561.3 3.27796 6.20882 0
M  V30 6124 H 566.14 2.35593 1.82482 0
M  V30 6125 H 563.677 1.17012 0.891444 0
M  V30 6126 H 565.635 1.17202 4.00399 0
M  V30 6127 H 564.265 0.353591 3.20858 0
M  V30 6128 H 563.317 2.71223 2.66725 0
M  V30 6129 H 564.629 3.39913 3.65048 0
M  V30 6130 H 563.783 2.17558 5.66351 0
M  V30 6131 H 562.522 1.38411 4.67647 0
M  V30 6132 H 561.527 3.6243 4.1343 0
M  V30 6133 H 562.752 4.42021 5.15553 0
M  V30 6134 H 560.698 2.38906 6.1095 0
M  V30 6135 H 560.615 4.10351 6.34939 0
M  V30 6136 H 561.883 3.19101 7.11193 0
M  V30 6137 N 566.112 -0.949982 1.2575 0
M  V30 6138 C 567.34 -1.72972 1.13527 0
M  V30 6139 C 567.755 -1.8623 -0.310453 0
M  V30 6140 O 567.112 -1.36336 -1.2132 0
M  V30 6141 C 567.163 -3.14108 1.78936 0
M  V30 6142 O 566.884 -3.01493 3.17858 0
M  V30 6143 C 568.385 -4.08338 1.72554 0
M  V30 6144 H 565.605 -0.541864 0.395758 0
M  V30 6145 H 568.149 -1.19151 1.66202 0
M  V30 6146 H 566.304 -3.64858 1.30221 0
M  V30 6147 H 566.718 -3.90559 3.50092 0
M  V30 6148 H 568.192 -5.04963 2.22973 0
M  V30 6149 H 568.669 -4.33742 0.690251 0
M  V30 6150 H 569.275 -3.63506 2.2078 0
M  V30 6151 N 567.59 -1.07411 -1.15328 0
M  V30 6152 C 568.836 -0.798831 -1.86404 0
M  V30 6153 C 569.169 0.673433 -1.8215 0
M  V30 6154 O 568.444 1.49428 -1.24505 0
M  V30 6155 C 568.727 -1.30846 -3.35487 0
M  V30 6156 C 568.58 -2.84532 -3.4837 0
M  V30 6157 C 569.899 -0.925486 -4.30259 0
M  V30 6158 H 567.018 -0.291659 -0.676834 0
M  V30 6159 H 569.66 -1.332 -1.35491 0
M  V30 6160 H 567.81 -0.854916 -3.78977 0
M  V30 6161 H 569.482 -3.3818 -3.13739 0
M  V30 6162 H 567.725 -3.22699 -2.8991 0
M  V30 6163 H 568.396 -3.15259 -4.53118 0
M  V30 6164 H 570.872 -1.3163 -3.94731 0
M  V30 6165 H 569.748 -1.3094 -5.33053 0
M  V30 6166 H 570.009 0.168525 -4.41779 0
M  V30 6167 N 569.068 1.32177 -0.85831 0
M  V30 6168 C 570.316 1.96735 -0.462568 0
M  V30 6169 C 570.637 1.6824 0.985911 0
M  V30 6170 O 569.907 0.991564 1.68952 0
M  V30 6171 H 568.487 0.727849 -0.168064 0
M  V30 6172 H 571.149 1.61195 -1.09554 0
M  V30 6173 H 570.245 3.06068 -0.610647 0
M  V30 6174 N 570.547 0.616602 1.45037 0
M  V30 6175 C 571.51 -0.0871112 2.29034 0
M  V30 6176 C 572.51 -0.786414 1.40258 0
M  V30 6177 O 573.7 -0.633207 1.62284 0
M  V30 6178 C 570.832 -1.13369 3.21497 0
M  V30 6179 H 572.025 0.651497 2.92738 0
M  V30 6180 H 569.578 0.376058 1.51709 0
M  V30 6181 H 570.313 -1.90277 2.62612 0
M  V30 6182 H 570.098 -0.636358 3.86902 0
M  V30 6183 H 571.588 -1.62627 3.84633 0
M  V30 6184 N 572.025 -1.5352 0.356285 0
M  V30 6185 C 572.988 -2.24071 -0.482182 0
M  V30 6186 C 573.988 -1.24531 -1.01729 0
M  V30 6187 O 575.178 -1.48876 -0.904513 0
M  V30 6188 C 572.31 -2.97025 -1.67299 0
M  V30 6189 H 573.503 -2.99596 0.135031 0
M  V30 6190 H 571.056 -1.55928 0.107825 0
M  V30 6191 H 571.791 -2.25719 -2.32855 0
M  V30 6192 H 571.576 -3.7005 -1.29636 0
M  V30 6193 H 573.066 -3.50683 -2.26741 0
M  V30 6194 N 573.503 -0.0852151 -1.57369 0
M  V30 6195 C 574.433 0.874556 -2.16503 0
M  V30 6196 C 575.414 1.30111 -1.09568 0
M  V30 6197 O 576.599 1.36977 -1.37662 0
M  V30 6198 C 573.729 2.13731 -2.73745 0
M  V30 6199 C 572.683 1.84971 -3.85966 0
M  V30 6200 C 572.009 3.17991 -4.29867 0
M  V30 6201 C 573.309 1.14442 -5.09608 0
M  V30 6202 H 575.003 0.381899 -2.96954 0
M  V30 6203 H 572.549 0.18225 -1.42842 0
M  V30 6204 H 574.502 2.81302 -3.13763 0
M  V30 6205 H 573.226 2.65263 -1.90534 0
M  V30 6206 H 571.885 1.19801 -3.46473 0
M  V30 6207 H 571.533 3.6739 -3.4356 0
M  V30 6208 H 571.233 2.99534 -5.05523 0
M  V30 6209 H 572.757 3.86737 -4.72511 0
M  V30 6210 H 574.171 1.72105 -5.46857 0
M  V30 6211 H 572.568 1.06197 -5.90629 0
M  V30 6212 H 573.638 0.12559 -4.84737 0
M  V30 6213 N 574.981 1.5647 0.188427 0
M  V30 6214 C 576.258 1.71857 0.934058 0
M  V30 6215 C 576.638 0.641867 2.01105 0
M  V30 6216 O 575.986 -0.346098 2.25864 0
M  V30 6217 C 576.196 3.14431 1.5144 0
M  V30 6218 C 577.544 3.74869 1.99396 0
M  V30 6219 O 578.568 3.17601 1.61269 0
M  V30 6220 O 577.427 4.75387 2.69573 0
M  V30 6221 H 574.521 0.701186 0.438483 0
M  V30 6222 H 577.067 1.68768 0.177599 0
M  V30 6223 H 575.839 3.8427 0.738416 0
M  V30 6224 H 575.462 3.21775 2.33552 0
M  V30 6225 N 576.459 -0.456382 1.50847 0
M  V30 6226 C 577.708 -1.2042 1.61808 0
M  V30 6227 C 578.021 -1.9278 0.330932 0
M  V30 6228 O 579.227 -2.69612 0.319643 0
M  V30 6229 C 577.683 -2.18891 2.85683 0
M  V30 6230 C 577.291 -1.52267 4.2133 0
M  V30 6231 C 579.035 -2.94224 3.05994 0
M  V30 6232 C 576.942 -2.4911 5.36375 0
M  V30 6233 H 575.872 -0.453177 0.602616 0
M  V30 6234 H 578.523 -0.473144 1.77295 0
M  V30 6235 H 576.905 -2.95351 2.63787 0
M  V30 6236 H 578.079 -0.814949 4.53536 0
M  V30 6237 H 576.394 -0.891594 4.06743 0
M  V30 6238 H 578.991 -3.66732 3.89117 0
M  V30 6239 H 579.334 -3.54469 2.18306 0
M  V30 6240 H 579.867 -2.24874 3.28141 0
M  V30 6241 H 576.606 -1.93582 6.26264 0
M  V30 6242 H 576.126 -3.17991 5.08569 0
M  V30 6243 H 577.805 -3.10637 5.67551 0
M  V30 6244 N 577.937 -1.40673 -0.710563 0
M  V30 6245 C 578.867 -1.44095 -1.83736 0
M  V30 6246 C 579.848 -0.301286 -1.67411 0
M  V30 6247 O 581.033 -0.510618 -1.87367 0
M  V30 6248 C 578.163 -1.30773 -3.21738 0
M  V30 6249 C 577.117 -2.42395 -3.52745 0
M  V30 6250 C 576.443 -2.14147 -4.89944 0
M  V30 6251 C 577.743 -3.84738 -3.53234 0
M  V30 6252 H 579.437 -2.38396 -1.81129 0
M  V30 6253 H 576.983 -1.14746 -0.870017 0
M  V30 6254 H 578.936 -1.31783 -4.00264 0
M  V30 6255 H 577.66 -0.329507 -3.24934 0
M  V30 6256 H 576.319 -2.40643 -2.76562 0
M  V30 6257 H 575.967 -1.14703 -4.89747 0
M  V30 6258 H 575.667 -2.88934 -5.11655 0
M  V30 6259 H 577.191 -2.16848 -5.70797 0
M  V30 6260 H 578.605 -3.88286 -4.2179 0
M  V30 6261 H 577.002 -4.59085 -3.86473 0
M  V30 6262 H 578.072 -4.13962 -2.52514 0
M  V30 6263 N 579.415 0.9433 -1.26252 0
M  V30 6264 C 580.655 1.70397 -1.1289 0
M  V30 6265 C 581.019 1.89268 0.322713 0
M  V30 6266 O 582.22 2.62503 0.578418 0
M  V30 6267 C 580.491 3.04296 -1.87453 0
M  V30 6268 S 582.05 3.95475 -1.90119 0
M  V30 6269 H 578.868 0.585559 -0.403289 0
M  V30 6270 H 581.47 1.12424 -1.59941 0
M  V30 6271 H 580.174 2.8824 -2.9214 0
M  V30 6272 H 579.705 3.67327 -1.40835 0
M  V30 6273 H 581.72 4.86297 -0.986373 0
M  V30 6274 N 580.893 1.08022 1.14757 0
M  V30 6275 C 582.304 0.829144 1.67279 0
M  V30 6276 C 582.655 -0.644721 1.85305 0
M  V30 6277 O 581.78 -1.49838 1.56133 0
M  V30 6278 C 582.375 1.49855 3.03857 0
M  V30 6279 C 580.934 1.29482 3.53428 0
M  V30 6280 C 580.081 1.56386 2.28995 0
M  V30 6281 H 583.032 1.24134 0.988762 0
M  V30 6282 H 583.053 0.923572 3.69121 0
M  V30 6283 H 582.565 2.57123 2.90705 0
M  V30 6284 H 580.666 0.242669 3.71809 0
M  V30 6285 H 580.779 2.01974 4.34446 0
M  V30 6286 H 579.143 0.985217 2.34874 0
M  V30 6287 H 579.926 2.64851 2.18423 0
M  V30 6288 N 582.371 -1.3172 0.865308 0
M  V30 6289 C 583.596 -2.01591 0.487415 0
M  V30 6290 C 584.021 -1.6455 -0.911307 0
M  V30 6291 O 583.379 -0.851689 -1.6005 0
M  V30 6292 C 583.427 -3.54759 0.646401 0
M  V30 6293 O 582.531 -4.11185 -0.316284 0
M  V30 6294 H 581.872 -0.634884 0.194468 0
M  V30 6295 H 584.402 -1.68024 1.16744 0
M  V30 6296 H 584.412 -4.04438 0.537932 0
M  V30 6297 H 583.087 -3.8106 1.66632 0
M  V30 6298 H 581.664 -3.72543 -0.163162 0
M  V30 6299 N 583.85 -0.624285 -1.44708 0
M  V30 6300 C 585.098 -0.125802 -2.01708 0
M  V30 6301 C 585.418 1.2543 -1.49306 0
M  V30 6302 O 584.689 1.83198 -0.693924 0
M  V30 6303 H 583.269 -0.0435161 -0.745731 0
M  V30 6304 H 585.931 -0.809446 -1.77296 0
M  V30 6305 H 585.027 -0.0882734 -3.11975 0
M  V30 6306 N 585.328 1.53329 -0.364422 0
M  V30 6307 C 586.739 1.86345 0.115039 0
M  V30 6308 C 587.09 1.28505 1.4826 0
M  V30 6309 O 586.215 0.606639 2.07723 0
M  V30 6310 C 586.81 3.38114 0.215522 0
M  V30 6311 C 585.369 3.70932 0.639237 0
M  V30 6312 C 584.516 2.76471 -0.214261 0
M  V30 6313 H 587.467 1.47593 -0.583258 0
M  V30 6314 H 587.488 3.66031 1.0393 0
M  V30 6315 H 587 3.80182 -0.779948 0
M  V30 6316 H 585.101 3.3442 1.64298 0
M  V30 6317 H 585.214 4.77302 0.41465 0
M  V30 6318 H 583.578 2.52724 0.316678 0
M  V30 6319 H 584.361 3.21373 -1.20725 0
M  V30 6320 N 586.806 0.0935595 1.57322 0
M  V30 6321 C 588.055 -0.570191 1.93473 0
M  V30 6322 C 588.368 -1.69434 0.977318 0
M  V30 6323 O 589.574 -2.41914 1.23248 0
M  V30 6324 C 588.03 -1.06564 3.43762 0
M  V30 6325 C 587.638 0.0286723 4.47991 0
M  V30 6326 C 589.382 -1.70221 3.88877 0
M  V30 6327 C 587.289 -0.482046 5.89432 0
M  V30 6328 H 586.219 -0.216764 0.72217 0
M  V30 6329 H 588.87 0.169313 1.82717 0
M  V30 6330 H 587.252 -1.85878 3.49664 0
M  V30 6331 H 588.426 0.804106 4.5373 0
M  V30 6332 H 586.741 0.570336 4.12476 0
M  V30 6333 H 589.338 -2.09502 4.91948 0
M  V30 6334 H 589.681 -2.57078 3.27439 0
M  V30 6335 H 590.214 -0.974919 3.85668 0
M  V30 6336 H 586.953 0.349871 6.54566 0
M  V30 6337 H 586.473 -1.22452 5.87167 0
M  V30 6338 H 588.152 -0.951508 6.39965 0
M  V30 6339 N 588.284 -1.56567 -0.180126 0
M  V30 6340 C 589.231 -1.95725 -1.22313 0
M  V30 6341 C 590.201 -0.819911 -1.44453 0
M  V30 6342 O 591.386 -1.07931 -1.57339 0
M  V30 6343 C 588.526 -2.31484 -2.55947 0
M  V30 6344 C 587.639 -3.58354 -2.4126 0
M  V30 6345 C 586.774 -3.83366 -3.67701 0
M  V30 6346 C 585.813 -5.03612 -3.47909 0
M  V30 6347 N 584.95 -5.24802 -4.66398 0
M  V30 6348 H 589.79 -2.84642 -0.882198 0
M  V30 6349 H 587.327 -1.4085 -0.42422 0
M  V30 6350 H 589.285 -2.50237 -3.33822 0
M  V30 6351 H 587.915 -1.45689 -2.88053 0
M  V30 6352 H 586.967 -3.47565 -1.54606 0
M  V30 6353 H 588.279 -4.46386 -2.22577 0
M  V30 6354 H 587.433 -4.02439 -4.54013 0
M  V30 6355 H 586.172 -2.93692 -3.89353 0
M  V30 6356 H 585.177 -4.84447 -2.59983 0
M  V30 6357 H 586.402 -5.94809 -3.27688 0
M  V30 6358 H 584.348 -4.38079 -4.88286 0
M  V30 6359 H 584.265 -6.07041 -4.50596 0
M  V30 6360 H 585.533 -5.48346 -5.54019 0
M  V30 6361 N 589.762 0.448376 -1.51087 0
M  V30 6362 C 590.987 1.22605 -1.6728 0
M  V30 6363 C 591.412 1.84524 -0.365045 0
M  V30 6364 O 590.77 1.6832 0.673642 0
M  V30 6365 C 590.818 2.29393 -2.78229 0
M  V30 6366 O 589.922 3.34608 -2.41063 0
M  V30 6367 H 589.263 0.359705 -0.558129 0
M  V30 6368 H 591.793 0.530903 -1.97592 0
M  V30 6369 H 591.803 2.74352 -3.01986 0
M  V30 6370 H 590.478 1.83701 -3.73131 0
M  V30 6371 H 589.055 2.95202 -2.27838 0
M  V30 6372 N 591.24 1.41047 0.703093 0
M  V30 6373 C 592.17 1.45067 1.82969 0
M  V30 6374 C 593.151 0.31016 1.67248 0
M  V30 6375 O 594.336 0.520548 1.87093 0
M  V30 6376 C 591.466 1.32478 3.2104 0
M  V30 6377 C 590.42 2.44262 3.51454 0
M  V30 6378 C 589.746 2.16742 4.88801 0
M  V30 6379 C 591.046 3.86606 3.51189 0
M  V30 6380 H 592.74 2.39353 1.79863 0
M  V30 6381 H 590.286 1.15206 0.863919 0
M  V30 6382 H 592.239 1.33904 3.99559 0
M  V30 6383 H 590.963 0.346735 3.24754 0
M  V30 6384 H 589.622 2.42107 2.75282 0
M  V30 6385 H 589.27 1.17299 4.89132 0
M  V30 6386 H 588.97 2.91643 5.10116 0
M  V30 6387 H 590.494 2.19872 5.69639 0
M  V30 6388 H 591.908 3.90517 4.19725 0
M  V30 6389 H 590.305 4.61128 3.84033 0
M  V30 6390 H 591.375 4.15296 2.50315 0
M  V30 6391 N 592.718 -0.936591 1.26751 0
M  V30 6392 C 593.948 -1.71509 1.15188 0
M  V30 6393 C 594.356 -1.86885 -0.295037 0
M  V30 6394 O 593.699 -1.37915 -1.21347 0
M  V30 6395 C 593.761 -3.13853 1.75318 0
M  V30 6396 C 593.425 -3.21845 3.24445 0
M  V30 6397 C 594.422 -3.04771 4.21201 0
M  V30 6398 C 592.107 -3.45088 3.64992 0
M  V30 6399 C 594.101 -3.10816 5.56482 0
M  V30 6400 C 591.788 -3.50767 5.00405 0
M  V30 6401 C 592.786 -3.33648 5.9596 0
M  V30 6402 O 592.474 -3.39045 7.28906 0
M  V30 6403 H 592.206 -0.543658 0.401761 0
M  V30 6404 H 594.76 -1.18234 1.67958 0
M  V30 6405 H 592.99 -3.6857 1.17016 0
M  V30 6406 H 594.679 -3.73634 1.58596 0
M  V30 6407 H 595.445 -2.86665 3.91214 0
M  V30 6408 H 591.324 -3.57467 2.91098 0
M  V30 6409 H 594.868 -2.97372 6.31043 0
M  V30 6410 H 590.765 -3.68396 5.30052 0
M  V30 6411 H 591.533 -3.55558 7.37238 0
M  V30 6412 N 594.196 -1.08629 -1.14182 0
M  V30 6413 C 595.607 -0.838003 -1.66836 0
M  V30 6414 C 595.958 0.634885 -1.85644 0
M  V30 6415 O 595.083 1.49008 -1.56926 0
M  V30 6416 C 595.678 -1.51465 -3.03058 0
M  V30 6417 C 594.237 -1.31355 -3.52736 0
M  V30 6418 C 593.384 -1.57599 -2.28162 0
M  V30 6419 H 596.335 -1.24656 -0.982165 0
M  V30 6420 H 596.356 -0.943134 -3.68626 0
M  V30 6421 H 595.868 -2.58661 -2.89337 0
M  V30 6422 H 593.969 -0.262384 -3.71675 0
M  V30 6423 H 594.082 -2.04275 -4.33369 0
M  V30 6424 H 592.446 -0.997659 -2.34348 0
M  V30 6425 H 593.229 -2.66006 -2.17015 0
M  V30 6426 N 595.674 1.31259 -0.872281 0
M  V30 6427 C 596.604 2.30929 -0.345554 0
M  V30 6428 C 597.585 1.60449 0.5648 0
M  V30 6429 O 598.77 1.8814 0.481335 0
M  V30 6430 C 595.9 3.44348 0.451823 0
M  V30 6431 C 594.854 4.26435 -0.365641 0
M  V30 6432 C 594.18 5.31785 0.557562 0
M  V30 6433 C 595.48 4.97159 -1.60095 0
M  V30 6434 H 597.174 2.75234 -1.17841 0
M  V30 6435 H 594.72 1.3232 -0.568094 0
M  V30 6436 H 596.673 4.13128 0.830854 0
M  V30 6437 H 595.397 2.98816 1.31821 0
M  V30 6438 H 594.056 3.59326 -0.726649 0
M  V30 6439 H 593.704 4.82502 1.4213 0
M  V30 6440 H 593.404 5.87598 0.0144878 0
M  V30 6441 H 594.928 6.03424 0.933387 0
M  V30 6442 H 596.342 5.58523 -1.29323 0
M  V30 6443 H 594.739 5.62779 -2.08327 0
M  V30 6444 H 595.809 4.24012 -2.35249 0
M  V30 6445 N 597.152 0.631951 1.44375 0
M  V30 6446 C 598.38 0.143867 2.06399 0
M  V30 6447 C 598.795 -1.18188 1.47231 0
M  V30 6448 O 598.152 -1.72511 0.595498 0
M  V30 6449 C 598.203 0.0238253 3.61492 0
M  V30 6450 O 597.924 1.29715 4.18456 0
M  V30 6451 C 599.425 -0.492856 4.40552 0
M  V30 6452 H 596.645 0.0800542 0.666207 0
M  V30 6453 H 599.189 0.866586 1.85231 0
M  V30 6454 H 597.344 -0.649338 3.81919 0
M  V30 6455 H 597.758 1.14252 5.11905 0
M  V30 6456 H 599.232 -0.525861 5.49489 0
M  V30 6457 H 599.709 -1.52006 4.12057 0
M  V30 6458 H 600.315 0.147085 4.25046 0
M  V30 6459 N 598.631 -1.53133 0.372548 0
M  V30 6460 C 599.878 -2.01356 -0.214959 0
M  V30 6461 C 600.206 -1.2596 -1.48204 0
M  V30 6462 O 599.461 -0.343511 -1.92662 0
M  V30 6463 C 599.76 -3.53206 -0.545938 0
M  V30 6464 C 599.426 -4.46511 0.627624 0
M  V30 6465 C 598.088 -4.71737 0.949615 0
M  V30 6466 C 600.44 -5.01666 1.41353 0
M  V30 6467 C 597.768 -5.4937 2.05936 0
M  V30 6468 C 600.12 -5.80511 2.51375 0
M  V30 6469 C 598.784 -6.04022 2.84101 0
M  V30 6470 H 598.054 -0.736813 -0.078659 0
M  V30 6471 H 600.701 -1.84682 0.506447 0
M  V30 6472 H 599.006 -3.67864 -1.34845 0
M  V30 6473 H 600.703 -3.87997 -1.01287 0
M  V30 6474 H 597.293 -4.27029 0.366635 0
M  V30 6475 H 601.477 -4.82117 1.17802 0
M  V30 6476 H 596.733 -5.65803 2.31682 0
M  V30 6477 H 600.907 -6.22255 3.12684 0
M  V30 6478 H 598.534 -6.63962 3.70214 0
M  V30 6479 N 600.109 -0.101901 -1.5727 0
M  V30 6480 C 601.358 0.559922 -1.93772 0
M  V30 6481 C 601.671 1.68913 -0.98629 0
M  V30 6482 O 602.877 2.41256 -1.24529 0
M  V30 6483 C 601.333 1.04739 -3.44322 0
M  V30 6484 C 600.941 -0.05243 -4.47969 0
M  V30 6485 C 602.685 1.68157 -3.89774 0
M  V30 6486 C 600.592 0.450781 -5.8968 0
M  V30 6487 H 599.522 0.212931 -0.723309 0
M  V30 6488 H 602.173 -0.179001 -1.82625 0
M  V30 6489 H 600.555 1.84021 -3.50645 0
M  V30 6490 H 601.729 -0.828157 -4.53297 0
M  V30 6491 H 600.044 -0.592202 -4.12167 0
M  V30 6492 H 602.641 2.0689 -4.93052 0
M  V30 6493 H 602.984 2.55338 -3.28798 0
M  V30 6494 H 603.517 0.954453 -3.8618 0
M  V30 6495 H 600.256 -0.38458 -6.54371 0
M  V30 6496 H 599.776 1.19336 -5.87809 0
M  V30 6497 H 601.455 0.917555 -6.40461 0
M  V30 6498 N 601.587 1.56661 0.17182 0
M  V30 6499 C 602.519 1.92934 1.2373 0
M  V30 6500 C 603.532 0.822385 1.40502 0
M  V30 6501 O 604.721 1.10083 1.40514 0
M  V30 6502 C 601.821 2.16651 2.60607 0
M  V30 6503 C 600.994 3.47878 2.6514 0
M  V30 6504 C 600.053 3.60429 3.83377 0
M  V30 6505 O 599.079 4.33051 3.69398 0
M  V30 6506 N 600.281 2.95241 4.99813 0
M  V30 6507 H 603.046 2.84931 0.929205 0
M  V30 6508 H 600.607 1.5781 0.361588 0
M  V30 6509 H 602.599 2.22312 3.38171 0
M  V30 6510 H 601.169 1.3104 2.83809 0
M  V30 6511 H 600.389 3.53879 1.73675 0
M  V30 6512 H 601.677 4.34232 2.6518 0
M  V30 6513 H 601.075 2.3611 5.14071 0
M  V30 6514 H 599.632 3.06499 5.75241 0
M  V30 6515 N 603.065 -0.440357 1.51323 0
M  V30 6516 C 604.311 -1.19181 1.64085 0
M  V30 6517 C 604.644 -1.90936 0.354575 0
M  V30 6518 O 603.919 -1.8347 -0.645675 0
M  V30 6519 C 604.202 -2.2112 2.84215 0
M  V30 6520 C 604.055 -1.53468 4.22809 0
M  V30 6521 C 605.374 -3.22133 2.99864 0
M  V30 6522 H 602.493 -0.431924 0.597169 0
M  V30 6523 H 605.135 -0.481443 1.83799 0
M  V30 6524 H 603.285 -2.81703 2.67537 0
M  V30 6525 H 604.957 -0.962455 4.51148 0
M  V30 6526 H 603.2 -0.837086 4.25647 0
M  V30 6527 H 603.871 -2.27694 5.02852 0
M  V30 6528 H 606.347 -2.71601 3.15233 0
M  V30 6529 H 605.223 -3.90756 3.85488 0
M  V30 6530 H 605.484 -3.88061 2.11804 0
M  V30 6531 N 604.543 -1.41418 -0.695603 0
M  V30 6532 C 605.49 -1.43264 -1.80954 0
M  V30 6533 C 606.46 -0.287016 -1.63601 0
M  V30 6534 O 607.645 -0.488054 -1.84452 0
M  V30 6535 C 604.785 -1.32054 -3.18835 0
M  V30 6536 C 603.898 -2.56485 -3.4762 0
M  V30 6537 C 603.033 -2.3757 -4.75115 0
M  V30 6538 C 602.072 -3.57477 -4.96867 0
M  V30 6539 N 601.209 -3.37632 -6.15588 0
M  V30 6540 H 606.049 -2.38467 -1.78711 0
M  V30 6541 H 603.586 -1.18415 -0.872715 0
M  V30 6542 H 605.544 -1.23558 -3.98484 0
M  V30 6543 H 604.174 -0.404592 -3.20254 0
M  V30 6544 H 603.226 -2.75432 -2.62376 0
M  V30 6545 H 604.538 -3.45678 -3.59594 0
M  V30 6546 H 603.692 -2.2654 -5.62818 0
M  V30 6547 H 602.431 -1.45834 -4.65386 0
M  V30 6548 H 601.436 -3.68961 -4.07612 0
M  V30 6549 H 602.661 -4.50167 -5.08455 0
M  V30 6550 H 600.607 -2.48596 -6.07072 0
M  V30 6551 H 600.524 -4.20401 -6.2833 0
M  V30 6552 H 601.792 -3.30375 -7.06026 0
M  V30 6553 N 606.021 0.929856 -1.27246 0
M  V30 6554 C 606.953 2.03434 -1.0558 0
M  V30 6555 C 607.966 1.62795 -0.0125762 0
M  V30 6556 O 609.155 1.76685 -0.2539 0
M  V30 6557 C 606.255 3.33915 -0.57912 0
M  V30 6558 C 605.428 4.03259 -1.69415 0
M  V30 6559 C 604.487 5.12014 -1.21357 0
M  V30 6560 O 603.513 5.36097 -1.91282 0
M  V30 6561 N 604.715 5.8046 -0.0680622 0
M  V30 6562 H 607.48 2.22583 -2.00691 0
M  V30 6563 H 605.041 1.1001 -1.18783 0
M  V30 6564 H 607.033 4.03978 -0.241563 0
M  V30 6565 H 605.603 3.11355 0.278703 0
M  V30 6566 H 604.823 3.26958 -2.20209 0
M  V30 6567 H 606.111 4.46337 -2.44255 0
M  V30 6568 H 605.509 5.63345 0.515626 0
M  V30 6569 H 604.066 6.51461 0.210332 0
M  V30 6570 N 607.499 1.09233 1.13605 0
M  V30 6571 C 608.449 0.6994 2.17008 0
M  V30 6572 C 609.433 -0.285238 1.58352 0
M  V30 6573 O 610.625 -0.09592 1.7674 0
M  V30 6574 C 607.754 0.11938 3.43092 0
M  V30 6575 C 606.84 1.13031 4.0876 0
M  V30 6576 N 607.231 2.31673 4.49623 0
M  V30 6577 C 605.529 0.967999 4.35369 0
M  V30 6578 C 606.23 2.95964 5.00779 0
M  V30 6579 N 605.206 2.23534 4.95513 0
M  V30 6580 H 609.008 1.60272 2.46354 0
M  V30 6581 H 606.522 0.968257 1.30378 0
M  V30 6582 H 608.519 -0.180122 4.16511 0
M  V30 6583 H 607.179 -0.778816 3.15221 0
M  V30 6584 H 608.19 2.69277 4.42391 0
M  V30 6585 H 604.867 0.124319 4.17315 0
M  V30 6586 H 606.257 3.96813 5.42208 0
M  V30 6587 N 608.977 -1.30795 0.87923 0
M  V30 6588 C 610.207 -2.00237 0.50881 0
M  V30 6589 C 610.615 -1.66115 -0.905682 0
M  V30 6590 O 609.958 -0.89138 -1.60624 0
M  V30 6591 C 610.02 -3.54508 0.597003 0
M  V30 6592 C 609.684 -4.12131 1.97477 0
M  V30 6593 C 610.681 -4.28552 2.94346 0
M  V30 6594 C 608.366 -4.47644 2.2786 0
M  V30 6595 C 610.36 -4.79689 4.19735 0
M  V30 6596 C 608.047 -4.98481 3.53496 0
M  V30 6597 C 609.045 -5.14456 4.49248 0
M  V30 6598 O 608.733 -5.64199 5.72656 0
M  V30 6599 H 608.465 -0.647026 0.195788 0
M  V30 6600 H 611.019 -1.67785 1.1848 0
M  V30 6601 H 609.249 -3.86461 -0.135945 0
M  V30 6602 H 610.938 -4.05198 0.238684 0
M  V30 6603 H 611.704 -4.01424 2.72183 0
M  V30 6604 H 607.583 -4.34481 1.54102 0
M  V30 6605 H 611.127 -4.92073 4.9448 0
M  V30 6606 H 607.024 -5.25044 3.75498 0
M  V30 6607 H 607.792 -5.82551 5.74957 0
M  V30 6608 N 610.455 -0.639598 -1.44038 0
M  V30 6609 C 611.703 -0.147188 -2.01563 0
M  V30 6610 C 612.024 1.2384 -1.50628 0
M  V30 6611 O 611.294 1.82452 -0.713316 0
M  V30 6612 H 609.874 -0.0514231 -0.745228 0
M  V30 6613 H 612.536 -0.828205 -1.76428 0
M  V30 6614 H 611.632 -0.121358 -3.11864 0
M  V30 6615 N 611.933 1.52934 -0.380664 0
M  V30 6616 C 613.18 2.01467 0.204278 0
M  V30 6617 C 613.508 1.26744 1.47533 0
M  V30 6618 O 612.763 0.353723 1.92477 0
M  V30 6619 C 613.062 3.5349 0.527199 0
M  V30 6620 C 612.728 4.46171 -0.651295 0
M  V30 6621 C 611.39 4.71227 -0.974619 0
M  V30 6622 C 613.742 5.00909 -1.44012 0
M  V30 6623 C 611.07 5.4827 -2.08847 0
M  V30 6624 C 613.422 5.7917 -2.5445 0
M  V30 6625 C 612.086 6.02507 -2.87301 0
M  V30 6626 H 611.356 0.73722 0.0747504 0
M  V30 6627 H 614.003 1.84411 -0.516234 0
M  V30 6628 H 612.308 3.68574 1.32892 0
M  V30 6629 H 614.005 3.88529 0.992283 0
M  V30 6630 H 610.595 4.26829 -0.389276 0
M  V30 6631 H 614.779 4.81485 -1.20357 0
M  V30 6632 H 610.035 5.64567 -2.34679 0
M  V30 6633 H 614.209 6.20588 -3.1598 0
M  V30 6634 H 611.836 6.61989 -3.7373 0
M  V30 6635 N 613.412 0.11024 1.57214 0
M  V30 6636 C 614.658 -0.550684 1.9518 0
M  V30 6637 C 614.991 -1.66885 0.993122 0
M  V30 6638 O 614.266 -1.94479 0.0287907 0
M  V30 6639 C 614.549 -1.09163 3.43155 0
M  V30 6640 C 614.402 0.0225198 4.49794 0
M  V30 6641 C 615.721 -1.98527 3.92778 0
M  V30 6642 H 612.84 -0.198706 0.709708 0
M  V30 6643 H 615.482 0.184024 1.89107 0
M  V30 6644 H 613.632 -1.71775 3.48462 0
M  V30 6645 H 615.304 0.657443 4.56591 0
M  V30 6646 H 613.547 0.686868 4.28328 0
M  V30 6647 H 614.218 -0.39706 5.5057 0
M  V30 6648 H 616.694 -1.458 3.8972 0
M  V30 6649 H 615.57 -2.33298 4.96853 0
M  V30 6650 H 615.831 -2.90846 3.32958 0
M  V30 6651 N 614.89 -1.56749 -0.16351 0
M  V30 6652 C 615.82 -2.00042 -1.20438 0
M  V30 6653 C 616.801 -0.877256 -1.45733 0
M  V30 6654 O 617.986 -1.1439 -1.56935 0
M  V30 6655 C 615.116 -2.36697 -2.54149 0
M  V30 6656 C 614.07 -3.52046 -2.43408 0
M  V30 6657 C 613.396 -3.74466 -3.81679 0
M  V30 6658 C 614.696 -4.85247 -1.93216 0
M  V30 6659 H 616.39 -2.87244 -0.844477 0
M  V30 6660 H 613.936 -1.38194 -0.40478 0
M  V30 6661 H 615.889 -2.65582 -3.27176 0
M  V30 6662 H 614.613 -1.46414 -2.91943 0
M  V30 6663 H 613.272 -3.23301 -1.72834 0
M  V30 6664 H 612.92 -2.81461 -4.1688 0
M  V30 6665 H 612.62 -4.52084 -3.75359 0
M  V30 6666 H 614.144 -4.0576 -4.5628 0
M  V30 6667 H 615.558 -5.12957 -2.56023 0
M  V30 6668 H 613.955 -5.66556 -1.97825 0
M  V30 6669 H 615.025 -4.7672 -0.88689 0
M  V30 6670 N 616.368 0.432326 -1.51554 0
M  V30 6671 C 617.598 1.2019 -1.68042 0
M  V30 6672 C 618.006 1.85356 -0.379434 0
M  V30 6673 O 617.349 1.71724 0.652427 0
M  V30 6674 C 617.411 2.32387 -2.74292 0
M  V30 6675 C 617.075 1.87548 -4.16743 0
M  V30 6676 C 618.072 1.37611 -5.01357 0
M  V30 6677 C 615.757 1.95087 -4.62868 0
M  V30 6678 C 617.751 0.958069 -6.30159 0
M  V30 6679 C 615.438 1.52894 -5.91664 0
M  V30 6680 C 616.436 1.03336 -6.75137 0
M  V30 6681 O 616.124 0.617435 -8.01525 0
M  V30 6682 H 615.856 0.368132 -0.56697 0
M  V30 6683 H 618.41 0.517875 -1.98764 0
M  V30 6684 H 616.64 3.04082 -2.38895 0
M  V30 6685 H 618.329 2.94235 -2.79608 0
M  V30 6686 H 619.095 1.31178 -4.66923 0
M  V30 6687 H 614.974 2.32606 -3.98015 0
M  V30 6688 H 618.518 0.570562 -6.95263 0
M  V30 6689 H 614.415 1.58999 -6.25611 0
M  V30 6690 H 615.183 0.742835 -8.15122 0
M  V30 6691 N 617.846 1.41785 0.688094 0
M  V30 6692 C 619.262 1.24419 0.999608 0
M  V30 6693 C 619.462 0.138868 2.01021 0
M  V30 6694 O 618.518 -0.494283 2.47615 0
M  V30 6695 C 619.831 2.59625 1.51709 0
M  V30 6696 C 621.379 2.66869 1.63554 0
M  V30 6697 C 621.854 4.0241 2.18702 0
M  V30 6698 N 623.345 4.04295 2.26053 0
M  V30 6699 C 624.08 5.05977 2.69768 0
M  V30 6700 N 623.576 6.18047 3.13033 0
M  V30 6701 N 625.369 4.93336 2.69398 0
M  V30 6702 H 617.52 2.12392 0.0187427 0
M  V30 6703 H 619.783 0.945347 0.0708673 0
M  V30 6704 H 619.489 3.41297 0.849059 0
M  V30 6705 H 619.363 2.82628 2.49803 0
M  V30 6706 H 621.75 1.8555 2.29467 0
M  V30 6707 H 621.831 2.47668 0.639857 0
M  V30 6708 H 621.475 4.8418 1.53402 0
M  V30 6709 H 621.405 4.18955 3.19037 0
M  V30 6710 H 623.896 3.23383 1.9553 0
M  V30 6711 H 624.209 6.91498 3.45038 0
M  V30 6712 H 622.554 6.21572 3.10923 0
M  V30 6713 H 625.745 4.04865 2.34952 0
M  V30 6714 H 625.918 5.72717 3.03148 0
M  V30 6715 N 619.324 -0.923095 1.27737 0
M  V30 6716 C 620.552 -1.70525 1.17171 0
M  V30 6717 C 620.967 -1.86847 -0.270881 0
M  V30 6718 O 620.324 -1.38879 -1.18401 0
M  V30 6719 C 620.375 -3.10242 1.85559 0
M  V30 6720 O 620.096 -2.94683 3.24182 0
M  V30 6721 C 621.597 -4.04586 1.81176 0
M  V30 6722 H 618.817 -0.533347 0.407163 0
M  V30 6723 H 621.361 -1.15599 1.68692 0
M  V30 6724 H 619.516 -3.62014 1.3793 0
M  V30 6725 H 619.93 -3.83045 3.58297 0
M  V30 6726 H 621.404 -5.00119 2.33633 0
M  V30 6727 H 621.881 -4.3218 0.782099 0
M  V30 6728 H 622.487 -3.58741 2.2844 0
M  V30 6729 N 620.802 -1.09834 -1.13024 0
M  V30 6730 C 622.03 -0.858902 -1.8823 0
M  V30 6731 C 622.445 0.590164 -1.79339 0
M  V30 6732 O 621.802 1.4065 -1.16292 0
M  V30 6733 C 621.853 -1.29066 -3.37675 0
M  V30 6734 O 621.574 -2.6829 -3.46341 0
M  V30 6735 C 623.075 -1.08421 -4.29837 0
M  V30 6736 H 620.295 -0.308713 -0.595766 0
M  V30 6737 H 622.839 -1.4614 -1.4305 0
M  V30 6738 H 620.994 -0.731961 -3.80422 0
M  V30 6739 H 621.408 -2.86598 -4.39274 0
M  V30 6740 H 622.882 -1.43553 -5.33007 0
M  V30 6741 H 623.359 -0.0223315 -4.39194 0
M  V30 6742 H 623.965 -1.62907 -3.92863 0
M  V30 6743 N 622.28 1.30327 -0.886154 0
M  V30 6744 C 623.21 2.30549 -0.370028 0
M  V30 6745 C 624.191 1.61039 0.547751 0
M  V30 6746 O 625.376 1.8864 0.461353 0
M  V30 6747 C 622.506 3.44808 0.415275 0
M  V30 6748 C 621.46 4.26024 -0.41085 0
M  V30 6749 C 620.786 5.32347 0.501128 0
M  V30 6750 C 622.086 4.95433 -1.65359 0
M  V30 6751 H 623.78 2.73969 -1.20754 0
M  V30 6752 H 621.326 1.3171 -0.582097 0
M  V30 6753 H 623.279 4.13986 0.78699 0
M  V30 6754 H 622.003 3.00197 1.28644 0
M  V30 6755 H 620.662 3.58535 -0.764719 0
M  V30 6756 H 620.31 4.83982 1.37004 0
M  V30 6757 H 620.01 5.87581 -0.0478356 0
M  V30 6758 H 621.534 6.0438 0.869333 0
M  V30 6759 H 622.948 5.5712 -1.35239 0
M  V30 6760 H 621.345 5.60537 -2.14284 0
M  V30 6761 H 622.415 4.21493 -2.39733 0
M  V30 6762 N 623.758 0.647228 1.43697 0
M  V30 6763 C 625.169 0.238689 1.85168 0
M  V30 6764 C 625.52 -1.21345 1.54175 0
M  V30 6765 O 624.645 -1.92542 0.987743 0
M  V30 6766 C 625.24 0.426422 3.36106 0
M  V30 6767 C 623.799 0.0722541 3.76331 0
M  V30 6768 C 622.946 0.732153 2.6746 0
M  V30 6769 H 625.897 0.851309 1.33934 0
M  V30 6770 H 625.918 -0.32987 3.79067 0
M  V30 6771 H 625.43 1.48339 3.58632 0
M  V30 6772 H 623.531 -0.982355 3.59417 0
M  V30 6773 H 623.644 0.493541 4.76551 0
M  V30 6774 H 622.008 0.16594 2.54159 0
M  V30 6775 H 622.791 1.79204 2.92816 0
M  V30 6776 N 625.236 -1.5273 0.388769 0
M  V30 6777 C 626.168 -2.24081 -0.481704 0
M  V30 6778 C 627.181 -1.26307 -1.02715 0
M  V30 6779 O 628.37 -1.52386 -0.929565 0
M  V30 6780 C 625.47 -2.94315 -1.68024 0
M  V30 6781 C 624.643 -4.18791 -1.26226 0
M  V30 6782 C 623.702 -4.72028 -2.32542 0
M  V30 6783 O 622.728 -5.35129 -1.93972 0
M  V30 6784 N 623.93 -4.51838 -3.64448 0
M  V30 6785 H 626.695 -2.9942 0.129591 0
M  V30 6786 H 624.256 -1.60465 0.2151 0
M  V30 6787 H 626.248 -3.26831 -2.38671 0
M  V30 6788 H 624.818 -2.22287 -2.19789 0
M  V30 6789 H 624.038 -3.92318 -0.384703 0
M  V30 6790 H 625.326 -4.99668 -0.959647 0
M  V30 6791 H 624.724 -4.01468 -3.98547 0
M  V30 6792 H 623.281 -4.88845 -4.31131 0
M  V30 6793 N 626.714 -0.118576 -1.57153 0
M  V30 6794 C 627.991 0.583062 -1.86708 0
M  V30 6795 C 628.371 1.84841 -1.01967 0
M  V30 6796 O 627.719 2.28288 -0.0984673 0
M  V30 6797 C 627.929 0.875912 -3.3783 0
M  V30 6798 C 629.277 1.22916 -4.0642 0
M  V30 6799 O 630.301 0.966188 -3.42846 0
M  V30 6800 O 629.16 1.72269 -5.18638 0
M  V30 6801 H 626.254 0.294185 -0.772906 0
M  V30 6802 H 628.8 -0.153048 -1.69008 0
M  V30 6803 H 627.572 -0.0207776 -3.91294 0
M  V30 6804 H 627.195 1.66719 -3.60958 0
M  V30 6805 N 628.193 1.56834 0.155195 0
M  V30 6806 C 629.433 1.84701 0.875488 0
M  V30 6807 C 629.797 0.701747 1.78716 0
M  V30 6808 O 630.998 0.861263 2.54629 0
M  V30 6809 C 629.269 3.1773 1.63654 0
M  V30 6810 S 630.828 3.67128 2.40338 0
M  V30 6811 H 627.646 0.647856 0.292923 0
M  V30 6812 H 630.248 1.95026 0.136024 0
M  V30 6813 H 628.952 3.99059 0.958117 0
M  V30 6814 H 628.483 3.10388 2.41708 0
M  V30 6815 H 630.498 3.35739 3.65368 0
M  V30 6816 N 629.671 -0.424282 1.51781 0
M  V30 6817 C 630.896 -1.19928 1.6921 0
M  V30 6818 C 631.321 -1.8392 0.394355 0
M  V30 6819 O 630.679 -1.69371 -0.646778 0
M  V30 6820 C 630.727 -2.24937 2.81843 0
M  V30 6821 O 629.831 -3.3073 2.46356 0
M  V30 6822 H 629.172 -0.35078 0.563781 0
M  V30 6823 H 631.702 -0.499401 1.98412 0
M  V30 6824 H 631.712 -2.69512 3.06312 0
M  V30 6825 H 630.387 -1.77742 3.76006 0
M  V30 6826 H 628.964 -2.9154 2.32505 0
M  V30 6827 N 631.149 -1.42148 -0.680565 0
M  V30 6828 C 632.097 -1.45401 -1.81552 0
M  V30 6829 C 633.091 -0.33036 -1.66147 0
M  V30 6830 O 634.297 -0.503103 -1.72826 0
M  V30 6831 H 630.672 -0.455265 -0.59853 0
M  V30 6832 H 632.643 -2.41024 -1.75926 0
M  V30 6833 C 631.392 -1.36769 -3.19671 0
M  V30 6834 H 630.715 -2.22525 -3.32149 0
M  V30 6835 H 632.155 -1.43106 -3.9912 0
M  V30 6836 C 630.614 -0.0817752 -3.36801 0
M  V30 6837 O 631.144 0.867707 -3.92216 0
M  V30 6838 N 629.35 -0.000799811 -2.906 0
M  V30 6839 H 628.897 -0.774231 -2.4569 0
M  V30 6840 H 628.855 0.858961 -3.02439 0
M  V30 6841 N 632.627 0.916307 -1.28225 0
M  V30 6842 C 634.038 1.48024 -1.13779 0
M  V30 6843 C 634.389 1.94289 0.273139 0
M  V30 6844 O 633.514 1.82226 1.16716 0
M  V30 6845 C 634.109 2.69029 -2.05935 0
M  V30 6846 C 632.668 3.2161 -1.95561 0
M  V30 6847 C 631.815 1.94321 -1.97825 0
M  V30 6848 H 634.766 0.729272 -1.40951 0
M  V30 6849 H 634.787 3.44204 -1.62184 0
M  V30 6850 H 634.299 2.35325 -3.08616 0
M  V30 6851 H 632.4 3.60045 -0.959076 0
M  V30 6852 H 632.513 3.87032 -2.82388 0
M  V30 6853 H 630.877 2.1131 -1.42198 0
M  V30 6854 H 631.66 1.62917 -3.0218 0
M  V30 6855 N 634.105 1.10431 1.1244 0
M  V30 6856 C 635.068 0.756542 2.16354 0
M  V30 6857 C 636.068 -0.21899 1.59302 0
M  V30 6858 O 637.258 0.00415969 1.742 0
M  V30 6859 C 634.39 0.120612 3.40687 0
M  V30 6860 H 635.583 1.67696 2.48632 0
M  V30 6861 H 633.136 0.904832 1.27446 0
M  V30 6862 H 633.871 -0.810536 3.14008 0
M  V30 6863 H 633.656 0.822693 3.83372 0
M  V30 6864 H 635.146 -0.106945 4.17463 0
M  V30 6865 N 635.583 -1.29855 0.893053 0
M  V30 6866 C 636.994 -1.77946 0.564998 0
M  V30 6867 C 637.345 -1.73339 -0.919134 0
M  V30 6868 O 636.47 -1.3152 -1.71847 0
M  V30 6869 C 637.065 -3.23118 1.01883 0
M  V30 6870 C 635.624 -3.69013 0.742051 0
M  V30 6871 C 634.771 -2.50121 1.19727 0
M  V30 6872 H 637.722 -1.16611 1.07646 0
M  V30 6873 H 637.743 -3.78875 0.351249 0
M  V30 6874 H 637.255 -3.26439 2.09903 0
M  V30 6875 H 635.356 -3.71173 -0.325816 0
M  V30 6876 H 635.469 -4.60117 1.33527 0
M  V30 6877 H 633.833 -2.47128 0.616418 0
M  V30 6878 H 634.616 -2.56174 2.28538 0
M  V30 6879 N 637.061 -0.65484 -1.43351 0
M  V30 6880 C 637.991 0.0221809 -2.33489 0
M  V30 6881 C 638.972 0.810272 -1.49561 0
M  V30 6882 O 640.157 0.771426 -1.78221 0
M  V30 6883 C 637.287 0.988117 -3.32947 0
M  V30 6884 C 636.241 0.310026 -4.26876 0
M  V30 6885 C 635.567 1.38752 -5.16384 0
M  V30 6886 C 636.867 -0.798589 -5.16159 0
M  V30 6887 H 638.561 -0.730571 -2.9035 0
M  V30 6888 H 636.107 -0.352773 -1.39612 0
M  V30 6889 H 638.06 1.47067 -3.94904 0
M  V30 6890 H 636.784 1.77205 -2.74346 0
M  V30 6891 H 635.443 -0.152097 -3.66284 0
M  V30 6892 H 635.091 2.16293 -4.54121 0
M  V30 6893 H 634.791 0.939051 -5.80048 0
M  V30 6894 H 636.315 1.87141 -5.81215 0
M  V30 6895 H 637.729 -0.398126 -5.71916 0
M  V30 6896 H 636.126 -1.17163 -5.88552 0
M  V30 6897 H 637.196 -1.65588 -4.55751 0
M  V30 6898 N 638.539 1.52521 -0.396863 0
M  V30 6899 C 639.764 2.06571 0.185258 0
M  V30 6900 C 640.189 1.26605 1.39115 0
M  V30 6901 O 639.547 0.293055 1.78916 0
M  V30 6902 C 639.595 3.5674 0.526189 0
M  V30 6903 O 638.699 3.7929 1.61903 0
M  V30 6904 H 638.04 0.663712 0.0195474 0
M  V30 6905 H 640.57 1.966 -0.566519 0
M  V30 6906 H 640.58 4.00311 0.788338 0
M  V30 6907 H 639.255 4.14379 -0.355397 0
M  V30 6908 H 637.832 3.47605 1.35 0
M  V30 6909 N 640.017 0.126909 1.57088 0
M  V30 6910 C 641.242 -0.53997 2.00248 0
M  V30 6911 C 641.667 -1.58927 1.00618 0
M  V30 6912 O 641.025 -1.81288 -0.0210131 0
M  V30 6913 C 641.073 -1.13565 3.4225 0
M  V30 6914 O 640.177 -2.25103 3.45547 0
M  V30 6915 H 639.518 -0.13412 0.650314 0
M  V30 6916 H 642.048 0.217718 2.03438 0
M  V30 6917 H 642.058 -1.46925 3.80627 0
M  V30 6918 H 640.733 -0.367122 4.14277 0
M  V30 6919 H 639.31 -1.93123 3.18995 0
M  V30 6920 N 641.495 -1.56914 -0.146875 0
M  V30 6921 C 642.906 -1.72799 -0.706928 0
M  V30 6922 C 643.257 -0.741329 -1.81656 0
M  V30 6923 O 642.382 0.0920162 -2.16204 0
M  V30 6924 C 642.977 -3.13317 -1.28911 0
M  V30 6925 C 641.536 -3.30803 -1.79573 0
M  V30 6926 C 640.683 -2.68725 -0.684252 0
M  V30 6927 H 643.634 -1.58504 0.0787931 0
M  V30 6928 H 643.655 -3.13323 -2.15891 0
M  V30 6929 H 643.167 -3.85104 -0.481284 0
M  V30 6930 H 641.268 -2.64012 -2.62923 0
M  V30 6931 H 641.381 -4.38754 -1.92436 0
M  V30 6932 H 639.745 -2.29196 -1.11091 0
M  V30 6933 H 640.528 -3.43117 0.112134 0
M  V30 6934 N 642.974 0.416227 -1.52004 0
M  V30 6935 C 643.904 1.51365 -1.77795 0
M  V30 6936 C 644.885 1.58059 -0.628601 0
M  V30 6937 O 646.07 1.73447 -0.873478 0
M  V30 6938 C 643.2 2.89256 -1.92219 0
M  V30 6939 C 642.154 2.97415 -3.0778 0
M  V30 6940 C 641.48 4.37492 -3.07417 0
M  V30 6941 C 642.78 2.69551 -4.47369 0
M  V30 6942 H 644.474 1.30033 -2.69688 0
M  V30 6943 H 642.02 0.624112 -1.29772 0
M  V30 6944 H 643.973 3.66008 -2.08845 0
M  V30 6945 H 642.697 3.11866 -0.969917 0
M  V30 6946 H 641.356 2.23107 -2.90893 0
M  V30 6947 H 641.004 4.571 -2.09925 0
M  V30 6948 H 640.704 4.43877 -3.85029 0
M  V30 6949 H 642.228 5.16188 -3.26162 0
M  V30 6950 H 643.642 3.36028 -4.64497 0
M  V30 6951 H 642.039 2.87321 -5.26846 0
M  V30 6952 H 643.109 1.65029 -4.55953 0
M  V30 6953 N 644.452 1.42507 0.673017 0
M  V30 6954 C 645.4 1.46362 1.80779 0
M  V30 6955 C 646.394 0.339166 1.6597 0
M  V30 6956 O 647.6 0.512262 1.72557 0
M  V30 6957 H 643.975 0.458433 0.596107 0
M  V30 6958 H 645.946 2.41953 1.74646 0
M  V30 6959 C 644.695 1.38462 3.18941 0
M  V30 6960 H 644.018 2.24283 3.30964 0
M  V30 6961 H 645.458 1.45221 3.98355 0
M  V30 6962 C 643.917 0.0996354 3.36753 0
M  V30 6963 O 644.447 -0.846894 3.92671 0
M  V30 6964 N 642.653 0.016211 2.90595 0
M  V30 6965 H 642.2 0.78725 2.45276 0
M  V30 6966 H 642.158 -0.84291 3.0289 0
M  V30 6967 N 645.93 -0.909495 1.28709 0
M  V30 6968 C 647.178 -1.65577 1.15882 0
M  V30 6969 C 647.499 -1.928 -0.292108 0
M  V30 6970 O 646.769 -1.54716 -1.20166 0
M  V30 6971 H 645.349 -0.613714 0.425869 0
M  V30 6972 H 648.011 -1.09108 1.61498 0
M  V30 6973 H 647.107 -2.61634 1.70159 0
M  V30 6974 N 647.408 -1.11026 -1.11852 0
M  V30 6975 C 648.654 -0.857729 -1.83768 0
M  V30 6976 C 648.987 0.615143 -1.842 0
M  V30 6977 O 648.262 1.45391 -1.29196 0
M  V30 6978 C 648.545 -1.41453 -3.31154 0
M  V30 6979 C 648.398 -2.95471 -3.39142 0
M  V30 6980 C 649.717 -1.0619 -4.27097 0
M  V30 6981 H 646.836 -0.313044 -0.667212 0
M  V30 6982 H 649.478 -1.37443 -1.31185 0
M  V30 6983 H 647.628 -0.975052 -3.76065 0
M  V30 6984 H 649.3 -3.4799 -3.02821 0
M  V30 6985 H 647.543 -3.31759 -2.79497 0
M  V30 6986 H 648.214 -3.29515 -4.42859 0
M  V30 6987 H 650.69 -1.44122 -3.90344 0
M  V30 6988 H 649.566 -1.47832 -5.28618 0
M  V30 6989 H 649.827 0.0278912 -4.42091 0
M  V30 6990 N 648.886 1.2938 -0.899927 0
M  V30 6991 C 649.836 2.25311 -0.349165 0
M  V30 6992 C 650.82 1.51889 0.530892 0
M  V30 6993 O 652.012 1.73028 0.372872 0
M  V30 6994 C 649.141 3.40696 0.422055 0
M  V30 6995 C 648.227 4.21455 -0.472935 0
M  V30 6996 N 648.618 4.8048 -1.58026 0
M  V30 6997 C 646.916 4.45177 -0.270767 0
M  V30 6998 C 647.617 5.41117 -2.13465 0
M  V30 6999 N 646.593 5.24518 -1.42766 0
M  V30 7000 H 650.395 2.68507 -1.19505 0
M  V30 7001 H 647.909 1.43992 -0.751006 0
M  V30 7002 H 649.906 4.08486 0.833369 0
M  V30 7003 H 648.566 2.99037 1.2652 0
M  V30 7004 H 649.577 4.79257 -1.96299 0
M  V30 7005 H 646.254 4.14071 0.533988 0
M  V30 7006 H 647.644 5.979 -3.06537 0
M  V30 7007 N 650.364 0.662433 1.43002 0
M  V30 7008 C 651.641 0.109096 1.95296 0
M  V30 7009 C 652.021 -1.37313 1.60338 0
M  V30 7010 O 651.369 -2.1032 0.893187 0
M  V30 7011 C 651.579 0.365096 3.47085 0
M  V30 7012 C 652.927 0.274964 4.23709 0
M  V30 7013 O 653.951 0.29816 3.5495 0
M  V30 7014 O 652.81 0.206549 5.4611 0
M  V30 7015 H 649.904 -0.00429724 0.826989 0
M  V30 7016 H 652.45 0.736308 1.52894 0
M  V30 7017 H 651.222 1.39237 3.65689 0
M  V30 7018 H 650.845 -0.294733 3.96506 0
M  V30 7019 N 651.842 -1.52309 0.404946 0
M  V30 7020 C 653.258 -1.59503 0.0556255 0
M  V30 7021 C 653.458 -1.41805 -1.43156 0
M  V30 7022 O 652.514 -1.2429 -2.19792 0
M  V30 7023 C 653.827 -2.95687 0.546801 0
M  V30 7024 C 655.375 -3.08909 0.504413 0
M  V30 7025 C 655.85 -4.47566 0.97203 0
M  V30 7026 N 657.341 -4.53795 0.928679 0
M  V30 7027 C 658.076 -5.59346 1.26174 0
M  V30 7028 N 657.572 -6.72469 1.66604 0
M  V30 7029 N 659.365 -5.49532 1.18198 0
M  V30 7030 H 651.516 -1.6206 1.37296 0
M  V30 7031 H 653.779 -0.762161 0.563751 0
M  V30 7032 H 653.485 -3.13905 1.58609 0
M  V30 7033 H 653.359 -3.77172 -0.0457905 0
M  V30 7034 H 655.746 -2.90378 -0.525819 0
M  V30 7035 H 655.827 -2.2934 1.13301 0
M  V30 7036 H 655.471 -4.6684 2.00057 0
M  V30 7037 H 655.401 -5.25625 0.320292 0
M  V30 7038 H 657.892 -3.72588 0.631369 0
M  V30 7039 H 658.205 -7.48993 1.9034 0
M  V30 7040 H 656.55 -6.73761 1.70504 0
M  V30 7041 H 659.741 -4.60038 0.865011 0
M  V30 7042 H 659.914 -6.31687 1.44485 0
M  V30 7043 N 653.32 -0.135238 -1.57019 0
M  V30 7044 C 654.283 0.794707 -2.14981 0
M  V30 7045 C 655.283 1.18342 -1.08866 0
M  V30 7046 O 656.473 1.10627 -1.34563 0
M  V30 7047 C 653.605 2.07685 -2.70333 0
M  V30 7048 H 654.798 0.290696 -2.98488 0
M  V30 7049 H 652.351 0.114128 -1.55883 0
M  V30 7050 H 653.086 2.6248 -1.9046 0
M  V30 7051 H 652.871 1.80745 -3.47957 0
M  V30 7052 H 654.361 2.74127 -3.1503 0
M  V30 7053 N 654.798 1.5699 0.138552 0
M  V30 7054 C 656.028 1.87704 0.863184 0
M  V30 7055 C 656.436 0.722411 1.74865 0
M  V30 7056 O 655.779 -0.316636 1.80951 0
M  V30 7057 C 655.841 3.13219 1.76449 0
M  V30 7058 C 655.505 4.44648 1.05532 0
M  V30 7059 C 656.502 5.18318 0.405252 0
M  V30 7060 C 654.187 4.91367 1.04231 0
M  V30 7061 C 656.181 6.36916 -0.24835 0
M  V30 7062 C 653.868 6.09887 0.384904 0
M  V30 7063 C 654.866 6.82508 -0.259292 0
M  V30 7064 O 654.554 7.98775 -0.906258 0
M  V30 7065 H 654.286 0.626255 0.254521 0
M  V30 7066 H 656.84 2.04966 0.133472 0
M  V30 7067 H 655.07 2.91988 2.53535 0
M  V30 7068 H 656.759 3.30111 2.36181 0
M  V30 7069 H 657.525 4.83289 0.407053 0
M  V30 7070 H 653.404 4.34759 1.53315 0
M  V30 7071 H 656.948 6.93538 -0.751755 0
M  V30 7072 H 652.845 6.44376 0.380799 0
M  V30 7073 H 653.613 8.14494 -0.80877 0
M  V30 7074 N 656.276 -0.40816 1.52223 0
M  V30 7075 C 657.522 -1.15673 1.66576 0
M  V30 7076 C 657.855 -1.90141 0.394996 0
M  V30 7077 O 657.13 -1.84798 -0.606613 0
M  V30 7078 C 657.413 -2.15042 2.88841 0
M  V30 7079 C 657.266 -1.44465 4.25969 0
M  V30 7080 C 658.585 -3.15699 3.0663 0
M  V30 7081 H 655.704 -0.41916 0.606196 0
M  V30 7082 H 658.346 -0.442348 1.84779 0
M  V30 7083 H 656.496 -2.75964 2.73452 0
M  V30 7084 H 658.168 -0.866544 4.53088 0
M  V30 7085 H 656.411 -0.746612 4.27327 0
M  V30 7086 H 657.082 -2.16976 5.07568 0
M  V30 7087 H 659.558 -2.64854 3.20923 0
M  V30 7088 H 658.434 -3.82491 3.9369 0
M  V30 7089 H 658.695 -3.83481 2.19987 0
M  V30 7090 N 657.755 -1.42862 -0.66545 0
M  V30 7091 C 658.718 -1.46756 -1.76055 0
M  V30 7092 C 659.718 -0.353866 -1.56858 0
M  V30 7093 O 660.908 -0.615099 -1.62979 0
M  V30 7094 C 658.04 -1.30829 -3.14796 0
M  V30 7095 H 659.233 -2.44271 -1.73987 0
M  V30 7096 H 656.786 -1.29447 -0.875965 0
M  V30 7097 H 657.521 -0.342733 -3.22484 0
M  V30 7098 H 657.306 -2.11551 -3.30134 0
M  V30 7099 H 658.796 -1.36458 -3.94676 0
M  V30 7100 N 659.233 0.902656 -1.29189 0
M  V30 7101 C 660.479 1.65532 -1.17163 0
M  V30 7102 C 660.812 1.92216 0.276879 0
M  V30 7103 O 660.087 1.53048 1.20027 0
M  V30 7104 C 660.37 3.00629 -1.98228 0
M  V30 7105 C 660.223 2.81029 -3.51202 0
M  V30 7106 C 661.542 4.01321 -1.80635 0
M  V30 7107 H 658.661 0.60071 -0.426985 0
M  V30 7108 H 661.303 1.04578 -1.5863 0
M  V30 7109 H 659.453 3.52656 -1.62991 0
M  V30 7110 H 661.125 2.35927 -3.96404 0
M  V30 7111 H 659.368 2.1587 -3.76275 0
M  V30 7112 H 660.039 3.77014 -4.03192 0
M  V30 7113 H 662.515 3.58394 -2.11406 0
M  V30 7114 H 661.391 4.93792 -2.3971 0
M  V30 7115 H 661.652 4.35505 -0.760754 0
M  V30 7116 N 660.711 1.11618 1.11262 0
M  V30 7117 C 661.988 0.777876 1.79467 0
M  V30 7118 C 662.368 -0.733774 1.97937 0
M  V30 7119 O 661.716 -1.66443 1.56554 0
M  V30 7120 C 661.926 1.5431 3.13032 0
M  V30 7121 C 663.274 1.72357 3.88044 0
M  V30 7122 O 664.298 1.5075 3.22727 0
M  V30 7123 O 663.157 2.08276 5.05256 0
M  V30 7124 H 660.251 0.282018 0.777428 0
M  V30 7125 H 662.797 1.21971 1.17988 0
M  V30 7126 H 661.569 2.57132 2.94956 0
M  V30 7127 H 661.192 1.09495 3.82226 0
M  V30 7128 N 662.189 -1.289 0.906776 0
M  V30 7129 C 663.437 -1.94883 0.535266 0
M  V30 7130 C 663.758 -1.71784 -0.922791 0
M  V30 7131 O 663.028 -1.05359 -1.65156 0
M  V30 7132 H 661.608 -0.721109 0.194962 0
M  V30 7133 H 664.27 -1.57018 1.15461 0
M  V30 7134 H 663.366 -3.03591 0.723821 0
M  V30 7135 N 663.667 -0.670007 -1.42649 0
M  V30 7136 C 664.916 -0.187526 -2.00826 0
M  V30 7137 C 665.229 1.21142 -1.53571 0
M  V30 7138 O 666.435 1.79001 -2.04134 0
M  V30 7139 C 664.891 -0.284409 -3.58774 0
M  V30 7140 C 664.499 -1.6871 -4.15019 0
M  V30 7141 C 666.243 0.139605 -4.2427 0
M  V30 7142 C 664.15 -1.73701 -5.65316 0
M  V30 7143 H 663.08 -0.0663468 -0.751075 0
M  V30 7144 H 665.731 -0.834492 -1.63427 0
M  V30 7145 H 664.113 0.430364 -3.93655 0
M  V30 7146 H 665.287 -2.42857 -3.91608 0
M  V30 7147 H 663.602 -2.05855 -3.61957 0
M  V30 7148 H 666.199 0.122398 -5.3456 0
M  V30 7149 H 666.542 1.17403 -3.99402 0
M  V30 7150 H 667.075 -0.523995 -3.94334 0
M  V30 7151 H 663.814 -2.75109 -5.94975 0
M  V30 7152 H 663.334 -1.03903 -5.90732 0
M  V30 7153 H 665.013 -1.48829 -6.2965 0
M  V30 7154 N 665.145 1.52092 -0.413018 0
M  V30 7155 C 666.556 1.86617 0.0556967 0
M  V30 7156 C 666.907 1.33156 1.44097 0
M  V30 7157 O 666.032 0.672417 2.05688 0
M  V30 7158 C 666.627 3.38628 0.107844 0
M  V30 7159 C 665.186 3.72778 0.520904 0
M  V30 7160 C 664.333 2.75649 -0.302109 0
M  V30 7161 H 667.284 1.45663 -0.629919 0
M  V30 7162 H 667.305 3.69152 0.922324 0
M  V30 7163 H 666.817 3.77508 -0.900506 0
M  V30 7164 H 664.918 3.39478 1.53575 0
M  V30 7165 H 665.031 4.7838 0.262591 0
M  V30 7166 H 663.395 2.53603 0.236115 0
M  V30 7167 H 664.178 3.17369 -1.30888 0
M  V30 7168 N 666.623 0.143563 1.56945 0
M  V30 7169 C 667.555 -0.828353 2.13708 0
M  V30 7170 C 668.568 -1.21313 1.08568 0
M  V30 7171 O 669.757 -1.1578 1.35857 0
M  V30 7172 C 666.857 -2.12248 2.64204 0
M  V30 7173 C 666.03 -1.90561 3.93707 0
M  V30 7174 C 665.089 -3.03931 4.29549 0
M  V30 7175 O 664.115 -2.75772 4.97934 0
M  V30 7176 N 665.317 -4.31016 3.88852 0
M  V30 7177 H 668.082 -0.343242 2.97728 0
M  V30 7178 H 665.643 -0.0401152 1.6185 0
M  V30 7179 H 667.635 -2.87132 2.85197 0
M  V30 7180 H 666.205 -2.52033 1.84928 0
M  V30 7181 H 665.425 -0.997327 3.81375 0
M  V30 7182 H 666.713 -1.73405 4.78339 0
M  V30 7183 H 666.111 -4.56762 3.33743 0
M  V30 7184 H 664.668 -5.02691 4.14903 0
M  V30 7185 N 668.101 -1.57061 -0.130224 0
M  V30 7186 C 669.349 -1.83893 -0.838313 0
M  V30 7187 C 669.67 -0.727046 -1.80939 0
M  V30 7188 O 668.94 0.249927 -1.94299 0
M  V30 7189 H 667.52 -0.67846 -0.312573 0
M  V30 7190 H 670.182 -1.94529 -0.120224 0
M  V30 7191 H 669.278 -2.79419 -1.39038 0
M  V30 7192 N 669.579 0.400081 -1.52437 0
M  V30 7193 C 670.825 1.14788 -1.67187 0
M  V30 7194 C 671.158 1.89928 -0.405074 0
M  V30 7195 O 670.433 1.85118 0.596804 0
M  V30 7196 C 670.716 2.13507 -2.89977 0
M  V30 7197 C 670.569 1.42204 -4.2673 0
M  V30 7198 C 671.888 3.14069 -3.083 0
M  V30 7199 H 669.007 0.415939 -0.608411 0
M  V30 7200 H 671.649 0.432542 -1.85011 0
M  V30 7201 H 669.799 2.7451 -2.74912 0
M  V30 7202 H 671.471 0.842503 -4.53541 0
M  V30 7203 H 669.714 0.723939 -4.27717 0
M  V30 7204 H 670.385 2.14281 -5.08712 0
M  V30 7205 H 672.861 2.63148 -3.22323 0
M  V30 7206 H 671.737 3.80398 -3.95713 0
M  V30 7207 H 671.998 3.82309 -2.22018 0
M  V30 7208 N 671.057 1.43213 0.657864 0
M  V30 7209 C 671.987 1.50815 1.78262 0
M  V30 7210 C 672.968 0.363211 1.66177 0
M  V30 7211 O 674.153 0.579806 1.85343 0
M  V30 7212 C 671.283 1.42625 3.16663 0
M  V30 7213 C 670.237 2.5532 3.43505 0
M  V30 7214 C 669.563 2.32184 4.81658 0
M  V30 7215 C 670.863 3.97583 3.38711 0
M  V30 7216 H 672.557 2.44954 1.72157 0
M  V30 7217 H 670.103 1.17896 0.82683 0
M  V30 7218 H 672.056 1.46548 3.95097 0
M  V30 7219 H 670.78 0.449877 3.23487 0
M  V30 7220 H 669.439 2.50742 2.6744 0
M  V30 7221 H 669.087 1.32801 4.85153 0
M  V30 7222 H 668.787 3.07724 5.00579 0
M  V30 7223 H 670.311 2.37883 5.62356 0
M  V30 7224 H 671.725 4.03673 4.07089 0
M  V30 7225 H 670.122 4.73112 3.69168 0
M  V30 7226 H 671.192 4.23049 2.36976 0
M  V30 7227 N 672.536 -0.895792 1.29666 0
M  V30 7228 C 673.446 -2.03329 1.17024 0
M  V30 7229 C 674.462 -1.73753 0.0925962 0
M  V30 7230 O 675.638 -1.99071 0.305431 0
M  V30 7231 C 672.703 -3.36072 0.851841 0
M  V30 7232 C 671.764 -3.7914 2.01373 0
M  V30 7233 C 670.997 -5.05549 1.71043 0
M  V30 7234 O 671.22 -5.66874 0.633213 0
M  V30 7235 O 670.154 -5.44764 2.5596 0
M  V30 7236 H 673.98 -2.16918 2.12556 0
M  V30 7237 H 671.565 -1.02007 1.09156 0
M  V30 7238 H 673.447 -4.15729 0.689006 0
M  V30 7239 H 672.122 -3.23616 -0.0736634 0
M  V30 7240 H 671.029 -3.00233 2.23183 0
M  V30 7241 H 672.362 -3.96186 2.92058 0
M  V30 7242 N 674.014 -1.12206 -1.10668 0
M  V30 7243 C 675.43 -0.857619 -1.346 0
M  V30 7244 C 675.63 0.513542 -1.94846 0
M  V30 7245 O 674.686 1.26273 -2.18658 0
M  V30 7246 C 675.999 -1.97212 -2.26998 0
M  V30 7247 C 677.547 -2.00272 -2.40542 0
M  V30 7248 C 678.022 -3.10948 -3.36267 0
M  V30 7249 N 679.513 -3.10375 -3.43834 0
M  V30 7250 C 680.248 -3.92651 -4.17867 0
M  V30 7251 N 679.744 -4.84911 -4.94807 0
M  V30 7252 N 681.537 -3.80798 -4.1346 0
M  V30 7253 H 673.688 -2.00558 -0.699306 0
M  V30 7254 H 675.951 -0.872612 -0.370477 0
M  V30 7255 H 675.657 -2.96002 -1.89936 0
M  V30 7256 H 675.531 -1.87521 -3.27286 0
M  V30 7257 H 677.918 -1.02103 -2.76874 0
M  V30 7258 H 677.999 -2.14037 -1.40077 0
M  V30 7259 H 677.643 -4.09348 -3.00661 0
M  V30 7260 H 677.573 -2.94421 -4.36605 0
M  V30 7261 H 680.064 -2.43536 -2.88961 0
M  V30 7262 H 680.377 -5.44207 -5.48688 0
M  V30 7263 H 678.722 -4.88926 -4.93939 0
M  V30 7264 H 681.913 -3.08058 -3.52445 0
M  V30 7265 H 682.086 -4.4515 -4.70898 0
M  V30 7266 N 675.492 1.28418 -0.913599 0
M  V30 7267 C 676.44 2.29272 -0.392037 0
M  V30 7268 C 677.434 1.61344 0.516198 0
M  V30 7269 O 678.64 1.75557 0.39746 0
M  V30 7270 H 675.015 0.744178 -0.108178 0
M  V30 7271 H 676.986 2.70691 -1.25574 0
M  V30 7272 C 675.735 3.45905 0.352815 0
M  V30 7273 H 675.058 3.98378 -0.336848 0
M  V30 7274 H 676.498 4.18473 0.682398 0
M  V30 7275 C 674.957 2.98572 1.56065 0
M  V30 7276 O 675.487 3.01033 2.65974 0
M  V30 7277 N 673.693 2.54235 1.40759 0
M  V30 7278 H 673.24 2.52432 0.513403 0
M  V30 7279 H 673.198 2.22925 2.21702 0
M  V30 7280 N 676.97 0.677563 1.42291 0
M  V30 7281 C 677.918 -0.0106755 2.32598 0
M  V30 7282 C 678.912 -0.787643 1.49975 0
M  V30 7283 O 680.118 -0.695295 1.66029 0
M  V30 7284 H 676.493 -0.0222482 0.751671 0
M  V30 7285 H 678.464 0.768312 2.88339 0
M  V30 7286 C 677.213 -0.946142 3.3458 0
M  V30 7287 H 676.536 -0.357701 3.98197 0
M  V30 7288 H 677.976 -1.39634 4.00348 0
M  V30 7289 C 676.435 -2.05383 2.67057 0
M  V30 7290 O 676.965 -3.1406 2.50458 0
M  V30 7291 N 675.171 -1.82635 2.26038 0
M  V30 7292 H 674.718 -0.942534 2.39737 0
M  V30 7293 H 674.676 -2.56937 1.81192 0
M  V30 7294 N 678.448 -1.51871 0.421078 0
M  V30 7295 C 679.694 -2.02237 -0.151014 0
M  V30 7296 C 680.027 -1.30554 -1.43768 0
M  V30 7297 O 679.302 -0.41546 -1.90011 0
M  V30 7298 C 679.585 -3.5802 -0.386482 0
M  V30 7299 C 679.438 -4.40339 0.9177 0
M  V30 7300 C 680.757 -4.24444 -1.16342 0
M  V30 7301 H 677.876 -0.735062 -0.0534102 0
M  V30 7302 H 680.518 -1.81656 0.556888 0
M  V30 7303 H 678.668 -3.75688 -0.989494 0
M  V30 7304 H 680.34 -4.34357 1.55344 0
M  V30 7305 H 678.583 -4.06073 1.526 0
M  V30 7306 H 679.254 -5.47451 0.707187 0
M  V30 7307 H 681.73 -4.10948 -0.652788 0
M  V30 7308 H 680.606 -5.33358 -1.29693 0
M  V30 7309 H 680.867 -3.84204 -2.18724 0
M  V30 7310 N 679.926 -0.151884 -1.56866 0
M  V30 7311 C 681.175 0.497992 -1.95456 0
M  V30 7312 C 681.488 1.6569 -1.03953 0
M  V30 7313 O 682.694 2.37173 -1.32142 0
M  V30 7314 C 681.15 0.93732 -3.4748 0
M  V30 7315 C 680.758 -0.194921 -4.47576 0
M  V30 7316 C 682.502 1.55671 -3.94926 0
M  V30 7317 C 680.409 0.26295 -5.90815 0
M  V30 7318 H 679.339 0.189811 -0.729717 0
M  V30 7319 H 681.99 -0.237011 -1.81963 0
M  V30 7320 H 680.372 1.72773 -3.56322 0
M  V30 7321 H 681.546 -0.971951 -4.50433 0
M  V30 7322 H 679.861 -0.72303 -4.10075 0
M  V30 7323 H 682.458 1.91099 -4.99385 0
M  V30 7324 H 682.801 2.44748 -3.36755 0
M  V30 7325 H 683.334 0.831109 -3.89021 0
M  V30 7326 H 680.073 -0.592568 -6.52816 0
M  V30 7327 H 679.593 1.00575 -5.91308 0
M  V30 7328 H 681.272 0.713333 -6.43056 0
M  V30 7329 N 681.404 1.57128 0.121893 0
M  V30 7330 C 682.632 1.88883 0.844451 0
M  V30 7331 C 683.047 0.742824 1.73573 0
M  V30 7332 O 682.404 -0.286475 1.80238 0
M  V30 7333 C 682.455 3.20076 1.68029 0
M  V30 7334 O 682.176 4.30264 0.824898 0
M  V30 7335 C 683.677 3.65515 2.50826 0
M  V30 7336 H 680.897 0.62549 0.242907 0
M  V30 7337 H 683.441 2.04219 0.107151 0
M  V30 7338 H 681.596 3.06418 2.37038 0
M  V30 7339 H 682.01 5.05439 1.40113 0
M  V30 7340 H 683.484 4.60081 3.05008 0
M  V30 7341 H 683.961 2.92029 3.28048 0
M  V30 7342 H 684.567 3.81952 1.87064 0
M  V30 7343 N 682.882 -0.391992 1.52647 0
M  V30 7344 C 683.812 -1.48517 1.8018 0
M  V30 7345 C 684.793 -1.57039 0.653667 0
M  V30 7346 O 685.978 -1.72036 0.900962 0
M  V30 7347 C 683.108 -2.86161 1.96797 0
M  V30 7348 C 682.062 -2.92481 3.12472 0
M  V30 7349 C 681.388 -4.32546 3.14338 0
M  V30 7350 C 682.688 -2.624 4.51601 0
M  V30 7351 H 684.382 -1.25726 2.71723 0
M  V30 7352 H 681.928 -0.603387 1.30749 0
M  V30 7353 H 683.881 -3.62639 2.14641 0
M  V30 7354 H 682.605 -3.10283 1.01941 0
M  V30 7355 H 681.264 -2.18451 2.94406 0
M  V30 7356 H 680.912 -4.53703 2.1717 0
M  V30 7357 H 680.612 -4.37695 3.92042 0
M  V30 7358 H 682.136 -5.10934 3.34333 0
M  V30 7359 H 683.55 -3.28596 4.69785 0
M  V30 7360 H 681.947 -2.78903 5.3135 0
M  V30 7361 H 683.017 -1.57754 4.58521 0
M  V30 7362 N 684.36 -1.4356 -0.65026 0
M  V30 7363 C 685.308 -1.49219 -1.78427 0
M  V30 7364 C 686.302 -0.365528 -1.65409 0
M  V30 7365 O 687.508 -0.539649 -1.7172 0
M  V30 7366 H 683.883 -0.467858 -0.588738 0
M  V30 7367 H 685.854 -2.44701 -1.70774 0
M  V30 7368 C 684.603 -1.43519 -3.16698 0
M  V30 7369 H 683.926 -2.2952 -3.27354 0
M  V30 7370 H 685.366 -1.5154 -3.95995 0
M  V30 7371 C 683.825 -0.153197 -3.36552 0
M  V30 7372 O 684.355 0.784317 -3.93969 0
M  V30 7373 N 682.561 -0.0624402 -2.90533 0
M  V30 7374 H 682.108 -0.826172 -2.43992 0
M  V30 7375 H 682.066 0.794616 -3.04193 0
M  V30 7376 N 685.838 0.888903 -1.30139 0
M  V30 7377 C 687.087 1.63507 -1.18103 0
M  V30 7378 C 687.4 1.93808 0.264141 0
M  V30 7379 O 688.606 2.66744 0.505966 0
M  V30 7380 C 687.062 2.94673 -2.0663 0
M  V30 7381 C 686.67 2.71926 -3.56034 0
M  V30 7382 C 688.414 3.72626 -2.03346 0
M  V30 7383 C 686.321 3.98884 -4.3663 0
M  V30 7384 H 685.251 0.613426 -0.438435 0
M  V30 7385 H 687.902 0.984427 -1.54859 0
M  V30 7386 H 686.284 3.61009 -1.62754 0
M  V30 7387 H 687.458 2.14116 -4.08033 0
M  V30 7388 H 685.773 2.07353 -3.61101 0
M  V30 7389 H 688.37 4.66775 -2.60816 0
M  V30 7390 H 688.713 4.03712 -1.016 0
M  V30 7391 H 689.246 3.13147 -2.45324 0
M  V30 7392 H 685.985 3.72959 -5.39056 0
M  V30 7393 H 685.505 4.56214 -3.89396 0
M  V30 7394 H 687.184 4.66938 -4.47859 0
M  V30 7395 N 687.317 1.12792 1.10072 0
M  V30 7396 C 688.545 0.908506 1.85886 0
M  V30 7397 C 688.96 -0.542408 1.80841 0
M  V30 7398 O 688.317 -1.37517 1.1998 0
M  V30 7399 C 688.368 1.37973 3.34134 0
M  V30 7400 O 688.089 2.77378 3.39106 0
M  V30 7401 C 689.59 1.1978 4.26811 0
M  V30 7402 H 686.81 0.3244 0.587372 0
M  V30 7403 H 689.354 1.49882 1.39125 0
M  V30 7404 H 687.509 0.832566 3.78348 0
M  V30 7405 H 687.923 2.98144 4.31521 0
M  V30 7406 H 689.397 1.57635 5.29014 0
M  V30 7407 H 689.874 0.138768 4.38981 0
M  V30 7408 H 690.48 1.73266 3.88406 0
M  V30 7409 N 688.795 -1.27931 0.920396 0
M  V30 7410 C 690.043 -1.94304 0.555906 0
M  V30 7411 C 690.364 -1.72753 -0.904519 0
M  V30 7412 O 689.634 -1.07104 -1.64029 0
M  V30 7413 H 688.214 -0.719001 0.202599 0
M  V30 7414 H 690.876 -1.55785 1.1712 0
M  V30 7415 H 689.972 -3.02806 0.755981 0
M  V30 7416 N 690.273 -0.685099 -1.4193 0
M  V30 7417 C 691.22 -0.0131869 -2.30796 0
M  V30 7418 C 692.19 0.782129 -1.46533 0
M  V30 7419 O 693.375 0.75229 -1.75343 0
M  V30 7420 C 690.515 0.924768 -3.32479 0
M  V30 7421 C 689.628 0.122181 -4.31827 0
M  V30 7422 C 688.763 1.05682 -5.20581 0
M  V30 7423 C 687.802 0.246526 -6.11603 0
M  V30 7424 N 686.939 1.13442 -6.92875 0
M  V30 7425 H 691.779 -0.776789 -2.87698 0
M  V30 7426 H 689.316 -0.394791 -1.41703 0
M  V30 7427 H 691.274 1.48251 -3.89971 0
M  V30 7428 H 689.904 1.65488 -2.77152 0
M  V30 7429 H 688.956 -0.552335 -3.76369 0
M  V30 7430 H 690.268 -0.506473 -4.96222 0
M  V30 7431 H 689.422 1.68415 -5.82856 0
M  V30 7432 H 688.161 1.71935 -4.56388 0
M  V30 7433 H 687.166 -0.393944 -5.48387 0
M  V30 7434 H 688.391 -0.412053 -6.77849 0
M  V30 7435 H 686.337 1.78316 -6.313 0
M  V30 7436 H 686.254 0.561089 -7.53915 0
M  V30 7437 H 687.522 1.74889 -7.59628 0
M  V30 7438 N 691.751 1.51645 -0.429126 0
M  V30 7439 C 692.714 2.26116 0.374726 0
M  V30 7440 C 693.714 1.29242 0.956714 0
M  V30 7441 O 694.904 1.53022 0.832452 0
M  V30 7442 C 692.036 3.04669 1.52937 0
M  V30 7443 H 693.229 2.9861 -0.277818 0
M  V30 7444 H 690.782 1.55236 -0.182097 0
M  V30 7445 H 691.517 2.36571 2.21821 0
M  V30 7446 H 691.302 3.75814 1.11833 0
M  V30 7447 H 692.792 3.61102 2.09751 0
M  V30 7448 N 693.229 0.160201 1.56784 0
M  V30 7449 C 694.477 -0.486625 1.96154 0
M  V30 7450 C 694.798 -1.64525 1.04673 0
M  V30 7451 O 694.068 -1.95586 0.110864 0
M  V30 7452 H 692.648 -0.182764 0.724297 0
M  V30 7453 H 695.31 0.238787 1.93432 0
M  V30 7454 H 694.406 -0.854025 3.00188 0
M  V30 7455 N 694.707 -1.5719 -0.113559 0
M  V30 7456 C 695.67 -1.99796 -1.12314 0
M  V30 7457 C 696.67 -0.888847 -1.34001 0
M  V30 7458 O 697.86 -1.15476 -1.30426 0
M  V30 7459 C 694.992 -2.34279 -2.47641 0
M  V30 7460 H 696.185 -2.90193 -0.756825 0
M  V30 7461 H 693.738 -1.52144 -0.358029 0
M  V30 7462 H 694.473 -1.46778 -2.89183 0
M  V30 7463 H 694.258 -3.15175 -2.33253 0
M  V30 7464 H 695.748 -2.67963 -3.2029 0
M  V30 7465 N 696.185 0.383891 -1.52853 0
M  V30 7466 C 697.413 1.1495 -1.7203 0
M  V30 7467 C 697.828 1.83578 -0.440957 0
M  V30 7468 O 697.185 1.72872 0.584925 0
M  V30 7469 C 697.236 2.19368 -2.87333 0
M  V30 7470 O 696.957 1.53536 -4.10315 0
M  V30 7471 C 698.458 3.08616 -3.18231 0
M  V30 7472 H 695.678 0.344445 -0.575846 0
M  V30 7473 H 698.222 0.448397 -1.99524 0
M  V30 7474 H 696.377 2.85105 -2.62286 0
M  V30 7475 H 696.791 2.2296 -4.74752 0
M  V30 7476 H 698.265 3.77902 -4.02361 0
M  V30 7477 H 698.742 3.72409 -2.32826 0
M  V30 7478 H 699.348 2.48518 -3.45136 0
M  V30 7479 N 697.663 1.43903 0.642637 0
M  V30 7480 C 698.593 1.52697 1.76652 0
M  V30 7481 C 699.574 0.380816 1.65782 0
M  V30 7482 O 700.759 0.599432 1.84717 0
M  V30 7483 C 697.889 1.45975 3.15133 0
M  V30 7484 C 696.843 2.58949 3.40778 0
M  V30 7485 C 696.169 2.37279 4.79169 0
M  V30 7486 C 697.469 4.01153 3.34475 0
M  V30 7487 H 699.163 2.46766 1.69549 0
M  V30 7488 H 696.709 1.18767 0.814279 0
M  V30 7489 H 698.662 1.5073 3.93521 0
M  V30 7490 H 697.386 0.484162 3.22991 0
M  V30 7491 H 696.045 2.53564 2.64765 0
M  V30 7492 H 695.693 1.37939 4.83717 0
M  V30 7493 H 695.393 3.13016 4.97287 0
M  V30 7494 H 696.917 2.43834 5.59801 0
M  V30 7495 H 698.331 4.07968 4.02784 0
M  V30 7496 H 696.728 4.77001 3.64129 0
M  V30 7497 H 697.798 4.25539 2.32475 0
M  V30 7498 N 699.141 -0.881989 1.30609 0
M  V30 7499 C 700.418 -1.61563 1.10258 0
M  V30 7500 C 700.798 -2.08228 -0.347053 0
M  V30 7501 O 700.146 -1.85151 -1.33908 0
M  V30 7502 C 700.356 -2.78287 2.10612 0
M  V30 7503 C 701.704 -3.48545 2.4249 0
M  V30 7504 O 702.728 -2.88479 2.08945 0
M  V30 7505 O 701.587 -4.56873 2.99883 0
M  V30 7506 H 698.681 -0.710238 0.423663 0
M  V30 7507 H 701.227 -0.928503 1.42045 0
M  V30 7508 H 699.999 -2.41131 3.08174 0
M  V30 7509 H 699.622 -3.54695 1.79659 0
M  V30 7510 N 700.619 -1.13374 -1.09472 0
M  V30 7511 C 701.549 -0.833268 -2.18126 0
M  V30 7512 C 702.53 0.207169 -1.68834 0
M  V30 7513 O 703.715 0.0662012 -1.94087 0
M  V30 7514 C 700.845 -0.297979 -3.46019 0
M  V30 7515 C 699.799 -1.27261 -4.08642 0
M  V30 7516 C 699.125 -0.597104 -5.31356 0
M  V30 7517 C 700.425 -2.63095 -4.51197 0
M  V30 7518 H 702.119 -1.74182 -2.43518 0
M  V30 7519 H 699.665 -0.838921 -1.17039 0
M  V30 7520 H 701.618 -0.0754444 -4.21332 0
M  V30 7521 H 700.342 0.645959 -3.20148 0
M  V30 7522 H 699.001 -1.48113 -3.35348 0
M  V30 7523 H 698.649 0.352293 -5.01765 0
M  V30 7524 H 698.349 -1.24734 -5.74208 0
M  V30 7525 H 699.873 -0.38384 -6.09392 0
M  V30 7526 H 701.287 -2.46214 -5.17737 0
M  V30 7527 H 699.684 -3.2429 -5.04932 0
M  V30 7528 H 700.754 -3.20793 -3.6362 0
M  V30 7529 N 702.098 1.27442 -0.927168 0
M  V30 7530 C 703.028 2.29256 -0.443188 0
M  V30 7531 C 704.009 1.62701 0.49624 0
M  V30 7532 O 705.194 1.90013 0.401105 0
M  V30 7533 C 702.324 3.45955 0.305366 0
M  V30 7534 C 701.278 4.24501 -0.546178 0
M  V30 7535 C 700.604 5.33671 0.331512 0
M  V30 7536 C 701.904 4.89921 -1.81037 0
M  V30 7537 H 703.598 2.69988 -1.29409 0
M  V30 7538 H 701.144 1.29792 -0.623705 0
M  V30 7539 H 703.097 4.1628 0.654885 0
M  V30 7540 H 701.821 3.04138 1.19029 0
M  V30 7541 H 700.48 3.55921 -0.878398 0
M  V30 7542 H 700.128 4.88096 1.21537 0
M  V30 7543 H 699.828 5.87131 -0.234746 0
M  V30 7544 H 701.352 6.0684 0.676614 0
M  V30 7545 H 702.766 5.52536 -1.52895 0
M  V30 7546 H 701.163 5.53436 -2.32009 0
M  V30 7547 H 702.233 4.13652 -2.53021 0
M  V30 7548 N 703.576 0.692616 1.41565 0
M  V30 7549 C 704.822 0.222664 2.01574 0
M  V30 7550 C 705.155 -1.1737 1.54719 0
M  V30 7551 O 704.43 -1.79161 0.757084 0
M  V30 7552 C 704.713 0.277064 3.59033 0
M  V30 7553 C 704.566 1.71016 4.16021 0
M  V30 7554 C 705.885 -0.36479 4.38586 0
M  V30 7555 H 703.004 0.0823839 0.732381 0
M  V30 7556 H 705.646 0.880778 1.68352 0
M  V30 7557 H 703.796 -0.283288 3.87466 0
M  V30 7558 H 705.468 2.32413 3.98475 0
M  V30 7559 H 703.711 2.24525 3.71175 0
M  V30 7560 H 704.382 1.69978 5.25178 0
M  V30 7561 H 706.858 0.112404 4.15948 0
M  V30 7562 H 705.734 -0.296169 5.481 0
M  V30 7563 H 705.995 -1.44506 4.17816 0
M  V30 7564 N 705.054 -1.51416 0.437162 0
M  V30 7565 C 705.964 -2.31493 -0.380537 0
M  V30 7566 C 706.98 -1.40399 -1.02782 0
M  V30 7567 O 708.156 -1.73471 -1.02323 0
M  V30 7568 C 705.221 -3.1413 -1.46709 0
M  V30 7569 C 704.282 -4.21003 -0.839953 0
M  V30 7570 C 703.515 -4.9969 -1.87473 0
M  V30 7571 O 703.738 -4.79008 -3.09689 0
M  V30 7572 O 702.672 -5.8379 -1.46536 0
M  V30 7573 H 706.498 -3.02469 0.273183 0
M  V30 7574 H 704.083 -1.48059 0.199706 0
M  V30 7575 H 705.965 -3.65505 -2.09724 0
M  V30 7576 H 704.64 -2.45919 -2.10489 0
M  V30 7577 H 703.547 -3.73706 -0.171752 0
M  V30 7578 H 704.88 -4.91587 -0.245638 0
M  V30 7579 N 706.532 -0.168513 -1.56696 0
M  V30 7580 C 707.48 0.779791 -2.19139 0
M  V30 7581 C 708.474 1.23957 -1.1546 0
M  V30 7582 O 709.68 1.20555 -1.33666 0
M  V30 7583 H 706.055 0.269739 -0.701958 0
M  V30 7584 H 708.026 0.229156 -2.97519 0
M  V30 7585 C 706.775 2.00003 -2.84419 0
M  V30 7586 H 706.098 1.65527 -3.63924 0
M  V30 7587 H 707.538 2.64251 -3.31583 0
M  V30 7588 C 705.997 2.82187 -1.84044 0
M  V30 7589 O 706.527 3.79247 -1.32418 0
M  V30 7590 N 704.733 2.47145 -1.52864 0
M  V30 7591 H 704.28 1.68277 -1.9504 0
M  V30 7592 H 704.238 3.02422 -0.859569 0
M  V30 7593 N 708.01 1.57248 0.105221 0
M  V30 7594 C 708.943 1.96567 1.15916 0
M  V30 7595 C 709.921 0.837355 1.39381 0
M  V30 7596 O 711.105 1.09676 1.53308 0
M  V30 7597 C 708.232 2.27375 2.51035 0
M  V30 7598 C 707.278 3.49869 2.43913 0
M  V30 7599 S 708.111 5.01958 1.86543 0
M  V30 7600 C 709.267 5.35932 3.23307 0
M  V30 7601 H 709.5 2.85655 0.823931 0
M  V30 7602 H 707.033 1.51204 0.312515 0
M  V30 7603 H 708.991 2.45801 3.28774 0
M  V30 7604 H 707.652 1.38876 2.81731 0
M  V30 7605 H 706.845 3.68835 3.43477 0
M  V30 7606 H 706.447 3.30901 1.743 0
M  V30 7607 H 708.739 5.31958 4.19556 0
M  V30 7608 H 709.682 6.37047 3.09155 0
M  V30 7609 H 710.09 4.63397 3.22372 0
M  V30 7610 N 709.488 -0.375779 1.53054 0
M  V30 7611 C 710.736 -1.11727 1.68409 0
M  V30 7612 C 711.057 -1.90127 0.43323 0
M  V30 7613 O 710.327 -1.87945 -0.552595 0
M  V30 7614 H 708.907 -0.415451 0.620813 0
M  V30 7615 H 711.569 -0.424869 1.90213 0
M  V30 7616 H 710.665 -1.8128 2.54055 0
M  V30 7617 N 710.966 -1.44241 -0.634997 0
M  V30 7618 C 712.382 -1.28043 -0.952742 0
M  V30 7619 C 712.582 -0.21338 -2.00367 0
M  V30 7620 O 711.638 0.402042 -2.49279 0
M  V30 7621 C 712.951 -2.65076 -1.41968 0
M  V30 7622 C 714.499 -2.72755 -1.53537 0
M  V30 7623 C 714.974 -4.10249 -2.03616 0
M  V30 7624 N 716.465 -4.12406 -2.10892 0
M  V30 7625 C 717.2 -5.15641 -2.50803 0
M  V30 7626 N 716.696 -6.29239 -2.89879 0
M  V30 7627 N 718.489 -5.02995 -2.50903 0
M  V30 7628 H 710.64 -2.12315 0.060098 0
M  V30 7629 H 712.903 -0.947326 -0.0357325 0
M  V30 7630 H 712.609 -3.44213 -0.721804 0
M  V30 7631 H 712.483 -2.91704 -2.39141 0
M  V30 7632 H 714.87 -1.93939 -2.22422 0
M  V30 7633 H 714.951 -2.49872 -0.547496 0
M  V30 7634 H 714.595 -4.8954 -1.35327 0
M  V30 7635 H 714.525 -4.30507 -3.03268 0
M  V30 7636 H 717.016 -3.30417 -1.83393 0
M  V30 7637 H 717.329 -7.03827 -3.19135 0
M  V30 7638 H 715.674 -6.32683 -2.8764 0
M  V30 7639 H 718.865 -4.13306 -2.19763 0
M  V30 7640 H 719.038 -5.83574 -2.81683 0
M  V30 7641 N 712.444 0.87505 -1.31075 0
M  V30 7642 C 713.69 1.63009 -1.20647 0
M  V30 7643 C 714.023 1.9276 0.236045 0
M  V30 7644 O 713.298 1.55559 1.16754 0
M  V30 7645 C 713.581 2.96357 -2.0456 0
M  V30 7646 C 713.434 2.73516 -3.57084 0
M  V30 7647 C 714.753 3.974 -1.89107 0
M  V30 7648 H 711.872 0.591518 -0.439631 0
M  V30 7649 H 714.514 1.0119 -1.60812 0
M  V30 7650 H 712.664 3.49119 -1.70435 0
M  V30 7651 H 714.336 2.27465 -4.01319 0
M  V30 7652 H 712.579 2.0784 -3.80769 0
M  V30 7653 H 713.25 3.68377 -4.11099 0
M  V30 7654 H 715.726 3.5383 -2.18961 0
M  V30 7655 H 714.602 4.88596 -2.5013 0
M  V30 7656 H 714.863 4.33794 -0.85296 0
M  V30 7657 N 713.922 1.13953 1.08869 0
M  V30 7658 C 714.87 0.817664 2.17754 0
M  V30 7659 C 715.864 -0.202444 1.68186 0
M  V30 7660 O 717.07 -0.0590159 1.79903 0
M  V30 7661 H 713.445 0.246671 0.710392 0
M  V30 7662 H 715.416 1.74401 2.4213 0
M  V30 7663 C 714.165 0.3063 3.46348 0
M  V30 7664 H 713.488 1.08259 3.84864 0
M  V30 7665 H 714.928 0.119584 4.23831 0
M  V30 7666 C 713.387 -0.969158 3.22659 0
M  V30 7667 O 713.917 -2.04386 3.45817 0
M  V30 7668 N 712.123 -0.902516 2.7623 0
M  V30 7669 H 711.67 -0.027801 2.57585 0
M  V30 7670 H 711.628 -1.75649 2.60758 0
M  V30 7671 N 715.4 -1.26948 0.933913 0
M  V30 7672 C 716.63 -1.97898 0.593279 0
M  V30 7673 C 717.038 -1.69806 -0.834412 0
M  V30 7674 O 716.381 -0.958704 -1.56699 0
M  V30 7675 C 716.443 -3.51657 0.746825 0
M  V30 7676 C 716.107 -4.03384 2.14779 0
M  V30 7677 C 717.104 -4.15682 3.12257 0
M  V30 7678 C 714.789 -4.37577 2.46641 0
M  V30 7679 C 716.783 -4.61455 4.39702 0
M  V30 7680 C 714.47 -4.8304 3.7432 0
M  V30 7681 C 715.468 -4.94939 4.70664 0
M  V30 7682 O 715.156 -5.39403 5.96071 0
M  V30 7683 H 714.888 -0.63814 0.223055 0
M  V30 7684 H 717.442 -1.62608 1.2549 0
M  V30 7685 H 715.672 -3.8669 0.0280889 0
M  V30 7686 H 717.361 -4.03821 0.410328 0
M  V30 7687 H 718.127 -3.89519 2.88964 0
M  V30 7688 H 714.006 -4.27554 1.72391 0
M  V30 7689 H 717.55 -4.70658 5.14905 0
M  V30 7690 H 713.447 -5.08646 3.97429 0
M  V30 7691 H 714.215 -5.57641 5.99148 0
M  V30 7692 N 716.879 -0.700114 -1.41195 0
M  V30 7693 C 718.127 -0.232546 -2.00758 0
M  V30 7694 C 718.448 1.1734 -1.55745 0
M  V30 7695 O 717.718 1.79262 -0.790058 0
M  V30 7696 H 716.298 -0.0829845 -0.742376 0
M  V30 7697 H 718.96 -0.902289 -1.72756 0
M  V30 7698 H 718.056 -0.253521 -3.11069 0
M  V30 7699 N 718.357 1.51182 -0.445186 0
M  V30 7700 C 719.32 2.26501 0.350722 0
M  V30 7701 C 720.32 1.3025 0.942952 0
M  V30 7702 O 721.51 1.53897 0.816175 0
M  V30 7703 C 718.642 3.06274 1.49697 0
M  V30 7704 H 719.835 2.98299 -0.309474 0
M  V30 7705 H 717.388 1.55034 -0.198551 0
M  V30 7706 H 718.123 2.38911 2.19299 0
M  V30 7707 H 717.908 3.76979 1.0784 0
M  V30 7708 H 719.398 3.63306 2.05909 0
M  V30 7709 N 719.835 0.176821 1.56605 0
M  V30 7710 C 721.065 -0.472142 2.01133 0
M  V30 7711 C 721.473 -1.56979 1.05614 0
M  V30 7712 O 720.816 -1.83632 0.0500137 0
M  V30 7713 C 720.878 -1.10547 3.42081 0
M  V30 7714 C 720.542 -0.148806 4.56758 0
M  V30 7715 C 721.539 0.634939 5.16008 0
M  V30 7716 C 719.224 -0.0430325 5.02282 0
M  V30 7717 C 721.218 1.5116 6.19217 0
M  V30 7718 C 718.905 0.83721 6.05338 0
M  V30 7719 C 719.903 1.61311 6.63677 0
M  V30 7720 O 719.591 2.47863 7.64735 0
M  V30 7721 H 719.323 -0.124725 0.664394 0
M  V30 7722 H 721.877 0.277329 2.03519 0
M  V30 7723 H 720.107 -1.90318 3.36625 0
M  V30 7724 H 721.796 -1.6572 3.70529 0
M  V30 7725 H 722.562 0.563424 4.81716 0
M  V30 7726 H 718.441 -0.636753 4.56581 0
M  V30 7727 H 721.985 2.11767 6.64681 0
M  V30 7728 H 717.882 0.909908 6.39055 0
M  V30 7729 H 718.65 2.4144 7.8208 0
M  V30 7730 N 721.313 -1.57302 -0.09688 0
M  V30 7731 C 722.562 -1.85183 -0.799388 0
M  V30 7732 C 722.875 -0.765818 -1.79985 0
M  V30 7733 O 724.081 -0.931696 -2.55013 0
M  V30 7734 C 722.537 -3.28399 -1.47249 0
M  V30 7735 C 722.145 -4.45066 -0.511888 0
M  V30 7736 C 723.889 -3.65506 -2.15883 0
M  V30 7737 C 721.796 -5.79315 -1.18948 0
M  V30 7738 H 720.726 -0.690752 -0.302287 0
M  V30 7739 H 723.377 -1.83425 -0.0523104 0
M  V30 7740 H 721.759 -3.24692 -2.26697 0
M  V30 7741 H 722.933 -4.60116 0.250962 0
M  V30 7742 H 721.248 -4.16343 0.0686576 0
M  V30 7743 H 723.845 -4.63087 -2.67309 0
M  V30 7744 H 724.188 -2.94041 -2.94696 0
M  V30 7745 H 724.721 -3.71094 -1.43298 0
M  V30 7746 H 721.46 -6.54007 -0.442198 0
M  V30 7747 H 720.98 -5.68111 -1.9238 0
M  V30 7748 H 722.659 -6.23816 -1.71646 0
M  V30 7749 N 722.791 0.367657 -1.53252 0
M  V30 7750 C 723.739 1.47061 -1.8021 0
M  V30 7751 C 724.733 1.55539 -0.671112 0
M  V30 7752 O 725.939 1.58451 -0.854014 0
M  V30 7753 H 722.314 0.489868 -0.570555 0
M  V30 7754 H 724.285 1.21527 -2.72532 0
M  V30 7755 C 723.034 2.83924 -2.00706 0
M  V30 7756 H 722.357 2.78158 -2.87172 0
M  V30 7757 H 723.797 3.60281 -2.23547 0
M  V30 7758 C 722.256 3.27613 -0.785568 0
M  V30 7759 O 722.786 4.01691 0.0267459 0
M  V30 7760 N 720.992 2.84134 -0.609597 0
M  V30 7761 H 720.539 2.24017 -1.27178 0
M  V30 7762 H 720.497 3.13723 0.206281 0
M  V30 7763 N 724.269 1.44576 0.627338 0
M  V30 7764 C 725.546 1.38033 1.38586 0
M  V30 7765 C 725.926 0.0409468 2.1106 0
M  V30 7766 O 725.274 -0.976582 2.0658 0
M  V30 7767 C 725.484 2.58102 2.34913 0
M  V30 7768 C 726.832 3.02332 2.98129 0
M  V30 7769 O 727.856 2.58334 2.45238 0
M  V30 7770 O 726.715 3.78628 3.94085 0
M  V30 7771 H 723.809 0.546801 0.620434 0
M  V30 7772 H 726.355 1.56672 0.652077 0
M  V30 7773 H 725.127 3.4719 1.80485 0
M  V30 7774 H 724.75 2.41696 3.15703 0
M  V30 7775 N 725.747 -0.868086 1.31537 0
M  V30 7776 C 726.994 -1.62127 1.2133 0
M  V30 7777 C 727.322 -1.93158 -0.2281 0
M  V30 7778 O 726.577 -1.5632 -1.1774 0
M  V30 7779 C 726.876 -2.95889 2.0046 0
M  V30 7780 C 726.542 -2.84343 3.49943 0
M  V30 7781 C 725.204 -2.80901 3.90702 0
M  V30 7782 C 727.556 -2.71243 4.45058 0
M  V30 7783 C 724.884 -2.6222 5.24841 0
M  V30 7784 C 727.236 -2.54098 5.79325 0
M  V30 7785 C 725.9 -2.4904 6.19302 0
M  V30 7786 H 725.17 -0.593265 0.443979 0
M  V30 7787 H 727.817 -1.00803 1.62822 0
M  V30 7788 H 726.122 -3.61259 1.51655 0
M  V30 7789 H 727.819 -3.53161 1.89942 0
M  V30 7790 H 724.409 -2.8784 3.17563 0
M  V30 7791 H 728.593 -2.72956 4.14498 0
M  V30 7792 H 723.849 -2.56731 5.54887 0
M  V30 7793 H 728.023 -2.42938 6.52652 0
M  V30 7794 H 725.65 -2.34324 7.23185 0
M  V30 7795 N 727.225 -1.14528 -1.08264 0
M  V30 7796 C 728.172 -0.833556 -2.15222 0
M  V30 7797 C 729.142 0.209539 -1.64773 0
M  V30 7798 O 730.327 0.0791388 -1.90636 0
M  V30 7799 C 727.467 -0.318799 -3.43624 0
M  V30 7800 C 726.58 -1.42237 -4.07913 0
M  V30 7801 C 725.715 -0.864704 -5.24115 0
M  V30 7802 C 724.754 -1.94585 -5.80347 0
M  V30 7803 N 723.891 -1.40525 -6.87893 0
M  V30 7804 H 728.731 -1.74965 -2.41228 0
M  V30 7805 H 726.268 -0.873169 -1.18381 0
M  V30 7806 H 728.226 -0.00213088 -4.172 0
M  V30 7807 H 726.856 0.560397 -3.17898 0
M  V30 7808 H 725.908 -1.8554 -3.32083 0
M  V30 7809 H 727.22 -2.23901 -4.45724 0
M  V30 7810 H 726.374 -0.500025 -6.04636 0
M  V30 7811 H 725.113 -0.0171219 -4.87697 0
M  V30 7812 H 724.118 -2.31946 -4.98479 0
M  V30 7813 H 725.343 -2.79704 -6.18823 0
M  V30 7814 H 723.289 -0.579873 -6.53432 0
M  V30 7815 H 723.206 -2.15825 -7.24538 0
M  V30 7816 H 724.474 -1.06852 -7.72142 0
M  V30 7817 N 728.703 1.26451 -0.940633 0
M  V30 7818 C 729.951 1.93395 -0.586748 0
M  V30 7819 C 730.272 1.7417 0.876921 0
M  V30 7820 O 729.542 1.097 1.62304 0
M  V30 7821 H 728.122 0.715687 -0.214012 0
M  V30 7822 H 730.784 1.53902 -1.19584 0
M  V30 7823 H 729.88 3.01565 -0.804059 0
M  V30 7824 N 730.181 0.707592 1.40822 0
M  V30 7825 C 731.111 0.0644925 2.33411 0
M  V30 7826 C 732.092 -0.754205 1.52466 0
M  V30 7827 O 733.277 -0.704749 1.80961 0
M  V30 7828 C 730.407 -0.863865 3.36385 0
M  V30 7829 C 729.361 -0.15138 4.27732 0
M  V30 7830 C 728.687 -1.19491 5.21177 0
M  V30 7831 C 729.987 0.989607 5.12839 0
M  V30 7832 H 731.681 0.837829 2.87438 0
M  V30 7833 H 729.227 0.404346 1.38207 0
M  V30 7834 H 731.18 -1.32309 4.0009 0
M  V30 7835 H 729.904 -1.66901 2.80734 0
M  V30 7836 H 728.563 0.287937 3.65467 0
M  V30 7837 H 728.211 -1.9929 4.61836 0
M  V30 7838 H 727.911 -0.723123 5.83134 0
M  V30 7839 H 729.435 -1.6544 5.8776 0
M  V30 7840 H 730.849 0.610114 5.70044 0
M  V30 7841 H 729.246 1.38926 5.83798 0
M  V30 7842 H 730.316 1.82389 4.49291 0
M  V30 7843 N 731.66 -1.50943 0.453197 0
M  V30 7844 C 732.906 -2.02512 -0.108082 0
M  V30 7845 C 733.239 -1.33574 -1.40967 0
M  V30 7846 O 732.514 -0.455671 -1.89087 0
M  V30 7847 C 732.797 -3.58759 -0.310453 0
M  V30 7848 C 732.65 -4.38293 1.0109 0
M  V30 7849 C 733.969 -4.26816 -1.07313 0
M  V30 7850 H 731.088 -0.73603 -0.0378064 0
M  V30 7851 H 733.73 -1.80433 0.595295 0
M  V30 7852 H 731.88 -3.77702 -0.909582 0
M  V30 7853 H 733.552 -4.30964 1.64523 0
M  V30 7854 H 731.795 -4.02745 1.61179 0
M  V30 7855 H 732.466 -5.45828 0.82315 0
M  V30 7856 H 734.942 -4.1224 -0.565473 0
M  V30 7857 H 733.818 -5.35989 -1.1835 0
M  V30 7858 H 734.079 -3.88757 -2.10525 0
M  V30 7859 N 733.138 -0.185124 -1.56509 0
M  V30 7860 C 734.363 0.465278 -2.02114 0
M  V30 7861 C 734.788 1.55083 -1.06447 0
M  V30 7862 O 734.146 1.81241 -0.0462852 0
M  V30 7863 C 734.194 1.00784 -3.46229 0
M  V30 7864 O 733.298 2.12123 -3.53663 0
M  V30 7865 H 732.639 0.109891 -0.654843 0
M  V30 7866 H 735.169 -0.293072 -2.0249 0
M  V30 7867 H 735.179 1.32697 -3.85818 0
M  V30 7868 H 733.854 0.213113 -4.15354 0
M  V30 7869 H 732.431 1.8115 -3.25943 0
M  V30 7870 N 734.616 1.57351 0.0885366 0
M  V30 7871 C 735.564 2.03542 1.12576 0
M  V30 7872 C 736.558 0.937668 1.41082 0
M  V30 7873 O 737.764 1.12283 1.40686 0
M  V30 7874 H 734.139 0.648752 0.380296 0
M  V30 7875 H 736.11 2.89833 0.709906 0
M  V30 7876 C 734.859 2.4811 2.43591 0
M  V30 7877 H 734.182 3.32164 2.22502 0
M  V30 7878 H 735.622 2.842 3.14653 0
M  V30 7879 C 734.081 1.35708 3.08359 0
M  V30 7880 O 734.611 0.689852 3.95732 0
M  V30 7881 N 732.817 1.10641 2.68713 0
M  V30 7882 H 732.364 1.6508 1.97753 0
M  V30 7883 H 732.322 0.356355 3.12374 0
M  V30 7884 N 736.094 -0.359525 1.53444 0
M  V30 7885 C 737.024 -1.44662 1.8329 0
M  V30 7886 C 738.005 -1.55617 0.68683 0
M  V30 7887 O 739.19 -1.70086 0.93725 0
M  V30 7888 C 736.32 -2.81923 2.02822 0
M  V30 7889 C 735.274 -2.85787 3.18606 0
M  V30 7890 C 734.6 -4.25781 3.23442 0
M  V30 7891 C 735.9 -2.52762 4.57065 0
M  V30 7892 H 737.594 -1.19934 2.74329 0
M  V30 7893 H 735.14 -0.575517 1.31999 0
M  V30 7894 H 737.093 -3.58005 2.22285 0
M  V30 7895 H 735.817 -3.08051 1.085 0
M  V30 7896 H 734.476 -2.12157 2.98973 0
M  V30 7897 H 734.124 -4.48994 2.26745 0
M  V30 7898 H 733.824 -4.29281 4.01238 0
M  V30 7899 H 735.348 -5.03727 3.45096 0
M  V30 7900 H 736.762 -3.18557 4.76649 0
M  V30 7901 H 735.159 -2.67569 5.37147 0
M  V30 7902 H 736.229 -1.47993 4.61764 0
M  V30 7903 N 737.572 -1.44907 -0.619662 0
M  V30 7904 C 738.8 -1.51795 -1.40591 0
M  V30 7905 C 739.215 -0.146553 -1.8823 0
M  V30 7906 O 738.572 0.849698 -1.61513 0
M  V30 7907 C 738.623 -2.49229 -2.61853 0
M  V30 7908 O 738.344 -3.81039 -2.16197 0
M  V30 7909 C 739.845 -2.65696 -3.54853 0
M  V30 7910 H 737.065 -0.514463 -0.430777 0
M  V30 7911 H 739.609 -1.8998 -0.756813 0
M  V30 7912 H 737.764 -2.14149 -3.2283 0
M  V30 7913 H 738.178 -4.33747 -2.94896 0
M  V30 7914 H 739.652 -3.37874 -4.36515 0
M  V30 7915 H 740.129 -1.71316 -4.0441 0
M  V30 7916 H 740.735 -3.01724 -2.99737 0
M  V30 7917 N 739.05 0.861098 -1.31996 0
M  V30 7918 C 739.98 1.98482 -1.22993 0
M  V30 7919 C 740.961 1.6971 -0.115168 0
M  V30 7920 O 742.146 1.91849 -0.30126 0
M  V30 7921 C 739.276 3.34179 -0.945615 0
M  V30 7922 C 738.23 3.77284 -2.02091 0
M  V30 7923 C 737.556 5.1054 -1.58912 0
M  V30 7924 C 738.856 3.93439 -3.43515 0
M  V30 7925 H 740.55 2.06271 -2.17008 0
M  V30 7926 H 738.096 0.991043 -1.04472 0
M  V30 7927 H 740.049 4.12338 -0.869206 0
M  V30 7928 H 738.773 3.26586 0.0301849 0
M  V30 7929 H 737.432 3.01371 -2.08737 0
M  V30 7930 H 737.08 4.99397 -0.600942 0
M  V30 7931 H 736.78 5.40352 -2.30854 0
M  V30 7932 H 738.304 5.91199 -1.52696 0
M  V30 7933 H 739.718 4.6197 -3.39495 0
M  V30 7934 H 738.115 4.34661 -4.13751 0
M  V30 7935 H 739.185 2.96548 -3.8365 0
M  V30 7936 N 740.528 1.15101 1.07655 0
M  V30 7937 C 741.753 0.948177 1.84457 0
M  V30 7938 C 742.178 -0.498432 1.81376 0
M  V30 7939 O 741.536 -1.35509 1.20445 0
M  V30 7940 C 741.584 1.46318 3.29581 0
M  V30 7941 O 740.688 0.660342 4.07079 0
M  V30 7942 H 740.029 0.338428 0.571281 0
M  V30 7943 H 742.559 1.5301 1.35828 0
M  V30 7944 H 742.569 1.47468 3.80417 0
M  V30 7945 H 741.244 2.51635 3.31138 0
M  V30 7946 H 739.821 0.718216 3.65918 0
M  V30 7947 N 742.006 -1.2595 0.947325 0
M  V30 7948 C 743.231 -1.98083 0.614633 0
M  V30 7949 C 743.656 -1.70013 -0.804815 0
M  V30 7950 O 743.014 -0.95175 -1.54309 0
M  V30 7951 C 743.062 -3.4993 0.870706 0
M  V30 7952 O 742.166 -4.12364 -0.0541451 0
M  V30 7953 H 741.507 -0.621232 0.234451 0
M  V30 7954 H 744.037 -1.60259 1.27193 0
M  V30 7955 H 744.047 -4.00198 0.794051 0
M  V30 7956 H 742.722 -3.69691 1.90529 0
M  V30 7957 H 741.299 -3.72826 0.0740917 0
M  V30 7958 N 743.484 -0.715051 -1.40445 0
M  V30 7959 C 744.432 -0.0509974 -2.32544 0
M  V30 7960 C 745.426 0.747602 -1.52011 0
M  V30 7961 O 746.632 0.651031 -1.67814 0
M  V30 7962 H 743.007 0.00231113 -0.751996 0
M  V30 7963 H 744.978 -0.84449 -2.86201 0
M  V30 7964 C 743.727 0.857101 -3.3697 0
M  V30 7965 H 743.05 0.252 -3.99005 0
M  V30 7966 H 744.49 1.28971 -4.03909 0
M  V30 7967 C 742.949 1.98231 -2.72408 0
M  V30 7968 O 743.479 3.07309 -2.58697 0
M  V30 7969 N 741.685 1.76577 -2.308 0
M  V30 7970 H 741.232 0.878641 -2.42152 0
M  V30 7971 H 741.19 2.52043 -1.87941 0
M  V30 7972 N 744.962 1.50701 -0.461195 0
M  V30 7973 C 746.211 2.01458 0.0988277 0
M  V30 7974 C 746.524 1.34863 1.41673 0
M  V30 7975 O 747.73 1.76721 2.06111 0
M  V30 7976 C 746.186 3.59186 0.226648 0
M  V30 7977 C 745.794 4.34732 -1.08223 0
M  V30 7978 C 747.538 4.18015 0.73916 0
M  V30 7979 C 745.445 5.8422 -0.918747 0
M  V30 7980 H 744.375 0.7529 0.040709 0
M  V30 7981 H 747.026 1.736 -0.594589 0
M  V30 7982 H 745.408 3.83589 0.983621 0
M  V30 7983 H 746.582 4.22059 -1.84939 0
M  V30 7984 H 744.897 3.87466 -1.52509 0
M  V30 7985 H 747.494 5.27436 0.878347 0
M  V30 7986 H 747.837 3.78746 1.72793 0
M  V30 7987 H 748.37 3.9778 0.0398469 0
M  V30 7988 H 745.109 6.27944 -1.88059 0
M  V30 7989 H 744.629 5.99493 -0.191801 0
M  V30 7990 H 746.308 6.44382 -0.581405 0
M  V30 7991 N 746.441 0.193421 1.56409 0
M  V30 7992 C 747.371 -0.723334 2.22014 0
M  V30 7993 C 748.352 -1.22254 1.1827 0
M  V30 7994 O 749.537 -1.27168 1.46771 0
M  V30 7995 C 746.667 -1.94366 2.87818 0
M  V30 7996 C 745.621 -1.57943 3.97791 0
M  V30 7997 C 744.947 -2.87623 4.50752 0
M  V30 7998 C 746.247 -0.790639 5.16281 0
M  V30 7999 H 747.941 -0.176426 2.9888 0
M  V30 8000 H 745.487 -0.0834166 1.43758 0
M  V30 8001 H 747.44 -2.5902 3.32396 0
M  V30 8002 H 746.164 -2.51507 2.08355 0
M  V30 8003 H 744.823 -0.956482 3.53903 0
M  V30 8004 H 744.471 -3.4285 3.68053 0
M  V30 8005 H 744.171 -2.63998 5.24956 0
M  V30 8006 H 745.695 -3.53268 4.9803 0
M  V30 8007 H 747.109 -1.34024 5.57414 0
M  V30 8008 H 745.506 -0.65258 5.96541 0
M  V30 8009 H 746.576 0.208633 4.84451 0
M  V30 8010 N 747.919 -1.57396 -0.0801906 0
M  V30 8011 C 749.147 -1.91055 -0.794075 0
M  V30 8012 C 749.562 -0.788583 -1.71542 0
M  V30 8013 O 748.919 0.238587 -1.80934 0
M  V30 8014 C 748.97 -3.24418 -1.59484 0
M  V30 8015 O 748.691 -4.323 -0.710532 0
M  V30 8016 C 750.192 -3.72037 -2.41046 0
M  V30 8017 H 747.412 -0.63171 -0.226238 0
M  V30 8018 H 749.956 -2.04431 -0.0529685 0
M  V30 8019 H 748.111 -3.12595 -2.2883 0
M  V30 8020 H 748.525 -5.08976 -1.26663 0
M  V30 8021 H 749.999 -4.68006 -2.92702 0
M  V30 8022 H 750.476 -3.00624 -3.2019 0
M  V30 8023 H 751.082 -3.86777 -1.76871 0
M  V30 8024 N 749.397 0.351382 -1.53633 0
M  V30 8025 C 750.674 1.10903 -1.6112 0
M  V30 8026 C 751.054 2.06725 -0.427556 0
M  V30 8027 O 750.402 2.20992 0.580916 0
M  V30 8028 C 750.612 1.83561 -2.96827 0
M  V30 8029 C 751.96 2.37587 -3.51906 0
M  V30 8030 O 752.984 1.93669 -2.9895 0
M  V30 8031 O 751.843 3.17913 -4.44515 0
M  V30 8032 H 748.937 0.509558 -0.651368 0
M  V30 8033 H 751.483 0.353504 -1.65977 0
M  V30 8034 H 750.255 1.1371 -3.74414 0
M  V30 8035 H 749.878 2.6599 -2.95525 0
M  V30 8036 N 750.875 1.45233 0.611969 0
M  V30 8037 C 752.121 1.50233 1.37119 0
M  V30 8038 C 752.476 0.140336 1.91888 0
M  V30 8039 O 751.769 -0.847161 1.71854 0
M  V30 8040 C 751.963 2.51353 2.54079 0
M  V30 8041 C 751.792 3.97251 2.10764 0
M  V30 8042 C 750.562 4.65256 1.97141 0
M  V30 8043 C 752.76 4.85914 1.68499 0
M  V30 8044 N 750.742 5.95895 1.4759 0
M  V30 8045 C 752.113 6.06147 1.30331 0
M  V30 8046 C 754.168 4.72813 1.56051 0
M  V30 8047 C 752.871 7.14729 0.809591 0
M  V30 8048 C 754.897 5.8144 1.08083 0
M  V30 8049 C 754.259 7.00825 0.708775 0
M  V30 8050 H 750.358 0.604708 0.495835 0
M  V30 8051 H 752.942 1.81679 0.700055 0
M  V30 8052 H 751.113 2.21866 3.18795 0
M  V30 8053 H 752.845 2.46528 3.20945 0
M  V30 8054 H 749.6 4.20345 2.18191 0
M  V30 8055 H 750.024 6.65349 1.25059 0
M  V30 8056 H 754.666 3.80931 1.83443 0
M  V30 8057 H 752.384 8.06404 0.523215 0
M  V30 8058 H 755.97 5.73335 0.988842 0
M  V30 8059 H 754.85 7.83448 0.343305 0
M  V30 8060 N 752.353 -0.854086 1.3245 0
M  V30 8061 C 753.581 -1.64074 1.26045 0
M  V30 8062 C 753.996 -1.8802 -0.171456 0
M  V30 8063 O 753.353 -1.4496 -1.10873 0
M  V30 8064 C 753.404 -2.9997 2.01743 0
M  V30 8065 O 753.125 -2.77084 3.39346 0
M  V30 8066 C 754.626 -3.94414 2.02368 0
M  V30 8067 H 751.846 -0.511015 0.434862 0
M  V30 8068 H 754.39 -1.06494 1.74583 0
M  V30 8069 H 752.545 -3.54193 1.56926 0
M  V30 8070 H 752.959 -3.63514 3.78098 0
M  V30 8071 H 754.433 -4.87032 2.59815 0
M  V30 8072 H 754.91 -4.27427 1.01009 0
M  V30 8073 H 755.516 -3.46127 2.47135 0
M  V30 8074 N 753.831 -1.1567 -1.07043 0
M  V30 8075 C 755.08 -0.928039 -1.79082 0
M  V30 8076 C 755.393 0.545968 -1.87826 0
M  V30 8077 O 756.599 0.892308 -2.56418 0
M  V30 8078 C 755.055 -1.61103 -3.21829 0
M  V30 8079 C 754.663 -3.12228 -3.21275 0
M  V30 8080 C 756.407 -1.46404 -3.98455 0
M  V30 8081 C 754.314 -3.733 -4.58695 0
M  V30 8082 H 753.244 -0.34357 -0.671175 0
M  V30 8083 H 755.895 -1.38718 -1.20123 0
M  V30 8084 H 754.277 -1.07958 -3.81 0
M  V30 8085 H 755.451 -3.72155 -2.71731 0
M  V30 8086 H 753.766 -3.26725 -2.58147 0
M  V30 8087 H 756.363 -1.8942 -5.00024 0
M  V30 8088 H 756.706 -0.41195 -4.14257 0
M  V30 8089 H 757.239 -1.96663 -3.45787 0
M  V30 8090 H 753.978 -4.78423 -4.48098 0
M  V30 8091 H 753.498 -3.18157 -5.08465 0
M  V30 8092 H 755.177 -3.7441 -5.27661 0
M  V30 8093 N 755.309 1.25446 -0.953992 0
M  V30 8094 C 756.556 1.93143 -0.608429 0
M  V30 8095 C 756.884 1.74727 0.854451 0
M  V30 8096 O 756.139 1.0855 1.62836 0
M  V30 8097 C 756.438 3.45555 -0.912496 0
M  V30 8098 C 756.104 3.84126 -2.36131 0
M  V30 8099 C 754.766 3.94367 -2.75732 0
M  V30 8100 C 757.118 4.0324 -3.30223 0
M  V30 8101 C 754.446 4.21127 -4.08496 0
M  V30 8102 C 756.798 4.31493 -4.62598 0
M  V30 8103 C 755.462 4.3995 -5.01996 0
M  V30 8104 H 754.732 0.706762 -0.22264 0
M  V30 8105 H 757.379 1.49005 -1.20291 0
M  V30 8106 H 755.684 3.91091 -0.235618 0
M  V30 8107 H 757.381 3.9612 -0.623714 0
M  V30 8108 H 753.971 3.76711 -2.04418 0
M  V30 8109 H 758.155 3.94744 -3.00817 0
M  V30 8110 H 753.411 4.2589 -4.38665 0
M  V30 8111 H 757.585 4.45227 -5.35486 0
M  V30 8112 H 755.212 4.60439 -6.04896 0
M  V30 8113 N 756.787 0.722489 1.40064 0
M  V30 8114 C 758.198 0.336507 1.83642 0
M  V30 8115 C 758.549 -1.13002 1.6039 0
M  V30 8116 O 757.674 -1.87036 1.08842 0
M  V30 8117 C 758.269 0.603985 3.33373 0
M  V30 8118 C 756.828 0.271637 3.75419 0
M  V30 8119 C 755.975 0.872898 2.63203 0
M  V30 8120 H 758.926 0.921108 1.29233 0
M  V30 8121 H 758.947 -0.128471 3.80283 0
M  V30 8122 H 758.459 1.67141 3.50265 0
M  V30 8123 H 756.56 -0.790455 3.64119 0
M  V30 8124 H 756.673 0.745457 4.73265 0
M  V30 8125 H 755.037 0.300431 2.52922 0
M  V30 8126 H 755.82 1.94473 2.82905 0
M  V30 8127 N 758.265 -1.50454 0.469181 0
M  V30 8128 C 759.195 -2.31353 -0.31592 0
M  V30 8129 C 760.176 -1.38172 -0.992094 0
M  V30 8130 O 761.361 -1.67093 -0.989633 0
M  V30 8131 C 758.491 -3.1786 -1.39937 0
M  V30 8132 C 757.445 -4.19578 -0.844909 0
M  V30 8133 C 756.771 -4.9481 -2.0265 0
M  V30 8134 C 758.071 -5.22106 0.142499 0
M  V30 8135 H 759.765 -2.97237 0.359269 0
M  V30 8136 H 757.311 -1.42942 0.174224 0
M  V30 8137 H 759.264 -3.7325 -1.95607 0
M  V30 8138 H 757.988 -2.49858 -2.1033 0
M  V30 8139 H 756.647 -3.65285 -0.310189 0
M  V30 8140 H 756.295 -4.23282 -2.71737 0
M  V30 8141 H 755.995 -5.63613 -1.66174 0
M  V30 8142 H 757.519 -5.53035 -2.58815 0
M  V30 8143 H 758.933 -5.72378 -0.324966 0
M  V30 8144 H 757.33 -5.98618 0.421441 0
M  V30 8145 H 758.4 -4.7297 1.06901 0
M  V30 8146 N 759.743 -0.201713 -1.56304 0
M  V30 8147 C 761.02 0.483273 -1.89536 0
M  V30 8148 C 761.4 1.79176 -1.11621 0
M  V30 8149 O 760.748 2.27445 -0.219339 0
M  V30 8150 C 760.958 0.695604 -3.41998 0
M  V30 8151 C 762.306 1.012 -4.12364 0
M  V30 8152 O 763.33 0.783094 -3.47485 0
M  V30 8153 O 762.189 1.44534 -5.27041 0
M  V30 8154 H 759.283 0.252801 -0.787414 0
M  V30 8155 H 761.829 -0.24242 -1.6796 0
M  V30 8156 H 760.601 -0.228165 -3.90634 0
M  V30 8157 H 760.224 1.47351 -3.69288 0
M  V30 8158 N 761.222 1.57436 0.0718424 0
M  V30 8159 C 762.45 1.91474 0.783932 0
M  V30 8160 C 762.865 0.797669 1.71122 0
M  V30 8161 O 762.222 -0.228989 1.81058 0
M  V30 8162 C 762.273 3.25259 1.57761 0
M  V30 8163 O 761.994 4.3267 0.687596 0
M  V30 8164 C 763.495 3.7331 2.3907 0
M  V30 8165 H 760.715 0.632901 0.222885 0
M  V30 8166 H 763.259 2.04457 0.0421262 0
M  V30 8167 H 761.414 3.13804 2.27169 0
M  V30 8168 H 761.828 5.09641 1.23962 0
M  V30 8169 H 763.302 4.69551 2.90216 0
M  V30 8170 H 763.779 3.02318 3.18591 0
M  V30 8171 H 764.385 3.8771 1.74818 0
M  V30 8172 N 762.7 -0.34323 1.53817 0
M  V30 8173 C 763.61 -1.44493 1.84821 0
M  V30 8174 C 764.626 -1.57556 0.738381 0
M  V30 8175 O 765.802 -1.73026 1.03072 0
M  V30 8176 C 762.867 -2.79478 2.05166 0
M  V30 8177 C 761.928 -2.75756 3.29025 0
M  V30 8178 C 761.161 -4.04302 3.4839 0
M  V30 8179 O 761.384 -5.01595 2.71586 0
M  V30 8180 O 760.318 -4.08754 4.41819 0
M  V30 8181 H 764.144 -1.21209 2.78464 0
M  V30 8182 H 761.729 -0.535437 1.39476 0
M  V30 8183 H 763.611 -3.59419 2.19991 0
M  V30 8184 H 762.286 -3.02692 1.14713 0
M  V30 8185 H 761.193 -1.94434 3.19603 0
M  V30 8186 H 762.526 -2.57495 4.19472 0
M  V30 8187 N 764.178 -1.45556 -0.604258 0
M  V30 8188 C 765.455 -1.40221 -1.36373 0
M  V30 8189 C 765.835 -0.0745195 -2.10968 0
M  V30 8190 O 765.183 0.943594 -2.08107 0
M  V30 8191 C 765.393 -2.61807 -2.30777 0
M  V30 8192 C 766.741 -3.07037 -2.93281 0
M  V30 8193 O 767.765 -2.62203 -2.41097 0
M  V30 8194 O 766.624 -3.8485 -3.88011 0
M  V30 8195 H 763.718 -0.556602 -0.611656 0
M  V30 8196 H 766.264 -1.57689 -0.627069 0
M  V30 8197 H 765.036 -3.50017 -1.74939 0
M  V30 8198 H 764.659 -2.46688 -3.11818 0
M  V30 8199 N 765.656 0.84705 -1.32902 0
M  V30 8200 C 766.619 1.9378 -1.224 0
M  V30 8201 C 767.619 1.60144 -0.145108 0
M  V30 8202 O 768.809 1.69638 -0.396058 0
M  V30 8203 C 765.941 3.29234 -0.884174 0
M  V30 8204 H 767.134 2.04518 -2.19345 0
M  V30 8205 H 764.687 1.03816 -1.16842 0
M  V30 8206 H 765.422 3.24193 0.0831277 0
M  V30 8207 H 765.207 3.55026 -1.6643 0
M  V30 8208 H 766.697 4.09162 -0.835226 0
M  V30 8209 N 767.134 1.16236 1.06428 0
M  V30 8210 C 768.38 0.944431 1.79467 0
M  V30 8211 C 768.713 -0.526558 1.86925 0
M  V30 8212 O 767.988 -1.39061 1.35986 0
M  V30 8213 C 768.271 1.57092 3.24028 0
M  V30 8214 C 768.124 3.11315 3.24658 0
M  V30 8215 C 769.443 1.26447 4.21544 0
M  V30 8216 H 766.562 0.344521 0.651517 0
M  V30 8217 H 769.204 1.43545 1.24478 0
M  V30 8218 H 767.354 1.15337 3.70985 0
M  V30 8219 H 769.026 3.62042 2.85873 0
M  V30 8220 H 767.269 3.44716 2.6335 0
M  V30 8221 H 767.94 3.50269 4.26633 0
M  V30 8222 H 770.416 1.62581 3.83023 0
M  V30 8223 H 769.292 1.72885 5.20963 0
M  V30 8224 H 769.553 0.183068 4.41721 0
M  V30 8225 N 768.612 -1.24939 0.960631 0
M  V30 8226 C 770.028 -1.45039 0.666018 0
M  V30 8227 C 770.228 -1.86021 -0.774501 0
M  V30 8228 O 769.284 -1.99392 -1.54916 0
M  V30 8229 C 770.597 -2.51775 1.64408 0
M  V30 8230 C 772.145 -2.6561 1.65592 0
M  V30 8231 C 772.62 -3.75536 2.62177 0
M  V30 8232 N 774.111 -3.82954 2.60577 0
M  V30 8233 C 774.846 -4.67517 3.31987 0
M  V30 8234 N 774.342 -5.56321 4.1289 0
M  V30 8235 N 776.135 -4.61535 3.20845 0
M  V30 8236 H 768.286 -0.96632 1.89145 0
M  V30 8237 H 770.549 -0.486034 0.813926 0
M  V30 8238 H 770.255 -2.28534 2.67329 0
M  V30 8239 H 770.129 -3.49804 1.41128 0
M  V30 8240 H 772.516 -2.88212 0.633846 0
M  V30 8241 H 772.597 -1.67962 1.92931 0
M  V30 8242 H 772.241 -3.53684 3.64514 0
M  V30 8243 H 772.171 -4.72682 2.32119 0
M  V30 8244 H 774.662 -3.19478 2.01847 0
M  V30 8245 H 774.975 -6.17787 4.64283 0
M  V30 8246 H 773.32 -5.5601 4.16987 0
M  V30 8247 H 776.511 -3.91169 2.57108 0
M  V30 8248 H 776.684 -5.27214 3.76762 0
M  V30 8249 N 770.09 -0.729906 -1.39679 0
M  V30 8250 C 771.315 -0.284345 -2.05442 0
M  V30 8251 C 771.74 1.07056 -1.54663 0
M  V30 8252 O 771.098 1.67732 -0.688157 0
M  V30 8253 C 771.146 -0.290089 -3.59431 0
M  V30 8254 O 770.25 0.723978 -4.05995 0
M  V30 8255 H 769.591 -0.130311 -0.651088 0
M  V30 8256 H 772.121 -0.994403 -1.78809 0
M  V30 8257 H 772.131 -0.132712 -4.07784 0
M  V30 8258 H 770.806 -1.27877 -3.95753 0
M  V30 8259 H 769.383 0.533154 -3.69069 0
M  V30 8260 N 771.568 1.50203 -0.477153 0
M  V30 8261 C 772.518 2.25561 0.332625 0
M  V30 8262 C 773.502 1.29401 0.956249 0
M  V30 8263 O 774.694 1.54267 0.867795 0
M  V30 8264 C 771.823 3.12984 1.41052 0
M  V30 8265 C 770.909 4.16595 0.79433 0
M  V30 8266 N 771.3 5.05722 -0.0889633 0
M  V30 8267 C 769.598 4.33279 1.0576 0
M  V30 8268 C 770.299 5.80039 -0.439286 0
M  V30 8269 N 769.275 5.43278 0.187018 0
M  V30 8270 H 773.077 2.91836 -0.347718 0
M  V30 8271 H 770.591 1.59759 -0.291686 0
M  V30 8272 H 772.588 3.65582 2.00388 0
M  V30 8273 H 771.248 2.48258 2.09279 0
M  V30 8274 H 772.259 5.15869 -0.458205 0
M  V30 8275 H 768.936 3.79769 1.7344 0
M  V30 8276 H 770.326 6.61802 -1.1605 0
M  V30 8277 N 773.046 0.209999 1.56195 0
M  V30 8278 C 773.976 -0.699746 2.22769 0
M  V30 8279 C 774.957 -1.20993 1.1956 0
M  V30 8280 O 776.142 -1.25605 1.48112 0
M  V30 8281 C 773.272 -1.91302 2.89863 0
M  V30 8282 C 772.226 -1.53715 3.99444 0
M  V30 8283 C 771.552 -2.82826 4.53777 0
M  V30 8284 C 772.852 -0.735836 5.17091 0
M  V30 8285 H 774.546 -0.144716 2.9905 0
M  V30 8286 H 772.092 -0.0681645 1.43839 0
M  V30 8287 H 774.045 -2.5548 3.35124 0
M  V30 8288 H 772.769 -2.49283 2.11011 0
M  V30 8289 H 771.428 -0.918892 3.54897 0
M  V30 8290 H 771.076 -3.38927 3.71669 0
M  V30 8291 H 770.776 -2.58415 5.27727 0
M  V30 8292 H 772.3 -3.47966 5.01749 0
M  V30 8293 H 773.714 -1.28105 5.58804 0
M  V30 8294 H 772.111 -0.589272 5.972 0
M  V30 8295 H 773.181 0.260004 4.84202 0
M  V30 8296 N 774.524 -1.57472 -0.0634922 0
M  V30 8297 C 775.772 -1.87283 -0.759563 0
M  V30 8298 C 776.093 -0.803135 -1.77693 0
M  V30 8299 O 775.363 0.167293 -1.95184 0
M  V30 8300 H 773.943 -0.691106 -0.283516 0
M  V30 8301 H 776.605 -1.94864 -0.0376091 0
M  V30 8302 H 775.701 -2.85064 -1.27062 0
M  V30 8303 N 776.003 0.335068 -1.53997 0
M  V30 8304 C 777.251 1.07223 -1.71312 0
M  V30 8305 C 777.572 1.88911 -0.483486 0
M  V30 8306 O 776.842 1.89344 0.50257 0
M  V30 8307 H 775.422 0.398846 -0.63161 0
M  V30 8308 H 778.084 0.374288 -1.91272 0
M  V30 8309 H 777.18 1.7448 -2.58772 0
M  V30 8310 N 777.481 1.45874 0.596531 0
M  V30 8311 C 778.727 1.51679 1.35518 0
M  V30 8312 C 779.082 0.160681 1.91728 0
M  V30 8313 O 778.375 -0.828886 1.72743 0
M  V30 8314 C 778.569 2.54034 2.51399 0
M  V30 8315 C 778.398 3.99465 2.06538 0
M  V30 8316 C 777.168 4.67321 1.92196 0
M  V30 8317 C 779.366 4.87674 1.63336 0
M  V30 8318 N 777.348 5.97427 1.41261 0
M  V30 8319 C 778.719 6.07495 1.23895 0
M  V30 8320 C 780.774 4.74442 1.51028 0
M  V30 8321 C 779.477 7.15548 0.733739 0
M  V30 8322 C 781.503 5.82553 1.0191 0
M  V30 8323 C 780.865 7.01537 0.634403 0
M  V30 8324 H 776.964 0.609933 0.489393 0
M  V30 8325 H 779.548 1.82411 0.680746 0
M  V30 8326 H 777.719 2.25235 3.16424 0
M  V30 8327 H 779.451 2.49918 3.18313 0
M  V30 8328 H 776.206 4.22635 2.1372 0
M  V30 8329 H 776.63 6.66638 1.17995 0
M  V30 8330 H 781.272 3.82855 1.79393 0
M  V30 8331 H 778.99 8.06914 0.437656 0
M  V30 8332 H 782.576 5.74352 0.927977 0
M  V30 8333 H 781.456 7.83768 0.26019 0
M  V30 8334 N 778.959 -0.83999 1.33349 0
M  V30 8335 C 780.207 -1.59202 1.24496 0
M  V30 8336 C 780.528 -1.94077 -0.189499 0
M  V30 8337 O 779.798 -1.60868 -1.11796 0
M  V30 8338 H 778.378 -0.590276 0.457802 0
M  V30 8339 H 781.04 -1.00394 1.67054 0
M  V30 8340 H 780.136 -2.52247 1.83788 0
M  V30 8341 N 780.437 -1.16799 -1.0581 0
M  V30 8342 C 781.387 -0.847231 -2.11674 0
M  V30 8343 C 782.371 0.175476 -1.5994 0
M  V30 8344 O 783.563 -0.0260602 -1.76981 0
M  V30 8345 C 780.692 -0.355446 -3.41455 0
M  V30 8346 C 779.778 -1.40922 -4.00002 0
M  V30 8347 N 780.169 -2.62096 -4.32596 0
M  V30 8348 C 778.467 -1.26562 -4.27666 0
M  V30 8349 C 779.168 -3.29759 -4.79201 0
M  V30 8350 N 778.144 -2.57138 -4.78938 0
M  V30 8351 H 781.946 -1.76862 -2.34727 0
M  V30 8352 H 779.46 -1.05577 -1.23399 0
M  V30 8353 H 781.457 -0.107231 -4.16762 0
M  V30 8354 H 780.117 0.559817 -3.19838 0
M  V30 8355 H 781.128 -2.99113 -4.22791 0
M  V30 8356 H 777.805 -0.411503 -4.15467 0
M  V30 8357 H 779.195 -4.33222 -5.13584 0
M  V30 8358 N 781.915 1.24427 -0.967243 0
M  V30 8359 C 783.331 1.44684 -0.6737 0
M  V30 8360 C 783.531 1.86429 0.764625 0
M  V30 8361 O 782.587 2.00211 1.53857 0
M  V30 8362 C 783.9 2.509 -1.6574 0
M  V30 8363 C 785.448 2.64728 -1.66998 0
M  V30 8364 C 785.923 3.7414 -2.64165 0
M  V30 8365 N 787.414 3.81567 -2.62604 0
M  V30 8366 C 788.149 4.6575 -3.34462 0
M  V30 8367 N 787.645 5.54124 -4.15835 0
M  V30 8368 N 789.438 4.59827 -3.23288 0
M  V30 8369 H 781.589 0.956276 -1.89655 0
M  V30 8370 H 783.852 0.48171 -0.816492 0
M  V30 8371 H 783.558 2.27113 -2.68538 0
M  V30 8372 H 783.432 3.4905 -1.42981 0
M  V30 8373 H 785.819 2.87872 -0.649121 0
M  V30 8374 H 785.9 1.66936 -1.93819 0
M  V30 8375 H 785.544 3.51745 -3.66384 0
M  V30 8376 H 785.474 4.71444 -2.34623 0
M  V30 8377 H 787.965 3.18403 -2.03539 0
M  V30 8378 H 788.278 6.15316 -4.67553 0
M  V30 8379 H 786.623 5.53791 -4.19929 0
M  V30 8380 H 789.814 3.898 -2.59179 0
M  V30 8381 H 789.987 5.25208 -3.79553 0
M  V30 8382 N 783.393 0.737304 1.3929 0
M  V30 8383 C 784.67 0.212464 1.94443 0
M  V30 8384 C 785.05 -1.28621 1.67391 0
M  V30 8385 O 784.398 -2.0529 1.00342 0
M  V30 8386 C 784.608 0.548565 3.44662 0
M  V30 8387 C 785.956 0.499177 4.21656 0
M  V30 8388 O 786.98 0.485892 3.5287 0
M  V30 8389 O 785.839 0.495739 5.44247 0
M  V30 8390 H 782.933 0.0395457 0.826054 0
M  V30 8391 H 785.479 0.816319 1.48776 0
M  V30 8392 H 784.251 1.58426 3.57795 0
M  V30 8393 H 783.874 -0.0841399 3.97511 0
M  V30 8394 N 784.871 -1.49948 0.485112 0
M  V30 8395 C 786.096 -2.073 -0.0645059 0
M  V30 8396 C 786.521 -1.345 -1.31497 0
M  V30 8397 O 785.879 -0.39687 -1.76903 0
M  V30 8398 C 785.927 -3.59201 -0.317304 0
M  V30 8399 O 785.031 -3.88085 -1.39514 0
M  V30 8400 H 784.372 -0.663723 0.0191822 0
M  V30 8401 H 786.902 -1.92963 0.680179 0
M  V30 8402 H 786.912 -4.04227 -0.553604 0
M  V30 8403 H 785.587 -4.11602 0.596387 0
M  V30 8404 H 784.164 -3.54885 -1.14504 0
M  V30 8405 N 786.349 -0.21828 -1.56081 0
M  V30 8406 C 787.597 0.413488 -1.97825 0
M  V30 8407 C 787.918 1.60527 -1.10707 0
M  V30 8408 O 787.188 1.9504 -0.183378 0
M  V30 8409 H 785.768 0.155757 -0.730581 0
M  V30 8410 H 788.43 -0.310413 -1.92412 0
M  V30 8411 H 787.526 0.742024 -3.03151 0
M  V30 8412 N 787.827 1.57504 0.0551401 0
M  V30 8413 C 788.777 2.0128 1.071 0
M  V30 8414 C 789.761 0.897592 1.33537 0
M  V30 8415 O 790.953 1.16151 1.33558 0
M  V30 8416 C 788.082 2.47414 2.37994 0
M  V30 8417 C 787.168 3.65703 2.14761 0
M  V30 8418 N 787.559 4.79323 1.61504 0
M  V30 8419 C 785.857 3.72574 2.45162 0
M  V30 8420 C 786.558 5.61089 1.53472 0
M  V30 8421 N 785.534 5.05426 2.00114 0
M  V30 8422 H 789.336 2.86558 0.652829 0
M  V30 8423 H 786.85 1.60274 0.26193 0
M  V30 8424 H 788.847 2.77023 3.11551 0
M  V30 8425 H 787.507 1.6353 2.80514 0
M  V30 8426 H 788.518 5.01284 1.30134 0
M  V30 8427 H 785.195 2.99439 2.90934 0
M  V30 8428 H 786.585 6.62328 1.13008 0
M  V30 8429 N 789.305 -0.326896 1.54172 0
M  V30 8430 C 790.255 -1.40319 1.79707 0
M  V30 8431 C 791.239 -1.47056 0.652938 0
M  V30 8432 O 792.431 -1.51645 0.91284 0
M  V30 8433 C 789.56 -2.77222 2.02491 0
M  V30 8434 C 788.646 -2.74811 3.23016 0
M  V30 8435 N 789.037 -2.42022 4.44138 0
M  V30 8436 C 787.335 -3.05943 3.24522 0
M  V30 8437 C 788.036 -2.48263 5.26061 0
M  V30 8438 N 787.012 -2.84567 4.63166 0
M  V30 8439 H 790.814 -1.13892 2.70935 0
M  V30 8440 H 788.328 -0.53536 1.53322 0
M  V30 8441 H 790.325 -3.54793 2.18923 0
M  V30 8442 H 788.985 -3.04582 1.12515 0
M  V30 8443 H 789.996 -2.14926 4.71197 0
M  V30 8444 H 786.673 -3.38367 2.44569 0
M  V30 8445 H 788.063 -2.2593 6.32776 0
M  V30 8446 N 790.784 -1.46188 -0.588786 0
M  V30 8447 C 792.061 -1.41659 -1.34878 0
M  V30 8448 C 792.441 -0.0968913 -2.10878 0
M  V30 8449 O 791.789 0.921468 -2.09096 0
M  V30 8450 C 791.999 -2.6424 -2.27988 0
M  V30 8451 C 793.347 -3.1013 -2.90008 0
M  V30 8452 O 794.371 -2.64745 -2.38303 0
M  V30 8453 O 793.23 -3.88944 -3.83908 0
M  V30 8454 H 790.324 -0.563058 -0.605718 0
M  V30 8455 H 792.87 -1.58346 -0.610309 0
M  V30 8456 H 791.642 -3.51853 -1.71217 0
M  V30 8457 H 791.265 -2.49982 -3.09184 0
M  V30 8458 N 792.262 0.832906 -1.33792 0
M  V30 8459 C 793.172 1.97514 -1.26592 0
M  V30 8460 C 794.188 1.73114 -0.175391 0
M  V30 8461 O 795.364 1.97387 -0.400062 0
M  V30 8462 C 792.429 3.31625 -1.01121 0
M  V30 8463 C 791.49 3.69101 -2.19233 0
M  V30 8464 C 790.723 4.96813 -1.94968 0
M  V30 8465 O 790.946 5.63208 -0.902955 0
M  V30 8466 O 789.88 5.31932 -2.8166 0
M  V30 8467 H 793.706 2.0653 -2.22664 0
M  V30 8468 H 791.291 0.966826 -1.13898 0
M  V30 8469 H 793.173 4.11968 -0.886571 0
M  V30 8470 H 791.848 3.23599 -0.080822 0
M  V30 8471 H 790.755 2.89243 -2.37253 0
M  V30 8472 H 792.088 3.818 -3.10628 0
M  V30 8473 N 793.74 1.17359 1.05189 0
M  V30 8474 C 794.703 0.892604 2.11105 0
M  V30 8475 C 795.703 -0.117236 1.60372 0
M  V30 8476 O 796.893 0.114936 1.7382 0
M  V30 8477 C 794.025 0.337032 3.3923 0
M  V30 8478 H 795.218 1.83169 2.37464 0
M  V30 8479 H 792.771 0.984051 1.21434 0
M  V30 8480 H 793.506 -0.609198 3.18527 0
M  V30 8481 H 793.291 1.06484 3.77364 0
M  V30 8482 H 794.781 0.158763 4.17298 0
M  V30 8483 N 795.218 -1.23913 0.973828 0
M  V30 8484 C 796.464 -1.92747 0.649635 0
M  V30 8485 C 796.819 -1.7465 -0.807157 0
M  V30 8486 O 796.112 -1.09271 -1.57386 0
M  V30 8487 C 796.306 -3.4406 0.967356 0
M  V30 8488 C 796.135 -3.76874 2.45348 0
M  V30 8489 C 794.905 -3.97915 3.11435 0
M  V30 8490 C 797.103 -3.82871 3.43386 0
M  V30 8491 N 795.085 -4.1788 4.49722 0
M  V30 8492 C 796.456 -4.07751 4.67053 0
M  V30 8493 C 798.511 -3.65634 3.37958 0
M  V30 8494 C 797.214 -4.17185 5.8596 0
M  V30 8495 C 799.24 -3.76317 4.56223 0
M  V30 8496 C 798.602 -4.01628 5.78683 0
M  V30 8497 H 794.701 -0.72677 0.288667 0
M  V30 8498 H 797.285 -1.4928 1.24994 0
M  V30 8499 H 795.456 -3.86378 0.395804 0
M  V30 8500 H 797.188 -4.00211 0.601108 0
M  V30 8501 H 793.943 -3.94562 2.61949 0
M  V30 8502 H 794.367 -4.31829 5.21395 0
M  V30 8503 H 799.009 -3.45067 2.44312 0
M  V30 8504 H 796.727 -4.36562 6.80029 0
M  V30 8505 H 800.313 -3.64343 4.53592 0
M  V30 8506 H 799.193 -4.09699 6.68667 0
M  V30 8507 N 796.696 -0.74468 -1.38897 0
M  V30 8508 C 797.659 -0.11945 -2.28889 0
M  V30 8509 C 798.659 0.656942 -1.46768 0
M  V30 8510 O 799.849 0.484525 -1.67326 0
M  V30 8511 C 796.981 0.839635 -3.30398 0
M  V30 8512 H 798.174 -0.912414 -2.85683 0
M  V30 8513 H 795.727 -0.511119 -1.47707 0
M  V30 8514 H 796.462 1.6586 -2.78677 0
M  V30 8515 H 796.247 0.285432 -3.9106 0
M  V30 8516 H 797.737 1.27337 -3.97712 0
M  V30 8517 N 798.174 1.49689 -0.493057 0
M  V30 8518 C 799.124 2.25901 0.308682 0
M  V30 8519 C 800.108 1.30408 0.94247 0
M  V30 8520 O 801.3 1.55179 0.851384 0
M  V30 8521 C 798.429 3.14463 1.37725 0
M  V30 8522 C 797.515 4.17414 0.7501 0
M  V30 8523 N 797.906 5.05599 -0.142597 0
M  V30 8524 C 796.204 4.34377 1.01159 0
M  V30 8525 C 796.905 5.7954 -0.500782 0
M  V30 8526 N 795.881 5.43446 0.129386 0
M  V30 8527 H 799.683 2.91451 -0.378652 0
M  V30 8528 H 797.197 1.59441 -0.308614 0
M  V30 8529 H 799.194 3.67687 1.965 0
M  V30 8530 H 797.854 2.50464 2.06635 0
M  V30 8531 H 798.865 5.15354 -0.512894 0
M  V30 8532 H 795.542 3.81588 1.69402 0
M  V30 8533 H 796.932 6.60534 -1.23063 0
M  V30 8534 N 799.652 0.226554 1.55963 0
M  V30 8535 C 800.6 -0.697922 2.21882 0
M  V30 8536 C 801.594 -1.19586 1.19981 0
M  V30 8537 O 802.8 -1.15511 1.38048 0
M  V30 8538 H 799.175 -0.243501 0.711485 0
M  V30 8539 H 801.146 -0.118576 2.98164 0
M  V30 8540 C 799.895 -1.89309 2.91646 0
M  V30 8541 H 799.218 -1.51906 3.69817 0
M  V30 8542 H 800.658 -2.51762 3.41162 0
M  V30 8543 C 799.117 -2.75162 1.94391 0
M  V30 8544 O 799.647 -3.74071 1.46402 0
M  V30 8545 N 797.853 -2.41302 1.61932 0
M  V30 8546 H 797.4 -1.60923 2.01151 0
M  V30 8547 H 797.358 -2.99023 0.971219 0
M  V30 8548 N 801.13 -1.57531 -0.0467866 0
M  V30 8549 C 802.355 -1.93087 -0.757123 0
M  V30 8550 C 802.78 -0.825116 -1.69037 0
M  V30 8551 O 802.138 0.220449 -1.79955 0
M  V30 8552 C 802.186 -3.27669 -1.5055 0
M  V30 8553 O 801.29 -3.18667 -2.61773 0
M  V30 8554 H 800.631 -0.631597 -0.204892 0
M  V30 8555 H 803.161 -2.04599 -0.00755232 0
M  V30 8556 H 803.171 -3.6214 -1.87932 0
M  V30 8557 H 801.846 -4.07717 -0.820931 0
M  V30 8558 H 800.423 -2.95798 -2.27064 0
M  V30 8559 N 802.608 0.318715 -1.54344 0
M  V30 8560 C 803.833 1.07987 -1.77069 0
M  V30 8561 C 804.258 1.80766 -0.520117 0
M  V30 8562 O 803.616 1.73424 0.528566 0
M  V30 8563 C 803.664 2.04987 -2.96669 0
M  V30 8564 O 802.768 3.12974 -2.68554 0
M  V30 8565 H 802.109 0.311109 -0.586606 0
M  V30 8566 H 804.639 0.361533 -2.0138 0
M  V30 8567 H 804.649 2.47771 -3.2415 0
M  V30 8568 H 803.324 1.51417 -3.87357 0
M  V30 8569 H 801.901 2.74831 -2.52037 0
M  V30 8570 N 804.086 1.46499 0.581025 0
M  V30 8571 C 805.034 1.57562 1.71105 0
M  V30 8572 C 806.028 0.44403 1.63477 0
M  V30 8573 O 807.234 0.620964 1.6895 0
M  V30 8574 H 803.609 0.495415 0.565746 0
M  V30 8575 H 805.58 2.5257 1.58905 0
M  V30 8576 C 804.329 1.58465 3.0949 0
M  V30 8577 H 803.652 2.44877 3.16031 0
M  V30 8578 H 805.092 1.70261 3.88313 0
M  V30 8579 C 803.551 0.313596 3.35437 0
M  V30 8580 O 804.081 -0.595456 3.97262 0
M  V30 8581 N 802.287 0.200986 2.89904 0
M  V30 8582 H 801.834 0.941643 2.39773 0
M  V30 8583 H 801.792 -0.648577 3.07638 0
M  V30 8584 N 805.565 -0.825799 1.34232 0
M  V30 8585 C 806.795 -1.61129 1.29309 0
M  V30 8586 C 807.203 -1.88714 -0.135589 0
M  V30 8587 O 806.546 -1.47703 -1.09222 0
M  V30 8588 C 806.608 -2.97866 2.01287 0
M  V30 8589 C 806.272 -2.9319 3.50555 0
M  V30 8590 C 807.269 -2.67978 4.45515 0
M  V30 8591 C 804.954 -3.12913 3.92926 0
M  V30 8592 C 806.948 -2.62536 5.80822 0
M  V30 8593 C 804.635 -3.07096 5.28333 0
M  V30 8594 C 805.633 -2.8194 6.22092 0
M  V30 8595 O 805.321 -2.7605 7.55018 0
M  V30 8596 H 805.053 -0.507652 0.446391 0
M  V30 8597 H 807.607 -1.03575 1.77374 0
M  V30 8598 H 805.837 -3.57327 1.47832 0
M  V30 8599 H 807.526 -3.58848 1.89691 0
M  V30 8600 H 808.292 -2.52478 4.14101 0
M  V30 8601 H 804.171 -3.3151 3.20347 0
M  V30 8602 H 807.715 -2.42821 6.53975 0
M  V30 8603 H 803.612 -3.22148 5.59367 0
M  V30 8604 H 804.38 -2.91798 7.6472 0
M  V30 8605 N 807.043 -1.17915 -1.04565 0
M  V30 8606 C 808.271 -0.99616 -1.8134 0
M  V30 8607 C 808.686 0.455509 -1.83223 0
M  V30 8608 O 808.043 1.31636 -1.26405 0
M  V30 8609 C 808.094 -1.53758 -3.27171 0
M  V30 8610 O 807.815 -2.93241 -3.25486 0
M  V30 8611 C 809.316 -1.40007 -4.2061 0
M  V30 8612 H 806.536 -0.352055 -0.571225 0
M  V30 8613 H 809.08 -1.56349 -1.31815 0
M  V30 8614 H 807.235 -1.01213 -3.73945 0
M  V30 8615 H 807.649 -3.18392 -4.16805 0
M  V30 8616 H 809.123 -1.82695 -5.2089 0
M  V30 8617 H 809.6 -0.348054 -4.37819 0
M  V30 8618 H 810.206 -1.916 -3.79697 0
M  V30 8619 N 808.521 1.23394 -0.980386 0
M  V30 8620 C 809.451 2.2717 -0.540024 0
M  V30 8621 C 810.432 1.64659 0.426787 0
M  V30 8622 O 811.617 1.91543 0.320153 0
M  V30 8623 C 808.747 3.46939 0.15836 0
M  V30 8624 C 807.701 4.21802 -0.725732 0
M  V30 8625 C 807.027 5.34597 0.104866 0
M  V30 8626 C 808.327 4.81802 -2.01654 0
M  V30 8627 H 810.021 2.64257 -1.40743 0
M  V30 8628 H 807.567 1.2703 -0.678193 0
M  V30 8629 H 809.52 4.18683 0.477737 0
M  V30 8630 H 808.244 3.08912 1.06022 0
M  V30 8631 H 806.903 3.51875 -1.02857 0
M  V30 8632 H 806.551 4.92812 1.00726 0
M  V30 8633 H 806.251 5.85607 -0.483557 0
M  V30 8634 H 807.775 6.09163 0.418624 0
M  V30 8635 H 809.189 5.45554 -1.76193 0
M  V30 8636 H 807.586 5.43098 -2.55273 0
M  V30 8637 H 808.656 4.02549 -2.70338 0
M  V30 8638 N 809.999 0.752036 1.385 0
M  V30 8639 C 811.41 0.375385 1.82887 0
M  V30 8640 C 811.761 -1.09575 1.62751 0
M  V30 8641 O 810.886 -1.84685 1.12785 0
M  V30 8642 C 811.481 0.674563 3.32017 0
M  V30 8643 C 810.04 0.351208 3.74758 0
M  V30 8644 C 809.187 0.928531 2.61292 0
M  V30 8645 H 812.138 0.948313 1.27251 0
M  V30 8646 H 812.159 -0.0477781 3.8047 0
M  V30 8647 H 811.671 1.74533 3.46641 0
M  V30 8648 H 809.772 -0.713042 3.65714 0
M  V30 8649 H 809.885 0.845675 4.71577 0
M  V30 8650 H 808.249 0.354012 2.52228 0
M  V30 8651 H 809.032 2.0043 2.78716 0
M  V30 8652 N 811.477 -1.49425 0.500989 0
M  V30 8653 C 812.44 -2.27646 -0.266416 0
M  V30 8654 C 813.44 -1.3366 -0.893961 0
M  V30 8655 O 814.63 -1.5682 -0.758495 0
M  V30 8656 C 811.762 -3.11618 -1.38227 0
M  V30 8657 H 812.955 -2.96945 0.419973 0
M  V30 8658 H 810.508 -1.5419 0.255954 0
M  V30 8659 H 811.243 -2.46885 -2.10281 0
M  V30 8660 H 811.028 -3.80721 -0.937746 0
M  V30 8661 H 812.518 -3.70698 -1.92283 0
M  V30 8662 N 812.955 -0.234822 -1.55841 0
M  V30 8663 C 814.202 0.39326 -1.98645 0
M  V30 8664 C 814.53 1.58823 -1.12274 0
M  V30 8665 O 813.785 1.94954 -0.170731 0
M  V30 8666 C 814.084 0.858032 -3.46947 0
M  V30 8667 C 813.75 -0.227858 -4.50324 0
M  V30 8668 C 812.412 -0.526128 -4.78315 0
M  V30 8669 C 814.764 -0.961576 -5.12253 0
M  V30 8670 C 812.092 -1.5624 -5.65514 0
M  V30 8671 C 814.444 -1.98728 -6.00575 0
M  V30 8672 C 813.108 -2.29233 -6.26904 0
M  V30 8673 H 812.378 0.143904 -0.726892 0
M  V30 8674 H 815.025 -0.34012 -1.88455 0
M  V30 8675 H 813.33 1.67041 -3.54408 0
M  V30 8676 H 815.027 1.35407 -3.77447 0
M  V30 8677 H 811.617 0.0147624 -4.28597 0
M  V30 8678 H 815.801 -0.744388 -4.90686 0
M  V30 8679 H 811.057 -1.80422 -5.84173 0
M  V30 8680 H 815.231 -2.5608 -6.47608 0
M  V30 8681 H 812.858 -3.09671 -6.94268 0
M  V30 8682 N 814.433 1.57553 0.0384317 0
M  V30 8683 C 815.663 1.92813 0.742064 0
M  V30 8684 C 816.071 0.832157 1.69917 0
M  V30 8685 O 815.414 -0.200917 1.82598 0
M  V30 8686 C 815.476 3.23806 1.56172 0
M  V30 8687 C 815.14 4.50459 0.770407 0
M  V30 8688 C 816.137 5.19846 0.0748006 0
M  V30 8689 C 813.822 4.97001 0.727714 0
M  V30 8690 C 815.816 6.34047 -0.652902 0
M  V30 8691 C 813.503 6.111 -0.00373992 0
M  V30 8692 C 814.501 6.79477 -0.692816 0
M  V30 8693 O 814.189 7.91395 -1.41241 0
M  V30 8694 H 813.921 0.641174 0.214179 0
M  V30 8695 H 816.475 2.054 0.00285095 0
M  V30 8696 H 814.705 3.0752 2.34453 0
M  V30 8697 H 816.394 3.44463 2.14709 0
M  V30 8698 H 817.16 4.84899 0.098875 0
M  V30 8699 H 813.039 4.43629 1.25355 0
M  V30 8700 H 816.583 6.87353 -1.1913 0
M  V30 8701 H 812.48 6.45493 -0.0297703 0
M  V30 8702 H 813.248 8.07702 -1.32512 0
M  V30 8703 N 815.911 -0.310526 1.54511 0
M  V30 8704 C 816.844 -1.40693 1.79668 0
M  V30 8705 C 817.822 -1.49159 0.64734 0
M  V30 8706 O 819.006 -1.66367 0.886239 0
M  V30 8707 C 816.133 -2.78685 1.92491 0
M  V30 8708 C 815.179 -2.87688 3.14861 0
M  V30 8709 S 816.012 -2.50759 4.7316 0
M  V30 8710 C 817.168 -3.90797 4.88906 0
M  V30 8711 H 817.401 -1.19142 2.72383 0
M  V30 8712 H 814.934 -0.508103 1.458 0
M  V30 8713 H 816.892 -3.58168 2.00563 0
M  V30 8714 H 815.553 -2.9751 1.00731 0
M  V30 8715 H 814.746 -3.8888 3.20607 0
M  V30 8716 H 814.348 -2.16189 3.05186 0
M  V30 8717 H 816.64 -4.85693 4.72344 0
M  V30 8718 H 817.583 -3.90027 5.91003 0
M  V30 8719 H 817.991 -3.80357 4.1712 0
M  V30 8720 N 817.389 -1.46805 -0.573248 0
M  V30 8721 C 818.637 -1.52302 -1.32847 0
M  V30 8722 C 818.958 -0.180159 -1.94166 0
M  V30 8723 O 818.228 0.794291 -1.79075 0
M  V30 8724 H 816.808 -0.56097 -0.493276 0
M  V30 8725 H 819.47 -1.82998 -0.670642 0
M  V30 8726 H 818.566 -2.28089 -2.13031 0
M  V30 8727 N 818.867 0.818669 -1.34668 0
M  V30 8728 C 819.815 1.95123 -1.26609 0
M  V30 8729 C 820.809 1.68611 -0.163348 0
M  V30 8730 O 822.015 1.76975 -0.328586 0
M  V30 8731 H 818.39 0.640871 -0.393431 0
M  V30 8732 H 820.361 1.99043 -2.22316 0
M  V30 8733 C 819.11 3.31697 -1.04272 0
M  V30 8734 H 818.433 3.52648 -1.8836 0
M  V30 8735 H 819.873 4.11382 -1.0267 0
M  V30 8736 C 818.332 3.35942 0.253858 0
M  V30 8737 O 818.862 3.81632 1.25378 0
M  V30 8738 N 817.068 2.89165 0.288447 0
M  V30 8739 H 816.615 2.52176 -0.525845 0
M  V30 8740 H 816.573 2.92387 1.15572 0
M  V30 8741 N 820.346 1.18468 1.03938 0
M  V30 8742 C 821.593 0.980833 1.77161 0
M  V30 8743 C 821.921 -0.489425 1.88242 0
M  V30 8744 O 821.176 -1.37961 1.388 0
M  V30 8745 C 821.475 1.58229 3.20466 0
M  V30 8746 C 821.141 3.07889 3.29416 0
M  V30 8747 C 819.803 3.48737 3.31566 0
M  V30 8748 C 822.155 4.03903 3.29411 0
M  V30 8749 C 819.483 4.84171 3.31355 0
M  V30 8750 C 821.835 5.39253 3.3074 0
M  V30 8751 C 820.499 5.79547 3.31182 0
M  V30 8752 H 819.769 0.358912 0.648277 0
M  V30 8753 H 822.416 1.47552 1.22069 0
M  V30 8754 H 820.721 1.00964 3.78568 0
M  V30 8755 H 822.418 1.39998 3.75768 0
M  V30 8756 H 819.008 2.75335 3.28464 0
M  V30 8757 H 823.192 3.73395 3.2694 0
M  V30 8758 H 818.448 5.14685 3.30015 0
M  V30 8759 H 822.622 6.13417 3.29686 0
M  V30 8760 H 820.249 6.84466 3.30772 0
M  V30 8761 N 821.824 -1.22873 0.986916 0
M  V30 8762 C 823.049 -1.96028 0.677341 0
M  V30 8763 C 823.474 -1.72487 -0.750319 0
M  V30 8764 O 822.832 -1.00036 -1.51203 0
M  V30 8765 C 822.88 -3.46983 0.981593 0
M  V30 8766 O 821.984 -4.12328 0.0770729 0
M  V30 8767 H 821.325 -0.613458 0.254096 0
M  V30 8768 H 823.855 -1.56132 1.32227 0
M  V30 8769 H 823.865 -3.9747 0.920969 0
M  V30 8770 H 822.54 -3.63442 2.02194 0
M  V30 8771 H 821.117 -3.72402 0.192666 0
M  V30 8772 N 823.302 -0.75937 -1.38099 0
M  V30 8773 C 824.551 -0.314864 -1.99227 0
M  V30 8774 C 824.864 1.1113 -1.60964 0
M  V30 8775 O 826.07 1.65657 -2.15105 0
M  V30 8776 C 824.526 -0.512001 -3.56239 0
M  V30 8777 C 824.134 -1.94762 -4.0345 0
M  V30 8778 C 825.878 -0.130497 -4.24299 0
M  V30 8779 C 823.785 -2.09301 -5.53125 0
M  V30 8780 H 822.715 -0.113978 -0.745335 0
M  V30 8781 H 825.366 -0.936736 -1.57789 0
M  V30 8782 H 823.748 0.179144 -3.95595 0
M  V30 8783 H 824.922 -2.67271 -3.75371 0
M  V30 8784 H 823.237 -2.28457 -3.48133 0
M  V30 8785 H 825.834 -0.21781 -5.34256 0
M  V30 8786 H 826.177 0.917644 -4.0606 0
M  V30 8787 H 826.71 -0.773716 -3.90203 0
M  V30 8788 H 823.449 -3.1239 -5.76275 0
M  V30 8789 H 822.969 -1.41261 -5.82928 0
M  V30 8790 H 824.648 -1.88571 -6.1891 0
M  V30 8791 N 824.78 1.49157 -0.508906 0
M  V30 8792 C 826.191 1.86593 -0.0630975 0
M  V30 8793 C 826.542 1.42051 1.35337 0
M  V30 8794 O 825.667 0.801866 2.00995 0
M  V30 8795 C 826.262 3.38629 -0.107729 0
M  V30 8796 C 824.821 3.75336 0.282776 0
M  V30 8797 C 823.968 2.7317 -0.4768 0
M  V30 8798 H 826.919 1.41362 -0.72128 0
M  V30 8799 H 826.94 3.74271 0.685689 0
M  V30 8800 H 826.452 3.71017 -1.13876 0
M  V30 8801 H 824.553 3.48558 1.31675 0
M  V30 8802 H 824.666 4.79081 -0.0421728 0
M  V30 8803 H 823.03 2.54591 0.0743552 0
M  V30 8804 H 823.813 3.08403 -1.50807 0
M  V30 8805 N 826.258 0.243083 1.55714 0
M  V30 8806 C 827.483 -0.389944 2.03701 0
M  V30 8807 C 827.908 -1.51025 1.12129 0
M  V30 8808 O 827.266 -1.80944 0.11352 0
M  V30 8809 C 827.314 -0.878649 3.49731 0
M  V30 8810 O 826.418 -1.98851 3.61292 0
M  V30 8811 H 825.759 -0.0855115 0.658471 0
M  V30 8812 H 828.289 0.368023 2.01263 0
M  V30 8813 H 828.299 -1.18287 3.90477 0
M  V30 8814 H 826.974 -0.0588107 4.15858 0
M  V30 8815 H 825.551 -1.68928 3.32442 0
M  V30 8816 N 827.736 -1.57571 -0.0300757 0
M  V30 8817 C 828.984 -1.88852 -0.719666 0
M  V30 8818 C 829.305 -0.840645 -1.75949 0
M  V30 8819 O 828.575 0.125854 -1.95495 0
M  V30 8820 H 827.155 -0.696965 -0.268792 0
M  V30 8821 H 829.817 -1.949 0.00373285 0
M  V30 8822 H 828.913 -2.87695 -1.20987 0
M  V30 8823 N 829.214 0.302327 -1.54673 0
M  V30 8824 C 830.463 1.03533 -1.73101 0
M  V30 8825 C 830.776 1.88473 -0.523174 0
M  V30 8826 O 831.982 2.65029 -0.589229 0
M  V30 8827 C 830.438 1.89043 -3.06252 0
M  V30 8828 C 830.046 1.09112 -4.3451 0
M  V30 8829 C 831.79 2.61951 -3.34039 0
M  V30 8830 C 829.697 1.93891 -5.58713 0
M  V30 8831 H 828.627 0.390261 -0.645145 0
M  V30 8832 H 831.278 0.2924 -1.81155 0
M  V30 8833 H 829.66 2.67319 -2.92159 0
M  V30 8834 H 830.834 0.354596 -4.59434 0
M  V30 8835 H 829.149 0.477923 -4.13648 0
M  V30 8836 H 831.746 3.25729 -4.24033 0
M  V30 8837 H 832.089 3.30711 -2.52855 0
M  V30 8838 H 832.622 1.90725 -3.49097 0
M  V30 8839 H 829.361 1.29604 -6.4256 0
M  V30 8840 H 828.881 2.6522 -5.37976 0
M  V30 8841 H 830.56 2.51971 -5.95919 0
M  V30 8842 N 830.692 1.47107 0.565454 0
M  V30 8843 C 832.103 1.47266 1.1476 0
M  V30 8844 C 832.454 0.222841 1.9493 0
M  V30 8845 O 831.579 -0.672862 2.05673 0
M  V30 8846 C 832.174 2.66822 2.08785 0
M  V30 8847 C 830.733 2.69967 2.62288 0
M  V30 8848 C 829.88 2.40236 1.38499 0
M  V30 8849 H 832.831 1.54736 0.352479 0
M  V30 8850 H 832.852 2.43323 2.92531 0
M  V30 8851 H 832.364 3.5777 1.50408 0
M  V30 8852 H 830.465 1.83137 3.24487 0
M  V30 8853 H 830.578 3.70426 3.03845 0
M  V30 8854 H 828.942 1.90648 1.68895 0
M  V30 8855 H 829.725 3.33381 0.819274 0
M  V30 8856 N 832.17 -0.811516 1.35101 0
M  V30 8857 C 833.447 -1.55491 1.18667 0
M  V30 8858 C 833.827 -2.09775 -0.236189 0
M  V30 8859 O 833.175 -1.91989 -1.23905 0
M  V30 8860 C 833.385 -2.66732 2.25067 0
M  V30 8861 C 834.733 -3.35201 2.60625 0
M  V30 8862 O 835.757 -2.76998 2.23943 0
M  V30 8863 O 834.616 -4.40334 3.23679 0
M  V30 8864 H 831.71 -0.686783 0.460716 0
M  V30 8865 H 834.256 -0.851903 1.46768 0
M  V30 8866 H 833.028 -2.24457 3.20523 0
M  V30 8867 H 832.651 -3.44673 1.98208 0
M  V30 8868 N 833.648 -1.19017 -1.03309 0
M  V30 8869 C 834.578 -0.94772 -2.13402 0
M  V30 8870 C 835.559 0.117383 -1.69694 0
M  V30 8871 O 836.744 -0.0367733 -1.94165 0
M  V30 8872 C 833.874 -0.480977 -3.43953 0
M  V30 8873 C 832.828 -1.48743 -4.01322 0
M  V30 8874 C 832.154 -0.877924 -5.27443 0
M  V30 8875 C 833.454 -2.86642 -4.36616 0
M  V30 8876 H 835.148 -1.86846 -2.33942 0
M  V30 8877 H 832.694 -0.899781 -1.12427 0
M  V30 8878 H 834.647 -0.298677 -4.2034 0
M  V30 8879 H 833.371 0.475348 -3.23122 0
M  V30 8880 H 832.03 -1.65681 -3.27025 0
M  V30 8881 H 831.678 0.0858232 -5.02927 0
M  V30 8882 H 831.378 -1.54996 -5.66789 0
M  V30 8883 H 832.902 -0.706326 -6.06501 0
M  V30 8884 H 834.316 -2.73312 -5.03958 0
M  V30 8885 H 832.713 -3.50599 -4.87032 0
M  V30 8886 H 833.783 -3.39617 -3.46105 0
M  V30 8887 N 835.127 1.22348 -0.993418 0
M  V30 8888 C 836.538 1.72893 -0.704616 0
M  V30 8889 C 836.889 1.80095 0.778483 0
M  V30 8890 O 836.014 1.4476 1.60853 0
M  V30 8891 C 836.609 3.14 -1.27237 0
M  V30 8892 C 835.168 3.61949 -1.03294 0
M  V30 8893 C 834.315 2.39816 -1.39225 0
M  V30 8894 H 837.266 1.07688 -1.16572 0
M  V30 8895 H 837.287 3.74886 -0.651212 0
M  V30 8896 H 836.799 3.08727 -2.3518 0
M  V30 8897 H 834.9 3.72588 0.0298329 0
M  V30 8898 H 835.013 4.48051 -1.69668 0
M  V30 8899 H 833.377 2.41448 -0.810849 0
M  V30 8900 H 834.16 2.37203 -2.48172 0
M  V30 8901 N 836.605 0.766683 1.37694 0
M  V30 8902 C 837.537 0.107798 2.28946 0
M  V30 8903 C 838.55 -0.669701 1.48387 0
M  V30 8904 O 839.739 -0.508629 1.711 0
M  V30 8905 C 836.839 -0.871084 3.27514 0
M  V30 8906 C 836.012 -0.148471 4.37148 0
M  V30 8907 C 835.071 -1.03998 5.1582 0
M  V30 8908 O 834.097 -0.505639 5.6695 0
M  V30 8909 N 835.299 -2.36679 5.3006 0
M  V30 8910 H 838.064 0.89154 2.86132 0
M  V30 8911 H 835.625 0.618593 1.49616 0
M  V30 8912 H 837.617 -1.47081 3.77027 0
M  V30 8913 H 836.187 -1.55582 2.71133 0
M  V30 8914 H 835.407 0.632117 3.89099 0
M  V30 8915 H 836.695 0.351045 5.07588 0
M  V30 8916 H 836.093 -2.82532 4.90094 0
M  V30 8917 H 834.65 -2.9167 5.82899 0
M  V30 8918 N 838.083 -1.48885 0.516809 0
M  V30 8919 C 839.36 -1.95412 -0.0858293 0
M  V30 8920 C 839.74 -1.45875 -1.5259 0
M  V30 8921 O 839.088 -0.679415 -2.18166 0
M  V30 8922 C 839.298 -3.48995 0.0178194 0
M  V30 8923 C 840.646 -4.24342 -0.14813 0
M  V30 8924 O 841.67 -3.56155 -0.0566125 0
M  V30 8925 O 840.529 -5.45454 -0.338035 0
M  V30 8926 H 837.623 -0.822455 -0.0865884 0
M  V30 8927 H 840.169 -1.59464 0.580472 0
M  V30 8928 H 838.941 -3.77732 1.02147 0
M  V30 8929 H 838.564 -3.91604 -0.687924 0
M  V30 8930 N 839.561 -0.251338 -1.55583 0
M  V30 8931 C 840.789 0.376187 -2.03451 0
M  V30 8932 C 841.204 1.51215 -1.13047 0
M  V30 8933 O 840.561 1.81917 -0.145769 0
M  V30 8934 C 840.612 0.879779 -3.50631 0
M  V30 8935 O 840.333 -0.210917 -4.37592 0
M  V30 8936 C 841.834 1.57754 -4.14281 0
M  V30 8937 H 839.054 0.0888722 -0.665089 0
M  V30 8938 H 841.598 -0.376497 -2.01004 0
M  V30 8939 H 839.753 1.58263 -3.53598 0
M  V30 8940 H 840.167 0.172203 -5.24217 0
M  V30 8941 H 841.641 1.88158 -5.18942 0
M  V30 8942 H 842.118 2.50103 -3.61034 0
M  V30 8943 H 842.724 0.919154 -4.15249 0
M  V30 8944 N 841.039 1.57585 0.0217189 0
M  V30 8945 C 842.286 1.89606 0.711045 0
M  V30 8946 C 842.614 0.849535 1.74966 0
M  V30 8947 O 841.869 -0.14856 1.95135 0
M  V30 8948 C 842.168 3.28377 1.41079 0
M  V30 8949 C 841.834 4.48035 0.507454 0
M  V30 8950 C 840.496 4.80504 0.258672 0
M  V30 8951 C 842.848 5.21071 -0.115793 0
M  V30 8952 C 840.176 5.83393 -0.622013 0
M  V30 8953 C 842.528 6.24897 -0.984224 0
M  V30 8954 C 841.192 6.55836 -1.2424 0
M  V30 8955 H 840.462 0.693817 0.26019 0
M  V30 8956 H 843.109 1.91478 -0.0291424 0
M  V30 8957 H 841.414 3.22528 2.22448 0
M  V30 8958 H 843.111 3.50404 1.94982 0
M  V30 8959 H 839.701 4.22653 0.711516 0
M  V30 8960 H 843.885 4.96259 0.0634327 0
M  V30 8961 H 839.141 6.05736 -0.830267 0
M  V30 8962 H 843.315 6.8063 -1.47363 0
M  V30 8963 H 840.942 7.35383 -1.92653 0
M  V30 8964 N 842.517 -0.29412 1.54831 0
M  V30 8965 C 843.766 -1.02614 1.73647 0
M  V30 8966 C 844.079 -1.88193 0.533162 0
M  V30 8967 O 845.285 -2.64713 0.603275 0
M  V30 8968 C 843.741 -1.87417 3.07251 0
M  V30 8969 C 843.349 -1.06806 4.35082 0
M  V30 8970 C 845.093 -2.60176 3.35423 0
M  V30 8971 C 843 -1.90926 5.59733 0
M  V30 8972 H 841.93 -0.386834 0.647206 0
M  V30 8973 H 844.581 -0.282789 1.81308 0
M  V30 8974 H 842.963 -2.65765 2.93572 0
M  V30 8975 H 844.137 -0.330226 4.59615 0
M  V30 8976 H 842.452 -0.455979 4.13896 0
M  V30 8977 H 845.049 -3.23476 4.25755 0
M  V30 8978 H 845.392 -3.29365 2.54606 0
M  V30 8979 H 845.925 -1.88871 3.50103 0
M  V30 8980 H 842.664 -1.26194 6.43238 0
M  V30 8981 H 842.184 -2.62363 5.39375 0
M  V30 8982 H 843.863 -2.48807 5.97247 0
M  V30 8983 N 843.995 -1.47404 -0.557645 0
M  V30 8984 C 844.927 -1.55917 -1.67995 0
M  V30 8985 C 845.94 -0.445411 -1.56588 0
M  V30 8986 O 847.129 -0.714999 -1.63554 0
M  V30 8987 C 844.229 -1.44697 -3.06457 0
M  V30 8988 C 843.402 -2.70633 -3.43622 0
M  V30 8989 C 842.461 -2.53256 -4.61246 0
M  V30 8990 O 841.487 -3.27068 -4.65849 0
M  V30 8991 N 842.689 -1.61053 -5.57711 0
M  V30 8992 H 845.454 -2.52694 -1.61139 0
M  V30 8993 H 843.015 -1.43778 -0.744271 0
M  V30 8994 H 845.007 -1.30806 -3.82978 0
M  V30 8995 H 843.577 -0.560039 -3.07542 0
M  V30 8996 H 842.797 -2.99288 -2.56555 0
M  V30 8997 H 844.085 -3.5424 -3.65228 0
M  V30 8998 H 843.483 -1.00235 -5.56749 0
M  V30 8999 H 842.04 -1.53115 -6.33561 0
M  V30 9000 N 845.473 0.80434 -1.35529 0
M  V30 9001 C 846.72 1.56154 -1.28927 0
M  V30 9002 C 847.048 1.94026 0.135682 0
M  V30 9003 O 846.303 1.61759 1.10148 0
M  V30 9004 C 846.602 2.85988 -2.14349 0
M  V30 9005 C 846.268 2.67323 -3.6311 0
M  V30 9006 C 844.93 2.61941 -4.03659 0
M  V30 9007 C 847.282 2.49699 -4.57493 0
M  V30 9008 C 844.61 2.3688 -5.36754 0
M  V30 9009 C 846.962 2.26168 -5.90788 0
M  V30 9010 C 845.626 2.19209 -6.30479 0
M  V30 9011 H 844.896 0.571407 -0.471779 0
M  V30 9012 H 847.543 0.929193 -1.67446 0
M  V30 9013 H 845.848 3.53612 -1.68718 0
M  V30 9014 H 847.545 3.43697 -2.06576 0
M  V30 9015 H 844.135 2.72361 -3.30934 0
M  V30 9016 H 848.319 2.52869 -4.27049 0
M  V30 9017 H 843.575 2.29964 -5.66504 0
M  V30 9018 H 847.749 2.11522 -6.63499 0
M  V30 9019 H 845.376 1.99553 -7.33541 0
M  V30 9020 N 846.951 1.19563 1.02676 0
M  V30 9021 C 848.362 1.00158 1.57561 0
M  V30 9022 C 848.713 -0.444922 1.91089 0
M  V30 9023 O 847.838 -1.32466 1.71119 0
M  V30 9024 C 848.433 1.81181 2.86284 0
M  V30 9025 C 846.992 1.66171 3.37734 0
M  V30 9026 C 846.139 1.7975 2.11152 0
M  V30 9027 H 849.09 1.33904 0.85179 0
M  V30 9028 H 849.111 1.30916 3.57269 0
M  V30 9029 H 848.623 2.86454 2.6185 0
M  V30 9030 H 846.724 0.634927 3.6715 0
M  V30 9031 H 846.837 2.46832 4.10622 0
M  V30 9032 H 845.201 1.22833 2.23123 0
M  V30 9033 H 845.984 2.86487 1.89157 0
M  V30 9034 N 848.429 -1.21819 0.999893 0
M  V30 9035 C 849.677 -1.90375 0.678351 0
M  V30 9036 C 849.998 -1.78155 -0.792824 0
M  V30 9037 O 849.268 -1.17319 -1.56885 0
M  V30 9038 H 847.848 -0.704661 0.247915 0
M  V30 9039 H 850.51 -1.48021 1.2679 0
M  V30 9040 H 849.606 -2.97385 0.947023 0
M  V30 9041 N 849.908 -0.773975 -1.37286 0
M  V30 9042 C 851.154 -0.348833 -2.00386 0
M  V30 9043 C 851.509 1.06347 -1.60337 0
M  V30 9044 O 850.802 1.72178 -0.840545 0
M  V30 9045 C 850.996 -0.432651 -3.54772 0
M  V30 9046 C 850.825 -1.85155 -4.09814 0
M  V30 9047 C 849.595 -2.47272 -4.40664 0
M  V30 9048 C 851.793 -2.8114 -4.30656 0
M  V30 9049 N 849.775 -3.80912 -4.81435 0
M  V30 9050 C 851.146 -3.99582 -4.74061 0
M  V30 9051 C 853.201 -2.78398 -4.12794 0
M  V30 9052 C 851.904 -5.1567 -5.01475 0
M  V30 9053 C 853.93 -3.9366 -4.41345 0
M  V30 9054 C 853.292 -5.10844 -4.84992 0
M  V30 9055 H 849.391 -0.174738 -0.762227 0
M  V30 9056 H 851.975 -1.00828 -1.66559 0
M  V30 9057 H 850.146 0.19663 -3.87902 0
M  V30 9058 H 851.878 0.0147601 -4.04697 0
M  V30 9059 H 848.633 -1.98872 -4.29822 0
M  V30 9060 H 849.057 -4.49628 -5.06126 0
M  V30 9061 H 853.699 -1.8897 -3.7822 0
M  V30 9062 H 851.417 -6.05696 -5.34938 0
M  V30 9063 H 855.003 -3.92882 -4.2911 0
M  V30 9064 H 853.883 -5.98553 -5.0666 0
M  V30 9065 N 851.386 1.48609 -0.524698 0
M  V30 9066 C 852.614 2.06899 0.00742946 0
M  V30 9067 C 853.029 1.38196 1.28637 0
M  V30 9068 O 852.386 0.467771 1.76403 0
M  V30 9069 C 852.437 3.60699 0.240548 0
M  V30 9070 O 852.158 4.26821 -0.987715 0
M  V30 9071 C 853.659 4.35769 0.813652 0
M  V30 9072 H 850.879 0.670278 -0.0311294 0
M  V30 9073 H 853.423 1.91071 -0.728832 0
M  V30 9074 H 851.578 3.76149 0.926845 0
M  V30 9075 H 851.992 5.18889 -0.765175 0
M  V30 9076 H 853.466 5.44174 0.926219 0
M  V30 9077 H 853.943 3.9984 1.81728 0
M  V30 9078 H 854.549 4.24983 0.164086 0
M  V30 9079 N 852.864 0.259585 1.55447 0
M  V30 9080 C 853.811 -0.634578 2.21905 0
M  V30 9081 C 854.781 -1.16168 1.18719 0
M  V30 9082 O 855.966 -1.21383 1.4721 0
M  V30 9083 C 853.106 -1.82005 2.93203 0
M  V30 9084 C 852.219 -1.32828 4.11073 0
M  V30 9085 C 851.354 -2.47431 4.70055 0
M  V30 9086 C 850.393 -1.95179 5.80148 0
M  V30 9087 N 849.53 -3.03197 6.33258 0
M  V30 9088 H 854.37 -0.0611886 2.97937 0
M  V30 9089 H 851.907 -0.0184378 1.47088 0
M  V30 9090 H 853.865 -2.51664 3.32748 0
M  V30 9091 H 852.495 -2.36571 2.19622 0
M  V30 9092 H 851.547 -0.525301 3.76756 0
M  V30 9093 H 852.859 -0.905435 4.90513 0
M  V30 9094 H 852.013 -3.25111 5.12238 0
M  V30 9095 H 850.752 -2.93023 3.89857 0
M  V30 9096 H 849.757 -1.15974 5.37429 0
M  V30 9097 H 850.982 -1.50541 6.62204 0
M  V30 9098 H 848.928 -3.48199 5.55961 0
M  V30 9099 H 848.845 -2.65282 7.07928 0
M  V30 9100 H 850.113 -3.80898 6.80101 0
M  V30 9101 N 854.342 -1.57594 -0.0133615 0
M  V30 9102 C 855.59 -1.89605 -0.699596 0
M  V30 9103 C 855.911 -0.85926 -1.75048 0
M  V30 9104 O 855.181 0.105112 -1.95618 0
M  V30 9105 H 853.761 -0.699776 -0.261385 0
M  V30 9106 H 856.423 -1.94885 0.0244044 0
M  V30 9107 H 855.519 -2.88962 -1.17928 0
M  V30 9108 N 855.82 0.285905 -1.54985 0
M  V30 9109 C 856.752 1.37505 -1.83371 0
M  V30 9110 C 857.765 1.46138 -0.717454 0
M  V30 9111 O 858.954 1.48186 -0.995142 0
M  V30 9112 C 856.054 2.7575 -1.97016 0
M  V30 9113 C 855.227 2.89866 -3.27561 0
M  V30 9114 C 854.286 4.08704 -3.31433 0
M  V30 9115 O 853.312 4.00073 -4.04883 0
M  V30 9116 N 854.514 5.20062 -2.57907 0
M  V30 9117 H 857.279 1.13505 -2.77375 0
M  V30 9118 H 854.84 0.476006 -1.54744 0
M  V30 9119 H 856.832 3.5352 -1.96991 0
M  V30 9120 H 855.402 2.9263 -1.09938 0
M  V30 9121 H 854.622 1.99085 -3.40234 0
M  V30 9122 H 855.91 2.96219 -4.13681 0
M  V30 9123 H 855.308 5.29958 -1.97891 0
M  V30 9124 H 853.865 5.96111 -2.63619 0
M  V30 9125 N 857.298 1.47698 0.54982 0
M  V30 9126 C 858.544 1.54931 1.30859 0
M  V30 9127 C 858.877 0.214021 1.93017 0
M  V30 9128 O 858.152 -0.778093 1.78258 0
M  V30 9129 C 858.435 2.67286 2.41309 0
M  V30 9130 C 858.288 4.10457 1.83971 0
M  V30 9131 C 859.607 2.75509 3.43195 0
M  V30 9132 H 856.726 0.56399 0.474431 0
M  V30 9133 H 859.368 1.79787 0.614541 0
M  V30 9134 H 857.518 2.46224 3.0051 0
M  V30 9135 H 859.19 4.42903 1.28974 0
M  V30 9136 H 857.433 4.18387 1.14606 0
M  V30 9137 H 858.104 4.84857 2.63851 0
M  V30 9138 H 860.58 2.94531 2.93923 0
M  V30 9139 H 859.456 3.55886 4.17895 0
M  V30 9140 H 859.717 1.82863 4.02509 0
M  V30 9141 N 858.776 -0.797141 1.35954 0
M  V30 9142 C 860.022 -1.55636 1.30954 0
M  V30 9143 C 860.377 -1.92071 -0.112515 0
M  V30 9144 O 859.67 -1.5926 -1.06521 0
M  V30 9145 C 859.864 -2.84847 2.15863 0
M  V30 9146 C 859.693 -2.61039 3.66182 0
M  V30 9147 C 858.463 -2.56452 4.35385 0
M  V30 9148 C 860.661 -2.30766 4.59621 0
M  V30 9149 N 858.643 -2.2446 5.71394 0
M  V30 9150 C 860.014 -2.08695 5.8382 0
M  V30 9151 C 862.069 -2.16708 4.48266 0
M  V30 9152 C 860.772 -1.73989 6.9794 0
M  V30 9153 C 862.798 -1.83399 5.62244 0
M  V30 9154 C 862.16 -1.62171 6.85478 0
M  V30 9155 H 858.259 -0.570853 0.534463 0
M  V30 9156 H 860.843 -0.932261 1.7093 0
M  V30 9157 H 859.014 -3.45137 1.78144 0
M  V30 9158 H 860.746 -3.50503 2.02311 0
M  V30 9159 H 857.501 -2.7143 3.88101 0
M  V30 9160 H 857.925 -2.11232 6.43203 0
M  V30 9161 H 862.567 -2.31814 3.53585 0
M  V30 9162 H 860.285 -1.57621 7.92579 0
M  V30 9163 H 863.871 -1.73217 5.55416 0
M  V30 9164 H 862.751 -1.36774 7.7218 0
M  V30 9165 N 860.254 -1.20106 -1.0204 0
M  V30 9166 C 861.503 -1.00316 -1.74985 0
M  V30 9167 C 861.816 0.465814 -1.89972 0
M  V30 9168 O 863.022 0.782749 -2.59972 0
M  V30 9169 C 861.478 -1.74608 -3.14706 0
M  V30 9170 C 861.086 -3.25573 -3.07744 0
M  V30 9171 C 862.83 -1.63172 -3.91887 0
M  V30 9172 C 860.737 -3.92419 -4.42449 0
M  V30 9173 H 859.667 -0.371728 -0.655999 0
M  V30 9174 H 862.318 -1.43688 -1.14131 0
M  V30 9175 H 860.7 -1.24021 -3.76078 0
M  V30 9176 H 861.874 -3.83345 -2.55702 0
M  V30 9177 H 860.189 -3.3738 -2.44057 0
M  V30 9178 H 862.786 -2.10457 -4.9154 0
M  V30 9179 H 863.129 -0.58728 -4.12137 0
M  V30 9180 H 863.662 -2.11152 -3.37135 0
M  V30 9181 H 860.401 -4.96998 -4.27403 0
M  V30 9182 H 859.921 -3.39436 -4.94513 0
M  V30 9183 H 861.6 -3.96453 -5.11306 0
M  V30 9184 N 861.732 1.21287 -1.00634 0
M  V30 9185 C 862.68 2.25733 -0.561026 0
M  V30 9186 C 863.674 1.64728 0.395095 0
M  V30 9187 O 864.88 1.78022 0.266141 0
M  V30 9188 H 861.255 0.734104 -0.163081 0
M  V30 9189 H 863.226 2.60631 -1.45307 0
M  V30 9190 C 861.975 3.47569 0.0952587 0
M  V30 9191 H 861.298 3.94782 -0.631427 0
M  V30 9192 H 862.738 4.22382 0.370105 0
M  V30 9193 C 861.197 3.09326 1.33488 0
M  V30 9194 O 861.727 3.19933 2.42912 0
M  V30 9195 N 859.933 2.63976 1.21512 0
M  V30 9196 H 859.48 2.55545 0.324741 0
M  V30 9197 H 859.438 2.38757 2.04555 0
M  V30 9198 N 863.21 0.781244 1.36873 0
M  V30 9199 C 864.458 0.349198 1.9906 0
M  V30 9200 C 864.779 -1.0806 1.62321 0
M  V30 9201 O 864.049 -1.74351 0.893229 0
M  V30 9202 H 862.629 0.126126 0.736275 0
M  V30 9203 H 865.291 1.00148 1.67202 0
M  V30 9204 H 864.387 0.434451 3.09061 0
M  V30 9205 N 864.689 -1.48329 0.532571 0
M  V30 9206 C 865.936 -2.025 -0.000582356 0
M  V30 9207 C 866.264 -1.40942 -1.34036 0
M  V30 9208 O 865.519 -0.545545 -1.87942 0
M  V30 9209 C 865.818 -3.57 -0.168943 0
M  V30 9210 C 865.484 -4.37357 1.0968 0
M  V30 9211 C 864.146 -4.59033 1.44369 0
M  V30 9212 C 866.498 -4.83882 1.93669 0
M  V30 9213 C 863.826 -5.24481 2.62939 0
M  V30 9214 C 866.178 -5.50637 3.11419 0
M  V30 9215 C 864.842 -5.70551 3.46451 0
M  V30 9216 H 864.112 -0.741 -0.000213099 0
M  V30 9217 H 866.759 -1.78282 0.699117 0
M  V30 9218 H 865.064 -3.80072 -0.951429 0
M  V30 9219 H 866.761 -3.9654 -0.596422 0
M  V30 9220 H 863.351 -4.20748 0.816655 0
M  V30 9221 H 867.535 -4.66936 1.6818 0
M  V30 9222 H 862.791 -5.38096 2.9028 0
M  V30 9223 H 866.965 -5.85655 3.76803 0
M  V30 9224 H 864.592 -6.21037 4.38425 0
M  V30 9225 N 866.167 -0.267825 -1.55308 0
M  V30 9226 C 867.115 0.638848 -2.23655 0
M  V30 9227 C 868.109 1.16363 -1.2311 0
M  V30 9228 O 869.315 1.1181 -1.41062 0
M  V30 9229 H 865.69 0.224551 -0.717691 0
M  V30 9230 H 867.661 0.0394809 -2.98374 0
M  V30 9231 C 866.41 1.8151 -2.96562 0
M  V30 9232 H 865.733 1.42048 -3.73715 0
M  V30 9233 H 867.173 2.42629 -3.47717 0
M  V30 9234 C 865.632 2.69911 -2.01618 0
M  V30 9235 O 866.162 3.70058 -1.56268 0
M  V30 9236 N 864.368 2.36924 -1.68272 0
M  V30 9237 H 863.915 1.55533 -2.05347 0
M  V30 9238 H 863.873 2.96343 -1.05016 0
M  V30 9239 N 867.645 1.57599 0.00500368 0
M  V30 9240 C 868.575 2.11143 0.99705 0
M  V30 9241 C 869.556 1.0194 1.3617 0
M  V30 9242 O 870.741 1.29596 1.44632 0
M  V30 9243 C 867.871 2.61062 2.2905 0
M  V30 9244 C 866.825 3.74745 2.0676 0
M  V30 9245 C 866.151 4.10961 3.42075 0
M  V30 9246 C 867.451 5.02222 1.43424 0
M  V30 9247 H 869.145 2.94281 0.551251 0
M  V30 9248 H 866.691 1.41565 0.263715 0
M  V30 9249 H 868.644 2.97146 2.98801 0
M  V30 9250 H 867.368 1.75038 2.75734 0
M  V30 9251 H 866.027 3.39047 1.39436 0
M  V30 9252 H 865.675 3.21968 3.86453 0
M  V30 9253 H 865.375 4.87549 3.27979 0
M  V30 9254 H 866.899 4.49599 4.1315 0
M  V30 9255 H 868.313 5.36109 2.03125 0
M  V30 9256 H 866.71 5.83581 1.39831 0
M  V30 9257 H 867.78 4.83224 0.40285 0
M  V30 9258 N 869.123 -0.277682 1.55134 0
M  V30 9259 C 870.371 -1.00791 1.75173 0
M  V30 9260 C 870.692 -1.86987 0.553266 0
M  V30 9261 O 869.962 -1.91079 -0.43195 0
M  V30 9262 H 868.542 -0.375129 0.645978 0
M  V30 9263 H 871.204 -0.303041 1.9253 0
M  V30 9264 H 870.3 -1.64756 2.6507 0
M  V30 9265 N 870.601 -1.47988 -0.541979 0
M  V30 9266 C 872.017 -1.33843 -0.869383 0
M  V30 9267 C 872.217 -0.340374 -1.98604 0
M  V30 9268 O 871.273 0.242696 -2.51331 0
M  V30 9269 C 872.586 -2.73568 -1.24823 0
M  V30 9270 C 874.134 -2.81967 -1.3588 0
M  V30 9271 C 874.609 -4.22368 -1.77114 0
M  V30 9272 N 876.1 -4.24983 -1.84237 0
M  V30 9273 C 876.835 -5.30547 -2.17503 0
M  V30 9274 N 876.331 -6.46401 -2.49275 0
M  V30 9275 N 878.124 -5.17933 -2.18406 0
M  V30 9276 H 870.275 -2.11503 0.195001 0
M  V30 9277 H 872.538 -0.947681 0.0245862 0
M  V30 9278 H 872.244 -3.48107 -0.501435 0
M  V30 9279 H 872.118 -3.06322 -2.20106 0
M  V30 9280 H 874.505 -2.07692 -2.09638 0
M  V30 9281 H 874.586 -2.52848 -0.387478 0
M  V30 9282 H 874.23 -4.97155 -1.0392 0
M  V30 9283 H 874.16 -4.48922 -2.75275 0
M  V30 9284 H 876.651 -3.41411 -1.62009 0
M  V30 9285 H 876.964 -7.22698 -2.73729 0
M  V30 9286 H 875.309 -6.49696 -2.46821 0
M  V30 9287 H 878.5 -4.26445 -1.93034 0
M  V30 9288 H 878.673 -6.00307 -2.44 0
M  V30 9289 N 872.079 0.78992 -1.36375 0
M  V30 9290 C 873.309 1.57644 -1.33536 0
M  V30 9291 C 873.717 1.89007 0.0855075 0
M  V30 9292 O 873.06 1.50547 1.05267 0
M  V30 9293 C 873.122 2.92424 -2.09113 0
M  V30 9294 C 872.786 2.83793 -3.58205 0
M  V30 9295 C 873.783 2.56072 -4.52464 0
M  V30 9296 C 871.468 3.02386 -4.01084 0
M  V30 9297 C 873.462 2.47044 -5.87578 0
M  V30 9298 C 871.149 2.9298 -5.36289 0
M  V30 9299 C 872.147 2.65347 -6.29349 0
M  V30 9300 O 871.835 2.55935 -7.62071 0
M  V30 9301 H 871.567 0.495639 -0.459694 0
M  V30 9302 H 874.121 0.988354 -1.80058 0
M  V30 9303 H 872.351 3.53282 -1.57254 0
M  V30 9304 H 874.04 3.53693 -1.99139 0
M  V30 9305 H 874.806 2.4141 -4.2065 0
M  V30 9306 H 870.685 3.229 -3.29023 0
M  V30 9307 H 874.229 2.25396 -6.60184 0
M  V30 9308 H 870.126 3.07204 -5.67711 0
M  V30 9309 H 870.894 2.7142 -7.72187 0
M  V30 9310 N 873.557 1.20646 1.01402 0
M  V30 9311 C 874.803 1.02974 1.75408 0
M  V30 9312 C 875.158 -0.433294 1.87458 0
M  V30 9313 O 874.451 -1.31741 1.39122 0
M  V30 9314 C 874.645 1.64991 3.17037 0
M  V30 9315 C 874.474 3.17174 3.18796 0
M  V30 9316 C 873.244 3.86165 3.2589 0
M  V30 9317 C 875.442 4.14369 3.04636 0
M  V30 9318 N 873.424 5.25614 3.1718 0
M  V30 9319 C 874.795 5.4051 3.03724 0
M  V30 9320 C 876.85 4.05534 2.88872 0
M  V30 9321 C 875.553 6.58836 2.88664 0
M  V30 9322 C 877.579 5.23486 2.75166 0
M  V30 9323 C 876.941 6.48535 2.74922 0
M  V30 9324 H 873.04 0.431068 0.65246 0
M  V30 9325 H 875.624 1.52858 1.20593 0
M  V30 9326 H 873.795 1.17688 3.70141 0
M  V30 9327 H 875.527 1.40612 3.79487 0
M  V30 9328 H 872.282 3.37038 3.32719 0
M  V30 9329 H 872.706 5.98625 3.16192 0
M  V30 9330 H 877.348 3.09661 2.87872 0
M  V30 9331 H 875.066 7.5488 2.88413 0
M  V30 9332 H 878.652 5.18464 2.63982 0
M  V30 9333 H 877.532 7.3827 2.64439 0
M  V30 9334 N 875.035 -1.20752 1.01276 0
M  V30 9335 C 876.446 -1.7175 0.732033 0
M  V30 9336 C 876.797 -1.8131 -0.749733 0
M  V30 9337 O 875.922 -1.47301 -1.58529 0
M  V30 9338 C 876.517 -3.11936 1.32217 0
M  V30 9339 C 875.076 -3.6026 1.09039 0
M  V30 9340 C 874.223 -2.37571 1.43022 0
M  V30 9341 H 877.174 -1.0582 1.1827 0
M  V30 9342 H 877.195 -3.73802 0.710771 0
M  V30 9343 H 876.707 -3.04946 2.40061 0
M  V30 9344 H 874.808 -3.72588 0.0294464 0
M  V30 9345 H 874.921 -4.45295 1.76775 0
M  V30 9346 H 873.285 -2.40128 0.849159 0
M  V30 9347 H 874.068 -2.33225 2.51915 0
M  V30 9348 N 876.513 -0.788492 -1.36457 0
M  V30 9349 C 877.476 -0.192209 -2.28393 0
M  V30 9350 C 878.476 0.609916 -1.48784 0
M  V30 9351 O 879.666 0.431046 -1.68783 0
M  V30 9352 C 876.798 0.734096 -3.32902 0
M  V30 9353 H 877.991 -1.00284 -2.82636 0
M  V30 9354 H 875.544 -0.557852 -1.46006 0
M  V30 9355 H 876.279 1.5691 -2.83813 0
M  V30 9356 H 876.064 0.160875 -3.9177 0
M  V30 9357 H 877.554 1.1462 -4.01562 0
M  V30 9358 N 877.991 1.48044 -0.54043 0
M  V30 9359 C 879.407 1.58354 -0.199006 0
M  V30 9360 C 879.607 1.54118 1.29807 0
M  V30 9361 O 878.663 1.43573 2.07709 0
M  V30 9362 C 879.976 2.89563 -0.810797 0
M  V30 9363 C 881.524 3.03113 -0.780486 0
M  V30 9364 C 881.999 4.36997 -1.37104 0
M  V30 9365 N 883.49 4.43591 -1.33347 0
M  V30 9366 C 884.225 5.45714 -1.76021 0
M  V30 9367 N 883.721 6.54738 -2.26473 0
M  V30 9368 N 885.514 5.36659 -1.67194 0
M  V30 9369 H 877.665 1.49041 -1.51329 0
M  V30 9370 H 879.928 0.708309 -0.630081 0
M  V30 9371 H 879.634 2.9835 -1.86227 0
M  V30 9372 H 879.508 3.76053 -0.293977 0
M  V30 9373 H 881.895 2.93932 0.262246 0
M  V30 9374 H 881.976 2.18207 -1.33489 0
M  V30 9375 H 881.62 4.46932 -2.41276 0
M  V30 9376 H 881.55 5.20607 -0.792229 0
M  V30 9377 H 884.041 3.65391 -0.964259 0
M  V30 9378 H 884.354 7.28814 -2.57002 0
M  V30 9379 H 882.699 6.55673 -2.30473 0
M  V30 9380 H 885.89 4.50382 -1.27569 0
M  V30 9381 H 886.063 6.16113 -2.00771 0
M  V30 9382 N 879.47 0.276058 1.55163 0
M  V30 9383 C 880.718 -0.339782 1.99223 0
M  V30 9384 C 881.039 -1.56307 1.16589 0
M  V30 9385 O 880.309 -1.94225 0.25564 0
M  V30 9386 H 878.889 -0.128534 0.735859 0
M  V30 9387 H 881.551 0.381612 1.91128 0
M  V30 9388 H 880.647 -0.629 3.05696 0
M  V30 9389 N 880.948 -1.576 0.00335426 0
M  V30 9390 C 882.359 -1.7875 -0.539008 0
M  V30 9391 C 882.71 -0.911097 -1.73763 0
M  V30 9392 O 881.835 -0.114476 -2.16097 0
M  V30 9393 C 882.43 -3.24177 -0.984611 0
M  V30 9394 C 880.989 -3.46412 -1.47226 0
M  V30 9395 C 880.136 -2.74024 -0.425004 0
M  V30 9396 H 883.087 -1.57032 0.229511 0
M  V30 9397 H 883.108 -3.32474 -1.85044 0
M  V30 9398 H 882.62 -3.87938 -0.112035 0
M  V30 9399 H 880.721 -2.8787 -2.36562 0
M  V30 9400 H 880.834 -4.55098 -1.49741 0
M  V30 9401 H 879.198 -2.38741 -0.887394 0
M  V30 9402 H 879.981 -3.40486 0.438662 0
M  V30 9403 N 882.426 0.269451 -1.5528 0
M  V30 9404 C 883.358 1.35553 -1.84819 0
M  V30 9405 C 884.371 1.45369 -0.732914 0
M  V30 9406 O 885.56 1.47122 -1.0108 0
M  V30 9407 C 882.66 2.73645 -1.9993 0
M  V30 9408 C 881.833 2.86376 -3.30617 0
M  V30 9409 C 880.892 4.05165 -3.35749 0
M  V30 9410 O 879.918 3.95756 -4.09104 0
M  V30 9411 N 881.12 5.17297 -2.63408 0
M  V30 9412 H 883.885 1.10557 -2.78563 0
M  V30 9413 H 881.446 0.459566 -1.5524 0
M  V30 9414 H 883.438 3.51411 -2.00729 0
M  V30 9415 H 882.008 2.91448 -1.13035 0
M  V30 9416 H 881.228 1.95465 -3.42326 0
M  V30 9417 H 882.516 2.91815 -4.16799 0
M  V30 9418 H 881.914 5.2783 -2.03501 0
M  V30 9419 H 880.471 5.93281 -2.69927 0
M  V30 9420 N 883.904 1.48273 0.534124 0
M  V30 9421 C 884.834 1.6538 1.64839 0
M  V30 9422 C 885.815 0.502741 1.62501 0
M  V30 9423 O 887 0.734799 1.79762 0
M  V30 9424 C 884.13 1.68949 3.03436 0
M  V30 9425 C 883.084 2.83513 3.20631 0
M  V30 9426 C 882.41 2.72169 4.60248 0
M  V30 9427 C 883.71 4.24858 3.03797 0
M  V30 9428 H 885.404 2.58663 1.50777 0
M  V30 9429 H 882.95 1.24479 0.723937 0
M  V30 9430 H 884.903 1.79505 3.81256 0
M  V30 9431 H 883.627 0.722415 3.1851 0
M  V30 9432 H 882.286 2.72505 2.45227 0
M  V30 9433 H 881.934 1.7344 4.72152 0
M  V30 9434 H 881.634 3.49042 4.72698 0
M  V30 9435 H 883.158 2.84687 5.40172 0
M  V30 9436 H 884.572 4.36721 3.71413 0
M  V30 9437 H 882.969 5.02697 3.27743 0
M  V30 9438 H 884.039 4.41611 2.0027 0
M  V30 9439 N 885.382 -0.782676 1.36792 0
M  V30 9440 C 886.61 -1.57162 1.34565 0
M  V30 9441 C 887.025 -1.88664 -0.0715501 0
M  V30 9442 O 886.382 -1.50633 -1.03033 0
M  V30 9443 C 886.433 -2.88854 2.1736 0
M  V30 9444 O 886.154 -2.58707 3.53557 0
M  V30 9445 C 887.655 -3.83132 2.2299 0
M  V30 9446 H 884.875 -0.487245 0.461338 0
M  V30 9447 H 887.419 -0.970905 1.79982 0
M  V30 9448 H 885.574 -3.45377 1.7548 0
M  V30 9449 H 885.988 -3.42961 3.96835 0
M  V30 9450 H 887.462 -4.72575 2.85266 0
M  V30 9451 H 887.939 -4.21472 1.23524 0
M  V30 9452 H 888.545 -3.32541 2.65135 0
M  V30 9453 N 886.86 -1.21182 -1.00761 0
M  V30 9454 C 887.79 -0.992773 -2.11344 0
M  V30 9455 C 888.771 0.0813618 -1.69905 0
M  V30 9456 O 889.956 -0.0779503 -1.94043 0
M  V30 9457 C 887.086 -0.553826 -3.42856 0
M  V30 9458 C 886.04 -1.57223 -3.98077 0
M  V30 9459 C 885.366 -0.989605 -5.25463 0
M  V30 9460 C 886.666 -2.95839 -4.30438 0
M  V30 9461 H 888.36 -1.91766 -2.29927 0
M  V30 9462 H 885.906 -0.923426 -1.10494 0
M  V30 9463 H 887.859 -0.387771 -4.19612 0
M  V30 9464 H 886.583 0.406702 -3.24058 0
M  V30 9465 H 885.242 -1.7258 -3.23437 0
M  V30 9466 H 884.89 -0.0208743 -5.02996 0
M  V30 9467 H 884.59 -1.66984 -5.63374 0
M  V30 9468 H 886.114 -0.834815 -6.04866 0
M  V30 9469 H 887.528 -2.8394 -4.98047 0
M  V30 9470 H 885.925 -3.60851 -4.79486 0
M  V30 9471 H 886.995 -3.46882 -3.38823 0
M  V30 9472 N 888.338 1.20213 -1.01915 0
M  V30 9473 C 889.585 1.89647 -0.709955 0
M  V30 9474 C 889.913 1.7901 0.760631 0
M  V30 9475 O 889.168 1.17028 1.56853 0
M  V30 9476 C 889.467 3.40232 -1.09438 0
M  V30 9477 C 889.133 3.7107 -2.5616 0
M  V30 9478 C 887.795 3.79196 -2.96249 0
M  V30 9479 C 890.147 3.85169 -3.51133 0
M  V30 9480 C 887.475 3.98882 -4.30244 0
M  V30 9481 C 889.827 4.06365 -4.8482 0
M  V30 9482 C 888.491 4.12722 -5.24611 0
M  V30 9483 H 887.761 0.693967 -0.259791 0
M  V30 9484 H 890.408 1.42419 -1.2802 0
M  V30 9485 H 888.713 3.89292 -0.442596 0
M  V30 9486 H 890.41 3.92257 -0.832811 0
M  V30 9487 H 887 3.65346 -2.24099 0
M  V30 9488 H 891.184 3.78243 -3.21319 0
M  V30 9489 H 886.44 4.02039 -4.60624 0
M  V30 9490 H 890.614 4.16216 -5.58334 0
M  V30 9491 H 888.241 4.27728 -6.28453 0
M  V30 9492 N 889.816 0.795718 1.36037 0
M  V30 9493 C 891.062 0.371574 1.99367 0
M  V30 9494 C 891.395 -1.0557 1.62999 0
M  V30 9495 O 890.67 -1.73051 0.887895 0
M  V30 9496 C 890.953 0.542622 3.55988 0
M  V30 9497 C 890.806 2.01404 4.0219 0
M  V30 9498 C 892.125 -0.0384527 4.40083 0
M  V30 9499 H 889.244 0.136483 0.724252 0
M  V30 9500 H 891.886 1.00323 1.61355 0
M  V30 9501 H 890.036 0.0049053 3.885 0
M  V30 9502 H 891.708 2.6133 3.80137 0
M  V30 9503 H 889.951 2.51439 3.53498 0
M  V30 9504 H 890.622 2.08466 5.11122 0
M  V30 9505 H 893.098 0.420634 4.13968 0
M  V30 9506 H 891.974 0.111214 5.48787 0
M  V30 9507 H 892.235 -1.13116 4.27384 0
M  V30 9508 N 891.294 -1.47756 0.548274 0
M  V30 9509 C 892.705 -1.8636 0.112547 0
M  V30 9510 C 893.056 -1.45589 -1.31523 0
M  V30 9511 O 892.181 -0.854874 -1.98799 0
M  V30 9512 C 892.776 -3.38224 0.197473 0
M  V30 9513 C 891.335 -3.75954 -0.183163 0
M  V30 9514 C 890.482 -2.7181 0.549059 0
M  V30 9515 H 893.433 -1.394 0.758506 0
M  V30 9516 H 893.454 -3.75957 -0.586217 0
M  V30 9517 H 892.966 -3.67868 1.23673 0
M  V30 9518 H 891.067 -3.51926 -1.22387 0
M  V30 9519 H 891.18 -4.78801 0.169178 0
M  V30 9520 H 889.544 -2.54699 -0.00682862 0
M  V30 9521 H 890.327 -3.04296 1.5893 0
M  V30 9522 N 892.772 -0.284283 -1.55015 0
M  V30 9523 C 893.704 0.63258 -2.20298 0
M  V30 9524 C 894.717 1.11045 -1.1905 0
M  V30 9525 O 895.906 1.03078 -1.4573 0
M  V30 9526 C 893.006 1.87599 -2.82241 0
M  V30 9527 C 892.179 1.5434 -4.09265 0
M  V30 9528 C 891.238 2.64023 -4.55169 0
M  V30 9529 O 890.264 2.29821 -5.20741 0
M  V30 9530 N 891.466 3.94255 -4.26079 0
M  V30 9531 H 894.231 0.0737928 -2.99609 0
M  V30 9532 H 891.792 -0.105767 -1.61554 0
M  V30 9533 H 893.784 2.60289 -3.0989 0
M  V30 9534 H 892.354 2.3436 -2.06868 0
M  V30 9535 H 891.574 0.649912 -3.88806 0
M  V30 9536 H 892.862 1.29634 -4.92009 0
M  V30 9537 H 892.26 4.24859 -3.73512 0
M  V30 9538 H 890.817 4.63295 -4.58477 0
M  V30 9539 N 894.251 1.57596 -0.0117121 0
M  V30 9540 C 895.201 2.05641 0.98467 0
M  V30 9541 C 896.185 0.953422 1.2961 0
M  V30 9542 O 897.377 1.21712 1.28512 0
M  V30 9543 C 894.506 2.57285 2.27286 0
M  V30 9544 C 893.592 3.74483 1.99057 0
M  V30 9545 N 893.983 4.85741 1.41029 0
M  V30 9546 C 892.281 3.82637 2.2914 0
M  V30 9547 C 892.982 5.67094 1.29536 0
M  V30 9548 N 891.958 5.13459 1.78497 0
M  V30 9549 H 895.76 2.89069 0.530702 0
M  V30 9550 H 893.274 1.6124 0.193717 0
M  V30 9551 H 895.271 2.89988 2.99521 0
M  V30 9552 H 893.931 1.75281 2.73325 0
M  V30 9553 H 894.942 5.06352 1.08756 0
M  V30 9554 H 891.619 3.11509 2.77972 0
M  V30 9555 H 893.009 6.66525 0.848144 0
M  V30 9556 N 895.729 -0.261212 1.5542 0
M  V30 9557 C 896.978 -0.989072 1.75785 0
M  V30 9558 C 897.291 -1.8702 0.572961 0
M  V30 9559 O 898.497 -2.63374 0.659289 0
M  V30 9560 C 896.953 -1.80857 3.11157 0
M  V30 9561 C 896.561 -0.975535 4.3725 0
M  V30 9562 C 898.305 -2.53003 3.40866 0
M  V30 9563 C 896.212 -1.7901 5.63657 0
M  V30 9564 H 895.142 -0.373019 0.655266 0
M  V30 9565 H 897.793 -0.244267 1.81867 0
M  V30 9566 H 896.175 -2.59479 2.99144 0
M  V30 9567 H 897.349 -0.232661 4.60212 0
M  V30 9568 H 895.664 -0.368083 4.1477 0
M  V30 9569 H 898.261 -3.14372 4.32521 0
M  V30 9570 H 898.604 -3.23891 2.61535 0
M  V30 9571 H 899.137 -1.81403 3.54031 0
M  V30 9572 H 895.876 -1.12522 6.4577 0
M  V30 9573 H 895.396 -2.50863 5.44819 0
M  V30 9574 H 897.075 -2.36082 6.0239 0
M  V30 9575 N 897.207 -1.48554 -0.526253 0
M  V30 9576 C 898.137 -1.66252 -1.63959 0
M  V30 9577 C 899.118 -0.511351 -1.62232 0
M  V30 9578 O 900.303 -0.744322 -1.7937 0
M  V30 9579 C 897.433 -1.70556 -3.02536 0
M  V30 9580 C 896.387 -2.8521 -3.19123 0
M  V30 9581 C 895.713 -2.74606 -4.58798 0
M  V30 9582 C 897.013 -4.26463 -3.0154 0
M  V30 9583 H 898.707 -2.59459 -1.49404 0
M  V30 9584 H 896.253 -1.24862 -0.717326 0
M  V30 9585 H 898.206 -1.81524 -3.80298 0
M  V30 9586 H 896.93 -0.739297 -3.18123 0
M  V30 9587 H 895.589 -2.73802 -2.43779 0
M  V30 9588 H 895.237 -1.75941 -4.71226 0
M  V30 9589 H 894.937 -3.51544 -4.70841 0
M  V30 9590 H 896.461 -2.87548 -5.38655 0
M  V30 9591 H 897.875 -4.38685 -3.69091 0
M  V30 9592 H 896.272 -5.04428 -3.25073 0
M  V30 9593 H 897.342 -4.42667 -1.97925 0
M  V30 9594 N 898.685 0.775411 -1.37205 0
M  V30 9595 C 899.618 1.8957 -1.27037 0
M  V30 9596 C 900.596 1.61891 -0.151643 0
M  V30 9597 O 901.78 1.85673 -0.325218 0
M  V30 9598 C 898.907 3.24712 -0.963316 0
M  V30 9599 C 897.953 3.71306 -2.09842 0
M  V30 9600 S 898.786 3.8541 -3.71778 0
M  V30 9601 C 899.942 5.23406 -3.43216 0
M  V30 9602 H 900.175 1.97905 -2.21857 0
M  V30 9603 H 897.708 0.936127 -1.22784 0
M  V30 9604 H 899.666 4.02768 -0.792983 0
M  V30 9605 H 898.327 3.14083 -0.0326561 0
M  V30 9606 H 897.52 4.69271 -1.83849 0
M  V30 9607 H 897.122 3.00341 -2.2287 0
M  V30 9608 H 899.414 6.08454 -2.97977 0
M  V30 9609 H 900.357 5.54409 -4.40495 0
M  V30 9610 H 900.765 4.9117 -2.78231 0
M  V30 9611 N 900.163 1.21714 1.00117 0
M  V30 9612 C 901.391 1.06278 1.77518 0
M  V30 9613 C 901.806 -0.387193 1.84787 0
M  V30 9614 O 901.163 -1.26854 1.31203 0
M  V30 9615 C 901.214 1.65795 3.21239 0
M  V30 9616 O 900.935 3.05119 3.14378 0
M  V30 9617 C 902.436 1.55521 4.15124 0
M  V30 9618 H 899.656 0.373013 0.557765 0
M  V30 9619 H 902.2 1.61133 1.25922 0
M  V30 9620 H 900.355 1.15022 3.69931 0
M  V30 9621 H 900.769 3.33643 4.04701 0
M  V30 9622 H 902.243 2.01902 5.13751 0
M  V30 9623 H 902.72 0.510307 4.36225 0
M  V30 9624 H 903.326 2.0556 3.72324 0
M  V30 9625 N 901.641 -1.19671 1.02551 0
M  V30 9626 C 902.866 -1.93774 0.739363 0
M  V30 9627 C 903.291 -1.74787 -0.695064 0
M  V30 9628 O 902.649 -1.04796 -1.47944 0
M  V30 9629 C 902.697 -3.43684 1.09149 0
M  V30 9630 O 901.801 -4.11874 0.208213 0
M  V30 9631 H 901.142 -0.605064 0.273484 0
M  V30 9632 H 903.672 -1.51846 1.37128 0
M  V30 9633 H 903.682 -3.94339 1.04695 0
M  V30 9634 H 902.357 -3.56826 2.13654 0
M  V30 9635 H 900.934 -3.716 0.311045 0
M  V30 9636 N 903.119 -0.802921 -1.35613 0
M  V30 9637 C 904.082 -0.216422 -2.28176 0
M  V30 9638 C 905.082 0.594101 -1.49422 0
M  V30 9639 O 906.272 0.41312 -1.6923 0
M  V30 9640 C 903.404 0.698746 -3.33662 0
M  V30 9641 H 904.597 -1.03276 -2.81557 0
M  V30 9642 H 902.15 -0.573307 -1.45406 0
M  V30 9643 H 902.885 1.53891 -2.85461 0
M  V30 9644 H 902.67 0.119314 -3.91918 0
M  V30 9645 H 904.16 1.10354 -4.02755 0
M  V30 9646 N 904.597 1.47463 -0.556102 0
M  V30 9647 C 906.008 1.86298 -0.122429 0
M  V30 9648 C 906.359 1.46285 1.30749 0
M  V30 9649 O 905.484 0.865405 1.98342 0
M  V30 9650 C 906.079 3.38115 -0.215407 0
M  V30 9651 C 904.638 3.76046 0.163223 0
M  V30 9652 C 903.785 2.71515 -0.563466 0
M  V30 9653 H 906.736 1.38996 -0.765888 0
M  V30 9654 H 906.757 3.76263 0.566271 0
M  V30 9655 H 906.269 3.67207 -1.25622 0
M  V30 9656 H 904.37 3.5257 1.20519 0
M  V30 9657 H 904.483 4.78705 -0.194568 0
M  V30 9658 H 902.847 2.54699 -0.00667879 0
M  V30 9659 H 903.63 3.03449 -1.60542 0
M  V30 9660 N 906.075 0.2925 1.54862 0
M  V30 9661 C 907.023 -0.603186 2.24643 0
M  V30 9662 C 908.017 -1.1439 1.24946 0
M  V30 9663 O 909.223 -1.09552 1.42823 0
M  V30 9664 H 905.598 -0.213105 0.721173 0
M  V30 9665 H 907.569 0.00799278 2.98399 0
M  V30 9666 C 906.318 -1.76769 2.99413 0
M  V30 9667 H 905.641 -1.36084 3.75927 0
M  V30 9668 H 907.081 -2.37066 3.51533 0
M  V30 9669 C 905.54 -2.66669 2.05886 0
M  V30 9670 O 906.07 -3.67525 1.62136 0
M  V30 9671 N 904.276 -2.34216 1.7202 0
M  V30 9672 H 903.823 -1.52246 2.07795 0
M  V30 9673 H 903.781 -2.94635 1.09717 0
M  V30 9674 N 907.553 -1.57587 0.0200696 0
M  V30 9675 C 908.781 -1.95718 -0.670964 0
M  V30 9676 C 909.196 -0.896081 -1.6618 0
M  V30 9677 O 908.553 0.123037 -1.82085 0
M  V30 9678 C 908.604 -3.33904 -1.38529 0
M  V30 9679 O 908.325 -4.35943 -0.434167 0
M  V30 9680 C 909.826 -3.86614 -2.16898 0
M  V30 9681 H 907.046 -0.644819 -0.185606 0
M  V30 9682 H 909.59 -2.04354 0.0771495 0
M  V30 9683 H 907.745 -3.26515 -2.08487 0
M  V30 9684 H 908.159 -5.16001 -0.940378 0
M  V30 9685 H 909.633 -4.85673 -2.62346 0
M  V30 9686 H 910.11 -3.20379 -3.00423 0
M  V30 9687 H 910.716 -3.97243 -1.51916 0
M  V30 9688 N 909.032 0.252966 -1.55557 0
M  V30 9689 C 910.281 0.979736 -1.76307 0
M  V30 9690 C 910.594 1.86714 -0.582871 0
M  V30 9691 O 911.8 2.6302 -0.673247 0
M  V30 9692 C 910.256 1.79205 -3.12112 0
M  V30 9693 C 909.864 0.952333 -4.37761 0
M  V30 9694 C 911.608 2.51191 -3.42203 0
M  V30 9695 C 909.515 1.76018 -5.64599 0
M  V30 9696 H 908.445 0.369538 -0.657235 0
M  V30 9697 H 911.096 0.234619 -1.81994 0
M  V30 9698 H 909.478 2.57888 -3.00515 0
M  V30 9699 H 910.652 0.208251 -4.60329 0
M  V30 9700 H 908.967 0.346082 -4.14959 0
M  V30 9701 H 911.564 3.12074 -4.34182 0
M  V30 9702 H 911.907 3.22499 -2.63249 0
M  V30 9703 H 912.44 1.79523 -3.54988 0
M  V30 9704 H 909.179 1.09095 -6.46358 0
M  V30 9705 H 908.699 2.4797 -5.46142 0
M  V30 9706 H 910.378 2.32884 -6.03634 0
M  V30 9707 N 910.51 1.48831 0.518367 0
M  V30 9708 C 911.738 1.6112 1.298 0
M  V30 9709 C 912.153 0.275872 1.86774 0
M  V30 9710 O 911.51 -0.736416 1.66983 0
M  V30 9711 C 911.561 2.66675 2.44063 0
M  V30 9712 O 911.282 3.95027 1.89434 0
M  V30 9713 C 912.783 2.8951 3.35706 0
M  V30 9714 H 910.003 0.542916 0.394314 0
M  V30 9715 H 912.547 1.94743 0.624142 0
M  V30 9716 H 910.702 2.35879 3.07311 0
M  V30 9717 H 911.116 4.53031 2.64316 0
M  V30 9718 H 912.59 3.67142 4.12202 0
M  V30 9719 H 913.067 1.98768 3.91648 0
M  V30 9720 H 913.673 3.21656 2.7824 0
M  V30 9721 N 911.988 -0.768124 1.37614 0
M  V30 9722 C 913.234 -1.52907 1.33219 0
M  V30 9723 C 913.567 -1.94026 -0.0821218 0
M  V30 9724 O 912.842 -1.64345 -1.04023 0
M  V30 9725 C 913.125 -2.79164 2.27463 0
M  V30 9726 C 912.978 -2.44276 3.7769 0
M  V30 9727 C 914.297 -3.81115 2.20089 0
M  V30 9728 H 911.416 -0.554712 0.485246 0
M  V30 9729 H 914.058 -0.880911 1.68345 0
M  V30 9730 H 912.208 -3.34472 1.97639 0
M  V30 9731 H 913.88 -1.94855 4.18126 0
M  V30 9732 H 912.123 -1.76925 3.96081 0
M  V30 9733 H 912.794 -3.34544 4.39072 0
M  V30 9734 H 915.27 -3.35311 2.46386 0
M  V30 9735 H 914.146 -4.67174 2.88166 0
M  V30 9736 H 914.407 -4.25644 1.19498 0
M  V30 9737 N 913.466 -1.22244 -0.994698 0
M  V30 9738 C 914.396 -1.01513 -2.10279 0
M  V30 9739 C 915.377 0.0633365 -1.69982 0
M  V30 9740 O 916.562 -0.0985268 -1.9395 0
M  V30 9741 C 913.692 -0.59016 -3.42249 0
M  V30 9742 C 912.646 -1.61436 -3.96387 0
M  V30 9743 C 911.972 -1.04528 -5.24383 0
M  V30 9744 C 913.272 -3.00388 -4.27276 0
M  V30 9745 H 914.966 -1.94194 -2.2788 0
M  V30 9746 H 912.512 -0.935094 -1.09508 0
M  V30 9747 H 914.465 -0.432254 -4.19177 0
M  V30 9748 H 913.189 0.372308 -3.24471 0
M  V30 9749 H 911.848 -1.76001 -3.21589 0
M  V30 9750 H 911.496 -0.0742225 -5.02945 0
M  V30 9751 H 911.196 -1.72949 -5.61571 0
M  V30 9752 H 912.72 -0.898922 -6.03947 0
M  V30 9753 H 914.134 -2.89207 -4.95007 0
M  V30 9754 H 912.531 -3.65916 -4.75631 0
M  V30 9755 H 913.601 -3.50456 -3.35125 0
M  V30 9756 N 914.944 1.19125 -1.03184 0
M  V30 9757 C 915.854 2.26112 -0.625329 0
M  V30 9758 C 916.87 1.7056 0.344298 0
M  V30 9759 O 918.046 2.0039 0.20144 0
M  V30 9760 C 915.111 3.46697 0.0145169 0
M  V30 9761 C 914.172 4.17419 -1.00299 0
M  V30 9762 C 913.405 5.32247 -0.393581 0
M  V30 9763 O 913.628 5.64724 0.802659 0
M  V30 9764 O 912.562 5.91428 -1.1179 0
M  V30 9765 H 916.388 2.63131 -1.51643 0
M  V30 9766 H 913.973 1.26036 -0.802197 0
M  V30 9767 H 915.855 4.19762 0.371139 0
M  V30 9768 H 914.53 3.11521 0.879581 0
M  V30 9769 H 913.437 3.4646 -1.41125 0
M  V30 9770 H 914.77 4.56573 -1.83852 0
M  V30 9771 N 916.422 0.810101 1.35185 0
M  V30 9772 C 917.352 0.237453 2.32289 0
M  V30 9773 C 918.333 -0.639032 1.5764 0
M  V30 9774 O 919.518 -0.568575 1.8569 0
M  V30 9775 C 916.648 -0.611964 3.41866 0
M  V30 9776 C 915.602 0.166318 4.27677 0
M  V30 9777 C 914.928 -0.805024 5.28605 0
M  V30 9778 C 916.228 1.36729 5.04086 0
M  V30 9779 H 917.922 1.04874 2.80432 0
M  V30 9780 H 915.468 0.505751 1.34826 0
M  V30 9781 H 917.421 -1.02267 4.08802 0
M  V30 9782 H 916.145 -1.45617 2.92341 0
M  V30 9783 H 914.804 0.558238 3.62325 0
M  V30 9784 H 914.452 -1.64483 4.75347 0
M  V30 9785 H 914.152 -0.288577 5.86891 0
M  V30 9786 H 915.676 -1.21386 5.98413 0
M  V30 9787 H 917.09 1.03128 5.63948 0
M  V30 9788 H 915.487 1.81848 5.71884 0
M  V30 9789 H 916.557 2.15214 4.34524 0
M  V30 9790 N 917.9 -1.47166 0.563914 0
M  V30 9791 C 918.81 -2.33885 -0.182977 0
M  V30 9792 C 919.826 -1.48605 -0.905132 0
M  V30 9793 O 921.002 -1.81518 -0.872527 0
M  V30 9794 C 918.067 -3.25433 -1.19558 0
M  V30 9795 C 917.128 -4.26607 -0.480129 0
M  V30 9796 C 916.361 -5.1378 -1.44449 0
M  V30 9797 O 916.584 -5.03531 -2.67979 0
M  V30 9798 O 915.518 -5.94109 -0.965321 0
M  V30 9799 H 919.344 -2.99065 0.528544 0
M  V30 9800 H 916.929 -1.45834 0.324468 0
M  V30 9801 H 918.811 -3.81964 -1.77993 0
M  V30 9802 H 917.486 -2.62873 -1.8889 0
M  V30 9803 H 916.393 -3.73817 0.145583 0
M  V30 9804 H 917.726 -4.919 0.171868 0
M  V30 9805 N 919.378 -0.300708 -1.54705 0
M  V30 9806 C 920.624 0.301982 -2.01146 0
M  V30 9807 C 920.979 1.51548 -1.18537 0
M  V30 9808 O 920.272 1.89914 -0.253656 0
M  V30 9809 C 920.466 0.710108 -3.50275 0
M  V30 9810 C 920.295 -0.462291 -4.47318 0
M  V30 9811 C 919.065 -0.954214 -4.96208 0
M  V30 9812 C 921.263 -1.30716 -4.97411 0
M  V30 9813 N 919.245 -2.09341 -5.77105 0
M  V30 9814 C 920.616 -2.29384 -5.76006 0
M  V30 9815 C 922.671 -1.33756 -4.79597 0
M  V30 9816 C 921.374 -3.30869 -6.38685 0
M  V30 9817 C 923.4 -2.34099 -5.43094 0
M  V30 9818 C 922.762 -3.31498 -6.21521 0
M  V30 9819 H 918.861 0.0749709 -0.778398 0
M  V30 9820 H 921.445 -0.430557 -1.8988 0
M  V30 9821 H 919.616 1.41182 -3.61832 0
M  V30 9822 H 921.348 1.29231 -3.83512 0
M  V30 9823 H 918.103 -0.529238 -4.70634 0
M  V30 9824 H 918.527 -2.66739 -6.22237 0
M  V30 9825 H 923.169 -0.598284 -4.18546 0
M  V30 9826 H 920.887 -4.05717 -6.9887 0
M  V30 9827 H 924.473 -2.37225 -5.31239 0
M  V30 9828 H 923.353 -4.07872 -6.69784 0
M  V30 9829 N 920.856 1.57574 -0.0284266 0
M  V30 9830 C 921.819 2.09096 0.938691 0
M  V30 9831 C 922.819 1.00588 1.25454 0
M  V30 9832 O 924.009 1.2675 1.19499 0
M  V30 9833 C 921.141 2.55624 2.25542 0
M  V30 9834 H 922.334 2.95829 0.49248 0
M  V30 9835 H 919.887 1.5475 0.219594 0
M  V30 9836 H 920.622 1.72218 2.74793 0
M  V30 9837 H 920.407 3.34896 2.03929 0
M  V30 9838 H 921.897 2.95712 2.94863 0
M  V30 9839 N 922.334 -0.244713 1.55689 0
M  V30 9840 C 923.745 -0.813603 1.6804 0
M  V30 9841 C 924.096 -1.85936 0.626281 0
M  V30 9842 O 923.221 -2.15206 -0.227038 0
M  V30 9843 C 923.816 -1.48252 3.04642 0
M  V30 9844 C 922.375 -1.99908 3.18926 0
M  V30 9845 C 921.522 -0.850958 2.6392 0
M  V30 9846 H 924.473 -0.0204805 1.58687 0
M  V30 9847 H 924.494 -2.35062 2.99209 0
M  V30 9848 H 924.006 -0.721164 3.81341 0
M  V30 9849 H 922.107 -2.78918 2.47054 0
M  V30 9850 H 922.22 -2.19497 4.25862 0
M  V30 9851 H 920.584 -1.25206 2.21801 0
M  V30 9852 H 921.367 -0.10265 3.43146 0
M  V30 9853 N 923.813 -1.49104 -0.510467 0
M  V30 9854 C 925.053 -1.59723 -1.27545 0
M  V30 9855 C 925.417 -0.273525 -1.90042 0
M  V30 9856 O 926.618 -0.254835 -2.67589 0
M  V30 9857 C 924.889 -2.71771 -2.3211 0
M  V30 9858 S 926.448 -3.02282 -3.18074 0
M  V30 9859 H 923.266 -0.563489 -0.433591 0
M  V30 9860 H 925.868 -1.86719 -0.579328 0
M  V30 9861 H 924.572 -3.66483 -1.84711 0
M  V30 9862 H 924.103 -2.46739 -3.06404 0
M  V30 9863 H 926.118 -2.43076 -4.32583 0
M  V30 9864 N 925.291 0.760815 -1.38019 0
M  V30 9865 C 926.516 1.55513 -1.37224 0
M  V30 9866 C 926.941 1.88062 0.037611 0
M  V30 9867 O 926.299 1.50042 1.0177 0
M  V30 9868 C 926.347 2.83539 -2.22796 0
M  V30 9869 O 925.451 3.78384 -1.64009 0
M  V30 9870 H 924.792 0.470642 -0.468393 0
M  V30 9871 H 927.322 0.940792 -1.81687 0
M  V30 9872 H 927.332 3.32535 -2.36399 0
M  V30 9873 H 926.007 2.59178 -3.25269 0
M  V30 9874 H 924.584 3.37063 -1.59508 0
M  V30 9875 N 926.769 1.22769 0.988202 0
M  V30 9876 C 927.994 1.08239 1.76915 0
M  V30 9877 C 928.419 -0.362519 1.84574 0
M  V30 9878 O 927.777 -1.26202 1.30165 0
M  V30 9879 C 927.825 1.70363 3.17819 0
M  V30 9880 O 926.929 0.960484 4.01059 0
M  V30 9881 H 926.27 0.379872 0.544604 0
M  V30 9882 H 928.8 1.62663 1.24104 0
M  V30 9883 H 928.81 1.7528 3.6843 0
M  V30 9884 H 927.485 2.75505 3.1156 0
M  V30 9885 H 926.062 0.987667 3.59582 0
M  V30 9886 N 928.247 -1.18576 1.03814 0
M  V30 9887 C 929.524 -1.8433 0.654358 0
M  V30 9888 C 929.904 -1.92504 -0.866338 0
M  V30 9889 O 929.252 -1.44904 -1.76678 0
M  V30 9890 C 929.462 -3.22778 1.32723 0
M  V30 9891 C 930.81 -3.98841 1.45641 0
M  V30 9892 O 931.834 -3.32209 1.28514 0
M  V30 9893 O 930.693 -5.18219 1.73526 0
M  V30 9894 H 927.787 -0.794766 0.228638 0
M  V30 9895 H 930.333 -1.25989 1.13687 0
M  V30 9896 H 929.105 -3.11717 2.36534 0
M  V30 9897 H 928.728 -3.88772 0.833176 0
M  V30 9898 N 929.725 -0.817259 -1.34754 0
M  V30 9899 C 931.002 -0.325468 -1.92873 0
M  V30 9900 C 931.382 1.18643 -1.74606 0
M  V30 9901 O 930.73 1.9909 -1.1214 0
M  V30 9902 C 930.94 -0.74858 -3.40877 0
M  V30 9903 C 932.288 -0.744165 -4.18028 0
M  V30 9904 O 933.312 -0.690799 -3.49437 0
M  V30 9905 O 932.171 -0.812207 -5.40431 0
M  V30 9906 H 929.265 -0.0876397 -0.822343 0
M  V30 9907 H 931.811 -0.901671 -1.43764 0
M  V30 9908 H 930.583 -1.79017 -3.47949 0
M  V30 9909 H 930.206 -0.147764 -3.97325 0
M  V30 9910 N 931.203 1.46865 -0.571711 0
M  V30 9911 C 932.614 1.86158 -0.142181 0
M  V30 9912 C 932.965 1.47663 1.2919 0
M  V30 9913 O 932.09 0.886393 1.97413 0
M  V30 9914 C 932.685 3.37867 -0.251256 0
M  V30 9915 C 931.244 3.76198 0.123329 0
M  V30 9916 C 930.391 2.70902 -0.592232 0
M  V30 9917 H 933.342 1.38176 -0.780587 0
M  V30 9918 H 933.363 3.76842 0.526331 0
M  V30 9919 H 932.875 3.65853 -1.2951 0
M  V30 9920 H 930.976 3.53829 1.16773 0
M  V30 9921 H 931.089 4.78471 -0.24533 0
M  V30 9922 H 929.453 2.54678 -0.0336927 0
M  V30 9923 H 930.236 3.01729 -1.63751 0
M  V30 9924 N 932.681 0.308908 1.54543 0
M  V30 9925 C 933.591 -0.572939 2.27496 0
M  V30 9926 C 934.607 -1.14171 1.31305 0
M  V30 9927 O 935.783 -1.16481 1.64299 0
M  V30 9928 C 932.848 -1.72483 3.0075 0
M  V30 9929 C 931.909 -1.18934 4.12496 0
M  V30 9930 C 931.142 -2.28634 4.82247 0
M  V30 9931 O 931.365 -3.48691 4.5141 0
M  V30 9932 O 930.299 -1.94879 5.69478 0
M  V30 9933 H 934.125 0.0190877 3.03694 0
M  V30 9934 H 931.71 0.0750943 1.49211 0
M  V30 9935 H 933.592 -2.39578 3.46671 0
M  V30 9936 H 932.267 -2.30332 2.2744 0
M  V30 9937 H 931.174 -0.483904 3.70957 0
M  V30 9938 H 932.507 -0.656185 4.87806 0
M  V30 9939 N 934.159 -1.57557 0.0367827 0
M  V30 9940 C 935.089 -2.13712 -0.940719 0
M  V30 9941 C 936.07 -1.05515 -1.33419 0
M  V30 9942 O 937.255 -1.33385 -1.41146 0
M  V30 9943 C 934.385 -2.67043 -2.22048 0
M  V30 9944 C 933.339 -3.80096 -1.96752 0
M  V30 9945 C 932.665 -4.19886 -3.31059 0
M  V30 9946 C 933.965 -5.05848 -1.30058 0
M  V30 9947 H 935.659 -2.9564 -0.473033 0
M  V30 9948 H 933.205 -1.42214 -0.226089 0
M  V30 9949 H 935.158 -3.04964 -2.90818 0
M  V30 9950 H 933.882 -1.82287 -2.70996 0
M  V30 9951 H 932.541 -3.42625 -1.30398 0
M  V30 9952 H 932.189 -3.32101 -3.77781 0
M  V30 9953 H 931.889 -4.96073 -3.14937 0
M  V30 9954 H 933.413 -4.60395 -4.01084 0
M  V30 9955 H 934.827 -5.41306 -1.8884 0
M  V30 9956 H 933.224 -5.87084 -1.24309 0
M  V30 9957 H 934.294 -4.84122 -0.274591 0
M  V30 9958 N 935.637 0.236453 -1.55816 0
M  V30 9959 C 936.877 0.970249 -1.79904 0
M  V30 9960 C 937.241 1.8212 -0.607965 0
M  V30 9961 O 938.442 2.58759 -0.727833 0
M  V30 9962 C 936.713 1.79938 -3.088 0
M  V30 9963 S 938.272 2.59084 -3.54148 0
M  V30 9964 H 935.09 0.32618 -0.631765 0
M  V30 9965 H 937.692 0.237147 -1.94056 0
M  V30 9966 H 936.396 1.16412 -3.93544 0
M  V30 9967 H 935.927 2.57504 -2.97414 0
M  V30 9968 H 937.942 3.82315 -3.16306 0
M  V30 9969 N 937.115 1.49373 0.502552 0
M  V30 9970 C 938.078 1.65413 1.58654 0
M  V30 9971 C 939.078 0.526003 1.51953 0
M  V30 9972 O 940.268 0.792421 1.55133 0
M  V30 9973 C 937.4 1.65005 2.98306 0
M  V30 9974 H 938.593 2.62095 1.45762 0
M  V30 9975 H 936.146 1.38381 0.726672 0
M  V30 9976 H 936.881 0.699014 3.16677 0
M  V30 9977 H 936.666 2.46931 3.04578 0
M  V30 9978 H 938.156 1.79477 3.77065 0
M  V30 9979 N 938.594 -0.753485 1.38421 0
M  V30 9980 C 939.84 -1.51485 1.34834 0
M  V30 9981 C 940.173 -1.94102 -0.0615381 0
M  V30 9982 O 939.448 -1.65439 -1.02274 0
M  V30 9983 C 939.731 -2.76736 2.30411 0
M  V30 9984 C 939.584 -2.40256 3.80259 0
M  V30 9985 C 940.903 -3.7876 2.24119 0
M  V30 9986 H 938.022 -0.549534 0.491102 0
M  V30 9987 H 940.664 -0.863006 1.6927 0
M  V30 9988 H 938.814 -3.32357 2.01175 0
M  V30 9989 H 940.486 -1.90409 4.20169 0
M  V30 9990 H 938.729 -1.72714 3.97935 0
M  V30 9991 H 939.4 -3.29869 4.42595 0
M  V30 9992 H 941.876 -3.32679 2.49928 0
M  V30 9993 H 940.752 -4.64092 2.93104 0
M  V30 9994 H 941.013 -4.24352 1.24006 0
M  V30 9995 N 940.072 -1.23292 -0.981677 0
M  V30 9996 C 941.3 -1.09088 -1.75805 0
M  V30 9997 C 941.715 0.357746 -1.8538 0
M  V30 9998 O 941.072 1.24751 -1.33205 0
M  V30 9999 C 941.123 -1.70885 -3.1856 0
M  V30 10000 O 940.844 -3.10082 -3.09484 0
M  V30 10001 C 942.345 -1.62106 -4.12597 0
M  V30 10002 H 939.565 -0.38184 -0.55176 0
M  V30 10003 H 942.109 -1.63116 -1.23342 0
M  V30 10004 H 940.264 -1.20893 -3.68054 0
M  V30 10005 H 940.678 -3.40039 -3.99342 0
M  V30 10006 H 942.152 -2.10049 -5.10474 0
M  V30 10007 H 942.629 -0.579642 -4.35358 0
M  V30 10008 H 943.235 -2.11457 -3.69007 0
M  V30 10009 N 941.55 1.18024 -1.04442 0
M  V30 10010 C 942.797 1.88098 -0.750022 0
M  V30 10011 C 943.125 1.80583 0.722489 0
M  V30 10012 O 942.38 1.20329 1.54335 0
M  V30 10013 C 942.679 3.37834 -1.16631 0
M  V30 10014 C 942.345 3.65553 -2.63974 0
M  V30 10015 C 941.007 3.72827 -3.04226 0
M  V30 10016 C 943.359 3.77634 -3.59224 0
M  V30 10017 C 940.687 3.89666 -4.38608 0
M  V30 10018 C 943.039 3.9599 -4.9333 0
M  V30 10019 C 941.703 4.01501 -5.33248 0
M  V30 10020 H 940.973 0.6883 -0.274452 0
M  V30 10021 H 943.62 1.39671 -1.31012 0
M  V30 10022 H 941.925 3.88266 -0.525071 0
M  V30 10023 H 943.622 3.90402 -0.915827 0
M  V30 10024 H 940.212 3.6051 -2.31798 0
M  V30 10025 H 944.396 3.71342 -3.2927 0
M  V30 10026 H 939.652 3.92178 -4.69048 0
M  V30 10027 H 943.826 4.0428 -5.67037 0
M  V30 10028 H 941.453 4.14301 -6.37384 0
M  V30 10029 N 943.028 0.824394 1.34319 0
M  V30 10030 C 944.274 0.413779 1.98534 0
M  V30 10031 C 944.607 -1.02089 1.65201 0
M  V30 10032 O 943.882 -1.71129 0.924402 0
M  V30 10033 C 944.165 0.61801 3.54757 0
M  V30 10034 C 944.018 2.0989 3.97827 0
M  V30 10035 C 945.337 0.0549041 4.40066 0
M  V30 10036 H 942.456 0.151815 0.721194 0
M  V30 10037 H 945.098 1.03723 1.5919 0
M  V30 10038 H 943.248 0.0873107 3.88402 0
M  V30 10039 H 944.92 2.69335 3.74508 0
M  V30 10040 H 943.163 2.58881 3.48085 0
M  V30 10041 H 943.834 2.1926 5.06586 0
M  V30 10042 H 946.31 0.508348 4.12983 0
M  V30 10043 H 945.186 0.227595 5.48428 0
M  V30 10044 H 945.447 -1.04025 4.29687 0
M  V30 10045 N 944.506 -1.46559 0.579492 0
M  V30 10046 C 945.783 -1.956 -0.00287136 0
M  V30 10047 C 946.163 -1.52215 -1.46266 0
M  V30 10048 O 945.511 -0.771335 -2.15088 0
M  V30 10049 C 945.721 -3.48606 0.165824 0
M  V30 10050 C 947.069 -4.24588 0.0319807 0
M  V30 10051 O 948.093 -3.56075 0.094496 0
M  V30 10052 O 946.952 -5.46396 -0.106386 0
M  V30 10053 H 944.046 -0.825387 -0.0516274 0
M  V30 10054 H 946.592 -1.56858 0.647584 0
M  V30 10055 H 945.364 -3.7306 1.18076 0
M  V30 10056 H 944.987 -3.94169 -0.521212 0
M  V30 10057 N 945.984 -0.3171 -1.54377 0
M  V30 10058 C 947.4 0.035766 -1.5956 0
M  V30 10059 C 947.6 1.51038 -1.33378 0
M  V30 10060 O 946.656 2.26546 -1.11505 0
M  V30 10061 C 947.969 -0.376652 -2.98332 0
M  V30 10062 C 949.517 -0.326765 -3.1129 0
M  V30 10063 C 949.992 -0.714247 -4.52396 0
M  V30 10064 N 951.483 -0.667402 -4.58367 0
M  V30 10065 C 952.218 -0.939494 -5.65651 0
M  V30 10066 N 951.714 -1.27839 -6.80903 0
M  V30 10067 N 953.507 -0.865484 -5.55397 0
M  V30 10068 H 945.658 -1.27794 -1.69654 0
M  V30 10069 H 947.921 -0.5192 -0.79318 0
M  V30 10070 H 947.627 -1.40381 -3.22469 0
M  V30 10071 H 947.501 0.261611 -3.76292 0
M  V30 10072 H 949.888 0.69117 -2.86892 0
M  V30 10073 H 949.969 -0.999873 -2.35449 0
M  V30 10074 H 949.613 -1.73007 -4.77526 0
M  V30 10075 H 949.543 -0.0188962 -5.26597 0
M  V30 10076 H 952.034 -0.417062 -3.75592 0
M  V30 10077 H 952.347 -1.47155 -7.5866 0
M  V30 10078 H 950.692 -1.31658 -6.82416 0
M  V30 10079 H 953.883 -0.600265 -4.64235 0
M  V30 10080 H 954.056 -1.0809 -6.38921 0
M  V30 10081 N 947.462 1.57535 -0.0451378 0
M  V30 10082 C 948.873 1.80116 0.491426 0
M  V30 10083 C 949.224 0.956846 1.71286 0
M  V30 10084 O 948.349 0.17173 2.15718 0
M  V30 10085 C 948.944 3.26674 0.898315 0
M  V30 10086 C 947.503 3.50194 1.37989 0
M  V30 10087 C 946.65 2.75054 0.352202 0
M  V30 10088 H 949.601 1.56368 -0.271065 0
M  V30 10089 H 949.622 3.37263 1.76164 0
M  V30 10090 H 949.134 3.88099 0.009141 0
M  V30 10091 H 947.235 2.94041 2.28846 0
M  V30 10092 H 947.348 4.58909 1.37622 0
M  V30 10093 H 945.712 2.4101 0.823784 0
M  V30 10094 H 946.495 3.39203 -0.528782 0
M  V30 10095 N 948.94 -0.228186 1.55939 0
M  V30 10096 C 950.186 -0.954964 1.78909 0
M  V30 10097 C 950.519 -1.8425 0.613648 0
M  V30 10098 O 949.794 -1.90604 -0.38737 0
M  V30 10099 C 950.077 -1.79957 3.1191 0
M  V30 10100 C 949.93 -0.938968 4.3989 0
M  V30 10101 C 951.249 -2.77859 3.41295 0
M  V30 10102 H 948.368 -0.345745 0.650868 0
M  V30 10103 H 951.01 -0.224244 1.88672 0
M  V30 10104 H 949.16 -2.42256 3.03717 0
M  V30 10105 H 950.832 -0.333225 4.60095 0
M  V30 10106 H 949.075 -0.244096 4.33113 0
M  V30 10107 H 949.746 -1.56416 5.29375 0
M  V30 10108 H 952.222 -2.25695 3.49572 0
M  V30 10109 H 951.098 -3.34062 4.35538 0
M  V30 10110 H 951.359 -3.55266 2.63132 0
M  V30 10111 N 950.418 -1.49637 -0.494624 0
M  V30 10112 C 951.667 -1.58691 -1.24499 0
M  V30 10113 C 951.98 -0.281763 -1.9356 0
M  V30 10114 O 953.186 -0.250925 -2.70338 0
M  V30 10115 C 951.642 -2.8002 -2.26091 0
M  V30 10116 C 951.25 -4.17318 -1.6294 0
M  V30 10117 C 952.994 -2.98407 -3.01916 0
M  V30 10118 C 950.901 -5.29862 -2.62679 0
M  V30 10119 H 949.831 -0.590888 -0.468367 0
M  V30 10120 H 952.482 -1.76034 -0.518112 0
M  V30 10121 H 950.864 -2.56185 -3.01969 0
M  V30 10122 H 952.038 -4.51315 -0.930108 0
M  V30 10123 H 950.353 -4.04342 -0.994819 0
M  V30 10124 H 952.95 -3.79658 -3.76516 0
M  V30 10125 H 953.293 -2.09214 -3.5991 0
M  V30 10126 H 953.826 -3.22312 -2.33152 0
M  V30 10127 H 950.565 -6.21134 -2.09458 0
M  V30 10128 H 950.085 -5.00311 -3.3083 0
M  V30 10129 H 951.764 -5.59461 -3.2498 0
M  V30 10130 N 951.896 0.746133 -1.38819 0
M  V30 10131 C 953.144 1.50247 -1.35167 0
M  V30 10132 C 953.465 1.94921 0.0553531 0
M  V30 10133 O 952.735 1.68187 1.00449 0
M  V30 10134 H 951.315 0.557337 -0.497377 0
M  V30 10135 H 953.977 0.886472 -1.73573 0
M  V30 10136 H 953.073 2.38986 -2.00728 0
M  V30 10137 N 953.375 1.23811 0.975125 0
M  V30 10138 C 954.6 1.10109 1.75757 0
M  V30 10139 C 955.025 -0.342922 1.84948 0
M  V30 10140 O 954.383 -1.24814 1.31496 0
M  V30 10141 C 954.431 1.73724 3.15994 0
M  V30 10142 O 953.535 1.00297 4.00018 0
M  V30 10143 H 952.876 0.385627 0.540544 0
M  V30 10144 H 955.406 1.63971 1.22372 0
M  V30 10145 H 955.416 1.79178 3.6655 0
M  V30 10146 H 954.091 2.78794 3.0862 0
M  V30 10147 H 952.668 1.02575 3.58515 0
M  V30 10148 N 954.853 -1.17469 1.05066 0
M  V30 10149 C 956.078 -1.92162 0.780298 0
M  V30 10150 C 956.503 -1.76222 -0.657832 0
M  V30 10151 O 955.861 -1.0791 -1.45688 0
M  V30 10152 C 955.909 -3.41292 1.16414 0
M  V30 10153 O 955.013 -4.1134 0.295531 0
M  V30 10154 H 954.354 -0.599127 0.286257 0
M  V30 10155 H 956.884 -1.48903 1.40318 0
M  V30 10156 H 956.894 -3.92029 1.13036 0
M  V30 10157 H 955.569 -3.52214 2.21175 0
M  V30 10158 H 954.146 -3.70857 0.389797 0
M  V30 10159 N 956.331 -0.831506 -1.3388 0
M  V30 10160 C 957.577 -0.424302 -1.98312 0
M  V30 10161 C 957.91 1.01211 -1.65741 0
M  V30 10162 O 957.185 1.70636 -0.933464 0
M  V30 10163 C 957.468 -0.636815 -3.54424 0
M  V30 10164 C 957.321 -2.11997 -3.96708 0
M  V30 10165 C 958.64 -0.0782411 -4.4003 0
M  V30 10166 H 955.759 -0.155637 -0.720379 0
M  V30 10167 H 958.401 -1.04566 -1.58638 0
M  V30 10168 H 956.551 -0.107907 -3.8835 0
M  V30 10169 H 958.223 -2.71317 -3.73075 0
M  V30 10170 H 956.466 -2.60723 -3.46707 0
M  V30 10171 H 957.137 -2.21944 -5.05416 0
M  V30 10172 H 959.613 -0.530243 -4.12708 0
M  V30 10173 H 958.489 -0.256676 -5.483 0
M  V30 10174 H 958.75 1.01745 -4.30233 0
M  V30 10175 N 957.809 1.4625 -0.587256 0
M  V30 10176 C 959.037 2.06744 -0.08033 0
M  V30 10177 C 959.452 1.43527 1.2266 0
M  V30 10178 O 958.809 0.542168 1.74261 0
M  V30 10179 C 958.86 3.61394 0.0873469 0
M  V30 10180 O 958.581 4.22247 -1.16785 0
M  V30 10181 C 960.082 4.38828 0.628095 0
M  V30 10182 H 957.302 0.668354 -0.0595301 0
M  V30 10183 H 959.846 1.87808 -0.809217 0
M  V30 10184 H 958.001 3.79742 0.766473 0
M  V30 10185 H 958.415 5.15176 -0.984565 0
M  V30 10186 H 959.889 5.47613 0.694583 0
M  V30 10187 H 960.366 4.07188 1.64606 0
M  V30 10188 H 960.972 4.25297 -0.0163115 0
M  V30 10189 N 959.287 0.325282 1.54207 0
M  V30 10190 C 960.517 -0.278285 2.04717 0
M  V30 10191 C 960.925 -1.46198 1.20095 0
M  V30 10192 O 960.268 -1.82319 0.224813 0
M  V30 10193 C 960.33 -0.774387 3.51061 0
M  V30 10194 C 959.994 0.287225 4.56096 0
M  V30 10195 C 960.991 1.12388 5.07607 0
M  V30 10196 C 958.676 0.435908 5.00405 0
M  V30 10197 C 960.67 2.09492 6.0199 0
M  V30 10198 C 958.357 1.41037 5.94602 0
M  V30 10199 C 959.355 2.23834 6.45281 0
M  V30 10200 O 959.043 3.19625 7.37628 0
M  V30 10201 H 958.775 -0.0608309 0.673257 0
M  V30 10202 H 961.329 0.470049 1.99949 0
M  V30 10203 H 959.559 -1.57366 3.53232 0
M  V30 10204 H 961.248 -1.29649 3.84637 0
M  V30 10205 H 962.014 1.02 4.74153 0
M  V30 10206 H 957.893 -0.198668 4.60572 0
M  V30 10207 H 961.437 2.74157 6.4147 0
M  V30 10208 H 957.334 1.51487 6.27473 0
M  V30 10209 H 958.102 3.14884 7.55507 0
M  V30 10210 N 960.765 -1.57509 0.0534917 0
M  V30 10211 C 962.042 -1.84137 -0.659767 0
M  V30 10212 C 962.422 -0.942362 -1.88899 0
M  V30 10213 O 961.77 -0.00398566 -2.285 0
M  V30 10214 C 961.98 -3.33919 -1.01486 0
M  V30 10215 C 963.328 -4.00989 -1.39616 0
M  V30 10216 O 964.352 -3.38557 -1.10713 0
M  V30 10217 O 963.211 -5.11071 -1.93567 0
M  V30 10218 H 960.305 -0.760081 -0.325893 0
M  V30 10219 H 962.851 -1.69497 0.0830315 0
M  V30 10220 H 961.623 -3.91046 -0.141041 0
M  V30 10221 H 961.246 -3.53755 -1.81503 0
M  V30 10222 N 962.243 0.219913 -1.56058 0
M  V30 10223 C 963.193 1.27606 -1.88946 0
M  V30 10224 C 964.177 1.42209 -0.752691 0
M  V30 10225 O 965.369 1.44996 -1.01514 0
M  V30 10226 C 962.498 2.62614 -2.21108 0
M  V30 10227 C 961.584 2.51906 -3.4118 0
M  V30 10228 N 961.975 2.10851 -4.59756 0
M  V30 10229 C 960.273 2.82861 -3.44827 0
M  V30 10230 C 960.974 2.11434 -5.41914 0
M  V30 10231 N 959.95 2.51985 -4.81669 0
M  V30 10232 H 963.752 0.94957 -2.78137 0
M  V30 10233 H 961.266 0.428468 -1.56646 0
M  V30 10234 H 963.263 3.38869 -2.42844 0
M  V30 10235 H 961.923 2.96108 -1.3323 0
M  V30 10236 H 962.934 1.81956 -4.84884 0
M  V30 10237 H 959.611 3.20716 -2.67297 0
M  V30 10238 H 961.001 1.81803 -6.46836 0
M  V30 10239 N 963.721 1.49897 0.486681 0
M  V30 10240 C 965.132 1.53142 1.06792 0
M  V30 10241 C 965.483 0.325856 1.93475 0
M  V30 10242 O 964.608 -0.562893 2.08951 0
M  V30 10243 C 965.203 2.77514 1.94348 0
M  V30 10244 C 963.762 2.83491 2.47609 0
M  V30 10245 C 962.909 2.47239 1.2557 0
M  V30 10246 H 965.86 1.56387 0.269962 0
M  V30 10247 H 965.881 2.58487 2.79221 0
M  V30 10248 H 965.393 3.65239 1.31232 0
M  V30 10249 H 963.494 2.0008 3.14323 0
M  V30 10250 H 963.607 3.86011 2.83782 0
M  V30 10251 H 961.971 1.99332 1.58552 0
M  V30 10252 H 962.754 3.37255 0.641404 0
M  V30 10253 N 965.199 -0.738761 1.39212 0
M  V30 10254 C 966.424 -1.5331 1.39681 0
M  V30 10255 C 966.849 -1.88098 -0.00768715 0
M  V30 10256 O 966.207 -1.51642 -0.993699 0
M  V30 10257 C 966.255 -2.79958 2.27279 0
M  V30 10258 O 965.359 -3.75727 1.70008 0
M  V30 10259 H 964.7 -0.463131 0.475821 0
M  V30 10260 H 967.23 -0.911768 1.83161 0
M  V30 10261 H 967.24 -3.28732 2.41659 0
M  V30 10262 H 965.915 -2.5397 3.29351 0
M  V30 10263 H 964.492 -3.34483 1.64851 0
M  V30 10264 N 966.677 -1.24326 -0.968545 0
M  V30 10265 C 967.624 -1.0349 -2.06297 0
M  V30 10266 C 968.594 0.0515333 -1.6602 0
M  V30 10267 O 969.779 -0.102924 -1.90522 0
M  V30 10268 C 966.919 -0.64487 -3.39021 0
M  V30 10269 C 966.032 -1.80469 -3.92498 0
M  V30 10270 C 965.167 -1.36032 -5.13487 0
M  V30 10271 C 964.206 -2.49014 -5.59159 0
M  V30 10272 N 963.343 -2.05451 -6.71367 0
M  V30 10273 H 968.183 -1.97161 -2.23454 0
M  V30 10274 H 965.72 -0.982028 -1.0952 0
M  V30 10275 H 967.678 -0.399771 -4.1528 0
M  V30 10276 H 966.308 0.254845 -3.21792 0
M  V30 10277 H 965.36 -2.16348 -3.12886 0
M  V30 10278 H 966.672 -2.65365 -4.22354 0
M  V30 10279 H 965.826 -1.07405 -5.97117 0
M  V30 10280 H 964.565 -0.481887 -4.85313 0
M  V30 10281 H 963.57 -2.78402 -4.74102 0
M  V30 10282 H 964.795 -3.37413 -5.89346 0
M  V30 10283 H 962.741 -1.20004 -6.4493 0
M  V30 10284 H 962.658 -2.83901 -7.00668 0
M  V30 10285 H 963.926 -1.79962 -7.58442 0
M  V30 10286 N 968.156 1.1691 -1.05688 0
M  V30 10287 C 969.567 1.68915 -0.795273 0
M  V30 10288 C 969.918 1.83968 0.681925 0
M  V30 10289 O 969.043 1.53083 1.52953 0
M  V30 10290 C 969.638 3.06814 -1.43703 0
M  V30 10291 C 968.197 3.55965 -1.22335 0
M  V30 10292 C 967.344 2.32099 -1.51741 0
M  V30 10293 H 970.295 1.01357 -1.22116 0
M  V30 10294 H 970.316 3.70907 -0.849016 0
M  V30 10295 H 969.828 2.95826 -2.51214 0
M  V30 10296 H 967.929 3.72222 -0.16771 0
M  V30 10297 H 968.042 4.38427 -1.9318 0
M  V30 10298 H 966.406 2.36811 -0.937696 0
M  V30 10299 H 967.189 2.23715 -2.60397 0
M  V30 10300 N 969.634 0.838594 1.33437 0
M  V30 10301 C 970.88 0.434813 1.98084 0
M  V30 10302 C 971.213 -1.00331 1.66275 0
M  V30 10303 O 970.488 -1.70139 0.942501 0
M  V30 10304 C 970.771 0.655602 3.54082 0
M  V30 10305 C 970.624 2.14097 3.95578 0
M  V30 10306 C 971.943 0.101576 4.39983 0
M  V30 10307 H 969.062 0.159456 0.719544 0
M  V30 10308 H 971.704 1.05406 1.58081 0
M  V30 10309 H 969.854 0.128501 3.88287 0
M  V30 10310 H 971.526 2.73292 3.71631 0
M  V30 10311 H 969.769 2.62558 3.4532 0
M  V30 10312 H 970.44 2.24621 5.04231 0
M  V30 10313 H 972.916 0.552122 4.12421 0
M  V30 10314 H 971.792 0.28575 5.48156 0
M  V30 10315 H 972.053 -0.994616 4.30767 0
M  V30 10316 N 971.112 -1.45937 0.595003 0
M  V30 10317 C 972.022 -2.34221 -0.133325 0
M  V30 10318 C 973.038 -1.50491 -0.873407 0
M  V30 10319 O 974.214 -1.83328 -0.833828 0
M  V30 10320 C 971.279 -3.27896 -1.12628 0
M  V30 10321 C 970.34 -4.27529 -0.389532 0
M  V30 10322 C 969.573 -5.16729 -1.33519 0
M  V30 10323 O 969.796 -5.09102 -2.57238 0
M  V30 10324 O 968.73 -5.96023 -0.839084 0
M  V30 10325 H 972.556 -2.97877 0.591861 0
M  V30 10326 H 970.141 -1.45113 0.355329 0
M  V30 10327 H 972.023 -3.85654 -1.69851 0
M  V30 10328 H 970.698 -2.6682 -1.83272 0
M  V30 10329 H 969.605 -3.73424 0.224843 0
M  V30 10330 H 970.938 -4.91425 0.276169 0
M  V30 10331 N 972.59 -0.333456 -1.54032 0
M  V30 10332 C 973.537 0.527981 -2.2468 0
M  V30 10333 C 974.507 1.10371 -1.24127 0
M  V30 10334 O 975.692 1.14221 -1.52834 0
M  V30 10335 C 972.832 1.67808 -3.01553 0
M  V30 10336 C 971.945 1.13064 -4.16942 0
M  V30 10337 C 971.08 2.24722 -4.81325 0
M  V30 10338 C 970.119 1.67277 -5.88799 0
M  V30 10339 N 969.256 2.72638 -6.47003 0
M  V30 10340 H 974.096 -0.0810308 -2.9789 0
M  V30 10341 H 971.633 -0.051761 -1.47009 0
M  V30 10342 H 973.591 2.35502 -3.44376 0
M  V30 10343 H 972.221 2.25823 -2.30659 0
M  V30 10344 H 971.273 0.344948 -3.78833 0
M  V30 10345 H 972.585 0.670373 -4.94275 0
M  V30 10346 H 971.739 3.00301 -5.27166 0
M  V30 10347 H 970.478 2.74089 -4.03394 0
M  V30 10348 H 969.483 0.902002 -5.4235 0
M  V30 10349 H 970.708 1.18775 -6.68632 0
M  V30 10350 H 968.654 3.21277 -5.71941 0
M  V30 10351 H 968.571 2.31204 -7.19778 0
M  V30 10352 H 969.839 3.48015 -6.97499 0
M  V30 10353 N 974.068 1.57479 -0.061844 0
M  V30 10354 C 975.484 1.56855 0.294753 0
M  V30 10355 C 975.684 1.07042 1.70717 0
M  V30 10356 O 974.74 0.731817 2.41662 0
M  V30 10357 C 976.053 3.00486 0.113484 0
M  V30 10358 C 977.601 3.1246 0.183778 0
M  V30 10359 C 978.076 4.5799 0.0309092 0
M  V30 10360 N 979.567 4.63119 0.0868393 0
M  V30 10361 C 980.302 5.734 -0.00717446 0
M  V30 10362 N 979.798 6.92628 -0.154144 0
M  V30 10363 N 981.591 5.62078 0.0491763 0
M  V30 10364 H 973.742 1.88176 -0.985058 0
M  V30 10365 H 976.005 0.867051 -0.383309 0
M  V30 10366 H 975.711 3.41004 -0.86075 0
M  V30 10367 H 975.585 3.67029 0.870023 0
M  V30 10368 H 977.972 2.71834 1.14849 0
M  V30 10369 H 978.053 2.48574 -0.603697 0
M  V30 10370 H 977.697 4.99303 -0.930526 0
M  V30 10371 H 977.627 5.19895 0.837664 0
M  V30 10372 H 980.118 3.77374 0.199245 0
M  V30 10373 H 980.431 7.72492 -0.218296 0
M  V30 10374 H 978.776 6.94742 -0.189372 0
M  V30 10375 H 981.967 4.67817 0.162626 0
M  V30 10376 H 982.14 6.47994 -0.0275478 0
M  V30 10377 N 975.546 -0.211634 1.56173 0
M  V30 10378 C 976.476 -1.26533 1.96244 0
M  V30 10379 C 977.457 -1.48362 0.832028 0
M  V30 10380 O 978.642 -1.60378 1.0951 0
M  V30 10381 C 975.772 -2.61307 2.2877 0
M  V30 10382 C 974.726 -2.54119 3.44395 0
M  V30 10383 C 974.052 -3.93014 3.62552 0
M  V30 10384 C 975.352 -2.08046 4.79076 0
M  V30 10385 H 977.046 -0.932407 2.84511 0
M  V30 10386 H 974.592 -0.447084 1.36884 0
M  V30 10387 H 976.545 -3.35188 2.55396 0
M  V30 10388 H 975.269 -2.96307 1.37367 0
M  V30 10389 H 973.928 -1.82694 3.17834 0
M  V30 10390 H 973.576 -4.25338 2.68508 0
M  V30 10391 H 973.276 -3.89083 4.40327 0
M  V30 10392 H 974.8 -4.68542 3.91537 0
M  V30 10393 H 976.214 -2.71676 5.04842 0
M  V30 10394 H 974.611 -2.15154 5.60204 0
M  V30 10395 H 975.681 -1.03306 4.73768 0
M  V30 10396 N 977.024 -1.50153 -0.478725 0
M  V30 10397 C 977.957 -1.63089 -1.59616 0
M  V30 10398 C 978.935 -0.479211 -1.55378 0
M  V30 10399 O 980.119 -0.697715 -1.75112 0
M  V30 10400 C 977.246 -1.60643 -2.9818 0
M  V30 10401 C 976.292 -2.81279 -3.206 0
M  V30 10402 S 977.125 -4.42681 -3.0132 0
M  V30 10403 C 978.281 -4.42915 -4.42241 0
M  V30 10404 H 978.514 -2.57612 -1.48402 0
M  V30 10405 H 976.047 -1.39321 -0.665513 0
M  V30 10406 H 978.005 -1.59917 -3.7807 0
M  V30 10407 H 976.666 -0.673684 -3.0679 0
M  V30 10408 H 975.859 -2.7585 -4.21809 0
M  V30 10409 H 975.461 -2.79533 -2.4847 0
M  V30 10410 H 977.753 -4.16007 -5.34737 0
M  V30 10411 H 978.696 -5.44477 -4.52715 0
M  V30 10412 H 979.104 -3.72715 -4.23962 0
M  V30 10413 N 978.502 0.731368 -1.39602 0
M  V30 10414 C 979.913 1.30981 -1.33045 0
M  V30 10415 C 980.264 1.962 0.00349918 0
M  V30 10416 O 979.389 1.96539 0.905615 0
M  V30 10417 C 979.984 2.3817 -2.40958 0
M  V30 10418 C 978.543 2.91678 -2.3791 0
M  V30 10419 C 977.69 1.65286 -2.22656 0
M  V30 10420 H 980.641 0.528615 -1.49637 0
M  V30 10421 H 980.662 3.18645 -2.07955 0
M  V30 10422 H 980.174 1.90673 -3.38032 0
M  V30 10423 H 978.275 3.43446 -1.44485 0
M  V30 10424 H 978.388 3.44545 -3.32904 0
M  V30 10425 H 976.752 1.89759 -1.69893 0
M  V30 10426 H 977.535 1.19836 -3.21705 0
M  V30 10427 N 979.98 1.24838 0.961938 0
M  V30 10428 C 981.391 1.08369 1.5203 0
M  V30 10429 C 981.742 -0.343005 1.93178 0
M  V30 10430 O 980.867 -1.2321 1.779 0
M  V30 10431 C 981.462 1.96102 2.76278 0
M  V30 10432 C 980.021 1.8384 3.28451 0
M  V30 10433 C 979.168 1.9069 2.01327 0
M  V30 10434 H 982.119 1.38231 0.779613 0
M  V30 10435 H 982.14 1.4967 3.49827 0
M  V30 10436 H 981.652 2.99931 2.46298 0
M  V30 10437 H 979.753 0.828653 3.63269 0
M  V30 10438 H 979.866 2.68251 3.96961 0
M  V30 10439 H 978.23 1.34488 2.16299 0
M  V30 10440 H 979.013 2.96111 1.73705 0
M  V30 10441 N 981.458 -1.16348 1.06306 0
M  V30 10442 C 982.869 -1.68491 0.80422 0
M  V30 10443 C 983.22 -1.84327 -0.672159 0
M  V30 10444 O 982.345 -1.53892 -1.52139 0
M  V30 10445 C 982.94 -3.06048 1.45328 0
M  V30 10446 C 981.499 -3.55311 1.24221 0
M  V30 10447 C 980.646 -2.31291 1.5297 0
M  V30 10448 H 983.597 -1.00708 1.22652 0
M  V30 10449 H 983.618 -3.70451 0.868674 0
M  V30 10450 H 983.13 -2.9449 2.52779 0
M  V30 10451 H 981.231 -3.72128 0.187447 0
M  V30 10452 H 981.344 -4.37397 1.95502 0
M  V30 10453 H 979.708 -2.3631 0.950241 0
M  V30 10454 H 980.491 -2.22331 2.6158 0
M  V30 10455 N 982.937 -0.845659 -1.3299 0
M  V30 10456 C 984.348 -0.50048 -1.79867 0
M  V30 10457 C 984.699 0.981027 -1.69913 0
M  V30 10458 O 983.824 1.76477 -1.25239 0
M  V30 10459 C 984.419 -0.901679 -3.26581 0
M  V30 10460 C 982.978 -0.608536 -3.71448 0
M  V30 10461 C 982.125 -1.10632 -2.54275 0
M  V30 10462 H 985.076 -1.03372 -1.20416 0
M  V30 10463 H 985.097 -0.214433 -3.79895 0
M  V30 10464 H 984.609 -1.97998 -3.33794 0
M  V30 10465 H 982.71 0.459416 -3.69757 0
M  V30 10466 H 982.823 -1.16853 -4.64631 0
M  V30 10467 H 981.187 -0.526925 -2.4919 0
M  V30 10468 H 981.97 -2.19154 -2.64247 0
M  V30 10469 N 984.415 1.45619 -0.602734 0
M  V30 10470 C 985.347 2.28662 0.157012 0
M  V30 10471 C 986.36 1.39672 0.836396 0
M  V30 10472 O 987.549 1.64091 0.702599 0
M  V30 10473 C 984.649 3.1528 1.24306 0
M  V30 10474 C 983.822 4.32517 0.651731 0
M  V30 10475 C 982.881 5.00381 1.62804 0
M  V30 10476 O 981.907 5.57333 1.15624 0
M  V30 10477 N 983.109 4.99221 2.96241 0
M  V30 10478 H 985.874 2.94506 -0.555535 0
M  V30 10479 H 983.435 1.55753 -0.441881 0
M  V30 10480 H 985.427 3.57544 1.8959 0
M  V30 10481 H 983.997 2.51376 1.85819 0
M  V30 10482 H 983.217 3.93793 -0.17907 0
M  V30 10483 H 984.505 5.08249 0.236802 0
M  V30 10484 H 983.903 4.54232 3.37179 0
M  V30 10485 H 982.46 5.45364 3.56961 0
M  V30 10486 N 985.893 0.34162 1.53853 0
M  V30 10487 C 986.84 -0.516058 2.24957 0
M  V30 10488 C 987.81 -1.09711 1.2471 0
M  V30 10489 O 988.995 -1.13409 1.53438 0
M  V30 10490 C 986.135 -1.66207 3.02439 0
M  V30 10491 C 985.248 -1.10851 4.17536 0
M  V30 10492 C 984.383 -2.22167 4.82509 0
M  V30 10493 C 983.422 -1.64152 5.89678 0
M  V30 10494 N 982.559 -2.69203 6.4844 0
M  V30 10495 H 987.399 0.0968275 2.97843 0
M  V30 10496 H 984.936 0.0595565 1.46979 0
M  V30 10497 H 986.894 -2.33672 3.4562 0
M  V30 10498 H 985.524 -2.24597 2.31853 0
M  V30 10499 H 984.576 -0.324853 3.7901 0
M  V30 10500 H 985.888 -0.644151 4.94623 0
M  V30 10501 H 985.042 -2.97501 5.28751 0
M  V30 10502 H 983.781 -2.71946 4.04842 0
M  V30 10503 H 982.786 -0.873228 5.42821 0
M  V30 10504 H 984.011 -1.15228 6.69253 0
M  V30 10505 H 981.957 -3.1824 5.73637 0
M  V30 10506 H 981.874 -2.27383 7.20994 0
M  V30 10507 H 983.142 -3.44312 6.99335 0
M  V30 10508 N 987.371 -1.57444 0.0701946 0
M  V30 10509 C 988.319 -2.13834 -0.915302 0
M  V30 10510 C 989.313 -1.07483 -1.30934 0
M  V30 10511 O 990.519 -1.25865 -1.28678 0
M  V30 10512 H 986.894 -0.683716 -0.313108 0
M  V30 10513 H 988.865 -2.95503 -0.414758 0
M  V30 10514 C 987.614 -2.71355 -2.17398 0
M  V30 10515 H 986.937 -3.52861 -1.87961 0
M  V30 10516 H 988.377 -3.1441 -2.84469 0
M  V30 10517 C 986.836 -1.66038 -2.93143 0
M  V30 10518 O 987.366 -1.08443 -3.86786 0
M  V30 10519 N 985.572 -1.3711 -2.56221 0
M  V30 10520 H 985.119 -1.84135 -1.80145 0
M  V30 10521 H 985.077 -0.66877 -3.07205 0
M  V30 10522 N 988.849 0.203349 -1.56283 0
M  V30 10523 C 989.796 1.25205 -1.93888 0
M  V30 10524 C 990.766 1.45654 -0.798376 0
M  V30 10525 O 991.951 1.58924 -1.05583 0
M  V30 10526 C 989.091 2.59355 -2.27659 0
M  V30 10527 C 988.204 2.46553 -3.54733 0
M  V30 10528 C 987.339 3.73351 -3.77865 0
M  V30 10529 C 986.378 3.55347 -4.98392 0
M  V30 10530 N 985.515 4.74137 -5.17821 0
M  V30 10531 H 990.355 0.924356 -2.83301 0
M  V30 10532 H 987.892 0.445082 -1.40205 0
M  V30 10533 H 989.85 3.375 -2.45254 0
M  V30 10534 H 988.48 2.90184 -1.41396 0
M  V30 10535 H 987.532 1.59749 -3.45231 0
M  V30 10536 H 988.844 2.2918 -4.43033 0
M  V30 10537 H 987.998 4.59937 -3.95655 0
M  V30 10538 H 986.737 3.9367 -2.8788 0
M  V30 10539 H 985.742 2.67146 -4.80534 0
M  V30 10540 H 986.967 3.36482 -5.89879 0
M  V30 10541 H 984.913 4.94735 -4.30782 0
M  V30 10542 H 984.83 4.59558 -6.00285 0
M  V30 10543 H 986.098 5.62098 -5.40061 0
M  V30 10544 N 990.327 1.50405 0.470755 0
M  V30 10545 C 991.604 1.51929 1.23195 0
M  V30 10546 C 991.984 0.264159 2.09441 0
M  V30 10547 O 991.332 -0.752395 2.15757 0
M  V30 10548 C 991.542 2.81521 2.06269 0
M  V30 10549 C 992.89 3.32195 2.64446 0
M  V30 10550 O 993.914 2.82845 2.16511 0
M  V30 10551 O 992.773 4.18221 3.51786 0
M  V30 10552 H 989.867 0.609411 0.559059 0
M  V30 10553 H 992.413 1.62695 0.482549 0
M  V30 10554 H 991.185 3.64346 1.42715 0
M  V30 10555 H 990.808 2.7376 2.88342 0
M  V30 10556 N 991.805 -0.723954 1.39988 0
M  V30 10557 C 993.03 -1.5182 1.41299 0
M  V30 10558 C 993.455 -1.88096 0.0122636 0
M  V30 10559 O 992.813 -1.52687 -0.977559 0
M  V30 10560 C 992.861 -2.77532 2.30235 0
M  V30 10561 O 991.965 -3.73903 1.73984 0
M  V30 10562 H 991.306 -0.458058 0.480707 0
M  V30 10563 H 993.836 -0.892291 1.84118 0
M  V30 10564 H 993.846 -3.2615 2.45132 0
M  V30 10565 H 992.521 -2.50462 3.32026 0
M  V30 10566 H 991.098 -3.32715 1.68389 0
M  V30 10567 N 993.283 -1.25346 -0.955304 0
M  V30 10568 C 994.529 -1.11226 -1.70295 0
M  V30 10569 C 994.884 0.343362 -1.89311 0
M  V30 10570 O 994.177 1.24953 -1.45249 0
M  V30 10571 C 994.371 -1.7993 -3.08804 0
M  V30 10572 C 994.2 -3.32023 -3.033 0
M  V30 10573 C 992.97 -4.01274 -3.07094 0
M  V30 10574 C 995.168 -4.28431 -2.84519 0
M  V30 10575 N 993.15 -5.40149 -2.91741 0
M  V30 10576 C 994.521 -5.54386 -2.7759 0
M  V30 10577 C 996.576 -4.18854 -2.69194 0
M  V30 10578 C 995.279 -6.71859 -2.56902 0
M  V30 10579 C 997.305 -5.36018 -2.49876 0
M  V30 10580 C 996.667 -6.60913 -2.43667 0
M  V30 10581 H 992.766 -0.461707 -0.631151 0
M  V30 10582 H 995.35 -1.58437 -1.13162 0
M  V30 10583 H 993.521 -1.35214 -3.64104 0
M  V30 10584 H 995.253 -1.58557 -3.72346 0
M  V30 10585 H 992.008 -3.52529 -3.1626 0
M  V30 10586 H 992.432 -6.13029 -2.8727 0
M  V30 10587 H 997.074 -3.23043 -2.7277 0
M  V30 10588 H 994.792 -7.67781 -2.52068 0
M  V30 10589 H 998.378 -5.30468 -2.38944 0
M  V30 10590 H 997.258 -7.50045 -2.28914 0
M  V30 10591 N 994.761 1.15782 -1.06922 0
M  V30 10592 C 995.691 2.22538 -0.707045 0
M  V30 10593 C 996.672 1.67371 0.303471 0
M  V30 10594 O 997.857 1.9339 0.177189 0
M  V30 10595 C 994.987 3.47158 -0.0994269 0
M  V30 10596 C 993.941 4.15257 -1.03661 0
M  V30 10597 C 993.267 5.33902 -0.291974 0
M  V30 10598 C 994.567 4.65516 -2.36837 0
M  V30 10599 H 996.261 2.53089 -1.59958 0
M  V30 10600 H 993.807 1.21649 -0.770552 0
M  V30 10601 H 995.76 4.21073 0.165852 0
M  V30 10602 H 994.484 3.15926 0.828155 0
M  V30 10603 H 993.143 3.43276 -1.28674 0
M  V30 10604 H 992.791 4.98926 0.638928 0
M  V30 10605 H 992.491 5.80407 -0.916613 0
M  V30 10606 H 994.015 6.1059 -0.0343915 0
M  V30 10607 H 995.429 5.30981 -2.16175 0
M  V30 10608 H 993.826 5.22666 -2.94856 0
M  V30 10609 H 994.896 3.81387 -2.99453 0
M  V30 10610 N 996.239 0.8527 1.3254 0
M  V30 10611 C 997.516 0.376491 1.91942 0
M  V30 10612 C 997.896 -1.13972 1.7769 0
M  V30 10613 O 997.244 -1.96047 1.17379 0
M  V30 10614 C 997.454 0.838694 3.38773 0
M  V30 10615 C 998.802 0.854736 4.15908 0
M  V30 10616 O 999.826 0.783203 3.47483 0
M  V30 10617 O 998.685 0.955207 5.38087 0
M  V30 10618 H 995.779 0.109412 0.81973 0
M  V30 10619 H 998.325 0.93947 1.41322 0
M  V30 10620 H 997.097 1.88179 3.43081 0
M  V30 10621 H 996.72 0.253055 3.96794 0
M  V30 10622 N 997.718 -1.45297 0.610449 0
M  V30 10623 C 998.668 -2.27639 -0.128194 0
M  V30 10624 C 999.652 -1.37485 -0.835861 0
M  V30 10625 O 1000.84 -1.61454 -0.725378 0
M  V30 10626 C 997.973 -3.24413 -1.123 0
M  V30 10627 C 997.059 -4.22055 -0.416029 0
M  V30 10628 N 997.45 -5.02867 0.543921 0
M  V30 10629 C 995.748 -4.41041 -0.663208 0
M  V30 10630 C 996.449 -5.73728 0.959731 0
M  V30 10631 N 995.425 -5.42756 0.302873 0
M  V30 10632 H 999.227 -2.8752 0.609056 0
M  V30 10633 H 996.741 -1.56484 0.434338 0
M  V30 10634 H 998.738 -3.82139 -1.6666 0
M  V30 10635 H 997.398 -2.66092 -1.86078 0
M  V30 10636 H 998.409 -5.09649 0.920799 0
M  V30 10637 H 995.086 -3.93842 -1.38544 0
M  V30 10638 H 996.476 -6.48666 1.75163 0
M  V30 10639 N 999.196 -0.349774 -1.5367 0
M  V30 10640 C 1000.44 0.245189 -2.01312 0
M  V30 10641 C 1000.77 1.49702 -1.23705 0
M  V30 10642 O 1000.05 1.91742 -0.326371 0
M  V30 10643 C 1000.33 0.553071 -3.55827 0
M  V30 10644 C 1000.19 -0.71129 -4.4414 0
M  V30 10645 C 1001.5 1.36015 -4.18555 0
M  V30 10646 H 998.624 0.0876415 -0.73177 0
M  V30 10647 H 1001.27 -0.471543 -1.84056 0
M  V30 10648 H 999.416 1.16367 -3.70663 0
M  V30 10649 H 1001.09 -1.34913 -4.41131 0
M  V30 10650 H 999.331 -1.33491 -4.1275 0
M  V30 10651 H 1000 -0.45104 -5.50154 0
M  V30 10652 H 1002.48 0.843778 -4.07455 0
M  V30 10653 H 1001.35 1.54432 -5.26728 0
M  V30 10654 H 1001.61 2.36408 -3.73582 0
M  V30 10655 O 1000.71 1.60018 -0.21832 0
M  V30 10656 H 1001.4 1.90272 0.36278 0
M  V30 END ATOM
M  V30 BEGIN BOND
M  V30 END BOND
M  V30 END CTAB
M  END
$$$$
