drugbank_target|P16304 Adenylate kinase (DB01717)
 OpenBabel12092119503D

  0  0  0     0  0            999 V3000
M  V30 BEGIN CTAB
M  V30 COUNTS 3372 3397 0 0 0
M  V30 BEGIN ATOM
M  V30 1 H -0.908 1.98254 -0.117106 0
M  V30 2 N 0 1.576 0 0
M  V30 3 C 0.933 2.03868 1.02534 0
M  V30 4 C 1.911 0.928543 1.3348 0
M  V30 5 O 3.095 1.19667 1.45644 0
M  V30 6 C 0.222 2.43627 2.35294 0
M  V30 7 C -0.732 3.65373 2.2001 0
M  V30 8 S 0.101 5.13292 1.52614 0
M  V30 9 C 1.257 5.56322 2.86805 0
M  V30 10 H 1.49 2.90518 0.631377 0
M  V30 11 H -0.977 1.52953 0.210867 0
M  V30 12 H 0.981 2.67203 3.11629 0
M  V30 13 H -0.358 1.57376 2.7183 0
M  V30 14 H -1.165 3.90944 3.18086 0
M  V30 15 H -1.563 3.418 1.51819 0
M  V30 16 H 0.729 5.58782 3.83104 0
M  V30 17 H 1.672 6.56266 2.65933 0
M  V30 18 H 2.08 4.83886 2.90714 0
M  V30 19 N 1.4781 -0.272755 1.55222 0
M  V30 20 C 2.4261 -1.35705 1.88909 0
M  V30 21 C 3.4201 -1.5112 0.765456 0
M  V30 22 O 4.6261 -1.52901 0.949802 0
M  V30 23 H 1.0011 -0.453868 0.59959 0
M  V30 24 H 2.9721 -1.04544 2.79487 0
M  V30 25 C 1.7211 -2.71049 2.17779 0
M  V30 26 H 1.0441 -2.59979 3.03728 0
M  V30 27 H 2.4841 -3.45858 2.45272 0
M  V30 28 C 0.9431 -3.22165 0.985473 0
M  V30 29 O 1.4731 -4.01096 0.220233 0
M  V30 30 N -0.3209 -2.7985 0.783108 0
M  V30 31 H -0.7739 -2.15775 1.40708 0
M  V30 32 H -0.8159 -3.14397 -0.0130392 0
M  V30 33 N 2.9562 -1.48159 -0.537278 0
M  V30 34 C 3.8862 -1.65029 -1.6519 0
M  V30 35 C 4.8672 -0.499281 -1.62607 0
M  V30 36 O 6.0522 -0.730972 -1.79918 0
M  V30 37 C 3.1822 -1.68303 -3.03795 0
M  V30 38 C 2.1362 -2.8283 -3.21234 0
M  V30 39 C 1.4622 -2.71189 -4.60826 0
M  V30 40 C 2.7622 -4.24211 -3.04701 0
M  V30 41 H 4.4562 -2.58341 -1.51328 0
M  V30 42 H 2.0022 -1.24325 -0.726585 0
M  V30 43 H 3.9552 -1.78693 -3.81637 0
M  V30 44 H 2.6792 -0.715635 -3.18663 0
M  V30 45 H 1.3382 -2.71983 -2.45807 0
M  V30 46 H 0.9862 -1.72435 -4.7252 0
M  V30 47 H 0.6862 -3.48035 -4.7344 0
M  V30 48 H 2.2102 -2.83537 -5.40777 0
M  V30 49 H 3.6242 -4.3593 -3.72341 0
M  V30 50 H 2.0212 -5.01998 -3.28813 0
M  V30 51 H 3.0912 -4.41184 -2.01209 0
M  V30 52 N 4.4343 0.785586 -1.36625 0
M  V30 53 C 5.6803 1.54591 -1.31261 0
M  V30 54 C 6.0133 1.93906 0.106823 0
M  V30 55 O 5.2883 1.63007 1.06108 0
M  V30 56 C 5.5713 2.82038 -2.23889 0
M  V30 57 C 5.4243 2.49066 -3.74548 0
M  V30 58 C 6.7433 3.83887 -2.15217 0
M  V30 59 H 3.8623 0.560846 -0.478143 0
M  V30 60 H 6.5043 0.902278 -1.67209 0
M  V30 61 H 4.6543 3.36961 -1.93363 0
M  V30 62 H 6.3263 2.00164 -4.15611 0
M  V30 63 H 4.5693 1.81954 -3.93796 0
M  V30 64 H 5.2403 3.40109 -4.34776 0
M  V30 65 H 7.7163 3.38421 -2.42096 0
M  V30 66 H 6.5923 4.70806 -2.82193 0
M  V30 67 H 6.8533 4.27131 -1.14068 0
M  V30 68 N 5.9124 1.20967 1.01018 0
M  V30 69 C 6.8424 0.988272 2.11555 0
M  V30 70 C 7.8234 -0.0849778 1.69888 0
M  V30 71 O 9.0084 0.0738202 1.9406 0
M  V30 72 C 6.1384 0.546528 3.42973 0
M  V30 73 C 5.0924 1.56375 3.9841 0
M  V30 74 C 4.4184 0.97842 5.25672 0
M  V30 75 C 5.7184 2.94922 4.31066 0
M  V30 76 H 7.4124 1.91276 2.30334 0
M  V30 77 H 4.9584 0.921073 1.1069 0
M  V30 78 H 6.9114 0.378839 4.19694 0
M  V30 79 H 5.6354 -0.413598 3.23971 0
M  V30 80 H 4.2944 1.71891 3.23804 0
M  V30 81 H 3.9424 0.0101688 5.02999 0
M  V30 82 H 3.6424 1.65784 5.63728 0
M  V30 83 H 5.1664 0.821939 6.05043 0
M  V30 84 H 6.5804 2.8288 4.9865 0
M  V30 85 H 4.9774 3.5983 4.80253 0
M  V30 86 H 6.0474 3.4616 3.39561 0
M  V30 87 N 7.3905 -1.2043 1.01659 0
M  V30 88 C 8.3235 -2.21924 0.531521 0
M  V30 89 C 9.3015 -1.57054 -0.421032 0
M  V30 90 O 10.4855 -1.85389 -0.341035 0
M  V30 91 C 7.6125 -3.37942 -0.226496 0
M  V30 92 C 6.6585 -4.21115 0.67561 0
M  V30 93 S 7.4915 -4.90674 2.14475 0
M  V30 94 C 8.6475 -6.10113 1.3969 0
M  V30 95 H 8.8805 -2.62725 1.3915 0
M  V30 96 H 6.4135 -1.30481 0.825479 0
M  V30 97 H 8.3715 -4.05196 -0.657738 0
M  V30 98 H 7.0325 -2.956 -1.06205 0
M  V30 99 H 6.2255 -5.03918 0.091108 0
M  V30 100 H 5.8275 -3.59115 1.04463 0
M  V30 101 H 8.1195 -6.7411 0.676897 0
M  V30 102 H 9.0625 -6.73022 2.20107 0
M  V30 103 H 9.4705 -5.57283 0.899786 0
M  V30 104 N 8.8686 -0.792821 -1.36206 0
M  V30 105 C 10.1166 -0.366062 -1.98757 0
M  V30 106 C 10.4376 1.0668 -1.63231 0
M  V30 107 O 9.7076 1.73587 -0.907978 0
M  V30 108 H 8.2876 -0.132364 -0.735179 0
M  V30 109 H 10.9496 -1.01562 -1.66347 0
M  V30 110 H 10.0456 -0.460638 -3.08682 0
M  V30 111 N 10.3467 1.47872 -0.545128 0
M  V30 112 C 11.2767 2.32661 0.197793 0
M  V30 113 C 12.2577 1.43041 0.920504 0
M  V30 114 O 13.4427 1.71912 0.90333 0
M  V30 115 C 10.5727 3.24569 1.23582 0
M  V30 116 C 9.5267 4.23333 0.630323 0
M  V30 117 C 8.8527 5.0448 1.77211 0
M  V30 118 C 10.1527 5.20704 -0.407974 0
M  V30 119 H 11.8467 2.95024 -0.510045 0
M  V30 120 H 9.3927 1.4187 -0.246731 0
M  V30 121 H 11.3457 3.8272 1.76362 0
M  V30 122 H 10.0697 2.60236 1.97344 0
M  V30 123 H 8.7287 3.6639 0.123922 0
M  V30 124 H 8.3767 4.36561 2.49847 0
M  V30 125 H 8.0767 5.71339 1.37281 0
M  V30 126 H 9.6007 5.65487 2.3034 0
M  V30 127 H 11.0147 5.7329 0.033305 0
M  V30 128 H 9.4117 5.95699 -0.725486 0
M  V30 129 H 10.4817 4.66917 -1.30828 0
M  V30 130 N 11.8248 0.280983 1.55075 0
M  V30 131 C 13.2358 -0.215629 1.85451 0
M  V30 132 C 13.5868 -1.54991 1.203 0
M  V30 133 O 12.7118 -2.10699 0.493435 0
M  V30 134 C 13.3068 -0.398026 3.36454 0
M  V30 135 C 11.8658 -0.838866 3.66933 0
M  V30 136 C 11.0128 0.064458 2.77225 0
M  V30 137 H 13.9638 0.502601 1.50531 0
M  V30 138 H 13.9848 -1.23569 3.59876 0
M  V30 139 H 13.4968 0.573241 3.83843 0
M  V30 140 H 11.5978 -1.8214 3.25048 0
M  V30 141 H 11.7108 -0.672123 4.74362 0
M  V30 142 H 10.0748 -0.452863 2.50642 0
M  V30 143 H 10.8578 1.03172 3.2743 0
M  V30 144 N 13.3029 -1.57598 0.00835791 0
M  V30 145 C 14.5509 -1.90551 -0.6734 0
M  V30 146 C 14.8719 -0.883301 -1.73847 0
M  V30 147 O 14.1419 0.0781442 -1.95744 0
M  V30 148 H 12.7219 -0.703312 -0.251717 0
M  V30 149 H 15.3839 -1.94833 0.0512592 0
M  V30 150 H 14.4799 -2.9056 -1.13935 0
M  V30 151 N 14.781 0.264519 -1.55364 0
M  V30 152 C 15.744 1.31046 -1.88042 0
M  V30 153 C 16.744 1.41943 -0.755569 0
M  V30 154 O 17.934 1.40947 -1.02369 0
M  V30 155 C 15.066 2.69067 -2.09323 0
M  V30 156 H 16.259 1.03297 -2.81549 0
M  V30 157 H 13.812 0.502989 -1.47986 0
M  V30 158 H 14.547 3.01982 -1.18226 0
M  V30 159 H 14.332 2.62542 -2.91229 0
M  V30 160 H 15.822 3.44623 -2.35848 0
M  V30 161 N 16.2591 1.48442 0.529413 0
M  V30 162 C 17.5071 1.56179 1.28267 0
M  V30 163 C 17.8281 0.237721 1.93546 0
M  V30 164 O 17.0981 -0.740779 1.81354 0
M  V30 165 H 15.6781 0.575367 0.476405 0
M  V30 166 H 18.3401 1.84909 0.61602 0
M  V30 167 H 17.4361 2.34312 2.06165 0
M  V30 168 N 17.7372 -0.778329 1.37039 0
M  V30 169 C 18.6842 -1.89139 1.32269 0
M  V30 170 C 19.6542 -1.65017 0.189387 0
M  V30 171 O 20.8392 -1.87024 0.377693 0
M  V30 172 C 17.9792 -3.26112 1.12894 0
M  V30 173 C 17.0922 -3.62233 2.35396 0
M  V30 174 C 16.2272 -4.8838 2.08946 0
M  V30 175 C 15.2662 -5.17212 3.2735 0
M  V30 176 N 14.4032 -6.34546 3.00492 0
M  V30 177 H 19.2432 -1.92552 2.27437 0
M  V30 178 H 16.7802 -0.941473 1.13025 0
M  V30 179 H 18.7382 -4.05116 0.996835 0
M  V30 180 H 17.3682 -3.22091 0.213758 0
M  V30 181 H 16.4202 -2.78265 2.5937 0
M  V30 182 H 17.7322 -3.79481 3.23721 0
M  V30 183 H 16.8862 -5.75274 1.92729 0
M  V30 184 H 15.6252 -4.73222 1.17949 0
M  V30 185 H 14.6302 -4.28796 3.44113 0
M  V30 186 H 15.8552 -5.34283 4.19188 0
M  V30 187 H 13.8012 -6.20759 2.12118 0
M  V30 188 H 13.7182 -6.52179 3.82358 0
M  V30 189 H 14.9862 -7.24394 2.87879 0
M  V30 190 N 19.2153 -1.21501 -1.00376 0
M  V30 191 C 20.4633 -1.03095 -1.73827 0
M  V30 192 C 20.7843 0.436341 -1.90055 0
M  V30 193 O 20.0543 1.31466 -1.45236 0
M  V30 194 H 18.6343 -0.378487 -0.644016 0
M  V30 195 H 21.2963 -1.52831 -1.20949 0
M  V30 196 H 20.3923 -1.49991 -2.73695 0
M  V30 197 N 20.6934 1.19889 -1.02296 0
M  V30 198 C 21.9214 1.9339 -0.735399 0
M  V30 199 C 22.3364 1.75148 0.704887 0
M  V30 200 O 21.6934 1.06954 1.47875 0
M  V30 201 C 21.7444 3.45313 -1.06962 0
M  V30 202 O 21.4654 3.62964 -2.45334 0
M  V30 203 C 22.9664 4.35948 -0.804021 0
M  V30 204 H 20.1864 0.61448 -0.269546 0
M  V30 205 H 22.7304 1.522 -1.36585 0
M  V30 206 H 20.8854 3.84359 -0.484455 0
M  V30 207 H 21.2994 4.56886 -2.57595 0
M  V30 208 H 22.7734 5.41174 -1.0879 0
M  V30 209 H 23.2504 4.3842 0.261691 0
M  V30 210 H 23.8564 4.02574 -1.37164 0
M  V30 211 N 22.1715 0.800033 1.35784 0
M  V30 212 C 23.1035 0.163596 2.28615 0
M  V30 213 C 24.1165 -0.633317 1.49976 0
M  V30 214 O 25.3055 -0.466754 1.72289 0
M  V30 215 C 22.4055 -0.790958 3.29541 0
M  V30 216 C 21.5785 -0.0418255 4.3738 0
M  V30 217 C 20.6375 -0.91389 5.18203 0
M  V30 218 O 19.6635 -0.367234 5.68014 0
M  V30 219 N 20.8655 -2.23682 5.35674 0
M  V30 220 H 23.6305 0.96105 2.83873 0
M  V30 221 H 21.1915 0.654894 1.48063 0
M  V30 222 H 23.1835 -1.37844 3.80501 0
M  V30 223 H 21.7535 -1.48925 2.74846 0
M  V30 224 H 20.9735 0.726813 3.87442 0
M  V30 225 H 22.2615 0.474719 5.06581 0
M  V30 226 H 21.6595 -2.70497 4.96838 0
M  V30 227 H 20.2165 -2.77369 5.89839 0
M  V30 228 N 23.6496 -1.47581 0.552962 0
M  V30 229 C 24.8976 -2.02082 0.0272703 0
M  V30 230 C 25.2186 -1.4301 -1.32563 0
M  V30 231 O 24.4886 -0.603745 -1.86365 0
M  V30 232 H 23.0686 -0.746966 0.00709182 0
M  V30 233 H 25.7306 -1.81033 0.722008 0
M  V30 234 H 24.8266 -3.12034 -0.0639951 0
M  V30 235 N 25.1277 -0.289203 -1.54924 0
M  V30 236 C 26.0377 0.601863 -2.26748 0
M  V30 237 C 27.0537 1.15834 -1.2984 0
M  V30 238 O 28.2297 1.18564 -1.62802 0
M  V30 239 C 25.2947 1.76299 -2.98529 0
M  V30 240 C 24.3557 1.24178 -4.10948 0
M  V30 241 C 23.5887 2.34757 -4.79296 0
M  V30 242 O 23.8117 3.54411 -4.46933 0
M  V30 243 O 22.7457 2.02115 -5.66951 0
M  V30 244 H 26.5717 0.0195879 -3.03694 0
M  V30 245 H 24.1567 -0.0560868 -1.49295 0
M  V30 246 H 26.0387 2.43973 -3.43592 0
M  V30 247 H 24.7137 2.33209 -2.24488 0
M  V30 248 H 23.6207 0.531104 -3.70311 0
M  V30 249 H 24.9537 0.718252 -4.86931 0
M  V30 250 N 26.6058 1.57591 -0.0167156 0
M  V30 251 C 28.0218 1.55946 0.339557 0
M  V30 252 C 28.2218 1.02109 1.73713 0
M  V30 253 O 27.2778 0.662303 2.43659 0
M  V30 254 C 28.5908 3.00037 0.199499 0
M  V30 255 C 30.1388 3.11805 0.273193 0
M  V30 256 C 30.6138 4.57713 0.162068 0
M  V30 257 N 32.1048 4.6268 0.219444 0
M  V30 258 C 32.8398 5.73185 0.157054 0
M  V30 259 N 32.3358 6.92786 0.0442936 0
M  V30 260 N 34.1288 5.61707 0.21014 0
M  V30 261 H 26.2798 1.90921 -0.930758 0
M  V30 262 H 28.5428 0.877674 -0.358319 0
M  V30 263 H 28.2488 3.4333 -0.76273 0
M  V30 264 H 28.1228 3.64387 0.974786 0
M  V30 265 H 30.5098 2.68433 1.22587 0
M  V30 266 H 30.5908 2.50201 -0.532256 0
M  V30 267 H 30.2348 5.01763 -0.78714 0
M  V30 268 H 30.1648 5.17283 0.986222 0
M  V30 269 H 32.6558 3.76649 0.307246 0
M  V30 270 H 32.9688 7.728 0.00304069 0
M  V30 271 H 31.3138 6.94999 0.00968457 0
M  V30 272 H 34.5048 4.6716 0.296546 0
M  V30 273 H 34.6778 6.47807 0.158054 0
M  V30 274 N 28.0839 -0.256276 1.55502 0
M  V30 275 C 29.3329 -0.983486 1.76098 0
M  V30 276 C 29.6459 -1.86837 0.578896 0
M  V30 277 O 30.8519 -2.63163 0.667648 0
M  V30 278 C 29.3079 -1.79868 3.1173 0
M  V30 279 C 28.9159 -0.961648 4.37557 0
M  V30 280 C 30.6599 -2.51919 3.41668 0
M  V30 281 C 28.5669 -1.77219 5.64223 0
M  V30 282 H 27.4969 -0.370936 0.656447 0
M  V30 283 H 30.1479 -0.238492 1.81944 0
M  V30 284 H 28.5299 -2.58527 2.99966 0
M  V30 285 H 29.7039 -0.218048 4.60284 0
M  V30 286 H 28.0189 -0.354913 4.14885 0
M  V30 287 H 30.6159 -3.12998 4.33516 0
M  V30 288 H 30.9589 -3.23059 2.62562 0
M  V30 289 H 31.4919 -1.80278 3.54605 0
M  V30 290 H 28.2309 -1.10471 6.46124 0
M  V30 291 H 27.7509 -2.49132 5.45613 0
M  V30 292 H 29.4299 -2.34169 6.03137 0
M  V30 293 N 29.562 -1.4872 -0.521534 0
M  V30 294 C 30.808 -1.574 -1.27879 0
M  V30 295 C 31.141 -0.250817 -1.92573 0
M  V30 296 O 30.416 0.743934 -1.79711 0
M  V30 297 C 30.699 -2.71843 -2.36164 0
M  V30 298 C 30.552 -4.13893 -1.76105 0
M  V30 299 C 31.871 -2.82008 -3.37875 0
M  V30 300 H 28.99 -0.572941 -0.463581 0
M  V30 301 H 31.632 -1.80927 -0.580119 0
M  V30 302 H 29.782 -2.51914 -2.95756 0
M  V30 303 H 31.454 -4.45284 -1.20499 0
M  V30 304 H 29.697 -4.20498 -1.06601 0
M  V30 305 H 30.368 -4.89804 -2.5455 0
M  V30 306 H 32.844 -3.00086 -2.88249 0
M  V30 307 H 31.72 -3.63796 -4.11028 0
M  V30 308 H 31.981 -1.90511 -3.98946 0
M  V30 309 N 31.0401 0.771051 -1.3745 0
M  V30 310 C 31.9501 1.91538 -1.35464 0
M  V30 311 C 32.9661 1.72134 -0.254123 0
M  V30 312 O 34.1421 1.95358 -0.489626 0
M  V30 313 C 31.2071 3.26671 -1.16134 0
M  V30 314 C 30.2681 3.58723 -2.35831 0
M  V30 315 C 29.5011 4.87409 -2.17413 0
M  V30 316 O 29.7241 5.58506 -1.15876 0
M  V30 317 O 28.6581 5.18539 -3.05615 0
M  V30 318 H 32.4841 1.96165 -2.31847 0
M  V30 319 H 30.0691 0.9139 -1.18187 0
M  V30 320 H 31.9511 4.07499 -1.07345 0
M  V30 321 H 30.6261 3.22894 -0.228251 0
M  V30 322 H 29.5331 2.78127 -2.50192 0
M  V30 323 H 30.8661 3.67243 -3.27709 0
M  V30 324 N 32.5182 1.22032 0.997298 0
M  V30 325 C 33.7952 0.950823 1.70935 0
M  V30 326 C 34.1752 -0.535292 2.042 0
M  V30 327 O 33.5232 -1.50217 1.72183 0
M  V30 328 C 33.7332 1.84386 2.96315 0
M  V30 329 C 35.0812 2.09732 3.69185 0
M  V30 330 O 36.1052 1.81798 3.06314 0
M  V30 331 O 34.9642 2.57018 4.82291 0
M  V30 332 H 32.0582 0.357204 0.745878 0
M  V30 333 H 34.6042 1.32997 1.05404 0
M  V30 334 H 33.3762 2.84928 2.68201 0
M  V30 335 H 32.9992 1.46602 3.69586 0
M  V30 336 N 33.9963 -1.19345 1.0293 0
M  V30 337 C 35.2263 -1.92717 0.744563 0
M  V30 338 C 35.6343 -1.75751 -0.700579 0
M  V30 339 O 34.9773 -1.07703 -1.48815 0
M  V30 340 C 35.0393 -3.44828 1.01657 0
M  V30 341 C 34.7033 -3.85564 2.45335 0
M  V30 342 C 35.7003 -3.90286 3.43472 0
M  V30 343 C 33.3853 -4.1719 2.79746 0
M  V30 344 C 35.3793 -4.26065 4.74075 0
M  V30 345 C 33.0663 -4.52642 4.10559 0
M  V30 346 C 34.0643 -4.57054 5.07534 0
M  V30 347 O 33.7523 -4.91685 6.36004 0
M  V30 348 H 33.4843 -0.618977 0.271742 0
M  V30 349 H 36.0383 -1.52415 1.37691 0
M  V30 350 H 34.2683 -3.85314 0.327084 0
M  V30 351 H 35.9573 -3.99437 0.721427 0
M  V30 352 H 36.7233 -3.66002 3.18225 0
M  V30 353 H 32.6023 -4.1294 2.04943 0
M  V30 354 H 36.1463 -4.29423 5.49765 0
M  V30 355 H 32.0433 -4.76383 4.35579 0
M  V30 356 H 32.8113 -5.09631 6.40483 0
M  V30 357 N 35.4744 -0.807222 -1.35358 0
M  V30 358 C 36.7224 -0.387122 -1.98358 0
M  V30 359 C 37.0434 1.04942 -1.64354 0
M  V30 360 O 36.3134 1.72615 -0.926339 0
M  V30 361 H 34.8934 -0.140154 -0.733734 0
M  V30 362 H 37.5554 -1.0332 -1.6526 0
M  V30 363 H 36.6514 -0.493352 -3.08176 0
M  V30 364 N 36.9525 1.47285 -0.560781 0
M  V30 365 C 38.2015 2.01668 -0.035895 0
M  V30 366 C 38.5145 1.44021 1.32353 0
M  V30 367 O 39.7205 1.90088 1.93853 0
M  V30 368 C 38.1765 3.59897 -0.0136659 0
M  V30 369 C 37.7845 4.26536 -1.37006 0
M  V30 370 C 39.5285 4.22017 0.458425 0
M  V30 371 C 37.4355 5.76782 -1.30675 0
M  V30 372 H 36.3655 0.753938 -0.00964879 0
M  V30 373 H 39.0165 1.69243 -0.709166 0
M  V30 374 H 37.3985 3.89301 0.725325 0
M  V30 375 H 38.5725 4.0877 -2.12705 0
M  V30 376 H 36.8875 3.76419 -1.78038 0
M  V30 377 H 39.4845 5.32124 0.524247 0
M  V30 378 H 39.8275 3.89437 1.4712 0
M  V30 379 H 40.3605 3.97159 -0.225818 0
M  V30 380 H 37.0995 6.13988 -2.29564 0
M  V30 381 H 36.6195 5.96875 -0.591622 0
M  V30 382 H 38.2985 6.39063 -1.01033 0
M  V30 383 N 38.4306 0.297415 1.54768 0
M  V30 384 C 39.8416 -0.195947 1.85669 0
M  V30 385 C 40.1926 -1.53707 1.21937 0
M  V30 386 O 39.3176 -2.10164 0.515754 0
M  V30 387 C 39.9126 -0.362318 3.36857 0
M  V30 388 C 38.4716 -0.799901 3.67802 0
M  V30 389 C 37.6186 0.0938578 2.77141 0
M  V30 390 H 40.5696 0.518538 1.4999 0
M  V30 391 H 40.5906 -1.19745 3.61167 0
M  V30 392 H 40.1026 0.613921 3.83214 0
M  V30 393 H 38.2036 -1.78682 3.26961 0
M  V30 394 H 38.3166 -0.621773 4.75048 0
M  V30 395 H 36.6806 -0.426254 2.51108 0
M  V30 396 H 37.4636 1.06639 3.26318 0
M  V30 397 N 39.9087 -1.5758 0.0250728 0
M  V30 398 C 40.8587 -2.06468 -0.967201 0
M  V30 399 C 41.8427 -0.964376 -1.28797 0
M  V30 400 O 43.0347 -1.22797 -1.27475 0
M  V30 401 C 40.1637 -2.59203 -2.25097 0
M  V30 402 C 39.2497 -3.76157 -1.95874 0
M  V30 403 N 39.6407 -4.86919 -1.36905 0
M  V30 404 C 37.9387 -3.84566 -2.25887 0
M  V30 405 C 38.6397 -5.68172 -1.24724 0
M  V30 406 N 37.6157 -5.14953 -1.74138 0
M  V30 407 H 41.4177 -2.89508 -0.506176 0
M  V30 408 H 38.9317 -1.61399 -0.18004 0
M  V30 409 H 40.9287 -2.92517 -2.97052 0
M  V30 410 H 39.5887 -1.77592 -2.71829 0
M  V30 411 H 40.5997 -5.07256 -1.04459 0
M  V30 412 H 37.2767 -3.13854 -2.75321 0
M  V30 413 H 38.6667 -6.67221 -0.791605 0
M  V30 414 N 41.3868 0.248026 -1.55636 0
M  V30 415 C 42.6358 0.974134 -1.76617 0
M  V30 416 C 42.9488 1.86528 -0.588796 0
M  V30 417 O 44.1548 2.62805 -0.681594 0
M  V30 418 C 42.6108 1.78213 -3.12679 0
M  V30 419 C 42.2188 0.93843 -4.38061 0
M  V30 420 C 43.9628 2.50104 -3.42999 0
M  V30 421 C 41.8698 1.74225 -5.65155 0
M  V30 422 H 40.7998 0.36745 -0.658405 0
M  V30 423 H 43.4508 0.22884 -1.82067 0
M  V30 424 H 41.8328 2.56933 -3.01333 0
M  V30 425 H 43.0068 0.193635 -4.60393 0
M  V30 426 H 41.3218 0.332905 -4.15067 0
M  V30 427 H 43.9188 3.10694 -4.3517 0
M  V30 428 H 44.2618 3.21662 -2.64271 0
M  V30 429 H 44.7948 1.78395 -3.55556 0
M  V30 430 H 41.5338 1.07043 -6.46701 0
M  V30 431 H 41.0538 2.46235 -5.46926 0
M  V30 432 H 42.7328 2.30967 -6.0437 0
M  V30 433 N 42.8649 1.48995 0.513639 0
M  V30 434 C 44.0899 1.61792 1.29762 0
M  V30 435 C 44.5149 0.284475 1.85936 0
M  V30 436 O 43.8729 -0.746185 1.65232 0
M  V30 437 C 43.9209 2.67993 2.41272 0
M  V30 438 O 43.0249 2.26287 3.44772 0
M  V30 439 H 42.3659 0.541963 0.38363 0
M  V30 440 H 44.8959 1.95097 0.616307 0
M  V30 441 H 44.9059 2.89772 2.87221 0
M  V30 442 H 43.5809 3.64791 1.9975 0
M  V30 443 H 42.1579 2.14788 3.04829 0
M  V30 444 N 44.343 -0.763751 1.37857 0
M  V30 445 C 45.571 -1.55293 1.36718 0
M  V30 446 C 45.986 -1.88745 -0.0455434 0
M  V30 447 O 45.343 -1.52039 -1.00947 0
M  V30 448 C 45.394 -2.85831 2.2132 0
M  V30 449 O 45.115 -2.5381 3.57089 0
M  V30 450 C 46.616 -3.80023 2.28249 0
M  V30 451 H 43.836 -0.480841 0.468009 0
M  V30 452 H 46.38 -0.946009 1.81303 0
M  V30 453 H 44.535 -3.42926 1.80223 0
M  V30 454 H 44.949 -3.37459 4.01524 0
M  V30 455 H 46.423 -4.68599 2.91752 0
M  V30 456 H 46.9 -4.1973 1.2932 0
M  V30 457 H 47.506 -3.28855 2.69693 0
M  V30 458 N 45.8211 -1.22559 -0.990812 0
M  V30 459 C 47.0691 -1.04933 -1.72724 0
M  V30 460 C 47.3901 0.416158 -1.90508 0
M  V30 461 O 46.6601 1.29918 -1.46622 0
M  V30 462 H 45.2401 -0.385296 -0.639965 0
M  V30 463 H 47.9021 -1.54105 -1.19322 0
M  V30 464 H 46.9981 -1.52886 -2.72089 0
M  V30 465 N 47.2992 1.18797 -1.03562 0
M  V30 466 C 48.5762 1.84469 -0.650434 0
M  V30 467 C 48.9562 1.92319 0.870433 0
M  V30 468 O 48.3042 1.44528 1.76986 0
M  V30 469 C 48.5142 3.2306 -1.32036 0
M  V30 470 C 49.8622 3.9915 -1.44792 0
M  V30 471 O 50.8862 3.32481 -1.27806 0
M  V30 472 O 49.7452 5.18587 -1.72423 0
M  V30 473 H 46.8392 0.795251 -0.226946 0
M  V30 474 H 49.3852 1.26231 -1.13419 0
M  V30 475 H 48.1572 3.1222 -2.3587 0
M  V30 476 H 47.7802 3.88949 -0.8249 0
M  V30 477 N 48.7773 0.814389 1.34928 0
M  V30 478 C 49.7103 0.175641 2.27523 0
M  V30 479 C 50.6883 -0.662953 1.48471 0
M  V30 480 O 51.8723 -0.628545 1.77712 0
M  V30 481 C 48.9993 -0.755516 3.30166 0
M  V30 482 C 48.0453 0.00445305 4.265 0
M  V30 483 S 48.8783 1.34582 5.18313 0
M  V30 484 C 50.0343 0.419315 6.24494 0
M  V30 485 H 50.2673 0.960691 2.8135 0
M  V30 486 H 47.8003 0.609846 1.41846 0
M  V30 487 H 49.7583 -1.28723 3.89796 0
M  V30 488 H 48.4193 -1.51402 2.75202 0
M  V30 489 H 47.6123 -0.703077 4.99072 0
M  V30 490 H 47.2143 0.466447 3.7108 0
M  V30 491 H 49.5063 -0.392432 6.76362 0
M  V30 492 H 50.4493 1.11446 6.99275 0
M  V30 493 H 50.8573 0.0115389 5.64499 0
M  V30 494 N 50.2554 -1.46986 0.568584 0
M  V30 495 C 51.5024 -2.02441 0.0487986 0
M  V30 496 C 51.8304 -1.44169 -1.30559 0
M  V30 497 O 51.0854 -0.591213 -1.86556 0
M  V30 498 C 51.3844 -3.57306 -0.081836 0
M  V30 499 C 51.0504 -4.34552 1.20313 0
M  V30 500 C 49.7124 -4.55376 1.5552 0
M  V30 501 C 52.0644 -4.79016 2.05411 0
M  V30 502 C 49.3924 -5.17913 2.7565 0
M  V30 503 C 51.7444 -5.42879 3.24754 0
M  V30 504 C 50.4084 -5.61933 3.60261 0
M  V30 505 H 49.6784 -0.740785 0.0178567 0
M  V30 506 H 52.3254 -1.76525 0.742384 0
M  V30 507 H 50.6304 -3.8228 -0.858463 0
M  V30 508 H 52.3274 -3.97876 -0.499546 0
M  V30 509 H 48.9174 -4.18631 0.919014 0
M  V30 510 H 53.1014 -4.62696 1.79516 0
M  V30 511 H 48.3574 -5.30858 3.03315 0
M  V30 512 H 52.5314 -5.76293 3.90973 0
M  V30 513 H 50.1584 -6.10161 4.53439 0
M  V30 514 N 51.7335 -0.305618 -1.54608 0
M  V30 515 C 53.1495 0.0476228 -1.59529 0
M  V30 516 C 53.3495 1.52025 -1.32252 0
M  V30 517 O 52.4055 2.27368 -1.09818 0
M  V30 518 C 53.7185 -0.354471 -2.98603 0
M  V30 519 C 55.2665 -0.303622 -3.11524 0
M  V30 520 C 55.7415 -0.680608 -4.52915 0
M  V30 521 N 57.2325 -0.63332 -4.5885 0
M  V30 522 C 57.9675 -0.897432 -5.66334 0
M  V30 523 N 57.4635 -1.22775 -6.81834 0
M  V30 524 N 59.2565 -0.824186 -5.56025 0
M  V30 525 H 51.4075 -1.2653 -1.70599 0
M  V30 526 H 53.6705 -0.513291 -0.797017 0
M  V30 527 H 53.3765 -1.3798 -3.23503 0
M  V30 528 H 53.2505 0.289568 -3.76087 0
M  V30 529 H 55.6375 0.712472 -2.8637 0
M  V30 530 H 55.7185 -0.982348 -2.36185 0
M  V30 531 H 55.3625 -1.69453 -4.78799 0
M  V30 532 H 55.2925 0.0202385 -5.26596 0
M  V30 533 H 57.7835 -0.389138 -3.75891 0
M  V30 534 H 58.0965 -1.41513 -7.59733 0
M  V30 535 H 56.4415 -1.26583 -6.83375 0
M  V30 536 H 59.6325 -0.565748 -4.64669 0
M  V30 537 H 59.8055 -1.03338 -6.39707 0
M  V30 538 N 53.2116 1.57565 -0.0334293 0
M  V30 539 C 54.1746 2.09393 0.932048 0
M  V30 540 C 55.1746 1.00986 1.25134 0
M  V30 541 O 56.3646 1.27129 1.19096 0
M  V30 542 C 53.4966 2.56338 2.2473 0
M  V30 543 H 54.6896 2.95984 0.483085 0
M  V30 544 H 52.2426 1.54819 0.21468 0
M  V30 545 H 52.9776 1.7309 2.74245 0
M  V30 546 H 52.7626 3.35542 2.02865 0
M  V30 547 H 54.2526 2.96646 2.93923 0
M  V30 548 N 54.6897 -0.239769 1.55765 0
M  V30 549 C 55.6527 -1.28038 1.90103 0
M  V30 550 C 56.6527 -1.40723 0.778055 0
M  V30 551 O 57.8427 -1.39301 1.04599 0
M  V30 552 C 54.9747 -2.65702 2.13577 0
M  V30 553 H 56.1677 -0.988048 2.83157 0
M  V30 554 H 53.7207 -0.479382 1.48767 0
M  V30 555 H 54.4557 -3.00063 1.23015 0
M  V30 556 H 54.2407 -2.57875 2.95369 0
M  V30 557 H 55.7307 -3.40828 2.41301 0
M  V30 558 N 56.1678 -1.49265 -0.50573 0
M  V30 559 C 57.1008 -1.60183 -1.62532 0
M  V30 560 C 58.0788 -0.451107 -1.56217 0
M  V30 561 O 59.2628 -0.666016 -1.76342 0
M  V30 562 C 56.3898 -1.55238 -3.01029 0
M  V30 563 C 55.4358 -2.7545 -3.25621 0
M  V30 564 S 56.2688 -4.37174 -3.09256 0
M  V30 565 C 57.4248 -4.34866 -4.50158 0
M  V30 566 H 57.6578 -2.54894 -1.53025 0
M  V30 567 H 55.1908 -1.38098 -0.690535 0
M  V30 568 H 57.1488 -1.53071 -3.80893 0
M  V30 569 H 55.8098 -0.618238 -3.07956 0
M  V30 570 H 55.0028 -2.68197 -4.26716 0
M  V30 571 H 54.6048 -2.75005 -2.53472 0
M  V30 572 H 56.8968 -4.06295 -5.42154 0
M  V30 573 H 57.8398 -5.36223 -4.62462 0
M  V30 574 H 58.2478 -3.65007 -4.30616 0
M  V30 575 N 57.6459 0.756429 -1.3826 0
M  V30 576 C 58.5929 1.87011 -1.35261 0
M  V30 577 C 59.5629 1.64695 -0.215616 0
M  V30 578 O 60.7479 1.864 -0.407399 0
M  V30 579 C 57.8879 3.24275 -1.18068 0
M  V30 580 C 57.0009 3.58442 -2.41129 0
M  V30 581 C 56.1359 4.84994 -2.16689 0
M  V30 582 C 55.1749 5.11939 -3.35537 0
M  V30 583 N 54.3119 6.29685 -3.10549 0
M  V30 584 H 59.1519 1.8891 -2.30472 0
M  V30 585 H 56.6889 0.923373 -1.14509 0
M  V30 586 H 58.6469 4.03479 -1.06116 0
M  V30 587 H 57.2769 3.21711 -0.264973 0
M  V30 588 H 56.3289 2.74103 -2.63764 0
M  V30 589 H 57.6409 3.74283 -3.29717 0
M  V30 590 H 56.7949 5.72135 -2.01857 0
M  V30 591 H 55.5339 4.71286 -1.25462 0
M  V30 592 H 54.5389 4.23268 -3.50891 0
M  V30 593 H 55.7639 5.27546 -4.27635 0
M  V30 594 H 53.7099 6.17306 -2.21967 0
M  V30 595 H 53.6269 6.46014 -3.92686 0
M  V30 596 H 54.8949 7.19722 -2.99367 0
M  V30 597 N 59.124 1.23083 0.984299 0
M  V30 598 C 60.034 1.02515 2.11016 0
M  V30 599 C 61.05 -0.0291702 1.73976 0
M  V30 600 O 62.226 0.165434 2.00719 0
M  V30 601 C 59.291 0.614673 3.41208 0
M  V30 602 C 58.352 1.74359 3.92297 0
M  V30 603 C 57.585 1.35261 5.16275 0
M  V30 604 O 57.808 0.235136 5.69915 0
M  V30 605 O 56.742 2.17227 5.61334 0
M  V30 606 H 60.568 1.96862 2.31255 0
M  V30 607 H 58.153 1.01753 1.09392 0
M  V30 608 H 60.035 0.396518 4.1953 0
M  V30 609 H 58.71 -0.299851 3.22308 0
M  V30 610 H 57.617 2.01635 3.1511 0
M  V30 611 H 58.95 2.63629 4.15645 0
M  V30 612 N 60.6021 -1.18246 1.0419 0
M  V30 613 C 61.5121 -2.25574 0.644476 0
M  V30 614 C 62.5281 -1.70845 -0.329826 0
M  V30 615 O 63.7041 -2.00554 -0.184443 0
M  V30 616 C 60.7691 -3.46697 0.014877 0
M  V30 617 C 59.8301 -4.16554 1.03834 0
M  V30 618 C 59.0631 -5.31894 0.438692 0
M  V30 619 O 59.2861 -5.65385 -0.754752 0
M  V30 620 O 58.2201 -5.90459 1.168 0
M  V30 621 H 62.0461 -2.61836 1.53869 0
M  V30 622 H 59.6311 -1.25352 0.812854 0
M  V30 623 H 61.5131 -4.20062 -0.335538 0
M  V30 624 H 60.1881 -3.12255 -0.853138 0
M  V30 625 H 59.0951 -3.45251 1.44057 0
M  V30 626 H 60.4281 -4.54998 1.87716 0
M  V30 627 N 62.0802 -0.821533 -1.34494 0
M  V30 628 C 63.3082 -0.421884 -2.02553 0
M  V30 629 C 63.7232 0.971745 -1.61872 0
M  V30 630 O 63.0802 1.62864 -0.823496 0
M  V30 631 C 63.1312 -0.51285 -3.57844 0
M  V30 632 O 62.8522 -1.85155 -3.97051 0
M  V30 633 C 64.3532 -0.107921 -4.43169 0
M  V30 634 H 61.5732 -0.169482 -0.649243 0
M  V30 635 H 64.1172 -1.1093 -1.71798 0
M  V30 636 H 62.2722 0.126474 -3.87193 0
M  V30 637 H 62.6862 -1.82482 -4.91732 0
M  V30 638 H 64.1602 -0.222657 -5.51551 0
M  V30 639 H 64.6372 0.948401 -4.28838 0
M  V30 640 H 65.2432 -0.720989 -4.19144 0
M  V30 641 N 63.5583 1.46682 -0.576371 0
M  V30 642 C 64.9693 1.86112 -0.148091 0
M  V30 643 C 65.3203 1.48073 1.2872 0
M  V30 644 O 64.4453 0.892656 1.97131 0
M  V30 645 C 65.0403 3.37786 -0.261982 0
M  V30 646 C 63.5993 3.76235 0.111384 0
M  V30 647 C 62.7463 2.70713 -0.60083 0
M  V30 648 H 65.6973 1.37927 -0.78497 0
M  V30 649 H 65.7183 3.77007 0.514364 0
M  V30 650 H 65.2303 3.6544 -1.30671 0
M  V30 651 H 63.3313 3.54198 1.15649 0
M  V30 652 H 63.4443 4.78391 -0.26052 0
M  V30 653 H 61.8083 2.54666 -0.0417783 0
M  V30 654 H 62.5913 3.01208 -1.64708 0
M  V30 655 N 65.0364 0.313813 1.54444 0
M  V30 656 C 65.9664 -0.549454 2.26943 0
M  V30 657 C 66.9474 -1.12741 1.27372 0
M  V30 658 O 68.1324 -1.15436 1.56167 0
M  V30 659 C 65.2624 -1.71523 3.01989 0
M  V30 660 C 64.2164 -1.26703 4.08816 0
M  V30 661 C 63.5424 -2.51898 4.71647 0
M  V30 662 C 64.8424 -0.388962 5.2085 0
M  V30 663 H 66.5364 0.0552661 2.99349 0
M  V30 664 H 64.0824 0.0280207 1.43973 0
M  V30 665 H 66.0354 -2.32535 3.51433 0
M  V30 666 H 64.7594 -2.34639 2.27183 0
M  V30 667 H 63.4184 -0.679896 3.6024 0
M  V30 668 H 63.0664 -3.13356 3.93468 0
M  V30 669 H 62.7664 -2.22605 5.43802 0
M  V30 670 H 64.2904 -3.1369 5.23861 0
M  V30 671 H 65.7044 -0.905107 5.6611 0
M  V30 672 H 64.1014 -0.18924 5.99802 0
M  V30 673 H 65.1714 0.582699 4.81386 0
M  V30 674 N 66.5145 -1.57545 0.0417849 0
M  V30 675 C 67.7625 -1.91937 -0.632829 0
M  V30 676 C 68.0835 -0.919978 -1.71934 0
M  V30 677 O 67.3535 0.0366064 -1.95866 0
M  V30 678 H 65.9335 -0.708493 -0.236742 0
M  V30 679 H 68.5955 -1.9468 0.0925745 0
M  V30 680 H 67.6915 -2.92912 -1.07746 0
M  V30 681 N 67.9926 0.231505 -1.5589 0
M  V30 682 C 68.9226 1.29022 -1.94617 0
M  V30 683 C 69.9036 1.4941 -0.813067 0
M  V30 684 O 71.0886 1.6176 -1.07459 0
M  V30 685 C 68.2186 2.64199 -2.25424 0
M  V30 686 C 67.1726 2.58484 -3.41131 0
M  V30 687 C 66.4986 3.97599 -3.57518 0
M  V30 688 C 67.7986 2.1413 -4.76388 0
M  V30 689 H 69.4926 0.968563 -2.83301 0
M  V30 690 H 67.0386 0.464479 -1.36303 0
M  V30 691 H 68.9916 3.38413 -2.51107 0
M  V30 692 H 67.7156 2.98032 -1.33583 0
M  V30 693 H 66.3746 1.86727 -3.15481 0
M  V30 694 H 66.0226 4.28723 -2.6307 0
M  V30 695 H 65.7226 3.94659 -4.35337 0
M  V30 696 H 67.2466 4.7349 -3.85538 0
M  V30 697 H 68.6606 2.78083 -5.01341 0
M  V30 698 H 67.0576 2.2227 -5.57419 0
M  V30 699 H 68.1276 1.09331 -4.72414 0
M  V30 700 N 69.4707 1.49531 0.497807 0
M  V30 701 C 70.3807 1.69176 1.62532 0
M  V30 702 C 71.3967 0.5744 1.64246 0
M  V30 703 O 72.5727 0.849497 1.82608 0
M  V30 704 C 69.6377 1.75695 2.98885 0
M  V30 705 C 68.6987 2.9929 3.07773 0
M  V30 706 C 67.9317 3.05488 4.37622 0
M  V30 707 O 68.1547 2.19192 5.26603 0
M  V30 708 O 67.0887 3.9798 4.51548 0
M  V30 709 H 70.9147 2.647 1.48887 0
M  V30 710 H 68.4997 1.3331 0.674441 0
M  V30 711 H 70.3817 1.82317 3.79919 0
M  V30 712 H 69.0567 0.8335 3.12785 0
M  V30 713 H 67.9637 2.98183 2.25915 0
M  V30 714 H 69.2967 3.91125 2.98801 0
M  V30 715 N 70.9488 -0.749086 1.3866 0
M  V30 716 C 71.9118 -1.84457 1.36045 0
M  V30 717 C 72.9118 -1.58682 0.260122 0
M  V30 718 O 74.1018 -1.66343 0.517261 0
M  V30 719 C 71.2338 -3.22008 1.11911 0
M  V30 720 H 72.4268 -1.88182 2.33512 0
M  V30 721 H 69.9798 -0.951266 1.24019 0
M  V30 722 H 70.7148 -3.2395 0.150686 0
M  V30 723 H 70.4998 -3.42111 1.91579 0
M  V30 724 H 71.9898 -4.0208 1.12788 0
M  V30 725 N 72.4269 -1.23603 -0.977757 0
M  V30 726 C 73.3739 -1.01954 -2.07061 0
M  V30 727 C 74.3439 0.0638697 -1.65977 0
M  V30 728 O 75.5289 -0.0887624 -1.90593 0
M  V30 729 C 72.6689 -0.619658 -3.39491 0
M  V30 730 C 71.7819 -1.77547 -3.93829 0
M  V30 731 C 70.9169 -1.32212 -5.14484 0
M  V30 732 C 69.9559 -2.44852 -5.60994 0
M  V30 733 N 69.0929 -2.00456 -6.72876 0
M  V30 734 H 73.9329 -1.95495 -2.24913 0
M  V30 735 H 71.4699 -0.973861 -1.10247 0
M  V30 736 H 73.4279 -0.368898 -4.15566 0
M  V30 737 H 72.0579 0.278752 -3.21594 0
M  V30 738 H 71.1099 -2.14016 -3.14486 0
M  V30 739 H 72.4219 -2.62219 -4.24314 0
M  V30 740 H 71.5759 -1.02965 -5.97899 0
M  V30 741 H 70.3149 -0.445808 -4.85658 0
M  V30 742 H 69.3199 -2.74871 -4.76157 0
M  V30 743 H 70.5449 -3.33024 -5.91837 0
M  V30 744 H 68.4909 -1.15208 -6.45804 0
M  V30 745 H 68.4079 -2.78687 -7.02759 0
M  V30 746 H 69.6759 -1.7432 -7.59758 0
M  V30 747 N 73.905 1.17692 -1.04816 0
M  V30 748 C 75.13 1.92327 -0.776207 0
M  V30 749 C 75.555 1.76082 0.661581 0
M  V30 750 O 74.913 1.076 1.45917 0
M  V30 751 C 74.961 3.41539 -1.15687 0
M  V30 752 O 74.065 4.11402 -0.286775 0
M  V30 753 H 73.406 0.599735 -0.284981 0
M  V30 754 H 75.936 1.49201 -1.4 0
M  V30 755 H 75.946 3.92269 -1.12202 0
M  V30 756 H 74.621 3.52684 -2.20425 0
M  V30 757 H 73.198 3.70939 -0.381903 0
M  V30 758 N 75.3831 0.828654 1.34056 0
M  V30 759 C 76.6131 0.431993 2.02033 0
M  V30 760 C 77.0211 -0.96844 1.62536 0
M  V30 761 O 76.3641 -1.6391 0.829408 0
M  V30 762 C 76.4261 0.461224 3.56529 0
M  V30 763 C 76.0901 1.81599 4.1937 0
M  V30 764 C 77.0871 2.7777 4.39477 0
M  V30 765 C 74.7721 2.10604 4.56017 0
M  V30 766 C 76.7661 4.01115 4.95364 0
M  V30 767 C 74.4531 3.34207 5.11614 0
M  V30 768 C 75.4511 4.2928 5.31232 0
M  V30 769 O 75.1391 5.50699 5.8565 0
M  V30 770 H 74.8711 0.170943 0.654029 0
M  V30 771 H 77.4251 1.11988 1.72185 0
M  V30 772 H 75.6551 -0.283388 3.8566 0
M  V30 773 H 77.3441 0.0838149 4.05813 0
M  V30 774 H 78.1101 2.56659 4.11523 0
M  V30 775 H 73.9891 1.37402 4.40047 0
M  V30 776 H 77.5331 4.75333 5.10592 0
M  V30 777 H 73.4301 3.55179 5.38997 0
M  V30 778 H 74.1981 5.52298 6.04077 0
M  V30 779 N 76.8612 -1.46375 0.584142 0
M  V30 780 C 78.1102 -2.01585 0.0679741 0
M  V30 781 C 78.4232 -1.46109 -1.30045 0
M  V30 782 O 79.6292 -1.93148 -1.90804 0
M  V30 783 C 78.0852 -3.5983 0.0709207 0
M  V30 784 C 77.6932 -4.24303 1.43775 0
M  V30 785 C 79.4372 -4.22693 -0.391228 0
M  V30 786 C 77.3442 -5.74631 1.39834 0
M  V30 787 H 76.2742 -0.753689 0.0216421 0
M  V30 788 H 78.9252 -1.68093 0.736001 0
M  V30 789 H 77.3072 -3.90405 -0.663299 0
M  V30 790 H 78.4812 -4.05335 2.19181 0
M  V30 791 H 76.7962 -3.73539 1.84004 0
M  V30 792 H 79.3932 -5.3289 -0.439524 0
M  V30 793 H 79.7362 -3.91728 -1.40906 0
M  V30 794 H 80.2692 -3.96749 0.288974 0
M  V30 795 H 77.0082 -6.10258 2.39303 0
M  V30 796 H 76.5282 -5.95858 0.686505 0
M  V30 797 H 78.2072 -6.37375 1.11187 0
M  V30 798 N 78.3393 -0.321999 -1.54275 0
M  V30 799 C 79.6163 0.335232 -1.92706 0
M  V30 800 C 79.9963 1.70006 -1.25145 0
M  V30 801 O 79.3443 2.25067 -0.394596 0
M  V30 802 C 79.5543 0.429008 -3.46353 0
M  V30 803 C 80.9023 0.690029 -4.18956 0
M  V30 804 O 81.9263 0.511992 -3.52501 0
M  V30 805 O 80.7853 1.03338 -5.36641 0
M  V30 806 H 77.8793 0.191143 -0.804608 0
M  V30 807 H 80.4253 -0.3716 -1.65581 0
M  V30 808 H 79.1973 -0.529611 -3.87699 0
M  V30 809 H 78.8203 1.18348 -3.79578 0
M  V30 810 N 79.8174 1.5752 -0.0501392 0
M  V30 811 C 80.7644 2.1147 0.924603 0
M  V30 812 C 81.7344 1.02182 1.30951 0
M  V30 813 O 82.9194 1.29723 1.39916 0
M  V30 814 C 80.0594 2.66337 2.19451 0
M  V30 815 C 79.1724 3.89708 1.86418 0
M  V30 816 C 78.3074 4.32893 3.07859 0
M  V30 817 C 77.3464 5.48967 2.70742 0
M  V30 818 N 76.4834 5.87211 3.84874 0
M  V30 819 H 81.3234 2.94465 0.457639 0
M  V30 820 H 78.8604 1.45531 0.214266 0
M  V30 821 H 80.8184 2.96247 2.93758 0
M  V30 822 H 79.4484 1.86141 2.63726 0
M  V30 823 H 78.5004 3.66396 1.02264 0
M  V30 824 H 79.8124 4.74074 1.55096 0
M  V30 825 H 78.9664 4.6435 3.90466 0
M  V30 826 H 77.7054 3.47336 3.42358 0
M  V30 827 H 76.7104 5.17183 1.86551 0
M  V30 828 H 77.9354 6.3624 2.37436 0
M  V30 829 H 75.8814 5.04607 4.19175 0
M  V30 830 H 75.7984 6.66266 3.57247 0
M  V30 831 H 77.0664 6.23282 4.68123 0
M  V30 832 N 81.2955 -0.223234 1.56011 0
M  V30 833 C 82.5435 -0.946003 1.78592 0
M  V30 834 C 82.8645 -1.84936 0.618349 0
M  V30 835 O 82.1345 -1.92473 -0.364833 0
M  V30 836 H 80.7145 -0.352298 0.658707 0
M  V30 837 H 83.3765 -0.235494 1.93472 0
M  V30 838 H 82.4725 -1.55381 2.70672 0
M  V30 839 N 82.7736 -1.49793 -0.48987 0
M  V30 840 C 83.6836 -1.70036 -1.61632 0
M  V30 841 C 84.6996 -0.583102 -1.63939 0
M  V30 842 O 85.8756 -0.859169 -1.82154 0
M  V30 843 C 82.9406 -1.77277 -2.97949 0
M  V30 844 C 82.0016 -3.00918 -3.06181 0
M  V30 845 C 81.2346 -3.07804 -4.35996 0
M  V30 846 O 81.4576 -2.21982 -5.25433 0
M  V30 847 O 80.3916 -4.00369 -4.49431 0
M  V30 848 H 84.2176 -2.65486 -1.47482 0
M  V30 849 H 81.8026 -1.33666 -0.667362 0
M  V30 850 H 83.6846 -1.84329 -3.78947 0
M  V30 851 H 82.3596 -0.850076 -3.12339 0
M  V30 852 H 81.2666 -2.99377 -2.2433 0
M  V30 853 H 82.5996 -3.92704 -2.96723 0
M  V30 854 N 84.2517 0.741722 -1.39055 0
M  V30 855 C 85.1817 1.869 -1.39966 0
M  V30 856 C 86.1627 1.6804 -0.26392 0
M  V30 857 O 87.3477 1.88458 -0.468755 0
M  V30 858 C 84.4777 3.24572 -1.23574 0
M  V30 859 C 83.4317 3.58056 -2.34477 0
M  V30 860 C 82.7577 4.94593 -2.0318 0
M  V30 861 C 84.0577 3.61716 -3.76774 0
M  V30 862 H 85.7517 1.86395 -2.34302 0
M  V30 863 H 83.2977 0.895361 -1.1278 0
M  V30 864 H 85.2507 4.031 -1.22834 0
M  V30 865 H 83.9747 3.25587 -0.257045 0
M  V30 866 H 82.6337 2.81854 -2.34423 0
M  V30 867 H 82.2817 4.92181 -1.03765 0
M  V30 868 H 81.9817 5.17964 -2.77465 0
M  V30 869 H 83.5057 5.75486 -2.04079 0
M  V30 870 H 84.9197 4.30335 -3.78794 0
M  V30 871 H 83.3167 3.96603 -4.50362 0
M  V30 872 H 84.3867 2.61672 -4.08235 0
M  V30 873 N 85.7298 1.2412 0.971189 0
M  V30 874 C 86.9758 1.08041 1.71625 0
M  V30 875 C 87.3088 -0.380407 1.90438 0
M  V30 876 O 86.5838 -1.28127 1.46334 0
M  V30 877 C 86.8668 1.81682 3.10908 0
M  V30 878 C 86.7198 3.35493 2.99608 0
M  V30 879 C 88.0388 1.58671 4.10501 0
M  V30 880 H 85.1578 0.39388 0.622919 0
M  V30 881 H 87.7998 1.52743 1.13003 0
M  V30 882 H 85.9498 1.43684 3.60953 0
M  V30 883 H 87.6218 3.83068 2.57015 0
M  V30 884 H 85.8648 3.64052 2.35899 0
M  V30 885 H 86.5358 3.82217 3.98264 0
M  V30 886 H 89.0118 1.91719 3.69301 0
M  V30 887 H 87.8878 2.1266 5.06031 0
M  V30 888 H 88.1488 0.524161 4.38982 0
M  V30 889 N 87.2079 -1.17134 1.05439 0
M  V30 890 C 88.6189 -1.69084 0.791676 0
M  V30 891 C 88.9699 -1.83822 -0.685839 0
M  V30 892 O 88.0949 -1.52757 -1.53278 0
M  V30 893 C 88.6899 -3.07119 1.4305 0
M  V30 894 C 87.2489 -3.56225 1.21577 0
M  V30 895 C 86.3959 -2.32421 1.51247 0
M  V30 896 H 89.3469 -1.01617 1.219 0
M  V30 897 H 89.3679 -3.71087 0.84112 0
M  V30 898 H 88.8799 -2.9636 2.50584 0
M  V30 899 H 86.9809 -3.72257 0.159787 0
M  V30 900 H 87.0939 -4.38837 1.92246 0
M  V30 901 H 85.4579 -2.3701 0.932653 0
M  V30 902 H 86.2409 -2.24268 2.5992 0
M  V30 903 N 88.686 -0.835752 -1.33615 0
M  V30 904 C 89.963 -0.352017 -1.92406 0
M  V30 905 C 90.343 1.16225 -1.76224 0
M  V30 906 O 89.691 1.97526 -1.14873 0
M  V30 907 C 89.901 -0.795485 -3.39813 0
M  V30 908 C 91.249 -0.801703 -4.16963 0
M  V30 909 O 92.273 -0.738889 -3.48452 0
M  V30 910 O 91.132 -0.886607 -5.3926 0
M  V30 911 H 88.226 -0.0989641 -0.821057 0
M  V30 912 H 90.772 -0.921397 -1.42507 0
M  V30 913 H 89.544 -1.83795 -3.45449 0
M  V30 914 H 89.167 -0.202505 -3.97084 0
M  V30 915 N 90.1641 1.46063 -0.591896 0
M  V30 916 C 91.0741 2.34192 0.13831 0
M  V30 917 C 92.0901 1.50305 0.876608 0
M  V30 918 O 93.2661 1.8315 0.837728 0
M  V30 919 C 90.3311 3.27656 1.13326 0
M  V30 920 C 89.3921 4.27445 0.39863 0
M  V30 921 C 88.6251 5.16443 1.34618 0
M  V30 922 O 88.8481 5.08553 2.58321 0
M  V30 923 O 87.7821 5.95843 0.851768 0
M  V30 924 H 91.6081 2.98002 -0.58552 0
M  V30 925 H 89.1931 1.45188 -0.352239 0
M  V30 926 H 91.0751 3.85291 1.70671 0
M  V30 927 H 89.7501 2.6643 1.83839 0
M  V30 928 H 88.6571 3.73471 -0.216895 0
M  V30 929 H 89.9901 4.91482 -0.265709 0
M  V30 930 N 91.6422 0.330177 1.54103 0
M  V30 931 C 92.8882 -0.270806 2.00984 0
M  V30 932 C 93.2212 -1.51265 1.21789 0
M  V30 933 O 92.4962 -1.92142 0.301927 0
M  V30 934 C 92.7792 -0.598339 3.55094 0
M  V30 935 C 92.6322 0.654674 4.4501 0
M  V30 936 C 93.9512 -1.41334 4.16789 0
M  V30 937 H 91.0702 -0.0969531 0.730595 0
M  V30 938 H 93.7122 0.448066 1.84641 0
M  V30 939 H 91.8622 -1.21078 3.69151 0
M  V30 940 H 93.5342 1.29285 4.42813 0
M  V30 941 H 91.7772 1.28224 4.14416 0
M  V30 942 H 92.4482 0.380944 5.50684 0
M  V30 943 H 94.9242 -0.895597 4.06347 0
M  V30 944 H 93.8002 -1.61127 5.24718 0
M  V30 945 H 94.0612 -2.41146 3.70541 0
M  V30 946 N 93.1203 -1.57491 0.0584922 0
M  V30 947 C 94.3483 -1.97296 -0.623037 0
M  V30 948 C 94.7633 -0.936338 -1.63946 0
M  V30 949 O 94.1203 0.0785981 -1.82331 0
M  V30 950 C 94.1713 -3.37183 -1.30345 0
M  V30 951 O 93.8923 -4.36872 -0.32773 0
M  V30 952 C 95.3933 -3.91788 -2.07406 0
M  V30 953 H 92.6133 -0.649153 -0.169826 0
M  V30 954 H 95.1573 -2.04106 0.12696 0
M  V30 955 H 93.3123 -3.31502 -2.00463 0
M  V30 956 H 93.7263 -5.18141 -0.814269 0
M  V30 957 H 95.2003 -4.91926 -2.50425 0
M  V30 958 H 95.6773 -3.27609 -2.92521 0
M  V30 959 H 96.2833 -4.00829 -1.42184 0
M  V30 960 N 94.5984 0.214957 -1.56127 0
M  V30 961 C 95.8474 0.936451 -1.78643 0
M  V30 962 C 96.1604 1.85237 -0.628229 0
M  V30 963 O 97.3664 2.613 -0.737186 0
M  V30 964 C 95.8224 1.7154 -3.16389 0
M  V30 965 C 95.4304 0.845299 -4.39953 0
M  V30 966 C 97.1744 2.42772 -3.48227 0
M  V30 967 C 95.0814 1.62198 -5.68723 0
M  V30 968 H 94.0114 0.353401 -0.666051 0
M  V30 969 H 96.6624 0.190169 -1.82512 0
M  V30 970 H 95.0444 2.50484 -3.06715 0
M  V30 971 H 96.2184 0.0959353 -4.607 0
M  V30 972 H 94.5334 0.244789 -4.1568 0
M  V30 973 H 97.1304 3.01394 -4.41663 0
M  V30 974 H 97.4734 3.15984 -2.71035 0
M  V30 975 H 98.0064 1.70813 -3.5926 0
M  V30 976 H 94.7454 0.933011 -6.48826 0
M  V30 977 H 94.2654 2.34579 -5.52026 0
M  V30 978 H 95.9444 2.18095 -6.09133 0
M  V30 979 N 96.0765 1.50051 0.48192 0
M  V30 980 C 97.3245 1.60181 1.23234 0
M  V30 981 C 97.6455 0.299176 1.92691 0
M  V30 982 O 96.9155 -0.682708 1.83619 0
M  V30 983 H 95.4955 0.590232 0.457859 0
M  V30 984 H 98.1575 1.86775 0.556881 0
M  V30 985 H 97.2535 2.40753 1.98607 0
M  V30 986 N 97.5546 -0.734337 1.39446 0
M  V30 987 C 98.8036 -1.48937 1.36017 0
M  V30 988 C 99.1166 -1.95557 -0.0409005 0
M  V30 989 O 100.323 -2.70779 -0.19778 0
M  V30 990 C 98.7786 -2.69125 2.38955 0
M  V30 991 C 98.3866 -2.29452 3.8478 0
M  V30 992 C 100.131 -3.46944 2.44603 0
M  V30 993 C 98.0376 -3.46366 4.79358 0
M  V30 994 H 96.9676 -0.559296 0.505672 0
M  V30 995 H 99.6186 -0.800983 1.65095 0
M  V30 996 H 98.0006 -3.40041 2.02948 0
M  V30 997 H 99.1746 -1.66077 4.29831 0
M  V30 998 H 97.4896 -1.64723 3.82433 0
M  V30 999 H 100.087 -4.33907 3.12456 0
M  V30 1000 H 100.43 -3.89454 1.47076 0
M  V30 1001 H 100.963 -2.83056 2.79507 0
M  V30 1002 H 97.7016 -3.08905 5.78151 0
M  V30 1003 H 97.2216 -4.08719 4.38986 0
M  V30 1004 H 98.9006 -4.12691 4.98292 0
M  V30 1005 N 99.0327 -1.24633 -0.964593 0
M  V30 1006 C 100.279 -1.08949 -1.71049 0
M  V30 1007 C 100.612 0.370302 -1.90637 0
M  V30 1008 O 99.8867 1.27349 -1.47011 0
M  V30 1009 C 100.17 -1.83329 -3.0994 0
M  V30 1010 C 100.023 -3.37077 -2.97824 0
M  V30 1011 C 101.342 -1.60846 -4.09654 0
M  V30 1012 H 98.4607 -0.397178 -0.620821 0
M  V30 1013 H 101.103 -1.5334 -1.12191 0
M  V30 1014 H 99.2527 -1.45597 -3.60186 0
M  V30 1015 H 100.925 -3.84425 -2.5498 0
M  V30 1016 H 99.1677 -3.65298 -2.33965 0
M  V30 1017 H 99.8387 -3.84324 -3.96231 0
M  V30 1018 H 102.315 -1.93674 -3.68279 0
M  V30 1019 H 101.191 -2.1534 -5.04896 0
M  V30 1020 H 101.452 -0.547434 -4.38698 0
M  V30 1021 N 100.511 1.16574 -1.06058 0
M  V30 1022 C 101.458 2.20883 -0.669263 0
M  V30 1023 C 102.428 1.62729 0.332918 0
M  V30 1024 O 103.613 1.895 0.222346 0
M  V30 1025 C 100.753 3.45049 -0.0593572 0
M  V30 1026 C 99.8658 4.17458 -1.11143 0
M  V30 1027 C 99.0008 5.29135 -0.467916 0
M  V30 1028 C 98.0398 5.93343 -1.50369 0
M  V30 1029 N 97.1768 6.96516 -0.883706 0
M  V30 1030 H 102.017 2.53709 -1.5632 0
M  V30 1031 H 99.5538 1.24616 -0.781625 0
M  V30 1032 H 101.512 4.16033 0.311771 0
M  V30 1033 H 100.142 3.12781 0.797992 0
M  V30 1034 H 99.1938 3.45101 -1.60029 0
M  V30 1035 H 100.506 4.61307 -1.89731 0
M  V30 1036 H 99.6598 6.06684 -0.0436871 0
M  V30 1037 H 98.3988 4.86443 0.349864 0
M  V30 1038 H 97.4038 5.14517 -1.93784 0
M  V30 1039 H 98.6288 6.38114 -2.32352 0
M  V30 1040 H 96.5748 6.55943 -0.086595 0
M  V30 1041 H 96.4918 7.38723 -1.607 0
M  V30 1042 H 97.7598 7.77993 -0.484543 0
M  V30 1043 N 101.989 0.842826 1.3317 0
M  V30 1044 C 102.899 0.281444 2.32906 0
M  V30 1045 C 103.915 -0.594587 1.63526 0
M  V30 1046 O 105.091 -0.49777 1.95152 0
M  V30 1047 C 102.156 -0.530929 3.42611 0
M  V30 1048 C 101.217 0.369843 4.27704 0
M  V30 1049 C 100.45 -0.403853 5.3217 0
M  V30 1050 O 100.673 -1.63513 5.46461 0
M  V30 1051 O 99.6069 0.224199 6.01482 0
M  V30 1052 H 103.433 1.10744 2.82789 0
M  V30 1053 H 101.018 0.60545 1.36582 0
M  V30 1054 H 102.9 -0.992437 4.09547 0
M  V30 1055 H 101.575 -1.33392 2.94938 0
M  V30 1056 H 100.482 0.879275 3.6362 0
M  V30 1057 H 101.815 1.13771 4.78871 0
M  V30 1058 N 103.467 -1.45747 0.599634 0
M  V30 1059 C 104.883 -1.57424 0.26264 0
M  V30 1060 C 105.083 -1.59222 -1.23493 0
M  V30 1061 O 104.139 -1.51825 -2.01756 0
M  V30 1062 C 105.452 -2.86061 0.926795 0
M  V30 1063 C 107 -2.99722 0.901967 0
M  V30 1064 C 107.475 -4.31119 1.54598 0
M  V30 1065 N 108.966 -4.37858 1.5111 0
M  V30 1066 C 109.701 -5.3818 1.97863 0
M  V30 1067 N 109.197 -6.45083 2.52666 0
M  V30 1068 N 110.99 -5.29487 1.88679 0
M  V30 1069 H 103.141 -1.42823 1.57211 0
M  V30 1070 H 105.404 -0.68235 0.658105 0
M  V30 1071 H 105.11 -2.90605 1.98095 0
M  V30 1072 H 104.984 -3.74563 0.445238 0
M  V30 1073 H 107.371 -2.9475 -0.143617 0
M  V30 1074 H 107.452 -2.12652 1.42171 0
M  V30 1075 H 107.096 -4.36849 2.59085 0
M  V30 1076 H 107.026 -5.16992 1.00132 0
M  V30 1077 H 109.517 -3.61209 1.11068 0
M  V30 1078 H 109.83 -7.17869 2.86155 0
M  V30 1079 H 108.175 -6.45856 2.56701 0
M  V30 1080 H 111.366 -4.44877 1.4561 0
M  V30 1081 H 111.539 -6.07524 2.25429 0
M  V30 1082 N 104.945 -0.338344 -1.53925 0
M  V30 1083 C 105.875 0.51328 -2.27789 0
M  V30 1084 C 106.856 1.107 -1.29149 0
M  V30 1085 O 108.041 1.12937 -1.57984 0
M  V30 1086 C 105.171 1.66697 -3.04679 0
M  V30 1087 C 104.125 1.20183 -4.1078 0
M  V30 1088 C 103.451 2.44363 -4.75595 0
M  V30 1089 C 104.751 0.30605 -5.21403 0
M  V30 1090 H 106.445 -0.102883 -2.99223 0
M  V30 1091 H 103.991 -0.0509219 -1.4391 0
M  V30 1092 H 105.944 2.26915 -3.55088 0
M  V30 1093 H 104.668 2.30995 -2.30887 0
M  V30 1094 H 103.327 0.622499 -3.61276 0
M  V30 1095 H 102.975 3.07057 -3.98403 0
M  V30 1096 H 102.675 2.13925 -5.47275 0
M  V30 1097 H 104.199 3.05317 -5.28786 0
M  V30 1098 H 105.613 0.814929 -5.67478 0
M  V30 1099 H 104.01 0.0937929 -6.00027 0
M  V30 1100 H 105.08 -0.65921 -4.80398 0
M  V30 1101 N 106.423 1.57458 -0.0668435 0
M  V30 1102 C 107.671 1.92919 0.602214 0
M  V30 1103 C 107.992 0.947215 1.70449 0
M  V30 1104 O 107.262 -0.00544117 1.95899 0
M  V30 1105 H 105.842 0.71217 0.22544 0
M  V30 1106 H 108.504 1.94508 -0.123535 0
M  V30 1107 H 107.6 2.94589 1.03073 0
M  V30 1108 N 107.901 -0.206675 1.56239 0
M  V30 1109 C 108.848 -1.25617 1.93621 0
M  V30 1110 C 109.818 -1.45824 0.795274 0
M  V30 1111 O 111.003 -1.59148 1.05245 0
M  V30 1112 C 108.143 -2.59839 2.27107 0
M  V30 1113 C 107.256 -2.47308 3.54207 0
M  V30 1114 C 106.391 -3.74155 3.7707 0
M  V30 1115 C 105.43 -3.56407 4.97635 0
M  V30 1116 N 104.567 -4.75238 5.1681 0
M  V30 1117 H 109.407 -0.930383 2.83104 0
M  V30 1118 H 106.944 -0.448065 1.4011 0
M  V30 1119 H 108.902 -3.38021 2.44535 0
M  V30 1120 H 107.532 -2.90485 1.40778 0
M  V30 1121 H 106.584 -1.60483 3.4489 0
M  V30 1122 H 107.896 -2.30122 4.42544 0
M  V30 1123 H 107.05 -4.60778 3.94675 0
M  V30 1124 H 105.789 -3.94282 2.87042 0
M  V30 1125 H 104.794 -2.68168 4.79964 0
M  V30 1126 H 106.019 -3.37736 5.89161 0
M  V30 1127 H 103.965 -4.95651 4.29728 0
M  V30 1128 H 103.882 -4.60835 5.99306 0
M  V30 1129 H 105.15 -5.63246 5.38864 0
M  V30 1130 N 109.379 -1.50304 -0.473955 0
M  V30 1131 C 110.656 -1.51667 -1.23518 0
M  V30 1132 C 111.036 -0.259701 -2.09496 0
M  V30 1133 O 110.384 0.756986 -2.15597 0
M  V30 1134 C 110.594 -2.81082 -2.06868 0
M  V30 1135 C 111.942 -3.31631 -2.65153 0
M  V30 1136 O 112.966 -2.82384 -2.17113 0
M  V30 1137 O 111.825 -4.17471 -3.52675 0
M  V30 1138 H 108.919 -0.60822 -0.560355 0
M  V30 1139 H 111.465 -1.62592 -0.486011 0
M  V30 1140 H 110.237 -3.64041 -1.4349 0
M  V30 1141 H 109.86 -2.73146 -2.88924 0
M  V30 1142 N 110.857 0.726932 -1.39834 0
M  V30 1143 C 112.134 1.47902 -1.28001 0
M  V30 1144 C 112.514 2.1083 0.106789 0
M  V30 1145 O 111.862 1.99242 1.11869 0
M  V30 1146 C 112.072 2.52392 -2.41038 0
M  V30 1147 C 113.42 3.18546 -2.80737 0
M  V30 1148 O 114.444 2.62708 -2.40547 0
M  V30 1149 O 113.303 4.19604 -3.50135 0
M  V30 1150 H 110.397 0.657163 -0.502062 0
M  V30 1151 H 112.943 0.760071 -1.51727 0
M  V30 1152 H 111.715 2.04329 -3.33715 0
M  V30 1153 H 111.338 3.31837 -2.19021 0
M  V30 1154 N 112.336 1.25143 0.95797 0
M  V30 1155 C 113.576 1.10893 1.71703 0
M  V30 1156 C 113.94 -0.34478 1.88879 0
M  V30 1157 O 115.141 -0.609014 2.6181 0
M  V30 1158 C 113.412 1.83889 3.06463 0
M  V30 1159 S 114.971 1.85491 3.97666 0
M  V30 1160 H 111.789 0.396428 0.590226 0
M  V30 1161 H 114.391 1.58618 1.14283 0
M  V30 1162 H 113.095 2.88756 2.9163 0
M  V30 1163 H 112.626 1.36538 3.68946 0
M  V30 1164 H 114.641 0.929553 4.87415 0
M  V30 1165 N 113.814 -1.1601 1.06675 0
M  V30 1166 C 114.724 -2.24156 0.692179 0
M  V30 1167 C 115.74 -1.71507 -0.293513 0
M  V30 1168 O 116.916 -2.009 -0.141861 0
M  V30 1169 C 113.981 -3.46587 0.0884131 0
M  V30 1170 C 113.042 -4.14257 1.12646 0
M  V30 1171 C 112.275 -5.30844 0.551416 0
M  V30 1172 O 112.498 -5.66858 -0.634656 0
M  V30 1173 O 111.432 -5.87848 1.29298 0
M  V30 1174 H 115.258 -2.58513 1.59388 0
M  V30 1175 H 112.843 -1.23599 0.83926 0
M  V30 1176 H 114.725 -4.20679 -0.246361 0
M  V30 1177 H 113.4 -3.13994 -0.786712 0
M  V30 1178 H 112.307 -3.42118 1.51348 0
M  V30 1179 H 113.64 -4.50914 1.97325 0
M  V30 1180 N 115.292 -0.849877 -1.32721 0
M  V30 1181 C 116.708 -0.539102 -1.50219 0
M  V30 1182 C 116.908 0.931271 -1.78689 0
M  V30 1183 O 115.964 1.71455 -1.85363 0
M  V30 1184 C 117.277 -1.42196 -2.64954 0
M  V30 1185 C 118.825 -1.42189 -2.78839 0
M  V30 1186 C 119.3 -2.28985 -3.96648 0
M  V30 1187 N 120.791 -2.26754 -4.03902 0
M  V30 1188 C 121.526 -2.90644 -4.94281 0
M  V30 1189 N 121.022 -3.63629 -5.897 0
M  V30 1190 N 122.815 -2.80057 -4.87365 0
M  V30 1191 H 114.966 -1.80156 -1.12506 0
M  V30 1192 H 117.229 -0.769217 -0.554085 0
M  V30 1193 H 116.935 -2.46733 -2.50631 0
M  V30 1194 H 116.809 -1.10591 -3.60624 0
M  V30 1195 H 119.196 -0.38419 -2.92588 0
M  V30 1196 H 119.277 -1.77807 -1.83898 0
M  V30 1197 H 118.921 -3.32819 -3.83658 0
M  V30 1198 H 118.851 -1.90702 -4.90857 0
M  V30 1199 H 121.342 -1.73688 -3.3562 0
M  V30 1200 H 121.655 -4.09558 -6.55349 0
M  V30 1201 H 120 -3.67737 -5.89741 0
M  V30 1202 H 123.191 -2.22593 -4.11789 0
M  V30 1203 H 123.364 -3.30132 -5.57599 0
M  V30 1204 N 116.77 1.45427 -0.607355 0
M  V30 1205 C 118.018 2.01841 -0.102253 0
M  V30 1206 C 118.339 1.47832 1.27164 0
M  V30 1207 O 117.609 0.672497 1.83995 0
M  V30 1208 H 116.189 0.746188 -0.0348101 0
M  V30 1209 H 118.851 1.78229 -0.7887 0
M  V30 1210 H 117.947 3.12057 -0.0518585 0
M  V30 1211 N 118.248 0.346503 1.53744 0
M  V30 1212 C 119.495 -0.249104 2.00962 0
M  V30 1213 C 119.823 -1.5032 1.23426 0
M  V30 1214 O 119.078 -1.93217 0.310761 0
M  V30 1215 C 119.377 -0.605809 3.52228 0
M  V30 1216 C 119.043 0.551747 4.47512 0
M  V30 1217 C 117.705 0.86941 4.73281 0
M  V30 1218 C 120.057 1.32818 5.03993 0
M  V30 1219 C 117.385 1.96582 5.52786 0
M  V30 1220 C 119.737 2.41486 5.84694 0
M  V30 1221 C 118.401 2.73808 6.08757 0
M  V30 1222 H 117.671 -0.0911538 0.735372 0
M  V30 1223 H 120.318 0.475027 1.85515 0
M  V30 1224 H 118.623 -1.4107 3.65522 0
M  V30 1225 H 120.32 -1.07858 3.86222 0
M  V30 1226 H 116.91 0.294102 4.2759 0
M  V30 1227 H 121.094 1.09602 4.84047 0
M  V30 1228 H 116.35 2.22045 5.69654 0
M  V30 1229 H 120.524 3.02078 6.27473 0
M  V30 1230 H 118.151 3.58892 6.7015 0
M  V30 1231 N 119.726 -1.57421 0.075193 0
M  V30 1232 C 120.656 -2.15942 -0.888324 0
M  V30 1233 C 121.637 -1.08737 -1.30806 0
M  V30 1234 O 122.822 -1.36787 -1.37851 0
M  V30 1235 C 119.952 -2.72379 -2.1547 0
M  V30 1236 C 118.906 -3.8478 -1.87425 0
M  V30 1237 C 118.232 -4.27834 -3.20721 0
M  V30 1238 C 119.532 -5.08869 -1.17684 0
M  V30 1239 H 121.226 -2.96705 -0.400799 0
M  V30 1240 H 118.772 -1.42723 -0.191342 0
M  V30 1241 H 120.725 -3.11965 -2.83295 0
M  V30 1242 H 119.449 -1.88841 -2.6647 0
M  V30 1243 H 118.108 -3.45703 -1.22004 0
M  V30 1244 H 117.756 -3.41214 -3.6957 0
M  V30 1245 H 117.456 -5.03605 -3.02746 0
M  V30 1246 H 118.98 -4.70039 -3.89738 0
M  V30 1247 H 120.394 -5.4575 -1.75584 0
M  V30 1248 H 118.791 -5.8994 -1.09956 0
M  V30 1249 H 119.861 -4.84648 -0.156453 0
M  V30 1250 N 121.204 0.198386 -1.56346 0
M  V30 1251 C 122.134 1.24865 -1.9731 0
M  V30 1252 C 123.115 1.47651 -0.844576 0
M  V30 1253 O 124.3 1.59444 -1.10866 0
M  V30 1254 C 121.43 2.59358 -2.30977 0
M  V30 1255 C 120.384 2.5119 -3.46537 0
M  V30 1256 C 119.71 3.89926 -3.65871 0
M  V30 1257 C 121.01 2.03977 -4.80823 0
M  V30 1258 H 122.704 0.908252 -2.85291 0
M  V30 1259 H 120.25 0.435462 -1.37258 0
M  V30 1260 H 122.203 3.33011 -2.58228 0
M  V30 1261 H 120.927 2.95132 -1.39874 0
M  V30 1262 H 119.586 1.79993 -3.19371 0
M  V30 1263 H 119.234 4.23046 -2.72105 0
M  V30 1264 H 118.934 3.85336 -4.4361 0
M  V30 1265 H 120.458 4.65205 -3.95495 0
M  V30 1266 H 121.872 2.67386 -5.07127 0
M  V30 1267 H 120.269 2.10397 -5.62008 0
M  V30 1268 H 121.339 0.992861 -4.74626 0
M  V30 1269 N 122.682 1.50554 0.465978 0
M  V30 1270 C 123.959 1.5232 1.22712 0
M  V30 1271 C 124.339 0.270807 2.09356 0
M  V30 1272 O 123.687 -0.745541 2.15995 0
M  V30 1273 C 123.897 2.82175 2.05374 0
M  V30 1274 C 125.245 3.33033 2.6339 0
M  V30 1275 O 126.269 2.83531 2.15612 0
M  V30 1276 O 125.128 4.19336 3.50456 0
M  V30 1277 H 122.222 0.611183 0.557122 0
M  V30 1278 H 124.768 1.62847 0.477381 0
M  V30 1279 H 123.54 3.64797 1.41558 0
M  V30 1280 H 123.163 2.74675 2.87471 0
M  V30 1281 N 124.16 -0.719506 1.40217 0
M  V30 1282 C 125.408 -1.47641 1.3801 0
M  V30 1283 C 125.729 -1.94992 -0.018145 0
M  V30 1284 O 124.999 -1.70073 -0.972207 0
M  V30 1285 H 123.579 -0.547744 0.507923 0
M  V30 1286 H 126.241 -0.853187 1.75233 0
M  V30 1287 H 125.337 -2.35112 2.05253 0
M  V30 1288 N 125.638 -1.25649 -0.95132 0
M  V30 1289 C 126.885 -1.10594 -1.69633 0
M  V30 1290 C 127.213 0.352515 -1.91279 0
M  V30 1291 O 126.468 1.27601 -1.4838 0
M  V30 1292 C 126.767 -1.80909 -3.08231 0
M  V30 1293 C 126.433 -3.30825 -3.06375 0
M  V30 1294 C 125.095 -3.71722 -3.05576 0
M  V30 1295 C 127.447 -4.26589 -2.99452 0
M  V30 1296 C 124.775 -5.06788 -2.95606 0
M  V30 1297 C 127.127 -5.61683 -2.91024 0
M  V30 1298 C 125.791 -6.01904 -2.88562 0
M  V30 1299 H 125.061 -0.404691 -0.620731 0
M  V30 1300 H 127.708 -1.55964 -1.11119 0
M  V30 1301 H 126.013 -1.27979 -3.70309 0
M  V30 1302 H 127.71 -1.6671 -3.64704 0
M  V30 1303 H 124.3 -2.98287 -3.07771 0
M  V30 1304 H 128.484 -3.95982 -2.99185 0
M  V30 1305 H 123.74 -5.37126 -2.92071 0
M  V30 1306 H 127.914 -6.35578 -2.84629 0
M  V30 1307 H 125.541 -7.06521 -2.80593 0
M  V30 1308 N 127.117 1.15442 -1.07289 0
M  V30 1309 C 128.528 1.67803 -0.818475 0
M  V30 1310 C 128.879 1.8489 0.656507 0
M  V30 1311 O 128.004 1.55176 1.50829 0
M  V30 1312 C 128.599 3.04805 -1.47917 0
M  V30 1313 C 127.158 3.54245 -1.27229 0
M  V30 1314 C 126.305 2.29986 -1.54925 0
M  V30 1315 H 129.256 0.996646 -1.23502 0
M  V30 1316 H 129.277 3.69702 -0.90005 0
M  V30 1317 H 128.789 2.92336 -2.55267 0
M  V30 1318 H 126.89 3.71956 -0.21899 0
M  V30 1319 H 127.003 4.35723 -1.99203 0
M  V30 1320 H 125.367 2.35496 -0.970242 0
M  V30 1321 H 126.15 2.20105 -2.63455 0
M  V30 1322 N 128.595 0.856903 1.32268 0
M  V30 1323 C 130.011 0.547061 1.49931 0
M  V30 1324 C 130.211 -0.921781 1.7918 0
M  V30 1325 O 129.267 -1.70469 1.8627 0
M  V30 1326 C 130.58 1.43599 2.64196 0
M  V30 1327 C 132.128 1.43665 2.78081 0
M  V30 1328 C 132.603 2.31085 3.95428 0
M  V30 1329 N 134.094 2.28893 4.02694 0
M  V30 1330 C 134.829 2.93262 4.92732 0
M  V30 1331 N 134.325 3.66751 5.87763 0
M  V30 1332 N 136.118 2.82638 4.85873 0
M  V30 1333 H 128.269 1.8075 1.11549 0
M  V30 1334 H 130.532 0.772144 0.549997 0
M  V30 1335 H 130.238 2.48058 2.49319 0
M  V30 1336 H 130.112 1.12502 3.60032 0
M  V30 1337 H 132.499 0.399701 2.92381 0
M  V30 1338 H 132.58 1.7878 1.82952 0
M  V30 1339 H 132.224 3.34849 3.81888 0
M  V30 1340 H 132.154 1.93302 4.89839 0
M  V30 1341 H 134.645 1.75466 3.34694 0
M  V30 1342 H 134.958 4.13027 6.53168 0
M  V30 1343 H 133.303 3.70859 5.87783 0
M  V30 1344 H 136.494 2.24774 4.10602 0
M  V30 1345 H 136.667 3.33084 5.55841 0
M  V30 1346 N 130.073 -1.45103 0.615059 0
M  V30 1347 C 131.301 -2.06553 0.11977 0
M  V30 1348 C 131.716 -1.45842 -1.19898 0
M  V30 1349 O 131.073 -0.575325 -1.73194 0
M  V30 1350 C 131.124 -3.61495 -0.018364 0
M  V30 1351 O 130.845 -4.19942 1.24822 0
M  V30 1352 C 132.346 -4.39947 -0.544237 0
M  V30 1353 H 129.566 -0.667096 0.0722739 0
M  V30 1354 H 132.11 -1.8623 0.84491 0
M  V30 1355 H 130.265 -3.81135 -0.693865 0
M  V30 1356 H 130.679 -5.13204 1.0827 0
M  V30 1357 H 132.153 -5.48838 -0.589953 0
M  V30 1358 H 132.63 -4.10255 -1.56805 0
M  V30 1359 H 133.236 -4.25188 0.0974703 0
M  V30 1360 N 131.551 -0.354651 -1.53558 0
M  V30 1361 C 132.797 0.238797 -2.01389 0
M  V30 1362 C 133.13 1.49309 -1.2418 0
M  V30 1363 O 132.405 1.91638 -0.332457 0
M  V30 1364 C 132.688 0.541771 -3.56001 0
M  V30 1365 C 132.541 -0.725388 -4.43912 0
M  V30 1366 C 133.86 1.34685 -4.18984 0
M  V30 1367 H 130.979 0.0853177 -0.732045 0
M  V30 1368 H 133.621 -0.477384 -1.83905 0
M  V30 1369 H 131.771 1.15189 -3.71031 0
M  V30 1370 H 133.443 -1.36313 -4.407 0
M  V30 1371 H 131.686 -1.34801 -4.12324 0
M  V30 1372 H 132.357 -0.468505 -5.50008 0
M  V30 1373 H 134.833 0.830837 -4.07721 0
M  V30 1374 H 133.709 1.52759 -5.27215 0
M  V30 1375 H 133.97 2.35221 -3.74331 0
M  V30 1376 N 133.029 1.57378 -0.0835403 0
M  V30 1377 C 133.992 2.12252 0.864959 0
M  V30 1378 C 134.992 1.04916 1.21858 0
M  V30 1379 O 136.182 1.30853 1.14991 0
M  V30 1380 C 133.314 2.63358 2.16461 0
M  V30 1381 H 134.507 2.97371 0.388676 0
M  V30 1382 H 132.06 1.55423 0.165317 0
M  V30 1383 H 132.795 1.81727 2.686 0
M  V30 1384 H 132.58 3.41826 1.92087 0
M  V30 1385 H 134.07 3.05847 2.84337 0
M  V30 1386 N 134.507 -0.190092 1.56449 0
M  V30 1387 C 135.439 -1.25973 1.91477 0
M  V30 1388 C 136.452 -1.41452 0.805931 0
M  V30 1389 O 137.641 -1.41789 1.08435 0
M  V30 1390 C 134.741 -2.63117 2.13594 0
M  V30 1391 C 133.914 -2.69182 3.4476 0
M  V30 1392 C 132.973 -3.87557 3.5593 0
M  V30 1393 O 131.999 -3.74427 4.28711 0
M  V30 1394 N 133.201 -5.03224 2.89388 0
M  V30 1395 H 135.966 -0.962394 2.83828 0
M  V30 1396 H 133.527 -0.379981 1.57378 0
M  V30 1397 H 135.519 -3.40742 2.1835 0
M  V30 1398 H 134.089 -2.85319 1.27719 0
M  V30 1399 H 133.309 -1.77793 3.51828 0
M  V30 1400 H 134.597 -2.70229 4.31107 0
M  V30 1401 H 133.995 -5.16791 2.30094 0
M  V30 1402 H 132.552 -5.78778 2.99764 0
M  V30 1403 N 135.985 -1.50799 -0.457987 0
M  V30 1404 C 136.948 -1.7005 -1.53674 0
M  V30 1405 C 137.948 -0.570881 -1.50325 0
M  V30 1406 O 139.138 -0.838126 -1.52712 0
M  V30 1407 C 136.27 -1.73788 -2.93276 0
M  V30 1408 H 137.463 -2.66306 -1.37917 0
M  V30 1409 H 135.016 -1.40477 -0.685271 0
M  V30 1410 H 135.751 -0.792717 -3.14462 0
M  V30 1411 H 135.536 -2.55864 -2.97113 0
M  V30 1412 H 137.026 -1.90591 -3.71571 0
M  V30 1413 N 137.463 0.71206 -1.40597 0
M  V30 1414 C 138.373 1.8562 -1.43466 0
M  V30 1415 C 139.389 1.70902 -0.326902 0
M  V30 1416 O 140.565 1.93105 -0.572043 0
M  V30 1417 C 137.63 3.21451 -1.29884 0
M  V30 1418 C 136.691 3.48398 -2.50833 0
M  V30 1419 C 135.924 4.77749 -2.3789 0
M  V30 1420 O 136.147 5.53089 -1.39459 0
M  V30 1421 O 135.081 5.05111 -3.27333 0
M  V30 1422 H 138.907 1.86155 -2.39958 0
M  V30 1423 H 136.492 0.86295 -1.21957 0
M  V30 1424 H 138.374 4.02579 -1.24531 0
M  V30 1425 H 137.049 3.21636 -0.364997 0
M  V30 1426 H 135.956 2.67265 -2.61763 0
M  V30 1427 H 137.289 3.53014 -3.4299 0
M  V30 1428 N 138.941 1.26152 0.944643 0
M  V30 1429 C 139.904 1.07474 2.0244 0
M  V30 1430 C 140.904 0.0242064 1.60782 0
M  V30 1431 O 142.094 0.267302 1.72137 0
M  V30 1432 C 139.226 0.633956 3.34953 0
M  V30 1433 H 140.419 2.03336 2.20442 0
M  V30 1434 H 137.972 1.087 1.12312 0
M  V30 1435 H 138.707 -0.326811 3.22649 0
M  V30 1436 H 138.492 1.39247 3.66542 0
M  V30 1437 H 139.982 0.52501 4.14287 0
M  V30 1438 N 140.419 -1.14872 1.07899 0
M  V30 1439 C 141.349 -2.2193 0.725887 0
M  V30 1440 C 142.33 -1.67622 -0.28927 0
M  V30 1441 O 143.515 -1.93533 -0.160787 0
M  V30 1442 C 140.645 -3.47061 0.128856 0
M  V30 1443 C 139.599 -4.14363 1.07178 0
M  V30 1444 C 138.925 -5.33636 0.337229 0
M  V30 1445 C 140.225 -4.63492 2.40775 0
M  V30 1446 H 141.919 -2.51724 1.62097 0
M  V30 1447 H 139.465 -1.20991 0.780838 0
M  V30 1448 H 141.418 -4.21199 -0.130147 0
M  V30 1449 H 140.142 -3.16617 -0.80134 0
M  V30 1450 H 138.801 -3.42173 1.3158 0
M  V30 1451 H 138.449 -4.99449 -0.596606 0
M  V30 1452 H 138.149 -5.79609 0.965788 0
M  V30 1453 H 139.673 -6.10539 0.0861567 0
M  V30 1454 H 141.087 -5.2913 2.20669 0
M  V30 1455 H 139.484 -5.20148 2.99276 0
M  V30 1456 H 140.554 -3.78834 3.02676 0
M  V30 1457 N 141.898 -0.863906 -1.31812 0
M  V30 1458 C 142.808 -0.318461 -2.32428 0
M  V30 1459 C 143.824 0.568496 -1.64451 0
M  V30 1460 O 145 0.46666 -1.95919 0
M  V30 1461 C 142.065 0.476355 -3.43412 0
M  V30 1462 C 141.126 -0.43784 -4.27061 0
M  V30 1463 C 140.359 0.319138 -5.32745 0
M  V30 1464 O 140.582 1.54799 -5.48993 0
M  V30 1465 O 139.516 -0.319861 -6.01049 0
M  V30 1466 H 143.342 -1.15229 -2.80991 0
M  V30 1467 H 140.927 -0.627103 -1.35602 0
M  V30 1468 H 142.809 0.927156 -4.11074 0
M  V30 1469 H 141.484 1.28683 -2.97022 0
M  V30 1470 H 140.391 -0.937013 -3.62175 0
M  V30 1471 H 141.724 -1.21375 -4.77 0
M  V30 1472 N 143.376 1.44774 -0.622745 0
M  V30 1473 C 144.286 2.34433 0.0886031 0
M  V30 1474 C 145.302 1.52131 0.844529 0
M  V30 1475 O 146.478 1.84886 0.798691 0
M  V30 1476 C 143.543 3.29986 1.0635 0
M  V30 1477 C 142.604 4.28195 0.307873 0
M  V30 1478 C 141.837 5.19183 1.23633 0
M  V30 1479 O 142.06 5.13918 2.47476 0
M  V30 1480 O 140.994 5.97515 0.725189 0
M  V30 1481 H 144.82 2.96693 -0.648599 0
M  V30 1482 H 142.405 1.44408 -0.382957 0
M  V30 1483 H 144.287 3.88825 1.6246 0
M  V30 1484 H 142.962 2.70269 1.78146 0
M  V30 1485 H 141.869 3.72927 -0.296064 0
M  V30 1486 H 143.202 4.90808 -0.3699 0
M  V30 1487 N 144.854 0.36279 1.53368 0
M  V30 1488 C 146.103 -0.22888 2.00397 0
M  V30 1489 C 146.416 -1.50096 1.25421 0
M  V30 1490 O 147.622 -2.17106 1.63025 0
M  V30 1491 C 146.078 -0.458417 3.56969 0
M  V30 1492 C 145.686 0.798877 4.4082 0
M  V30 1493 C 147.43 -1.00789 4.12361 0
M  V30 1494 C 145.337 0.539078 5.88938 0
M  V30 1495 H 144.267 -0.089305 0.748693 0
M  V30 1496 H 146.918 0.481099 1.77081 0
M  V30 1497 H 145.3 -1.22959 3.76427 0
M  V30 1498 H 146.474 1.57262 4.33134 0
M  V30 1499 H 144.789 1.27137 3.96516 0
M  V30 1500 H 147.386 -1.21754 5.20653 0
M  V30 1501 H 147.729 -1.9692 3.66781 0
M  V30 1502 H 148.262 -0.296961 3.9669 0
M  V30 1503 H 145.001 1.47064 6.3879 0
M  V30 1504 H 144.521 -0.196222 5.99479 0
M  V30 1505 H 146.2 0.163542 6.46793 0
M  V30 1506 N 146.332 -1.57332 0.0918853 0
M  V30 1507 C 147.262 -2.16872 -0.865371 0
M  V30 1508 C 148.243 -1.10118 -1.29646 0
M  V30 1509 O 149.428 -1.38242 -1.36392 0
M  V30 1510 C 146.558 -2.74649 -2.12569 0
M  V30 1511 C 145.512 -3.86747 -1.83333 0
M  V30 1512 C 144.838 -4.31212 -3.16166 0
M  V30 1513 C 146.138 -5.10089 -1.1228 0
M  V30 1514 H 147.832 -2.97114 -0.369307 0
M  V30 1515 H 145.378 -1.42918 -0.176194 0
M  V30 1516 H 147.331 -3.14952 -2.7997 0
M  V30 1517 H 146.055 -1.91657 -2.64452 0
M  V30 1518 H 144.714 -3.46978 -1.18331 0
M  V30 1519 H 144.362 -3.45115 -3.6593 0
M  V30 1520 H 144.062 -5.06788 -2.97388 0
M  V30 1521 H 145.586 -4.74146 -3.84731 0
M  V30 1522 H 147 -5.47582 -1.69785 0
M  V30 1523 H 145.397 -5.91073 -1.03693 0
M  V30 1524 H 146.467 -4.84786 -0.105041 0
M  V30 1525 N 147.81 0.181792 -1.56548 0
M  V30 1526 C 148.72 1.24538 -1.98815 0
M  V30 1527 C 149.736 1.49045 -0.897861 0
M  V30 1528 O 150.912 1.61399 -1.20467 0
M  V30 1529 C 147.977 2.56683 -2.33055 0
M  V30 1530 C 147.038 2.40131 -3.55859 0
M  V30 1531 C 146.271 3.65975 -3.88456 0
M  V30 1532 O 146.494 4.70711 -3.22161 0
M  V30 1533 O 145.428 3.6071 -4.81842 0
M  V30 1534 H 149.254 0.916647 -2.89536 0
M  V30 1535 H 146.839 0.387842 -1.44278 0
M  V30 1536 H 148.721 3.34655 -2.56094 0
M  V30 1537 H 147.396 2.89157 -1.45498 0
M  V30 1538 H 146.303 1.60226 -3.38051 0
M  V30 1539 H 147.636 2.12585 -4.43924 0
M  V30 1540 N 149.288 1.51039 0.449983 0
M  V30 1541 C 150.198 1.74261 1.57067 0
M  V30 1542 C 151.214 0.626363 1.62335 0
M  V30 1543 O 152.39 0.907162 1.79812 0
M  V30 1544 C 149.455 1.85114 2.93144 0
M  V30 1545 C 148.516 3.0893 2.98095 0
M  V30 1546 C 147.749 3.19256 4.27681 0
M  V30 1547 O 147.972 2.35835 5.19363 0
M  V30 1548 O 146.906 4.12144 4.38658 0
M  V30 1549 H 150.732 2.69303 1.40391 0
M  V30 1550 H 148.317 1.35389 0.631688 0
M  V30 1551 H 150.199 1.94311 3.73926 0
M  V30 1552 H 148.874 0.932588 3.09975 0
M  V30 1553 H 147.781 3.0522 2.16314 0
M  V30 1554 H 149.114 4.00433 2.86206 0
M  V30 1555 N 150.766 -0.704594 1.40972 0
M  V30 1556 C 151.996 -1.49138 1.42974 0
M  V30 1557 C 152.404 -1.89175 0.0308406 0
M  V30 1558 O 151.747 -1.56734 -0.958138 0
M  V30 1559 C 151.809 -2.79016 2.26694 0
M  V30 1560 C 151.473 -2.61236 3.74973 0
M  V30 1561 C 152.47 -2.27773 4.67349 0
M  V30 1562 C 150.155 -2.77158 4.18914 0
M  V30 1563 C 152.149 -2.10457 6.01653 0
M  V30 1564 C 149.836 -2.59459 5.53285 0
M  V30 1565 C 150.834 -2.26158 6.4447 0
M  V30 1566 O 150.522 -2.08605 7.76363 0
M  V30 1567 H 150.254 -0.466443 0.489292 0
M  V30 1568 H 152.808 -0.8758 1.85793 0
M  V30 1569 H 151.038 -3.42947 1.78673 0
M  V30 1570 H 152.727 -3.40782 2.20504 0
M  V30 1571 H 153.493 -2.15095 4.34694 0
M  V30 1572 H 149.372 -3.02064 3.48251 0
M  V30 1573 H 152.916 -1.84387 6.72791 0
M  V30 1574 H 148.813 -2.71725 5.85522 0
M  V30 1575 H 149.581 -2.23439 7.87412 0
M  V30 1576 N 152.244 -1.26651 -0.937939 0
M  V30 1577 C 153.492 -1.12165 -1.68118 0
M  V30 1578 C 153.813 0.334983 -1.92101 0
M  V30 1579 O 153.083 1.23583 -1.52 0
M  V30 1580 H 151.663 -0.412093 -0.623048 0
M  V30 1581 H 154.325 -1.59027 -1.12678 0
M  V30 1582 H 153.421 -1.64289 -2.6536 0
M  V30 1583 N 153.722 1.14298 -1.08507 0
M  V30 1584 C 154.669 2.19414 -0.715965 0
M  V30 1585 C 155.639 1.63399 0.298326 0
M  V30 1586 O 156.824 1.89929 0.182101 0
M  V30 1587 C 153.964 3.44845 -0.132534 0
M  V30 1588 C 153.077 4.15007 -1.19973 0
M  V30 1589 C 152.212 5.28024 -0.580048 0
M  V30 1590 C 151.251 5.9002 -1.62921 0
M  V30 1591 N 150.388 6.94485 -1.03125 0
M  V30 1592 H 155.228 2.50336 -1.61666 0
M  V30 1593 H 152.765 1.2293 -0.807882 0
M  V30 1594 H 154.723 4.16601 0.223454 0
M  V30 1595 H 153.353 3.14403 0.731467 0
M  V30 1596 H 152.405 3.41629 -1.67313 0
M  V30 1597 H 153.717 4.57178 -1.99473 0
M  V30 1598 H 152.871 6.06455 -0.172364 0
M  V30 1599 H 151.61 4.87076 0.246603 0
M  V30 1600 H 150.615 5.10291 -2.04654 0
M  V30 1601 H 151.84 6.33042 -2.45835 0
M  V30 1602 H 149.786 6.55612 -0.225711 0
M  V30 1603 H 149.703 7.35148 -1.76334 0
M  V30 1604 H 150.971 7.7679 -0.649458 0
M  V30 1605 N 155.201 0.870884 1.31352 0
M  V30 1606 C 156.612 0.534714 1.78879 0
M  V30 1607 C 156.963 -0.948423 1.71754 0
M  V30 1608 O 156.088 -1.74055 1.28584 0
M  V30 1609 C 156.683 0.963839 3.24801 0
M  V30 1610 C 155.242 0.679311 3.70219 0
M  V30 1611 C 154.389 1.15465 2.52117 0
M  V30 1612 H 157.34 1.05651 1.18421 0
M  V30 1613 H 157.361 0.286892 3.79417 0
M  V30 1614 H 156.873 2.04332 3.29955 0
M  V30 1615 H 154.974 -0.388769 3.70566 0
M  V30 1616 H 155.087 1.25698 4.62317 0
M  V30 1617 H 153.451 0.574383 2.48139 0
M  V30 1618 H 154.234 2.24157 2.60016 0
M  V30 1619 N 156.679 -1.44442 0.630414 0
M  V30 1620 C 157.928 -2.01267 0.132073 0
M  V30 1621 C 158.241 -1.50172 -1.25331 0
M  V30 1622 O 159.447 -1.9912 -1.84562 0
M  V30 1623 C 157.903 -3.59422 0.185362 0
M  V30 1624 C 157.511 -4.19514 1.57201 0
M  V30 1625 C 159.255 -4.23724 -0.256553 0
M  V30 1626 C 157.162 -5.69891 1.58045 0
M  V30 1627 H 156.092 -0.752619 0.0456092 0
M  V30 1628 H 158.743 -1.65666 0.789106 0
M  V30 1629 H 157.125 -3.92318 -0.538759 0
M  V30 1630 H 158.299 -3.98156 2.31966 0
M  V30 1631 H 156.614 -3.67496 1.95795 0
M  V30 1632 H 159.211 -5.34019 -0.269767 0
M  V30 1633 H 159.554 -3.96013 -1.28372 0
M  V30 1634 H 160.087 -3.95629 0.41505 0
M  V30 1635 H 156.826 -6.02336 2.58597 0
M  V30 1636 H 156.346 -5.93373 0.875725 0
M  V30 1637 H 158.025 -6.33515 1.31408 0
M  V30 1638 N 158.157 -0.370918 -1.53173 0
M  V30 1639 C 159.434 0.273754 -1.93675 0
M  V30 1640 C 159.814 1.65938 -1.3049 0
M  V30 1641 O 159.162 2.23698 -0.465999 0
M  V30 1642 C 159.372 0.318602 -3.47543 0
M  V30 1643 C 160.72 0.556392 -4.20939 0
M  V30 1644 O 161.744 0.399587 -3.53952 0
M  V30 1645 O 160.603 0.862133 -5.39657 0
M  V30 1646 H 157.697 0.165448 -0.810281 0
M  V30 1647 H 160.243 -0.42409 -1.64315 0
M  V30 1648 H 159.015 -0.652687 -3.85818 0
M  V30 1649 H 158.638 1.06212 -3.83151 0
M  V30 1650 N 159.635 1.57281 -0.100228 0
M  V30 1651 C 160.865 1.98591 0.569681 0
M  V30 1652 C 161.273 0.978315 1.61943 0
M  V30 1653 O 160.616 -0.0396108 1.83657 0
M  V30 1654 C 160.678 3.36282 1.271 0
M  V30 1655 C 160.342 4.55488 0.371409 0
M  V30 1656 C 161.339 5.18491 -0.382504 0
M  V30 1657 C 159.024 5.01474 0.287965 0
M  V30 1658 C 161.018 6.25852 -1.20779 0
M  V30 1659 C 158.705 6.08701 -0.540965 0
M  V30 1660 C 159.703 6.70755 -1.28749 0
M  V30 1661 O 159.391 7.75914 -2.10269 0
M  V30 1662 H 159.123 0.65752 0.156982 0
M  V30 1663 H 161.677 2.0463 -0.177734 0
M  V30 1664 H 159.907 3.26941 2.0651 0
M  V30 1665 H 161.596 3.62005 1.83595 0
M  V30 1666 H 162.362 4.83891 -0.3278 0
M  V30 1667 H 158.241 4.52932 0.858689 0
M  V30 1668 H 161.785 6.74218 -1.79096 0
M  V30 1669 H 157.682 6.42732 -0.597131 0
M  V30 1670 H 158.45 7.92925 -2.03007 0
M  V30 1671 N 161.113 -0.173488 1.56642 0
M  V30 1672 C 162.359 -0.891784 1.8214 0
M  V30 1673 C 162.692 -1.8199 0.677736 0
M  V30 1674 O 161.967 -1.91842 -0.320446 0
M  V30 1675 C 162.25 -1.68933 3.18015 0
M  V30 1676 C 162.103 -0.784487 4.42906 0
M  V30 1677 C 163.422 -2.65748 3.50808 0
M  V30 1678 H 160.541 -0.322761 0.662567 0
M  V30 1679 H 163.183 -0.158095 1.89341 0
M  V30 1680 H 161.333 -2.31482 3.12007 0
M  V30 1681 H 163.005 -0.172046 4.60979 0
M  V30 1682 H 161.248 -0.0924117 4.33702 0
M  V30 1683 H 161.919 -1.37799 5.34524 0
M  V30 1684 H 164.395 -2.13327 3.57255 0
M  V30 1685 H 163.271 -3.18619 4.4696 0
M  V30 1686 H 163.532 -3.45842 2.75401 0
M  V30 1687 N 162.591 -1.51276 -0.441967 0
M  V30 1688 C 163.84 -1.6295 -1.18871 0
M  V30 1689 C 164.153 -0.349312 -1.92456 0
M  V30 1690 O 165.359 -0.345355 -2.69295 0
M  V30 1691 C 163.815 -2.87759 -2.16155 0
M  V30 1692 C 163.423 -4.22764 -1.48239 0
M  V30 1693 C 165.167 -3.08788 -2.91291 0
M  V30 1694 C 163.074 -5.38728 -2.4398 0
M  V30 1695 H 162.004 -0.606913 -0.447406 0
M  V30 1696 H 164.655 -1.77739 -0.456205 0
M  V30 1697 H 163.037 -2.66593 -2.92821 0
M  V30 1698 H 164.211 -4.54293 -0.771635 0
M  V30 1699 H 162.526 -4.07575 -0.852741 0
M  V30 1700 H 165.123 -3.92599 -3.63002 0
M  V30 1701 H 165.466 -2.21679 -3.5237 0
M  V30 1702 H 165.999 -3.30272 -2.21733 0
M  V30 1703 H 162.738 -6.28082 -1.87598 0
M  V30 1704 H 162.258 -5.1158 -3.13123 0
M  V30 1705 H 163.937 -5.70489 -3.05207 0
M  V30 1706 N 164.069 0.697108 -1.41344 0
M  V30 1707 C 165.017 1.83237 -1.43272 0
M  V30 1708 C 166.011 1.66522 -0.310947 0
M  V30 1709 O 167.217 1.73402 -0.482899 0
M  V30 1710 H 163.592 0.603802 -0.448249 0
M  V30 1711 H 165.563 1.78727 -2.38954 0
M  V30 1712 C 164.312 3.21245 -1.33029 0
M  V30 1713 H 163.635 3.34723 -2.18633 0
M  V30 1714 H 165.075 4.00763 -1.38439 0
M  V30 1715 C 163.534 3.36873 -0.0424635 0
M  V30 1716 O 164.064 3.91177 0.913421 0
M  V30 1717 N 162.27 2.90581 0.0331145 0
M  V30 1718 H 161.817 2.46577 -0.745506 0
M  V30 1719 H 161.775 3.01416 0.894199 0
M  V30 1720 N 165.547 1.27147 0.931209 0
M  V30 1721 C 166.796 1.12664 1.67302 0
M  V30 1722 C 167.109 -0.327718 1.92835 0
M  V30 1723 O 168.315 -0.593392 2.64936 0
M  V30 1724 C 166.771 1.9683 3.01307 0
M  V30 1725 C 166.379 3.46901 2.83485 0
M  V30 1726 C 168.123 1.90985 3.79111 0
M  V30 1727 C 166.03 4.23279 4.13024 0
M  V30 1728 H 164.96 0.41803 0.627509 0
M  V30 1729 H 167.611 1.51539 1.03481 0
M  V30 1730 H 165.993 1.50797 3.66164 0
M  V30 1731 H 167.167 4.00773 2.27415 0
M  V30 1732 H 165.482 3.54088 2.19113 0
M  V30 1733 H 168.079 2.45328 4.75098 0
M  V30 1734 H 168.422 0.882718 4.06834 0
M  V30 1735 H 168.955 2.34895 3.21044 0
M  V30 1736 H 165.694 5.26503 3.90481 0
M  V30 1737 H 165.214 3.74186 4.6877 0
M  V30 1738 H 166.893 4.32265 4.81411 0
M  V30 1739 N 167.025 -1.13721 1.09112 0
M  V30 1740 C 167.935 -2.22638 0.73957 0
M  V30 1741 C 168.951 -1.72091 -0.257068 0
M  V30 1742 O 170.127 -2.01155 -0.0992154 0
M  V30 1743 C 167.192 -3.46322 0.16191 0
M  V30 1744 C 166.253 -4.11775 1.21408 0
M  V30 1745 C 165.486 -5.29555 0.663891 0
M  V30 1746 O 165.709 -5.68077 -0.514274 0
M  V30 1747 O 164.643 -5.84973 1.41738 0
M  V30 1748 H 168.469 -2.55074 1.64836 0
M  V30 1749 H 166.054 -1.21791 0.865289 0
M  V30 1750 H 167.936 -4.21107 -0.157073 0
M  V30 1751 H 166.611 -3.15593 -0.719932 0
M  V30 1752 H 165.518 -3.3883 1.58571 0
M  V30 1753 H 166.851 -4.46627 2.06845 0
M  V30 1754 N 168.503 -0.877838 -1.30888 0
M  V30 1755 C 169.749 -0.493426 -1.96706 0
M  V30 1756 C 170.082 0.953504 -1.6918 0
M  V30 1757 O 169.357 1.67266 -0.992594 0
M  V30 1758 C 169.64 -0.760429 -3.51979 0
M  V30 1759 C 169.493 -2.25747 -3.89048 0
M  V30 1760 C 170.812 -0.232148 -4.39487 0
M  V30 1761 H 167.931 -0.180746 -0.714493 0
M  V30 1762 H 170.573 -1.10052 -1.54882 0
M  V30 1763 H 168.723 -0.243715 -3.87735 0
M  V30 1764 H 170.395 -2.84204 -3.63354 0
M  V30 1765 H 168.638 -2.72694 -3.37373 0
M  V30 1766 H 169.309 -2.39491 -4.97341 0
M  V30 1767 H 171.785 -0.674314 -4.106 0
M  V30 1768 H 170.661 -0.448355 -5.47066 0
M  V30 1769 H 170.922 0.866297 -4.33529 0
M  V30 1770 N 169.982 1.44106 -0.638065 0
M  V30 1771 C 171.259 1.95453 -0.0759321 0
M  V30 1772 C 171.639 1.57984 1.40015 0
M  V30 1773 O 170.987 0.857361 2.11806 0
M  V30 1774 C 171.197 3.47655 -0.306132 0
M  V30 1775 C 172.545 4.24114 -0.203008 0
M  V30 1776 O 173.569 3.55405 -0.237871 0
M  V30 1777 O 172.428 5.46381 -0.113827 0
M  V30 1778 H 169.522 0.826797 0.0183332 0
M  V30 1779 H 172.068 1.54122 -0.710251 0
M  V30 1780 H 170.84 3.68 -1.3301 0
M  V30 1781 H 170.463 3.95949 0.361991 0
M  V30 1782 N 171.46 0.379036 1.52974 0
M  V30 1783 C 172.407 -0.461048 2.26148 0
M  V30 1784 C 173.377 -1.06637 1.27349 0
M  V30 1785 O 174.562 -1.09633 1.56157 0
M  V30 1786 C 171.702 -1.58782 3.06402 0
M  V30 1787 C 170.815 -1.00636 4.20115 0
M  V30 1788 C 169.95 -2.10334 4.87784 0
M  V30 1789 C 168.989 -1.49724 5.93506 0
M  V30 1790 N 168.126 -2.5331 6.54812 0
M  V30 1791 H 172.966 0.169429 2.97518 0
M  V30 1792 H 170.503 0.0953806 1.4679 0
M  V30 1793 H 172.461 -2.25174 3.51215 0
M  V30 1794 H 171.091 -2.18876 2.37261 0
M  V30 1795 H 170.143 -0.232332 3.7969 0
M  V30 1796 H 171.455 -0.523343 4.96047 0
M  V30 1797 H 170.609 -2.84519 5.35849 0
M  V30 1798 H 169.348 -2.61992 4.11353 0
M  V30 1799 H 168.353 -0.740598 5.44789 0
M  V30 1800 H 169.578 -0.988732 6.71864 0
M  V30 1801 H 167.524 -3.04156 5.81227 0
M  V30 1802 H 167.441 -2.09734 7.26325 0
M  V30 1803 H 168.709 -3.27155 7.07524 0
M  V30 1804 N 172.938 -1.57226 0.108567 0
M  V30 1805 C 174.215 -1.86333 -0.594939 0
M  V30 1806 C 174.595 -1.00788 -1.85486 0
M  V30 1807 O 173.943 -0.0839293 -2.28346 0
M  V30 1808 C 174.153 -3.37265 -0.897405 0
M  V30 1809 C 175.501 -4.05629 -1.25501 0
M  V30 1810 O 176.525 -3.42224 -0.987998 0
M  V30 1811 O 175.384 -5.17531 -1.75567 0
M  V30 1812 H 172.478 -0.771018 -0.2991 0
M  V30 1813 H 175.024 -1.69102 0.142283 0
M  V30 1814 H 173.796 -3.913 -0.00413806 0
M  V30 1815 H 173.419 -3.59889 -1.69014 0
M  V30 1816 N 174.416 0.165178 -1.56732 0
M  V30 1817 C 175.662 0.882112 -1.82611 0
M  V30 1818 C 175.995 1.81628 -0.687378 0
M  V30 1819 O 175.27 1.92009 0.310267 0
M  V30 1820 C 175.553 1.67245 -3.18906 0
M  V30 1821 C 175.406 0.760987 -4.43316 0
M  V30 1822 C 176.725 2.63884 -3.52212 0
M  V30 1823 H 173.844 0.319242 -0.664269 0
M  V30 1824 H 176.486 0.148052 -1.89422 0
M  V30 1825 H 174.636 2.29824 -3.1323 0
M  V30 1826 H 176.308 0.147596 -4.61064 0
M  V30 1827 H 174.551 0.0694102 -4.33744 0
M  V30 1828 H 175.222 1.34962 -5.35247 0
M  V30 1829 H 177.698 2.11429 -3.58381 0
M  V30 1830 H 176.574 3.16245 -4.48643 0
M  V30 1831 H 176.835 3.44377 -2.77231 0
M  V30 1832 N 175.894 1.51508 0.433938 0
M  V30 1833 C 176.824 1.76016 1.53429 0
M  V30 1834 C 177.805 0.610112 1.58782 0
M  V30 1835 O 178.99 0.853177 1.74455 0
M  V30 1836 C 176.12 1.88831 2.9148 0
M  V30 1837 C 175.074 3.04288 3.00987 0
M  V30 1838 C 174.4 3.0229 4.4105 0
M  V30 1839 C 175.7 4.44193 2.74754 0
M  V30 1840 H 177.394 2.68152 1.33171 0
M  V30 1841 H 174.94 1.29035 0.639214 0
M  V30 1842 H 176.893 2.04559 3.6842 0
M  V30 1843 H 175.617 0.933455 3.12976 0
M  V30 1844 H 174.276 2.8827 2.26486 0
M  V30 1845 H 173.924 2.04576 4.59519 0
M  V30 1846 H 173.624 3.79822 4.4834 0
M  V30 1847 H 175.148 3.20116 5.1996 0
M  V30 1848 H 176.562 4.60544 3.41426 0
M  V30 1849 H 174.959 5.23457 2.9345 0
M  V30 1850 H 176.029 4.53996 1.70339 0
M  V30 1851 N 177.372 -0.689602 1.41712 0
M  V30 1852 C 178.305 -1.81403 1.3845 0
M  V30 1853 C 179.283 -1.60653 0.250874 0
M  V30 1854 O 180.467 -1.83323 0.43874 0
M  V30 1855 C 177.594 -3.18176 1.1611 0
M  V30 1856 C 176.64 -3.57705 2.3227 0
M  V30 1857 S 177.473 -3.61827 3.94767 0
M  V30 1858 C 178.629 -5.01318 3.74742 0
M  V30 1859 H 178.862 -1.83893 2.33603 0
M  V30 1860 H 176.395 -0.858878 1.28307 0
M  V30 1861 H 178.353 -3.97132 1.03907 0
M  V30 1862 H 177.014 -3.13288 0.225668 0
M  V30 1863 H 176.207 -4.57082 2.12349 0
M  V30 1864 H 175.809 -2.86073 2.40911 0
M  V30 1865 H 178.101 -5.88986 3.34817 0
M  V30 1866 H 179.044 -5.26283 4.73743 0
M  V30 1867 H 179.452 -4.73138 3.07898 0
M  V30 1868 N 178.85 -1.27639 -0.924453 0
M  V30 1869 C 179.76 -1.12466 -2.05885 0
M  V30 1870 C 180.776 -0.053869 -1.73917 0
M  V30 1871 O 181.952 -0.261012 -1.99702 0
M  V30 1872 C 179.017 -0.776768 -3.37886 0
M  V30 1873 C 178.078 -1.92878 -3.83532 0
M  V30 1874 C 177.311 -1.59739 -5.09234 0
M  V30 1875 O 177.534 -0.506782 -5.68144 0
M  V30 1876 O 176.468 -2.43761 -5.50331 0
M  V30 1877 H 180.294 -2.07671 -2.21599 0
M  V30 1878 H 177.879 -1.06857 -1.04413 0
M  V30 1879 H 179.761 -0.596229 -4.17161 0
M  V30 1880 H 178.436 0.145732 -3.23372 0
M  V30 1881 H 177.343 -2.1644 -3.0513 0
M  V30 1882 H 178.676 -2.8316 -4.02593 0
M  V30 1883 N 180.328 1.1314 -1.09713 0
M  V30 1884 C 181.744 1.36477 -0.827423 0
M  V30 1885 C 181.944 1.93654 0.556817 0
M  V30 1886 O 181 2.15791 1.31112 0
M  V30 1887 C 182.313 2.31334 -1.92106 0
M  V30 1888 C 183.861 2.44943 -1.94864 0
M  V30 1889 C 184.336 3.4311 -3.0338 0
M  V30 1890 N 185.827 3.50662 -3.02639 0
M  V30 1891 C 186.562 4.2651 -3.83246 0
M  V30 1892 N 186.058 5.05485 -4.73768 0
M  V30 1893 N 187.851 4.2184 -3.71493 0
M  V30 1894 H 180.002 0.743807 -1.9895 0
M  V30 1895 H 182.265 0.389823 -0.864143 0
M  V30 1896 H 181.971 1.96483 -2.91698 0
M  V30 1897 H 181.845 3.31381 -1.80184 0
M  V30 1898 H 184.232 2.79079 -0.959099 0
M  V30 1899 H 184.313 1.4481 -2.10864 0
M  V30 1900 H 183.957 3.09704 -4.02549 0
M  V30 1901 H 183.887 4.43055 -2.84622 0
M  V30 1902 H 186.378 2.94315 -2.37039 0
M  V30 1903 H 186.691 5.60675 -5.3185 0
M  V30 1904 H 185.036 5.04708 -4.77802 0
M  V30 1905 H 188.227 3.5922 -3.00131 0
M  V30 1906 H 188.4 4.80697 -4.3455 0
M  V30 1907 N 181.806 0.884767 1.30421 0
M  V30 1908 C 182.736 0.367574 2.30589 0
M  V30 1909 C 183.717 -0.549464 1.60981 0
M  V30 1910 O 184.902 -0.46336 1.88591 0
M  V30 1911 C 182.032 -0.418944 3.44764 0
M  V30 1912 C 180.986 0.406316 4.26067 0
M  V30 1913 C 180.312 -0.506793 5.32293 0
M  V30 1914 C 181.612 1.64832 4.95608 0
M  V30 1915 H 183.306 1.20462 2.74097 0
M  V30 1916 H 180.852 0.580695 1.31772 0
M  V30 1917 H 182.805 -0.791395 4.13902 0
M  V30 1918 H 181.529 -1.28964 3.0006 0
M  V30 1919 H 180.188 0.760903 3.58617 0
M  V30 1920 H 179.836 -1.37519 4.83836 0
M  V30 1921 H 179.536 0.0415828 5.87585 0
M  V30 1922 H 181.06 -0.875764 6.04287 0
M  V30 1923 H 182.474 1.34646 5.57264 0
M  V30 1924 H 180.871 2.13688 5.60765 0
M  V30 1925 H 181.941 2.39284 4.21748 0
M  V30 1926 N 183.284 -1.43765 0.645699 0
M  V30 1927 C 184.512 -2.06253 0.163556 0
M  V30 1928 C 184.927 -1.48352 -1.16778 0
M  V30 1929 O 184.284 -0.611932 -1.71935 0
M  V30 1930 C 184.335 -3.61453 0.0583186 0
M  V30 1931 O 184.056 -4.172 1.33702 0
M  V30 1932 C 185.557 -4.41002 -0.450795 0
M  V30 1933 H 182.777 -0.665413 0.0864077 0
M  V30 1934 H 185.321 -1.84396 0.884222 0
M  V30 1935 H 183.476 -3.82522 -0.612865 0
M  V30 1936 H 183.89 -5.10791 1.19131 0
M  V30 1937 H 185.364 -5.49966 -0.473403 0
M  V30 1938 H 185.841 -4.13488 -1.48068 0
M  V30 1939 H 186.447 -4.24886 0.187637 0
M  V30 1940 N 184.763 -0.387143 -1.52771 0
M  V30 1941 C 186.011 0.195349 -2.01154 0
M  V30 1942 C 186.332 1.475 -1.27549 0
M  V30 1943 O 185.602 1.91878 -0.394924 0
M  V30 1944 H 184.182 0.075178 -0.743207 0
M  V30 1945 H 186.844 -0.518337 -1.87881 0
M  V30 1946 H 185.94 0.407096 -3.09434 0
M  V30 1947 N 186.241 1.57166 -0.116904 0
M  V30 1948 C 187.657 1.5779 0.239693 0
M  V30 1949 C 187.857 1.1295 1.66867 0
M  V30 1950 O 186.913 0.81592 2.38954 0
M  V30 1951 C 188.226 3.00699 0.00828202 0
M  V30 1952 C 189.774 3.12912 0.0743438 0
M  V30 1953 C 190.249 4.57817 -0.129348 0
M  V30 1954 N 191.74 4.63139 -0.075247 0
M  V30 1955 C 192.475 5.73023 -0.207788 0
M  V30 1956 N 191.971 6.91665 -0.396382 0
M  V30 1957 N 193.764 5.61906 -0.14751 0
M  V30 1958 H 185.915 1.84615 -1.05029 0
M  V30 1959 H 188.178 0.85311 -0.41341 0
M  V30 1960 H 187.884 3.37784 -0.979531 0
M  V30 1961 H 187.758 3.69848 0.741077 0
M  V30 1962 H 190.145 2.75686 1.05268 0
M  V30 1963 H 190.226 2.4631 -0.690297 0
M  V30 1964 H 189.87 4.95742 -1.10465 0
M  V30 1965 H 189.8 5.22507 0.655253 0
M  V30 1966 H 192.291 3.7784 0.0670898 0
M  V30 1967 H 192.604 7.71255 -0.488437 0
M  V30 1968 H 190.949 6.93654 -0.432329 0
M  V30 1969 H 194.14 4.681 -0.00115036 0
M  V30 1970 H 194.313 6.47501 -0.254247 0
M  V30 1971 N 187.719 -0.156864 1.56817 0
M  V30 1972 C 189.135 -0.50916 1.5126 0
M  V30 1973 C 189.335 -1.83897 0.823658 0
M  V30 1974 O 188.391 -2.49469 0.390055 0
M  V30 1975 C 189.704 -0.52857 2.96018 0
M  V30 1976 C 191.252 -0.614771 3.06903 0
M  V30 1977 C 191.727 -0.664938 4.53147 0
M  V30 1978 N 193.218 -0.727433 4.57452 0
M  V30 1979 C 193.953 -0.787067 5.67973 0
M  V30 1980 N 193.449 -0.806649 6.88088 0
M  V30 1981 N 195.242 -0.827195 5.5598 0
M  V30 1982 H 187.393 0.714935 2.00006 0
M  V30 1983 H 189.656 0.259526 0.911784 0
M  V30 1984 H 189.362 0.380154 3.49639 0
M  V30 1985 H 189.236 -1.36998 3.51442 0
M  V30 1986 H 191.623 -1.51392 2.53307 0
M  V30 1987 H 191.704 0.253597 2.5454 0
M  V30 1988 H 191.348 0.230011 5.07379 0
M  V30 1989 H 191.278 -1.54966 5.03282 0
M  V30 1990 H 193.769 -0.719998 3.70978 0
M  V30 1991 H 194.082 -0.853727 7.6807 0
M  V30 1992 H 192.427 -0.774687 6.90669 0
M  V30 1993 H 195.618 -0.808998 4.61056 0
M  V30 1994 H 195.791 -0.870206 6.4213 0
M  V30 1995 N 189.197 -1.51736 -0.425897 0
M  V30 1996 C 190.446 -1.64201 -1.17136 0
M  V30 1997 C 190.759 -0.369705 -1.92074 0
M  V30 1998 O 191.965 -0.373898 -2.68913 0
M  V30 1999 C 190.421 -2.90035 -2.13091 0
M  V30 2000 C 190.029 -4.24312 -1.43747 0
M  V30 2001 C 191.773 -3.1186 -2.87999 0
M  V30 2002 C 189.68 -5.41285 -2.38253 0
M  V30 2003 H 188.61 -0.611624 -0.440944 0
M  V30 2004 H 191.261 -1.78212 -0.437328 0
M  V30 2005 H 189.643 -2.69684 -2.89977 0
M  V30 2006 H 190.817 -4.55086 -0.723408 0
M  V30 2007 H 189.132 -4.08456 -0.809465 0
M  V30 2008 H 191.729 -3.96427 -3.58817 0
M  V30 2009 H 192.072 -2.25403 -3.49999 0
M  V30 2010 H 192.605 -3.32605 -2.18217 0
M  V30 2011 H 189.344 -6.30037 -1.80925 0
M  V30 2012 H 188.864 -5.14872 -3.0768 0
M  V30 2013 H 190.543 -5.73694 -2.99139 0
M  V30 2014 N 190.675 0.682077 -1.42076 0
M  V30 2015 C 191.915 1.45424 -1.43636 0
M  V30 2016 C 192.279 1.91939 -0.0484001 0
M  V30 2017 O 193.48 2.6873 0.0612514 0
M  V30 2018 C 191.751 2.62427 -2.42625 0
M  V30 2019 S 193.31 3.51379 -2.62827 0
M  V30 2020 H 190.128 0.496779 -0.508657 0
M  V30 2021 H 192.73 0.794645 -1.78621 0
M  V30 2022 H 191.434 2.26481 -3.42249 0
M  V30 2023 H 190.965 3.33266 -2.09039 0
M  V30 2024 H 192.98 4.58141 -1.9058 0
M  V30 2025 N 192.153 1.28127 0.917671 0
M  V30 2026 C 193.378 1.18007 1.70555 0
M  V30 2027 C 193.803 -0.258257 1.86319 0
M  V30 2028 O 193.161 -1.1869 1.37049 0
M  V30 2029 C 193.209 1.87948 3.07746 0
M  V30 2030 O 192.313 1.18427 3.9503 0
M  V30 2031 H 191.654 0.409867 0.522403 0
M  V30 2032 H 194.184 1.69379 1.1477 0
M  V30 2033 H 194.194 1.95701 3.58001 0
M  V30 2034 H 192.869 2.92573 2.95591 0
M  V30 2035 H 191.446 1.18811 3.53466 0
M  V30 2036 N 193.631 -1.12557 1.10312 0
M  V30 2037 C 194.877 -1.84311 0.846011 0
M  V30 2038 C 195.21 -1.83805 -0.626859 0
M  V30 2039 O 194.485 -1.28268 -1.46211 0
M  V30 2040 C 194.768 -3.32048 1.39341 0
M  V30 2041 C 194.621 -3.41016 2.93305 0
M  V30 2042 C 195.94 -4.27764 1.03468 0
M  V30 2043 H 193.059 -0.669192 0.30879 0
M  V30 2044 H 195.701 -1.32057 1.36605 0
M  V30 2045 H 193.851 -3.76678 0.951087 0
M  V30 2046 H 195.523 -3.05031 3.46055 0
M  V30 2047 H 193.766 -2.81603 3.29973 0
M  V30 2048 H 194.437 -4.44948 3.26689 0
M  V30 2049 H 196.913 -3.91253 1.41633 0
M  V30 2050 H 195.789 -5.29549 1.44463 0
M  V30 2051 H 196.05 -4.42064 -0.0560404 0
M  V30 2052 N 195.109 -0.891671 -1.2995 0
M  V30 2053 C 196.349 -0.520296 -1.97667 0
M  V30 2054 C 196.713 0.914797 -1.68806 0
M  V30 2055 O 197.914 1.39263 -2.29911 0
M  V30 2056 C 196.185 -0.795222 -3.48441 0
M  V30 2057 S 197.744 -0.526953 -4.35624 0
M  V30 2058 H 194.562 -0.19333 -0.684211 0
M  V30 2059 H 197.164 -1.15238 -1.57926 0
M  V30 2060 H 195.868 -1.83805 -3.66938 0
M  V30 2061 H 195.399 -0.15095 -3.9311 0
M  V30 2062 H 197.414 0.631533 -4.92165 0
M  V30 2063 N 196.587 1.43421 -0.653314 0
M  V30 2064 C 197.835 2.01414 -0.166415 0
M  V30 2065 C 198.156 1.51803 1.22397 0
M  V30 2066 O 197.426 0.730693 1.81763 0
M  V30 2067 H 196.006 0.744703 -0.0585319 0
M  V30 2068 H 198.668 1.75629 -0.845003 0
M  V30 2069 H 197.764 3.11734 -0.151111 0
M  V30 2070 N 198.065 0.39524 1.52563 0
M  V30 2071 C 199.293 -0.184943 2.06072 0
M  V30 2072 C 199.708 -1.40021 1.26647 0
M  V30 2073 O 199.065 -1.79767 0.314672 0
M  V30 2074 C 199.116 -0.549179 3.57304 0
M  V30 2075 O 198.837 0.617813 4.33722 0
M  V30 2076 C 200.338 -1.18459 4.2718 0
M  V30 2077 H 197.558 -0.0265025 0.670476 0
M  V30 2078 H 200.102 0.562184 1.96621 0
M  V30 2079 H 198.257 -1.2462 3.66809 0
M  V30 2080 H 198.671 0.317091 5.23541 0
M  V30 2081 H 200.145 -1.38976 5.34219 0
M  V30 2082 H 200.622 -2.15368 3.82771 0
M  V30 2083 H 201.228 -0.528163 4.22008 0
M  V30 2084 N 199.544 -1.57102 0.125237 0
M  V30 2085 C 200.772 -1.99761 -0.538797 0
M  V30 2086 C 201.187 -1.00503 -1.59827 0
M  V30 2087 O 200.544 0.00119474 -1.825 0
M  V30 2088 C 200.595 -3.42408 -1.15927 0
M  V30 2089 O 200.316 -4.37869 -0.142143 0
M  V30 2090 C 201.817 -4.00232 -1.90602 0
M  V30 2091 H 199.037 -0.655772 -0.14214 0
M  V30 2092 H 201.581 -2.03383 0.213413 0
M  V30 2093 H 199.736 -3.39706 -1.86223 0
M  V30 2094 H 200.15 -5.21128 -0.593775 0
M  V30 2095 H 201.624 -5.02105 -2.29335 0
M  V30 2096 H 202.101 -3.39721 -2.78363 0
M  V30 2097 H 202.707 -4.06499 -1.25055 0
M  V30 2098 N 201.022 0.148545 -1.56898 0
M  V30 2099 C 202.252 0.875118 -1.8715 0
M  V30 2100 C 202.66 1.75322 -0.711262 0
M  V30 2101 O 202.003 1.80745 0.328151 0
M  V30 2102 C 202.065 1.7844 -3.12089 0
M  V30 2103 C 201.729 1.08361 -4.43967 0
M  V30 2104 C 202.726 0.438247 -5.1805 0
M  V30 2105 C 200.411 1.07358 -4.90693 0
M  V30 2106 C 202.405 -0.20779 -6.37061 0
M  V30 2107 C 200.092 0.42373 -6.09629 0
M  V30 2108 C 201.09 -0.215829 -6.82659 0
M  V30 2109 O 200.778 -0.855378 -7.99336 0
M  V30 2110 H 200.51 0.258504 -0.624621 0
M  V30 2111 H 203.064 0.14652 -2.04877 0
M  V30 2112 H 201.294 2.55389 -2.90367 0
M  V30 2113 H 202.983 2.38279 -3.286 0
M  V30 2114 H 203.749 0.437817 -4.8302 0
M  V30 2115 H 199.628 1.5608 -4.33774 0
M  V30 2116 H 203.172 -0.70758 -6.94002 0
M  V30 2117 H 199.069 0.421822 -6.4412 0
M  V30 2118 H 199.837 -0.756892 -8.14993 0
M  V30 2119 N 202.5 1.5196 0.417844 0
M  V30 2120 C 203.45 1.7106 1.5074 0
M  V30 2121 C 204.434 0.564487 1.50673 0
M  V30 2122 O 205.626 0.821206 1.56797 0
M  V30 2123 C 202.755 1.85677 2.88754 0
M  V30 2124 C 201.841 3.06133 2.93502 0
M  V30 2125 N 202.232 4.28987 2.67962 0
M  V30 2126 C 200.53 3.05787 3.24669 0
M  V30 2127 C 201.231 5.10395 2.79055 0
M  V30 2128 N 200.207 4.45455 3.11561 0
M  V30 2129 H 204.009 2.63696 1.29775 0
M  V30 2130 H 201.523 1.49873 0.625436 0
M  V30 2131 H 203.52 1.97475 3.67164 0
M  V30 2132 H 202.18 0.942348 3.10725 0
M  V30 2133 H 203.191 4.57607 2.4252 0
M  V30 2134 H 199.868 2.2405 3.52289 0
M  V30 2135 H 201.258 6.18247 2.63097 0
M  V30 2136 N 203.978 -0.674533 1.42435 0
M  V30 2137 C 204.908 -1.80009 1.48724 0
M  V30 2138 C 205.889 -1.6659 0.343793 0
M  V30 2139 O 207.074 -1.86007 0.558137 0
M  V30 2140 C 204.204 -3.18306 1.38919 0
M  V30 2141 C 203.158 -3.46461 2.51294 0
M  V30 2142 C 202.484 -4.84335 2.26547 0
M  V30 2143 C 203.784 -3.43328 3.93603 0
M  V30 2144 H 205.478 -1.75004 2.42928 0
M  V30 2145 H 203.024 -0.840533 1.16923 0
M  V30 2146 H 204.977 -3.9678 1.41927 0
M  V30 2147 H 203.701 -3.2399 0.412094 0
M  V30 2148 H 202.36 -2.70348 2.47604 0
M  V30 2149 H 202.008 -4.86669 1.2713 0
M  V30 2150 H 201.708 -5.04136 3.01861 0
M  V30 2151 H 203.232 -5.65094 2.31304 0
M  V30 2152 H 204.646 -4.11772 3.98894 0
M  V30 2153 H 203.043 -3.74664 4.68771 0
M  V30 2154 H 204.113 -2.41897 4.20255 0
M  V30 2155 N 205.456 -1.28612 -0.910864 0
M  V30 2156 C 206.702 -1.16106 -1.66274 0
M  V30 2157 C 207.035 0.289113 -1.92036 0
M  V30 2158 O 206.31 1.21 -1.52281 0
M  V30 2159 C 206.593 -1.96309 -3.01885 0
M  V30 2160 C 206.446 -3.49405 -2.8326 0
M  V30 2161 C 207.765 -1.78076 -4.02463 0
M  V30 2162 H 204.884 -0.423152 -0.603417 0
M  V30 2163 H 207.526 -1.57961 -1.05586 0
M  V30 2164 H 205.676 -1.60742 -3.53687 0
M  V30 2165 H 207.348 -3.94894 -2.38446 0
M  V30 2166 H 205.591 -3.74893 -2.18261 0
M  V30 2167 H 206.262 -4.00784 -3.79574 0
M  V30 2168 H 208.738 -2.0912 -3.59733 0
M  V30 2169 H 207.614 -2.36561 -4.95308 0
M  V30 2170 H 207.875 -0.733008 -4.35981 0
M  V30 2171 N 206.934 1.1197 -1.10907 0
M  V30 2172 C 208.181 1.83588 -0.854507 0
M  V30 2173 C 208.509 1.84357 0.6199 0
M  V30 2174 O 207.764 1.28809 1.47332 0
M  V30 2175 C 208.063 3.30749 -1.35425 0
M  V30 2176 C 207.729 3.50146 -2.84093 0
M  V30 2177 C 206.391 3.55148 -3.2469 0
M  V30 2178 C 208.743 3.56857 -3.79872 0
M  V30 2179 C 206.071 3.6441 -4.59806 0
M  V30 2180 C 208.423 3.6765 -5.14797 0
M  V30 2181 C 207.087 3.7091 -5.54961 0
M  V30 2182 H 206.357 0.671795 -0.312686 0
M  V30 2183 H 209.004 1.32091 -1.38652 0
M  V30 2184 H 207.309 3.84703 -0.742361 0
M  V30 2185 H 209.006 3.8464 -1.1337 0
M  V30 2186 H 205.596 3.46919 -2.51685 0
M  V30 2187 H 209.78 3.52258 -3.49611 0
M  V30 2188 H 205.036 3.65208 -4.9034 0
M  V30 2189 H 209.21 3.71786 -5.88853 0
M  V30 2190 H 206.837 3.7784 -6.59652 0
M  V30 2191 N 208.412 0.89855 1.29475 0
M  V30 2192 C 209.36 0.365253 2.29714 0
M  V30 2193 C 210.354 -0.534993 1.6073 0
M  V30 2194 O 211.56 -0.417921 1.75081 0
M  V30 2195 H 207.935 0.0994853 0.74539 0
M  V30 2196 H 209.906 1.22406 2.72138 0
M  V30 2197 C 208.655 -0.393159 3.4547 0
M  V30 2198 H 207.978 0.290332 3.98744 0
M  V30 2199 H 209.418 -0.731189 4.17648 0
M  V30 2200 C 207.877 -1.59539 2.9673 0
M  V30 2201 O 208.407 -2.69469 2.97908 0
M  V30 2202 N 206.613 -1.43716 2.52575 0
M  V30 2203 H 206.16 -0.542828 2.51816 0
M  V30 2204 H 206.118 -2.24288 2.20323 0
M  V30 2205 N 209.89 -1.43072 0.660911 0
M  V30 2206 C 211.301 -1.84932 0.256348 0
M  V30 2207 C 211.652 -1.55325 -1.19868 0
M  V30 2208 O 210.777 -1.00607 -1.91591 0
M  V30 2209 C 211.372 -3.35684 0.458475 0
M  V30 2210 C 209.931 -3.76245 0.108161 0
M  V30 2211 C 209.078 -2.66749 0.757641 0
M  V30 2212 H 212.029 -1.33116 0.864051 0
M  V30 2213 H 212.05 -3.79365 -0.293683 0
M  V30 2214 H 211.562 -3.572 1.51755 0
M  V30 2215 H 209.663 -3.60338 -0.948014 0
M  V30 2216 H 209.776 -4.76058 0.538992 0
M  V30 2217 H 208.14 -2.53989 0.190185 0
M  V30 2218 H 208.923 -2.91092 1.81989 0
M  V30 2219 N 211.368 -0.403325 -1.52352 0
M  V30 2220 C 212.779 0.0675782 -1.86578 0
M  V30 2221 C 213.13 1.44941 -1.32236 0
M  V30 2222 O 212.255 2.06112 -0.659307 0
M  V30 2223 C 212.85 0.129404 -3.38553 0
M  V30 2224 C 211.409 0.544629 -3.72439 0
M  V30 2225 C 210.556 -0.284551 -2.75836 0
M  V30 2226 H 213.507 -0.620631 -1.46061 0
M  V30 2227 H 213.528 0.94581 -3.68558 0
M  V30 2228 H 213.04 -0.87645 -3.78074 0
M  V30 2229 H 211.141 1.55734 -3.38493 0
M  V30 2230 H 211.254 0.293046 -4.78203 0
M  V30 2231 H 209.618 0.252258 -2.53448 0
M  V30 2232 H 210.401 -1.28865 -3.18196 0
M  V30 2233 N 212.846 1.57033 -0.133567 0
M  V30 2234 C 213.793 2.16074 0.811208 0
M  V30 2235 C 214.763 1.08979 1.2535 0
M  V30 2236 O 215.948 1.36958 1.32843 0
M  V30 2237 C 213.088 2.77595 2.05024 0
M  V30 2238 C 212.201 3.99042 1.65498 0
M  V30 2239 C 211.336 4.48603 2.84479 0
M  V30 2240 C 210.375 5.62547 2.41262 0
M  V30 2241 N 209.512 6.06787 3.53206 0
M  V30 2242 H 214.352 2.96477 0.300906 0
M  V30 2243 H 211.889 1.46462 0.136822 0
M  V30 2244 H 213.847 3.11402 2.77642 0
M  V30 2245 H 212.477 1.99859 2.53488 0
M  V30 2246 H 211.529 3.71302 0.826981 0
M  V30 2247 H 212.841 4.81629 1.29748 0
M  V30 2248 H 211.995 4.84395 3.65303 0
M  V30 2249 H 210.734 3.64995 3.23465 0
M  V30 2250 H 209.739 5.26345 1.58874 0
M  V30 2251 H 210.964 6.47931 2.03377 0
M  V30 2252 H 208.91 5.26117 3.91838 0
M  V30 2253 H 208.827 6.84266 3.21427 0
M  V30 2254 H 210.095 6.4722 4.34427 0
M  V30 2255 N 214.325 -0.140222 1.56975 0
M  V30 2256 C 215.553 -0.866437 1.87884 0
M  V30 2257 C 215.968 -1.74428 0.722517 0
M  V30 2258 O 215.325 -1.79891 -0.30749 0
M  V30 2259 C 215.376 -1.71753 3.18093 0
M  V30 2260 O 215.097 -0.875056 4.29272 0
M  V30 2261 C 216.598 -2.55074 3.62563 0
M  V30 2262 H 213.818 -0.25019 0.622612 0
M  V30 2263 H 216.362 -0.130977 2.0408 0
M  V30 2264 H 214.517 -2.40598 3.03631 0
M  V30 2265 H 214.931 -1.46002 5.03769 0
M  V30 2266 H 216.405 -3.10356 4.5649 0
M  V30 2267 H 216.882 -3.31434 2.88181 0
M  V30 2268 H 217.488 -1.91509 3.79743 0
M  V30 2269 N 215.803 -1.52179 -0.40978 0
M  V30 2270 C 217.214 -1.58377 -0.988615 0
M  V30 2271 C 217.565 -0.423879 -1.91566 0
M  V30 2272 O 216.69 0.455844 -2.11544 0
M  V30 2273 C 217.285 -2.87044 -1.79976 0
M  V30 2274 C 215.844 -2.95722 -2.32863 0
M  V30 2275 C 214.991 -2.53309 -1.12828 0
M  V30 2276 H 217.942 -1.57558 -0.190039 0
M  V30 2277 H 217.963 -2.7236 -2.65707 0
M  V30 2278 H 217.475 -3.71444 -1.12478 0
M  V30 2279 H 215.576 -2.15814 -3.03735 0
M  V30 2280 H 215.689 -3.99951 -2.63773 0
M  V30 2281 H 214.053 -2.07142 -1.48204 0
M  V30 2282 H 214.836 -3.40082 -0.46897 0
M  V30 2283 N 217.281 0.66697 -1.42791 0
M  V30 2284 C 218.529 1.42417 -1.43394 0
M  V30 2285 C 218.85 1.94925 -0.0542373 0
M  V30 2286 O 218.12 1.73564 0.908415 0
M  V30 2287 H 216.7 0.528515 -0.527902 0
M  V30 2288 H 219.362 0.787562 -1.78279 0
M  V30 2289 H 218.458 2.27333 -2.13837 0
M  V30 2290 N 218.759 1.29093 0.90403 0
M  V30 2291 C 220.008 1.16187 1.64874 0
M  V30 2292 C 220.321 -0.286742 1.93487 0
M  V30 2293 O 221.527 -0.537062 2.66135 0
M  V30 2294 C 219.983 2.03177 2.97064 0
M  V30 2295 C 219.591 3.52836 2.76062 0
M  V30 2296 C 221.335 1.98984 3.74974 0
M  V30 2297 C 219.242 4.31945 4.03952 0
M  V30 2298 H 218.172 0.431246 0.618501 0
M  V30 2299 H 220.823 1.53699 1.00243 0
M  V30 2300 H 219.205 1.5853 3.62883 0
M  V30 2301 H 220.379 4.05507 2.18863 0
M  V30 2302 H 218.694 3.58656 2.11553 0
M  V30 2303 H 221.291 2.55351 4.69787 0
M  V30 2304 H 221.634 0.968815 4.0487 0
M  V30 2305 H 222.167 2.41652 3.15989 0
M  V30 2306 H 218.906 5.34667 3.79225 0
M  V30 2307 H 218.426 3.84045 4.60727 0
M  V30 2308 H 220.105 4.42379 4.72133 0
M  V30 2309 N 220.237 -1.11381 1.11499 0
M  V30 2310 C 221.477 -1.84763 0.874188 0
M  V30 2311 C 221.841 -1.82726 -0.589496 0
M  V30 2312 O 223.042 -2.51562 -0.947089 0
M  V30 2313 C 221.313 -3.27931 1.42112 0
M  V30 2314 S 222.872 -4.18557 1.31739 0
M  V30 2315 H 219.69 -0.637115 0.315603 0
M  V30 2316 H 222.292 -1.34097 1.42261 0
M  V30 2317 H 220.996 -3.26978 2.48019 0
M  V30 2318 H 220.527 -3.83665 0.869761 0
M  V30 2319 H 222.542 -4.95396 0.282335 0
M  V30 2320 N 221.715 -0.905404 -1.28997 0
M  V30 2321 C 222.992 -0.453513 -1.9027 0
M  V30 2322 C 223.372 1.06721 -1.82137 0
M  V30 2323 O 222.72 1.91159 -1.25182 0
M  V30 2324 C 222.93 -0.974494 -3.35119 0
M  V30 2325 C 224.278 -1.0216 -4.12127 0
M  V30 2326 O 225.302 -0.922557 -3.44046 0
M  V30 2327 O 224.161 -1.17121 -5.33802 0
M  V30 2328 H 221.255 -0.142347 -0.814657 0
M  V30 2329 H 223.801 -0.995642 -1.37423 0
M  V30 2330 H 222.573 -2.01848 -3.35221 0
M  V30 2331 H 222.196 -0.412706 -3.95452 0
M  V30 2332 N 223.193 1.4272 -0.668489 0
M  V30 2333 C 224.14 2.30796 0.0137489 0
M  V30 2334 C 225.11 1.4561 0.799177 0
M  V30 2335 O 226.295 1.74453 0.772702 0
M  V30 2336 C 223.435 3.31377 0.963507 0
M  V30 2337 C 222.548 4.31655 0.172569 0
M  V30 2338 C 221.683 5.19312 1.1175 0
M  V30 2339 C 220.722 6.11274 0.317886 0
M  V30 2340 N 219.859 6.91504 1.2152 0
M  V30 2341 H 224.699 2.88585 -0.743161 0
M  V30 2342 H 222.236 1.42154 -0.378226 0
M  V30 2343 H 224.194 3.88214 1.52792 0
M  V30 2344 H 222.824 2.75202 1.68712 0
M  V30 2345 H 221.876 3.76988 -0.508374 0
M  V30 2346 H 223.188 4.96779 -0.448527 0
M  V30 2347 H 222.342 5.80851 1.75206 0
M  V30 2348 H 221.081 4.5435 1.77249 0
M  V30 2349 H 220.086 5.48809 -0.329918 0
M  V30 2350 H 221.311 6.78283 -0.332917 0
M  V30 2351 H 219.257 6.29176 1.85671 0
M  V30 2352 H 219.174 7.53209 0.649036 0
M  V30 2353 H 220.442 7.57535 1.83742 0
M  V30 2354 N 224.671 0.411399 1.52136 0
M  V30 2355 C 225.948 -0.222308 1.94333 0
M  V30 2356 C 226.328 -1.6242 1.34844 0
M  V30 2357 O 225.676 -2.22384 0.525145 0
M  V30 2358 C 225.886 -0.226345 3.48265 0
M  V30 2359 C 227.234 -0.444592 4.22266 0
M  V30 2360 O 228.258 -0.305602 3.54887 0
M  V30 2361 O 227.117 -0.718749 5.41753 0
M  V30 2362 H 224.211 -0.143907 0.814383 0
M  V30 2363 H 226.757 0.467506 1.63133 0
M  V30 2364 H 225.529 0.75475 3.83952 0
M  V30 2365 H 225.152 -0.960163 3.85832 0
M  V30 2366 N 226.149 -1.5696 0.141893 0
M  V30 2367 C 227.397 -1.95573 -0.509484 0
M  V30 2368 C 227.718 -1.02746 -1.65736 0
M  V30 2369 O 226.988 -0.0880311 -1.95702 0
M  V30 2370 H 225.568 -0.722115 -0.191205 0
M  V30 2371 H 228.23 -1.93697 0.216196 0
M  V30 2372 H 227.326 -2.99171 -0.889 0
M  V30 2373 N 227.627 0.131896 -1.57047 0
M  V30 2374 C 228.875 0.840269 -1.83804 0
M  V30 2375 C 229.196 1.81017 -0.72512 0
M  V30 2376 O 228.466 1.94272 0.251995 0
M  V30 2377 H 227.046 0.313294 -0.678127 0
M  V30 2378 H 229.708 0.122294 -1.94516 0
M  V30 2379 H 228.804 1.39335 -2.79271 0
M  V30 2380 N 229.106 1.52395 0.401703 0
M  V30 2381 C 230.016 1.7917 1.51444 0
M  V30 2382 C 231.032 0.677691 1.6026 0
M  V30 2383 O 232.208 0.963909 1.76835 0
M  V30 2384 C 229.273 1.94347 2.87107 0
M  V30 2385 C 228.334 3.18257 2.88116 0
M  V30 2386 C 227.567 3.32701 4.17308 0
M  V30 2387 O 227.79 2.52238 5.11598 0
M  V30 2388 O 226.724 4.25891 4.25324 0
M  V30 2389 H 230.55 2.73633 1.31752 0
M  V30 2390 H 228.135 1.3733 0.588296 0
M  V30 2391 H 230.017 2.06109 3.67555 0
M  V30 2392 H 228.692 1.03073 3.06851 0
M  V30 2393 H 227.599 3.11947 2.06494 0
M  V30 2394 H 228.932 4.09336 2.73322 0
M  V30 2395 N 230.584 -0.659388 1.43143 0
M  V30 2396 C 231.514 -1.78422 1.50625 0
M  V30 2397 C 232.495 -1.66216 0.361443 0
M  V30 2398 O 233.68 -1.85404 0.577834 0
M  V30 2399 C 230.81 -3.16815 1.42287 0
M  V30 2400 C 229.764 -3.43777 2.54954 0
M  V30 2401 C 229.09 -4.81905 2.31671 0
M  V30 2402 C 230.39 -3.39134 3.97222 0
M  V30 2403 H 232.084 -1.72417 2.44771 0
M  V30 2404 H 229.63 -0.828084 1.17808 0
M  V30 2405 H 231.583 -3.95253 1.46127 0
M  V30 2406 H 230.307 -3.23534 0.446435 0
M  V30 2407 H 228.966 -2.67707 2.50457 0
M  V30 2408 H 228.614 -4.85294 1.32284 0
M  V30 2409 H 228.314 -5.00906 3.07192 0
M  V30 2410 H 229.838 -5.62609 2.37284 0
M  V30 2411 H 231.252 -4.07518 4.03239 0
M  V30 2412 H 229.649 -3.69671 4.72719 0
M  V30 2413 H 230.719 -2.37426 4.22797 0
M  V30 2414 N 232.062 -1.29571 -0.897171 0
M  V30 2415 C 233.292 -1.20408 -1.67886 0
M  V30 2416 C 233.7 0.237429 -1.87704 0
M  V30 2417 O 233.043 1.17048 -1.41582 0
M  V30 2418 C 233.105 -1.84887 -3.08314 0
M  V30 2419 C 232.769 -3.34189 -3.11716 0
M  V30 2420 C 233.766 -4.30374 -2.91675 0
M  V30 2421 C 231.451 -3.75431 -3.33701 0
M  V30 2422 C 233.445 -5.65776 -2.93557 0
M  V30 2423 C 231.132 -5.10955 -3.35214 0
M  V30 2424 C 232.13 -6.05938 -3.15164 0
M  V30 2425 O 231.818 -7.38987 -3.1647 0
M  V30 2426 H 231.55 -0.418289 -0.531046 0
M  V30 2427 H 234.104 -1.71514 -1.13014 0
M  V30 2428 H 232.334 -1.28295 -3.64798 0
M  V30 2429 H 234.023 -1.70011 -3.6858 0
M  V30 2430 H 234.789 -3.99844 -2.74499 0
M  V30 2431 H 230.668 -3.01953 -3.48347 0
M  V30 2432 H 234.212 -6.39889 -2.77826 0
M  V30 2433 H 230.109 -5.4113 -3.51922 0
M  V30 2434 H 230.877 -7.47823 -3.3272 0
M  V30 2435 N 233.54 1.10788 -1.12088 0
M  V30 2436 C 234.472 2.16816 -0.743213 0
M  V30 2437 C 235.485 1.6119 0.228412 0
M  V30 2438 O 236.674 1.78497 0.0102931 0
M  V30 2439 C 233.774 3.38809 -0.0787313 0
M  V30 2440 C 232.947 4.23885 -1.0789 0
M  V30 2441 C 232.006 5.24334 -0.442713 0
M  V30 2442 O 231.032 5.58497 -1.09864 0
M  V30 2443 N 232.234 5.75079 0.791457 0
M  V30 2444 H 234.999 2.49825 -1.65552 0
M  V30 2445 H 232.56 1.26373 -1.012 0
M  V30 2446 H 234.552 4.03107 0.358766 0
M  V30 2447 H 233.122 3.03805 0.736275 0
M  V30 2448 H 232.342 3.55939 -1.69414 0
M  V30 2449 H 233.63 4.77562 -1.75533 0
M  V30 2450 H 233.028 5.49517 1.3434 0
M  V30 2451 H 231.585 6.4118 1.17183 0
M  V30 2452 N 235.018 0.912232 1.28515 0
M  V30 2453 C 236.434 0.610159 1.47476 0
M  V30 2454 C 236.634 -0.844955 1.82928 0
M  V30 2455 O 235.69 -1.62416 1.93332 0
M  V30 2456 C 237.003 1.54675 2.57868 0
M  V30 2457 C 238.551 1.55331 2.71738 0
M  V30 2458 C 239.026 2.47649 3.85272 0
M  V30 2459 N 240.517 2.45767 3.92623 0
M  V30 2460 C 241.252 3.13896 4.79851 0
M  V30 2461 N 240.748 3.9135 5.71679 0
M  V30 2462 N 242.541 3.02991 4.73448 0
M  V30 2463 H 234.692 1.85318 1.03783 0
M  V30 2464 H 236.955 0.794777 0.516753 0
M  V30 2465 H 236.661 2.5841 2.38574 0
M  V30 2466 H 236.535 1.27671 3.54937 0
M  V30 2467 H 238.922 0.52335 2.90422 0
M  V30 2468 H 239.003 1.86378 1.75205 0
M  V30 2469 H 238.647 3.50745 3.67342 0
M  V30 2470 H 238.577 2.13904 4.81199 0
M  V30 2471 H 241.068 1.89503 3.26951 0
M  V30 2472 H 241.381 4.40359 6.35062 0
M  V30 2473 H 239.726 3.95455 5.71524 0
M  V30 2474 H 242.917 2.41987 4.007 0
M  V30 2475 H 243.09 3.5636 5.41213 0
M  V30 2476 N 236.496 -1.42363 0.676048 0
M  V30 2477 C 237.459 -2.29199 0.00766941 0
M  V30 2478 C 238.459 -1.43389 -0.727745 0
M  V30 2479 O 239.649 -1.64764 -0.56556 0
M  V30 2480 C 236.781 -3.2591 -0.999785 0
M  V30 2481 H 237.974 -2.89794 0.771988 0
M  V30 2482 H 235.527 -1.50024 0.438468 0
M  V30 2483 H 236.262 -2.70256 -1.79255 0
M  V30 2484 H 236.047 -3.89202 -0.475829 0
M  V30 2485 H 237.537 -3.91028 -1.46583 0
M  V30 2486 N 237.974 -0.419461 -1.51915 0
M  V30 2487 C 239.251 0.211999 -1.94448 0
M  V30 2488 C 239.631 1.61703 -1.35703 0
M  V30 2489 O 238.979 2.22102 -0.536931 0
M  V30 2490 C 239.189 0.207872 -3.4838 0
M  V30 2491 C 240.537 0.422192 -4.22496 0
M  V30 2492 O 241.561 0.286778 -3.55044 0
M  V30 2493 O 240.42 0.690009 -5.42126 0
M  V30 2494 H 237.514 0.139586 -0.815135 0
M  V30 2495 H 240.06 -0.476151 -1.62883 0
M  V30 2496 H 238.832 -0.775102 -3.83546 0
M  V30 2497 H 238.455 0.939688 -3.86336 0
M  V30 2498 N 239.452 1.56882 -0.150215 0
M  V30 2499 C 240.729 1.87844 0.545327 0
M  V30 2500 C 241.109 1.0567 1.82749 0
M  V30 2501 O 240.457 0.144442 2.28043 0
M  V30 2502 C 240.667 3.39526 0.80767 0
M  V30 2503 C 242.015 4.08814 1.14703 0
M  V30 2504 O 243.039 3.44723 0.896917 0
M  V30 2505 O 241.898 5.22004 1.61784 0
M  V30 2506 H 238.992 0.778677 0.278553 0
M  V30 2507 H 241.538 1.68666 -0.187068 0
M  V30 2508 H 240.31 3.91173 -0.0996096 0
M  V30 2509 H 239.933 3.64243 1.59413 0
M  V30 2510 N 240.93 -0.123565 1.57115 0
M  V30 2511 C 241.878 -1.17082 2.00984 0
M  V30 2512 C 242.872 -1.43136 0.906009 0
M  V30 2513 O 244.078 -1.43152 1.09121 0
M  V30 2514 H 240.453 -0.394653 0.64012 0
M  V30 2515 H 242.424 -0.774292 2.88179 0
M  V30 2516 C 241.173 -2.49057 2.42623 0
M  V30 2517 H 240.496 -2.29846 3.27125 0
M  V30 2518 H 241.936 -3.20906 2.7712 0
M  V30 2519 C 240.395 -3.11305 1.28805 0
M  V30 2520 O 240.925 -3.97171 0.60153 0
M  V30 2521 N 239.131 -2.71111 1.04628 0
M  V30 2522 H 238.678 -2.01382 1.60634 0
M  V30 2523 H 238.636 -3.1309 0.286685 0
M  V30 2524 N 242.408 -1.52605 -0.393616 0
M  V30 2525 C 243.318 -1.79971 -1.50492 0
M  V30 2526 C 244.334 -0.686181 -1.59899 0
M  V30 2527 O 245.51 -0.973274 -1.76322 0
M  V30 2528 C 242.575 -1.95867 -2.86072 0
M  V30 2529 C 241.636 -3.19781 -2.86424 0
M  V30 2530 C 240.869 -3.34909 -4.15538 0
M  V30 2531 O 241.092 -2.54948 -5.10253 0
M  V30 2532 O 240.026 -4.28141 -4.23059 0
M  V30 2533 H 243.852 -2.74328 -1.30299 0
M  V30 2534 H 241.437 -1.3764 -0.581005 0
M  V30 2535 H 243.319 -2.08056 -3.66457 0
M  V30 2536 H 241.994 -1.04699 -3.063 0
M  V30 2537 H 240.901 -3.13038 -2.04837 0
M  V30 2538 H 242.234 -4.1078 -2.71147 0
M  V30 2539 N 243.887 0.651787 -1.4349 0
M  V30 2540 C 244.797 1.79368 -1.5121 0
M  V30 2541 C 245.813 1.69361 -0.399093 0
M  V30 2542 O 246.989 1.90505 -0.653431 0
M  V30 2543 C 244.054 3.15653 -1.43401 0
M  V30 2544 C 243.115 3.37446 -2.65384 0
M  V30 2545 C 242.348 4.67229 -2.57939 0
M  V30 2546 O 242.571 5.46676 -1.62792 0
M  V30 2547 O 241.505 4.90773 -3.48462 0
M  V30 2548 H 245.331 1.7581 -2.47638 0
M  V30 2549 H 242.916 0.810447 -1.25507 0
M  V30 2550 H 244.798 3.96935 -1.41494 0
M  V30 2551 H 243.473 3.19798 -0.501085 0
M  V30 2552 H 242.38 2.55923 -2.72863 0
M  V30 2553 H 243.713 3.38148 -3.57654 0
M  V30 2554 N 245.365 1.30045 0.890287 0
M  V30 2555 C 246.593 1.21472 1.67487 0
M  V30 2556 C 247.008 -0.223241 1.87476 0
M  V30 2557 O 246.365 -1.14828 1.41847 0
M  V30 2558 C 246.416 1.93394 3.05419 0
M  V30 2559 O 246.137 3.31576 2.86337 0
M  V30 2560 C 247.638 1.91414 3.99844 0
M  V30 2561 H 244.858 0.420604 0.522813 0
M  V30 2562 H 247.402 1.7158 1.11268 0
M  V30 2563 H 245.557 1.47099 3.58386 0
M  V30 2564 H 245.971 3.67929 3.73802 0
M  V30 2565 H 247.445 2.46285 4.94012 0
M  V30 2566 H 247.922 0.891833 4.3005 0
M  V30 2567 H 248.528 2.37496 3.52811 0
M  V30 2568 N 246.843 -1.10192 1.12674 0
M  V30 2569 C 248.089 -1.82475 0.884915 0
M  V30 2570 C 248.422 -1.85093 -0.58773 0
M  V30 2571 O 247.697 -1.3134 -1.43457 0
M  V30 2572 C 247.98 -3.29018 1.46353 0
M  V30 2573 C 247.833 -3.34718 3.00473 0
M  V30 2574 C 249.152 -4.25473 1.12519 0
M  V30 2575 H 246.271 -0.662492 0.322915 0
M  V30 2576 H 248.913 -1.2913 1.39375 0
M  V30 2577 H 247.063 -3.74576 1.03077 0
M  V30 2578 H 248.735 -2.97622 3.52447 0
M  V30 2579 H 246.978 -2.74541 3.35872 0
M  V30 2580 H 247.649 -4.37918 3.36053 0
M  V30 2581 H 250.125 -3.88161 1.499 0
M  V30 2582 H 249.001 -5.26365 1.55663 0
M  V30 2583 H 249.262 -4.42084 0.0377407 0
M  V30 2584 N 248.321 -0.919034 -1.28029 0
M  V30 2585 C 249.546 -0.570357 -1.99403 0
M  V30 2586 C 249.971 0.842486 -1.68178 0
M  V30 2587 O 249.329 1.56391 -0.917141 0
M  V30 2588 C 249.377 -0.792541 -3.51783 0
M  V30 2589 O 248.481 0.145988 -4.12142 0
M  V30 2590 H 247.822 -0.220555 -0.6263 0
M  V30 2591 H 250.352 -1.23592 -1.63053 0
M  V30 2592 H 250.362 -0.704708 -4.01868 0
M  V30 2593 H 249.037 -1.82247 -3.73844 0
M  V30 2594 H 247.614 0.00897528 -3.72899 0
M  V30 2595 N 249.799 1.42003 -0.683588 0
M  V30 2596 C 250.746 2.30798 -0.0107309 0
M  V30 2597 C 251.716 1.4645 0.783688 0
M  V30 2598 O 252.901 1.75263 0.754156 0
M  V30 2599 C 250.041 3.3238 0.928306 0
M  V30 2600 C 249.154 4.31814 0.126776 0
M  V30 2601 C 248.289 5.20468 1.06236 0
M  V30 2602 C 247.328 6.11577 0.253035 0
M  V30 2603 N 246.465 6.92754 1.14179 0
M  V30 2604 H 251.305 2.8778 -0.773727 0
M  V30 2605 H 248.842 1.41745 -0.393283 0
M  V30 2606 H 250.8 3.89813 1.48666 0
M  V30 2607 H 249.43 2.76976 1.65783 0
M  V30 2608 H 248.482 3.76427 -0.54833 0
M  V30 2609 H 249.794 4.96276 -0.501192 0
M  V30 2610 H 248.948 5.82677 1.69035 0
M  V30 2611 H 247.687 4.56204 1.7242 0
M  V30 2612 H 246.692 5.48428 -0.388108 0
M  V30 2613 H 247.917 6.77892 -0.404839 0
M  V30 2614 H 245.863 6.3111 1.78987 0
M  V30 2615 H 245.78 7.53855 0.569111 0
M  V30 2616 H 247.048 7.59441 1.75697 0
M  V30 2617 N 251.277 0.427512 1.51691 0
M  V30 2618 C 252.693 0.0792977 1.59403 0
M  V30 2619 C 252.893 -1.41035 1.43914 0
M  V30 2620 O 251.949 -2.17922 1.27539 0
M  V30 2621 C 253.262 0.590636 2.94842 0
M  V30 2622 C 254.81 0.550215 3.08126 0
M  V30 2623 C 255.285 1.03836 4.46074 0
M  V30 2624 N 256.776 0.995943 4.52366 0
M  V30 2625 C 257.511 1.34463 5.57411 0
M  V30 2626 N 257.007 1.76569 6.69922 0
M  V30 2627 N 258.8 1.26343 5.47717 0
M  V30 2628 H 250.951 1.39687 1.60004 0
M  V30 2629 H 253.214 0.575003 0.753708 0
M  V30 2630 H 252.92 1.63251 3.11516 0
M  V30 2631 H 252.794 0.0102061 3.77199 0
M  V30 2632 H 255.181 -0.482654 2.91126 0
M  V30 2633 H 255.262 1.16693 2.27632 0
M  V30 2634 H 254.906 2.06965 4.63819 0
M  V30 2635 H 254.836 0.398286 5.25092 0
M  V30 2636 H 257.327 0.68661 3.7161 0
M  V30 2637 H 257.64 2.01438 7.46085 0
M  V30 2638 H 255.985 1.80488 6.71155 0
M  V30 2639 H 259.176 0.933209 4.58703 0
M  V30 2640 H 259.349 1.53846 6.29472 0
M  V30 2641 N 252.755 -1.56801 0.158532 0
M  V30 2642 C 253.685 -2.20347 -0.772609 0
M  V30 2643 C 254.666 -1.15518 -1.24859 0
M  V30 2644 O 255.851 -1.43902 -1.30406 0
M  V30 2645 C 252.981 -2.83417 -2.00729 0
M  V30 2646 C 251.935 -3.94174 -1.66765 0
M  V30 2647 C 251.261 -4.44233 -2.97592 0
M  V30 2648 C 252.561 -5.14392 -0.905447 0
M  V30 2649 H 254.255 -2.98413 -0.242959 0
M  V30 2650 H 251.801 -1.43537 -0.115419 0
M  V30 2651 H 253.754 -3.26543 -2.6636 0
M  V30 2652 H 252.478 -2.02701 -2.56086 0
M  V30 2653 H 251.137 -3.51684 -1.03508 0
M  V30 2654 H 250.785 -3.60325 -3.50963 0
M  V30 2655 H 250.485 -5.18945 -2.75626 0
M  V30 2656 H 252.009 -4.90037 -3.64274 0
M  V30 2657 H 253.423 -5.5429 -1.46408 0
M  V30 2658 H 251.82 -5.9494 -0.7853 0
M  V30 2659 H 252.89 -4.84795 0.100668 0
M  V30 2660 N 254.233 0.115231 -1.57178 0
M  V30 2661 C 255.143 1.15994 -2.03918 0
M  V30 2662 C 256.159 1.45103 -0.960268 0
M  V30 2663 O 257.335 1.56144 -1.27204 0
M  V30 2664 C 254.4 2.46568 -2.43732 0
M  V30 2665 C 253.461 2.24822 -3.65723 0
M  V30 2666 C 252.694 3.4917 -4.03629 0
M  V30 2667 O 252.917 4.56623 -3.41835 0
M  V30 2668 O 251.851 3.39949 -4.96708 0
M  V30 2669 H 255.677 0.793019 -2.93164 0
M  V30 2670 H 253.262 0.3263 -1.45793 0
M  V30 2671 H 255.144 3.23492 -2.70057 0
M  V30 2672 H 253.819 2.82726 -1.57631 0
M  V30 2673 H 252.726 1.45744 -3.44542 0
M  V30 2674 H 254.059 1.93566 -4.52541 0
M  V30 2675 N 255.711 1.52812 0.385517 0
M  V30 2676 C 256.957 1.68275 1.13188 0
M  V30 2677 C 257.29 0.423179 1.89533 0
M  V30 2678 O 256.565 -0.579113 1.85679 0
M  V30 2679 C 256.848 2.92001 2.1073 0
M  V30 2680 C 256.701 4.28067 1.38125 0
M  V30 2681 C 258.02 3.11283 3.11113 0
M  V30 2682 H 255.139 0.612352 0.410115 0
M  V30 2683 H 257.781 1.85415 0.414869 0
M  V30 2684 H 255.931 2.77519 2.71874 0
M  V30 2685 H 257.603 4.54324 0.799187 0
M  V30 2686 H 255.846 4.28388 0.683092 0
M  V30 2687 H 256.517 5.10733 2.09417 0
M  V30 2688 H 258.993 3.2482 2.6006 0
M  V30 2689 H 257.869 3.99325 3.76605 0
M  V30 2690 H 258.13 2.25656 3.80173 0
M  V30 2691 N 257.189 -0.644168 1.43834 0
M  V30 2692 C 258.137 -1.77793 1.49974 0
M  V30 2693 C 259.131 -1.65253 0.372536 0
M  V30 2694 O 260.337 -1.7149 0.546924 0
M  V30 2695 H 256.712 -0.58675 0.47035 0
M  V30 2696 H 258.683 -1.69736 2.45423 0
M  V30 2697 C 257.432 -3.16087 1.4486 0
M  V30 2698 H 256.755 -3.26378 2.30905 0
M  V30 2699 H 258.195 -3.95349 1.53217 0
M  V30 2700 C 256.654 -3.36484 0.167463 0
M  V30 2701 O 257.184 -3.94298 -0.767609 0
M  V30 2702 N 255.39 -2.90504 0.0747556 0
M  V30 2703 H 254.937 -2.4364 0.836507 0
M  V30 2704 H 254.895 -3.04527 -0.781714 0
M  V30 2705 N 258.668 -1.30515 -0.883378 0
M  V30 2706 C 259.601 -1.11359 -1.99184 0
M  V30 2707 C 260.579 -0.0207858 -1.62587 0
M  V30 2708 O 261.763 -0.174646 -1.87689 0
M  V30 2709 C 258.89 -0.69871 -3.31415 0
M  V30 2710 C 257.936 -1.79261 -3.86998 0
M  V30 2711 S 258.769 -3.39536 -4.14096 0
M  V30 2712 C 259.925 -2.99954 -5.49344 0
M  V30 2713 H 260.158 -2.052 -2.15128 0
M  V30 2714 H 257.691 -1.14847 -1.03196 0
M  V30 2715 H 259.649 -0.466075 -4.07846 0
M  V30 2716 H 258.31 0.220368 -3.13326 0
M  V30 2717 H 257.503 -1.45464 -4.82552 0
M  V30 2718 H 257.105 -1.97961 -3.17313 0
M  V30 2719 H 259.397 -2.48013 -6.30473 0
M  V30 2720 H 260.34 -3.9442 -5.8808 0
M  V30 2721 H 260.748 -2.37775 -5.1198 0
M  V30 2722 N 260.146 1.09593 -1.13257 0
M  V30 2723 C 261.093 2.1618 -0.808381 0
M  V30 2724 C 262.063 1.64517 0.228754 0
M  V30 2725 O 263.248 1.9053 0.101381 0
M  V30 2726 C 260.388 3.43973 -0.278675 0
M  V30 2727 C 259.501 4.09545 -1.37466 0
M  V30 2728 C 258.636 5.25088 -0.803479 0
M  V30 2729 C 257.675 5.82579 -1.87799 0
M  V30 2730 N 256.812 6.89486 -1.32488 0
M  V30 2731 H 261.652 2.43254 -1.72138 0
M  V30 2732 H 259.189 1.19392 -0.859294 0
M  V30 2733 H 261.147 4.17174 0.0465583 0
M  V30 2734 H 259.777 3.17223 0.597459 0
M  V30 2735 H 258.829 3.34226 -1.81652 0
M  V30 2736 H 260.141 4.48307 -2.18684 0
M  V30 2737 H 259.295 6.05178 -0.429427 0
M  V30 2738 H 258.034 4.87684 0.0397956 0
M  V30 2739 H 257.039 5.01152 -2.26113 0
M  V30 2740 H 258.264 6.22045 -2.72463 0
M  V30 2741 H 256.21 6.54064 -0.503575 0
M  V30 2742 H 256.127 7.27007 -2.07355 0
M  V30 2743 H 257.395 7.73336 -0.978336 0
M  V30 2744 N 261.624 0.925811 1.2754 0
M  V30 2745 C 262.556 0.380753 2.26015 0
M  V30 2746 C 263.569 -0.487485 1.5533 0
M  V30 2747 O 264.758 -0.300413 1.75954 0
M  V30 2748 C 261.858 -0.473259 3.35579 0
M  V30 2749 C 261.031 0.375249 4.35787 0
M  V30 2750 C 260.09 -0.415809 5.24555 0
M  V30 2751 O 259.116 0.175834 5.68928 0
M  V30 2752 N 260.318 -1.71607 5.54555 0
M  V30 2753 H 263.083 1.22725 2.73421 0
M  V30 2754 H 260.644 0.793037 1.41147 0
M  V30 2755 H 262.636 -1.00949 3.91907 0
M  V30 2756 H 261.206 -1.2205 2.87789 0
M  V30 2757 H 260.426 1.09279 3.7875 0
M  V30 2758 H 261.714 0.955399 4.99749 0
M  V30 2759 H 261.112 -2.2191 5.20358 0
M  V30 2760 H 259.669 -2.19887 6.1359 0
M  V30 2761 N 263.102 -1.41638 0.69111 0
M  V30 2762 C 264.33 -2.05628 0.22909 0
M  V30 2763 C 264.745 -1.51992 -1.11999 0
M  V30 2764 O 264.102 -0.666322 -1.69901 0
M  V30 2765 C 264.153 -3.61084 0.173283 0
M  V30 2766 O 263.874 -4.12735 1.46907 0
M  V30 2767 C 265.375 -4.42213 -0.310266 0
M  V30 2768 H 262.595 -0.662327 0.107534 0
M  V30 2769 H 265.139 -1.81489 0.942438 0
M  V30 2770 H 263.294 -3.84278 -0.490858 0
M  V30 2771 H 263.708 -5.06743 1.35322 0
M  V30 2772 H 265.182 -5.51194 -0.298196 0
M  V30 2773 H 265.659 -4.1799 -1.34838 0
M  V30 2774 H 266.265 -4.24074 0.322716 0
M  V30 2775 N 264.58 -0.43555 -1.51462 0
M  V30 2776 C 265.512 0.41257 -2.25456 0
M  V30 2777 C 266.525 0.987822 -1.29406 0
M  V30 2778 O 267.714 0.882266 -1.55172 0
M  V30 2779 C 264.814 1.58894 -2.99342 0
M  V30 2780 C 263.987 1.13288 -4.22474 0
M  V30 2781 C 263.046 2.17917 -4.78956 0
M  V30 2782 O 262.072 1.77425 -5.40841 0
M  V30 2783 N 263.274 3.50382 -4.62832 0
M  V30 2784 H 266.039 -0.221603 -2.9888 0
M  V30 2785 H 263.6 -0.264342 -1.59727 0
M  V30 2786 H 265.592 2.28508 -3.34015 0
M  V30 2787 H 264.162 2.12849 -2.28941 0
M  V30 2788 H 263.382 0.263881 -3.93316 0
M  V30 2789 H 264.67 0.805542 -5.02383 0
M  V30 2790 H 264.068 3.86013 -4.13534 0
M  V30 2791 H 262.625 4.15895 -5.01871 0
M  V30 2792 N 266.058 1.56714 -0.166846 0
M  V30 2793 C 267.469 1.83378 0.350646 0
M  V30 2794 C 267.82 1.08646 1.63372 0
M  V30 2795 O 266.945 0.338058 2.13743 0
M  V30 2796 C 267.54 3.32643 0.642963 0
M  V30 2797 C 266.099 3.59818 1.10491 0
M  V30 2798 C 265.246 2.76954 0.138411 0
M  V30 2799 H 268.197 1.53803 -0.391193 0
M  V30 2800 H 268.218 3.49878 1.49551 0
M  V30 2801 H 267.73 3.87007 -0.291055 0
M  V30 2802 H 265.831 3.1086 2.05418 0
M  V30 2803 H 265.944 4.68178 1.01716 0
M  V30 2804 H 264.308 2.4666 0.634911 0
M  V30 2805 H 265.091 3.34097 -0.789549 0
M  V30 2806 N 267.536 -0.106894 1.57237 0
M  V30 2807 C 268.466 -1.13148 2.04254 0
M  V30 2808 C 269.447 -1.42476 0.929224 0
M  V30 2809 O 270.632 -1.52709 1.19973 0
M  V30 2810 C 267.762 -2.4545 2.45706 0
M  V30 2811 C 266.716 -2.30558 3.60592 0
M  V30 2812 C 266.042 -3.67931 3.87983 0
M  V30 2813 C 267.342 -1.75597 4.91897 0
M  V30 2814 H 269.036 -0.740374 2.90101 0
M  V30 2815 H 266.582 -0.354696 1.39563 0
M  V30 2816 H 268.535 -3.17389 2.77205 0
M  V30 2817 H 267.259 -2.86475 1.56843 0
M  V30 2818 H 265.918 -1.61067 3.29322 0
M  V30 2819 H 265.566 -4.06462 2.96306 0
M  V30 2820 H 265.266 -3.58817 4.65322 0
M  V30 2821 H 266.79 -4.41356 4.21945 0
M  V30 2822 H 268.204 -2.37364 5.21854 0
M  V30 2823 H 266.601 -1.77272 5.73319 0
M  V30 2824 H 267.671 -0.714451 4.79608 0
M  V30 2825 N 269.014 -1.53014 -0.377408 0
M  V30 2826 C 269.944 -1.81589 -1.46791 0
M  V30 2827 C 270.925 -0.668622 -1.56408 0
M  V30 2828 O 272.11 -0.917337 -1.71168 0
M  V30 2829 C 269.24 -1.99519 -2.8427 0
M  V30 2830 C 268.194 -3.15249 -2.89486 0
M  V30 2831 C 267.52 -3.18451 -4.29527 0
M  V30 2832 C 268.82 -4.54084 -2.58079 0
M  V30 2833 H 270.514 -2.7291 -1.23127 0
M  V30 2834 H 268.06 -1.31319 -0.590883 0
M  V30 2835 H 270.013 -2.18092 -3.60575 0
M  V30 2836 H 268.737 -1.04897 -3.09296 0
M  V30 2837 H 267.396 -2.96477 -2.15631 0
M  V30 2838 H 267.044 -2.2149 -4.5161 0
M  V30 2839 H 266.744 -3.962 -4.33934 0
M  V30 2840 H 268.268 -3.39193 -5.07721 0
M  V30 2841 H 269.682 -4.72899 -3.24098 0
M  V30 2842 H 268.079 -5.33987 -2.7382 0
M  V30 2843 H 269.149 -4.60006 -1.53372 0
M  V30 2844 N 270.492 0.636531 -1.44174 0
M  V30 2845 C 271.769 1.39463 -1.37148 0
M  V30 2846 C 272.149 2.11082 -0.027507 0
M  V30 2847 O 271.497 2.05954 0.989716 0
M  V30 2848 C 271.707 2.36552 -2.56601 0
M  V30 2849 C 273.055 3.00048 -3.00427 0
M  V30 2850 O 274.079 2.46878 -2.56767 0
M  V30 2851 O 272.938 3.96488 -3.76111 0
M  V30 2852 H 270.032 0.623903 -0.542839 0
M  V30 2853 H 272.578 0.662039 -1.56253 0
M  V30 2854 H 271.35 1.82692 -3.46034 0
M  V30 2855 H 270.973 3.17236 -2.39681 0
M  V30 2856 N 271.97 1.30982 0.876444 0
M  V30 2857 C 273.217 1.20296 1.62896 0
M  V30 2858 C 273.545 -0.240395 1.93009 0
M  V30 2859 O 272.8 -1.18733 1.55567 0
M  V30 2860 C 273.099 1.98572 2.9716 0
M  V30 2861 C 272.765 3.48125 2.86566 0
M  V30 2862 C 271.427 3.88905 2.83383 0
M  V30 2863 C 273.779 4.43322 2.74071 0
M  V30 2864 C 271.107 5.2316 2.65556 0
M  V30 2865 C 273.459 5.77695 2.57781 0
M  V30 2866 C 272.123 6.17704 2.52979 0
M  V30 2867 H 271.393 0.440193 0.59608 0
M  V30 2868 H 274.04 1.62177 1.01837 0
M  V30 2869 H 272.345 1.49352 3.62217 0
M  V30 2870 H 274.042 1.8769 3.54364 0
M  V30 2871 H 270.632 3.15723 2.89856 0
M  V30 2872 H 274.816 4.12752 2.75589 0
M  V30 2873 H 270.072 5.53241 2.60259 0
M  V30 2874 H 274.246 6.51091 2.47089 0
M  V30 2875 H 271.873 7.21678 2.38924 0
M  V30 2876 N 273.449 -1.08991 1.13837 0
M  V30 2877 C 274.679 -1.84743 0.924859 0
M  V30 2878 C 275.087 -1.81629 -0.529874 0
M  V30 2879 O 274.43 -1.21397 -1.37872 0
M  V30 2880 C 274.492 -3.33568 1.34061 0
M  V30 2881 C 274.156 -3.60425 2.80968 0
M  V30 2882 C 275.153 -3.55771 3.79108 0
M  V30 2883 C 272.838 -3.88627 3.18236 0
M  V30 2884 C 274.832 -3.78939 5.12527 0
M  V30 2885 C 272.519 -4.11449 4.51833 0
M  V30 2886 C 273.517 -4.06598 5.48787 0
M  V30 2887 O 273.205 -4.28826 6.79973 0
M  V30 2888 H 272.937 -0.590258 0.329502 0
M  V30 2889 H 275.491 -1.38598 1.51591 0
M  V30 2890 H 273.721 -3.80442 0.692853 0
M  V30 2891 H 275.41 -3.90743 1.09886 0
M  V30 2892 H 276.176 -3.34005 3.51661 0
M  V30 2893 H 272.055 -3.91526 2.43369 0
M  V30 2894 H 275.599 -3.75068 5.88192 0
M  V30 2895 H 271.496 -4.32698 4.79002 0
M  V30 2896 H 272.264 -4.46264 6.86142 0
M  V30 2897 N 274.927 -0.932562 -1.27047 0
M  V30 2898 C 276.152 -0.591474 -1.98787 0
M  V30 2899 C 276.577 0.824601 -1.69062 0
M  V30 2900 O 275.935 1.5541 -0.933677 0
M  V30 2901 C 275.983 -0.829808 -3.50922 0
M  V30 2902 O 275.087 0.102266 -4.12273 0
M  V30 2903 H 274.428 -0.227185 -0.623926 0
M  V30 2904 H 276.958 -1.25314 -1.61733 0
M  V30 2905 H 276.968 -0.747292 -4.01098 0
M  V30 2906 H 275.643 -1.86201 -3.7189 0
M  V30 2907 H 274.22 -0.0305761 -3.72887 0
M  V30 2908 N 276.405 1.4127 -0.698611 0
M  V30 2909 C 277.315 2.34573 -0.0357891 0
M  V30 2910 C 278.331 1.56393 0.762701 0
M  V30 2911 O 279.507 1.8886 0.699564 0
M  V30 2912 C 276.572 3.35159 0.887089 0
M  V30 2913 C 275.633 4.29225 0.0804634 0
M  V30 2914 C 274.866 5.25006 0.959387 0
M  V30 2915 O 275.089 5.26314 2.19886 0
M  V30 2916 O 274.023 6.00519 0.407439 0
M  V30 2917 H 277.849 2.92838 -0.804957 0
M  V30 2918 H 275.434 1.42175 -0.458966 0
M  V30 2919 H 277.316 3.9689 1.41621 0
M  V30 2920 H 275.991 2.79333 1.6357 0
M  V30 2921 H 274.898 3.70833 -0.493328 0
M  V30 2922 H 276.231 4.88157 -0.629547 0
M  V30 2923 N 277.883 0.443576 1.51229 0
M  V30 2924 C 278.83 -0.364716 2.279 0
M  V30 2925 C 279.8 -1.0114 1.31757 0
M  V30 2926 O 280.985 -1.02912 1.60667 0
M  V30 2927 C 278.125 -1.45644 3.12861 0
M  V30 2928 C 277.238 -0.827269 4.24005 0
M  V30 2929 C 276.373 -1.89456 4.96266 0
M  V30 2930 C 275.412 -1.24416 5.99322 0
M  V30 2931 N 274.549 -2.25309 6.64966 0
M  V30 2932 H 279.389 0.295464 2.96532 0
M  V30 2933 H 276.926 0.157554 1.46254 0
M  V30 2934 H 278.884 -2.10076 3.6045 0
M  V30 2935 H 277.514 -2.08616 2.46331 0
M  V30 2936 H 276.566 -0.0710839 3.80334 0
M  V30 2937 H 277.878 -0.312481 4.9782 0
M  V30 2938 H 277.032 -2.61535 5.47434 0
M  V30 2939 H 275.771 -2.4431 4.22095 0
M  V30 2940 H 274.776 -0.508868 5.4744 0
M  V30 2941 H 276.001 -0.702882 6.75453 0
M  V30 2942 H 273.947 -2.79231 5.93604 0
M  V30 2943 H 273.864 -1.78739 7.34567 0
M  V30 2944 H 275.132 -2.96853 7.20763 0
M  V30 2945 N 279.361 -1.56624 0.175154 0
M  V30 2946 C 280.609 -1.96609 -0.467885 0
M  V30 2947 C 280.93 -1.06238 -1.63519 0
M  V30 2948 O 280.2 -0.129523 -1.95471 0
M  V30 2949 H 278.78 -0.726008 -0.175845 0
M  V30 2950 H 281.442 -1.93195 0.257234 0
M  V30 2951 H 280.538 -3.00989 -0.825342 0
M  V30 2952 N 280.839 0.0985539 -1.57292 0
M  V30 2953 C 282.069 0.815135 -1.8984 0
M  V30 2954 C 282.477 1.7297 -0.766679 0
M  V30 2955 O 281.82 1.81698 0.270483 0
M  V30 2956 C 281.882 1.6842 -3.17608 0
M  V30 2957 C 281.546 0.94182 -4.4719 0
M  V30 2958 C 282.543 0.273212 -5.19182 0
M  V30 2959 C 280.228 0.916927 -4.9386 0
M  V30 2960 C 282.222 -0.410361 -6.36078 0
M  V30 2961 C 279.909 0.229567 -6.10669 0
M  V30 2962 C 280.907 -0.432902 -6.81627 0
M  V30 2963 O 280.595 -1.10925 -7.9621 0
M  V30 2964 H 280.327 0.238501 -0.632529 0
M  V30 2965 H 282.881 0.0812659 -2.05239 0
M  V30 2966 H 281.111 2.46022 -2.98345 0
M  V30 2967 H 282.8 2.27704 -3.36015 0
M  V30 2968 H 283.566 0.283927 -4.84168 0
M  V30 2969 H 279.445 1.42201 -4.3852 0
M  V30 2970 H 282.989 -0.928013 -6.914 0
M  V30 2971 H 278.886 0.216686 -6.45136 0
M  V30 2972 H 279.654 -1.01579 -8.12172 0
M  V30 2973 N 282.317 1.53212 0.369288 0
M  V30 2974 C 283.247 1.82365 1.45826 0
M  V30 2975 C 284.228 0.676907 1.56051 0
M  V30 2976 O 285.413 0.926401 1.70679 0
M  V30 2977 C 282.543 2.01023 2.83208 0
M  V30 2978 C 281.497 3.1678 2.8781 0
M  V30 2979 C 280.823 3.20724 4.27832 0
M  V30 2980 C 282.123 4.55447 2.55667 0
M  V30 2981 H 283.817 2.73559 1.21678 0
M  V30 2982 H 281.363 1.3163 0.583911 0
M  V30 2983 H 283.316 2.20001 3.59413 0
M  V30 2984 H 282.04 1.06536 3.08736 0
M  V30 2985 H 280.699 2.97616 2.14056 0
M  V30 2986 H 280.347 2.23882 4.50429 0
M  V30 2987 H 280.047 3.98496 4.31827 0
M  V30 2988 H 281.571 3.41881 5.05915 0
M  V30 2989 H 282.985 4.74611 3.21586 0
M  V30 2990 H 281.382 5.35432 2.70984 0
M  V30 2991 H 282.452 4.60812 1.5093 0
M  V30 2992 N 283.795 -0.628877 1.44509 0
M  V30 2993 C 284.758 -1.72263 1.51188 0
M  V30 2994 C 285.758 -1.55907 0.39367 0
M  V30 2995 O 286.948 -1.61361 0.656377 0
M  V30 2996 C 284.08 -3.11365 1.38798 0
M  V30 2997 H 285.273 -1.67714 2.4862 0
M  V30 2998 H 282.826 -0.842737 1.31634 0
M  V30 2999 H 283.561 -3.21507 0.424693 0
M  V30 3000 H 283.346 -3.24644 2.19884 0
M  V30 3001 H 284.836 -3.91075 1.46458 0
M  V30 3002 N 285.273 -1.31445 -0.869486 0
M  V30 3003 C 286.221 -1.19067 -1.99814 0
M  V30 3004 C 287.215 -0.0988569 -1.69111 0
M  V30 3005 O 288.421 -0.260781 -1.78101 0
M  V30 3006 H 284.796 -0.368677 -0.655425 0
M  V30 3007 H 286.767 -2.14555 -2.07385 0
M  V30 3008 C 285.516 -0.915323 -3.35436 0
M  V30 3009 H 284.839 -1.74759 -3.59582 0
M  V30 3010 H 286.279 -0.868895 -4.15001 0
M  V30 3011 C 284.738 0.381928 -3.34728 0
M  V30 3012 O 285.268 1.39857 -3.76567 0
M  V30 3013 N 283.474 0.398633 -2.87853 0
M  V30 3014 H 283.021 -0.429186 -2.54 0
M  V30 3015 H 282.979 1.26651 -2.87762 0
M  V30 3016 N 286.751 1.08385 -1.14413 0
M  V30 3017 C 287.997 1.81044 -0.913834 0
M  V30 3018 C 288.33 1.86004 0.558209 0
M  V30 3019 O 287.605 1.33606 1.4135 0
M  V30 3020 C 287.888 3.26648 -1.51569 0
M  V30 3021 C 287.741 3.29895 -3.0576 0
M  V30 3022 C 289.06 4.23629 -1.19273 0
M  V30 3023 H 286.179 0.65727 -0.333414 0
M  V30 3024 H 288.821 1.26896 -1.41412 0
M  V30 3025 H 286.971 3.72889 -1.09023 0
M  V30 3026 H 288.643 2.91977 -3.57137 0
M  V30 3027 H 286.886 2.69163 -3.40197 0
M  V30 3028 H 287.557 4.32516 -3.42977 0
M  V30 3029 H 290.033 3.85727 -1.56057 0
M  V30 3030 H 288.909 5.23822 -1.64017 0
M  V30 3031 H 289.17 4.41968 -0.108068 0
M  V30 3032 N 288.23 0.939286 1.26551 0
M  V30 3033 C 289.178 0.43815 2.28436 0
M  V30 3034 C 290.172 -0.483587 1.62351 0
M  V30 3035 O 291.378 -0.362009 1.76322 0
M  V30 3036 H 287.753 0.123149 0.741848 0
M  V30 3037 H 289.724 1.31002 2.68106 0
M  V30 3038 C 288.473 -0.283052 3.46546 0
M  V30 3039 H 287.796 0.417043 3.97619 0
M  V30 3040 H 289.236 -0.597948 4.19763 0
M  V30 3041 C 287.695 -1.50018 3.01656 0
M  V30 3042 O 288.225 -2.59855 3.0633 0
M  V30 3043 N 286.431 -1.35608 2.57019 0
M  V30 3044 H 285.978 -0.46244 2.53415 0
M  V30 3045 H 285.936 -2.17165 2.27347 0
M  V30 3046 N 289.708 -1.40897 0.706093 0
M  V30 3047 C 290.956 -2.00657 0.241054 0
M  V30 3048 C 291.277 -1.56241 -1.16678 0
M  V30 3049 O 290.547 -0.79765 -1.78926 0
M  V30 3050 H 289.127 -0.742018 0.0861308 0
M  V30 3051 H 291.789 -1.72372 0.909604 0
M  V30 3052 H 290.885 -3.10958 0.266705 0
M  V30 3053 N 291.186 -0.45159 -1.50991 0
M  V30 3054 C 292.118 0.388634 -2.25881 0
M  V30 3055 C 293.131 0.974041 -1.30446 0
M  V30 3056 O 294.32 0.865758 -1.56099 0
M  V30 3057 C 291.42 1.5571 -3.01011 0
M  V30 3058 C 290.593 1.08801 -4.23652 0
M  V30 3059 C 289.652 2.12825 -4.8124 0
M  V30 3060 O 288.678 1.71678 -5.42693 0
M  V30 3061 N 289.88 3.45453 -4.66522 0
M  V30 3062 H 292.645 -0.25329 -2.98628 0
M  V30 3063 H 290.206 -0.281268 -1.59438 0
M  V30 3064 H 292.198 2.24952 -3.3642 0
M  V30 3065 H 290.768 2.10409 -2.31186 0
M  V30 3066 H 289.988 0.22215 -3.93574 0
M  V30 3067 H 291.276 0.752213 -5.03209 0
M  V30 3068 H 290.674 3.81605 -4.17605 0
M  V30 3069 H 289.231 4.10549 -5.06254 0
M  V30 3070 N 292.664 1.56529 -0.183458 0
M  V30 3071 C 293.596 2.15747 0.773697 0
M  V30 3072 C 294.609 1.1162 1.1851 0
M  V30 3073 O 295.798 1.3876 1.12285 0
M  V30 3074 C 292.898 2.6952 2.05456 0
M  V30 3075 C 292.071 3.98429 1.8048 0
M  V30 3076 C 291.13 4.37145 2.92901 0
M  V30 3077 O 290.156 5.04791 2.6301 0
M  V30 3078 N 291.358 3.99695 4.2098 0
M  V30 3079 H 294.123 2.98505 0.26736 0
M  V30 3080 H 291.684 1.619 -0.0010878 0
M  V30 3081 H 293.676 2.92412 2.79781 0
M  V30 3082 H 292.246 1.91282 2.47245 0
M  V30 3083 H 291.466 3.8379 0.899947 0
M  V30 3084 H 292.754 4.82597 1.61175 0
M  V30 3085 H 292.152 3.4526 4.48121 0
M  V30 3086 H 290.709 4.27562 4.9197 0
M  V30 3087 N 294.142 -0.090211 1.57342 0
M  V30 3088 C 295.419 -0.824761 1.77361 0
M  V30 3089 C 295.799 -1.96698 0.76637 0
M  V30 3090 O 295.147 -2.27586 -0.204179 0
M  V30 3091 C 295.357 -1.31481 3.23286 0
M  V30 3092 C 296.705 -1.75563 3.86604 0
M  V30 3093 O 297.729 -1.41093 3.27065 0
M  V30 3094 O 296.588 -2.39317 4.91314 0
M  V30 3095 H 293.682 -0.393776 0.727234 0
M  V30 3096 H 296.228 -0.0717138 1.69548 0
M  V30 3097 H 295 -0.496671 3.88135 0
M  V30 3098 H 294.623 -2.12973 3.35751 0
M  V30 3099 N 295.62 -1.53406 -0.361157 0
M  V30 3100 C 296.869 -1.69022 -1.10066 0
M  V30 3101 C 297.182 -0.450838 -1.90333 0
M  V30 3102 O 298.388 -0.487617 -2.67085 0
M  V30 3103 C 296.844 -2.98812 -2.00598 0
M  V30 3104 C 296.452 -4.30027 -1.25621 0
M  V30 3105 C 298.196 -3.23795 -2.74513 0
M  V30 3106 C 296.103 -5.50903 -2.1508 0
M  V30 3107 H 295.033 -0.629776 -0.414606 0
M  V30 3108 H 297.684 -1.79907 -0.361348 0
M  V30 3109 H 296.066 -2.8174 -2.78278 0
M  V30 3110 H 297.24 -4.57745 -0.529739 0
M  V30 3111 H 295.555 -4.11522 -0.635496 0
M  V30 3112 H 298.152 -4.11289 -3.41681 0
M  V30 3113 H 298.495 -2.40045 -3.40123 0
M  V30 3114 H 299.028 -3.41561 -2.03914 0
M  V30 3115 H 295.767 -6.37143 -1.54041 0
M  V30 3116 H 295.287 -5.27459 -2.85565 0
M  V30 3117 H 296.966 -5.85865 -2.74538 0
M  V30 3118 N 297.098 0.621204 -1.44841 0
M  V30 3119 C 298.03 1.74615 -1.48466 0
M  V30 3120 C 299.043 1.58377 -0.37691 0
M  V30 3121 O 300.232 1.66508 -0.643215 0
M  V30 3122 C 297.332 3.12459 -1.31236 0
M  V30 3123 C 296.505 3.55064 -2.55438 0
M  V30 3124 C 295.564 4.71821 -2.32963 0
M  V30 3125 O 294.59 4.79628 -3.06505 0
M  V30 3126 N 295.792 5.64186 -1.36654 0
M  V30 3127 H 298.557 1.71973 -2.45449 0
M  V30 3128 H 296.118 0.806077 -1.40407 0
M  V30 3129 H 298.11 3.88302 -1.14032 0
M  V30 3130 H 296.68 3.09686 -0.4258 0
M  V30 3131 H 295.9 2.69324 -2.87851 0
M  V30 3132 H 297.188 3.80284 -3.38026 0
M  V30 3133 H 296.586 5.6058 -0.759344 0
M  V30 3134 H 295.143 6.39618 -1.25425 0
M  V30 3135 N 298.576 1.31904 0.862503 0
M  V30 3136 C 299.853 1.12644 1.59908 0
M  V30 3137 C 300.233 -0.316104 2.0872 0
M  V30 3138 O 299.581 -1.31145 1.87118 0
M  V30 3139 C 299.791 2.1472 2.7513 0
M  V30 3140 C 301.139 2.47637 3.44907 0
M  V30 3141 O 302.163 2.13205 2.85346 0
M  V30 3142 O 301.022 3.06632 4.52371 0
M  V30 3143 H 298.116 0.43416 0.703871 0
M  V30 3144 H 300.662 1.43408 0.907314 0
M  V30 3145 H 299.434 3.1172 2.3653 0
M  V30 3146 H 299.057 1.84905 3.51989 0
M  V30 3147 N 300.054 -1.07777 1.14986 0
M  V30 3148 C 301.3 -1.80557 0.923422 0
M  V30 3149 C 301.633 -1.86298 -0.548337 0
M  V30 3150 O 300.908 -1.34354 -1.40639 0
M  V30 3151 C 301.191 -3.25839 1.53299 0
M  V30 3152 C 301.044 -3.28269 3.07505 0
M  V30 3153 C 302.363 -4.22991 1.21518 0
M  V30 3154 H 299.482 -0.655493 0.336894 0
M  V30 3155 H 302.124 -1.26144 1.42083 0
M  V30 3156 H 300.274 -3.72306 1.10999 0
M  V30 3157 H 301.946 -2.90079 3.58681 0
M  V30 3158 H 300.189 -2.67355 3.4162 0
M  V30 3159 H 300.86 -4.30691 3.45266 0
M  V30 3160 H 303.336 -3.84894 1.581 0
M  V30 3161 H 302.212 -5.22945 1.66793 0
M  V30 3162 H 302.473 -4.41904 0.131505 0
M  V30 3163 N 301.532 -0.945985 -1.26051 0
M  V30 3164 C 302.762 -0.612136 -1.97323 0
M  V30 3165 C 303.17 0.818171 -1.70595 0
M  V30 3166 O 302.513 1.55777 -0.973613 0
M  V30 3167 C 302.575 -0.780347 -3.50929 0
M  V30 3168 C 302.239 -2.18619 -4.01317 0
M  V30 3169 C 303.236 -3.16209 -4.12683 0
M  V30 3170 C 300.921 -2.50805 -4.35203 0
M  V30 3171 C 302.915 -4.44085 -4.57238 0
M  V30 3172 C 300.602 -3.78912 -4.79446 0
M  V30 3173 C 301.6 -4.75365 -4.90425 0
M  V30 3174 O 301.288 -6.01191 -5.3369 0
M  V30 3175 H 301.02 -0.229134 -0.635982 0
M  V30 3176 H 303.574 -1.27036 -1.61404 0
M  V30 3177 H 301.804 -0.0649864 -3.86645 0
M  V30 3178 H 303.493 -0.448842 -4.03411 0
M  V30 3179 H 304.259 -2.92668 -3.86744 0
M  V30 3180 H 300.138 -1.76463 -4.2589 0
M  V30 3181 H 303.682 -5.19373 -4.65723 0
M  V30 3182 H 299.579 -4.02265 -5.0483 0
M  V30 3183 H 300.347 -6.04442 -5.51899 0
M  V30 3184 N 303.011 1.40521 -0.713556 0
M  V30 3185 C 303.974 2.29098 -0.0684347 0
M  V30 3186 C 304.974 1.45268 0.689472 0
M  V30 3187 O 306.164 1.66205 0.521677 0
M  V30 3188 C 303.296 3.28446 0.913024 0
M  V30 3189 H 304.489 2.87645 -0.84855 0
M  V30 3190 H 302.042 1.48809 -0.47809 0
M  V30 3191 H 302.777 2.74913 1.72027 0
M  V30 3192 H 302.562 3.90327 0.372472 0
M  V30 3193 H 304.052 3.94777 1.36165 0
M  V30 3194 N 304.489 0.459591 1.5075 0
M  V30 3195 C 305.766 -0.160371 1.94941 0
M  V30 3196 C 306.146 -1.58048 1.39943 0
M  V30 3197 O 305.494 -2.206 0.595629 0
M  V30 3198 C 305.704 -0.115432 3.48809 0
M  V30 3199 C 307.052 -0.310026 4.23467 0
M  V30 3200 O 308.076 -0.192543 3.55679 0
M  V30 3201 O 306.935 -0.546031 5.43765 0
M  V30 3202 H 304.029 -0.117925 0.818549 0
M  V30 3203 H 306.575 0.519169 1.61563 0
M  V30 3204 H 305.347 0.87652 3.81357 0
M  V30 3205 H 304.97 -0.836928 3.88692 0
M  V30 3206 N 305.967 -1.56429 0.191757 0
M  V30 3207 C 307.213 -1.97777 -0.448554 0
M  V30 3208 C 307.546 -1.07847 -1.61501 0
M  V30 3209 O 306.821 -0.129774 -1.94067 0
M  V30 3210 C 307.104 -3.48362 -0.911906 0
M  V30 3211 C 306.957 -4.4907 0.256136 0
M  V30 3212 C 308.276 -4.02561 -1.77857 0
M  V30 3213 H 305.395 -0.719071 -0.161572 0
M  V30 3214 H 308.037 -1.87896 0.282007 0
M  V30 3215 H 306.187 -3.56914 -1.53442 0
M  V30 3216 H 307.859 -4.5256 0.893733 0
M  V30 3217 H 306.102 -4.24181 0.908436 0
M  V30 3218 H 306.773 -5.51889 -0.11053 0
M  V30 3219 H 309.249 -3.96767 -1.25359 0
M  V30 3220 H 308.125 -5.08301 -2.07174 0
M  V30 3221 H 308.386 -3.47616 -2.73158 0
M  V30 3222 N 307.445 0.0818655 -1.57387 0
M  V30 3223 C 308.392 1.09834 -2.0299 0
M  V30 3224 C 309.362 1.39043 -0.908639 0
M  V30 3225 O 310.547 1.50282 -1.17559 0
M  V30 3226 C 307.687 2.40971 -2.47037 0
M  V30 3227 C 306.8 2.18379 -3.7274 0
M  V30 3228 C 305.935 3.43008 -4.0561 0
M  V30 3229 C 304.974 3.15736 -5.24383 0
M  V30 3230 N 304.111 4.32667 -5.52941 0
M  V30 3231 H 308.951 0.702472 -2.89602 0
M  V30 3232 H 306.488 0.33531 -1.43227 0
M  V30 3233 H 308.446 3.1752 -2.70623 0
M  V30 3234 H 307.076 2.78379 -1.63417 0
M  V30 3235 H 306.128 1.32569 -3.56552 0
M  V30 3236 H 307.44 1.94227 -4.59431 0
M  V30 3237 H 306.594 4.27958 -4.30043 0
M  V30 3238 H 305.333 3.70225 -3.17466 0
M  V30 3239 H 304.338 2.2918 -4.99757 0
M  V30 3240 H 305.563 2.8985 -6.14136 0
M  V30 3241 H 303.509 4.59935 -4.67756 0
M  V30 3242 H 303.426 4.11753 -6.34031 0
M  V30 3243 H 304.694 5.18644 -5.81918 0
M  V30 3244 N 308.923 1.53595 0.353017 0
M  V30 3245 C 310.2 1.61002 1.11075 0
M  V30 3246 C 310.58 0.425356 2.0677 0
M  V30 3247 O 309.928 -0.583267 2.2093 0
M  V30 3248 C 310.138 2.96631 1.83877 0
M  V30 3249 C 311.486 3.51653 2.37961 0
M  V30 3250 O 312.51 2.98743 1.93987 0
M  V30 3251 O 311.369 4.44177 3.18386 0
M  V30 3252 H 308.463 0.650825 0.510251 0
M  V30 3253 H 311.009 1.6594 0.35527 0
M  V30 3254 H 309.781 3.74293 1.14108 0
M  V30 3255 H 309.404 2.95242 2.66304 0
M  V30 3256 N 310.401 -0.613514 1.45168 0
M  V30 3257 C 311.331 -1.7354 1.56225 0
M  V30 3258 C 312.312 -1.64981 0.41414 0
M  V30 3259 O 313.497 -1.83472 0.636526 0
M  V30 3260 C 310.627 -3.12128 1.52295 0
M  V30 3261 C 309.581 -3.35491 2.65762 0
M  V30 3262 C 308.907 -4.74291 2.46885 0
M  V30 3263 C 310.207 -3.26325 4.0781 0
M  V30 3264 H 311.901 -1.64543 2.50132 0
M  V30 3265 H 309.447 -0.790185 1.20383 0
M  V30 3266 H 311.4 -3.90404 1.58628 0
M  V30 3267 H 310.124 -3.2195 0.549139 0
M  V30 3268 H 308.783 -2.59603 2.58847 0
M  V30 3269 H 308.431 -4.80839 1.47657 0
M  V30 3270 H 308.131 -4.9088 3.22972 0
M  V30 3271 H 309.655 -5.54775 2.55063 0
M  V30 3272 H 311.069 -3.94483 4.16 0
M  V30 3273 H 309.466 -3.54445 4.8424 0
M  V30 3274 H 310.536 -2.23855 4.30136 0
M  V30 3275 N 311.879 -1.3236 -0.855495 0
M  V30 3276 C 312.809 -1.23833 -1.97958 0
M  V30 3277 C 313.79 -0.122361 -1.69659 0
M  V30 3278 O 314.975 -0.30939 -1.9172 0
M  V30 3279 C 312.105 -0.959772 -3.33775 0
M  V30 3280 C 311.059 -2.03689 -3.76424 0
M  V30 3281 C 310.385 -1.61075 -5.09862 0
M  V30 3282 C 311.685 -3.4518 -3.9198 0
M  V30 3283 H 313.379 -2.1788 -2.0535 0
M  V30 3284 H 310.925 -1.04891 -0.986605 0
M  V30 3285 H 312.878 -0.886678 -4.11966 0
M  V30 3286 H 311.602 0.0163404 -3.26596 0
M  V30 3287 H 310.261 -2.10012 -3.00484 0
M  V30 3288 H 309.909 -0.622107 -4.99138 0
M  V30 3289 H 309.609 -2.33143 -5.39368 0
M  V30 3290 H 311.133 -1.55201 -5.90546 0
M  V30 3291 H 312.547 -3.4145 -4.60526 0
M  V30 3292 H 310.944 -4.1559 -4.32903 0
M  V30 3293 H 312.014 -3.84903 -2.94919 0
M  V30 3294 N 313.357 1.07166 -1.15556 0
M  V30 3295 C 314.605 1.79443 -0.929764 0
M  V30 3296 C 314.926 1.87246 0.544414 0
M  V30 3297 O 314.196 1.37473 1.39564 0
M  V30 3298 H 312.776 0.664625 -0.341003 0
M  V30 3299 H 315.438 1.29499 -1.45657 0
M  V30 3300 H 314.534 2.81832 -1.34079 0
M  V30 3301 N 314.835 0.952656 1.25548 0
M  V30 3302 C 316.083 0.605176 1.92826 0
M  V30 3303 C 316.404 -0.860261 1.74999 0
M  V30 3304 O 315.674 -1.6125 1.11244 0
M  V30 3305 H 314.254 0.220832 0.713612 0
M  V30 3306 H 316.916 1.21047 1.52754 0
M  V30 3307 H 316.012 0.832798 3.00784 0
M  V30 3308 N 316.313 -1.40141 0.720998 0
M  V30 3309 C 317.243 -2.33339 0.0867621 0
M  V30 3310 C 318.224 -1.53178 -0.739622 0
M  V30 3311 O 319.409 -1.81625 -0.687449 0
M  V30 3312 C 316.539 -3.37194 -0.831728 0
M  V30 3313 C 315.493 -4.27857 -0.110558 0
M  V30 3314 C 314.819 -5.22294 -1.14513 0
M  V30 3315 C 316.119 -5.11872 1.0385 0
M  V30 3316 H 317.813 -2.86626 0.865219 0
M  V30 3317 H 315.359 -1.37814 0.417516 0
M  V30 3318 H 317.312 -4.01335 -1.28485 0
M  V30 3319 H 316.036 -2.82314 -1.64214 0
M  V30 3320 H 314.695 -3.65176 0.322797 0
M  V30 3321 H 314.343 -4.63717 -1.94874 0
M  V30 3322 H 314.043 -5.83797 -0.667446 0
M  V30 3323 H 315.567 -5.89312 -1.59824 0
M  V30 3324 H 316.981 -5.69436 0.664482 0
M  V30 3325 H 315.378 -5.82445 1.4449 0
M  V30 3326 H 316.448 -4.4753 1.86668 0
M  V30 3327 N 317.792 -0.46758 -1.50504 0
M  V30 3328 C 318.739 0.328413 -2.28452 0
M  V30 3329 C 319.709 0.990313 -1.33349 0
M  V30 3330 O 320.894 1.00343 -1.62284 0
M  V30 3331 C 318.034 1.40648 -3.15138 0
M  V30 3332 C 317.147 0.759709 -4.25267 0
M  V30 3333 C 316.282 1.81537 -4.99217 0
M  V30 3334 C 315.321 1.14866 -6.01226 0
M  V30 3335 N 314.458 2.14702 -6.68467 0
M  V30 3336 H 319.298 -0.342603 -2.96024 0
M  V30 3337 H 316.835 -0.180801 -1.45985 0
M  V30 3338 H 318.793 2.04315 -3.63746 0
M  V30 3339 H 317.423 2.04671 -2.49619 0
M  V30 3340 H 316.475 0.0105671 -3.80399 0
M  V30 3341 H 317.787 0.233243 -4.98254 0
M  V30 3342 H 316.941 2.52793 -5.51526 0
M  V30 3343 H 315.68 2.37564 -4.25928 0
M  V30 3344 H 314.685 0.42171 -5.4818 0
M  V30 3345 H 315.91 0.595334 -6.76485 0
M  V30 3346 H 313.856 2.69752 -5.97972 0
M  V30 3347 H 313.773 1.6703 -7.37317 0
M  V30 3348 H 315.041 2.85348 -7.25394 0
M  V30 3349 N 319.27 1.56325 -0.20005 0
M  V30 3350 C 320.217 2.1932 0.718833 0
M  V30 3351 C 321.187 1.14198 1.20615 0
M  V30 3352 O 322.372 1.42469 1.26914 0
M  V30 3353 C 319.512 2.86041 1.93066 0
M  V30 3354 C 318.625 4.05702 1.48425 0
M  V30 3355 C 317.76 4.60266 2.65196 0
M  V30 3356 C 316.799 5.72273 2.17185 0
M  V30 3357 N 315.936 6.21221 3.27152 0
M  V30 3358 H 320.776 2.97486 0.17489 0
M  V30 3359 H 318.313 1.46911 0.0745794 0
M  V30 3360 H 320.271 3.22897 2.64184 0
M  V30 3361 H 318.901 2.1043 2.44783 0
M  V30 3362 H 317.953 3.74475 0.668755 0
M  V30 3363 H 319.265 4.86699 1.09204 0
M  V30 3364 H 318.419 4.99453 3.4443 0
M  V30 3365 H 317.158 3.78386 3.07693 0
M  V30 3366 H 316.163 5.3261 1.36407 0
M  V30 3367 H 317.388 6.55974 1.75713 0
M  V30 3368 H 315.334 5.42263 3.69171 0
M  V30 3369 H 315.251 6.97284 2.92116 0
M  V30 3370 H 316.519 6.65063 4.06585 0
M  V30 3371 O 320.787 0.0630897 1.61377 0
M  V30 3372 H 321.478 -0.544463 1.85891 0
M  V30 END ATOM
M  V30 BEGIN BOND
M  V30 END BOND
M  V30 END CTAB
M  END
$$$$
