drugbank_target|P16389 Potassium voltage-gated channel subfamily A member 2 (DB00228; DB01069; DB01110)
 OpenBabel12092120583D

  0  0  0     0  0            999 V3000
M  V30 BEGIN CTAB
M  V30 COUNTS 7922 8018 0 0 0
M  V30 BEGIN ATOM
M  V30 1 H -0.908 1.98254 -0.117106 0
M  V30 2 N 0 1.576 0 0
M  V30 3 C 0.933 2.03868 1.02534 0
M  V30 4 C 1.911 0.928543 1.3348 0
M  V30 5 O 3.095 1.19667 1.45644 0
M  V30 6 C 0.222 2.43627 2.35294 0
M  V30 7 C -0.732 3.65373 2.2001 0
M  V30 8 S 0.101 5.13292 1.52614 0
M  V30 9 C 1.257 5.56322 2.86805 0
M  V30 10 H 1.49 2.90518 0.631377 0
M  V30 11 H -0.977 1.52953 0.210867 0
M  V30 12 H 0.981 2.67203 3.11629 0
M  V30 13 H -0.358 1.57376 2.7183 0
M  V30 14 H -1.165 3.90944 3.18086 0
M  V30 15 H -1.563 3.418 1.51819 0
M  V30 16 H 0.729 5.58782 3.83104 0
M  V30 17 H 1.672 6.56266 2.65933 0
M  V30 18 H 2.08 4.83886 2.90714 0
M  V30 19 N 1.4781 -0.272755 1.55222 0
M  V30 20 C 2.7061 -1.02255 1.79865 0
M  V30 21 C 3.1211 -1.79924 0.572088 0
M  V30 22 O 2.4781 -1.76638 -0.458842 0
M  V30 23 C 2.5291 -1.98094 3.02392 0
M  V30 24 O 2.2501 -1.23572 4.20311 0
M  V30 25 C 3.7511 -2.84884 3.39641 0
M  V30 26 H 0.9711 -0.302057 0.599168 0
M  V30 27 H 3.5151 -0.303465 2.02236 0
M  V30 28 H 1.6701 -2.65465 2.82147 0
M  V30 29 H 2.0841 -1.88172 4.89583 0
M  V30 30 H 3.5581 -3.47927 4.28545 0
M  V30 31 H 4.0351 -3.54665 2.59055 0
M  V30 32 H 4.6411 -2.23003 3.62146 0
M  V30 33 N 2.9562 -1.48159 -0.537278 0
M  V30 34 C 4.2022 -1.56035 -1.29541 0
M  V30 35 C 4.5352 -0.230377 -1.92829 0
M  V30 36 O 3.8102 0.762952 -1.78911 0
M  V30 37 C 4.0932 -2.69323 -2.39034 0
M  V30 38 C 3.9462 -4.12002 -1.80485 0
M  V30 39 C 5.2652 -2.78408 -3.40847 0
M  V30 40 H 2.3842 -0.567992 -0.469632 0
M  V30 41 H 5.0262 -1.80302 -0.599277 0
M  V30 42 H 3.1762 -2.48763 -2.98412 0
M  V30 43 H 4.8482 -4.43981 -1.25215 0
M  V30 44 H 3.0912 -4.19344 -1.11055 0
M  V30 45 H 3.7622 -4.87077 -2.59731 0
M  V30 46 H 6.2382 -2.97012 -2.91416 0
M  V30 47 H 5.1142 -3.59416 -4.14863 0
M  V30 48 H 5.3752 -1.86269 -4.00944 0
M  V30 49 N 4.4343 0.785586 -1.36625 0
M  V30 50 C 5.3973 1.87999 -1.31107 0
M  V30 51 C 6.3973 1.59316 -0.217959 0
M  V30 52 O 7.5873 1.67656 -0.472977 0
M  V30 53 C 4.7193 3.24861 -1.03334 0
M  V30 54 H 5.9123 1.94307 -2.2844 0
M  V30 55 H 3.4653 0.983813 -1.21453 0
M  V30 56 H 4.2003 3.24235 -0.0647432 0
M  V30 57 H 3.9853 3.4707 -1.82441 0
M  V30 58 H 5.4753 4.04929 -1.02088 0
M  V30 59 N 5.9124 1.20967 1.01018 0
M  V30 60 C 7.1404 1.04956 1.78303 0
M  V30 61 C 7.5554 -0.400915 1.84494 0
M  V30 62 O 6.9124 -1.27826 1.30257 0
M  V30 63 C 6.9634 1.63403 3.22462 0
M  V30 64 O 6.6844 3.02775 3.16637 0
M  V30 65 C 8.1854 1.52432 4.16268 0
M  V30 66 H 5.4054 0.368858 0.560522 0
M  V30 67 H 7.9494 1.60193 1.27116 0
M  V30 68 H 6.1044 1.1227 3.70775 0
M  V30 69 H 6.5184 3.30626 4.07169 0
M  V30 70 H 7.9924 1.98078 5.15237 0
M  V30 71 H 8.4694 0.477875 4.36592 0
M  V30 72 H 9.0754 2.02787 3.73841 0
M  V30 73 N 7.3905 -1.2043 1.01659 0
M  V30 74 C 8.6385 -1.89423 0.704522 0
M  V30 75 C 8.9595 -1.79231 -0.768197 0
M  V30 76 O 8.2295 -1.1947 -1.55254 0
M  V30 77 H 6.8095 -0.701178 0.257602 0
M  V30 78 H 9.4715 -1.4626 1.28818 0
M  V30 79 H 8.5675 -2.96052 0.987916 0
M  V30 80 N 8.8686 -0.792821 -1.36206 0
M  V30 81 C 10.1456 -0.290627 -1.93429 0
M  V30 82 C 10.5256 1.21773 -1.72437 0
M  V30 83 O 9.8736 2.0108 -1.08531 0
M  V30 84 C 10.0836 -0.686973 -3.42172 0
M  V30 85 C 11.4316 -0.668643 -4.19302 0
M  V30 86 O 12.4556 -0.627658 -3.50626 0
M  V30 87 O 11.3146 -0.714597 -5.41808 0
M  V30 88 H 8.4086 -0.0727927 -0.82379 0
M  V30 89 H 10.9546 -0.875593 -1.45367 0
M  V30 90 H 9.7266 -1.72711 -3.51122 0
M  V30 91 H 9.3496 -0.0760733 -3.97527 0
M  V30 92 N 10.3467 1.47872 -0.545128 0
M  V30 93 C 11.7577 1.86384 -0.108581 0
M  V30 94 C 12.1087 1.45309 1.31832 0
M  V30 95 O 11.2337 0.850641 1.9898 0
M  V30 96 C 11.8287 3.38265 -0.190274 0
M  V30 97 C 10.3877 3.75914 0.191164 0
M  V30 98 C 9.5347 2.71926 -0.543273 0
M  V30 99 H 12.4857 1.39561 -0.755537 0
M  V30 100 H 12.5067 3.75831 0.594217 0
M  V30 101 H 12.0187 3.6813 -1.2289 0
M  V30 102 H 10.1197 3.51665 1.23136 0
M  V30 103 H 10.2327 4.78836 -0.158987 0
M  V30 104 H 8.5967 2.54697 0.0122495 0
M  V30 105 H 9.3797 3.04634 -1.58282 0
M  V30 106 N 11.8248 0.280983 1.55075 0
M  V30 107 C 12.7878 -0.590896 2.21452 0
M  V30 108 C 13.7878 -1.07682 1.19421 0
M  V30 109 O 14.9778 -0.97605 1.44288 0
M  V30 110 C 12.1098 -1.81587 2.88511 0
M  V30 111 H 13.3028 -0.0112554 2.99898 0
M  V30 112 H 10.8558 0.0316438 1.56268 0
M  V30 113 H 11.5908 -2.43587 2.14093 0
M  V30 114 H 11.3758 -1.4753 3.63287 0
M  V30 115 H 12.8658 -2.43575 3.39206 0
M  V30 116 N 13.3029 -1.57598 0.00835791 0
M  V30 117 C 14.5799 -1.82172 -0.712235 0
M  V30 118 C 14.9599 -0.887873 -1.9152 0
M  V30 119 O 14.3079 0.06146 -2.28417 0
M  V30 120 C 14.5179 -3.30875 -1.11008 0
M  V30 121 C 15.8659 -3.96826 -1.51044 0
M  V30 122 O 16.8899 -3.35248 -1.20364 0
M  V30 123 O 15.7489 -5.05318 -2.08125 0
M  V30 124 H 12.8429 -0.750435 -0.347529 0
M  V30 125 H 15.3889 -1.69665 0.0344523 0
M  V30 126 H 14.1609 -3.90481 -0.252982 0
M  V30 127 H 13.7839 -3.48412 -1.9156 0
M  V30 128 N 14.781 0.264519 -1.55364 0
M  V30 129 C 15.691 1.34902 -1.91934 0
M  V30 130 C 16.707 1.53595 -0.817593 0
M  V30 131 O 17.883 1.67558 -1.11742 0
M  V30 132 C 14.948 2.68676 -2.19121 0
M  V30 133 C 14.009 2.58657 -3.4263 0
M  V30 134 C 13.242 3.86051 -3.68511 0
M  V30 135 O 13.465 4.87126 -2.96757 0
M  V30 136 O 12.399 3.85744 -4.62045 0
M  V30 137 H 16.225 1.06883 -2.8427 0
M  V30 138 H 13.81 0.463775 -1.42019 0
M  V30 139 H 15.692 3.47759 -2.37995 0
M  V30 140 H 14.367 2.96463 -1.29966 0
M  V30 141 H 13.274 1.7792 -3.29082 0
M  V30 142 H 14.607 2.35818 -4.32031 0
M  V30 143 N 16.2591 1.48442 0.529413 0
M  V30 144 C 17.2221 1.62524 1.61612 0
M  V30 145 C 18.2221 0.498509 1.52877 0
M  V30 146 O 19.4121 0.76431 1.56537 0
M  V30 147 C 16.5441 1.59597 3.01233 0
M  V30 148 H 17.7371 2.59423 1.50465 0
M  V30 149 H 15.2901 1.37047 0.751514 0
M  V30 150 H 16.0251 0.641781 3.17886 0
M  V30 151 H 15.8101 2.41397 3.08982 0
M  V30 152 H 17.3001 1.72646 3.80241 0
M  V30 153 N 17.7372 -0.778329 1.37039 0
M  V30 154 C 18.7002 -1.87301 1.32102 0
M  V30 155 C 19.7002 -1.59198 0.226405 0
M  V30 156 O 20.8902 -1.67403 0.481861 0
M  V30 157 C 18.0222 -3.24309 1.05055 0
M  V30 158 H 19.2152 -1.93093 2.29467 0
M  V30 159 H 16.7682 -0.977358 1.21973 0
M  V30 160 H 17.5032 -3.24196 0.0819373 0
M  V30 161 H 17.2882 -3.46098 1.84279 0
M  V30 162 H 18.7782 -4.04382 1.04234 0
M  V30 163 N 19.2153 -1.21501 -1.00376 0
M  V30 164 C 20.1783 -0.976927 -2.07337 0
M  V30 165 C 21.1783 0.0525322 -1.60714 0
M  V30 166 O 22.3683 -0.184869 -1.73216 0
M  V30 167 C 19.5003 -0.473423 -3.37597 0
M  V30 168 H 20.6933 -1.92587 -2.29892 0
M  V30 169 H 18.2463 -1.03217 -1.17371 0
M  V30 170 H 18.9813 0.480379 -3.20722 0
M  V30 171 H 18.7663 -1.216 -3.72768 0
M  V30 172 H 20.2563 -0.32675 -4.1632 0
M  V30 173 N 20.6934 1.19889 -1.02296 0
M  V30 174 C 21.6234 2.25141 -0.619174 0
M  V30 175 C 22.6044 1.66051 0.368915 0
M  V30 176 O 23.7894 1.92546 0.252941 0
M  V30 177 C 20.9194 3.4728 0.0368783 0
M  V30 178 C 19.8734 4.19005 -0.872865 0
M  V30 179 C 19.1994 5.34637 -0.0822402 0
M  V30 180 C 20.4994 4.74452 -2.18387 0
M  V30 181 H 22.1934 2.59171 -1.49903 0
M  V30 182 H 19.7394 1.24579 -0.722222 0
M  V30 183 H 21.6924 4.20098 0.330958 0
M  V30 184 H 20.4164 3.12433 0.95149 0
M  V30 185 H 19.0754 3.48061 -1.15105 0
M  V30 186 H 18.7234 4.96034 0.83422 0
M  V30 187 H 18.4234 5.83557 -0.688149 0
M  V30 188 H 19.9474 6.10255 0.205238 0
M  V30 189 H 21.3614 5.39055 -1.95172 0
M  V30 190 H 19.7584 5.33834 -2.74119 0
M  V30 191 H 20.8284 3.92844 -2.84257 0
M  V30 192 N 22.1715 0.800033 1.35784 0
M  V30 193 C 23.5825 0.439142 1.81462 0
M  V30 194 C 23.9335 -1.03813 1.66485 0
M  V30 195 O 23.0585 -1.80626 1.19177 0
M  V30 196 C 23.6535 0.790314 3.29453 0
M  V30 197 C 22.2125 0.482111 3.733 0
M  V30 198 C 21.3595 1.01938 2.57883 0
M  V30 199 H 24.3105 0.992254 1.23855 0
M  V30 200 H 24.3315 0.0853677 3.80404 0
M  V30 201 H 23.8435 1.86554 3.40322 0
M  V30 202 H 21.9445 -0.584652 3.67984 0
M  V30 203 H 22.0575 1.01015 4.6833 0
M  V30 204 H 20.4215 0.442043 2.50835 0
M  V30 205 H 21.2045 2.10059 2.71533 0
M  V30 206 N 23.6496 -1.47581 0.552962 0
M  V30 207 C 24.8976 -2.02082 0.0272703 0
M  V30 208 C 25.2186 -1.4301 -1.32563 0
M  V30 209 O 24.4886 -0.603745 -1.86365 0
M  V30 210 H 23.0686 -0.746966 0.00709182 0
M  V30 211 H 25.7306 -1.81033 0.722008 0
M  V30 212 H 24.8266 -3.12034 -0.0639951 0
M  V30 213 N 25.1277 -0.289203 -1.54924 0
M  V30 214 C 26.0777 0.606939 -2.19773 0
M  V30 215 C 27.0617 1.10783 -1.16687 0
M  V30 216 O 28.2537 1.05057 -1.4245 0
M  V30 217 C 25.3827 1.78398 -2.93307 0
M  V30 218 C 24.4687 1.29961 -4.03697 0
M  V30 219 N 24.8597 0.532377 -5.0299 0
M  V30 220 C 23.1577 1.58136 -4.17024 0
M  V30 221 C 23.8587 0.275912 -5.81045 0
M  V30 222 N 22.8347 0.852365 -5.36876 0
M  V30 223 H 26.6367 0.0130779 -2.93897 0
M  V30 224 H 24.1507 -0.09341 -1.62131 0
M  V30 225 H 26.1477 2.43741 -3.38225 0
M  V30 226 H 24.8077 2.38166 -2.20697 0
M  V30 227 H 25.8187 0.17838 -5.17593 0
M  V30 228 H 22.4957 2.18738 -3.55612 0
M  V30 229 H 23.8857 -0.339502 -6.71042 0
M  V30 230 N 26.6058 1.57591 -0.0167156 0
M  V30 231 C 28.0168 1.79201 0.523834 0
M  V30 232 C 28.3678 0.925796 1.72984 0
M  V30 233 O 27.4928 0.132792 2.15992 0
M  V30 234 C 28.0878 3.25 0.957091 0
M  V30 235 C 26.6468 3.47648 1.44283 0
M  V30 236 C 25.7938 2.74374 0.401757 0
M  V30 237 H 28.7448 1.56831 -0.242816 0
M  V30 238 H 28.7658 3.34031 1.82219 0
M  V30 239 H 28.2778 3.88019 0.0791415 0
M  V30 240 H 26.3788 2.89866 2.34113 0
M  V30 241 H 26.4918 4.56352 1.45877 0
M  V30 242 H 24.8558 2.39485 0.867121 0
M  V30 243 H 25.6388 3.40102 -0.467513 0
M  V30 244 N 28.0839 -0.256276 1.55502 0
M  V30 245 C 29.0159 -1.33981 1.85962 0
M  V30 246 C 30.0289 -1.44743 0.745212 0
M  V30 247 O 31.2179 -1.4626 1.02324 0
M  V30 248 C 28.3179 -2.7194 2.02242 0
M  V30 249 C 27.4909 -2.83562 3.33033 0
M  V30 250 C 26.5499 -4.02304 3.39172 0
M  V30 251 O 25.5759 -3.92273 4.12444 0
M  V30 252 N 26.7779 -5.15045 2.67784 0
M  V30 253 H 29.5429 -1.08191 2.7949 0
M  V30 254 H 27.1039 -0.446388 1.55624 0
M  V30 255 H 29.0959 -3.49697 2.03701 0
M  V30 256 H 27.6659 -2.90479 1.15502 0
M  V30 257 H 26.8859 -1.92555 3.43971 0
M  V30 258 H 28.1739 -2.88271 4.19258 0
M  V30 259 H 27.5719 -5.26085 2.07968 0
M  V30 260 H 26.1289 -5.90972 2.74947 0
M  V30 261 N 29.562 -1.4872 -0.521534 0
M  V30 262 C 30.839 -1.4766 -1.2828 0
M  V30 263 C 31.219 -0.19292 -2.10217 0
M  V30 264 O 30.567 0.825193 -2.13079 0
M  V30 265 C 30.777 -2.74358 -2.15705 0
M  V30 266 C 32.125 -3.23028 -2.75569 0
M  V30 267 O 33.149 -2.75333 -2.25987 0
M  V30 268 O 32.008 -4.0604 -3.65778 0
M  V30 269 H 29.102 -0.590085 -0.579421 0
M  V30 270 H 31.648 -1.60963 -0.537492 0
M  V30 271 H 30.42 -3.59292 -1.54999 0
M  V30 272 H 30.043 -2.63816 -2.97467 0
M  V30 273 N 31.0401 0.771051 -1.3745 0
M  V30 274 C 32.2681 1.56015 -1.35893 0
M  V30 275 C 32.6831 1.88718 0.0555523 0
M  V30 276 O 32.0401 1.51502 1.01752 0
M  V30 277 C 32.0911 2.87001 -2.19801 0
M  V30 278 O 31.8121 2.557 -3.55738 0
M  V30 279 C 33.3131 3.81228 -2.26231 0
M  V30 280 H 30.5331 0.483317 -0.465453 0
M  V30 281 H 33.0771 0.955611 -1.80799 0
M  V30 282 H 31.2321 3.43877 -1.78402 0
M  V30 283 H 31.6461 3.39584 -3.99729 0
M  V30 284 H 33.1201 4.70139 -2.89263 0
M  V30 285 H 33.5971 4.20409 -1.27093 0
M  V30 286 H 34.2031 3.30281 -2.67945 0
M  V30 287 N 32.5182 1.22032 0.997298 0
M  V30 288 C 33.7482 1.06686 1.76923 0
M  V30 289 C 34.1562 -0.385838 1.85224 0
M  V30 290 O 33.4992 -1.27929 1.31833 0
M  V30 291 C 33.5612 1.59802 3.22031 0
M  V30 292 C 33.2252 3.08362 3.37286 0
M  V30 293 C 34.2222 4.05835 3.24952 0
M  V30 294 C 31.9072 3.47727 3.6248 0
M  V30 295 C 33.9012 5.4066 3.37588 0
M  V30 296 C 31.5882 4.82701 3.74757 0
M  V30 297 C 32.5862 5.78977 3.62319 0
M  V30 298 O 32.2742 7.11502 3.74193 0
M  V30 299 H 32.0062 0.374767 0.562606 0
M  V30 300 H 34.5602 1.61991 1.26286 0
M  V30 301 H 32.7902 0.989003 3.73839 0
M  V30 302 H 34.4792 1.40184 3.80924 0
M  V30 303 H 35.2452 3.76766 3.05405 0
M  V30 304 H 31.1242 2.73317 3.7124 0
M  V30 305 H 34.6682 6.15788 3.27796 0
M  V30 306 H 30.5652 5.11453 3.9381 0
M  V30 307 H 31.3332 7.19019 3.91093 0
M  V30 308 N 33.9963 -1.19345 1.0293 0
M  V30 309 C 35.2733 -1.84811 0.640642 0
M  V30 310 C 35.6533 -1.91855 -0.88062 0
M  V30 311 O 35.0013 -1.43587 -1.7775 0
M  V30 312 C 35.2113 -3.23755 1.30321 0
M  V30 313 C 36.5593 -3.99912 1.42673 0
M  V30 314 O 37.5833 -3.33155 1.26041 0
M  V30 315 O 36.4423 -5.19494 1.6967 0
M  V30 316 H 33.5363 -0.796443 0.222726 0
M  V30 317 H 36.0823 -1.26831 1.12748 0
M  V30 318 H 34.8543 -3.13466 2.34211 0
M  V30 319 H 34.4773 -3.89381 0.804261 0
M  V30 320 N 35.4744 -0.807222 -1.35358 0
M  V30 321 C 36.8854 -0.44876 -1.81226 0
M  V30 322 C 37.2364 1.02929 -1.67033 0
M  V30 323 O 36.3614 1.79991 -1.20133 0
M  V30 324 C 36.9564 -0.807774 -3.2903 0
M  V30 325 C 35.5154 -0.501901 -3.73039 0
M  V30 326 C 34.6624 -1.03304 -2.57339 0
M  V30 327 H 37.6134 -0.998808 -1.23327 0
M  V30 328 H 37.6344 -0.10554 -3.80354 0
M  V30 329 H 37.1464 -1.88357 -3.39328 0
M  V30 330 H 35.2474 0.565128 -3.68289 0
M  V30 331 H 35.3604 -1.03497 -4.67787 0
M  V30 332 H 33.7244 -0.455339 -2.50597 0
M  V30 333 H 34.5074 -2.11496 -2.70415 0
M  V30 334 N 36.9525 1.47285 -0.560781 0
M  V30 335 C 37.8625 2.33846 0.187954 0
M  V30 336 C 38.8785 1.48412 0.908293 0
M  V30 337 O 40.0545 1.81332 0.876388 0
M  V30 338 C 37.1195 3.25178 1.2025 0
M  V30 339 C 36.1805 4.26504 0.489208 0
M  V30 340 C 35.4135 5.13472 1.45542 0
M  V30 341 O 35.6365 5.02959 2.6905 0
M  V30 342 O 34.5705 5.93902 0.977963 0
M  V30 343 H 38.3965 2.99177 -0.522177 0
M  V30 344 H 35.9815 1.45903 -0.321364 0
M  V30 345 H 37.8635 3.81584 1.78805 0
M  V30 346 H 36.5385 2.6247 1.89449 0
M  V30 347 H 35.4455 3.73847 -0.137627 0
M  V30 348 H 36.7785 4.91935 -0.161399 0
M  V30 349 N 38.4306 0.297415 1.54768 0
M  V30 350 C 39.3936 -0.567375 2.22066 0
M  V30 351 C 40.3936 -1.06409 1.20556 0
M  V30 352 O 41.5836 -0.960691 1.45315 0
M  V30 353 C 38.7156 -1.78517 2.90421 0
M  V30 354 H 39.9086 0.0205534 2.99893 0
M  V30 355 H 37.4616 0.0482163 1.56226 0
M  V30 356 H 38.1966 -2.41303 2.16664 0
M  V30 357 H 37.9816 -1.43669 3.64831 0
M  V30 358 H 39.4716 -2.39964 3.41771 0
M  V30 359 N 39.9087 -1.5758 0.0250728 0
M  V30 360 C 41.1857 -1.82917 -0.692873 0
M  V30 361 C 41.5657 -0.908137 -1.90568 0
M  V30 362 O 40.9137 0.0372298 -2.2847 0
M  V30 363 C 41.1237 -3.32034 -1.07492 0
M  V30 364 C 42.4717 -3.98406 -1.46826 0
M  V30 365 O 43.4957 -3.36505 -1.16801 0
M  V30 366 O 42.3547 -5.07497 -2.02754 0
M  V30 367 H 39.4487 -0.754079 -0.33955 0
M  V30 368 H 41.9947 -1.69619 0.0524456 0
M  V30 369 H 40.7667 -3.90728 -0.211552 0
M  V30 370 H 40.3897 -3.50424 -1.87854 0
M  V30 371 N 41.3868 0.248026 -1.55636 0
M  V30 372 C 42.3368 1.30994 -1.86614 0
M  V30 373 C 43.3208 1.43543 -0.726918 0
M  V30 374 O 44.5128 1.46804 -0.988818 0
M  V30 375 C 41.6418 2.6656 -2.16335 0
M  V30 376 C 40.7278 2.58019 -3.36581 0
M  V30 377 N 41.1188 2.1911 -4.55878 0
M  V30 378 C 39.4168 2.89035 -3.39669 0
M  V30 379 C 40.1178 2.21174 -5.38012 0
M  V30 380 N 39.0938 2.60632 -4.77045 0
M  V30 381 H 42.8958 0.999583 -2.76379 0
M  V30 382 H 40.4098 0.456652 -1.55848 0
M  V30 383 H 42.4068 3.43194 -2.36692 0
M  V30 384 H 41.0668 2.98463 -1.27867 0
M  V30 385 H 42.0778 1.90672 -4.81523 0
M  V30 386 H 38.7548 3.25485 -2.61469 0
M  V30 387 H 40.1448 1.9344 -6.43452 0
M  V30 388 N 42.8649 1.48995 0.513639 0
M  V30 389 C 43.7749 1.67443 1.64317 0
M  V30 390 C 44.7909 0.556947 1.64846 0
M  V30 391 O 45.9669 0.830082 1.83498 0
M  V30 392 C 43.0319 1.72515 3.00732 0
M  V30 393 C 42.0929 2.96009 3.1093 0
M  V30 394 C 41.3259 3.00829 4.40837 0
M  V30 395 O 41.5489 2.13594 5.28898 0
M  V30 396 O 40.4829 3.93168 4.55744 0
M  V30 397 H 44.3089 2.63106 1.51687 0
M  V30 398 H 41.8939 1.32588 0.688543 0
M  V30 399 H 43.7759 1.78277 3.81831 0
M  V30 400 H 42.4509 0.800278 3.13651 0
M  V30 401 H 41.3579 2.9577 2.29065 0
M  V30 402 H 42.6909 3.87934 3.02933 0
M  V30 403 N 44.343 -0.763751 1.37857 0
M  V30 404 C 45.583 -1.53551 1.34913 0
M  V30 405 C 45.947 -1.91895 -0.0635882 0
M  V30 406 O 47.148 -2.67916 -0.217825 0
M  V30 407 C 45.419 -2.76126 2.26912 0
M  V30 408 S 46.978 -3.66105 2.41893 0
M  V30 409 H 43.796 -0.52559 0.478828 0
M  V30 410 H 46.398 -0.897435 1.73685 0
M  V30 411 H 45.102 -2.4605 3.28463 0
M  V30 412 H 44.633 -3.44887 1.89253 0
M  V30 413 H 46.648 -4.68473 1.63545 0
M  V30 414 N 45.8211 -1.22559 -0.990812 0
M  V30 415 C 47.0611 -1.06302 -1.74583 0
M  V30 416 C 47.4251 0.394737 -1.87898 0
M  V30 417 O 48.6261 0.678214 -2.60103 0
M  V30 418 C 46.8971 -1.75699 -3.11231 0
M  V30 419 S 48.4561 -1.74882 -4.02445 0
M  V30 420 H 45.2741 -0.380639 -0.600529 0
M  V30 421 H 47.8761 -1.55532 -1.18449 0
M  V30 422 H 46.5801 -2.80923 -2.99183 0
M  V30 423 H 46.1111 -1.26708 -3.72436 0
M  V30 424 H 48.1261 -0.799997 -4.89709 0
M  V30 425 N 47.2992 1.18797 -1.03562 0
M  V30 426 C 48.2092 2.25913 -0.632505 0
M  V30 427 C 49.2252 1.70668 0.338882 0
M  V30 428 O 50.4012 2.00453 0.195076 0
M  V30 429 C 47.4662 3.467 0.00350942 0
M  V30 430 C 46.5272 4.17098 -1.01624 0
M  V30 431 C 45.7602 5.32119 -0.410478 0
M  V30 432 O 45.9832 5.64976 0.784725 0
M  V30 433 O 44.9172 5.9107 -1.13667 0
M  V30 434 H 48.7432 2.62648 -1.52478 0
M  V30 435 H 46.3282 1.25781 -0.806195 0
M  V30 436 H 48.2102 4.19878 0.35781 0
M  V30 437 H 46.8852 3.11798 0.869686 0
M  V30 438 H 45.7922 3.4601 -1.42224 0
M  V30 439 H 47.1252 4.55987 -1.85301 0
M  V30 440 N 48.7773 0.814389 1.34928 0
M  V30 441 C 50.1933 0.499084 1.51596 0
M  V30 442 C 50.3933 -0.978319 1.76157 0
M  V30 443 O 49.4493 -1.76309 1.80752 0
M  V30 444 C 50.7623 1.35121 2.68631 0
M  V30 445 C 52.3103 1.34746 2.82511 0
M  V30 446 C 52.7853 2.18388 4.0258 0
M  V30 447 N 54.2763 2.15966 4.09772 0
M  V30 448 C 55.0113 2.77437 5.01813 0
M  V30 449 N 54.5073 3.47866 5.99134 0
M  V30 450 N 56.3003 2.67037 4.94619 0
M  V30 451 H 48.4513 1.7711 1.17243 0
M  V30 452 H 50.7143 0.754256 0.574284 0
M  V30 453 H 50.4203 2.40001 2.57085 0
M  V30 454 H 50.2943 1.00991 3.63429 0
M  V30 455 H 52.6813 0.30648 2.93504 0
M  V30 456 H 52.7623 1.72869 1.88547 0
M  V30 457 H 52.4063 3.2253 3.92347 0
M  V30 458 H 52.3363 1.77621 4.9574 0
M  V30 459 H 54.8273 1.64729 3.40107 0
M  V30 460 H 55.1403 3.92038 6.65977 0
M  V30 461 H 53.4853 3.51972 5.99284 0
M  V30 462 H 56.6763 2.11597 4.17546 0
M  V30 463 H 56.8493 3.15232 5.66156 0
M  V30 464 N 50.2554 -1.46986 0.568584 0
M  V30 465 C 51.5014 -2.02741 0.0488709 0
M  V30 466 C 51.8344 -1.44077 -1.30214 0
M  V30 467 O 51.1094 -0.600552 -1.84996 0
M  V30 468 C 51.3924 -3.60086 -0.032047 0
M  V30 469 C 51.2454 -4.29162 1.34686 0
M  V30 470 C 52.5644 -4.33838 -0.739798 0
M  V30 471 H 49.6834 -0.736749 0.0192338 0
M  V30 472 H 52.3254 -1.75289 0.733065 0
M  V30 473 H 50.4754 -3.83606 -0.61473 0
M  V30 474 H 52.1474 -4.16948 1.97362 0
M  V30 475 H 50.3904 -3.89073 1.91846 0
M  V30 476 H 51.0614 -5.37826 1.24285 0
M  V30 477 H 53.5374 -4.15378 -0.244939 0
M  V30 478 H 52.4134 -5.43537 -0.765406 0
M  V30 479 H 52.6744 -4.03875 -1.79827 0
M  V30 480 N 51.7335 -0.305618 -1.54608 0
M  V30 481 C 52.9795 0.302746 -2.00528 0
M  V30 482 C 53.3125 1.53184 -1.19367 0
M  V30 483 O 52.5875 1.92598 -0.271321 0
M  V30 484 C 52.8705 0.654756 -3.54097 0
M  V30 485 C 52.7235 -0.583793 -4.45995 0
M  V30 486 C 54.0425 1.47947 -4.14487 0
M  V30 487 H 51.1615 0.108564 -0.72896 0
M  V30 488 H 53.8035 -0.418634 -1.85331 0
M  V30 489 H 51.9535 1.26935 -3.67178 0
M  V30 490 H 53.6255 -1.22224 -4.44814 0
M  V30 491 H 51.8685 -1.21615 -4.16404 0
M  V30 492 H 52.5395 -0.293287 -5.5122 0
M  V30 493 H 55.0155 0.96013 -4.04871 0
M  V30 494 H 53.8915 1.69454 -5.22088 0
M  V30 495 H 54.1525 2.47011 -3.66658 0
M  V30 496 N 53.2116 1.57565 -0.0334293 0
M  V30 497 C 54.4606 1.91155 0.643639 0
M  V30 498 C 54.7736 0.91192 1.73042 0
M  V30 499 O 55.9796 1.13923 2.46442 0
M  V30 500 C 54.4356 3.39443 1.1961 0
M  V30 501 C 54.0436 4.47774 0.142381 0
M  V30 502 C 55.7876 3.82094 1.84944 0
M  V30 503 C 53.6946 5.87162 0.706727 0
M  V30 504 H 52.6246 0.713368 0.244176 0
M  V30 505 H 55.2756 1.8323 -0.0994323 0
M  V30 506 H 53.6576 3.42313 1.99092 0
M  V30 507 H 54.8316 4.56469 -0.630296 0
M  V30 508 H 53.1466 4.14352 -0.412446 0
M  V30 509 H 55.7436 4.83591 2.2813 0
M  V30 510 H 56.0866 3.17386 2.69392 0
M  V30 511 H 56.6196 3.81665 1.12145 0
M  V30 512 H 53.3586 6.55424 -0.0997178 0
M  V30 513 H 52.8786 5.82064 1.44779 0
M  V30 514 H 54.5576 6.35866 1.19514 0
M  V30 515 N 54.6897 -0.239769 1.55765 0
M  V30 516 C 55.6377 -1.31668 1.91745 0
M  V30 517 C 56.6317 -1.49462 0.797338 0
M  V30 518 O 57.8377 -1.50852 0.982021 0
M  V30 519 H 54.2127 -0.441048 0.609082 0
M  V30 520 H 56.1837 -0.985923 2.81642 0
M  V30 521 C 54.9327 -2.66368 2.2348 0
M  V30 522 H 54.2557 -2.53478 3.09175 0
M  V30 523 H 55.6957 -3.40578 2.52553 0
M  V30 524 C 54.1547 -3.20002 1.05359 0
M  V30 525 O 54.6847 -4.00538 0.305261 0
M  V30 526 N 52.8907 -2.78126 0.842292 0
M  V30 527 H 52.4377 -2.12742 1.45253 0
M  V30 528 H 52.3957 -3.14354 0.053652 0
M  V30 529 N 56.1678 -1.49265 -0.50573 0
M  V30 530 C 57.4168 -1.57761 -1.25675 0
M  V30 531 C 57.7298 -0.267371 -1.93764 0
M  V30 532 O 58.9358 -0.230827 -2.70517 0
M  V30 533 C 57.3918 -2.78332 -2.28165 0
M  V30 534 C 56.9998 -4.16096 -1.66037 0
M  V30 535 C 58.7438 -2.96155 -3.04125 0
M  V30 536 C 56.6508 -5.27895 -2.6661 0
M  V30 537 H 55.5808 -0.587391 -0.472745 0
M  V30 538 H 58.2318 -1.75644 -0.53118 0
M  V30 539 H 56.6138 -2.53934 -3.03865 0
M  V30 540 H 57.7878 -4.50612 -0.963622 0
M  V30 541 H 56.1028 -4.03591 -1.02484 0
M  V30 542 H 58.6998 -3.76849 -3.79327 0
M  V30 543 H 59.0428 -2.06534 -3.61455 0
M  V30 544 H 59.5758 -3.2057 -2.35541 0
M  V30 545 H 56.3148 -6.1956 -2.14068 0
M  V30 546 H 55.8348 -4.97839 -3.34539 0
M  V30 547 H 57.5138 -5.57031 -3.29129 0
M  V30 548 N 57.6459 0.756429 -1.3826 0
M  V30 549 C 58.8709 1.55077 -1.37717 0
M  V30 550 C 59.2959 1.88073 0.03164 0
M  V30 551 O 58.6539 1.50364 1.01293 0
M  V30 552 C 58.7019 2.8283 -2.23695 0
M  V30 553 O 57.8059 3.77862 -1.6521 0
M  V30 554 H 57.1469 0.469152 -0.469885 0
M  V30 555 H 59.6769 0.935019 -1.81985 0
M  V30 556 H 59.6869 3.31783 -2.37453 0
M  V30 557 H 58.3619 2.58144 -3.2609 0
M  V30 558 H 56.9389 3.36555 -1.60578 0
M  V30 559 N 59.124 1.23083 0.984299 0
M  V30 560 C 60.372 1.05848 1.72165 0
M  V30 561 C 60.693 -0.406049 1.90726 0
M  V30 562 O 59.963 -1.29139 1.47309 0
M  V30 563 H 58.543 0.388685 0.637913 0
M  V30 564 H 61.205 1.54736 1.18503 0
M  V30 565 H 60.301 1.54327 2.71274 0
M  V30 566 N 60.6021 -1.18246 1.0419 0
M  V30 567 C 61.5321 -2.24127 0.654914 0
M  V30 568 C 62.5131 -1.66617 -0.342451 0
M  V30 569 O 63.6981 -1.92924 -0.222277 0
M  V30 570 C 60.8281 -3.47295 0.0183757 0
M  V30 571 C 59.7821 -4.17563 0.939414 0
M  V30 572 C 59.1081 -5.34438 0.167286 0
M  V30 573 C 60.4081 -4.70917 2.25908 0
M  V30 574 H 62.1021 -2.56753 1.54007 0
M  V30 575 H 59.6481 -1.23414 0.74195 0
M  V30 576 H 61.6011 -4.20572 -0.264082 0
M  V30 577 H 60.3251 -3.13907 -0.901664 0
M  V30 578 H 58.9841 -3.46186 1.20628 0
M  V30 579 H 58.6321 -4.97298 -0.7552 0
M  V30 580 H 58.3321 -5.82388 0.780901 0
M  V30 581 H 59.8561 -6.10504 -0.108125 0
M  V30 582 H 61.2701 -5.35882 2.03724 0
M  V30 583 H 59.6671 -5.29406 2.82577 0
M  V30 584 H 60.7371 -3.88272 2.9047 0
M  V30 585 N 62.0802 -0.821533 -1.34494 0
M  V30 586 C 63.4962 -0.507117 -1.51329 0
M  V30 587 C 63.6962 0.968964 -1.76673 0
M  V30 588 O 62.7522 1.75348 -1.81685 0
M  V30 589 C 64.0652 -1.36544 -2.67911 0
M  V30 590 C 65.6132 -1.36242 -2.81793 0
M  V30 591 C 66.0882 -2.2052 -4.01416 0
M  V30 592 N 67.5792 -2.18136 -4.08621 0
M  V30 593 C 68.3142 -2.80095 -5.00334 0
M  V30 594 N 67.8102 -3.51039 -5.9728 0
M  V30 595 N 69.6032 -2.69656 -4.93196 0
M  V30 596 H 61.7542 -1.77729 -1.16302 0
M  V30 597 H 64.0172 -0.757291 -0.570276 0
M  V30 598 H 63.7232 -2.41361 -2.55808 0
M  V30 599 H 63.5972 -1.02917 -3.62888 0
M  V30 600 H 65.9842 -0.322041 -2.93338 0
M  V30 601 H 66.0652 -1.73866 -1.87628 0
M  V30 602 H 65.7092 -3.24607 -3.90631 0
M  V30 603 H 65.6392 -1.80247 -4.94791 0
M  V30 604 H 68.1302 -1.6653 -3.39229 0
M  V30 605 H 68.4432 -3.95565 -6.63889 0
M  V30 606 H 66.7882 -3.55145 -5.97409 0
M  V30 607 H 69.9792 -2.13808 -4.16418 0
M  V30 608 H 70.1522 -3.1823 -5.64476 0
M  V30 609 N 63.5583 1.46682 -0.576371 0
M  V30 610 C 64.8053 2.02412 -0.0595339 0
M  V30 611 C 65.1333 1.44859 1.29793 0
M  V30 612 O 64.3883 0.601099 1.8624 0
M  V30 613 C 64.6873 3.57345 0.062886 0
M  V30 614 C 64.3533 4.33908 -1.22616 0
M  V30 615 C 63.0153 4.54544 -1.57933 0
M  V30 616 C 65.3673 4.77919 -2.07948 0
M  V30 617 C 62.6953 5.16444 -2.78393 0
M  V30 618 C 65.0473 5.41149 -3.27629 0
M  V30 619 C 63.7113 5.60014 -3.63236 0
M  V30 620 H 62.9813 0.74068 -0.021785 0
M  V30 621 H 65.6283 1.76128 -0.751735 0
M  V30 622 H 63.9333 3.82729 0.838178 0
M  V30 623 H 65.6303 3.98136 0.478439 0
M  V30 624 H 62.2203 4.18138 -0.941202 0
M  V30 625 H 66.4043 4.61738 -1.81967 0
M  V30 626 H 61.6603 5.29242 -3.06126 0
M  V30 627 H 65.8343 5.74211 -3.94023 0
M  V30 628 H 63.4613 6.07748 -4.56669 0
M  V30 629 N 65.0364 0.313813 1.54444 0
M  V30 630 C 65.9464 -0.565714 2.27677 0
M  V30 631 C 66.9624 -1.13754 1.31666 0
M  V30 632 O 68.1384 -1.15959 1.64668 0
M  V30 633 C 65.2034 -1.71528 3.01296 0
M  V30 634 C 64.2644 -1.17624 4.12872 0
M  V30 635 C 63.4974 -2.27102 4.8297 0
M  V30 636 O 63.7204 -3.47256 4.52514 0
M  V30 637 O 62.6544 -1.9307 5.70094 0
M  V30 638 H 66.4804 0.0287296 3.03686 0
M  V30 639 H 64.0654 0.0798312 1.49187 0
M  V30 640 H 65.9474 -2.38476 3.4743 0
M  V30 641 H 64.6224 -2.29608 2.2817 0
M  V30 642 H 63.5294 -0.472124 3.71109 0
M  V30 643 H 64.8624 -0.640695 4.88012 0
M  V30 644 N 66.5145 -1.57545 0.0417849 0
M  V30 645 C 67.7425 -1.96624 -0.643928 0
M  V30 646 C 68.1575 -0.918897 -1.64929 0
M  V30 647 O 67.5145 0.0979323 -1.82237 0
M  V30 648 C 67.5655 -3.35781 -1.33914 0
M  V30 649 O 67.2865 -4.365 -0.374048 0
M  V30 650 C 68.7875 -3.89566 -2.1155 0
M  V30 651 H 66.0075 -0.647316 -0.176702 0
M  V30 652 H 68.5515 -2.04229 0.105304 0
M  V30 653 H 66.7065 -3.29357 -2.03968 0
M  V30 654 H 67.1205 -5.17248 -0.869179 0
M  V30 655 H 68.5945 -4.89242 -2.55628 0
M  V30 656 H 69.0715 -3.24488 -2.9598 0
M  V30 657 H 69.6775 -3.99298 -1.46427 0
M  V30 658 N 67.9926 0.231505 -1.5589 0
M  V30 659 C 68.9246 1.31006 -1.8807 0
M  V30 660 C 69.9376 1.43539 -0.768145 0
M  V30 661 O 71.1266 1.44614 -1.04638 0
M  V30 662 C 68.2266 2.68688 -2.06543 0
M  V30 663 C 67.3996 2.78228 -3.37502 0
M  V30 664 C 66.4586 3.96857 -3.4553 0
M  V30 665 O 65.4846 3.85662 -4.18633 0
M  V30 666 N 66.6866 5.1072 -2.75944 0
M  V30 667 H 69.4516 1.03731 -2.81176 0
M  V30 668 H 67.0126 0.421573 -1.56315 0
M  V30 669 H 69.0046 3.46412 -2.09239 0
M  V30 670 H 67.5746 2.88605 -1.20109 0
M  V30 671 H 66.7946 1.87059 -3.46991 0
M  V30 672 H 68.0826 2.81564 -4.23791 0
M  V30 673 H 67.4806 5.2271 -2.16311 0
M  V30 674 H 66.0376 5.86523 -2.84314 0
M  V30 675 N 69.4707 1.49531 0.497807 0
M  V30 676 C 70.4007 1.6935 1.60757 0
M  V30 677 C 71.3817 0.542218 1.61227 0
M  V30 678 O 72.5667 0.778417 1.77917 0
M  V30 679 C 69.6967 1.76298 2.99226 0
M  V30 680 C 68.6507 2.91248 3.13622 0
M  V30 681 C 67.9767 2.83312 4.53474 0
M  V30 682 C 69.2767 4.3214 2.93346 0
M  V30 683 H 70.9707 2.62263 1.44425 0
M  V30 684 H 68.5167 1.26208 0.693367 0
M  V30 685 H 70.4697 1.88749 3.76765 0
M  V30 686 H 69.1937 0.799871 3.16654 0
M  V30 687 H 67.8527 2.78404 2.38509 0
M  V30 688 H 67.5007 1.84902 4.67782 0
M  V30 689 H 67.2007 3.60465 4.64046 0
M  V30 690 H 68.7247 2.97775 5.33069 0
M  V30 691 H 70.1387 4.45649 3.60652 0
M  V30 692 H 68.5357 5.1054 3.15387 0
M  V30 693 H 69.6057 4.46363 1.89441 0
M  V30 694 N 70.9488 -0.749086 1.3866 0
M  V30 695 C 71.8958 -1.86291 1.36251 0
M  V30 696 C 72.8658 -1.64578 0.224347 0
M  V30 697 O 74.0508 -1.86181 0.417279 0
M  V30 698 C 71.1908 -3.23644 1.19786 0
M  V30 699 C 70.3038 -3.57158 2.43027 0
M  V30 700 C 69.4388 -4.83838 2.19258 0
M  V30 701 C 68.4778 -5.10152 3.38247 0
M  V30 702 N 67.6148 -6.28029 3.13884 0
M  V30 703 H 72.4548 -1.87685 2.3147 0
M  V30 704 H 69.9918 -0.917287 1.14997 0
M  V30 705 H 71.9498 -4.0291 1.08254 0
M  V30 706 H 70.5798 -3.21566 0.282031 0
M  V30 707 H 69.6318 -2.72701 2.65214 0
M  V30 708 H 70.9438 -3.7253 3.31697 0
M  V30 709 H 70.0978 -5.71057 2.04888 0
M  V30 710 H 68.8368 -4.70614 1.2796 0
M  V30 711 H 67.8418 -4.21401 3.53131 0
M  V30 712 H 69.0668 -5.25271 4.30427 0
M  V30 713 H 67.0128 -6.1612 2.25238 0
M  V30 714 H 66.9298 -6.43922 3.96106 0
M  V30 715 H 68.1978 -7.18124 3.03179 0
M  V30 716 N 72.4269 -1.23603 -0.977757 0
M  V30 717 C 73.6549 -1.09646 -1.75458 0
M  V30 718 C 74.0699 0.351859 -1.85492 0
M  V30 719 O 73.4269 1.24327 -1.336 0
M  V30 720 C 73.4779 -1.71895 -3.18016 0
M  V30 721 O 73.1989 -3.11063 -3.08498 0
M  V30 722 C 74.6999 -1.63415 -4.12081 0
M  V30 723 H 71.9199 -0.38359 -0.550545 0
M  V30 724 H 74.4639 -1.63507 -1.22824 0
M  V30 725 H 72.6189 -1.22061 -3.67668 0
M  V30 726 H 73.0329 -3.41305 -3.9826 0
M  V30 727 H 74.5069 -2.11669 -5.09804 0
M  V30 728 H 74.9839 -0.593462 -4.35172 0
M  V30 729 H 75.5899 -2.12628 -3.68334 0
M  V30 730 N 73.905 1.17692 -1.04816 0
M  V30 731 C 74.835 2.23777 -0.666791 0
M  V30 732 C 75.816 1.66796 0.33361 0
M  V30 733 O 77.001 1.93039 0.212042 0
M  V30 734 C 74.131 3.47281 -0.0367933 0
M  V30 735 C 73.085 4.17059 -0.961546 0
M  V30 736 C 72.411 5.34342 -0.195626 0
M  V30 737 C 73.711 4.69713 -2.28402 0
M  V30 738 H 75.405 2.55933 -1.55367 0
M  V30 739 H 72.951 1.23019 -0.748484 0
M  V30 740 H 74.904 4.20706 0.241775 0
M  V30 741 H 73.628 3.14381 0.885004 0
M  V30 742 H 72.287 3.45541 -1.22462 0
M  V30 743 H 71.935 4.97692 0.728816 0
M  V30 744 H 71.635 5.81966 -0.811775 0
M  V30 745 H 73.159 6.10553 0.0757473 0
M  V30 746 H 74.573 5.34794 -2.06563 0
M  V30 747 H 72.97 5.279 -2.8538 0
M  V30 748 H 74.04 3.86726 -2.92525 0
M  V30 749 N 75.3831 0.828654 1.34056 0
M  V30 750 C 76.3461 0.259927 2.27721 0
M  V30 751 C 77.3461 -0.565478 1.50529 0
M  V30 752 O 78.5361 -0.38075 1.69988 0
M  V30 753 C 75.6681 -0.634944 3.34935 0
M  V30 754 H 76.8611 1.0863 2.79534 0
M  V30 755 H 74.4141 0.600951 1.44285 0
M  V30 756 H 75.1491 -1.48416 2.88346 0
M  V30 757 H 74.9341 -0.0444999 3.92075 0
M  V30 758 H 76.4241 -1.02648 4.04788 0
M  V30 759 N 76.8612 -1.46375 0.584142 0
M  V30 760 C 77.7932 -2.28443 -0.186119 0
M  V30 761 C 78.8062 -1.38596 -0.854115 0
M  V30 762 O 79.9952 -1.63183 -0.723438 0
M  V30 763 C 77.0952 -3.13671 -1.28311 0
M  V30 764 C 76.2682 -4.31652 -0.706758 0
M  V30 765 C 75.3272 -4.98267 -1.69163 0
M  V30 766 O 74.3532 -5.55815 -1.22712 0
M  V30 767 N 75.5552 -4.95408 -3.02575 0
M  V30 768 H 78.3202 -2.9519 0.517986 0
M  V30 769 H 75.8812 -1.56303 0.42201 0
M  V30 770 H 77.8732 -3.55101 -1.94128 0
M  V30 771 H 76.4432 -2.48989 -1.89005 0
M  V30 772 H 75.6632 -3.93989 0.128908 0
M  V30 773 H 76.9512 -5.07906 -0.301506 0
M  V30 774 H 76.3492 -4.49902 -3.42936 0
M  V30 775 H 74.9062 -5.40774 -3.63877 0
M  V30 776 N 78.3393 -0.321999 -1.54275 0
M  V30 777 C 79.5863 0.281044 -2.0054 0
M  V30 778 C 79.9143 1.52265 -1.21019 0
M  V30 779 O 79.1693 1.93687 -0.279982 0
M  V30 780 C 79.4683 0.661769 -3.5122 0
M  V30 781 C 79.1343 -0.480482 -4.48333 0
M  V30 782 C 77.7963 -0.794005 -4.74604 0
M  V30 783 C 80.1483 -1.24783 -5.06042 0
M  V30 784 C 77.4763 -1.87763 -5.55844 0
M  V30 785 C 79.8283 -2.32153 -5.88462 0
M  V30 786 C 78.4923 -2.64089 -6.13036 0
M  V30 787 H 77.7623 0.102841 -0.733829 0
M  V30 788 H 80.4093 -0.445453 -1.86247 0
M  V30 789 H 78.7143 1.46867 -3.63232 0
M  V30 790 H 80.4113 1.13989 -3.84457 0
M  V30 791 H 77.0013 -0.226039 -4.28004 0
M  V30 792 H 81.1853 -1.01887 -4.85729 0
M  V30 793 H 76.4413 -2.12954 -5.73115 0
M  V30 794 H 80.6153 -2.92057 -6.32199 0
M  V30 795 H 78.2423 -3.48185 -6.75775 0
M  V30 796 N 79.8174 1.5752 -0.0501392 0
M  V30 797 C 81.2284 1.80271 0.485705 0
M  V30 798 C 81.5794 0.96228 1.70981 0
M  V30 799 O 80.7044 0.178578 2.15662 0
M  V30 800 C 81.2994 3.26957 0.887938 0
M  V30 801 C 79.8584 3.5063 1.36877 0
M  V30 802 C 79.0054 2.75165 0.343468 0
M  V30 803 H 81.9564 1.56281 -0.276028 0
M  V30 804 H 81.9774 3.37821 1.75093 0
M  V30 805 H 81.4894 3.881 -0.0031809 0
M  V30 806 H 79.5904 2.94766 2.27911 0
M  V30 807 H 79.7034 4.59343 1.36164 0
M  V30 808 H 78.0674 2.4127 0.816128 0
M  V30 809 H 78.8504 3.39034 -0.539548 0
M  V30 810 N 81.2955 -0.223234 1.56011 0
M  V30 811 C 82.2055 -1.29766 1.95443 0
M  V30 812 C 83.2215 -1.51373 0.858028 0
M  V30 813 O 84.3975 -1.64536 1.16146 0
M  V30 814 C 81.4625 -2.62772 2.26167 0
M  V30 815 C 80.5235 -2.49482 3.49367 0
M  V30 816 C 79.7565 -3.76145 3.78616 0
M  V30 817 O 79.9795 -4.79087 3.09568 0
M  V30 818 O 78.9135 -3.73358 4.72109 0
M  V30 819 H 82.7395 -0.99309 2.87004 0
M  V30 820 H 80.3245 -0.425958 1.43199 0
M  V30 821 H 82.2065 -3.41327 2.47131 0
M  V30 822 H 80.8815 -2.92913 1.37781 0
M  V30 823 H 79.7885 -1.69133 3.33684 0
M  V30 824 H 81.1215 -2.2428 4.38131 0
M  V30 825 N 82.7736 -1.49793 -0.48987 0
M  V30 826 C 84.0016 -1.63568 -1.26701 0
M  V30 827 C 84.4166 -0.311465 -1.86213 0
M  V30 828 O 83.7736 0.704416 -1.68357 0
M  V30 829 C 83.8246 -2.71284 -2.38929 0
M  V30 830 O 83.5456 -3.9857 -1.81861 0
M  V30 831 C 85.0466 -2.95864 -3.3012 0
M  V30 832 H 82.2666 -0.550342 -0.383881 0
M  V30 833 H 84.8106 -1.95898 -0.586864 0
M  V30 834 H 82.9656 -2.417 -3.02753 0
M  V30 835 H 83.3796 -4.57993 -2.55622 0
M  V30 836 H 84.8536 -3.74941 -4.05121 0
M  V30 837 H 85.3306 -2.06206 -3.87783 0
M  V30 838 H 85.9366 -3.26907 -2.72051 0
M  V30 839 N 84.2517 0.741722 -1.39055 0
M  V30 840 C 85.1817 1.869 -1.39966 0
M  V30 841 C 86.1627 1.6804 -0.26392 0
M  V30 842 O 87.3477 1.88458 -0.468755 0
M  V30 843 C 84.4777 3.24572 -1.23574 0
M  V30 844 C 83.4317 3.58056 -2.34477 0
M  V30 845 C 82.7577 4.94593 -2.0318 0
M  V30 846 C 84.0577 3.61716 -3.76774 0
M  V30 847 H 85.7517 1.86395 -2.34302 0
M  V30 848 H 83.2977 0.895361 -1.1278 0
M  V30 849 H 85.2507 4.031 -1.22834 0
M  V30 850 H 83.9747 3.25587 -0.257045 0
M  V30 851 H 82.6337 2.81854 -2.34423 0
M  V30 852 H 82.2817 4.92181 -1.03765 0
M  V30 853 H 81.9817 5.17964 -2.77465 0
M  V30 854 H 83.5057 5.75486 -2.04079 0
M  V30 855 H 84.9197 4.30335 -3.78794 0
M  V30 856 H 83.3167 3.96603 -4.50362 0
M  V30 857 H 84.3867 2.61672 -4.08235 0
M  V30 858 N 85.7298 1.2412 0.971189 0
M  V30 859 C 86.6598 1.05508 2.08304 0
M  V30 860 C 87.6408 -0.0308864 1.70072 0
M  V30 861 O 88.8258 0.135521 1.93727 0
M  V30 862 C 85.9558 0.655365 3.4106 0
M  V30 863 C 84.9098 1.68971 3.93234 0
M  V30 864 C 84.2358 1.14516 5.22293 0
M  V30 865 C 85.5358 3.08487 4.21465 0
M  V30 866 H 87.2298 1.98507 2.24132 0
M  V30 867 H 84.7758 0.955821 1.07704 0
M  V30 868 H 86.7288 0.51217 4.18276 0
M  V30 869 H 85.4528 -0.31032 3.25122 0
M  V30 870 H 84.1118 1.82106 3.18171 0
M  V30 871 H 83.7598 0.170189 5.02712 0
M  V30 872 H 83.4598 1.83635 5.58168 0
M  V30 873 H 84.9838 1.01401 6.02121 0
M  V30 874 H 86.3978 2.98601 4.89398 0
M  V30 875 H 84.7948 3.74926 4.68562 0
M  V30 876 H 85.8648 3.56787 3.28376 0
M  V30 877 N 87.2079 -1.17134 1.05439 0
M  V30 878 C 88.4559 -1.87085 0.764429 0
M  V30 879 C 88.7769 -1.81584 -0.710787 0
M  V30 880 O 88.0469 -1.24349 -1.51374 0
M  V30 881 H 86.6269 -0.692627 0.279779 0
M  V30 882 H 89.2889 -1.42087 1.33406 0
M  V30 883 H 88.3849 -2.92759 1.0816 0
M  V30 884 N 88.686 -0.835752 -1.33615 0
M  V30 885 C 89.963 -0.352017 -1.92406 0
M  V30 886 C 90.343 1.16225 -1.76224 0
M  V30 887 O 89.691 1.97526 -1.14873 0
M  V30 888 C 89.901 -0.795485 -3.39813 0
M  V30 889 C 91.249 -0.801703 -4.16963 0
M  V30 890 O 92.273 -0.738889 -3.48452 0
M  V30 891 O 91.132 -0.886607 -5.3926 0
M  V30 892 H 88.226 -0.0989641 -0.821057 0
M  V30 893 H 90.772 -0.921397 -1.42507 0
M  V30 894 H 89.544 -1.83795 -3.45449 0
M  V30 895 H 89.167 -0.202505 -3.97084 0
M  V30 896 N 90.1641 1.46063 -0.591896 0
M  V30 897 C 91.5751 1.85944 -0.167822 0
M  V30 898 C 91.9261 1.49429 1.27143 0
M  V30 899 O 91.0511 0.913515 1.96173 0
M  V30 900 C 91.6461 3.37489 -0.297794 0
M  V30 901 C 90.2051 3.76332 0.0714732 0
M  V30 902 C 89.3521 2.7006 -0.629509 0
M  V30 903 H 92.3031 1.37087 -0.799555 0
M  V30 904 H 92.3241 3.77532 0.474349 0
M  V30 905 H 91.8361 3.64034 -1.3454 0
M  V30 906 H 89.9371 3.55405 1.11886 0
M  V30 907 H 90.0501 4.78088 -0.311245 0
M  V30 908 H 88.4141 2.54607 -0.0687867 0
M  V30 909 H 89.1971 2.99444 -1.67894 0
M  V30 910 N 91.6422 0.330177 1.54103 0
M  V30 911 C 92.5892 -0.532762 2.24567 0
M  V30 912 C 93.5592 -1.10635 1.23892 0
M  V30 913 O 94.7442 -1.14546 1.5259 0
M  V30 914 C 91.8842 -1.6845 3.01195 0
M  V30 915 C 90.9972 -1.13951 4.167 0
M  V30 916 C 90.1322 -2.25746 4.80845 0
M  V30 917 C 89.1712 -1.6853 5.88442 0
M  V30 918 N 88.3082 -2.74014 6.46421 0
M  V30 919 H 93.1482 0.0746905 2.97906 0
M  V30 920 H 90.6852 0.048632 1.4702 0
M  V30 921 H 92.6432 -2.36234 3.43874 0
M  V30 922 H 91.2732 -2.26314 2.30178 0
M  V30 923 H 90.3252 -0.35301 3.78758 0
M  V30 924 H 91.6372 -0.680892 4.94131 0
M  V30 925 H 90.7912 -3.01422 5.26526 0
M  V30 926 H 89.5302 -2.74947 4.0281 0
M  V30 927 H 88.5352 -0.913543 5.42157 0
M  V30 928 H 89.7602 -1.20198 6.68378 0
M  V30 929 H 87.7062 -3.22494 5.71256 0
M  V30 930 H 87.6232 -2.32735 7.19285 0
M  V30 931 H 88.8912 -3.49499 6.96757 0
M  V30 932 N 93.1203 -1.57491 0.0584922 0
M  V30 933 C 94.0673 -2.11958 -0.913376 0
M  V30 934 C 95.0373 -1.02875 -1.30407 0
M  V30 935 O 96.2223 -1.30464 -1.39226 0
M  V30 936 C 93.3623 -2.67497 -2.18035 0
M  V30 937 C 92.4753 -3.90691 -1.84349 0
M  V30 938 C 91.6103 -4.3452 -3.05559 0
M  V30 939 C 90.6493 -5.50395 -2.67827 0
M  V30 940 N 89.7863 -5.89244 -3.81754 0
M  V30 941 H 94.6263 -2.94704 -0.442017 0
M  V30 942 H 92.1633 -1.45643 -0.206545 0
M  V30 943 H 94.1213 -2.978 -2.92183 0
M  V30 944 H 92.7513 -1.87537 -2.62735 0
M  V30 945 H 91.8033 -3.66934 -1.00319 0
M  V30 946 H 93.1153 -4.7489 -1.5258 0
M  V30 947 H 92.2693 -4.66414 -3.87998 0
M  V30 948 H 91.0083 -3.49147 -3.40511 0
M  V30 949 H 90.0133 -5.18165 -1.83806 0
M  V30 950 H 91.2383 -6.3749 -2.34059 0
M  V30 951 H 89.1843 -5.06823 -4.16493 0
M  V30 952 H 89.1013 -6.68151 -3.53708 0
M  V30 953 H 90.3693 -6.25756 -4.64811 0
M  V30 954 N 94.5984 0.214957 -1.56127 0
M  V30 955 C 96.0144 0.564948 -1.49267 0
M  V30 956 C 96.2144 1.86827 -0.754838 0
M  V30 957 O 95.2704 2.50745 -0.297198 0
M  V30 958 C 96.5834 0.638071 -2.93852 0
M  V30 959 C 98.1314 0.728253 -3.0441 0
M  V30 960 C 98.6064 0.832663 -4.50367 0
M  V30 961 N 100.097 0.896712 -4.54437 0
M  V30 962 C 100.832 0.997324 -5.6466 0
M  V30 963 N 100.328 1.06147 -6.8462 0
M  V30 964 N 102.121 1.03297 -5.52527 0
M  V30 965 H 94.2724 -0.640211 -2.02522 0
M  V30 966 H 96.5354 -0.225507 -0.920788 0
M  V30 967 H 96.2414 -0.250126 -3.50809 0
M  V30 968 H 96.1154 1.49947 -3.46115 0
M  V30 969 H 98.5024 1.60689 -2.47514 0
M  V30 970 H 98.5834 -0.158952 -2.55306 0
M  V30 971 H 98.2274 -0.0415417 -5.07883 0
M  V30 972 H 98.1574 1.73538 -4.97184 0
M  V30 973 H 100.648 0.857188 -3.6805 0
M  V30 974 H 100.961 1.1382 -7.64372 0
M  V30 975 H 99.3064 1.03049 -6.87318 0
M  V30 976 H 102.497 0.979558 -4.57736 0
M  V30 977 H 102.67 1.10793 -6.38458 0
M  V30 978 N 96.0765 1.50051 0.48192 0
M  V30 979 C 97.0095 1.62749 1.59963 0
M  V30 980 C 97.9875 0.475903 1.5548 0
M  V30 981 O 99.1715 0.693986 1.7526 0
M  V30 982 C 96.2985 1.60008 2.98522 0
M  V30 983 C 95.3445 2.80596 3.21198 0
M  V30 984 S 96.1775 4.42038 3.02262 0
M  V30 985 C 97.3335 4.41973 4.43182 0
M  V30 986 H 97.5665 2.57296 1.4895 0
M  V30 987 H 95.0995 1.39179 0.668477 0
M  V30 988 H 97.0575 1.59112 3.78409 0
M  V30 989 H 95.7185 0.667153 3.06933 0
M  V30 990 H 94.9115 2.74952 4.22395 0
M  V30 991 H 94.5135 2.79003 2.49065 0
M  V30 992 H 96.8055 4.14868 5.35622 0
M  V30 993 H 97.7485 5.43512 4.53873 0
M  V30 994 H 98.1565 3.71812 4.24755 0
M  V30 995 N 97.5546 -0.734337 1.39446 0
M  V30 996 C 98.9706 -1.03997 1.21065 0
M  V30 997 C 99.1706 -2.01369 0.0727019 0
M  V30 998 O 98.2266 -2.45856 -0.575426 0
M  V30 999 C 99.5396 -1.60163 2.54496 0
M  V30 1000 C 101.088 -1.7224 2.61347 0
M  V30 1001 C 101.563 -2.31814 3.95002 0
M  V30 1002 N 103.054 -2.39223 3.96644 0
M  V30 1003 C 103.789 -2.86258 4.96834 0
M  V30 1004 N 103.285 -3.33184 6.07421 0
M  V30 1005 N 105.078 -2.85473 4.84213 0
M  V30 1006 H 97.2286 -0.0885624 2.12215 0
M  V30 1007 H 99.4916 -0.10191 0.942506 0
M  V30 1008 H 99.1976 -0.960811 3.38321 0
M  V30 1009 H 99.0716 -2.5896 2.74262 0
M  V30 1010 H 101.459 -2.35443 1.77906 0
M  V30 1011 H 101.54 -0.720939 2.4543 0
M  V30 1012 H 101.184 -1.69238 4.78875 0
M  V30 1013 H 101.114 -3.32638 4.08239 0
M  V30 1014 H 103.605 -2.06057 3.16779 0
M  V30 1015 H 103.918 -3.67586 6.7978 0
M  V30 1016 H 102.263 -3.31191 6.11013 0
M  V30 1017 H 105.454 -2.48136 3.96921 0
M  V30 1018 H 105.627 -3.21814 5.62441 0
M  V30 1019 N 99.0327 -1.24633 -0.964593 0
M  V30 1020 C 100.263 -1.11339 -1.74032 0
M  V30 1021 C 100.671 0.336593 -1.86182 0
M  V30 1022 O 100.014 1.24389 -1.35178 0
M  V30 1023 C 100.076 -1.68284 -3.1768 0
M  V30 1024 C 99.7397 -3.17196 -3.28992 0
M  V30 1025 C 100.737 -4.14308 -3.14078 0
M  V30 1026 C 98.4217 -3.57215 -3.53133 0
M  V30 1027 C 100.416 -5.4942 -3.23135 0
M  V30 1028 C 98.1027 -4.92468 -3.61827 0
M  V30 1029 C 99.1007 -5.8838 -3.46841 0
M  V30 1030 O 98.7887 -7.21173 -3.55197 0
M  V30 1031 H 98.5207 -0.389551 -0.552472 0
M  V30 1032 H 101.075 -1.65282 -1.21946 0
M  V30 1033 H 99.3047 -1.08777 -3.71085 0
M  V30 1034 H 100.994 -1.50234 -3.77074 0
M  V30 1035 H 101.76 -3.84731 -2.95308 0
M  V30 1036 H 97.6387 -2.83063 -3.63863 0
M  V30 1037 H 101.183 -6.24263 -3.11355 0
M  V30 1038 H 97.0797 -5.21714 -3.80111 0
M  V30 1039 H 97.8477 -7.29135 -3.71892 0
M  V30 1040 N 100.511 1.16574 -1.06058 0
M  V30 1041 C 101.758 1.87047 -0.775873 0
M  V30 1042 C 102.086 1.81562 0.697534 0
M  V30 1043 O 101.341 1.22445 1.52662 0
M  V30 1044 C 101.64 3.36195 -1.21275 0
M  V30 1045 C 101.306 3.6188 -2.68986 0
M  V30 1046 C 99.9678 3.68599 -3.09335 0
M  V30 1047 C 102.32 3.72648 -3.64394 0
M  V30 1048 C 99.6478 3.83584 -4.43937 0
M  V30 1049 C 102 3.89154 -4.98741 0
M  V30 1050 C 100.664 3.94114 -5.3873 0
M  V30 1051 H 99.9338 0.684452 -0.283912 0
M  V30 1052 H 102.581 1.37853 -1.32925 0
M  V30 1053 H 100.886 3.87505 -0.578528 0
M  V30 1054 H 102.583 3.89103 -0.969542 0
M  V30 1055 H 99.1728 3.57281 -2.36744 0
M  V30 1056 H 103.357 3.66769 -3.34356 0
M  V30 1057 H 98.6128 3.85677 -4.74409 0
M  V30 1058 H 102.787 3.96427 -5.72554 0
M  V30 1059 H 100.414 4.05478 -6.43033 0
M  V30 1060 N 101.989 0.842826 1.3317 0
M  V30 1061 C 103.266 0.362216 1.92217 0
M  V30 1062 C 103.646 -1.15289 1.76838 0
M  V30 1063 O 102.994 -1.96914 1.15919 0
M  V30 1064 C 103.204 0.813495 3.39387 0
M  V30 1065 C 104.552 0.823804 4.16532 0
M  V30 1066 O 105.576 0.757358 3.48055 0
M  V30 1067 O 104.435 0.915193 5.38782 0
M  V30 1068 H 101.529 0.103317 0.820521 0
M  V30 1069 H 104.075 0.928942 1.42017 0
M  V30 1070 H 102.847 1.85624 3.4447 0
M  V30 1071 H 102.47 0.223561 3.96971 0
M  V30 1072 N 103.467 -1.45747 0.599634 0
M  V30 1073 C 104.878 -1.85853 0.177681 0
M  V30 1074 C 105.229 -1.50102 -1.26348 0
M  V30 1075 O 104.354 -0.923905 -1.95686 0
M  V30 1076 C 104.949 -3.37326 0.315688 0
M  V30 1077 C 103.508 -3.76365 -0.0515144 0
M  V30 1078 C 102.655 -2.69722 0.643822 0
M  V30 1079 H 105.606 -1.36661 0.806814 0
M  V30 1080 H 105.627 -3.77778 -0.454321 0
M  V30 1081 H 105.139 -3.63315 1.36468 0
M  V30 1082 H 103.24 -3.55993 -1.09999 0
M  V30 1083 H 103.353 -4.77916 0.336594 0
M  V30 1084 H 101.717 -2.54567 0.0822881 0
M  V30 1085 H 102.5 -2.98549 1.6948 0
M  V30 1086 N 104.945 -0.338344 -1.53925 0
M  V30 1087 C 105.875 0.51328 -2.27789 0
M  V30 1088 C 106.856 1.107 -1.29149 0
M  V30 1089 O 108.041 1.12937 -1.57984 0
M  V30 1090 C 105.171 1.66697 -3.04679 0
M  V30 1091 C 104.125 1.20183 -4.1078 0
M  V30 1092 C 103.451 2.44363 -4.75595 0
M  V30 1093 C 104.751 0.30605 -5.21403 0
M  V30 1094 H 106.445 -0.102883 -2.99223 0
M  V30 1095 H 103.991 -0.0509219 -1.4391 0
M  V30 1096 H 105.944 2.26915 -3.55088 0
M  V30 1097 H 104.668 2.30995 -2.30887 0
M  V30 1098 H 103.327 0.622499 -3.61276 0
M  V30 1099 H 102.975 3.07057 -3.98403 0
M  V30 1100 H 102.675 2.13925 -5.47275 0
M  V30 1101 H 104.199 3.05317 -5.28786 0
M  V30 1102 H 105.613 0.814929 -5.67478 0
M  V30 1103 H 104.01 0.0937929 -6.00027 0
M  V30 1104 H 105.08 -0.65921 -4.80398 0
M  V30 1105 N 106.423 1.57458 -0.0668435 0
M  V30 1106 C 107.839 1.56947 0.289772 0
M  V30 1107 C 108.039 1.07584 1.70376 0
M  V30 1108 O 107.095 0.739486 2.41429 0
M  V30 1109 C 108.408 3.0052 0.103943 0
M  V30 1110 C 109.956 3.12517 0.173857 0
M  V30 1111 C 110.431 4.57997 0.0163682 0
M  V30 1112 N 111.922 4.63144 0.0721352 0
M  V30 1113 C 112.657 5.73394 -0.0253794 0
M  V30 1114 N 112.153 6.92576 -0.176133 0
M  V30 1115 N 113.946 5.62091 0.0313305 0
M  V30 1116 H 106.097 1.87863 -0.991027 0
M  V30 1117 H 108.36 0.86583 -0.38606 0
M  V30 1118 H 108.066 3.40729 -0.871572 0
M  V30 1119 H 107.94 3.67304 0.858366 0
M  V30 1120 H 110.327 2.72197 1.13985 0
M  V30 1121 H 110.408 2.48381 -0.611586 0
M  V30 1122 H 110.052 4.99005 -0.946374 0
M  V30 1123 H 109.982 5.20158 0.821153 0
M  V30 1124 H 112.473 3.77436 0.187263 0
M  V30 1125 H 112.786 7.72418 -0.242821 0
M  V30 1126 H 111.131 6.94678 -0.211429 0
M  V30 1127 H 114.322 4.67867 0.147773 0
M  V30 1128 H 114.495 6.47982 -0.048121 0
M  V30 1129 N 107.901 -0.206675 1.56239 0
M  V30 1130 C 108.849 -1.27571 1.94495 0
M  V30 1131 C 109.843 -1.47737 0.828862 0
M  V30 1132 O 111.049 -1.48735 1.0138 0
M  V30 1133 H 107.424 -0.428029 0.6183 0
M  V30 1134 H 109.395 -0.925961 2.8367 0
M  V30 1135 C 108.144 -2.61568 2.29079 0
M  V30 1136 H 107.467 -2.46863 3.14482 0
M  V30 1137 H 108.907 -3.35144 2.5972 0
M  V30 1138 C 107.366 -3.17695 1.12123 0
M  V30 1139 O 107.896 -3.99801 0.390153 0
M  V30 1140 N 106.102 -2.76276 0.901097 0
M  V30 1141 H 105.649 -2.09613 1.49733 0
M  V30 1142 H 105.607 -3.1417 0.120319 0
M  V30 1143 N 109.379 -1.50304 -0.473955 0
M  V30 1144 C 110.289 -1.7174 -1.5982 0
M  V30 1145 C 111.305 -0.600457 -1.63311 0
M  V30 1146 O 112.481 -0.878441 -1.81233 0
M  V30 1147 C 109.546 -1.80427 -2.96052 0
M  V30 1148 C 108.607 -3.04148 -3.02972 0
M  V30 1149 C 107.84 -3.12411 -4.32706 0
M  V30 1150 O 108.063 -2.27542 -5.23049 0
M  V30 1151 O 106.997 -4.05113 -4.45159 0
M  V30 1152 H 110.823 -2.67035 -1.44657 0
M  V30 1153 H 108.408 -1.34366 -0.653148 0
M  V30 1154 H 110.29 -1.88338 -3.7697 0
M  V30 1155 H 108.965 -0.883156 -3.11419 0
M  V30 1156 H 107.872 -3.0174 -2.21142 0
M  V30 1157 H 109.205 -3.95829 -2.92541 0
M  V30 1158 N 110.857 0.726932 -1.39834 0
M  V30 1159 C 112.087 1.51393 -1.40583 0
M  V30 1160 C 112.495 1.892 -0.000740625 0
M  V30 1161 O 111.838 1.55189 0.982951 0
M  V30 1162 C 111.9 2.82588 -2.22226 0
M  V30 1163 C 111.564 2.67169 -3.70769 0
M  V30 1164 C 112.561 2.3518 -4.63666 0
M  V30 1165 C 110.246 2.83788 -4.14451 0
M  V30 1166 C 112.24 2.20002 -5.98229 0
M  V30 1167 C 109.927 2.68229 -5.49087 0
M  V30 1168 C 110.925 2.36382 -6.4079 0
M  V30 1169 O 110.613 2.2093 -7.72946 0
M  V30 1170 H 110.345 0.474168 -0.48181 0
M  V30 1171 H 112.899 0.905247 -1.84376 0
M  V30 1172 H 111.129 3.45746 -1.73195 0
M  V30 1173 H 112.818 3.44247 -2.15055 0
M  V30 1174 H 113.584 2.21984 -4.31217 0
M  V30 1175 H 109.463 3.07566 -3.43401 0
M  V30 1176 H 113.007 1.95067 -6.69772 0
M  V30 1177 H 108.904 2.81006 -5.81125 0
M  V30 1178 H 109.672 2.35937 -7.83757 0
M  V30 1179 N 112.336 1.25143 0.95797 0
M  V30 1180 C 113.583 1.09692 1.70217 0
M  V30 1181 C 113.911 -0.362654 1.91089 0
M  V30 1182 O 113.166 -1.28386 1.47701 0
M  V30 1183 C 113.465 1.79272 3.09187 0
M  V30 1184 C 113.131 3.29196 3.08125 0
M  V30 1185 C 111.793 3.70096 3.07543 0
M  V30 1186 C 114.145 4.24995 3.0171 0
M  V30 1187 C 111.473 5.05213 2.9829 0
M  V30 1188 C 113.825 5.60132 2.93999 0
M  V30 1189 C 112.489 6.00365 2.9175 0
M  V30 1190 H 111.759 0.401393 0.622868 0
M  V30 1191 H 114.406 1.55372 1.11945 0
M  V30 1192 H 112.711 1.26014 3.70982 0
M  V30 1193 H 114.408 1.64773 3.65583 0
M  V30 1194 H 110.998 2.96651 3.09348 0
M  V30 1195 H 115.182 3.9439 3.01281 0
M  V30 1196 H 110.438 5.35569 2.94916 0
M  V30 1197 H 114.612 6.3406 2.87996 0
M  V30 1198 H 112.239 7.05023 2.84336 0
M  V30 1199 N 113.814 -1.1601 1.06675 0
M  V30 1200 C 115.061 -1.86633 0.785781 0
M  V30 1201 C 115.389 -1.81929 -0.687896 0
M  V30 1202 O 114.644 -1.23253 -1.52011 0
M  V30 1203 C 114.943 -3.35547 1.23057 0
M  V30 1204 C 114.609 -3.60448 2.70902 0
M  V30 1205 C 113.271 -3.66954 3.11285 0
M  V30 1206 C 115.623 -3.7071 3.66365 0
M  V30 1207 C 112.951 -3.81225 4.45965 0
M  V30 1208 C 115.303 -3.86503 5.00797 0
M  V30 1209 C 113.967 -3.91252 5.40813 0
M  V30 1210 H 113.237 -0.682937 0.287538 0
M  V30 1211 H 115.884 -1.37146 1.33654 0
M  V30 1212 H 114.189 -3.87193 0.59907 0
M  V30 1213 H 115.886 -3.88583 0.990163 0
M  V30 1214 H 112.476 -3.56021 2.38636 0
M  V30 1215 H 116.66 -3.64991 3.36296 0
M  V30 1216 H 111.916 -3.83155 4.76447 0
M  V30 1217 H 116.09 -3.93385 5.74649 0
M  V30 1218 H 113.717 -4.02062 6.45174 0
M  V30 1219 N 115.292 -0.849877 -1.32721 0
M  V30 1220 C 116.569 -0.372405 -1.92022 0
M  V30 1221 C 116.949 1.1435 -1.77447 0
M  V30 1222 O 116.297 1.96296 -1.16962 0
M  V30 1223 C 116.507 -0.831482 -3.3895 0
M  V30 1224 C 117.855 -0.845882 -4.16089 0
M  V30 1225 O 118.879 -0.775806 -3.47649 0
M  V30 1226 O 117.738 -0.943753 -5.38289 0
M  V30 1227 H 114.832 -0.107667 -0.819961 0
M  V30 1228 H 117.378 -0.93646 -1.41522 0
M  V30 1229 H 116.15 -1.87448 -3.4348 0
M  V30 1230 H 115.773 -0.24461 -3.96847 0
M  V30 1231 N 116.77 1.45427 -0.607355 0
M  V30 1232 C 118.186 1.57283 -0.270985 0
M  V30 1233 C 118.386 1.59875 1.22647 0
M  V30 1234 O 117.442 1.52893 2.00948 0
M  V30 1235 C 118.755 2.85566 -0.941952 0
M  V30 1236 C 120.303 2.9924 -0.917849 0
M  V30 1237 C 120.778 4.30293 -1.56882 0
M  V30 1238 N 122.269 4.37051 -1.5343 0
M  V30 1239 C 123.004 5.37123 -2.00715 0
M  V30 1240 N 122.5 6.43734 -2.56084 0
M  V30 1241 N 124.293 5.28479 -1.91484 0
M  V30 1242 H 116.444 1.41988 -1.57966 0
M  V30 1243 H 118.707 0.67885 -0.661715 0
M  V30 1244 H 118.413 2.8955 -1.99633 0
M  V30 1245 H 118.287 3.74322 -0.465096 0
M  V30 1246 H 120.674 2.94822 0.127984 0
M  V30 1247 H 120.755 2.11895 -1.43297 0
M  V30 1248 H 120.399 4.35469 -2.61398 0
M  V30 1249 H 120.329 5.16454 -1.02873 0
M  V30 1250 H 122.82 3.60615 -1.12982 0
M  V30 1251 H 123.133 7.16341 -2.89958 0
M  V30 1252 H 121.478 6.44485 -2.60122 0
M  V30 1253 H 124.669 4.44098 -1.47967 0
M  V30 1254 H 124.842 6.0632 -2.28648 0
M  V30 1255 N 118.248 0.346503 1.53744 0
M  V30 1256 C 119.196 -0.52422 2.26616 0
M  V30 1257 C 120.19 -1.09948 1.28871 0
M  V30 1258 O 121.396 -1.04488 1.46568 0
M  V30 1259 H 117.771 -0.187743 0.728187 0
M  V30 1260 H 119.742 0.11239 2.98188 0
M  V30 1261 C 118.491 -1.66186 3.05414 0
M  V30 1262 H 117.814 -1.22848 3.80458 0
M  V30 1263 H 119.254 -2.24622 3.59612 0
M  V30 1264 C 117.713 -2.59302 2.1509 0
M  V30 1265 O 118.243 -3.61628 1.74895 0
M  V30 1266 N 116.449 -2.28055 1.8011 0
M  V30 1267 H 115.996 -1.44883 2.12994 0
M  V30 1268 H 115.954 -2.90615 1.19958 0
M  V30 1269 N 119.726 -1.57421 0.075193 0
M  V30 1270 C 121.142 -1.57099 -0.281444 0
M  V30 1271 C 121.342 -1.08486 -1.69803 0
M  V30 1272 O 120.398 -0.752279 -2.41033 0
M  V30 1273 C 121.711 -3.00571 -0.0880041 0
M  V30 1274 C 123.259 -3.12605 -0.157281 0
M  V30 1275 C 123.734 -4.57999 0.0079207 0
M  V30 1276 N 125.225 -4.63176 -0.0475725 0
M  V30 1277 C 125.96 -5.73373 0.0557876 0
M  V30 1278 N 125.456 -6.92473 0.21286 0
M  V30 1279 N 127.249 -5.621 -0.00152098 0
M  V30 1280 H 119.4 -1.87335 1.00098 0
M  V30 1281 H 121.663 -0.86377 0.390646 0
M  V30 1282 H 121.369 -3.40262 0.889629 0
M  V30 1283 H 121.243 -3.67754 -0.838875 0
M  V30 1284 H 123.63 -2.72798 -1.1254 0
M  V30 1285 H 123.711 -2.48053 0.62475 0
M  V30 1286 H 123.355 -4.98496 0.972824 0
M  V30 1287 H 123.285 -5.20586 -0.793556 0
M  V30 1288 H 125.776 -3.7753 -0.167244 0
M  V30 1289 H 126.089 -7.72279 0.283781 0
M  V30 1290 H 124.434 -6.94556 0.248267 0
M  V30 1291 H 127.625 -4.67938 -0.122958 0
M  V30 1292 H 127.798 -6.47948 0.0824844 0
M  V30 1293 N 121.204 0.198386 -1.56346 0
M  V30 1294 C 122.615 0.763358 -1.70381 0
M  V30 1295 C 122.966 1.83995 -0.681203 0
M  V30 1296 O 122.091 2.15785 0.16305 0
M  V30 1297 C 122.686 1.39143 -3.08909 0
M  V30 1298 C 121.245 1.90352 -3.2472 0
M  V30 1299 C 120.392 0.772233 -2.6633 0
M  V30 1300 H 123.343 -0.0266377 -1.58678 0
M  V30 1301 H 123.364 2.26076 -3.06055 0
M  V30 1302 H 122.876 0.607638 -3.83314 0
M  V30 1303 H 120.977 2.71461 -2.55225 0
M  V30 1304 H 121.09 2.06757 -4.3219 0
M  V30 1305 H 119.454 1.18566 -2.2542 0
M  V30 1306 H 120.237 0.00073556 -3.433 0
M  V30 1307 N 122.682 1.50554 0.465978 0
M  V30 1308 C 123.907 1.65838 1.24549 0
M  V30 1309 C 124.332 0.343486 1.84937 0
M  V30 1310 O 123.69 -0.69324 1.67523 0
M  V30 1311 C 123.738 2.75533 2.32624 0
M  V30 1312 O 122.842 2.37142 3.37398 0
M  V30 1313 H 122.183 0.553893 0.366194 0
M  V30 1314 H 124.713 1.96959 0.553927 0
M  V30 1315 H 124.723 2.98763 2.77857 0
M  V30 1316 H 123.398 3.70962 1.88043 0
M  V30 1317 H 121.975 2.24377 2.97841 0
M  V30 1318 N 124.16 -0.719506 1.40217 0
M  V30 1319 C 125.407 -1.47933 1.38283 0
M  V30 1320 C 125.735 -1.94493 -0.0161536 0
M  V30 1321 O 124.99 -1.68224 -0.999956 0
M  V30 1322 C 125.289 -2.72271 2.31524 0
M  V30 1323 C 124.955 -2.44496 3.78857 0
M  V30 1324 C 123.617 -2.36631 4.18998 0
M  V30 1325 C 125.969 -2.21104 4.71977 0
M  V30 1326 C 123.297 -2.03437 5.503 0
M  V30 1327 C 125.649 -1.89423 6.03574 0
M  V30 1328 C 124.313 -1.80038 6.42762 0
M  V30 1329 H 123.583 -0.541325 0.506012 0
M  V30 1330 H 126.23 -0.824502 1.72842 0
M  V30 1331 H 124.535 -3.42572 1.90137 0
M  V30 1332 H 126.232 -3.30348 2.27313 0
M  V30 1333 H 122.822 -2.51503 3.47051 0
M  V30 1334 H 127.006 -2.26139 4.41786 0
M  V30 1335 H 122.262 -1.94705 5.79569 0
M  V30 1336 H 126.436 -1.70336 6.75247 0
M  V30 1337 H 124.063 -1.54083 7.44421 0
M  V30 1338 N 125.638 -1.25649 -0.95132 0
M  V30 1339 C 126.915 -1.01361 -1.67288 0
M  V30 1340 C 127.295 0.459135 -2.06046 0
M  V30 1341 O 126.643 1.43723 -1.7764 0
M  V30 1342 C 126.853 -1.95256 -2.89268 0
M  V30 1343 C 128.201 -2.23289 -3.61147 0
M  V30 1344 O 129.225 -1.93041 -2.99355 0
M  V30 1345 O 128.084 -2.74741 -4.72419 0
M  V30 1346 H 125.178 -0.38464 -0.732107 0
M  V30 1347 H 127.724 -1.36817 -1.00395 0
M  V30 1348 H 126.496 -2.94685 -2.57442 0
M  V30 1349 H 126.119 -1.60218 -3.6389 0
M  V30 1350 N 127.117 1.15442 -1.07289 0
M  V30 1351 C 128.08 2.18358 -0.696591 0
M  V30 1352 C 129.08 1.58637 0.262837 0
M  V30 1353 O 130.27 1.74145 0.0438809 0
M  V30 1354 C 127.402 3.4089 -0.0266151 0
M  V30 1355 H 128.595 2.53162 -1.60776 0
M  V30 1356 H 126.148 1.29893 -0.869342 0
M  V30 1357 H 126.883 3.11653 0.896822 0
M  V30 1358 H 126.668 3.85495 -0.716657 0
M  V30 1359 H 128.158 4.17009 0.222028 0
M  V30 1360 N 128.595 0.856903 1.32268 0
M  V30 1361 C 129.844 0.457599 1.96441 0
M  V30 1362 C 130.157 -0.992426 1.68553 0
M  V30 1363 O 131.363 -1.49727 2.26482 0
M  V30 1364 C 129.819 0.767358 3.51624 0
M  V30 1365 C 129.427 2.23326 3.88367 0
M  V30 1366 C 131.171 0.435887 4.22256 0
M  V30 1367 C 129.078 2.48613 5.36606 0
M  V30 1368 H 128.008 0.167387 0.735185 0
M  V30 1369 H 130.659 1.048 1.5063 0
M  V30 1370 H 129.041 0.106367 3.95857 0
M  V30 1371 H 130.215 2.93623 3.55137 0
M  V30 1372 H 128.53 2.52948 3.30766 0
M  V30 1373 H 131.127 0.602202 5.31298 0
M  V30 1374 H 131.47 -0.622672 4.11617 0
M  V30 1375 H 132.003 1.05286 3.83614 0
M  V30 1376 H 128.742 3.53101 5.52268 0
M  V30 1377 H 128.262 1.82896 5.71235 0
M  V30 1378 H 129.941 2.32676 6.03714 0
M  V30 1379 N 130.073 -1.45103 0.615059 0
M  V30 1380 C 131.003 -2.33339 -0.0865619 0
M  V30 1381 C 131.984 -1.4727 -0.851209 0
M  V30 1382 O 133.169 -1.76026 -0.820281 0
M  V30 1383 C 130.299 -3.30095 -1.07956 0
M  V30 1384 C 129.253 -4.25858 -0.427628 0
M  V30 1385 C 128.579 -5.12361 -1.5294 0
M  V30 1386 C 129.879 -5.18165 0.655944 0
M  V30 1387 H 131.573 -2.92254 0.650224 0
M  V30 1388 H 129.119 -1.40532 0.314138 0
M  V30 1389 H 131.072 -3.90698 -1.57901 0
M  V30 1390 H 129.796 -2.69355 -1.84703 0
M  V30 1391 H 128.455 -3.66564 0.0510292 0
M  V30 1392 H 128.103 -4.47984 -2.28734 0
M  V30 1393 H 127.803 -5.77238 -1.09865 0
M  V30 1394 H 129.327 -5.75833 -2.03098 0
M  V30 1395 H 130.741 -5.72796 0.240257 0
M  V30 1396 H 129.138 -5.91559 1.00888 0
M  V30 1397 H 130.208 -4.60144 1.52957 0
M  V30 1398 N 131.551 -0.354651 -1.53558 0
M  V30 1399 C 132.781 0.239167 -2.05211 0
M  V30 1400 C 133.189 1.43879 -1.22863 0
M  V30 1401 O 132.532 1.81857 -0.259565 0
M  V30 1402 C 132.594 0.707251 -3.52474 0
M  V30 1403 C 132.258 -0.374212 -4.55465 0
M  V30 1404 C 133.255 -1.22054 -5.0537 0
M  V30 1405 C 130.94 -0.531323 -4.99482 0
M  V30 1406 C 132.934 -2.20942 -5.97882 0
M  V30 1407 C 130.621 -1.52358 -5.91802 0
M  V30 1408 C 131.619 -2.36108 -6.40892 0
M  V30 1409 O 131.307 -3.33643 -7.31394 0
M  V30 1410 H 131.039 0.0479716 -0.674296 0
M  V30 1411 H 133.593 -0.508121 -1.99016 0
M  V30 1412 H 131.823 1.50596 -3.56171 0
M  V30 1413 H 133.512 1.22285 -3.87042 0
M  V30 1414 H 134.278 -1.1103 -4.7212 0
M  V30 1415 H 130.157 0.110738 -4.60867 0
M  V30 1416 H 133.701 -2.86348 -6.36121 0
M  V30 1417 H 129.598 -1.63434 -6.24467 0
M  V30 1418 H 130.366 -3.29244 -7.4936 0
M  V30 1419 N 133.029 1.57378 -0.0835403 0
M  V30 1420 C 134.259 1.97975 0.590713 0
M  V30 1421 C 134.667 0.961083 1.62972 0
M  V30 1422 O 134.01 -0.0590879 1.83605 0
M  V30 1423 C 134.072 3.34915 1.3066 0
M  V30 1424 C 133.736 4.55069 0.419698 0
M  V30 1425 C 134.733 5.18868 -0.32749 0
M  V30 1426 C 132.418 5.0114 0.341137 0
M  V30 1427 C 134.412 6.27098 -1.14134 0
M  V30 1428 C 132.099 6.0924 -0.476374 0
M  V30 1429 C 133.097 6.72083 -1.21627 0
M  V30 1430 O 132.785 7.781 -2.02028 0
M  V30 1431 H 132.517 0.655818 0.163947 0
M  V30 1432 H 135.071 2.04807 -0.156021 0
M  V30 1433 H 133.301 3.24733 2.09966 0
M  V30 1434 H 134.99 3.60037 1.87424 0
M  V30 1435 H 135.756 4.84211 -0.276459 0
M  V30 1436 H 131.635 4.51996 0.90668 0
M  V30 1437 H 135.179 6.7608 -1.71935 0
M  V30 1438 H 131.076 6.43329 -0.528927 0
M  V30 1439 H 131.844 7.95034 -1.94586 0
M  V30 1440 N 134.507 -0.190092 1.56449 0
M  V30 1441 C 135.737 -0.92443 1.84764 0
M  V30 1442 C 136.145 -1.77146 0.664529 0
M  V30 1443 O 135.488 -1.79812 -0.375957 0
M  V30 1444 C 135.55 -1.86651 3.07248 0
M  V30 1445 C 135.214 -1.20094 4.40938 0
M  V30 1446 C 136.211 -0.575445 5.16706 0
M  V30 1447 C 133.896 -1.2033 4.87674 0
M  V30 1448 C 135.89 0.0388111 6.37388 0
M  V30 1449 C 133.577 -0.585214 6.08291 0
M  V30 1450 C 134.575 0.0347578 6.82991 0
M  V30 1451 O 134.263 0.643147 8.01323 0
M  V30 1452 H 133.995 -0.274974 0.617548 0
M  V30 1453 H 136.549 -0.200788 2.04416 0
M  V30 1454 H 134.779 -2.62998 2.83494 0
M  V30 1455 H 136.468 -2.46907 3.22167 0
M  V30 1456 H 137.234 -0.565728 4.81689 0
M  V30 1457 H 133.113 -1.67526 4.29484 0
M  V30 1458 H 136.657 0.523329 6.95634 0
M  V30 1459 H 132.554 -0.592451 6.42775 0
M  V30 1460 H 133.322 0.540545 8.16713 0
M  V30 1461 N 135.985 -1.50799 -0.457987 0
M  V30 1462 C 136.917 -1.66786 -1.57211 0
M  V30 1463 C 137.93 -0.548962 -1.53265 0
M  V30 1464 O 139.119 -0.8226 -1.58416 0
M  V30 1465 C 136.219 -1.64834 -2.96113 0
M  V30 1466 C 135.392 -2.92971 -3.24787 0
M  V30 1467 C 134.451 -2.83485 -4.43309 0
M  V30 1468 O 133.477 -3.5744 -4.42973 0
M  V30 1469 N 134.679 -1.97929 -5.45714 0
M  V30 1470 H 137.444 -2.62889 -1.43909 0
M  V30 1471 H 135.005 -1.48427 -0.646617 0
M  V30 1472 H 136.997 -1.56084 -3.7339 0
M  V30 1473 H 135.567 -0.764118 -3.03117 0
M  V30 1474 H 134.787 -3.15749 -2.36 0
M  V30 1475 H 136.075 -3.77834 -3.40762 0
M  V30 1476 H 135.473 -1.37182 -5.48815 0
M  V30 1477 H 134.03 -1.95073 -6.21924 0
M  V30 1478 N 137.463 0.71206 -1.40597 0
M  V30 1479 C 138.688 1.50617 -1.42581 0
M  V30 1480 C 139.113 1.88079 -0.0282102 0
M  V30 1481 O 138.471 1.53511 0.964579 0
M  V30 1482 C 138.519 2.7557 -2.3258 0
M  V30 1483 O 137.623 3.72414 -1.77148 0
M  V30 1484 H 136.964 0.453966 -0.484573 0
M  V30 1485 H 139.494 0.876649 -1.84868 0
M  V30 1486 H 139.504 3.2406 -2.47889 0
M  V30 1487 H 138.179 2.47639 -3.34138 0
M  V30 1488 H 136.756 3.31276 -1.71204 0
M  V30 1489 N 138.941 1.26152 0.944643 0
M  V30 1490 C 140.189 1.11271 1.6871 0
M  V30 1491 C 140.51 -0.345166 1.91921 0
M  V30 1492 O 139.78 -1.24387 1.51343 0
M  V30 1493 H 138.36 0.408783 0.625224 0
M  V30 1494 H 141.022 1.58427 1.1352 0
M  V30 1495 H 140.118 1.62879 2.66227 0
M  V30 1496 N 140.419 -1.14872 1.07899 0
M  V30 1497 C 141.667 -1.85422 0.803941 0
M  V30 1498 C 141.988 -1.83051 -0.67211 0
M  V30 1499 O 141.258 -1.27532 -1.48703 0
M  V30 1500 H 139.838 -0.686537 0.294408 0
M  V30 1501 H 142.5 -1.39226 1.3639 0
M  V30 1502 H 141.596 -2.90399 1.14346 0
M  V30 1503 N 141.898 -0.863906 -1.31812 0
M  V30 1504 C 143.314 -0.555004 -1.49639 0
M  V30 1505 C 143.514 0.912266 -1.79666 0
M  V30 1506 O 142.57 1.69479 -1.87171 0
M  V30 1507 C 143.883 -1.44998 -2.63431 0
M  V30 1508 C 145.431 -1.45138 -2.77316 0
M  V30 1509 C 145.906 -2.33179 -3.94197 0
M  V30 1510 N 147.397 -2.31025 -4.01474 0
M  V30 1511 C 148.132 -2.95871 -4.9117 0
M  V30 1512 N 147.628 -3.69863 -5.8581 0
M  V30 1513 N 149.421 -2.85211 -4.84367 0
M  V30 1514 H 141.572 -1.81339 -1.10589 0
M  V30 1515 H 143.835 -0.77505 -0.545895 0
M  V30 1516 H 143.541 -2.49377 -2.48 0
M  V30 1517 H 143.415 -1.14409 -3.59431 0
M  V30 1518 H 145.802 -0.415201 -2.92164 0
M  V30 1519 H 145.883 -1.79747 -1.82001 0
M  V30 1520 H 145.527 -3.3687 -3.80107 0
M  V30 1521 H 145.457 -1.95897 -4.88807 0
M  V30 1522 H 147.948 -1.77238 -3.33759 0
M  V30 1523 H 148.261 -4.16486 -6.50968 0
M  V30 1524 H 146.606 -3.73971 -5.85808 0
M  V30 1525 H 149.797 -2.26948 -4.09405 0
M  V30 1526 H 149.97 -3.36027 -5.54066 0
M  V30 1527 N 143.376 1.44774 -0.622745 0
M  V30 1528 C 144.306 2.33382 0.0741861 0
M  V30 1529 C 145.287 1.47719 0.843387 0
M  V30 1530 O 146.472 1.76458 0.810934 0
M  V30 1531 C 143.602 3.30663 1.06204 0
M  V30 1532 C 142.556 4.26079 0.405037 0
M  V30 1533 C 141.882 5.13165 1.5022 0
M  V30 1534 C 143.182 5.1781 -0.683414 0
M  V30 1535 H 144.876 2.91905 -0.665713 0
M  V30 1536 H 142.422 1.40363 -0.321587 0
M  V30 1537 H 144.375 3.9153 1.55827 0
M  V30 1538 H 143.099 2.70331 1.83272 0
M  V30 1539 H 141.758 3.66532 -0.0704683 0
M  V30 1540 H 141.406 4.49191 2.26355 0
M  V30 1541 H 141.106 5.77812 1.06803 0
M  V30 1542 H 142.63 5.76902 2.00041 0
M  V30 1543 H 144.044 5.72661 -0.270631 0
M  V30 1544 H 142.441 5.91015 -1.04023 0
M  V30 1545 H 143.511 4.59326 -1.55395 0
M  V30 1546 N 144.854 0.36279 1.53368 0
M  V30 1547 C 146.27 0.0116182 1.59596 0
M  V30 1548 C 146.47 -1.47012 1.37803 0
M  V30 1549 O 145.526 -2.23136 1.18181 0
M  V30 1550 C 146.839 0.465052 2.97082 0
M  V30 1551 C 148.387 0.419033 3.10182 0
M  V30 1552 C 148.862 0.848235 4.50077 0
M  V30 1553 N 150.353 0.803183 4.56183 0
M  V30 1554 C 151.088 1.107 5.62613 0
M  V30 1555 N 150.584 1.47996 6.76808 0
M  V30 1556 N 152.377 1.02998 5.52583 0
M  V30 1557 H 144.528 1.32775 1.65785 0
M  V30 1558 H 146.791 0.542518 0.777417 0
M  V30 1559 H 146.497 1.49892 3.18159 0
M  V30 1560 H 146.371 -0.149786 3.76902 0
M  V30 1561 H 148.758 -0.605696 2.88817 0
M  V30 1562 H 148.839 1.06933 2.32377 0
M  V30 1563 H 148.483 1.87107 4.7218 0
M  V30 1564 H 148.413 0.175218 5.26308 0
M  V30 1565 H 150.904 0.52838 3.74188 0
M  V30 1566 H 151.217 1.69613 7.53957 0
M  V30 1567 H 149.562 1.51859 6.78206 0
M  V30 1568 H 152.753 0.737817 4.62249 0
M  V30 1569 H 152.926 1.2701 6.35431 0
M  V30 1570 N 146.332 -1.57332 0.0918853 0
M  V30 1571 C 147.748 -1.57389 -0.264766 0
M  V30 1572 C 147.948 -1.10281 -1.68643 0
M  V30 1573 O 147.004 -0.777801 -2.40222 0
M  V30 1574 C 148.317 -3.00648 -0.0561195 0
M  V30 1575 C 149.865 -3.12754 -0.124116 0
M  V30 1576 C 150.34 -4.57965 0.0564972 0
M  V30 1577 N 151.831 -4.632 0.00155611 0
M  V30 1578 C 152.566 -5.73281 0.116598 0
M  V30 1579 N 152.062 -6.92208 0.286294 0
M  V30 1580 N 153.855 -5.6207 0.0580973 0
M  V30 1581 H 146.006 -1.86262 1.02079 0
M  V30 1582 H 148.269 -0.859579 0.399786 0
M  V30 1583 H 147.975 -3.393 0.925669 0
M  V30 1584 H 147.849 -3.68623 -0.799823 0
M  V30 1585 H 150.236 -2.73976 -1.09641 0
M  V30 1586 H 150.317 -2.47377 0.651024 0
M  V30 1587 H 149.961 -4.97436 1.02564 0
M  V30 1588 H 149.891 -5.21399 -0.738297 0
M  V30 1589 H 152.382 -3.77686 -0.127192 0
M  V30 1590 H 152.695 -7.71934 0.365676 0
M  V30 1591 H 151.04 -6.94254 0.32192 0
M  V30 1592 H 154.231 -4.68043 -0.0733204 0
M  V30 1593 H 154.404 -6.47824 0.151203 0
M  V30 1594 N 147.81 0.181792 -1.56548 0
M  V30 1595 C 149.221 0.745244 -1.71181 0
M  V30 1596 C 149.572 1.83262 -0.70068 0
M  V30 1597 O 148.697 2.15946 0.140154 0
M  V30 1598 C 149.292 1.35859 -3.10367 0
M  V30 1599 C 147.851 1.86898 -3.2672 0
M  V30 1600 C 146.998 0.743942 -2.67134 0
M  V30 1601 H 149.949 -0.0434661 -1.5864 0
M  V30 1602 H 149.97 2.22817 -3.08436 0
M  V30 1603 H 149.482 0.566948 -3.83937 0
M  V30 1604 H 147.583 2.68738 -2.5809 0
M  V30 1605 H 147.696 2.02162 -4.34359 0
M  V30 1606 H 146.06 1.16169 -2.26665 0
M  V30 1607 H 146.843 -0.035676 -3.43281 0
M  V30 1608 N 149.288 1.51039 0.449983 0
M  V30 1609 C 150.534 1.63322 1.20223 0
M  V30 1610 C 150.867 0.34241 1.91158 0
M  V30 1611 O 150.142 -0.657344 1.83055 0
M  V30 1612 C 150.425 2.82801 2.22925 0
M  V30 1613 C 150.278 4.21823 1.56157 0
M  V30 1614 C 151.597 2.97807 3.24035 0
M  V30 1615 H 148.716 0.594407 0.435718 0
M  V30 1616 H 151.358 1.83489 0.493136 0
M  V30 1617 H 149.508 2.65738 2.834 0
M  V30 1618 H 151.18 4.50526 0.991162 0
M  V30 1619 H 149.423 4.25105 0.864172 0
M  V30 1620 H 150.094 5.01391 2.30891 0
M  V30 1621 H 152.57 3.13497 2.73603 0
M  V30 1622 H 151.446 3.82992 3.93202 0
M  V30 1623 H 151.707 2.09328 3.89402 0
M  V30 1624 N 150.766 -0.704594 1.40972 0
M  V30 1625 C 151.714 -1.83994 1.42299 0
M  V30 1626 C 152.708 -1.66684 0.302111 0
M  V30 1627 O 153.914 -1.73655 0.473697 0
M  V30 1628 H 150.289 -0.606171 0.44504 0
M  V30 1629 H 152.26 -1.79992 2.38003 0
M  V30 1630 C 151.009 -3.21946 1.31323 0
M  V30 1631 H 150.332 -3.35878 2.16855 0
M  V30 1632 H 151.772 -4.01491 1.36311 0
M  V30 1633 C 150.231 -3.36891 0.0245977 0
M  V30 1634 O 150.761 -3.90687 -0.934153 0
M  V30 1635 N 148.967 -2.90559 -0.0485243 0
M  V30 1636 H 148.514 -2.46968 0.732419 0
M  V30 1637 H 148.472 -3.00937 -0.910171 0
M  V30 1638 N 152.244 -1.26651 -0.937939 0
M  V30 1639 C 153.49 -1.12553 -1.687 0
M  V30 1640 C 153.823 0.329782 -1.91379 0
M  V30 1641 O 153.098 1.24202 -1.4968 0
M  V30 1642 C 153.381 -1.89862 -3.05981 0
M  V30 1643 C 153.234 -3.43318 -2.90607 0
M  V30 1644 C 154.553 -1.69499 -4.0615 0
M  V30 1645 H 151.672 -0.410257 -0.612257 0
M  V30 1646 H 154.314 -1.55685 -1.08913 0
M  V30 1647 H 152.464 -1.53204 -3.57017 0
M  V30 1648 H 154.136 -3.89747 -2.46769 0
M  V30 1649 H 152.379 -3.70179 -2.26164 0
M  V30 1650 H 153.05 -3.92642 -3.8799 0
M  V30 1651 H 155.526 -2.01442 -3.64088 0
M  V30 1652 H 154.402 -2.26002 -5.00214 0
M  V30 1653 H 154.663 -0.640365 -4.37438 0
M  V30 1654 N 153.722 1.14298 -1.08507 0
M  V30 1655 C 155.133 1.66926 -0.836227 0
M  V30 1656 C 155.484 1.85576 0.63686 0
M  V30 1657 O 154.609 1.56767 1.49175 0
M  V30 1658 C 155.204 3.03219 -1.51142 0
M  V30 1659 C 153.763 3.52876 -1.30979 0
M  V30 1660 C 152.91 2.2833 -1.57356 0
M  V30 1661 H 155.861 0.983491 -1.24552 0
M  V30 1662 H 155.882 3.68726 -0.939211 0
M  V30 1663 H 155.394 2.89612 -2.58353 0
M  V30 1664 H 153.495 3.71703 -0.258429 0
M  V30 1665 H 153.608 4.33586 -2.03814 0
M  V30 1666 H 151.972 2.34454 -0.995164 0
M  V30 1667 H 152.755 2.17298 -2.65775 0
M  V30 1668 N 155.201 0.870884 1.31352 0
M  V30 1669 C 156.131 0.343096 2.30966 0
M  V30 1670 C 157.112 -0.566507 1.60389 0
M  V30 1671 O 158.297 -0.483336 1.88089 0
M  V30 1672 C 155.427 -0.455487 3.443 0
M  V30 1673 C 154.381 0.361103 4.26474 0
M  V30 1674 C 153.707 -0.563221 5.31725 0
M  V30 1675 C 155.007 1.59566 4.97329 0
M  V30 1676 H 156.701 1.17548 2.75359 0
M  V30 1677 H 154.247 0.566686 1.32381 0
M  V30 1678 H 156.2 -0.83525 4.13039 0
M  V30 1679 H 154.924 -1.32139 2.98675 0
M  V30 1680 H 153.583 0.722825 3.59403 0
M  V30 1681 H 153.231 -1.42643 4.82351 0
M  V30 1682 H 152.931 -0.0207409 5.87596 0
M  V30 1683 H 154.455 -0.939808 6.03324 0
M  V30 1684 H 155.869 1.28728 5.58661 0
M  V30 1685 H 154.266 2.07728 5.63 0
M  V30 1686 H 155.336 2.34798 4.24262 0
M  V30 1687 N 156.679 -1.44442 0.630414 0
M  V30 1688 C 157.956 -1.9549 0.0655657 0
M  V30 1689 C 158.336 -1.5724 -1.40851 0
M  V30 1690 O 157.684 -0.846116 -2.12257 0
M  V30 1691 C 157.894 -3.47812 0.287691 0
M  V30 1692 C 159.242 -4.24216 0.180513 0
M  V30 1693 O 160.266 -3.55526 0.219019 0
M  V30 1694 O 159.125 -5.46434 0.0848493 0
M  V30 1695 H 156.219 -0.826688 -0.0227177 0
M  V30 1696 H 158.765 -1.54496 0.702068 0
M  V30 1697 H 157.537 -3.687 1.31056 0
M  V30 1698 H 157.16 -3.95751 -0.382984 0
M  V30 1699 N 158.157 -0.370918 -1.53173 0
M  V30 1700 C 159.406 0.218249 -2.00516 0
M  V30 1701 C 159.719 1.49429 -1.26215 0
M  V30 1702 O 160.925 2.16239 -1.64174 0
M  V30 1703 C 159.381 0.43948 -3.57207 0
M  V30 1704 C 158.989 -0.822244 -4.4039 0
M  V30 1705 C 160.733 0.986012 -4.1289 0
M  V30 1706 C 158.64 -0.570304 -5.88644 0
M  V30 1707 H 157.57 0.0853333 -0.749156 0
M  V30 1708 H 160.221 -0.490483 -1.76823 0
M  V30 1709 H 158.603 1.20961 -3.77074 0
M  V30 1710 H 159.777 -1.59557 -4.32294 0
M  V30 1711 H 158.092 -1.29238 -3.95836 0
M  V30 1712 H 160.689 1.18991 -5.21292 0
M  V30 1713 H 161.032 1.94972 -3.6782 0
M  V30 1714 H 161.565 0.27592 -3.96842 0
M  V30 1715 H 158.304 -1.50449 -6.38001 0
M  V30 1716 H 157.824 0.164427 -5.99575 0
M  V30 1717 H 159.503 -0.19784 -6.46697 0
M  V30 1718 N 159.635 1.57281 -0.100228 0
M  V30 1719 C 160.882 1.94537 0.562268 0
M  V30 1720 C 161.21 0.982315 1.67871 0
M  V30 1721 O 160.465 0.00280936 1.957 0
M  V30 1722 C 160.764 3.38305 1.15259 0
M  V30 1723 C 160.43 4.50618 0.159409 0
M  V30 1724 C 159.092 4.81066 -0.113741 0
M  V30 1725 C 161.444 5.18615 -0.518461 0
M  V30 1726 C 158.772 5.76835 -1.07137 0
M  V30 1727 C 161.124 6.15412 -1.46459 0
M  V30 1728 C 159.788 6.44262 -1.74592 0
M  V30 1729 H 159.058 0.711863 0.205748 0
M  V30 1730 H 161.705 1.90679 -0.17715 0
M  V30 1731 H 160.01 3.38766 1.96836 0
M  V30 1732 H 161.707 3.64435 1.67297 0
M  V30 1733 H 158.297 4.2689 0.382491 0
M  V30 1734 H 162.481 4.95264 -0.320581 0
M  V30 1735 H 157.737 5.975 -1.29628 0
M  V30 1736 H 161.911 6.67194 -1.99564 0
M  V30 1737 H 159.538 7.1828 -2.48953 0
M  V30 1738 N 161.113 -0.173488 1.56642 0
M  V30 1739 C 162.338 -0.910149 1.86363 0
M  V30 1740 C 162.763 -1.75132 0.686318 0
M  V30 1741 O 162.121 -1.77595 -0.364643 0
M  V30 1742 C 162.169 -1.76447 3.14482 0
M  V30 1743 O 161.273 -2.86584 2.96553 0
M  V30 1744 H 160.614 -0.255086 0.613047 0
M  V30 1745 H 163.144 -0.172283 2.03873 0
M  V30 1746 H 163.154 -2.16483 3.45831 0
M  V30 1747 H 161.829 -1.14658 3.99783 0
M  V30 1748 H 160.406 -2.50146 2.76553 0
M  V30 1749 N 162.591 -1.51276 -0.441967 0
M  V30 1750 C 163.501 -1.75092 -1.56141 0
M  V30 1751 C 164.517 -0.634963 -1.62001 0
M  V30 1752 O 165.693 -0.916686 -1.79329 0
M  V30 1753 C 162.758 -1.86666 -2.92158 0
M  V30 1754 C 161.819 -3.10506 -2.96453 0
M  V30 1755 C 161.052 -3.21519 -4.25982 0
M  V30 1756 O 161.275 -2.38586 -5.18105 0
M  V30 1757 O 160.209 -4.14465 -4.36466 0
M  V30 1758 H 164.035 -2.70044 -1.38961 0
M  V30 1759 H 161.62 -1.35722 -0.624499 0
M  V30 1760 H 163.502 -1.96292 -3.72891 0
M  V30 1761 H 162.177 -0.949014 -3.09476 0
M  V30 1762 H 161.084 -3.06363 -2.14692 0
M  V30 1763 H 162.417 -4.01945 -2.84079 0
M  V30 1764 N 164.069 0.697108 -1.41344 0
M  V30 1765 C 164.979 1.84088 -1.45427 0
M  V30 1766 C 165.995 1.70545 -0.34501 0
M  V30 1767 O 167.171 1.92488 -0.592492 0
M  V30 1768 C 164.236 3.20056 -1.33286 0
M  V30 1769 C 163.297 3.45718 -2.54514 0
M  V30 1770 C 162.53 4.75199 -2.42944 0
M  V30 1771 O 162.753 5.51579 -1.45318 0
M  V30 1772 O 161.687 5.0161 -3.32672 0
M  V30 1773 H 165.513 1.836 -2.41919 0
M  V30 1774 H 163.098 0.849966 -1.22866 0
M  V30 1775 H 164.98 4.01236 -1.28794 0
M  V30 1776 H 163.655 3.2123 -0.39909 0
M  V30 1777 H 162.562 2.64474 -2.64583 0
M  V30 1778 H 163.895 3.49356 -3.46715 0
M  V30 1779 N 165.547 1.27147 0.931209 0
M  V30 1780 C 166.796 1.12664 1.67302 0
M  V30 1781 C 167.109 -0.327718 1.92835 0
M  V30 1782 O 168.315 -0.593392 2.64936 0
M  V30 1783 C 166.771 1.9683 3.01307 0
M  V30 1784 C 166.379 3.46901 2.83485 0
M  V30 1785 C 168.123 1.90985 3.79111 0
M  V30 1786 C 166.03 4.23279 4.13024 0
M  V30 1787 H 164.96 0.41803 0.627509 0
M  V30 1788 H 167.611 1.51539 1.03481 0
M  V30 1789 H 165.993 1.50797 3.66164 0
M  V30 1790 H 167.167 4.00773 2.27415 0
M  V30 1791 H 165.482 3.54088 2.19113 0
M  V30 1792 H 168.079 2.45328 4.75098 0
M  V30 1793 H 168.422 0.882718 4.06834 0
M  V30 1794 H 168.955 2.34895 3.21044 0
M  V30 1795 H 165.694 5.26503 3.90481 0
M  V30 1796 H 165.214 3.74186 4.6877 0
M  V30 1797 H 166.893 4.32265 4.81411 0
M  V30 1798 N 167.025 -1.13721 1.09112 0
M  V30 1799 C 168.441 -1.36914 0.820174 0
M  V30 1800 C 168.641 -1.93356 -0.567079 0
M  V30 1801 O 167.697 -2.15093 -1.32255 0
M  V30 1802 C 169.01 -2.3235 1.90877 0
M  V30 1803 C 170.558 -2.45973 1.93562 0
M  V30 1804 C 171.033 -3.44714 3.01556 0
M  V30 1805 N 172.524 -3.52263 3.00775 0
M  V30 1806 C 173.259 -4.28536 3.80978 0
M  V30 1807 N 172.755 -5.07991 4.71081 0
M  V30 1808 N 174.548 -4.23804 3.69251 0
M  V30 1809 H 166.699 -0.754348 1.98553 0
M  V30 1810 H 168.962 -0.3944 0.862063 0
M  V30 1811 H 168.668 -1.98027 2.90651 0
M  V30 1812 H 168.542 -3.32332 1.78424 0
M  V30 1813 H 170.929 -2.79584 0.944286 0
M  V30 1814 H 171.01 -1.45926 2.10093 0
M  V30 1815 H 170.654 -3.11835 4.00901 0
M  V30 1816 H 170.584 -4.44558 2.82269 0
M  V30 1817 H 173.075 -2.95567 2.35475 0
M  V30 1818 H 173.388 -5.63487 5.28869 0
M  V30 1819 H 171.733 -5.07235 4.75119 0
M  V30 1820 H 174.924 -3.60806 2.98222 0
M  V30 1821 H 175.097 -4.82995 4.31995 0
M  V30 1822 N 168.503 -0.877838 -1.30888 0
M  V30 1823 C 169.75 -0.492696 -1.96415 0
M  V30 1824 C 170.078 0.956671 -1.69346 0
M  V30 1825 O 169.333 1.68993 -0.986913 0
M  V30 1826 C 169.632 -0.705748 -3.50363 0
M  V30 1827 C 169.298 -2.1291 -3.97467 0
M  V30 1828 C 167.96 -2.51834 -4.1004 0
M  V30 1829 C 170.312 -3.05702 -4.22132 0
M  V30 1830 C 167.64 -3.82775 -4.44635 0
M  V30 1831 C 169.992 -4.36166 -4.58194 0
M  V30 1832 C 168.656 -4.74993 -4.68975 0
M  V30 1833 H 167.926 -0.18029 -0.718733 0
M  V30 1834 H 170.573 -1.11233 -1.55883 0
M  V30 1835 H 168.878 -0.00303058 -3.918 0
M  V30 1836 H 170.575 -0.387456 -3.99124 0
M  V30 1837 H 167.165 -1.81694 -3.88182 0
M  V30 1838 H 171.349 -2.76853 -4.11906 0
M  V30 1839 H 166.605 -4.12609 -4.51181 0
M  V30 1840 H 170.779 -5.08111 -4.76231 0
M  V30 1841 H 168.406 -5.76495 -4.95537 0
M  V30 1842 N 169.982 1.44106 -0.638065 0
M  V30 1843 C 171.212 2.06037 -0.152394 0
M  V30 1844 C 171.62 1.47808 1.18108 0
M  V30 1845 O 170.963 0.598092 1.73691 0
M  V30 1846 C 171.025 3.59488 0.0293714 0
M  V30 1847 C 170.689 4.4022 -1.22702 0
M  V30 1848 C 171.686 4.73256 -2.15232 0
M  V30 1849 C 169.371 4.8048 -1.46437 0
M  V30 1850 C 171.365 5.45444 -3.29802 0
M  V30 1851 C 169.052 5.52417 -2.61303 0
M  V30 1852 C 170.05 5.84819 -3.52811 0
M  V30 1853 O 169.738 6.55289 -4.65673 0
M  V30 1854 H 169.47 0.671233 -0.0801401 0
M  V30 1855 H 172.024 1.85851 -0.874563 0
M  V30 1856 H 170.254 3.78191 0.806758 0
M  V30 1857 H 171.943 4.03164 0.470475 0
M  V30 1858 H 172.709 4.42684 -1.98131 0
M  V30 1859 H 168.588 4.54676 -0.760977 0
M  V30 1860 H 172.132 5.70653 -4.01249 0
M  V30 1861 H 168.029 5.82404 -2.78344 0
M  V30 1862 H 168.797 6.73762 -4.64744 0
M  V30 1863 N 171.46 0.379036 1.52974 0
M  V30 1864 C 172.37 -0.468639 2.29872 0
M  V30 1865 C 173.386 -1.08067 1.36373 0
M  V30 1866 O 174.562 -1.08871 1.69438 0
M  V30 1867 C 171.627 -1.58594 3.083 0
M  V30 1868 C 170.688 -1.00007 4.17489 0
M  V30 1869 C 169.921 -2.06413 4.92168 0
M  V30 1870 O 170.144 -3.27751 4.66835 0
M  V30 1871 O 169.078 -1.68717 5.7777 0
M  V30 1872 H 172.904 0.157508 3.03291 0
M  V30 1873 H 170.489 0.143035 1.48714 0
M  V30 1874 H 172.371 -2.23525 3.57232 0
M  V30 1875 H 171.046 -2.19724 2.37703 0
M  V30 1876 H 169.953 -0.314299 3.72777 0
M  V30 1877 H 171.286 -0.433135 4.90291 0
M  V30 1878 N 172.938 -1.57226 0.108567 0
M  V30 1879 C 173.868 -2.17778 -0.84232 0
M  V30 1880 C 174.849 -1.11487 -1.2847 0
M  V30 1881 O 176.034 -1.39681 -1.34918 0
M  V30 1882 C 173.164 -2.76888 -2.09644 0
M  V30 1883 C 172.118 -3.88669 -1.79221 0
M  V30 1884 C 171.444 -4.34541 -3.11574 0
M  V30 1885 C 172.744 -5.11251 -1.06864 0
M  V30 1886 H 174.438 -2.97489 -0.337774 0
M  V30 1887 H 171.984 -1.43097 -0.161025 0
M  V30 1888 H 173.937 -3.17904 -2.76614 0
M  V30 1889 H 172.661 -1.94451 -2.62405 0
M  V30 1890 H 171.32 -3.48213 -1.14644 0
M  V30 1891 H 170.968 -3.48977 -3.62249 0
M  V30 1892 H 170.668 -5.09914 -2.91996 0
M  V30 1893 H 172.192 -4.782 -3.7968 0
M  V30 1894 H 173.606 -5.49352 -1.63968 0
M  V30 1895 H 172.003 -5.9214 -0.974178 0
M  V30 1896 H 173.073 -4.8487 -0.0536168 0
M  V30 1897 N 174.416 0.165178 -1.56732 0
M  V30 1898 C 175.664 0.879068 -1.8198 0
M  V30 1899 C 175.985 1.82514 -0.686561 0
M  V30 1900 O 175.255 1.93694 0.293146 0
M  V30 1901 H 173.835 0.327608 -0.671329 0
M  V30 1902 H 176.497 0.163526 -1.94213 0
M  V30 1903 H 175.593 1.45228 -2.76252 0
M  V30 1904 N 175.894 1.51508 0.433938 0
M  V30 1905 C 176.804 1.75917 1.5521 0
M  V30 1906 C 177.82 0.643545 1.61662 0
M  V30 1907 O 178.996 0.926183 1.7884 0
M  V30 1908 C 176.061 1.88213 2.91164 0
M  V30 1909 C 175.122 3.12074 2.94802 0
M  V30 1910 C 174.355 3.23774 4.24271 0
M  V30 1911 O 174.578 2.4133 5.16833 0
M  V30 1912 O 173.512 4.16774 4.34262 0
M  V30 1913 H 177.338 2.70777 1.37527 0
M  V30 1914 H 174.923 1.36051 0.617293 0
M  V30 1915 H 176.805 1.98267 3.71845 0
M  V30 1916 H 175.48 0.965413 3.08968 0
M  V30 1917 H 174.387 3.07497 2.13065 0
M  V30 1918 H 175.72 4.03446 2.81943 0
M  V30 1919 N 177.372 -0.689602 1.41712 0
M  V30 1920 C 178.282 -1.83314 1.46401 0
M  V30 1921 C 179.298 -1.7036 0.35405 0
M  V30 1922 O 180.474 -1.92171 0.602692 0
M  V30 1923 C 177.539 -3.19344 1.34982 0
M  V30 1924 C 176.6 -3.44363 2.56344 0
M  V30 1925 C 175.833 -4.73904 2.45461 0
M  V30 1926 O 176.056 -5.508 1.48241 0
M  V30 1927 O 174.99 -4.99839 3.35328 0
M  V30 1928 H 178.816 -1.82314 2.42889 0
M  V30 1929 H 176.401 -0.843438 1.23315 0
M  V30 1930 H 178.283 -4.00547 1.3092 0
M  V30 1931 H 176.958 -3.21014 0.41612 0
M  V30 1932 H 175.865 -2.63067 2.65982 0
M  V30 1933 H 177.198 -3.47512 3.48563 0
M  V30 1934 N 178.85 -1.27639 -0.924453 0
M  V30 1935 C 179.813 -1.10681 -2.00705 0
M  V30 1936 C 180.813 -0.0497823 -1.60723 0
M  V30 1937 O 182.003 -0.294654 -1.7169 0
M  V30 1938 C 179.135 -0.687164 -3.33902 0
M  V30 1939 H 180.328 -2.06817 -2.17179 0
M  V30 1940 H 177.881 -1.10473 -1.10569 0
M  V30 1941 H 178.616 0.275439 -3.23128 0
M  V30 1942 H 178.401 -1.45061 -3.6428 0
M  V30 1943 H 179.891 -0.590853 -4.13399 0
M  V30 1944 N 180.328 1.1314 -1.09713 0
M  V30 1945 C 181.261 2.17735 -0.683137 0
M  V30 1946 C 182.239 1.59582 0.311841 0
M  V30 1947 O 183.423 1.87298 0.212514 0
M  V30 1948 C 180.55 3.38699 -0.00684324 0
M  V30 1949 C 179.596 4.1546 -0.964102 0
M  V30 1950 S 180.429 4.74733 -2.47767 0
M  V30 1951 C 181.585 5.9904 -1.81387 0
M  V30 1952 H 181.818 2.52515 -1.56918 0
M  V30 1953 H 179.351 1.24484 -0.913404 0
M  V30 1954 H 181.309 4.08765 0.377044 0
M  V30 1955 H 179.97 3.02214 0.85589 0
M  V30 1956 H 179.163 5.02093 -0.43803 0
M  V30 1957 H 178.765 3.51066 -1.28953 0
M  V30 1958 H 181.057 6.67846 -1.13967 0
M  V30 1959 H 182 6.56261 -2.65947 0
M  V30 1960 H 182.408 5.4976 -1.28155 0
M  V30 1961 N 181.806 0.884767 1.30421 0
M  V30 1962 C 182.716 0.355398 2.31892 0
M  V30 1963 C 183.732 -0.542261 1.65335 0
M  V30 1964 O 184.908 -0.435432 1.96637 0
M  V30 1965 C 181.973 -0.421661 3.44126 0
M  V30 1966 C 181.034 0.505727 4.26311 0
M  V30 1967 C 180.267 -0.234343 5.33185 0
M  V30 1968 O 180.49 -1.46045 5.51386 0
M  V30 1969 O 179.424 0.415443 6.00465 0
M  V30 1970 H 183.25 1.19685 2.79122 0
M  V30 1971 H 180.835 0.648596 1.34587 0
M  V30 1972 H 182.717 -0.861641 4.12497 0
M  V30 1973 H 181.392 -1.23942 2.99032 0
M  V30 1974 H 180.299 0.994513 3.60639 0
M  V30 1975 H 181.632 1.28948 4.75009 0
M  V30 1976 N 183.284 -1.43765 0.645699 0
M  V30 1977 C 184.217 -2.2798 -0.100072 0
M  V30 1978 C 185.195 -1.39391 -0.837194 0
M  V30 1979 O 186.379 -1.68833 -0.838306 0
M  V30 1980 C 183.506 -3.18643 -1.14823 0
M  V30 1981 C 182.552 -4.2344 -0.510009 0
M  V30 1982 S 183.385 -5.30761 0.710824 0
M  V30 1983 C 184.541 -6.24992 -0.33699 0
M  V30 1984 H 184.774 -2.90884 0.614322 0
M  V30 1985 H 182.307 -1.48166 0.434304 0
M  V30 1986 H 184.265 -3.71424 -1.74799 0
M  V30 1987 H 182.926 -2.54932 -1.8349 0
M  V30 1988 H 182.119 -4.86948 -1.29991 0
M  V30 1989 H 181.721 -3.73997 0.0154577 0
M  V30 1990 H 184.013 -6.66691 -1.20537 0
M  V30 1991 H 184.956 -7.07612 0.262879 0
M  V30 1992 H 185.364 -5.60517 -0.669425 0
M  V30 1993 N 184.763 -0.387143 -1.52771 0
M  V30 1994 C 186.01 0.195735 -2.01552 0
M  V30 1995 C 186.338 1.46995 -1.27369 0
M  V30 1996 O 185.593 1.92325 -0.361879 0
M  V30 1997 C 185.892 0.512209 -3.53711 0
M  V30 1998 C 185.558 -0.670202 -4.45891 0
M  V30 1999 C 184.22 -0.994586 -4.70809 0
M  V30 2000 C 186.572 -1.46134 -5.00294 0
M  V30 2001 C 183.9 -2.11169 -5.4738 0
M  V30 2002 C 186.252 -2.56903 -5.78086 0
M  V30 2003 C 184.916 -2.89852 -6.01284 0
M  V30 2004 H 184.186 0.0716246 -0.73753 0
M  V30 2005 H 186.833 -0.524046 -1.8419 0
M  V30 2006 H 185.138 1.31329 -3.69134 0
M  V30 2007 H 186.835 0.975804 -3.88946 0
M  V30 2008 H 183.425 -0.407366 -4.2666 0
M  V30 2009 H 187.609 -1.22397 -4.80971 0
M  V30 2010 H 182.865 -2.3707 -5.63567 0
M  V30 2011 H 187.039 -3.18608 -6.19243 0
M  V30 2012 H 184.666 -3.76533 -6.60399 0
M  V30 2013 N 186.241 1.57166 -0.116904 0
M  V30 2014 C 187.657 1.5779 0.239693 0
M  V30 2015 C 187.857 1.1295 1.66867 0
M  V30 2016 O 186.913 0.81592 2.38954 0
M  V30 2017 C 188.226 3.00699 0.00828202 0
M  V30 2018 C 189.774 3.12912 0.0743438 0
M  V30 2019 C 190.249 4.57817 -0.129348 0
M  V30 2020 N 191.74 4.63139 -0.075247 0
M  V30 2021 C 192.475 5.73023 -0.207788 0
M  V30 2022 N 191.971 6.91665 -0.396382 0
M  V30 2023 N 193.764 5.61906 -0.14751 0
M  V30 2024 H 185.915 1.84615 -1.05029 0
M  V30 2025 H 188.178 0.85311 -0.41341 0
M  V30 2026 H 187.884 3.37784 -0.979531 0
M  V30 2027 H 187.758 3.69848 0.741077 0
M  V30 2028 H 190.145 2.75686 1.05268 0
M  V30 2029 H 190.226 2.4631 -0.690297 0
M  V30 2030 H 189.87 4.95742 -1.10465 0
M  V30 2031 H 189.8 5.22507 0.655253 0
M  V30 2032 H 192.291 3.7784 0.0670898 0
M  V30 2033 H 192.604 7.71255 -0.488437 0
M  V30 2034 H 190.949 6.93654 -0.432329 0
M  V30 2035 H 194.14 4.681 -0.00115036 0
M  V30 2036 H 194.313 6.47501 -0.254247 0
M  V30 2037 N 187.719 -0.156864 1.56817 0
M  V30 2038 C 188.629 -1.2136 2.00771 0
M  V30 2039 C 189.645 -1.47598 0.921459 0
M  V30 2040 O 190.821 -1.59462 1.2302 0
M  V30 2041 C 187.886 -2.52943 2.37109 0
M  V30 2042 C 186.947 -2.34439 3.59634 0
M  V30 2043 C 186.18 -3.59748 3.94229 0
M  V30 2044 O 186.403 -4.65526 3.29609 0
M  V30 2045 O 185.337 -3.52998 4.8752 0
M  V30 2046 H 189.163 -0.870468 2.90958 0
M  V30 2047 H 186.748 -0.36484 1.44877 0
M  V30 2048 H 188.63 -3.30538 2.61386 0
M  V30 2049 H 187.305 -2.86806 1.5008 0
M  V30 2050 H 186.212 -1.54828 3.40557 0
M  V30 2051 H 187.545 -2.05496 4.4725 0
M  V30 2052 N 189.197 -1.51736 -0.425897 0
M  V30 2053 C 190.474 -1.55519 -1.1863 0
M  V30 2054 C 190.854 -0.326219 -2.08564 0
M  V30 2055 O 190.202 0.688012 -2.17896 0
M  V30 2056 C 190.412 -2.87521 -1.9782 0
M  V30 2057 C 191.76 -3.39899 -2.54468 0
M  V30 2058 O 192.784 -2.89148 -2.08019 0
M  V30 2059 O 191.643 -4.2848 -3.39215 0
M  V30 2060 H 188.737 -0.625739 -0.540721 0
M  V30 2061 H 191.283 -1.64055 -0.434038 0
M  V30 2062 H 190.055 -3.68422 -1.31836 0
M  V30 2063 H 189.678 -2.822 -2.80088 0
M  V30 2064 N 190.675 0.682077 -1.42076 0
M  V30 2065 C 191.585 1.82535 -1.47371 0
M  V30 2066 C 192.601 1.7017 -0.363079 0
M  V30 2067 O 193.777 1.91848 -0.612875 0
M  V30 2068 C 190.842 3.18624 -1.36674 0
M  V30 2069 C 189.903 3.42999 -2.58167 0
M  V30 2070 C 189.136 4.72595 -2.4797 0
M  V30 2071 O 189.359 5.50006 -1.5116 0
M  V30 2072 O 188.293 4.98054 -3.37974 0
M  V30 2073 H 192.119 1.81023 -2.43853 0
M  V30 2074 H 189.704 0.836887 -1.2376 0
M  V30 2075 H 191.586 3.99847 -1.33043 0
M  V30 2076 H 190.261 3.20789 -0.433138 0
M  V30 2077 H 189.168 2.61653 -2.67373 0
M  V30 2078 H 190.501 3.45659 -3.50401 0
M  V30 2079 N 192.153 1.28127 0.917671 0
M  V30 2080 C 193.401 1.14825 1.66312 0
M  V30 2081 C 193.722 -0.304379 1.9261 0
M  V30 2082 O 192.992 -1.21149 1.53947 0
M  V30 2083 H 191.572 0.421953 0.616413 0
M  V30 2084 H 194.234 1.608 1.10134 0
M  V30 2085 H 193.33 1.68489 2.62712 0
M  V30 2086 N 193.631 -1.12557 1.10312 0
M  V30 2087 C 194.861 -1.87592 0.865617 0
M  V30 2088 C 195.269 -1.79851 -0.587389 0
M  V30 2089 O 194.612 -1.16949 -1.41664 0
M  V30 2090 C 194.674 -3.37665 1.23381 0
M  V30 2091 C 194.338 -3.69181 2.69359 0
M  V30 2092 C 195.335 -3.67652 3.67597 0
M  V30 2093 C 193.02 -3.98555 3.05711 0
M  V30 2094 C 195.014 -3.95053 5.00212 0
M  V30 2095 C 192.701 -4.25616 4.38514 0
M  V30 2096 C 193.699 -4.23851 5.35574 0
M  V30 2097 O 193.387 -4.50242 6.65986 0
M  V30 2098 H 193.119 -0.600442 0.310557 0
M  V30 2099 H 195.673 -1.4335 1.47105 0
M  V30 2100 H 193.903 -3.82454 0.571467 0
M  V30 2101 H 195.592 -3.94041 0.973994 0
M  V30 2102 H 196.358 -3.45024 3.40857 0
M  V30 2103 H 192.237 -3.99071 2.30789 0
M  V30 2104 H 195.781 -3.93591 5.75962 0
M  V30 2105 H 191.678 -4.47718 4.64994 0
M  V30 2106 H 192.446 -4.67867 6.71597 0
M  V30 2107 N 195.109 -0.891671 -1.2995 0
M  V30 2108 C 196.358 -0.509521 -1.95158 0
M  V30 2109 C 196.671 0.947388 -1.71125 0
M  V30 2110 O 197.877 1.43669 -2.30372 0
M  V30 2111 C 196.333 -0.860315 -3.49466 0
M  V30 2112 C 195.941 -2.33545 -3.8231 0
M  V30 2113 C 197.685 -0.547687 -4.20952 0
M  V30 2114 C 195.592 -2.62752 -5.29826 0
M  V30 2115 H 194.522 -0.18682 -0.730489 0
M  V30 2116 H 197.173 -1.08756 -1.47798 0
M  V30 2117 H 195.555 -0.211285 -3.95436 0
M  V30 2118 H 196.729 -3.02936 -3.47227 0
M  V30 2119 H 195.044 -2.61629 -3.23944 0
M  V30 2120 H 197.641 -0.742854 -5.29515 0
M  V30 2121 H 197.984 0.51332 -4.13123 0
M  V30 2122 H 198.517 -1.1542 -3.80688 0
M  V30 2123 H 195.256 -3.6762 -5.42712 0
M  V30 2124 H 194.776 -1.97977 -5.66185 0
M  V30 2125 H 196.455 -2.48601 -5.97333 0
M  V30 2126 N 196.587 1.43421 -0.653314 0
M  V30 2127 C 197.534 2.30768 0.0382271 0
M  V30 2128 C 198.504 1.44755 0.814576 0
M  V30 2129 O 199.689 1.73624 0.791162 0
M  V30 2130 C 196.829 3.30336 0.998599 0
M  V30 2131 C 195.942 4.31448 0.218342 0
M  V30 2132 C 195.077 5.18098 1.17252 0
M  V30 2133 C 194.116 6.10902 0.382702 0
M  V30 2134 N 193.253 6.90176 1.28848 0
M  V30 2135 H 198.093 2.89357 -0.712511 0
M  V30 2136 H 195.63 1.42548 -0.363128 0
M  V30 2137 H 197.588 3.86572 1.56901 0
M  V30 2138 H 196.218 2.73397 1.71621 0
M  V30 2139 H 195.27 3.77506 -0.46836 0
M  V30 2140 H 196.582 4.97227 -0.395812 0
M  V30 2141 H 195.736 5.7896 1.81356 0
M  V30 2142 H 194.475 4.52444 1.82058 0
M  V30 2143 H 193.48 5.49128 -0.27169 0
M  V30 2144 H 194.705 6.78598 -0.260957 0
M  V30 2145 H 192.651 6.27171 1.92334 0
M  V30 2146 H 192.568 7.52478 0.728887 0
M  V30 2147 H 193.836 7.55543 1.91766 0
M  V30 2148 N 198.065 0.39524 1.52563 0
M  V30 2149 C 198.975 -0.444232 2.30356 0
M  V30 2150 C 199.991 -1.06615 1.37511 0
M  V30 2151 O 201.167 -1.07067 1.70583 0
M  V30 2152 C 198.232 -1.55315 3.09964 0
M  V30 2153 C 197.293 -0.955734 4.18526 0
M  V30 2154 C 196.526 -2.01181 4.9433 0
M  V30 2155 O 196.749 -3.22781 4.70285 0
M  V30 2156 O 195.683 -1.62579 5.79527 0
M  V30 2157 H 199.509 0.189667 3.03107 0
M  V30 2158 H 197.094 0.1588 1.48554 0
M  V30 2159 H 198.976 -2.19724 3.59582 0
M  V30 2160 H 197.651 -2.17191 2.4002 0
M  V30 2161 H 196.558 -0.274743 3.7309 0
M  V30 2162 H 197.891 -0.381109 4.90722 0
M  V30 2163 N 199.544 -1.57102 0.125237 0
M  V30 2164 C 200.454 -2.19191 -0.8362 0
M  V30 2165 C 201.47 -1.16985 -1.28805 0
M  V30 2166 O 202.646 -1.49479 -1.34974 0
M  V30 2167 C 199.711 -2.78407 -2.06617 0
M  V30 2168 C 198.772 -3.9567 -1.66565 0
M  V30 2169 C 198.005 -4.52052 -2.83698 0
M  V30 2170 O 198.228 -4.07326 -3.99302 0
M  V30 2171 O 197.162 -5.42645 -2.60423 0
M  V30 2172 H 200.988 -3.01816 -0.337776 0
M  V30 2173 H 198.573 -1.4906 -0.100695 0
M  V30 2174 H 200.455 -3.16129 -2.7864 0
M  V30 2175 H 199.13 -1.9881 -2.55453 0
M  V30 2176 H 198.037 -3.62705 -0.916296 0
M  V30 2177 H 199.37 -4.76722 -1.22464 0
M  V30 2178 N 201.022 0.148545 -1.56898 0
M  V30 2179 C 201.932 1.20293 -2.01412 0
M  V30 2180 C 202.948 1.47107 -0.929273 0
M  V30 2181 O 204.124 1.58807 -1.23863 0
M  V30 2182 C 201.189 2.51682 -2.38447 0
M  V30 2183 C 200.25 2.32529 -3.60872 0
M  V30 2184 C 199.483 3.57653 -3.96132 0
M  V30 2185 O 199.706 4.63771 -3.32073 0
M  V30 2186 O 198.64 3.50408 -4.89385 0
M  V30 2187 H 202.466 0.855025 -2.91416 0
M  V30 2188 H 200.051 0.357151 -1.45068 0
M  V30 2189 H 201.933 3.29147 -2.63135 0
M  V30 2190 H 200.608 2.86006 -1.51599 0
M  V30 2191 H 199.515 1.53019 -3.41373 0
M  V30 2192 H 200.848 2.03121 -4.48333 0
M  V30 2193 N 202.5 1.5196 0.417844 0
M  V30 2194 C 203.916 1.40569 0.755816 0
M  V30 2195 C 204.116 0.503316 1.95113 0
M  V30 2196 O 203.172 -0.0341925 2.52477 0
M  V30 2197 C 204.485 2.82947 1.01791 0
M  V30 2198 C 206.033 2.92231 1.12116 0
M  V30 2199 C 206.508 4.35559 1.41608 0
M  V30 2200 N 207.999 4.38753 1.48491 0
M  V30 2201 C 208.734 5.46705 1.7292 0
M  V30 2202 N 208.23 6.64788 1.95011 0
M  V30 2203 N 210.023 5.34209 1.74863 0
M  V30 2204 H 202.174 2.09168 -0.369098 0
M  V30 2205 H 204.437 0.942409 -0.102809 0
M  V30 2206 H 204.143 3.5106 0.212081 0
M  V30 2207 H 204.017 3.23462 1.94042 0
M  V30 2208 H 206.404 2.24304 1.9176 0
M  V30 2209 H 206.485 2.55185 0.177225 0
M  V30 2210 H 206.129 5.04042 0.624848 0
M  V30 2211 H 206.059 4.70133 2.37239 0
M  V30 2212 H 208.55 3.5363 1.33244 0
M  V30 2213 H 208.863 7.42845 2.13076 0
M  V30 2214 H 207.208 6.67869 1.92293 0
M  V30 2215 H 210.399 4.40937 1.57137 0
M  V30 2216 H 210.572 6.18415 1.93563 0
M  V30 2217 N 203.978 -0.674533 1.42435 0
M  V30 2218 C 205.389 -1.25514 1.38214 0
M  V30 2219 C 205.74 -1.96055 0.0755464 0
M  V30 2220 O 204.865 -2.00028 -0.8257 0
M  V30 2221 C 205.46 -2.28269 2.50357 0
M  V30 2222 C 204.019 -2.81856 2.49467 0
M  V30 2223 C 203.166 -1.56182 2.29134 0
M  V30 2224 H 206.117 -0.467902 1.51646 0
M  V30 2225 H 206.138 -3.10009 2.20624 0
M  V30 2226 H 205.65 -1.769 3.45439 0
M  V30 2227 H 203.751 -3.37346 1.58204 0
M  V30 2228 H 203.864 -3.30854 3.46515 0
M  V30 2229 H 202.228 -1.82761 1.774 0
M  V30 2230 H 203.011 -1.06778 3.26272 0
M  V30 2231 N 205.456 -1.28612 -0.910864 0
M  V30 2232 C 206.386 -1.15326 -2.03032 0
M  V30 2233 C 207.367 -0.0502924 -1.70026 0
M  V30 2234 O 208.552 -0.227797 -1.92859 0
M  V30 2235 C 205.682 -0.817343 -3.37545 0
M  V30 2236 C 204.636 -1.8754 -3.84724 0
M  V30 2237 C 203.962 -1.39305 -5.16235 0
M  V30 2238 C 205.262 -3.28244 -4.06267 0
M  V30 2239 H 206.956 -2.08975 -2.14406 0
M  V30 2240 H 204.502 -1.00612 -1.03021 0
M  V30 2241 H 206.455 -0.711151 -4.15356 0
M  V30 2242 H 205.179 0.154846 -3.26233 0
M  V30 2243 H 203.838 -1.97079 -3.09121 0
M  V30 2244 H 203.486 -0.409846 -5.01328 0
M  V30 2245 H 203.186 -2.10057 -5.48771 0
M  V30 2246 H 204.71 -1.30014 -5.96598 0
M  V30 2247 H 206.124 -3.21611 -4.74594 0
M  V30 2248 H 204.521 -3.96855 -4.5014 0
M  V30 2249 H 205.591 -3.72048 -3.10979 0
M  V30 2250 N 206.934 1.1197 -1.10907 0
M  V30 2251 C 208.345 1.65114 -0.871446 0
M  V30 2252 C 208.696 1.86885 0.597353 0
M  V30 2253 O 207.821 1.59896 1.45816 0
M  V30 2254 C 208.416 2.99944 -1.5754 0
M  V30 2255 C 206.975 3.50018 -1.38435 0
M  V30 2256 C 206.122 2.24941 -1.62164 0
M  V30 2257 H 209.073 0.956851 -1.2661 0
M  V30 2258 H 209.094 3.66651 -1.01721 0
M  V30 2259 H 208.606 2.84067 -2.64438 0
M  V30 2260 H 206.707 3.71071 -0.337214 0
M  V30 2261 H 206.82 4.29165 -2.12965 0
M  V30 2262 H 205.184 2.3229 -1.04467 0
M  V30 2263 H 205.967 2.11612 -2.70324 0
M  V30 2264 N 208.412 0.89855 1.29475 0
M  V30 2265 C 209.322 0.379974 2.31502 0
M  V30 2266 C 210.338 -0.524695 1.659 0
M  V30 2267 O 211.514 -0.414551 1.97087 0
M  V30 2268 C 208.579 -0.385138 3.44554 0
M  V30 2269 C 207.64 0.550914 4.2575 0
M  V30 2270 C 206.873 -0.177778 5.33404 0
M  V30 2271 O 207.096 -1.40189 5.52904 0
M  V30 2272 O 206.03 0.479106 5.9999 0
M  V30 2273 H 209.856 1.22639 2.77837 0
M  V30 2274 H 207.441 0.662834 1.33891 0
M  V30 2275 H 209.323 -0.817841 4.13388 0
M  V30 2276 H 207.998 -1.20763 3.0033 0
M  V30 2277 H 206.905 1.03271 3.59564 0
M  V30 2278 H 208.238 1.33979 4.73614 0
M  V30 2279 N 209.89 -1.43072 0.660911 0
M  V30 2280 C 210.838 -2.32569 -0.0378199 0
M  V30 2281 C 211.832 -1.49046 -0.805092 0
M  V30 2282 O 213.038 -1.65206 -0.714624 0
M  V30 2283 H 209.413 -0.75136 -0.031019 0
M  V30 2284 H 211.384 -2.89216 0.734609 0
M  V30 2285 C 210.133 -3.33453 -0.985124 0
M  V30 2286 H 209.456 -3.97752 -0.404147 0
M  V30 2287 H 210.896 -3.98691 -1.44297 0
M  V30 2288 C 209.355 -2.64642 -2.08486 0
M  V30 2289 O 209.885 -2.46776 -3.16961 0
M  V30 2290 N 208.091 -2.23891 -1.8526 0
M  V30 2291 H 207.638 -2.38621 -0.970449 0
M  V30 2292 H 207.596 -1.78181 -2.59034 0
M  V30 2293 N 211.368 -0.403325 -1.52352 0
M  V30 2294 C 212.278 0.432009 -2.30588 0
M  V30 2295 C 213.294 1.05884 -1.38075 0
M  V30 2296 O 214.47 1.06161 -1.71148 0
M  V30 2297 C 211.535 1.53669 -3.10784 0
M  V30 2298 C 210.596 0.933525 -4.19027 0
M  V30 2299 C 209.829 1.98557 -4.9539 0
M  V30 2300 O 210.052 3.20283 -4.71991 0
M  V30 2301 O 208.986 1.59504 -5.80381 0
M  V30 2302 H 212.812 -0.205739 -3.03002 0
M  V30 2303 H 210.397 -0.166675 -1.48467 0
M  V30 2304 H 212.279 2.17814 -3.60742 0
M  V30 2305 H 210.954 2.15915 -2.41169 0
M  V30 2306 H 209.861 0.254954 -3.7323 0
M  V30 2307 H 211.194 0.35508 -4.90918 0
M  V30 2308 N 212.846 1.57033 -0.133567 0
M  V30 2309 C 214.093 1.95686 0.520877 0
M  V30 2310 C 214.421 1.0177 1.6575 0
M  V30 2311 O 213.676 0.0443195 1.9565 0
M  V30 2312 C 213.975 3.40674 1.08057 0
M  V30 2313 C 213.641 4.50855 0.0637899 0
M  V30 2314 C 212.303 4.80716 -0.215757 0
M  V30 2315 C 214.655 5.17398 -0.62835 0
M  V30 2316 C 211.983 5.74433 -1.19348 0
M  V30 2317 C 214.335 6.12167 -1.5948 0
M  V30 2318 C 212.999 6.40414 -1.88218 0
M  V30 2319 H 212.269 0.716067 0.190602 0
M  V30 2320 H 214.916 1.9026 -0.217556 0
M  V30 2321 H 213.221 3.42865 1.89606 0
M  V30 2322 H 214.918 3.67902 1.59529 0
M  V30 2323 H 211.508 4.27605 0.291855 0
M  V30 2324 H 215.692 4.94472 -0.425562 0
M  V30 2325 H 210.948 5.94616 -1.42272 0
M  V30 2326 H 215.122 6.6281 -2.13671 0
M  V30 2327 H 212.749 7.12838 -2.64133 0
M  V30 2328 N 214.325 -0.140222 1.56975 0
M  V30 2329 C 215.257 -1.19818 1.95388 0
M  V30 2330 C 216.27 -1.38816 0.850525 0
M  V30 2331 O 217.459 -1.38267 1.12891 0
M  V30 2332 C 214.559 -2.56189 2.21857 0
M  V30 2333 C 213.732 -2.58077 3.5315 0
M  V30 2334 C 212.791 -3.76037 3.6808 0
M  V30 2335 O 211.817 -3.60598 4.40406 0
M  V30 2336 N 213.019 -4.93763 3.05251 0
M  V30 2337 H 215.784 -0.871609 2.86746 0
M  V30 2338 H 213.345 -0.32972 1.58507 0
M  V30 2339 H 215.337 -3.33623 2.2908 0
M  V30 2340 H 213.907 -2.81111 1.36731 0
M  V30 2341 H 213.127 -1.6651 3.57307 0
M  V30 2342 H 214.415 -2.56377 4.39486 0
M  V30 2343 H 213.813 -5.09209 2.46419 0
M  V30 2344 H 212.37 -5.68949 3.18026 0
M  V30 2345 N 215.803 -1.52179 -0.40978 0
M  V30 2346 C 217.219 -1.40968 -0.74835 0
M  V30 2347 C 217.419 -0.513657 -1.94843 0
M  V30 2348 O 216.475 0.0208026 -2.52491 0
M  V30 2349 C 217.788 -2.83483 -1.0029 0
M  V30 2350 C 219.336 -2.92821 -1.10565 0
M  V30 2351 C 219.811 -4.36303 -1.39296 0
M  V30 2352 N 221.302 -4.39535 -1.46162 0
M  V30 2353 C 222.037 -5.47614 -1.70018 0
M  V30 2354 N 221.533 -6.65812 -1.91483 0
M  V30 2355 N 223.326 -5.35129 -1.72027 0
M  V30 2356 H 215.477 -2.0897 0.380186 0
M  V30 2357 H 217.74 -0.94185 0.107805 0
M  V30 2358 H 217.446 -3.51168 -0.193461 0
M  V30 2359 H 217.32 -3.24487 -1.92323 0
M  V30 2360 H 219.707 -2.25318 -1.90568 0
M  V30 2361 H 219.788 -2.55276 -0.16369 0
M  V30 2362 H 219.432 -5.04366 -0.598109 0
M  V30 2363 H 219.362 -4.71385 -2.34743 0
M  V30 2364 H 221.853 -3.54332 -1.31367 0
M  V30 2365 H 222.166 -7.43964 -2.09134 0
M  V30 2366 H 220.511 -6.68879 -1.88749 0
M  V30 2367 H 223.702 -4.41764 -1.54796 0
M  V30 2368 H 223.875 -6.19433 -1.9028 0
M  V30 2369 N 217.281 0.66697 -1.42791 0
M  V30 2370 C 218.213 1.7925 -1.42836 0
M  V30 2371 C 219.226 1.59496 -0.326333 0
M  V30 2372 O 220.415 1.6847 -0.589916 0
M  V30 2373 C 217.515 3.16476 -1.21229 0
M  V30 2374 C 216.688 3.63011 -2.44013 0
M  V30 2375 C 215.747 4.78993 -2.17834 0
M  V30 2376 O 214.773 4.89137 -2.91091 0
M  V30 2377 N 215.975 5.68248 -1.18635 0
M  V30 2378 H 218.74 1.79695 -2.39854 0
M  V30 2379 H 216.301 0.850338 -1.37771 0
M  V30 2380 H 218.293 3.91734 -1.01621 0
M  V30 2381 H 216.863 3.10884 -0.32706 0
M  V30 2382 H 216.083 2.78346 -2.79137 0
M  V30 2383 H 217.371 3.90845 -3.25757 0
M  V30 2384 H 216.769 5.62712 -0.580615 0
M  V30 2385 H 215.326 6.43285 -1.05013 0
M  V30 2386 N 218.759 1.29093 0.90403 0
M  V30 2387 C 220.005 1.16986 1.65656 0
M  V30 2388 C 220.338 -0.278925 1.92186 0
M  V30 2389 O 219.613 -1.2019 1.5292 0
M  V30 2390 C 219.896 1.97908 3.0084 0
M  V30 2391 C 219.749 3.50903 2.81403 0
M  V30 2392 C 221.068 1.80208 4.01513 0
M  V30 2393 H 218.187 0.426346 0.601164 0
M  V30 2394 H 220.829 1.58518 1.04747 0
M  V30 2395 H 218.979 1.62616 3.52829 0
M  V30 2396 H 220.651 3.96153 2.36348 0
M  V30 2397 H 218.894 3.76045 2.1627 0
M  V30 2398 H 219.565 4.02791 3.77443 0
M  V30 2399 H 222.041 2.11025 3.58619 0
M  V30 2400 H 220.917 2.39184 4.94047 0
M  V30 2401 H 221.178 0.756119 4.35586 0
M  V30 2402 N 220.237 -1.11381 1.11499 0
M  V30 2403 C 221.483 -1.83597 0.875423 0
M  V30 2404 C 221.838 -1.83048 -0.592555 0
M  V30 2405 O 221.131 -1.27304 -1.43193 0
M  V30 2406 C 221.325 -3.30026 1.37177 0
M  V30 2407 C 221.154 -3.44837 2.88647 0
M  V30 2408 C 219.924 -3.57825 3.56776 0
M  V30 2409 C 222.122 -3.3907 3.86699 0
M  V30 2410 N 220.104 -3.61113 4.96458 0
M  V30 2411 C 221.475 -3.48986 5.12454 0
M  V30 2412 C 223.53 -3.22605 3.7925 0
M  V30 2413 C 222.233 -3.44135 6.31636 0
M  V30 2414 C 224.259 -3.19072 4.97943 0
M  V30 2415 C 223.621 -3.29559 6.22551 0
M  V30 2416 H 219.72 -0.687044 0.37349 0
M  V30 2417 H 222.304 -1.33265 1.41946 0
M  V30 2418 H 220.475 -3.78874 0.854919 0
M  V30 2419 H 222.207 -3.90153 1.07529 0
M  V30 2420 H 218.962 -3.60414 3.07244 0
M  V30 2421 H 219.386 -3.66394 5.69284 0
M  V30 2422 H 224.028 -3.13382 2.83816 0
M  V30 2423 H 221.746 -3.52126 7.27347 0
M  V30 2424 H 225.332 -3.07498 4.93899 0
M  V30 2425 H 224.212 -3.26815 7.12855 0
M  V30 2426 N 221.715 -0.905404 -1.28997 0
M  V30 2427 C 222.645 -0.404212 -2.29975 0
M  V30 2428 C 223.626 0.523784 -1.61835 0
M  V30 2429 O 224.811 0.433298 -1.89304 0
M  V30 2430 C 221.941 0.364042 -3.45387 0
M  V30 2431 C 220.895 -0.474048 -4.25367 0
M  V30 2432 C 220.221 0.422045 -5.33032 0
M  V30 2433 C 221.521 -1.72696 -4.92923 0
M  V30 2434 H 223.215 -1.24807 -2.72146 0
M  V30 2435 H 220.761 -0.601585 -1.30832 0
M  V30 2436 H 222.714 0.725447 -4.15109 0
M  V30 2437 H 221.438 1.24174 -3.02074 0
M  V30 2438 H 220.097 -0.81786 -3.57361 0
M  V30 2439 H 219.745 1.29804 -4.85963 0
M  V30 2440 H 219.445 -0.135057 -5.87445 0
M  V30 2441 H 220.969 0.779517 -6.05604 0
M  V30 2442 H 222.383 -1.43495 -5.55051 0
M  V30 2443 H 220.78 -2.22582 -5.57295 0
M  V30 2444 H 221.85 -2.45964 -4.17887 0
M  V30 2445 N 223.193 1.4272 -0.668489 0
M  V30 2446 C 224.123 2.335 -0.000100175 0
M  V30 2447 C 225.104 1.50328 0.795964 0
M  V30 2448 O 226.289 1.78949 0.754385 0
M  V30 2449 C 223.419 3.33874 0.956302 0
M  V30 2450 C 222.373 4.27152 0.269278 0
M  V30 2451 C 221.699 5.17684 1.33818 0
M  V30 2452 C 222.999 5.15373 -0.847805 0
M  V30 2453 H 224.693 2.89639 -0.758244 0
M  V30 2454 H 222.239 1.39269 -0.366079 0
M  V30 2455 H 224.192 3.9629 1.43292 0
M  V30 2456 H 222.916 2.76025 1.74579 0
M  V30 2457 H 221.575 3.66123 -0.187042 0
M  V30 2458 H 221.223 4.56165 2.1195 0
M  V30 2459 H 220.923 5.80918 0.883659 0
M  V30 2460 H 222.447 5.82974 1.81586 0
M  V30 2461 H 223.861 5.7151 -0.452681 0
M  V30 2462 H 222.258 5.87407 -1.22773 0
M  V30 2463 H 223.328 4.5415 -1.69929 0
M  V30 2464 N 224.671 0.411399 1.52136 0
M  V30 2465 C 225.918 -0.163645 2.01838 0
M  V30 2466 C 226.246 -1.4495 1.29691 0
M  V30 2467 O 225.501 -1.91725 0.392431 0
M  V30 2468 C 225.8 -0.455872 3.54481 0
M  V30 2469 C 225.466 0.741055 4.44769 0
M  V30 2470 C 224.128 1.06936 4.69167 0
M  V30 2471 C 226.48 1.54075 4.97906 0
M  V30 2472 C 223.808 2.19851 5.43951 0
M  V30 2473 C 226.16 2.66067 5.73926 0
M  V30 2474 C 224.824 2.99381 5.96596 0
M  V30 2475 H 224.094 -0.0598821 0.738576 0
M  V30 2476 H 226.741 0.553283 1.83333 0
M  V30 2477 H 225.046 -1.2544 3.71177 0
M  V30 2478 H 226.743 -0.913802 3.90449 0
M  V30 2479 H 223.333 0.475192 4.25958 0
M  V30 2480 H 227.517 1.30033 4.78963 0
M  V30 2481 H 222.773 2.46006 5.59724 0
M  V30 2482 H 226.947 3.28419 6.14096 0
M  V30 2483 H 224.574 3.86992 6.54325 0
M  V30 2484 N 226.149 -1.5696 0.141893 0
M  V30 2485 C 227.059 -2.20066 -0.812905 0
M  V30 2486 C 228.075 -1.18344 -1.27557 0
M  V30 2487 O 229.251 -1.50902 -1.33381 0
M  V30 2488 C 226.316 -2.80583 -2.03652 0
M  V30 2489 C 225.377 -3.97414 -1.62359 0
M  V30 2490 C 224.61 -4.55036 -2.78887 0
M  V30 2491 O 224.833 -4.11538 -3.94959 0
M  V30 2492 O 223.767 -5.45376 -2.54653 0
M  V30 2493 H 227.593 -3.02157 -0.305746 0
M  V30 2494 H 225.178 -1.49159 -0.0848799 0
M  V30 2495 H 227.06 -3.19067 -2.75272 0
M  V30 2496 H 225.735 -2.01508 -2.5333 0
M  V30 2497 H 224.642 -3.63656 -0.877775 0
M  V30 2498 H 225.975 -4.77994 -1.17401 0
M  V30 2499 N 227.627 0.131896 -1.57047 0
M  V30 2500 C 228.857 0.855219 -1.88068 0
M  V30 2501 C 229.265 1.74557 -0.729817 0
M  V30 2502 O 228.608 1.81083 0.308962 0
M  V30 2503 C 228.67 1.75119 -3.13964 0
M  V30 2504 C 228.334 1.03646 -4.45091 0
M  V30 2505 C 229.331 0.383276 -5.18485 0
M  V30 2506 C 227.016 1.02148 -4.91804 0
M  V30 2507 C 229.01 -0.275347 -6.36805 0
M  V30 2508 C 226.697 0.359047 -6.10044 0
M  V30 2509 C 227.695 -0.288222 -6.82392 0
M  V30 2510 O 227.383 -0.94011 -7.98384 0
M  V30 2511 H 227.115 0.251864 -0.627328 0
M  V30 2512 H 229.669 0.124782 -2.05021 0
M  V30 2513 H 227.899 2.52295 -2.9306 0
M  V30 2514 H 229.588 2.3478 -3.31109 0
M  V30 2515 H 230.354 0.386562 -4.83457 0
M  V30 2516 H 226.233 1.5147 -4.35405 0
M  V30 2517 H 229.777 -0.781148 -6.93213 0
M  V30 2518 H 225.674 0.35348 -6.44531 0
M  V30 2519 H 226.442 -0.84329 -8.14144 0
M  V30 2520 N 229.106 1.52395 0.401703 0
M  V30 2521 C 230.517 1.58899 0.980202 0
M  V30 2522 C 230.868 0.434032 1.91339 0
M  V30 2523 O 229.993 -0.444619 2.11783 0
M  V30 2524 C 230.588 2.87994 1.78451 0
M  V30 2525 C 229.147 2.96953 2.31292 0
M  V30 2526 C 228.294 2.53903 1.11483 0
M  V30 2527 H 231.245 1.57657 0.18168 0
M  V30 2528 H 231.266 2.73765 2.64259 0
M  V30 2529 H 230.778 3.72035 1.10506 0
M  V30 2530 H 228.879 2.17422 3.02586 0
M  V30 2531 H 228.992 4.01344 2.61649 0
M  V30 2532 H 227.356 2.07925 1.47104 0
M  V30 2533 H 228.139 3.40326 0.450928 0
M  V30 2534 N 230.584 -0.659388 1.43143 0
M  V30 2535 C 231.494 -1.80167 1.50256 0
M  V30 2536 C 232.51 -1.69571 0.390106 0
M  V30 2537 O 233.686 -1.90849 0.643319 0
M  V30 2538 C 230.751 -3.16409 1.41725 0
M  V30 2539 C 229.812 -3.38848 2.63591 0
M  V30 2540 C 229.045 -4.68591 2.55458 0
M  V30 2541 O 229.268 -5.47532 1.59891 0
M  V30 2542 O 228.202 -4.92614 3.45854 0
M  V30 2543 H 232.028 -1.77121 2.46702 0
M  V30 2544 H 229.613 -0.817092 1.25076 0
M  V30 2545 H 231.495 -3.9768 1.39387 0
M  V30 2546 H 230.17 -3.20059 0.484118 0
M  V30 2547 H 229.077 -2.57366 2.71502 0
M  V30 2548 H 230.41 -3.4004 3.55856 0
M  V30 2549 N 232.062 -1.29571 -0.897171 0
M  V30 2550 C 233.287 -1.20705 -1.68656 0
M  V30 2551 C 233.712 0.228582 -1.86706 0
M  V30 2552 O 233.07 1.16494 -1.3892 0
M  V30 2553 C 233.118 -1.9282 -3.04717 0
M  V30 2554 O 232.222 -1.24697 -3.93096 0
M  V30 2555 H 231.563 -0.418126 -0.515816 0
M  V30 2556 H 234.093 -1.71183 -1.12061 0
M  V30 2557 H 234.103 -2.01372 -3.54843 0
M  V30 2558 H 232.778 -2.97239 -2.90899 0
M  V30 2559 H 231.355 -1.2442 -3.51531 0
M  V30 2560 N 233.54 1.10788 -1.12088 0
M  V30 2561 C 234.765 1.87002 -0.896949 0
M  V30 2562 C 235.19 1.79933 0.548261 0
M  V30 2563 O 234.548 1.16662 1.38779 0
M  V30 2564 C 234.596 3.3349 -1.37174 0
M  V30 2565 O 233.7 4.08745 -0.547831 0
M  V30 2566 H 233.041 0.580397 -0.322545 0
M  V30 2567 H 235.571 1.39996 -1.49206 0
M  V30 2568 H 235.581 3.84339 -1.36922 0
M  V30 2569 H 234.256 3.37951 -2.42408 0
M  V30 2570 H 232.833 3.6776 -0.617034 0
M  V30 2571 N 235.018 0.912232 1.28515 0
M  V30 2572 C 236.266 0.543523 1.94654 0
M  V30 2573 C 236.587 -0.9155 1.72173 0
M  V30 2574 O 235.857 -1.64708 1.06058 0
M  V30 2575 H 234.437 0.198017 0.720277 0
M  V30 2576 H 237.099 1.16126 1.56527 0
M  V30 2577 H 236.195 0.736684 3.03281 0
M  V30 2578 N 236.496 -1.42363 0.676048 0
M  V30 2579 C 237.907 -1.84649 0.275948 0
M  V30 2580 C 238.258 -1.56588 -1.18214 0
M  V30 2581 O 237.383 -1.02634 -1.90513 0
M  V30 2582 C 237.978 -3.35178 0.494053 0
M  V30 2583 C 236.537 -3.76109 0.148061 0
M  V30 2584 C 235.684 -2.65931 0.785891 0
M  V30 2585 H 238.635 -1.32192 0.878121 0
M  V30 2586 H 238.656 -3.79655 -0.25343 0
M  V30 2587 H 238.168 -3.55571 1.55535 0
M  V30 2588 H 236.269 -3.61323 -0.909742 0
M  V30 2589 H 236.382 -4.7546 0.589454 0
M  V30 2590 H 234.746 -2.53773 0.217113 0
M  V30 2591 H 235.529 -2.89146 1.85067 0
M  V30 2592 N 237.974 -0.419461 -1.51915 0
M  V30 2593 C 238.937 0.389116 -2.25873 0
M  V30 2594 C 239.937 0.964924 -1.28631 0
M  V30 2595 O 241.127 0.842179 -1.52489 0
M  V30 2596 C 238.259 1.54874 -3.03689 0
M  V30 2597 H 239.452 -0.258799 -2.98781 0
M  V30 2598 H 237.005 -0.172209 -1.55348 0
M  V30 2599 H 237.74 2.23323 -2.35154 0
M  V30 2600 H 237.525 1.14223 -3.75094 0
M  V30 2601 H 239.015 2.12046 -3.59759 0
M  V30 2602 N 239.452 1.56882 -0.150215 0
M  V30 2603 C 240.868 1.58263 0.20617 0
M  V30 2604 C 241.068 1.16464 1.64434 0
M  V30 2605 O 240.124 0.866422 2.3717 0
M  V30 2606 C 241.437 3.00649 -0.0555025 0
M  V30 2607 C 242.985 3.12999 0.00795388 0
M  V30 2608 C 243.46 4.5744 -0.226429 0
M  V30 2609 N 244.951 4.62875 -0.173469 0
M  V30 2610 C 245.686 5.72454 -0.329288 0
M  V30 2611 N 245.182 6.90669 -0.543005 0
M  V30 2612 N 246.975 5.61467 -0.266666 0
M  V30 2613 H 239.126 1.82345 -1.08922 0
M  V30 2614 H 241.389 0.844149 -0.431413 0
M  V30 2615 H 241.095 3.3563 -1.05096 0
M  V30 2616 H 240.969 3.71337 0.66246 0
M  V30 2617 H 243.356 2.77857 0.993966 0
M  V30 2618 H 243.437 2.4479 -0.742388 0
M  V30 2619 H 243.081 4.93287 -1.20956 0
M  V30 2620 H 243.011 5.2378 0.544274 0
M  V30 2621 H 245.502 3.77898 -0.0130709 0
M  V30 2622 H 245.815 7.70045 -0.651922 0
M  V30 2623 H 244.16 6.92581 -0.579366 0
M  V30 2624 H 247.351 4.67992 -0.100441 0
M  V30 2625 H 247.524 6.46816 -0.391535 0
M  V30 2626 N 240.93 -0.123565 1.57115 0
M  V30 2627 C 242.179 -0.830704 1.83799 0
M  V30 2628 C 242.492 -1.81259 0.735158 0
M  V30 2629 O 243.698 -2.56558 0.888278 0
M  V30 2630 C 242.154 -1.52802 3.25852 0
M  V30 2631 C 241.762 -0.587356 4.44133 0
M  V30 2632 C 243.506 -2.22056 3.61789 0
M  V30 2633 C 241.413 -1.28764 5.77212 0
M  V30 2634 H 240.343 -0.313967 0.685522 0
M  V30 2635 H 242.994 -0.0834359 1.8331 0
M  V30 2636 H 241.376 -2.32175 3.20797 0
M  V30 2637 H 242.55 0.172829 4.60476 0
M  V30 2638 H 240.865 -0.00201892 4.164 0
M  V30 2639 H 243.462 -2.75131 4.58483 0
M  V30 2640 H 243.805 -2.99644 2.88997 0
M  V30 2641 H 244.338 -1.49576 3.68608 0
M  V30 2642 H 241.077 -0.55314 6.53162 0
M  V30 2643 H 240.597 -2.01995 5.64764 0
M  V30 2644 H 242.276 -1.8221 6.20813 0
M  V30 2645 N 242.408 -1.52605 -0.393616 0
M  V30 2646 C 243.657 -1.66649 -1.13627 0
M  V30 2647 C 243.97 -0.410364 -1.91247 0
M  V30 2648 O 245.176 -0.430854 -2.68059 0
M  V30 2649 C 243.632 -2.9449 -2.06891 0
M  V30 2650 C 243.24 -4.27266 -1.34714 0
M  V30 2651 C 244.984 -3.17899 -2.81319 0
M  V30 2652 C 242.891 -5.46217 -2.26717 0
M  V30 2653 H 241.821 -0.62084 -0.427871 0
M  V30 2654 H 244.472 -1.791 -0.399428 0
M  V30 2655 H 242.854 -2.75774 -2.84191 0
M  V30 2656 H 244.028 -4.56518 -0.626714 0
M  V30 2657 H 242.343 -4.10081 -0.722643 0
M  V30 2658 H 244.94 -4.03949 -3.50328 0
M  V30 2659 H 245.283 -2.32777 -3.45139 0
M  V30 2660 H 245.816 -3.37159 -2.11113 0
M  V30 2661 H 242.555 -6.33733 -1.67521 0
M  V30 2662 H 242.075 -5.21283 -2.96689 0
M  V30 2663 H 243.754 -5.7991 -2.86903 0
M  V30 2664 N 243.887 0.651787 -1.4349 0
M  V30 2665 C 244.85 1.74647 -1.48429 0
M  V30 2666 C 245.85 1.56513 -0.368817 0
M  V30 2667 O 247.04 1.62385 -0.630623 0
M  V30 2668 C 244.172 3.13533 -1.33827 0
M  V30 2669 H 245.365 1.71649 -2.4592 0
M  V30 2670 H 242.918 0.863573 -1.30277 0
M  V30 2671 H 243.653 3.22142 -0.37349 0
M  V30 2672 H 243.438 3.28101 -2.14691 0
M  V30 2673 H 244.928 3.93356 -1.40218 0
M  V30 2674 N 245.365 1.30045 0.890287 0
M  V30 2675 C 246.614 1.17929 1.63633 0
M  V30 2676 C 246.927 -0.266204 1.9378 0
M  V30 2677 O 248.133 -0.508804 2.6669 0
M  V30 2678 C 246.589 2.06317 2.94892 0
M  V30 2679 C 246.197 3.55745 2.72305 0
M  V30 2680 C 247.941 2.0295 3.72843 0
M  V30 2681 C 245.848 4.36205 3.99348 0
M  V30 2682 H 244.778 0.437782 0.613892 0
M  V30 2683 H 247.429 1.54754 0.986075 0
M  V30 2684 H 245.811 1.6237 3.61182 0
M  V30 2685 H 246.985 4.07805 2.1455 0
M  V30 2686 H 245.3 3.6088 2.07737 0
M  V30 2687 H 247.897 2.60319 4.67053 0
M  V30 2688 H 248.24 1.0117 4.0382 0
M  V30 2689 H 248.773 2.4499 3.13408 0
M  V30 2690 H 245.512 5.38659 3.73533 0
M  V30 2691 H 245.032 3.8891 4.56628 0
M  V30 2692 H 246.711 4.47362 4.67415 0
M  V30 2693 N 246.843 -1.10192 1.12674 0
M  V30 2694 C 248.089 -1.82475 0.884915 0
M  V30 2695 C 248.422 -1.85093 -0.58773 0
M  V30 2696 O 247.697 -1.3134 -1.43457 0
M  V30 2697 C 247.98 -3.29018 1.46353 0
M  V30 2698 C 247.833 -3.34718 3.00473 0
M  V30 2699 C 249.152 -4.25473 1.12519 0
M  V30 2700 H 246.271 -0.662492 0.322915 0
M  V30 2701 H 248.913 -1.2913 1.39375 0
M  V30 2702 H 247.063 -3.74576 1.03077 0
M  V30 2703 H 248.735 -2.97622 3.52447 0
M  V30 2704 H 246.978 -2.74541 3.35872 0
M  V30 2705 H 247.649 -4.37918 3.36053 0
M  V30 2706 H 250.125 -3.88161 1.499 0
M  V30 2707 H 249.001 -5.26365 1.55663 0
M  V30 2708 H 249.262 -4.42084 0.0377407 0
M  V30 2709 N 248.321 -0.919034 -1.28029 0
M  V30 2710 C 249.546 -0.570357 -1.99403 0
M  V30 2711 C 249.971 0.842486 -1.68178 0
M  V30 2712 O 249.329 1.56391 -0.917141 0
M  V30 2713 C 249.377 -0.792541 -3.51783 0
M  V30 2714 O 248.481 0.145988 -4.12142 0
M  V30 2715 H 247.822 -0.220555 -0.6263 0
M  V30 2716 H 250.352 -1.23592 -1.63053 0
M  V30 2717 H 250.362 -0.704708 -4.01868 0
M  V30 2718 H 249.037 -1.82247 -3.73844 0
M  V30 2719 H 247.614 0.00897528 -3.72899 0
M  V30 2720 N 249.799 1.42003 -0.683588 0
M  V30 2721 C 251.045 2.01712 -0.209825 0
M  V30 2722 C 251.378 1.53968 1.18353 0
M  V30 2723 O 250.653 0.745661 1.79639 0
M  V30 2724 C 250.936 3.59202 -0.254197 0
M  V30 2725 C 250.789 4.17102 -1.68363 0
M  V30 2726 C 252.108 4.38344 0.392709 0
M  V30 2727 H 249.227 0.732891 -0.0777189 0
M  V30 2728 H 251.869 1.68909 -0.87004 0
M  V30 2729 H 250.019 3.87278 0.307954 0
M  V30 2730 H 251.691 3.99946 -2.29871 0
M  V30 2731 H 249.934 3.72597 -2.22157 0
M  V30 2732 H 250.605 5.26249 -1.6663 0
M  V30 2733 H 253.081 4.16011 -0.0859162 0
M  V30 2734 H 251.957 5.47901 0.331063 0
M  V30 2735 H 252.218 4.16887 1.47164 0
M  V30 2736 N 251.277 0.427512 1.51691 0
M  V30 2737 C 252.21 -0.433876 2.24037 0
M  V30 2738 C 253.188 -1.03287 1.25581 0
M  V30 2739 O 254.372 -1.07722 1.54688 0
M  V30 2740 C 251.499 -1.60385 2.98319 0
M  V30 2741 C 250.545 -1.12648 4.11355 0
M  V30 2742 S 251.378 -0.076543 5.35445 0
M  V30 2743 C 252.534 -1.25141 6.13262 0
M  V30 2744 H 252.767 0.180367 2.96752 0
M  V30 2745 H 250.3 0.211946 1.52938 0
M  V30 2746 H 252.258 -2.27462 3.41718 0
M  V30 2747 H 250.919 -2.18948 2.25213 0
M  V30 2748 H 250.112 -2.0011 4.62571 0
M  V30 2749 H 249.714 -0.534088 3.70167 0
M  V30 2750 H 252.006 -2.17162 6.41753 0
M  V30 2751 H 252.949 -0.779411 7.03797 0
M  V30 2752 H 253.357 -1.48553 5.44603 0
M  V30 2753 N 252.755 -1.56801 0.158532 0
M  V30 2754 C 254.001 -1.96781 -0.490405 0
M  V30 2755 C 254.334 -1.04397 -1.63753 0
M  V30 2756 O 253.609 -0.0885805 -1.94298 0
M  V30 2757 C 253.892 -3.4635 -0.985594 0
M  V30 2758 C 253.745 -4.49512 0.160824 0
M  V30 2759 C 255.064 -3.98697 -1.86355 0
M  V30 2760 H 252.183 -0.715482 -0.176788 0
M  V30 2761 H 254.825 -1.88451 0.242088 0
M  V30 2762 H 252.975 -3.53579 -1.60978 0
M  V30 2763 H 254.647 -4.54353 0.797537 0
M  V30 2764 H 252.89 -4.26013 0.818256 0
M  V30 2765 H 253.561 -5.51531 -0.227569 0
M  V30 2766 H 256.037 -3.94019 -1.33746 0
M  V30 2767 H 254.913 -5.03792 -2.17909 0
M  V30 2768 H 255.174 -3.41744 -2.8047 0
M  V30 2769 N 254.233 0.115231 -1.57178 0
M  V30 2770 C 255.482 0.820945 -1.84237 0
M  V30 2771 C 255.795 1.80866 -0.744761 0
M  V30 2772 O 257.001 2.56083 -0.901871 0
M  V30 2773 C 255.457 1.51072 -3.26658 0
M  V30 2774 C 255.065 0.563795 -4.44438 0
M  V30 2775 C 256.809 2.20134 -3.62962 0
M  V30 2776 C 254.716 1.25701 -5.77887 0
M  V30 2777 H 253.646 0.310328 -0.687177 0
M  V30 2778 H 256.297 0.0737134 -1.83352 0
M  V30 2779 H 254.679 2.30471 -3.22024 0
M  V30 2780 H 255.853 -0.197247 -4.60378 0
M  V30 2781 H 254.168 -0.0200638 -4.16395 0
M  V30 2782 H 256.765 2.72696 -4.59936 0
M  V30 2783 H 257.108 2.98107 -2.90582 0
M  V30 2784 H 257.641 1.47619 -3.69396 0
M  V30 2785 H 254.38 0.518493 -6.53446 0
M  V30 2786 H 253.9 1.98997 -5.65827 0
M  V30 2787 H 255.579 1.78915 -6.2177 0
M  V30 2788 N 255.711 1.52812 0.385517 0
M  V30 2789 C 256.641 1.80808 1.47752 0
M  V30 2790 C 257.622 0.660318 1.5676 0
M  V30 2791 O 258.807 0.908246 1.71652 0
M  V30 2792 C 255.937 1.98008 2.85324 0
M  V30 2793 C 254.891 3.13709 2.91154 0
M  V30 2794 C 254.217 3.16169 4.31209 0
M  V30 2795 C 255.517 4.52709 2.60483 0
M  V30 2796 H 257.211 2.72253 1.24573 0
M  V30 2797 H 254.757 1.31003 0.597839 0
M  V30 2798 H 256.71 2.16176 3.61726 0
M  V30 2799 H 255.434 1.03255 3.09848 0
M  V30 2800 H 254.093 2.95329 2.17201 0
M  V30 2801 H 253.741 2.19092 4.52778 0
M  V30 2802 H 253.441 3.93894 4.36029 0
M  V30 2803 H 254.965 3.36496 5.09512 0
M  V30 2804 H 256.379 4.71173 3.26602 0
M  V30 2805 H 254.776 5.32528 2.76648 0
M  V30 2806 H 255.846 4.59186 1.55809 0
M  V30 2807 N 257.189 -0.644168 1.43834 0
M  V30 2808 C 258.438 -1.39985 1.45214 0
M  V30 2809 C 258.751 -1.95421 0.0835494 0
M  V30 2810 O 259.957 -2.71488 -0.0251748 0
M  V30 2811 C 258.413 -2.53384 2.55587 0
M  V30 2812 C 258.021 -2.04517 3.98594 0
M  V30 2813 C 259.765 -3.30685 2.66172 0
M  V30 2814 C 257.672 -3.1518 5.00416 0
M  V30 2815 H 256.602 -0.526005 0.540218 0
M  V30 2816 H 259.253 -0.694367 1.69855 0
M  V30 2817 H 257.635 -3.26446 2.24163 0
M  V30 2818 H 258.809 -1.38405 4.39523 0
M  V30 2819 H 257.124 -1.40068 3.92135 0
M  V30 2820 H 259.721 -4.13158 3.39418 0
M  V30 2821 H 260.064 -3.79312 1.71546 0
M  V30 2822 H 260.597 -2.64708 2.96942 0
M  V30 2823 H 257.336 -2.71511 5.96625 0
M  V30 2824 H 256.856 -3.79974 4.64091 0
M  V30 2825 H 258.535 -3.80166 5.23529 0
M  V30 2826 N 258.668 -1.30515 -0.883378 0
M  V30 2827 C 259.893 -1.22487 -1.67367 0
M  V30 2828 C 260.318 0.208767 -1.86938 0
M  V30 2829 O 259.676 1.15015 -1.40148 0
M  V30 2830 C 259.724 -1.96041 -3.02655 0
M  V30 2831 O 258.828 -1.28859 -3.91751 0
M  V30 2832 H 258.169 -0.423573 -0.511353 0
M  V30 2833 H 260.699 -1.72362 -1.10239 0
M  V30 2834 H 260.709 -2.05124 -3.52687 0
M  V30 2835 H 259.384 -3.00307 -2.8773 0
M  V30 2836 H 257.961 -1.28141 -3.50192 0
M  V30 2837 N 260.146 1.09593 -1.13257 0
M  V30 2838 C 261.395 1.81105 -0.887917 0
M  V30 2839 C 261.708 1.86563 0.587672 0
M  V30 2840 O 262.914 2.54367 0.949204 0
M  V30 2841 C 261.37 3.25338 -1.53895 0
M  V30 2842 C 260.978 3.28151 -3.04994 0
M  V30 2843 C 262.722 4.01617 -1.37492 0
M  V30 2844 C 260.629 4.66897 -3.6299 0
M  V30 2845 H 259.559 0.678661 -0.328534 0
M  V30 2846 H 262.21 1.23183 -1.36008 0
M  V30 2847 H 260.592 3.8331 -0.994446 0
M  V30 2848 H 261.766 2.79953 -3.66009 0
M  V30 2849 H 260.081 2.65361 -3.20893 0
M  V30 2850 H 262.678 5.04119 -1.78235 0
M  V30 2851 H 263.021 4.15072 -0.31957 0
M  V30 2852 H 263.554 3.50082 -1.88912 0
M  V30 2853 H 260.293 4.58643 -4.68323 0
M  V30 2854 H 259.813 5.15426 -3.06752 0
M  V30 2855 H 261.492 5.3587 -3.62563 0
M  V30 2856 N 261.624 0.925811 1.2754 0
M  V30 2857 C 262.87 0.566092 1.94739 0
M  V30 2858 C 263.203 -0.890057 1.72603 0
M  V30 2859 O 262.478 -1.63467 1.05399 0
M  V30 2860 C 262.761 0.89054 3.48915 0
M  V30 2861 C 262.614 2.4003 3.80402 0
M  V30 2862 C 263.933 0.395101 4.38323 0
M  V30 2863 H 261.052 0.20714 0.707292 0
M  V30 2864 H 263.694 1.15725 1.50691 0
M  V30 2865 H 261.844 0.387452 3.86563 0
M  V30 2866 H 263.516 2.97494 3.52555 0
M  V30 2867 H 261.759 2.85028 3.2702 0
M  V30 2868 H 262.43 2.57785 4.8811 0
M  V30 2869 H 264.906 0.826241 4.07814 0
M  V30 2870 H 263.782 0.651086 5.45025 0
M  V30 2871 H 264.043 -0.704798 4.36446 0
M  V30 2872 N 263.102 -1.41638 0.69111 0
M  V30 2873 C 264.327 -2.06148 0.227583 0
M  V30 2874 C 264.752 -1.51652 -1.11281 0
M  V30 2875 O 264.11 -0.64164 -1.69566 0
M  V30 2876 C 264.158 -3.60095 0.190858 0
M  V30 2877 O 263.262 -4.03845 -0.835664 0
M  V30 2878 H 262.603 -0.654434 0.112306 0
M  V30 2879 H 265.133 -1.81484 0.944714 0
M  V30 2880 H 265.143 -4.07995 0.020207 0
M  V30 2881 H 263.818 -3.99129 1.16915 0
M  V30 2882 H 262.395 -3.67458 -0.63473 0
M  V30 2883 N 264.58 -0.43555 -1.51462 0
M  V30 2884 C 265.827 0.131514 -2.02072 0
M  V30 2885 C 266.155 1.42868 -1.31981 0
M  V30 2886 O 265.41 1.91076 -0.422883 0
M  V30 2887 C 265.709 0.39942 -3.55161 0
M  V30 2888 C 265.375 -0.81172 -4.43533 0
M  V30 2889 C 264.037 -1.14387 -4.67407 0
M  V30 2890 C 266.389 -1.61976 -4.95392 0
M  V30 2891 C 263.717 -2.28477 -5.40384 0
M  V30 2892 C 266.069 -2.75164 -5.6962 0
M  V30 2893 C 264.733 -3.08835 -5.91758 0
M  V30 2894 H 264.003 0.0481244 -0.739436 0
M  V30 2895 H 266.65 -0.58238 -1.8243 0
M  V30 2896 H 264.955 1.19519 -3.73125 0
M  V30 2897 H 266.652 0.85157 -3.91854 0
M  V30 2898 H 263.242 -0.542898 -4.25148 0
M  V30 2899 H 267.426 -1.37637 -4.76833 0
M  V30 2900 H 262.682 -2.5488 -5.55739 0
M  V30 2901 H 266.856 -3.38147 -6.08793 0
M  V30 2902 H 264.483 -3.97353 -6.48086 0
M  V30 2903 N 266.058 1.56714 -0.166846 0
M  V30 2904 C 267.298 1.98641 0.481763 0
M  V30 2905 C 267.662 1.05038 1.6072 0
M  V30 2906 O 268.863 1.36087 2.31805 0
M  V30 2907 C 267.134 3.44362 0.956517 0
M  V30 2908 S 268.693 4.08317 1.60694 0
M  V30 2909 H 265.511 0.693873 0.155116 0
M  V30 2910 H 268.113 1.93719 -0.263251 0
M  V30 2911 H 266.817 4.10204 0.126936 0
M  V30 2912 H 266.348 3.53041 1.73568 0
M  V30 2913 H 268.363 4.02999 2.89494 0
M  V30 2914 N 267.536 -0.106894 1.57237 0
M  V30 2915 C 268.466 -1.13148 2.04254 0
M  V30 2916 C 269.447 -1.42476 0.929224 0
M  V30 2917 O 270.632 -1.52709 1.19973 0
M  V30 2918 C 267.762 -2.4545 2.45706 0
M  V30 2919 C 266.716 -2.30558 3.60592 0
M  V30 2920 C 266.042 -3.67931 3.87983 0
M  V30 2921 C 267.342 -1.75597 4.91897 0
M  V30 2922 H 269.036 -0.740374 2.90101 0
M  V30 2923 H 266.582 -0.354696 1.39563 0
M  V30 2924 H 268.535 -3.17389 2.77205 0
M  V30 2925 H 267.259 -2.86475 1.56843 0
M  V30 2926 H 265.918 -1.61067 3.29322 0
M  V30 2927 H 265.566 -4.06462 2.96306 0
M  V30 2928 H 265.266 -3.58817 4.65322 0
M  V30 2929 H 266.79 -4.41356 4.21945 0
M  V30 2930 H 268.204 -2.37364 5.21854 0
M  V30 2931 H 266.601 -1.77272 5.73319 0
M  V30 2932 H 267.671 -0.714451 4.79608 0
M  V30 2933 N 269.014 -1.53014 -0.377408 0
M  V30 2934 C 269.924 -1.81557 -1.48574 0
M  V30 2935 C 270.94 -0.703102 -1.59162 0
M  V30 2936 O 272.116 -0.99192 -1.75279 0
M  V30 2937 C 269.181 -1.9889 -2.83978 0
M  V30 2938 C 268.242 -3.22801 -2.83016 0
M  V30 2939 C 267.475 -3.39298 -4.11962 0
M  V30 2940 O 267.698 -2.60345 -5.0752 0
M  V30 2941 O 266.632 -4.32604 -4.18494 0
M  V30 2942 H 270.458 -2.75695 -1.27382 0
M  V30 2943 H 268.043 -1.38248 -0.566373 0
M  V30 2944 H 269.925 -2.11931 -3.6423 0
M  V30 2945 H 268.6 -1.07942 -3.05172 0
M  V30 2946 H 267.507 -3.15193 -2.01505 0
M  V30 2947 H 268.84 -4.13632 -2.66775 0
M  V30 2948 N 270.492 0.636531 -1.44174 0
M  V30 2949 C 271.72 1.42353 -1.50144 0
M  V30 2950 C 272.135 1.88389 -0.124575 0
M  V30 2951 O 271.492 1.6051 0.868489 0
M  V30 2952 C 271.543 2.64744 -2.46156 0
M  V30 2953 O 271.264 2.20629 -3.7849 0
M  V30 2954 C 272.765 3.57929 -2.61537 0
M  V30 2955 H 269.985 0.436752 -0.5094 0
M  V30 2956 H 272.529 0.778933 -1.89084 0
M  V30 2957 H 270.684 3.25307 -2.10366 0
M  V30 2958 H 271.098 2.99938 -4.30276 0
M  V30 2959 H 272.572 4.40428 -3.32757 0
M  V30 2960 H 273.049 4.06382 -1.66585 0
M  V30 2961 H 273.655 3.03238 -2.98206 0
M  V30 2962 N 271.97 1.30982 0.876444 0
M  V30 2963 C 272.9 1.20668 1.99903 0
M  V30 2964 C 273.881 0.095354 1.69833 0
M  V30 2965 O 275.066 0.27885 1.92188 0
M  V30 2966 C 272.196 0.90655 3.3526 0
M  V30 2967 C 271.15 1.97675 3.79617 0
M  V30 2968 C 270.476 1.52943 5.1236 0
M  V30 2969 C 271.776 3.389 3.97422 0
M  V30 2970 H 273.47 2.14586 2.0879 0
M  V30 2971 H 271.016 1.03308 1.00317 0
M  V30 2972 H 272.969 0.821025 4.13324 0
M  V30 2973 H 271.693 -0.0682969 3.26529 0
M  V30 2974 H 270.352 2.05205 3.03787 0
M  V30 2975 H 270 0.54262 5.00065 0
M  V30 2976 H 269.7 2.24532 5.43009 0
M  V30 2977 H 271.224 1.45786 5.92941 0
M  V30 2978 H 272.638 3.34081 4.659 0
M  V30 2979 H 271.035 4.0865 4.3946 0
M  V30 2980 H 272.105 3.80163 3.01006 0
M  V30 2981 N 273.449 -1.08991 1.13837 0
M  V30 2982 C 274.86 -1.62746 0.914917 0
M  V30 2983 C 275.211 -1.88403 -0.547594 0
M  V30 2984 O 274.336 -1.63706 -1.41525 0
M  V30 2985 C 274.931 -2.95662 1.65437 0
M  V30 2986 C 273.49 -3.46225 1.47666 0
M  V30 2987 C 272.637 -2.20562 1.6807 0
M  V30 2988 H 275.588 -0.922946 1.29102 0
M  V30 2989 H 275.609 -3.63825 1.11407 0
M  V30 2990 H 275.121 -2.76956 2.71877 0
M  V30 2991 H 273.222 -3.70046 0.435478 0
M  V30 2992 H 273.335 -4.23368 2.24268 0
M  V30 2993 H 271.699 -2.29439 1.10589 0
M  V30 2994 H 272.482 -2.0437 2.7584 0
M  V30 2995 N 274.927 -0.932562 -1.27047 0
M  V30 2996 C 276.176 -0.571351 -1.93439 0
M  V30 2997 C 276.489 0.892467 -1.74053 0
M  V30 2998 O 277.695 1.36267 -2.34826 0
M  V30 2999 C 276.151 -0.97106 -3.46552 0
M  V30 3000 C 275.759 -2.4559 -3.74686 0
M  V30 3001 C 277.503 -0.681333 -4.18997 0
M  V30 3002 C 275.41 -2.79475 -5.21198 0
M  V30 3003 H 274.34 -0.209966 -0.724176 0
M  V30 3004 H 276.991 -1.13403 -1.44263 0
M  V30 3005 H 275.373 -0.336983 -3.94564 0
M  V30 3006 H 276.547 -3.13829 -3.37414 0
M  V30 3007 H 274.862 -2.71802 -3.15456 0
M  V30 3008 H 277.459 -0.910939 -5.26883 0
M  V30 3009 H 277.802 0.381628 -4.14547 0
M  V30 3010 H 278.335 -1.27473 -3.76823 0
M  V30 3011 H 275.074 -3.847 -5.30741 0
M  V30 3012 H 274.594 -2.1589 -5.596 0
M  V30 3013 H 276.273 -2.67478 -5.89122 0
M  V30 3014 N 276.405 1.4127 -0.698611 0
M  V30 3015 C 277.652 2.0118 -0.230865 0
M  V30 3016 C 277.98 1.55338 1.17049 0
M  V30 3017 O 277.235 0.756775 1.80475 0
M  V30 3018 C 277.534 3.56592 -0.240192 0
M  V30 3019 C 277.2 4.21955 -1.58948 0
M  V30 3020 C 275.862 4.39524 -1.95887 0
M  V30 3021 C 278.214 4.58576 -2.47704 0
M  V30 3022 C 275.542 4.90992 -3.2116 0
M  V30 3023 C 277.894 5.11435 -3.72313 0
M  V30 3024 C 276.558 5.27215 -4.0939 0
M  V30 3025 H 275.828 0.736169 -0.0844796 0
M  V30 3026 H 278.475 1.69124 -0.8983 0
M  V30 3027 H 276.78 3.88456 0.510797 0
M  V30 3028 H 278.477 4.00758 0.139296 0
M  V30 3029 H 275.067 4.08657 -1.29219 0
M  V30 3030 H 279.251 4.44654 -2.20445 0
M  V30 3031 H 274.507 5.01393 -3.49878 0
M  V30 3032 H 278.681 5.38752 -4.4127 0
M  V30 3033 H 276.308 5.66859 -5.06533 0
M  V30 3034 N 277.883 0.443576 1.51229 0
M  V30 3035 C 279.299 0.0962001 1.5931 0
M  V30 3036 C 279.499 -1.39501 1.45402 0
M  V30 3037 O 278.555 -2.16557 1.29843 0
M  V30 3038 C 279.868 0.621875 2.94199 0
M  V30 3039 C 281.416 0.582865 3.07525 0
M  V30 3040 C 281.891 1.08562 4.44948 0
M  V30 3041 N 283.382 1.04387 4.51284 0
M  V30 3042 C 284.117 1.40368 5.55954 0
M  V30 3043 N 283.613 1.83664 6.68011 0
M  V30 3044 N 285.406 1.32145 5.46346 0
M  V30 3045 H 277.557 1.41376 1.58514 0
M  V30 3046 H 279.82 0.582965 0.747567 0
M  V30 3047 H 279.526 1.66546 3.09767 0
M  V30 3048 H 279.4 0.0502125 3.77167 0
M  V30 3049 H 281.787 -0.451749 2.91622 0
M  V30 3050 H 281.868 1.191 2.26382 0
M  V30 3051 H 281.512 2.11873 4.61598 0
M  V30 3052 H 281.442 0.453956 5.2464 0
M  V30 3053 H 283.933 0.725986 3.70861 0
M  V30 3054 H 284.246 2.0934 7.43906 0
M  V30 3055 H 282.591 1.87596 6.69203 0
M  V30 3056 H 285.782 0.981808 4.57688 0
M  V30 3057 H 285.955 1.60514 6.27805 0
M  V30 3058 N 279.361 -1.56624 0.175154 0
M  V30 3059 C 280.638 -1.88688 -0.515373 0
M  V30 3060 C 281.018 -1.08564 -1.81044 0
M  V30 3061 O 280.366 -0.180703 -2.27784 0
M  V30 3062 C 280.576 -3.40768 -0.753552 0
M  V30 3063 C 281.924 -4.10587 -1.08184 0
M  V30 3064 O 282.948 -3.46106 -0.841961 0
M  V30 3065 O 281.807 -5.24512 -1.53459 0
M  V30 3066 H 278.901 -0.78301 -0.26613 0
M  V30 3067 H 281.447 -1.68347 0.213877 0
M  V30 3068 H 280.219 -3.90965 0.161829 0
M  V30 3069 H 279.842 -3.66733 -1.53598 0
M  V30 3070 N 280.839 0.0985539 -1.57292 0
M  V30 3071 C 281.749 1.13824 -2.05137 0
M  V30 3072 C 282.765 1.44076 -0.975604 0
M  V30 3073 O 283.941 1.54786 -1.28853 0
M  V30 3074 C 281.006 2.43969 -2.46333 0
M  V30 3075 C 280.067 2.2093 -3.68087 0
M  V30 3076 C 279.3 3.44869 -4.0731 0
M  V30 3077 O 279.523 4.52972 -3.46659 0
M  V30 3078 O 278.457 3.34661 -5.00285 0
M  V30 3079 H 282.283 0.761881 -2.93988 0
M  V30 3080 H 279.868 0.310818 -1.46131 0
M  V30 3081 H 281.75 3.20609 -2.73473 0
M  V30 3082 H 280.425 2.81038 -1.60621 0
M  V30 3083 H 279.332 1.42081 -3.46069 0
M  V30 3084 H 280.665 1.88755 -4.54568 0
M  V30 3085 N 282.317 1.53212 0.369288 0
M  V30 3086 C 283.265 1.80054 1.47253 0
M  V30 3087 C 284.259 0.669456 1.55611 0
M  V30 3088 O 285.465 0.852328 1.58541 0
M  V30 3089 H 281.84 0.570034 0.490475 0
M  V30 3090 H 283.811 2.72403 1.21817 0
M  V30 3091 C 282.56 2.00403 2.84137 0
M  V30 3092 H 281.883 2.86876 2.78464 0
M  V30 3093 H 283.323 2.23164 3.60519 0
M  V30 3094 C 281.782 0.782081 3.27697 0
M  V30 3095 O 282.312 -0.0310205 4.01688 0
M  V30 3096 N 280.518 0.606573 2.84199 0
M  V30 3097 H 280.065 1.26939 2.24152 0
M  V30 3098 H 280.023 -0.20962 3.137 0
M  V30 3099 N 283.795 -0.628877 1.44509 0
M  V30 3100 C 284.705 -1.7694 1.54044 0
M  V30 3101 C 285.721 -1.68705 0.425987 0
M  V30 3102 O 286.897 -1.89442 0.683656 0
M  V30 3103 C 283.962 -3.13332 1.48405 0
M  V30 3104 C 283.023 -3.33181 2.70719 0
M  V30 3105 C 282.256 -4.63067 2.6534 0
M  V30 3106 O 282.479 -5.44017 1.71469 0
M  V30 3107 O 281.413 -4.85167 3.56226 0
M  V30 3108 H 285.239 -1.71848 2.50403 0
M  V30 3109 H 282.824 -0.790378 1.26781 0
M  V30 3110 H 284.706 -3.94634 1.47791 0
M  V30 3111 H 283.381 -3.1896 0.551898 0
M  V30 3112 H 282.288 -2.51549 2.769 0
M  V30 3113 H 283.621 -3.32416 3.62988 0
M  V30 3114 N 285.273 -1.31445 -0.869486 0
M  V30 3115 C 286.55 -1.11795 -1.60503 0
M  V30 3116 C 286.93 0.327168 -2.08549 0
M  V30 3117 O 286.278 1.32135 -1.8642 0
M  V30 3118 C 286.488 -2.13258 -2.76265 0
M  V30 3119 C 287.836 -2.45805 -3.46215 0
M  V30 3120 O 288.86 -2.11688 -2.86473 0
M  V30 3121 O 287.719 -3.04228 -4.5399 0
M  V30 3122 H 284.813 -0.430421 -0.706163 0
M  V30 3123 H 287.359 -1.42925 -0.914907 0
M  V30 3124 H 286.131 -3.10461 -2.3818 0
M  V30 3125 H 285.754 -1.83035 -3.52964 0
M  V30 3126 N 286.751 1.08385 -1.14413 0
M  V30 3127 C 287.684 2.14642 -0.774871 0
M  V30 3128 C 288.662 1.60761 0.243876 0
M  V30 3129 O 289.846 1.88031 0.132883 0
M  V30 3130 C 286.973 3.38366 -0.150491 0
M  V30 3131 C 286.019 4.10997 -1.13945 0
M  V30 3132 S 286.852 4.63797 -2.67679 0
M  V30 3133 C 288.008 5.90808 -2.06631 0
M  V30 3134 H 288.241 2.45633 -1.67487 0
M  V30 3135 H 285.774 1.20498 -0.96538 0
M  V30 3136 H 287.732 4.09996 0.203334 0
M  V30 3137 H 286.393 3.05572 0.72694 0
M  V30 3138 H 285.586 4.99783 -0.65059 0
M  V30 3139 H 285.188 3.4528 -1.43727 0
M  V30 3140 H 287.48 6.62411 -1.4219 0
M  V30 3141 H 288.423 6.4439 -2.93542 0
M  V30 3142 H 288.831 5.4383 -1.51357 0
M  V30 3143 N 288.23 0.939286 1.26551 0
M  V30 3144 C 289.18 0.418284 2.2413 0
M  V30 3145 C 290.164 -0.483935 1.5345 0
M  V30 3146 O 291.356 -0.319489 1.74093 0
M  V30 3147 C 288.485 -0.31709 3.41832 0
M  V30 3148 C 287.571 0.602311 4.19801 0
M  V30 3149 N 287.962 1.72726 4.75394 0
M  V30 3150 C 286.26 0.407534 4.44134 0
M  V30 3151 C 286.961 2.30004 5.34297 0
M  V30 3152 N 285.937 1.58828 5.1988 0
M  V30 3153 H 289.739 1.27705 2.64705 0
M  V30 3154 H 287.253 0.794929 1.41614 0
M  V30 3155 H 289.25 -0.707364 4.10855 0
M  V30 3156 H 287.91 -1.17264 3.02786 0
M  V30 3157 H 288.921 2.10944 4.72994 0
M  V30 3158 H 285.598 -0.406406 4.15517 0
M  V30 3159 H 286.988 3.24778 5.88191 0
M  V30 3160 N 289.708 -1.40897 0.706093 0
M  V30 3161 C 290.956 -2.00657 0.241054 0
M  V30 3162 C 291.277 -1.56241 -1.16678 0
M  V30 3163 O 290.547 -0.79765 -1.78926 0
M  V30 3164 H 289.127 -0.742018 0.0861308 0
M  V30 3165 H 291.789 -1.72372 0.909604 0
M  V30 3166 H 290.885 -3.10958 0.266705 0
M  V30 3167 N 291.186 -0.45159 -1.50991 0
M  V30 3168 C 292.411 0.110667 -2.07105 0
M  V30 3169 C 292.836 1.3446 -1.31538 0
M  V30 3170 O 292.194 1.77743 -0.357365 0
M  V30 3171 C 292.242 0.397238 -3.58405 0
M  V30 3172 O 291.346 1.48124 -3.84881 0
M  V30 3173 H 290.687 -0.00439271 -0.663985 0
M  V30 3174 H 293.217 -0.637026 -1.9443 0
M  V30 3175 H 293.227 0.64351 -4.02893 0
M  V30 3176 H 291.902 -0.504553 -4.12828 0
M  V30 3177 H 290.479 1.22381 -3.52246 0
M  V30 3178 N 292.664 1.56529 -0.183458 0
M  V30 3179 C 293.912 1.96855 0.457452 0
M  V30 3180 C 294.233 1.07104 1.62953 0
M  V30 3181 O 293.503 0.139887 1.954 0
M  V30 3182 H 292.083 0.72693 0.171992 0
M  V30 3183 H 294.745 1.93056 -0.267476 0
M  V30 3184 H 293.841 3.01423 0.809368 0
M  V30 3185 N 294.142 -0.090211 1.57342 0
M  V30 3186 C 295.388 -0.793982 1.86611 0
M  V30 3187 C 295.721 -1.78142 0.773252 0
M  V30 3188 O 294.996 -1.93271 -0.218304 0
M  V30 3189 C 295.279 -1.51839 3.26523 0
M  V30 3190 C 295.132 -0.548609 4.46442 0
M  V30 3191 C 296.451 -2.46779 3.64401 0
M  V30 3192 H 293.57 -0.287186 0.678744 0
M  V30 3193 H 296.212 -0.0575076 1.89913 0
M  V30 3194 H 294.362 -2.14617 3.23839 0
M  V30 3195 H 296.034 0.0725513 4.61243 0
M  V30 3196 H 294.277 0.137614 4.33582 0
M  V30 3197 H 294.948 -1.09271 5.41076 0
M  V30 3198 H 297.424 -1.94089 3.68061 0
M  V30 3199 H 296.3 -2.94479 4.63221 0
M  V30 3200 H 296.561 -3.30758 2.93346 0
M  V30 3201 N 295.62 -1.53406 -0.361157 0
M  V30 3202 C 296.848 -1.73717 -1.12383 0
M  V30 3203 C 297.263 -0.468161 -1.82904 0
M  V30 3204 O 296.62 0.559198 -1.73722 0
M  V30 3205 C 296.671 -2.90558 -2.15078 0
M  V30 3206 O 296.392 -4.12549 -1.47428 0
M  V30 3207 C 297.893 -3.22777 -3.03858 0
M  V30 3208 H 295.113 -0.580896 -0.335858 0
M  V30 3209 H 297.657 -2.00167 -0.418728 0
M  V30 3210 H 295.812 -2.66489 -2.8118 0
M  V30 3211 H 296.226 -4.78009 -2.15887 0
M  V30 3212 H 297.7 -4.07927 -3.71887 0
M  V30 3213 H 298.177 -2.38329 -3.68912 0
M  V30 3214 H 298.783 -3.48787 -2.43367 0
M  V30 3215 N 297.098 0.621204 -1.44841 0
M  V30 3216 C 298.345 1.38055 -1.48145 0
M  V30 3217 C 298.673 1.94143 -0.117867 0
M  V30 3218 O 297.928 1.74713 0.881694 0
M  V30 3219 C 298.227 2.55675 -2.4973 0
M  V30 3220 C 297.893 2.17817 -3.94799 0
M  V30 3221 C 296.555 2.07205 -4.34303 0
M  V30 3222 C 298.907 1.88065 -4.86087 0
M  V30 3223 C 296.235 1.65045 -5.63007 0
M  V30 3224 C 298.587 1.47394 -6.15189 0
M  V30 3225 C 297.251 1.35331 -6.53637 0
M  V30 3226 H 296.521 0.505181 -0.542101 0
M  V30 3227 H 299.168 0.703477 -1.78111 0
M  V30 3228 H 297.473 3.2866 -2.13284 0
M  V30 3229 H 299.17 3.13904 -2.4953 0
M  V30 3230 H 295.76 2.26998 -3.63552 0
M  V30 3231 H 299.944 1.95168 -4.56315 0
M  V30 3232 H 295.2 1.54317 -5.91605 0
M  V30 3233 H 299.374 1.23415 -6.85377 0
M  V30 3234 H 297.001 1.02435 -7.53267 0
M  V30 3235 N 298.576 1.31904 0.862503 0
M  V30 3236 C 299.526 1.16772 1.95827 0
M  V30 3237 C 300.51 0.0767098 1.60717 0
M  V30 3238 O 301.702 0.302407 1.74398 0
M  V30 3239 C 298.831 0.884858 3.317 0
M  V30 3240 C 297.917 2.0172 3.73055 0
M  V30 3241 N 298.308 3.265 3.86305 0
M  V30 3242 C 296.606 1.91861 4.02623 0
M  V30 3243 C 297.307 4.00616 4.2176 0
M  V30 3244 N 296.283 3.28847 4.32852 0
M  V30 3245 H 300.085 2.11382 2.04193 0
M  V30 3246 H 297.599 1.2357 1.05377 0
M  V30 3247 H 299.596 0.757419 4.09962 0
M  V30 3248 H 298.256 -0.0529448 3.24657 0
M  V30 3249 H 299.267 3.61529 3.70833 0
M  V30 3250 H 295.944 1.05593 4.03926 0
M  V30 3251 H 297.334 5.08182 4.39546 0
M  V30 3252 N 300.054 -1.07777 1.14986 0
M  V30 3253 C 301.282 -1.84018 0.945773 0
M  V30 3254 C 301.697 -1.81897 -0.505863 0
M  V30 3255 O 301.054 -1.22726 -1.35072 0
M  V30 3256 C 301.105 -3.31287 1.44677 0
M  V30 3257 O 300.826 -3.33449 2.84154 0
M  V30 3258 C 302.327 -4.24311 1.28355 0
M  V30 3259 H 299.547 -0.580716 0.336169 0
M  V30 3260 H 302.091 -1.36077 1.52654 0
M  V30 3261 H 300.246 -3.76594 0.908625 0
M  V30 3262 H 300.66 -4.25427 3.06777 0
M  V30 3263 H 302.134 -5.2573 1.68261 0
M  V30 3264 H 302.611 -4.38612 0.227184 0
M  V30 3265 H 303.217 -3.84836 1.81056 0
M  V30 3266 N 301.532 -0.945985 -1.26051 0
M  V30 3267 C 302.762 -0.612136 -1.97323 0
M  V30 3268 C 303.17 0.818171 -1.70595 0
M  V30 3269 O 302.513 1.55777 -0.973613 0
M  V30 3270 C 302.575 -0.780347 -3.50929 0
M  V30 3271 C 302.239 -2.18619 -4.01317 0
M  V30 3272 C 303.236 -3.16209 -4.12683 0
M  V30 3273 C 300.921 -2.50805 -4.35203 0
M  V30 3274 C 302.915 -4.44085 -4.57238 0
M  V30 3275 C 300.602 -3.78912 -4.79446 0
M  V30 3276 C 301.6 -4.75365 -4.90425 0
M  V30 3277 O 301.288 -6.01191 -5.3369 0
M  V30 3278 H 301.02 -0.229134 -0.635982 0
M  V30 3279 H 303.574 -1.27036 -1.61404 0
M  V30 3280 H 301.804 -0.0649864 -3.86645 0
M  V30 3281 H 303.493 -0.448842 -4.03411 0
M  V30 3282 H 304.259 -2.92668 -3.86744 0
M  V30 3283 H 300.138 -1.76463 -4.2589 0
M  V30 3284 H 303.682 -5.19373 -4.65723 0
M  V30 3285 H 299.579 -4.02265 -5.0483 0
M  V30 3286 H 300.347 -6.04442 -5.51899 0
M  V30 3287 N 303.011 1.40521 -0.713556 0
M  V30 3288 C 304.236 2.05759 -0.26035 0
M  V30 3289 C 304.661 1.53403 1.08854 0
M  V30 3290 O 304.019 0.668535 1.68524 0
M  V30 3291 C 304.067 3.59745 -0.248122 0
M  V30 3292 O 303.171 4.05123 0.77131 0
M  V30 3293 H 302.512 0.652564 -0.122703 0
M  V30 3294 H 305.042 1.79958 -0.973467 0
M  V30 3295 H 305.052 4.07911 -0.0851129 0
M  V30 3296 H 303.727 3.97218 -1.2325 0
M  V30 3297 H 302.304 3.68422 0.57619 0
M  V30 3298 N 304.489 0.459591 1.5075 0
M  V30 3299 C 305.437 -0.354678 2.2988 0
M  V30 3300 C 306.431 -1.00086 1.36672 0
M  V30 3301 O 307.637 -0.933277 1.53915 0
M  V30 3302 H 304.012 -0.13321 0.740107 0
M  V30 3303 H 305.983 0.333269 2.96533 0
M  V30 3304 C 304.732 -1.43073 3.169 0
M  V30 3305 H 304.055 -0.942882 3.88523 0
M  V30 3306 H 305.495 -1.97328 3.75284 0
M  V30 3307 C 303.954 -2.42633 2.33732 0
M  V30 3308 O 304.484 -3.47658 2.01238 0
M  V30 3309 N 302.69 -2.14066 1.9653 0
M  V30 3310 H 302.237 -1.28685 2.23155 0
M  V30 3311 H 302.195 -2.80917 1.41185 0
M  V30 3312 N 305.967 -1.56429 0.191757 0
M  V30 3313 C 307.192 -2.02309 -0.456706 0
M  V30 3314 C 307.617 -1.07103 -1.5463 0
M  V30 3315 O 306.975 -0.0539677 -1.8122 0
M  V30 3316 C 307.023 -3.46654 -0.993159 0
M  V30 3317 O 306.127 -3.54559 -2.10622 0
M  V30 3318 H 305.468 -0.655303 -0.107114 0
M  V30 3319 H 307.998 -2.02364 0.301653 0
M  V30 3320 H 308.008 -3.86377 -1.31061 0
M  V30 3321 H 306.683 -4.1544 -0.195504 0
M  V30 3322 H 305.26 -3.26708 -1.79767 0
M  V30 3323 N 307.445 0.0818655 -1.57387 0
M  V30 3324 C 308.673 0.796108 -1.9097 0
M  V30 3325 C 309.088 1.71626 -0.786757 0
M  V30 3326 O 308.445 1.80908 0.240513 0
M  V30 3327 C 308.496 1.59829 -3.24248 0
M  V30 3328 O 308.217 0.715131 -4.32224 0
M  V30 3329 C 309.718 2.41442 -3.7178 0
M  V30 3330 H 306.938 0.22691 -0.631469 0
M  V30 3331 H 309.482 0.0551439 -2.04426 0
M  V30 3332 H 307.637 2.29163 -3.12351 0
M  V30 3333 H 308.051 1.27205 -5.08841 0
M  V30 3334 H 309.525 2.932 -4.67694 0
M  V30 3335 H 310.002 3.2051 -3.00283 0
M  V30 3336 H 310.608 1.77283 -3.86589 0
M  V30 3337 N 308.923 1.53595 0.353017 0
M  V30 3338 C 310.172 1.69603 1.09168 0
M  V30 3339 C 310.485 0.460925 1.90092 0
M  V30 3340 O 311.691 0.501774 2.66823 0
M  V30 3341 C 310.147 2.99872 1.9901 0
M  V30 3342 C 309.755 4.30687 1.23339 0
M  V30 3343 C 311.499 3.25246 2.72792 0
M  V30 3344 C 309.406 5.52036 2.12156 0
M  V30 3345 H 308.336 0.631966 0.411261 0
M  V30 3346 H 310.987 1.80096 0.351802 0
M  V30 3347 H 309.369 2.83212 2.7678 0
M  V30 3348 H 310.543 4.58019 0.505456 0
M  V30 3349 H 308.858 4.11853 0.613663 0
M  V30 3350 H 311.455 4.13095 3.39495 0
M  V30 3351 H 311.798 2.41846 3.38846 0
M  V30 3352 H 312.331 3.42638 2.021 0
M  V30 3353 H 309.07 6.37951 1.50659 0
M  V30 3354 H 308.59 5.28966 2.82764 0
M  V30 3355 H 310.269 5.87313 2.71427 0
M  V30 3356 N 310.401 -0.613514 1.45168 0
M  V30 3357 C 311.649 -1.36997 1.48581 0
M  V30 3358 C 311.97 -1.94589 0.126545 0
M  V30 3359 O 311.24 -1.76816 -0.843372 0
M  V30 3360 H 309.82 -0.508558 0.547154 0
M  V30 3361 H 312.482 -0.720853 1.81079 0
M  V30 3362 H 311.578 -2.1924 2.22127 0
M  V30 3363 N 311.879 -1.3236 -0.855495 0
M  V30 3364 C 313.109 -1.25688 -1.6397 0
M  V30 3365 C 313.517 0.177592 -1.88365 0
M  V30 3366 O 312.86 1.12485 -1.45234 0
M  V30 3367 C 312.922 -1.94602 -3.02275 0
M  V30 3368 C 312.586 -3.43937 -3.00926 0
M  V30 3369 C 313.583 -4.39435 -2.77835 0
M  V30 3370 C 311.268 -3.85858 -3.21588 0
M  V30 3371 C 313.262 -5.74829 -2.75409 0
M  V30 3372 C 310.949 -5.21361 -3.18789 0
M  V30 3373 C 311.947 -6.15658 -2.95727 0
M  V30 3374 O 311.635 -7.48681 -2.928 0
M  V30 3375 H 311.367 -0.434972 -0.51747 0
M  V30 3376 H 313.921 -1.75023 -1.075 0
M  V30 3377 H 312.151 -1.39836 -3.60531 0
M  V30 3378 H 313.84 -1.81651 -3.62985 0
M  V30 3379 H 314.606 -4.08374 -2.6164 0
M  V30 3380 H 310.485 -3.12883 -3.38564 0
M  V30 3381 H 314.029 -6.48404 -2.57328 0
M  V30 3382 H 309.926 -5.52052 -3.34528 0
M  V30 3383 H 310.694 -7.5803 -3.0876 0
M  V30 3384 N 313.357 1.07166 -1.15556 0
M  V30 3385 C 314.289 2.14341 -0.811815 0
M  V30 3386 C 315.302 1.61835 0.177015 0
M  V30 3387 O 316.491 1.78439 -0.0464996 0
M  V30 3388 C 313.591 3.38387 -0.186481 0
M  V30 3389 C 312.764 4.20238 -1.21321 0
M  V30 3390 C 311.823 5.2266 -0.609302 0
M  V30 3391 O 310.849 5.54719 -1.27576 0
M  V30 3392 N 312.051 5.77306 0.608099 0
M  V30 3393 H 314.816 2.44431 -1.73417 0
M  V30 3394 H 312.377 1.23089 -1.0517 0
M  V30 3395 H 314.369 4.04044 0.230339 0
M  V30 3396 H 312.939 3.05994 0.639249 0
M  V30 3397 H 312.159 3.50369 -1.80652 0
M  V30 3398 H 313.447 4.71736 -1.90638 0
M  V30 3399 H 312.845 5.53513 1.1679 0
M  V30 3400 H 311.402 6.44583 0.96725 0
M  V30 3401 N 314.835 0.952656 1.25548 0
M  V30 3402 C 315.767 0.428609 2.25157 0
M  V30 3403 C 316.78 -0.454428 1.56329 0
M  V30 3404 O 317.969 -0.263023 1.76552 0
M  V30 3405 C 315.069 -0.401972 3.36508 0
M  V30 3406 C 314.242 0.467601 4.34893 0
M  V30 3407 C 313.301 -0.30445 5.25319 0
M  V30 3408 O 312.327 0.296473 5.68427 0
M  V30 3409 N 313.529 -1.59805 5.5807 0
M  V30 3410 H 316.294 1.28497 2.70756 0
M  V30 3411 H 313.855 0.822798 1.39433 0
M  V30 3412 H 315.847 -0.926134 3.9396 0
M  V30 3413 H 314.417 -1.15918 2.90313 0
M  V30 3414 H 313.637 1.17288 3.76347 0
M  V30 3415 H 314.925 1.06119 4.97611 0
M  V30 3416 H 314.323 -2.10823 5.24948 0
M  V30 3417 H 312.88 -2.06822 6.18116 0
M  V30 3418 N 316.313 -1.40141 0.720998 0
M  V30 3419 C 317.538 -2.05618 0.271258 0
M  V30 3420 C 317.963 -1.53978 -1.08039 0
M  V30 3421 O 317.321 -0.677463 -1.68167 0
M  V30 3422 C 317.369 -3.59609 0.267197 0
M  V30 3423 O 316.473 -4.05526 -0.749814 0
M  V30 3424 H 315.814 -0.651904 0.126162 0
M  V30 3425 H 318.344 -1.79439 0.982997 0
M  V30 3426 H 318.354 -4.0786 0.106744 0
M  V30 3427 H 317.029 -3.96559 1.25354 0
M  V30 3428 H 315.606 -3.68722 -0.556644 0
M  V30 3429 N 317.792 -0.46758 -1.50504 0
M  V30 3430 C 319.02 0.0864133 -2.06719 0
M  V30 3431 C 319.435 1.33819 -1.33184 0
M  V30 3432 O 318.792 1.78061 -0.400083 0
M  V30 3433 C 318.843 0.378079 -3.59517 0
M  V30 3434 O 318.564 -0.824044 -4.3028 0
M  V30 3435 C 320.065 0.979426 -4.32345 0
M  V30 3436 H 317.285 -0.00551697 -0.670977 0
M  V30 3437 H 319.829 -0.655354 -1.93715 0
M  V30 3438 H 317.984 1.06977 -3.72337 0
M  V30 3439 H 318.398 -0.566518 -5.21432 0
M  V30 3440 H 319.872 1.1333 -5.40241 0
M  V30 3441 H 320.349 1.9686 -3.9261 0
M  V30 3442 H 320.955 0.326216 -4.24047 0
M  V30 3443 N 319.27 1.56325 -0.20005 0
M  V30 3444 C 320.495 2.02548 0.44597 0
M  V30 3445 C 320.92 1.07922 1.5406 0
M  V30 3446 O 320.278 0.0635775 1.81188 0
M  V30 3447 C 320.326 3.47175 0.974761 0
M  V30 3448 O 319.43 3.55671 2.08739 0
M  V30 3449 H 318.771 0.655862 0.103638 0
M  V30 3450 H 321.301 2.02201 -0.312381 0
M  V30 3451 H 321.311 3.87067 1.2901 0
M  V30 3452 H 319.986 4.15538 0.17347 0
M  V30 3453 H 318.563 3.27657 1.78032 0
M  V30 3454 N 320.748 -0.0735177 1.57428 0
M  V30 3455 C 321.995 -0.772999 1.87166 0
M  V30 3456 C 322.323 -1.77665 0.791551 0
M  V30 3457 O 321.578 -1.94541 -0.212636 0
M  V30 3458 C 321.877 -1.51799 3.23561 0
M  V30 3459 C 321.543 -0.654484 4.46125 0
M  V30 3460 C 320.205 -0.416511 4.79394 0
M  V30 3461 C 322.557 -0.0555862 5.2117 0
M  V30 3462 C 319.885 0.429869 5.85123 0
M  V30 3463 C 322.237 0.778239 6.27795 0
M  V30 3464 C 320.901 1.0261 6.59566 0
M  V30 3465 H 320.171 -0.282861 0.684888 0
M  V30 3466 H 322.818 -0.0338272 1.9147 0
M  V30 3467 H 321.123 -2.32932 3.1504 0
M  V30 3468 H 322.82 -2.06397 3.43804 0
M  V30 3469 H 319.41 -0.850091 4.20085 0
M  V30 3470 H 323.594 -0.226558 4.95783 0
M  V30 3471 H 318.85 0.630665 6.08139 0
M  V30 3472 H 323.024 1.24906 6.85107 0
M  V30 3473 H 320.651 1.68371 7.4132 0
M  V30 3474 N 322.226 -1.5378 -0.344866 0
M  V30 3475 C 323.454 -1.74899 -1.10534 0
M  V30 3476 C 323.869 -0.487534 -1.82397 0
M  V30 3477 O 323.226 0.540741 -1.74305 0
M  V30 3478 C 323.277 -2.92822 -2.11984 0
M  V30 3479 O 322.998 -4.14089 -1.43044 0
M  V30 3480 C 324.499 -3.25982 -3.00417 0
M  V30 3481 H 321.719 -0.584426 -0.329678 0
M  V30 3482 H 324.263 -2.006 -0.397474 0
M  V30 3483 H 322.418 -2.69457 -2.78338 0
M  V30 3484 H 322.832 -4.80272 -2.10805 0
M  V30 3485 H 324.306 -4.11848 -3.67539 0
M  V30 3486 H 324.783 -2.42228 -3.66363 0
M  V30 3487 H 325.389 -3.51349 -2.39654 0
M  V30 3488 N 323.704 0.605807 -1.45491 0
M  V30 3489 C 324.981 1.36522 -1.40075 0
M  V30 3490 C 325.361 2.10976 -0.0722744 0
M  V30 3491 O 324.709 2.08007 0.945808 0
M  V30 3492 C 324.919 2.31056 -2.61561 0
M  V30 3493 C 326.267 2.93608 -3.06724 0
M  V30 3494 O 327.291 2.41376 -2.61946 0
M  V30 3495 O 326.15 3.88421 -3.84437 0
M  V30 3496 H 323.244 0.612248 -0.555951 0
M  V30 3497 H 325.79 0.628747 -1.57623 0
M  V30 3498 H 324.562 1.75311 -3.49831 0
M  V30 3499 H 324.185 3.12081 -2.46356 0
M  V30 3500 N 325.182 1.32811 0.848464 0
M  V30 3501 C 326.593 1.21315 1.41914 0
M  V30 3502 C 326.944 -0.171847 1.95446 0
M  V30 3503 O 326.069 -1.07093 1.88043 0
M  V30 3504 C 326.664 2.19631 2.57968 0
M  V30 3505 C 325.223 2.12003 3.11017 0
M  V30 3506 C 324.37 2.07651 1.83783 0
M  V30 3507 H 327.321 1.44549 0.655071 0
M  V30 3508 H 327.342 1.79845 3.35315 0
M  V30 3509 H 326.854 3.20423 2.18976 0
M  V30 3510 H 324.955 1.14481 3.54577 0
M  V30 3511 H 325.068 3.02111 3.71841 0
M  V30 3512 H 323.432 1.52983 2.03638 0
M  V30 3513 H 324.215 3.10235 1.47 0
M  V30 3514 N 326.66 -1.06551 1.16123 0
M  V30 3515 C 327.907 -1.79302 0.941126 0
M  V30 3516 C 328.235 -1.87105 -0.531235 0
M  V30 3517 O 327.49 -1.35692 -1.41018 0
M  V30 3518 C 327.789 -3.23911 1.51052 0
M  V30 3519 C 327.455 -3.36193 3.00475 0
M  V30 3520 C 326.117 -3.39252 3.41265 0
M  V30 3521 C 328.469 -3.38326 3.96465 0
M  V30 3522 C 325.797 -3.42057 4.76669 0
M  V30 3523 C 328.149 -3.4267 5.31752 0
M  V30 3524 C 326.813 -3.4401 5.72026 0
M  V30 3525 H 326.083 -0.656111 0.344382 0
M  V30 3526 H 328.73 -1.25325 1.44796 0
M  V30 3527 H 327.035 -3.80723 0.925063 0
M  V30 3528 H 328.732 -3.78793 1.31593 0
M  V30 3529 H 325.322 -3.34516 2.6795 0
M  V30 3530 H 329.506 -3.35176 3.6602 0
M  V30 3531 H 324.762 -3.41398 5.07206 0
M  V30 3532 H 328.936 -3.43268 6.05921 0
M  V30 3533 H 326.563 -3.45937 6.76928 0
M  V30 3534 N 328.138 -0.959301 -1.25041 0
M  V30 3535 C 329.385 -0.616611 -1.92884 0
M  V30 3536 C 329.713 0.847036 -1.75087 0
M  V30 3537 O 328.968 1.62374 -1.09239 0
M  V30 3538 C 329.267 -0.927136 -3.45165 0
M  V30 3539 C 328.933 -2.37757 -3.83122 0
M  V30 3540 C 327.595 -2.77402 -3.93194 0
M  V30 3541 C 329.947 -3.31929 -4.01836 0
M  V30 3542 C 327.275 -4.10277 -4.19392 0
M  V30 3543 C 329.627 -4.64423 -4.29528 0
M  V30 3544 C 328.291 -5.03857 -4.37818 0
M  V30 3545 H 327.561 -0.225634 -0.705812 0
M  V30 3546 H 330.208 -1.20921 -1.48493 0
M  V30 3547 H 328.513 -0.252195 -3.90987 0
M  V30 3548 H 330.21 -0.6405 -3.95852 0
M  V30 3549 H 326.8 -2.06013 -3.75841 0
M  V30 3550 H 330.984 -3.02488 -3.93465 0
M  V30 3551 H 326.24 -4.40467 -4.24027 0
M  V30 3552 H 330.414 -5.37369 -4.42953 0
M  V30 3553 H 328.041 -6.06843 -4.57871 0
M  V30 3554 N 329.616 1.39756 -0.72842 0
M  V30 3555 C 330.865 1.99879 -0.270407 0
M  V30 3556 C 331.178 1.58449 1.14688 0
M  V30 3557 O 332.384 2.11362 1.70407 0
M  V30 3558 C 330.84 3.57292 -0.43252 0
M  V30 3559 C 330.448 4.07688 -1.85727 0
M  V30 3560 C 332.192 4.24485 -0.0359507 0
M  V30 3561 C 330.099 5.5765 -1.96928 0
M  V30 3562 H 329.029 0.747689 -0.0973472 0
M  V30 3563 H 331.68 1.59837 -0.901355 0
M  V30 3564 H 330.062 3.95097 0.267219 0
M  V30 3565 H 331.236 3.81231 -2.58843 0
M  V30 3566 H 329.551 3.53135 -2.20646 0
M  V30 3567 H 332.148 5.34609 -0.0987484 0
M  V30 3568 H 332.491 4.03915 1.00787 0
M  V30 3569 H 333.024 3.9183 -0.686604 0
M  V30 3570 H 329.763 5.8309 -2.99476 0
M  V30 3571 H 329.283 5.8593 -1.28241 0
M  V30 3572 H 330.962 6.22957 -1.74737 0
M  V30 3573 N 331.094 0.475555 1.50254 0
M  V30 3574 C 332.34 -0.0780073 2.0265 0
M  V30 3575 C 332.673 -1.38968 1.35652 0
M  V30 3576 O 331.948 -1.8839 0.483691 0
M  V30 3577 C 332.231 -0.257161 3.59181 0
M  V30 3578 C 332.084 1.07585 4.36744 0
M  V30 3579 C 333.403 -1.00965 4.28362 0
M  V30 3580 H 330.522 -0.0268758 0.73651 0
M  V30 3581 H 333.164 0.622015 1.7953 0
M  V30 3582 H 331.314 -0.853412 3.79011 0
M  V30 3583 H 332.986 1.70902 4.28474 0
M  V30 3584 H 331.229 1.6714 4.00308 0
M  V30 3585 H 331.9 0.904088 5.44546 0
M  V30 3586 H 334.376 -0.504214 4.13034 0
M  V30 3587 H 333.252 -1.10381 5.37687 0
M  V30 3588 H 333.513 -2.04731 3.91839 0
M  V30 3589 N 332.573 -1.56217 0.208337 0
M  V30 3590 C 333.483 -2.23316 -0.718836 0
M  V30 3591 C 334.499 -1.23648 -1.22422 0
M  V30 3592 O 335.675 -1.56423 -1.26861 0
M  V30 3593 C 332.74 -2.88968 -1.91568 0
M  V30 3594 C 331.801 -4.03943 -1.45357 0
M  V30 3595 C 331.034 -4.66455 -2.59337 0
M  V30 3596 O 331.257 -4.27919 -3.77149 0
M  V30 3597 O 330.191 -5.55686 -2.31293 0
M  V30 3598 H 334.017 -3.03182 -0.177315 0
M  V30 3599 H 331.602 -1.49384 -0.0215402 0
M  V30 3600 H 333.484 -3.30455 -2.61491 0
M  V30 3601 H 332.159 -2.12071 -2.44556 0
M  V30 3602 H 331.066 -3.67052 -0.722746 0
M  V30 3603 H 332.399 -4.82543 -0.970219 0
M  V30 3604 N 334.051 0.0651679 -1.57465 0
M  V30 3605 C 335.279 0.775808 -1.91804 0
M  V30 3606 C 335.694 1.70782 -0.804916 0
M  V30 3607 O 335.051 1.81153 0.221311 0
M  V30 3608 C 335.102 1.56381 -3.25925 0
M  V30 3609 O 334.823 0.669248 -4.32958 0
M  V30 3610 C 336.324 2.37485 -3.7432 0
M  V30 3611 H 333.544 0.2202 -0.63384 0
M  V30 3612 H 336.088 0.0334587 -2.04473 0
M  V30 3613 H 334.243 2.25837 -3.14764 0
M  V30 3614 H 334.657 1.21801 -5.10162 0
M  V30 3615 H 336.131 2.88223 -4.70778 0
M  V30 3616 H 336.608 3.17307 -3.03666 0
M  V30 3617 H 337.214 1.73173 -3.88447 0
M  V30 3618 N 335.529 1.53961 0.336706 0
M  V30 3619 C 336.459 1.85417 1.41925 0
M  V30 3620 C 337.44 0.709856 1.5458 0
M  V30 3621 O 338.625 0.962396 1.68676 0
M  V30 3622 C 335.755 2.06985 2.78881 0
M  V30 3623 C 334.709 3.22813 2.81026 0
M  V30 3624 C 334.035 3.29727 4.20932 0
M  V30 3625 C 335.335 4.60767 2.45949 0
M  V30 3626 H 337.029 2.76079 1.15848 0
M  V30 3627 H 334.575 1.32839 0.555859 0
M  V30 3628 H 336.528 2.27575 3.54665 0
M  V30 3629 H 335.252 1.13061 3.06406 0
M  V30 3630 H 333.911 3.0209 2.07695 0
M  V30 3631 H 333.559 2.33385 4.45579 0
M  V30 3632 H 333.259 4.07566 4.23277 0
M  V30 3633 H 334.783 3.52536 4.98549 0
M  V30 3634 H 336.197 4.81325 3.11446 0
M  V30 3635 H 334.594 5.4106 2.59566 0
M  V30 3636 H 335.664 4.6391 1.41122 0
M  V30 3637 N 337.007 -0.598083 1.45811 0
M  V30 3638 C 338.247 -1.36802 1.5187 0
M  V30 3639 C 338.611 -1.9133 0.160224 0
M  V30 3640 O 339.812 -2.6863 0.0955302 0
M  V30 3641 C 338.083 -2.47835 2.57513 0
M  V30 3642 S 339.642 -3.35458 2.82866 0
M  V30 3643 H 336.46 -0.466278 0.536755 0
M  V30 3644 H 339.062 -0.689152 1.82951 0
M  V30 3645 H 337.766 -2.06141 3.54872 0
M  V30 3646 H 337.297 -3.20512 2.28114 0
M  V30 3647 H 339.312 -4.46251 2.16967 0
M  V30 3648 N 338.485 -1.33259 -0.841409 0
M  V30 3649 C 339.734 -1.23921 -1.59143 0
M  V30 3650 C 340.047 0.1941 -1.94635 0
M  V30 3651 O 341.253 0.409474 -2.68394 0
M  V30 3652 C 339.709 -2.17119 -2.87032 0
M  V30 3653 C 339.317 -3.65606 -2.58914 0
M  V30 3654 C 341.061 -2.16648 -3.65053 0
M  V30 3655 C 338.968 -4.50726 -3.82884 0
M  V30 3656 H 337.898 -0.460264 -0.597221 0
M  V30 3657 H 340.549 -1.58307 -0.927959 0
M  V30 3658 H 338.931 -1.75663 -3.54906 0
M  V30 3659 H 340.105 -4.15487 -1.99267 0
M  V30 3660 H 338.42 -3.68341 -1.942 0
M  V30 3661 H 341.017 -2.77474 -4.57069 0
M  V30 3662 H 341.36 -1.16088 -3.99787 0
M  V30 3663 H 341.893 -2.56453 -3.041 0
M  V30 3664 H 338.632 -5.52151 -3.53283 0
M  V30 3665 H 338.152 -4.0559 -4.41879 0
M  V30 3666 H 339.831 -4.64401 -4.50489 0
M  V30 3667 N 339.963 1.05934 -1.16686 0
M  V30 3668 C 341.212 1.78188 -0.945085 0
M  V30 3669 C 341.525 1.88338 0.528021 0
M  V30 3670 O 342.731 2.57258 0.867799 0
M  V30 3671 C 341.187 3.20277 -1.64167 0
M  V30 3672 C 340.795 3.18281 -3.15279 0
M  V30 3673 C 342.539 3.97039 -1.502 0
M  V30 3674 C 340.446 4.55112 -3.7766 0
M  V30 3675 H 339.376 0.667866 -0.349959 0
M  V30 3676 H 342.027 1.18794 -1.39858 0
M  V30 3677 H 340.409 3.79952 -1.11589 0
M  V30 3678 H 341.583 2.68167 -3.74731 0
M  V30 3679 H 339.898 2.55018 -3.29173 0
M  V30 3680 H 342.495 4.98194 -1.94183 0
M  V30 3681 H 342.838 4.13845 -0.451461 0
M  V30 3682 H 343.371 3.43894 -1.99954 0
M  V30 3683 H 340.11 4.43512 -4.82677 0
M  V30 3684 H 339.63 5.05406 -3.22994 0
M  V30 3685 H 341.309 5.24064 -3.79428 0
M  V30 3686 N 341.441 0.965919 1.2453 0
M  V30 3687 C 342.687 0.637349 1.93156 0
M  V30 3688 C 343.042 -0.818261 1.74133 0
M  V30 3689 O 342.335 -1.58079 1.08266 0
M  V30 3690 C 342.529 0.945428 3.44669 0
M  V30 3691 C 342.358 2.42944 3.78429 0
M  V30 3692 C 341.128 3.08895 3.9989 0
M  V30 3693 C 343.326 3.40941 3.8505 0
M  V30 3694 N 341.308 4.47052 4.20735 0
M  V30 3695 C 342.679 4.64448 4.10717 0
M  V30 3696 C 344.734 3.35624 3.67779 0
M  V30 3697 C 343.437 5.83292 4.20907 0
M  V30 3698 C 345.463 4.53818 3.79214 0
M  V30 3699 C 344.825 5.76114 4.05304 0
M  V30 3700 H 340.924 0.284034 0.728594 0
M  V30 3701 H 343.508 1.24041 1.50073 0
M  V30 3702 H 341.679 0.371193 3.86622 0
M  V30 3703 H 343.411 0.575613 4.00586 0
M  V30 3704 H 340.166 2.59432 3.96222 0
M  V30 3705 H 340.59 5.18634 4.35141 0
M  V30 3706 H 345.232 2.4211 3.46616 0
M  V30 3707 H 342.95 6.77236 4.40883 0
M  V30 3708 H 346.536 4.51263 3.67224 0
M  V30 3709 H 345.416 6.66045 4.13949 0
M  V30 3710 N 342.919 -1.39368 0.735821 0
M  V30 3711 C 344.166 -2.00497 0.284123 0
M  V30 3712 C 344.494 -1.58387 -1.12889 0
M  V30 3713 O 343.749 -0.804359 -1.78406 0
M  V30 3714 C 344.048 -3.5583 0.334651 0
M  V30 3715 C 343.714 -4.17593 1.7008 0
M  V30 3716 C 342.376 -4.34176 2.07472 0
M  V30 3717 C 344.728 -4.51848 2.59775 0
M  V30 3718 C 342.056 -4.82304 3.34065 0
M  V30 3719 C 344.408 -5.01384 3.85741 0
M  V30 3720 C 343.072 -5.16175 4.23225 0
M  V30 3721 H 342.342 -0.73367 0.103968 0
M  V30 3722 H 344.989 -1.66683 0.942825 0
M  V30 3723 H 343.294 -3.89674 -0.407625 0
M  V30 3724 H 344.991 -4.00986 -0.0329927 0
M  V30 3725 H 341.581 -4.05087 1.40008 0
M  V30 3726 H 345.765 -4.38653 2.32157 0
M  V30 3727 H 341.021 -4.91941 3.63049 0
M  V30 3728 H 345.195 -5.26863 4.55399 0
M  V30 3729 H 342.822 -5.5323 5.21384 0
M  V30 3730 N 344.397 -0.483516 -1.5 0
M  V30 3731 C 345.622 0.0667119 -2.07293 0
M  V30 3732 C 346.047 1.3164 -1.3436 0
M  V30 3733 O 345.405 1.76945 -0.394987 0
M  V30 3734 C 345.453 0.321126 -3.59167 0
M  V30 3735 O 344.557 1.39927 -3.87936 0
M  V30 3736 H 343.898 -0.0184758 -0.663743 0
M  V30 3737 H 346.428 -0.678125 -1.93035 0
M  V30 3738 H 346.438 0.557906 -4.04168 0
M  V30 3739 H 345.113 -0.592007 -4.11665 0
M  V30 3740 H 343.69 1.14882 -3.54763 0
M  V30 3741 N 345.875 1.56104 -0.216619 0
M  V30 3742 C 347.122 1.98172 0.416416 0
M  V30 3743 C 347.45 1.10413 1.60122 0
M  V30 3744 O 346.705 0.147967 1.9514 0
M  V30 3745 C 347.004 3.45923 0.898464 0
M  V30 3746 C 346.67 4.50559 -0.175288 0
M  V30 3747 C 345.332 4.78897 -0.470271 0
M  V30 3748 C 347.684 5.1334 -0.901728 0
M  V30 3749 C 345.012 5.67299 -1.4963 0
M  V30 3750 C 347.364 6.02853 -1.91705 0
M  V30 3751 C 346.028 6.29537 -2.21901 0
M  V30 3752 H 345.298 0.725164 0.152377 0
M  V30 3753 H 347.945 1.88839 -0.318103 0
M  V30 3754 H 346.25 3.52434 1.71165 0
M  V30 3755 H 347.947 3.75841 1.39803 0
M  V30 3756 H 344.537 4.28551 0.0647806 0
M  V30 3757 H 348.721 4.91521 -0.687072 0
M  V30 3758 H 343.977 5.86239 -1.73592 0
M  V30 3759 H 348.151 6.50552 -2.48505 0
M  V30 3760 H 345.778 6.97835 -3.01548 0
M  V30 3761 N 347.353 -0.0568162 1.57498 0
M  V30 3762 C 348.263 -1.08346 2.08083 0
M  V30 3763 C 349.279 -1.41439 1.01346 0
M  V30 3764 O 350.455 -1.51316 1.32912 0
M  V30 3765 C 347.52 -2.37352 2.52715 0
M  V30 3766 C 346.581 -2.11093 3.73816 0
M  V30 3767 C 345.814 -3.33949 4.1631 0
M  V30 3768 O 346.037 -4.43622 3.58547 0
M  V30 3769 O 344.971 -3.21279 5.08983 0
M  V30 3770 H 348.797 -0.683667 2.95905 0
M  V30 3771 H 346.382 -0.271965 1.46904 0
M  V30 3772 H 348.264 -3.13246 2.81877 0
M  V30 3773 H 346.939 -2.76681 1.68016 0
M  V30 3774 H 345.846 -1.32856 3.49714 0
M  V30 3775 H 347.179 -1.76637 4.59413 0
M  V30 3776 N 348.832 -1.54138 -0.328536 0
M  V30 3777 C 350.079 -1.72105 -1.06706 0
M  V30 3778 C 350.407 -0.492111 -1.88171 0
M  V30 3779 O 349.662 0.526153 -1.88494 0
M  V30 3780 C 349.961 -2.9457 -2.02393 0
M  V30 3781 C 349.627 -4.29544 -1.37122 0
M  V30 3782 C 348.289 -4.6624 -1.19052 0
M  V30 3783 C 350.641 -5.1333 -0.902331 0
M  V30 3784 C 347.969 -5.84325 -0.527331 0
M  V30 3785 C 350.321 -6.32094 -0.252988 0
M  V30 3786 C 348.985 -6.67473 -0.0600901 0
M  V30 3787 H 348.255 -0.629775 -0.390466 0
M  V30 3788 H 350.902 -1.88372 -0.34473 0
M  V30 3789 H 349.207 -2.72969 -2.81061 0
M  V30 3790 H 350.904 -3.05665 -2.59557 0
M  V30 3791 H 347.494 -4.0067 -1.52188 0
M  V30 3792 H 351.678 -4.855 -1.02974 0
M  V30 3793 H 346.934 -6.103 -0.366634 0
M  V30 3794 H 351.108 -6.96299 0.118366 0
M  V30 3795 H 348.735 -7.58832 0.455828 0
M  V30 3796 N 350.31 0.590341 -1.46126 0
M  V30 3797 C 351.24 1.71032 -1.58966 0
M  V30 3798 C 352.221 1.64302 -0.440335 0
M  V30 3799 O 353.406 1.82436 -0.665634 0
M  V30 3800 C 350.536 3.09665 -1.57241 0
M  V30 3801 C 349.49 3.31221 -2.71066 0
M  V30 3802 C 348.816 4.70303 -2.54399 0
M  V30 3803 C 350.116 3.19796 -4.1295 0
M  V30 3804 H 351.81 1.60543 -2.52718 0
M  V30 3805 H 349.356 0.770933 -1.21625 0
M  V30 3806 H 351.309 3.87831 -1.64819 0
M  V30 3807 H 350.033 3.21036 -0.600289 0
M  V30 3808 H 348.692 2.55452 -2.62944 0
M  V30 3809 H 348.34 4.78429 -1.55288 0
M  V30 3810 H 348.04 4.85679 -3.30741 0
M  V30 3811 H 349.564 5.50647 -2.63857 0
M  V30 3812 H 350.978 3.87815 -4.22223 0
M  V30 3813 H 349.375 3.46696 -4.89818 0
M  V30 3814 H 350.445 2.16983 -4.33643 0
M  V30 3815 N 351.788 1.33704 0.83433 0
M  V30 3816 C 353.034 1.25603 1.59222 0
M  V30 3817 C 353.367 -0.176659 1.93395 0
M  V30 3818 O 352.642 -1.11915 1.59076 0
M  V30 3819 C 352.925 2.13576 2.89926 0
M  V30 3820 C 352.778 3.65326 2.62406 0
M  V30 3821 C 354.097 2.01238 3.91397 0
M  V30 3822 H 351.216 0.457613 0.577719 0
M  V30 3823 H 353.858 1.63848 0.961972 0
M  V30 3824 H 352.008 1.8109 3.43713 0
M  V30 3825 H 353.68 4.08124 2.15017 0
M  V30 3826 H 351.923 3.8698 1.96033 0
M  V30 3827 H 352.594 4.22232 3.55562 0
M  V30 3828 H 355.07 2.29738 3.46929 0
M  V30 3829 H 353.946 2.65036 4.80673 0
M  V30 3830 H 354.207 0.985951 4.30966 0
M  V30 3831 N 353.266 -1.05314 1.17247 0
M  V30 3832 C 354.682 -1.30452 0.919473 0
M  V30 3833 C 354.882 -1.9703 -0.42209 0
M  V30 3834 O 353.938 -2.24311 -1.15935 0
M  V30 3835 C 355.251 -2.17551 2.07586 0
M  V30 3836 C 356.799 -2.30937 2.11275 0
M  V30 3837 C 357.274 -3.21396 3.26296 0
M  V30 3838 N 358.765 -3.28981 3.26076 0
M  V30 3839 C 359.5 -3.99095 4.11716 0
M  V30 3840 N 358.996 -4.71648 5.07465 0
M  V30 3841 N 360.789 -3.95247 3.9967 0
M  V30 3842 H 352.94 -0.604988 2.03602 0
M  V30 3843 H 355.203 -0.329368 0.888944 0
M  V30 3844 H 354.909 -1.75921 3.0454 0
M  V30 3845 H 354.783 -3.18182 2.02584 0
M  V30 3846 H 357.17 -2.71809 1.14907 0
M  V30 3847 H 357.251 -1.2994 2.20339 0
M  V30 3848 H 356.895 -2.81238 4.22927 0
M  V30 3849 H 356.825 -4.22395 3.14467 0
M  V30 3850 H 359.316 -2.77286 2.5675 0
M  V30 3851 H 359.629 -5.22705 5.6921 0
M  V30 3852 H 357.974 -4.70594 5.11435 0
M  V30 3853 H 361.165 -3.37691 3.24164 0
M  V30 3854 H 361.338 -4.4962 4.66632 0
M  V30 3855 N 354.744 -0.972509 -1.24016 0
M  V30 3856 C 355.991 -0.637034 -1.92219 0
M  V30 3857 C 356.319 0.828418 -1.75976 0
M  V30 3858 O 355.574 1.61206 -1.10955 0
M  V30 3859 C 355.873 -0.963694 -3.44162 0
M  V30 3860 C 355.539 -2.41807 -3.80579 0
M  V30 3861 C 354.201 -2.81556 -3.9023 0
M  V30 3862 C 356.553 -3.36172 -3.98293 0
M  V30 3863 C 353.881 -4.14702 -4.15017 0
M  V30 3864 C 356.233 -4.68952 -4.24578 0
M  V30 3865 C 354.897 -5.08472 -4.32449 0
M  V30 3866 H 354.167 -0.233107 -0.703379 0
M  V30 3867 H 356.814 -1.2249 -1.47202 0
M  V30 3868 H 355.119 -0.29365 -3.90698 0
M  V30 3869 H 356.816 -0.682449 -3.9515 0
M  V30 3870 H 353.406 -2.09988 -3.73635 0
M  V30 3871 H 357.59 -3.06644 -3.90234 0
M  V30 3872 H 352.846 -4.4494 -4.19331 0
M  V30 3873 H 357.02 -5.42037 -4.37229 0
M  V30 3874 H 354.647 -6.11665 -4.51409 0
M  V30 3875 N 356.222 1.38976 -0.743202 0
M  V30 3876 C 357.469 2.00343 -0.294752 0
M  V30 3877 C 357.797 1.58983 1.12047 0
M  V30 3878 O 357.052 0.813809 1.77977 0
M  V30 3879 C 357.351 3.55647 -0.353517 0
M  V30 3880 C 357.017 4.16685 -1.72292 0
M  V30 3881 C 355.679 4.3307 -2.09771 0
M  V30 3882 C 358.031 4.50464 -2.62168 0
M  V30 3883 C 355.359 4.80526 -3.36618 0
M  V30 3884 C 357.711 4.99332 -3.88395 0
M  V30 3885 C 356.375 5.13924 -4.25956 0
M  V30 3886 H 355.645 0.733108 -0.107857 0
M  V30 3887 H 358.292 1.6618 -0.951651 0
M  V30 3888 H 356.597 3.89884 0.386954 0
M  V30 3889 H 358.294 4.00998 0.0117269 0
M  V30 3890 H 354.884 4.04339 -1.42155 0
M  V30 3891 H 359.068 4.37416 -2.3448 0
M  V30 3892 H 354.324 4.90008 -3.65653 0
M  V30 3893 H 358.498 5.2444 -4.58187 0
M  V30 3894 H 356.125 5.50457 -5.2431 0
M  V30 3895 N 357.7 0.491464 1.49741 0
M  V30 3896 C 358.663 -0.280906 2.27472 0
M  V30 3897 C 359.663 -0.902454 1.33088 0
M  V30 3898 O 360.853 -0.768465 1.56334 0
M  V30 3899 C 357.985 -1.40209 3.10732 0
M  V30 3900 H 359.178 0.401056 2.97206 0
M  V30 3901 H 356.731 0.246131 1.5435 0
M  V30 3902 H 357.466 -2.11849 2.45541 0
M  V30 3903 H 357.251 -0.961969 3.80117 0
M  V30 3904 H 358.741 -1.9464 3.69466 0
M  V30 3905 N 359.178 -1.55987 0.224894 0
M  V30 3906 C 360.418 -2.00293 -0.407706 0
M  V30 3907 C 360.782 -1.1093 -1.56711 0
M  V30 3908 O 361.983 -1.44597 -2.26595 0
M  V30 3909 C 360.254 -3.47675 -0.82805 0
M  V30 3910 S 361.813 -4.14 -1.45429 0
M  V30 3911 H 358.631 -0.699152 -0.129256 0
M  V30 3912 H 361.233 -1.92609 0.334967 0
M  V30 3913 H 359.937 -4.10392 0.0253964 0
M  V30 3914 H 359.468 -3.59239 -1.60345 0
M  V30 3915 H 361.483 -4.13465 -2.74337 0
M  V30 3916 N 360.656 0.0484629 -1.57525 0
M  V30 3917 C 362.067 0.597486 -1.76881 0
M  V30 3918 C 362.418 1.76664 -0.853475 0
M  V30 3919 O 361.543 2.16357 -0.0433656 0
M  V30 3920 C 362.138 1.09066 -3.20765 0
M  V30 3921 C 360.697 1.58535 -3.41385 0
M  V30 3922 C 359.844 0.514868 -2.72478 0
M  V30 3923 H 362.795 -0.177758 -1.57701 0
M  V30 3924 H 362.816 1.95875 -3.2621 0
M  V30 3925 H 362.328 0.239521 -3.8736 0
M  V30 3926 H 360.429 2.45898 -2.79937 0
M  V30 3927 H 360.542 1.64622 -4.49929 0
M  V30 3928 H 358.906 0.965407 -2.35695 0
M  V30 3929 H 359.689 -0.32648 -3.41744 0
M  V30 3930 N 362.134 1.5431 0.320358 0
M  V30 3931 C 363.359 1.76954 1.08175 0
M  V30 3932 C 363.784 0.518193 1.80821 0
M  V30 3933 O 363.142 -0.530411 1.73368 0
M  V30 3934 C 363.19 2.96451 2.05303 0
M  V30 3935 O 362.294 2.68221 3.13259 0
M  V30 3936 H 361.635 0.586275 0.311733 0
M  V30 3937 H 364.165 2.01342 0.363676 0
M  V30 3938 H 364.175 3.23887 2.48116 0
M  V30 3939 H 362.85 3.87196 1.51829 0
M  V30 3940 H 361.427 2.51744 2.75099 0
M  V30 3941 N 363.613 -0.582584 1.46437 0
M  V30 3942 C 364.56 -1.69164 1.5701 0
M  V30 3943 C 365.53 -1.60847 0.414403 0
M  V30 3944 O 366.715 -1.80058 0.631171 0
M  V30 3945 C 363.855 -3.075 1.56646 0
M  V30 3946 C 362.968 -3.2644 2.82951 0
M  V30 3947 C 362.103 -4.55026 2.7409 0
M  V30 3948 C 361.142 -4.6731 3.95333 0
M  V30 3949 N 360.279 -5.87221 3.84858 0
M  V30 3950 H 365.119 -1.59464 2.51744 0
M  V30 3951 H 362.656 -0.777186 1.24893 0
M  V30 3952 H 364.614 -3.8757 1.5442 0
M  V30 3953 H 363.244 -3.16096 0.654439 0
M  V30 3954 H 362.296 -2.39974 2.95155 0
M  V30 3955 H 363.608 -3.31385 3.72808 0
M  V30 3956 H 362.762 -5.43324 2.6997 0
M  V30 3957 H 361.501 -4.52519 1.81873 0
M  V30 3958 H 360.506 -3.77429 3.99784 0
M  V30 3959 H 361.731 -4.71595 4.88646 0
M  V30 3960 H 359.677 -5.85712 2.95427 0
M  V30 3961 H 359.594 -5.93435 4.6837 0
M  V30 3962 H 360.862 -6.7795 3.84713 0
M  V30 3963 N 365.091 -1.34144 -0.827227 0
M  V30 3964 C 366.054 -1.25264 -1.91942 0
M  V30 3965 C 367.054 -0.168866 -1.59911 0
M  V30 3966 O 368.244 -0.421198 -1.69031 0
M  V30 3967 C 365.376 -0.932952 -3.27885 0
M  V30 3968 H 366.569 -2.22357 -2.0124 0
M  V30 3969 H 364.122 -1.1837 -1.0207 0
M  V30 3970 H 364.857 0.0349917 -3.24281 0
M  V30 3971 H 364.642 -1.71682 -3.52516 0
M  V30 3972 H 366.132 -0.895874 -4.07877 0
M  V30 3973 N 366.569 1.04691 -1.17803 0
M  V30 3974 C 367.817 1.7743 -0.967617 0
M  V30 3975 C 368.138 1.88359 0.504574 0
M  V30 3976 O 367.408 1.40402 1.36617 0
M  V30 3977 H 365.988 0.657242 -0.355024 0
M  V30 3978 H 368.65 1.2638 -1.48371 0
M  V30 3979 H 367.746 2.78924 -1.40027 0
M  V30 3980 N 368.047 0.979072 1.23499 0
M  V30 3981 C 369.294 0.647219 1.91878 0
M  V30 3982 C 369.622 -0.819074 1.76413 0
M  V30 3983 O 368.877 -1.60616 1.11808 0
M  V30 3984 C 369.176 0.981932 3.43646 0
M  V30 3985 C 368.842 2.43822 3.79291 0
M  V30 3986 C 367.504 2.83622 3.88731 0
M  V30 3987 C 369.856 3.3828 3.96505 0
M  V30 3988 C 367.184 4.16897 4.12812 0
M  V30 3989 C 369.536 4.71197 4.22085 0
M  V30 3990 C 368.2 5.10758 4.29747 0
M  V30 3991 H 367.47 0.236834 0.702133 0
M  V30 3992 H 370.117 1.23268 1.46551 0
M  V30 3993 H 368.422 0.314365 3.90537 0
M  V30 3994 H 370.119 0.703395 3.94783 0
M  V30 3995 H 366.709 2.11966 3.72516 0
M  V30 3996 H 370.893 3.0871 3.88603 0
M  V30 3997 H 366.149 4.47157 4.16966 0
M  V30 3998 H 370.323 5.44348 4.34348 0
M  V30 3999 H 367.95 6.1405 4.48159 0
M  V30 4000 N 369.525 -1.3858 0.750561 0
M  V30 4001 C 370.772 -2.00184 0.305373 0
M  V30 4002 C 371.1 -1.59575 -1.11203 0
M  V30 4003 O 370.355 -0.823236 -1.77542 0
M  V30 4004 C 370.654 -3.55455 0.372373 0
M  V30 4005 C 370.32 -4.15765 1.745 0
M  V30 4006 C 368.982 -4.31951 2.12065 0
M  V30 4007 C 371.334 -4.49067 2.64553 0
M  V30 4008 C 368.662 -4.78734 3.39162 0
M  V30 4009 C 371.014 -4.97265 3.91038 0
M  V30 4010 C 369.678 -5.11658 4.28676 0
M  V30 4011 H 368.948 -0.732526 0.111744 0
M  V30 4012 H 371.595 -1.65673 0.960451 0
M  V30 4013 H 369.9 -3.90084 -0.366272 0
M  V30 4014 H 371.597 -4.00999 0.00953918 0
M  V30 4015 H 368.187 -4.03579 1.44297 0
M  V30 4016 H 372.371 -4.36166 2.36796 0
M  V30 4017 H 367.627 -4.88062 3.68246 0
M  V30 4018 H 371.801 -5.22003 4.60962 0
M  V30 4019 H 369.428 -5.47668 5.27222 0
M  V30 4020 N 371.003 -0.499398 -1.49478 0
M  V30 4021 C 372.231 0.0425456 -2.06856 0
M  V30 4022 C 372.646 1.30964 -1.35992 0
M  V30 4023 O 372.003 1.77172 -0.437762 0
M  V30 4024 C 372.054 0.301735 -3.60239 0
M  V30 4025 O 371.775 -0.915127 -4.28436 0
M  V30 4026 C 373.276 0.887499 -4.34325 0
M  V30 4027 H 370.496 -0.0197482 -0.670709 0
M  V30 4028 H 373.04 -0.696297 -1.92281 0
M  V30 4029 H 371.195 0.990556 -3.74522 0
M  V30 4030 H 371.609 -0.676993 -5.20113 0
M  V30 4031 H 373.083 1.01845 -5.42523 0
M  V30 4032 H 373.56 1.88488 -3.96698 0
M  V30 4033 H 374.166 0.236196 -4.24644 0
M  V30 4034 N 372.481 1.55866 -0.233164 0
M  V30 4035 C 373.429 2.22176 0.68851 0
M  V30 4036 C 374.423 1.20487 1.19076 0
M  V30 4037 O 375.629 1.38536 1.14925 0
M  V30 4038 H 372.004 0.712511 0.240483 0
M  V30 4039 H 373.975 2.98212 0.105935 0
M  V30 4040 C 372.724 2.92446 1.88071 0
M  V30 4041 H 372.047 3.70458 1.50337 0
M  V30 4042 H 373.487 3.42226 2.50314 0
M  V30 4043 C 371.946 1.95555 2.74335 0
M  V30 4044 O 372.476 1.47986 3.73447 0
M  V30 4045 N 370.682 1.62953 2.40613 0
M  V30 4046 H 370.229 2.01831 1.60069 0
M  V30 4047 H 370.187 0.983886 2.98609 0
M  V30 4048 N 373.959 -0.0401083 1.57549 0
M  V30 4049 C 375.208 -0.732108 1.87944 0
M  V30 4050 C 375.521 -1.77107 0.830206 0
M  V30 4051 O 376.727 -2.51488 1.02302 0
M  V30 4052 C 375.183 -1.35315 3.33494 0
M  V30 4053 C 374.791 -0.351105 4.46622 0
M  V30 4054 C 376.535 -2.02566 3.73051 0
M  V30 4055 C 374.442 -0.979859 5.83226 0
M  V30 4056 H 373.372 -0.277188 0.701201 0
M  V30 4057 H 376.023 0.0138501 1.83495 0
M  V30 4058 H 374.405 -2.14844 3.32653 0
M  V30 4059 H 375.579 0.416674 4.58912 0
M  V30 4060 H 373.894 0.218708 4.15825 0
M  V30 4061 H 376.491 -2.50441 4.72423 0
M  V30 4062 H 376.834 -2.83904 3.04474 0
M  V30 4063 H 377.367 -1.29827 3.76018 0
M  V30 4064 H 374.106 -0.206135 6.55176 0
M  V30 4065 H 373.626 -1.71774 5.74677 0
M  V30 4066 H 375.305 -1.49046 6.29599 0
M  V30 4067 N 375.437 -1.54477 -0.31217 0
M  V30 4068 C 376.37 -1.79519 -1.40884 0
M  V30 4069 C 377.348 -0.645753 -1.49227 0
M  V30 4070 O 378.532 -0.884468 -1.66461 0
M  V30 4071 C 375.659 -1.92194 -2.78889 0
M  V30 4072 C 374.705 -3.14555 -2.88023 0
M  V30 4073 S 375.538 -4.72893 -2.51262 0
M  V30 4074 C 376.694 -4.8849 -3.91317 0
M  V30 4075 H 376.927 -2.72256 -1.19432 0
M  V30 4076 H 374.46 -1.45746 -0.509654 0
M  V30 4077 H 376.418 -2.00182 -3.58382 0
M  V30 4078 H 375.079 -1.00414 -2.97617 0
M  V30 4079 H 374.272 -3.20193 -3.89221 0
M  V30 4080 H 373.874 -3.04955 -2.16514 0
M  V30 4081 H 376.166 -4.71826 -4.86196 0
M  V30 4082 H 377.109 -5.90588 -3.90656 0
M  V30 4083 H 377.517 -4.16715 -3.80801 0
M  V30 4084 N 376.915 0.57481 -1.46744 0
M  V30 4085 C 377.863 1.70435 -1.58286 0
M  V30 4086 C 378.857 1.63287 -0.450956 0
M  V30 4087 O 380.063 1.68685 -0.628121 0
M  V30 4088 H 376.438 0.56364 -0.497809 0
M  V30 4089 H 378.409 1.57833 -2.53242 0
M  V30 4090 C 377.158 3.08815 -1.59776 0
M  V30 4091 H 376.481 3.1499 -2.46214 0
M  V30 4092 H 377.921 3.87588 -1.71905 0
M  V30 4093 C 376.38 3.35301 -0.327812 0
M  V30 4094 O 376.91 3.97511 0.57861 0
M  V30 4095 N 375.116 2.89816 -0.213274 0
M  V30 4096 H 374.663 2.39371 -0.951798 0
M  V30 4097 H 374.621 3.0791 0.63553 0
M  V30 4098 N 378.394 1.34581 0.820102 0
M  V30 4099 C 379.643 1.26437 1.57151 0
M  V30 4100 C 379.956 -0.163111 1.94919 0
M  V30 4101 O 381.162 -0.366722 2.69012 0
M  V30 4102 C 379.618 2.21658 2.83541 0
M  V30 4103 C 379.226 3.69679 2.53065 0
M  V30 4104 C 380.97 2.22428 3.61561 0
M  V30 4105 C 378.877 4.56761 3.75664 0
M  V30 4106 H 377.807 0.469707 0.589823 0
M  V30 4107 H 380.458 1.59763 0.902656 0
M  V30 4108 H 378.84 1.81287 3.52067 0
M  V30 4109 H 380.014 4.18605 1.92631 0
M  V30 4110 H 378.329 3.71384 1.88316 0
M  V30 4111 H 380.926 2.8471 4.52597 0
M  V30 4112 H 381.269 1.22434 3.97889 0
M  V30 4113 H 381.802 2.61259 2.99981 0
M  V30 4114 H 378.541 5.57702 3.44454 0
M  V30 4115 H 378.061 4.12568 4.35371 0
M  V30 4116 H 379.74 4.71509 4.43044 0
M  V30 4117 N 379.872 -1.04064 1.18357 0
M  V30 4118 C 381.121 -1.76662 0.973313 0
M  V30 4119 C 381.434 -1.89154 -0.497991 0
M  V30 4120 O 382.64 -2.58606 -0.826762 0
M  V30 4121 C 381.096 -3.17624 1.69242 0
M  V30 4122 C 380.704 -3.13225 3.20303 0
M  V30 4123 C 382.448 -3.946 1.56497 0
M  V30 4124 C 380.355 -4.49046 3.84853 0
M  V30 4125 H 379.285 -0.662214 0.36054 0
M  V30 4126 H 381.936 -1.16553 1.41731 0
M  V30 4127 H 380.318 -3.78129 1.1762 0
M  V30 4128 H 381.492 -2.62172 3.78949 0
M  V30 4129 H 379.807 -2.49749 3.33189 0
M  V30 4130 H 382.404 -4.95042 2.02084 0
M  V30 4131 H 382.747 -4.13074 0.517243 0
M  V30 4132 H 383.28 -3.4067 2.05399 0
M  V30 4133 H 380.019 -4.35777 4.89672 0
M  V30 4134 H 379.539 -5.00203 3.30994 0
M  V30 4135 H 381.218 -5.17961 3.87718 0
M  V30 4136 N 381.35 -0.985608 -1.22978 0
M  V30 4137 C 382.627 -0.573599 -1.87001 0
M  V30 4138 C 383.007 0.949213 -1.88555 0
M  V30 4139 O 382.355 1.82811 -1.37086 0
M  V30 4140 C 382.565 -1.18564 -3.28243 0
M  V30 4141 C 383.913 -1.28163 -4.04796 0
M  V30 4142 O 384.937 -1.13949 -3.37482 0
M  V30 4143 O 383.796 -1.50832 -5.25273 0
M  V30 4144 H 380.89 -0.193868 -0.803955 0
M  V30 4145 H 383.436 -1.08102 -1.30813 0
M  V30 4146 H 382.208 -2.22758 -3.21706 0
M  V30 4147 H 381.831 -0.663363 -3.92027 0
M  V30 4148 N 382.828 1.3818 -0.7579 0
M  V30 4149 C 384.077 1.99261 -0.312744 0
M  V30 4150 C 384.39 1.60846 1.11301 0
M  V30 4151 O 385.596 2.14929 1.65885 0
M  V30 4152 C 384.052 3.56294 -0.50821 0
M  V30 4153 C 383.66 4.03657 -1.94333 0
M  V30 4154 C 385.404 4.24313 -0.125982 0
M  V30 4155 C 383.311 5.53347 -2.08712 0
M  V30 4156 H 382.241 0.745456 -0.113185 0
M  V30 4157 H 384.892 1.57889 -0.935056 0
M  V30 4158 H 383.274 3.95575 0.183353 0
M  V30 4159 H 384.448 3.75655 -2.66871 0
M  V30 4160 H 382.763 3.48376 -2.28086 0
M  V30 4161 H 385.36 5.34279 -0.212125 0
M  V30 4162 H 385.703 4.05962 0.921964 0
M  V30 4163 H 386.236 3.90285 -0.769563 0
M  V30 4164 H 382.975 5.76607 -3.11777 0
M  V30 4165 H 382.495 5.83078 -1.4064 0
M  V30 4166 H 384.174 6.19111 -1.87912 0
M  V30 4167 N 384.306 0.507319 1.49211 0
M  V30 4168 C 385.552 -0.0350047 2.0277 0
M  V30 4169 C 385.885 -1.3606 1.38569 0
M  V30 4170 O 385.16 -1.87321 0.523542 0
M  V30 4171 C 385.443 -0.180916 3.59645 0
M  V30 4172 C 385.296 1.16825 4.34364 0
M  V30 4173 C 386.615 -0.918558 4.30407 0
M  V30 4174 H 383.734 -0.0112473 0.736914 0
M  V30 4175 H 386.376 0.659956 1.7817 0
M  V30 4176 H 384.526 -0.772826 3.80736 0
M  V30 4177 H 386.198 1.79952 4.24753 0
M  V30 4178 H 384.441 1.75594 3.96673 0
M  V30 4179 H 385.112 1.01939 5.42506 0
M  V30 4180 H 387.588 -0.41649 4.1401 0
M  V30 4181 H 386.464 -0.989505 5.39907 0
M  V30 4182 H 386.725 -1.96373 3.96093 0
M  V30 4183 N 385.784 -1.5574 0.241426 0
M  V30 4184 C 386.747 -2.19877 -0.647063 0
M  V30 4185 C 387.747 -1.16642 -1.10686 0
M  V30 4186 O 388.937 -1.41757 -1.01245 0
M  V30 4187 C 386.069 -2.83797 -1.88871 0
M  V30 4188 H 387.262 -2.99772 -0.087574 0
M  V30 4189 H 384.815 -1.56298 -0.00813574 0
M  V30 4190 H 385.55 -2.07824 -2.48957 0
M  V30 4191 H 385.335 -3.59414 -1.56728 0
M  V30 4192 H 386.825 -3.32898 -2.52129 0
M  V30 4193 N 387.262 0.0317525 -1.57568 0
M  V30 4194 C 388.511 0.722131 -1.8833 0
M  V30 4195 C 388.824 1.76664 -0.839587 0
M  V30 4196 O 390.03 2.50942 -1.03635 0
M  V30 4197 C 388.486 1.33544 -3.34207 0
M  V30 4198 C 388.094 0.327415 -4.46802 0
M  V30 4199 C 389.838 2.00585 -3.7412 0
M  V30 4200 C 387.745 0.948915 -5.83738 0
M  V30 4201 H 386.675 0.273466 -0.702661 0
M  V30 4202 H 389.326 -0.0235811 -1.83485 0
M  V30 4203 H 387.708 2.13077 -3.33788 0
M  V30 4204 H 388.882 -0.441006 -4.58685 0
M  V30 4205 H 387.197 -0.240758 -4.15703 0
M  V30 4206 H 389.794 2.47932 -4.73744 0
M  V30 4207 H 390.137 2.82285 -3.05975 0
M  V30 4208 H 390.67 1.27831 -3.76702 0
M  V30 4209 H 387.409 0.171387 -6.55276 0
M  V30 4210 H 386.929 1.68724 -5.7558 0
M  V30 4211 H 388.608 1.45705 -6.3038 0
M  V30 4212 N 388.74 1.54641 0.303973 0
M  V30 4213 C 389.989 1.7299 1.03717 0
M  V30 4214 C 390.302 0.521168 1.88529 0
M  V30 4215 O 391.508 0.586408 2.65092 0
M  V30 4216 C 389.964 3.06051 1.89369 0
M  V30 4217 C 389.572 4.34393 1.09574 0
M  V30 4218 C 391.316 3.3376 2.62306 0
M  V30 4219 C 389.223 5.58506 1.94486 0
M  V30 4220 H 388.153 0.64473 0.390947 0
M  V30 4221 H 390.804 1.81124 0.294328 0
M  V30 4222 H 389.186 2.91874 2.67629 0
M  V30 4223 H 390.36 4.59396 0.359485 0
M  V30 4224 H 388.675 4.13597 0.482324 0
M  V30 4225 H 391.272 4.23687 3.26181 0
M  V30 4226 H 391.615 2.52503 3.3098 0
M  V30 4227 H 392.148 3.48894 1.91097 0
M  V30 4228 H 388.887 6.42422 1.30287 0
M  V30 4229 H 388.407 5.37694 2.65792 0
M  V30 4230 H 390.086 5.95651 2.52605 0
M  V30 4231 N 390.218 -0.567019 1.47046 0
M  V30 4232 C 391.629 -1.14916 1.47143 0
M  V30 4233 C 391.98 -1.94954 0.220767 0
M  V30 4234 O 391.105 -2.05602 -0.67505 0
M  V30 4235 C 391.7 -2.09069 2.666 0
M  V30 4236 C 390.259 -2.62575 2.69687 0
M  V30 4237 C 389.406 -1.38755 2.40088 0
M  V30 4238 H 392.357 -0.354126 1.54699 0
M  V30 4239 H 392.378 -2.92789 2.43011 0
M  V30 4240 H 391.89 -1.50789 3.57609 0
M  V30 4241 H 389.991 -3.24681 1.82792 0
M  V30 4242 H 390.104 -3.04239 3.70102 0
M  V30 4243 H 388.468 -1.69098 1.90468 0
M  V30 4244 H 389.251 -0.822822 3.33293 0
M  V30 4245 N 391.696 -1.35014 -0.812953 0
M  V30 4246 C 392.926 -1.30841 -1.59888 0
M  V30 4247 C 393.334 0.117576 -1.88834 0
M  V30 4248 O 392.677 1.07807 -1.48739 0
M  V30 4249 C 392.739 -2.0412 -2.95931 0
M  V30 4250 C 392.403 -3.53336 -2.89832 0
M  V30 4251 C 393.4 -4.48052 -2.63714 0
M  V30 4252 C 391.085 -3.95894 -3.0915 0
M  V30 4253 C 393.079 -5.833 -2.56982 0
M  V30 4254 C 390.766 -5.31239 -3.0204 0
M  V30 4255 C 391.764 -6.24754 -2.75991 0
M  V30 4256 O 391.452 -7.57617 -2.68833 0
M  V30 4257 H 391.184 -0.451215 -0.50337 0
M  V30 4258 H 393.738 -1.78354 -1.01877 0
M  V30 4259 H 391.968 -1.51235 -3.559 0
M  V30 4260 H 393.657 -1.93107 -3.57022 0
M  V30 4261 H 394.423 -4.16492 -2.48515 0
M  V30 4262 H 390.302 -3.23495 -3.28438 0
M  V30 4263 H 393.846 -6.56263 -2.36569 0
M  V30 4264 H 389.743 -5.62415 -3.16796 0
M  V30 4265 H 390.511 -7.67469 -2.84487 0
M  V30 4266 N 393.175 1.03435 -1.18907 0
M  V30 4267 C 394.422 1.76743 -0.988334 0
M  V30 4268 C 394.75 1.88447 0.481441 0
M  V30 4269 O 394.005 1.39383 1.37371 0
M  V30 4270 C 394.304 3.19792 -1.59586 0
M  V30 4271 C 393.97 3.28108 -3.09283 0
M  V30 4272 C 392.632 3.30084 -3.5014 0
M  V30 4273 C 394.984 3.27696 -4.05296 0
M  V30 4274 C 392.312 3.29299 -4.85571 0
M  V30 4275 C 394.664 3.28451 -5.4065 0
M  V30 4276 C 393.328 3.28723 -5.80946 0
M  V30 4277 H 392.598 0.64675 -0.361657 0
M  V30 4278 H 395.245 1.21442 -1.48068 0
M  V30 4279 H 393.55 3.78136 -1.02568 0
M  V30 4280 H 395.247 3.75171 -1.41589 0
M  V30 4281 H 391.837 3.27294 -2.76725 0
M  V30 4282 H 396.021 3.25354 -3.74778 0
M  V30 4283 H 391.277 3.2783 -5.16079 0
M  V30 4284 H 395.451 3.27082 -6.14809 0
M  V30 4285 H 393.078 3.27868 -6.85862 0
M  V30 4286 N 394.653 0.992116 1.22453 0
M  V30 4287 C 395.902 0.662992 1.90492 0
M  V30 4288 C 396.215 -0.808407 1.78113 0
M  V30 4289 O 397.421 -1.24908 2.41061 0
M  V30 4290 C 395.877 1.1353 3.41524 0
M  V30 4291 C 395.485 2.63187 3.62542 0
M  V30 4292 C 397.229 0.880465 4.15269 0
M  V30 4293 C 395.136 3.04024 5.0727 0
M  V30 4294 H 394.066 0.244278 0.713333 0
M  V30 4295 H 396.717 1.20157 1.38688 0
M  V30 4296 H 395.099 0.52485 3.92506 0
M  V30 4297 H 396.273 3.2957 3.22056 0
M  V30 4298 H 394.588 2.86543 3.02129 0
M  V30 4299 H 397.185 1.16128 5.21937 0
M  V30 4300 H 397.528 -0.183408 4.15896 0
M  V30 4301 H 398.061 1.45307 3.70312 0
M  V30 4302 H 394.8 4.09584 5.11782 0
M  V30 4303 H 394.32 2.42343 5.48662 0
M  V30 4304 H 395.999 2.95282 5.75689 0
M  V30 4305 N 396.131 -1.37776 0.765217 0
M  V30 4306 C 397.359 -2.04124 0.337767 0
M  V30 4307 C 397.774 -1.57715 -1.03785 0
M  V30 4308 O 397.131 -0.755447 -1.6613 0
M  V30 4309 C 397.182 -3.59658 0.364442 0
M  V30 4310 O 396.903 -4.04367 1.68579 0
M  V30 4311 C 398.404 -4.43236 -0.0754221 0
M  V30 4312 H 395.624 -0.655696 0.142491 0
M  V30 4313 H 398.168 -1.76238 1.03732 0
M  V30 4314 H 396.323 -3.86339 -0.286471 0
M  V30 4315 H 396.737 -4.98857 1.61993 0
M  V30 4316 H 398.211 -5.52 -0.00560067 0
M  V30 4317 H 398.688 -4.2455 -1.12491 0
M  V30 4318 H 399.294 -4.21767 0.547055 0
M  V30 4319 N 397.609 -0.515225 -1.4894 0
M  V30 4320 C 398.539 0.244628 -2.32215 0
M  V30 4321 C 399.52 0.949136 -1.41157 0
M  V30 4322 O 400.705 0.937783 -1.70057 0
M  V30 4323 C 397.835 1.30096 -3.22013 0
M  V30 4324 C 396.789 0.715486 -4.21977 0
M  V30 4325 C 396.115 1.87339 -5.00808 0
M  V30 4326 C 397.415 -0.302982 -5.2142 0
M  V30 4327 H 399.109 -0.450501 -2.95991 0
M  V30 4328 H 396.655 -0.218098 -1.42339 0
M  V30 4329 H 398.608 1.84037 -3.79089 0
M  V30 4330 H 397.332 2.02547 -2.56207 0
M  V30 4331 H 395.991 0.197715 -3.66066 0
M  V30 4332 H 395.639 2.58592 -4.31438 0
M  V30 4333 H 395.339 1.48764 -5.68457 0
M  V30 4334 H 396.863 2.41686 -5.60732 0
M  V30 4335 H 398.277 0.148802 -5.73107 0
M  V30 4336 H 396.674 -0.60532 -5.97039 0
M  V30 4337 H 397.744 -1.21395 -4.69459 0
M  V30 4338 N 399.087 1.5561 -0.249682 0
M  V30 4339 C 400.335 1.98618 0.373548 0
M  V30 4340 C 400.656 1.13919 1.58264 0
M  V30 4341 O 399.926 0.222637 1.94631 0
M  V30 4342 H 398.506 0.733571 0.141006 0
M  V30 4343 H 401.168 1.91748 -0.349117 0
M  V30 4344 H 400.264 3.04584 0.680796 0
M  V30 4345 N 400.565 -0.0233959 1.57583 0
M  V30 4346 C 401.793 -0.724682 1.93794 0
M  V30 4347 C 402.208 -1.68588 0.849912 0
M  V30 4348 O 401.565 -1.81676 -0.173204 0
M  V30 4349 C 401.616 -1.47684 3.29957 0
M  V30 4350 O 401.337 -0.554222 4.3458 0
M  V30 4351 C 402.838 -2.27477 3.80485 0
M  V30 4352 H 400.058 -0.203317 0.639455 0
M  V30 4353 H 402.602 0.0207653 2.04489 0
M  V30 4354 H 400.757 -2.17412 3.20641 0
M  V30 4355 H 401.171 -1.08232 5.13212 0
M  V30 4356 H 402.645 -2.7564 4.78254 0
M  V30 4357 H 403.122 -3.09144 3.11972 0
M  V30 4358 H 403.728 -1.62813 3.92902 0
M  V30 4359 N 402.043 -1.548 -0.295768 0
M  V30 4360 C 402.953 -1.89177 -1.38742 0
M  V30 4361 C 403.969 -0.786481 -1.55211 0
M  V30 4362 O 405.145 -1.08344 -1.69775 0
M  V30 4363 C 402.21 -2.13663 -2.73036 0
M  V30 4364 C 401.271 -3.37349 -2.65508 0
M  V30 4365 C 400.504 -3.60658 -3.93398 0
M  V30 4366 O 400.727 -2.86882 -4.93006 0
M  V30 4367 O 399.661 -4.54179 -3.94975 0
M  V30 4368 H 403.487 -2.82059 -1.12589 0
M  V30 4369 H 401.072 -1.41056 -0.492295 0
M  V30 4370 H 402.954 -2.3094 -3.52484 0
M  V30 4371 H 401.629 -1.23967 -2.99022 0
M  V30 4372 H 400.536 -3.25431 -1.84514 0
M  V30 4373 H 401.869 -4.27192 -2.44474 0
M  V30 4374 N 403.521 0.559213 -1.47345 0
M  V30 4375 C 404.451 1.67622 -1.62558 0
M  V30 4376 C 405.432 1.63331 -0.475087 0
M  V30 4377 O 406.617 1.80983 -0.704182 0
M  V30 4378 C 403.747 3.0626 -1.63774 0
M  V30 4379 C 402.701 3.25397 -2.7803 0
M  V30 4380 C 402.027 4.64801 -2.64318 0
M  V30 4381 C 403.327 3.10965 -4.19641 0
M  V30 4382 H 405.021 1.55146 -2.56067 0
M  V30 4383 H 402.567 0.744961 -1.23233 0
M  V30 4384 H 404.52 3.84247 -1.73008 0
M  V30 4385 H 403.244 3.1969 -0.66825 0
M  V30 4386 H 401.903 2.49817 -2.68304 0
M  V30 4387 H 401.551 4.75028 -1.65401 0
M  V30 4388 H 401.251 4.78555 -3.40968 0
M  V30 4389 H 402.775 5.44926 -2.75478 0
M  V30 4390 H 404.189 3.78772 -4.30354 0
M  V30 4391 H 402.586 3.36229 -4.97062 0
M  V30 4392 H 403.656 2.07736 -4.38148 0
M  V30 4393 N 404.999 1.35443 0.805782 0
M  V30 4394 C 405.962 1.28301 1.89925 0
M  V30 4395 C 406.962 0.194285 1.59622 0
M  V30 4396 O 408.152 0.448036 1.6834 0
M  V30 4397 C 405.284 0.984997 3.2636 0
M  V30 4398 H 406.477 2.2553 1.97677 0
M  V30 4399 H 404.03 1.19979 1.00173 0
M  V30 4400 H 404.765 0.016603 3.24296 0
M  V30 4401 H 404.55 1.77269 3.4974 0
M  V30 4402 H 406.04 0.960651 4.064 0
M  V30 4403 N 406.477 -1.02803 1.19454 0
M  V30 4404 C 407.387 -2.14575 0.948408 0
M  V30 4405 C 408.403 -1.73757 -0.091871 0
M  V30 4406 O 409.579 -2.01185 0.0929654 0
M  V30 4407 C 406.644 -3.43202 0.491265 0
M  V30 4408 C 405.705 -3.98328 1.60103 0
M  V30 4409 C 404.938 -5.20816 1.16561 0
M  V30 4410 O 405.161 -5.70392 0.0295238 0
M  V30 4411 O 404.095 -5.68801 1.96849 0
M  V30 4412 H 407.921 -2.38202 1.88397 0
M  V30 4413 H 405.506 -1.12989 0.977433 0
M  V30 4414 H 407.388 -4.20687 0.245015 0
M  V30 4415 H 406.063 -3.21018 -0.415851 0
M  V30 4416 H 404.97 -3.22174 1.90144 0
M  V30 4417 H 406.303 -4.24879 2.48473 0
M  V30 4418 N 407.956 -0.998596 -1.21925 0
M  V30 4419 C 408.903 -0.553621 -2.24062 0
M  V30 4420 C 409.873 0.416999 -1.6078 0
M  V30 4421 O 411.058 0.320482 -1.88089 0
M  V30 4422 C 408.198 0.119959 -3.44891 0
M  V30 4423 C 407.311 -0.893077 -4.22668 0
M  V30 4424 C 406.446 -0.192424 -5.30851 0
M  V30 4425 C 405.485 -1.19344 -6.00353 0
M  V30 4426 N 404.622 -0.520707 -7.00166 0
M  V30 4427 H 409.462 -1.4293 -2.61486 0
M  V30 4428 H 406.999 -0.715838 -1.28507 0
M  V30 4429 H 408.957 0.527459 -4.13852 0
M  V30 4430 H 407.587 0.959389 -3.08214 0
M  V30 4431 H 406.639 -1.41886 -3.52948 0
M  V30 4432 H 407.951 -1.65512 -4.70539 0
M  V30 4433 H 407.105 0.271515 -6.06092 0
M  V30 4434 H 405.844 0.602075 -4.83969 0
M  V30 4435 H 404.849 -1.66795 -5.23889 0
M  V30 4436 H 406.074 -1.98891 -6.49322 0
M  V30 4437 H 404.02 0.254252 -6.55507 0
M  V30 4438 H 403.937 -1.2211 -7.46073 0
M  V30 4439 H 405.205 -0.0797596 -7.79459 0
M  V30 4440 N 409.434 1.37368 -0.772513 0
M  V30 4441 C 410.845 1.8231 -0.402493 0
M  V30 4442 C 411.196 1.6436 1.07146 0
M  V30 4443 O 410.321 1.15514 1.82991 0
M  V30 4444 C 410.916 3.30979 -0.723776 0
M  V30 4445 C 409.475 3.74195 -0.406802 0
M  V30 4446 C 408.622 2.59885 -0.967218 0
M  V30 4447 H 411.573 1.25829 -0.967099 0
M  V30 4448 H 411.594 3.80499 -0.00870832 0
M  V30 4449 H 411.106 3.44011 -1.7966 0
M  V30 4450 H 409.207 3.66732 0.658673 0
M  V30 4451 H 409.32 4.7027 -0.915588 0
M  V30 4452 H 407.684 2.51674 -0.391416 0
M  V30 4453 H 408.467 2.7571 -2.04546 0
M  V30 4454 N 410.912 0.523116 1.48665 0
M  V30 4455 C 411.822 -0.247406 2.33292 0
M  V30 4456 C 412.838 -0.945769 1.46052 0
M  V30 4457 O 414.014 -0.922253 1.79043 0
M  V30 4458 C 411.079 -1.28487 3.22012 0
M  V30 4459 C 410.14 -0.597592 4.2512 0
M  V30 4460 C 409.373 -1.58563 5.09601 0
M  V30 4461 O 409.596 -2.81763 4.95949 0
M  V30 4462 O 408.53 -1.12879 5.91221 0
M  V30 4463 H 412.356 0.445869 3.00409 0
M  V30 4464 H 409.941 0.284128 1.46673 0
M  V30 4465 H 411.823 -1.88459 3.7691 0
M  V30 4466 H 410.498 -1.96068 2.57564 0
M  V30 4467 H 409.405 0.0424407 3.74076 0
M  V30 4468 H 410.738 0.0361517 4.92187 0
M  V30 4469 N 412.39 -1.55475 0.257931 0
M  V30 4470 C 413.667 -1.91155 -0.414629 0
M  V30 4471 C 414.047 -1.18008 -1.75035 0
M  V30 4472 O 413.395 -0.301193 -2.26506 0
M  V30 4473 C 413.605 -3.44283 -0.571859 0
M  V30 4474 C 414.953 -4.15744 -0.862678 0
M  V30 4475 O 415.977 -3.50083 -0.657314 0
M  V30 4476 O 414.836 -5.31909 -1.2544 0
M  V30 4477 H 411.93 -0.796016 -0.22425 0
M  V30 4478 H 414.476 -1.66976 0.302814 0
M  V30 4479 H 413.248 -3.89558 0.368844 0
M  V30 4480 H 412.871 -3.7436 -1.33943 0
M  V30 4481 N 413.868 0.0150385 -1.57593 0
M  V30 4482 C 414.831 0.995996 -2.06428 0
M  V30 4483 C 415.831 1.2818 -0.970903 0
M  V30 4484 O 417.021 1.22949 -1.23406 0
M  V30 4485 C 414.153 2.32506 -2.49307 0
M  V30 4486 H 415.346 0.573873 -2.94358 0
M  V30 4487 H 412.899 0.262186 -1.54085 0
M  V30 4488 H 413.634 2.79438 -1.64575 0
M  V30 4489 H 413.419 2.13087 -3.29145 0
M  V30 4490 H 414.909 3.02906 -2.87468 0
M  V30 4491 N 415.346 1.54954 0.287554 0
M  V30 4492 C 416.278 1.83224 1.37701 0
M  V30 4493 C 417.291 0.715898 1.46215 0
M  V30 4494 O 418.48 0.993565 1.48292 0
M  V30 4495 C 415.58 1.96723 2.75959 0
M  V30 4496 C 414.753 3.27253 2.90215 0
M  V30 4497 C 413.812 3.30998 4.09056 0
M  V30 4498 O 412.838 4.04457 4.00503 0
M  V30 4499 N 414.04 2.57353 5.20336 0
M  V30 4500 H 416.805 2.77254 1.138 0
M  V30 4501 H 414.366 1.54694 0.477652 0
M  V30 4502 H 416.358 1.96615 3.5373 0
M  V30 4503 H 414.928 1.09626 2.92747 0
M  V30 4504 H 414.148 3.40022 1.99447 0
M  V30 4505 H 415.436 4.13365 2.96659 0
M  V30 4506 H 414.834 1.97327 5.30169 0
M  V30 4507 H 413.391 2.62984 5.96391 0
M  V30 4508 N 416.824 -0.551391 1.4764 0
M  V30 4509 C 417.756 -1.67333 1.56628 0
M  V30 4510 C 418.769 -1.56398 0.452045 0
M  V30 4511 O 419.958 -1.6325 0.721926 0
M  V30 4512 C 417.058 -3.05841 1.45994 0
M  V30 4513 C 416.231 -3.42472 2.72088 0
M  V30 4514 C 415.29 -4.60168 2.55209 0
M  V30 4515 O 414.316 -4.64458 3.2904 0
M  V30 4516 N 415.518 -5.57024 1.63416 0
M  V30 4517 H 418.283 -1.60066 2.53375 0
M  V30 4518 H 415.844 -0.738169 1.44093 0
M  V30 4519 H 417.836 -3.8242 1.32428 0
M  V30 4520 H 416.406 -3.07302 0.573071 0
M  V30 4521 H 415.626 -2.55284 3.00373 0
M  V30 4522 H 416.914 -3.63723 3.55785 0
M  V30 4523 H 416.312 -5.56319 1.02594 0
M  V30 4524 H 414.869 -6.32906 1.558 0
M  V30 4525 N 418.302 -1.35869 -0.798587 0
M  V30 4526 C 419.55 -1.29332 -1.55298 0
M  V30 4527 C 419.871 0.129729 -1.94568 0
M  V30 4528 O 419.141 1.06796 -1.6423 0
M  V30 4529 H 417.721 -0.475737 -0.57592 0
M  V30 4530 H 420.383 -1.70062 -0.952093 0
M  V30 4531 H 419.479 -1.91458 -2.46476 0
M  V30 4532 N 419.78 1.02168 -1.19998 0
M  V30 4533 C 420.712 2.10705 -0.901994 0
M  V30 4534 C 421.725 1.6244 0.108216 0
M  V30 4535 O 422.914 1.78082 -0.12214 0
M  V30 4536 C 420.014 3.37291 -0.329834 0
M  V30 4537 C 419.187 4.14714 -1.39035 0
M  V30 4538 C 418.246 5.19606 -0.830432 0
M  V30 4539 O 417.272 5.48809 -1.50989 0
M  V30 4540 N 418.474 5.79366 0.362696 0
M  V30 4541 H 421.239 2.36856 -1.83628 0
M  V30 4542 H 418.8 1.18518 -1.10296 0
M  V30 4543 H 420.792 4.04657 0.0587633 0
M  V30 4544 H 419.362 3.0843 0.508891 0
M  V30 4545 H 418.582 3.42392 -1.9535 0
M  V30 4546 H 419.87 4.63226 -2.10474 0
M  V30 4547 H 419.268 5.57968 0.932081 0
M  V30 4548 H 417.825 6.48106 0.69299 0
M  V30 4549 N 421.258 1.00505 1.21394 0
M  V30 4550 C 422.19 0.52372 2.23136 0
M  V30 4551 C 423.203 -0.387714 1.58116 0
M  V30 4552 O 424.392 -0.187905 1.77508 0
M  V30 4553 C 421.492 -0.258885 3.3791 0
M  V30 4554 C 420.665 0.651634 4.32519 0
M  V30 4555 C 419.724 -0.0813705 5.26137 0
M  V30 4556 O 418.75 0.537295 5.66658 0
M  V30 4557 N 419.952 -1.35992 5.64346 0
M  V30 4558 H 422.717 1.39865 2.65062 0
M  V30 4559 H 420.278 0.881196 1.35818 0
M  V30 4560 H 422.27 -0.758208 3.97534 0
M  V30 4561 H 420.84 -1.035 2.94968 0
M  V30 4562 H 420.06 1.33145 3.71034 0
M  V30 4563 H 421.348 1.27129 4.92662 0
M  V30 4564 H 420.746 -1.88368 5.33417 0
M  V30 4565 H 419.303 -1.8042 6.26332 0
M  V30 4566 N 422.737 -1.36956 0.779787 0
M  V30 4567 C 423.7 -2.2851 0.177662 0
M  V30 4568 C 424.7 -1.48393 -0.619377 0
M  V30 4569 O 425.89 -1.68505 -0.441785 0
M  V30 4570 C 423.022 -3.32428 -0.755279 0
M  V30 4571 H 424.215 -2.83269 0.984823 0
M  V30 4572 H 421.768 -1.46358 0.548544 0
M  V30 4573 H 422.503 -2.82808 -1.58714 0
M  V30 4574 H 422.288 -3.91659 -0.185817 0
M  V30 4575 H 423.778 -4.00824 -1.17174 0
M  V30 4576 N 424.215 -0.530993 -1.48385 0
M  V30 4577 C 425.148 0.278511 -2.26494 0
M  V30 4578 C 426.126 0.943905 -1.32398 0
M  V30 4579 O 427.31 0.968098 -1.61741 0
M  V30 4580 C 424.437 1.39453 -3.08659 0
M  V30 4581 C 423.483 0.840434 -4.18137 0
M  V30 4582 S 424.316 -0.292496 -5.34701 0
M  V30 4583 C 425.472 0.825973 -6.20426 0
M  V30 4584 H 425.705 -0.384365 -2.94805 0
M  V30 4585 H 423.238 -0.316799 -1.51115 0
M  V30 4586 H 425.196 2.03382 -3.56575 0
M  V30 4587 H 423.857 2.02913 -2.3976 0
M  V30 4588 H 423.05 1.67769 -4.75257 0
M  V30 4589 H 422.652 0.277819 -3.72967 0
M  V30 4590 H 424.944 1.72438 -6.55188 0
M  V30 4591 H 425.887 0.292728 -7.07495 0
M  V30 4592 H 426.295 1.10683 -5.53543 0
M  V30 4593 N 425.693 1.55336 -0.266172 0
M  V30 4594 C 426.918 2.04258 0.359661 0
M  V30 4595 C 427.343 1.14359 1.49344 0
M  V30 4596 O 426.701 0.140369 1.80756 0
M  V30 4597 C 426.749 3.50997 0.826635 0
M  V30 4598 O 425.853 3.64204 1.93466 0
M  V30 4599 H 425.194 0.659668 0.075727 0
M  V30 4600 H 427.724 2.00694 -0.39786 0
M  V30 4601 H 427.734 3.9219 1.12477 0
M  V30 4602 H 426.409 4.159 -0.00293032 0
M  V30 4603 H 424.986 3.34913 1.63974 0
M  V30 4604 N 427.171 -0.0066808 1.57599 0
M  V30 4605 C 428.101 -0.999296 2.11036 0
M  V30 4606 C 429.082 -1.36278 1.01795 0
M  V30 4607 O 430.267 -1.4477 1.29442 0
M  V30 4608 C 427.397 -2.29328 2.60818 0
M  V30 4609 C 426.351 -2.07159 3.74525 0
M  V30 4610 C 425.677 -3.42512 4.10596 0
M  V30 4611 C 426.977 -1.43959 5.02069 0
M  V30 4612 H 428.671 -0.554382 2.94223 0
M  V30 4613 H 426.217 -0.265221 1.41536 0
M  V30 4614 H 428.17 -2.99117 2.96828 0
M  V30 4615 H 426.894 -2.7592 1.74745 0
M  V30 4616 H 425.553 -1.39797 3.38899 0
M  V30 4617 H 425.201 -3.86795 3.21556 0
M  V30 4618 H 424.901 -3.28498 4.87199 0
M  V30 4619 H 426.425 -4.13628 4.4916 0
M  V30 4620 H 427.839 -2.03696 5.35893 0
M  V30 4621 H 426.236 -1.40452 5.83432 0
M  V30 4622 H 427.306 -0.407992 4.83181 0
M  V30 4623 N 428.649 -1.55105 -0.279332 0
M  V30 4624 C 429.612 -1.86783 -1.32834 0
M  V30 4625 C 430.612 -0.74199 -1.42657 0
M  V30 4626 O 431.802 -1.0102 -1.41918 0
M  V30 4627 C 428.934 -2.06746 -2.71052 0
M  V30 4628 H 430.127 -2.8055 -1.05979 0
M  V30 4629 H 427.68 -1.47499 -0.517087 0
M  V30 4630 H 428.415 -1.15339 -3.03097 0
M  V30 4631 H 428.2 -2.88711 -2.65309 0
M  V30 4632 H 429.69 -2.32549 -3.46858 0
M  V30 4633 N 430.127 0.543554 -1.4793 0
M  V30 4634 C 431.376 1.29649 -1.54512 0
M  V30 4635 C 431.689 1.94382 -0.217973 0
M  V30 4636 O 432.895 2.71017 -0.161908 0
M  V30 4637 C 431.351 2.35175 -2.72435 0
M  V30 4638 C 430.959 1.76572 -4.11736 0
M  V30 4639 C 432.703 3.11564 -2.8832 0
M  V30 4640 C 430.61 2.79958 -5.20939 0
M  V30 4641 H 429.54 0.487541 -0.57517 0
M  V30 4642 H 432.191 0.575708 -1.74235 0
M  V30 4643 H 430.573 3.10229 -2.46118 0
M  V30 4644 H 431.747 1.07799 -4.48013 0
M  V30 4645 H 430.062 1.12722 -4.00852 0
M  V30 4646 H 432.659 3.88794 -3.67074 0
M  V30 4647 H 433.002 3.66594 -1.97268 0
M  V30 4648 H 433.535 2.43623 -3.14472 0
M  V30 4649 H 430.274 2.29766 -6.13912 0
M  V30 4650 H 429.794 3.47101 -4.89164 0
M  V30 4651 H 431.473 3.43198 -5.48474 0
M  V30 4652 N 431.605 1.3629 0.791371 0
M  V30 4653 C 432.535 1.33137 1.91825 0
M  V30 4654 C 433.516 0.203168 1.68882 0
M  V30 4655 O 434.701 0.400509 1.90025 0
M  V30 4656 C 431.831 1.11793 3.28816 0
M  V30 4657 C 430.785 2.21417 3.66277 0
M  V30 4658 C 430.111 1.85218 5.01596 0
M  V30 4659 C 431.411 3.63489 3.75064 0
M  V30 4660 H 433.105 2.2743 1.9472 0
M  V30 4661 H 430.651 1.09479 0.935437 0
M  V30 4662 H 432.604 1.08222 4.07266 0
M  V30 4663 H 431.328 0.139501 3.26302 0
M  V30 4664 H 429.987 2.2411 2.90121 0
M  V30 4665 H 429.635 0.859544 4.95602 0
M  V30 4666 H 429.335 2.58611 5.27631 0
M  V30 4667 H 430.859 1.832 5.82469 0
M  V30 4668 H 432.273 3.63034 4.43711 0
M  V30 4669 H 430.67 4.35771 4.12582 0
M  V30 4670 H 431.74 3.98536 2.76219 0
M  V30 4671 N 433.083 -1.0153 1.20538 0
M  V30 4672 C 434.499 -1.27461 0.96051 0
M  V30 4673 C 434.699 -1.98273 -0.359193 0
M  V30 4674 O 433.755 -2.27886 -1.0874 0
M  V30 4675 C 435.068 -2.10837 2.14402 0
M  V30 4676 C 436.616 -2.24099 2.18515 0
M  V30 4677 C 437.091 -3.10852 3.36355 0
M  V30 4678 N 438.582 -3.18441 3.36377 0
M  V30 4679 C 439.317 -3.85795 4.24205 0
M  V30 4680 N 438.813 -4.55264 5.22213 0
M  V30 4681 N 440.606 -3.82331 4.12043 0
M  V30 4682 H 432.757 -0.539907 2.05423 0
M  V30 4683 H 435.02 -0.30092 0.898972 0
M  V30 4684 H 434.726 -1.66144 3.09983 0
M  V30 4685 H 434.6 -3.11576 2.12604 0
M  V30 4686 H 436.987 -2.68016 1.23497 0
M  V30 4687 H 437.068 -1.22865 2.24361 0
M  V30 4688 H 436.712 -2.6764 4.31661 0
M  V30 4689 H 436.642 -4.12177 3.27746 0
M  V30 4690 H 439.133 -2.68978 2.65442 0
M  V30 4691 H 439.446 -5.04331 5.85551 0
M  V30 4692 H 437.791 -4.54085 5.26148 0
M  V30 4693 H 440.982 -3.27207 3.34743 0
M  V30 4694 H 441.155 -4.34547 4.807 0
M  V30 4695 N 434.561 -1.01147 -1.20859 0
M  V30 4696 C 435.807 -0.698899 -1.90377 0
M  V30 4697 C 436.14 0.76904 -1.78324 0
M  V30 4698 O 435.415 1.55817 -1.16409 0
M  V30 4699 C 435.698 -1.12878 -3.41951 0
M  V30 4700 C 435.551 -2.65665 -3.62963 0
M  V30 4701 C 436.87 -0.696114 -4.3456 0
M  V30 4702 H 433.989 -0.255372 -0.691342 0
M  V30 4703 H 436.631 -1.25831 -1.42361 0
M  V30 4704 H 434.781 -0.652827 -3.82976 0
M  V30 4705 H 436.453 -3.21074 -3.31224 0
M  V30 4706 H 434.696 -3.06878 -3.06608 0
M  V30 4707 H 435.367 -2.90797 -4.69192 0
M  V30 4708 H 437.843 -1.10521 -4.01154 0
M  V30 4709 H 436.719 -1.025 -5.39245 0
M  V30 4710 H 436.98 0.402465 -4.40264 0
M  V30 4711 N 436.039 1.36541 -0.78704 0
M  V30 4712 C 437.288 1.98552 -0.35494 0
M  V30 4713 C 437.601 1.63171 1.07864 0
M  V30 4714 O 438.807 2.18399 1.61289 0
M  V30 4715 C 437.263 3.55136 -0.583671 0
M  V30 4716 C 436.871 3.99444 -2.02851 0
M  V30 4717 C 438.615 4.2395 -0.215957 0
M  V30 4718 C 436.522 5.48796 -2.20403 0
M  V30 4719 H 435.452 0.742888 -0.128972 0
M  V30 4720 H 438.103 1.5587 -0.968337 0
M  V30 4721 H 436.485 3.95875 0.0994046 0
M  V30 4722 H 437.659 3.6991 -2.74779 0
M  V30 4723 H 435.974 3.43459 -2.35425 0
M  V30 4724 H 438.571 5.33709 -0.325405 0
M  V30 4725 H 438.914 4.07827 0.835646 0
M  V30 4726 H 439.447 3.88565 -0.852175 0
M  V30 4727 H 436.186 5.69864 -3.23937 0
M  V30 4728 H 435.706 5.79964 -1.52977 0
M  V30 4729 H 437.385 6.14986 -2.01002 0
M  V30 4730 N 437.518 0.538854 1.48102 0
M  V30 4731 C 438.934 0.19732 1.58376 0
M  V30 4732 C 439.134 -1.29971 1.5398 0
M  V30 4733 O 438.19 -2.07861 1.43352 0
M  V30 4734 C 439.503 0.807716 2.89649 0
M  V30 4735 C 441.051 0.77726 3.03196 0
M  V30 4736 C 441.526 1.36639 4.37143 0
M  V30 4737 N 443.017 1.32875 4.43732 0
M  V30 4738 C 443.752 1.7544 5.45901 0
M  V30 4739 N 443.248 2.25776 6.54979 0
M  V30 4740 N 445.041 1.66623 5.36836 0
M  V30 4741 H 437.192 1.5117 1.49202 0
M  V30 4742 H 439.455 0.629327 0.708979 0
M  V30 4743 H 439.161 1.85909 2.98548 0
M  V30 4744 H 439.035 0.289975 3.76084 0
M  V30 4745 H 441.422 -0.265374 2.93904 0
M  V30 4746 H 441.503 1.33256 2.18349 0
M  V30 4747 H 441.147 2.408 4.47189 0
M  V30 4748 H 441.077 0.786689 5.20691 0
M  V30 4749 H 443.568 0.96037 3.65493 0
M  V30 4750 H 443.881 2.56226 7.29087 0
M  V30 4751 H 442.226 2.29775 6.55918 0
M  V30 4752 H 445.417 1.27089 4.50517 0
M  V30 4753 H 445.59 2.00115 6.16326 0
M  V30 4754 N 438.996 -1.55193 0.274407 0
M  V30 4755 C 439.926 -2.25471 -0.607032 0
M  V30 4756 C 440.907 -1.24461 -1.15946 0
M  V30 4757 O 442.092 -1.53179 -1.19373 0
M  V30 4758 C 439.222 -2.97526 -1.79153 0
M  V30 4759 C 438.176 -4.05459 -1.37067 0
M  V30 4760 C 437.502 -4.65084 -2.6382 0
M  V30 4761 C 438.802 -5.19691 -0.521389 0
M  V30 4762 H 440.496 -2.99393 -0.0209343 0
M  V30 4763 H 438.042 -1.43997 -0.00862866 0
M  V30 4764 H 439.995 -3.45402 -2.41404 0
M  V30 4765 H 438.719 -2.21138 -2.40344 0
M  V30 4766 H 437.378 -3.58393 -0.771355 0
M  V30 4767 H 437.026 -3.85365 -3.23268 0
M  V30 4768 H 436.726 -5.37961 -2.36372 0
M  V30 4769 H 438.25 -5.15708 -3.26921 0
M  V30 4770 H 439.664 -5.63623 -1.04889 0
M  V30 4771 H 438.061 -5.99126 -0.341825 0
M  V30 4772 H 439.131 -4.82713 0.46 0
M  V30 4773 N 440.474 -0.00167713 -1.576 0
M  V30 4774 C 441.72 0.683832 -1.90923 0
M  V30 4775 C 442.053 1.7333 -0.875799 0
M  V30 4776 O 441.328 1.94215 0.10525 0
M  V30 4777 C 441.611 1.32543 -3.3482 0
M  V30 4778 C 441.464 0.287387 -4.48881 0
M  V30 4779 C 442.783 2.25114 -3.78169 0
M  V30 4780 H 439.902 0.247125 -0.694333 0
M  V30 4781 H 442.544 -0.0533149 -1.89925 0
M  V30 4782 H 440.694 1.95372 -3.35801 0
M  V30 4783 H 442.366 -0.341346 -4.60035 0
M  V30 4784 H 440.609 -0.39017 -4.32042 0
M  V30 4785 H 441.28 0.775393 -5.46527 0
M  V30 4786 H 443.756 1.723 -3.7875 0
M  V30 4787 H 442.632 2.66971 -4.79602 0
M  V30 4788 H 442.893 3.13092 -3.12131 0
M  V30 4789 N 441.952 1.55251 0.271103 0
M  V30 4790 C 443.368 1.47133 0.618393 0
M  V30 4791 C 443.568 0.686994 1.89427 0
M  V30 4792 O 442.624 0.206609 2.51653 0
M  V30 4793 C 443.937 2.91361 0.743593 0
M  V30 4794 C 445.485 3.01587 0.837522 0
M  V30 4795 C 445.96 4.47073 0.994483 0
M  V30 4796 N 447.451 4.50909 1.05996 0
M  V30 4797 C 448.186 5.60698 1.20024 0
M  V30 4798 N 447.682 6.80348 1.30759 0
M  V30 4799 N 449.475 5.48444 1.23149 0
M  V30 4800 H 441.626 2.04698 -0.566784 0
M  V30 4801 H 443.889 0.928319 -0.192165 0
M  V30 4802 H 443.595 3.51483 -0.123493 0
M  V30 4803 H 443.469 3.40484 1.62328 0
M  V30 4804 H 445.856 2.4156 1.69507 0
M  V30 4805 H 445.937 2.55713 -0.0668086 0
M  V30 4806 H 445.581 5.07703 0.141582 0
M  V30 4807 H 445.511 4.90605 1.91349 0
M  V30 4808 H 448.002 3.6472 0.989316 0
M  V30 4809 H 448.315 7.59772 1.41303 0
M  V30 4810 H 446.66 6.83156 1.27761 0
M  V30 4811 H 449.851 4.53907 1.14394 0
M  V30 4812 H 450.024 6.34049 1.33738 0
M  V30 4813 N 443.43 -0.535701 1.48216 0
M  V30 4814 C 444.676 -1.29375 1.56173 0
M  V30 4815 C 445.009 -1.92804 0.232429 0
M  V30 4816 O 444.284 -1.78992 -0.761048 0
M  V30 4817 C 444.567 -2.38747 2.69577 0
M  V30 4818 C 444.42 -1.80046 4.12193 0
M  V30 4819 C 445.739 -3.40551 2.78771 0
M  V30 4820 H 442.858 -0.469027 0.568491 0
M  V30 4821 H 445.5 -0.597358 1.80365 0
M  V30 4822 H 443.65 -2.98147 2.4908 0
M  V30 4823 H 445.322 -1.24742 4.44114 0
M  V30 4824 H 443.565 -1.10609 4.19462 0
M  V30 4825 H 444.236 -2.59212 4.87353 0
M  V30 4826 H 446.712 -2.91099 2.97322 0
M  V30 4827 H 445.588 -4.1448 3.59857 0
M  V30 4828 H 445.849 -4.00746 1.86696 0
M  V30 4829 N 444.908 -1.36708 -0.784132 0
M  V30 4830 C 446.155 -1.31231 -1.54222 0
M  V30 4831 C 446.483 0.106864 -1.94206 0
M  V30 4832 O 445.738 1.07734 -1.63376 0
M  V30 4833 C 446.037 -2.18571 -2.82774 0
M  V30 4834 C 445.703 -3.67039 -2.61903 0
M  V30 4835 C 444.365 -4.07503 -2.55919 0
M  V30 4836 C 446.717 -4.61149 -2.4288 0
M  V30 4837 C 444.045 -5.40211 -2.28886 0
M  V30 4838 C 446.397 -5.94081 -2.17373 0
M  V30 4839 C 445.061 -6.33664 -2.09825 0
M  V30 4840 H 444.331 -0.48021 -0.56434 0
M  V30 4841 H 446.978 -1.68807 -0.904233 0
M  V30 4842 H 445.283 -1.73949 -3.51068 0
M  V30 4843 H 446.98 -2.11655 -3.40592 0
M  V30 4844 H 443.57 -3.34941 -2.67418 0
M  V30 4845 H 447.754 -4.30756 -2.46501 0
M  V30 4846 H 443.01 -5.69855 -2.21529 0
M  V30 4847 H 447.184 -6.66566 -2.01649 0
M  V30 4848 H 444.811 -7.36423 -1.88641 0
M  V30 4849 N 446.386 1.0089 -1.21074 0
M  V30 4850 C 447.802 1.2695 -0.967257 0
M  V30 4851 C 448.002 1.9846 0.348673 0
M  V30 4852 O 447.058 2.28459 1.0753 0
M  V30 4853 C 448.371 2.09697 -2.15517 0
M  V30 4854 C 449.919 2.22937 -2.197 0
M  V30 4855 C 450.394 3.09064 -3.37999 0
M  V30 4856 N 451.885 3.16653 -3.38061 0
M  V30 4857 C 452.62 3.8354 -4.26245 0
M  V30 4858 N 452.116 4.52488 -5.2462 0
M  V30 4859 N 453.909 3.80141 -4.14064 0
M  V30 4860 H 446.06 0.529005 -2.05707 0
M  V30 4861 H 448.323 0.296148 -0.900556 0
M  V30 4862 H 448.029 1.64497 -3.10859 0
M  V30 4863 H 447.903 3.10444 -2.14253 0
M  V30 4864 H 450.29 2.67357 -1.24916 0
M  V30 4865 H 450.371 1.21673 -2.2501 0
M  V30 4866 H 450.015 2.65347 -4.33074 0
M  V30 4867 H 449.945 4.10433 -3.29928 0
M  V30 4868 H 452.436 2.67566 -2.66865 0
M  V30 4869 H 452.749 5.01219 -5.88217 0
M  V30 4870 H 451.094 4.51288 -5.28549 0
M  V30 4871 H 454.285 3.25427 -3.36474 0
M  V30 4872 H 454.458 4.31992 -4.82998 0
M  V30 4873 N 447.864 1.01787 1.20321 0
M  V30 4874 C 449.113 0.703249 1.89043 0
M  V30 4875 C 449.426 -0.770445 1.79787 0
M  V30 4876 O 450.632 -1.19767 2.43656 0
M  V30 4877 C 449.088 1.20749 3.3904 0
M  V30 4878 C 448.696 2.70817 3.56878 0
M  V30 4879 C 450.44 0.968352 4.13308 0
M  V30 4880 C 448.347 3.14716 5.00708 0
M  V30 4881 H 447.277 0.259354 0.707991 0
M  V30 4882 H 449.928 1.23072 1.36108 0
M  V30 4883 H 448.31 0.607989 3.91305 0
M  V30 4884 H 449.484 3.36327 3.14993 0
M  V30 4885 H 447.799 2.92888 2.95983 0
M  V30 4886 H 450.396 1.27173 5.19356 0
M  V30 4887 H 450.739 -0.095149 4.16191 0
M  V30 4888 H 451.272 1.53129 3.67146 0
M  V30 4889 H 448.011 4.20347 5.02979 0
M  V30 4890 H 447.531 2.53927 5.43398 0
M  V30 4891 H 449.21 3.07426 5.69296 0
M  V30 4892 N 449.342 -1.36122 0.79427 0
M  V30 4893 C 450.589 -1.99111 0.368905 0
M  V30 4894 C 450.917 -1.63032 -1.0607 0
M  V30 4895 O 450.172 -0.879303 -1.74833 0
M  V30 4896 C 450.471 -3.5409 0.48527 0
M  V30 4897 C 450.137 -4.10003 1.87638 0
M  V30 4898 C 448.799 -4.24986 2.257 0
M  V30 4899 C 451.151 -4.40423 2.78706 0
M  V30 4900 C 448.479 -4.67701 3.54221 0
M  V30 4901 C 450.831 -4.84573 4.0666 0
M  V30 4902 C 449.495 -4.97761 4.44737 0
M  V30 4903 H 448.765 -0.7286 0.134992 0
M  V30 4904 H 451.412 -1.62534 1.01267 0
M  V30 4905 H 449.717 -3.91052 -0.241984 0
M  V30 4906 H 451.414 -4.00766 0.137109 0
M  V30 4907 H 448.004 -3.98784 1.57064 0
M  V30 4908 H 452.188 -4.28412 2.50553 0
M  V30 4909 H 447.444 -4.761 3.83587 0
M  V30 4910 H 451.618 -5.07074 4.77336 0
M  V30 4911 H 449.245 -5.30618 5.44379 0
M  V30 4912 N 450.82 -0.546701 -1.47814 0
M  V30 4913 C 451.767 0.206854 -2.29871 0
M  V30 4914 C 452.737 0.918235 -1.38411 0
M  V30 4915 O 453.922 0.915991 -1.67375 0
M  V30 4916 C 451.062 1.23746 -3.22151 0
M  V30 4917 C 450.175 0.533216 -4.28697 0
M  V30 4918 C 449.31 1.5482 -5.08138 0
M  V30 4919 C 448.349 0.828347 -6.06469 0
M  V30 4920 N 447.486 1.78966 -6.78908 0
M  V30 4921 H 452.326 -0.499037 -2.93792 0
M  V30 4922 H 449.863 -0.25793 -1.44821 0
M  V30 4923 H 451.821 1.84746 -3.74065 0
M  V30 4924 H 450.451 1.91151 -2.60117 0
M  V30 4925 H 449.503 -0.191089 -3.7992 0
M  V30 4926 H 450.815 -0.0311987 -4.9879 0
M  V30 4927 H 449.969 2.23202 -5.6415 0
M  V30 4928 H 448.708 2.14652 -4.37922 0
M  V30 4929 H 447.713 0.130539 -5.49645 0
M  V30 4930 H 448.938 0.235907 -6.7869 0
M  V30 4931 H 446.884 2.37675 -6.1143 0
M  V30 4932 H 446.801 1.27712 -7.45135 0
M  V30 4933 H 448.069 2.46496 -7.395 0
M  V30 4934 N 452.299 1.55045 -0.282633 0
M  V30 4935 C 453.229 2.2579 0.595066 0
M  V30 4936 C 454.21 1.25074 1.15284 0
M  V30 4937 O 455.395 1.5381 1.18559 0
M  V30 4938 C 452.525 2.98472 1.77572 0
M  V30 4939 C 451.479 4.0618 1.34914 0
M  V30 4940 C 450.805 4.66477 2.6135 0
M  V30 4941 C 452.105 5.1996 0.493821 0
M  V30 4942 H 453.799 2.994 0.00505653 0
M  V30 4943 H 451.345 1.44 0.000992001 0
M  V30 4944 H 453.298 3.46677 2.39568 0
M  V30 4945 H 452.022 2.2241 2.39168 0
M  V30 4946 H 450.681 3.58797 0.752338 0
M  V30 4947 H 450.329 3.87074 3.2122 0
M  V30 4948 H 450.029 5.39207 2.33516 0
M  V30 4949 H 451.553 5.17435 3.24181 0
M  V30 4950 H 452.967 5.64172 1.01898 0
M  V30 4951 H 451.364 5.99299 0.310047 0
M  V30 4952 H 452.434 4.82462 -0.485593 0
M  V30 4953 N 453.777 0.010035 1.57597 0
M  V30 4954 C 455.002 -0.687021 1.95691 0
M  V30 4955 C 455.427 -1.65952 0.885519 0
M  V30 4956 O 454.785 -1.80633 -0.15543 0
M  V30 4957 C 454.833 -1.3864 3.32884 0
M  V30 4958 O 453.937 -2.50115 3.27897 0
M  V30 4959 H 453.278 -0.181989 0.638573 0
M  V30 4960 H 455.808 0.0662122 2.04493 0
M  V30 4961 H 455.818 -1.74754 3.6868 0
M  V30 4962 H 454.493 -0.673411 4.10412 0
M  V30 4963 H 453.07 -2.16253 3.03791 0
M  V30 4964 N 455.255 -1.55392 -0.262866 0
M  V30 4965 C 456.671 -1.47459 -0.610582 0
M  V30 4966 C 456.871 -0.697031 -1.8906 0
M  V30 4967 O 455.927 -0.219952 -2.5154 0
M  V30 4968 C 457.24 -2.91751 -0.728131 0
M  V30 4969 C 458.788 -3.02027 -0.821517 0
M  V30 4970 C 459.263 -4.47594 -0.97076 0
M  V30 4971 N 460.754 -4.51465 -1.03603 0
M  V30 4972 C 461.489 -5.61326 -1.17049 0
M  V30 4973 N 460.985 -6.81032 -1.2715 0
M  V30 4974 N 462.778 -5.49089 -1.20239 0
M  V30 4975 H 454.929 -2.04395 0.577632 0
M  V30 4976 H 457.192 -0.927287 0.197086 0
M  V30 4977 H 456.898 -3.51413 0.142132 0
M  V30 4978 H 456.772 -3.4134 -1.6052 0
M  V30 4979 H 459.159 -2.42456 -1.68224 0
M  V30 4980 H 459.24 -2.55674 0.0803688 0
M  V30 4981 H 458.884 -5.07771 -0.114655 0
M  V30 4982 H 458.814 -4.91613 -1.88745 0
M  V30 4983 H 461.305 -3.6524 -0.96996 0
M  V30 4984 H 461.618 -7.60511 -1.37271 0
M  V30 4985 H 459.963 -6.83824 -1.24136 0
M  V30 4986 H 463.154 -4.54507 -1.11985 0
M  V30 4987 H 463.327 -6.34749 -1.30373 0
M  V30 4988 N 456.733 0.527833 -1.48498 0
M  V30 4989 C 457.683 1.62844 -1.5958 0
M  V30 4990 C 458.667 1.54397 -0.452809 0
M  V30 4991 O 459.859 1.62381 -0.704364 0
M  V30 4992 C 456.988 3.01557 -1.64067 0
M  V30 4993 C 456.074 3.151 -2.83853 0
M  V30 4994 N 456.465 2.9861 -4.08247 0
M  V30 4995 C 454.763 3.46158 -2.8123 0
M  V30 4996 C 455.464 3.15626 -4.88626 0
M  V30 4997 N 454.44 3.43298 -4.21483 0
M  V30 4998 H 458.242 1.48708 -2.53502 0
M  V30 4999 H 455.756 0.733343 -1.44899 0
M  V30 5000 H 457.753 3.8062 -1.70101 0
M  V30 5001 H 456.413 3.16783 -0.712636 0
M  V30 5002 H 457.424 2.75329 -4.3865 0
M  V30 5003 H 454.101 3.67728 -1.97692 0
M  V30 5004 H 455.491 3.07596 -5.97356 0
M  V30 5005 N 458.211 1.37122 0.776871 0
M  V30 5006 C 459.436 1.354 1.57104 0
M  V30 5007 C 459.861 -0.0595562 1.88006 0
M  V30 5008 O 459.219 -1.03514 1.48844 0
M  V30 5009 C 459.267 2.19472 2.8612 0
M  V30 5010 O 458.371 1.59582 3.80273 0
M  V30 5011 H 457.712 0.462869 0.476076 0
M  V30 5012 H 460.242 1.80577 0.961932 0
M  V30 5013 H 460.252 2.32502 3.35271 0
M  V30 5014 H 458.927 3.22222 2.62956 0
M  V30 5015 H 457.504 1.55564 3.38902 0
M  V30 5016 N 459.689 -1.00246 1.21608 0
M  V30 5017 C 460.636 -2.09073 0.977613 0
M  V30 5018 C 461.606 -1.65815 -0.097297 0
M  V30 5019 O 462.791 -1.90734 0.0503445 0
M  V30 5020 C 459.931 -3.40671 0.551133 0
M  V30 5021 C 459.044 -3.97326 1.69576 0
M  V30 5022 C 458.179 -5.17043 1.2182 0
M  V30 5023 C 457.218 -5.65813 2.335 0
M  V30 5024 N 456.355 -6.76778 1.86859 0
M  V30 5025 H 461.195 -2.28806 1.90924 0
M  V30 5026 H 458.732 -1.12186 0.951452 0
M  V30 5027 H 460.69 -4.16225 0.285097 0
M  V30 5028 H 459.32 -3.20967 -0.343489 0
M  V30 5029 H 458.372 -3.18734 2.07637 0
M  V30 5030 H 459.684 -4.29511 2.53617 0
M  V30 5031 H 458.838 -5.99852 0.908975 0
M  V30 5032 H 457.577 -4.86458 0.347869 0
M  V30 5033 H 456.582 -4.81599 2.65222 0
M  V30 5034 H 457.807 -5.98427 3.21033 0
M  V30 5035 H 455.753 -6.47994 1.02174 0
M  V30 5036 H 455.67 -7.08231 2.64471 0
M  V30 5037 H 456.938 -7.63116 1.58978 0
M  V30 5038 N 461.167 -1.02423 -1.1978 0
M  V30 5039 C 462.415 -0.716569 -1.8897 0
M  V30 5040 C 462.736 0.756769 -1.79716 0
M  V30 5041 O 462.006 1.5449 -1.20456 0
M  V30 5042 H 460.586 -0.262062 -0.699523 0
M  V30 5043 H 463.248 -1.29747 -1.45436 0
M  V30 5044 H 462.344 -1.00675 -2.95417 0
M  V30 5045 N 462.645 1.35699 -0.801477 0
M  V30 5046 C 463.575 2.32436 -0.222658 0
M  V30 5047 C 464.556 1.5723 0.649057 0
M  V30 5048 O 465.741 1.85324 0.580387 0
M  V30 5049 C 462.871 3.41469 0.633719 0
M  V30 5050 C 461.825 4.27774 -0.139083 0
M  V30 5051 C 461.151 5.28082 0.838666 0
M  V30 5052 C 462.451 5.04946 -1.33517 0
M  V30 5053 H 464.145 2.81094 -1.03086 0
M  V30 5054 H 461.691 1.35146 -0.497155 0
M  V30 5055 H 463.644 4.08143 1.04868 0
M  V30 5056 H 462.368 2.91408 1.47475 0
M  V30 5057 H 461.027 3.62673 -0.535156 0
M  V30 5058 H 460.675 4.7429 1.67506 0
M  V30 5059 H 460.375 5.86695 0.32594 0
M  V30 5060 H 461.899 5.97628 1.25194 0
M  V30 5061 H 463.313 5.64593 -0.995349 0
M  V30 5062 H 461.71 5.7303 -1.78202 0
M  V30 5063 H 462.78 4.35886 -2.12442 0
M  V30 5064 N 464.123 0.554532 1.47522 0
M  V30 5065 C 465.055 -0.232106 2.28022 0
M  V30 5066 C 466.068 -0.881865 1.36847 0
M  V30 5067 O 467.257 -0.756168 1.61692 0
M  V30 5068 C 464.357 -1.34604 3.11022 0
M  V30 5069 C 463.53 -0.793582 4.30141 0
M  V30 5070 C 462.589 -1.79168 4.94758 0
M  V30 5071 O 461.615 -1.33886 5.5323 0
M  V30 5072 N 462.817 -3.12495 4.89211 0
M  V30 5073 H 465.582 0.458407 2.96173 0
M  V30 5074 H 463.143 0.390433 1.57122 0
M  V30 5075 H 465.135 -2.01243 3.51118 0
M  V30 5076 H 463.705 -1.93983 2.45131 0
M  V30 5077 H 462.925 0.0495025 3.94169 0
M  V30 5078 H 464.213 -0.403776 5.07195 0
M  V30 5079 H 463.611 -3.51931 4.42901 0
M  V30 5080 H 462.168 -3.74698 5.33333 0
M  V30 5081 N 465.601 -1.54893 0.290851 0
M  V30 5082 C 466.85 -1.99111 -0.322113 0
M  V30 5083 C 467.163 -1.18283 -1.55784 0
M  V30 5084 O 468.369 -1.5272 -2.24475 0
M  V30 5085 C 466.825 -3.54442 -0.624438 0
M  V30 5086 C 466.433 -4.44066 0.592373 0
M  V30 5087 C 468.177 -4.07211 -1.19916 0
M  V30 5088 C 466.084 -5.90812 0.263762 0
M  V30 5089 H 465.014 -0.743712 -0.124133 0
M  V30 5090 H 467.665 -1.79132 0.39797 0
M  V30 5091 H 466.047 -3.70281 -1.40384 0
M  V30 5092 H 467.221 -4.39999 1.36886 0
M  V30 5093 H 465.536 -4.02015 1.08502 0
M  V30 5094 H 468.133 -5.14407 -1.45909 0
M  V30 5095 H 468.476 -3.57196 -2.13815 0
M  V30 5096 H 469.009 -3.94873 -0.481687 0
M  V30 5097 H 465.748 -6.44955 1.17105 0
M  V30 5098 H 465.268 -5.97911 -0.475655 0
M  V30 5099 H 466.947 -6.46852 -0.138354 0
M  V30 5100 N 467.08 -0.0183926 -1.57589 0
M  V30 5101 C 468.01 0.965596 -2.12599 0
M  V30 5102 C 468.991 1.34641 -1.0395 0
M  V30 5103 O 470.176 1.42693 -1.31729 0
M  V30 5104 C 467.306 2.25149 -2.64434 0
M  V30 5105 C 466.26 2.01175 -3.77773 0
M  V30 5106 C 465.586 3.35937 -4.15994 0
M  V30 5107 C 466.886 1.35953 -5.04296 0
M  V30 5108 H 468.58 0.507504 -2.95067 0
M  V30 5109 H 466.126 0.242671 -1.41941 0
M  V30 5110 H 468.079 2.94357 -3.01549 0
M  V30 5111 H 466.803 2.73105 -1.79112 0
M  V30 5112 H 465.462 1.34388 -3.4108 0
M  V30 5113 H 465.11 3.81631 -3.27669 0
M  V30 5114 H 464.81 3.20705 -4.92364 0
M  V30 5115 H 466.334 4.0643 -4.55683 0
M  V30 5116 H 467.748 1.95144 -5.39065 0
M  V30 5117 H 466.145 1.31152 -5.85593 0
M  V30 5118 H 467.215 0.331071 -4.83768 0
M  V30 5119 N 468.558 1.5553 0.254621 0
M  V30 5120 C 469.806 1.7665 0.981793 0
M  V30 5121 C 470.127 0.580963 1.86145 0
M  V30 5122 O 469.397 -0.403537 1.91699 0
M  V30 5123 H 467.977 0.651475 0.365498 0
M  V30 5124 H 470.639 1.92958 0.274426 0
M  V30 5125 H 469.735 2.67486 1.60802 0
M  V30 5126 N 470.036 -0.519951 1.48776 0
M  V30 5127 C 470.968 -1.63973 1.60142 0
M  V30 5128 C 471.981 -1.55404 0.485117 0
M  V30 5129 O 473.17 -1.61682 0.756391 0
M  V30 5130 C 470.27 -3.02676 1.52449 0
M  V30 5131 C 469.443 -3.36624 2.79291 0
M  V30 5132 C 468.502 -4.54652 2.64912 0
M  V30 5133 O 467.528 -4.57374 3.38818 0
M  V30 5134 N 468.73 -5.53432 1.75195 0
M  V30 5135 H 471.495 -1.54656 2.56713 0
M  V30 5136 H 469.056 -0.707439 1.45626 0
M  V30 5137 H 471.048 -3.79525 1.4051 0
M  V30 5138 H 469.618 -3.06018 0.638125 0
M  V30 5139 H 468.838 -2.48855 3.0572 0
M  V30 5140 H 470.126 -3.56094 3.6342 0
M  V30 5141 H 469.524 -5.54018 1.14371 0
M  V30 5142 H 468.081 -6.29459 1.69189 0
M  V30 5143 N 471.514 -1.37532 -0.769588 0
M  V30 5144 C 472.742 -1.36059 -1.55871 0
M  V30 5145 C 473.157 0.053544 -1.88724 0
M  V30 5146 O 472.514 1.01591 -1.5161 0
M  V30 5147 C 472.565 -2.20107 -2.86767 0
M  V30 5148 O 472.286 -3.56009 -2.55321 0
M  V30 5149 C 473.787 -2.26636 -3.80987 0
M  V30 5150 H 471.007 -0.465967 -0.482821 0
M  V30 5151 H 473.551 -1.80901 -0.953686 0
M  V30 5152 H 471.706 -1.78768 -3.43687 0
M  V30 5153 H 472.12 -4.0009 -3.39158 0
M  V30 5154 H 473.594 -2.89763 -4.69831 0
M  V30 5155 H 474.071 -1.2754 -4.20274 0
M  V30 5156 H 474.677 -2.68296 -3.29996 0
M  V30 5157 N 472.992 0.995999 -1.22138 0
M  V30 5158 C 473.922 2.10387 -1.01289 0
M  V30 5159 C 474.903 1.69975 0.0651454 0
M  V30 5160 O 476.088 1.9396 -0.0964628 0
M  V30 5161 C 473.218 3.42312 -0.586517 0
M  V30 5162 C 472.172 3.96558 -1.61014 0
M  V30 5163 C 471.498 5.24494 -1.0397 0
M  V30 5164 C 472.798 4.27595 -2.99933 0
M  V30 5165 H 474.492 2.28086 -1.93951 0
M  V30 5166 H 472.038 1.09607 -0.933928 0
M  V30 5167 H 473.991 4.19223 -0.427793 0
M  V30 5168 H 472.715 3.24431 0.375761 0
M  V30 5169 H 471.374 3.21776 -1.75658 0
M  V30 5170 H 471.022 5.02953 -0.0688703 0
M  V30 5171 H 470.722 5.61755 -1.72352 0
M  V30 5172 H 472.246 6.04042 -0.892494 0
M  V30 5173 H 473.66 4.95315 -2.8868 0
M  V30 5174 H 472.057 4.76021 -3.6541 0
M  V30 5175 H 473.127 3.35498 -3.50099 0
M  V30 5176 N 474.47 1.03057 1.19235 0
M  V30 5177 C 475.417 0.612832 2.22515 0
M  V30 5178 C 476.387 -0.374224 1.61829 0
M  V30 5179 O 477.572 -0.270501 1.88873 0
M  V30 5180 C 474.712 -0.028475 3.45088 0
M  V30 5181 C 473.825 1.00483 4.20151 0
M  V30 5182 C 472.96 0.333102 5.30155 0
M  V30 5183 C 471.999 1.3522 5.96977 0
M  V30 5184 N 471.136 0.70616 6.9854 0
M  V30 5185 H 475.976 1.49812 2.57605 0
M  V30 5186 H 473.513 0.749658 1.26564 0
M  V30 5187 H 475.471 -0.417548 4.15105 0
M  V30 5188 H 474.101 -0.877334 3.10649 0
M  V30 5189 H 473.153 1.51194 3.49062 0
M  V30 5190 H 474.465 1.77929 4.65986 0
M  V30 5191 H 473.619 -0.110725 6.06599 0
M  V30 5192 H 472.358 -0.473547 4.85396 0
M  V30 5193 H 471.363 1.80627 5.19282 0
M  V30 5194 H 472.588 2.16037 6.4382 0
M  V30 5195 H 470.534 -0.0803667 6.55951 0
M  V30 5196 H 470.451 1.41848 7.42573 0
M  V30 5197 H 471.719 0.286391 7.78974 0
M  V30 5198 N 475.948 -1.35272 0.808662 0
M  V30 5199 C 476.911 -2.28082 0.226093 0
M  V30 5200 C 477.911 -1.49673 -0.587762 0
M  V30 5201 O 479.101 -1.69404 -0.405943 0
M  V30 5202 C 476.233 -3.33955 -0.684596 0
M  V30 5203 H 477.426 -2.81116 1.04469 0
M  V30 5204 H 474.979 -1.45162 0.579466 0
M  V30 5205 H 475.714 -2.86111 -1.5268 0
M  V30 5206 H 475.499 -3.91965 -0.102699 0
M  V30 5207 H 476.989 -4.03219 -1.08646 0
M  V30 5208 N 477.426 -0.562348 -1.47226 0
M  V30 5209 C 478.651 -0.0432632 -2.07355 0
M  V30 5210 C 479.076 1.24332 -1.41149 0
M  V30 5211 O 478.434 1.74603 -0.488226 0
M  V30 5212 C 478.482 0.130288 -3.60365 0
M  V30 5213 O 477.586 1.19166 -3.94808 0
M  V30 5214 H 476.927 -0.0536334 -0.66183 0
M  V30 5215 H 479.457 -0.779495 -1.89169 0
M  V30 5216 H 479.467 0.342881 -4.06557 0
M  V30 5217 H 478.142 -0.809389 -4.07948 0
M  V30 5218 H 476.719 0.959153 -3.60354 0
M  V30 5219 N 478.904 1.54736 -0.299062 0
M  V30 5220 C 479.837 2.1962 0.619851 0
M  V30 5221 C 480.815 1.16496 1.13434 0
M  V30 5222 O 481.999 1.4513 1.2029 0
M  V30 5223 C 479.126 2.8385 1.84788 0
M  V30 5224 C 478.172 4.00484 1.46679 0
M  V30 5225 S 479.005 5.32926 0.524389 0
M  V30 5226 C 480.161 6.00638 1.76026 0
M  V30 5227 H 480.394 2.97221 0.0686177 0
M  V30 5228 H 477.927 1.54176 -0.0832085 0
M  V30 5229 H 479.885 3.21483 2.55263 0
M  V30 5230 H 478.546 2.06099 2.37028 0
M  V30 5231 H 477.739 4.44201 2.38121 0
M  V30 5232 H 477.341 3.64398 0.842008 0
M  V30 5233 H 479.633 6.21327 2.70109 0
M  V30 5234 H 480.576 6.94805 1.36569 0
M  V30 5235 H 480.984 5.3026 1.93609 0
M  V30 5236 N 480.382 0.0267497 1.57577 0
M  V30 5237 C 481.798 -0.32962 1.56159 0
M  V30 5238 C 481.998 -1.73059 1.03213 0
M  V30 5239 O 481.054 -2.43233 0.677804 0
M  V30 5240 C 482.367 -0.18039 3.00158 0
M  V30 5241 C 483.915 -0.253334 3.11973 0
M  V30 5242 C 484.39 -0.132921 4.57807 0
M  V30 5243 N 485.881 -0.189979 4.6281 0
M  V30 5244 C 486.616 -0.120554 5.73273 0
M  V30 5245 N 486.112 -0.000180315 6.928 0
M  V30 5246 N 487.905 -0.174369 5.61829 0
M  V30 5247 H 480.056 0.942896 1.90324 0
M  V30 5248 H 482.319 0.3639 0.875375 0
M  V30 5249 H 482.025 0.784576 3.42837 0
M  V30 5250 H 481.899 -0.951565 3.65 0
M  V30 5251 H 484.286 -1.20876 2.69208 0
M  V30 5252 H 484.367 0.548177 2.49857 0
M  V30 5253 H 484.011 0.819073 5.01252 0
M  V30 5254 H 483.941 -0.953264 5.179 0
M  V30 5255 H 486.432 -0.283257 3.76837 0
M  V30 5256 H 486.745 0.0461666 7.72786 0
M  V30 5257 H 485.09 0.034569 6.94991 0
M  V30 5258 H 488.281 -0.266794 4.67339 0
M  V30 5259 H 488.454 -0.116802 6.47895 0
M  V30 5260 N 481.861 -1.55662 -0.24637 0
M  V30 5261 C 482.771 -1.93495 -1.32653 0
M  V30 5262 C 483.787 -0.835462 -1.5263 0
M  V30 5263 O 484.963 -1.1369 -1.66242 0
M  V30 5264 C 482.028 -2.22242 -2.66101 0
M  V30 5265 C 481.089 -3.45625 -2.54641 0
M  V30 5266 C 480.322 -3.72991 -3.81724 0
M  V30 5267 O 480.545 -3.02421 -4.8363 0
M  V30 5268 O 479.479 -4.66515 -3.80325 0
M  V30 5269 H 483.305 -2.85498 -1.03559 0
M  V30 5270 H 480.89 -1.42551 -0.44717 0
M  V30 5271 H 482.772 -2.42037 -3.44958 0
M  V30 5272 H 481.447 -1.33417 -2.94926 0
M  V30 5273 H 480.354 -3.31136 -1.74067 0
M  V30 5274 H 481.687 -4.34754 -2.3076 0
M  V30 5275 N 483.339 0.512053 -1.4905 0
M  V30 5276 C 484.269 1.62365 -1.67809 0
M  V30 5277 C 485.25 1.61737 -0.526809 0
M  V30 5278 O 486.435 1.78651 -0.761404 0
M  V30 5279 C 483.565 3.00895 -1.73435 0
M  V30 5280 C 482.519 3.16387 -2.88242 0
M  V30 5281 C 481.845 4.56157 -2.78971 0
M  V30 5282 C 483.145 2.97457 -4.29321 0
M  V30 5283 H 484.839 1.46921 -2.60873 0
M  V30 5284 H 482.385 0.705379 -1.2554 0
M  V30 5285 H 484.338 3.78549 -1.85145 0
M  V30 5286 H 483.062 3.17403 -0.769619 0
M  V30 5287 H 481.721 2.41155 -2.76116 0
M  V30 5288 H 481.369 4.69525 -1.8043 0
M  V30 5289 H 481.069 4.67465 -3.5602 0
M  V30 5290 H 482.593 5.35886 -2.92675 0
M  V30 5291 H 484.007 3.64888 -4.42187 0
M  V30 5292 H 482.404 3.20245 -5.07507 0
M  V30 5293 H 483.474 1.93692 -4.44535 0
M  V30 5294 N 484.817 1.37938 0.762283 0
M  V30 5295 C 486.065 1.33404 1.51815 0
M  V30 5296 C 486.386 -0.0780975 1.94844 0
M  V30 5297 O 485.656 -1.02405 1.67003 0
M  V30 5298 H 484.236 0.490839 0.563104 0
M  V30 5299 H 486.898 1.72527 0.906669 0
M  V30 5300 H 485.994 1.97926 2.41313 0
M  V30 5301 N 486.295 -0.989507 1.22664 0
M  V30 5302 C 487.225 -2.09847 1.02404 0
M  V30 5303 C 488.206 -1.70007 -0.0561303 0
M  V30 5304 O 489.391 -1.93906 0.106748 0
M  V30 5305 C 486.521 -3.41996 0.604663 0
M  V30 5306 C 485.475 -3.95699 1.63115 0
M  V30 5307 C 484.801 -5.23936 1.0675 0
M  V30 5308 C 486.101 -4.25999 3.02196 0
M  V30 5309 H 487.795 -2.27054 1.95158 0
M  V30 5310 H 485.341 -1.09111 0.939727 0
M  V30 5311 H 487.294 -4.1899 0.45002 0
M  V30 5312 H 486.018 -3.24626 -0.35855 0
M  V30 5313 H 484.677 -3.2084 1.77362 0
M  V30 5314 H 484.325 -5.02909 0.0955422 0
M  V30 5315 H 484.025 -5.60833 1.75328 0
M  V30 5316 H 485.549 -6.0356 0.924516 0
M  V30 5317 H 486.963 -4.93777 2.91303 0
M  V30 5318 H 485.36 -4.74076 3.67929 0
M  V30 5319 H 486.43 -3.33636 3.51873 0
M  V30 5320 N 487.773 -1.03688 -1.18687 0
M  V30 5321 C 488.703 -0.645407 -2.24403 0
M  V30 5322 C 489.684 0.349511 -1.66471 0
M  V30 5323 O 490.869 0.230453 -1.92828 0
M  V30 5324 C 487.999 -0.00365337 -3.473 0
M  V30 5325 C 486.953 -0.921705 -4.17958 0
M  V30 5326 C 486.279 -0.144629 -5.34504 0
M  V30 5327 C 487.579 -2.23909 -4.71871 0
M  V30 5328 H 489.273 -1.52917 -2.57404 0
M  V30 5329 H 486.819 -0.736711 -1.23728 0
M  V30 5330 H 488.772 0.281908 -4.20456 0
M  V30 5331 H 487.496 0.914963 -3.13522 0
M  V30 5332 H 486.155 -1.19159 -3.46694 0
M  V30 5333 H 485.803 0.776274 -4.96974 0
M  V30 5334 H 485.503 -0.756206 -5.82714 0
M  V30 5335 H 487.027 0.134004 -6.10453 0
M  V30 5336 H 488.441 -2.0145 -5.36741 0
M  V30 5337 H 486.838 -2.8033 -5.30599 0
M  V30 5338 H 487.908 -2.88822 -3.895 0
M  V30 5339 N 489.251 1.34841 -0.815825 0
M  V30 5340 C 490.5 1.97755 -0.396976 0
M  V30 5341 C 490.813 1.65422 1.04379 0
M  V30 5342 O 492.019 2.21771 1.5662 0
M  V30 5343 C 490.475 3.53818 -0.658869 0
M  V30 5344 C 490.083 3.95051 -2.11278 0
M  V30 5345 C 491.827 4.23397 -0.305834 0
M  V30 5346 C 489.734 5.43997 -2.31994 0
M  V30 5347 H 488.664 0.739985 -0.1447 0
M  V30 5348 H 491.315 1.53781 -1.00118 0
M  V30 5349 H 489.697 3.95997 0.0154112 0
M  V30 5350 H 490.871 3.63998 -2.82564 0
M  V30 5351 H 489.186 3.38388 -2.42657 0
M  V30 5352 H 491.783 5.32899 -0.43854 0
M  V30 5353 H 492.126 4.09508 0.748952 0
M  V30 5354 H 492.659 3.8667 -0.934403 0
M  V30 5355 H 489.398 5.62865 -3.35952 0
M  V30 5356 H 488.918 5.76589 -1.65244 0
M  V30 5357 H 490.597 6.10584 -2.14001 0
M  V30 5358 N 490.729 0.570148 1.46925 0
M  V30 5359 C 491.976 0.0509529 2.02436 0
M  V30 5360 C 492.304 -1.30405 1.44308 0
M  V30 5361 O 491.559 -1.86493 0.593198 0
M  V30 5362 C 491.858 -0.0780336 3.57315 0
M  V30 5363 C 491.524 1.20775 4.34424 0
M  V30 5364 C 490.186 1.56004 4.5521 0
M  V30 5365 C 492.538 2.0592 4.78797 0
M  V30 5366 C 489.866 2.76201 5.17619 0
M  V30 5367 C 492.218 3.25332 5.42533 0
M  V30 5368 C 490.882 3.60859 5.61549 0
M  V30 5369 H 490.152 0.018645 0.740765 0
M  V30 5370 H 492.799 0.744262 1.76445 0
M  V30 5371 H 491.104 -0.854394 3.82371 0
M  V30 5372 H 492.801 -0.495312 3.97929 0
M  V30 5373 H 489.391 0.923469 4.18533 0
M  V30 5374 H 493.575 1.80008 4.62505 0
M  V30 5375 H 488.831 3.0388 5.30535 0
M  V30 5376 H 493.005 3.91586 5.75876 0
M  V30 5377 H 490.632 4.54088 6.09678 0
M  V30 5378 N 492.207 -1.54576 0.307264 0
M  V30 5379 C 493.454 -2.00263 -0.300167 0
M  V30 5380 C 493.782 -1.19561 -1.53413 0
M  V30 5381 O 493.037 -0.261487 -1.93945 0
M  V30 5382 C 493.336 -3.50572 -0.695253 0
M  V30 5383 C 493.002 -4.48771 0.437679 0
M  V30 5384 C 491.664 -4.7534 0.748681 0
M  V30 5385 C 494.016 -5.0721 1.19949 0
M  V30 5386 C 491.344 -5.5761 1.8245 0
M  V30 5387 C 493.696 -5.90651 2.26527 0
M  V30 5388 C 492.36 -6.15528 2.58227 0
M  V30 5389 H 491.63 -0.732814 -0.109839 0
M  V30 5390 H 494.277 -1.86664 0.427661 0
M  V30 5391 H 492.582 -3.61814 -1.50326 0
M  V30 5392 H 494.279 -3.83352 -1.17653 0
M  V30 5393 H 490.869 -4.282 0.185187 0
M  V30 5394 H 495.053 -4.86679 0.972474 0
M  V30 5395 H 490.309 -5.75121 2.07476 0
M  V30 5396 H 494.483 -6.34957 2.86011 0
M  V30 5397 H 492.11 -6.79066 3.4172 0
M  V30 5398 N 493.685 -0.035106 -1.57561 0
M  V30 5399 C 494.615 0.942993 -2.13612 0
M  V30 5400 C 495.596 1.33531 -1.05373 0
M  V30 5401 O 496.781 1.41287 -1.33235 0
M  V30 5402 C 493.911 2.22332 -2.66807 0
M  V30 5403 C 492.865 1.97156 -3.79886 0
M  V30 5404 C 492.191 3.31506 -4.19533 0
M  V30 5405 C 493.491 1.30596 -5.05709 0
M  V30 5406 H 495.185 0.476179 -2.95589 0
M  V30 5407 H 492.731 0.227602 -1.4219 0
M  V30 5408 H 494.684 2.91142 -3.04654 0
M  V30 5409 H 493.408 2.7119 -1.81999 0
M  V30 5410 H 492.067 1.30763 -3.42486 0
M  V30 5411 H 491.715 3.78134 -3.31698 0
M  V30 5412 H 491.415 3.15465 -4.95738 0
M  V30 5413 H 492.939 4.01574 -4.59968 0
M  V30 5414 H 494.353 1.89416 -5.41105 0
M  V30 5415 H 492.75 1.24934 -5.86951 0
M  V30 5416 H 493.82 0.279742 -4.84092 0
M  V30 5417 N 495.163 1.55791 0.238111 0
M  V30 5418 C 496.41 1.78033 0.964907 0
M  V30 5419 C 496.738 0.600984 1.84982 0
M  V30 5420 O 495.993 -0.41536 1.91241 0
M  V30 5421 C 496.292 3.05869 1.84875 0
M  V30 5422 C 495.958 4.36808 1.11846 0
M  V30 5423 C 494.62 4.72388 0.916662 0
M  V30 5424 C 496.972 5.17717 0.60151 0
M  V30 5425 C 494.3 5.86406 0.185756 0
M  V30 5426 C 496.652 6.32494 -0.115972 0
M  V30 5427 C 495.316 6.66688 -0.329168 0
M  V30 5428 H 494.586 0.651469 0.353085 0
M  V30 5429 H 497.233 1.90061 0.234318 0
M  V30 5430 H 495.538 2.88891 2.64668 0
M  V30 5431 H 497.235 3.20278 2.41294 0
M  V30 5432 H 493.825 4.08862 1.28569 0
M  V30 5433 H 498.009 4.90678 0.744932 0
M  V30 5434 H 493.265 6.11399 0.0101886 0
M  V30 5435 H 497.439 6.94425 -0.524127 0
M  V30 5436 H 495.066 7.54884 -0.897474 0
M  V30 5437 N 496.642 -0.504142 1.49319 0
M  V30 5438 C 497.891 -1.25507 1.57895 0
M  V30 5439 C 498.204 -1.93735 0.269433 0
M  V30 5440 O 499.41 -2.70492 0.233706 0
M  V30 5441 C 497.866 -2.27869 2.78574 0
M  V30 5442 C 497.474 -1.65594 4.16272 0
M  V30 5443 C 499.218 -3.0381 2.96479 0
M  V30 5444 C 497.125 -2.66048 5.28178 0
M  V30 5445 H 496.055 -0.47212 0.587894 0
M  V30 5446 H 498.706 -0.52931 1.757 0
M  V30 5447 H 497.088 -3.03594 2.54257 0
M  V30 5448 H 498.262 -0.958826 4.50714 0
M  V30 5449 H 496.577 -1.02055 4.037 0
M  V30 5450 H 499.174 -3.78925 3.77253 0
M  V30 5451 H 499.517 -3.61235 2.06918 0
M  V30 5452 H 500.05 -2.352 3.20821 0
M  V30 5453 H 496.789 -2.13408 6.19788 0
M  V30 5454 H 496.309 -3.34009 4.98195 0
M  V30 5455 H 497.988 -3.28536 5.57381 0
M  V30 5456 N 498.12 -1.38341 -0.754957 0
M  V30 5457 C 499.368 -1.34208 -1.51105 0
M  V30 5458 C 499.689 0.0677634 -1.94882 0
M  V30 5459 O 498.959 1.01517 -1.67544 0
M  V30 5460 H 497.539 -0.493819 -0.560493 0
M  V30 5461 H 500.201 -1.73005 -0.897507 0
M  V30 5462 H 499.297 -1.99203 -2.4026 0
M  V30 5463 N 499.598 0.982988 -1.23187 0
M  V30 5464 C 500.844 1.72648 -1.06398 0
M  V30 5465 C 501.177 1.90066 0.398561 0
M  V30 5466 O 500.452 1.45105 1.29518 0
M  V30 5467 C 500.735 3.12627 -1.78707 0
M  V30 5468 C 500.588 3.02795 -3.32618 0
M  V30 5469 C 501.907 4.11997 -1.54747 0
M  V30 5470 H 499.026 0.626649 -0.387918 0
M  V30 5471 H 501.668 1.14455 -1.51658 0
M  V30 5472 H 499.818 3.62308 -1.40234 0
M  V30 5473 H 501.49 2.60659 -3.80598 0
M  V30 5474 H 499.733 2.39362 -3.61785 0
M  V30 5475 H 500.404 4.01893 -3.78399 0
M  V30 5476 H 502.88 3.71114 -1.88186 0
M  V30 5477 H 501.756 5.08037 -2.07821 0
M  V30 5478 H 502.017 4.39462 -0.482249 0
M  V30 5479 N 501.076 1.04316 1.18135 0
M  V30 5480 C 502.325 0.74319 1.87509 0
M  V30 5481 C 502.638 -0.732136 1.81381 0
M  V30 5482 O 503.844 -1.14572 2.46141 0
M  V30 5483 C 502.3 1.27913 3.36402 0
M  V30 5484 C 501.908 2.78326 3.51053 0
M  V30 5485 C 503.652 1.0558 4.11161 0
M  V30 5486 C 501.559 3.25266 4.93919 0
M  V30 5487 H 500.489 0.274313 0.702331 0
M  V30 5488 H 503.14 1.25931 1.33467 0
M  V30 5489 H 501.522 0.690853 3.89927 0
M  V30 5490 H 502.696 3.42933 3.07788 0
M  V30 5491 H 501.011 2.991 2.89704 0
M  V30 5492 H 503.608 1.38161 5.16542 0
M  V30 5493 H 503.951 -0.00684729 4.16299 0
M  V30 5494 H 504.484 1.60882 3.63816 0
M  V30 5495 H 501.223 4.30922 4.9395 0
M  V30 5496 H 500.743 2.65396 5.3789 0
M  V30 5497 H 502.422 3.19433 5.62647 0
M  V30 5498 N 502.554 -1.34406 0.822964 0
M  V30 5499 C 503.484 -2.32052 0.259608 0
M  V30 5500 C 504.465 -1.58243 -0.623961 0
M  V30 5501 O 505.65 -1.86224 -0.55083 0
M  V30 5502 C 502.78 -3.42434 -0.579314 0
M  V30 5503 C 501.734 -4.27499 0.20712 0
M  V30 5504 C 501.06 -5.29349 -0.754547 0
M  V30 5505 C 502.36 -5.02758 1.41533 0
M  V30 5506 H 504.054 -2.79418 1.07545 0
M  V30 5507 H 501.6 -1.34338 0.518593 0
M  V30 5508 H 503.553 -4.0976 -0.983612 0
M  V30 5509 H 502.277 -2.93717 -1.4282 0
M  V30 5510 H 500.936 -3.61776 0.592787 0
M  V30 5511 H 500.584 -4.76895 -1.59939 0
M  V30 5512 H 500.284 -5.8714 -0.232561 0
M  V30 5513 H 501.808 -5.99544 -1.1567 0
M  V30 5514 H 503.222 -5.62938 1.08504 0
M  V30 5515 H 501.619 -5.70123 1.87296 0
M  V30 5516 H 502.689 -4.32451 2.1935 0
M  V30 5517 N 504.032 -0.577932 -1.46621 0
M  V30 5518 C 505.279 -0.0616879 -2.02406 0
M  V30 5519 C 505.607 1.29638 -1.44997 0
M  V30 5520 O 504.862 1.86176 -0.60308 0
M  V30 5521 C 505.161 0.0590832 -3.57351 0
M  V30 5522 C 504.827 -1.23077 -4.33777 0
M  V30 5523 C 503.489 -1.58416 -4.54376 0
M  V30 5524 C 505.841 -2.08457 -4.77698 0
M  V30 5525 C 503.169 -2.78943 -5.16147 0
M  V30 5526 C 505.521 -3.28204 -5.408 0
M  V30 5527 C 504.185 -3.63832 -5.59627 0
M  V30 5528 H 503.455 -0.0225732 -0.740656 0
M  V30 5529 H 506.102 -0.753609 -1.76048 0
M  V30 5530 H 504.407 0.834104 -3.82818 0
M  V30 5531 H 506.104 0.474202 -3.98186 0
M  V30 5532 H 502.694 -0.945652 -4.18038 0
M  V30 5533 H 506.878 -1.82459 -4.61544 0
M  V30 5534 H 502.134 -3.06689 -5.28916 0
M  V30 5535 H 506.308 -3.94634 -5.73792 0
M  V30 5536 H 503.935 -4.57315 -6.07262 0
M  V30 5537 N 505.51 1.54411 -0.315457 0
M  V30 5538 C 506.735 2.05299 0.294496 0
M  V30 5539 C 507.16 1.19052 1.4563 0
M  V30 5540 O 506.518 0.197804 1.80218 0
M  V30 5541 C 506.566 3.5345 0.714549 0
M  V30 5542 O 505.67 3.70175 1.81781 0
M  V30 5543 H 505.011 0.661743 0.0547019 0
M  V30 5544 H 507.541 1.99327 -0.461508 0
M  V30 5545 H 507.551 3.9557 0.999426 0
M  V30 5546 H 506.226 4.1568 -0.135244 0
M  V30 5547 H 504.803 3.3996 1.53236 0
M  V30 5548 N 506.988 0.0434614 1.5754 0
M  V30 5549 C 508.213 -0.645358 1.97104 0
M  V30 5550 C 508.638 -1.64037 0.920521 0
M  V30 5551 O 507.996 -1.80922 -0.11708 0
M  V30 5552 C 508.044 -1.31547 3.35749 0
M  V30 5553 O 507.148 -2.43103 3.33129 0
M  V30 5554 H 506.489 -0.168403 0.64229 0
M  V30 5555 H 509.019 0.109573 2.04306 0
M  V30 5556 H 509.029 -1.66895 3.72304 0
M  V30 5557 H 507.704 -0.586205 4.11748 0
M  V30 5558 H 506.281 -2.0976 3.0831 0
M  V30 5559 N 508.466 -1.55915 -0.229846 0
M  V30 5560 C 509.429 -1.90914 -1.26824 0
M  V30 5561 C 510.429 -0.786999 -1.40225 0
M  V30 5562 O 511.619 -1.05484 -1.38632 0
M  V30 5563 C 508.751 -2.15264 -2.64337 0
M  V30 5564 H 509.944 -2.8378 -0.969998 0
M  V30 5565 H 507.497 -1.49069 -0.4699 0
M  V30 5566 H 508.232 -1.24923 -2.99274 0
M  V30 5567 H 508.017 -2.97005 -2.55989 0
M  V30 5568 H 509.507 -2.43467 -3.39284 0
M  V30 5569 N 509.944 0.496216 -1.49584 0
M  V30 5570 C 511.19 1.25189 -1.59548 0
M  V30 5571 C 511.523 1.9212 -0.283466 0
M  V30 5572 O 510.798 1.80947 0.713324 0
M  V30 5573 C 511.081 2.31516 -2.75812 0
M  V30 5574 C 510.934 1.69054 -4.16822 0
M  V30 5575 C 512.253 3.3304 -2.87702 0
M  V30 5576 H 509.372 0.45379 -0.580727 0
M  V30 5577 H 512.014 0.549327 -1.81886 0
M  V30 5578 H 510.164 2.91438 -2.56897 0
M  V30 5579 H 511.836 1.12923 -4.47265 0
M  V30 5580 H 510.079 0.994485 -4.22247 0
M  V30 5581 H 510.75 2.462 -4.94054 0
M  V30 5582 H 513.226 2.83114 -3.04936 0
M  V30 5583 H 512.102 4.04794 -3.7072 0
M  V30 5584 H 512.363 3.95655 -1.97255 0
M  V30 5585 N 511.423 1.38739 0.74761 0
M  V30 5586 C 512.653 1.3832 1.53464 0
M  V30 5587 C 513.061 -0.0273464 1.8918 0
M  V30 5588 O 512.404 -1.00588 1.53713 0
M  V30 5589 C 512.466 2.18007 2.85855 0
M  V30 5590 C 512.13 3.66762 2.72644 0
M  V30 5591 C 513.127 4.60124 2.42037 0
M  V30 5592 C 510.812 4.10193 2.89909 0
M  V30 5593 C 512.806 5.94897 2.28859 0
M  V30 5594 C 510.493 5.45045 2.7635 0
M  V30 5595 C 511.491 6.37211 2.45869 0
M  V30 5596 O 511.179 7.69581 2.3238 0
M  V30 5597 H 510.911 0.474718 0.481268 0
M  V30 5598 H 513.465 1.83012 0.932518 0
M  V30 5599 H 511.695 1.68043 3.48279 0
M  V30 5600 H 513.384 2.09921 3.47402 0
M  V30 5601 H 514.15 4.27874 2.28361 0
M  V30 5602 H 510.029 3.38797 3.1263 0
M  V30 5603 H 513.573 6.66802 2.04989 0
M  V30 5604 H 509.47 5.76889 2.89601 0
M  V30 5605 H 510.238 7.80169 2.47546 0
M  V30 5606 N 512.901 -0.976442 1.23707 0
M  V30 5607 C 514.148 -1.71827 1.07153 0
M  V30 5608 C 514.476 -1.9053 -0.390982 0
M  V30 5609 O 513.731 -1.45779 -1.30564 0
M  V30 5610 C 514.03 -3.11814 1.74662 0
M  V30 5611 C 513.696 -3.12978 3.24585 0
M  V30 5612 C 512.358 -3.13003 3.6549 0
M  V30 5613 C 514.71 -3.07986 4.20469 0
M  V30 5614 C 512.038 -3.05757 5.00729 0
M  V30 5615 C 514.39 -3.02282 5.55705 0
M  V30 5616 C 513.054 -3.00631 5.95968 0
M  V30 5617 H 512.324 -0.628758 0.392102 0
M  V30 5618 H 514.971 -1.14239 1.53693 0
M  V30 5619 H 513.276 -3.72812 1.20492 0
M  V30 5620 H 514.973 -3.67989 1.59328 0
M  V30 5621 H 511.563 -3.13718 2.92026 0
M  V30 5622 H 515.747 -3.07103 3.89874 0
M  V30 5623 H 511.003 -3.02834 5.31132 0
M  V30 5624 H 515.177 -2.97376 6.29714 0
M  V30 5625 H 512.804 -2.94771 7.00724 0
M  V30 5626 N 514.379 -1.04941 -1.1758 0
M  V30 5627 C 515.342 -0.652456 -2.19717 0
M  V30 5628 C 516.342 0.294745 -1.58076 0
M  V30 5629 O 517.532 0.0789579 -1.74021 0
M  V30 5630 C 514.664 0.0420712 -3.40874 0
M  V30 5631 H 515.857 -1.55642 -2.5635 0
M  V30 5632 H 513.41 -0.842995 -1.31618 0
M  V30 5633 H 514.145 0.95943 -3.09783 0
M  V30 5634 H 513.93 -0.638844 -3.86861 0
M  V30 5635 H 515.42 0.306 -4.16477 0
M  V30 5636 N 515.857 1.33968 -0.830081 0
M  V30 5637 C 516.767 2.33164 -0.259207 0
M  V30 5638 C 517.783 1.62951 0.610164 0
M  V30 5639 O 518.959 1.94668 0.516369 0
M  V30 5640 C 516.024 3.42088 0.563598 0
M  V30 5641 C 515.085 4.28037 -0.329014 0
M  V30 5642 C 514.318 5.3176 0.454616 0
M  V30 5643 O 514.541 5.44876 1.6872 0
M  V30 5644 O 513.475 6.01669 -0.166794 0
M  V30 5645 H 517.301 2.83832 -1.08041 0
M  V30 5646 H 514.886 1.37154 -0.59239 0
M  V30 5647 H 516.768 4.08581 1.03147 0
M  V30 5648 H 515.443 2.93651 1.36201 0
M  V30 5649 H 514.35 3.64443 -0.844538 0
M  V30 5650 H 515.683 4.79934 -1.09196 0
M  V30 5651 N 517.335 0.585699 1.46312 0
M  V30 5652 C 518.298 -0.135673 2.28798 0
M  V30 5653 C 519.298 -0.815988 1.38558 0
M  V30 5654 O 520.488 -0.667487 1.60904 0
M  V30 5655 C 517.62 -1.20163 3.1902 0
M  V30 5656 H 518.813 0.589257 2.94054 0
M  V30 5657 H 516.366 0.343794 1.52472 0
M  V30 5658 H 517.101 -1.95804 2.58517 0
M  V30 5659 H 516.886 -0.718282 3.85465 0
M  V30 5660 H 518.376 -1.70749 3.81096 0
M  V30 5661 N 518.813 -1.54241 0.323641 0
M  V30 5662 C 520.09 -1.92741 -0.333181 0
M  V30 5663 C 520.47 -1.25326 -1.69872 0
M  V30 5664 O 519.818 -0.396991 -2.25025 0
M  V30 5665 C 520.028 -3.46399 -0.425322 0
M  V30 5666 C 521.376 -4.19029 -0.68557 0
M  V30 5667 O 522.4 -3.52555 -0.50824 0
M  V30 5668 O 521.259 -5.36751 -1.02767 0
M  V30 5669 H 518.353 -0.804811 -0.190286 0
M  V30 5670 H 520.899 -1.65542 0.373361 0
M  V30 5671 H 519.671 -3.87643 0.533737 0
M  V30 5672 H 519.294 -3.79704 -1.17944 0
M  V30 5673 N 520.291 -0.0518155 -1.57515 0
M  V30 5674 C 521.201 0.937539 -2.15052 0
M  V30 5675 C 522.217 1.34121 -1.10849 0
M  V30 5676 O 523.393 1.418 -1.4302 0
M  V30 5677 C 520.458 2.19379 -2.68466 0
M  V30 5678 C 519.519 1.84841 -3.87469 0
M  V30 5679 C 518.752 3.04477 -4.38326 0
M  V30 5680 O 518.975 4.17868 -3.88256 0
M  V30 5681 O 517.909 2.85453 -5.29906 0
M  V30 5682 H 521.735 0.478201 -2.99912 0
M  V30 5683 H 519.32 0.17012 -1.48428 0
M  V30 5684 H 521.202 2.93084 -3.02787 0
M  V30 5685 H 519.877 2.64449 -1.86677 0
M  V30 5686 H 518.784 1.08449 -3.58036 0
M  V30 5687 H 520.117 1.44569 -4.7049 0
M  V30 5688 N 521.769 1.56035 0.221574 0
M  V30 5689 C 523.185 1.49026 0.571271 0
M  V30 5690 C 523.385 0.746912 1.87146 0
M  V30 5691 O 522.441 0.286566 2.50869 0
M  V30 5692 C 523.754 2.93579 0.650522 0
M  V30 5693 C 525.302 3.04099 0.741151 0
M  V30 5694 C 525.777 4.5001 0.851747 0
M  V30 5695 N 527.268 4.54053 0.915968 0
M  V30 5696 C 528.003 5.64232 1.02125 0
M  V30 5697 N 527.499 6.84164 1.09049 0
M  V30 5698 N 529.292 5.52084 1.05639 0
M  V30 5699 H 521.443 2.02791 -0.63162 0
M  V30 5700 H 523.706 0.921736 -0.221602 0
M  V30 5701 H 523.412 3.50912 -0.235253 0
M  V30 5702 H 523.286 3.45476 1.51413 0
M  V30 5703 H 525.673 2.4683 1.61737 0
M  V30 5704 H 525.754 2.55371 -0.148128 0
M  V30 5705 H 525.398 5.07896 -0.0200117 0
M  V30 5706 H 525.328 4.96444 1.75644 0
M  V30 5707 H 527.819 3.67683 0.872782 0
M  V30 5708 H 528.132 7.63883 1.1706 0
M  V30 5709 H 526.477 6.86875 1.05962 0
M  V30 5710 H 529.668 4.57317 0.998953 0
M  V30 5711 H 529.841 6.37983 1.13498 0
M  V30 5712 N 523.247 -0.488276 1.49845 0
M  V30 5713 C 524.157 -1.61451 1.70207 0
M  V30 5714 C 525.173 -1.63877 0.584846 0
M  V30 5715 O 526.349 -1.82063 0.861107 0
M  V30 5716 C 523.414 -2.9776 1.77594 0
M  V30 5717 C 522.475 -3.05861 3.01243 0
M  V30 5718 C 521.708 -4.35668 3.08268 0
M  V30 5719 O 521.931 -5.25197 2.22541 0
M  V30 5720 O 520.865 -4.49005 4.00847 0
M  V30 5721 H 524.691 -1.47199 2.65643 0
M  V30 5722 H 522.276 -0.665939 1.33737 0
M  V30 5723 H 524.158 -3.7875 1.84732 0
M  V30 5724 H 522.833 -3.12248 0.8534 0
M  V30 5725 H 521.74 -2.24012 2.99616 0
M  V30 5726 H 523.073 -2.96304 3.9302 0
M  V30 5727 N 524.725 -1.39134 -0.740242 0
M  V30 5728 C 525.95 -1.39518 -1.53459 0
M  V30 5729 C 526.375 0.00968883 -1.88098 0
M  V30 5730 O 525.733 0.995312 -1.51536 0
M  V30 5731 C 525.781 -2.26981 -2.802 0
M  V30 5732 O 524.885 -1.69609 -3.75908 0
M  V30 5733 H 524.226 -0.475328 -0.463637 0
M  V30 5734 H 526.756 -1.83064 -0.913717 0
M  V30 5735 H 526.766 -2.41309 -3.28989 0
M  V30 5736 H 525.441 -3.29081 -2.5432 0
M  V30 5737 H 524.018 -1.64495 -3.34658 0
M  V30 5738 N 526.204 0.969867 -1.24223 0
M  V30 5739 C 527.136 2.0669 -0.99055 0
M  V30 5740 C 528.149 1.62753 0.0392222 0
M  V30 5741 O 529.338 1.77403 -0.197561 0
M  V30 5742 C 526.438 3.35589 -0.472594 0
M  V30 5743 C 525.611 4.08444 -1.56499 0
M  V30 5744 C 524.67 5.15616 -1.05007 0
M  V30 5745 O 523.696 5.41911 -1.7413 0
M  V30 5746 N 524.898 5.80383 0.116641 0
M  V30 5747 H 527.663 2.28855 -1.93508 0
M  V30 5748 H 525.224 1.13733 -1.15223 0
M  V30 5749 H 527.216 4.04542 -0.112919 0
M  V30 5750 H 525.786 3.10311 0.377617 0
M  V30 5751 H 525.006 3.33798 -2.09696 0
M  V30 5752 H 526.294 4.53882 -2.29932 0
M  V30 5753 H 525.692 5.6142 0.694589 0
M  V30 5754 H 524.249 6.50462 0.417483 0
M  V30 5755 N 527.682 1.05563 1.17022 0
M  V30 5756 C 528.929 0.767937 1.87374 0
M  V30 5757 C 529.257 -0.705224 1.81265 0
M  V30 5758 O 528.512 -1.5318 1.21796 0
M  V30 5759 C 528.811 1.19849 3.36706 0
M  V30 5760 C 528.477 2.6745 3.63017 0
M  V30 5761 C 527.139 3.0777 3.69907 0
M  V30 5762 C 529.491 3.62811 3.74189 0
M  V30 5763 C 526.819 4.42307 3.85463 0
M  V30 5764 C 529.171 4.97087 3.91264 0
M  V30 5765 C 527.835 5.37055 3.96394 0
M  V30 5766 H 527.105 0.281008 0.68565 0
M  V30 5767 H 529.752 1.32339 1.38415 0
M  V30 5768 H 528.057 0.562096 3.87747 0
M  V30 5769 H 529.754 0.953038 3.8951 0
M  V30 5770 H 526.344 2.35228 3.58282 0
M  V30 5771 H 530.528 3.32798 3.68183 0
M  V30 5772 H 525.784 4.72769 3.87684 0
M  V30 5773 H 529.958 5.70869 3.9885 0
M  V30 5774 H 527.585 6.41308 4.082 0
M  V30 5775 N 529.16 -1.33526 0.837174 0
M  V30 5776 C 530.571 -1.80182 0.489017 0
M  V30 5777 C 530.922 -1.69285 -0.991826 0
M  V30 5778 O 530.047 -1.24113 -1.77271 0
M  V30 5779 C 530.642 -3.27149 0.880866 0
M  V30 5780 C 529.201 -3.71828 0.584872 0
M  V30 5781 C 528.348 -2.54974 1.09011 0
M  V30 5782 H 531.299 -1.21071 1.02603 0
M  V30 5783 H 531.32 -3.80024 0.190239 0
M  V30 5784 H 530.832 -3.35048 1.95869 0
M  V30 5785 H 528.933 -3.69457 -0.48295 0
M  V30 5786 H 529.046 -4.65366 1.13892 0
M  V30 5787 H 527.41 -2.4952 0.511047 0
M  V30 5788 H 528.193 -2.65637 2.17467 0
M  V30 5789 N 530.638 -0.59345 -1.46 0
M  V30 5790 C 531.863 -0.0872365 -2.07216 0
M  V30 5791 C 532.288 1.2131 -1.43755 0
M  V30 5792 O 531.646 1.73528 -0.525152 0
M  V30 5793 C 531.694 0.0538197 -3.6056 0
M  V30 5794 O 530.798 1.10765 -3.97247 0
M  V30 5795 H 530.139 -0.0676598 -0.660544 0
M  V30 5796 H 532.669 -0.819445 -1.87473 0
M  V30 5797 H 532.679 0.256567 -4.07193 0
M  V30 5798 H 531.354 -0.895739 -4.0614 0
M  V30 5799 H 529.931 0.882501 -3.62307 0
M  V30 5800 N 532.116 1.54067 -0.331816 0
M  V30 5801 C 533.365 1.99895 0.269209 0
M  V30 5802 C 533.678 1.22371 1.52593 0
M  V30 5803 O 534.884 1.58618 2.20347 0
M  V30 5804 C 533.34 3.55972 0.530244 0
M  V30 5805 C 532.948 4.4234 -0.709901 0
M  V30 5806 C 534.692 4.10247 1.09077 0
M  V30 5807 C 532.599 5.89905 -0.420312 0
M  V30 5808 H 531.529 0.746741 0.104371 0
M  V30 5809 H 534.18 1.78014 -0.445324 0
M  V30 5810 H 532.562 3.73873 1.30518 0
M  V30 5811 H 533.736 4.36215 -1.48504 0
M  V30 5812 H 532.051 3.98997 -1.19123 0
M  V30 5813 H 534.648 5.18095 1.32219 0
M  V30 5814 H 534.991 3.62739 2.0427 0
M  V30 5815 H 535.524 3.96011 0.376824 0
M  V30 5816 H 532.263 6.41623 -1.34164 0
M  V30 5817 H 531.783 5.98962 0.316962 0
M  V30 5818 H 533.462 6.46991 -0.0331956 0
M  V30 5819 N 533.594 0.0601682 1.57485 0
M  V30 5820 C 535.005 -0.474217 1.80577 0
M  V30 5821 C 535.356 -1.70365 0.973147 0
M  V30 5822 O 534.481 -2.15544 0.192306 0
M  V30 5823 C 535.076 -0.867102 3.27516 0
M  V30 5824 C 533.635 -1.34642 3.51495 0
M  V30 5825 C 532.782 -0.32594 2.75378 0
M  V30 5826 H 535.733 0.285973 1.56102 0
M  V30 5827 H 535.754 -1.72938 3.38929 0
M  V30 5828 H 535.266 0.0278927 3.8809 0
M  V30 5829 H 533.367 -2.2603 2.96212 0
M  V30 5830 H 533.48 -1.33237 4.60201 0
M  V30 5831 H 531.844 -0.800749 2.41785 0
M  V30 5832 H 532.627 0.561125 3.38683 0
M  V30 5833 N 535.072 -1.5615 -0.213296 0
M  V30 5834 C 536.349 -1.70349 -0.961281 0
M  V30 5835 C 536.729 -0.609791 -2.02101 0
M  V30 5836 O 536.077 0.381987 -2.25285 0
M  V30 5837 C 536.287 -3.11982 -1.56424 0
M  V30 5838 C 537.635 -3.71649 -2.05334 0
M  V30 5839 O 538.659 -3.14995 -1.66302 0
M  V30 5840 O 537.518 -4.71038 -2.77102 0
M  V30 5841 H 534.612 -0.694121 -0.449582 0
M  V30 5842 H 537.158 -1.68464 -0.204426 0
M  V30 5843 H 535.93 -3.83046 -0.799457 0
M  V30 5844 H 535.553 -3.18019 -2.38641 0
M  V30 5845 N 536.55 0.480323 -1.50102 0
M  V30 5846 C 537.513 1.56181 -1.6775 0
M  V30 5847 C 538.513 1.51156 -0.548503 0
M  V30 5848 O 539.703 1.5394 -0.815363 0
M  V30 5849 C 536.835 2.95823 -1.69415 0
M  V30 5850 H 538.028 1.41855 -2.6423 0
M  V30 5851 H 535.581 0.70605 -1.39444 0
M  V30 5852 H 536.316 3.15604 -0.745948 0
M  V30 5853 H 536.101 3.00878 -2.51425 0
M  V30 5854 H 537.591 3.74359 -1.85054 0
M  V30 5855 N 538.028 1.39524 0.732853 0
M  V30 5856 C 539.275 1.36865 1.49246 0
M  V30 5857 C 539.603 -0.0347118 1.94469 0
M  V30 5858 O 538.858 -1.01596 1.67262 0
M  V30 5859 C 539.157 2.28916 2.74468 0
M  V30 5860 C 538.823 3.76506 2.481 0
M  V30 5861 C 537.485 4.16721 2.40619 0
M  V30 5862 C 539.837 4.69846 2.25598 0
M  V30 5863 C 537.165 5.48334 2.08679 0
M  V30 5864 C 539.517 6.01739 1.95174 0
M  V30 5865 C 538.181 6.41015 1.86163 0
M  V30 5866 H 537.451 0.500824 0.546129 0
M  V30 5867 H 540.098 1.72047 0.840958 0
M  V30 5868 H 538.403 1.86859 3.4437 0
M  V30 5869 H 540.1 2.2415 3.32502 0
M  V30 5870 H 536.69 3.44635 2.54803 0
M  V30 5871 H 540.874 4.39608 2.30344 0
M  V30 5872 H 536.13 5.77685 2.00226 0
M  V30 5873 H 540.304 6.73591 1.76771 0
M  V30 5874 H 537.931 7.42917 1.61179 0
M  V30 5875 N 539.506 -0.963266 1.24736 0
M  V30 5876 C 540.752 -1.71 1.10139 0
M  V30 5877 C 541.107 -1.89089 -0.35541 0
M  V30 5878 O 540.4 -1.44451 -1.25875 0
M  V30 5879 C 540.594 -3.09944 1.7796 0
M  V30 5880 C 540.423 -3.05408 3.30085 0
M  V30 5881 C 539.193 -3.09643 3.99311 0
M  V30 5882 C 541.391 -2.87241 4.26611 0
M  V30 5883 N 539.373 -2.95174 5.3828 0
M  V30 5884 C 540.744 -2.81114 5.52607 0
M  V30 5885 C 542.799 -2.71856 4.17132 0
M  V30 5886 C 541.502 -2.61174 6.70209 0
M  V30 5887 C 543.528 -2.53284 5.34417 0
M  V30 5888 C 542.89 -2.4787 6.59348 0
M  V30 5889 H 538.989 -0.634078 0.457678 0
M  V30 5890 H 541.573 -1.14169 1.57713 0
M  V30 5891 H 539.744 -3.64958 1.32893 0
M  V30 5892 H 541.476 -3.73348 1.56183 0
M  V30 5893 H 538.231 -3.18498 3.50508 0
M  V30 5894 H 538.655 -2.91168 6.11188 0
M  V30 5895 H 543.297 -2.74821 3.21299 0
M  V30 5896 H 541.015 -2.56952 7.6616 0
M  V30 5897 H 544.601 -2.42317 5.28936 0
M  V30 5898 H 543.481 -2.33685 7.48573 0
M  V30 5899 N 540.985 -1.06182 -1.16461 0
M  V30 5900 C 542.231 -0.788825 -1.87481 0
M  V30 5901 C 542.586 0.677298 -1.80085 0
M  V30 5902 O 541.879 1.48976 -1.20486 0
M  V30 5903 C 542.073 -1.21633 -3.36066 0
M  V30 5904 C 541.902 -2.72247 -3.57927 0
M  V30 5905 C 540.672 -3.39696 -3.74079 0
M  V30 5906 C 542.87 -3.70461 -3.56739 0
M  V30 5907 N 540.852 -4.79072 -3.83879 0
M  V30 5908 C 542.223 -4.95616 -3.72511 0
M  V30 5909 C 544.278 -3.63788 -3.39945 0
M  V30 5910 C 542.981 -6.14895 -3.73225 0
M  V30 5911 C 545.007 -4.82517 -3.41953 0
M  V30 5912 C 544.369 -6.065 -3.58242 0
M  V30 5913 H 540.468 -0.341034 -0.703719 0
M  V30 5914 H 543.052 -1.35575 -1.39741 0
M  V30 5915 H 541.223 -0.67725 -3.8245 0
M  V30 5916 H 542.955 -0.892119 -3.94745 0
M  V30 5917 H 539.71 -2.90097 -3.74354 0
M  V30 5918 H 540.134 -5.51573 -3.92551 0
M  V30 5919 H 544.776 -2.68888 -3.26281 0
M  V30 5920 H 542.494 -7.10129 -3.85672 0
M  V30 5921 H 546.08 -4.79017 -3.30203 0
M  V30 5922 H 544.96 -6.96833 -3.59712 0
M  V30 5923 N 542.463 1.3308 -0.844243 0
M  V30 5924 C 543.426 2.27403 -0.286485 0
M  V30 5925 C 544.426 1.51179 0.547872 0
M  V30 5926 O 545.616 1.70421 0.360886 0
M  V30 5927 C 542.748 3.35653 0.595813 0
M  V30 5928 H 543.941 2.78248 -1.11885 0
M  V30 5929 H 541.494 1.43574 -0.617749 0
M  V30 5930 H 542.229 2.90058 1.4504 0
M  V30 5931 H 542.014 3.921 -0.00125994 0
M  V30 5932 H 543.504 4.05958 0.979168 0
M  V30 5933 N 543.941 0.601185 1.45683 0
M  V30 5934 C 545.187 0.0940202 2.02582 0
M  V30 5935 C 545.52 -1.26972 1.46941 0
M  V30 5936 O 544.795 -1.83613 0.641612 0
M  V30 5937 C 545.078 0.0481715 3.60068 0
M  V30 5938 C 544.931 1.44212 4.26055 0
M  V30 5939 C 546.25 -0.642975 4.35378 0
M  V30 5940 H 543.369 0.0356404 0.736138 0
M  V30 5941 H 546.011 0.771929 1.73612 0
M  V30 5942 H 544.161 -0.529128 3.8488 0
M  V30 5943 H 545.833 2.06601 4.12449 0
M  V30 5944 H 544.076 2.00465 3.84703 0
M  V30 5945 H 544.747 1.36234 5.34925 0
M  V30 5946 H 547.223 -0.152351 4.15821 0
M  V30 5947 H 546.099 -0.644141 5.45107 0
M  V30 5948 H 546.36 -1.70785 4.0778 0
M  V30 5949 N 545.419 -1.53889 0.339982 0
M  V30 5950 C 546.665 -2.01152 -0.258003 0
M  V30 5951 C 546.998 -1.22749 -1.50487 0
M  V30 5952 O 546.273 -0.314156 -1.91946 0
M  V30 5953 C 546.556 -3.55468 -0.575717 0
M  V30 5954 C 546.409 -4.44584 0.682996 0
M  V30 5955 C 547.728 -4.1768 -1.38677 0
M  V30 5956 H 544.847 -0.731198 -0.0922992 0
M  V30 5957 H 547.489 -1.84352 0.459814 0
M  V30 5958 H 545.639 -3.69914 -1.18725 0
M  V30 5959 H 547.311 -4.41981 1.32102 0
M  V30 5960 H 545.554 -4.13592 1.3086 0
M  V30 5961 H 546.225 -5.5043 0.416001 0
M  V30 5962 H 548.701 -4.0691 -0.869705 0
M  V30 5963 H 547.577 -5.25734 -1.57783 0
M  V30 5964 H 547.838 -3.72069 -2.38782 0
M  V30 5965 N 546.897 -0.0685191 -1.57451 0
M  V30 5966 C 548.122 0.613919 -1.98106 0
M  V30 5967 C 548.547 1.62551 -0.946501 0
M  V30 5968 O 547.905 1.81085 0.0882824 0
M  V30 5969 C 547.953 1.26189 -3.378 0
M  V30 5970 O 547.057 2.37773 -3.36954 0
M  V30 5971 H 546.398 0.158163 -0.644888 0
M  V30 5972 H 548.928 -0.142063 -2.04106 0
M  V30 5973 H 548.938 1.60951 -3.74912 0
M  V30 5974 H 547.613 0.520625 -4.12629 0
M  V30 5975 H 546.19 2.04829 -3.11608 0
M  V30 5976 N 548.375 1.56261 0.205012 0
M  V30 5977 C 549.308 1.88797 1.28183 0
M  V30 5978 C 550.286 0.747018 1.44424 0
M  V30 5979 O 551.47 0.997039 1.59973 0
M  V30 5980 C 548.597 2.10949 2.64987 0
M  V30 5981 C 547.643 3.33649 2.6567 0
M  V30 5982 S 548.476 4.89078 2.18088 0
M  V30 5983 C 549.632 5.14286 3.56736 0
M  V30 5984 H 549.865 2.79837 1.00393 0
M  V30 5985 H 547.398 1.48911 0.408042 0
M  V30 5986 H 549.356 2.24395 3.4374 0
M  V30 5987 H 548.017 1.20678 2.89993 0
M  V30 5988 H 547.21 3.46245 3.66239 0
M  V30 5989 H 546.812 3.19146 1.94992 0
M  V30 5990 H 549.104 5.04198 4.52537 0
M  V30 5991 H 550.047 6.16096 3.49043 0
M  V30 5992 H 550.455 4.41957 3.51189 0
M  V30 5993 N 549.853 -0.472356 1.50355 0
M  V30 5994 C 551.081 -1.24784 1.65035 0
M  V30 5995 C 551.496 -1.85837 0.333176 0
M  V30 5996 O 550.853 -1.69168 -0.68472 0
M  V30 5997 C 550.904 -2.35747 2.74054 0
M  V30 5998 O 550.625 -1.77197 4.00665 0
M  V30 5999 C 552.126 -3.26645 2.99696 0
M  V30 6000 H 549.346 -0.377432 0.554785 0
M  V30 6001 H 551.89 -0.563962 1.9657 0
M  V30 6002 H 550.045 -2.99912 2.45217 0
M  V30 6003 H 550.459 -2.5026 4.60945 0
M  V30 6004 H 551.933 -4.00718 3.79644 0
M  V30 6005 H 552.41 -3.8535 2.10718 0
M  V30 6006 H 553.016 -2.68218 3.3006 0
M  V30 6007 N 551.331 -1.39911 -0.725443 0
M  V30 6008 C 552.559 -1.40949 -1.51463 0
M  V30 6009 C 552.974 -0.0065242 -1.88799 0
M  V30 6010 O 552.331 0.967163 -1.54765 0
M  V30 6011 C 552.382 -2.29119 -2.79619 0
M  V30 6012 O 552.103 -3.63952 -2.43866 0
M  V30 6013 C 553.604 -2.38642 -3.73584 0
M  V30 6014 H 550.824 -0.481091 -0.467752 0
M  V30 6015 H 553.368 -1.83843 -0.895651 0
M  V30 6016 H 551.523 -1.89612 -3.37826 0
M  V30 6017 H 551.937 -4.10677 -3.26258 0
M  V30 6018 H 553.411 -3.04563 -4.60375 0
M  V30 6019 H 553.888 -1.40846 -4.16004 0
M  V30 6020 H 554.494 -2.78659 -3.21293 0
M  V30 6021 N 552.809 0.956637 -1.25245 0
M  V30 6022 C 554.055 1.70352 -1.10036 0
M  V30 6023 C 554.388 1.90869 0.358156 0
M  V30 6024 O 553.663 1.47819 1.26411 0
M  V30 6025 C 553.946 3.08766 -1.85298 0
M  V30 6026 C 553.799 2.95672 -3.38966 0
M  V30 6027 C 555.118 4.08622 -1.63451 0
M  V30 6028 H 552.237 0.618279 -0.401123 0
M  V30 6029 H 554.879 1.11212 -1.54051 0
M  V30 6030 H 553.029 3.59252 -1.47887 0
M  V30 6031 H 554.701 2.52527 -3.86041 0
M  V30 6032 H 552.944 2.31634 -3.6678 0
M  V30 6033 H 553.615 3.93776 -3.86839 0
M  V30 6034 H 556.091 3.67038 -1.96015 0
M  V30 6035 H 554.967 5.03514 -2.18551 0
M  V30 6036 H 555.228 4.3834 -0.575357 0
M  V30 6037 N 554.287 1.06798 1.15896 0
M  V30 6038 C 555.535 0.786211 1.8618 0
M  V30 6039 C 555.856 -0.689547 1.82401 0
M  V30 6040 O 555.126 -1.49913 1.26107 0
M  V30 6041 H 553.706 0.287843 0.689315 0
M  V30 6042 H 556.368 1.35055 1.40521 0
M  V30 6043 H 555.464 1.1157 2.91477 0
M  V30 6044 N 555.766 -1.3263 0.851289 0
M  V30 6045 C 556.996 -2.01271 0.466222 0
M  V30 6046 C 557.404 -1.64156 -0.940714 0
M  V30 6047 O 556.747 -0.857109 -1.62479 0
M  V30 6048 C 556.809 -3.55695 0.521672 0
M  V30 6049 C 556.473 -4.16227 1.88691 0
M  V30 6050 C 557.47 -4.34699 2.85189 0
M  V30 6051 C 555.155 -4.52377 2.18313 0
M  V30 6052 C 557.149 -4.88484 4.09465 0
M  V30 6053 C 554.836 -5.05868 3.42843 0
M  V30 6054 C 555.834 -5.23869 4.38235 0
M  V30 6055 O 555.522 -5.76218 5.6056 0
M  V30 6056 H 555.254 -0.651034 0.18202 0
M  V30 6057 H 557.808 -1.7026 1.14894 0
M  V30 6058 H 556.038 -3.86086 -0.217888 0
M  V30 6059 H 557.727 -4.05613 0.152682 0
M  V30 6060 H 558.493 -4.07107 2.63607 0
M  V30 6061 H 554.372 -4.37652 1.44851 0
M  V30 6062 H 557.916 -5.02451 4.83931 0
M  V30 6063 H 553.813 -5.32891 3.64277 0
M  V30 6064 H 554.581 -5.94616 5.62471 0
M  V30 6065 N 557.244 -0.608902 -1.45362 0
M  V30 6066 C 558.492 -0.104401 -2.0183 0
M  V30 6067 C 558.813 1.27007 -1.47967 0
M  V30 6068 O 558.083 1.83924 -0.674455 0
M  V30 6069 H 556.663 -0.0356042 -0.746151 0
M  V30 6070 H 559.325 -0.790596 -1.78145 0
M  V30 6071 H 558.421 -0.0551793 -3.12051 0
M  V30 6072 N 558.722 1.53707 -0.348139 0
M  V30 6073 C 559.999 1.93247 0.302475 0
M  V30 6074 C 560.379 1.28012 1.67857 0
M  V30 6075 O 559.727 0.43274 2.24365 0
M  V30 6076 C 559.937 3.47031 0.370159 0
M  V30 6077 C 561.285 4.20066 0.61882 0
M  V30 6078 O 562.309 3.53319 0.452087 0
M  V30 6079 O 561.168 5.38318 0.94215 0
M  V30 6080 H 558.262 0.807736 0.177458 0
M  V30 6081 H 560.808 1.64927 -0.399651 0
M  V30 6082 H 559.58 3.86745 -0.59534 0
M  V30 6083 H 559.203 3.81532 1.11888 0
M  V30 6084 N 560.2 0.0768682 1.57412 0
M  V30 6085 C 561.133 -0.924685 2.08626 0
M  V30 6086 C 562.111 -1.28792 0.992542 0
M  V30 6087 O 563.295 -1.39634 1.26628 0
M  V30 6088 C 560.422 -2.23131 2.54814 0
M  V30 6089 C 559.468 -2.01928 3.75669 0
M  V30 6090 S 560.301 -1.27397 5.20125 0
M  V30 6091 C 561.457 -2.59329 5.69648 0
M  V30 6092 H 561.69 -0.488928 2.93252 0
M  V30 6093 H 559.223 -0.136014 1.538 0
M  V30 6094 H 561.181 -2.98226 2.82084 0
M  V30 6095 H 559.842 -2.63831 1.70447 0
M  V30 6096 H 559.035 -2.98639 4.05993 0
M  V30 6097 H 558.637 -1.34967 3.48798 0
M  V30 6098 H 560.929 -3.55394 5.76803 0
M  V30 6099 H 561.872 -2.33608 6.68456 0
M  V30 6100 H 562.28 -2.66767 4.9749 0
M  V30 6101 N 561.678 -1.56367 -0.196722 0
M  V30 6102 C 562.924 -1.80796 -0.918725 0
M  V30 6103 C 563.257 -0.650645 -1.82976 0
M  V30 6104 O 562.532 0.348889 -1.91345 0
M  V30 6105 C 562.815 -3.15472 -1.73636 0
M  V30 6106 C 562.668 -4.41693 -0.85015 0
M  V30 6107 C 563.987 -3.46824 -2.70927 0
M  V30 6108 H 561.106 -0.657702 -0.332561 0
M  V30 6109 H 563.748 -1.89086 -0.186186 0
M  V30 6110 H 561.898 -3.08536 -2.36088 0
M  V30 6111 H 563.57 -4.60673 -0.240459 0
M  V30 6112 H 561.813 -4.33517 -0.156785 0
M  V30 6113 H 562.484 -5.32419 -1.45719 0
M  V30 6114 H 564.96 -3.54049 -2.18607 0
M  V30 6115 H 563.836 -4.4218 -3.25219 0
M  V30 6116 H 564.097 -2.70236 -3.49893 0
M  V30 6117 N 563.156 0.464375 -1.50603 0
M  V30 6118 C 564.567 1.04507 -1.5471 0
M  V30 6119 C 564.918 1.9297 -0.354542 0
M  V30 6120 O 564.043 2.09763 0.531812 0
M  V30 6121 C 564.638 1.90207 -2.80369 0
M  V30 6122 C 563.197 2.43373 -2.87135 0
M  V30 6123 C 562.344 1.21886 -2.49076 0
M  V30 6124 H 565.295 0.246716 -1.56771 0
M  V30 6125 H 565.316 2.75353 -2.62604 0
M  V30 6126 H 564.828 1.25796 -3.67147 0
M  V30 6127 H 562.929 3.11318 -2.04724 0
M  V30 6128 H 563.042 2.7802 -3.90181 0
M  V30 6129 H 561.406 1.55575 -2.01664 0
M  V30 6130 H 562.189 0.591268 -3.3817 0
M  V30 6131 N 564.634 1.40294 0.718013 0
M  V30 6132 C 565.862 1.4175 1.50714 0
M  V30 6133 C 566.277 0.0165366 1.88793 0
M  V30 6134 O 565.634 -0.958942 1.55276 0
M  V30 6135 C 565.685 2.30598 2.784 0
M  V30 6136 O 565.406 3.6524 2.41932 0
M  V30 6137 C 566.907 2.4062 3.72313 0
M  V30 6138 H 564.127 0.483565 0.465194 0
M  V30 6139 H 566.671 1.84316 0.885889 0
M  V30 6140 H 564.826 1.91401 3.36815 0
M  V30 6141 H 565.24 4.12402 3.24076 0
M  V30 6142 H 566.714 3.07001 4.58753 0
M  V30 6143 H 567.191 1.4305 4.15251 0
M  V30 6144 H 567.797 2.80359 3.19811 0
M  V30 6145 N 566.112 -0.949982 1.2575 0
M  V30 6146 C 567.34 -1.72972 1.13527 0
M  V30 6147 C 567.755 -1.8623 -0.310453 0
M  V30 6148 O 567.112 -1.36336 -1.2132 0
M  V30 6149 C 567.163 -3.14108 1.78936 0
M  V30 6150 O 566.884 -3.01493 3.17858 0
M  V30 6151 C 568.385 -4.08338 1.72554 0
M  V30 6152 H 565.605 -0.541864 0.395758 0
M  V30 6153 H 568.149 -1.19151 1.66202 0
M  V30 6154 H 566.304 -3.64858 1.30221 0
M  V30 6155 H 566.718 -3.90559 3.50092 0
M  V30 6156 H 568.192 -5.04963 2.22973 0
M  V30 6157 H 568.669 -4.33742 0.690251 0
M  V30 6158 H 569.275 -3.63506 2.2078 0
M  V30 6159 N 567.59 -1.07411 -1.15328 0
M  V30 6160 C 568.839 -0.792643 -1.85473 0
M  V30 6161 C 569.152 0.683789 -1.83259 0
M  V30 6162 O 570.358 1.08005 -2.49093 0
M  V30 6163 C 568.814 -1.36787 -3.32892 0
M  V30 6164 C 568.422 -2.87536 -3.43551 0
M  V30 6165 C 570.166 -1.16444 -4.08217 0
M  V30 6166 C 568.073 -3.38247 -4.85122 0
M  V30 6167 H 567.003 -0.292838 -0.694811 0
M  V30 6168 H 569.654 -1.29426 -1.30082 0
M  V30 6169 H 568.036 -0.793993 -3.87958 0
M  V30 6170 H 569.21 -3.50973 -2.98588 0
M  V30 6171 H 567.525 -3.06676 -2.81672 0
M  V30 6172 H 570.122 -1.51808 -5.12697 0
M  V30 6173 H 570.465 -0.10353 -4.16171 0
M  V30 6174 H 570.998 -1.70472 -3.59422 0
M  V30 6175 H 567.737 -4.43866 -4.82351 0
M  V30 6176 H 567.257 -2.79564 -5.30664 0
M  V30 6177 H 568.936 -3.34238 -5.5398 0
M  V30 6178 N 569.068 1.32177 -0.85831 0
M  V30 6179 C 570.316 1.96735 -0.462568 0
M  V30 6180 C 570.637 1.6824 0.985911 0
M  V30 6181 O 569.907 0.991564 1.68952 0
M  V30 6182 H 568.487 0.727849 -0.168064 0
M  V30 6183 H 571.149 1.61195 -1.09554 0
M  V30 6184 H 570.245 3.06068 -0.610647 0
M  V30 6185 N 570.547 0.616602 1.45037 0
M  V30 6186 C 571.795 0.115103 2.01772 0
M  V30 6187 C 572.116 -1.2622 1.48639 0
M  V30 6188 O 571.386 -1.83563 0.684199 0
M  V30 6189 H 569.966 0.0395607 0.745952 0
M  V30 6190 H 572.628 0.800032 1.77723 0
M  V30 6191 H 571.724 0.0717274 3.12018 0
M  V30 6192 N 572.025 -1.5352 0.356285 0
M  V30 6193 C 572.972 -2.25439 -0.494569 0
M  V30 6194 C 573.942 -1.25752 -1.08516 0
M  V30 6195 O 575.127 -1.54513 -1.1194 0
M  V30 6196 C 572.267 -3.04011 -1.63313 0
M  V30 6197 C 571.38 -4.18574 -1.06862 0
M  V30 6198 C 570.515 -4.84607 -2.17552 0
M  V30 6199 C 569.554 -5.91218 -1.58518 0
M  V30 6200 N 568.691 -6.50979 -2.63003 0
M  V30 6201 H 573.531 -2.97737 0.125244 0
M  V30 6202 H 571.068 -1.46916 0.0735789 0
M  V30 6203 H 573.026 -3.47834 -2.30363 0
M  V30 6204 H 571.656 -2.33986 -2.22374 0
M  V30 6205 H 570.708 -3.79303 -0.288672 0
M  V30 6206 H 572.02 -4.95215 -0.596924 0
M  V30 6207 H 571.174 -5.31566 -2.92442 0
M  V30 6208 H 569.913 -4.07418 -2.6807 0
M  V30 6209 H 568.918 -5.4363 -0.821391 0
M  V30 6210 H 570.143 -6.70322 -1.08836 0
M  V30 6211 H 568.089 -5.76648 -3.12751 0
M  V30 6212 H 568.006 -7.23131 -2.20493 0
M  V30 6213 H 569.274 -7.02589 -3.37623 0
M  V30 6214 N 573.503 -0.0852151 -1.57369 0
M  V30 6215 C 574.752 0.580443 -1.93168 0
M  V30 6216 C 575.065 1.6995 -0.968319 0
M  V30 6217 O 576.271 2.42564 -1.21963 0
M  V30 6218 C 574.727 1.08386 -3.43192 0
M  V30 6219 C 574.335 -0.00491388 -4.48 0
M  V30 6220 C 576.079 1.72281 -3.87968 0
M  V30 6221 C 573.986 0.513299 -5.89168 0
M  V30 6222 H 572.916 0.22059 -0.72101 0
M  V30 6223 H 575.567 -0.159621 -1.82804 0
M  V30 6224 H 573.949 1.8773 -3.48674 0
M  V30 6225 H 575.123 -0.780032 -4.5415 0
M  V30 6226 H 573.438 -0.548453 -4.12772 0
M  V30 6227 H 576.035 2.12108 -4.9083 0
M  V30 6228 H 576.378 2.58811 -3.26071 0
M  V30 6229 H 576.911 0.995359 -3.85146 0
M  V30 6230 H 573.65 -0.315153 -6.54742 0
M  V30 6231 H 573.17 1.25564 -5.8651 0
M  V30 6232 H 574.849 0.985433 -6.39451 0
M  V30 6233 N 574.981 1.5647 0.188427 0
M  V30 6234 C 576.227 1.81281 0.909124 0
M  V30 6235 C 576.56 0.66034 1.82628 0
M  V30 6236 O 575.835 -0.338737 1.91528 0
M  V30 6237 C 576.118 3.16388 1.7196 0
M  V30 6238 C 575.971 4.42137 0.826714 0
M  V30 6239 C 577.29 3.48256 2.69083 0
M  V30 6240 H 574.409 0.659457 0.329068 0
M  V30 6241 H 577.051 1.89182 0.176156 0
M  V30 6242 H 575.201 3.09784 2.34448 0
M  V30 6243 H 576.873 4.60794 0.216025 0
M  V30 6244 H 575.116 4.33594 0.133792 0
M  V30 6245 H 575.787 5.33184 1.42893 0
M  V30 6246 H 578.263 3.55203 2.16726 0
M  V30 6247 H 577.139 4.43899 3.2287 0
M  V30 6248 H 577.4 2.72088 3.48455 0
M  V30 6249 N 576.459 -0.456382 1.50847 0
M  V30 6250 C 577.707 -1.20497 1.62249 0
M  V30 6251 C 578.028 -1.92156 0.331839 0
M  V30 6252 O 577.298 -1.84751 -0.651443 0
M  V30 6253 H 575.878 -0.447775 0.597918 0
M  V30 6254 H 578.54 -0.525099 1.87693 0
M  V30 6255 H 577.636 -1.94492 2.44089 0
M  V30 6256 N 577.937 -1.40673 -0.710563 0
M  V30 6257 C 579.162 -1.42741 -1.50465 0
M  V30 6258 C 579.587 -0.0302116 -1.88076 0
M  V30 6259 O 578.945 0.962945 -1.53613 0
M  V30 6260 C 578.993 -2.32873 -2.75322 0
M  V30 6261 O 578.097 -1.77544 -3.72226 0
M  V30 6262 H 577.438 -0.485056 -0.45345 0
M  V30 6263 H 579.968 -1.84961 -0.874681 0
M  V30 6264 H 579.978 -2.48233 -3.23797 0
M  V30 6265 H 578.653 -3.34401 -2.47283 0
M  V30 6266 H 577.23 -1.71556 -3.31093 0
M  V30 6267 N 579.415 0.9433 -1.26252 0
M  V30 6268 C 580.345 2.05902 -1.10122 0
M  V30 6269 C 581.326 1.70099 -0.00700552 0
M  V30 6270 O 582.511 1.93377 -0.178641 0
M  V30 6271 C 579.641 3.39516 -0.731175 0
M  V30 6272 C 578.595 3.89372 -1.77688 0
M  V30 6273 C 577.921 5.19613 -1.26122 0
M  V30 6274 C 579.221 4.14489 -3.17799 0
M  V30 6275 H 580.915 2.19655 -2.03451 0
M  V30 6276 H 578.461 1.05548 -0.979576 0
M  V30 6277 H 580.414 4.17031 -0.605215 0
M  V30 6278 H 579.138 3.25733 0.23782 0
M  V30 6279 H 577.797 3.14036 -1.89148 0
M  V30 6280 H 577.445 5.02208 -0.282128 0
M  V30 6281 H 577.145 5.53939 -1.96023 0
M  V30 6282 H 578.669 5.99713 -1.14789 0
M  V30 6283 H 580.083 4.82625 -3.09428 0
M  V30 6284 H 578.48 4.60094 -3.85271 0
M  V30 6285 H 579.55 3.20347 -3.64014 0
M  V30 6286 N 580.893 1.08022 1.14757 0
M  V30 6287 C 582.133 0.816959 1.87364 0
M  V30 6288 C 582.497 -0.645407 1.80827 0
M  V30 6289 O 583.698 -1.024 2.48531 0
M  V30 6290 C 581.969 1.31961 3.32146 0
M  V30 6291 S 583.528 1.18806 4.2241 0
M  V30 6292 H 580.346 0.295862 0.646519 0
M  V30 6293 H 582.948 1.3807 1.38408 0
M  V30 6294 H 581.652 2.37847 3.3445 0
M  V30 6295 H 581.183 0.751371 3.86158 0
M  V30 6296 H 583.198 0.129865 4.9603 0
M  V30 6297 N 582.371 -1.3172 0.865308 0
M  V30 6298 C 583.334 -2.26918 0.322627 0
M  V30 6299 C 584.334 -1.52031 -0.523751 0
M  V30 6300 O 585.524 -1.70973 -0.333727 0
M  V30 6301 C 582.656 -3.36558 -0.542338 0
M  V30 6302 H 583.849 -2.76432 1.16298 0
M  V30 6303 H 581.402 -1.42573 0.640512 0
M  V30 6304 H 582.137 -2.92329 -1.40407 0
M  V30 6305 H 581.922 -3.92048 0.0636395 0
M  V30 6306 H 583.412 -4.07465 -0.91446 0
M  V30 6307 N 583.85 -0.624285 -1.44708 0
M  V30 6308 C 585.099 -0.123539 -2.01321 0
M  V30 6309 C 585.412 1.25966 -1.49639 0
M  V30 6310 O 586.618 1.85405 -1.98336 0
M  V30 6311 C 585.074 -0.170124 -3.59498 0
M  V30 6312 C 584.682 -1.55421 -4.20176 0
M  V30 6313 C 586.426 0.274513 -4.23611 0
M  V30 6314 C 584.332 -1.55628 -5.70556 0
M  V30 6315 H 583.263 -0.0424183 -0.752806 0
M  V30 6316 H 585.913 -0.782076 -1.65999 0
M  V30 6317 H 584.296 0.555385 -3.92086 0
M  V30 6318 H 585.47 -2.30276 -3.99136 0
M  V30 6319 H 583.784 -1.94235 -3.68323 0
M  V30 6320 H 586.382 0.292402 -5.339 0
M  V30 6321 H 586.725 1.3005 -3.95465 0
M  V30 6322 H 587.258 -0.398275 -3.95801 0
M  V30 6323 H 583.997 -2.56041 -6.03426 0
M  V30 6324 H 583.517 -0.850563 -5.93739 0
M  V30 6325 H 585.196 -1.28721 -6.34066 0
M  V30 6326 N 585.328 1.53329 -0.364422 0
M  V30 6327 C 586.291 2.24323 0.470292 0
M  V30 6328 C 587.291 1.25068 1.01067 0
M  V30 6329 O 588.481 1.49354 0.896605 0
M  V30 6330 C 585.613 2.97908 1.65722 0
M  V30 6331 H 586.806 2.9952 -0.150917 0
M  V30 6332 H 584.359 1.55868 -0.116092 0
M  V30 6333 H 585.094 2.2695 2.31655 0
M  V30 6334 H 584.879 3.70732 1.27671 0
M  V30 6335 H 586.369 3.5188 2.24878 0
M  V30 6336 N 586.806 0.0935595 1.57322 0
M  V30 6337 C 588.054 -0.569383 1.93913 0
M  V30 6338 C 588.375 -1.68817 0.976009 0
M  V30 6339 O 587.645 -1.9588 0.0278099 0
M  V30 6340 H 586.225 -0.21332 0.715894 0
M  V30 6341 H 588.887 0.156531 1.9427 0
M  V30 6342 H 587.983 -0.980577 2.96296 0
M  V30 6343 N 588.284 -1.56567 -0.180126 0
M  V30 6344 C 589.53 -1.81761 -0.899497 0
M  V30 6345 C 589.863 -0.670015 -1.82276 0
M  V30 6346 O 589.138 0.328575 -1.91705 0
M  V30 6347 C 589.421 -3.17296 -1.7028 0
M  V30 6348 C 589.274 -4.4257 -0.803255 0
M  V30 6349 C 590.593 -3.49678 -2.67233 0
M  V30 6350 H 587.712 -0.661192 -0.325567 0
M  V30 6351 H 590.354 -1.89272 -0.16612 0
M  V30 6352 H 588.504 -3.11023 -2.32802 0
M  V30 6353 H 590.176 -4.60902 -0.191585 0
M  V30 6354 H 588.419 -4.33658 -0.110796 0
M  V30 6355 H 589.09 -5.33935 -1.40064 0
M  V30 6356 H 591.566 -3.56347 -2.14839 0
M  V30 6357 H 590.442 -4.45605 -3.20511 0
M  V30 6358 H 590.703 -2.73932 -3.47007 0
M  V30 6359 N 589.762 0.448376 -1.51087 0
M  V30 6360 C 590.692 1.55102 -1.74544 0
M  V30 6361 C 591.673 1.59357 -0.594932 0
M  V30 6362 O 592.858 1.75261 -0.836491 0
M  V30 6363 C 589.988 2.93268 -1.86041 0
M  V30 6364 C 588.942 3.03877 -3.01402 0
M  V30 6365 C 588.268 4.43914 -2.98068 0
M  V30 6366 C 589.568 2.7898 -4.41551 0
M  V30 6367 H 591.262 1.35724 -2.66869 0
M  V30 6368 H 588.808 0.651498 -1.28419 0
M  V30 6369 H 590.761 3.70356 -2.01034 0
M  V30 6370 H 589.485 3.13853 -0.903548 0
M  V30 6371 H 588.144 2.29227 -2.86096 0
M  V30 6372 H 587.792 4.6145 -2.00182 0
M  V30 6373 H 587.492 4.51944 -3.75527 0
M  V30 6374 H 589.016 5.22991 -3.1514 0
M  V30 6375 H 590.43 3.45805 -4.57265 0
M  V30 6376 H 588.827 2.98431 -5.20633 0
M  V30 6377 H 589.897 1.74663 -4.5235 0
M  V30 6378 N 591.24 1.41047 0.703093 0
M  V30 6379 C 592.468 1.4334 1.49202 0
M  V30 6380 C 592.883 0.0365596 1.88765 0
M  V30 6381 O 592.24 -0.942419 1.56284 0
M  V30 6382 C 592.291 2.33538 2.75939 0
M  V30 6383 O 592.012 3.67786 2.38045 0
M  V30 6384 C 593.513 2.44555 3.6974 0
M  V30 6385 H 590.733 0.488472 0.460039 0
M  V30 6386 H 593.277 1.85245 0.86629 0
M  V30 6387 H 591.432 1.94962 3.34766 0
M  V30 6388 H 591.846 4.15816 3.19683 0
M  V30 6389 H 593.32 3.11849 4.55471 0
M  V30 6390 H 593.797 1.47447 4.1371 0
M  V30 6391 H 594.403 2.83735 3.16819 0
M  V30 6392 N 592.718 -0.936591 1.26751 0
M  V30 6393 C 593.967 -1.67778 1.11953 0
M  V30 6394 C 594.28 -1.92694 -0.33589 0
M  V30 6395 O 595.486 -2.64682 -0.604618 0
M  V30 6396 C 593.942 -3.02138 1.95551 0
M  V30 6397 C 593.55 -2.84953 3.45696 0
M  V30 6398 C 595.294 -3.79917 1.89377 0
M  V30 6399 C 593.201 -4.14814 4.21525 0
M  V30 6400 H 592.131 -0.629275 0.415366 0
M  V30 6401 H 594.782 -1.04122 1.51099 0
M  V30 6402 H 593.164 -3.668 1.49243 0
M  V30 6403 H 594.338 -2.29112 3.99805 0
M  V30 6404 H 592.653 -2.20612 3.53156 0
M  V30 6405 H 595.25 -4.76134 2.43312 0
M  V30 6406 H 595.593 -4.07204 0.865464 0
M  V30 6407 H 596.126 -3.22037 2.33532 0
M  V30 6408 H 592.865 -3.92709 5.24843 0
M  V30 6409 H 592.385 -4.70352 3.72195 0
M  V30 6410 H 594.064 -4.83239 4.3022 0
M  V30 6411 N 594.196 -1.08629 -1.14182 0
M  V30 6412 C 595.159 -0.722027 -2.1753 0
M  V30 6413 C 596.159 0.244305 -1.58933 0
M  V30 6414 O 597.349 0.0235545 -1.74184 0
M  V30 6415 C 594.481 -0.0663966 -3.40835 0
M  V30 6416 H 595.674 -1.63719 -2.51269 0
M  V30 6417 H 593.227 -0.884442 -1.28869 0
M  V30 6418 H 593.962 0.860389 -3.12678 0
M  V30 6419 H 593.747 -0.761598 -3.84632 0
M  V30 6420 H 595.237 0.173346 -4.1724 0
M  V30 6421 N 595.674 1.31259 -0.872281 0
M  V30 6422 C 596.604 2.30929 -0.345554 0
M  V30 6423 C 597.585 1.60449 0.5648 0
M  V30 6424 O 598.77 1.8814 0.481335 0
M  V30 6425 C 595.9 3.44348 0.451823 0
M  V30 6426 C 594.854 4.26435 -0.365641 0
M  V30 6427 C 594.18 5.31785 0.557562 0
M  V30 6428 C 595.48 4.97159 -1.60095 0
M  V30 6429 H 597.174 2.75234 -1.17841 0
M  V30 6430 H 594.72 1.3232 -0.568094 0
M  V30 6431 H 596.673 4.13128 0.830854 0
M  V30 6432 H 595.397 2.98816 1.31821 0
M  V30 6433 H 594.056 3.59326 -0.726649 0
M  V30 6434 H 593.704 4.82502 1.4213 0
M  V30 6435 H 593.404 5.87598 0.0144878 0
M  V30 6436 H 594.928 6.03424 0.933387 0
M  V30 6437 H 596.342 5.58523 -1.29323 0
M  V30 6438 H 594.739 5.62779 -2.08327 0
M  V30 6439 H 595.809 4.24012 -2.35249 0
M  V30 6440 N 597.152 0.631951 1.44375 0
M  V30 6441 C 598.563 0.219036 1.85411 0
M  V30 6442 C 598.914 -1.22974 1.52879 0
M  V30 6443 O 598.039 -1.93579 0.967266 0
M  V30 6444 C 598.634 0.39075 3.36539 0
M  V30 6445 C 597.193 0.0323351 3.76386 0
M  V30 6446 C 596.34 0.703744 2.68221 0
M  V30 6447 H 599.291 0.837056 1.3483 0
M  V30 6448 H 599.312 -0.370056 3.78696 0
M  V30 6449 H 598.824 1.44527 3.60185 0
M  V30 6450 H 596.925 -1.02042 3.58355 0
M  V30 6451 H 597.038 0.442969 4.77048 0
M  V30 6452 H 595.402 0.138974 2.54321 0
M  V30 6453 H 596.185 1.76088 2.947 0
M  V30 6454 N 598.631 -1.53133 0.372548 0
M  V30 6455 C 599.877 -2.01654 -0.215277 0
M  V30 6456 C 600.21 -1.25914 -1.47849 0
M  V30 6457 O 599.485 -0.3548 -1.91237 0
M  V30 6458 C 599.768 -3.56609 -0.500187 0
M  V30 6459 C 599.621 -4.43036 0.777145 0
M  V30 6460 C 600.94 -4.20528 -1.29786 0
M  V30 6461 H 598.059 -0.732991 -0.0767686 0
M  V30 6462 H 600.701 -1.83335 0.498814 0
M  V30 6463 H 598.851 -3.7235 -1.10852 0
M  V30 6464 H 600.523 -4.39079 1.41447 0
M  V30 6465 H 598.766 -4.10723 1.39604 0
M  V30 6466 H 599.437 -5.49424 0.532662 0
M  V30 6467 H 601.913 -4.08663 -0.783198 0
M  V30 6468 H 600.789 -5.28962 -1.46596 0
M  V30 6469 H 601.05 -3.77051 -2.30836 0
M  V30 6470 N 600.109 -0.101901 -1.5727 0
M  V30 6471 C 601.52 0.426173 -1.81771 0
M  V30 6472 C 601.871 1.67725 -1.01797 0
M  V30 6473 O 600.996 2.14958 -0.249386 0
M  V30 6474 C 601.591 0.779962 -3.297 0
M  V30 6475 C 600.15 1.25275 -3.54941 0
M  V30 6476 C 599.297 0.252814 -2.76145 0
M  V30 6477 H 602.248 -0.32726 -1.55289 0
M  V30 6478 H 602.269 1.63891 -3.43395 0
M  V30 6479 H 601.781 -0.130778 -3.8788 0
M  V30 6480 H 599.882 2.18097 -3.021 0
M  V30 6481 H 599.995 1.20988 -4.63572 0
M  V30 6482 H 598.359 0.736362 -2.43823 0
M  V30 6483 H 599.142 -0.650724 -3.37076 0
M  V30 6484 N 601.587 1.56661 0.17182 0
M  V30 6485 C 602.833 1.82235 0.889845 0
M  V30 6486 C 603.166 0.679673 1.81918 0
M  V30 6487 O 602.441 -0.318404 1.91876 0
M  V30 6488 C 602.724 3.18195 1.68595 0
M  V30 6489 C 602.577 4.42989 0.779773 0
M  V30 6490 C 603.896 3.5109 2.65375 0
M  V30 6491 H 601.015 0.66291 0.322056 0
M  V30 6492 H 603.657 1.89358 0.15608 0
M  V30 6493 H 601.807 3.12253 2.3115 0
M  V30 6494 H 603.479 4.60997 0.16714 0
M  V30 6495 H 601.722 4.33711 0.0877964 0
M  V30 6496 H 602.393 5.3467 1.3723 0
M  V30 6497 H 604.869 3.57482 2.12946 0
M  V30 6498 H 603.745 4.47298 3.18144 0
M  V30 6499 H 604.006 2.75768 3.45549 0
M  V30 6500 N 603.065 -0.440357 1.51323 0
M  V30 6501 C 604.314 -1.18697 1.63076 0
M  V30 6502 C 604.627 -1.92418 0.35136 0
M  V30 6503 O 605.833 -2.69258 0.348221 0
M  V30 6504 C 604.289 -2.15849 2.87988 0
M  V30 6505 C 603.897 -1.47789 4.22921 0
M  V30 6506 C 605.641 -2.90962 3.09098 0
M  V30 6507 C 603.548 -2.43407 5.38987 0
M  V30 6508 H 602.478 -0.44676 0.607389 0
M  V30 6509 H 605.129 -0.454313 1.77787 0
M  V30 6510 H 603.511 -2.92537 2.66905 0
M  V30 6511 H 604.685 -0.7668 4.54375 0
M  V30 6512 H 603 -0.848404 4.07665 0
M  V30 6513 H 605.597 -3.62584 3.92985 0
M  V30 6514 H 605.94 -3.52133 2.22053 0
M  V30 6515 H 606.473 -2.21381 3.30507 0
M  V30 6516 H 603.212 -1.86929 6.28282 0
M  V30 6517 H 602.732 -3.12579 5.11913 0
M  V30 6518 H 604.411 -3.046 5.70813 0
M  V30 6519 N 604.543 -1.41418 -0.695603 0
M  V30 6520 C 605.789 -1.40982 -1.4578 0
M  V30 6521 C 606.122 -0.0187763 -1.94191 0
M  V30 6522 O 605.397 0.95346 -1.69527 0
M  V30 6523 C 605.68 -2.41657 -2.66972 0
M  V30 6524 C 605.533 -3.89869 -2.24327 0
M  V30 6525 C 606.852 -2.39589 -3.69168 0
M  V30 6526 H 603.971 -0.513405 -0.528757 0
M  V30 6527 H 606.613 -1.72693 -0.792275 0
M  V30 6528 H 604.763 -2.14746 -3.23754 0
M  V30 6529 H 606.435 -4.27683 -1.72872 0
M  V30 6530 H 604.678 -4.04737 -1.56111 0
M  V30 6531 H 605.349 -4.55857 -3.11285 0
M  V30 6532 H 607.825 -2.63471 -3.2206 0
M  V30 6533 H 606.701 -3.12044 -4.51575 0
M  V30 6534 H 606.962 -1.41447 -4.18862 0
M  V30 6535 N 606.021 0.929856 -1.27246 0
M  V30 6536 C 607.246 1.71674 -1.16374 0
M  V30 6537 C 607.671 1.86064 0.276024 0
M  V30 6538 O 607.029 1.3591 1.19992 0
M  V30 6539 C 607.077 3.09526 -1.85003 0
M  V30 6540 O 606.181 3.96142 -1.14653 0
M  V30 6541 H 605.522 0.52629 -0.404863 0
M  V30 6542 H 608.052 1.16381 -1.68276 0
M  V30 6543 H 608.062 3.59852 -1.92276 0
M  V30 6544 H 606.737 2.98369 -2.89739 0
M  V30 6545 H 605.314 3.54584 -1.15433 0
M  V30 6546 N 607.499 1.09233 1.13605 0
M  V30 6547 C 608.447 0.724572 2.21027 0
M  V30 6548 C 609.441 -0.273595 1.67176 0
M  V30 6549 O 610.647 -0.135266 1.79491 0
M  V30 6550 H 607.022 0.216319 0.720215 0
M  V30 6551 H 608.993 1.63975 2.49309 0
M  V30 6552 C 607.742 0.159126 3.47336 0
M  V30 6553 H 607.065 0.918387 3.89109 0
M  V30 6554 H 608.505 -0.0602851 4.23957 0
M  V30 6555 C 606.964 -1.10514 3.18258 0
M  V30 6556 O 607.494 -2.18869 3.36837 0
M  V30 6557 N 605.7 -1.01886 2.72154 0
M  V30 6558 H 605.247 -0.137027 2.57235 0
M  V30 6559 H 605.205 -1.8655 2.53074 0
M  V30 6560 N 608.977 -1.30795 0.87923 0
M  V30 6561 C 610.224 -1.96362 0.494786 0
M  V30 6562 C 610.552 -1.69448 -0.954868 0
M  V30 6563 O 609.807 -0.988711 -1.68888 0
M  V30 6564 C 610.106 -3.50287 0.709476 0
M  V30 6565 C 609.772 -3.9724 2.13333 0
M  V30 6566 C 608.434 -4.09772 2.52271 0
M  V30 6567 C 610.786 -4.21807 3.06151 0
M  V30 6568 C 608.114 -4.44227 3.83248 0
M  V30 6569 C 610.466 -4.5773 4.36654 0
M  V30 6570 C 609.13 -4.68469 4.75492 0
M  V30 6571 H 608.4 -0.71854 0.181055 0
M  V30 6572 H 611.047 -1.55764 1.11399 0
M  V30 6573 H 609.352 -3.91799 0.0072 0
M  V30 6574 H 611.049 -3.99082 0.391703 0
M  V30 6575 H 607.639 -3.87988 1.82107 0
M  V30 6576 H 611.823 -4.11611 2.77291 0
M  V30 6577 H 607.079 -4.50741 4.13089 0
M  V30 6578 H 611.253 -4.7569 5.08617 0
M  V30 6579 H 608.88 -4.94923 5.77022 0
M  V30 6580 N 610.455 -0.639598 -1.44038 0
M  V30 6581 C 611.403 0.0723409 -2.32487 0
M  V30 6582 C 612.397 0.827129 -1.47834 0
M  V30 6583 O 613.603 0.73907 -1.64127 0
M  V30 6584 H 609.978 0.0421696 -0.750817 0
M  V30 6585 H 611.949 -0.691593 -2.90275 0
M  V30 6586 C 610.698 1.03452 -3.31953 0
M  V30 6587 H 610.021 0.46315 -3.97108 0
M  V30 6588 H 611.461 1.502 -3.96505 0
M  V30 6589 C 609.92 2.12392 -2.61518 0
M  V30 6590 O 610.45 3.2059 -2.42044 0
M  V30 6591 N 608.656 1.88563 -2.21116 0
M  V30 6592 H 608.203 1.00577 -2.37154 0
M  V30 6593 H 608.161 2.61651 -1.74316 0
M  V30 6594 N 611.933 1.52934 -0.380664 0
M  V30 6595 C 613.163 2.05587 0.204302 0
M  V30 6596 C 613.571 1.25288 1.41773 0
M  V30 6597 O 612.914 0.290394 1.8139 0
M  V30 6598 C 612.976 3.53624 0.647324 0
M  V30 6599 C 612.64 4.54765 -0.451465 0
M  V30 6600 C 613.637 5.03226 -1.30614 0
M  V30 6601 C 611.322 4.98508 -0.616025 0
M  V30 6602 C 613.316 5.94046 -2.31058 0
M  V30 6603 C 611.003 5.89131 -1.62381 0
M  V30 6604 C 612.001 6.36792 -2.46952 0
M  V30 6605 O 611.689 7.25626 -3.46009 0
M  V30 6606 H 611.421 0.675013 0.0365198 0
M  V30 6607 H 613.975 1.98125 -0.541827 0
M  V30 6608 H 612.205 3.58676 1.44529 0
M  V30 6609 H 613.894 3.89061 1.15698 0
M  V30 6610 H 614.66 4.70167 -1.19027 0
M  V30 6611 H 610.539 4.60989 0.0324987 0
M  V30 6612 H 614.083 6.3117 -2.97104 0
M  V30 6613 H 609.98 6.21603 -1.7401 0
M  V30 6614 H 610.748 7.43664 -3.41916 0
M  V30 6615 N 613.412 0.11024 1.57214 0
M  V30 6616 C 614.659 -0.54987 1.94891 0
M  V30 6617 C 614.987 -1.67243 0.992984 0
M  V30 6618 O 614.242 -1.95694 0.0152703 0
M  V30 6619 C 614.541 -1.13102 3.39032 0
M  V30 6620 C 614.207 -0.130713 4.5071 0
M  V30 6621 C 612.869 0.14437 4.80983 0
M  V30 6622 C 615.221 0.551472 5.18274 0
M  V30 6623 C 612.549 1.10807 5.76141 0
M  V30 6624 C 614.901 1.50375 6.14467 0
M  V30 6625 C 613.565 1.78691 6.43138 0
M  V30 6626 H 612.835 -0.201212 0.713158 0
M  V30 6627 H 615.482 0.189288 1.90562 0
M  V30 6628 H 613.787 -1.94675 3.40013 0
M  V30 6629 H 615.484 -1.64973 3.65493 0
M  V30 6630 H 612.074 -0.355301 4.27125 0
M  V30 6631 H 616.258 0.35211 4.95049 0
M  V30 6632 H 611.514 1.3343 5.96663 0
M  V30 6633 H 615.688 2.03808 6.65909 0
M  V30 6634 H 613.315 2.53522 7.1668 0
M  V30 6635 N 614.89 -1.56749 -0.16351 0
M  V30 6636 C 616.12 -1.86307 -0.892936 0
M  V30 6637 C 616.528 -0.6945 -1.75992 0
M  V30 6638 O 615.871 0.345384 -1.80424 0
M  V30 6639 C 615.933 -3.10372 -1.81409 0
M  V30 6640 C 615.597 -4.42913 -1.12593 0
M  V30 6641 C 616.594 -5.17608 -0.487661 0
M  V30 6642 C 614.279 -4.89646 -1.12035 0
M  V30 6643 C 616.273 -6.3723 0.14699 0
M  V30 6644 C 613.96 -6.09197 -0.481883 0
M  V30 6645 C 614.958 -6.82834 0.150678 0
M  V30 6646 O 614.646 -8.00116 0.779065 0
M  V30 6647 H 614.378 -0.622126 -0.264452 0
M  V30 6648 H 616.932 -2.04728 -0.166063 0
M  V30 6649 H 615.162 -2.87917 -2.58148 0
M  V30 6650 H 616.851 -3.26312 -2.41403 0
M  V30 6651 H 617.617 -4.8258 -0.483888 0
M  V30 6652 H 613.496 -4.32265 -1.60212 0
M  V30 6653 H 617.04 -6.94646 0.641325 0
M  V30 6654 H 612.937 -6.43688 -0.483266 0
M  V30 6655 H 613.705 -8.15678 0.679089 0
M  V30 6656 N 616.368 0.432326 -1.51554 0
M  V30 6657 C 617.318 1.52366 -1.69614 0
M  V30 6658 C 618.302 1.51205 -0.550083 0
M  V30 6659 O 619.494 1.57573 -0.806206 0
M  V30 6660 C 616.623 2.90513 -1.82913 0
M  V30 6661 C 615.709 2.9641 -3.03318 0
M  V30 6662 N 616.1 2.72043 -4.26411 0
M  V30 6663 C 614.398 3.27572 -3.02675 0
M  V30 6664 C 615.099 2.83912 -5.07709 0
M  V30 6665 N 614.075 3.15798 -4.42462 0
M  V30 6666 H 617.877 1.32285 -2.62446 0
M  V30 6667 H 615.391 0.639708 -1.4927 0
M  V30 6668 H 617.388 3.69032 -1.93962 0
M  V30 6669 H 616.048 3.1161 -0.912655 0
M  V30 6670 H 617.059 2.46876 -4.55272 0
M  V30 6671 H 613.736 3.54411 -2.20678 0
M  V30 6672 H 615.126 2.68984 -6.15709 0
M  V30 6673 N 617.846 1.41785 0.688094 0
M  V30 6674 C 619.262 1.24419 0.999608 0
M  V30 6675 C 619.462 0.138868 2.01021 0
M  V30 6676 O 618.518 -0.494283 2.47615 0
M  V30 6677 C 619.831 2.59625 1.51709 0
M  V30 6678 C 621.379 2.66869 1.63554 0
M  V30 6679 C 621.854 4.0241 2.18702 0
M  V30 6680 N 623.345 4.04295 2.26053 0
M  V30 6681 C 624.08 5.05977 2.69768 0
M  V30 6682 N 623.576 6.18047 3.13033 0
M  V30 6683 N 625.369 4.93336 2.69398 0
M  V30 6684 H 617.52 2.12392 0.0187427 0
M  V30 6685 H 619.783 0.945347 0.0708673 0
M  V30 6686 H 619.489 3.41297 0.849059 0
M  V30 6687 H 619.363 2.82628 2.49803 0
M  V30 6688 H 621.75 1.8555 2.29467 0
M  V30 6689 H 621.831 2.47668 0.639857 0
M  V30 6690 H 621.475 4.8418 1.53402 0
M  V30 6691 H 621.405 4.18955 3.19037 0
M  V30 6692 H 623.896 3.23383 1.9553 0
M  V30 6693 H 624.209 6.91498 3.45038 0
M  V30 6694 H 622.554 6.21572 3.10923 0
M  V30 6695 H 625.745 4.04865 2.34952 0
M  V30 6696 H 625.918 5.72717 3.03148 0
M  V30 6697 N 619.324 -0.923095 1.27737 0
M  V30 6698 C 620.234 -2.05765 1.12685 0
M  V30 6699 C 621.25 -1.73911 0.0557197 0
M  V30 6700 O 622.426 -1.99674 0.263137 0
M  V30 6701 C 619.491 -3.37804 0.780363 0
M  V30 6702 C 618.552 -3.83326 1.93286 0
M  V30 6703 C 617.785 -5.09064 1.60281 0
M  V30 6704 O 618.008 -5.6809 0.512828 0
M  V30 6705 O 616.942 -5.50071 2.44347 0
M  V30 6706 H 620.768 -2.21378 2.07907 0
M  V30 6707 H 618.353 -1.04299 1.06968 0
M  V30 6708 H 620.235 -4.17097 0.600668 0
M  V30 6709 H 618.91 -3.23387 -0.142291 0
M  V30 6710 H 617.817 -3.049 2.16764 0
M  V30 6711 H 619.15 -4.02292 2.83588 0
M  V30 6712 N 620.802 -1.09834 -1.13024 0
M  V30 6713 C 622.03 -0.858902 -1.8823 0
M  V30 6714 C 622.445 0.590164 -1.79339 0
M  V30 6715 O 621.802 1.4065 -1.16292 0
M  V30 6716 C 621.853 -1.29066 -3.37675 0
M  V30 6717 O 621.574 -2.6829 -3.46341 0
M  V30 6718 C 623.075 -1.08421 -4.29837 0
M  V30 6719 H 620.295 -0.308713 -0.595766 0
M  V30 6720 H 622.839 -1.4614 -1.4305 0
M  V30 6721 H 620.994 -0.731961 -3.80422 0
M  V30 6722 H 621.408 -2.86598 -4.39274 0
M  V30 6723 H 622.882 -1.43553 -5.33007 0
M  V30 6724 H 623.359 -0.0223315 -4.39194 0
M  V30 6725 H 623.965 -1.62907 -3.92863 0
M  V30 6726 N 622.28 1.30327 -0.886154 0
M  V30 6727 C 623.19 2.31854 -0.357866 0
M  V30 6728 C 624.206 1.65392 0.540502 0
M  V30 6729 O 625.382 1.96683 0.433339 0
M  V30 6730 C 622.447 3.44171 0.417999 0
M  V30 6731 C 621.508 4.26257 -0.510263 0
M  V30 6732 C 620.741 5.3321 0.228669 0
M  V30 6733 O 620.964 5.51542 1.45458 0
M  V30 6734 O 619.898 6.0042 -0.421832 0
M  V30 6735 H 623.724 2.78995 -1.19982 0
M  V30 6736 H 621.309 1.34518 -0.650028 0
M  V30 6737 H 623.191 4.12588 0.857251 0
M  V30 6738 H 621.866 2.99164 1.23623 0
M  V30 6739 H 620.773 3.60533 -0.99835 0
M  V30 6740 H 622.106 4.74871 -1.29454 0
M  V30 6741 N 623.758 0.647228 1.43697 0
M  V30 6742 C 625.006 0.157876 2.01482 0
M  V30 6743 C 625.327 -1.23039 1.51282 0
M  V30 6744 O 624.597 -1.82071 0.722982 0
M  V30 6745 H 623.177 0.0553745 0.744945 0
M  V30 6746 H 625.839 0.83755 1.75986 0
M  V30 6747 H 624.935 0.137895 3.11795 0
M  V30 6748 N 625.236 -1.5273 0.388769 0
M  V30 6749 C 626.146 -2.30165 -0.453993 0
M  V30 6750 C 627.162 -1.37058 -1.07197 0
M  V30 6751 O 628.338 -1.70127 -1.0779 0
M  V30 6752 C 625.403 -3.09303 -1.56628 0
M  V30 6753 C 624.464 -4.18117 -0.973467 0
M  V30 6754 C 623.697 -4.93472 -2.03275 0
M  V30 6755 O 623.92 -4.68913 -3.24772 0
M  V30 6756 O 622.854 -5.78833 -1.65034 0
M  V30 6757 H 626.68 -3.03185 0.176816 0
M  V30 6758 H 624.265 -1.4862 0.152501 0
M  V30 6759 H 626.147 -3.58648 -2.21246 0
M  V30 6760 H 624.822 -2.39098 -2.18206 0
M  V30 6761 H 623.729 -3.7297 -0.290556 0
M  V30 6762 H 625.062 -4.90556 -0.401908 0
M  V30 6763 N 626.714 -0.118576 -1.57153 0
M  V30 6764 C 627.624 0.845484 -2.18835 0
M  V30 6765 C 628.64 1.29299 -1.16438 0
M  V30 6766 O 629.816 1.35607 -1.48905 0
M  V30 6767 C 626.881 2.07795 -2.77529 0
M  V30 6768 C 625.942 1.6824 -3.9496 0
M  V30 6769 C 625.175 2.85612 -4.50845 0
M  V30 6770 O 625.398 4.01025 -4.05629 0
M  V30 6771 O 624.332 2.62721 -5.41536 0
M  V30 6772 H 628.158 0.350568 -3.0167 0
M  V30 6773 H 625.743 0.107013 -1.49016 0
M  V30 6774 H 627.625 2.79978 -3.14945 0
M  V30 6775 H 626.3 2.56294 -1.97725 0
M  V30 6776 H 625.207 0.931663 -3.62313 0
M  V30 6777 H 626.54 1.24484 -4.76198 0
M  V30 6778 N 628.193 1.56834 0.155195 0
M  V30 6779 C 629.125 1.94235 1.21677 0
M  V30 6780 C 630.138 0.83724 1.39621 0
M  V30 6781 O 631.327 1.11567 1.39338 0
M  V30 6782 C 628.427 2.19402 2.58294 0
M  V30 6783 C 627.6 3.50671 2.61436 0
M  V30 6784 C 626.659 3.64475 3.79532 0
M  V30 6785 O 625.685 4.36945 3.64784 0
M  V30 6786 N 626.887 3.00526 4.96653 0
M  V30 6787 H 629.652 2.85901 0.898932 0
M  V30 6788 H 627.213 1.58185 0.34483 0
M  V30 6789 H 629.205 2.25886 3.35794 0
M  V30 6790 H 627.775 1.34042 2.82403 0
M  V30 6791 H 626.995 3.55702 1.69912 0
M  V30 6792 H 628.283 4.3702 2.60559 0
M  V30 6793 H 627.681 2.41549 5.11538 0
M  V30 6794 H 626.238 3.12583 5.71958 0
M  V30 6795 N 629.671 -0.424282 1.51781 0
M  V30 6796 C 630.634 -1.49848 1.73431 0
M  V30 6797 C 631.634 -1.49016 0.604225 0
M  V30 6798 O 632.824 -1.50808 0.871935 0
M  V30 6799 C 629.956 -2.89332 1.80277 0
M  V30 6800 H 631.149 -1.3195 2.69312 0
M  V30 6801 H 628.702 -0.653809 1.41968 0
M  V30 6802 H 629.437 -3.12618 0.862568 0
M  V30 6803 H 629.222 -2.9134 2.62419 0
M  V30 6804 H 630.712 -3.67233 1.98821 0
M  V30 6805 N 631.149 -1.42148 -0.680565 0
M  V30 6806 C 632.081 -1.41119 -1.80605 0
M  V30 6807 C 633.094 -0.311099 -1.598 0
M  V30 6808 O 634.283 -0.573813 -1.69026 0
M  V30 6809 C 631.383 -1.18204 -3.17618 0
M  V30 6810 C 630.556 -2.40537 -3.65322 0
M  V30 6811 C 629.615 -2.13254 -4.8105 0
M  V30 6812 O 628.641 -2.8641 -4.91892 0
M  V30 6813 N 629.843 -1.13208 -5.69354 0
M  V30 6814 H 632.608 -2.38128 -1.81975 0
M  V30 6815 H 630.169 -1.36953 -0.863446 0
M  V30 6816 H 632.161 -0.97878 -3.92686 0
M  V30 6817 H 630.731 -0.29738 -3.11182 0
M  V30 6818 H 629.951 -2.76468 -2.80996 0
M  V30 6819 H 631.239 -3.22012 -3.93936 0
M  V30 6820 H 630.637 -0.526893 -5.63241 0
M  V30 6821 H 629.194 -0.988699 -6.44258 0
M  V30 6822 N 632.627 0.916307 -1.28225 0
M  V30 6823 C 633.857 1.69654 -1.17902 0
M  V30 6824 C 634.265 1.87331 0.265268 0
M  V30 6825 O 633.608 1.39828 1.19137 0
M  V30 6826 C 633.67 3.11024 -1.80289 0
M  V30 6827 C 633.334 3.16643 -3.29525 0
M  V30 6828 C 634.331 2.98032 -4.25997 0
M  V30 6829 C 632.016 3.39238 -3.70436 0
M  V30 6830 C 634.01 3.01924 -5.61356 0
M  V30 6831 C 631.697 3.42762 -5.05922 0
M  V30 6832 C 632.695 3.24125 -6.01192 0
M  V30 6833 O 632.383 3.27406 -7.34208 0
M  V30 6834 H 632.115 0.537197 -0.41036 0
M  V30 6835 H 634.669 1.15547 -1.69817 0
M  V30 6836 H 632.899 3.66662 -1.22865 0
M  V30 6837 H 634.588 3.71063 -1.6452 0
M  V30 6838 H 635.354 2.80405 -3.95725 0
M  V30 6839 H 631.233 3.52791 -2.96749 0
M  V30 6840 H 634.777 2.87295 -6.35694 0
M  V30 6841 H 630.674 3.59916 -5.35846 0
M  V30 6842 H 631.442 3.43784 -7.42802 0
M  V30 6843 N 634.105 1.10431 1.1244 0
M  V30 6844 C 635.035 0.775143 2.20258 0
M  V30 6845 C 636.016 -0.25186 1.68225 0
M  V30 6846 O 637.201 -0.117637 1.93843 0
M  V30 6847 C 634.331 0.206133 3.46688 0
M  V30 6848 C 633.285 1.16382 4.11873 0
M  V30 6849 C 632.611 0.456014 5.32752 0
M  V30 6850 C 633.911 2.5104 4.58013 0
M  V30 6851 H 635.605 1.67665 2.4805 0
M  V30 6852 H 633.151 0.807595 1.19222 0
M  V30 6853 H 635.104 -0.036291 4.21384 0
M  V30 6854 H 633.828 -0.730614 3.18323 0
M  V30 6855 H 632.487 1.39169 3.39157 0
M  V30 6856 H 632.135 -0.485203 5.00654 0
M  V30 6857 H 631.835 1.09466 5.77314 0
M  V30 6858 H 633.359 0.222135 6.10196 0
M  V30 6859 H 634.773 2.32401 5.24083 0
M  V30 6860 H 633.17 3.10789 5.13352 0
M  V30 6861 H 634.24 3.11039 3.71998 0
M  V30 6862 N 635.583 -1.29855 0.893053 0
M  V30 6863 C 636.515 -2.26911 0.32311 0
M  V30 6864 C 637.528 -1.54039 -0.526858 0
M  V30 6865 O 638.717 -1.75132 -0.345095 0
M  V30 6866 C 635.817 -3.34266 -0.558509 0
M  V30 6867 C 634.99 -4.36601 0.264222 0
M  V30 6868 C 634.049 -5.23326 -0.549171 0
M  V30 6869 O 633.075 -5.69192 0.0309883 0
M  V30 6870 N 634.277 -5.50008 -1.85664 0
M  V30 6871 H 637.042 -2.76455 1.15726 0
M  V30 6872 H 634.603 -1.4312 0.756859 0
M  V30 6873 H 636.595 -3.89211 -1.1089 0
M  V30 6874 H 635.165 -2.8459 -1.29334 0
M  V30 6875 H 634.385 -3.81409 0.996046 0
M  V30 6876 H 635.673 -5.02019 0.827906 0
M  V30 6877 H 635.071 -5.14542 -2.35081 0
M  V30 6878 H 633.628 -6.07796 -2.35431 0
M  V30 6879 N 637.061 -0.65484 -1.43351 0
M  V30 6880 C 638.307 -0.169142 -2.02093 0
M  V30 6881 C 638.64 1.21431 -1.51553 0
M  V30 6882 O 637.915 1.81105 -0.709317 0
M  V30 6883 C 638.198 -0.181775 -3.59641 0
M  V30 6884 C 638.051 -1.59926 -4.20409 0
M  V30 6885 C 639.37 0.480945 -4.37464 0
M  V30 6886 H 636.489 -0.0629371 -0.734308 0
M  V30 6887 H 639.131 -0.835833 -1.70628 0
M  V30 6888 H 637.281 0.385918 -3.86578 0
M  V30 6889 H 638.953 -2.21766 -4.04497 0
M  V30 6890 H 637.196 -2.14605 -3.76998 0
M  V30 6891 H 637.867 -1.55994 -5.295 0
M  V30 6892 H 640.343 -0.00208273 -4.161 0
M  V30 6893 H 639.219 0.441384 -5.47122 0
M  V30 6894 H 639.48 1.55533 -4.13838 0
M  V30 6895 N 638.539 1.52521 -0.396863 0
M  V30 6896 C 639.767 2.06091 0.18275 0
M  V30 6897 C 640.182 1.26796 1.39886 0
M  V30 6898 O 639.539 0.316585 1.79733 0
M  V30 6899 C 639.59 3.57362 0.545377 0
M  V30 6900 O 639.311 4.33656 -0.622428 0
M  V30 6901 C 640.812 4.27305 1.18004 0
M  V30 6902 H 638.032 0.670504 0.025789 0
M  V30 6903 H 640.576 1.96561 -0.564276 0
M  V30 6904 H 638.731 3.66941 1.2423 0
M  V30 6905 H 639.145 5.23507 -0.322662 0
M  V30 6906 H 640.619 5.34366 1.38408 0
M  V30 6907 H 641.096 3.83 2.1496 0
M  V30 6908 H 641.702 4.22064 0.523671 0
M  V30 6909 N 640.017 0.126909 1.57088 0
M  V30 6910 C 641.242 -0.53997 2.00248 0
M  V30 6911 C 641.667 -1.58927 1.00618 0
M  V30 6912 O 641.025 -1.81288 -0.0210131 0
M  V30 6913 C 641.073 -1.13565 3.4225 0
M  V30 6914 O 640.177 -2.25103 3.45547 0
M  V30 6915 H 639.518 -0.13412 0.650314 0
M  V30 6916 H 642.048 0.217718 2.03438 0
M  V30 6917 H 642.058 -1.46925 3.80627 0
M  V30 6918 H 640.733 -0.367122 4.14277 0
M  V30 6919 H 639.31 -1.93123 3.18995 0
M  V30 6920 N 641.495 -1.56914 -0.146875 0
M  V30 6921 C 642.735 -1.85163 -0.86568 0
M  V30 6922 C 643.099 -0.711215 -1.78342 0
M  V30 6923 O 644.3 -0.874754 -2.54168 0
M  V30 6924 C 642.571 -3.18593 -1.61967 0
M  V30 6925 S 644.13 -3.68397 -2.38388 0
M  V30 6926 H 640.948 -0.6494 -0.289483 0
M  V30 6927 H 643.55 -1.95096 -0.125679 0
M  V30 6928 H 642.254 -3.99562 -0.93694 0
M  V30 6929 H 641.785 -3.11666 -2.40058 0
M  V30 6930 H 643.8 -3.37672 -3.63582 0
M  V30 6931 N 642.974 0.416227 -1.52004 0
M  V30 6932 C 644.385 0.995319 -1.57957 0
M  V30 6933 C 644.736 1.91744 -0.415754 0
M  V30 6934 O 643.861 2.11349 0.464808 0
M  V30 6935 C 644.456 1.81191 -2.86278 0
M  V30 6936 C 643.015 2.34115 -2.94732 0
M  V30 6937 C 642.162 1.139 -2.52828 0
M  V30 6938 H 645.113 0.196716 -1.57476 0
M  V30 6939 H 645.134 2.66859 -2.71231 0
M  V30 6940 H 644.646 1.14051 -3.70963 0
M  V30 6941 H 642.747 3.04647 -2.14525 0
M  V30 6942 H 642.86 2.65466 -3.98829 0
M  V30 6943 H 641.224 1.49081 -2.06511 0
M  V30 6944 H 642.007 0.483383 -3.3988 0
M  V30 6945 N 644.452 1.42507 0.673017 0
M  V30 6946 C 645.399 1.46124 1.78651 0
M  V30 6947 C 646.369 0.313007 1.63124 0
M  V30 6948 O 647.554 0.517337 1.83653 0
M  V30 6949 C 644.694 1.3711 3.16694 0
M  V30 6950 C 643.807 2.61983 3.43495 0
M  V30 6951 C 642.942 2.45098 4.71275 0
M  V30 6952 C 641.981 3.65336 4.91117 0
M  V30 6953 N 641.118 3.47383 6.10139 0
M  V30 6954 H 645.958 2.4128 1.74895 0
M  V30 6955 H 643.495 1.19788 0.853766 0
M  V30 6956 H 645.453 1.29881 3.96468 0
M  V30 6957 H 644.083 0.45549 3.1957 0
M  V30 6958 H 643.135 2.79571 2.57961 0
M  V30 6959 H 644.447 3.51355 3.5405 0
M  V30 6960 H 643.601 2.35466 5.59143 0
M  V30 6961 H 642.34 1.53219 4.63007 0
M  V30 6962 H 641.345 3.754 4.0169 0
M  V30 6963 H 642.57 4.58199 5.01229 0
M  V30 6964 H 640.516 2.58222 6.0304 0
M  V30 6965 H 640.433 4.30344 6.21563 0
M  V30 6966 H 641.701 3.41565 7.00681 0
M  V30 6967 N 645.93 -0.909495 1.28709 0
M  V30 6968 C 647.179 -1.65365 1.15487 0
M  V30 6969 C 647.492 -1.93364 -0.294941 0
M  V30 6970 O 648.698 -2.65905 -0.548338 0
M  V30 6971 C 647.154 -2.97923 2.01916 0
M  V30 6972 C 646.762 -2.77556 3.51663 0
M  V30 6973 C 648.506 -3.75814 1.97393 0
M  V30 6974 C 646.413 -4.0578 4.30229 0
M  V30 6975 H 645.343 -0.620323 0.42862 0
M  V30 6976 H 647.994 -1.00894 1.53273 0
M  V30 6977 H 646.376 -3.63552 1.5699 0
M  V30 6978 H 647.55 -2.2058 4.04575 0
M  V30 6979 H 645.865 -2.13072 3.57756 0
M  V30 6980 H 648.462 -4.70866 2.53357 0
M  V30 6981 H 648.805 -4.05277 0.951643 0
M  V30 6982 H 649.338 -3.1701 2.40311 0
M  V30 6983 H 646.077 -3.81488 5.33055 0
M  V30 6984 H 645.597 -4.62351 3.82089 0
M  V30 6985 H 647.276 -4.74004 4.40374 0
M  V30 6986 N 647.408 -1.11026 -1.11852 0
M  V30 6987 C 648.819 -0.873203 -1.65021 0
M  V30 6988 C 649.17 0.595364 -1.86949 0
M  V30 6989 O 648.295 1.45645 -1.60051 0
M  V30 6990 C 648.89 -1.57859 -2.99777 0
M  V30 6991 C 647.449 -1.38807 -3.49871 0
M  V30 6992 C 646.596 -1.62403 -2.24768 0
M  V30 6993 H 649.547 -1.26712 -0.955503 0
M  V30 6994 H 649.568 -1.02111 -3.66543 0
M  V30 6995 H 649.08 -2.6474 -2.83786 0
M  V30 6996 H 647.181 -0.341163 -3.71035 0
M  V30 6997 H 647.294 -2.13421 -4.28938 0
M  V30 6998 H 645.658 -1.04714 -2.32179 0
M  V30 6999 H 646.441 -2.70549 -2.11324 0
M  V30 7000 N 648.886 1.2938 -0.899927 0
M  V30 7001 C 650.111 2.00228 -0.540692 0
M  V30 7002 C 650.536 1.66909 0.867359 0
M  V30 7003 O 649.894 0.893824 1.57735 0
M  V30 7004 C 649.942 3.52921 -0.740232 0
M  V30 7005 O 649.046 4.11879 0.207154 0
M  V30 7006 H 648.387 0.629505 -0.211233 0
M  V30 7007 H 650.917 1.6487 -1.21158 0
M  V30 7008 H 650.927 4.0287 -0.644973 0
M  V30 7009 H 649.602 3.76508 -1.76677 0
M  V30 7010 H 648.179 3.72845 0.0643315 0
M  V30 7011 N 650.364 0.662433 1.43002 0
M  V30 7012 C 651.589 0.186003 2.06564 0
M  V30 7013 C 652.014 -1.14314 1.49379 0
M  V30 7014 O 651.372 -1.70824 0.607346 0
M  V30 7015 C 651.42 0.118269 3.60406 0
M  V30 7016 O 650.524 -0.916859 4.02079 0
M  V30 7017 H 649.865 0.0990981 0.656563 0
M  V30 7018 H 652.395 0.907958 1.8335 0
M  V30 7019 H 652.405 -0.0619981 4.07953 0
M  V30 7020 H 651.08 1.08849 4.01403 0
M  V30 7021 H 649.657 -0.708635 3.66105 0
M  V30 7022 N 651.842 -1.52309 0.404946 0
M  V30 7023 C 653.253 -1.86585 -0.0655926 0
M  V30 7024 C 653.604 -1.3239 -1.44801 0
M  V30 7025 O 652.729 -0.6615 -2.06042 0
M  V30 7026 C 653.324 -3.38566 -0.125801 0
M  V30 7027 C 651.883 -3.72497 -0.540666 0
M  V30 7028 C 651.03 -2.75806 0.287487 0
M  V30 7029 H 653.981 -1.45995 0.622185 0
M  V30 7030 H 654.002 -3.68658 -0.941888 0
M  V30 7031 H 653.514 -3.77981 0.880473 0
M  V30 7032 H 651.615 -3.38659 -1.55373 0
M  V30 7033 H 651.728 -4.78234 -0.287956 0
M  V30 7034 H 650.092 -2.53474 -0.249561 0
M  V30 7035 H 650.875 -3.18059 1.29203 0
M  V30 7036 N 653.32 -0.135238 -1.57019 0
M  V30 7037 C 654.597 0.563227 -1.87316 0
M  V30 7038 C 654.977 1.83749 -1.03921 0
M  V30 7039 O 654.325 2.2817 -0.122675 0
M  V30 7040 C 654.535 0.840031 -3.3874 0
M  V30 7041 C 655.883 1.18598 -4.077 0
M  V30 7042 O 656.907 0.92977 -3.43851 0
M  V30 7043 O 655.766 1.66758 -5.20436 0
M  V30 7044 H 652.86 0.285971 -0.775983 0
M  V30 7045 H 655.406 -0.170965 -1.68837 0
M  V30 7046 H 654.178 -0.0622785 -3.9125 0
M  V30 7047 H 653.801 1.62882 -3.62706 0
M  V30 7048 N 654.798 1.5699 0.138552 0
M  V30 7049 C 655.728 2.01933 1.17241 0
M  V30 7050 C 656.709 0.90033 1.44319 0
M  V30 7051 O 657.894 1.16872 1.55095 0
M  V30 7052 C 655.024 2.40711 2.50351 0
M  V30 7053 C 653.978 3.55874 2.37776 0
M  V30 7054 C 653.304 3.80491 3.75674 0
M  V30 7055 C 654.604 4.8826 1.85472 0
M  V30 7056 H 656.298 2.88551 0.798672 0
M  V30 7057 H 653.844 1.3882 0.382743 0
M  V30 7058 H 655.797 2.70754 3.22909 0
M  V30 7059 H 654.521 1.5104 2.89576 0
M  V30 7060 H 653.18 3.2601 1.67669 0
M  V30 7061 H 652.828 2.88057 4.12349 0
M  V30 7062 H 652.528 4.57998 3.68119 0
M  V30 7063 H 654.052 4.12967 4.49767 0
M  V30 7064 H 655.466 5.16965 2.4783 0
M  V30 7065 H 653.863 5.69631 1.88787 0
M  V30 7066 H 654.933 4.78071 0.810935 0
M  V30 7067 N 656.276 -0.40816 1.52223 0
M  V30 7068 C 657.223 -1.49737 1.75635 0
M  V30 7069 C 658.193 -1.5493 0.598824 0
M  V30 7070 O 659.378 -1.71487 0.83648 0
M  V30 7071 C 656.518 -2.87174 1.91376 0
M  V30 7072 C 655.631 -2.91283 3.19027 0
M  V30 7073 C 654.766 -4.20026 3.25195 0
M  V30 7074 C 653.805 -4.18113 4.47044 0
M  V30 7075 N 652.942 -5.38429 4.50598 0
M  V30 7076 H 657.782 -1.29075 2.68596 0
M  V30 7077 H 655.319 -0.626518 1.33091 0
M  V30 7078 H 657.277 -3.66959 1.98486 0
M  V30 7079 H 655.907 -3.06329 1.01795 0
M  V30 7080 H 654.959 -2.03984 3.21084 0
M  V30 7081 H 656.271 -2.85734 4.08849 0
M  V30 7082 H 655.425 -5.08204 3.31382 0
M  V30 7083 H 654.164 -4.28271 2.33313 0
M  V30 7084 H 653.169 -3.28325 4.41002 0
M  V30 7085 H 654.394 -4.11507 5.40221 0
M  V30 7086 H 652.34 -5.4734 3.616 0
M  V30 7087 H 652.257 -5.34879 5.34266 0
M  V30 7088 H 653.525 -6.28557 4.61016 0
M  V30 7089 N 657.755 -1.42862 -0.66545 0
M  V30 7090 C 658.702 -1.4707 -1.77874 0
M  V30 7091 C 659.672 -0.321654 -1.62956 0
M  V30 7092 O 660.857 -0.52707 -1.83376 0
M  V30 7093 C 657.997 -1.38788 -3.15962 0
M  V30 7094 C 657.11 -2.63801 -3.42101 0
M  V30 7095 C 656.245 -2.47594 -4.69969 0
M  V30 7096 C 655.284 -3.67936 -4.89172 0
M  V30 7097 N 654.421 -3.50614 -6.08288 0
M  V30 7098 H 659.261 -2.42204 -1.73613 0
M  V30 7099 H 656.798 -1.20239 -0.847401 0
M  V30 7100 H 658.756 -1.31982 -3.95773 0
M  V30 7101 H 657.386 -0.472431 -3.19324 0
M  V30 7102 H 656.438 -2.80935 -2.56475 0
M  V30 7103 H 657.75 -3.53228 -3.52181 0
M  V30 7104 H 656.904 -2.38427 -5.57886 0
M  V30 7105 H 655.643 -1.55672 -4.62188 0
M  V30 7106 H 654.648 -3.77525 -3.99694 0
M  V30 7107 H 655.873 -4.60851 -4.98792 0
M  V30 7108 H 653.819 -2.61417 -6.01662 0
M  V30 7109 H 653.736 -4.33634 -6.19272 0
M  V30 7110 H 655.004 -3.45276 -6.98859 0
M  V30 7111 N 659.233 0.902656 -1.29189 0
M  V30 7112 C 660.458 1.69167 -1.19989 0
M  V30 7113 C 660.883 1.86607 0.236495 0
M  V30 7114 O 660.241 1.38425 1.17082 0
M  V30 7115 C 660.289 3.05532 -1.91527 0
M  V30 7116 O 659.393 3.93621 -1.2303 0
M  V30 7117 H 658.734 0.517584 -0.415936 0
M  V30 7118 H 661.264 1.12785 -1.70706 0
M  V30 7119 H 661.274 3.55693 -1.99866 0
M  V30 7120 H 659.949 2.92156 -2.96003 0
M  V30 7121 H 658.526 3.52055 -1.22928 0
M  V30 7122 N 660.711 1.11618 1.11262 0
M  V30 7123 C 662.127 0.850468 1.35053 0
M  V30 7124 C 662.327 -0.523868 1.94571 0
M  V30 7125 O 661.383 -1.2743 2.17986 0
M  V30 7126 C 662.696 1.96005 2.28041 0
M  V30 7127 C 664.244 1.98993 2.416 0
M  V30 7128 C 664.719 3.0916 3.37911 0
M  V30 7129 N 666.21 3.08547 3.45475 0
M  V30 7130 C 666.945 3.9043 4.19943 0
M  V30 7131 N 666.441 4.8228 4.97371 0
M  V30 7132 N 668.234 3.786 4.15474 0
M  V30 7133 H 660.385 2.00184 0.709932 0
M  V30 7134 H 662.648 0.870635 0.375099 0
M  V30 7135 H 662.354 2.9499 1.91503 0
M  V30 7136 H 662.228 1.85782 3.28275 0
M  V30 7137 H 664.615 1.00633 2.77411 0
M  V30 7138 H 664.696 2.13292 1.4121 0
M  V30 7139 H 664.34 4.07748 3.02827 0
M  V30 7140 H 664.27 2.92102 4.3816 0
M  V30 7141 H 666.761 2.42 2.90249 0
M  V30 7142 H 667.074 5.41289 5.51567 0
M  V30 7143 H 665.419 4.863 4.96525 0
M  V30 7144 H 668.61 3.06185 3.54074 0
M  V30 7145 H 668.783 4.42647 4.73253 0
M  V30 7146 N 662.189 -1.289 0.906776 0
M  V30 7147 C 663.414 -1.99939 0.551303 0
M  V30 7148 C 663.839 -1.67366 -0.858496 0
M  V30 7149 O 663.197 -0.902176 -1.57259 0
M  V30 7150 C 663.245 -3.52523 0.758937 0
M  V30 7151 O 662.349 -4.11983 -0.185308 0
M  V30 7152 H 661.69 -0.628376 0.214568 0
M  V30 7153 H 664.22 -1.64225 1.2203 0
M  V30 7154 H 664.23 -4.02522 0.666329 0
M  V30 7155 H 662.905 -3.75566 1.78671 0
M  V30 7156 H 661.482 -3.72873 -0.0445577 0
M  V30 7157 N 663.667 -0.670007 -1.42649 0
M  V30 7158 C 664.63 0.00204659 -2.292 0
M  V30 7159 C 665.63 0.733817 -1.4308 0
M  V30 7160 O 666.82 0.57254 -1.64522 0
M  V30 7161 C 663.952 1.01359 -3.25483 0
M  V30 7162 H 665.145 -0.759696 -2.90118 0
M  V30 7163 H 662.698 -0.432105 -1.50208 0
M  V30 7164 H 663.433 1.80399 -2.69493 0
M  V30 7165 H 663.218 0.492323 -3.88997 0
M  V30 7166 H 664.708 1.4824 -3.90403 0
M  V30 7167 N 665.145 1.52092 -0.413018 0
M  V30 7168 C 666.37 2.06756 0.163338 0
M  V30 7169 C 666.795 1.28073 1.37764 0
M  V30 7170 O 666.153 0.312015 1.78595 0
M  V30 7171 C 666.201 3.57278 0.488322 0
M  V30 7172 O 665.305 3.80986 1.57871 0
M  V30 7173 H 664.646 0.663882 0.0125068 0
M  V30 7174 H 667.176 1.95988 -0.587339 0
M  V30 7175 H 667.186 4.01125 0.745836 0
M  V30 7176 H 665.861 4.13978 -0.399327 0
M  V30 7177 H 664.438 3.49017 1.31306 0
M  V30 7178 N 666.623 0.143563 1.56945 0
M  V30 7179 C 667.851 -0.515447 2.00377 0
M  V30 7180 C 668.266 -1.58643 1.02361 0
M  V30 7181 O 667.623 -1.82489 0.0201039 0
M  V30 7182 C 667.674 -1.11923 3.43737 0
M  V30 7183 O 667.395 -0.0910318 4.38005 0
M  V30 7184 C 668.896 -1.85918 4.02429 0
M  V30 7185 H 666.116 -0.134478 0.657386 0
M  V30 7186 H 668.66 0.237135 2.0312 0
M  V30 7187 H 666.815 -1.82245 3.41856 0
M  V30 7188 H 667.229 -0.532916 5.21786 0
M  V30 7189 H 668.703 -2.2346 5.04747 0
M  V30 7190 H 669.18 -2.7438 3.42947 0
M  V30 7191 H 669.786 -1.20303 4.07931 0
M  V30 7192 N 668.101 -1.57061 -0.130224 0
M  V30 7193 C 669.35 -1.83446 -0.838488 0
M  V30 7194 C 669.663 -0.727468 -1.81569 0
M  V30 7195 O 670.869 -0.877394 -2.56932 0
M  V30 7196 C 669.325 -3.25201 -1.54182 0
M  V30 7197 C 668.933 -4.4388 -0.606178 0
M  V30 7198 C 670.677 -3.60844 -2.23588 0
M  V30 7199 C 668.584 -5.76661 -1.31209 0
M  V30 7200 H 667.514 -0.684185 -0.316871 0
M  V30 7201 H 670.165 -1.83273 -0.0912059 0
M  V30 7202 H 668.547 -3.1981 -2.33533 0
M  V30 7203 H 669.721 -4.60545 0.153308 0
M  V30 7204 H 668.036 -4.16395 -0.0196705 0
M  V30 7205 H 670.633 -4.57313 -2.77072 0
M  V30 7206 H 670.976 -2.87724 -3.00867 0
M  V30 7207 H 671.509 -3.67971 -1.51137 0
M  V30 7208 H 668.248 -6.52922 -0.580823 0
M  V30 7209 H 667.768 -5.63902 -2.04387 0
M  V30 7210 H 669.447 -6.20035 -1.8484 0
M  V30 7211 N 669.579 0.400081 -1.52437 0
M  V30 7212 C 670.804 1.17221 -1.71096 0
M  V30 7213 C 671.229 1.83269 -0.423565 0
M  V30 7214 O 670.587 1.70378 0.619751 0
M  V30 7215 C 670.635 2.20425 -2.85386 0
M  V30 7216 O 669.739 3.26769 -2.51586 0
M  V30 7217 H 669.08 0.341766 -0.569291 0
M  V30 7218 H 671.61 0.467772 -1.99181 0
M  V30 7219 H 671.62 2.64605 -3.10561 0
M  V30 7220 H 670.295 1.71737 -3.78786 0
M  V30 7221 H 668.872 2.87804 -2.37114 0
M  V30 7222 N 671.057 1.43213 0.657864 0
M  V30 7223 C 672.004 1.48011 1.77092 0
M  V30 7224 C 672.974 0.330291 1.62783 0
M  V30 7225 O 674.159 0.536787 1.83094 0
M  V30 7226 C 671.299 1.40461 3.15222 0
M  V30 7227 C 670.412 2.65612 3.40697 0
M  V30 7228 C 669.547 2.50083 4.68649 0
M  V30 7229 C 668.586 3.70525 4.87214 0
M  V30 7230 N 667.723 3.53835 6.0642 0
M  V30 7231 H 672.563 2.43121 1.72326 0
M  V30 7232 H 670.1 1.20687 0.841013 0
M  V30 7233 H 672.058 1.34079 3.95068 0
M  V30 7234 H 670.688 0.489359 3.19069 0
M  V30 7235 H 669.74 2.82292 2.54982 0
M  V30 7236 H 671.052 3.5509 3.50303 0
M  V30 7237 H 670.206 2.41383 5.56614 0
M  V30 7238 H 668.945 1.58121 4.61356 0
M  V30 7239 H 667.95 3.79639 3.97686 0
M  V30 7240 H 669.175 4.63489 4.96341 0
M  V30 7241 H 667.121 2.64604 6.00267 0
M  V30 7242 H 667.038 4.36912 6.16963 0
M  V30 7243 H 668.306 3.48978 6.97019 0
M  V30 7244 N 672.536 -0.895792 1.29666 0
M  V30 7245 C 673.761 -1.68528 1.20885 0
M  V30 7246 C 674.186 -1.8673 -0.226595 0
M  V30 7247 O 673.544 -1.39044 -1.16347 0
M  V30 7248 C 673.592 -3.04512 1.93144 0
M  V30 7249 O 672.696 -3.92963 1.25115 0
M  V30 7250 H 672.037 -0.515371 0.418675 0
M  V30 7251 H 674.567 -1.11878 1.71302 0
M  V30 7252 H 674.577 -3.54628 2.0175 0
M  V30 7253 H 673.252 -2.90582 2.97548 0
M  V30 7254 H 671.829 -3.51399 1.24794 0
M  V30 7255 N 674.014 -1.12206 -1.10668 0
M  V30 7256 C 675.291 -0.787382 -1.79052 0
M  V30 7257 C 675.671 0.723267 -1.98323 0
M  V30 7258 O 675.019 1.6561 -1.57434 0
M  V30 7259 C 675.229 -1.55968 -3.1221 0
M  V30 7260 C 676.577 -1.74413 -3.87125 0
M  V30 7261 O 677.601 -1.5246 -3.21923 0
M  V30 7262 O 676.46 -2.10952 -5.04144 0
M  V30 7263 H 673.554 -0.286137 -0.775922 0
M  V30 7264 H 676.1 -1.22595 -1.1734 0
M  V30 7265 H 674.872 -2.58692 -2.93588 0
M  V30 7266 H 674.495 -1.1152 -3.8164 0
M  V30 7267 N 675.492 1.28418 -0.913599 0
M  V30 7268 C 676.722 1.98817 -0.56172 0
M  V30 7269 C 677.13 1.68457 0.861321 0
M  V30 7270 O 676.473 0.933653 1.58204 0
M  V30 7271 C 676.535 3.52801 -0.690785 0
M  V30 7272 C 676.199 4.0675 -2.08334 0
M  V30 7273 C 677.196 4.20597 -3.05604 0
M  V30 7274 C 674.881 4.41445 -2.39648 0
M  V30 7275 C 676.875 4.68392 -4.32305 0
M  V30 7276 C 674.562 4.88934 -3.66588 0
M  V30 7277 C 675.56 5.02364 -4.6273 0
M  V30 7278 O 675.248 5.48817 -5.87414 0
M  V30 7279 H 674.98 0.641608 -0.212874 0
M  V30 7280 H 677.534 1.64584 -1.22887 0
M  V30 7281 H 675.764 3.86686 0.0334336 0
M  V30 7282 H 677.453 4.04422 -0.346031 0
M  V30 7283 H 678.219 3.94067 -2.8273 0
M  V30 7284 H 674.098 4.30242 -1.65567 0
M  V30 7285 H 677.642 4.7879 -5.07352 0
M  V30 7286 H 673.539 5.14904 -3.89287 0
M  V30 7287 H 674.307 5.67103 -5.90201 0
M  V30 7288 N 676.97 0.677563 1.42291 0
M  V30 7289 C 677.903 -0.0492638 2.28147 0
M  V30 7290 C 678.881 -0.805936 1.41221 0
M  V30 7291 O 680.065 -0.80049 1.70659 0
M  V30 7292 C 677.192 -1.07697 3.21122 0
M  V30 7293 C 676.238 -0.41556 4.24471 0
M  V30 7294 S 677.071 0.828876 5.29046 0
M  V30 7295 C 678.227 -0.197687 6.25588 0
M  V30 7296 H 678.46 0.678965 2.89443 0
M  V30 7297 H 675.993 0.467201 1.47162 0
M  V30 7298 H 677.951 -1.66482 3.75225 0
M  V30 7299 H 676.612 -1.77766 2.58956 0
M  V30 7300 H 675.805 -1.19112 4.89723 0
M  V30 7301 H 675.407 0.0987632 3.7387 0
M  V30 7302 H 677.699 -1.05656 6.69211 0
M  V30 7303 H 678.642 0.420437 7.06851 0
M  V30 7304 H 679.05 -0.544401 5.61869 0
M  V30 7305 N 678.448 -1.51871 0.421078 0
M  V30 7306 C 679.358 -2.31077 -0.405069 0
M  V30 7307 C 680.374 -1.39301 -1.04265 0
M  V30 7308 O 681.55 -1.72376 -1.04157 0
M  V30 7309 C 678.615 -3.12556 -1.50032 0
M  V30 7310 C 677.676 -4.20088 -0.884559 0
M  V30 7311 C 676.909 -4.97673 -1.92762 0
M  V30 7312 O 677.132 -4.75696 -3.14753 0
M  V30 7313 O 676.066 -5.82203 -1.52719 0
M  V30 7314 H 679.892 -3.02742 0.241086 0
M  V30 7315 H 677.477 -1.48263 0.183991 0
M  V30 7316 H 679.359 -3.6326 -2.13589 0
M  V30 7317 H 678.034 -2.43672 -2.13086 0
M  V30 7318 H 676.941 -3.73502 -0.211379 0
M  V30 7319 H 678.274 -4.91298 -0.297763 0
M  V30 7320 N 679.926 -0.151884 -1.56866 0
M  V30 7321 C 681.175 0.497992 -1.95456 0
M  V30 7322 C 681.488 1.6569 -1.03953 0
M  V30 7323 O 682.694 2.37173 -1.32142 0
M  V30 7324 C 681.15 0.93732 -3.4748 0
M  V30 7325 C 680.758 -0.194921 -4.47576 0
M  V30 7326 C 682.502 1.55671 -3.94926 0
M  V30 7327 C 680.409 0.26295 -5.90815 0
M  V30 7328 H 679.339 0.189811 -0.729717 0
M  V30 7329 H 681.99 -0.237011 -1.81963 0
M  V30 7330 H 680.372 1.72773 -3.56322 0
M  V30 7331 H 681.546 -0.971951 -4.50433 0
M  V30 7332 H 679.861 -0.72303 -4.10075 0
M  V30 7333 H 682.458 1.91099 -4.99385 0
M  V30 7334 H 682.801 2.44748 -3.36755 0
M  V30 7335 H 683.334 0.831109 -3.89021 0
M  V30 7336 H 680.073 -0.592568 -6.52816 0
M  V30 7337 H 679.593 1.00575 -5.91308 0
M  V30 7338 H 681.272 0.713333 -6.43056 0
M  V30 7339 N 681.404 1.57128 0.121893 0
M  V30 7340 C 682.336 1.96773 1.17529 0
M  V30 7341 C 683.349 0.866668 1.37814 0
M  V30 7342 O 684.538 1.14497 1.3694 0
M  V30 7343 C 681.638 2.24832 2.53582 0
M  V30 7344 C 680.811 3.56138 2.53939 0
M  V30 7345 C 679.87 3.72443 3.71716 0
M  V30 7346 O 678.896 4.44584 3.55434 0
M  V30 7347 N 680.098 3.10993 4.90167 0
M  V30 7348 H 682.863 2.87743 0.838086 0
M  V30 7349 H 680.424 1.58881 0.311199 0
M  V30 7350 H 682.416 2.32958 3.30927 0
M  V30 7351 H 680.986 1.40002 2.79496 0
M  V30 7352 H 680.206 3.59226 1.62329 0
M  V30 7353 H 681.494 4.42448 2.51231 0
M  V30 7354 H 680.892 2.52345 5.06299 0
M  V30 7355 H 679.449 3.24644 5.65198 0
M  V30 7356 N 682.882 -0.391992 1.52647 0
M  V30 7357 C 683.792 -1.503 1.80131 0
M  V30 7358 C 684.808 -1.59825 0.687882 0
M  V30 7359 O 685.984 -1.76218 0.975149 0
M  V30 7360 C 683.049 -2.85863 1.96171 0
M  V30 7361 C 682.11 -2.86084 3.20085 0
M  V30 7362 C 681.343 -4.15181 3.35351 0
M  V30 7363 O 681.566 -5.09981 2.55491 0
M  V30 7364 O 680.5 -4.22603 4.28591 0
M  V30 7365 H 684.326 -1.30007 2.74466 0
M  V30 7366 H 681.911 -0.579539 1.37701 0
M  V30 7367 H 683.793 -3.66236 2.08445 0
M  V30 7368 H 682.468 -3.06189 1.05025 0
M  V30 7369 H 681.375 -2.04504 3.13256 0
M  V30 7370 H 682.708 -2.7071 4.11068 0
M  V30 7371 N 684.36 -1.4356 -0.65026 0
M  V30 7372 C 685.608 -1.45046 -1.40734 0
M  V30 7373 C 685.929 -0.0769822 -1.94848 0
M  V30 7374 O 685.199 0.888098 -1.74613 0
M  V30 7375 H 683.779 -0.534034 -0.522318 0
M  V30 7376 H 686.441 -1.79186 -0.766703 0
M  V30 7377 H 685.537 -2.16476 -2.24822 0
M  V30 7378 N 685.838 0.888903 -1.30139 0
M  V30 7379 C 687.084 1.6428 -1.18912 0
M  V30 7380 C 687.417 1.92499 0.256477 0
M  V30 7381 O 686.692 1.54312 1.18397 0
M  V30 7382 C 686.975 2.9851 -2.01405 0
M  V30 7383 C 686.828 2.77288 -3.54163 0
M  V30 7384 C 688.147 3.99383 -1.84882 0
M  V30 7385 H 685.266 0.596148 -0.433333 0
M  V30 7386 H 687.908 1.0289 -1.5973 0
M  V30 7387 H 686.058 3.50907 -1.66722 0
M  V30 7388 H 687.73 2.31709 -3.98884 0
M  V30 7389 H 685.973 2.11867 -3.78543 0
M  V30 7390 H 686.644 3.72717 -4.07168 0
M  V30 7391 H 689.12 3.56132 -2.15196 0
M  V30 7392 H 687.996 4.91222 -2.44934 0
M  V30 7393 H 688.257 4.34674 -0.806902 0
M  V30 7394 N 687.317 1.12792 1.10072 0
M  V30 7395 C 688.265 0.794523 2.18609 0
M  V30 7396 C 689.259 -0.220271 1.67962 0
M  V30 7397 O 690.465 -0.0780938 1.79831 0
M  V30 7398 H 686.84 0.239123 0.712969 0
M  V30 7399 H 688.811 1.71823 2.43966 0
M  V30 7400 C 687.56 0.269548 3.46654 0
M  V30 7401 H 686.883 1.04171 3.8599 0
M  V30 7402 H 688.323 0.0746242 4.23934 0
M  V30 7403 C 686.782 -1.00333 3.21613 0
M  V30 7404 O 687.312 -2.08042 3.4363 0
M  V30 7405 N 685.518 -0.931763 2.75257 0
M  V30 7406 H 685.065 -0.0551197 2.57541 0
M  V30 7407 H 685.023 -1.78405 2.58881 0
M  V30 7408 N 688.795 -1.27931 0.920396 0
M  V30 7409 C 689.743 -2.29061 0.404191 0
M  V30 7410 C 690.737 -1.61615 -0.507634 0
M  V30 7411 O 691.943 -1.75765 -0.388144 0
M  V30 7412 H 688.318 -0.743594 0.112123 0
M  V30 7413 H 690.289 -2.70021 1.27008 0
M  V30 7414 C 689.038 -3.46088 -0.334466 0
M  V30 7415 H 688.361 -3.98194 0.35797 0
M  V30 7416 H 689.801 -4.18829 -0.660196 0
M  V30 7417 C 688.26 -2.99396 -1.54479 0
M  V30 7418 O 688.79 -3.02439 -2.64374 0
M  V30 7419 N 686.996 -2.54978 -1.39408 0
M  V30 7420 H 686.543 -2.52701 -0.500009 0
M  V30 7421 H 686.501 -2.24098 -2.20516 0
M  V30 7422 N 690.273 -0.685099 -1.4193 0
M  V30 7423 C 691.498 -0.218842 -2.06242 0
M  V30 7424 C 691.923 1.11923 -1.51178 0
M  V30 7425 O 691.281 1.69837 -0.634446 0
M  V30 7426 C 691.329 -0.175592 -3.60172 0
M  V30 7427 O 690.433 0.852776 -4.03487 0
M  V30 7428 H 689.774 -0.109531 -0.654904 0
M  V30 7429 H 692.304 -0.937013 -1.81882 0
M  V30 7430 H 692.314 -0.00291151 -4.08 0
M  V30 7431 H 690.989 -1.15222 -3.99621 0
M  V30 7432 H 689.566 0.650301 -3.67186 0
M  V30 7433 N 691.751 1.51645 -0.429126 0
M  V30 7434 C 692.699 2.29119 0.400921 0
M  V30 7435 C 693.693 1.34628 1.02819 0
M  V30 7436 O 694.899 1.52004 0.964098 0
M  V30 7437 H 691.274 0.737273 0.148095 0
M  V30 7438 H 693.245 2.97144 -0.273457 0
M  V30 7439 C 691.994 3.13953 1.49429 0
M  V30 7440 H 691.317 3.86544 1.02097 0
M  V30 7441 H 692.757 3.71232 2.04849 0
M  V30 7442 C 691.216 2.28796 2.47293 0
M  V30 7443 O 691.746 1.94193 3.51642 0
M  V30 7444 N 689.952 1.92177 2.17982 0
M  V30 7445 H 689.499 2.20517 1.33154 0
M  V30 7446 H 689.457 1.35497 2.83704 0
M  V30 7447 N 693.229 0.160201 1.56784 0
M  V30 7448 C 694.139 -0.787167 2.21 0
M  V30 7449 C 695.155 -1.26167 1.19825 0
M  V30 7450 O 696.331 -1.31611 1.52448 0
M  V30 7451 C 693.396 -2.00364 2.8294 0
M  V30 7452 C 692.457 -1.5771 3.99282 0
M  V30 7453 C 691.69 -2.73558 4.58259 0
M  V30 7454 O 691.913 -3.90129 4.16119 0
M  V30 7455 O 690.847 -2.48271 5.48311 0
M  V30 7456 H 694.673 -0.270462 3.02493 0
M  V30 7457 H 692.258 -0.0674666 1.49248 0
M  V30 7458 H 694.14 -2.71529 3.22257 0
M  V30 7459 H 692.815 -2.50961 2.04451 0
M  V30 7460 H 691.722 -0.835274 3.64656 0
M  V30 7461 H 693.055 -1.11815 4.79331 0
M  V30 7462 N 694.707 -1.5719 -0.113559 0
M  V30 7463 C 695.984 -1.76117 -0.850999 0
M  V30 7464 C 696.364 -0.737085 -1.97814 0
M  V30 7465 O 695.712 0.237942 -2.27258 0
M  V30 7466 C 695.922 -3.21298 -1.36266 0
M  V30 7467 C 697.27 -3.83955 -1.81283 0
M  V30 7468 O 698.294 -3.24934 -1.45933 0
M  V30 7469 O 697.153 -4.87707 -2.46585 0
M  V30 7470 H 694.247 -0.721308 -0.404529 0
M  V30 7471 H 696.793 -1.69423 -0.0968756 0
M  V30 7472 H 695.565 -3.87355 -0.554235 0
M  V30 7473 H 695.188 -3.32552 -2.17933 0
M  V30 7474 N 696.185 0.383891 -1.52853 0
M  V30 7475 C 697.432 1.12842 -1.68146 0
M  V30 7476 C 697.76 1.89823 -0.423954 0
M  V30 7477 O 697.015 1.86475 0.593765 0
M  V30 7478 C 697.314 2.12881 -2.87082 0
M  V30 7479 C 696.98 1.52519 -4.24322 0
M  V30 7480 C 695.642 1.35783 -4.61645 0
M  V30 7481 C 697.994 1.0868 -5.09743 0
M  V30 7482 C 695.322 0.737643 -5.82044 0
M  V30 7483 C 697.674 0.480699 -6.30771 0
M  V30 7484 C 696.338 0.300681 -6.66822 0
M  V30 7485 H 695.608 0.412917 -0.615289 0
M  V30 7486 H 698.255 0.412416 -1.87006 0
M  V30 7487 H 696.56 2.90719 -2.62659 0
M  V30 7488 H 698.257 2.70408 -2.96109 0
M  V30 7489 H 694.847 1.66534 -3.94923 0
M  V30 7490 H 699.031 1.2041 -4.81472 0
M  V30 7491 H 694.287 0.586415 -6.08581 0
M  V30 7492 H 698.461 0.132733 -6.96273 0
M  V30 7493 H 696.088 -0.181966 -7.59982 0
M  V30 7494 N 697.663 1.43903 0.642637 0
M  V30 7495 C 699.079 1.27536 0.959519 0
M  V30 7496 C 699.279 0.202751 2.00477 0
M  V30 7497 O 698.335 -0.415256 2.49062 0
M  V30 7498 C 699.648 2.6432 1.43372 0
M  V30 7499 C 701.196 2.71937 1.54981 0
M  V30 7500 C 701.671 4.09164 2.05789 0
M  V30 7501 N 703.162 4.11282 2.13076 0
M  V30 7502 C 703.897 5.14303 2.53534 0
M  V30 7503 N 703.393 6.27693 2.93212 0
M  V30 7504 N 705.186 5.01657 2.53567 0
M  V30 7505 H 697.337 2.12344 -0.0488376 0
M  V30 7506 H 699.6 0.947124 0.0407559 0
M  V30 7507 H 699.306 3.43826 0.740048 0
M  V30 7508 H 699.18 2.90432 2.40685 0
M  V30 7509 H 701.567 1.92757 2.23448 0
M  V30 7510 H 701.648 2.49578 0.560739 0
M  V30 7511 H 701.292 4.88815 1.37921 0
M  V30 7512 H 701.222 4.28893 3.05546 0
M  V30 7513 H 703.713 3.2944 1.85143 0
M  V30 7514 H 704.026 7.02125 3.22863 0
M  V30 7515 H 702.371 6.31149 2.90991 0
M  V30 7516 H 705.562 4.12134 2.21952 0
M  V30 7517 H 705.735 5.82072 2.84774 0
M  V30 7518 N 699.141 -0.881989 1.30609 0
M  V30 7519 C 700.051 -2.02076 1.19174 0
M  V30 7520 C 701.067 -1.73645 0.11102 0
M  V30 7521 O 702.243 -1.98735 0.326528 0
M  V30 7522 C 699.308 -3.3515 0.887438 0
M  V30 7523 C 698.369 -3.76983 2.05383 0
M  V30 7524 C 697.602 -5.03707 1.76395 0
M  V30 7525 O 697.825 -5.66171 0.693302 0
M  V30 7526 O 696.759 -5.42019 2.61723 0
M  V30 7527 H 700.585 -2.14652 2.14845 0
M  V30 7528 H 698.17 -1.00843 1.10232 0
M  V30 7529 H 700.052 -4.14975 0.73306 0
M  V30 7530 H 698.727 -3.23676 -0.0393354 0
M  V30 7531 H 697.634 -2.97849 2.26355 0
M  V30 7532 H 698.967 -3.93066 2.96243 0
M  V30 7533 N 700.619 -1.13374 -1.09472 0
M  V30 7534 C 701.529 -0.824029 -2.19652 0
M  V30 7535 C 702.545 0.19118 -1.72947 0
M  V30 7536 O 703.721 0.0223464 -2.01388 0
M  V30 7537 C 700.786 -0.294009 -3.45451 0
M  V30 7538 C 699.847 -1.3704 -4.0684 0
M  V30 7539 C 699.08 -0.86558 -5.26634 0
M  V30 7540 O 699.303 0.29702 -5.69626 0
M  V30 7541 O 698.237 -1.63968 -5.79136 0
M  V30 7542 H 702.063 -1.74454 -2.48595 0
M  V30 7543 H 699.648 -0.911155 -1.18399 0
M  V30 7544 H 701.53 -0.00381039 -4.214 0
M  V30 7545 H 700.205 0.598921 -3.18111 0
M  V30 7546 H 699.112 -1.71391 -3.3253 0
M  V30 7547 H 700.445 -2.23746 -4.38405 0
M  V30 7548 N 702.098 1.27442 -0.927168 0
M  V30 7549 C 703.046 2.28844 -0.416333 0
M  V30 7550 C 704.04 1.61882 0.499057 0
M  V30 7551 O 705.246 1.75969 0.378817 0
M  V30 7552 H 701.621 0.742989 -0.116065 0
M  V30 7553 H 703.592 2.69344 -1.28438 0
M  V30 7554 C 702.341 3.4626 0.316107 0
M  V30 7555 H 701.664 3.97999 -0.379082 0
M  V30 7556 H 703.104 4.19173 0.637975 0
M  V30 7557 C 701.563 3.00211 1.5289 0
M  V30 7558 O 702.093 3.03837 2.62766 0
M  V30 7559 N 700.299 2.55713 1.38054 0
M  V30 7560 H 699.846 2.52962 0.4866 0
M  V30 7561 H 699.804 2.25264 2.19325 0
M  V30 7562 N 703.576 0.692616 1.41565 0
M  V30 7563 C 704.506 0.0397325 2.33466 0
M  V30 7564 C 705.487 -0.770334 1.51657 0
M  V30 7565 O 706.672 -0.723903 1.80203 0
M  V30 7566 C 703.802 -0.899495 3.3545 0
M  V30 7567 C 702.756 -0.196738 4.27548 0
M  V30 7568 C 702.082 -1.25012 5.19881 0
M  V30 7569 C 703.382 0.935158 5.1386 0
M  V30 7570 H 705.076 0.807296 2.88311 0
M  V30 7571 H 702.622 0.389665 1.38628 0
M  V30 7572 H 704.575 -1.36545 3.98665 0
M  V30 7573 H 703.299 -1.69869 2.78948 0
M  V30 7574 H 701.958 0.249158 3.65752 0
M  V30 7575 H 701.606 -2.04177 4.59696 0
M  V30 7576 H 701.306 -0.784931 5.82334 0
M  V30 7577 H 702.83 -1.71665 5.85972 0
M  V30 7578 H 704.244 0.549619 5.70659 0
M  V30 7579 H 702.641 1.32726 5.85238 0
M  V30 7580 H 703.711 1.77613 4.512 0
M  V30 7581 N 705.054 -1.51416 0.437162 0
M  V30 7582 C 706.001 -2.27743 -0.374374 0
M  V30 7583 C 706.971 -1.31327 -1.01698 0
M  V30 7584 O 708.156 -1.60229 -1.03592 0
M  V30 7585 C 705.296 -3.12241 -1.46969 0
M  V30 7586 C 704.409 -4.23651 -0.845236 0
M  V30 7587 C 703.544 -4.95458 -1.91559 0
M  V30 7588 C 702.583 -5.98789 -1.26956 0
M  V30 7589 N 701.72 -6.64005 -2.28126 0
M  V30 7590 H 706.56 -2.96654 0.282892 0
M  V30 7591 H 704.097 -1.46319 0.151352 0
M  V30 7592 H 706.055 -3.59556 -2.11602 0
M  V30 7593 H 704.685 -2.45445 -2.09659 0
M  V30 7594 H 703.737 -3.803 -0.0872059 0
M  V30 7595 H 705.049 -4.97683 -0.333582 0
M  V30 7596 H 704.203 -5.46321 -2.63854 0
M  V30 7597 H 702.942 -4.21055 -2.46097 0
M  V30 7598 H 701.947 -5.47219 -0.53207 0
M  V30 7599 H 703.172 -6.75149 -0.731509 0
M  V30 7600 H 701.118 -5.92415 -2.81745 0
M  V30 7601 H 701.035 -7.33802 -1.81852 0
M  V30 7602 H 702.303 -7.19498 -2.99905 0
M  V30 7603 N 706.532 -0.168513 -1.56696 0
M  V30 7604 C 707.76 0.483503 -2.01171 0
M  V30 7605 C 708.175 1.56994 -1.04872 0
M  V30 7606 O 707.532 1.82434 -0.0491337 0
M  V30 7607 C 707.583 1.0644 -3.45475 0
M  V30 7608 O 707.304 0.0213375 -4.38095 0
M  V30 7609 C 708.805 1.79493 -4.05336 0
M  V30 7610 H 706.025 0.124002 -0.659443 0
M  V30 7611 H 708.569 -0.269419 -2.02717 0
M  V30 7612 H 706.724 1.76784 -3.44712 0
M  V30 7613 H 707.138 0.449837 -5.22567 0
M  V30 7614 H 708.612 2.15401 -5.08238 0
M  V30 7615 H 709.089 2.68889 -3.47269 0
M  V30 7616 H 709.695 1.13798 -4.09793 0
M  V30 7617 N 708.01 1.57248 0.105221 0
M  V30 7618 C 708.973 2.00388 1.11252 0
M  V30 7619 C 709.973 0.89594 1.33527 0
M  V30 7620 O 711.163 1.16166 1.29811 0
M  V30 7621 C 708.295 2.35589 2.46395 0
M  V30 7622 H 709.488 2.90591 0.741424 0
M  V30 7623 H 707.041 1.52332 0.349956 0
M  V30 7624 H 707.776 1.4831 2.884 0
M  V30 7625 H 707.561 3.16408 2.31578 0
M  V30 7626 H 709.051 2.69658 3.18864 0
M  V30 7627 N 709.488 -0.375779 1.53054 0
M  V30 7628 C 710.436 -1.48015 1.79428 0
M  V30 7629 C 711.43 -1.55893 0.662854 0
M  V30 7630 O 712.636 -1.58901 0.845599 0
M  V30 7631 H 709.011 -0.492887 0.56795 0
M  V30 7632 H 710.982 -1.22971 2.71884 0
M  V30 7633 C 709.731 -2.84984 1.99197 0
M  V30 7634 H 709.054 -2.79677 2.85693 0
M  V30 7635 H 710.494 -3.61462 2.21633 0
M  V30 7636 C 708.953 -3.28025 0.768183 0
M  V30 7637 O 709.483 -4.01671 -0.0480482 0
M  V30 7638 N 707.689 -2.84454 0.594521 0
M  V30 7639 H 707.236 -2.24688 1.25988 0
M  V30 7640 H 707.194 -3.13609 -0.222916 0
M  V30 7641 N 710.966 -1.44241 -0.634997 0
M  V30 7642 C 712.206 -1.48339 -1.40623 0
M  V30 7643 C 712.57 -0.111479 -1.91676 0
M  V30 7644 O 713.771 -0.0271345 -2.68786 0
M  V30 7645 C 712.042 -2.51122 -2.54308 0
M  V30 7646 S 713.601 -2.74237 -3.42548 0
M  V30 7647 H 710.419 -0.524715 -0.479787 0
M  V30 7648 H 713.021 -1.81138 -0.735489 0
M  V30 7649 H 711.725 -3.49511 -2.15106 0
M  V30 7650 H 711.256 -2.19883 -3.26213 0
M  V30 7651 H 713.271 -2.0554 -4.51628 0
M  V30 7652 N 712.444 0.87505 -1.31075 0
M  V30 7653 C 713.672 1.66058 -1.23419 0
M  V30 7654 C 714.087 1.87723 0.201347 0
M  V30 7655 O 713.444 1.43178 1.13165 0
M  V30 7656 C 713.495 3.03142 -1.96945 0
M  V30 7657 O 713.216 2.82448 -3.34895 0
M  V30 7658 C 714.717 3.97583 -1.96067 0
M  V30 7659 H 711.937 0.517868 -0.426677 0
M  V30 7660 H 714.481 1.09258 -1.72867 0
M  V30 7661 H 712.636 3.56645 -1.51271 0
M  V30 7662 H 713.05 3.69483 -3.72267 0
M  V30 7663 H 714.524 4.91104 -2.52034 0
M  V30 7664 H 715.001 4.2898 -0.941961 0
M  V30 7665 H 715.607 3.50015 -2.41597 0
M  V30 7666 N 713.922 1.13953 1.08869 0
M  V30 7667 C 714.852 0.844824 2.17681 0
M  V30 7668 C 715.833 -0.198213 1.68941 0
M  V30 7669 O 717.018 -0.0559073 1.9412 0
M  V30 7670 C 714.148 0.316325 3.45856 0
M  V30 7671 C 713.102 1.29426 4.07962 0
M  V30 7672 C 712.428 0.625275 5.31031 0
M  V30 7673 C 713.728 2.65484 4.49795 0
M  V30 7674 H 715.422 1.75471 2.42591 0
M  V30 7675 H 712.968 0.845116 1.16592 0
M  V30 7676 H 714.921 0.0977876 4.21287 0
M  V30 7677 H 713.645 -0.628972 3.20486 0
M  V30 7678 H 712.304 1.49889 3.34558 0
M  V30 7679 H 711.952 -0.325678 5.01945 0
M  V30 7680 H 711.652 1.27777 5.73539 0
M  V30 7681 H 713.176 0.416152 6.0918 0
M  V30 7682 H 714.59 2.48957 5.16424 0
M  V30 7683 H 712.987 3.26963 5.03205 0
M  V30 7684 H 714.057 3.22717 3.61914 0
M  V30 7685 N 715.4 -1.26948 0.933913 0
M  V30 7686 C 716.363 -2.24889 0.442457 0
M  V30 7687 C 717.363 -1.54594 -0.442426 0
M  V30 7688 O 718.553 -1.72502 -0.242629 0
M  V30 7689 C 715.685 -3.3896 -0.363173 0
M  V30 7690 H 716.878 -2.69879 1.30787 0
M  V30 7691 H 714.431 -1.38978 0.715187 0
M  V30 7692 H 715.166 -2.99361 -1.24714 0
M  V30 7693 H 714.951 -3.9116 0.271366 0
M  V30 7694 H 716.441 -4.11739 -0.697186 0
M  V30 7695 N 716.879 -0.700114 -1.41195 0
M  V30 7696 C 717.827 -0.0263301 -2.32585 0
M  V30 7697 C 718.821 0.763683 -1.51209 0
M  V30 7698 O 720.027 0.668793 -1.67114 0
M  V30 7699 H 716.402 0.0102869 -0.75193 0
M  V30 7700 H 718.373 -0.814087 -2.8708 0
M  V30 7701 C 717.122 0.892793 -3.36042 0
M  V30 7702 H 716.445 0.294306 -3.98715 0
M  V30 7703 H 717.885 1.33247 -4.02518 0
M  V30 7704 C 716.344 2.01109 -2.7029 0
M  V30 7705 O 716.874 3.10035 -2.55423 0
M  V30 7706 N 715.08 1.79015 -2.28915 0
M  V30 7707 H 714.627 0.904275 -2.41207 0
M  V30 7708 H 714.585 2.54022 -1.85257 0
M  V30 7709 N 718.357 1.51182 -0.445186 0
M  V30 7710 C 719.585 2.06568 0.117091 0
M  V30 7711 C 720 1.31182 1.35781 0
M  V30 7712 O 719.357 0.373605 1.78635 0
M  V30 7713 C 719.408 3.58917 0.431408 0
M  V30 7714 O 719.129 4.31456 -0.760078 0
M  V30 7715 C 720.63 4.30843 1.0435 0
M  V30 7716 H 717.85 0.670985 0.00444436 0
M  V30 7717 H 720.394 1.94666 -0.626525 0
M  V30 7718 H 718.549 3.70708 1.12493 0
M  V30 7719 H 718.963 5.22215 -0.489048 0
M  V30 7720 H 720.437 5.38499 1.21337 0
M  V30 7721 H 720.914 3.89644 2.02667 0
M  V30 7722 H 721.52 4.23516 0.38913 0
M  V30 7723 N 719.835 0.176821 1.56605 0
M  V30 7724 C 720.783 -0.768159 2.1955 0
M  V30 7725 C 721.777 -1.23343 1.16116 0
M  V30 7726 O 722.983 -1.19844 1.34303 0
M  V30 7727 H 719.358 -0.266013 0.703378 0
M  V30 7728 H 721.329 -0.213374 2.97636 0
M  V30 7729 C 720.078 -1.98492 2.85475 0
M  V30 7730 H 719.401 -1.63595 3.64797 0
M  V30 7731 H 720.841 -2.62489 3.3298 0
M  V30 7732 C 719.3 -2.81207 1.85538 0
M  V30 7733 O 719.83 -3.7854 1.34427 0
M  V30 7734 N 718.036 -2.46331 1.54173 0
M  V30 7735 H 717.583 -1.67241 1.95929 0
M  V30 7736 H 717.541 -3.01961 0.875595 0
M  V30 7737 N 721.313 -1.57302 -0.09688 0
M  V30 7738 C 722.543 -1.89926 -0.813114 0
M  V30 7739 C 722.951 -0.76852 -1.72888 0
M  V30 7740 O 722.294 0.268549 -1.81726 0
M  V30 7741 C 722.356 -3.17787 -1.68082 0
M  V30 7742 C 722.02 -4.4729 -0.937061 0
M  V30 7743 C 723.017 -5.1921 -0.267687 0
M  V30 7744 C 720.702 -4.93957 -0.911671 0
M  V30 7745 C 722.696 -6.36034 0.417129 0
M  V30 7746 C 720.383 -6.10693 -0.223068 0
M  V30 7747 C 721.381 -6.8158 0.440155 0
M  V30 7748 O 721.069 -7.96092 1.11772 0
M  V30 7749 H 720.801 -0.632783 -0.237828 0
M  V30 7750 H 723.355 -2.05248 -0.0790818 0
M  V30 7751 H 721.585 -2.98607 -2.45705 0
M  V30 7752 H 723.274 -3.36257 -2.27346 0
M  V30 7753 H 724.04 -4.84198 -0.278774 0
M  V30 7754 H 719.919 -4.38671 -1.41734 0
M  V30 7755 H 723.463 -6.91301 0.93537 0
M  V30 7756 H 719.36 -6.45159 -0.209821 0
M  V30 7757 H 720.128 -8.12064 1.02443 0
M  V30 7758 N 722.791 0.367657 -1.53252 0
M  V30 7759 C 724.037 1.11216 -1.69584 0
M  V30 7760 C 724.37 1.89026 -0.445269 0
M  V30 7761 O 723.645 1.86342 0.557404 0
M  V30 7762 C 723.928 2.07308 -2.94441 0
M  V30 7763 C 723.781 1.3312 -4.2965 0
M  V30 7764 C 725.1 3.07459 -3.14892 0
M  V30 7765 H 722.219 0.40294 -0.617096 0
M  V30 7766 H 724.861 0.393201 -1.85887 0
M  V30 7767 H 723.011 2.68617 -2.80673 0
M  V30 7768 H 724.683 0.746111 -4.55226 0
M  V30 7769 H 722.926 0.633051 -4.29156 0
M  V30 7770 H 723.597 2.03443 -5.13142 0
M  V30 7771 H 726.073 2.56252 -3.27832 0
M  V30 7772 H 724.949 3.71919 -4.03693 0
M  V30 7773 H 725.21 3.77514 -2.30077 0
M  V30 7774 N 724.269 1.44576 0.627338 0
M  V30 7775 C 725.217 1.52039 1.76031 0
M  V30 7776 C 726.211 0.391796 1.64807 0
M  V30 7777 O 727.417 0.5669 1.7084 0
M  V30 7778 H 723.792 0.477165 0.581221 0
M  V30 7779 H 725.763 2.47387 1.6686 0
M  V30 7780 C 724.512 1.48539 3.14375 0
M  V30 7781 H 723.835 2.34699 3.23661 0
M  V30 7782 H 725.275 1.57821 3.93534 0
M  V30 7783 C 723.734 0.20672 3.36265 0
M  V30 7784 O 724.264 -0.72154 3.95167 0
M  V30 7785 N 722.47 0.108654 2.90397 0
M  V30 7786 H 722.017 0.864884 2.42647 0
M  V30 7787 H 721.975 -0.746121 3.05418 0
M  V30 7788 N 725.747 -0.868086 1.31537 0
M  V30 7789 C 726.996 -1.61607 1.20689 0
M  V30 7790 C 727.309 -1.94204 -0.233275 0
M  V30 7791 O 728.515 -2.67515 -0.463465 0
M  V30 7792 C 726.971 -2.91348 2.11292 0
M  V30 7793 C 726.579 -2.66227 3.60315 0
M  V30 7794 C 728.323 -3.69344 2.09249 0
M  V30 7795 C 726.23 -3.91887 4.42921 0
M  V30 7796 H 725.16 -0.606373 0.448138 0
M  V30 7797 H 727.811 -0.959666 1.56405 0
M  V30 7798 H 726.193 -3.58374 1.68477 0
M  V30 7799 H 727.367 -2.07597 4.11388 0
M  V30 7800 H 725.682 -2.01582 3.64354 0
M  V30 7801 H 728.279 -4.62567 2.68209 0
M  V30 7802 H 728.622 -4.02044 1.0801 0
M  V30 7803 H 729.155 -3.09205 2.50274 0
M  V30 7804 H 725.894 -3.64336 5.44922 0
M  V30 7805 H 725.414 -4.49961 3.96605 0
M  V30 7806 H 727.093 -4.59754 4.55231 0
M  V30 7807 N 727.225 -1.14528 -1.08264 0
M  V30 7808 C 728.453 -0.937964 -1.84418 0
M  V30 7809 C 728.868 0.51357 -1.81681 0
M  V30 7810 O 728.225 1.35591 -1.22153 0
M  V30 7811 C 728.276 -1.43272 -3.31897 0
M  V30 7812 O 727.997 -2.82738 -3.34651 0
M  V30 7813 C 729.498 -1.26555 -4.24851 0
M  V30 7814 H 726.718 -0.333704 -0.582136 0
M  V30 7815 H 729.262 -1.52076 -1.36723 0
M  V30 7816 H 727.417 -0.892653 -3.76975 0
M  V30 7817 H 727.831 -3.04971 -4.26724 0
M  V30 7818 H 729.305 -1.66031 -5.26439 0
M  V30 7819 H 729.782 -0.208589 -4.38704 0
M  V30 7820 H 730.388 -1.79423 -3.856 0
M  V30 7821 N 728.703 1.26451 -0.940633 0
M  V30 7822 C 729.65 2.264 -0.448497 0
M  V30 7823 C 730.62 1.5866 0.491546 0
M  V30 7824 O 731.805 1.86389 0.407874 0
M  V30 7825 C 728.945 3.43956 0.280715 0
M  V30 7826 C 728.058 4.26374 -0.694937 0
M  V30 7827 C 727.193 5.31171 0.0554186 0
M  V30 7828 C 726.232 6.05266 -0.912091 0
M  V30 7829 N 725.369 7.01833 -0.193524 0
M  V30 7830 H 730.209 2.67869 -1.30576 0
M  V30 7831 H 727.746 1.31707 -0.655112 0
M  V30 7832 H 729.704 4.10941 0.71994 0
M  V30 7833 H 728.334 3.03403 1.10212 0
M  V30 7834 H 727.386 3.59183 -1.25267 0
M  V30 7835 H 728.698 4.77748 -1.43382 0
M  V30 7836 H 727.852 6.04166 0.553951 0
M  V30 7837 H 726.591 4.80634 0.827183 0
M  V30 7838 H 725.596 5.31099 -1.42175 0
M  V30 7839 H 726.821 6.57893 -1.68385 0
M  V30 7840 H 724.767 6.53607 0.559758 0
M  V30 7841 H 724.684 7.50957 -0.871744 0
M  V30 7842 H 725.952 7.78983 0.283932 0
M  V30 7843 N 730.181 0.707592 1.40822 0
M  V30 7844 C 731.114 -0.000859377 2.282 0
M  V30 7845 C 732.092 -0.7758 1.42899 0
M  V30 7846 O 733.276 -0.76411 1.72318 0
M  V30 7847 C 730.403 -1.00861 3.23334 0
M  V30 7848 C 729.449 -0.32543 4.25257 0
M  V30 7849 S 730.282 0.940908 5.27169 0
M  V30 7850 C 731.438 -0.0649459 6.25866 0
M  V30 7851 H 731.671 0.740207 2.87938 0
M  V30 7852 H 729.204 0.498311 1.46138 0
M  V30 7853 H 731.162 -1.58485 3.78672 0
M  V30 7854 H 729.823 -1.72233 2.62668 0
M  V30 7855 H 729.016 -1.08697 4.92139 0
M  V30 7856 H 728.618 0.178044 3.73576 0
M  V30 7857 H 730.91 -0.914377 6.71301 0
M  V30 7858 H 731.853 0.570276 7.058 0
M  V30 7859 H 732.261 -0.425098 5.62897 0
M  V30 7860 N 731.66 -1.50943 0.453197 0
M  V30 7861 C 732.59 -2.31005 -0.34044 0
M  V30 7862 C 733.571 -1.37112 -1.00669 0
M  V30 7863 O 734.756 -1.66033 -1.0073 0
M  V30 7864 C 731.886 -3.16358 -1.433 0
M  V30 7865 C 730.84 -4.18658 -0.889363 0
M  V30 7866 C 730.166 -4.92633 -2.07887 0
M  V30 7867 C 731.466 -5.22227 0.0871142 0
M  V30 7868 H 733.16 -2.97601 0.327723 0
M  V30 7869 H 730.706 -1.43119 0.159054 0
M  V30 7870 H 732.659 -3.71155 -1.99555 0
M  V30 7871 H 731.383 -2.47613 -2.12968 0
M  V30 7872 H 730.042 -3.64936 -0.348915 0
M  V30 7873 H 729.69 -4.20376 -2.76211 0
M  V30 7874 H 729.39 -5.61819 -1.72143 0
M  V30 7875 H 730.914 -5.50258 -2.64666 0
M  V30 7876 H 732.328 -5.72001 -0.385656 0
M  V30 7877 H 730.725 -5.99032 0.357926 0
M  V30 7878 H 731.795 -4.74077 1.01879 0
M  V30 7879 N 733.138 -0.185124 -1.56509 0
M  V30 7880 C 734.366 0.462139 -2.01673 0
M  V30 7881 C 734.781 1.55873 -1.06532 0
M  V30 7882 O 734.138 1.82371 -0.0684805 0
M  V30 7883 C 734.189 1.0277 -3.46584 0
M  V30 7884 O 733.91 -0.0251296 -4.38093 0
M  V30 7885 C 735.411 1.75183 -4.07217 0
M  V30 7886 H 732.631 0.117001 -0.660721 0
M  V30 7887 H 735.175 -0.290905 -2.0242 0
M  V30 7888 H 733.33 1.73118 -3.46568 0
M  V30 7889 H 733.744 0.394387 -5.23015 0
M  V30 7890 H 735.218 2.09999 -5.10494 0
M  V30 7891 H 735.695 2.6519 -3.50101 0
M  V30 7892 H 736.301 1.09445 -4.10977 0
M  V30 7893 N 734.616 1.57351 0.0885366 0
M  V30 7894 C 735.893 1.77449 0.822873 0
M  V30 7895 C 736.273 0.768463 1.96616 0
M  V30 7896 O 735.621 -0.201757 2.27608 0
M  V30 7897 C 735.831 3.23425 1.31137 0
M  V30 7898 C 737.179 3.86791 1.75152 0
M  V30 7899 O 738.203 3.27215 1.40745 0
M  V30 7900 O 737.062 4.91568 2.38794 0
M  V30 7901 H 734.156 0.727653 0.393002 0
M  V30 7902 H 736.702 1.69556 0.0699095 0
M  V30 7903 H 735.474 3.88188 0.49254 0
M  V30 7904 H 735.097 3.35977 2.12615 0
M  V30 7905 N 736.094 -0.359525 1.53444 0
M  V30 7906 C 737.34 -1.10315 1.70172 0
M  V30 7907 C 737.673 -1.88788 0.455287 0
M  V30 7908 O 736.948 -1.86635 -0.547514 0
M  V30 7909 C 737.231 -2.05744 2.95536 0
M  V30 7910 C 737.084 -1.3084 4.3035 0
M  V30 7911 C 738.403 -3.05784 3.16518 0
M  V30 7912 H 735.522 -0.399662 0.619225 0
M  V30 7913 H 738.164 -0.383338 1.86093 0
M  V30 7914 H 736.314 -2.67125 2.82093 0
M  V30 7915 H 737.986 -0.721959 4.55615 0
M  V30 7916 H 736.229 -0.610283 4.29486 0
M  V30 7917 H 736.9 -2.00718 5.14214 0
M  V30 7918 H 739.376 -2.5451 3.29187 0
M  V30 7919 H 738.252 -3.69772 4.05659 0
M  V30 7920 H 738.513 -3.76289 2.32076 0
M  V30 7921 O 737.611 -1.53385 -0.505502 0
M  V30 7922 H 738.302 -1.55093 -1.16042 0
M  V30 END ATOM
M  V30 BEGIN BOND
M  V30 END BOND
M  V30 END CTAB
M  END
$$$$
