drugbank_target|P16471 Prolactin receptor (DB00052)
 OpenBabel12092119293D

  0  0  0     0  0            999 V3000
M  V30 BEGIN CTAB
M  V30 COUNTS 9627 9772 0 0 0
M  V30 BEGIN ATOM
M  V30 1 H -0.908 1.98254 -0.117106 0
M  V30 2 N 0 1.576 0 0
M  V30 3 C 0.933 2.03868 1.02534 0
M  V30 4 C 1.911 0.928543 1.3348 0
M  V30 5 O 3.095 1.19667 1.45644 0
M  V30 6 C 0.222 2.43627 2.35294 0
M  V30 7 C -0.732 3.65373 2.2001 0
M  V30 8 S 0.101 5.13292 1.52614 0
M  V30 9 C 1.257 5.56322 2.86805 0
M  V30 10 H 1.49 2.90518 0.631377 0
M  V30 11 H -0.977 1.52953 0.210867 0
M  V30 12 H 0.981 2.67203 3.11629 0
M  V30 13 H -0.358 1.57376 2.7183 0
M  V30 14 H -1.165 3.90944 3.18086 0
M  V30 15 H -1.563 3.418 1.51819 0
M  V30 16 H 0.729 5.58782 3.83104 0
M  V30 17 H 1.672 6.56266 2.65933 0
M  V30 18 H 2.08 4.83886 2.90714 0
M  V30 19 N 1.4781 -0.272755 1.55222 0
M  V30 20 C 2.4251 -1.33716 1.88119 0
M  V30 21 C 3.3951 -1.49066 0.73271 0
M  V30 22 O 4.5801 -1.63469 0.984002 0
M  V30 23 C 1.7201 -2.69238 2.15882 0
M  V30 24 C 0.8331 -2.62108 3.43399 0
M  V30 25 C -0.0319 -3.89811 3.60861 0
M  V30 26 C -0.9929 -3.77193 4.8207 0
M  V30 27 N -1.8559 -4.9673 4.96189 0
M  V30 28 H 2.9841 -1.04962 2.78903 0
M  V30 29 H 0.5211 -0.507088 1.38083 0
M  V30 30 H 2.4791 -3.48089 2.29978 0
M  V30 31 H 1.1091 -2.96194 1.28331 0
M  V30 32 H 0.1611 -1.74967 3.37773 0
M  V30 33 H 1.4731 -2.48685 4.32386 0
M  V30 34 H 0.6271 -4.77103 3.74777 0
M  V30 35 H -0.6339 -4.06102 2.7006 0
M  V30 36 H -1.6289 -2.88284 4.68159 0
M  V30 37 H -0.4039 -3.62421 5.74307 0
M  V30 38 H -2.4579 -5.13431 4.08319 0
M  V30 39 H -2.5409 -4.85839 5.79221 0
M  V30 40 H -1.2729 -5.85594 5.1449 0
M  V30 41 N 2.9562 -1.48159 -0.537278 0
M  V30 42 C 3.8662 -1.64807 -1.6696 0
M  V30 43 C 4.8822 -0.530651 -1.65711 0
M  V30 44 O 6.0582 -0.800784 -1.84796 0
M  V30 45 C 3.1232 -1.67708 -3.03438 0
M  V30 46 C 2.1842 -2.91025 -3.156 0
M  V30 47 C 1.4172 -2.93778 -4.45567 0
M  V30 48 O 1.6402 -2.05153 -5.3223 0
M  V30 49 O 0.5742 -3.85868 -4.61941 0
M  V30 50 H 4.4002 -2.6066 -1.55853 0
M  V30 51 H 1.9852 -1.31475 -0.709549 0
M  V30 52 H 3.8672 -1.7218 -3.84619 0
M  V30 53 H 2.5422 -0.750278 -3.14885 0
M  V30 54 H 1.4492 -2.92089 -2.33741 0
M  V30 55 H 2.7822 -3.83065 -3.09066 0
M  V30 56 N 4.4343 0.785586 -1.36625 0
M  V30 57 C 5.3823 1.91978 -1.31329 0
M  V30 58 C 6.3763 1.68162 -0.204416 0
M  V30 59 O 7.5823 1.76122 -0.371645 0
M  V30 60 H 3.9573 0.631087 -0.408942 0
M  V30 61 H 5.9283 1.93562 -2.27104 0
M  V30 62 C 4.6773 3.29055 -1.12329 0
M  V30 63 H 4.0003 3.4795 -1.96903 0
M  V30 64 H 5.4403 4.08756 -1.12671 0
M  V30 65 C 3.8993 3.36461 0.171861 0
M  V30 66 O 4.4293 3.84576 1.16035 0
M  V30 67 N 2.6353 2.89782 0.217846 0
M  V30 68 H 2.1823 2.50819 -0.587183 0
M  V30 69 H 2.1403 2.95119 1.08408 0
M  V30 70 N 5.9124 1.20967 1.01018 0
M  V30 71 C 7.1584 1.02526 1.74975 0
M  V30 72 C 7.4914 -0.4408 1.89131 0
M  V30 73 O 6.7664 -1.32718 1.42184 0
M  V30 74 C 7.0494 1.71699 3.1653 0
M  V30 75 C 6.9024 3.25791 3.10129 0
M  V30 76 C 8.2214 1.45531 4.15342 0
M  V30 77 H 5.3404 0.373863 0.635134 0
M  V30 78 H 7.9824 1.49071 1.17805 0
M  V30 79 H 6.1324 1.32128 3.65341 0
M  V30 80 H 7.8044 3.74697 2.69072 0
M  V30 81 H 6.0474 3.56363 2.47362 0
M  V30 82 H 6.7184 3.69353 4.10222 0
M  V30 83 H 9.1944 1.79872 3.75213 0
M  V30 84 H 8.0704 1.96453 5.1254 0
M  V30 85 H 8.3314 0.384237 4.40427 0
M  V30 86 N 7.3905 -1.2043 1.01659 0
M  V30 87 C 8.3535 -2.21433 0.591616 0
M  V30 88 C 9.3535 -1.57203 -0.338226 0
M  V30 89 O 10.5435 -1.73737 -0.126918 0
M  V30 90 C 7.6755 -3.40628 -0.136058 0
M  V30 91 H 8.8685 -2.60545 1.48514 0
M  V30 92 H 6.4215 -1.33893 0.806379 0
M  V30 93 H 7.1565 -3.07019 -1.04449 0
M  V30 94 H 6.9415 -3.88475 0.531917 0
M  V30 95 H 8.4315 -4.15475 -0.420735 0
M  V30 96 N 8.8686 -0.792821 -1.36206 0
M  V30 97 C 10.0936 -0.377701 -2.03932 0
M  V30 98 C 10.5186 0.998947 -1.59382 0
M  V30 99 O 9.8766 1.64421 -0.763903 0
M  V30 100 C 9.9246 -0.453635 -3.57735 0
M  V30 101 O 9.0286 0.538151 -4.08874 0
M  V30 102 H 8.3696 -0.159855 -0.644471 0
M  V30 103 H 10.8996 -1.07488 -1.7409 0
M  V30 104 H 10.9096 -0.318464 -4.06755 0
M  V30 105 H 9.5846 -1.45784 -3.89512 0
M  V30 106 H 8.1616 0.364359 -3.71116 0
M  V30 107 N 10.3467 1.47872 -0.545128 0
M  V30 108 C 11.3097 2.28337 0.198717 0
M  V30 109 C 12.3097 1.36255 0.853888 0
M  V30 110 O 13.4997 1.59003 0.711606 0
M  V30 111 C 10.6317 3.15585 1.28915 0
M  V30 112 H 11.8247 2.95567 -0.507941 0
M  V30 113 H 9.3777 1.53362 -0.301616 0
M  V30 114 H 10.1127 2.53019 2.02859 0
M  V30 115 H 9.8977 3.83337 0.824309 0
M  V30 116 H 11.3877 3.76243 1.81194 0
M  V30 117 N 11.8248 0.280983 1.55075 0
M  V30 118 C 13.0528 -0.337293 2.04132 0
M  V30 119 C 13.4678 -1.4903 1.15912 0
M  V30 120 O 12.8248 -1.81606 0.180459 0
M  V30 121 C 12.8758 -0.812706 3.52246 0
M  V30 122 O 12.5968 0.294387 4.3711 0
M  V30 123 C 14.0978 -1.4982 4.17216 0
M  V30 124 H 11.3178 -0.0761638 0.666663 0
M  V30 125 H 13.8618 0.414787 2.00249 0
M  V30 126 H 12.0168 -1.51486 3.56554 0
M  V30 127 H 12.4308 -0.0721325 5.2445 0
M  V30 128 H 13.9048 -1.7822 5.22438 0
M  V30 129 H 14.3818 -2.43168 3.65741 0
M  V30 130 H 14.9878 -0.839742 4.16927 0
M  V30 131 N 13.3029 -1.57598 0.00835791 0
M  V30 132 C 14.5489 -1.91211 -0.675732 0
M  V30 133 C 14.8819 -0.883139 -1.72958 0
M  V30 134 O 14.1569 0.097016 -1.94258 0
M  V30 135 C 14.4399 -3.35379 -1.31123 0
M  V30 136 C 14.2929 -4.48999 -0.268356 0
M  V30 137 C 15.6119 -3.7912 -2.23508 0
M  V30 138 H 12.7309 -0.695374 -0.244179 0
M  V30 139 H 15.3729 -1.89901 0.0613655 0
M  V30 140 H 13.5229 -3.36626 -1.93946 0
M  V30 141 H 15.1949 -4.59887 0.360844 0
M  V30 142 H 13.4379 -4.31873 0.408482 0
M  V30 143 H 14.1089 -5.46851 -0.752218 0
M  V30 144 H 16.5849 -3.79477 -1.70693 0
M  V30 145 H 15.4609 -4.80729 -2.64936 0
M  V30 146 H 15.7219 -3.13455 -3.11766 0
M  V30 147 N 14.781 0.264519 -1.55364 0
M  V30 148 C 16.028 0.994986 -1.7637 0
M  V30 149 C 16.356 1.85976 -0.5695 0
M  V30 150 O 15.611 1.90509 0.44776 0
M  V30 151 C 15.91 1.9004 -3.02687 0
M  V30 152 C 15.576 1.19243 -4.34847 0
M  V30 153 C 14.238 0.996709 -4.70764 0
M  V30 154 C 16.59 0.689296 -5.16622 0
M  V30 155 C 13.918 0.285261 -5.86006 0
M  V30 156 C 16.27 -0.00860079 -6.32599 0
M  V30 157 C 14.934 -0.215963 -6.67151 0
M  V30 158 H 14.204 0.364091 -0.645383 0
M  V30 159 H 16.851 0.266543 -1.89636 0
M  V30 160 H 15.156 2.69533 -2.84357 0
M  V30 161 H 16.853 2.46695 -3.16137 0
M  V30 162 H 13.443 1.3549 -4.06621 0
M  V30 163 H 17.627 0.828108 -4.89342 0
M  V30 164 H 12.883 0.113961 -6.11294 0
M  V30 165 H 17.057 -0.406186 -6.95214 0
M  V30 166 H 14.684 -0.769217 -7.56298 0
M  V30 167 N 16.2591 1.48442 0.529413 0
M  V30 168 C 17.4871 1.60151 1.30994 0
M  V30 169 C 17.9021 0.261985 1.86973 0
M  V30 170 O 17.2591 -0.748805 1.66431 0
M  V30 171 C 17.3101 2.64854 2.46038 0
M  V30 172 O 17.0311 3.93608 1.92365 0
M  V30 173 C 18.5321 2.87007 3.37849 0
M  V30 174 H 15.7521 0.539971 0.398338 0
M  V30 175 H 18.2961 1.94273 0.638597 0
M  V30 176 H 16.4511 2.33589 3.09055 0
M  V30 177 H 16.8651 4.51055 2.67675 0
M  V30 178 H 18.3391 3.64068 4.14919 0
M  V30 179 H 18.8161 1.95852 3.93114 0
M  V30 180 H 19.4221 3.19579 2.80623 0
M  V30 181 N 17.7372 -0.778329 1.37039 0
M  V30 182 C 18.6672 -1.90546 1.34962 0
M  V30 183 C 19.6482 -1.68681 0.219274 0
M  V30 184 O 20.8332 -1.89634 0.418624 0
M  V30 185 C 17.9632 -3.27734 1.14925 0
M  V30 186 C 16.9172 -3.64147 2.24902 0
M  V30 187 C 16.2432 -4.99806 1.89996 0
M  V30 188 C 17.5432 -3.71579 3.67051 0
M  V30 189 H 19.2372 -1.92541 2.29277 0
M  V30 190 H 16.7832 -0.924948 1.10366 0
M  V30 191 H 18.7362 -4.06215 1.12104 0
M  V30 192 H 17.4602 -3.26154 0.170631 0
M  V30 193 H 16.1192 -2.8797 2.26868 0
M  V30 194 H 15.7672 -4.94759 0.906796 0
M  V30 195 H 15.4672 -5.25139 2.63634 0
M  V30 196 H 16.9912 -5.80694 1.88749 0
M  V30 197 H 18.4052 -4.40227 3.67251 0
M  V30 198 H 16.8022 -4.08405 4.39688 0
M  V30 199 H 17.8722 -2.72404 4.01154 0
M  V30 200 N 19.2153 -1.21501 -1.00376 0
M  V30 201 C 20.1453 -0.999478 -2.11028 0
M  V30 202 C 21.1263 0.0759671 -1.6993 0
M  V30 203 O 22.3113 -0.0841106 -1.94018 0
M  V30 204 C 19.4413 -0.564709 -3.42678 0
M  V30 205 C 18.3953 -1.58486 -3.97576 0
M  V30 206 C 17.7213 -1.00628 -5.25146 0
M  V30 207 C 19.0213 -2.97204 -4.29496 0
M  V30 208 H 20.7153 -1.92495 -2.29317 0
M  V30 209 H 18.2613 -0.92693 -1.102 0
M  V30 210 H 20.2143 -0.401091 -4.19487 0
M  V30 211 H 18.9383 0.396411 -3.24185 0
M  V30 212 H 17.5973 -1.73606 -3.22888 0
M  V30 213 H 17.2453 -0.0368439 -5.02987 0
M  V30 214 H 16.9453 -1.68771 -5.62841 0
M  V30 215 H 18.4693 -0.854015 -6.04598 0
M  V30 216 H 19.8833 -2.8552 -4.97143 0
M  V30 217 H 18.2803 -3.62372 -4.78338 0
M  V30 218 H 19.3503 -3.47956 -3.3772 0
M  V30 219 N 20.6934 1.19889 -1.02296 0
M  V30 220 C 21.6234 2.25141 -0.619174 0
M  V30 221 C 22.6044 1.66051 0.368915 0
M  V30 222 O 23.7894 1.92546 0.252941 0
M  V30 223 C 20.9194 3.4728 0.0368783 0
M  V30 224 C 19.8734 4.19005 -0.872865 0
M  V30 225 C 19.1994 5.34637 -0.0822402 0
M  V30 226 C 20.4994 4.74452 -2.18387 0
M  V30 227 H 22.1934 2.59171 -1.49903 0
M  V30 228 H 19.7394 1.24579 -0.722222 0
M  V30 229 H 21.6924 4.20098 0.330958 0
M  V30 230 H 20.4164 3.12433 0.95149 0
M  V30 231 H 19.0754 3.48061 -1.15105 0
M  V30 232 H 18.7234 4.96034 0.83422 0
M  V30 233 H 18.4234 5.83557 -0.688149 0
M  V30 234 H 19.9474 6.10255 0.205238 0
M  V30 235 H 21.3614 5.39055 -1.95172 0
M  V30 236 H 19.7584 5.33834 -2.74119 0
M  V30 237 H 20.8284 3.92844 -2.84257 0
M  V30 238 N 22.1715 0.800033 1.35784 0
M  V30 239 C 23.4185 0.377342 1.98953 0
M  V30 240 C 23.7465 -1.05378 1.6348 0
M  V30 241 O 23.0015 -1.74459 0.886707 0
M  V30 242 C 23.3005 0.500276 3.53881 0
M  V30 243 C 22.9665 1.89375 4.09204 0
M  V30 244 C 21.6285 2.27499 4.24025 0
M  V30 245 C 23.9805 2.8057 4.39238 0
M  V30 246 C 21.3085 3.562 4.66195 0
M  V30 247 C 23.6605 4.0871 4.82844 0
M  V30 248 C 22.3245 4.46843 4.95871 0
M  V30 249 H 21.5945 0.138079 0.728021 0
M  V30 250 H 24.2415 1.01955 1.62103 0
M  V30 251 H 22.5465 -0.225405 3.91151 0
M  V30 252 H 24.2435 0.154097 4.00704 0
M  V30 253 H 20.8335 1.58753 3.98115 0
M  V30 254 H 25.0175 2.52367 4.27346 0
M  V30 255 H 20.2735 3.85602 4.74469 0
M  V30 256 H 24.4475 4.79481 5.05046 0
M  V30 257 H 22.0745 5.46623 5.28306 0
M  V30 258 N 23.6496 -1.47581 0.552962 0
M  V30 259 C 24.5796 -2.32762 -0.185451 0
M  V30 260 C 25.5606 -1.43527 -0.912905 0
M  V30 261 O 26.7456 -1.72388 -0.894201 0
M  V30 262 C 23.8756 -3.25219 -1.21859 0
M  V30 263 C 22.8296 -4.23661 -0.607864 0
M  V30 264 C 22.1556 -5.05413 -1.74533 0
M  V30 265 C 23.4556 -5.20481 0.435582 0
M  V30 266 H 25.1496 -2.94749 0.525684 0
M  V30 267 H 22.6956 -1.41738 0.254251 0
M  V30 268 H 24.6486 -3.8365 -1.7433 0
M  V30 269 H 23.3726 -2.61279 -1.95961 0
M  V30 270 H 22.0316 -3.66451 -0.104489 0
M  V30 271 H 21.6796 -4.3788 -2.47529 0
M  V30 272 H 21.3796 -5.72059 -1.34249 0
M  V30 273 H 22.9036 -5.66701 -2.27338 0
M  V30 274 H 24.3176 -5.733 -0.00290157 0
M  V30 275 H 22.7146 -5.95305 0.757067 0
M  V30 276 H 23.7846 -4.66217 1.33303 0
M  V30 277 N 25.1277 -0.289203 -1.54924 0
M  V30 278 C 26.0757 0.607966 -2.24514 0
M  V30 279 C 27.0697 1.14655 -1.24702 0
M  V30 280 O 28.2757 1.09856 -1.4259 0
M  V30 281 H 24.6507 0.21464 -0.720718 0
M  V30 282 H 26.6217 -0.00164182 -2.984 0
M  V30 283 C 25.3707 1.77406 -2.99036 0
M  V30 284 H 24.6937 1.36884 -3.75637 0
M  V30 285 H 26.1337 2.37814 -3.51028 0
M  V30 286 C 24.5927 2.67107 -2.05318 0
M  V30 287 O 25.1227 3.6787 -1.61353 0
M  V30 288 N 23.3287 2.34582 -1.71521 0
M  V30 289 H 22.8757 1.52688 -2.07471 0
M  V30 290 H 22.8337 2.94867 -1.0909 0
M  V30 291 N 26.6058 1.57591 -0.0167156 0
M  V30 292 C 27.8338 1.95575 0.675128 0
M  V30 293 C 28.2488 0.892542 1.6637 0
M  V30 294 O 27.6058 -0.126912 1.82058 0
M  V30 295 C 27.6568 3.33608 1.39239 0
M  V30 296 O 27.3778 4.3585 0.443444 0
M  V30 297 C 28.8788 3.86151 2.17721 0
M  V30 298 H 26.0988 0.644423 0.186978 0
M  V30 299 H 28.6428 2.0437 -0.0728 0
M  V30 300 H 26.7978 3.2607 2.09182 0
M  V30 301 H 27.2118 5.158 0.951358 0
M  V30 302 H 28.6858 4.85114 2.63379 0
M  V30 303 H 29.1628 3.19738 3.01105 0
M  V30 304 H 29.7688 3.96918 1.52761 0
M  V30 305 N 28.0839 -0.256276 1.55502 0
M  V30 306 C 29.3239 -0.993081 1.78654 0
M  V30 307 C 29.6879 -1.8288 0.584724 0
M  V30 308 O 30.8889 -2.59665 0.694822 0
M  V30 309 C 29.1599 -1.83856 3.06483 0
M  V30 310 S 30.7189 -2.63573 3.5082 0
M  V30 311 H 27.5369 -0.334199 0.62756 0
M  V30 312 H 30.1389 -0.26184 1.93739 0
M  V30 313 H 28.8429 -1.21414 3.92029 0
M  V30 314 H 28.3739 -2.61271 2.94111 0
M  V30 315 H 30.3889 -3.86312 3.11412 0
M  V30 316 N 29.562 -1.4872 -0.521534 0
M  V30 317 C 30.492 -1.66771 -1.63431 0
M  V30 318 C 31.473 -0.516499 -1.62069 0
M  V30 319 O 32.658 -0.750013 -1.79132 0
M  V30 320 C 29.788 -1.71515 -3.01993 0
M  V30 321 C 28.742 -2.86222 -3.18216 0
M  V30 322 C 28.068 -2.76061 -4.57924 0
M  V30 323 C 29.368 -4.27419 -3.00184 0
M  V30 324 H 31.062 -2.59932 -1.48579 0
M  V30 325 H 28.608 -1.25089 -0.713358 0
M  V30 326 H 30.561 -1.82731 -3.7972 0
M  V30 327 H 29.285 -0.749393 -3.17886 0
M  V30 328 H 27.944 -2.74575 -2.42908 0
M  V30 329 H 27.592 -1.77437 -4.70665 0
M  V30 330 H 27.292 -3.53037 -4.69722 0
M  V30 331 H 28.816 -2.89256 -5.37739 0
M  V30 332 H 30.23 -4.39855 -3.67697 0
M  V30 333 H 28.627 -5.05458 -3.2347 0
M  V30 334 H 29.697 -4.43293 -1.96518 0
M  V30 335 N 31.0401 0.771051 -1.3745 0
M  V30 336 C 31.9701 1.89827 -1.3597 0
M  V30 337 C 32.9511 1.68562 -0.228216 0
M  V30 338 O 34.1361 1.8941 -0.428675 0
M  V30 339 C 31.2661 3.2712 -1.16662 0
M  V30 340 C 30.2201 3.6295 -2.2683 0
M  V30 341 C 29.5461 4.98791 -1.92644 0
M  V30 342 C 30.8461 3.69627 -3.69017 0
M  V30 343 H 32.5401 1.91323 -2.30295 0
M  V30 344 H 30.0861 0.919082 -1.10855 0
M  V30 345 H 32.0391 4.05615 -1.14256 0
M  V30 346 H 30.7631 3.26059 -0.187926 0
M  V30 347 H 29.4221 2.86763 -2.28392 0
M  V30 348 H 29.0701 4.94271 -0.933021 0
M  V30 349 H 28.7701 5.23733 -2.66416 0
M  V30 350 H 30.2941 5.79685 -1.91826 0
M  V30 351 H 31.7081 4.38273 -3.69581 0
M  V30 352 H 30.1051 4.06067 -4.41848 0
M  V30 353 H 31.1751 2.70273 -4.02592 0
M  V30 354 N 32.5182 1.22032 0.997298 0
M  V30 355 C 33.4662 0.983634 2.10778 0
M  V30 356 C 34.4602 -0.0717564 1.69248 0
M  V30 357 O 35.6662 0.080304 1.79821 0
M  V30 358 H 32.0412 0.300877 0.689186 0
M  V30 359 H 34.0122 1.92606 2.27916 0
M  V30 360 C 32.7612 0.57326 3.42942 0
M  V30 361 H 32.0842 1.37702 3.75338 0
M  V30 362 H 33.5242 0.447031 4.21637 0
M  V30 363 C 31.9832 -0.7167 3.29188 0
M  V30 364 O 32.5132 -1.77027 3.60589 0
M  V30 365 N 30.7192 -0.686167 2.82383 0
M  V30 366 H 30.2662 0.171507 2.57028 0
M  V30 367 H 30.2242 -1.54955 2.73562 0
M  V30 368 N 33.9963 -1.19345 1.0293 0
M  V30 369 C 35.2443 -1.88665 0.724574 0
M  V30 370 C 35.5653 -1.80036 -0.749144 0
M  V30 371 O 34.8353 -1.2111 -1.53978 0
M  V30 372 H 33.4153 -0.698406 0.265025 0
M  V30 373 H 36.0773 -1.44885 1.30362 0
M  V30 374 H 35.1733 -2.94987 1.01926 0
M  V30 375 N 35.4744 -0.807222 -1.35358 0
M  V30 376 C 36.4064 -0.175717 -2.28525 0
M  V30 377 C 37.4194 0.625354 -1.5031 0
M  V30 378 O 38.6084 0.457611 -1.72535 0
M  V30 379 C 35.7084 0.773471 -3.29956 0
M  V30 380 C 34.8814 0.0186296 -4.37396 0
M  V30 381 C 33.9404 0.886395 -5.18681 0
M  V30 382 O 32.9664 0.337106 -5.68201 0
M  V30 383 N 34.1684 2.20839 -5.36852 0
M  V30 384 H 36.9334 -0.976091 -2.83359 0
M  V30 385 H 34.4944 -0.662737 -1.47714 0
M  V30 386 H 36.4864 1.35824 -3.81227 0
M  V30 387 H 35.0564 1.47465 -2.75632 0
M  V30 388 H 34.2764 -0.747349 -3.87051 0
M  V30 389 H 35.5644 -0.501577 -5.06322 0
M  V30 390 H 34.9624 2.67858 -4.98265 0
M  V30 391 H 33.5194 2.74237 -5.91301 0
M  V30 392 N 36.9525 1.47285 -0.560781 0
M  V30 393 C 37.8825 2.32857 0.173105 0
M  V30 394 C 38.8635 1.44009 0.905281 0
M  V30 395 O 40.0485 1.7286 0.885046 0
M  V30 396 C 37.1785 3.25861 1.20133 0
M  V30 397 C 36.1325 4.23978 0.585388 0
M  V30 398 C 35.4585 5.06332 1.7185 0
M  V30 399 C 36.7585 5.20242 -0.463178 0
M  V30 400 H 38.4525 2.94466 -0.541307 0
M  V30 401 H 35.9985 1.41601 -0.261764 0
M  V30 402 H 37.9515 3.84569 1.72293 0
M  V30 403 H 36.6755 2.62315 1.94573 0
M  V30 404 H 35.3345 3.66501 0.085054 0
M  V30 405 H 34.9825 4.39186 2.45203 0
M  V30 406 H 34.6825 5.72762 1.31213 0
M  V30 407 H 36.2065 5.67899 2.24329 0
M  V30 408 H 37.6205 5.73293 -0.027502 0
M  V30 409 H 36.0175 5.94896 -0.788627 0
M  V30 410 H 37.0875 4.65504 -1.35773 0
M  V30 411 N 38.4306 0.297415 1.54768 0
M  V30 412 C 39.8416 -0.195947 1.85669 0
M  V30 413 C 40.1926 -1.53707 1.21937 0
M  V30 414 O 39.3176 -2.10164 0.515754 0
M  V30 415 C 39.9126 -0.362318 3.36857 0
M  V30 416 C 38.4716 -0.799901 3.67802 0
M  V30 417 C 37.6186 0.0938578 2.77141 0
M  V30 418 H 40.5696 0.518538 1.4999 0
M  V30 419 H 40.5906 -1.19745 3.61167 0
M  V30 420 H 40.1026 0.613921 3.83214 0
M  V30 421 H 38.2036 -1.78682 3.26961 0
M  V30 422 H 38.3166 -0.621773 4.75048 0
M  V30 423 H 36.6806 -0.426254 2.51108 0
M  V30 424 H 37.4636 1.06639 3.26318 0
M  V30 425 N 39.9087 -1.5758 0.0250728 0
M  V30 426 C 41.3197 -1.79476 -0.514323 0
M  V30 427 C 41.6707 -0.934956 -1.72491 0
M  V30 428 O 40.7957 -0.144245 -2.15919 0
M  V30 429 C 41.3907 -3.25503 -0.939842 0
M  V30 430 C 39.9497 -3.48408 -1.42438 0
M  V30 431 C 39.0967 -2.74583 -0.387201 0
M  V30 432 H 42.0477 -1.567 0.25113 0
M  V30 433 H 42.0687 -3.34992 -1.80445 0
M  V30 434 H 41.5807 -3.88056 -0.0585628 0
M  V30 435 H 39.6817 -2.91103 -2.32572 0
M  V30 436 H 39.7947 -4.57119 -1.43455 0
M  V30 437 H 38.1587 -2.39942 -0.854409 0
M  V30 438 H 38.9417 -3.39849 0.485543 0
M  V30 439 N 41.3868 0.248026 -1.55636 0
M  V30 440 C 42.6348 0.974295 -1.77065 0
M  V30 441 C 42.9558 1.85897 -0.588849 0
M  V30 442 O 42.2258 1.91868 0.395407 0
M  V30 443 H 40.8058 0.362733 -0.653019 0
M  V30 444 H 43.4678 0.266244 -1.93073 0
M  V30 445 H 42.5638 1.59667 -2.68166 0
M  V30 446 N 42.8649 1.48995 0.513639 0
M  V30 447 C 43.8119 1.6473 1.61656 0
M  V30 448 C 44.7819 0.488984 1.58739 0
M  V30 449 O 45.9669 0.714478 1.76918 0
M  V30 450 C 43.1069 1.7082 2.99858 0
M  V30 451 C 42.2199 2.9787 3.12885 0
M  V30 452 C 41.3549 2.95017 4.41744 0
M  V30 453 C 40.3939 4.16702 4.48359 0
M  V30 454 N 39.5309 4.11832 5.68629 0
M  V30 455 H 44.3709 2.58909 1.47547 0
M  V30 456 H 41.9079 1.28382 0.71808 0
M  V30 457 H 43.8659 1.72331 3.79944 0
M  V30 458 H 42.4959 0.801181 3.12699 0
M  V30 459 H 41.5479 3.06029 2.25944 0
M  V30 460 H 42.8599 3.8786 3.13633 0
M  V30 461 H 42.0139 2.95021 5.30139 0
M  V30 462 H 40.7529 2.02784 4.43542 0
M  V30 463 H 39.7579 4.16955 3.58369 0
M  V30 464 H 40.9829 5.10113 4.48287 0
M  V30 465 H 38.9289 3.22428 5.71293 0
M  V30 466 H 38.8459 4.95543 5.7094 0
M  V30 467 H 40.1139 4.1592 6.59266 0
M  V30 468 N 44.343 -0.763751 1.37857 0
M  V30 469 C 45.754 -1.3405 1.29952 0
M  V30 470 C 46.105 -1.96138 -0.0492898 0
M  V30 471 O 45.23 -1.94372 -0.951239 0
M  V30 472 C 45.825 -2.43729 2.35333 0
M  V30 473 C 44.384 -2.97151 2.31037 0
M  V30 474 C 43.531 -1.70438 2.18738 0
M  V30 475 H 46.482 -0.563396 1.48363 0
M  V30 476 H 46.503 -3.23412 2.00462 0
M  V30 477 H 46.015 -1.9851 3.33489 0
M  V30 478 H 44.116 -3.46724 1.3643 0
M  V30 479 H 44.229 -3.52221 3.24772 0
M  V30 480 H 42.593 -1.93673 1.65418 0
M  V30 481 H 43.376 -1.27312 3.18821 0
M  V30 482 N 45.8211 -1.22559 -0.990812 0
M  V30 483 C 46.7311 -1.01394 -2.11557 0
M  V30 484 C 47.7471 0.0383962 -1.73958 0
M  V30 485 O 48.9231 -0.154787 -2.00804 0
M  V30 486 C 45.9881 -0.596569 -3.41529 0
M  V30 487 C 45.0491 -1.72276 -3.93217 0
M  V30 488 C 44.2821 -1.32521 -5.16985 0
M  V30 489 O 44.5051 -0.204909 -5.70032 0
M  V30 490 O 43.4391 -2.14247 -5.62478 0
M  V30 491 H 47.2651 -1.95633 -2.32296 0
M  V30 492 H 44.8501 -1.01172 -1.0993 0
M  V30 493 H 46.7321 -0.374263 -4.19735 0
M  V30 494 H 45.4071 0.316939 -3.22145 0
M  V30 495 H 44.3141 -1.99961 -3.16174 0
M  V30 496 H 45.6471 -2.61421 -4.17037 0
M  V30 497 N 47.2992 1.18797 -1.03562 0
M  V30 498 C 48.5482 1.87978 -0.731235 0
M  V30 499 C 48.8612 1.80911 0.743671 0
M  V30 500 O 50.0672 2.45407 1.16137 0
M  V30 501 C 48.5232 3.3721 -1.25768 0
M  V30 502 C 48.1312 3.52818 -2.76085 0
M  V30 503 C 49.8752 4.11825 -1.0296 0
M  V30 504 C 47.7822 4.9598 -3.22114 0
M  V30 505 H 46.7122 0.704063 -0.269835 0
M  V30 506 H 49.3632 1.34266 -1.25079 0
M  V30 507 H 47.7452 3.90359 -0.666011 0
M  V30 508 H 48.9192 3.09965 -3.40966 0
M  V30 509 H 47.2342 2.91602 -2.97249 0
M  V30 510 H 49.8312 5.17411 -1.34869 0
M  V30 511 H 50.1742 4.16287 0.0333546 0
M  V30 512 H 50.7072 3.64833 -1.58562 0
M  V30 513 H 47.4462 4.96684 -4.27768 0
M  V30 514 H 46.9662 5.39569 -2.61965 0
M  V30 515 H 48.6452 5.6467 -3.15844 0
M  V30 516 N 48.7773 0.814389 1.34928 0
M  V30 517 C 50.0243 0.398423 1.98542 0
M  V30 518 C 50.3523 -1.03638 1.64589 0
M  V30 519 O 49.6073 -1.73509 0.90516 0
M  V30 520 C 49.9063 0.537781 3.53331 0
M  V30 521 C 49.5723 1.93704 4.07172 0
M  V30 522 C 48.2343 2.31984 4.21589 0
M  V30 523 C 50.5863 2.85213 4.36237 0
M  V30 524 C 47.9143 3.61125 4.62391 0
M  V30 525 C 50.2663 4.13809 4.78482 0
M  V30 526 C 48.9303 4.52077 4.91104 0
M  V30 527 H 48.2003 0.145793 0.726516 0
M  V30 528 H 50.8473 1.03669 1.61012 0
M  V30 529 H 49.1523 -0.183906 3.91368 0
M  V30 530 H 50.8493 0.196588 4.00518 0
M  V30 531 H 47.4393 1.62966 3.96409 0
M  V30 532 H 51.6233 2.56885 4.24645 0
M  V30 533 H 46.8793 3.90612 4.70353 0
M  V30 534 H 51.0533 4.84811 4.99932 0
M  V30 535 H 48.6803 5.52196 5.22478 0
M  V30 536 N 50.2554 -1.46986 0.568584 0
M  V30 537 C 51.2024 -2.30153 -0.172707 0
M  V30 538 C 52.1724 -1.39759 -0.897586 0
M  V30 539 O 53.3574 -1.68716 -0.891044 0
M  V30 540 C 50.4974 -3.23952 -1.1895 0
M  V30 541 C 49.6104 -4.29441 -0.469517 0
M  V30 542 C 48.7454 -5.1038 -1.47259 0
M  V30 543 C 47.7844 -6.07632 -0.738225 0
M  V30 544 N 46.9214 -6.8149 -1.68868 0
M  V30 545 H 51.7614 -2.93019 0.542596 0
M  V30 546 H 49.2984 -1.44422 0.279401 0
M  V30 547 H 51.2564 -3.76767 -1.79173 0
M  V30 548 H 49.8864 -2.62926 -1.87269 0
M  V30 549 H 48.9384 -3.79594 0.247467 0
M  V30 550 H 50.2504 -4.98689 0.105241 0
M  V30 551 H 49.4044 -5.67402 -2.14803 0
M  V30 552 H 48.1434 -4.4106 -2.08128 0
M  V30 553 H 47.1484 -5.49778 -0.0489293 0
M  V30 554 H 48.3734 -6.78966 -0.135129 0
M  V30 555 H 46.3194 -6.14891 -2.28573 0
M  V30 556 H 46.2364 -7.46948 -1.16636 0
M  V30 557 H 47.5044 -7.43078 -2.3549 0
M  V30 558 N 51.7335 -0.305618 -1.54608 0
M  V30 559 C 52.9735 0.303114 -2.0214 0
M  V30 560 C 53.3375 1.50737 -1.18921 0
M  V30 561 O 54.5385 2.18778 -1.56172 0
M  V30 562 C 52.8095 0.646332 -3.51507 0
M  V30 563 S 54.3685 1.23727 -4.20995 0
M  V30 564 H 51.1865 0.0927643 -0.704923 0
M  V30 565 H 53.7885 -0.434566 -1.90609 0
M  V30 566 H 52.4925 -0.238541 -4.09706 0
M  V30 567 H 52.0235 1.41468 -3.67084 0
M  V30 568 H 54.0385 2.52489 -4.27158 0
M  V30 569 N 53.2116 1.57565 -0.0334293 0
M  V30 570 C 54.6276 1.56297 0.322997 0
M  V30 571 C 54.8276 1.03945 1.7262 0
M  V30 572 O 53.8836 0.688109 2.42943 0
M  V30 573 C 55.1966 3.00232 0.167664 0
M  V30 574 C 56.7446 3.12078 0.240107 0
M  V30 575 C 57.2196 4.57859 0.113513 0
M  V30 576 N 58.7106 4.62887 0.170359 0
M  V30 577 C 59.4456 5.73319 0.0962517 0
M  V30 578 N 58.9416 6.92794 -0.0291881 0
M  V30 579 N 60.7346 5.61898 0.150551 0
M  V30 580 H 52.8856 1.89923 -0.950956 0
M  V30 581 H 55.1486 0.873824 -0.367608 0
M  V30 582 H 54.8546 3.42501 -0.799102 0
M  V30 583 H 54.7286 3.654 0.936083 0
M  V30 584 H 57.1156 2.69718 1.19733 0
M  V30 585 H 57.1966 2.49623 -0.558763 0
M  V30 586 H 56.8406 5.009 -0.840314 0
M  V30 587 H 56.7706 5.18299 0.931302 0
M  V30 588 H 59.2616 3.76954 0.26728 0
M  V30 589 H 59.5746 7.7276 -0.0789252 0
M  V30 590 H 57.9196 6.94971 -0.0640299 0
M  V30 591 H 61.1106 4.67448 0.246981 0
M  V30 592 H 61.2836 6.47938 0.0893365 0
M  V30 593 N 54.6897 -0.239769 1.55765 0
M  V30 594 C 55.9147 -0.988373 1.82335 0
M  V30 595 C 56.3397 -1.77886 0.611421 0
M  V30 596 O 55.6977 -1.75889 -0.439639 0
M  V30 597 C 55.7457 -1.89627 3.06715 0
M  V30 598 O 54.8497 -2.98904 2.84131 0
M  V30 599 H 54.1907 -0.280858 0.601677 0
M  V30 600 H 56.7207 -0.258597 2.02959 0
M  V30 601 H 56.7307 -2.30957 3.36338 0
M  V30 602 H 55.4057 -1.31511 3.9456 0
M  V30 603 H 53.9827 -2.61651 2.65694 0
M  V30 604 N 56.1678 -1.49265 -0.50573 0
M  V30 605 C 57.5788 -1.51769 -1.08734 0
M  V30 606 C 57.9298 -0.301192 -1.93874 0
M  V30 607 O 57.0548 0.589456 -2.08217 0
M  V30 608 C 57.6498 -2.75017 -1.97867 0
M  V30 609 C 56.2088 -2.80314 -2.51199 0
M  V30 610 C 55.3558 -2.4562 -1.28709 0
M  V30 611 H 58.3068 -1.56031 -0.289855 0
M  V30 612 H 58.3278 -2.5491 -2.82491 0
M  V30 613 H 57.8398 -3.63539 -1.35873 0
M  V30 614 H 55.9408 -1.96061 -3.16845 0
M  V30 615 H 56.0538 -3.82366 -2.88675 0
M  V30 616 H 54.4178 -1.97297 -1.61078 0
M  V30 617 H 55.2008 -3.36411 -0.6843 0
M  V30 618 N 57.6459 0.756429 -1.3826 0
M  V30 619 C 58.5939 1.89149 -1.35372 0
M  V30 620 C 59.5879 1.67691 -0.24004 0
M  V30 621 O 60.7939 1.75294 -0.408919 0
M  V30 622 H 57.1689 0.622271 -0.422236 0
M  V30 623 H 59.1399 1.88701 -2.31159 0
M  V30 624 C 57.8889 3.26599 -1.19284 0
M  V30 625 H 57.2119 3.43695 -2.0424 0
M  V30 626 H 58.6519 4.06274 -1.21316 0
M  V30 627 C 57.1109 3.3675 0.100454 0
M  V30 628 O 57.6409 3.86951 1.07851 0
M  V30 629 N 55.8469 2.90179 0.15633 0
M  V30 630 H 55.3939 2.49517 -0.640253 0
M  V30 631 H 55.3519 2.97352 1.02123 0
M  V30 632 N 59.124 1.23083 0.984299 0
M  V30 633 C 60.071 1.00854 2.07598 0
M  V30 634 C 61.041 -0.0726709 1.65941 0
M  V30 635 O 62.226 0.0786535 1.90638 0
M  V30 636 C 59.366 0.601645 3.39815 0
M  V30 637 C 58.479 1.75456 3.94765 0
M  V30 638 C 57.614 1.29482 5.15177 0
M  V30 639 C 56.653 2.41873 5.62284 0
M  V30 640 N 55.79 1.96885 6.73929 0
M  V30 641 H 60.63 1.943 2.25946 0
M  V30 642 H 58.167 0.968001 1.10762 0
M  V30 643 H 60.125 0.346854 4.15756 0
M  V30 644 H 58.755 -0.295803 3.21442 0
M  V30 645 H 57.807 2.12346 3.15616 0
M  V30 646 H 59.119 2.59965 4.25699 0
M  V30 647 H 58.273 0.997923 5.98437 0
M  V30 648 H 57.012 0.420046 4.85888 0
M  V30 649 H 56.017 2.72342 4.77608 0
M  V30 650 H 57.242 3.29881 5.93595 0
M  V30 651 H 55.188 1.11782 6.46406 0
M  V30 652 H 55.105 2.74956 7.04227 0
M  V30 653 H 56.373 1.70289 7.60672 0
M  V30 654 N 60.6021 -1.18246 1.0419 0
M  V30 655 C 61.5121 -2.25574 0.644476 0
M  V30 656 C 62.5281 -1.70845 -0.329826 0
M  V30 657 O 63.7041 -2.00554 -0.184443 0
M  V30 658 C 60.7691 -3.46697 0.014877 0
M  V30 659 C 59.8301 -4.16554 1.03834 0
M  V30 660 C 59.0631 -5.31894 0.438692 0
M  V30 661 O 59.2861 -5.65385 -0.754752 0
M  V30 662 O 58.2201 -5.90459 1.168 0
M  V30 663 H 62.0461 -2.61836 1.53869 0
M  V30 664 H 59.6311 -1.25352 0.812854 0
M  V30 665 H 61.5131 -4.20062 -0.335538 0
M  V30 666 H 60.1881 -3.12255 -0.853138 0
M  V30 667 H 59.0951 -3.45251 1.44057 0
M  V30 668 H 60.4281 -4.54998 1.87716 0
M  V30 669 N 62.0802 -0.821533 -1.34494 0
M  V30 670 C 63.3082 -0.421884 -2.02553 0
M  V30 671 C 63.7232 0.971745 -1.61872 0
M  V30 672 O 63.0802 1.62864 -0.823496 0
M  V30 673 C 63.1312 -0.51285 -3.57844 0
M  V30 674 O 62.8522 -1.85155 -3.97051 0
M  V30 675 C 64.3532 -0.107921 -4.43169 0
M  V30 676 H 61.5732 -0.169482 -0.649243 0
M  V30 677 H 64.1172 -1.1093 -1.71798 0
M  V30 678 H 62.2722 0.126474 -3.87193 0
M  V30 679 H 62.6862 -1.82482 -4.91732 0
M  V30 680 H 64.1602 -0.222657 -5.51551 0
M  V30 681 H 64.6372 0.948401 -4.28838 0
M  V30 682 H 65.2432 -0.720989 -4.19144 0
M  V30 683 N 63.5583 1.46682 -0.576371 0
M  V30 684 C 64.8053 2.02412 -0.0595339 0
M  V30 685 C 65.1333 1.44859 1.29793 0
M  V30 686 O 64.3883 0.601099 1.8624 0
M  V30 687 C 64.6873 3.57345 0.062886 0
M  V30 688 C 64.3533 4.33908 -1.22616 0
M  V30 689 C 63.0153 4.54544 -1.57933 0
M  V30 690 C 65.3673 4.77919 -2.07948 0
M  V30 691 C 62.6953 5.16444 -2.78393 0
M  V30 692 C 65.0473 5.41149 -3.27629 0
M  V30 693 C 63.7113 5.60014 -3.63236 0
M  V30 694 H 62.9813 0.74068 -0.021785 0
M  V30 695 H 65.6283 1.76128 -0.751735 0
M  V30 696 H 63.9333 3.82729 0.838178 0
M  V30 697 H 65.6303 3.98136 0.478439 0
M  V30 698 H 62.2203 4.18138 -0.941202 0
M  V30 699 H 66.4043 4.61738 -1.81967 0
M  V30 700 H 61.6603 5.29242 -3.06126 0
M  V30 701 H 65.8343 5.74211 -3.94023 0
M  V30 702 H 63.4613 6.07748 -4.56669 0
M  V30 703 N 65.0364 0.313813 1.54444 0
M  V30 704 C 66.2644 -0.293918 2.04802 0
M  V30 705 C 66.6794 -1.46537 1.19047 0
M  V30 706 O 66.0364 -1.81182 0.218939 0
M  V30 707 C 66.0874 -0.737806 3.53891 0
M  V30 708 O 65.8084 0.387038 4.36387 0
M  V30 709 C 67.3094 -1.40936 4.203 0
M  V30 710 H 64.5294 -0.0620057 0.668129 0
M  V30 711 H 67.0734 0.457169 1.99324 0
M  V30 712 H 65.2284 -1.43889 3.59687 0
M  V30 713 H 65.6424 0.0391274 5.24485 0
M  V30 714 H 67.1164 -1.67099 5.26101 0
M  V30 715 H 67.5934 -2.35355 3.70816 0
M  V30 716 H 68.1994 -0.751117 4.18615 0
M  V30 717 N 66.5145 -1.57545 0.0417849 0
M  V30 718 C 67.7545 -1.94185 -0.63809 0
M  V30 719 C 68.1185 -0.919339 -1.68559 0
M  V30 720 O 69.3195 -1.17236 -2.41886 0
M  V30 721 C 67.5905 -3.35672 -1.22714 0
M  V30 722 S 69.1495 -3.94256 -1.92633 0
M  V30 723 H 65.9675 -0.679353 -0.209764 0
M  V30 724 H 68.5695 -1.95199 0.108479 0
M  V30 725 H 67.2735 -4.07898 -0.452503 0
M  V30 726 H 66.8045 -3.38132 -2.01073 0
M  V30 727 H 68.8195 -3.7872 -3.20602 0
M  V30 728 N 67.9926 0.231505 -1.5589 0
M  V30 729 C 69.2386 0.954429 -1.79617 0
M  V30 730 C 69.5936 1.82367 -0.613199 0
M  V30 731 O 68.8866 1.87524 0.393094 0
M  V30 732 C 69.0806 1.83577 -3.0665 0
M  V30 733 C 68.9096 1.05334 -4.3719 0
M  V30 734 C 67.6796 0.75225 -4.99669 0
M  V30 735 C 69.8776 0.423444 -5.12554 0
M  V30 736 N 67.8596 -0.052627 -6.13877 0
M  V30 737 C 69.2306 -0.245287 -6.19515 0
M  V30 738 C 71.2856 0.335466 -4.96769 0
M  V30 739 C 69.9886 -0.993566 -7.12405 0
M  V30 740 C 72.0146 -0.399321 -5.9005 0
M  V30 741 C 71.3766 -1.05663 -6.9643 0
M  V30 742 H 67.4756 0.329846 -0.709031 0
M  V30 743 H 70.0596 0.226172 -1.93382 0
M  V30 744 H 68.2306 2.53592 -2.94186 0
M  V30 745 H 69.9626 2.49541 -3.18608 0
M  V30 746 H 66.7176 1.06783 -4.61405 0
M  V30 747 H 67.1416 -0.443609 -6.75545 0
M  V30 748 H 71.7836 0.829311 -4.14587 0
M  V30 749 H 69.5016 -1.49896 -7.94076 0
M  V30 750 H 73.0876 -0.468265 -5.79913 0
M  V30 751 H 71.9676 -1.61612 -7.67366 0
M  V30 752 N 69.4707 1.49531 0.497807 0
M  V30 753 C 70.7167 1.60388 1.25089 0
M  V30 754 C 71.0717 0.288328 1.90227 0
M  V30 755 O 70.3647 -0.711706 1.77891 0
M  V30 756 C 70.5587 2.70252 2.33878 0
M  V30 757 C 70.3877 4.12363 1.79408 0
M  V30 758 C 69.1577 4.7911 1.60566 0
M  V30 759 C 71.3557 4.97491 1.30412 0
M  V30 760 N 69.3377 6.05525 1.01059 0
M  V30 761 C 70.7087 6.14411 0.830595 0
M  V30 762 C 72.7637 4.83466 1.19015 0
M  V30 763 C 71.4667 7.1885 0.254371 0
M  V30 764 C 73.4927 5.88057 0.627892 0
M  V30 765 C 72.8547 7.04208 0.16461 0
M  V30 766 H 68.9537 0.641246 0.447579 0
M  V30 767 H 71.5377 1.86549 0.557441 0
M  V30 768 H 69.7087 2.45858 3.0068 0
M  V30 769 H 71.4407 2.70613 3.00917 0
M  V30 770 H 68.1957 4.35961 1.85026 0
M  V30 771 H 68.6197 6.73028 0.732236 0
M  V30 772 H 73.2617 3.93978 1.53431 0
M  V30 773 H 70.9797 8.08036 -0.102052 0
M  V30 774 H 74.5657 5.79266 0.542444 0
M  V30 775 H 73.4457 7.83757 -0.263669 0
M  V30 776 N 70.9488 -0.749086 1.3866 0
M  V30 777 C 72.3648 -1.05276 1.19955 0
M  V30 778 C 72.5648 -2.01435 0.05134 0
M  V30 779 O 71.6208 -2.45232 -0.60147 0
M  V30 780 C 72.9338 -1.62853 2.52783 0
M  V30 781 C 74.4818 -1.75002 2.59506 0
M  V30 782 C 74.9568 -2.35991 3.92521 0
M  V30 783 N 76.4478 -2.43416 3.94085 0
M  V30 784 C 77.1828 -2.91511 4.9377 0
M  V30 785 N 76.6788 -3.39608 6.03853 0
M  V30 786 N 78.4718 -2.90592 4.81157 0
M  V30 787 H 70.6228 -0.111066 2.12109 0
M  V30 788 H 72.8858 -0.111901 0.941373 0
M  V30 789 H 72.5918 -0.99664 3.37283 0
M  V30 790 H 72.4658 -2.61854 2.715 0
M  V30 791 H 74.8528 -2.37317 1.75398 0
M  V30 792 H 74.9338 -0.74693 2.44652 0
M  V30 793 H 74.5778 -1.74308 4.77053 0
M  V30 794 H 74.5078 -3.3695 4.04688 0
M  V30 795 H 76.9988 -2.09405 3.14576 0
M  V30 796 H 77.3118 -3.74775 6.75843 0
M  V30 797 H 75.6568 -3.37653 6.07466 0
M  V30 798 H 78.8478 -2.52332 3.94267 0
M  V30 799 H 79.0208 -3.27762 5.58996 0
M  V30 800 N 72.4269 -1.23603 -0.977757 0
M  V30 801 C 73.8379 -1.06424 -1.53398 0
M  V30 802 C 74.1889 0.367578 -1.92726 0
M  V30 803 O 73.3139 1.25465 -1.76316 0
M  V30 804 C 73.9089 -1.92568 -2.78753 0
M  V30 805 C 72.4679 -1.79642 -3.30765 0
M  V30 806 C 71.6149 -1.88111 -2.03739 0
M  V30 807 H 74.5659 -1.37227 -0.797152 0
M  V30 808 H 74.5869 -1.45203 -3.51705 0
M  V30 809 H 74.0989 -2.96771 -2.50098 0
M  V30 810 H 72.1999 -0.782325 -3.64294 0
M  V30 811 H 72.3129 -2.63174 -4.00345 0
M  V30 812 H 70.6769 -1.31723 -2.17994 0
M  V30 813 H 71.4599 -2.93875 -1.77461 0
M  V30 814 N 73.905 1.17692 -1.04816 0
M  V30 815 C 75.153 1.87488 -0.754497 0
M  V30 816 C 75.474 1.81205 0.720407 0
M  V30 817 O 74.744 1.23544 1.52032 0
M  V30 818 H 73.324 0.694101 -0.276102 0
M  V30 819 H 75.986 1.42793 -1.32651 0
M  V30 820 H 75.082 2.93328 -1.06606 0
M  V30 821 N 75.3831 0.828654 1.34056 0
M  V30 822 C 76.6111 0.43262 2.02326 0
M  V30 823 C 77.0261 -0.963147 1.62385 0
M  V30 824 O 76.3831 -1.62425 0.832121 0
M  V30 825 C 76.4341 0.53182 3.57567 0
M  V30 826 O 76.1551 1.87258 3.96063 0
M  V30 827 C 77.6561 0.131422 4.43105 0
M  V30 828 H 74.8761 0.172923 0.648335 0
M  V30 829 H 77.4201 1.1184 1.71208 0
M  V30 830 H 75.5751 -0.105938 3.87255 0
M  V30 831 H 75.9891 1.85087 4.90758 0
M  V30 832 H 77.4631 0.251904 5.51425 0
M  V30 833 H 77.9401 -0.925645 4.29335 0
M  V30 834 H 78.5461 0.743207 4.18756 0
M  V30 835 N 76.8612 -1.46375 0.584142 0
M  V30 836 C 78.1382 -1.956 0.0033388 0
M  V30 837 C 78.5182 -1.52679 -1.45782 0
M  V30 838 O 77.8662 -0.77816 -2.14842 0
M  V30 839 C 78.0762 -3.48551 0.176891 0
M  V30 840 C 79.4242 -4.24576 0.0454609 0
M  V30 841 O 80.4482 -3.56043 0.105801 0
M  V30 842 O 79.3072 -5.46427 -0.0890376 0
M  V30 843 H 76.4012 -0.825547 -0.0490066 0
M  V30 844 H 78.9472 -1.56652 0.65256 0
M  V30 845 H 77.7192 -3.72683 1.1926 0
M  V30 846 H 77.3422 -3.94332 -0.508695 0
M  V30 847 N 78.3393 -0.321999 -1.54275 0
M  V30 848 C 79.5873 0.280489 -2.00144 0
M  V30 849 C 79.9083 1.52777 -1.21178 0
M  V30 850 O 79.1783 1.9338 -0.313187 0
M  V30 851 H 77.7583 0.106632 -0.73935 0
M  V30 852 H 80.4203 -0.438184 -1.8991 0
M  V30 853 H 79.5163 0.537972 -3.07428 0
M  V30 854 N 79.8174 1.5752 -0.0501392 0
M  V30 855 C 81.0654 1.9227 0.622642 0
M  V30 856 C 81.3864 0.929083 1.71444 0
M  V30 857 O 80.6564 -0.0262186 1.95882 0
M  V30 858 H 79.2364 0.709739 0.232981 0
M  V30 859 H 81.8984 1.94628 -0.102898 0
M  V30 860 H 80.9944 2.93479 1.06191 0
M  V30 861 N 81.2955 -0.223234 1.56011 0
M  V30 862 C 82.2255 -1.27988 1.95298 0
M  V30 863 C 83.2065 -1.48976 0.820979 0
M  V30 864 O 84.3915 -1.61188 1.08315 0
M  V30 865 C 81.5215 -2.63 2.26822 0
M  V30 866 C 80.4755 -2.56671 3.42497 0
M  V30 867 C 79.8015 -3.95697 3.59622 0
M  V30 868 C 81.1015 -2.11601 4.77517 0
M  V30 869 H 82.7955 -0.953525 2.8381 0
M  V30 870 H 80.3415 -0.457244 1.36548 0
M  V30 871 H 82.2945 -3.37077 2.52898 0
M  V30 872 H 81.0185 -2.9732 1.35161 0
M  V30 873 H 79.6775 -1.85051 3.16467 0
M  V30 874 H 79.3255 -4.27322 2.6534 0
M  V30 875 H 79.0255 -3.92345 4.37424 0
M  V30 876 H 80.5495 -4.71438 3.88044 0
M  V30 877 H 81.9635 -2.7542 5.02809 0
M  V30 878 H 80.3605 -2.19311 5.5859 0
M  V30 879 H 81.4305 -1.06824 4.72987 0
M  V30 880 N 82.7736 -1.49793 -0.48987 0
M  V30 881 C 84.1846 -1.52914 -1.07118 0
M  V30 882 C 84.5356 -0.321738 -1.93544 0
M  V30 883 O 83.6606 0.567338 -2.08831 0
M  V30 884 C 84.2556 -2.771 -1.94938 0
M  V30 885 C 82.8146 -2.82963 -2.48212 0
M  V30 886 C 81.9616 -2.46972 -1.26096 0
M  V30 887 H 84.9126 -1.56329 -0.273289 0
M  V30 888 H 84.9336 -2.57892 -2.79771 0
M  V30 889 H 84.4456 -3.64959 -1.32009 0
M  V30 890 H 82.5466 -1.99411 -3.14748 0
M  V30 891 H 82.6596 -3.85406 -2.84603 0
M  V30 892 H 81.0236 -1.98994 -1.58976 0
M  V30 893 H 81.8066 -3.37118 -0.648581 0
M  V30 894 N 84.2517 0.741722 -1.39055 0
M  V30 895 C 85.4797 1.53098 -1.39171 0
M  V30 896 C 85.8947 1.88794 0.0155099 0
M  V30 897 O 85.2517 1.53626 0.985159 0
M  V30 898 C 85.3027 2.82274 -2.2584 0
M  V30 899 O 85.0237 2.48097 -3.61081 0
M  V30 900 C 86.5247 3.76343 -2.34266 0
M  V30 901 H 83.7447 0.473335 -0.4756 0
M  V30 902 H 86.2887 0.917045 -1.82785 0
M  V30 903 H 84.4437 3.40015 -1.85656 0
M  V30 904 H 84.8577 3.31029 -4.06842 0
M  V30 905 H 86.3317 4.63898 -2.9917 0
M  V30 906 H 86.8087 4.17619 -1.35982 0
M  V30 907 H 87.4147 3.24523 -2.74891 0
M  V30 908 N 85.7298 1.2412 0.971189 0
M  V30 909 C 86.6778 1.02812 2.08644 0
M  V30 910 C 87.6718 -0.0358403 1.69362 0
M  V30 911 O 88.8778 0.118429 1.7961 0
M  V30 912 H 85.2528 0.315428 0.682649 0
M  V30 913 H 87.2238 1.97397 2.23779 0
M  V30 914 C 85.9728 0.645874 3.41649 0
M  V30 915 H 85.2958 1.45632 3.72332 0
M  V30 916 H 86.7358 0.536366 4.20594 0
M  V30 917 C 85.1948 -0.646713 3.30635 0
M  V30 918 O 85.7248 -1.69338 3.64263 0
M  V30 919 N 83.9308 -0.626115 2.83775 0
M  V30 920 H 83.4778 0.225988 2.56607 0
M  V30 921 H 83.4358 -1.49117 2.76788 0
M  V30 922 N 87.2079 -1.17134 1.05439 0
M  V30 923 C 88.4379 -1.91094 0.785274 0
M  V30 924 C 88.8459 -1.77198 -0.663142 0
M  V30 925 O 88.1889 -1.10835 -1.46497 0
M  V30 926 C 88.2509 -3.42594 1.08949 0
M  V30 927 C 87.9149 -3.80274 2.53458 0
M  V30 928 C 88.9119 -3.82912 3.51673 0
M  V30 929 C 86.5969 -4.11162 2.88532 0
M  V30 930 C 88.5909 -4.15913 4.83006 0
M  V30 931 C 86.2779 -4.43831 4.20068 0
M  V30 932 C 87.2759 -4.46185 5.17115 0
M  V30 933 O 86.9639 -4.78083 6.46291 0
M  V30 934 H 86.6959 -0.613073 0.284811 0
M  V30 935 H 89.2499 -1.49461 1.40893 0
M  V30 936 H 87.4799 -3.84534 0.408741 0
M  V30 937 H 89.1689 -3.97817 0.805991 0
M  V30 938 H 89.9349 -3.5917 3.25917 0
M  V30 939 H 85.8139 -4.085 2.13656 0
M  V30 940 H 89.3579 -4.17665 5.5875 0
M  V30 941 H 85.2549 -4.67037 4.45586 0
M  V30 942 H 86.0229 -4.9593 6.51149 0
M  V30 943 N 88.686 -0.835752 -1.33615 0
M  V30 944 C 89.911 -0.442389 -2.02627 0
M  V30 945 C 90.336 0.947735 -1.62479 0
M  V30 946 O 89.694 1.61907 -0.815826 0
M  V30 947 C 89.742 -0.567216 -3.56111 0
M  V30 948 O 88.846 0.407799 -4.10379 0
M  V30 949 H 88.187 -0.180278 -0.639059 0
M  V30 950 H 90.717 -1.12972 -1.70583 0
M  V30 951 H 90.727 -0.447708 -4.05536 0
M  V30 952 H 89.402 -1.58103 -3.84677 0
M  V30 953 H 87.979 0.246107 -3.72087 0
M  V30 954 N 90.1641 1.46063 -0.591896 0
M  V30 955 C 91.0941 2.33172 0.123673 0
M  V30 956 C 92.0751 1.45897 0.87453 0
M  V30 957 O 93.2601 1.74698 0.848181 0
M  V30 958 C 90.3901 3.28336 1.13194 0
M  V30 959 C 89.3441 4.25124 0.495324 0
M  V30 960 C 88.6701 5.09863 1.61071 0
M  V30 961 C 89.9701 5.19143 -0.573425 0
M  V30 962 H 91.6641 2.93252 -0.603646 0
M  V30 963 H 89.2101 1.41014 -0.291741 0
M  V30 964 H 91.1631 3.88137 1.64097 0
M  V30 965 H 89.8871 2.66383 1.88965 0
M  V30 966 H 88.5461 3.66599 0.00729452 0
M  V30 967 H 88.1941 4.44288 2.35832 0
M  V30 968 H 87.8941 5.75417 1.19035 0
M  V30 969 H 89.4181 5.72529 2.12233 0
M  V30 970 H 90.8321 5.73106 -0.1491 0
M  V30 971 H 89.2291 5.93089 -0.914636 0
M  V30 972 H 90.2991 4.62519 -1.45617 0
M  V30 973 N 91.6422 0.330177 1.54103 0
M  V30 974 C 92.8702 -0.272179 2.05102 0
M  V30 975 C 93.2852 -1.45267 1.20595 0
M  V30 976 O 92.6422 -1.8094 0.238144 0
M  V30 977 C 92.6932 -0.70023 3.54653 0
M  V30 978 O 92.4142 0.433301 4.35952 0
M  V30 979 C 93.9152 -1.3647 4.21771 0
M  V30 980 H 91.1352 -0.0549159 0.668749 0
M  V30 981 H 93.6792 0.478285 1.98828 0
M  V30 982 H 91.8342 -1.40066 3.61193 0
M  V30 983 H 92.2482 0.0947539 5.24414 0
M  V30 984 H 93.7222 -1.61509 5.27843 0
M  V30 985 H 94.1992 -2.31409 3.73292 0
M  V30 986 H 94.8052 -0.706675 4.19388 0
M  V30 987 N 93.1203 -1.57491 0.0584922 0
M  V30 988 C 94.3503 -1.9701 -0.622134 0
M  V30 989 C 94.7583 -0.935034 -1.6448 0
M  V30 990 O 94.1013 0.0882904 -1.83488 0
M  V30 991 C 94.1633 -3.32794 -1.35972 0
M  V30 992 C 93.8273 -4.54343 -0.492043 0
M  V30 993 C 94.8243 -5.19323 0.244901 0
M  V30 994 C 92.5093 -5.00534 -0.420821 0
M  V30 995 C 94.5033 -6.28835 1.04143 0
M  V30 996 C 92.1903 -6.09921 0.379389 0
M  V30 997 C 93.1883 -6.73933 1.10919 0
M  V30 998 O 92.8763 -7.81216 1.89623 0
M  V30 999 H 92.6083 -0.653127 -0.174359 0
M  V30 1000 H 95.1623 -2.05029 0.123418 0
M  V30 1001 H 93.3923 -3.21351 -2.15105 0
M  V30 1002 H 95.0813 -3.5701 -1.93129 0
M  V30 1003 H 95.8473 -4.8459 0.19939 0
M  V30 1004 H 91.7263 -4.50496 -0.978474 0
M  V30 1005 H 95.2703 -6.7873 1.61157 0
M  V30 1006 H 91.1673 -6.44089 0.426512 0
M  V30 1007 H 91.9353 -7.98029 1.81913 0
M  V30 1008 N 94.5984 0.214957 -1.56127 0
M  V30 1009 C 95.5484 1.27006 -1.8935 0
M  V30 1010 C 96.5324 1.41969 -0.757202 0
M  V30 1011 O 97.7244 1.44673 -1.01973 0
M  V30 1012 C 94.8534 2.61911 -2.2194 0
M  V30 1013 C 93.9394 2.50822 -3.41978 0
M  V30 1014 N 94.3304 2.09391 -4.60423 0
M  V30 1015 C 92.6284 2.81765 -3.45723 0
M  V30 1016 C 93.3294 2.09712 -5.42582 0
M  V30 1017 N 92.3054 2.50454 -4.82466 0
M  V30 1018 H 96.1074 0.940734 -2.78437 0
M  V30 1019 H 93.6214 0.423492 -1.56781 0
M  V30 1020 H 95.6184 3.38096 -2.43919 0
M  V30 1021 H 94.2784 2.95684 -1.34169 0
M  V30 1022 H 95.2894 1.80416 -4.85459 0
M  V30 1023 H 91.9664 3.19865 -2.68314 0
M  V30 1024 H 93.3564 1.79748 -6.4741 0
M  V30 1025 N 96.0765 1.50051 0.48192 0
M  V30 1026 C 97.4925 1.37237 0.814756 0
M  V30 1027 C 97.6925 0.420109 1.97072 0
M  V30 1028 O 96.7485 -0.141246 2.52105 0
M  V30 1029 C 98.0615 2.78375 1.13701 0
M  V30 1030 C 99.6095 2.87213 1.2441 0
M  V30 1031 C 100.084 4.29161 1.59954 0
M  V30 1032 N 101.575 4.32061 1.66967 0
M  V30 1033 C 102.31 5.38879 1.95952 0
M  V30 1034 N 101.806 6.55918 2.23031 0
M  V30 1035 N 103.599 5.26312 1.97363 0
M  V30 1036 H 95.7505 2.10546 -0.28005 0
M  V30 1037 H 98.0135 0.945921 -0.0627454 0
M  V30 1038 H 97.7195 3.49845 0.360787 0
M  V30 1039 H 97.5935 3.14941 2.07586 0
M  V30 1040 H 99.9805 2.15969 2.01101 0
M  V30 1041 H 100.061 2.54204 0.285299 0
M  V30 1042 H 99.7055 5.00938 0.838067 0
M  V30 1043 H 99.6355 4.59648 2.56966 0
M  V30 1044 H 102.126 3.47661 1.48123 0
M  V30 1045 H 102.439 7.33139 2.44391 0
M  V30 1046 H 100.784 6.59112 2.20447 0
M  V30 1047 H 103.975 4.33876 1.75697 0
M  V30 1048 H 104.148 6.09649 2.19618 0
M  V30 1049 N 97.5546 -0.734337 1.39446 0
M  V30 1050 C 98.4646 -1.87879 1.40495 0
M  V30 1051 C 99.4806 -1.714 0.299672 0
M  V30 1052 O 100.657 -1.93991 0.541249 0
M  V30 1053 C 97.7216 -3.23477 1.24754 0
M  V30 1054 C 96.7826 -3.52344 2.45259 0
M  V30 1055 C 96.0156 -4.81473 2.30259 0
M  V30 1056 O 96.2386 -5.55237 1.30643 0
M  V30 1057 O 95.1726 -5.10254 3.19256 0
M  V30 1058 H 98.9986 -1.89949 2.36966 0
M  V30 1059 H 96.5836 -0.882243 1.20569 0
M  V30 1060 H 98.4656 -4.04509 1.18111 0
M  V30 1061 H 97.1406 -3.22176 0.313781 0
M  V30 1062 H 96.0476 -2.71396 2.57478 0
M  V30 1063 H 97.3806 -3.58426 3.37331 0
M  V30 1064 N 99.0327 -1.24633 -0.964593 0
M  V30 1065 C 100.281 -1.08573 -1.70459 0
M  V30 1066 C 100.602 0.375655 -1.91347 0
M  V30 1067 O 99.8717 1.26779 -1.49345 0
M  V30 1068 H 98.4517 -0.398784 -0.631649 0
M  V30 1069 H 101.114 -1.56601 -1.16026 0
M  V30 1070 H 100.21 -1.58623 -2.68785 0
M  V30 1071 N 100.511 1.16574 -1.06058 0
M  V30 1072 C 101.421 2.2452 -0.680282 0
M  V30 1073 C 102.437 1.71348 0.302604 0
M  V30 1074 O 103.613 2.00822 0.152513 0
M  V30 1075 C 100.678 3.46629 -0.0700315 0
M  V30 1076 C 99.7388 4.14849 -1.10448 0
M  V30 1077 C 98.9718 5.31129 -0.523256 0
M  V30 1078 O 99.1948 5.66514 0.664709 0
M  V30 1079 O 98.1288 5.88526 -1.26179 0
M  V30 1080 H 101.955 2.59355 -1.58015 0
M  V30 1081 H 99.5398 1.24043 -0.832694 0
M  V30 1082 H 101.422 4.20543 0.268667 0
M  V30 1083 H 100.097 3.13573 0.803353 0
M  V30 1084 H 99.0038 3.42916 -1.49532 0
M  V30 1085 H 100.337 4.51954 -1.94931 0
M  V30 1086 N 101.989 0.842826 1.3317 0
M  V30 1087 C 103.217 0.454055 2.01856 0
M  V30 1088 C 103.632 -0.94587 1.63397 0
M  V30 1089 O 102.989 -1.61534 0.849302 0
M  V30 1090 C 103.04 0.569715 3.56982 0
M  V30 1091 O 102.761 1.91448 3.94055 0
M  V30 1092 C 104.262 0.178412 4.42941 0
M  V30 1093 H 101.482 0.17979 0.646465 0
M  V30 1094 H 104.026 1.1365 1.70012 0
M  V30 1095 H 102.181 -0.0648587 3.87346 0
M  V30 1096 H 102.595 1.90282 4.88767 0
M  V30 1097 H 104.069 0.310376 5.51127 0
M  V30 1098 H 104.546 -0.880056 4.30293 0
M  V30 1099 H 105.152 0.787579 4.17944 0
M  V30 1100 N 103.467 -1.45747 0.599634 0
M  V30 1101 C 104.397 -2.33235 -0.111306 0
M  V30 1102 C 105.378 -1.46359 -0.866781 0
M  V30 1103 O 106.563 -1.75146 -0.838904 0
M  V30 1104 C 103.693 -3.28932 -1.11451 0
M  V30 1105 C 102.647 -4.25381 -0.472772 0
M  V30 1106 C 101.973 -5.1071 -1.58365 0
M  V30 1107 C 103.273 -5.18831 0.600948 0
M  V30 1108 H 104.967 -2.92927 0.61919 0
M  V30 1109 H 102.513 -1.40857 0.299215 0
M  V30 1110 H 104.466 -3.89002 -1.62036 0
M  V30 1111 H 103.19 -2.67381 -1.8755 0
M  V30 1112 H 101.849 -3.66598 0.0121472 0
M  V30 1113 H 101.497 -4.45533 -2.33473 0
M  V30 1114 H 101.197 -5.7604 -1.15982 0
M  V30 1115 H 102.721 -5.73647 -2.09194 0
M  V30 1116 H 104.135 -5.73019 0.179491 0
M  V30 1117 H 102.532 -5.92595 0.946076 0
M  V30 1118 H 103.602 -4.6174 1.48068 0
M  V30 1119 N 104.945 -0.338344 -1.53925 0
M  V30 1120 C 105.878 0.563758 -2.21127 0
M  V30 1121 C 106.856 1.10433 -1.19345 0
M  V30 1122 O 108.04 1.16557 -1.48144 0
M  V30 1123 C 105.167 1.77505 -2.88461 0
M  V30 1124 C 104.213 1.3644 -4.04087 0
M  V30 1125 S 105.046 0.388593 -5.34088 0
M  V30 1126 C 106.202 1.60683 -6.04923 0
M  V30 1127 H 106.435 -0.00704546 -2.97299 0
M  V30 1128 H 103.968 -0.122418 -1.53914 0
M  V30 1129 H 105.926 2.46999 -3.27875 0
M  V30 1130 H 104.587 2.31706 -2.12064 0
M  V30 1131 H 103.78 2.26739 -4.50117 0
M  V30 1132 H 103.382 0.748998 -3.66423 0
M  V30 1133 H 105.674 2.54209 -6.28 0
M  V30 1134 H 106.617 1.18842 -6.98056 0
M  V30 1135 H 107.025 1.80052 -5.35015 0
M  V30 1136 N 106.423 1.57458 -0.0668435 0
M  V30 1137 C 107.373 2.0896 0.912119 0
M  V30 1138 C 108.357 0.998186 1.26195 0
M  V30 1139 O 109.549 1.26133 1.24175 0
M  V30 1140 C 106.678 2.6508 2.18145 0
M  V30 1141 C 105.764 3.81218 1.85832 0
M  V30 1142 N 106.155 4.90378 1.23948 0
M  V30 1143 C 104.453 3.9042 2.15612 0
M  V30 1144 C 105.154 5.71279 1.09616 0
M  V30 1145 N 104.13 5.19389 1.60423 0
M  V30 1146 H 107.932 2.90749 0.42924 0
M  V30 1147 H 105.446 1.6182 0.137184 0
M  V30 1148 H 107.443 3.0029 2.89192 0
M  V30 1149 H 106.103 1.84736 2.67025 0
M  V30 1150 H 107.114 5.09847 0.909731 0
M  V30 1151 H 103.791 3.21043 2.66903 0
M  V30 1152 H 105.181 6.69085 0.614425 0
M  V30 1153 N 107.901 -0.206675 1.56239 0
M  V30 1154 C 108.811 -1.27686 1.96808 0
M  V30 1155 C 109.827 -1.50455 0.874035 0
M  V30 1156 O 111.003 -1.63295 1.17884 0
M  V30 1157 C 108.068 -2.60358 2.28942 0
M  V30 1158 C 107.129 -2.45762 3.51994 0
M  V30 1159 C 106.362 -3.72108 3.82585 0
M  V30 1160 O 106.585 -4.75776 3.14631 0
M  V30 1161 O 105.519 -3.6833 4.76043 0
M  V30 1162 H 109.345 -0.962593 2.88041 0
M  V30 1163 H 106.93 -0.410746 1.43643 0
M  V30 1164 H 108.812 -3.38687 2.50737 0
M  V30 1165 H 107.487 -2.91435 1.4088 0
M  V30 1166 H 106.394 -1.65584 3.35459 0
M  V30 1167 H 107.727 -2.19621 4.40486 0
M  V30 1168 N 109.379 -1.50304 -0.473955 0
M  V30 1169 C 110.619 -1.62786 -1.23612 0
M  V30 1170 C 110.983 -0.319786 -1.89318 0
M  V30 1171 O 112.184 -0.320012 -2.66888 0
M  V30 1172 C 110.455 -2.77351 -2.25414 0
M  V30 1173 S 112.014 -3.09948 -3.10608 0
M  V30 1174 H 108.832 -0.573895 -0.419721 0
M  V30 1175 H 111.434 -1.88076 -0.533623 0
M  V30 1176 H 110.138 -3.70879 -1.75719 0
M  V30 1177 H 109.669 -2.54137 -3.00296 0
M  V30 1178 H 111.684 -2.53553 -4.26527 0
M  V30 1179 N 110.857 0.726932 -1.39834 0
M  V30 1180 C 112.268 1.30558 -1.3346 0
M  V30 1181 C 112.619 1.962 -0.00273003 0
M  V30 1182 O 111.744 1.96826 0.899371 0
M  V30 1183 C 112.339 2.37404 -2.41713 0
M  V30 1184 C 110.898 2.90921 -2.38835 0
M  V30 1185 C 110.045 1.64578 -2.2318 0
M  V30 1186 H 112.996 0.523862 -1.49804 0
M  V30 1187 H 113.017 3.17984 -2.08966 0
M  V30 1188 H 112.529 1.89599 -3.38635 0
M  V30 1189 H 110.63 3.42985 -1.45575 0
M  V30 1190 H 110.743 3.43487 -3.33997 0
M  V30 1191 H 109.107 1.89219 -1.70494 0
M  V30 1192 H 109.89 1.18814 -3.22084 0
M  V30 1193 N 112.336 1.25143 0.95797 0
M  V30 1194 C 113.613 1.00472 1.67823 0
M  V30 1195 C 113.993 -0.470056 2.058 0
M  V30 1196 O 113.341 -1.44663 1.76875 0
M  V30 1197 C 113.551 1.9372 2.90299 0
M  V30 1198 C 114.899 2.21371 3.62326 0
M  V30 1199 O 115.923 1.91451 3.00375 0
M  V30 1200 O 114.782 2.72231 4.7387 0
M  V30 1201 H 111.876 0.380752 0.734137 0
M  V30 1202 H 114.422 1.36283 1.01119 0
M  V30 1203 H 113.194 2.93316 2.59001 0
M  V30 1204 H 112.817 1.58286 3.64735 0
M  V30 1205 N 113.814 -1.1601 1.06675 0
M  V30 1206 C 115.044 -1.90251 0.805497 0
M  V30 1207 C 115.452 -1.77891 -0.64431 0
M  V30 1208 O 114.795 -1.12383 -1.45313 0
M  V30 1209 C 114.857 -3.41419 1.12576 0
M  V30 1210 C 114.521 -3.77564 2.57477 0
M  V30 1211 C 115.518 -3.79161 3.55715 0
M  V30 1212 C 113.203 -4.08079 2.92877 0
M  V30 1213 C 115.197 -4.10767 4.8739 0
M  V30 1214 C 112.884 -4.39351 4.24751 0
M  V30 1215 C 113.882 -4.40675 5.21818 0
M  V30 1216 O 113.57 -4.71202 6.51325 0
M  V30 1217 H 113.302 -0.610018 0.291297 0
M  V30 1218 H 115.856 -1.47958 1.4247 0
M  V30 1219 H 114.086 -3.84079 0.449503 0
M  V30 1220 H 115.775 -3.9694 0.84814 0
M  V30 1221 H 116.541 -3.55693 3.29708 0
M  V30 1222 H 112.42 -4.06211 2.17976 0
M  V30 1223 H 115.964 -4.11715 5.63148 0
M  V30 1224 H 111.861 -4.62285 4.50514 0
M  V30 1225 H 112.629 -4.88996 6.56373 0
M  V30 1226 N 115.292 -0.849877 -1.32721 0
M  V30 1227 C 116.541 -0.447175 -1.96681 0
M  V30 1228 C 116.854 1.00135 -1.68025 0
M  V30 1229 O 118.06 1.50926 -2.25685 0
M  V30 1230 C 116.516 -0.7487 -3.52026 0
M  V30 1231 C 116.124 -2.21264 -3.89546 0
M  V30 1232 C 117.868 -0.413487 -4.22481 0
M  V30 1233 C 115.775 -2.45763 -5.37917 0
M  V30 1234 H 114.705 -0.163486 -0.736063 0
M  V30 1235 H 117.356 -1.03999 -1.51183 0
M  V30 1236 H 115.738 -0.0853727 -3.95908 0
M  V30 1237 H 116.912 -2.91736 -3.56689 0
M  V30 1238 H 115.227 -2.5119 -3.32103 0
M  V30 1239 H 117.824 -0.574017 -5.3161 0
M  V30 1240 H 118.167 0.644492 -4.11281 0
M  V30 1241 H 118.7 -1.03251 -3.84167 0
M  V30 1242 H 115.439 -3.50168 -5.54132 0
M  V30 1243 H 114.959 -1.79864 -5.72197 0
M  V30 1244 H 116.638 -2.29471 -6.0494 0
M  V30 1245 N 116.77 1.45427 -0.607355 0
M  V30 1246 C 117.998 2.06614 -0.108814 0
M  V30 1247 C 118.413 1.45204 1.2067 0
M  V30 1248 O 117.77 0.566132 1.73497 0
M  V30 1249 C 117.821 3.61481 0.0375347 0
M  V30 1250 O 117.542 4.20598 -1.22593 0
M  V30 1251 C 119.043 4.39652 0.567561 0
M  V30 1252 H 116.263 0.66747 -0.0687351 0
M  V30 1253 H 118.807 1.86675 -0.835022 0
M  V30 1254 H 116.962 3.80762 0.714068 0
M  V30 1255 H 117.376 5.1377 -1.05547 0
M  V30 1256 H 118.85 5.48518 0.61905 0
M  V30 1257 H 119.327 4.09417 1.58978 0
M  V30 1258 H 119.933 4.25234 -0.0749202 0
M  V30 1259 N 118.248 0.346503 1.53744 0
M  V30 1260 C 119.496 -0.248612 2.00565 0
M  V30 1261 C 119.817 -1.5083 1.23593 0
M  V30 1262 O 119.087 -1.92858 0.343912 0
M  V30 1263 H 117.667 -0.0948564 0.740953 0
M  V30 1264 H 120.329 0.468341 1.89189 0
M  V30 1265 H 119.425 -0.488994 3.08245 0
M  V30 1266 N 119.726 -1.57421 0.075193 0
M  V30 1267 C 120.974 -1.93236 -0.591974 0
M  V30 1268 C 121.295 -0.956241 -1.69944 0
M  V30 1269 O 120.565 -0.00494792 -1.95899 0
M  V30 1270 H 119.145 -0.713355 -0.22166 0
M  V30 1271 H 121.807 -1.9444 0.133848 0
M  V30 1272 H 120.903 -2.95131 -1.01509 0
M  V30 1273 N 121.204 0.198386 -1.56346 0
M  V30 1274 C 122.615 0.763358 -1.70381 0
M  V30 1275 C 122.966 1.83995 -0.681203 0
M  V30 1276 O 122.091 2.15785 0.16305 0
M  V30 1277 C 122.686 1.39143 -3.08909 0
M  V30 1278 C 121.245 1.90352 -3.2472 0
M  V30 1279 C 120.392 0.772233 -2.6633 0
M  V30 1280 H 123.343 -0.0266377 -1.58678 0
M  V30 1281 H 123.364 2.26076 -3.06055 0
M  V30 1282 H 122.876 0.607638 -3.83314 0
M  V30 1283 H 120.977 2.71461 -2.55225 0
M  V30 1284 H 121.09 2.06757 -4.3219 0
M  V30 1285 H 119.454 1.18566 -2.2542 0
M  V30 1286 H 120.237 0.00073556 -3.433 0
M  V30 1287 N 122.682 1.50554 0.465978 0
M  V30 1288 C 123.63 1.70324 1.58406 0
M  V30 1289 C 124.624 0.569139 1.59553 0
M  V30 1290 O 125.83 0.749776 1.63641 0
M  V30 1291 H 122.205 0.537688 0.525734 0
M  V30 1292 H 124.176 2.64104 1.38894 0
M  V30 1293 C 122.925 1.81928 2.96307 0
M  V30 1294 H 122.248 2.68586 2.96144 0
M  V30 1295 H 123.688 1.99784 3.73982 0
M  V30 1296 C 122.147 0.572095 3.32007 0
M  V30 1297 O 122.677 -0.286416 4.00678 0
M  V30 1298 N 120.883 0.424606 2.87481 0
M  V30 1299 H 120.43 1.12427 2.31771 0
M  V30 1300 H 120.388 -0.408697 3.11732 0
M  V30 1301 N 124.16 -0.719506 1.40217 0
M  V30 1302 C 125.385 -1.51371 1.4178 0
M  V30 1303 C 125.81 -1.88091 0.0182355 0
M  V30 1304 O 125.168 -1.52997 -0.972707 0
M  V30 1305 C 125.216 -2.768 2.31115 0
M  V30 1306 O 124.32 -3.73349 1.7517 0
M  V30 1307 H 123.661 -0.456529 0.482159 0
M  V30 1308 H 126.191 -0.88644 1.844 0
M  V30 1309 H 126.201 -3.25371 2.46167 0
M  V30 1310 H 124.876 -2.49407 3.3282 0
M  V30 1311 H 123.453 -3.32179 1.69444 0
M  V30 1312 N 125.638 -1.25649 -0.95132 0
M  V30 1313 C 126.878 -1.11802 -1.71113 0
M  V30 1314 C 127.242 0.334758 -1.89059 0
M  V30 1315 O 128.443 0.595121 -2.62129 0
M  V30 1316 C 126.714 -1.85512 -3.05483 0
M  V30 1317 S 128.273 -1.87597 -3.96677 0
M  V30 1318 H 125.091 -0.399552 -0.588115 0
M  V30 1319 H 127.693 -1.59222 -1.1344 0
M  V30 1320 H 126.397 -2.90299 -2.90094 0
M  V30 1321 H 125.928 -1.38493 -3.68216 0
M  V30 1322 H 127.943 -0.955389 -4.86916 0
M  V30 1323 N 127.117 1.15442 -1.07289 0
M  V30 1324 C 128.067 2.18164 -0.662467 0
M  V30 1325 C 129.051 1.57845 0.312074 0
M  V30 1326 O 130.243 1.76552 0.125905 0
M  V30 1327 C 127.372 3.43246 -0.0611295 0
M  V30 1328 C 126.458 4.1062 -1.06077 0
M  V30 1329 N 126.849 4.53491 -2.24008 0
M  V30 1330 C 125.147 4.36949 -0.893964 0
M  V30 1331 C 125.848 5.05731 -2.87422 0
M  V30 1332 N 124.824 4.99236 -2.15091 0
M  V30 1333 H 128.626 2.49038 -1.56068 0
M  V30 1334 H 126.14 1.32003 -0.945988 0
M  V30 1335 H 128.137 4.16145 0.250792 0
M  V30 1336 H 126.797 3.13854 0.832207 0
M  V30 1337 H 127.808 4.46898 -2.6173 0
M  V30 1338 H 124.485 4.17466 -0.0534693 0
M  V30 1339 H 125.875 5.48865 -3.87553 0
M  V30 1340 N 128.595 0.856903 1.32268 0
M  V30 1341 C 129.842 0.461386 1.97174 0
M  V30 1342 C 130.17 -0.983491 1.67803 0
M  V30 1343 O 129.425 -1.70541 0.959903 0
M  V30 1344 C 129.724 0.649919 3.51441 0
M  V30 1345 C 129.39 2.0656 4.00804 0
M  V30 1346 C 128.052 2.45279 4.13995 0
M  V30 1347 C 130.404 2.98947 4.26943 0
M  V30 1348 C 127.732 3.75653 4.50668 0
M  V30 1349 C 130.084 4.28822 4.65075 0
M  V30 1350 C 128.748 4.67472 4.76472 0
M  V30 1351 H 128.018 0.168833 0.72151 0
M  V30 1352 H 130.665 1.08739 1.57633 0
M  V30 1353 H 128.97 -0.0593018 3.91755 0
M  V30 1354 H 130.667 0.32391 3.9969 0
M  V30 1355 H 127.257 1.75495 3.91024 0
M  V30 1356 H 131.441 2.70265 4.16258 0
M  V30 1357 H 126.697 4.05379 4.57688 0
M  V30 1358 H 130.871 5.0047 4.84255 0
M  V30 1359 H 128.498 5.68539 5.04646 0
M  V30 1360 N 130.073 -1.45103 0.615059 0
M  V30 1361 C 131.321 -2.01784 0.112955 0
M  V30 1362 C 131.642 -1.48504 -1.26378 0
M  V30 1363 O 130.912 -0.682245 -1.83636 0
M  V30 1364 H 129.492 -0.745993 0.0387668 0
M  V30 1365 H 132.154 -1.77808 0.798141 0
M  V30 1366 H 131.25 -3.12025 0.0684069 0
M  V30 1367 N 131.551 -0.354651 -1.53558 0
M  V30 1368 C 132.498 0.496968 -2.25386 0
M  V30 1369 C 133.468 1.0865 -1.25636 0
M  V30 1370 O 134.653 1.12104 -1.54394 0
M  V30 1371 C 131.793 1.63637 -3.03837 0
M  V30 1372 C 130.906 1.07307 -4.18461 0
M  V30 1373 C 130.041 2.18068 -4.84376 0
M  V30 1374 C 129.08 1.59147 -5.91049 0
M  V30 1375 N 128.217 2.63695 -6.50699 0
M  V30 1376 H 133.057 -0.122075 -2.9775 0
M  V30 1377 H 130.594 -0.0720154 -1.46924 0
M  V30 1378 H 132.552 2.30734 -3.47589 0
M  V30 1379 H 131.182 2.22623 -2.33749 0
M  V30 1380 H 130.234 0.292708 -3.79272 0
M  V30 1381 H 131.546 0.602193 -4.95152 0
M  V30 1382 H 130.7 2.93007 -5.31255 0
M  V30 1383 H 129.439 2.68504 -4.07133 0
M  V30 1384 H 128.444 0.827175 -5.43542 0
M  V30 1385 H 129.669 1.09549 -6.70206 0
M  V30 1386 H 127.615 3.13365 -5.76315 0
M  V30 1387 H 127.532 2.21263 -7.22896 0
M  V30 1388 H 128.8 3.3837 -7.02229 0
M  V30 1389 N 133.029 1.57378 -0.0835403 0
M  V30 1390 C 133.961 2.10389 0.909338 0
M  V30 1391 C 134.974 1.03858 1.25369 0
M  V30 1392 O 136.163 1.31338 1.20882 0
M  V30 1393 C 133.263 2.55908 2.2218 0
M  V30 1394 C 132.436 3.86145 2.05453 0
M  V30 1395 C 131.495 4.17633 3.20108 0
M  V30 1396 O 130.521 4.87043 2.94581 0
M  V30 1397 N 131.723 3.72113 4.45547 0
M  V30 1398 H 134.488 2.962 0.456657 0
M  V30 1399 H 132.049 1.61579 0.101877 0
M  V30 1400 H 134.041 2.74027 2.97811 0
M  V30 1401 H 132.611 1.75171 2.58909 0
M  V30 1402 H 131.831 3.7729 1.1422 0
M  V30 1403 H 133.119 4.7137 1.91541 0
M  V30 1404 H 132.517 3.16062 4.69171 0
M  V30 1405 H 131.074 3.95409 5.18165 0
M  V30 1406 N 134.507 -0.190092 1.56449 0
M  V30 1407 C 135.737 -0.92443 1.84764 0
M  V30 1408 C 136.145 -1.77146 0.664529 0
M  V30 1409 O 135.488 -1.79812 -0.375957 0
M  V30 1410 C 135.55 -1.86651 3.07248 0
M  V30 1411 C 135.214 -1.20094 4.40938 0
M  V30 1412 C 136.211 -0.575445 5.16706 0
M  V30 1413 C 133.896 -1.2033 4.87674 0
M  V30 1414 C 135.89 0.0388111 6.37388 0
M  V30 1415 C 133.577 -0.585214 6.08291 0
M  V30 1416 C 134.575 0.0347578 6.82991 0
M  V30 1417 O 134.263 0.643147 8.01323 0
M  V30 1418 H 133.995 -0.274974 0.617548 0
M  V30 1419 H 136.549 -0.200788 2.04416 0
M  V30 1420 H 134.779 -2.62998 2.83494 0
M  V30 1421 H 136.468 -2.46907 3.22167 0
M  V30 1422 H 137.234 -0.565728 4.81689 0
M  V30 1423 H 133.113 -1.67526 4.29484 0
M  V30 1424 H 136.657 0.523329 6.95634 0
M  V30 1425 H 132.554 -0.592451 6.42775 0
M  V30 1426 H 133.322 0.540545 8.16713 0
M  V30 1427 N 135.985 -1.50799 -0.457987 0
M  V30 1428 C 137.213 -1.66218 -1.23203 0
M  V30 1429 C 137.628 -0.350894 -1.85511 0
M  V30 1430 O 136.985 0.668546 -1.69814 0
M  V30 1431 C 137.036 -2.76291 -2.33121 0
M  V30 1432 O 136.757 -4.02338 -1.73366 0
M  V30 1433 C 138.258 -3.028 -3.2377 0
M  V30 1434 H 135.478 -0.558361 -0.372121 0
M  V30 1435 H 138.022 -1.97099 -0.545179 0
M  V30 1436 H 136.177 -2.48068 -2.97558 0
M  V30 1437 H 136.591 -4.63312 -2.4585 0
M  V30 1438 H 138.065 -3.8345 -3.97077 0
M  V30 1439 H 138.542 -2.14385 -3.83322 0
M  V30 1440 H 139.148 -3.32604 -2.65056 0
M  V30 1441 N 137.463 0.71206 -1.40597 0
M  V30 1442 C 138.688 1.50617 -1.42581 0
M  V30 1443 C 139.113 1.88079 -0.0282102 0
M  V30 1444 O 138.471 1.53511 0.964579 0
M  V30 1445 C 138.519 2.7557 -2.3258 0
M  V30 1446 O 137.623 3.72414 -1.77148 0
M  V30 1447 H 136.964 0.453966 -0.484573 0
M  V30 1448 H 139.494 0.876649 -1.84868 0
M  V30 1449 H 139.504 3.2406 -2.47889 0
M  V30 1450 H 138.179 2.47639 -3.34138 0
M  V30 1451 H 136.756 3.31276 -1.71204 0
M  V30 1452 N 138.941 1.26152 0.944643 0
M  V30 1453 C 139.874 1.01729 2.04271 0
M  V30 1454 C 140.852 -0.0568101 1.62501 0
M  V30 1455 O 142.036 0.0848987 1.88309 0
M  V30 1456 C 139.163 0.539792 3.34371 0
M  V30 1457 C 138.209 1.60593 3.9511 0
M  V30 1458 S 139.042 3.19392 4.29825 0
M  V30 1459 C 140.198 2.73402 5.63029 0
M  V30 1460 H 140.431 1.94703 2.24673 0
M  V30 1461 H 137.964 1.09793 1.08558 0
M  V30 1462 H 139.922 0.270956 4.09605 0
M  V30 1463 H 138.583 -0.369609 3.11918 0
M  V30 1464 H 137.776 1.22275 4.88943 0
M  V30 1465 H 137.378 1.82596 3.26397 0
M  V30 1466 H 139.67 2.1765 6.41588 0
M  V30 1467 H 140.613 3.65913 6.06229 0
M  V30 1468 H 141.021 2.13077 5.22741 0
M  V30 1469 N 140.419 -1.14872 1.07899 0
M  V30 1470 C 141.665 -1.86289 0.81657 0
M  V30 1471 C 142.02 -1.8107 -0.65049 0
M  V30 1472 O 141.313 -1.22684 -1.47171 0
M  V30 1473 C 141.507 -3.34223 1.26609 0
M  V30 1474 C 141.336 -3.53846 2.77531 0
M  V30 1475 C 140.106 -3.68995 3.45212 0
M  V30 1476 C 142.304 -3.51201 3.75716 0
M  V30 1477 N 140.286 -3.76725 4.84718 0
M  V30 1478 C 141.657 -3.65112 5.01092 0
M  V30 1479 C 143.712 -3.34507 3.68794 0
M  V30 1480 C 142.415 -3.64056 6.20368 0
M  V30 1481 C 144.441 -3.34752 4.8754 0
M  V30 1482 C 143.803 -3.49199 6.11751 0
M  V30 1483 H 139.902 -0.698579 0.351443 0
M  V30 1484 H 142.486 -1.37713 1.37634 0
M  V30 1485 H 140.657 -3.81402 0.73395 0
M  V30 1486 H 142.389 -3.93377 0.95062 0
M  V30 1487 H 139.144 -3.70006 2.95622 0
M  V30 1488 H 139.568 -3.8432 5.5734 0
M  V30 1489 H 144.21 -3.22253 2.73702 0
M  V30 1490 H 141.928 -3.75087 7.15776 0
M  V30 1491 H 145.514 -3.23055 4.83866 0
M  V30 1492 H 144.394 -3.49328 7.02097 0
M  V30 1493 N 141.898 -0.863906 -1.31812 0
M  V30 1494 C 143.314 -0.555004 -1.49639 0
M  V30 1495 C 143.514 0.912266 -1.79666 0
M  V30 1496 O 142.57 1.69479 -1.87171 0
M  V30 1497 C 143.883 -1.44998 -2.63431 0
M  V30 1498 C 145.431 -1.45138 -2.77316 0
M  V30 1499 C 145.906 -2.33179 -3.94197 0
M  V30 1500 N 147.397 -2.31025 -4.01474 0
M  V30 1501 C 148.132 -2.95871 -4.9117 0
M  V30 1502 N 147.628 -3.69863 -5.8581 0
M  V30 1503 N 149.421 -2.85211 -4.84367 0
M  V30 1504 H 141.572 -1.81339 -1.10589 0
M  V30 1505 H 143.835 -0.77505 -0.545895 0
M  V30 1506 H 143.541 -2.49377 -2.48 0
M  V30 1507 H 143.415 -1.14409 -3.59431 0
M  V30 1508 H 145.802 -0.415201 -2.92164 0
M  V30 1509 H 145.883 -1.79747 -1.82001 0
M  V30 1510 H 145.527 -3.3687 -3.80107 0
M  V30 1511 H 145.457 -1.95897 -4.88807 0
M  V30 1512 H 147.948 -1.77238 -3.33759 0
M  V30 1513 H 148.261 -4.16486 -6.50968 0
M  V30 1514 H 146.606 -3.73971 -5.85808 0
M  V30 1515 H 149.797 -2.26948 -4.09405 0
M  V30 1516 H 149.97 -3.36027 -5.54066 0
M  V30 1517 N 143.376 1.44774 -0.622745 0
M  V30 1518 C 144.604 2.06487 -0.130722 0
M  V30 1519 C 145.019 1.46476 1.19123 0
M  V30 1520 O 144.376 0.584502 1.72887 0
M  V30 1521 C 144.427 3.615 -0.000807207 0
M  V30 1522 O 144.148 4.19274 -1.27048 0
M  V30 1523 C 145.649 4.40229 0.520898 0
M  V30 1524 H 142.869 0.666704 -0.0758106 0
M  V30 1525 H 145.413 1.85779 -0.854774 0
M  V30 1526 H 143.568 3.81498 0.673643 0
M  V30 1527 H 143.982 5.12622 -1.1099 0
M  V30 1528 H 145.456 5.49144 0.560838 0
M  V30 1529 H 145.933 4.1108 1.54627 0
M  V30 1530 H 146.539 4.25131 -0.120018 0
M  V30 1531 N 144.854 0.36279 1.53368 0
M  V30 1532 C 146.084 -0.228281 2.05335 0
M  V30 1533 C 146.492 -1.43226 1.23625 0
M  V30 1534 O 145.835 -1.81717 0.269206 0
M  V30 1535 C 145.897 -0.688549 3.52845 0
M  V30 1536 C 145.561 0.398362 4.5526 0
M  V30 1537 C 146.558 1.24732 5.04716 0
M  V30 1538 C 144.243 0.557805 4.99193 0
M  V30 1539 C 146.237 2.2411 5.96702 0
M  V30 1540 C 143.924 1.55495 5.90986 0
M  V30 1541 C 144.922 2.39503 6.39631 0
M  V30 1542 O 144.61 3.37517 7.29615 0
M  V30 1543 H 144.342 -0.044395 0.674541 0
M  V30 1544 H 146.896 0.518668 1.98744 0
M  V30 1545 H 145.126 -1.48706 3.56964 0
M  V30 1546 H 146.815 -1.20231 3.87685 0
M  V30 1547 H 147.581 1.13532 4.71525 0
M  V30 1548 H 143.46 -0.0862959 4.60919 0
M  V30 1549 H 147.004 2.89718 6.34594 0
M  V30 1550 H 142.901 1.66744 6.23592 0
M  V30 1551 H 143.669 3.33213 7.47604 0
M  V30 1552 N 146.332 -1.57332 0.0918853 0
M  V30 1553 C 147.581 -1.93412 -0.572249 0
M  V30 1554 C 147.894 -0.975515 -1.69538 0
M  V30 1555 O 149.1 -1.22991 -2.42045 0
M  V30 1556 C 147.556 -3.43648 -1.0693 0
M  V30 1557 C 147.164 -4.47994 0.0239049 0
M  V30 1558 C 148.908 -3.88695 -1.70635 0
M  V30 1559 C 146.815 -5.89381 -0.488319 0
M  V30 1560 H 145.745 -0.721939 -0.217532 0
M  V30 1561 H 148.396 -1.82735 0.167369 0
M  V30 1562 H 146.778 -3.49466 -1.8625 0
M  V30 1563 H 147.952 -4.53815 0.799277 0
M  V30 1564 H 146.267 -4.12536 0.565946 0
M  V30 1565 H 148.864 -4.91725 -2.10025 0
M  V30 1566 H 149.207 -3.27166 -2.57426 0
M  V30 1567 H 149.74 -3.85564 -0.979023 0
M  V30 1568 H 146.479 -6.54602 0.342906 0
M  V30 1569 H 145.999 -5.87037 -1.23077 0
M  V30 1570 H 147.678 -6.39863 -0.958317 0
M  V30 1571 N 147.81 0.181792 -1.56548 0
M  V30 1572 C 148.743 1.25366 -1.90679 0
M  V30 1573 C 149.721 1.43299 -0.768376 0
M  V30 1574 O 150.905 1.58475 -1.02068 0
M  V30 1575 C 148.032 2.61826 -2.1486 0
M  V30 1576 C 147.078 2.60688 -3.37556 0
M  V30 1577 S 147.911 2.10804 -4.92262 0
M  V30 1578 C 149.067 3.49062 -5.19525 0
M  V30 1579 H 149.3 0.962277 -2.81296 0
M  V30 1580 H 146.833 0.385892 -1.495 0
M  V30 1581 H 148.791 3.40371 -2.29473 0
M  V30 1582 H 147.452 2.88169 -1.24969 0
M  V30 1583 H 146.645 3.61058 -3.51643 0
M  V30 1584 H 146.247 1.90232 -3.22006 0
M  V30 1585 H 148.539 4.45003 -5.10861 0
M  V30 1586 H 149.482 3.39859 -6.2121 0
M  V30 1587 H 149.89 3.4459 -4.47122 0
M  V30 1588 N 149.288 1.51039 0.449983 0
M  V30 1589 C 150.221 1.66105 1.56474 0
M  V30 1590 C 151.199 0.508776 1.54435 0
M  V30 1591 O 152.383 0.731005 1.73749 0
M  V30 1592 C 149.51 1.66304 2.9506 0
M  V30 1593 C 148.556 2.87346 3.15174 0
M  V30 1594 S 149.389 4.4835 2.92818 0
M  V30 1595 C 150.545 4.51274 4.33708 0
M  V30 1596 H 150.778 2.60397 1.43459 0
M  V30 1597 H 148.311 1.40565 0.638805 0
M  V30 1598 H 150.269 1.67103 3.74949 0
M  V30 1599 H 148.93 0.732108 3.05449 0
M  V30 1600 H 148.123 2.83849 4.16468 0
M  V30 1601 H 147.725 2.84223 2.43091 0
M  V30 1602 H 150.017 4.26136 5.26701 0
M  V30 1603 H 150.96 5.53017 4.42242 0
M  V30 1604 H 151.368 3.80738 4.16772 0
M  V30 1605 N 150.766 -0.704594 1.40972 0
M  V30 1606 C 152.012 -1.46675 1.40051 0
M  V30 1607 C 152.345 -1.94199 0.00641102 0
M  V30 1608 O 151.62 -1.68916 -0.964235 0
M  V30 1609 C 151.903 -2.68505 2.39952 0
M  V30 1610 C 151.756 -2.26805 3.88432 0
M  V30 1611 C 153.075 -3.70686 2.37233 0
M  V30 1612 H 150.194 -0.532015 0.510028 0
M  V30 1613 H 152.836 -0.803255 1.72185 0
M  V30 1614 H 150.986 -3.25114 2.1268 0
M  V30 1615 H 152.658 -1.75592 4.26574 0
M  V30 1616 H 150.901 -1.58685 4.03734 0
M  V30 1617 H 151.572 -3.14181 4.53866 0
M  V30 1618 H 154.048 -3.23731 2.61415 0
M  V30 1619 H 152.924 -4.53553 3.09162 0
M  V30 1620 H 153.185 -4.19754 1.38777 0
M  V30 1621 N 152.244 -1.26651 -0.937939 0
M  V30 1622 C 153.192 -1.08308 -2.05845 0
M  V30 1623 C 154.186 -0.0090757 -1.69398 0
M  V30 1624 O 155.392 -0.166007 -1.79233 0
M  V30 1625 H 151.767 -0.333416 -0.674046 0
M  V30 1626 H 153.738 -2.03261 -2.18467 0
M  V30 1627 C 152.487 -0.736229 -3.39816 0
M  V30 1628 H 151.81 -1.55453 -3.6834 0
M  V30 1629 H 153.25 -0.64769 -4.19024 0
M  V30 1630 C 151.709 0.558824 -3.32233 0
M  V30 1631 O 152.239 1.59621 -3.68624 0
M  V30 1632 N 150.445 0.550657 -2.85335 0
M  V30 1633 H 149.992 -0.293943 -2.55917 0
M  V30 1634 H 149.95 1.41726 -2.80644 0
M  V30 1635 N 153.722 1.14298 -1.08507 0
M  V30 1636 C 154.685 2.17607 -0.719711 0
M  V30 1637 C 155.685 1.58907 0.245997 0
M  V30 1638 O 156.875 1.74181 0.0254081 0
M  V30 1639 C 154.007 3.40842 -0.0627695 0
M  V30 1640 H 155.2 2.51443 -1.63452 0
M  V30 1641 H 152.753 1.28963 -0.88307 0
M  V30 1642 H 153.488 3.12587 0.863716 0
M  V30 1643 H 153.273 3.84713 -0.757504 0
M  V30 1644 H 154.763 4.17221 0.177786 0
M  V30 1645 N 155.201 0.870884 1.31352 0
M  V30 1646 C 156.429 0.49677 2.00848 0
M  V30 1647 C 156.844 -0.910998 1.65367 0
M  V30 1648 O 156.201 -1.59696 0.883374 0
M  V30 1649 C 156.252 0.645308 3.55694 0
M  V30 1650 O 155.973 1.99764 3.89905 0
M  V30 1651 C 157.474 0.272326 4.42463 0
M  V30 1652 H 154.694 0.193462 0.642506 0
M  V30 1653 H 157.238 1.1723 1.67563 0
M  V30 1654 H 155.393 0.0173176 3.87396 0
M  V30 1655 H 155.807 2.00607 4.84621 0
M  V30 1656 H 157.281 0.427208 5.50344 0
M  V30 1657 H 157.758 -0.788587 4.32062 0
M  V30 1658 H 158.364 0.876054 4.1618 0
M  V30 1659 N 156.679 -1.44442 0.630414 0
M  V30 1660 C 157.627 -2.32437 -0.0871428 0
M  V30 1661 C 158.621 -1.47304 -0.836525 0
M  V30 1662 O 159.827 -1.63653 -0.749506 0
M  V30 1663 H 156.202 -0.750533 -0.0469495 0
M  V30 1664 H 158.173 -2.90709 0.673096 0
M  V30 1665 C 156.922 -3.31288 -1.05563 0
M  V30 1666 H 156.245 -3.96805 -0.488426 0
M  V30 1667 H 157.685 -3.9554 -1.52721 0
M  V30 1668 C 156.144 -2.6016 -2.14052 0
M  V30 1669 O 156.674 -2.39997 -3.22124 0
M  V30 1670 N 154.88 -2.19911 -1.89967 0
M  V30 1671 H 154.427 -2.36509 -1.02085 0
M  V30 1672 H 154.385 -1.72646 -2.62756 0
M  V30 1673 N 158.157 -0.370918 -1.53173 0
M  V30 1674 C 159.089 0.507823 -2.23503 0
M  V30 1675 C 160.102 1.04182 -1.251 0
M  V30 1676 O 161.291 0.947286 -1.5129 0
M  V30 1677 C 158.391 1.71447 -2.92334 0
M  V30 1678 C 157.564 1.31105 -4.17289 0
M  V30 1679 C 156.623 2.38035 -4.69282 0
M  V30 1680 O 155.649 2.00204 -5.32829 0
M  V30 1681 N 156.851 3.69697 -4.47554 0
M  V30 1682 H 159.616 -0.0946382 -2.99551 0
M  V30 1683 H 157.177 -0.196358 -1.60705 0
M  V30 1684 H 159.169 2.42469 -3.24023 0
M  V30 1685 H 157.739 2.22368 -2.19707 0
M  V30 1686 H 156.959 0.430462 -3.91843 0
M  V30 1687 H 158.247 1.0179 -4.98514 0
M  V30 1688 H 157.645 4.03205 -3.9679 0
M  V30 1689 H 156.202 4.36807 -4.8378 0
M  V30 1690 N 159.635 1.57281 -0.100228 0
M  V30 1691 C 160.568 2.09976 0.893612 0
M  V30 1692 C 161.546 1.01155 1.27304 0
M  V30 1693 O 162.73 1.28687 1.37739 0
M  V30 1694 C 159.857 2.58098 2.19324 0
M  V30 1695 C 158.903 3.78626 1.96328 0
M  V30 1696 S 159.736 5.21959 1.19662 0
M  V30 1697 C 160.892 5.73435 2.50844 0
M  V30 1698 H 161.125 2.93946 0.44534 0
M  V30 1699 H 158.658 1.53985 0.113167 0
M  V30 1700 H 160.616 2.8648 2.94005 0
M  V30 1701 H 159.277 1.74344 2.61272 0
M  V30 1702 H 158.47 4.10382 2.92579 0
M  V30 1703 H 158.072 3.50763 1.29775 0
M  V30 1704 H 160.364 5.82015 3.46792 0
M  V30 1705 H 161.307 6.7185 2.23659 0
M  V30 1706 H 161.715 5.01395 2.59352 0
M  V30 1707 N 161.113 -0.173488 1.56642 0
M  V30 1708 C 162.361 -0.888706 1.81512 0
M  V30 1709 C 162.682 -1.82875 0.676872 0
M  V30 1710 O 161.952 -1.93536 -0.303414 0
M  V30 1711 H 160.532 -0.331164 0.669582 0
M  V30 1712 H 163.194 -0.173823 1.94123 0
M  V30 1713 H 162.29 -1.46691 2.75478 0
M  V30 1714 N 162.591 -1.51276 -0.441967 0
M  V30 1715 C 163.816 -1.67799 -1.21895 0
M  V30 1716 C 164.241 -0.372864 -1.84367 0
M  V30 1717 O 163.599 0.666501 -1.68604 0
M  V30 1718 C 163.647 -2.79199 -2.28211 0
M  V30 1719 O 162.751 -2.42479 -3.33583 0
M  V30 1720 H 162.092 -0.559649 -0.357336 0
M  V30 1721 H 164.622 -1.97815 -0.522522 0
M  V30 1722 H 164.632 -3.03146 -2.73069 0
M  V30 1723 H 163.307 -3.73906 -1.82118 0
M  V30 1724 H 161.884 -2.29087 -2.94234 0
M  V30 1725 N 164.069 0.697108 -1.41344 0
M  V30 1726 C 165.294 1.49096 -1.44171 0
M  V30 1727 C 165.719 1.88038 -0.0481568 0
M  V30 1728 O 165.077 1.54525 0.948243 0
M  V30 1729 C 165.125 2.73088 -2.3549 0
M  V30 1730 O 164.229 3.70514 -1.81088 0
M  V30 1731 H 163.57 0.448801 -0.489361 0
M  V30 1732 H 166.1 0.856992 -1.85787 0
M  V30 1733 H 166.11 3.21413 -2.51312 0
M  V30 1734 H 164.785 2.44081 -3.36745 0
M  V30 1735 H 163.362 3.29441 -1.74708 0
M  V30 1736 N 165.547 1.27147 0.931209 0
M  V30 1737 C 166.794 1.13278 1.67852 0
M  V30 1738 C 167.122 -0.32204 1.91815 0
M  V30 1739 O 166.377 -1.25224 1.50391 0
M  V30 1740 C 166.676 1.8579 3.05314 0
M  V30 1741 C 166.342 3.35657 3.01073 0
M  V30 1742 C 165.004 3.76536 2.99623 0
M  V30 1743 C 167.356 4.31299 2.92627 0
M  V30 1744 C 164.684 5.11426 2.87506 0
M  V30 1745 C 167.036 5.66242 2.82051 0
M  V30 1746 C 165.7 6.06418 2.7895 0
M  V30 1747 H 164.97 0.414515 0.614214 0
M  V30 1748 H 167.617 1.57712 1.08624 0
M  V30 1749 H 165.922 1.33854 3.68226 0
M  V30 1750 H 167.619 1.72491 3.62005 0
M  V30 1751 H 164.209 3.03146 3.02986 0
M  V30 1752 H 168.393 4.00692 2.92848 0
M  V30 1753 H 163.649 5.41705 2.83489 0
M  V30 1754 H 167.823 6.40026 2.74481 0
M  V30 1755 H 165.45 7.10895 2.69318 0
M  V30 1756 N 167.025 -1.13721 1.09112 0
M  V30 1757 C 168.25 -1.89314 0.847053 0
M  V30 1758 C 168.675 -1.78416 -0.595774 0
M  V30 1759 O 168.033 -1.12942 -1.41823 0
M  V30 1760 C 168.081 -3.3701 1.28284 0
M  V30 1761 O 167.185 -4.10054 0.439267 0
M  V30 1762 H 166.526 -0.588745 0.307044 0
M  V30 1763 H 169.056 -1.43902 1.45442 0
M  V30 1764 H 169.066 -3.87834 1.26683 0
M  V30 1765 H 167.741 -3.4426 2.33363 0
M  V30 1766 H 166.318 -3.69266 0.519312 0
M  V30 1767 N 168.503 -0.877838 -1.30888 0
M  V30 1768 C 169.78 -0.413052 -1.91189 0
M  V30 1769 C 170.16 1.1056 -1.79832 0
M  V30 1770 O 169.508 1.93771 -1.21099 0
M  V30 1771 C 169.718 -0.903191 -3.3711 0
M  V30 1772 C 171.066 -0.93395 -4.14201 0
M  V30 1773 O 172.09 -0.849373 -3.45925 0
M  V30 1774 O 170.949 -1.05772 -5.36167 0
M  V30 1775 H 168.043 -0.125035 -0.817493 0
M  V30 1776 H 170.589 -0.966269 -1.39504 0
M  V30 1777 H 169.361 -1.94692 -3.39427 0
M  V30 1778 H 168.984 -0.328732 -3.96239 0
M  V30 1779 N 169.982 1.44106 -0.638065 0
M  V30 1780 C 170.892 2.34513 0.0637334 0
M  V30 1781 C 171.908 1.53018 0.828346 0
M  V30 1782 O 173.084 1.85723 0.779036 0
M  V30 1783 C 170.149 3.31095 1.02844 0
M  V30 1784 C 169.21 4.28497 0.26244 0
M  V30 1785 C 168.443 5.20465 1.1812 0
M  V30 1786 O 168.666 5.16514 2.42011 0
M  V30 1787 O 167.6 5.98251 0.661774 0
M  V30 1788 H 171.426 2.95989 -0.68003 0
M  V30 1789 H 169.011 1.43994 -0.398252 0
M  V30 1790 H 170.893 3.90526 1.58327 0
M  V30 1791 H 169.568 2.72144 1.7527 0
M  V30 1792 H 168.475 3.72592 -0.335602 0
M  V30 1793 H 169.808 4.90388 -0.421936 0
M  V30 1794 N 171.46 0.379036 1.52974 0
M  V30 1795 C 172.39 -0.452706 2.29069 0
M  V30 1796 C 173.371 -1.07237 1.32039 0
M  V30 1797 O 174.556 -1.08708 1.60923 0
M  V30 1798 C 171.686 -1.5856 3.08992 0
M  V30 1799 C 170.64 -1.0925 4.13822 0
M  V30 1800 C 169.966 -2.31668 4.81907 0
M  V30 1801 C 171.266 -0.167702 5.22031 0
M  V30 1802 H 172.96 0.182181 2.98845 0
M  V30 1803 H 170.506 0.0890592 1.43724 0
M  V30 1804 H 172.459 -2.1742 3.6098 0
M  V30 1805 H 171.183 -2.24792 2.36931 0
M  V30 1806 H 169.842 -0.526494 3.628 0
M  V30 1807 H 169.49 -2.96386 4.06404 0
M  V30 1808 H 169.19 -1.9934 5.52754 0
M  V30 1809 H 170.714 -2.91189 5.36695 0
M  V30 1810 H 172.128 -0.664186 5.6944 0
M  V30 1811 H 170.525 0.0653265 6.00064 0
M  V30 1812 H 171.595 0.786347 4.78482 0
M  V30 1813 N 172.938 -1.57226 0.108567 0
M  V30 1814 C 174.168 -1.9889 -0.559142 0
M  V30 1815 C 174.576 -0.986889 -1.61422 0
M  V30 1816 O 173.919 0.0298705 -1.83676 0
M  V30 1817 C 173.981 -3.36952 -1.25315 0
M  V30 1818 C 173.645 -4.55679 -0.347248 0
M  V30 1819 C 174.642 -5.18281 0.409996 0
M  V30 1820 C 172.327 -5.0162 -0.261367 0
M  V30 1821 C 174.321 -6.25203 1.24096 0
M  V30 1822 C 172.008 -6.08405 0.573238 0
M  V30 1823 C 173.006 -6.70063 1.32304 0
M  V30 1824 O 172.694 -7.74788 2.14381 0
M  V30 1825 H 172.426 -0.658343 -0.153492 0
M  V30 1826 H 174.98 -2.04532 0.188584 0
M  V30 1827 H 173.21 -3.28032 -2.04773 0
M  V30 1828 H 174.899 -3.62974 -1.81673 0
M  V30 1829 H 175.665 -4.8371 0.353457 0
M  V30 1830 H 171.544 -4.53381 -0.834656 0
M  V30 1831 H 175.088 -6.73259 1.82669 0
M  V30 1832 H 170.985 -6.42406 0.631208 0
M  V30 1833 H 171.753 -7.91837 2.07209 0
M  V30 1834 N 174.416 0.165178 -1.56732 0
M  V30 1835 C 175.662 0.882112 -1.82611 0
M  V30 1836 C 175.995 1.81628 -0.687378 0
M  V30 1837 O 175.27 1.92009 0.310267 0
M  V30 1838 C 175.553 1.67245 -3.18906 0
M  V30 1839 C 175.406 0.760987 -4.43316 0
M  V30 1840 C 176.725 2.63884 -3.52212 0
M  V30 1841 H 173.844 0.319242 -0.664269 0
M  V30 1842 H 176.486 0.148052 -1.89422 0
M  V30 1843 H 174.636 2.29824 -3.1323 0
M  V30 1844 H 176.308 0.147596 -4.61064 0
M  V30 1845 H 174.551 0.0694102 -4.33744 0
M  V30 1846 H 175.222 1.34962 -5.35247 0
M  V30 1847 H 177.698 2.11429 -3.58381 0
M  V30 1848 H 176.574 3.16245 -4.48643 0
M  V30 1849 H 176.835 3.44377 -2.77231 0
M  V30 1850 N 175.894 1.51508 0.433938 0
M  V30 1851 C 177.171 1.54888 1.19453 0
M  V30 1852 C 177.551 0.315154 2.08734 0
M  V30 1853 O 176.899 -0.699558 2.17528 0
M  V30 1854 C 177.109 2.86467 1.99342 0
M  V30 1855 C 178.457 3.38545 2.56267 0
M  V30 1856 O 179.481 2.88041 2.0955 0
M  V30 1857 O 178.34 4.26675 3.41483 0
M  V30 1858 H 175.434 0.622863 0.544032 0
M  V30 1859 H 177.98 1.63823 0.442732 0
M  V30 1860 H 176.752 3.67718 1.33788 0
M  V30 1861 H 176.375 2.8071 2.8158 0
M  V30 1862 N 177.372 -0.689602 1.41712 0
M  V30 1863 C 178.618 -1.45181 1.41599 0
M  V30 1864 C 178.951 -1.94181 0.0270081 0
M  V30 1865 O 178.226 -1.6993 -0.946265 0
M  V30 1866 C 178.509 -2.65945 2.42787 0
M  V30 1867 C 178.362 -2.22672 3.90816 0
M  V30 1868 C 179.681 -3.68149 2.41151 0
M  V30 1869 H 176.8 -0.526576 0.515642 0
M  V30 1870 H 179.442 -0.784947 1.73028 0
M  V30 1871 H 177.592 -3.2284 2.16116 0
M  V30 1872 H 179.264 -1.71058 4.28412 0
M  V30 1873 H 177.507 -1.54394 4.05395 0
M  V30 1874 H 178.178 -3.0935 4.57172 0
M  V30 1875 H 180.654 -3.2094 2.64834 0
M  V30 1876 H 179.53 -4.50248 3.13955 0
M  V30 1877 H 179.791 -4.18259 1.43221 0
M  V30 1878 N 178.85 -1.27639 -0.924453 0
M  V30 1879 C 180.078 -1.16989 -1.70649 0
M  V30 1880 C 180.493 0.272869 -1.86818 0
M  V30 1881 O 179.85 1.18549 -1.38753 0
M  V30 1882 C 179.901 -1.85229 -3.10439 0
M  V30 1883 O 179.622 -3.23868 -2.95028 0
M  V30 1884 C 181.123 -1.80746 -4.04779 0
M  V30 1885 H 178.343 -0.406595 -0.53378 0
M  V30 1886 H 180.887 -1.68569 -1.15778 0
M  V30 1887 H 179.042 -1.37545 -3.6216 0
M  V30 1888 H 179.456 -3.57889 -3.83426 0
M  V30 1889 H 180.93 -2.33101 -5.00368 0
M  V30 1890 H 181.407 -0.777499 -4.32263 0
M  V30 1891 H 182.013 -2.28059 -3.58984 0
M  V30 1892 N 180.328 1.1314 -1.09713 0
M  V30 1893 C 181.558 1.88048 -0.855656 0
M  V30 1894 C 181.966 1.79537 0.596919 0
M  V30 1895 O 181.309 1.16196 1.42282 0
M  V30 1896 C 181.371 3.38314 -1.21589 0
M  V30 1897 C 181.035 3.70605 -2.67397 0
M  V30 1898 C 182.032 3.69596 -3.65643 0
M  V30 1899 C 179.717 4.0017 -3.03593 0
M  V30 1900 C 181.711 3.977 -4.9811 0
M  V30 1901 C 179.398 4.27935 -4.36251 0
M  V30 1902 C 180.396 4.26685 -5.33318 0
M  V30 1903 O 180.084 4.53767 -6.63589 0
M  V30 1904 H 179.816 0.60208 -0.307368 0
M  V30 1905 H 182.37 1.44128 -1.46343 0
M  V30 1906 H 180.6 3.82752 -0.551177 0
M  V30 1907 H 182.289 3.94552 -0.953083 0
M  V30 1908 H 183.055 3.46826 -3.39023 0
M  V30 1909 H 178.934 4.00289 -2.2867 0
M  V30 1910 H 182.478 3.9664 -5.73866 0
M  V30 1911 H 178.375 4.50178 -4.62613 0
M  V30 1912 H 179.143 4.71422 -6.69107 0
M  V30 1913 N 181.806 0.884767 1.30421 0
M  V30 1914 C 183.055 0.499164 1.95426 0
M  V30 1915 C 183.368 -0.95645 1.70621 0
M  V30 1916 O 184.574 -1.44889 2.29607 0
M  V30 1917 C 183.03 0.84177 3.49917 0
M  V30 1918 C 182.638 2.31514 3.83543 0
M  V30 1919 C 184.382 0.525355 4.21237 0
M  V30 1920 C 182.289 2.59939 5.31212 0
M  V30 1921 H 181.219 0.182944 0.73147 0
M  V30 1922 H 183.87 1.07971 1.48373 0
M  V30 1923 H 182.252 0.190311 3.95542 0
M  V30 1924 H 183.426 3.0109 3.48829 0
M  V30 1925 H 181.741 2.59907 3.25326 0
M  V30 1926 H 184.338 0.714762 5.29901 0
M  V30 1927 H 184.681 -0.535222 4.12845 0
M  V30 1928 H 185.214 1.134 3.81294 0
M  V30 1929 H 181.953 3.64736 5.44654 0
M  V30 1930 H 181.473 1.94972 5.67227 0
M  V30 1931 H 183.152 2.45429 5.98643 0
M  V30 1932 N 183.284 -1.43765 0.645699 0
M  V30 1933 C 184.53 -2.02197 0.156271 0
M  V30 1934 C 184.863 -1.50776 -1.22393 0
M  V30 1935 O 184.138 -0.697771 -1.81553 0
M  V30 1936 C 184.421 -3.59749 0.158872 0
M  V30 1937 C 184.274 -4.21419 1.57245 0
M  V30 1938 C 185.593 -4.37149 -0.50879 0
M  V30 1939 H 182.712 -0.734694 0.0582602 0
M  V30 1940 H 185.354 -1.71157 0.824951 0
M  V30 1941 H 183.504 -3.86325 -0.410525 0
M  V30 1942 H 185.176 -4.059 2.19186 0
M  V30 1943 H 183.419 -3.78356 2.122 0
M  V30 1944 H 184.09 -5.30482 1.52619 0
M  V30 1945 H 186.566 -4.16093 -0.024412 0
M  V30 1946 H 185.442 -5.4683 -0.476213 0
M  V30 1947 H 185.703 -4.12839 -1.58165 0
M  V30 1948 N 184.763 -0.387143 -1.52771 0
M  V30 1949 C 185.695 0.484089 -2.2403 0
M  V30 1950 C 186.708 1.02849 -1.26198 0
M  V30 1951 O 187.897 0.931186 -1.52286 0
M  V30 1952 C 184.997 1.68337 -2.94136 0
M  V30 1953 C 184.17 1.26672 -4.18656 0
M  V30 1954 C 183.229 2.33045 -4.7178 0
M  V30 1955 O 182.255 1.94541 -5.34923 0
M  V30 1956 N 183.457 3.64929 -4.5145 0
M  V30 1957 H 186.222 -0.126404 -2.99433 0
M  V30 1958 H 183.783 -0.213392 -1.60488 0
M  V30 1959 H 185.775 2.39019 -3.26577 0
M  V30 1960 H 184.345 2.20025 -2.22053 0
M  V30 1961 H 183.565 0.388878 -3.92277 0
M  V30 1962 H 184.853 0.964964 -4.99566 0
M  V30 1963 H 184.251 3.98974 -4.01044 0
M  V30 1964 H 182.808 4.31651 -4.88386 0
M  V30 1965 N 186.241 1.57166 -0.116904 0
M  V30 1966 C 187.652 1.82169 0.408809 0
M  V30 1967 C 188.003 1.03393 1.66746 0
M  V30 1968 O 187.128 0.269886 2.1471 0
M  V30 1969 C 187.723 3.30429 0.748466 0
M  V30 1970 C 186.282 3.5612 1.21882 0
M  V30 1971 C 185.429 2.76374 0.226452 0
M  V30 1972 H 188.38 1.5497 -0.342063 0
M  V30 1973 H 188.401 3.44943 1.60607 0
M  V30 1974 H 187.913 3.87737 -0.167784 0
M  V30 1975 H 186.014 3.04168 2.15204 0
M  V30 1976 H 186.127 4.64705 1.16559 0
M  V30 1977 H 184.491 2.44515 0.713063 0
M  V30 1978 H 185.274 3.3644 -0.682859 0
M  V30 1979 N 187.719 -0.156864 1.56817 0
M  V30 1980 C 188.996 -0.899244 1.73704 0
M  V30 1981 C 189.376 -1.99771 0.682254 0
M  V30 1982 O 188.724 -2.26515 -0.300522 0
M  V30 1983 C 188.934 -1.45075 3.17418 0
M  V30 1984 C 190.282 -1.91802 3.7881 0
M  V30 1985 O 191.306 -1.54838 3.20786 0
M  V30 1986 O 190.165 -2.5994 4.80722 0
M  V30 1987 H 187.259 -0.424267 0.709878 0
M  V30 1988 H 189.805 -0.143561 1.69092 0
M  V30 1989 H 188.577 -0.660846 3.85679 0
M  V30 1990 H 188.2 -2.27021 3.26416 0
M  V30 1991 N 189.197 -1.51736 -0.425897 0
M  V30 1992 C 190.608 -1.5732 -1.00536 0
M  V30 1993 C 190.959 -0.403537 -1.92005 0
M  V30 1994 O 190.084 0.478256 -2.11049 0
M  V30 1995 C 190.679 -2.85119 -1.8301 0
M  V30 1996 C 189.238 -2.93236 -2.35987 0
M  V30 1997 C 188.385 -2.52098 -1.15508 0
M  V30 1998 H 191.336 -1.57348 -0.206739 0
M  V30 1999 H 191.357 -2.69526 -2.68581 0
M  V30 2000 H 190.869 -3.7023 -1.16411 0
M  V30 2001 H 188.97 -2.12581 -3.06007 0
M  V30 2002 H 189.083 -3.9713 -2.68001 0
M  V30 2003 H 187.447 -2.05558 -1.50393 0
M  V30 2004 H 188.23 -3.39565 -0.505014 0
M  V30 2005 N 190.675 0.682077 -1.42076 0
M  V30 2006 C 192.086 1.26246 -1.37546 0
M  V30 2007 C 192.437 1.96092 -0.0651481 0
M  V30 2008 O 191.562 1.99587 0.836297 0
M  V30 2009 C 192.157 2.29594 -2.49143 0
M  V30 2010 C 190.716 2.83175 -2.47969 0
M  V30 2011 C 189.863 1.57395 -2.28303 0
M  V30 2012 H 192.814 0.475937 -1.51395 0
M  V30 2013 H 192.835 3.11175 -2.18976 0
M  V30 2014 H 192.347 1.78729 -3.44496 0
M  V30 2015 H 190.448 3.3818 -1.56413 0
M  V30 2016 H 190.561 3.32687 -3.44755 0
M  V30 2017 H 188.925 1.83699 -1.76428 0
M  V30 2018 H 189.708 1.08507 -3.25701 0
M  V30 2019 N 192.153 1.28127 0.917671 0
M  V30 2020 C 193.083 1.14248 2.03641 0
M  V30 2021 C 194.064 0.0412748 1.7005 0
M  V30 2022 O 195.249 0.217566 1.92977 0
M  V30 2023 C 192.379 0.799431 3.37974 0
M  V30 2024 C 191.333 1.85497 3.85713 0
M  V30 2025 C 190.659 1.36565 5.16966 0
M  V30 2026 C 191.959 3.26085 4.08002 0
M  V30 2027 H 193.653 2.07835 2.15511 0
M  V30 2028 H 191.199 1.00064 1.03553 0
M  V30 2029 H 193.152 0.689114 4.15727 0
M  V30 2030 H 191.876 -0.172145 3.26146 0
M  V30 2031 H 190.535 1.95437 3.10161 0
M  V30 2032 H 190.183 0.383253 5.01538 0
M  V30 2033 H 189.883 2.07143 5.49878 0
M  V30 2034 H 191.407 1.26848 5.97279 0
M  V30 2035 H 192.821 3.19089 4.76293 0
M  V30 2036 H 191.218 3.94462 4.52238 0
M  V30 2037 H 192.288 3.70394 3.12948 0
M  V30 2038 N 193.631 -1.12557 1.10312 0
M  V30 2039 C 194.541 -2.21841 0.763142 0
M  V30 2040 C 195.557 -1.72354 -0.238801 0
M  V30 2041 O 196.733 -2.01249 -0.0778746 0
M  V30 2042 C 193.798 -3.46131 0.198632 0
M  V30 2043 C 192.859 -4.10464 1.25769 0
M  V30 2044 C 192.092 -5.28821 0.72002 0
M  V30 2045 O 192.315 -5.6859 -0.453993 0
M  V30 2046 O 191.249 -5.83437 1.47935 0
M  V30 2047 H 195.075 -2.53312 1.67532 0
M  V30 2048 H 192.66 -1.20867 0.878157 0
M  V30 2049 H 194.542 -4.2125 -0.112401 0
M  V30 2050 H 193.217 -3.16338 -0.686419 0
M  V30 2051 H 192.124 -3.3713 1.62156 0
M  V30 2052 H 193.457 -4.44408 2.11571 0
M  V30 2053 N 195.109 -0.891671 -1.2995 0
M  V30 2054 C 196.039 -0.379797 -2.30391 0
M  V30 2055 C 197.02 0.540919 -1.6127 0
M  V30 2056 O 198.205 0.453352 -1.88834 0
M  V30 2057 C 195.335 0.400654 -3.44981 0
M  V30 2058 C 194.289 -0.428905 -4.25846 0
M  V30 2059 C 193.615 0.478557 -5.32554 0
M  V30 2060 C 194.915 -1.67458 -4.94727 0
M  V30 2061 H 196.609 -1.21914 -2.73454 0
M  V30 2062 H 194.155 -0.587675 -1.31462 0
M  V30 2063 H 196.108 0.769434 -4.14316 0
M  V30 2064 H 194.832 1.27371 -3.0074 0
M  V30 2065 H 193.491 -0.779911 -3.58208 0
M  V30 2066 H 193.139 1.34951 -4.84559 0
M  V30 2067 H 192.839 -0.0727433 -5.87555 0
M  V30 2068 H 194.363 0.843705 -6.04743 0
M  V30 2069 H 195.777 -1.376 -5.56542 0
M  V30 2070 H 194.174 -2.16659 -5.59624 0
M  V30 2071 H 195.244 -2.41518 -4.20473 0
M  V30 2072 N 196.587 1.43421 -0.653314 0
M  V30 2073 C 197.55 2.29182 0.0287951 0
M  V30 2074 C 198.55 1.42213 0.750465 0
M  V30 2075 O 199.74 1.63843 0.591701 0
M  V30 2076 C 196.872 3.24278 1.05151 0
M  V30 2077 H 198.065 2.90985 -0.725786 0
M  V30 2078 H 195.618 1.50702 -0.414545 0
M  V30 2079 H 196.353 2.6737 1.83532 0
M  V30 2080 H 196.138 3.88396 0.537687 0
M  V30 2081 H 197.628 3.88647 1.52786 0
M  V30 2082 N 198.065 0.39524 1.52563 0
M  V30 2083 C 199.311 -0.185318 2.01952 0
M  V30 2084 C 199.644 -1.45964 1.28095 0
M  V30 2085 O 198.919 -1.90689 0.38315 0
M  V30 2086 C 199.202 -0.447193 3.57312 0
M  V30 2087 C 199.055 0.842828 4.41833 0
M  V30 2088 C 200.374 -1.23529 4.22408 0
M  V30 2089 H 197.493 -0.0658788 0.73405 0
M  V30 2090 H 200.135 0.525975 1.82575 0
M  V30 2091 H 198.285 -1.05312 3.73954 0
M  V30 2092 H 199.957 1.4795 4.36931 0
M  V30 2093 H 198.2 1.45686 4.08605 0
M  V30 2094 H 198.871 0.614165 5.48573 0
M  V30 2095 H 201.347 -0.722445 4.0978 0
M  V30 2096 H 200.223 -1.38727 5.3108 0
M  V30 2097 H 200.484 -2.25213 3.80436 0
M  V30 2098 N 199.544 -1.57102 0.125237 0
M  V30 2099 C 200.454 -2.19191 -0.8362 0
M  V30 2100 C 201.47 -1.16985 -1.28805 0
M  V30 2101 O 202.646 -1.49479 -1.34974 0
M  V30 2102 C 199.711 -2.78407 -2.06617 0
M  V30 2103 C 198.772 -3.9567 -1.66565 0
M  V30 2104 C 198.005 -4.52052 -2.83698 0
M  V30 2105 O 198.228 -4.07326 -3.99302 0
M  V30 2106 O 197.162 -5.42645 -2.60423 0
M  V30 2107 H 200.988 -3.01816 -0.337776 0
M  V30 2108 H 198.573 -1.4906 -0.100695 0
M  V30 2109 H 200.455 -3.16129 -2.7864 0
M  V30 2110 H 199.13 -1.9881 -2.55453 0
M  V30 2111 H 198.037 -3.62705 -0.916296 0
M  V30 2112 H 199.37 -4.76722 -1.22464 0
M  V30 2113 N 201.022 0.148545 -1.56898 0
M  V30 2114 C 202.268 0.862694 -1.83536 0
M  V30 2115 C 202.601 1.80889 -0.706604 0
M  V30 2116 O 201.876 1.92328 0.289885 0
M  V30 2117 C 202.159 1.63853 -3.20662 0
M  V30 2118 C 202.012 0.713925 -4.44098 0
M  V30 2119 C 203.331 2.60133 -3.54991 0
M  V30 2120 H 200.45 0.312179 -0.667618 0
M  V30 2121 H 203.092 0.127953 -1.89569 0
M  V30 2122 H 201.242 2.26489 -3.1565 0
M  V30 2123 H 202.914 0.098686 -4.61194 0
M  V30 2124 H 201.157 0.0234019 -4.33794 0
M  V30 2125 H 201.828 1.29278 -5.36648 0
M  V30 2126 H 204.304 2.07616 -3.60603 0
M  V30 2127 H 203.18 3.11468 -4.51972 0
M  V30 2128 H 203.441 3.41417 -2.80868 0
M  V30 2129 N 202.5 1.5196 0.417844 0
M  V30 2130 C 203.447 1.74678 1.50852 0
M  V30 2131 C 204.417 0.588947 1.55308 0
M  V30 2132 O 205.602 0.825544 1.72016 0
M  V30 2133 C 202.742 1.89544 2.88387 0
M  V30 2134 C 201.855 3.17166 2.93309 0
M  V30 2135 C 200.99 3.22513 4.22088 0
M  V30 2136 C 200.029 4.44372 4.20951 0
M  V30 2137 N 199.166 4.47161 5.41287 0
M  V30 2138 H 204.006 2.67768 1.30783 0
M  V30 2139 H 201.543 1.32689 0.63498 0
M  V30 2140 H 203.501 1.96146 3.68216 0
M  V30 2141 H 202.131 0.998424 3.06971 0
M  V30 2142 H 201.183 3.19778 2.06024 0
M  V30 2143 H 202.495 4.07021 2.88332 0
M  V30 2144 H 201.649 3.28139 5.10303 0
M  V30 2145 H 200.388 2.30581 4.29748 0
M  V30 2146 H 199.393 4.38902 3.31127 0
M  V30 2147 H 200.618 5.3759 4.14938 0
M  V30 2148 H 198.564 3.58108 5.49632 0
M  V30 2149 H 198.481 5.3085 5.3827 0
M  V30 2150 H 199.749 4.57005 6.3148 0
M  V30 2151 N 203.978 -0.674533 1.42435 0
M  V30 2152 C 204.91 -1.80005 1.41883 0
M  V30 2153 C 205.923 -1.59667 0.31787 0
M  V30 2154 O 207.112 -1.68781 0.580973 0
M  V30 2155 C 204.212 -3.17114 1.19549 0
M  V30 2156 C 203.385 -3.64299 2.42084 0
M  V30 2157 C 202.444 -4.80142 2.15291 0
M  V30 2158 O 201.47 -4.90673 2.88493 0
M  V30 2159 N 202.672 -5.68869 1.1562 0
M  V30 2160 H 205.437 -1.80964 2.38898 0
M  V30 2161 H 202.998 -0.857633 1.37318 0
M  V30 2162 H 204.99 -3.92267 0.995417 0
M  V30 2163 H 203.56 -3.11053 0.310569 0
M  V30 2164 H 202.78 -2.79822 2.77657 0
M  V30 2165 H 204.068 -3.92567 3.23679 0
M  V30 2166 H 203.466 -5.63012 0.550765 0
M  V30 2167 H 202.023 -6.43833 1.016 0
M  V30 2168 N 205.456 -1.28612 -0.910864 0
M  V30 2169 C 206.867 -1.14406 -1.47541 0
M  V30 2170 C 207.218 0.264901 -1.94403 0
M  V30 2171 O 206.343 1.15942 -1.82719 0
M  V30 2172 C 206.938 -2.07073 -2.68153 0
M  V30 2173 C 205.497 -1.96923 -3.20778 0
M  V30 2174 C 204.644 -1.98646 -1.93481 0
M  V30 2175 H 207.595 -1.41259 -0.723291 0
M  V30 2176 H 207.616 -1.63642 -3.43514 0
M  V30 2177 H 207.128 -3.09611 -2.34015 0
M  V30 2178 H 205.229 -0.97433 -3.59635 0
M  V30 2179 H 205.342 -2.84026 -3.85832 0
M  V30 2180 H 203.706 -1.43093 -2.10705 0
M  V30 2181 H 204.489 -3.02868 -1.61634 0
M  V30 2182 N 206.934 1.1197 -1.10907 0
M  V30 2183 C 207.844 2.21433 -0.774896 0
M  V30 2184 C 208.86 1.72478 0.229657 0
M  V30 2185 O 210.036 2.01288 0.0672008 0
M  V30 2186 C 207.101 3.4602 -0.216986 0
M  V30 2187 C 206.162 4.09791 -1.27944 0
M  V30 2188 C 205.395 5.28431 -0.748055 0
M  V30 2189 O 205.618 5.68823 0.423833 0
M  V30 2190 O 204.552 5.82644 -1.51027 0
M  V30 2191 H 208.378 2.5242 -1.68873 0
M  V30 2192 H 205.963 1.20399 -0.884555 0
M  V30 2193 H 207.845 4.21304 0.090059 0
M  V30 2194 H 206.52 3.16698 0.669633 0
M  V30 2195 H 205.427 3.36265 -1.63941 0
M  V30 2196 H 206.76 4.4328 -2.13925 0
M  V30 2197 N 208.412 0.89855 1.29475 0
M  V30 2198 C 209.689 0.443416 1.90508 0
M  V30 2199 C 210.069 -1.07685 1.81569 0
M  V30 2200 O 209.417 -1.9182 1.24166 0
M  V30 2201 C 209.627 0.956708 3.35631 0
M  V30 2202 C 210.975 0.999728 4.12663 0
M  V30 2203 O 211.999 0.904299 3.4453 0
M  V30 2204 O 210.858 1.14289 5.34416 0
M  V30 2205 H 207.952 0.138025 0.815401 0
M  V30 2206 H 210.498 0.98834 1.37949 0
M  V30 2207 H 209.27 2.00067 3.36287 0
M  V30 2208 H 208.893 0.391728 3.95666 0
M  V30 2209 N 209.89 -1.43072 0.660911 0
M  V30 2210 C 211.306 -1.56169 0.329173 0
M  V30 2211 C 211.506 -1.64317 -1.16629 0
M  V30 2212 O 210.562 -1.60245 -1.95135 0
M  V30 2213 C 211.875 -2.81873 1.04729 0
M  V30 2214 C 213.423 -2.95627 1.02828 0
M  V30 2215 C 213.898 -4.24174 1.72744 0
M  V30 2216 N 215.389 -4.31055 1.69545 0
M  V30 2217 C 216.124 -5.29304 2.20511 0
M  V30 2218 N 215.62 -6.33786 2.79799 0
M  V30 2219 N 217.413 -5.21008 2.10966 0
M  V30 2220 H 209.564 -1.36027 1.63127 0
M  V30 2221 H 211.827 -0.653823 0.686454 0
M  V30 2222 H 211.533 -2.81942 2.10242 0
M  V30 2223 H 211.407 -3.72338 0.603702 0
M  V30 2224 H 213.794 -2.95094 -0.0184742 0
M  V30 2225 H 213.875 -2.06431 1.51063 0
M  V30 2226 H 213.519 -4.25467 2.7738 0
M  V30 2227 H 213.449 -5.1228 1.2197 0
M  V30 2228 H 215.94 -3.56174 1.26288 0
M  V30 2229 H 216.253 -7.05086 3.16344 0
M  V30 2230 H 214.598 -6.34387 2.83863 0
M  V30 2231 H 217.789 -4.38301 1.64347 0
M  V30 2232 H 217.962 -5.97416 2.50993 0
M  V30 2233 N 211.368 -0.403325 -1.52352 0
M  V30 2234 C 212.315 0.425011 -2.26853 0
M  V30 2235 C 213.285 1.04598 -1.29029 0
M  V30 2236 O 214.47 1.07135 -1.57882 0
M  V30 2237 C 211.61 1.53888 -3.08889 0
M  V30 2238 C 210.723 0.939396 -4.21663 0
M  V30 2239 C 209.858 2.02547 -4.91068 0
M  V30 2240 C 208.897 1.40263 -5.95813 0
M  V30 2241 N 208.034 2.4286 -6.58759 0
M  V30 2242 H 212.874 -0.21674 -2.97211 0
M  V30 2243 H 210.411 -0.118722 -1.4662 0
M  V30 2244 H 212.369 2.19558 -3.54753 0
M  V30 2245 H 210.999 2.15074 -2.40714 0
M  V30 2246 H 210.051 0.171898 -3.80011 0
M  V30 2247 H 211.363 0.44436 -4.96817 0
M  V30 2248 H 210.517 2.75958 -5.40308 0
M  V30 2249 H 209.256 2.55415 -4.15469 0
M  V30 2250 H 208.261 0.653833 -5.45898 0
M  V30 2251 H 209.486 0.881719 -6.73352 0
M  V30 2252 H 207.432 2.94871 -5.85992 0
M  V30 2253 H 207.349 1.98152 -7.2957 0
M  V30 2254 H 208.617 3.15858 -7.12639 0
M  V30 2255 N 212.846 1.57033 -0.133567 0
M  V30 2256 C 214.257 1.82593 0.389464 0
M  V30 2257 C 214.608 1.05156 1.6564 0
M  V30 2258 O 213.733 0.292644 2.14412 0
M  V30 2259 C 214.328 3.31204 0.713377 0
M  V30 2260 C 212.887 3.57393 1.18098 0
M  V30 2261 C 212.034 2.76598 0.197126 0
M  V30 2262 H 214.985 1.54598 -0.358481 0
M  V30 2263 H 215.006 3.46627 1.56939 0
M  V30 2264 H 214.518 3.87537 -0.2089 0
M  V30 2265 H 212.619 3.06433 2.11966 0
M  V30 2266 H 212.732 4.65915 1.11624 0
M  V30 2267 H 211.096 2.45257 0.687088 0
M  V30 2268 H 211.879 3.35697 -0.718504 0
M  V30 2269 N 214.325 -0.140222 1.56975 0
M  V30 2270 C 215.555 -0.865181 1.87612 0
M  V30 2271 C 215.963 -1.74942 0.72055 0
M  V30 2272 O 215.306 -1.80917 -0.318561 0
M  V30 2273 C 215.368 -1.76782 3.13031 0
M  V30 2274 C 215.032 -1.06005 4.44536 0
M  V30 2275 C 216.029 -0.410768 5.18275 0
M  V30 2276 C 213.714 -1.04754 4.91255 0
M  V30 2277 C 215.708 0.241572 6.36942 0
M  V30 2278 C 213.395 -0.391394 6.09845 0
M  V30 2279 C 214.393 0.252029 6.82535 0
M  V30 2280 O 214.081 0.897757 7.98871 0
M  V30 2281 H 213.813 -0.255188 0.625983 0
M  V30 2282 H 216.367 -0.135653 2.04952 0
M  V30 2283 H 214.597 -2.53846 2.91718 0
M  V30 2284 H 216.286 -2.36533 3.29859 0
M  V30 2285 H 217.052 -0.412195 4.83245 0
M  V30 2286 H 212.931 -1.53777 4.34596 0
M  V30 2287 H 216.475 0.744375 6.93617 0
M  V30 2288 H 212.372 -0.387656 6.44335 0
M  V30 2289 H 213.14 0.800102 8.1458 0
M  V30 2290 N 215.803 -1.52179 -0.40978 0
M  V30 2291 C 216.733 -1.78435 -1.5061 0
M  V30 2292 C 217.714 -0.635295 -1.57791 0
M  V30 2293 O 218.899 -0.880823 -1.73076 0
M  V30 2294 C 216.029 -1.93444 -2.88439 0
M  V30 2295 C 214.983 -3.09038 -2.96108 0
M  V30 2296 C 214.309 -3.09268 -4.36185 0
M  V30 2297 C 215.609 -4.48508 -2.67652 0
M  V30 2298 H 217.303 -2.70237 -1.28889 0
M  V30 2299 H 214.849 -1.30036 -0.618605 0
M  V30 2300 H 216.802 -2.10394 -3.65119 0
M  V30 2301 H 215.526 -0.983129 -3.11452 0
M  V30 2302 H 214.185 -2.91837 -2.21872 0
M  V30 2303 H 213.833 -2.11861 -4.56206 0
M  V30 2304 H 213.533 -3.86907 -4.42241 0
M  V30 2305 H 215.057 -3.28348 -5.14801 0
M  V30 2306 H 216.471 -4.65918 -3.34056 0
M  V30 2307 H 214.868 -5.28059 -2.85085 0
M  V30 2308 H 215.938 -4.56649 -1.63095 0
M  V30 2309 N 217.281 0.66697 -1.42791 0
M  V30 2310 C 218.527 1.42754 -1.44889 0
M  V30 2311 C 218.882 1.92283 -0.0669755 0
M  V30 2312 O 218.175 1.68494 0.912154 0
M  V30 2313 C 218.369 2.6349 -2.4147 0
M  V30 2314 C 218.198 2.25776 -3.88915 0
M  V30 2315 C 216.968 2.1476 -4.57391 0
M  V30 2316 C 219.166 1.86927 -4.79127 0
M  V30 2317 N 217.148 1.70232 -5.89826 0
M  V30 2318 C 218.519 1.53378 -6.00729 0
M  V30 2319 C 220.574 1.73989 -4.66511 0
M  V30 2320 C 219.277 1.08187 -7.11117 0
M  V30 2321 C 221.303 1.30203 -5.76889 0
M  V30 2322 C 220.665 0.975818 -6.97608 0
M  V30 2323 H 216.764 0.518559 -0.585338 0
M  V30 2324 H 219.348 0.768906 -1.78874 0
M  V30 2325 H 217.519 3.27033 -2.09533 0
M  V30 2326 H 219.251 3.30123 -2.34096 0
M  V30 2327 H 216.006 2.3408 -4.11708 0
M  V30 2328 H 216.43 1.50369 -6.6009 0
M  V30 2329 H 221.072 1.97853 -3.7365 0
M  V30 2330 H 218.79 0.830701 -8.03819 0
M  V30 2331 H 222.376 1.20701 -5.69142 0
M  V30 2332 H 221.256 0.642157 -7.81566 0
M  V30 2333 N 218.759 1.29093 0.90403 0
M  V30 2334 C 220.008 1.16187 1.64874 0
M  V30 2335 C 220.321 -0.286742 1.93487 0
M  V30 2336 O 221.527 -0.537062 2.66135 0
M  V30 2337 C 219.983 2.03177 2.97064 0
M  V30 2338 C 219.591 3.52836 2.76062 0
M  V30 2339 C 221.335 1.98984 3.74974 0
M  V30 2340 C 219.242 4.31945 4.03952 0
M  V30 2341 H 218.172 0.431246 0.618501 0
M  V30 2342 H 220.823 1.53699 1.00243 0
M  V30 2343 H 219.205 1.5853 3.62883 0
M  V30 2344 H 220.379 4.05507 2.18863 0
M  V30 2345 H 218.694 3.58656 2.11553 0
M  V30 2346 H 221.291 2.55351 4.69787 0
M  V30 2347 H 221.634 0.968815 4.0487 0
M  V30 2348 H 222.167 2.41652 3.15989 0
M  V30 2349 H 218.906 5.34667 3.79225 0
M  V30 2350 H 218.426 3.84045 4.60727 0
M  V30 2351 H 220.105 4.42379 4.72133 0
M  V30 2352 N 220.237 -1.11381 1.11499 0
M  V30 2353 C 221.184 -2.17439 0.773887 0
M  V30 2354 C 222.154 -1.64132 -0.254899 0
M  V30 2355 O 223.339 -1.90345 -0.13168 0
M  V30 2356 C 220.479 -3.44373 0.223917 0
M  V30 2357 C 219.592 -4.1168 1.30934 0
M  V30 2358 C 218.727 -5.263 0.71984 0
M  V30 2359 C 217.766 -5.85493 1.78507 0
M  V30 2360 N 216.903 -6.91507 1.21502 0
M  V30 2361 H 221.743 -2.45962 1.68246 0
M  V30 2362 H 219.28 -1.20744 0.840191 0
M  V30 2363 H 221.238 -4.17047 -0.112921 0
M  V30 2364 H 219.868 -3.16232 -0.647851 0
M  V30 2365 H 218.92 -3.37073 1.76312 0
M  V30 2366 H 220.232 -4.51729 2.11524 0
M  V30 2367 H 219.386 -6.05785 0.333094 0
M  V30 2368 H 218.125 -4.87559 -0.117377 0
M  V30 2369 H 217.13 -5.04686 2.18111 0
M  V30 2370 H 218.355 -6.26301 2.62533 0
M  V30 2371 H 216.301 -6.54783 0.399455 0
M  V30 2372 H 216.218 -7.30214 1.95763 0
M  V30 2373 H 217.486 -7.74795 0.855181 0
M  V30 2374 N 221.715 -0.905404 -1.28997 0
M  V30 2375 C 222.961 -0.544465 -1.95977 0
M  V30 2376 C 223.316 0.90041 -1.70031 0
M  V30 2377 O 222.609 1.63064 -1.00601 0
M  V30 2378 C 222.803 -0.779906 -3.48787 0
M  V30 2379 C 222.632 -2.24612 -3.89589 0
M  V30 2380 C 221.402 -2.89464 -4.14172 0
M  V30 2381 C 223.6 -3.22182 -4.00878 0
M  V30 2382 N 221.582 -4.26469 -4.41585 0
M  V30 2383 C 222.953 -4.44323 -4.32409 0
M  V30 2384 C 225.008 -3.17694 -3.83373 0
M  V30 2385 C 223.711 -5.62546 -4.48258 0
M  V30 2386 C 225.737 -4.35208 -4.00435 0
M  V30 2387 C 225.099 -5.56121 -4.3233 0
M  V30 2388 H 221.198 -0.248948 -0.741316 0
M  V30 2389 H 223.782 -1.1674 -1.5582 0
M  V30 2390 H 221.953 -0.186308 -3.87953 0
M  V30 2391 H 223.685 -0.383833 -4.02876 0
M  V30 2392 H 220.44 -2.40232 -4.08149 0
M  V30 2393 H 220.864 -4.97283 -4.5939 0
M  V30 2394 H 225.506 -2.25297 -3.57773 0
M  V30 2395 H 223.224 -6.55429 -4.72692 0
M  V30 2396 H 226.81 -4.33228 -3.88336 0
M  V30 2397 H 225.69 -6.45537 -4.45255 0
M  V30 2398 N 223.193 1.4272 -0.668489 0
M  V30 2399 C 224.418 2.06484 -0.194758 0
M  V30 2400 C 224.843 1.49862 1.13679 0
M  V30 2401 O 224.201 0.614582 1.70565 0
M  V30 2402 C 224.249 3.60353 -0.133546 0
M  V30 2403 O 223.353 4.02464 0.899806 0
M  V30 2404 H 222.694 0.656137 -0.10188 0
M  V30 2405 H 225.224 1.82964 -0.915722 0
M  V30 2406 H 225.234 4.07976 0.0447041 0
M  V30 2407 H 223.909 4.00938 -1.1055 0
M  V30 2408 H 222.486 3.66402 0.693109 0
M  V30 2409 N 224.671 0.411399 1.52136 0
M  V30 2410 C 226.082 -0.0576826 1.86611 0
M  V30 2411 C 226.433 -1.44238 1.33003 0
M  V30 2412 O 225.558 -2.05759 0.670228 0
M  V30 2413 C 226.153 -0.111448 3.38617 0
M  V30 2414 C 224.712 -0.52487 3.72723 0
M  V30 2415 C 223.859 0.299176 2.75681 0
M  V30 2416 H 226.81 0.628368 1.4573 0
M  V30 2417 H 226.831 -0.926252 3.69054 0
M  V30 2418 H 226.343 0.896488 3.77604 0
M  V30 2419 H 224.444 -1.53936 3.39315 0
M  V30 2420 H 224.557 -0.267681 4.78352 0
M  V30 2421 H 222.921 -0.238814 2.53578 0
M  V30 2422 H 223.704 1.3055 3.17508 0
M  V30 2423 N 226.149 -1.5696 0.141893 0
M  V30 2424 C 227.56 -1.82797 -0.379776 0
M  V30 2425 C 227.911 -1.06033 -1.6508 0
M  V30 2426 O 227.036 -0.304011 -2.14254 0
M  V30 2427 C 227.631 -3.31578 -0.695802 0
M  V30 2428 C 226.19 -3.58014 -1.16201 0
M  V30 2429 C 225.337 -2.76699 -0.182455 0
M  V30 2430 H 228.288 -1.54406 0.366675 0
M  V30 2431 H 228.309 -3.47454 -1.55099 0
M  V30 2432 H 227.821 -3.87421 0.229449 0
M  V30 2433 H 225.922 -3.07553 -2.10338 0
M  V30 2434 H 226.035 -4.66501 -1.09151 0
M  V30 2435 H 224.399 -2.45618 -0.674072 0
M  V30 2436 H 225.182 -3.35311 0.736297 0
M  V30 2437 N 227.627 0.131896 -1.57047 0
M  V30 2438 C 228.855 0.856461 -1.88341 0
M  V30 2439 C 229.27 1.74042 -0.731757 0
M  V30 2440 O 228.627 1.80051 0.297945 0
M  V30 2441 C 228.678 1.70064 -3.18999 0
M  V30 2442 O 228.399 0.852278 -4.2973 0
M  V30 2443 C 229.9 2.53148 -3.63911 0
M  V30 2444 H 227.12 0.246885 -0.62393 0
M  V30 2445 H 229.664 0.120152 -2.04147 0
M  V30 2446 H 227.819 2.38984 -3.04902 0
M  V30 2447 H 228.233 1.43329 -5.04537 0
M  V30 2448 H 229.707 3.07931 -4.58129 0
M  V30 2449 H 230.184 3.29901 -2.89935 0
M  V30 2450 H 230.79 1.89492 -3.80753 0
M  V30 2451 N 229.106 1.52395 0.401703 0
M  V30 2452 C 230.036 1.79231 1.49661 0
M  V30 2453 C 231.017 0.643654 1.57452 0
M  V30 2454 O 232.202 0.889989 1.72606 0
M  V30 2455 C 229.332 1.94971 2.87409 0
M  V30 2456 C 228.286 3.10604 2.94465 0
M  V30 2457 C 227.612 3.11577 4.34538 0
M  V30 2458 C 228.912 4.49921 2.6527 0
M  V30 2459 H 230.606 2.70917 1.27454 0
M  V30 2460 H 228.152 1.30362 0.6117 0
M  V30 2461 H 230.105 2.12328 3.63999 0
M  V30 2462 H 228.829 0.999632 3.10926 0
M  V30 2463 H 227.488 2.93009 2.20321 0
M  V30 2464 H 227.136 2.14277 4.55076 0
M  V30 2465 H 226.836 3.89247 4.40183 0
M  V30 2466 H 228.36 3.31073 5.13053 0
M  V30 2467 H 229.774 4.67683 3.31581 0
M  V30 2468 H 228.171 5.29564 2.82281 0
M  V30 2469 H 229.241 4.57507 1.60671 0
M  V30 2470 N 230.584 -0.659388 1.43143 0
M  V30 2471 C 231.833 -1.41518 1.43721 0
M  V30 2472 C 232.146 -1.95499 0.0628176 0
M  V30 2473 O 233.352 -2.71446 -0.0539683 0
M  V30 2474 C 231.808 -2.5608 2.52885 0
M  V30 2475 C 231.416 -2.08733 3.96402 0
M  V30 2476 C 233.16 -3.3349 2.62649 0
M  V30 2477 C 231.067 -3.20469 4.97045 0
M  V30 2478 H 229.997 -0.531705 0.534608 0
M  V30 2479 H 232.648 -0.712343 1.69109 0
M  V30 2480 H 231.03 -3.28805 2.20688 0
M  V30 2481 H 232.204 -1.43059 4.3803 0
M  V30 2482 H 230.519 -1.44219 3.90627 0
M  V30 2483 H 233.116 -4.16734 3.35017 0
M  V30 2484 H 233.459 -3.8111 1.67513 0
M  V30 2485 H 233.992 -2.67842 2.94118 0
M  V30 2486 H 230.731 -2.77824 5.93712 0
M  V30 2487 H 230.251 -3.84874 4.60034 0
M  V30 2488 H 231.93 -3.85698 5.19467 0
M  V30 2489 N 232.062 -1.29571 -0.897171 0
M  V30 2490 C 233.339 -1.08365 -1.62839 0
M  V30 2491 C 233.719 0.371331 -2.07808 0
M  V30 2492 O 233.067 1.3606 -1.83576 0
M  V30 2493 C 233.277 -2.0735 -2.80726 0
M  V30 2494 C 234.625 -2.38406 -3.51351 0
M  V30 2495 O 235.649 -2.05564 -2.90898 0
M  V30 2496 O 234.508 -2.9453 -4.60341 0
M  V30 2497 H 231.602 -0.415345 -0.715134 0
M  V30 2498 H 234.148 -1.40952 -0.945018 0
M  V30 2499 H 232.92 -3.05339 -2.44711 0
M  V30 2500 H 232.543 -1.75507 -3.56767 0
M  V30 2501 N 233.54 1.10788 -1.12088 0
M  V30 2502 C 234.47 2.19083 -0.807755 0
M  V30 2503 C 235.451 1.6858 0.226859 0
M  V30 2504 O 236.636 1.93997 0.0888475 0
M  V30 2505 C 233.766 3.46344 -0.257576 0
M  V30 2506 C 232.72 4.101 -1.22483 0
M  V30 2507 C 232.046 5.32016 -0.535052 0
M  V30 2508 C 233.346 4.54236 -2.57811 0
M  V30 2509 H 235.04 2.45534 -1.71328 0
M  V30 2510 H 232.586 1.1801 -0.825205 0
M  V30 2511 H 234.539 4.21392 -0.0262679 0
M  V30 2512 H 233.263 3.19373 0.683278 0
M  V30 2513 H 231.922 3.37054 -1.44189 0
M  V30 2514 H 231.57 5.01319 0.410827 0
M  V30 2515 H 231.27 5.75625 -1.18024 0
M  V30 2516 H 232.794 6.09799 -0.312695 0
M  V30 2517 H 234.208 5.20575 -2.40155 0
M  V30 2518 H 232.605 5.08682 -3.18375 0
M  V30 2519 H 233.675 3.6734 -3.16528 0
M  V30 2520 N 235.018 0.912232 1.28515 0
M  V30 2521 C 235.965 0.397954 2.27343 0
M  V30 2522 C 236.935 -0.526766 1.57526 0
M  V30 2523 O 238.12 -0.449292 1.85435 0
M  V30 2524 C 235.26 -0.357263 3.43246 0
M  V30 2525 C 234.373 0.599788 4.27816 0
M  V30 2526 C 233.508 -0.173725 5.30916 0
M  V30 2527 C 232.547 0.777039 6.07148 0
M  V30 2528 N 231.684 0.0371398 7.0209 0
M  V30 2529 H 236.524 1.24577 2.70711 0
M  V30 2530 H 234.061 0.625612 1.33133 0
M  V30 2531 H 236.019 -0.8113 4.09236 0
M  V30 2532 H 234.649 -1.16943 3.00872 0
M  V30 2533 H 233.701 1.17235 3.61884 0
M  V30 2534 H 235.013 1.32704 4.80823 0
M  V30 2535 H 234.167 -0.688394 6.02782 0
M  V30 2536 H 232.906 -0.934041 4.78672 0
M  V30 2537 H 231.911 1.3031 5.34134 0
M  V30 2538 H 233.136 1.53689 6.61481 0
M  V30 2539 H 231.082 -0.705213 6.52198 0
M  V30 2540 H 230.999 0.704249 7.52713 0
M  V30 2541 H 232.267 -0.457383 7.78157 0
M  V30 2542 N 236.496 -1.42363 0.676048 0
M  V30 2543 C 237.724 -2.05859 0.207268 0
M  V30 2544 C 238.139 -1.50796 -1.13605 0
M  V30 2545 O 237.496 -0.648265 -1.70598 0
M  V30 2546 C 237.547 -3.61248 0.134975 0
M  V30 2547 O 237.268 -4.1427 1.42521 0
M  V30 2548 C 238.769 -4.41859 -0.357151 0
M  V30 2549 H 235.989 -0.663431 0.100503 0
M  V30 2550 H 238.533 -1.82479 0.923136 0
M  V30 2551 H 236.688 -3.83735 -0.531588 0
M  V30 2552 H 237.102 -5.0815 1.29939 0
M  V30 2553 H 238.576 -5.50847 -0.356641 0
M  V30 2554 H 239.053 -4.16536 -1.39264 0
M  V30 2555 H 239.659 -4.24392 0.27772 0
M  V30 2556 N 237.974 -0.419461 -1.51915 0
M  V30 2557 C 239.222 0.152637 -2.01523 0
M  V30 2558 C 239.543 1.44762 -1.30649 0
M  V30 2559 O 238.813 1.90997 -0.435535 0
M  V30 2560 H 237.393 0.0593966 -0.744635 0
M  V30 2561 H 240.055 -0.558073 -1.86739 0
M  V30 2562 H 239.151 0.341369 -3.10227 0
M  V30 2563 N 239.452 1.56882 -0.150215 0
M  V30 2564 C 240.698 1.97299 0.494427 0
M  V30 2565 C 241.053 1.0338 1.62266 0
M  V30 2566 O 240.346 0.0694497 1.91474 0
M  V30 2567 C 240.54 3.41801 1.04437 0
M  V30 2568 C 240.369 4.49691 -0.0290451 0
M  V30 2569 C 239.139 5.03095 -0.47156 0
M  V30 2570 C 241.337 5.07693 -0.821703 0
M  V30 2571 N 239.319 5.94593 -1.52749 0
M  V30 2572 C 240.69 5.95431 -1.72805 0
M  V30 2573 C 242.745 4.90256 -0.869134 0
M  V30 2574 C 241.448 6.67599 -2.67777 0
M  V30 2575 C 243.474 5.63127 -1.8067 0
M  V30 2576 C 242.836 6.50576 -2.70057 0
M  V30 2577 H 238.935 0.76755 0.149639 0
M  V30 2578 H 241.519 1.93145 -0.24556 0
M  V30 2579 H 239.69 3.46541 1.75396 0
M  V30 2580 H 241.422 3.69272 1.6559 0
M  V30 2581 H 238.177 4.73543 -0.0732101 0
M  V30 2582 H 238.601 6.45047 -2.05531 0
M  V30 2583 H 243.243 4.22363 -0.192134 0
M  V30 2584 H 240.961 7.34717 -3.36476 0
M  V30 2585 H 244.547 5.51629 -1.84924 0
M  V30 2586 H 243.427 7.05974 -3.41424 0
M  V30 2587 N 240.93 -0.123565 1.57115 0
M  V30 2588 C 242.177 -0.832153 1.84612 0
M  V30 2589 C 242.505 -1.80093 0.734627 0
M  V30 2590 O 241.76 -1.93766 -0.27442 0
M  V30 2591 C 242.059 -1.62016 3.18568 0
M  V30 2592 C 241.725 -0.796084 4.43817 0
M  V30 2593 C 240.387 -0.568816 4.77826 0
M  V30 2594 C 242.739 -0.221364 5.2073 0
M  V30 2595 C 240.067 0.243499 5.86194 0
M  V30 2596 C 242.419 0.578117 6.29953 0
M  V30 2597 C 241.083 0.815744 6.62497 0
M  V30 2598 H 240.353 -0.304507 0.675542 0
M  V30 2599 H 243 -0.0947248 1.91266 0
M  V30 2600 H 241.305 -2.42837 3.0747 0
M  V30 2601 H 243.002 -2.17231 3.37064 0
M  V30 2602 H 239.592 -0.983307 4.17168 0
M  V30 2603 H 243.776 -0.384173 4.94811 0
M  V30 2604 H 239.032 0.436871 6.09837 0
M  V30 2605 H 243.206 1.03046 6.88734 0
M  V30 2606 H 240.833 1.44701 7.46301 0
M  V30 2607 N 242.408 -1.52605 -0.393616 0
M  V30 2608 C 243.636 -1.71294 -1.16043 0
M  V30 2609 C 244.051 -0.429259 -1.83855 0
M  V30 2610 O 243.408 0.595921 -1.72496 0
M  V30 2611 C 243.459 -2.8593 -2.21193 0
M  V30 2612 O 243.18 -4.09329 -1.56146 0
M  V30 2613 C 244.681 -3.16259 -3.10636 0
M  V30 2614 H 241.901 -0.573641 -0.348104 0
M  V30 2615 H 244.445 -1.99234 -0.461092 0
M  V30 2616 H 242.6 -2.60465 -2.86769 0
M  V30 2617 H 243.014 -4.73323 -2.25978 0
M  V30 2618 H 244.488 -3.99946 -3.80456 0
M  V30 2619 H 244.965 -2.3045 -3.73884 0
M  V30 2620 H 245.571 -3.43547 -2.50711 0
M  V30 2621 N 243.887 0.651787 -1.4349 0
M  V30 2622 C 244.817 1.77621 -1.51569 0
M  V30 2623 C 245.798 1.66022 -0.370253 0
M  V30 2624 O 246.983 1.85095 -0.587658 0
M  V30 2625 C 244.113 3.16056 -1.43966 0
M  V30 2626 C 243.067 3.4242 -2.56774 0
M  V30 2627 C 242.393 4.8067 -2.34223 0
M  V30 2628 C 243.693 3.37023 -3.99015 0
M  V30 2629 H 245.387 1.71117 -2.45681 0
M  V30 2630 H 242.933 0.821825 -1.18246 0
M  V30 2631 H 244.886 3.94472 -1.48221 0
M  V30 2632 H 243.61 3.23293 -0.463586 0
M  V30 2633 H 242.269 2.66375 -2.51873 0
M  V30 2634 H 241.917 4.84585 -1.34856 0
M  V30 2635 H 241.617 4.9927 -3.09844 0
M  V30 2636 H 243.141 5.61342 -2.40265 0
M  V30 2637 H 244.555 4.05374 -4.05395 0
M  V30 2638 H 242.952 3.67159 -4.74673 0
M  V30 2639 H 244.022 2.3518 -4.2405 0
M  V30 2640 N 245.365 1.30045 0.890287 0
M  V30 2641 C 246.295 1.18541 2.01172 0
M  V30 2642 C 247.276 0.0773356 1.69924 0
M  V30 2643 O 248.461 0.25845 1.92473 0
M  V30 2644 C 245.591 0.870941 3.36202 0
M  V30 2645 C 244.545 1.93637 3.81692 0
M  V30 2646 C 243.871 1.475 5.13953 0
M  V30 2647 C 245.171 3.34666 4.00994 0
M  V30 2648 H 246.865 2.12359 2.11054 0
M  V30 2649 H 244.411 1.02238 1.01407 0
M  V30 2650 H 246.364 0.777141 4.14172 0
M  V30 2651 H 245.088 -0.102926 3.26438 0
M  V30 2652 H 243.747 2.01972 3.05946 0
M  V30 2653 H 243.395 0.489551 5.00612 0
M  V30 2654 H 243.095 2.1876 5.4536 0
M  V30 2655 H 244.619 1.39489 5.94454 0
M  V30 2656 H 246.033 3.2912 4.69417 0
M  V30 2657 H 244.43 4.03966 4.43769 0
M  V30 2658 H 245.5 3.76949 3.05021 0
M  V30 2659 N 246.843 -1.10192 1.12674 0
M  V30 2660 C 248.073 -1.85713 0.905213 0
M  V30 2661 C 248.481 -1.81056 -0.549108 0
M  V30 2662 O 247.824 -1.19927 -1.39151 0
M  V30 2663 C 247.886 -3.34972 1.30516 0
M  V30 2664 C 247.55 -3.63385 2.77129 0
M  V30 2665 C 248.547 -3.59772 3.75313 0
M  V30 2666 C 246.232 -3.91981 3.14096 0
M  V30 2667 C 248.226 -3.84354 5.08479 0
M  V30 2668 C 245.913 -4.16218 4.47443 0
M  V30 2669 C 246.911 -4.12395 5.44444 0
M  V30 2670 O 246.599 -4.36014 6.75387 0
M  V30 2671 H 246.331 -0.593719 0.323223 0
M  V30 2672 H 248.885 -1.40198 1.50112 0
M  V30 2673 H 247.115 -3.81156 0.652463 0
M  V30 2674 H 248.804 -3.91886 1.05736 0
M  V30 2675 H 249.57 -3.37716 3.48099 0
M  V30 2676 H 245.449 -3.94085 2.39202 0
M  V30 2677 H 248.993 -3.81285 5.84181 0
M  V30 2678 H 244.89 -4.37754 4.74386 0
M  V30 2679 H 245.658 -4.53516 6.8137 0
M  V30 2680 N 248.321 -0.919034 -1.28029 0
M  V30 2681 C 249.231 -0.416756 -2.30869 0
M  V30 2682 C 250.247 0.498235 -1.66714 0
M  V30 2683 O 251.423 0.383144 -1.97722 0
M  V30 2684 C 248.488 0.330274 -3.45123 0
M  V30 2685 C 247.549 -0.618578 -4.2482 0
M  V30 2686 C 246.782 0.0928959 -5.33619 0
M  V30 2687 O 247.005 1.31375 -5.55065 0
M  V30 2688 O 245.939 -0.574499 -5.99152 0
M  V30 2689 H 249.765 -1.27043 -2.75851 0
M  V30 2690 H 247.35 -0.684052 -1.3282 0
M  V30 2691 H 249.232 0.751972 -4.14636 0
M  V30 2692 H 247.907 1.1597 -3.02213 0
M  V30 2693 H 246.814 -1.08978 -3.57875 0
M  V30 2694 H 248.147 -1.41497 -4.71423 0
M  V30 2695 N 249.799 1.42003 -0.683588 0
M  V30 2696 C 251.048 2.00638 -0.206681 0
M  V30 2697 C 251.361 1.5472 1.19671 0
M  V30 2698 O 252.567 2.05833 1.77045 0
M  V30 2699 C 251.023 3.58487 -0.318632 0
M  V30 2700 C 250.631 4.1339 -1.72663 0
M  V30 2701 C 252.375 4.24384 0.0991141 0
M  V30 2702 C 250.282 5.63633 -1.79087 0
M  V30 2703 H 249.212 0.750408 -0.0735107 0
M  V30 2704 H 251.863 1.62624 -0.850048 0
M  V30 2705 H 250.245 3.94047 0.392781 0
M  V30 2706 H 251.419 3.89273 -2.46583 0
M  V30 2707 H 249.734 3.59976 -2.09299 0
M  V30 2708 H 252.331 5.34652 0.0713833 0
M  V30 2709 H 252.674 4.00505 1.13586 0
M  V30 2710 H 253.207 3.93816 -0.561599 0
M  V30 2711 H 249.946 5.92323 -2.80774 0
M  V30 2712 H 249.466 5.89714 -1.09535 0
M  V30 2713 H 251.145 6.28201 -1.5483 0
M  V30 2714 N 251.277 0.427512 1.51691 0
M  V30 2715 C 252.693 0.0792977 1.59403 0
M  V30 2716 C 252.893 -1.41035 1.43914 0
M  V30 2717 O 251.949 -2.17922 1.27539 0
M  V30 2718 C 253.262 0.590636 2.94842 0
M  V30 2719 C 254.81 0.550215 3.08126 0
M  V30 2720 C 255.285 1.03836 4.46074 0
M  V30 2721 N 256.776 0.995943 4.52366 0
M  V30 2722 C 257.511 1.34463 5.57411 0
M  V30 2723 N 257.007 1.76569 6.69922 0
M  V30 2724 N 258.8 1.26343 5.47717 0
M  V30 2725 H 250.951 1.39687 1.60004 0
M  V30 2726 H 253.214 0.575003 0.753708 0
M  V30 2727 H 252.92 1.63251 3.11516 0
M  V30 2728 H 252.794 0.0102061 3.77199 0
M  V30 2729 H 255.181 -0.482654 2.91126 0
M  V30 2730 H 255.262 1.16693 2.27632 0
M  V30 2731 H 254.906 2.06965 4.63819 0
M  V30 2732 H 254.836 0.398286 5.25092 0
M  V30 2733 H 257.327 0.68661 3.7161 0
M  V30 2734 H 257.64 2.01438 7.46085 0
M  V30 2735 H 255.985 1.80488 6.71155 0
M  V30 2736 H 259.176 0.933209 4.58703 0
M  V30 2737 H 259.349 1.53846 6.29472 0
M  V30 2738 N 252.755 -1.56801 0.158532 0
M  V30 2739 C 253.685 -2.20347 -0.772609 0
M  V30 2740 C 254.666 -1.15518 -1.24859 0
M  V30 2741 O 255.851 -1.43902 -1.30406 0
M  V30 2742 C 252.981 -2.83417 -2.00729 0
M  V30 2743 C 251.935 -3.94174 -1.66765 0
M  V30 2744 C 251.261 -4.44233 -2.97592 0
M  V30 2745 C 252.561 -5.14392 -0.905447 0
M  V30 2746 H 254.255 -2.98413 -0.242959 0
M  V30 2747 H 251.801 -1.43537 -0.115419 0
M  V30 2748 H 253.754 -3.26543 -2.6636 0
M  V30 2749 H 252.478 -2.02701 -2.56086 0
M  V30 2750 H 251.137 -3.51684 -1.03508 0
M  V30 2751 H 250.785 -3.60325 -3.50963 0
M  V30 2752 H 250.485 -5.18945 -2.75626 0
M  V30 2753 H 252.009 -4.90037 -3.64274 0
M  V30 2754 H 253.423 -5.5429 -1.46408 0
M  V30 2755 H 251.82 -5.9494 -0.7853 0
M  V30 2756 H 252.89 -4.84795 0.100668 0
M  V30 2757 N 254.233 0.115231 -1.57178 0
M  V30 2758 C 255.18 1.14115 -2.00615 0
M  V30 2759 C 256.15 1.40939 -0.878941 0
M  V30 2760 O 257.335 1.52741 -1.14345 0
M  V30 2761 C 254.475 2.46156 -2.4187 0
M  V30 2762 C 253.588 2.26236 -3.68024 0
M  V30 2763 C 252.723 3.51534 -3.98243 0
M  V30 2764 C 251.762 3.26787 -5.17568 0
M  V30 2765 N 250.899 4.44298 -5.43639 0
M  V30 2766 H 255.739 0.763743 -2.88047 0
M  V30 2767 H 253.276 0.365615 -1.42484 0
M  V30 2768 H 255.234 3.23189 -2.63827 0
M  V30 2769 H 253.864 2.81783 -1.57475 0
M  V30 2770 H 252.916 1.40102 -3.5366 0
M  V30 2771 H 254.228 2.03929 -4.55208 0
M  V30 2772 H 253.382 4.36984 -4.20868 0
M  V30 2773 H 252.121 3.76876 -3.09541 0
M  V30 2774 H 251.126 2.39729 -4.94783 0
M  V30 2775 H 252.351 3.02812 -6.0785 0
M  V30 2776 H 250.297 4.69754 -4.57895 0
M  V30 2777 H 250.214 4.25109 -6.25154 0
M  V30 2778 H 251.482 5.3087 -5.70786 0
M  V30 2779 N 255.711 1.52812 0.385517 0
M  V30 2780 C 257.122 1.5993 0.963293 0
M  V30 2781 C 257.473 0.454302 1.90868 0
M  V30 2782 O 256.598 -0.422132 2.12243 0
M  V30 2783 C 257.193 2.89871 1.75387 0
M  V30 2784 C 255.752 2.99389 2.28129 0
M  V30 2785 C 254.899 2.55071 1.08783 0
M  V30 2786 H 257.85 1.5784 0.164948 0
M  V30 2787 H 257.871 2.76553 2.61341 0
M  V30 2788 H 257.383 3.73186 1.06554 0
M  V30 2789 H 255.484 2.20619 3.00263 0
M  V30 2790 H 255.597 4.04096 2.57377 0
M  V30 2791 H 253.961 2.09473 1.4489 0
M  V30 2792 H 254.744 3.40785 0.414807 0
M  V30 2793 N 257.189 -0.644168 1.43834 0
M  V30 2794 C 258.099 -1.78563 1.52159 0
M  V30 2795 C 259.115 -1.69147 0.408069 0
M  V30 2796 O 260.291 -1.90156 0.663524 0
M  V30 2797 C 257.356 -3.14888 1.45073 0
M  V30 2798 C 256.417 -3.36034 2.6717 0
M  V30 2799 C 255.65 -4.65855 2.60413 0
M  V30 2800 O 255.873 -5.45805 1.65689 0
M  V30 2801 O 254.807 -4.88918 3.5106 0
M  V30 2802 H 258.633 -1.74494 2.48567 0
M  V30 2803 H 256.218 -0.80378 1.25935 0
M  V30 2804 H 258.1 -3.96179 1.43597 0
M  V30 2805 H 256.775 -3.19528 0.518037 0
M  V30 2806 H 255.682 -2.54472 2.74217 0
M  V30 2807 H 257.015 -3.36247 3.59442 0
M  V30 2808 N 258.668 -1.30515 -0.883378 0
M  V30 2809 C 259.615 -1.17032 -1.98927 0
M  V30 2810 C 260.585 -0.0594241 -1.65994 0
M  V30 2811 O 261.77 -0.229895 -1.8941 0
M  V30 2812 C 258.91 -0.869777 -3.33959 0
M  V30 2813 C 258.023 -2.06271 -3.79574 0
M  V30 2814 C 257.158 -1.70011 -5.03259 0
M  V30 2815 C 256.197 -2.8579 -5.41286 0
M  V30 2816 N 255.334 -2.49816 -6.56153 0
M  V30 2817 H 260.174 -2.1164 -2.09792 0
M  V30 2818 H 257.711 -1.05296 -1.02719 0
M  V30 2819 H 259.669 -0.676138 -4.11685 0
M  V30 2820 H 258.299 0.0394332 -3.22776 0
M  V30 2821 H 257.351 -2.36755 -2.97744 0
M  V30 2822 H 258.663 -2.92971 -4.03694 0
M  V30 2823 H 257.817 -1.47032 -5.88614 0
M  V30 2824 H 256.556 -0.804829 -4.81013 0
M  V30 2825 H 255.561 -3.09434 -4.54456 0
M  V30 2826 H 256.786 -3.76008 -5.65504 0
M  V30 2827 H 254.732 -1.62795 -6.35479 0
M  V30 2828 H 254.649 -3.30048 -6.8015 0
M  V30 2829 H 255.917 -2.30197 -7.44735 0
M  V30 2830 N 260.146 1.09593 -1.13257 0
M  V30 2831 C 261.109 2.14359 -0.811358 0
M  V30 2832 C 262.109 1.59808 0.178377 0
M  V30 2833 O 263.299 1.74132 -0.0484911 0
M  V30 2834 C 260.431 3.40269 -0.207276 0
M  V30 2835 H 261.624 2.44284 -1.73969 0
M  V30 2836 H 259.177 1.25102 -0.936973 0
M  V30 2837 H 259.912 3.15969 0.73036 0
M  V30 2838 H 259.697 3.81154 -0.919992 0
M  V30 2839 H 261.187 4.176 0.000667944 0
M  V30 2840 N 261.624 0.925811 1.2754 0
M  V30 2841 C 262.587 0.428129 2.25166 0
M  V30 2842 C 263.587 -0.452261 1.54309 0
M  V30 2843 O 264.777 -0.253608 1.72344 0
M  V30 2844 C 261.909 -0.384749 3.38722 0
M  V30 2845 H 263.102 1.29066 2.70706 0
M  V30 2846 H 260.655 0.706323 1.3943 0
M  V30 2847 H 261.39 -1.26618 2.98561 0
M  V30 2848 H 261.175 0.246454 3.91325 0
M  V30 2849 H 262.665 -0.723389 4.11287 0
M  V30 2850 N 263.102 -1.41638 0.69111 0
M  V30 2851 C 264.012 -2.34588 0.0233487 0
M  V30 2852 C 265.028 -1.55987 -0.770984 0
M  V30 2853 O 266.204 -1.88486 -0.709569 0
M  V30 2854 C 263.269 -3.34684 -0.904851 0
M  V30 2855 C 262.33 -4.29176 -0.103225 0
M  V30 2856 C 261.563 -5.2449 -0.987216 0
M  V30 2857 O 261.786 -5.2514 -2.22674 0
M  V30 2858 O 260.72 -6.00295 -0.439281 0
M  V30 2859 H 264.546 -2.93261 0.789416 0
M  V30 2860 H 262.131 -1.42417 0.45142 0
M  V30 2861 H 264.013 -3.96133 -1.43724 0
M  V30 2862 H 262.688 -2.78461 -1.65049 0
M  V30 2863 H 261.595 -3.71089 0.473655 0
M  V30 2864 H 262.928 -4.88484 0.60365 0
M  V30 2865 N 264.58 -0.43555 -1.51462 0
M  V30 2866 C 265.826 0.123979 -2.03022 0
M  V30 2867 C 266.181 1.4054 -1.31401 0
M  V30 2868 O 265.474 1.86948 -0.419634 0
M  V30 2869 C 265.668 0.39942 -3.55161 0
M  V30 2870 C 265.497 -0.853754 -4.41521 0
M  V30 2871 C 264.267 -1.38675 -4.85898 0
M  V30 2872 C 266.465 -1.73939 -4.83994 0
M  V30 2873 N 264.447 -2.59265 -5.56466 0
M  V30 2874 C 265.818 -2.79135 -5.5361 0
M  V30 2875 C 267.873 -1.75402 -4.65981 0
M  V30 2876 C 266.576 -3.85737 -6.07124 0
M  V30 2877 C 268.602 -2.80938 -5.20411 0
M  V30 2878 C 267.964 -3.84854 -5.89972 0
M  V30 2879 H 264.063 0.00624887 -0.781975 0
M  V30 2880 H 266.647 -0.59582 -1.85359 0
M  V30 2881 H 264.818 1.08825 -3.72843 0
M  V30 2882 H 266.55 0.95015 -3.93388 0
M  V30 2883 H 263.305 -0.94094 -4.64159 0
M  V30 2884 H 263.729 -3.2041 -5.96378 0
M  V30 2885 H 268.371 -0.963926 -4.11665 0
M  V30 2886 H 266.089 -4.65586 -6.60496 0
M  V30 2887 H 269.675 -2.8301 -5.08327 0
M  V30 2888 H 268.555 -4.65176 -6.31333 0
M  V30 2889 N 266.058 1.56714 -0.166846 0
M  V30 2890 C 266.968 2.21331 0.777791 0
M  V30 2891 C 267.984 1.20358 1.25658 0
M  V30 2892 O 269.16 1.53005 1.30964 0
M  V30 2893 C 266.225 2.83787 1.99163 0
M  V30 2894 C 265.286 3.99947 1.56016 0
M  V30 2895 C 264.519 4.59415 2.71613 0
M  V30 2896 O 264.742 4.17769 3.88362 0
M  V30 2897 O 263.676 5.49359 2.45945 0
M  V30 2898 H 267.502 3.02605 0.257636 0
M  V30 2899 H 265.087 1.49275 0.0611393 0
M  V30 2900 H 266.969 3.23405 2.70161 0
M  V30 2901 H 265.644 2.05513 2.50092 0
M  V30 2902 H 264.551 3.65007 0.819809 0
M  V30 2903 H 265.884 4.79801 1.09782 0
M  V30 2904 N 267.536 -0.106894 1.57237 0
M  V30 2905 C 268.785 -0.811163 1.8467 0
M  V30 2906 C 269.098 -1.80469 0.754342 0
M  V30 2907 O 270.304 -2.55601 0.915439 0
M  V30 2908 C 268.76 -1.49337 3.27454 0
M  V30 2909 C 268.368 -0.540217 4.44731 0
M  V30 2910 C 270.112 -2.18206 3.64124 0
M  V30 2911 C 268.019 -1.22634 5.78545 0
M  V30 2912 H 266.949 -0.306679 0.688813 0
M  V30 2913 H 269.6 -0.0639887 1.83388 0
M  V30 2914 H 267.982 -2.2876 3.23241 0
M  V30 2915 H 269.156 0.221659 4.60267 0
M  V30 2916 H 267.471 0.042146 4.16379 0
M  V30 2917 H 270.068 -2.70253 4.61376 0
M  V30 2918 H 270.411 -2.96562 2.92158 0
M  V30 2919 H 270.944 -1.45658 3.70174 0
M  V30 2920 H 267.683 -0.483832 6.53712 0
M  V30 2921 H 267.203 -1.95993 5.66874 0
M  V30 2922 H 268.882 -1.75615 6.2271 0
M  V30 2923 N 269.014 -1.53014 -0.377408 0
M  V30 2924 C 269.964 -1.74996 -1.46152 0
M  V30 2925 C 270.948 -0.604236 -1.49123 0
M  V30 2926 O 272.14 -0.862489 -1.54564 0
M  V30 2927 C 269.269 -1.93267 -2.8373 0
M  V30 2928 C 268.355 -3.13807 -2.85283 0
M  V30 2929 N 268.746 -4.35941 -2.56493 0
M  V30 2930 C 267.044 -3.14288 -3.16448 0
M  V30 2931 C 267.745 -5.17615 -2.65424 0
M  V30 2932 N 266.721 -4.53559 -2.99641 0
M  V30 2933 H 270.523 -2.67044 -1.22738 0
M  V30 2934 H 268.037 -1.51479 -0.585479 0
M  V30 2935 H 270.034 -2.0714 -3.61799 0
M  V30 2936 H 268.694 -1.0244 -3.08117 0
M  V30 2937 H 269.705 -4.63876 -2.30302 0
M  V30 2938 H 266.382 -2.33312 -3.46225 0
M  V30 2939 H 267.772 -6.25006 -2.46612 0
M  V30 2940 N 270.492 0.636531 -1.44174 0
M  V30 2941 C 271.739 1.39619 -1.46672 0
M  V30 2942 C 272.067 1.94257 -0.0972691 0
M  V30 2943 O 271.322 1.73768 0.900175 0
M  V30 2944 C 271.621 2.58309 -2.47005 0
M  V30 2945 C 271.287 2.21992 -3.92467 0
M  V30 2946 C 269.949 2.118 -4.32081 0
M  V30 2947 C 272.301 1.9321 -4.84065 0
M  V30 2948 C 269.629 1.71007 -5.61225 0
M  V30 2949 C 271.981 1.53911 -6.13591 0
M  V30 2950 C 270.645 1.42257 -6.52165 0
M  V30 2951 H 269.915 0.510902 -0.536712 0
M  V30 2952 H 272.562 0.722328 -1.77355 0
M  V30 2953 H 270.867 3.30903 -2.09786 0
M  V30 2954 H 272.564 3.16533 -2.46186 0
M  V30 2955 H 269.154 2.30841 -3.61124 0
M  V30 2956 H 273.338 1.99997 -4.54219 0
M  V30 2957 H 268.594 1.60583 -5.89935 0
M  V30 2958 H 272.768 1.30677 -6.8403 0
M  V30 2959 H 270.395 1.10419 -7.52138 0
M  V30 2960 N 271.97 1.30982 0.876444 0
M  V30 2961 C 272.933 1.18054 1.96459 0
M  V30 2962 C 273.933 0.109399 1.60427 0
M  V30 2963 O 275.123 0.358173 1.70478 0
M  V30 2964 C 272.255 0.810616 3.31122 0
M  V30 2965 H 273.448 2.14735 2.09354 0
M  V30 2966 H 271.001 1.145 1.06392 0
M  V30 2967 H 271.736 -0.155322 3.23928 0
M  V30 2968 H 271.521 1.58481 3.58645 0
M  V30 2969 H 273.011 0.743876 4.10921 0
M  V30 2970 N 273.449 -1.08991 1.13837 0
M  V30 2971 C 274.697 -1.80899 0.901098 0
M  V30 2972 C 275.018 -1.86356 -0.574134 0
M  V30 2973 O 274.288 -1.35235 -1.41733 0
M  V30 2974 H 272.868 -0.669966 0.330386 0
M  V30 2975 H 275.53 -1.318 1.43578 0
M  V30 2976 H 274.626 -2.83929 1.29578 0
M  V30 2977 N 274.927 -0.932562 -1.27047 0
M  V30 2978 C 275.859 -0.392734 -2.2581 0
M  V30 2979 C 276.872 0.479241 -1.55586 0
M  V30 2980 O 278.061 0.291078 -1.76111 0
M  V30 2981 C 275.161 0.455456 -3.35826 0
M  V30 2982 C 274.334 -0.398355 -4.35582 0
M  V30 2983 C 273.393 0.387985 -5.24768 0
M  V30 2984 O 272.419 -0.206003 -5.68827 0
M  V30 2985 N 273.621 1.68664 -5.55457 0
M  V30 2986 H 276.386 -1.24173 -2.72766 0
M  V30 2987 H 273.947 -0.800511 -1.40725 0
M  V30 2988 H 275.939 0.988692 -3.92437 0
M  V30 2989 H 274.509 1.20522 -2.88432 0
M  V30 2990 H 273.729 -1.11286 -3.78165 0
M  V30 2991 H 275.017 -0.981889 -4.99236 0
M  V30 2992 H 274.415 2.19147 -5.21528 0
M  V30 2993 H 272.972 2.1663 -6.14748 0
M  V30 2994 N 276.405 1.4127 -0.698611 0
M  V30 2995 C 277.337 2.292 0.00399731 0
M  V30 2996 C 278.35 1.44944 0.741279 0
M  V30 2997 O 279.539 1.68416 0.591477 0
M  V30 2998 C 276.639 3.22875 1.02979 0
M  V30 2999 C 275.812 4.35904 0.36151 0
M  V30 3000 C 274.871 5.10134 1.29033 0
M  V30 3001 O 273.897 5.63809 0.781562 0
M  V30 3002 N 275.099 5.17885 2.6225 0
M  V30 3003 H 277.864 2.9014 -0.750921 0
M  V30 3004 H 275.425 1.52455 -0.544882 0
M  V30 3005 H 277.417 3.69404 1.65296 0
M  V30 3006 H 275.987 2.63221 1.68622 0
M  V30 3007 H 275.207 3.91719 -0.441584 0
M  V30 3008 H 276.495 5.08696 -0.103055 0
M  V30 3009 H 275.893 4.7573 3.061 0
M  V30 3010 H 274.45 5.6798 3.19754 0
M  V30 3011 N 277.883 0.443576 1.51229 0
M  V30 3012 C 279.111 -0.11929 2.06556 0
M  V30 3013 C 279.526 -1.35921 1.31038 0
M  V30 3014 O 278.883 -1.78675 0.371704 0
M  V30 3015 C 278.934 -0.435228 3.5887 0
M  V30 3016 O 278.655 0.755486 4.31537 0
M  V30 3017 C 280.156 -1.04808 4.30732 0
M  V30 3018 H 277.376 -0.0051584 0.67098 0
M  V30 3019 H 279.92 0.624453 1.94733 0
M  V30 3020 H 278.075 -1.12887 3.70588 0
M  V30 3021 H 278.489 0.483491 5.22267 0
M  V30 3022 H 279.963 -1.2191 5.3837 0
M  V30 3023 H 280.44 -2.03081 3.89429 0
M  V30 3024 H 281.046 -0.393637 4.23474 0
M  V30 3025 N 279.361 -1.56624 0.175154 0
M  V30 3026 C 280.271 -2.21741 -0.766042 0
M  V30 3027 C 281.287 -1.21023 -1.25018 0
M  V30 3028 O 282.463 -1.53697 -1.3015 0
M  V30 3029 C 279.528 -2.84839 -1.97655 0
M  V30 3030 C 278.589 -4.00769 -1.53892 0
M  V30 3031 C 277.822 -4.60849 -2.69173 0
M  V30 3032 O 278.045 -4.19823 -3.86141 0
M  V30 3033 O 276.979 -5.50655 -2.43028 0
M  V30 3034 H 280.805 -3.02738 -0.241585 0
M  V30 3035 H 278.39 -1.49305 -0.053222 0
M  V30 3036 H 280.272 -3.24834 -2.68442 0
M  V30 3037 H 278.947 -2.06836 -2.48999 0
M  V30 3038 H 277.854 -3.65436 -0.80044 0
M  V30 3039 H 279.187 -4.80376 -1.07236 0
M  V30 3040 N 280.839 0.0985539 -1.57292 0
M  V30 3041 C 282.086 0.802678 -1.85912 0
M  V30 3042 C 282.414 1.78901 -0.763186 0
M  V30 3043 O 281.669 1.94178 0.243559 0
M  V30 3044 C 281.968 1.56927 -3.21105 0
M  V30 3045 C 281.634 0.725376 -4.45027 0
M  V30 3046 C 280.296 0.492726 -4.78671 0
M  V30 3047 C 282.648 0.138493 -5.21016 0
M  V30 3048 C 279.976 -0.336727 -5.85733 0
M  V30 3049 C 282.328 -0.678264 -6.28953 0
M  V30 3050 C 280.992 -0.921039 -6.61115 0
M  V30 3051 H 280.262 0.293721 -0.680301 0
M  V30 3052 H 282.909 0.0642841 -1.91392 0
M  V30 3053 H 281.214 2.37914 -3.11294 0
M  V30 3054 H 282.911 2.11841 -3.40477 0
M  V30 3055 H 279.501 0.916815 -4.18679 0
M  V30 3056 H 283.685 0.305404 -4.95359 0
M  V30 3057 H 278.941 -0.533836 -6.09065 0
M  V30 3058 H 283.115 -1.1399 -6.87007 0
M  V30 3059 H 280.742 -1.56556 -7.43905 0
M  V30 3060 N 282.317 1.53212 0.369288 0
M  V30 3061 C 283.264 1.79388 1.45219 0
M  V30 3062 C 284.234 0.638059 1.53356 0
M  V30 3063 O 285.419 0.879852 1.69302 0
M  V30 3064 C 282.559 1.98623 2.82211 0
M  V30 3065 C 281.672 3.26337 2.8307 0
M  V30 3066 C 280.807 3.35779 4.11614 0
M  V30 3067 C 279.846 4.5754 4.06601 0
M  V30 3068 N 278.983 4.64155 5.26787 0
M  V30 3069 H 283.823 2.71794 1.22198 0
M  V30 3070 H 281.36 1.34642 0.592444 0
M  V30 3071 H 283.318 2.07761 3.61789 0
M  V30 3072 H 281.948 1.09558 3.03639 0
M  V30 3073 H 281 3.26171 1.95747 0
M  V30 3074 H 282.312 4.15988 2.75237 0
M  V30 3075 H 281.466 3.44208 4.99606 0
M  V30 3076 H 280.205 2.44137 4.22195 0
M  V30 3077 H 279.21 4.49215 3.16996 0
M  V30 3078 H 280.435 5.50519 3.97625 0
M  V30 3079 H 278.381 3.75413 5.3796 0
M  V30 3080 H 278.298 5.47706 5.21109 0
M  V30 3081 H 279.566 4.76863 6.16621 0
M  V30 3082 N 283.795 -0.628877 1.44509 0
M  V30 3083 C 285.044 -1.38437 1.4669 0
M  V30 3084 C 285.357 -1.95322 0.104272 0
M  V30 3085 O 286.563 -2.715 0.00362163 0
M  V30 3086 C 285.019 -2.50659 2.5826 0
M  V30 3087 C 284.627 -2.00277 4.0074 0
M  V30 3088 C 286.371 -3.27844 2.69664 0
M  V30 3089 C 284.278 -3.09854 5.0373 0
M  V30 3090 H 283.208 -0.520245 0.545766 0
M  V30 3091 H 285.859 -0.676313 1.70582 0
M  V30 3092 H 284.241 -3.2405 2.27612 0
M  V30 3093 H 285.415 -1.33736 4.40966 0
M  V30 3094 H 283.73 -1.35901 3.93599 0
M  V30 3095 H 286.327 -4.09534 3.43781 0
M  V30 3096 H 286.67 -3.77471 1.75559 0
M  V30 3097 H 287.203 -2.61543 2.99733 0
M  V30 3098 H 283.942 -2.65168 5.99472 0
M  V30 3099 H 283.462 -3.7503 4.68095 0
M  V30 3100 H 285.141 -3.74592 5.27532 0
M  V30 3101 N 285.273 -1.31445 -0.869486 0
M  V30 3102 C 286.203 -1.21727 -1.99261 0
M  V30 3103 C 287.184 -0.104359 -1.6978 0
M  V30 3104 O 288.369 -0.289038 -1.92037 0
M  V30 3105 C 285.499 -0.924317 -3.34774 0
M  V30 3106 C 284.453 -1.99685 -3.78563 0
M  V30 3107 C 283.779 -1.55658 -5.11541 0
M  V30 3108 C 285.079 -3.41003 -3.95619 0
M  V30 3109 H 286.773 -2.1569 -2.07649 0
M  V30 3110 H 284.319 -1.03839 -0.997675 0
M  V30 3111 H 286.272 -0.842934 -4.12883 0
M  V30 3112 H 284.996 0.0509793 -3.2656 0
M  V30 3113 H 283.655 -2.06813 -3.02694 0
M  V30 3114 H 283.303 -0.569132 -4.9977 0
M  V30 3115 H 283.003 -2.27409 -5.41811 0
M  V30 3116 H 284.527 -1.48928 -5.92159 0
M  V30 3117 H 285.941 -3.36547 -4.64122 0
M  V30 3118 H 284.338 -4.10975 -4.37286 0
M  V30 3119 H 285.408 -3.81754 -2.98985 0
M  V30 3120 N 286.751 1.08385 -1.14413 0
M  V30 3121 C 287.976 1.85057 -0.936413 0
M  V30 3122 C 288.401 1.81055 0.509971 0
M  V30 3123 O 287.759 1.1958 1.36273 0
M  V30 3124 C 287.807 3.30505 -1.44217 0
M  V30 3125 O 286.911 4.07491 -0.634409 0
M  V30 3126 H 286.252 0.573425 -0.334784 0
M  V30 3127 H 288.782 1.36799 -1.52142 0
M  V30 3128 H 288.792 3.81348 -1.45043 0
M  V30 3129 H 287.467 3.32734 -2.49522 0
M  V30 3130 H 286.044 3.66368 -0.694902 0
M  V30 3131 N 288.23 0.939286 1.26551 0
M  V30 3132 C 289.16 0.465044 2.28822 0
M  V30 3133 C 290.141 -0.480692 1.63167 0
M  V30 3134 O 291.326 -0.382955 1.90387 0
M  V30 3135 C 288.456 -0.27234 3.46231 0
M  V30 3136 C 287.41 0.58666 4.2396 0
M  V30 3137 C 286.736 -0.280573 5.33963 0
M  V30 3138 C 288.036 1.85704 4.88171 0
M  V30 3139 H 289.73 1.31979 2.68741 0
M  V30 3140 H 287.276 0.636061 1.29191 0
M  V30 3141 H 289.229 -0.615133 4.16886 0
M  V30 3142 H 287.953 -1.16121 3.0526 0
M  V30 3143 H 286.612 0.91232 3.55067 0
M  V30 3144 H 286.26 -1.16874 4.89234 0
M  V30 3145 H 285.96 0.29076 5.8688 0
M  V30 3146 H 287.484 -0.618678 6.07458 0
M  V30 3147 H 288.898 1.58161 5.51052 0
M  V30 3148 H 287.295 2.37279 5.51197 0
M  V30 3149 H 288.365 2.56957 4.11219 0
M  V30 3150 N 289.708 -1.40897 0.706093 0
M  V30 3151 C 290.658 -2.27987 0.0240746 0
M  V30 3152 C 291.642 -1.42759 -0.742204 0
M  V30 3153 O 292.834 -1.65936 -0.615966 0
M  V30 3154 C 289.963 -3.31186 -0.903907 0
M  V30 3155 C 289.049 -4.2389 -0.133318 0
M  V30 3156 N 289.44 -4.98113 0.878444 0
M  V30 3157 C 287.738 -4.44485 -0.367269 0
M  V30 3158 C 288.439 -5.6604 1.34064 0
M  V30 3159 N 287.415 -5.39522 0.664565 0
M  V30 3160 H 291.217 -2.82812 0.799658 0
M  V30 3161 H 288.731 -1.53235 0.537845 0
M  V30 3162 H 290.728 -3.92413 -1.40775 0
M  V30 3163 H 289.388 -2.77922 -1.67897 0
M  V30 3164 H 290.399 -5.02364 1.25901 0
M  V30 3165 H 287.076 -4.02213 -1.1194 0
M  V30 3166 H 288.466 -6.35524 2.1808 0
M  V30 3167 N 291.186 -0.45159 -1.50991 0
M  V30 3168 C 292.597 0.00818571 -1.86698 0
M  V30 3169 C 292.948 1.40661 -1.3678 0
M  V30 3170 O 292.073 2.0391 -0.724546 0
M  V30 3171 C 292.668 0.0216303 -3.38793 0
M  V30 3172 C 291.227 0.425865 -3.73983 0
M  V30 3173 C 290.374 -0.372163 -2.74791 0
M  V30 3174 H 293.325 -0.666785 -1.44013 0
M  V30 3175 H 293.346 0.828078 -3.7138 0
M  V30 3176 H 292.858 -0.996288 -3.75094 0
M  V30 3177 H 290.959 1.44886 -3.43277 0
M  V30 3178 H 291.072 0.140761 -4.78893 0
M  V30 3179 H 289.436 0.171498 -2.54122 0
M  V30 3180 H 290.219 -1.38922 -3.13935 0
M  V30 3181 N 292.664 1.56529 -0.183458 0
M  V30 3182 C 293.912 1.96855 0.457452 0
M  V30 3183 C 294.233 1.07104 1.62953 0
M  V30 3184 O 293.503 0.139887 1.954 0
M  V30 3185 H 292.083 0.72693 0.171992 0
M  V30 3186 H 294.745 1.93056 -0.267476 0
M  V30 3187 H 293.841 3.01423 0.809368 0
M  V30 3188 N 294.142 -0.090211 1.57342 0
M  V30 3189 C 295.074 -1.13541 1.99101 0
M  V30 3190 C 296.087 -1.3604 0.894258 0
M  V30 3191 O 297.276 -1.34606 1.17233 0
M  V30 3192 C 294.376 -2.49001 2.29895 0
M  V30 3193 C 293.549 -2.46712 3.61182 0
M  V30 3194 C 292.608 -3.64136 3.79857 0
M  V30 3195 O 291.634 -3.46405 4.51655 0
M  V30 3196 N 292.836 -4.83802 3.20806 0
M  V30 3197 H 295.601 -0.779942 2.89373 0
M  V30 3198 H 293.162 -0.279125 1.59476 0
M  V30 3199 H 295.154 -3.26166 2.39578 0
M  V30 3200 H 293.724 -2.76619 1.45605 0
M  V30 3201 H 292.944 -1.55058 3.62423 0
M  V30 3202 H 294.232 -2.42265 4.4742 0
M  V30 3203 H 293.63 -5.01112 2.62494 0
M  V30 3204 H 292.187 -5.58543 3.35966 0
M  V30 3205 N 295.62 -1.53406 -0.361157 0
M  V30 3206 C 296.567 -1.80156 -1.44265 0
M  V30 3207 C 297.537 -0.646183 -1.53015 0
M  V30 3208 O 298.722 -0.888818 -1.68833 0
M  V30 3209 C 295.862 -2.00116 -2.81154 0
M  V30 3210 C 294.975 -3.27833 -2.81335 0
M  V30 3211 C 294.11 -3.37957 -4.09828 0
M  V30 3212 C 293.149 -4.59689 -4.04168 0
M  V30 3213 N 292.286 -4.66942 -5.24318 0
M  V30 3214 H 297.126 -2.72438 -1.20754 0
M  V30 3215 H 294.663 -1.34954 -0.585296 0
M  V30 3216 H 296.621 -2.09677 -3.60682 0
M  V30 3217 H 295.251 -1.11167 -3.03054 0
M  V30 3218 H 294.303 -3.27204 -1.94014 0
M  V30 3219 H 295.615 -4.17442 -2.73027 0
M  V30 3220 H 294.769 -3.46853 -4.97773 0
M  V30 3221 H 293.508 -2.46372 -4.20894 0
M  V30 3222 H 292.513 -4.50889 -3.14609 0
M  V30 3223 H 293.738 -5.5262 -3.947 0
M  V30 3224 H 291.684 -3.7826 -5.35962 0
M  V30 3225 H 291.601 -5.50462 -5.18197 0
M  V30 3226 H 292.869 -4.80127 -6.14084 0
M  V30 3227 N 297.098 0.621204 -1.44841 0
M  V30 3228 C 298.328 1.40548 -1.51426 0
M  V30 3229 C 298.736 1.88673 -0.141083 0
M  V30 3230 O 298.079 1.62053 0.865128 0
M  V30 3231 C 298.141 2.65325 -2.42576 0
M  V30 3232 C 297.805 2.3893 -3.89566 0
M  V30 3233 C 298.802 2.00138 -4.79834 0
M  V30 3234 C 296.487 2.52263 -4.3436 0
M  V30 3235 C 298.481 1.75021 -6.129 0
M  V30 3236 C 296.168 2.2676 -5.67471 0
M  V30 3237 C 297.166 1.88199 -6.56559 0
M  V30 3238 O 296.854 1.62986 -7.87204 0
M  V30 3239 H 296.586 0.437122 -0.515655 0
M  V30 3240 H 299.14 0.765987 -1.90583 0
M  V30 3241 H 297.37 3.31947 -1.98364 0
M  V30 3242 H 299.059 3.27347 -2.39998 0
M  V30 3243 H 299.825 1.89386 -4.46495 0
M  V30 3244 H 295.704 2.81246 -3.65269 0
M  V30 3245 H 299.248 1.44848 -6.82396 0
M  V30 3246 H 295.145 2.37125 -6.00368 0
M  V30 3247 H 295.913 1.7715 -7.991 0
M  V30 3248 N 298.576 1.31904 0.862503 0
M  V30 3249 C 299.506 1.22782 1.98612 0
M  V30 3250 C 300.487 0.113362 1.69722 0
M  V30 3251 O 301.672 0.299218 1.91881 0
M  V30 3252 C 298.802 0.942058 3.34279 0
M  V30 3253 C 297.756 2.0169 3.77499 0
M  V30 3254 C 297.082 1.58369 5.10709 0
M  V30 3255 C 298.382 3.43096 3.93805 0
M  V30 3256 H 300.076 2.16788 2.06502 0
M  V30 3257 H 297.622 1.04366 0.992154 0
M  V30 3258 H 299.575 0.864818 4.1243 0
M  V30 3259 H 298.299 -0.0336603 3.26583 0
M  V30 3260 H 296.958 2.08416 3.01593 0
M  V30 3261 H 296.606 0.595628 4.99461 0
M  V30 3262 H 296.306 2.30279 5.40597 0
M  V30 3263 H 297.83 1.52067 5.91361 0
M  V30 3264 H 299.244 3.39003 4.62331 0
M  V30 3265 H 297.641 4.13288 4.35101 0
M  V30 3266 H 298.711 3.83334 2.96957 0
M  V30 3267 N 300.054 -1.07777 1.14986 0
M  V30 3268 C 301.3 -1.80557 0.923422 0
M  V30 3269 C 301.633 -1.86298 -0.548337 0
M  V30 3270 O 300.908 -1.34354 -1.40639 0
M  V30 3271 C 301.191 -3.25839 1.53299 0
M  V30 3272 C 301.044 -3.28269 3.07505 0
M  V30 3273 C 302.363 -4.22991 1.21518 0
M  V30 3274 H 299.482 -0.655493 0.336894 0
M  V30 3275 H 302.124 -1.26144 1.42083 0
M  V30 3276 H 300.274 -3.72306 1.10999 0
M  V30 3277 H 301.946 -2.90079 3.58681 0
M  V30 3278 H 300.189 -2.67355 3.4162 0
M  V30 3279 H 300.86 -4.30691 3.45266 0
M  V30 3280 H 303.336 -3.84894 1.581 0
M  V30 3281 H 302.212 -5.22945 1.66793 0
M  V30 3282 H 302.473 -4.41904 0.131505 0
M  V30 3283 N 301.532 -0.945985 -1.26051 0
M  V30 3284 C 302.464 -0.416662 -2.25381 0
M  V30 3285 C 303.477 0.462712 -1.56086 0
M  V30 3286 O 304.666 0.272383 -1.7641 0
M  V30 3287 C 301.766 0.419812 -3.3629 0
M  V30 3288 C 300.939 -0.444531 -4.35135 0
M  V30 3289 C 299.998 0.332305 -5.2515 0
M  V30 3290 O 299.024 -0.266324 -5.68577 0
M  V30 3291 N 300.226 1.62763 -5.57215 0
M  V30 3292 H 302.991 -1.27059 -2.71433 0
M  V30 3293 H 300.552 -0.815392 -1.39868 0
M  V30 3294 H 302.544 0.947013 -3.93464 0
M  V30 3295 H 301.114 1.17456 -2.89694 0
M  V30 3296 H 300.334 -1.15291 -3.76964 0
M  V30 3297 H 301.622 -1.03478 -4.98166 0
M  V30 3298 H 301.02 2.13603 -5.23823 0
M  V30 3299 H 299.577 2.10097 -6.17011 0
M  V30 3300 N 303.011 1.40521 -0.713556 0
M  V30 3301 C 304.257 2.01221 -0.252564 0
M  V30 3302 C 304.59 1.56444 1.1506 0
M  V30 3303 O 303.865 0.783597 1.78017 0
M  V30 3304 C 304.148 3.58582 -0.330332 0
M  V30 3305 C 304.001 4.13437 -1.77173 0
M  V30 3306 C 305.32 4.39079 0.299641 0
M  V30 3307 H 302.439 0.731077 -0.0932471 0
M  V30 3308 H 305.081 1.67026 -0.905673 0
M  V30 3309 H 303.231 3.87844 0.225737 0
M  V30 3310 H 304.903 3.9498 -2.38303 0
M  V30 3311 H 303.146 3.67801 -2.3001 0
M  V30 3312 H 303.817 5.22597 -1.77755 0
M  V30 3313 H 306.293 4.15735 -0.174139 0
M  V30 3314 H 305.169 5.4848 0.214771 0
M  V30 3315 H 305.43 4.19915 1.38288 0
M  V30 3316 N 304.489 0.459591 1.5075 0
M  V30 3317 C 305.905 0.113092 1.59199 0
M  V30 3318 C 306.105 -1.37951 1.46874 0
M  V30 3319 O 305.161 -2.15168 1.32132 0
M  V30 3320 C 306.474 0.653043 2.93523 0
M  V30 3321 C 308.022 0.615449 3.0689 0
M  V30 3322 C 308.497 1.13275 4.43771 0
M  V30 3323 N 309.988 1.09167 4.50152 0
M  V30 3324 C 310.723 1.46256 5.54434 0
M  V30 3325 N 310.219 1.90739 6.66026 0
M  V30 3326 N 312.012 1.37932 5.44914 0
M  V30 3327 H 304.163 1.43049 1.57005 0
M  V30 3328 H 306.426 0.590861 0.741341 0
M  V30 3329 H 306.132 1.69822 3.07983 0
M  V30 3330 H 306.006 0.0902132 3.77092 0
M  V30 3331 H 308.393 -0.420793 2.92084 0
M  V30 3332 H 308.474 1.21495 2.25106 0
M  V30 3333 H 308.118 2.16757 4.59324 0
M  V30 3334 H 308.048 0.509576 5.24129 0
M  V30 3335 H 310.539 0.76528 3.7007 0
M  V30 3336 H 310.852 2.17218 7.41644 0
M  V30 3337 H 309.197 1.94683 6.67176 0
M  V30 3338 H 312.388 1.0303 4.56621 0
M  V30 3339 H 312.561 1.67164 6.26067 0
M  V30 3340 N 305.967 -1.56429 0.191757 0
M  V30 3341 C 307.207 -1.99383 -0.450099 0
M  V30 3342 C 307.571 -1.07581 -1.59029 0
M  V30 3343 O 308.772 -1.39758 -2.29611 0
M  V30 3344 C 307.043 -3.45841 -0.901611 0
M  V30 3345 S 308.602 -4.10822 -1.54177 0
M  V30 3346 H 305.42 -0.696253 -0.144057 0
M  V30 3347 H 308.022 -1.93276 0.294036 0
M  V30 3348 H 306.726 -4.10354 -0.0616596 0
M  V30 3349 H 306.257 -3.55757 -1.67929 0
M  V30 3350 H 308.272 -4.07553 -2.83046 0
M  V30 3351 N 307.445 0.0818655 -1.57387 0
M  V30 3352 C 308.392 1.09834 -2.0299 0
M  V30 3353 C 309.362 1.39043 -0.908639 0
M  V30 3354 O 310.547 1.50282 -1.17559 0
M  V30 3355 C 307.687 2.40971 -2.47037 0
M  V30 3356 C 306.8 2.18379 -3.7274 0
M  V30 3357 C 305.935 3.43008 -4.0561 0
M  V30 3358 C 304.974 3.15736 -5.24383 0
M  V30 3359 N 304.111 4.32667 -5.52941 0
M  V30 3360 H 308.951 0.702472 -2.89602 0
M  V30 3361 H 306.488 0.33531 -1.43227 0
M  V30 3362 H 308.446 3.1752 -2.70623 0
M  V30 3363 H 307.076 2.78379 -1.63417 0
M  V30 3364 H 306.128 1.32569 -3.56552 0
M  V30 3365 H 307.44 1.94227 -4.59431 0
M  V30 3366 H 306.594 4.27958 -4.30043 0
M  V30 3367 H 305.333 3.70225 -3.17466 0
M  V30 3368 H 304.338 2.2918 -4.99757 0
M  V30 3369 H 305.563 2.8985 -6.14136 0
M  V30 3370 H 303.509 4.59935 -4.67756 0
M  V30 3371 H 303.426 4.11753 -6.34031 0
M  V30 3372 H 304.694 5.18644 -5.81918 0
M  V30 3373 N 308.923 1.53595 0.353017 0
M  V30 3374 C 310.334 1.61937 0.929153 0
M  V30 3375 C 310.685 0.494686 1.89861 0
M  V30 3376 O 309.81 -0.377017 2.1309 0
M  V30 3377 C 310.405 2.93526 1.69199 0
M  V30 3378 C 308.964 3.04161 2.21727 0
M  V30 3379 C 308.111 2.57322 1.03348 0
M  V30 3380 H 311.062 1.58155 0.131431 0
M  V30 3381 H 311.083 2.82034 2.55416 0
M  V30 3382 H 310.595 3.75362 0.986144 0
M  V30 3383 H 308.696 2.26938 2.95516 0
M  V30 3384 H 308.809 4.09465 2.48748 0
M  V30 3385 H 307.173 2.12499 1.40414 0
M  V30 3386 H 307.956 3.41588 0.342428 0
M  V30 3387 N 310.401 -0.613514 1.45168 0
M  V30 3388 C 311.678 -1.37263 1.39349 0
M  V30 3389 C 312.058 -2.11012 0.0610848 0
M  V30 3390 O 311.406 -2.07502 -0.956825 0
M  V30 3391 C 311.616 -2.3244 2.60332 0
M  V30 3392 C 312.964 -2.9523 3.05163 0
M  V30 3393 O 313.988 -2.42762 2.60663 0
M  V30 3394 O 312.847 -3.90454 3.82372 0
M  V30 3395 H 309.941 -0.615188 0.552696 0
M  V30 3396 H 312.487 -0.637097 1.57287 0
M  V30 3397 H 311.259 -1.77164 3.48896 0
M  V30 3398 H 310.882 -3.13383 2.44698 0
M  V30 3399 N 311.879 -1.3236 -0.855495 0
M  V30 3400 C 312.829 -1.17809 -1.95205 0
M  V30 3401 C 313.813 -0.0852319 -1.60674 0
M  V30 3402 O 315.005 -0.311651 -1.74235 0
M  V30 3403 C 312.134 -0.902437 -3.31226 0
M  V30 3404 C 311.22 -2.03695 -3.7198 0
M  V30 3405 N 311.611 -3.28544 -3.84568 0
M  V30 3406 C 309.909 -1.93993 -4.016 0
M  V30 3407 C 310.61 -4.02847 -4.19629 0
M  V30 3408 N 309.586 -3.31138 -4.31102 0
M  V30 3409 H 313.388 -2.12462 -2.0307 0
M  V30 3410 H 310.902 -1.24127 -1.0472 0
M  V30 3411 H 312.899 -0.77915 -4.09554 0
M  V30 3412 H 311.559 0.0357267 -3.2468 0
M  V30 3413 H 312.57 -3.6349 -3.68911 0
M  V30 3414 H 309.247 -1.07733 -4.03361 0
M  V30 3415 H 310.637 -5.10506 -4.36845 0
M  V30 3416 N 313.357 1.07166 -1.15556 0
M  V30 3417 C 314.605 1.79443 -0.929764 0
M  V30 3418 C 314.926 1.87246 0.544414 0
M  V30 3419 O 314.196 1.37473 1.39564 0
M  V30 3420 H 312.776 0.664625 -0.341003 0
M  V30 3421 H 315.438 1.29499 -1.45657 0
M  V30 3422 H 314.534 2.81832 -1.34079 0
M  V30 3423 N 314.835 0.952656 1.25548 0
M  V30 3424 C 316.065 0.622592 1.96996 0
M  V30 3425 C 316.473 -0.809112 1.71026 0
M  V30 3426 O 315.816 -1.55258 0.981861 0
M  V30 3427 C 315.878 0.798946 3.5051 0
M  V30 3428 C 315.542 2.20744 4.00151 0
M  V30 3429 C 316.539 3.18394 4.11001 0
M  V30 3430 C 314.224 2.5311 4.33867 0
M  V30 3431 C 316.218 4.46504 4.54877 0
M  V30 3432 C 313.905 3.8145 4.7743 0
M  V30 3433 C 314.903 4.77959 4.87897 0
M  V30 3434 O 314.591 6.04012 5.30494 0
M  V30 3435 H 314.323 0.232503 0.634758 0
M  V30 3436 H 316.877 1.2789 1.60728 0
M  V30 3437 H 315.107 0.0854903 3.86605 0
M  V30 3438 H 316.796 0.47023 4.03167 0
M  V30 3439 H 317.562 2.94715 3.85186 0
M  V30 3440 H 313.441 1.78719 4.24948 0
M  V30 3441 H 316.985 5.21835 4.62962 0
M  V30 3442 H 312.882 4.04936 5.0269 0
M  V30 3443 H 313.65 6.0736 5.48685 0
M  V30 3444 N 316.313 -1.40141 0.720998 0
M  V30 3445 C 317.559 -2.01572 0.272075 0
M  V30 3446 C 317.914 -1.5616 -1.12391 0
M  V30 3447 O 317.207 -0.774198 -1.75262 0
M  V30 3448 C 317.401 -3.56165 0.296892 0
M  V30 3449 C 317.23 -4.16584 1.69375 0
M  V30 3450 C 316 -4.49783 2.30269 0
M  V30 3451 C 318.198 -4.41076 2.64493 0
M  V30 3452 N 316.18 -4.95626 3.62254 0
M  V30 3453 C 317.551 -4.88971 3.81192 0
M  V30 3454 C 319.606 -4.23122 2.62435 0
M  V30 3455 C 318.309 -5.20796 4.96149 0
M  V30 3456 C 320.335 -4.56052 3.76524 0
M  V30 3457 C 319.697 -5.04141 4.91956 0
M  V30 3458 H 315.796 -0.768343 0.145511 0
M  V30 3459 H 318.38 -1.70287 0.943959 0
M  V30 3460 H 316.551 -3.86868 -0.344578 0
M  V30 3461 H 318.283 -4.04346 -0.169254 0
M  V30 3462 H 315.038 -4.37101 1.82318 0
M  V30 3463 H 315.462 -5.22923 4.29977 0
M  V30 3464 H 320.104 -3.85158 1.74393 0
M  V30 3465 H 317.822 -5.57672 5.84831 0
M  V30 3466 H 321.408 -4.43796 3.76213 0
M  V30 3467 H 320.288 -5.29142 5.78774 0
M  V30 3468 N 317.792 -0.46758 -1.50504 0
M  V30 3469 C 319.017 0.0886943 -2.0721 0
M  V30 3470 C 319.442 1.33057 -1.32956 0
M  V30 3471 O 318.8 1.77354 -0.376197 0
M  V30 3472 C 318.848 0.359202 -3.58806 0
M  V30 3473 O 317.952 1.44034 -3.8643 0
M  V30 3474 H 317.293 -0.0114349 -0.663902 0
M  V30 3475 H 319.823 -0.657613 -1.93744 0
M  V30 3476 H 319.833 0.600742 -4.03553 0
M  V30 3477 H 318.508 -0.548311 -4.1227 0
M  V30 3478 H 317.085 1.18638 -3.53524 0
M  V30 3479 N 319.27 1.56325 -0.20005 0
M  V30 3480 C 320.233 2.18084 0.705132 0
M  V30 3481 C 321.233 1.13666 1.1374 0
M  V30 3482 O 322.423 1.39023 1.04968 0
M  V30 3483 C 319.555 2.78689 1.96329 0
M  V30 3484 H 320.748 2.99435 0.167023 0
M  V30 3485 H 318.301 1.56221 0.0495725 0
M  V30 3486 H 319.036 2.0115 2.5438 0
M  V30 3487 H 318.821 3.55133 1.66202 0
M  V30 3488 H 320.311 3.26096 2.60866 0
M  V30 3489 N 320.748 -0.0735177 1.57428 0
M  V30 3490 C 321.994 -0.768909 1.88307 0
M  V30 3491 C 322.349 -1.75273 0.793535 0
M  V30 3492 O 321.642 -1.90527 -0.202466 0
M  V30 3493 C 321.836 -1.51799 3.23561 0
M  V30 3494 C 321.665 -0.608217 4.45568 0
M  V30 3495 C 320.435 -0.245808 5.04702 0
M  V30 3496 C 322.633 0.0942904 5.14214 0
M  V30 3497 N 320.615 0.66987 6.10234 0
M  V30 3498 C 321.986 0.867222 6.13905 0
M  V30 3499 C 324.041 0.165943 4.97623 0
M  V30 3500 C 322.744 1.70515 6.98797 0
M  V30 3501 C 324.77 0.990837 5.83041 0
M  V30 3502 C 324.132 1.75182 6.82269 0
M  V30 3503 H 320.231 -0.25685 0.738615 0
M  V30 3504 H 322.815 -0.030499 1.94676 0
M  V30 3505 H 320.986 -2.22713 3.18203 0
M  V30 3506 H 322.718 -2.16226 3.42094 0
M  V30 3507 H 319.473 -0.598284 4.69806 0
M  V30 3508 H 319.897 1.1209 6.67656 0
M  V30 3509 H 324.539 -0.408064 4.20826 0
M  V30 3510 H 322.257 2.29013 7.7497 0
M  V30 3511 H 325.843 1.04923 5.72261 0
M  V30 3512 H 324.723 2.37983 7.47217 0
M  V30 3513 N 322.226 -1.5378 -0.344866 0
M  V30 3514 C 323.451 -1.75211 -1.10977 0
M  V30 3515 C 323.876 -0.48936 -1.81623 0
M  V30 3516 O 323.234 0.557925 -1.72502 0
M  V30 3517 C 323.282 -2.93147 -2.09993 0
M  V30 3518 O 322.386 -2.63203 -3.17487 0
M  V30 3519 H 321.727 -0.581241 -0.321021 0
M  V30 3520 H 324.257 -2.00738 -0.395661 0
M  V30 3521 H 324.267 -3.19898 -2.53237 0
M  V30 3522 H 322.942 -3.84731 -1.5797 0
M  V30 3523 H 321.519 -2.47336 -2.79069 0
M  V30 3524 N 323.704 0.605807 -1.45491 0
M  V30 3525 C 325.115 1.18777 -1.44045 0
M  V30 3526 C 325.466 1.95471 -0.169001 0
M  V30 3527 O 324.591 2.0374 0.729324 0
M  V30 3528 C 325.186 2.16064 -2.60963 0
M  V30 3529 C 323.745 2.69633 -2.62631 0
M  V30 3530 C 322.892 1.45072 -2.36325 0
M  V30 3531 H 325.843 0.395017 -1.53705 0
M  V30 3532 H 325.864 2.9913 -2.35163 0
M  V30 3533 H 325.376 1.60217 -3.53486 0
M  V30 3534 H 323.477 3.29414 -1.74119 0
M  V30 3535 H 323.59 3.13944 -3.61906 0
M  V30 3536 H 321.954 1.74089 -1.85917 0
M  V30 3537 H 322.737 0.910899 -3.30995 0
M  V30 3538 N 325.182 1.32811 0.848464 0
M  V30 3539 C 326.145 1.22194 1.9391 0
M  V30 3540 C 327.145 0.143404 1.60159 0
M  V30 3541 O 328.335 0.394253 1.6968 0
M  V30 3542 C 325.467 0.88067 3.29328 0
M  V30 3543 H 326.66 2.19127 2.04752 0
M  V30 3544 H 324.213 1.16731 1.0394 0
M  V30 3545 H 324.948 -0.0865776 3.24184 0
M  V30 3546 H 324.733 1.66052 3.55203 0
M  V30 3547 H 326.223 0.830871 4.09251 0
M  V30 3548 N 326.66 -1.06551 1.16123 0
M  V30 3549 C 327.888 -1.83005 0.965237 0
M  V30 3550 C 328.303 -1.82423 -0.486542 0
M  V30 3551 O 327.66 -1.24152 -1.33763 0
M  V30 3552 C 327.711 -3.29733 1.48183 0
M  V30 3553 O 327.432 -3.30416 2.87674 0
M  V30 3554 C 328.933 -4.22926 1.32848 0
M  V30 3555 H 326.153 -0.577118 0.342309 0
M  V30 3556 H 328.697 -1.3445 1.54089 0
M  V30 3557 H 326.852 -3.75609 0.948517 0
M  V30 3558 H 327.266 -4.22149 3.11272 0
M  V30 3559 H 328.74 -5.23916 1.73827 0
M  V30 3560 H 329.217 -4.38346 0.273692 0
M  V30 3561 H 329.823 -3.82894 1.85127 0
M  V30 3562 N 328.138 -0.959301 -1.25041 0
M  V30 3563 C 329.385 -0.616611 -1.92884 0
M  V30 3564 C 329.713 0.847036 -1.75087 0
M  V30 3565 O 328.968 1.62374 -1.09239 0
M  V30 3566 C 329.267 -0.927136 -3.45165 0
M  V30 3567 C 328.933 -2.37757 -3.83122 0
M  V30 3568 C 327.595 -2.77402 -3.93194 0
M  V30 3569 C 329.947 -3.31929 -4.01836 0
M  V30 3570 C 327.275 -4.10277 -4.19392 0
M  V30 3571 C 329.627 -4.64423 -4.29528 0
M  V30 3572 C 328.291 -5.03857 -4.37818 0
M  V30 3573 H 327.561 -0.225634 -0.705812 0
M  V30 3574 H 330.208 -1.20921 -1.48493 0
M  V30 3575 H 328.513 -0.252195 -3.90987 0
M  V30 3576 H 330.21 -0.6405 -3.95852 0
M  V30 3577 H 326.8 -2.06013 -3.75841 0
M  V30 3578 H 330.984 -3.02488 -3.93465 0
M  V30 3579 H 326.24 -4.40467 -4.24027 0
M  V30 3580 H 330.414 -5.37369 -4.42953 0
M  V30 3581 H 328.041 -6.06843 -4.57871 0
M  V30 3582 N 329.616 1.39756 -0.72842 0
M  V30 3583 C 330.865 1.99879 -0.270407 0
M  V30 3584 C 331.178 1.58449 1.14688 0
M  V30 3585 O 332.384 2.11362 1.70407 0
M  V30 3586 C 330.84 3.57292 -0.43252 0
M  V30 3587 C 330.448 4.07688 -1.85727 0
M  V30 3588 C 332.192 4.24485 -0.0359507 0
M  V30 3589 C 330.099 5.5765 -1.96928 0
M  V30 3590 H 329.029 0.747689 -0.0973472 0
M  V30 3591 H 331.68 1.59837 -0.901355 0
M  V30 3592 H 330.062 3.95097 0.267219 0
M  V30 3593 H 331.236 3.81231 -2.58843 0
M  V30 3594 H 329.551 3.53135 -2.20646 0
M  V30 3595 H 332.148 5.34609 -0.0987484 0
M  V30 3596 H 332.491 4.03915 1.00787 0
M  V30 3597 H 333.024 3.9183 -0.686604 0
M  V30 3598 H 329.763 5.8309 -2.99476 0
M  V30 3599 H 329.283 5.8593 -1.28241 0
M  V30 3600 H 330.962 6.22957 -1.74737 0
M  V30 3601 N 331.094 0.475555 1.50254 0
M  V30 3602 C 332.026 -0.352649 2.26471 0
M  V30 3603 C 333.039 -0.953165 1.3198 0
M  V30 3604 O 334.228 -0.840815 1.57457 0
M  V30 3605 C 331.328 -1.50902 3.0345 0
M  V30 3606 C 330.501 -1.02047 4.25329 0
M  V30 3607 C 329.56 -2.05142 4.84565 0
M  V30 3608 O 328.586 -1.63023 5.45355 0
M  V30 3609 N 329.788 -3.37987 4.71959 0
M  V30 3610 H 332.553 0.300767 2.98187 0
M  V30 3611 H 330.114 0.306598 1.5897 0
M  V30 3612 H 332.106 -2.19572 3.39956 0
M  V30 3613 H 330.676 -2.06705 2.34504 0
M  V30 3614 H 329.896 -0.159507 3.93877 0
M  V30 3615 H 331.184 -0.672061 5.04342 0
M  V30 3616 H 330.582 -3.74913 4.23623 0
M  V30 3617 H 329.139 -4.02443 5.12721 0
M  V30 3618 N 332.573 -1.56217 0.208337 0
M  V30 3619 C 333.822 -1.97124 -0.427204 0
M  V30 3620 C 334.135 -1.09859 -1.61835 0
M  V30 3621 O 335.341 -1.40606 -2.32255 0
M  V30 3622 C 333.797 -3.50633 -0.811442 0
M  V30 3623 C 333.405 -4.46582 0.35615 0
M  V30 3624 C 335.149 -4.00282 -1.41332 0
M  V30 3625 C 333.056 -5.91379 -0.0497852 0
M  V30 3626 H 331.986 -0.736086 -0.163381 0
M  V30 3627 H 334.637 -1.8099 0.302456 0
M  V30 3628 H 333.019 -3.62319 -1.59815 0
M  V30 3629 H 334.193 -4.46636 1.1337 0
M  V30 3630 H 332.508 -4.07202 0.870396 0
M  V30 3631 H 335.105 -5.0595 -1.72972 0
M  V30 3632 H 335.448 -3.45359 -2.32449 0
M  V30 3633 H 335.981 -3.91764 -0.690323 0
M  V30 3634 H 332.72 -6.50255 0.827529 0
M  V30 3635 H 332.24 -5.94549 -0.791926 0
M  V30 3636 H 333.919 -6.45209 -0.481042 0
M  V30 3637 N 334.051 0.0651679 -1.57465 0
M  V30 3638 C 335.462 0.616213 -1.76238 0
M  V30 3639 C 335.813 1.7756 -0.834689 0
M  V30 3640 O 334.938 2.1639 -0.0204156 0
M  V30 3641 C 335.533 1.12462 -3.1959 0
M  V30 3642 C 334.092 1.62147 -3.39684 0
M  V30 3643 C 333.239 0.543739 -2.71917 0
M  V30 3644 H 336.19 -0.161022 -1.57881 0
M  V30 3645 H 336.211 1.99324 -3.24114 0
M  V30 3646 H 335.723 0.280592 -3.87084 0
M  V30 3647 H 333.824 2.48854 -2.77313 0
M  V30 3648 H 333.937 1.69385 -4.48158 0
M  V30 3649 H 332.301 0.990352 -2.34657 0
M  V30 3650 H 333.084 -0.290216 -3.42071 0
M  V30 3651 N 335.529 1.53961 0.336706 0
M  V30 3652 C 336.754 1.75797 1.10046 0
M  V30 3653 C 337.179 0.498985 1.81361 0
M  V30 3654 O 336.537 -0.548769 1.72795 0
M  V30 3655 C 336.585 2.94257 2.08436 0
M  V30 3656 O 335.689 2.64883 3.16087 0
M  V30 3657 H 335.03 0.582936 0.317934 0
M  V30 3658 H 337.56 2.00945 0.38501 0
M  V30 3659 H 337.57 3.21237 2.51537 0
M  V30 3660 H 336.245 3.85564 1.55927 0
M  V30 3661 H 334.822 2.48812 2.77753 0
M  V30 3662 N 337.007 -0.598083 1.45811 0
M  V30 3663 C 338.284 -1.35777 1.40797 0
M  V30 3664 C 338.664 -2.10935 0.083462 0
M  V30 3665 O 338.012 -2.08505 -0.934763 0
M  V30 3666 C 338.222 -2.29666 2.62783 0
M  V30 3667 C 339.57 -2.91977 3.08277 0
M  V30 3668 O 340.594 -2.39984 2.63223 0
M  V30 3669 O 339.453 -3.86376 3.86491 0
M  V30 3670 H 336.547 -0.609291 0.55919 0
M  V30 3671 H 339.093 -0.620379 1.57954 0
M  V30 3672 H 337.865 -1.73454 3.50756 0
M  V30 3673 H 337.488 -3.1077 2.48008 0
M  V30 3674 N 338.485 -1.33259 -0.841409 0
M  V30 3675 C 339.732 -1.24572 -1.5965 0
M  V30 3676 C 340.06 0.189137 -1.93578 0
M  V30 3677 O 339.315 1.14566 -1.5866 0
M  V30 3678 C 339.614 -2.06381 -2.9179 0
M  V30 3679 C 339.28 -3.556 -2.77235 0
M  V30 3680 C 337.942 -3.96282 -2.72973 0
M  V30 3681 C 340.294 -4.50433 -2.62221 0
M  V30 3682 C 337.622 -5.30017 -2.51592 0
M  V30 3683 C 339.974 -5.84327 -2.42374 0
M  V30 3684 C 338.638 -6.24194 -2.36512 0
M  V30 3685 H 337.908 -0.455842 -0.5842 0
M  V30 3686 H 340.555 -1.6482 -0.975016 0
M  V30 3687 H 338.86 -1.58903 -3.5813 0
M  V30 3688 H 340.557 -1.97019 -3.49263 0
M  V30 3689 H 337.147 -3.23298 -2.81384 0
M  V30 3690 H 341.331 -4.19914 -2.64549 0
M  V30 3691 H 336.587 -5.59947 -2.45499 0
M  V30 3692 H 340.761 -6.57414 -2.29739 0
M  V30 3693 H 338.388 -7.27759 -2.19706 0
M  V30 3694 N 339.963 1.05934 -1.16686 0
M  V30 3695 C 341.191 1.8249 -0.974929 0
M  V30 3696 C 341.606 1.82679 0.476861 0
M  V30 3697 O 340.963 1.2486 1.33103 0
M  V30 3698 C 341.014 3.28943 -1.49929 0
M  V30 3699 O 340.735 3.28886 -2.89423 0
M  V30 3700 C 342.236 4.22215 -1.35089 0
M  V30 3701 H 339.456 0.575295 -0.345365 0
M  V30 3702 H 342 1.33631 -1.548 0
M  V30 3703 H 340.155 3.751 -0.968423 0
M  V30 3704 H 340.569 4.20493 -3.13506 0
M  V30 3705 H 342.043 5.22987 -1.76603 0
M  V30 3706 H 342.52 4.38195 -0.296935 0
M  V30 3707 H 343.126 3.81907 -1.87155 0
M  V30 3708 N 341.441 0.965919 1.2453 0
M  V30 3709 C 342.374 0.4393 2.23932 0
M  V30 3710 C 343.352 -0.485615 1.55179 0
M  V30 3711 O 344.536 -0.417402 1.83821 0
M  V30 3712 C 341.663 -0.366042 3.36716 0
M  V30 3713 C 340.709 0.5009 4.23548 0
M  V30 3714 S 341.542 1.94002 4.99123 0
M  V30 3715 C 342.698 1.14342 6.15367 0
M  V30 3716 H 342.931 1.28167 2.68254 0
M  V30 3717 H 340.464 0.770819 1.33782 0
M  V30 3718 H 342.422 -0.824724 4.0213 0
M  V30 3719 H 341.083 -1.18337 2.90956 0
M  V30 3720 H 340.276 -0.117341 5.03863 0
M  V30 3721 H 339.878 0.89524 3.63127 0
M  V30 3722 H 342.17 0.397572 6.76332 0
M  V30 3723 H 343.113 1.92089 6.81548 0
M  V30 3724 H 343.521 0.668579 5.60527 0
M  V30 3725 N 342.919 -1.39368 0.735821 0
M  V30 3726 C 343.867 -2.32443 0.0855131 0
M  V30 3727 C 344.861 -1.53104 -0.724954 0
M  V30 3728 O 346.067 -1.68762 -0.626047 0
M  V30 3729 H 342.442 -0.751948 0.00885257 0
M  V30 3730 H 344.413 -2.84916 0.886883 0
M  V30 3731 C 343.162 -3.38206 -0.806983 0
M  V30 3732 H 342.485 -3.99335 -0.19274 0
M  V30 3733 H 343.925 -4.05779 -1.2296 0
M  V30 3734 C 342.384 -2.75321 -1.94165 0
M  V30 3735 O 342.914 -2.63231 -3.03435 0
M  V30 3736 N 341.12 -2.33396 -1.73132 0
M  V30 3737 H 340.667 -2.4343 -0.842596 0
M  V30 3738 H 340.625 -1.91661 -2.49225 0
M  V30 3739 N 344.397 -0.483516 -1.5 0
M  V30 3740 C 345.674 0.129337 -1.95172 0
M  V30 3741 C 346.054 1.55802 -1.4244 0
M  V30 3742 O 345.402 2.19625 -0.630649 0
M  V30 3743 C 345.612 0.0599251 -3.48949 0
M  V30 3744 C 346.96 0.242617 -4.23906 0
M  V30 3745 O 347.984 0.135933 -3.55941 0
M  V30 3746 O 346.843 0.459454 -5.44565 0
M  V30 3747 H 343.937 0.104887 -0.820322 0
M  V30 3748 H 346.483 -0.544807 -1.60717 0
M  V30 3749 H 345.255 -0.937079 -3.79914 0
M  V30 3750 H 344.878 0.774984 -3.89974 0
M  V30 3751 N 345.875 1.56104 -0.216619 0
M  V30 3752 C 347.103 2.02563 0.421413 0
M  V30 3753 C 347.518 1.0965 1.53695 0
M  V30 3754 O 346.875 0.10521 1.82196 0
M  V30 3755 C 346.926 3.48584 0.957665 0
M  V30 3756 O 346.647 4.37953 -0.113389 0
M  V30 3757 C 348.148 4.10664 1.66943 0
M  V30 3758 H 345.368 0.662944 0.103665 0
M  V30 3759 H 347.912 2.01793 -0.331629 0
M  V30 3760 H 346.067 3.49985 1.661 0
M  V30 3761 H 346.481 5.23704 0.288932 0
M  V30 3762 H 347.955 5.14622 1.99671 0
M  V30 3763 H 348.432 3.55373 2.58083 0
M  V30 3764 H 349.038 4.13098 1.01142 0
M  V30 3765 N 347.353 -0.0568162 1.57498 0
M  V30 3766 C 348.581 -0.765626 1.92213 0
M  V30 3767 C 348.996 -1.70353 0.813961 0
M  V30 3768 O 348.353 -1.81268 -0.211701 0
M  V30 3769 C 348.404 -1.5465 3.2675 0
M  V30 3770 O 348.125 -0.646278 4.33307 0
M  V30 3771 C 349.626 -2.35497 3.75574 0
M  V30 3772 H 346.846 -0.216835 0.634999 0
M  V30 3773 H 349.39 -0.0226146 2.04487 0
M  V30 3774 H 347.545 -2.24165 3.15957 0
M  V30 3775 H 347.959 -1.19093 5.108 0
M  V30 3776 H 349.433 -2.85722 4.72299 0
M  V30 3777 H 349.91 -3.15692 3.05344 0
M  V30 3778 H 350.516 -1.7111 3.8936 0
M  V30 3779 N 348.832 -1.54138 -0.328536 0
M  V30 3780 C 350.078 -1.7236 -1.06865 0
M  V30 3781 C 350.411 -0.493231 -1.87832 0
M  V30 3782 O 349.686 0.5098 -1.877 0
M  V30 3783 C 349.969 -2.99621 -1.99747 0
M  V30 3784 C 349.822 -4.32899 -1.22143 0
M  V30 3785 C 351.141 -3.22615 -2.99345 0
M  V30 3786 H 348.26 -0.627151 -0.387105 0
M  V30 3787 H 350.902 -1.86827 -0.345767 0
M  V30 3788 H 349.052 -2.87418 -2.61387 0
M  V30 3789 H 350.724 -4.56978 -0.630017 0
M  V30 3790 H 348.967 -4.30628 -0.523628 0
M  V30 3791 H 349.638 -5.18154 -1.90318 0
M  V30 3792 H 352.114 -3.34248 -2.47826 0
M  V30 3793 H 350.99 -4.13027 -3.61524 0
M  V30 3794 H 351.251 -2.3961 -3.71536 0
M  V30 3795 N 350.31 0.590341 -1.46126 0
M  V30 3796 C 351.556 1.34874 -1.52252 0
M  V30 3797 C 351.911 1.91658 -0.168807 0
M  V30 3798 O 351.204 1.73093 0.821556 0
M  V30 3799 C 351.398 2.5032 -2.55097 0
M  V30 3800 C 351.227 2.04843 -4.00337 0
M  V30 3801 C 349.997 1.90213 -4.68132 0
M  V30 3802 C 352.195 1.61267 -4.88362 0
M  V30 3803 N 350.177 1.38727 -5.9802 0
M  V30 3804 C 351.548 1.21319 -6.08015 0
M  V30 3805 C 353.603 1.49015 -4.75078 0
M  V30 3806 C 352.306 0.7034 -7.15852 0
M  V30 3807 C 354.332 0.994401 -5.8298 0
M  V30 3808 C 353.694 0.604659 -7.018 0
M  V30 3809 H 349.793 0.486803 -0.612002 0
M  V30 3810 H 352.377 0.673007 -1.82698 0
M  V30 3811 H 350.548 3.15466 -2.26574 0
M  V30 3812 H 352.28 3.1725 -2.51266 0
M  V30 3813 H 349.035 2.11927 -4.23537 0
M  V30 3814 H 349.459 1.15168 -6.67132 0
M  V30 3815 H 354.101 1.77768 -3.83612 0
M  V30 3816 H 351.819 0.403446 -8.07092 0
M  V30 3817 H 355.405 0.903621 -5.7474 0
M  V30 3818 H 354.285 0.226963 -7.83871 0
M  V30 3819 N 351.788 1.33704 0.83433 0
M  V30 3820 C 353.037 1.24763 1.58484 0
M  V30 3821 C 353.35 -0.183775 1.94735 0
M  V30 3822 O 354.556 -0.395234 2.68608 0
M  V30 3823 C 353.012 2.18638 2.85876 0
M  V30 3824 C 352.62 3.66974 2.56971 0
M  V30 3825 C 354.364 2.18581 3.63899 0
M  V30 3826 C 352.271 4.5275 3.80488 0
M  V30 3827 H 351.201 0.463425 0.594772 0
M  V30 3828 H 353.852 1.58797 0.919551 0
M  V30 3829 H 352.234 1.77542 3.5397 0
M  V30 3830 H 353.408 4.16538 1.9706 0
M  V30 3831 H 351.723 3.69366 1.92244 0
M  V30 3832 H 354.32 2.79894 4.55591 0
M  V30 3833 H 354.663 1.18207 3.99165 0
M  V30 3834 H 355.196 2.58062 3.02735 0
M  V30 3835 H 351.935 5.54017 3.5035 0
M  V30 3836 H 351.455 4.07927 4.39722 0
M  V30 3837 H 353.134 4.66784 4.4802 0
M  V30 3838 N 353.266 -1.05314 1.17247 0
M  V30 3839 C 354.491 -1.82509 0.985148 0
M  V30 3840 C 354.916 -1.82343 -0.461788 0
M  V30 3841 O 354.274 -1.23151 -1.33055 0
M  V30 3842 C 354.322 -3.26566 1.52929 0
M  V30 3843 O 353.426 -4.05666 0.742225 0
M  V30 3844 H 352.767 -0.564347 0.349869 0
M  V30 3845 H 355.297 -1.32718 1.55715 0
M  V30 3846 H 355.307 -3.77369 1.55103 0
M  V30 3847 H 353.982 -3.26001 2.58256 0
M  V30 3848 H 352.559 -3.64397 0.791794 0
M  V30 3849 N 354.744 -0.972509 -1.24016 0
M  V30 3850 C 355.99 -0.637978 -1.92504 0
M  V30 3851 C 356.323 0.825383 -1.75787 0
M  V30 3852 O 355.598 1.59442 -1.11393 0
M  V30 3853 C 355.881 -1.01942 -3.45369 0
M  V30 3854 C 355.734 -2.53983 -3.71231 0
M  V30 3855 C 357.053 -0.55751 -4.36555 0
M  V30 3856 H 354.172 -0.233248 -0.699117 0
M  V30 3857 H 356.814 -1.21238 -1.46292 0
M  V30 3858 H 354.964 -0.530656 -3.84859 0
M  V30 3859 H 356.636 -3.10374 -3.41271 0
M  V30 3860 H 354.879 -2.96968 -3.16216 0
M  V30 3861 H 355.55 -2.75723 -4.78206 0
M  V30 3862 H 358.026 -0.977029 -4.04467 0
M  V30 3863 H 356.902 -0.85292 -5.42233 0
M  V30 3864 H 357.163 0.542328 -4.38761 0
M  V30 3865 N 356.222 1.38976 -0.743202 0
M  V30 3866 C 357.185 2.28901 -0.117014 0
M  V30 3867 C 358.185 1.46698 0.658503 0
M  V30 3868 O 359.375 1.67274 0.486305 0
M  V30 3869 C 356.507 3.30309 0.84315 0
M  V30 3870 H 357.7 2.8578 -0.909373 0
M  V30 3871 H 355.253 1.47761 -0.509547 0
M  V30 3872 H 355.988 2.785 1.66157 0
M  V30 3873 H 355.773 3.91029 0.289594 0
M  V30 3874 H 357.263 3.97577 1.2776 0
M  V30 3875 N 357.7 0.491464 1.49741 0
M  V30 3876 C 358.946 -0.0565092 2.02721 0
M  V30 3877 C 359.279 -1.37522 1.37118 0
M  V30 3878 O 358.554 -1.87866 0.503645 0
M  V30 3879 C 358.837 -0.219051 3.59433 0
M  V30 3880 C 358.69 1.12211 4.35579 0
M  V30 3881 C 360.009 -0.964157 4.29409 0
M  V30 3882 H 357.128 -0.0190627 0.736753 0
M  V30 3883 H 359.77 0.641021 1.7886 0
M  V30 3884 H 357.92 -0.813165 3.79895 0
M  V30 3885 H 359.592 1.75437 4.26637 0
M  V30 3886 H 357.835 1.71377 3.98513 0
M  V30 3887 H 358.506 0.961794 5.43556 0
M  V30 3888 H 360.982 -0.460378 4.13545 0
M  V30 3889 H 359.858 -1.04671 5.38828 0
M  V30 3890 H 360.119 -2.00563 3.93988 0
M  V30 3891 N 359.178 -1.55987 0.224894 0
M  V30 3892 C 360.108 -2.23426 -0.678457 0
M  V30 3893 C 361.089 -1.20709 -1.19847 0
M  V30 3894 O 362.274 -1.49304 -1.24186 0
M  V30 3895 C 359.404 -2.91676 -1.88527 0
M  V30 3896 C 358.358 -4.00893 -1.49896 0
M  V30 3897 C 357.684 -4.56455 -2.78483 0
M  V30 3898 C 358.984 -5.17769 -0.686461 0
M  V30 3899 H 360.678 -2.99175 -0.116173 0
M  V30 3900 H 358.224 -1.43897 -0.054436 0
M  V30 3901 H 360.177 -3.37547 -2.5227 0
M  V30 3902 H 358.901 -2.1338 -2.47258 0
M  V30 3903 H 357.56 -3.55758 -0.884985 0
M  V30 3904 H 357.208 -3.74886 -3.35365 0
M  V30 3905 H 356.908 -5.30169 -2.53368 0
M  V30 3906 H 358.432 -5.05047 -3.43162 0
M  V30 3907 H 359.846 -5.60001 -1.22767 0
M  V30 3908 H 358.243 -5.97735 -0.532259 0
M  V30 3909 H 359.313 -4.83932 0.306196 0
M  V30 3910 N 360.656 0.0484629 -1.57525 0
M  V30 3911 C 361.881 0.759177 -1.93006 0
M  V30 3912 C 362.306 1.69125 -0.823317 0
M  V30 3913 O 361.664 1.79931 0.222364 0
M  V30 3914 C 361.712 1.50899 -3.27509 0
M  V30 3915 O 360.816 2.62112 -3.18388 0
M  V30 3916 H 360.157 0.205564 -0.631379 0
M  V30 3917 H 362.687 0.00972959 -2.04598 0
M  V30 3918 H 362.697 1.88317 -3.6194 0
M  V30 3919 H 361.372 0.825269 -4.0763 0
M  V30 3920 H 359.949 2.27379 -2.95556 0
M  V30 3921 N 362.134 1.5431 0.320358 0
M  V30 3922 C 363.097 1.83195 1.3774 0
M  V30 3923 C 364.097 0.703906 1.44575 0
M  V30 3924 O 365.287 0.972214 1.44546 0
M  V30 3925 C 362.419 1.99487 2.76438 0
M  V30 3926 H 363.612 2.77642 1.1338 0
M  V30 3927 H 361.165 1.46076 0.556012 0
M  V30 3928 H 361.9 1.07262 3.06048 0
M  V30 3929 H 361.685 2.81575 2.7287 0
M  V30 3930 H 363.175 2.23271 3.52902 0
M  V30 3931 N 363.613 -0.582584 1.46437 0
M  V30 3932 C 364.859 -1.34278 1.51978 0
M  V30 3933 C 365.192 -1.93446 0.170973 0
M  V30 3934 O 364.467 -1.76481 -0.817608 0
M  V30 3935 C 364.75 -2.47203 2.61845 0
M  V30 3936 C 364.603 -1.93069 4.06257 0
M  V30 3937 C 365.922 -3.49247 2.67795 0
M  V30 3938 H 363.041 -0.486876 0.553282 0
M  V30 3939 H 365.683 -0.654437 1.78374 0
M  V30 3940 H 363.833 -3.0592 2.39469 0
M  V30 3941 H 365.505 -1.38808 4.3992 0
M  V30 3942 H 363.748 -1.23898 4.1573 0
M  V30 3943 H 364.419 -2.74586 4.7886 0
M  V30 3944 H 366.895 -3.00411 2.8791 0
M  V30 3945 H 365.771 -4.25719 3.46489 0
M  V30 3946 H 366.032 -4.06482 1.73852 0
M  V30 3947 N 365.091 -1.34144 -0.827227 0
M  V30 3948 C 366.34 -1.25602 -1.5782 0
M  V30 3949 C 366.653 0.173445 -1.94829 0
M  V30 3950 O 367.859 0.380984 -2.68814 0
M  V30 3951 C 366.315 -2.20151 -2.84713 0
M  V30 3952 C 365.923 -3.68331 -2.55021 0
M  V30 3953 C 367.667 -2.20508 -3.62735 0
M  V30 3954 C 365.574 -4.54762 -3.78082 0
M  V30 3955 H 364.504 -0.466573 -0.592306 0
M  V30 3956 H 367.155 -1.59283 -0.911116 0
M  V30 3957 H 365.537 -1.79417 -3.53023 0
M  V30 3958 H 366.711 -4.17577 -1.94849 0
M  V30 3959 H 365.026 -3.7038 -1.90283 0
M  V30 3960 H 367.623 -2.82306 -4.54101 0
M  V30 3961 H 367.966 -1.20322 -3.98533 0
M  V30 3962 H 368.499 -2.59664 -3.01362 0
M  V30 3963 H 365.238 -5.55867 -3.47407 0
M  V30 3964 H 364.758 -4.10254 -4.37552 0
M  V30 3965 H 366.437 -4.69153 -4.45538 0
M  V30 3966 N 366.569 1.04691 -1.17803 0
M  V30 3967 C 367.809 1.79352 -0.980423 0
M  V30 3968 C 368.173 1.85853 0.481958 0
M  V30 3969 O 369.374 2.56656 0.798809 0
M  V30 3970 C 367.645 3.19088 -1.6099 0
M  V30 3971 S 369.204 4.10164 -1.55918 0
M  V30 3972 H 366.022 0.617631 -0.352211 0
M  V30 3973 H 368.624 1.25575 -1.49837 0
M  V30 3974 H 367.328 3.11962 -2.66661 0
M  V30 3975 H 366.859 3.77941 -1.09197 0
M  V30 3976 H 368.874 4.92907 -0.570685 0
M  V30 3977 N 368.047 0.979072 1.23499 0
M  V30 3978 C 368.977 0.537606 2.27227 0
M  V30 3979 C 369.958 -0.428539 1.64613 0
M  V30 3980 O 371.143 -0.322191 1.91509 0
M  V30 3981 C 368.273 -0.162052 3.46922 0
M  V30 3982 C 367.227 0.721242 4.21879 0
M  V30 3983 C 366.553 -0.110555 5.34586 0
M  V30 3984 C 367.853 2.01141 4.82016 0
M  V30 3985 H 369.547 1.40462 2.64406 0
M  V30 3986 H 367.093 0.67684 1.27102 0
M  V30 3987 H 369.046 -0.482192 4.18632 0
M  V30 3988 H 367.77 -1.06351 3.08799 0
M  V30 3989 H 366.429 1.02482 3.51984 0
M  V30 3990 H 366.077 -1.0125 4.92704 0
M  V30 3991 H 365.777 0.477325 5.85658 0
M  V30 3992 H 367.301 -0.425107 6.09118 0
M  V30 3993 H 368.715 1.75612 5.45741 0
M  V30 3994 H 367.112 2.54695 5.43369 0
M  V30 3995 H 368.182 2.69909 4.02836 0
M  V30 3996 N 369.525 -1.3858 0.750561 0
M  V30 3997 C 370.774 -1.99424 0.302172 0
M  V30 3998 C 371.087 -1.60254 -1.12152 0
M  V30 3999 O 372.293 -2.14046 -1.67023 0
M  V30 4000 C 370.749 -3.56558 0.489307 0
M  V30 4001 C 370.357 -4.04682 1.92189 0
M  V30 4002 C 372.101 -4.24374 0.103478 0
M  V30 4003 C 370.008 -5.54446 2.05775 0
M  V30 4004 H 368.938 -0.746046 0.10923 0
M  V30 4005 H 371.589 -1.58383 0.92667 0
M  V30 4006 H 369.971 -3.95472 -0.204329 0
M  V30 4007 H 371.145 -3.77065 2.64875 0
M  V30 4008 H 369.46 -3.4958 2.26236 0
M  V30 4009 H 372.057 -5.34384 0.183787 0
M  V30 4010 H 372.4 -4.05468 -0.943481 0
M  V30 4011 H 372.933 -3.90688 0.748854 0
M  V30 4012 H 369.672 -5.78252 3.08714 0
M  V30 4013 H 369.192 -5.83816 1.37546 0
M  V30 4014 H 370.871 -6.20099 1.84626 0
M  V30 4015 N 371.003 -0.499398 -1.49478 0
M  V30 4016 C 372.252 0.0475259 -2.01644 0
M  V30 4017 C 372.565 1.38195 -1.38425 0
M  V30 4018 O 373.771 2.01547 -1.8191 0
M  V30 4019 C 372.227 0.135164 -3.59646 0
M  V30 4020 C 371.835 -1.19252 -4.31837 0
M  V30 4021 C 373.579 0.632538 -4.19761 0
M  V30 4022 C 371.486 -1.06713 -5.81693 0
M  V30 4023 H 370.416 0.0215349 -0.753692 0
M  V30 4024 H 373.067 -0.638577 -1.7203 0
M  V30 4025 H 371.449 0.885681 -3.85969 0
M  V30 4026 H 372.623 -1.9562 -4.17216 0
M  V30 4027 H 370.938 -1.62321 -3.83459 0
M  V30 4028 H 373.535 0.743833 -5.29501 0
M  V30 4029 H 373.878 1.63098 -3.83021 0
M  V30 4030 H 374.411 -0.0613987 -3.97753 0
M  V30 4031 H 371.15 -2.03979 -6.22955 0
M  V30 4032 H 370.67 -0.344307 -5.98811 0
M  V30 4033 H 372.349 -0.745208 -6.42694 0
M  V30 4034 N 372.481 1.55866 -0.233164 0
M  V30 4035 C 373.727 1.98897 0.395959 0
M  V30 4036 C 374.06 1.12091 1.58585 0
M  V30 4037 O 373.335 0.181182 1.93654 0
M  V30 4038 C 373.618 3.50658 0.819224 0
M  V30 4039 C 373.471 4.48233 -0.375109 0
M  V30 4040 C 374.79 4.07135 1.67121 0
M  V30 4041 H 371.909 0.723102 0.142451 0
M  V30 4042 H 374.551 1.87082 -0.331725 0
M  V30 4043 H 372.701 3.60857 1.43925 0
M  V30 4044 H 374.373 4.50031 -1.01341 0
M  V30 4045 H 372.616 4.21624 -1.02058 0
M  V30 4046 H 373.287 5.51988 -0.0358328 0
M  V30 4047 H 375.763 3.99952 1.14795 0
M  V30 4048 H 374.639 5.13615 1.93625 0
M  V30 4049 H 374.9 3.54736 2.63846 0
M  V30 4050 N 373.959 -0.0401083 1.57549 0
M  V30 4051 C 375.205 -0.728793 1.89895 0
M  V30 4052 C 375.56 -1.73551 0.830535 0
M  V30 4053 O 374.853 -1.90914 -0.162007 0
M  V30 4054 C 375.047 -1.44902 3.26708 0
M  V30 4055 C 374.876 -0.513568 4.46758 0
M  V30 4056 C 373.646 -0.138698 5.0511 0
M  V30 4057 C 375.844 0.203341 5.13898 0
M  V30 4058 N 373.826 0.799159 6.08676 0
M  V30 4059 C 375.197 0.997246 6.11927 0
M  V30 4060 C 377.252 0.271459 4.97159 0
M  V30 4061 C 375.955 1.85299 6.95023 0
M  V30 4062 C 377.981 1.11429 5.80808 0
M  V30 4063 C 377.343 1.89615 6.78399 0
M  V30 4064 H 373.442 -0.241125 0.743897 0
M  V30 4065 H 376.026 0.0108016 1.94697 0
M  V30 4066 H 374.197 -2.15914 3.22856 0
M  V30 4067 H 375.929 -2.08921 3.46603 0
M  V30 4068 H 372.684 -0.498496 4.70969 0
M  V30 4069 H 373.108 1.26227 6.65128 0
M  V30 4070 H 377.75 -0.318709 4.21597 0
M  V30 4071 H 375.468 2.454 7.69938 0
M  V30 4072 H 379.054 1.17038 5.69906 0
M  V30 4073 H 377.934 2.53779 7.42001 0
M  V30 4074 N 375.437 -1.54477 -0.31217 0
M  V30 4075 C 376.4 -1.83923 -1.36766 0
M  V30 4076 C 377.4 -0.711563 -1.44199 0
M  V30 4077 O 378.59 -0.979866 -1.44029 0
M  V30 4078 C 375.722 -2.0095 -2.75376 0
M  V30 4079 H 376.915 -2.78239 -1.11906 0
M  V30 4080 H 374.468 -1.46369 -0.548257 0
M  V30 4081 H 375.203 -1.08883 -3.05475 0
M  V30 4082 H 374.988 -2.83018 -2.71373 0
M  V30 4083 H 376.478 -2.2514 -3.51713 0
M  V30 4084 N 376.915 0.57481 -1.46744 0
M  V30 4085 C 378.161 1.3347 -1.52688 0
M  V30 4086 C 378.494 1.93353 -0.181229 0
M  V30 4087 O 377.769 1.76912 0.808237 0
M  V30 4088 C 378.052 2.45811 -2.63152 0
M  V30 4089 C 377.905 1.90912 -4.07275 0
M  V30 4090 C 379.224 3.47822 -2.69644 0
M  V30 4091 H 376.343 0.483935 -0.555856 0
M  V30 4092 H 378.985 0.644968 -1.78718 0
M  V30 4093 H 377.135 3.04646 -2.41088 0
M  V30 4094 H 378.807 1.36473 -4.4065 0
M  V30 4095 H 377.05 1.21691 -4.16382 0
M  V30 4096 H 377.721 2.72042 -4.80309 0
M  V30 4097 H 380.197 2.9888 -2.895 0
M  V30 4098 H 379.073 4.23876 -3.48742 0
M  V30 4099 H 379.334 4.05555 -1.76005 0
M  V30 4100 N 378.394 1.34581 0.820102 0
M  V30 4101 C 379.357 1.2628 1.91275 0
M  V30 4102 C 380.357 0.177344 1.59819 0
M  V30 4103 O 381.547 0.430156 1.68806 0
M  V30 4104 C 378.679 0.950327 3.27386 0
M  V30 4105 H 379.872 2.23421 2.00057 0
M  V30 4106 H 377.425 1.1891 1.0144 0
M  V30 4107 H 378.16 -0.0177938 3.24295 0
M  V30 4108 H 377.945 1.73549 3.51601 0
M  V30 4109 H 379.435 0.917492 4.07396 0
M  V30 4110 N 379.872 -1.04064 1.18357 0
M  V30 4111 C 380.802 -2.14001 0.934113 0
M  V30 4112 C 381.783 -1.69616 -0.128186 0
M  V30 4113 O 382.968 -1.94185 0.0244093 0
M  V30 4114 C 380.098 -3.44253 0.459066 0
M  V30 4115 C 379.052 -4.02261 1.46185 0
M  V30 4116 C 378.378 -5.27992 0.844322 0
M  V30 4117 C 379.678 -4.38432 2.83856 0
M  V30 4118 H 381.372 -2.35127 1.85352 0
M  V30 4119 H 378.918 -1.12998 0.892604 0
M  V30 4120 H 380.871 -4.20522 0.271907 0
M  V30 4121 H 379.595 -3.22813 -0.495912 0
M  V30 4122 H 378.254 -3.28074 1.63595 0
M  V30 4123 H 377.902 -5.02862 -0.117845 0
M  V30 4124 H 377.602 -5.67765 1.51384 0
M  V30 4125 H 379.126 -6.06938 0.667693 0
M  V30 4126 H 380.54 -5.05688 2.70098 0
M  V30 4127 H 378.937 -4.89254 3.47491 0
M  V30 4128 H 380.007 -3.4826 3.37406 0
M  V30 4129 N 381.35 -0.985608 -1.22978 0
M  V30 4130 C 382.297 -0.529825 -2.24636 0
M  V30 4131 C 383.267 0.434028 -1.60329 0
M  V30 4132 O 384.452 0.340414 -1.87739 0
M  V30 4133 C 381.592 0.156533 -3.44745 0
M  V30 4134 C 380.705 -0.848197 -4.23591 0
M  V30 4135 C 379.84 -0.136109 -5.31026 0
M  V30 4136 C 378.879 -1.1297 -6.01585 0
M  V30 4137 N 378.016 -0.446415 -7.00679 0
M  V30 4138 H 382.856 -1.40148 -2.62988 0
M  V30 4139 H 380.393 -0.702168 -1.29259 0
M  V30 4140 H 382.351 0.571324 -4.1327 0
M  V30 4141 H 380.981 0.992025 -3.07179 0
M  V30 4142 H 380.033 -1.38135 -3.54433 0
M  V30 4143 H 381.345 -1.60512 -4.72268 0
M  V30 4144 H 380.499 0.335784 -6.0577 0
M  V30 4145 H 379.238 0.653373 -4.83304 0
M  V30 4146 H 378.243 -1.6123 -5.25628 0
M  V30 4147 H 379.468 -1.91993 -6.51395 0
M  V30 4148 H 377.414 0.323763 -6.55201 0
M  V30 4149 H 377.331 -1.1419 -7.47326 0
M  V30 4150 H 378.599 0.00291697 -7.795 0
M  V30 4151 N 382.828 1.3818 -0.7579 0
M  V30 4152 C 384.076 1.99624 -0.315361 0
M  V30 4153 C 384.397 1.60464 1.10799 0
M  V30 4154 O 383.667 0.863507 1.75842 0
M  V30 4155 H 382.247 0.73831 -0.113611 0
M  V30 4156 H 384.909 1.68878 -0.972952 0
M  V30 4157 H 384.005 3.09754 -0.381931 0
M  V30 4158 N 384.306 0.507319 1.49211 0
M  V30 4159 C 385.536 -0.0315292 2.06576 0
M  V30 4160 C 385.944 -1.30791 1.36713 0
M  V30 4161 O 385.287 -1.78324 0.441181 0
M  V30 4162 C 385.349 -0.349104 3.57801 0
M  V30 4163 C 385.013 0.830475 4.49391 0
M  V30 4164 C 386.01 1.72271 4.90529 0
M  V30 4165 C 383.695 1.03107 4.91604 0
M  V30 4166 C 385.689 2.79964 5.72625 0
M  V30 4167 C 383.376 2.11116 5.73475 0
M  V30 4168 C 384.374 2.99379 6.1389 0
M  V30 4169 O 384.062 4.05523 6.94123 0
M  V30 4170 H 383.794 0.0201002 0.675701 0
M  V30 4171 H 386.348 0.705737 1.92895 0
M  V30 4172 H 384.578 -1.14005 3.69513 0
M  V30 4173 H 386.267 -0.827319 3.97379 0
M  V30 4174 H 387.033 1.57958 4.58557 0
M  V30 4175 H 382.912 0.353417 4.59643 0
M  V30 4176 H 386.456 3.48884 6.04091 0
M  V30 4177 H 382.353 2.25421 6.0486 0
M  V30 4178 H 383.121 4.02953 7.1244 0
M  V30 4179 N 385.784 -1.5574 0.241426 0
M  V30 4180 C 387.009 -2.0366 -0.392111 0
M  V30 4181 C 387.434 -1.11969 -1.51144 0
M  V30 4182 O 386.792 -0.111594 -1.80956 0
M  V30 4183 C 386.84 -3.49638 -0.882371 0
M  V30 4184 O 385.944 -3.6108 -1.99235 0
M  V30 4185 H 385.285 -0.658379 -0.0862122 0
M  V30 4186 H 387.815 -2.01302 0.365881 0
M  V30 4187 H 387.825 -3.90351 -1.18702 0
M  V30 4188 H 386.5 -4.15852 -0.0632361 0
M  V30 4189 H 385.077 -3.32262 -1.69282 0
M  V30 4190 N 387.262 0.0317525 -1.57568 0
M  V30 4191 C 388.195 1.06621 -2.0176 0
M  V30 4192 C 389.173 1.35323 -0.901462 0
M  V30 4193 O 390.357 1.48025 -1.16708 0
M  V30 4194 C 387.484 2.40155 -2.38837 0
M  V30 4195 C 386.53 2.27327 -3.60867 0
M  V30 4196 S 387.363 1.62925 -5.10113 0
M  V30 4197 C 388.519 2.97955 -5.5043 0
M  V30 4198 H 388.752 0.689781 -2.89187 0
M  V30 4199 H 386.285 0.24164 -1.52497 0
M  V30 4200 H 388.243 3.1695 -2.6087 0
M  V30 4201 H 386.904 2.74946 -1.51867 0
M  V30 4202 H 386.097 3.25898 -3.84456 0
M  V30 4203 H 385.699 1.58675 -3.38671 0
M  V30 4204 H 387.991 3.94285 -5.5095 0
M  V30 4205 H 388.934 2.79102 -6.50775 0
M  V30 4206 H 389.342 3.00404 -4.77931 0
M  V30 4207 N 388.74 1.54641 0.303973 0
M  V30 4208 C 389.986 1.74038 1.04109 0
M  V30 4209 C 390.319 0.523051 1.87024 0
M  V30 4210 O 389.594 -0.479874 1.88487 0
M  V30 4211 C 389.877 3.02761 1.94955 0
M  V30 4212 C 389.73 4.34787 1.1524 0
M  V30 4213 C 391.049 3.27336 2.94175 0
M  V30 4214 H 388.168 0.63323 0.377079 0
M  V30 4215 H 390.81 1.87354 0.316001 0
M  V30 4216 H 388.96 2.9154 2.56782 0
M  V30 4217 H 390.632 4.57922 0.557236 0
M  V30 4218 H 388.875 4.31407 0.455053 0
M  V30 4219 H 389.546 5.21116 1.8205 0
M  V30 4220 H 392.022 3.38148 2.42477 0
M  V30 4221 H 390.898 4.18726 3.54908 0
M  V30 4222 H 391.159 2.45491 3.67677 0
M  V30 4223 N 390.218 -0.567019 1.47046 0
M  V30 4224 C 391.446 -1.35027 1.56765 0
M  V30 4225 C 391.861 -1.8758 0.214316 0
M  V30 4226 O 391.218 -1.64471 -0.790919 0
M  V30 4227 C 391.269 -2.52698 2.58507 0
M  V30 4228 O 390.99 -2.0232 3.88585 0
M  V30 4229 C 392.491 -3.45043 2.78316 0
M  V30 4230 H 389.711 -0.41195 0.529658 0
M  V30 4231 H 392.255 -0.687832 1.92585 0
M  V30 4232 H 390.41 -3.149 2.25648 0
M  V30 4233 H 390.824 -2.79068 4.44096 0
M  V30 4234 H 392.298 -4.2405 3.53391 0
M  V30 4235 H 392.775 -3.97971 1.85784 0
M  V30 4236 H 393.381 -2.88665 3.12334 0
M  V30 4237 N 391.696 -1.35014 -0.812953 0
M  V30 4238 C 392.936 -1.29289 -1.58315 0
M  V30 4239 C 393.3 0.132727 -1.91541 0
M  V30 4240 O 394.501 0.314269 -2.66957 0
M  V30 4241 C 392.772 -2.1681 -2.84127 0
M  V30 4242 S 394.331 -2.28538 -3.74588 0
M  V30 4243 H 391.149 -0.459569 -0.542511 0
M  V30 4244 H 393.751 -1.70336 -0.959467 0
M  V30 4245 H 392.455 -3.19379 -2.57731 0
M  V30 4246 H 391.986 -1.76697 -3.51485 0
M  V30 4247 H 394.001 -1.4655 -4.74065 0
M  V30 4248 N 393.175 1.03435 -1.18907 0
M  V30 4249 C 394.424 1.76143 -0.982669 0
M  V30 4250 C 394.737 1.89416 0.487953 0
M  V30 4251 O 395.943 2.59041 0.813036 0
M  V30 4252 C 394.399 3.16722 -1.70924 0
M  V30 4253 C 394.007 3.11522 -3.21959 0
M  V30 4254 C 395.751 3.93764 -1.58588 0
M  V30 4255 C 393.658 4.46999 -3.87228 0
M  V30 4256 H 392.588 0.660292 -0.364047 0
M  V30 4257 H 395.239 1.158 -1.42347 0
M  V30 4258 H 393.621 3.775 -1.19623 0
M  V30 4259 H 394.795 2.60158 -3.80335 0
M  V30 4260 H 393.11 2.47978 -3.34508 0
M  V30 4261 H 395.707 4.93963 -2.04707 0
M  V30 4262 H 396.05 4.12794 -0.539142 0
M  V30 4263 H 396.583 3.39576 -2.07203 0
M  V30 4264 H 393.322 4.33174 -4.91976 0
M  V30 4265 H 392.842 4.98441 -3.33642 0
M  V30 4266 H 394.521 5.15898 -3.90459 0
M  V30 4267 N 394.653 0.992116 1.22453 0
M  V30 4268 C 395.9 0.667534 1.91181 0
M  V30 4269 C 396.228 -0.800317 1.77271 0
M  V30 4270 O 395.483 -1.59421 1.13505 0
M  V30 4271 C 395.782 1.01832 3.42586 0
M  V30 4272 C 395.448 2.47831 3.76684 0
M  V30 4273 C 394.11 2.87729 3.85701 0
M  V30 4274 C 396.462 3.42466 3.92895 0
M  V30 4275 C 393.79 4.21252 4.08367 0
M  V30 4276 C 396.142 4.75648 4.17064 0
M  V30 4277 C 394.806 5.15288 4.24305 0
M  V30 4278 H 394.076 0.244268 0.699581 0
M  V30 4279 H 396.723 1.24816 1.45235 0
M  V30 4280 H 395.028 0.355769 3.90181 0
M  V30 4281 H 396.725 0.745228 3.94014 0
M  V30 4282 H 393.315 2.15905 3.70247 0
M  V30 4283 H 397.499 3.12814 3.85307 0
M  V30 4284 H 392.755 4.51554 4.122 0
M  V30 4285 H 396.929 5.48924 4.2855 0
M  V30 4286 H 394.556 6.18769 4.41621 0
M  V30 4287 N 396.131 -1.37776 0.765217 0
M  V30 4288 C 397.542 -1.82521 0.392819 0
M  V30 4289 C 397.893 -1.63789 -1.08017 0
M  V30 4290 O 397.018 -1.14542 -1.83601 0
M  V30 4291 C 397.613 -3.31358 0.706214 0
M  V30 4292 C 396.172 -3.74406 0.386952 0
M  V30 4293 C 395.319 -2.60394 0.953422 0
M  V30 4294 H 398.27 -1.2634 0.960412 0
M  V30 4295 H 398.291 -3.80498 -0.0114706 0
M  V30 4296 H 397.803 -3.44959 1.77833 0
M  V30 4297 H 395.904 -3.66377 -0.678112 0
M  V30 4298 H 396.017 -4.70749 0.890636 0
M  V30 4299 H 394.381 -2.51878 0.378064 0
M  V30 4300 H 395.164 -2.76791 2.03081 0
M  V30 4301 N 397.609 -0.515225 -1.4894 0
M  V30 4302 C 399.02 -0.0710067 -1.86565 0
M  V30 4303 C 399.371 1.34733 -1.42623 0
M  V30 4304 O 398.496 2.00653 -0.810379 0
M  V30 4305 C 399.091 -0.122083 -3.3858 0
M  V30 4306 C 397.65 0.266863 -3.75453 0
M  V30 4307 C 396.797 -0.488376 -2.72966 0
M  V30 4308 H 399.748 -0.727266 -1.41055 0
M  V30 4309 H 399.769 0.669818 -3.74558 0
M  V30 4310 H 399.281 -1.15448 -3.70531 0
M  V30 4311 H 397.382 1.30196 -3.49113 0
M  V30 4312 H 397.495 -0.0624811 -4.79059 0
M  V30 4313 H 395.859 0.0635622 -2.54621 0
M  V30 4314 H 396.642 -1.52113 -3.07761 0
M  V30 4315 N 399.087 1.5561 -0.249682 0
M  V30 4316 C 400.333 1.99306 0.374841 0
M  V30 4317 C 400.666 1.13767 1.57387 0
M  V30 4318 O 399.941 0.201711 1.93451 0
M  V30 4319 C 400.224 3.51507 0.781986 0
M  V30 4320 C 400.077 4.4781 -0.422629 0
M  V30 4321 C 401.396 4.08884 1.62793 0
M  V30 4322 H 398.515 0.724572 0.134773 0
M  V30 4323 H 401.157 1.86719 -0.351549 0
M  V30 4324 H 399.307 3.62363 1.4009 0
M  V30 4325 H 400.979 4.48931 -1.06108 0
M  V30 4326 H 399.222 4.20518 -1.06524 0
M  V30 4327 H 399.893 5.51919 -0.0943766 0
M  V30 4328 H 402.369 4.01147 1.10547 0
M  V30 4329 H 401.245 5.1564 1.88166 0
M  V30 4330 H 401.506 3.57515 2.60068 0
M  V30 4331 N 400.565 -0.0233959 1.57583 0
M  V30 4332 C 401.976 -0.56927 1.77809 0
M  V30 4333 C 402.327 -1.75284 0.881472 0
M  V30 4334 O 401.452 -2.1626 0.0777805 0
M  V30 4335 C 402.047 -1.03949 3.22459 0
M  V30 4336 C 400.606 -1.53084 3.43864 0
M  V30 4337 C 399.753 -0.471454 2.73263 0
M  V30 4338 H 402.704 0.202825 1.57399 0
M  V30 4339 H 402.725 -1.90661 3.29285 0
M  V30 4340 H 402.237 -0.177865 3.87692 0
M  V30 4341 H 400.338 -2.41414 2.83814 0
M  V30 4342 H 400.451 -1.57443 4.52491 0
M  V30 4343 H 398.815 -0.927788 2.37201 0
M  V30 4344 H 399.598 0.380808 3.41181 0
M  V30 4345 N 402.043 -1.548 -0.295768 0
M  V30 4346 C 403.291 -1.73985 -1.02828 0
M  V30 4347 C 403.612 -0.531406 -1.87619 0
M  V30 4348 O 402.882 0.454221 -1.90561 0
M  V30 4349 H 401.462 -0.641556 -0.382642 0
M  V30 4350 H 404.124 -1.92163 -0.325489 0
M  V30 4351 H 403.22 -2.63129 -1.67838 0
M  V30 4352 N 403.521 0.559213 -1.47345 0
M  V30 4353 C 404.932 1.14134 -1.47751 0
M  V30 4354 C 405.283 1.94834 -0.231103 0
M  V30 4355 O 404.408 2.05957 0.664137 0
M  V30 4356 C 405.003 2.07653 -2.67705 0
M  V30 4357 C 403.562 2.61141 -2.71076 0
M  V30 4358 C 402.709 1.3748 -2.40821 0
M  V30 4359 H 405.66 0.345917 -1.54884 0
M  V30 4360 H 405.681 2.91497 -2.44561 0
M  V30 4361 H 405.193 1.4889 -3.58404 0
M  V30 4362 H 403.294 3.23707 -1.84511 0
M  V30 4363 H 403.407 3.02272 -3.7171 0
M  V30 4364 H 401.771 1.68086 -1.91362 0
M  V30 4365 H 402.554 0.805135 -3.33725 0
M  V30 4366 N 404.999 1.35443 0.805782 0
M  V30 4367 C 405.946 1.28431 1.91766 0
M  V30 4368 C 406.916 0.156102 1.65365 0
M  V30 4369 O 408.101 0.339936 1.87747 0
M  V30 4370 C 405.241 1.06301 3.2832 0
M  V30 4371 C 404.354 2.2805 3.66902 0
M  V30 4372 C 403.489 1.99064 4.92491 0
M  V30 4373 C 402.528 3.16863 5.23703 0
M  V30 4374 N 401.665 2.87647 6.40471 0
M  V30 4375 H 406.505 2.23511 1.97096 0
M  V30 4376 H 404.042 1.11105 0.964054 0
M  V30 4377 H 406 0.915012 4.07042 0
M  V30 4378 H 404.63 0.148822 3.22457 0
M  V30 4379 H 403.682 2.53711 2.83434 0
M  V30 4380 H 404.994 3.1601 3.85927 0
M  V30 4381 H 404.148 1.81099 5.7904 0
M  V30 4382 H 402.887 1.0839 4.75503 0
M  V30 4383 H 401.892 3.35404 4.35642 0
M  V30 4384 H 403.117 4.08339 5.4262 0
M  V30 4385 H 401.063 1.99568 6.24907 0
M  V30 4386 H 400.98 3.69141 6.59751 0
M  V30 4387 H 402.248 2.73226 7.30047 0
M  V30 4388 N 406.477 -1.02803 1.19454 0
M  V30 4389 C 407.726 -1.7562 0.991996 0
M  V30 4390 C 408.039 -1.89672 -0.477901 0
M  V30 4391 O 409.245 -2.59468 -0.799287 0
M  V30 4392 C 407.701 -3.15812 1.72601 0
M  V30 4393 C 407.309 -3.0981 3.23607 0
M  V30 4394 C 409.053 -3.92918 1.60674 0
M  V30 4395 C 406.96 -4.44939 3.89594 0
M  V30 4396 H 405.89 -0.658352 0.367543 0
M  V30 4397 H 408.541 -1.15044 1.42959 0
M  V30 4398 H 406.923 -3.7686 1.21624 0
M  V30 4399 H 408.097 -2.58138 3.81709 0
M  V30 4400 H 406.412 -2.46201 3.35819 0
M  V30 4401 H 409.009 -4.9287 2.07323 0
M  V30 4402 H 409.352 -4.12502 0.561025 0
M  V30 4403 H 409.885 -3.38472 2.09001 0
M  V30 4404 H 406.624 -4.30559 4.94267 0
M  V30 4405 H 406.144 -4.96664 3.36281 0
M  V30 4406 H 407.823 -5.1382 3.93189 0
M  V30 4407 N 407.956 -0.998596 -1.21925 0
M  V30 4408 C 408.903 -0.553621 -2.24062 0
M  V30 4409 C 409.873 0.416999 -1.6078 0
M  V30 4410 O 411.058 0.320482 -1.88089 0
M  V30 4411 C 408.198 0.119959 -3.44891 0
M  V30 4412 C 407.311 -0.893077 -4.22668 0
M  V30 4413 C 406.446 -0.192424 -5.30851 0
M  V30 4414 C 405.485 -1.19344 -6.00353 0
M  V30 4415 N 404.622 -0.520707 -7.00166 0
M  V30 4416 H 409.462 -1.4293 -2.61486 0
M  V30 4417 H 406.999 -0.715838 -1.28507 0
M  V30 4418 H 408.957 0.527459 -4.13852 0
M  V30 4419 H 407.587 0.959389 -3.08214 0
M  V30 4420 H 406.639 -1.41886 -3.52948 0
M  V30 4421 H 407.951 -1.65512 -4.70539 0
M  V30 4422 H 407.105 0.271515 -6.06092 0
M  V30 4423 H 405.844 0.602075 -4.83969 0
M  V30 4424 H 404.849 -1.66795 -5.23889 0
M  V30 4425 H 406.074 -1.98891 -6.49322 0
M  V30 4426 H 404.02 0.254252 -6.55507 0
M  V30 4427 H 403.937 -1.2211 -7.46073 0
M  V30 4428 H 405.205 -0.0797596 -7.79459 0
M  V30 4429 N 409.434 1.37368 -0.772513 0
M  V30 4430 C 410.682 1.99279 -0.336516 0
M  V30 4431 C 411.003 1.6163 1.09091 0
M  V30 4432 O 410.273 0.882109 1.74916 0
M  V30 4433 H 408.853 0.737063 -0.121435 0
M  V30 4434 H 411.515 1.67836 -0.990809 0
M  V30 4435 H 410.611 3.09332 -0.414763 0
M  V30 4436 N 410.912 0.523116 1.48665 0
M  V30 4437 C 412.159 -0.0134763 2.02496 0
M  V30 4438 C 412.487 -1.3493 1.40086 0
M  V30 4439 O 411.742 -1.88286 0.533567 0
M  V30 4440 C 412.041 -0.191671 3.56886 0
M  V30 4441 C 411.707 1.06893 4.38046 0
M  V30 4442 C 410.369 1.41443 4.59943 0
M  V30 4443 C 412.721 1.90584 4.85106 0
M  V30 4444 C 410.049 2.59594 5.26144 0
M  V30 4445 C 412.401 3.07907 5.52609 0
M  V30 4446 C 411.065 3.42811 5.72745 0
M  V30 4447 H 410.335 -0.00493133 0.740984 0
M  V30 4448 H 412.982 0.687751 1.78724 0
M  V30 4449 H 411.287 -0.97561 3.79459 0
M  V30 4450 H 412.984 -0.621659 3.96152 0
M  V30 4451 H 409.574 0.789848 4.21259 0
M  V30 4452 H 413.758 1.65203 4.67997 0
M  V30 4453 H 409.014 2.86847 5.39934 0
M  V30 4454 H 413.188 3.73066 5.88043 0
M  V30 4455 H 410.815 4.34462 6.23816 0
M  V30 4456 N 412.39 -1.55475 0.257931 0
M  V30 4457 C 413.667 -1.91155 -0.414629 0
M  V30 4458 C 414.047 -1.18008 -1.75035 0
M  V30 4459 O 413.395 -0.301193 -2.26506 0
M  V30 4460 C 413.605 -3.44283 -0.571859 0
M  V30 4461 C 414.953 -4.15744 -0.862678 0
M  V30 4462 O 415.977 -3.50083 -0.657314 0
M  V30 4463 O 414.836 -5.31909 -1.2544 0
M  V30 4464 H 411.93 -0.796016 -0.22425 0
M  V30 4465 H 414.476 -1.66976 0.302814 0
M  V30 4466 H 413.248 -3.89558 0.368844 0
M  V30 4467 H 412.871 -3.7436 -1.33943 0
M  V30 4468 N 413.868 0.0150385 -1.57593 0
M  V30 4469 C 414.831 0.995996 -2.06428 0
M  V30 4470 C 415.831 1.2818 -0.970903 0
M  V30 4471 O 417.021 1.22949 -1.23406 0
M  V30 4472 C 414.153 2.32506 -2.49307 0
M  V30 4473 H 415.346 0.573873 -2.94358 0
M  V30 4474 H 412.899 0.262186 -1.54085 0
M  V30 4475 H 413.634 2.79438 -1.64575 0
M  V30 4476 H 413.419 2.13087 -3.29145 0
M  V30 4477 H 414.909 3.02906 -2.87468 0
M  V30 4478 N 415.346 1.54954 0.287554 0
M  V30 4479 C 416.296 1.8322 1.357 0
M  V30 4480 C 417.28 0.690152 1.45347 0
M  V30 4481 O 418.472 0.951137 1.49273 0
M  V30 4482 C 415.601 2.09481 2.71979 0
M  V30 4483 C 414.687 3.29906 2.66502 0
M  V30 4484 N 415.078 4.50154 2.30641 0
M  V30 4485 C 413.376 3.32203 2.97585 0
M  V30 4486 C 414.077 5.32209 2.34794 0
M  V30 4487 N 413.053 4.70258 2.72688 0
M  V30 4488 H 416.855 2.73746 1.0696 0
M  V30 4489 H 414.369 1.54635 0.496167 0
M  V30 4490 H 416.366 2.27882 3.49107 0
M  V30 4491 H 415.026 1.2023 3.0162 0
M  V30 4492 H 416.037 4.76515 2.02865 0
M  V30 4493 H 412.714 2.53101 3.32034 0
M  V30 4494 H 414.104 6.38321 2.09753 0
M  V30 4495 N 416.824 -0.551391 1.4764 0
M  V30 4496 C 417.754 -1.66757 1.63445 0
M  V30 4497 C 418.735 -1.63077 0.483742 0
M  V30 4498 O 419.92 -1.80607 0.71377 0
M  V30 4499 C 417.05 -3.05387 1.65396 0
M  V30 4500 C 416.004 -3.23918 2.79752 0
M  V30 4501 C 415.33 -4.63393 2.66779 0
M  V30 4502 C 416.63 -3.08735 4.21284 0
M  V30 4503 H 418.324 -1.53786 2.56886 0
M  V30 4504 H 415.87 -0.738415 1.23626 0
M  V30 4505 H 417.823 -3.83325 1.75043 0
M  V30 4506 H 416.547 -3.19332 0.685195 0
M  V30 4507 H 415.206 -2.48391 2.69625 0
M  V30 4508 H 414.854 -4.74144 1.67918 0
M  V30 4509 H 414.554 -4.7674 3.43501 0
M  V30 4510 H 416.078 -5.43458 2.78364 0
M  V30 4511 H 417.492 -3.76484 4.32357 0
M  V30 4512 H 415.889 -3.33588 4.98838 0
M  V30 4513 H 416.959 -2.0541 4.39243 0
M  V30 4514 N 418.302 -1.35869 -0.798587 0
M  V30 4515 C 419.232 -1.32118 -1.92528 0
M  V30 4516 C 420.213 -0.194209 -1.68988 0
M  V30 4517 O 421.398 -0.390426 -1.90235 0
M  V30 4518 C 418.528 -1.10047 -3.29404 0
M  V30 4519 C 417.482 -2.19471 -3.67446 0
M  V30 4520 C 416.808 -1.82555 -5.02571 0
M  V30 4521 C 418.108 -3.61495 -3.76987 0
M  V30 4522 H 419.802 -2.26394 -1.95924 0
M  V30 4523 H 417.348 -1.08981 -0.94123 0
M  V30 4524 H 419.301 -1.06061 -4.07835 0
M  V30 4525 H 418.025 -0.122195 -3.26371 0
M  V30 4526 H 416.684 -2.22568 -2.91306 0
M  V30 4527 H 416.332 -0.833249 -4.9605 0
M  V30 4528 H 416.032 -2.5581 -5.28995 0
M  V30 4529 H 417.556 -1.80108 -5.83432 0
M  V30 4530 H 418.97 -3.60676 -4.4563 0
M  V30 4531 H 417.367 -4.33577 -4.14887 0
M  V30 4532 H 418.437 -3.97065 -2.78329 0
M  V30 4533 N 419.78 1.02168 -1.19998 0
M  V30 4534 C 420.69 2.14069 -0.959774 0
M  V30 4535 C 421.706 1.73804 0.082655 0
M  V30 4536 O 422.882 2.01133 -0.103633 0
M  V30 4537 C 419.947 3.42936 -0.509459 0
M  V30 4538 C 419.008 3.97474 -1.62213 0
M  V30 4539 C 418.241 5.2019 -1.19321 0
M  V30 4540 O 418.464 5.70369 -0.0597726 0
M  V30 4541 O 417.398 5.67749 -1.99863 0
M  V30 4542 H 421.224 2.37199 -1.89658 0
M  V30 4543 H 418.809 1.12469 -0.983411 0
M  V30 4544 H 420.691 4.20551 -0.267322 0
M  V30 4545 H 419.366 3.21234 0.398821 0
M  V30 4546 H 418.273 3.21161 -1.9185 0
M  V30 4547 H 419.606 4.23555 -2.50723 0
M  V30 4548 N 421.258 1.00505 1.21394 0
M  V30 4549 C 422.205 0.565496 2.23765 0
M  V30 4550 C 423.175 -0.408466 1.60999 0
M  V30 4551 O 424.36 -0.310503 1.88257 0
M  V30 4552 C 421.5 -0.101667 3.4495 0
M  V30 4553 C 420.613 0.915479 4.22188 0
M  V30 4554 C 419.748 0.220574 5.30742 0
M  V30 4555 C 418.787 1.22527 5.99711 0
M  V30 4556 N 417.924 0.557831 6.9988 0
M  V30 4557 H 422.764 1.44314 2.60725 0
M  V30 4558 H 420.301 0.722643 1.28126 0
M  V30 4559 H 422.259 -0.505504 4.14126 0
M  V30 4560 H 420.889 -0.94303 3.08718 0
M  V30 4561 H 419.941 1.43756 3.52191 0
M  V30 4562 H 421.253 1.68005 4.69655 0
M  V30 4563 H 420.407 -0.239368 6.06228 0
M  V30 4564 H 419.146 -0.576401 4.84282 0
M  V30 4565 H 418.151 1.69571 5.22997 0
M  V30 4566 H 419.376 2.02332 6.48258 0
M  V30 4567 H 417.322 -0.219486 6.55633 0
M  V30 4568 H 417.239 1.26065 7.45415 0
M  V30 4569 H 418.507 0.121095 7.79406 0
M  V30 4570 N 422.737 -1.36956 0.779787 0
M  V30 4571 C 423.985 -1.99097 0.347079 0
M  V30 4572 C 424.306 -1.62206 -1.08232 0
M  V30 4573 O 423.576 -0.891373 -1.74446 0
M  V30 4574 H 422.156 -0.736409 0.125342 0
M  V30 4575 H 424.818 -1.67308 0.999696 0
M  V30 4576 H 423.914 -3.09107 0.431162 0
M  V30 4577 N 424.215 -0.530993 -1.48385 0
M  V30 4578 C 425.162 0.231223 -2.29639 0
M  V30 4579 C 426.132 0.932864 -1.37429 0
M  V30 4580 O 427.317 0.933692 -1.66394 0
M  V30 4581 C 424.457 1.27155 -3.2082 0
M  V30 4582 C 423.57 0.578655 -4.28107 0
M  V30 4583 C 422.705 1.602 -5.06467 0
M  V30 4584 C 421.744 0.892625 -6.05556 0
M  V30 4585 N 420.881 1.86157 -6.76971 0
M  V30 4586 H 425.721 -0.467848 -2.94305 0
M  V30 4587 H 423.258 -0.242556 -1.45086 0
M  V30 4588 H 425.216 1.88703 -3.72085 0
M  V30 4589 H 423.846 1.939 -2.58075 0
M  V30 4590 H 422.898 -0.150782 -3.80101 0
M  V30 4591 H 424.21 0.0217065 -4.98795 0
M  V30 4592 H 423.364 2.29173 -5.61751 0
M  V30 4593 H 422.103 2.19285 -4.35621 0
M  V30 4594 H 421.108 0.188829 -5.49476 0
M  V30 4595 H 422.333 0.307878 -6.78402 0
M  V30 4596 H 420.279 2.44147 -6.08875 0
M  V30 4597 H 420.196 1.35608 -7.43738 0
M  V30 4598 H 421.464 2.54325 -7.36844 0
M  V30 4599 N 425.693 1.55336 -0.266172 0
M  V30 4600 C 426.918 2.04258 0.359661 0
M  V30 4601 C 427.343 1.14359 1.49344 0
M  V30 4602 O 426.701 0.140369 1.80756 0
M  V30 4603 C 426.749 3.50997 0.826635 0
M  V30 4604 O 425.853 3.64204 1.93466 0
M  V30 4605 H 425.194 0.659668 0.075727 0
M  V30 4606 H 427.724 2.00694 -0.39786 0
M  V30 4607 H 427.734 3.9219 1.12477 0
M  V30 4608 H 426.409 4.159 -0.00293032 0
M  V30 4609 H 424.986 3.34913 1.63974 0
M  V30 4610 N 427.171 -0.0066808 1.57599 0
M  V30 4611 C 428.081 -1.01671 2.11424 0
M  V30 4612 C 429.097 -1.38143 1.05795 0
M  V30 4613 O 430.273 -1.47011 1.37658 0
M  V30 4614 C 427.338 -2.29192 2.60139 0
M  V30 4615 C 426.399 -1.99094 3.80342 0
M  V30 4616 C 425.632 -3.20535 4.26724 0
M  V30 4617 O 425.855 -4.3199 3.72479 0
M  V30 4618 O 424.789 -3.04924 5.18946 0
M  V30 4619 H 428.615 -0.589181 2.9793 0
M  V30 4620 H 426.2 -0.225091 1.47695 0
M  V30 4621 H 428.082 -3.0412 2.917 0
M  V30 4622 H 426.757 -2.71195 1.76733 0
M  V30 4623 H 425.664 -1.21663 3.53764 0
M  V30 4624 H 426.997 -1.61931 4.648 0
M  V30 4625 N 428.649 -1.55105 -0.279332 0
M  V30 4626 C 429.559 -1.90638 -1.36727 0
M  V30 4627 C 430.575 -0.802899 -1.54368 0
M  V30 4628 O 431.751 -1.10138 -1.68616 0
M  V30 4629 C 428.816 -2.16547 -2.70755 0
M  V30 4630 C 427.877 -3.40146 -2.61915 0
M  V30 4631 C 427.11 -3.6481 -3.8955 0
M  V30 4632 O 427.333 -2.92095 -4.89935 0
M  V30 4633 O 426.267 -4.58343 -3.90135 0
M  V30 4634 H 430.093 -2.83237 -1.09591 0
M  V30 4635 H 427.678 -1.4157 -0.477306 0
M  V30 4636 H 429.56 -2.34665 -3.50014 0
M  V30 4637 H 428.235 -1.27131 -2.9769 0
M  V30 4638 H 427.142 -3.2737 -1.81052 0
M  V30 4639 H 428.475 -4.29761 -2.3993 0
M  V30 4640 N 430.127 0.543554 -1.4793 0
M  V30 4641 C 431.057 1.65888 -1.64327 0
M  V30 4642 C 432.038 1.62818 -0.492383 0
M  V30 4643 O 433.223 1.80226 -0.723338 0
M  V30 4644 C 430.353 3.04506 -1.67013 0
M  V30 4645 C 429.307 3.2243 -2.81466 0
M  V30 4646 C 428.633 4.61972 -2.69233 0
M  V30 4647 C 429.933 3.06496 -4.22915 0
M  V30 4648 H 431.627 1.52421 -2.57698 0
M  V30 4649 H 429.173 0.731849 -1.24016 0
M  V30 4650 H 431.126 3.82391 -1.77074 0
M  V30 4651 H 429.85 3.18964 -0.70212 0
M  V30 4652 H 428.509 2.46957 -2.70938 0
M  V30 4653 H 428.157 4.73247 -1.7043 0
M  V30 4654 H 427.857 4.74911 -3.46025 0
M  V30 4655 H 429.381 5.41974 -2.81242 0
M  V30 4656 H 430.795 3.74186 -4.34348 0
M  V30 4657 H 429.192 3.30938 -5.006 0
M  V30 4658 H 430.262 2.03077 -4.40327 0
M  V30 4659 N 431.605 1.3629 0.791371 0
M  V30 4660 C 432.535 1.33137 1.91825 0
M  V30 4661 C 433.516 0.203168 1.68882 0
M  V30 4662 O 434.701 0.400509 1.90025 0
M  V30 4663 C 431.831 1.11793 3.28816 0
M  V30 4664 C 430.785 2.21417 3.66277 0
M  V30 4665 C 430.111 1.85218 5.01596 0
M  V30 4666 C 431.411 3.63489 3.75064 0
M  V30 4667 H 433.105 2.2743 1.9472 0
M  V30 4668 H 430.651 1.09479 0.935437 0
M  V30 4669 H 432.604 1.08222 4.07266 0
M  V30 4670 H 431.328 0.139501 3.26302 0
M  V30 4671 H 429.987 2.2411 2.90121 0
M  V30 4672 H 429.635 0.859544 4.95602 0
M  V30 4673 H 429.335 2.58611 5.27631 0
M  V30 4674 H 430.859 1.832 5.82469 0
M  V30 4675 H 432.273 3.63034 4.43711 0
M  V30 4676 H 430.67 4.35771 4.12582 0
M  V30 4677 H 431.74 3.98536 2.76219 0
M  V30 4678 N 433.083 -1.0153 1.20538 0
M  V30 4679 C 434.308 -1.79283 1.04271 0
M  V30 4680 C 434.733 -1.8372 -0.403544 0
M  V30 4681 O 434.091 -1.27321 -1.2907 0
M  V30 4682 C 434.139 -3.21535 1.63241 0
M  V30 4683 O 433.243 -4.03099 0.870908 0
M  V30 4684 H 432.584 -0.55293 0.367647 0
M  V30 4685 H 435.114 -1.27696 1.59859 0
M  V30 4686 H 435.124 -3.72243 1.6703 0
M  V30 4687 H 433.799 -3.1762 2.68497 0
M  V30 4688 H 432.376 -3.61693 0.907323 0
M  V30 4689 N 434.561 -1.01147 -1.20859 0
M  V30 4690 C 435.524 -0.582224 -2.21682 0
M  V30 4691 C 436.524 0.344887 -1.57058 0
M  V30 4692 O 437.714 0.134281 -1.73682 0
M  V30 4693 C 434.846 0.150496 -3.40568 0
M  V30 4694 H 436.039 -1.47408 -2.61172 0
M  V30 4695 H 433.592 -0.800695 -1.34233 0
M  V30 4696 H 434.327 1.0575 -3.06574 0
M  V30 4697 H 434.112 -0.515444 -3.88697 0
M  V30 4698 H 435.602 0.438344 -4.15293 0
M  V30 4699 N 436.039 1.36541 -0.78704 0
M  V30 4700 C 436.969 2.32659 -0.197992 0
M  V30 4701 C 437.95 1.56533 0.665697 0
M  V30 4702 O 439.135 1.84698 0.60001 0
M  V30 4703 C 436.265 3.40778 0.669901 0
M  V30 4704 C 435.219 4.27897 -0.0937039 0
M  V30 4705 C 434.545 5.27163 0.894629 0
M  V30 4706 C 435.845 5.06334 -1.28154 0
M  V30 4707 H 437.539 2.82171 -1.00099 0
M  V30 4708 H 435.085 1.35665 -0.482793 0
M  V30 4709 H 437.038 4.07008 1.09191 0
M  V30 4710 H 435.762 2.89827 1.50558 0
M  V30 4711 H 434.421 3.6322 -0.49666 0
M  V30 4712 H 434.069 4.72486 1.72527 0
M  V30 4713 H 433.769 5.86317 0.388149 0
M  V30 4714 H 435.293 5.96266 1.31525 0
M  V30 4715 H 436.707 5.65617 -0.93541 0
M  V30 4716 H 435.104 5.74888 -1.72115 0
M  V30 4717 H 436.174 4.38114 -2.07807 0
M  V30 4718 N 437.518 0.538854 1.48102 0
M  V30 4719 C 438.766 0.00798599 2.02098 0
M  V30 4720 C 439.087 -1.33922 1.41739 0
M  V30 4721 O 438.357 -1.86932 0.585934 0
M  V30 4722 H 436.937 -3.62179e-05 0.747 0
M  V30 4723 H 439.599 0.7047 1.81714 0
M  V30 4724 H 438.695 -0.0937672 3.11959 0
M  V30 4725 N 438.996 -1.55193 0.274407 0
M  V30 4726 C 440.236 -2.01488 -0.343778 0
M  V30 4727 C 440.6 -1.1586 -1.53103 0
M  V30 4728 O 441.801 -1.51732 -2.2188 0
M  V30 4729 C 440.072 -3.50134 -0.717021 0
M  V30 4730 S 441.631 -4.18417 -1.32184 0
M  V30 4731 H 438.449 -0.70291 -0.106948 0
M  V30 4732 H 441.051 -1.91446 0.396075 0
M  V30 4733 H 439.755 -4.10104 0.155947 0
M  V30 4734 H 439.286 -3.64159 -1.48835 0
M  V30 4735 H 441.301 -4.21984 -2.61044 0
M  V30 4736 N 440.474 -0.00167713 -1.576 0
M  V30 4737 C 441.406 1.0174 -2.05382 0
M  V30 4738 C 442.419 1.30595 -0.972052 0
M  V30 4739 O 443.608 1.27542 -1.24882 0
M  V30 4740 C 440.708 2.35174 -2.44022 0
M  V30 4741 C 439.881 2.25234 -3.74951 0
M  V30 4742 C 438.94 3.4137 -4.00441 0
M  V30 4743 O 437.966 3.19483 -4.71083 0
M  V30 4744 N 439.168 4.64275 -3.48467 0
M  V30 4745 H 441.933 0.609902 -2.93428 0
M  V30 4746 H 439.494 0.185672 -1.60832 0
M  V30 4747 H 441.486 3.11643 -2.58187 0
M  V30 4748 H 440.056 2.67659 -1.61485 0
M  V30 4749 H 439.276 1.33664 -3.70847 0
M  V30 4750 H 440.564 2.15767 -4.60784 0
M  V30 4751 H 439.962 4.84955 -2.91264 0
M  V30 4752 H 438.519 5.38005 -3.67959 0
M  V30 4753 N 441.952 1.55251 0.271103 0
M  V30 4754 C 443.229 1.66664 1.02384 0
M  V30 4755 C 443.609 0.534363 2.04225 0
M  V30 4756 O 442.957 -0.465337 2.23712 0
M  V30 4757 C 443.167 3.05961 1.67895 0
M  V30 4758 C 444.515 3.63772 2.18986 0
M  V30 4759 O 445.539 3.08606 1.77878 0
M  V30 4760 O 444.398 4.60429 2.94393 0
M  V30 4761 H 441.492 0.676957 0.475035 0
M  V30 4762 H 444.038 1.67589 0.26681 0
M  V30 4763 H 442.81 3.79815 0.941071 0
M  V30 4764 H 442.433 3.08943 2.5028 0
M  V30 4765 N 443.43 -0.535701 1.48216 0
M  V30 4766 C 444.677 -1.29183 1.55942 0
M  V30 4767 C 445.005 -1.93125 0.230857 0
M  V30 4768 O 444.26 -1.79556 -0.778331 0
M  V30 4769 C 444.559 -2.4068 2.64212 0
M  V30 4770 C 444.225 -1.94428 4.06827 0
M  V30 4771 C 442.887 -1.81532 4.45645 0
M  V30 4772 C 445.239 -1.59405 4.96225 0
M  V30 4773 C 442.567 -1.31939 5.71672 0
M  V30 4774 C 444.919 -1.11276 6.22736 0
M  V30 4775 C 443.583 -0.969924 6.60416 0
M  V30 4776 H 442.853 -0.472715 0.570632 0
M  V30 4777 H 445.5 -0.598437 1.81909 0
M  V30 4778 H 443.805 -3.15666 2.32083 0
M  V30 4779 H 445.502 -2.98822 2.67407 0
M  V30 4780 H 442.092 -2.05415 3.76168 0
M  V30 4781 H 446.276 -1.68231 4.66917 0
M  V30 4782 H 441.532 -1.19562 5.99596 0
M  V30 4783 H 445.706 -0.832453 6.91407 0
M  V30 4784 H 443.333 -0.583436 7.57958 0
M  V30 4785 N 444.908 -1.36708 -0.784132 0
M  V30 4786 C 446.319 -1.27947 -1.35965 0
M  V30 4787 C 446.67 0.0784013 -1.96043 0
M  V30 4788 O 445.795 0.979989 -1.92938 0
M  V30 4789 C 446.39 -2.31689 -2.47195 0
M  V30 4790 C 444.949 -2.26601 -3.00548 0
M  V30 4791 C 444.096 -2.16184 -1.73666 0
M  V30 4792 H 447.047 -1.4751 -0.585358 0
M  V30 4793 H 447.068 -1.95638 -3.26352 0
M  V30 4794 H 446.58 -3.30506 -2.03439 0
M  V30 4795 H 444.681 -1.31268 -3.48711 0
M  V30 4796 H 444.794 -3.19508 -3.57004 0
M  V30 4797 H 443.158 -1.62524 -1.96107 0
M  V30 4798 H 443.941 -3.16896 -1.32031 0
M  V30 4799 N 446.386 1.0089 -1.21074 0
M  V30 4800 C 447.797 1.56056 -1.02486 0
M  V30 4801 C 448.148 1.91728 0.416506 0
M  V30 4802 O 447.273 1.73066 1.29912 0
M  V30 4803 C 447.868 2.83563 -1.85411 0
M  V30 4804 C 446.427 3.3523 -1.71166 0
M  V30 4805 C 445.574 2.0846 -1.82865 0
M  V30 4806 H 448.525 0.831818 -1.35154 0
M  V30 4807 H 448.546 3.55286 -1.36205 0
M  V30 4808 H 448.058 2.57569 -2.9031 0
M  V30 4809 H 446.159 3.66167 -0.689361 0
M  V30 4810 H 446.272 4.06913 -2.52901 0
M  V30 4811 H 444.636 2.21275 -1.26132 0
M  V30 4812 H 445.419 1.84883 -2.89263 0
M  V30 4813 N 447.864 1.01787 1.20321 0
M  V30 4814 C 449.092 0.727194 1.937 0
M  V30 4815 C 449.507 -0.712305 1.74848 0
M  V30 4816 O 448.864 -1.48327 1.06327 0
M  V30 4817 C 448.915 1.05497 3.45764 0
M  V30 4818 O 448.636 2.43794 3.64 0
M  V30 4819 C 450.137 0.785534 4.36285 0
M  V30 4820 H 447.357 0.266939 0.615617 0
M  V30 4821 H 449.901 1.35939 1.52777 0
M  V30 4822 H 448.056 0.468158 3.84561 0
M  V30 4823 H 448.47 2.55656 4.57974 0
M  V30 4824 H 449.944 1.06495 5.4163 0
M  V30 4825 H 450.421 -0.280273 4.38305 0
M  V30 4826 H 451.027 1.35456 4.03152 0
M  V30 4827 N 449.342 -1.36122 0.79427 0
M  V30 4828 C 450.567 -2.03891 0.379871 0
M  V30 4829 C 450.992 -1.59488 -0.997251 0
M  V30 4830 O 450.35 -0.765652 -1.64339 0
M  V30 4831 C 450.398 -3.57687 0.457442 0
M  V30 4832 O 449.502 -4.08931 -0.5338 0
M  V30 4833 H 448.843 -0.6443 0.160541 0
M  V30 4834 H 451.373 -1.73976 1.07673 0
M  V30 4835 H 451.383 -4.06721 0.322792 0
M  V30 4836 H 450.058 -3.89357 1.46199 0
M  V30 4837 H 448.635 -3.71154 -0.360409 0
M  V30 4838 N 450.82 -0.546701 -1.47814 0
M  V30 4839 C 452.097 0.0464413 -1.95545 0
M  V30 4840 C 452.477 1.4962 -1.48919 0
M  V30 4841 O 451.825 2.16752 -0.723232 0
M  V30 4842 C 452.035 -0.0881298 -3.48889 0
M  V30 4843 C 453.383 0.0626059 -4.24554 0
M  V30 4844 O 454.407 -0.0151555 -3.56197 0
M  V30 4845 O 453.266 0.228071 -5.46024 0
M  V30 4846 H 450.36 0.0700004 -0.824032 0
M  V30 4847 H 452.906 -0.612482 -1.58262 0
M  V30 4848 H 451.678 -1.09737 -3.75597 0
M  V30 4849 H 451.301 0.608886 -3.9291 0
M  V30 4850 N 452.299 1.55045 -0.282633 0
M  V30 4851 C 453.529 2.03872 0.334635 0
M  V30 4852 C 453.937 1.16018 1.49454 0
M  V30 4853 O 453.28 0.174449 1.8287 0
M  V30 4854 C 453.342 3.48791 0.870905 0
M  V30 4855 C 453.006 4.56715 -0.161338 0
M  V30 4856 C 454.003 5.10513 -0.983466 0
M  V30 4857 C 451.688 5.01417 -0.297745 0
M  V30 4858 C 453.682 6.07538 -1.92811 0
M  V30 4859 C 451.369 5.98265 -1.24586 0
M  V30 4860 C 452.367 6.51208 -2.05954 0
M  V30 4861 O 452.055 7.46162 -2.99162 0
M  V30 4862 H 451.787 0.671324 0.0793742 0
M  V30 4863 H 454.341 2.01169 -0.41473 0
M  V30 4864 H 452.571 3.48758 1.67047 0
M  V30 4865 H 454.26 3.80916 1.40207 0
M  V30 4866 H 455.026 4.76785 -0.888856 0
M  V30 4867 H 450.905 4.59849 0.325604 0
M  V30 4868 H 454.449 6.48787 -2.56363 0
M  V30 4869 H 450.346 6.31412 -1.34126 0
M  V30 4870 H 451.114 7.63903 -2.93929 0
M  V30 4871 N 453.777 0.010035 1.57597 0
M  V30 4872 C 454.687 -0.994226 2.12491 0
M  V30 4873 C 455.703 -1.37013 1.07254 0
M  V30 4874 O 456.879 -1.45542 1.3921 0
M  V30 4875 C 453.944 -2.2642 2.62555 0
M  V30 4876 C 453.005 -1.95049 3.82432 0
M  V30 4877 C 452.238 -3.15991 4.30099 0
M  V30 4878 O 452.461 -4.28015 3.7704 0
M  V30 4879 O 451.395 -2.99403 5.22151 0
M  V30 4880 H 455.221 -0.557549 2.98538 0
M  V30 4881 H 452.806 -0.209413 1.47925 0
M  V30 4882 H 454.688 -3.01009 2.9491 0
M  V30 4883 H 453.363 -2.69306 1.796 0
M  V30 4884 H 452.27 -1.17904 3.55034 0
M  V30 4885 H 453.603 -1.56992 4.66491 0
M  V30 4886 N 455.255 -1.55392 -0.262866 0
M  V30 4887 C 456.532 -1.67204 -1.01499 0
M  V30 4888 C 456.912 -0.545186 -2.03939 0
M  V30 4889 O 456.26 0.453467 -2.23955 0
M  V30 4890 C 456.47 -3.06847 -1.6627 0
M  V30 4891 C 457.818 -3.64928 -2.17054 0
M  V30 4892 O 458.842 -3.09545 -1.76239 0
M  V30 4893 O 457.701 -4.61984 -2.91947 0
M  V30 4894 H 454.795 -0.679467 -0.471438 0
M  V30 4895 H 457.341 -1.67729 -0.257918 0
M  V30 4896 H 456.113 -3.80309 -0.920915 0
M  V30 4897 H 455.736 -3.10266 -2.48638 0
M  V30 4898 N 456.733 0.527833 -1.48498 0
M  V30 4899 C 457.663 1.64136 -1.66077 0
M  V30 4900 C 458.644 1.62286 -0.509625 0
M  V30 4901 O 459.829 1.79449 -0.742413 0
M  V30 4902 C 456.959 3.02717 -1.70234 0
M  V30 4903 C 455.913 3.19426 -2.8487 0
M  V30 4904 C 455.239 4.5909 -2.74118 0
M  V30 4905 C 456.539 3.01993 -4.26142 0
M  V30 4906 H 458.233 1.4968 -2.593 0
M  V30 4907 H 455.779 0.718654 -1.24785 0
M  V30 4908 H 457.732 3.80491 -1.8112 0
M  V30 4909 H 456.456 3.18201 -0.735911 0
M  V30 4910 H 455.115 2.4407 -2.73542 0
M  V30 4911 H 454.763 4.71413 -1.7544 0
M  V30 4912 H 454.463 4.71214 -3.51042 0
M  V30 4913 H 455.987 5.3896 -2.86974 0
M  V30 4914 H 457.401 3.69558 -4.38292 0
M  V30 4915 H 455.798 3.2561 -5.04082 0
M  V30 4916 H 456.868 1.98396 -4.42456 0
M  V30 4917 N 458.211 1.37122 0.776871 0
M  V30 4918 C 459.141 1.35164 1.90402 0
M  V30 4919 C 460.122 0.221069 1.68657 0
M  V30 4920 O 461.307 0.420642 1.8959 0
M  V30 4921 C 458.437 1.15274 3.27611 0
M  V30 4922 C 457.391 2.25289 3.63908 0
M  V30 4923 C 456.717 1.90527 4.99603 0
M  V30 4924 C 458.017 3.67446 3.71188 0
M  V30 4925 H 459.711 2.29482 1.92297 0
M  V30 4926 H 457.257 1.10465 0.923773 0
M  V30 4927 H 459.21 1.12536 4.06096 0
M  V30 4928 H 457.934 0.174102 3.26136 0
M  V30 4929 H 456.593 2.27174 2.87728 0
M  V30 4930 H 456.241 0.91206 4.94662 0
M  V30 4931 H 455.941 2.64193 5.24858 0
M  V30 4932 H 457.465 1.89367 5.80493 0
M  V30 4933 H 458.879 3.67719 4.39836 0
M  V30 4934 H 457.276 4.40123 4.07936 0
M  V30 4935 H 458.346 4.01443 2.71977 0
M  V30 4936 N 459.689 -1.00246 1.21608 0
M  V30 4937 C 460.935 -1.74319 1.03638 0
M  V30 4938 C 461.268 -1.89408 -0.428749 0
M  V30 4939 O 460.543 -1.43026 -1.3181 0
M  V30 4940 C 460.826 -3.15431 1.73711 0
M  V30 4941 C 460.679 -3.08049 3.27759 0
M  V30 4942 C 461.998 -4.14407 1.48173 0
M  V30 4943 H 459.117 -0.632741 0.377899 0
M  V30 4944 H 461.759 -1.16853 1.49818 0
M  V30 4945 H 459.909 -3.64493 1.34452 0
M  V30 4946 H 461.581 -2.66681 3.76403 0
M  V30 4947 H 459.824 -2.45088 3.57931 0
M  V30 4948 H 460.495 -4.07862 3.71958 0
M  V30 4949 H 462.971 -3.74061 1.82258 0
M  V30 4950 H 461.847 -5.11279 1.99713 0
M  V30 4951 H 462.108 -4.40174 0.412273 0
M  V30 4952 N 461.167 -1.02423 -1.1978 0
M  V30 4953 C 462.077 -0.610919 -2.26506 0
M  V30 4954 C 463.093 0.355152 -1.70337 0
M  V30 4955 O 464.269 0.214195 -2.00258 0
M  V30 4956 C 461.334 0.0365921 -3.46681 0
M  V30 4957 C 460.395 -0.976389 -4.18049 0
M  V30 4958 C 459.628 -0.359683 -5.32487 0
M  V30 4959 O 459.851 0.838601 -5.64202 0
M  V30 4960 O 458.785 -1.08022 -5.92127 0
M  V30 4961 H 462.611 -1.49965 -2.64091 0
M  V30 4962 H 460.196 -0.794156 -1.26545 0
M  V30 4963 H 462.078 0.39786 -4.19518 0
M  V30 4964 H 460.753 0.899398 -3.10954 0
M  V30 4965 H 459.66 -1.38916 -3.47352 0
M  V30 4966 H 460.993 -1.80941 -4.57735 0
M  V30 4967 N 462.645 1.35699 -0.801477 0
M  V30 4968 C 463.875 2.02862 -0.3912 0
M  V30 4969 C 464.283 1.60552 1.00099 0
M  V30 4970 O 463.626 0.796215 1.65548 0
M  V30 4971 C 463.688 3.57386 -0.389299 0
M  V30 4972 C 463.352 4.22943 -1.73113 0
M  V30 4973 C 464.349 4.44984 -2.68859 0
M  V30 4974 C 462.034 4.60167 -2.01373 0
M  V30 4975 C 464.028 5.03345 -3.91053 0
M  V30 4976 C 461.715 5.18243 -3.23832 0
M  V30 4977 C 462.713 5.39773 -4.1849 0
M  V30 4978 O 462.401 5.96626 -5.38788 0
M  V30 4979 H 462.133 0.657341 -0.157732 0
M  V30 4980 H 464.687 1.74407 -1.08496 0
M  V30 4981 H 462.917 3.85011 0.361031 0
M  V30 4982 H 464.606 4.059 -0.0020365 0
M  V30 4983 H 465.372 4.1661 -2.48316 0
M  V30 4984 H 461.251 4.42726 -1.28508 0
M  V30 4985 H 464.795 5.20065 -4.64949 0
M  V30 4986 H 460.692 5.46044 -3.44248 0
M  V30 4987 H 461.46 6.15082 -5.40015 0
M  V30 4988 N 464.123 0.554532 1.47522 0
M  V30 4989 C 465.053 -0.182974 2.32782 0
M  V30 4990 C 466.034 -0.911377 1.43624 0
M  V30 4991 O 467.219 -0.892366 1.72483 0
M  V30 4992 C 464.349 -1.21513 3.25349 0
M  V30 4993 C 463.303 -0.603355 4.23726 0
M  V30 4994 C 462.629 -1.73995 5.05598 0
M  V30 4995 C 463.929 0.441121 5.20434 0
M  V30 4996 H 465.623 0.52882 2.94693 0
M  V30 4997 H 463.169 0.255759 1.41711 0
M  V30 4998 H 465.122 -1.73922 3.83835 0
M  V30 4999 H 463.846 -1.95683 2.61487 0
M  V30 5000 H 462.505 -0.10059 3.66462 0
M  V30 5001 H 462.153 -2.47063 4.38143 0
M  V30 5002 H 461.853 -1.3364 5.72201 0
M  V30 5003 H 463.377 -2.26735 5.66942 0
M  V30 5004 H 464.791 0.00319931 5.733 0
M  V30 5005 H 463.188 0.763402 5.95224 0
M  V30 5006 H 464.258 1.33799 4.66075 0
M  V30 5007 N 465.601 -1.54893 0.290851 0
M  V30 5008 C 466.511 -2.26812 -0.59945 0
M  V30 5009 C 467.527 -1.29963 -1.15696 0
M  V30 5010 O 468.703 -1.62928 -1.18391 0
M  V30 5011 C 465.768 -2.98716 -1.75982 0
M  V30 5012 C 464.829 -4.1108 -1.2374 0
M  V30 5013 C 464.062 -4.79546 -2.34246 0
M  V30 5014 O 464.285 -4.47309 -3.53936 0
M  V30 5015 O 463.219 -5.67165 -2.01512 0
M  V30 5016 H 467.045 -3.03696 -0.0163561 0
M  V30 5017 H 464.63 -1.49289 0.0576755 0
M  V30 5018 H 466.512 -3.43851 -2.43607 0
M  V30 5019 H 465.187 -2.24737 -2.3297 0
M  V30 5020 H 464.094 -3.70367 -0.527163 0
M  V30 5021 H 465.427 -4.87007 -0.71307 0
M  V30 5022 N 467.08 -0.0183926 -1.57589 0
M  V30 5023 C 468.326 0.663543 -1.91638 0
M  V30 5024 C 468.659 1.72392 -0.894134 0
M  V30 5025 O 467.934 1.94316 0.0846449 0
M  V30 5026 C 468.217 1.28984 -3.36207 0
M  V30 5027 C 468.07 0.239761 -4.49161 0
M  V30 5028 C 469.389 2.2109 -3.80536 0
M  V30 5029 H 466.508 0.239746 -0.696915 0
M  V30 5030 H 469.15 -0.073456 -1.89858 0
M  V30 5031 H 467.3 1.91799 -3.37854 0
M  V30 5032 H 468.972 -0.390119 -4.59647 0
M  V30 5033 H 467.215 -0.435972 -4.31604 0
M  V30 5034 H 467.886 0.717383 -5.47319 0
M  V30 5035 H 470.362 1.68273 -3.80557 0
M  V30 5036 H 469.238 2.61869 -4.82406 0
M  V30 5037 H 469.499 3.09764 -3.15434 0
M  V30 5038 N 468.558 1.5553 0.254621 0
M  V30 5039 C 469.835 1.6774 1.00611 0
M  V30 5040 C 470.215 0.555993 2.03647 0
M  V30 5041 O 469.563 -0.441583 2.24193 0
M  V30 5042 C 469.773 3.07725 1.6464 0
M  V30 5043 C 471.121 3.66074 2.15116 0
M  V30 5044 O 472.145 3.10476 1.74595 0
M  V30 5045 O 471.004 4.63526 2.89493 0
M  V30 5046 H 468.098 0.681958 0.467828 0
M  V30 5047 H 470.644 1.67863 0.24902 0
M  V30 5048 H 469.416 3.80792 0.900734 0
M  V30 5049 H 469.039 3.1158 2.46989 0
M  V30 5050 N 470.036 -0.519951 1.48776 0
M  V30 5051 C 471.313 -1.28123 1.47797 0
M  V30 5052 C 471.693 -2.10196 0.195157 0
M  V30 5053 O 471.041 -2.13167 -0.822925 0
M  V30 5054 C 471.251 -2.15413 2.74587 0
M  V30 5055 C 472.599 -2.75225 3.23321 0
M  V30 5056 O 473.623 -2.25694 2.75574 0
M  V30 5057 O 472.482 -3.65346 4.06429 0
M  V30 5058 H 469.576 -0.578793 0.590701 0
M  V30 5059 H 472.122 -0.535779 1.6102 0
M  V30 5060 H 470.894 -1.54617 3.59457 0
M  V30 5061 H 470.517 -2.97186 2.64132 0
M  V30 5062 N 471.514 -1.37532 -0.769588 0
M  V30 5063 C 472.739 -1.36231 -1.56384 0
M  V30 5064 C 473.164 0.0495849 -1.88035 0
M  V30 5065 O 472.522 1.02723 -1.49391 0
M  V30 5066 C 472.57 -2.20986 -2.84952 0
M  V30 5067 O 471.674 -1.61597 -3.79421 0
M  V30 5068 H 471.015 -0.465387 -0.473615 0
M  V30 5069 H 473.545 -1.81085 -0.952342 0
M  V30 5070 H 473.555 -2.34277 -3.34034 0
M  V30 5071 H 472.23 -3.23612 -2.61243 0
M  V30 5072 H 470.807 -1.57359 -3.38072 0
M  V30 5073 N 472.992 0.995999 -1.22138 0
M  V30 5074 C 473.902 2.11985 -1.00496 0
M  V30 5075 C 474.918 1.7394 0.0457701 0
M  V30 5076 O 476.094 2.00868 -0.146273 0
M  V30 5077 C 473.159 3.41779 -0.582086 0
M  V30 5078 C 472.22 3.93943 -1.70608 0
M  V30 5079 C 471.453 5.17542 -1.30328 0
M  V30 5080 O 471.676 5.70114 -0.180743 0
M  V30 5081 O 470.61 5.63382 -2.11861 0
M  V30 5082 H 474.436 2.33123 -1.94647 0
M  V30 5083 H 472.021 1.10358 -1.00705 0
M  V30 5084 H 473.903 4.1989 -0.356467 0
M  V30 5085 H 472.578 3.22007 0.330592 0
M  V30 5086 H 471.485 3.17019 -1.98619 0
M  V30 5087 H 472.818 4.18141 -2.59651 0
M  V30 5088 N 474.47 1.03057 1.19235 0
M  V30 5089 C 475.747 0.642608 1.84743 0
M  V30 5090 C 476.127 -0.878577 1.91948 0
M  V30 5091 O 475.475 -1.77597 1.43776 0
M  V30 5092 C 475.685 1.30665 3.23616 0
M  V30 5093 C 477.033 1.43098 3.9976 0
M  V30 5094 O 478.057 1.26396 3.3302 0
M  V30 5095 O 476.916 1.70223 5.19313 0
M  V30 5096 H 474.01 0.223573 0.796206 0
M  V30 5097 H 476.556 1.12883 1.26711 0
M  V30 5098 H 475.328 2.34544 3.13217 0
M  V30 5099 H 474.951 0.808405 3.89295 0
M  V30 5100 N 475.948 -1.35272 0.808662 0
M  V30 5101 C 476.88 -2.28507 0.178149 0
M  V30 5102 C 477.893 -1.50377 -0.623754 0
M  V30 5103 O 479.082 -1.72583 -0.455774 0
M  V30 5104 C 476.182 -3.30038 -0.769959 0
M  V30 5105 C 475.355 -4.37398 -0.0139749 0
M  V30 5106 C 474.414 -5.18775 -0.880875 0
M  V30 5107 O 473.44 -5.68236 -0.331059 0
M  V30 5108 N 474.642 -5.37087 -2.20267 0
M  V30 5109 H 477.407 -2.83255 0.979106 0
M  V30 5110 H 474.968 -1.47643 0.664308 0
M  V30 5111 H 476.96 -3.81371 -1.35418 0
M  V30 5112 H 475.53 -2.75789 -1.47171 0
M  V30 5113 H 474.75 -3.86971 0.751468 0
M  V30 5114 H 476.038 -5.06268 0.506965 0
M  V30 5115 H 475.436 -4.9855 -2.67328 0
M  V30 5116 H 473.993 -5.91593 -2.73608 0
M  V30 5117 N 477.426 -0.562348 -1.47226 0
M  V30 5118 C 478.376 0.202967 -2.27095 0
M  V30 5119 C 479.36 0.880611 -1.34663 0
M  V30 5120 O 480.552 0.778069 -1.58981 0
M  V30 5121 C 477.681 1.22906 -3.20545 0
M  V30 5122 C 476.767 0.554566 -4.20459 0
M  V30 5123 N 477.158 -0.378295 -5.04383 0
M  V30 5124 C 475.456 0.807854 -4.38623 0
M  V30 5125 C 476.157 -0.770583 -5.76573 0
M  V30 5126 N 475.133 -0.124263 -5.43458 0
M  V30 5127 H 478.935 -0.514196 -2.89367 0
M  V30 5128 H 476.449 -0.382655 -1.57827 0
M  V30 5129 H 478.446 1.79134 -3.76453 0
M  V30 5130 H 477.106 1.94726 -2.59831 0
M  V30 5131 H 478.117 -0.75274 -5.124 0
M  V30 5132 H 474.794 1.51418 -3.89075 0
M  V30 5133 H 476.184 -1.53742 -6.54074 0
M  V30 5134 N 478.904 1.54736 -0.299062 0
M  V30 5135 C 479.834 2.26409 0.571085 0
M  V30 5136 C 480.815 1.2629 1.13951 0
M  V30 5137 O 482 1.55059 1.16921 0
M  V30 5138 C 479.13 3.00338 1.74396 0
M  V30 5139 C 478.084 4.07588 1.30599 0
M  V30 5140 C 477.41 4.69222 2.56387 0
M  V30 5141 C 478.71 5.20455 0.438645 0
M  V30 5142 H 480.404 2.99388 -0.0266991 0
M  V30 5143 H 477.95 1.43993 -0.0142812 0
M  V30 5144 H 479.903 3.49198 2.35878 0
M  V30 5145 H 478.627 2.24934 2.36796 0
M  V30 5146 H 477.286 3.59575 0.71424 0
M  V30 5147 H 476.934 3.9046 3.17097 0
M  V30 5148 H 476.634 5.41653 2.27784 0
M  V30 5149 H 478.158 5.20844 3.18675 0
M  V30 5150 H 479.572 5.65221 0.959085 0
M  V30 5151 H 477.969 5.99594 0.246466 0
M  V30 5152 H 479.039 4.8192 -0.536738 0
M  V30 5153 N 480.382 0.0267497 1.57577 0
M  V30 5154 C 481.315 -0.99059 2.05579 0
M  V30 5155 C 482.293 -1.31884 0.951065 0
M  V30 5156 O 483.477 -1.43592 1.22121 0
M  V30 5157 C 480.604 -2.31125 2.47586 0
M  V30 5158 C 479.65 -2.13777 3.69055 0
M  V30 5159 S 480.483 -1.4388 5.15809 0
M  V30 5160 C 481.639 -2.77321 5.6111 0
M  V30 5161 H 481.872 -0.581976 2.91548 0
M  V30 5162 H 479.405 -0.184876 1.53289 0
M  V30 5163 H 481.363 -3.07049 2.72454 0
M  V30 5164 H 480.024 -2.6912 1.61967 0
M  V30 5165 H 479.217 -3.11405 3.96287 0
M  V30 5166 H 478.819 -1.45996 3.44327 0
M  V30 5167 H 481.111 -3.73565 5.65204 0
M  V30 5168 H 482.054 -2.54756 6.60685 0
M  V30 5169 H 482.462 -2.82459 4.88751 0
M  V30 5170 N 481.861 -1.55662 -0.24637 0
M  V30 5171 C 483.086 -1.81914 -0.996093 0
M  V30 5172 C 483.511 -0.603875 -1.78143 0
M  V30 5173 O 482.869 0.447091 -1.75701 0
M  V30 5174 C 482.917 -3.05908 -1.90925 0
M  V30 5175 O 482.021 -2.82861 -3.00105 0
M  V30 5176 H 481.362 -0.600481 -0.283406 0
M  V30 5177 H 483.892 -2.02848 -0.267199 0
M  V30 5178 H 483.902 -3.35356 -2.3238 0
M  V30 5179 H 482.577 -3.93999 -1.33183 0
M  V30 5180 H 481.154 -2.64583 -2.62775 0
M  V30 5181 N 483.339 0.512053 -1.4905 0
M  V30 5182 C 484.585 1.26874 -1.58212 0
M  V30 5183 C 484.918 1.9241 -0.263073 0
M  V30 5184 O 484.193 1.80181 0.732476 0
M  V30 5185 C 484.476 2.34428 -2.73341 0
M  V30 5186 C 484.329 1.73466 -4.15006 0
M  V30 5187 C 485.648 3.36073 -2.84154 0
M  V30 5188 H 482.767 0.459924 -0.575881 0
M  V30 5189 H 485.409 0.568587 -1.81293 0
M  V30 5190 H 483.559 2.94146 -2.53792 0
M  V30 5191 H 485.231 1.17661 -4.46042 0
M  V30 5192 H 483.474 1.03921 -4.21168 0
M  V30 5193 H 484.145 2.51426 -4.91415 0
M  V30 5194 H 486.621 2.86332 -3.01916 0
M  V30 5195 H 485.497 4.08703 -3.66406 0
M  V30 5196 H 485.758 3.97725 -1.93048 0
M  V30 5197 N 484.817 1.37938 0.762283 0
M  V30 5198 C 485.767 1.30976 1.86626 0
M  V30 5199 C 486.751 0.195714 1.59705 0
M  V30 5200 O 487.943 0.430937 1.71674 0
M  V30 5201 C 485.072 1.12847 3.24223 0
M  V30 5202 C 484.158 2.28836 3.57064 0
M  V30 5203 N 484.549 3.54256 3.61022 0
M  V30 5204 C 482.847 2.21198 3.87282 0
M  V30 5205 C 483.548 4.30798 3.90881 0
M  V30 5206 N 482.524 3.60049 4.07266 0
M  V30 5207 H 486.326 2.25946 1.87951 0
M  V30 5208 H 483.84 1.31046 0.959206 0
M  V30 5209 H 485.837 1.05943 4.03214 0
M  V30 5210 H 484.497 0.188024 3.24155 0
M  V30 5211 H 485.508 3.8804 3.42995 0
M  V30 5212 H 482.185 1.35264 3.94981 0
M  V30 5213 H 483.575 5.39386 4.00639 0
M  V30 5214 N 486.295 -0.989507 1.22664 0
M  V30 5215 C 487.52 -1.77031 1.08051 0
M  V30 5216 C 487.945 -1.84535 -0.364483 0
M  V30 5217 O 487.303 -1.3003 -1.2634 0
M  V30 5218 C 487.351 -3.18 1.70024 0
M  V30 5219 O 486.455 -4.01161 0.956216 0
M  V30 5220 H 485.796 -0.545008 0.379292 0
M  V30 5221 H 488.326 -1.24277 1.62531 0
M  V30 5222 H 488.336 -3.68616 1.74888 0
M  V30 5223 H 487.011 -3.11853 2.75174 0
M  V30 5224 H 485.588 -3.59687 0.98384 0
M  V30 5225 N 487.773 -1.03688 -1.18687 0
M  V30 5226 C 488.72 -0.624624 -2.22187 0
M  V30 5227 C 489.69 0.365636 -1.62026 0
M  V30 5228 O 490.875 0.260481 -1.89014 0
M  V30 5229 C 488.015 0.0101738 -3.45099 0
M  V30 5230 C 487.128 -1.02709 -4.19613 0
M  V30 5231 C 486.263 -0.361213 -5.2997 0
M  V30 5232 C 485.302 -1.38384 -5.96252 0
M  V30 5233 N 484.439 -0.743196 -6.98155 0
M  V30 5234 H 489.279 -1.51176 -2.56807 0
M  V30 5235 H 486.816 -0.75636 -1.26165 0
M  V30 5236 H 488.774 0.395528 -4.15321 0
M  V30 5237 H 487.404 0.860848 -3.1111 0
M  V30 5238 H 486.456 -1.53043 -3.48256 0
M  V30 5239 H 487.768 -1.80398 -4.65036 0
M  V30 5240 H 486.922 0.0785537 -6.06649 0
M  V30 5241 H 485.661 0.447799 -4.8564 0
M  V30 5242 H 484.666 -1.83378 -5.18317 0
M  V30 5243 H 485.891 -2.19448 -6.42666 0
M  V30 5244 H 483.837 0.0455789 -6.55984 0
M  V30 5245 H 483.754 -1.45784 -7.41811 0
M  V30 5246 H 485.022 -0.327698 -7.78811 0
M  V30 5247 N 489.251 1.34841 -0.815825 0
M  V30 5248 C 490.161 2.33425 -0.234462 0
M  V30 5249 C 491.177 1.62295 0.627413 0
M  V30 5250 O 492.353 1.94109 0.536987 0
M  V30 5251 C 489.418 3.41471 0.599849 0
M  V30 5252 C 488.479 4.28362 -0.283596 0
M  V30 5253 C 487.712 5.31248 0.51099 0
M  V30 5254 O 487.935 5.43056 1.7449 0
M  V30 5255 O 486.869 6.01812 -0.10297 0
M  V30 5256 H 490.695 2.84962 -1.05024 0
M  V30 5257 H 488.28 1.37774 -0.577809 0
M  V30 5258 H 490.162 4.07464 1.07475 0
M  V30 5259 H 488.837 2.9219 1.39308 0
M  V30 5260 H 487.744 3.65318 -0.805836 0
M  V30 5261 H 489.077 4.81066 -1.041 0
M  V30 5262 N 490.729 0.570148 1.46925 0
M  V30 5263 C 491.679 -0.190921 2.27199 0
M  V30 5264 C 492.663 -0.873457 1.35128 0
M  V30 5265 O 493.855 -0.769627 1.59392 0
M  V30 5266 C 490.984 -1.21204 3.21192 0
M  V30 5267 C 490.07 -0.532261 4.20747 0
M  V30 5268 N 490.461 0.405038 5.04176 0
M  V30 5269 C 488.759 -0.784582 4.39045 0
M  V30 5270 C 489.46 0.801149 5.76157 0
M  V30 5271 N 488.436 0.153082 5.43384 0
M  V30 5272 H 492.238 0.529535 2.8909 0
M  V30 5273 H 489.752 0.391019 1.57622 0
M  V30 5274 H 491.749 -1.77135 3.77398 0
M  V30 5275 H 490.409 -1.93345 2.6086 0
M  V30 5276 H 491.42 0.779903 5.11994 0
M  V30 5277 H 488.097 -1.49352 3.89872 0
M  V30 5278 H 489.487 1.57208 6.5325 0
M  V30 5279 N 492.207 -1.54576 0.307264 0
M  V30 5280 C 493.618 -1.8579 -0.184121 0
M  V30 5281 C 493.969 -1.22914 -1.52927 0
M  V30 5282 O 493.094 -0.529126 -2.09831 0
M  V30 5283 C 493.689 -3.37081 -0.340862 0
M  V30 5284 C 492.248 -3.68304 -0.776465 0
M  V30 5285 C 491.395 -2.77076 0.111503 0
M  V30 5286 H 494.346 -1.49656 0.528078 0
M  V30 5287 H 494.367 -3.61922 -1.17443 0
M  V30 5288 H 493.879 -3.82815 0.638309 0
M  V30 5289 H 491.98 -3.28092 -1.76596 0
M  V30 5290 H 492.093 -4.75434 -0.591512 0
M  V30 5291 H 490.457 -2.51374 -0.410256 0
M  V30 5292 H 491.24 -3.25632 1.08714 0
M  V30 5293 N 493.685 -0.035106 -1.57561 0
M  V30 5294 C 494.91 0.655802 -1.96759 0
M  V30 5295 C 495.335 1.64523 -0.911809 0
M  V30 5296 O 494.693 1.80857 0.126673 0
M  V30 5297 C 494.741 1.33326 -3.35047 0
M  V30 5298 O 493.845 2.44866 -3.31835 0
M  V30 5299 H 493.186 0.171807 -0.641388 0
M  V30 5300 H 495.716 -0.0987369 -2.04362 0
M  V30 5301 H 495.726 1.68867 -3.71413 0
M  V30 5302 H 494.401 0.608033 -4.11431 0
M  V30 5303 H 492.978 2.11392 -3.07193 0
M  V30 5304 N 495.163 1.55791 0.238111 0
M  V30 5305 C 496.095 1.87513 1.31802 0
M  V30 5306 C 497.108 0.762053 1.43863 0
M  V30 5307 O 498.297 1.04024 1.45056 0
M  V30 5308 C 495.397 2.05402 2.69561 0
M  V30 5309 C 494.57 3.3632 2.79656 0
M  V30 5310 C 493.629 3.43844 3.98319 0
M  V30 5311 O 492.655 4.16994 3.87433 0
M  V30 5312 N 493.857 2.73777 5.11885 0
M  V30 5313 H 496.622 2.80734 1.04922 0
M  V30 5314 H 494.183 1.56135 0.428196 0
M  V30 5315 H 496.175 2.07769 3.47296 0
M  V30 5316 H 494.745 1.18884 2.89111 0
M  V30 5317 H 493.965 3.46195 1.88528 0
M  V30 5318 H 495.253 4.22594 2.83358 0
M  V30 5319 H 494.651 2.14094 5.23622 0
M  V30 5320 H 493.208 2.81825 5.87723 0
M  V30 5321 N 496.642 -0.504142 1.49319 0
M  V30 5322 C 497.89 -1.25598 1.58334 0
M  V30 5323 C 498.211 -1.93114 0.270538 0
M  V30 5324 O 497.481 -1.82585 -0.709891 0
M  V30 5325 H 496.061 -0.466571 0.58337 0
M  V30 5326 H 498.723 -0.584547 1.85928 0
M  V30 5327 H 497.819 -2.02159 2.37778 0
M  V30 5328 N 498.12 -1.38341 -0.754957 0
M  V30 5329 C 499.053 -1.29837 -1.87663 0
M  V30 5330 C 500.031 -0.175659 -1.61648 0
M  V30 5331 O 501.215 -0.352745 -1.8517 0
M  V30 5332 C 498.342 -1.01141 -3.23246 0
M  V30 5333 C 497.388 -2.15331 -3.6815 0
M  V30 5334 S 498.221 -3.77459 -3.79849 0
M  V30 5335 C 499.377 -3.50948 -5.18253 0
M  V30 5336 H 499.61 -2.24771 -1.9459 0
M  V30 5337 H 497.143 -1.24161 -0.917796 0
M  V30 5338 H 499.101 -0.852687 -4.01546 0
M  V30 5339 H 497.762 -0.0792784 -3.14 0
M  V30 5340 H 496.955 -1.90795 -4.6649 0
M  V30 5341 H 496.557 -2.27304 -2.97 0
M  V30 5342 H 498.849 -3.06977 -6.03963 0
M  V30 5343 H 499.792 -4.48677 -5.47809 0
M  V30 5344 H 500.2 -2.85492 -4.86985 0
M  V30 5345 N 499.598 0.982988 -1.23187 0
M  V30 5346 C 500.545 2.07491 -1.01075 0
M  V30 5347 C 501.515 1.65949 0.070905 0
M  V30 5348 O 502.7 1.90629 -0.0806822 0
M  V30 5349 C 499.84 3.39751 -0.605261 0
M  V30 5350 C 498.953 3.94578 -1.75876 0
M  V30 5351 C 498.088 5.15039 -1.3003 0
M  V30 5352 C 497.127 5.62027 -2.42472 0
M  V30 5353 N 496.264 6.73719 -1.97602 0
M  V30 5354 H 501.104 2.25739 -1.9454 0
M  V30 5355 H 498.641 1.10659 -0.969179 0
M  V30 5356 H 500.599 4.15719 -0.351279 0
M  V30 5357 H 499.229 3.21473 0.292382 0
M  V30 5358 H 498.281 3.1539 -2.12681 0
M  V30 5359 H 499.593 4.25422 -2.60418 0
M  V30 5360 H 498.747 5.9833 -1.00429 0
M  V30 5361 H 497.486 4.85843 -0.425216 0
M  V30 5362 H 496.491 4.77318 -2.7285 0
M  V30 5363 H 497.716 5.93244 -3.30512 0
M  V30 5364 H 495.662 6.46287 -1.1247 0
M  V30 5365 H 495.579 7.03934 -2.75705 0
M  V30 5366 H 496.847 7.6049 -1.71098 0
M  V30 5367 N 501.076 1.04316 1.18135 0
M  V30 5368 C 502.487 0.775505 1.69832 0
M  V30 5369 C 502.838 -0.703348 1.8316 0
M  V30 5370 O 501.963 -1.54729 1.51287 0
M  V30 5371 C 502.558 1.40112 3.0847 0
M  V30 5372 C 501.117 1.18172 3.57368 0
M  V30 5373 C 500.264 1.49022 2.33854 0
M  V30 5374 H 503.215 1.20925 1.02775 0
M  V30 5375 H 503.236 0.805672 3.71873 0
M  V30 5376 H 502.748 2.47744 2.98738 0
M  V30 5377 H 500.849 0.124258 3.72393 0
M  V30 5378 H 500.962 1.8805 4.40652 0
M  V30 5379 H 499.326 0.909995 2.37889 0
M  V30 5380 H 500.109 2.57768 2.26738 0
M  V30 5381 N 502.554 -1.34406 0.822964 0
M  V30 5382 C 503.782 -2.02508 0.424039 0
M  V30 5383 C 504.197 -1.61975 -0.970022 0
M  V30 5384 O 503.554 -0.825228 -1.62777 0
M  V30 5385 C 503.605 -3.57789 0.516657 0
M  V30 5386 O 503.326 -3.96853 1.85577 0
M  V30 5387 C 504.827 -4.43157 0.112637 0
M  V30 5388 H 502.047 -0.649063 0.170173 0
M  V30 5389 H 504.591 -1.7168 1.11113 0
M  V30 5390 H 502.746 -3.87207 -0.122353 0
M  V30 5391 H 503.16 -4.91538 1.83005 0
M  V30 5392 H 504.634 -5.51527 0.228526 0
M  V30 5393 H 505.111 -4.28939 -0.943837 0
M  V30 5394 H 505.717 -4.19067 0.725449 0
M  V30 5395 N 504.032 -0.577932 -1.46621 0
M  V30 5396 C 505.262 -0.0670668 -2.06491 0
M  V30 5397 C 505.67 1.24119 -1.42798 0
M  V30 5398 O 505.013 1.76016 -0.525759 0
M  V30 5399 C 505.075 0.177995 -3.59059 0
M  V30 5400 C 504.739 -1.04394 -4.44917 0
M  V30 5401 C 505.736 -1.95479 -4.81751 0
M  V30 5402 C 503.421 -1.26444 -4.86125 0
M  V30 5403 C 505.415 -3.06965 -5.58615 0
M  V30 5404 C 503.102 -2.38237 -5.62749 0
M  V30 5405 C 504.1 -3.28327 -5.98908 0
M  V30 5406 O 503.788 -4.38179 -6.73984 0
M  V30 5407 H 503.52 -0.0523159 -0.673973 0
M  V30 5408 H 506.074 -0.796966 -1.89308 0
M  V30 5409 H 504.304 0.962451 -3.74531 0
M  V30 5410 H 505.993 0.636782 -4.00874 0
M  V30 5411 H 506.759 -1.79657 -4.50498 0
M  V30 5412 H 502.638 -0.572316 -4.57434 0
M  V30 5413 H 506.182 -3.77309 -5.86757 0
M  V30 5414 H 502.079 -2.54023 -5.93416 0
M  V30 5415 H 502.847 -4.36486 -6.92403 0
M  V30 5416 N 505.51 1.54411 -0.315457 0
M  V30 5417 C 506.44 2.27002 0.547039 0
M  V30 5418 C 507.421 1.27492 1.12605 0
M  V30 5419 O 508.606 1.5629 1.15269 0
M  V30 5420 C 505.736 3.02171 1.71201 0
M  V30 5421 C 504.69 4.0895 1.26268 0
M  V30 5422 C 504.016 4.71915 2.51396 0
M  V30 5423 C 505.316 5.20891 0.383419 0
M  V30 5424 H 507.01 2.99343 -0.0584517 0
M  V30 5425 H 504.556 1.4397 -0.0295527 0
M  V30 5426 H 506.509 3.51681 2.32161 0
M  V30 5427 H 505.233 2.27433 2.34397 0
M  V30 5428 H 503.892 3.60312 0.676062 0
M  V30 5429 H 503.54 3.93801 3.12937 0
M  V30 5430 H 503.24 5.44039 2.22026 0
M  V30 5431 H 504.764 5.24195 3.13133 0
M  V30 5432 H 506.178 5.66206 0.899082 0
M  V30 5433 H 504.575 5.99821 0.182857 0
M  V30 5434 H 505.645 4.81324 -0.587821 0
M  V30 5435 N 506.988 0.0434614 1.5754 0
M  V30 5436 C 508.265 -0.671479 1.83713 0
M  V30 5437 C 508.645 -1.89495 0.930315 0
M  V30 5438 O 507.993 -2.28498 -0.0105639 0
M  V30 5439 C 508.203 -1.0361 3.33266 0
M  V30 5440 C 509.551 -1.42167 4.00092 0
M  V30 5441 O 510.575 -1.12866 3.37846 0
M  V30 5442 O 509.434 -1.96817 5.09829 0
M  V30 5443 H 506.528 -0.330726 0.75799 0
M  V30 5444 H 509.074 0.0722373 1.69546 0
M  V30 5445 H 507.846 -0.165938 3.90948 0
M  V30 5446 H 507.469 -1.83751 3.52592 0
M  V30 5447 N 508.466 -1.55915 -0.229846 0
M  V30 5448 C 509.877 -1.68809 -0.797531 0
M  V30 5449 C 510.228 -0.643995 -1.8533 0
M  V30 5450 O 509.353 0.206492 -2.15413 0
M  V30 5451 C 509.948 -3.06043 -1.45338 0
M  V30 5452 C 508.507 -3.20819 -1.96856 0
M  V30 5453 C 507.654 -2.6472 -0.825736 0
M  V30 5454 H 510.605 -1.58699 -0.00533733 0
M  V30 5455 H 510.626 -3.01438 -2.32196 0
M  V30 5456 H 510.138 -3.82012 -0.684743 0
M  V30 5457 H 508.239 -2.49704 -2.76548 0
M  V30 5458 H 508.352 -4.27937 -2.15423 0
M  V30 5459 H 506.716 -2.22985 -1.23084 0
M  V30 5460 H 507.499 -3.43229 -0.0699019 0
M  V30 5461 N 509.944 0.496216 -1.49584 0
M  V30 5462 C 511.221 1.25755 -1.49816 0
M  V30 5463 C 511.601 2.09859 -0.228572 0
M  V30 5464 O 510.949 2.14449 0.788908 0
M  V30 5465 C 511.159 2.11017 -2.7798 0
M  V30 5466 C 512.507 2.70047 -3.27658 0
M  V30 5467 O 513.531 2.21281 -2.79129 0
M  V30 5468 O 512.39 3.58834 -4.1219 0
M  V30 5469 H 509.484 0.569322 -0.599834 0
M  V30 5470 H 512.03 0.510094 -1.61852 0
M  V30 5471 H 510.802 1.48879 -3.61871 0
M  V30 5472 H 510.425 2.92947 -2.68827 0
M  V30 5473 N 511.423 1.38739 0.74761 0
M  V30 5474 C 512.651 1.38521 1.53686 0
M  V30 5475 C 513.066 -0.0235129 1.88785 0
M  V30 5476 O 512.423 -0.991662 1.53207 0
M  V30 5477 C 512.474 2.24641 2.83229 0
M  V30 5478 O 512.195 3.60026 2.49625 0
M  V30 5479 C 513.696 2.32669 3.77333 0
M  V30 5480 H 510.916 0.473589 0.475347 0
M  V30 5481 H 513.46 1.82395 0.924786 0
M  V30 5482 H 511.615 1.84213 3.40799 0
M  V30 5483 H 512.029 4.05435 3.3275 0
M  V30 5484 H 513.503 2.97201 4.65162 0
M  V30 5485 H 513.98 1.3421 4.18192 0
M  V30 5486 H 514.586 2.73512 3.25685 0
M  V30 5487 N 512.901 -0.976442 1.23707 0
M  V30 5488 C 514.178 -1.69296 0.979699 0
M  V30 5489 C 514.558 -2.0508 -0.500555 0
M  V30 5490 O 513.906 -1.74708 -1.47273 0
M  V30 5491 C 514.116 -2.93143 1.89389 0
M  V30 5492 C 515.464 -3.65572 2.15968 0
M  V30 5493 O 516.488 -3.03184 1.86971 0
M  V30 5494 O 515.347 -4.77859 2.65167 0
M  V30 5495 H 512.441 -0.739708 0.369812 0
M  V30 5496 H 514.987 -1.03131 1.34767 0
M  V30 5497 H 513.759 -2.63327 2.89439 0
M  V30 5498 H 513.382 -3.67044 1.52854 0
M  V30 5499 N 514.379 -1.04941 -1.1758 0
M  V30 5500 C 515.604 -0.778253 -1.92245 0
M  V30 5501 C 516.029 0.659707 -1.76152 0
M  V30 5502 O 515.387 1.45803 -1.07755 0
M  V30 5503 C 515.435 -1.16051 -3.41416 0
M  V30 5504 O 514.539 -0.291153 -4.11371 0
M  V30 5505 H 513.88 -0.285619 -0.599431 0
M  V30 5506 H 516.41 -1.40159 -1.49052 0
M  V30 5507 H 516.42 -1.12619 -3.92149 0
M  V30 5508 H 515.095 -2.208 -3.52449 0
M  V30 5509 H 513.672 -0.385851 -3.70898 0
M  V30 5510 N 515.857 1.33968 -0.830081 0
M  V30 5511 C 517.105 1.97672 -0.420734 0
M  V30 5512 C 517.426 1.66111 1.02138 0
M  V30 5513 O 516.696 0.955503 1.71017 0
M  V30 5514 H 515.276 0.73125 -0.152587 0
M  V30 5515 H 517.938 1.63483 -1.0611 0
M  V30 5516 H 517.034 3.07294 -0.545588 0
M  V30 5517 N 517.335 0.585699 1.46312 0
M  V30 5518 C 518.751 0.247607 1.57668 0
M  V30 5519 C 518.951 -1.25007 1.58037 0
M  V30 5520 O 518.007 -2.03196 1.49893 0
M  V30 5521 C 519.32 0.899456 2.86933 0
M  V30 5522 C 520.868 0.873326 3.00569 0
M  V30 5523 C 521.343 1.50477 4.32574 0
M  V30 5524 N 522.834 1.46925 4.3928 0
M  V30 5525 C 523.569 1.92719 5.40044 0
M  V30 5526 N 523.065 2.46499 6.47464 0
M  V30 5527 N 524.858 1.83617 5.31264 0
M  V30 5528 H 517.009 1.55841 1.44317 0
M  V30 5529 H 519.272 0.651564 0.688599 0
M  V30 5530 H 518.978 1.95313 2.92482 0
M  V30 5531 H 518.852 0.409476 3.74971 0
M  V30 5532 H 521.239 -0.171736 2.946 0
M  V30 5533 H 521.32 1.40136 2.13999 0
M  V30 5534 H 520.964 2.54905 4.39302 0
M  V30 5535 H 520.894 0.951944 5.17924 0
M  V30 5536 H 523.385 1.07616 3.62253 0
M  V30 5537 H 523.698 2.79291 7.20567 0
M  V30 5538 H 522.043 2.50526 6.48276 0
M  V30 5539 H 525.234 1.41358 4.46246 0
M  V30 5540 H 525.407 2.19622 6.09648 0
M  V30 5541 N 518.813 -1.54241 0.323641 0
M  V30 5542 C 520.061 -2.00174 -0.278359 0
M  V30 5543 C 520.382 -1.2134 -1.52648 0
M  V30 5544 O 519.652 -0.315244 -1.93347 0
M  V30 5545 H 518.232 -0.739463 -0.105845 0
M  V30 5546 H 520.894 -1.89864 0.440204 0
M  V30 5547 H 519.99 -3.07486 -0.5347 0
M  V30 5548 N 520.291 -0.0518155 -1.57515 0
M  V30 5549 C 521.516 0.634896 -1.97443 0
M  V30 5550 C 521.941 1.63546 -0.929207 0
M  V30 5551 O 521.299 1.80981 0.107484 0
M  V30 5552 C 521.347 1.29765 -3.36442 0
M  V30 5553 O 520.451 2.41333 -3.34413 0
M  V30 5554 H 519.792 0.164994 -0.643174 0
M  V30 5555 H 522.322 -0.120407 -2.04245 0
M  V30 5556 H 522.332 1.64918 -3.73184 0
M  V30 5557 H 521.007 0.564361 -4.12053 0
M  V30 5558 H 519.584 2.08122 -3.09418 0
M  V30 5559 N 521.769 1.56035 0.221574 0
M  V30 5560 C 523.009 1.80822 0.953038 0
M  V30 5561 C 523.373 0.625316 1.81532 0
M  V30 5562 O 524.574 0.752491 2.58052 0
M  V30 5563 C 522.845 3.10503 1.76983 0
M  V30 5564 S 524.404 3.56604 2.55693 0
M  V30 5565 H 521.222 0.634849 0.320137 0
M  V30 5566 H 523.824 1.94274 0.218619 0
M  V30 5567 H 522.528 3.94636 1.12651 0
M  V30 5568 H 522.059 2.99858 2.54655 0
M  V30 5569 H 524.074 3.1994 3.79279 0
M  V30 5570 N 523.247 -0.488276 1.49845 0
M  V30 5571 C 524.524 -1.24959 1.50481 0
M  V30 5572 C 524.904 -2.09735 0.239698 0
M  V30 5573 O 524.252 -2.14865 -0.777524 0
M  V30 5574 C 524.462 -2.0954 2.79095 0
M  V30 5575 C 525.81 -2.68305 3.29086 0
M  V30 5576 O 526.834 -2.19797 2.80299 0
M  V30 5577 O 525.693 -3.56643 4.14087 0
M  V30 5578 H 522.787 -0.566133 0.602845 0
M  V30 5579 H 525.333 -0.501504 1.6212 0
M  V30 5580 H 524.105 -1.46958 3.62656 0
M  V30 5581 H 523.728 -2.91517 2.70377 0
M  V30 5582 N 524.725 -1.39134 -0.740242 0
M  V30 5583 C 525.95 -1.39518 -1.53459 0
M  V30 5584 C 526.375 0.00968883 -1.88098 0
M  V30 5585 O 525.733 0.995312 -1.51536 0
M  V30 5586 C 525.781 -2.26981 -2.802 0
M  V30 5587 O 524.885 -1.69609 -3.75908 0
M  V30 5588 H 524.226 -0.475328 -0.463637 0
M  V30 5589 H 526.756 -1.83064 -0.913717 0
M  V30 5590 H 526.766 -2.41309 -3.28989 0
M  V30 5591 H 525.441 -3.29081 -2.5432 0
M  V30 5592 H 524.018 -1.64495 -3.34658 0
M  V30 5593 N 526.204 0.969867 -1.24223 0
M  V30 5594 C 527.615 1.52717 -1.07399 0
M  V30 5595 C 527.966 1.92956 0.355298 0
M  V30 5596 O 527.091 1.77112 1.2434 0
M  V30 5597 C 527.686 2.77521 -1.94339 0
M  V30 5598 C 526.245 3.29615 -1.81744 0
M  V30 5599 C 525.392 2.02537 -1.89405 0
M  V30 5600 H 528.343 0.788399 -1.37732 0
M  V30 5601 H 528.364 3.50773 -1.47439 0
M  V30 5602 H 527.876 2.48203 -2.98357 0
M  V30 5603 H 525.977 3.63789 -0.805505 0
M  V30 5604 H 526.09 3.98661 -2.65718 0
M  V30 5605 H 524.454 2.17151 -1.33108 0
M  V30 5606 H 525.237 1.75587 -2.94999 0
M  V30 5607 N 527.682 1.05563 1.17022 0
M  V30 5608 C 528.907 0.788437 1.91829 0
M  V30 5609 C 529.332 -0.650356 1.76499 0
M  V30 5610 O 528.69 -1.45229 1.08527 0
M  V30 5611 C 528.738 1.1786 3.40795 0
M  V30 5612 O 527.842 0.312965 4.11211 0
M  V30 5613 H 527.183 0.288794 0.597908 0
M  V30 5614 H 529.713 1.40948 1.48307 0
M  V30 5615 H 529.723 1.14697 3.91546 0
M  V30 5616 H 528.398 2.22666 3.51273 0
M  V30 5617 H 526.975 0.405515 3.70689 0
M  V30 5618 N 529.16 -1.33526 0.837174 0
M  V30 5619 C 530.09 -2.31764 0.284206 0
M  V30 5620 C 531.071 -1.58896 -0.607142 0
M  V30 5621 O 532.256 -1.86798 -0.531047 0
M  V30 5622 C 529.386 -3.43029 -0.542962 0
M  V30 5623 C 528.34 -4.27255 0.252451 0
M  V30 5624 C 527.666 -5.3012 -0.69836 0
M  V30 5625 C 528.966 -5.01229 1.46858 0
M  V30 5626 H 530.66 -2.78262 1.10502 0
M  V30 5627 H 528.206 -1.3378 0.532812 0
M  V30 5628 H 530.159 -4.1078 -0.940096 0
M  V30 5629 H 528.883 -2.95216 -1.39697 0
M  V30 5630 H 527.542 -3.61127 0.631124 0
M  V30 5631 H 527.19 -4.78564 -1.54872 0
M  V30 5632 H 526.89 -5.87353 -0.170274 0
M  V30 5633 H 528.414 -6.00737 -1.09305 0
M  V30 5634 H 529.828 -5.61756 1.14469 0
M  V30 5635 H 528.225 -5.68104 1.93333 0
M  V30 5636 H 529.295 -4.301 2.23924 0
M  V30 5637 N 530.638 -0.59345 -1.46 0
M  V30 5638 C 531.568 0.121192 -2.33185 0
M  V30 5639 C 532.549 0.872977 -1.4599 0
M  V30 5640 O 533.734 0.846321 -1.74789 0
M  V30 5641 C 530.864 1.12844 -3.28456 0
M  V30 5642 C 529.818 0.4908 -4.25177 0
M  V30 5643 C 529.144 1.60529 -5.10034 0
M  V30 5644 C 530.444 -0.578949 -5.19081 0
M  V30 5645 H 532.138 -0.606767 -2.93187 0
M  V30 5646 H 529.684 -0.293242 -1.40983 0
M  V30 5647 H 531.637 1.63684 -3.88311 0
M  V30 5648 H 530.361 1.88681 -2.66584 0
M  V30 5649 H 529.02 0.00339328 -3.666 0
M  V30 5650 H 528.668 2.35359 -4.44539 0
M  V30 5651 H 528.368 1.18422 -5.75543 0
M  V30 5652 H 529.892 2.11623 -5.72755 0
M  V30 5653 H 531.306 -0.155199 -5.7309 0
M  V30 5654 H 529.703 -0.920947 -5.92991 0
M  V30 5655 H 530.773 -1.46109 -4.62364 0
M  V30 5656 N 532.116 1.54067 -0.331816 0
M  V30 5657 C 533.341 2.05599 0.272705 0
M  V30 5658 C 533.766 1.2059 1.44359 0
M  V30 5659 O 533.124 0.216907 1.79998 0
M  V30 5660 C 533.172 3.54188 0.677021 0
M  V30 5661 O 532.276 3.72082 1.77844 0
M  V30 5662 H 531.617 0.662286 0.0476801 0
M  V30 5663 H 534.147 1.98826 -0.482624 0
M  V30 5664 H 534.157 3.96608 0.957415 0
M  V30 5665 H 532.832 4.15513 -0.179325 0
M  V30 5666 H 531.409 3.41566 1.49622 0
M  V30 5667 N 533.594 0.0601682 1.57485 0
M  V30 5668 C 534.504 -0.926121 2.15546 0
M  V30 5669 C 535.52 -1.33532 1.11558 0
M  V30 5670 O 536.696 -1.4104 1.4377 0
M  V30 5671 C 533.761 -2.17952 2.69625 0
M  V30 5672 C 532.822 -1.82783 3.88444 0
M  V30 5673 C 532.055 -3.02148 4.39935 0
M  V30 5674 O 532.278 -4.15803 3.90466 0
M  V30 5675 O 531.212 -2.82639 5.31412 0
M  V30 5676 H 535.038 -0.462289 3.00161 0
M  V30 5677 H 532.623 -0.162246 1.48516 0
M  V30 5678 H 534.505 -2.91474 3.04337 0
M  V30 5679 H 533.18 -2.63456 1.88077 0
M  V30 5680 H 532.087 -1.06549 3.58606 0
M  V30 5681 H 533.42 -1.42072 4.7125 0
M  V30 5682 N 535.072 -1.5615 -0.213296 0
M  V30 5683 C 536.019 -1.93086 -1.26437 0
M  V30 5684 C 536.989 -0.789086 -1.4616 0
M  V30 5685 O 538.174 -1.04569 -1.59593 0
M  V30 5686 C 535.314 -2.26003 -2.608 0
M  V30 5687 C 534.427 -3.53156 -2.48807 0
M  V30 5688 C 533.562 -3.7548 -3.7575 0
M  V30 5689 C 532.601 -4.96119 -3.58514 0
M  V30 5690 N 531.738 -5.14791 -4.77425 0
M  V30 5691 H 536.578 -2.82707 -0.942376 0
M  V30 5692 H 534.115 -1.39919 -0.454001 0
M  V30 5693 H 536.073 -2.431 -3.39055 0
M  V30 5694 H 534.703 -1.39546 -2.91079 0
M  V30 5695 H 533.755 -3.44207 -1.61944 0
M  V30 5696 H 535.067 -4.41565 -2.31996 0
M  V30 5697 H 534.221 -3.92718 -4.62447 0
M  V30 5698 H 532.96 -2.85368 -3.95495 0
M  V30 5699 H 531.965 -4.78823 -2.70201 0
M  V30 5700 H 533.19 -5.87724 -3.40231 0
M  V30 5701 H 531.136 -4.27623 -4.97468 0
M  V30 5702 H 531.053 -5.97347 -4.63371 0
M  V30 5703 H 532.321 -5.36471 -5.65525 0
M  V30 5704 N 536.55 0.480323 -1.50102 0
M  V30 5705 C 537.79 1.24301 -1.62261 0
M  V30 5706 C 538.154 1.89452 -0.311758 0
M  V30 5707 O 539.355 2.67022 -0.308696 0
M  V30 5708 C 537.626 2.26588 -2.76392 0
M  V30 5709 S 539.185 3.11919 -3.08629 0
M  V30 5710 H 536.003 0.42215 -0.57211 0
M  V30 5711 H 538.605 0.541591 -1.87848 0
M  V30 5712 H 537.309 1.7729 -3.70131 0
M  V30 5713 H 536.84 3.01371 -2.52862 0
M  V30 5714 H 538.855 4.27598 -2.51742 0
M  V30 5715 N 538.028 1.39524 0.732853 0
M  V30 5716 C 538.938 1.40695 1.87729 0
M  V30 5717 C 539.954 0.301496 1.71368 0
M  V30 5718 O 541.13 0.543313 1.93933 0
M  V30 5719 C 538.195 1.25098 3.23344 0
M  V30 5720 C 537.256 2.45634 3.52083 0
M  V30 5721 C 536.489 2.30772 4.81228 0
M  V30 5722 O 536.712 1.31233 5.55098 0
M  V30 5723 O 535.646 3.19799 5.09914 0
M  V30 5724 H 539.472 2.37168 1.89697 0
M  V30 5725 H 537.057 1.20663 0.880959 0
M  V30 5726 H 538.939 1.18541 4.04383 0
M  V30 5727 H 537.614 0.317209 3.22142 0
M  V30 5728 H 536.521 2.57767 2.71122 0
M  V30 5729 H 537.854 3.37712 3.58066 0
M  V30 5730 N 539.506 -0.963266 1.24736 0
M  V30 5731 C 540.416 -2.09246 1.06082 0
M  V30 5732 C 541.432 -1.74 0.000363101 0
M  V30 5733 O 542.608 -2.0041 0.199479 0
M  V30 5734 C 539.673 -3.40115 0.672498 0
M  V30 5735 C 538.734 -3.89282 1.80993 0
M  V30 5736 C 537.967 -5.13905 1.44004 0
M  V30 5737 O 538.19 -5.69434 0.331835 0
M  V30 5738 O 537.124 -5.57566 2.26723 0
M  V30 5739 H 540.95 -2.27881 2.00759 0
M  V30 5740 H 538.535 -1.07649 1.03595 0
M  V30 5741 H 540.417 -4.18797 0.467668 0
M  V30 5742 H 539.092 -3.22771 -0.245102 0
M  V30 5743 H 537.999 -3.11642 2.06955 0
M  V30 5744 H 539.332 -4.1111 2.70646 0
M  V30 5745 N 540.985 -1.06182 -1.16461 0
M  V30 5746 C 542.396 -0.802426 -1.68576 0
M  V30 5747 C 542.747 0.67412 -1.84255 0
M  V30 5748 O 541.872 1.52303 -1.5373 0
M  V30 5749 C 542.467 -1.45002 -3.06202 0
M  V30 5750 C 541.026 -1.23843 -3.55443 0
M  V30 5751 C 540.173 -1.52724 -2.31454 0
M  V30 5752 H 543.124 -1.22545 -1.00839 0
M  V30 5753 H 543.145 -0.864731 -3.70544 0
M  V30 5754 H 542.657 -2.52466 -2.94759 0
M  V30 5755 H 540.758 -0.183487 -3.72148 0
M  V30 5756 H 540.871 -1.95036 -4.37604 0
M  V30 5757 H 539.235 -0.947726 -2.36411 0
M  V30 5758 H 540.018 -2.61343 -2.22609 0
M  V30 5759 N 542.463 1.3308 -0.844243 0
M  V30 5760 C 543.395 2.27954 -0.238671 0
M  V30 5761 C 544.408 1.51978 0.583665 0
M  V30 5762 O 545.597 1.73731 0.409857 0
M  V30 5763 C 542.697 3.31963 0.682185 0
M  V30 5764 C 541.87 4.37281 -0.101998 0
M  V30 5765 C 540.929 5.20928 0.743022 0
M  V30 5766 O 539.955 5.68914 0.180285 0
M  V30 5767 N 541.157 5.42738 2.0595 0
M  V30 5768 H 543.922 2.8056 -1.05386 0
M  V30 5769 H 541.483 1.4583 -0.70322 0
M  V30 5770 H 543.475 3.84828 1.25259 0
M  V30 5771 H 542.045 2.79594 1.39808 0
M  V30 5772 H 541.265 3.84843 -0.853802 0
M  V30 5773 H 542.553 5.04746 -0.641015 0
M  V30 5774 H 541.951 5.05463 2.54016 0
M  V30 5775 H 540.508 5.98639 2.57827 0
M  V30 5776 N 543.941 0.601185 1.45683 0
M  V30 5777 C 544.904 -0.111398 2.28929 0
M  V30 5778 C 545.904 -0.801246 1.39416 0
M  V30 5779 O 547.094 -0.650383 1.61603 0
M  V30 5780 C 544.226 -1.16773 3.20276 0
M  V30 5781 H 545.419 0.620412 2.93413 0
M  V30 5782 H 542.972 0.359946 1.52099 0
M  V30 5783 H 543.707 -1.93051 2.60579 0
M  V30 5784 H 543.492 -0.677358 3.86205 0
M  V30 5785 H 544.982 -1.66698 3.82886 0
M  V30 5786 N 545.419 -1.53889 0.339982 0
M  V30 5787 C 546.367 -2.26391 -0.533822 0
M  V30 5788 C 547.361 -1.28404 -1.10493 0
M  V30 5789 O 548.567 -1.46124 -1.05108 0
M  V30 5790 H 544.942 -0.727385 -0.190828 0
M  V30 5791 H 546.913 -2.98233 0.0997484 0
M  V30 5792 C 545.662 -3.04707 -1.67479 0
M  V30 5793 H 544.985 -3.79934 -1.2446 0
M  V30 5794 H 546.425 -3.58657 -2.26144 0
M  V30 5795 C 544.884 -2.13989 -2.60212 0
M  V30 5796 O 545.414 -1.73361 -3.62366 0
M  V30 5797 N 543.62 -1.79141 -2.28816 0
M  V30 5798 H 543.167 -2.12378 -1.45785 0
M  V30 5799 H 543.125 -1.18725 -2.91121 0
M  V30 5800 N 546.897 -0.0685191 -1.57451 0
M  V30 5801 C 548.308 0.464634 -1.80826 0
M  V30 5802 C 548.659 1.69847 -0.982169 0
M  V30 5803 O 547.784 2.15439 -0.203734 0
M  V30 5804 C 548.379 0.849721 -3.27971 0
M  V30 5805 C 546.938 1.32776 -3.52204 0
M  V30 5806 C 546.085 0.311332 -2.75547 0
M  V30 5807 H 549.036 -0.294248 -1.55948 0
M  V30 5808 H 549.057 1.71138 -3.39841 0
M  V30 5809 H 548.569 -0.0484736 -3.8807 0
M  V30 5810 H 546.67 2.24456 -2.97406 0
M  V30 5811 H 546.783 1.30794 -4.60901 0
M  V30 5812 H 545.147 0.787915 -2.42206 0
M  V30 5813 H 545.93 -0.579078 -3.38381 0
M  V30 5814 N 548.375 1.56261 0.205012 0
M  V30 5815 C 549.6 1.84491 0.947512 0
M  V30 5816 C 550.025 0.650894 1.76479 0
M  V30 5817 O 549.383 -0.40035 1.76824 0
M  V30 5818 C 549.431 3.10863 1.82747 0
M  V30 5819 O 548.535 2.90719 2.925 0
M  V30 5820 H 547.876 0.607783 0.267386 0
M  V30 5821 H 550.406 2.03485 0.213323 0
M  V30 5822 H 550.416 3.41399 2.23407 0
M  V30 5823 H 549.091 3.97392 1.2269 0
M  V30 5824 H 547.668 2.71457 2.55667 0
M  V30 5825 N 549.853 -0.472356 1.50355 0
M  V30 5826 C 551.081 -1.24784 1.65035 0
M  V30 5827 C 551.496 -1.85837 0.333176 0
M  V30 5828 O 550.853 -1.69168 -0.68472 0
M  V30 5829 C 550.904 -2.35747 2.74054 0
M  V30 5830 O 550.625 -1.77197 4.00665 0
M  V30 5831 C 552.126 -3.26645 2.99696 0
M  V30 5832 H 549.346 -0.377432 0.554785 0
M  V30 5833 H 551.89 -0.563962 1.9657 0
M  V30 5834 H 550.045 -2.99912 2.45217 0
M  V30 5835 H 550.459 -2.5026 4.60945 0
M  V30 5836 H 551.933 -4.00718 3.79644 0
M  V30 5837 H 552.41 -3.8535 2.10718 0
M  V30 5838 H 553.016 -2.68218 3.3006 0
M  V30 5839 N 551.331 -1.39911 -0.725443 0
M  V30 5840 C 552.578 -1.37654 -1.48518 0
M  V30 5841 C 552.906 0.0243982 -1.94485 0
M  V30 5842 O 552.161 1.00708 -1.67799 0
M  V30 5843 C 552.46 -2.30368 -2.7325 0
M  V30 5844 C 552.126 -3.77817 -2.461 0
M  V30 5845 C 550.788 -4.17991 -2.38405 0
M  V30 5846 C 553.14 -4.71036 -2.23103 0
M  V30 5847 C 550.468 -5.49433 -2.05768 0
M  V30 5848 C 552.82 -6.02766 -1.9198 0
M  V30 5849 C 551.484 -6.41993 -1.82761 0
M  V30 5850 H 550.754 -0.503713 -0.543465 0
M  V30 5851 H 553.401 -1.7249 -0.831822 0
M  V30 5852 H 551.706 -1.88683 -3.43375 0
M  V30 5853 H 553.403 -2.2591 -3.31309 0
M  V30 5854 H 549.993 -3.45982 -2.52972 0
M  V30 5855 H 554.177 -4.40823 -2.2801 0
M  V30 5856 H 549.433 -5.78738 -1.9716 0
M  V30 5857 H 553.607 -6.74519 -1.73197 0
M  V30 5858 H 551.234 -7.43761 -1.57237 0
M  V30 5859 N 552.809 0.956637 -1.25245 0
M  V30 5860 C 554.039 1.7332 -1.12445 0
M  V30 5861 C 554.447 1.86392 0.324732 0
M  V30 5862 O 553.79 1.35967 1.23526 0
M  V30 5863 C 553.852 3.16603 -1.70303 0
M  V30 5864 C 553.516 3.26966 -3.19284 0
M  V30 5865 C 554.513 3.11434 -4.16299 0
M  V30 5866 C 552.198 3.50851 -3.59456 0
M  V30 5867 C 554.192 3.1963 -5.51467 0
M  V30 5868 C 551.879 3.58684 -4.94761 0
M  V30 5869 C 552.877 3.43087 -5.90576 0
M  V30 5870 O 552.565 3.50598 -7.2342 0
M  V30 5871 H 552.297 0.549981 -0.393061 0
M  V30 5872 H 554.851 1.20892 -1.66055 0
M  V30 5873 H 553.081 3.70385 -1.11138 0
M  V30 5874 H 554.77 3.76109 -1.52632 0
M  V30 5875 H 555.536 2.92853 -3.86604 0
M  V30 5876 H 551.415 3.62053 -2.85375 0
M  V30 5877 H 554.959 3.07373 -6.26233 0
M  V30 5878 H 550.856 3.76782 -5.24124 0
M  V30 5879 H 551.624 3.67242 -7.31489 0
M  V30 5880 N 554.287 1.06798 1.15896 0
M  V30 5881 C 555.564 0.701057 1.82605 0
M  V30 5882 C 555.944 -0.817066 1.94646 0
M  V30 5883 O 555.292 -1.72933 1.49353 0
M  V30 5884 C 555.502 1.40895 3.19296 0
M  V30 5885 C 556.85 1.55744 3.95005 0
M  V30 5886 O 557.874 1.36927 3.28831 0
M  V30 5887 O 556.733 1.86658 5.13635 0
M  V30 5888 H 553.827 0.248791 0.78869 0
M  V30 5889 H 556.373 1.16857 1.23055 0
M  V30 5890 H 555.145 2.4439 3.05596 0
M  V30 5891 H 554.768 0.931847 3.86526 0
M  V30 5892 N 555.766 -1.3263 0.851289 0
M  V30 5893 C 557.177 -1.79653 0.5081 0
M  V30 5894 C 557.528 -1.70327 -0.973815 0
M  V30 5895 O 556.653 -1.25986 -1.75944 0
M  V30 5896 C 557.248 -3.26196 0.915515 0
M  V30 5897 C 555.807 -3.71187 0.624277 0
M  V30 5898 C 554.954 -2.53804 1.11709 0
M  V30 5899 H 557.905 -1.19976 1.03882 0
M  V30 5900 H 557.926 -3.79801 0.230535 0
M  V30 5901 H 557.438 -3.32952 1.99411 0
M  V30 5902 H 555.539 -3.69948 -0.443737 0
M  V30 5903 H 555.652 -4.64132 1.18821 0
M  V30 5904 H 554.016 -2.48964 0.537484 0
M  V30 5905 H 554.799 -2.63315 2.20272 0
M  V30 5906 N 557.244 -0.608902 -1.45362 0
M  V30 5907 C 558.154 0.110969 -2.34337 0
M  V30 5908 C 559.17 0.859007 -1.51318 0
M  V30 5909 O 560.346 0.816296 -1.84116 0
M  V30 5910 C 557.411 1.09494 -3.28956 0
M  V30 5911 C 556.472 0.348718 -4.27881 0
M  V30 5912 C 555.705 1.28582 -5.17979 0
M  V30 5913 O 555.928 2.52369 -5.11533 0
M  V30 5914 O 554.862 0.782172 -5.96796 0
M  V30 5915 H 558.688 -0.620258 -2.97299 0
M  V30 5916 H 556.273 -0.36916 -1.44767 0
M  V30 5917 H 558.155 1.66163 -3.87257 0
M  V30 5918 H 556.83 1.80717 -2.68557 0
M  V30 5919 H 555.737 -0.260465 -3.73192 0
M  V30 5920 H 557.07 -0.323049 -4.91139 0
M  V30 5921 N 558.722 1.53707 -0.348139 0
M  V30 5922 C 559.968 2.01286 0.247332 0
M  V30 5923 C 560.301 1.23546 1.49834 0
M  V30 5924 O 559.576 0.324331 1.91777 0
M  V30 5925 C 559.859 3.55768 0.556858 0
M  V30 5926 C 559.712 4.44216 -0.706564 0
M  V30 5927 C 561.031 4.1841 1.3646 0
M  V30 5928 H 558.15 0.731677 0.0884201 0
M  V30 5929 H 560.792 1.84106 -0.469584 0
M  V30 5930 H 558.942 3.70539 1.16761 0
M  V30 5931 H 560.614 4.41274 -1.34444 0
M  V30 5932 H 558.857 4.12892 -1.33052 0
M  V30 5933 H 559.528 5.50202 -0.445186 0
M  V30 5934 H 562.004 4.07365 0.848113 0
M  V30 5935 H 560.88 5.26563 1.54992 0
M  V30 5936 H 561.141 3.7333 2.36805 0
M  V30 5937 N 560.2 0.0768682 1.57412 0
M  V30 5938 C 561.449 -0.590679 1.92857 0
M  V30 5939 C 561.762 -1.70461 0.959293 0
M  V30 5940 O 562.968 -2.43207 1.20675 0
M  V30 5941 C 561.424 -1.10204 3.42612 0
M  V30 5942 C 561.032 -0.0188447 4.47996 0
M  V30 5943 C 562.776 -1.74336 3.87049 0
M  V30 5944 C 560.683 -0.544536 5.88888 0
M  V30 5945 H 559.613 -0.224411 0.71983 0
M  V30 5946 H 562.264 0.149924 1.82887 0
M  V30 5947 H 560.646 -1.89577 3.47673 0
M  V30 5948 H 561.82 0.755936 4.54557 0
M  V30 5949 H 560.135 0.526555 4.13057 0
M  V30 5950 H 562.732 -2.14708 4.89699 0
M  V30 5951 H 563.075 -2.60537 3.24694 0
M  V30 5952 H 563.608 -1.01577 3.84613 0
M  V30 5953 H 560.347 0.280426 6.549 0
M  V30 5954 H 559.867 -1.28673 5.85836 0
M  V30 5955 H 561.546 -1.01933 6.3892 0
M  V30 5956 N 561.678 -1.56367 -0.196722 0
M  V30 5957 C 562.588 -1.97617 -1.2643 0
M  V30 5958 C 563.604 -0.883598 -1.49895 0
M  V30 5959 O 564.78 -1.18921 -1.62541 0
M  V30 5960 C 561.845 -2.30595 -2.58895 0
M  V30 5961 C 560.906 -3.53551 -2.43516 0
M  V30 5962 C 560.139 -3.84946 -3.69665 0
M  V30 5963 O 560.362 -3.17655 -4.73763 0
M  V30 5964 O 559.296 -4.78379 -3.65291 0
M  V30 5965 H 563.122 -2.88648 -0.944233 0
M  V30 5966 H 560.707 -1.43901 -0.401592 0
M  V30 5967 H 562.589 -2.52889 -3.37083 0
M  V30 5968 H 561.264 -1.42732 -2.90533 0
M  V30 5969 H 560.171 -3.36507 -1.63445 0
M  V30 5970 H 561.504 -4.41875 -2.16812 0
M  V30 5971 N 563.156 0.464375 -1.50603 0
M  V30 5972 C 564.103 1.56152 -1.69956 0
M  V30 5973 C 565.073 1.57046 -0.54091 0
M  V30 5974 O 566.258 1.74473 -0.772258 0
M  V30 5975 C 563.398 2.94079 -1.80586 0
M  V30 5976 C 562.511 3.02923 -3.07996 0
M  V30 5977 C 561.646 4.31806 -3.09382 0
M  V30 5978 C 560.685 4.34417 -4.31218 0
M  V30 5979 N 559.822 5.54782 -4.30304 0
M  V30 5980 H 564.662 1.38955 -2.6362 0
M  V30 5981 H 562.199 0.675482 -1.30674 0
M  V30 5982 H 564.157 3.74073 -1.8473 0
M  V30 5983 H 562.787 3.09896 -0.903556 0
M  V30 5984 H 561.839 2.1576 -3.13292 0
M  V30 5985 H 563.151 3.00712 -3.97962 0
M  V30 5986 H 562.305 5.20153 -3.12292 0
M  V30 5987 H 561.044 4.36636 -2.17257 0
M  V30 5988 H 560.049 3.44467 -4.28512 0
M  V30 5989 H 561.274 4.31273 -5.24576 0
M  V30 5990 H 559.22 5.60384 -3.41037 0
M  V30 5991 H 559.137 5.54339 -5.14047 0
M  V30 5992 H 560.405 6.45235 -4.3737 0
M  V30 5993 N 564.634 1.40294 0.718013 0
M  V30 5994 C 566.045 1.34289 1.29705 0
M  V30 5995 C 566.396 0.0152228 1.96194 0
M  V30 5996 O 565.521 -0.88682 1.97394 0
M  V30 5997 C 566.116 2.43219 2.3586 0
M  V30 5998 C 564.675 2.40682 2.89394 0
M  V30 5999 C 563.822 2.24223 1.63154 0
M  V30 6000 H 566.773 1.50135 0.514312 0
M  V30 6001 H 566.794 2.10986 3.16647 0
M  V30 6002 H 566.306 3.39836 1.87439 0
M  V30 6003 H 564.407 1.47756 3.42051 0
M  V30 6004 H 564.52 3.36177 3.41353 0
M  V30 6005 H 562.884 1.71696 1.88129 0
M  V30 6006 H 563.667 3.22834 1.16761 0
M  V30 6007 N 566.112 -0.949982 1.2575 0
M  V30 6008 C 567.022 -2.08109 1.08295 0
M  V30 6009 C 568.038 -1.7399 0.0188181 0
M  V30 6010 O 569.214 -2.00187 0.220724 0
M  V30 6011 C 566.279 -3.39383 0.708534 0
M  V30 6012 C 565.34 -3.8734 1.85111 0
M  V30 6013 C 564.573 -5.12349 1.49447 0
M  V30 6014 O 564.796 -5.6905 0.392212 0
M  V30 6015 O 563.73 -5.5513 2.32624 0
M  V30 6016 H 567.556 -2.25738 2.03165 0
M  V30 6017 H 565.141 -1.06545 1.04731 0
M  V30 6018 H 567.023 -4.18277 0.512061 0
M  V30 6019 H 565.698 -3.23013 -0.210854 0
M  V30 6020 H 564.605 -3.09429 2.10248 0
M  V30 6021 H 565.938 -4.08216 2.74991 0
M  V30 6022 N 567.59 -1.07411 -1.15328 0
M  V30 6023 C 568.538 -0.689316 -2.22151 0
M  V30 6024 C 569.532 0.300156 -1.6672 0
M  V30 6025 O 570.738 0.163804 -1.79253 0
M  V30 6026 H 567.113 -0.204834 -0.723566 0
M  V30 6027 H 569.084 -1.59988 -2.51886 0
M  V30 6028 C 567.833 -0.103848 -3.47545 0
M  V30 6029 H 567.156 -0.856367 -3.90521 0
M  V30 6030 H 568.596 0.127725 -4.23808 0
M  V30 6031 C 567.055 1.15563 -3.1646 0
M  V30 6032 O 567.585 2.242 -3.33312 0
M  V30 6033 N 565.791 1.06203 -2.70498 0
M  V30 6034 H 565.338 0.177933 -2.56985 0
M  V30 6035 H 565.296 1.90553 -2.50074 0
M  V30 6036 N 569.068 1.32177 -0.85831 0
M  V30 6037 C 570.479 1.79381 -0.517621 0
M  V30 6038 C 570.83 1.70841 0.964769 0
M  V30 6039 O 569.955 1.26917 1.75274 0
M  V30 6040 C 570.55 3.25706 -0.932801 0
M  V30 6041 C 569.109 3.70851 -0.643953 0
M  V30 6042 C 568.256 2.53208 -1.13054 0
M  V30 6043 H 571.207 1.19424 -1.04516 0
M  V30 6044 H 571.228 3.79673 -0.250674 0
M  V30 6045 H 570.74 3.31889 -2.01174 0
M  V30 6046 H 568.841 3.70178 0.424112 0
M  V30 6047 H 568.954 4.63495 -1.21281 0
M  V30 6048 H 567.318 2.48676 -0.550679 0
M  V30 6049 H 568.101 2.62143 -2.21666 0
M  V30 6050 N 570.547 0.616602 1.45037 0
M  V30 6051 C 571.457 -0.0985401 2.34393 0
M  V30 6052 C 572.473 -0.850971 1.51771 0
M  V30 6053 O 573.649 -0.806521 1.84546 0
M  V30 6054 C 570.714 -1.07748 3.29532 0
M  V30 6055 C 569.775 -0.326022 4.2806 0
M  V30 6056 C 569.008 -1.25833 5.18654 0
M  V30 6057 O 569.231 -2.49652 5.12864 0
M  V30 6058 O 568.165 -0.750512 5.97203 0
M  V30 6059 H 571.991 0.636016 2.96966 0
M  V30 6060 H 569.576 0.376832 1.44569 0
M  V30 6061 H 571.458 -1.64107 3.88133 0
M  V30 6062 H 570.133 -1.79291 2.69512 0
M  V30 6063 H 569.04 0.280253 3.73049 0
M  V30 6064 H 570.373 0.349091 4.9096 0
M  V30 6065 N 572.025 -1.5352 0.356285 0
M  V30 6066 C 573.253 -2.05534 -0.237328 0
M  V30 6067 C 573.668 -1.23043 -1.43199 0
M  V30 6068 O 573.025 -0.268821 -1.80509 0
M  V30 6069 C 573.076 -3.55791 -0.639933 0
M  V30 6070 O 572.797 -4.35154 0.507233 0
M  V30 6071 C 574.298 -4.24027 -1.29292 0
M  V30 6072 H 571.518 -0.669585 -0.0435572 0
M  V30 6073 H 574.062 -1.97988 0.511963 0
M  V30 6074 H 572.217 -3.63518 -1.33915 0
M  V30 6075 H 572.631 -5.24178 0.18375 0
M  V30 6076 H 574.105 -5.30509 -1.52527 0
M  V30 6077 H 574.582 -3.77166 -2.25039 0
M  V30 6078 H 575.188 -4.20527 -0.63539 0
M  V30 6079 N 573.503 -0.0852151 -1.57369 0
M  V30 6080 C 574.731 0.58946 -1.98325 0
M  V30 6081 C 575.146 1.62333 -0.96403 0
M  V30 6082 O 574.503 1.82438 0.0476395 0
M  V30 6083 C 574.554 1.24604 -3.39347 0
M  V30 6084 O 574.275 0.253532 -4.37366 0
M  V30 6085 C 575.776 2.00726 -3.95252 0
M  V30 6086 H 572.996 0.158783 -0.651942 0
M  V30 6087 H 575.54 -0.161584 -2.03861 0
M  V30 6088 H 573.695 1.94808 -3.34856 0
M  V30 6089 H 574.109 0.726207 -5.19448 0
M  V30 6090 H 575.583 2.42039 -4.96106 0
M  V30 6091 H 576.06 2.86919 -3.32527 0
M  V30 6092 H 576.666 1.3536 -4.03185 0
M  V30 6093 N 574.981 1.5647 0.188427 0
M  V30 6094 C 575.931 1.91479 1.23774 0
M  V30 6095 C 576.915 0.78119 1.40664 0
M  V30 6096 O 578.107 1.04414 1.42922 0
M  V30 6097 C 575.236 2.26354 2.58106 0
M  V30 6098 C 574.322 3.46186 2.44981 0
M  V30 6099 N 574.713 4.63911 2.01546 0
M  V30 6100 C 573.011 3.50456 2.75856 0
M  V30 6101 C 573.712 5.46064 2.00472 0
M  V30 6102 N 572.688 4.86648 2.42229 0
M  V30 6103 H 576.49 2.79994 0.893339 0
M  V30 6104 H 574.004 1.57477 0.39682 0
M  V30 6105 H 576.001 2.49622 3.33908 0
M  V30 6106 H 574.661 1.39168 2.93364 0
M  V30 6107 H 575.672 4.88451 1.7215 0
M  V30 6108 H 572.349 2.73704 3.15265 0
M  V30 6109 H 573.739 6.50368 1.68734 0
M  V30 6110 N 576.459 -0.456382 1.50847 0
M  V30 6111 C 577.687 -1.23026 1.66349 0
M  V30 6112 C 578.102 -1.85473 0.352868 0
M  V30 6113 O 577.459 -1.69885 -0.666739 0
M  V30 6114 C 577.51 -2.32827 2.76539 0
M  V30 6115 O 577.231 -1.72938 4.02522 0
M  V30 6116 C 578.732 -3.23448 3.03144 0
M  V30 6117 H 575.952 -0.371527 0.558756 0
M  V30 6118 H 578.496 -0.543082 1.97157 0
M  V30 6119 H 576.651 -2.97294 2.48384 0
M  V30 6120 H 577.065 -2.45357 4.63573 0
M  V30 6121 H 578.539 -3.96669 3.83872 0
M  V30 6122 H 579.016 -3.83094 2.14793 0
M  V30 6123 H 579.622 -2.64702 3.32886 0
M  V30 6124 N 577.937 -1.40673 -0.710563 0
M  V30 6125 C 579.183 -1.4043 -1.47142 0
M  V30 6126 C 579.538 -0.00781557 -1.92398 0
M  V30 6127 O 578.831 0.963535 -1.6561 0
M  V30 6128 C 579.025 -2.33253 -2.70791 0
M  V30 6129 C 578.854 -3.81789 -2.37629 0
M  V30 6130 C 577.624 -4.5057 -2.28724 0
M  V30 6131 C 579.822 -4.73152 -2.01572 0
M  V30 6132 N 577.804 -5.84312 -1.88289 0
M  V30 6133 C 579.175 -5.95728 -1.71778 0
M  V30 6134 C 581.23 -4.6094 -1.88252 0
M  V30 6135 C 579.933 -7.07454 -1.30003 0
M  V30 6136 C 581.959 -5.72613 -1.47881 0
M  V30 6137 C 581.321 -6.94278 -1.18987 0
M  V30 6138 H 577.42 -0.569115 -0.536314 0
M  V30 6139 H 580.004 -1.76425 -0.823547 0
M  V30 6140 H 578.175 -1.99378 -3.33321 0
M  V30 6141 H 579.907 -2.23833 -3.37166 0
M  V30 6142 H 576.662 -4.04315 -2.46629 0
M  V30 6143 H 577.086 -6.55153 -1.70596 0
M  V30 6144 H 581.728 -3.67389 -2.09249 0
M  V30 6145 H 579.446 -8.00884 -1.07749 0
M  V30 6146 H 583.032 -5.65161 -1.38145 0
M  V30 6147 H 581.912 -7.79222 -0.88219 0
M  V30 6148 N 579.415 0.9433 -1.26252 0
M  V30 6149 C 580.692 1.66639 -1.02424 0
M  V30 6150 C 581.072 2.06335 0.446006 0
M  V30 6151 O 580.42 1.78551 1.42589 0
M  V30 6152 C 580.63 2.88019 -1.97094 0
M  V30 6153 C 581.978 3.59718 -2.25584 0
M  V30 6154 O 583.002 2.9812 -1.94943 0
M  V30 6155 O 581.861 4.7066 -2.77743 0
M  V30 6156 H 578.955 0.729643 -0.389294 0
M  V30 6157 H 581.501 0.995218 -1.37454 0
M  V30 6158 H 580.273 2.5556 -2.96319 0
M  V30 6159 H 579.896 3.62863 -1.62532 0
M  V30 6160 N 580.893 1.08022 1.14757 0
M  V30 6161 C 582.304 0.829144 1.67279 0
M  V30 6162 C 582.655 -0.644721 1.85305 0
M  V30 6163 O 581.78 -1.49838 1.56133 0
M  V30 6164 C 582.375 1.49855 3.03857 0
M  V30 6165 C 580.934 1.29482 3.53428 0
M  V30 6166 C 580.081 1.56386 2.28995 0
M  V30 6167 H 583.032 1.24134 0.988762 0
M  V30 6168 H 583.053 0.923572 3.69121 0
M  V30 6169 H 582.565 2.57123 2.90705 0
M  V30 6170 H 580.666 0.242669 3.71809 0
M  V30 6171 H 580.779 2.01974 4.34446 0
M  V30 6172 H 579.143 0.985217 2.34874 0
M  V30 6173 H 579.926 2.64851 2.18423 0
M  V30 6174 N 582.371 -1.3172 0.865308 0
M  V30 6175 C 583.303 -2.27545 0.274906 0
M  V30 6176 C 584.316 -1.52887 -0.559413 0
M  V30 6177 O 585.505 -1.74361 -0.382166 0
M  V30 6178 C 582.605 -3.33006 -0.629286 0
M  V30 6179 C 581.778 -4.37063 0.171553 0
M  V30 6180 C 580.837 -5.22044 -0.660052 0
M  V30 6181 O 579.863 -5.69129 -0.0897527 0
M  V30 6182 N 581.065 -5.45946 -1.97289 0
M  V30 6183 H 583.83 -2.78848 1.09836 0
M  V30 6184 H 581.391 -1.44693 0.726331 0
M  V30 6185 H 583.383 -3.86772 -1.19121 0
M  V30 6186 H 581.953 -2.81782 -1.35342 0
M  V30 6187 H 581.173 -3.83436 0.914919 0
M  V30 6188 H 582.461 -5.03662 0.721235 0
M  V30 6189 H 581.859 -5.0944 -2.45942 0
M  V30 6190 H 580.416 -6.02665 -2.4827 0
M  V30 6191 N 583.85 -0.624285 -1.44708 0
M  V30 6192 C 585.09 -0.129273 -2.03991 0
M  V30 6193 C 585.454 1.22321 -1.47992 0
M  V30 6194 O 586.654 1.80993 -1.98734 0
M  V30 6195 C 584.926 -0.108231 -3.57236 0
M  V30 6196 S 586.485 0.323158 -4.37608 0
M  V30 6197 H 583.303 -0.0577318 -0.708652 0
M  V30 6198 H 585.904 -0.826139 -1.77187 0
M  V30 6199 H 584.609 -1.0958 -3.955 0
M  V30 6200 H 584.139 0.610101 -3.8864 0
M  V30 6201 H 586.154 1.56894 -4.70743 0
M  V30 6202 N 585.328 1.53329 -0.364422 0
M  V30 6203 C 586.577 2.00421 0.226747 0
M  V30 6204 C 586.89 1.25581 1.49963 0
M  V30 6205 O 588.096 1.63256 2.16933 0
M  V30 6206 C 586.552 3.57017 0.454618 0
M  V30 6207 C 586.16 4.40734 -0.803568 0
M  V30 6208 C 587.904 4.12468 1.00351 0
M  V30 6209 C 585.811 5.8888 -0.545345 0
M  V30 6210 H 584.741 0.748787 0.0885082 0
M  V30 6211 H 587.392 1.7703 -0.482983 0
M  V30 6212 H 585.774 3.76558 1.22558 0
M  V30 6213 H 586.948 4.32967 -1.57723 0
M  V30 6214 H 585.263 3.96381 -1.27559 0
M  V30 6215 H 587.86 5.20783 1.212 0
M  V30 6216 H 588.203 3.6699 1.9653 0
M  V30 6217 H 588.736 3.96721 0.29274 0
M  V30 6218 H 585.475 6.38633 -1.47743 0
M  V30 6219 H 584.995 5.99499 0.189842 0
M  V30 6220 H 586.674 6.46776 -0.170425 0
M  V30 6221 N 586.806 0.0935595 1.57322 0
M  V30 6222 C 588.031 -0.582324 1.99057 0
M  V30 6223 C 588.456 -1.61025 0.972242 0
M  V30 6224 O 587.814 -1.81202 -0.0594622 0
M  V30 6225 C 587.862 -1.20799 3.39765 0
M  V30 6226 O 586.966 -2.32382 3.40694 0
M  V30 6227 H 586.307 -0.147884 0.647323 0
M  V30 6228 H 588.837 0.174516 2.03854 0
M  V30 6229 H 588.847 -1.54966 3.77425 0
M  V30 6230 H 587.522 -0.454914 4.13405 0
M  V30 6231 H 586.099 -1.99845 3.14827 0
M  V30 6232 N 588.284 -1.56567 -0.180126 0
M  V30 6233 C 589.217 -1.90813 -1.25163 0
M  V30 6234 C 590.195 -0.7699 -1.43218 0
M  V30 6235 O 591.379 -1.02236 -1.58367 0
M  V30 6236 C 588.506 -2.15138 -2.61597 0
M  V30 6237 C 587.552 -3.37834 -2.60328 0
M  V30 6238 S 588.385 -4.92486 -2.1028 0
M  V30 6239 C 589.541 -5.19896 -3.48509 0
M  V30 6240 H 589.774 -2.81398 -0.959283 0
M  V30 6241 H 587.307 -1.49541 -0.3843 0
M  V30 6242 H 589.265 -2.29835 -3.40127 0
M  V30 6243 H 587.926 -1.25276 -2.88036 0
M  V30 6244 H 587.119 -3.52027 -3.60684 0
M  V30 6245 H 586.721 -3.22208 -1.8989 0
M  V30 6246 H 589.013 -5.11334 -4.44459 0
M  V30 6247 H 589.956 -6.21571 -3.39198 0
M  V30 6248 H 590.364 -4.47489 -3.44114 0
M  V30 6249 N 589.762 0.448376 -1.51087 0
M  V30 6250 C 590.672 1.56882 -1.74428 0
M  V30 6251 C 591.688 1.62268 -0.62809 0
M  V30 6252 O 592.864 1.79716 -0.909075 0
M  V30 6253 C 589.929 2.92947 -1.85426 0
M  V30 6254 C 588.99 2.97766 -3.09247 0
M  V30 6255 C 588.223 4.27341 -3.19711 0
M  V30 6256 O 588.446 5.19112 -2.36387 0
M  V30 6257 O 587.38 4.38219 -4.12611 0
M  V30 6258 H 591.206 1.40104 -2.69452 0
M  V30 6259 H 588.791 0.630247 -1.35456 0
M  V30 6260 H 590.673 3.73719 -1.94709 0
M  V30 6261 H 589.348 3.09876 -0.935887 0
M  V30 6262 H 588.255 2.15989 -3.0545 0
M  V30 6263 H 589.588 2.8578 -4.00738 0
M  V30 6264 N 591.24 1.41047 0.703093 0
M  V30 6265 C 592.488 1.39723 1.4602 0
M  V30 6266 C 592.809 0.00461257 1.94999 0
M  V30 6267 O 592.079 -0.952292 1.71196 0
M  V30 6268 H 590.659 0.514281 0.541779 0
M  V30 6269 H 593.321 1.76217 0.832678 0
M  V30 6270 H 592.417 2.07982 2.32701 0
M  V30 6271 N 592.718 -0.936591 1.26751 0
M  V30 6272 C 593.665 -2.03597 1.08706 0
M  V30 6273 C 594.635 -1.66097 -0.00926542 0
M  V30 6274 O 595.82 -1.90199 0.151377 0
M  V30 6275 C 592.96 -3.3727 0.73094 0
M  V30 6276 C 592.073 -3.87778 1.90399 0
M  V30 6277 C 591.208 -5.09859 1.49056 0
M  V30 6278 C 590.247 -5.5264 2.63164 0
M  V30 6279 N 589.384 -6.65921 2.22471 0
M  V30 6280 H 594.224 -2.18364 2.02784 0
M  V30 6281 H 591.761 -1.06985 1.00958 0
M  V30 6282 H 593.719 -4.14128 0.505328 0
M  V30 6283 H 592.349 -3.22337 -0.172868 0
M  V30 6284 H 591.401 -3.07279 2.2424 0
M  V30 6285 H 592.713 -4.15464 2.76028 0
M  V30 6286 H 591.867 -5.9419 1.22567 0
M  V30 6287 H 590.606 -4.8393 0.60524 0
M  V30 6288 H 589.611 -4.66863 2.90377 0
M  V30 6289 H 590.836 -5.80568 3.52303 0
M  V30 6290 H 588.782 -6.41667 1.36379 0
M  V30 6291 H 588.699 -6.93216 3.01641 0
M  V30 6292 H 589.967 -7.53616 1.99205 0
M  V30 6293 N 594.196 -1.08629 -1.14182 0
M  V30 6294 C 595.445 -0.812271 -1.84621 0
M  V30 6295 C 595.758 0.664313 -1.83973 0
M  V30 6296 O 596.964 1.05357 -2.50224 0
M  V30 6297 C 595.42 -1.4031 -3.31423 0
M  V30 6298 C 595.028 -2.91164 -3.40481 0
M  V30 6299 C 596.772 -1.20767 -4.06959 0
M  V30 6300 C 594.679 -3.43373 -4.81507 0
M  V30 6301 H 593.609 -0.30019 -0.691666 0
M  V30 6302 H 596.26 -1.30798 -1.28701 0
M  V30 6303 H 594.642 -0.835096 -3.87094 0
M  V30 6304 H 595.816 -3.5412 -2.94848 0
M  V30 6305 H 594.131 -3.09646 -2.78403 0
M  V30 6306 H 596.728 -1.57237 -5.11058 0
M  V30 6307 H 597.071 -0.147664 -4.16038 0
M  V30 6308 H 597.604 -1.74274 -3.57594 0
M  V30 6309 H 594.343 -4.48958 -4.77616 0
M  V30 6310 H 593.863 -2.85176 -5.27669 0
M  V30 6311 H 595.542 -3.40095 -5.50404 0
M  V30 6312 N 595.674 1.31259 -0.872281 0
M  V30 6313 C 597.085 1.78822 -0.536617 0
M  V30 6314 C 597.436 1.71855 0.946594 0
M  V30 6315 O 596.561 1.28769 1.73918 0
M  V30 6316 C 597.156 3.24698 -0.967294 0
M  V30 6317 C 595.715 3.70147 -0.683251 0
M  V30 6318 C 594.862 2.51994 -1.15733 0
M  V30 6319 H 597.813 1.18308 -1.05777 0
M  V30 6320 H 597.834 3.79386 -0.290929 0
M  V30 6321 H 597.346 3.29737 -2.04683 0
M  V30 6322 H 595.447 3.70607 0.384825 0
M  V30 6323 H 595.56 4.62183 -1.2619 0
M  V30 6324 H 593.924 2.48078 -0.577024 0
M  V30 6325 H 594.707 2.59778 -2.24434 0
M  V30 6326 N 597.152 0.631951 1.44375 0
M  V30 6327 C 598.382 0.143658 2.061 0
M  V30 6328 C 598.79 -1.18733 1.47306 0
M  V30 6329 O 598.133 -1.73943 0.590724 0
M  V30 6330 C 598.195 -0.0446102 3.59472 0
M  V30 6331 C 597.859 1.20835 4.40736 0
M  V30 6332 C 598.856 2.13224 4.74164 0
M  V30 6333 C 596.541 1.44399 4.81097 0
M  V30 6334 C 598.535 3.27487 5.46838 0
M  V30 6335 C 596.222 2.58959 5.53519 0
M  V30 6336 C 597.22 3.50329 5.86309 0
M  V30 6337 O 596.908 4.62891 6.57257 0
M  V30 6338 H 596.64 0.0772939 0.671567 0
M  V30 6339 H 599.194 0.866677 1.8622 0
M  V30 6340 H 597.424 -0.822783 3.77845 0
M  V30 6341 H 599.113 -0.487561 4.02961 0
M  V30 6342 H 599.879 1.96253 4.4352 0
M  V30 6343 H 595.758 0.741696 4.54994 0
M  V30 6344 H 599.302 3.98826 5.72349 0
M  V30 6345 H 595.199 2.75873 5.83579 0
M  V30 6346 H 595.967 4.61883 6.75726 0
M  V30 6347 N 598.631 -1.53133 0.372548 0
M  V30 6348 C 599.878 -2.01356 -0.214959 0
M  V30 6349 C 600.206 -1.2596 -1.48204 0
M  V30 6350 O 599.461 -0.343511 -1.92662 0
M  V30 6351 C 599.76 -3.53206 -0.545938 0
M  V30 6352 C 599.426 -4.46511 0.627624 0
M  V30 6353 C 598.088 -4.71737 0.949615 0
M  V30 6354 C 600.44 -5.01666 1.41353 0
M  V30 6355 C 597.768 -5.4937 2.05936 0
M  V30 6356 C 600.12 -5.80511 2.51375 0
M  V30 6357 C 598.784 -6.04022 2.84101 0
M  V30 6358 H 598.054 -0.736813 -0.078659 0
M  V30 6359 H 600.701 -1.84682 0.506447 0
M  V30 6360 H 599.006 -3.67864 -1.34845 0
M  V30 6361 H 600.703 -3.87997 -1.01287 0
M  V30 6362 H 597.293 -4.27029 0.366635 0
M  V30 6363 H 601.477 -4.82117 1.17802 0
M  V30 6364 H 596.733 -5.65803 2.31682 0
M  V30 6365 H 600.907 -6.22255 3.12684 0
M  V30 6366 H 598.534 -6.63962 3.70214 0
M  V30 6367 N 600.109 -0.101901 -1.5727 0
M  V30 6368 C 601.059 0.865346 -2.1094 0
M  V30 6369 C 602.043 1.2394 -1.02605 0
M  V30 6370 O 603.235 1.21334 -1.28868 0
M  V30 6371 C 600.364 2.12187 -2.69874 0
M  V30 6372 C 599.45 1.77295 -3.85263 0
M  V30 6373 N 599.841 1.12993 -4.93017 0
M  V30 6374 C 598.139 2.06862 -3.95126 0
M  V30 6375 C 598.84 0.968631 -5.73579 0
M  V30 6376 N 597.816 1.48814 -5.22834 0
M  V30 6377 H 601.618 0.364368 -2.91633 0
M  V30 6378 H 599.132 0.101104 -1.62085 0
M  V30 6379 H 601.129 2.82431 -3.06657 0
M  V30 6380 H 599.789 2.62844 -1.90639 0
M  V30 6381 H 600.8 0.795935 -5.11747 0
M  V30 6382 H 597.477 2.59686 -3.26909 0
M  V30 6383 H 598.867 0.465231 -6.70287 0
M  V30 6384 N 601.587 1.56661 0.17182 0
M  V30 6385 C 602.55 1.9549 1.19651 0
M  V30 6386 C 603.55 0.838501 1.37207 0
M  V30 6387 O 604.74 1.10556 1.34622 0
M  V30 6388 C 601.872 2.24927 2.56166 0
M  V30 6389 H 603.065 2.87184 0.864007 0
M  V30 6390 H 600.618 1.50711 0.41425 0
M  V30 6391 H 601.353 1.35944 2.94431 0
M  V30 6392 H 601.138 3.06301 2.4479 0
M  V30 6393 H 602.628 2.55891 3.30014 0
M  V30 6394 N 603.065 -0.440357 1.51323 0
M  V30 6395 C 604.313 -1.18769 1.63518 0
M  V30 6396 C 604.634 -1.91793 0.352201 0
M  V30 6397 O 603.904 -1.85432 -0.631811 0
M  V30 6398 H 602.484 -0.441408 0.602634 0
M  V30 6399 H 605.146 -0.505162 1.8824 0
M  V30 6400 H 604.242 -1.91892 2.46138 0
M  V30 6401 N 604.543 -1.41418 -0.695603 0
M  V30 6402 C 605.791 -1.40496 -1.45277 0
M  V30 6403 C 606.112 -0.0149538 -1.94994 0
M  V30 6404 O 605.382 0.9432 -1.71699 0
M  V30 6405 H 603.962 -0.517147 -0.539044 0
M  V30 6406 H 606.624 -1.76656 -0.823321 0
M  V30 6407 H 605.72 -2.09214 -2.31595 0
M  V30 6408 N 606.021 0.929856 -1.27246 0
M  V30 6409 C 607.246 1.71674 -1.16374 0
M  V30 6410 C 607.671 1.86064 0.276024 0
M  V30 6411 O 607.029 1.3591 1.19992 0
M  V30 6412 C 607.077 3.09526 -1.85003 0
M  V30 6413 O 606.181 3.96142 -1.14653 0
M  V30 6414 H 605.522 0.52629 -0.404863 0
M  V30 6415 H 608.052 1.16381 -1.68276 0
M  V30 6416 H 608.062 3.59852 -1.92276 0
M  V30 6417 H 606.737 2.98369 -2.89739 0
M  V30 6418 H 605.314 3.54584 -1.15433 0
M  V30 6419 N 607.499 1.09233 1.13605 0
M  V30 6420 C 608.446 0.729921 2.18954 0
M  V30 6421 C 609.416 -0.287916 1.63586 0
M  V30 6422 O 610.601 -0.170003 1.90041 0
M  V30 6423 C 607.741 0.154489 3.44754 0
M  V30 6424 C 606.854 1.22613 4.14234 0
M  V30 6425 C 605.989 0.613657 5.27644 0
M  V30 6426 C 605.028 1.66674 5.8897 0
M  V30 6427 N 604.165 1.07545 6.93814 0
M  V30 6428 H 609.005 1.63257 2.49302 0
M  V30 6429 H 606.542 0.815693 1.22413 0
M  V30 6430 H 608.5 -0.196923 4.16735 0
M  V30 6431 H 607.13 -0.711433 3.14863 0
M  V30 6432 H 606.182 1.69485 3.40557 0
M  V30 6433 H 607.494 2.0238 4.55899 0
M  V30 6434 H 606.648 0.210976 6.06333 0
M  V30 6435 H 605.387 -0.215584 4.87223 0
M  V30 6436 H 604.392 2.07899 5.08978 0
M  V30 6437 H 605.617 2.49861 6.31464 0
M  V30 6438 H 603.563 0.267451 6.55455 0
M  V30 6439 H 603.48 1.81011 7.3401 0
M  V30 6440 H 604.748 0.698906 7.7636 0
M  V30 6441 N 608.977 -1.30795 0.87923 0
M  V30 6442 C 610.217 -1.98155 0.50141 0
M  V30 6443 C 610.581 -1.67925 -0.930863 0
M  V30 6444 O 611.782 -2.28572 -1.41451 0
M  V30 6445 C 610.053 -3.49184 0.761937 0
M  V30 6446 S 611.612 -4.36107 0.485361 0
M  V30 6447 H 608.43 -0.686025 0.186792 0
M  V30 6448 H 611.032 -1.59018 1.13726 0
M  V30 6449 H 609.736 -3.68676 1.80295 0
M  V30 6450 H 609.267 -3.93236 0.113432 0
M  V30 6451 H 611.282 -4.9154 -0.678467 0
M  V30 6452 N 610.455 -0.639598 -1.44038 0
M  V30 6453 C 611.68 -0.153117 -2.06834 0
M  V30 6454 C 612.105 1.16676 -1.47541 0
M  V30 6455 O 611.463 1.71769 -0.580093 0
M  V30 6456 C 611.511 -0.0609169 -3.60549 0
M  V30 6457 O 610.615 0.98071 -4.00569 0
M  V30 6458 H 609.956 -0.0886402 -0.658057 0
M  V30 6459 H 612.486 -0.878674 -1.84771 0
M  V30 6460 H 612.496 0.126892 -4.07803 0
M  V30 6461 H 611.171 -1.0245 -4.03084 0
M  V30 6462 H 609.748 0.766789 -3.64931 0
M  V30 6463 N 611.933 1.52934 -0.380664 0
M  V30 6464 C 613.161 2.05886 0.204599 0
M  V30 6465 C 613.576 1.25305 1.41223 0
M  V30 6466 O 612.933 0.297504 1.80059 0
M  V30 6467 C 612.984 3.56764 0.583249 0
M  V30 6468 O 612.705 4.34292 -0.576398 0
M  V30 6469 C 614.206 4.2603 1.2253 0
M  V30 6470 H 611.426 0.670193 0.0328991 0
M  V30 6471 H 613.97 1.97148 -0.543397 0
M  V30 6472 H 612.125 3.65603 1.28115 0
M  V30 6473 H 612.539 5.23819 -0.267119 0
M  V30 6474 H 614.013 5.32868 1.44068 0
M  V30 6475 H 614.49 3.80698 2.19011 0
M  V30 6476 H 615.096 4.21485 0.568407 0
M  V30 6477 N 613.412 0.11024 1.57214 0
M  V30 6478 C 614.658 -0.544479 1.95977 0
M  V30 6479 C 615.013 -1.64845 0.992171 0
M  V30 6480 O 614.306 -1.91589 0.0206981 0
M  V30 6481 C 614.5 -1.13102 3.39032 0
M  V30 6482 C 614.329 -0.0854079 4.49619 0
M  V30 6483 C 613.099 0.343373 5.04132 0
M  V30 6484 C 615.297 0.692232 5.0962 0
M  V30 6485 N 613.279 1.37567 5.98288 0
M  V30 6486 C 614.65 1.57596 5.99636 0
M  V30 6487 C 616.705 0.744085 4.92309 0
M  V30 6488 C 615.408 2.50701 6.74197 0
M  V30 6489 C 617.434 1.6628 5.67543 0
M  V30 6490 C 616.796 2.53412 6.57238 0
M  V30 6491 H 612.895 -0.169124 0.763493 0
M  V30 6492 H 615.479 0.196326 1.93708 0
M  V30 6493 H 613.65 -1.84158 3.41965 0
M  V30 6494 H 615.382 -1.74934 3.64939 0
M  V30 6495 H 612.137 -0.0473277 4.73576 0
M  V30 6496 H 612.561 1.89048 6.50069 0
M  V30 6497 H 617.203 0.0845825 4.22715 0
M  V30 6498 H 614.921 3.17669 7.43043 0
M  V30 6499 H 618.507 1.70825 5.56156 0
M  V30 6500 H 617.387 3.23347 7.14434 0
M  V30 6501 N 614.89 -1.56749 -0.16351 0
M  V30 6502 C 616.301 -1.72039 -0.725216 0
M  V30 6503 C 616.652 -0.72202 -1.82432 0
M  V30 6504 O 615.777 0.114942 -2.16095 0
M  V30 6505 C 616.372 -3.11932 -1.32227 0
M  V30 6506 C 614.931 -3.28879 -1.83072 0
M  V30 6507 C 614.078 -2.67984 -0.712716 0
M  V30 6508 H 617.029 -1.58579 0.0619772 0
M  V30 6509 H 617.05 -3.11015 -2.19202 0
M  V30 6510 H 616.562 -3.84572 -0.522103 0
M  V30 6511 H 614.663 -2.61209 -2.65708 0
M  V30 6512 H 614.776 -4.36688 -1.97079 0
M  V30 6513 H 613.14 -2.28005 -1.13515 0
M  V30 6514 H 613.923 -3.43216 0.0757361 0
M  V30 6515 N 616.368 0.432326 -1.51554 0
M  V30 6516 C 617.298 1.53242 -1.76179 0
M  V30 6517 C 618.279 1.58717 -0.611801 0
M  V30 6518 O 619.464 1.74364 -0.855033 0
M  V30 6519 C 616.594 2.91278 -1.89141 0
M  V30 6520 C 615.548 3.00663 -3.04608 0
M  V30 6521 C 614.874 4.40728 -3.02759 0
M  V30 6522 C 616.174 2.74281 -4.44485 0
M  V30 6523 H 617.868 1.32886 -2.68294 0
M  V30 6524 H 615.414 0.637841 -1.29103 0
M  V30 6525 H 617.367 3.68203 -2.04951 0
M  V30 6526 H 616.091 3.12877 -0.936785 0
M  V30 6527 H 614.75 2.26179 -2.88511 0
M  V30 6528 H 614.398 4.59301 -2.05065 0
M  V30 6529 H 614.098 4.47936 -3.80299 0
M  V30 6530 H 615.622 5.19619 -3.20669 0
M  V30 6531 H 617.036 3.40936 -4.60907 0
M  V30 6532 H 615.433 2.92893 -5.23769 0
M  V30 6533 H 616.503 1.69856 -4.54177 0
M  V30 6534 N 617.846 1.41785 0.688094 0
M  V30 6535 C 619.257 1.3701 1.26828 0
M  V30 6536 C 619.608 0.056835 1.96118 0
M  V30 6537 O 618.733 -0.84475 1.99231 0
M  V30 6538 C 619.328 2.48168 2.30648 0
M  V30 6539 C 617.887 2.46766 2.84224 0
M  V30 6540 C 617.034 2.27633 1.58361 0
M  V30 6541 H 619.985 1.51192 0.482351 0
M  V30 6542 H 620.006 2.17655 3.121 0
M  V30 6543 H 619.518 3.43735 1.80188 0
M  V30 6544 H 617.619 1.54978 3.3884 0
M  V30 6545 H 617.732 3.43342 3.34145 0
M  V30 6546 H 616.096 1.75648 1.84445 0
M  V30 6547 H 616.879 3.25238 1.09887 0
M  V30 6548 N 619.324 -0.923095 1.27737 0
M  V30 6549 C 620.256 -2.02871 1.06658 0
M  V30 6550 C 621.269 -1.62786 0.0212095 0
M  V30 6551 O 622.458 -1.76548 0.263267 0
M  V30 6552 C 619.558 -3.33603 0.59682 0
M  V30 6553 C 618.731 -4.02354 1.71551 0
M  V30 6554 C 617.79 -5.11364 1.24071 0
M  V30 6555 O 616.816 -5.35075 1.94123 0
M  V30 6556 N 618.018 -5.80416 0.0988444 0
M  V30 6557 H 620.783 -2.21515 2.01869 0
M  V30 6558 H 618.344 -1.09378 1.19365 0
M  V30 6559 H 620.336 -4.03845 0.262984 0
M  V30 6560 H 618.906 -3.11499 -0.262187 0
M  V30 6561 H 618.126 -3.25786 2.2194 0
M  V30 6562 H 619.414 -4.45035 2.46619 0
M  V30 6563 H 618.812 -5.63611 -0.485743 0
M  V30 6564 H 617.369 -6.51563 -0.17578 0
M  V30 6565 N 620.802 -1.09834 -1.13024 0
M  V30 6566 C 622.213 -0.855651 -1.65938 0
M  V30 6567 C 622.564 0.615159 -1.86307 0
M  V30 6568 O 621.689 1.47335 -1.58497 0
M  V30 6569 C 622.284 -1.5467 -3.01434 0
M  V30 6570 C 620.843 -1.35088 -3.51323 0
M  V30 6571 C 619.99 -1.6001 -2.26478 0
M  V30 6572 H 622.941 -1.25691 -0.968889 0
M  V30 6573 H 622.962 -0.982179 -3.67605 0
M  V30 6574 H 622.474 -2.61715 -2.86578 0
M  V30 6575 H 620.575 -0.30179 -3.71376 0
M  V30 6576 H 620.688 -2.0886 -4.31178 0
M  V30 6577 H 619.052 -1.02246 -2.33276 0
M  V30 6578 H 619.835 -2.68293 -2.14182 0
M  V30 6579 N 622.28 1.30327 -0.886154 0
M  V30 6580 C 623.505 2.0079 -0.519425 0
M  V30 6581 C 623.93 1.65979 0.885013 0
M  V30 6582 O 623.288 0.877043 1.58675 0
M  V30 6583 C 623.336 3.53686 -0.702758 0
M  V30 6584 O 622.44 4.11637 0.250828 0
M  V30 6585 H 621.781 0.63171 -0.204544 0
M  V30 6586 H 624.311 1.66145 -1.19402 0
M  V30 6587 H 624.321 4.03531 -0.602207 0
M  V30 6588 H 622.996 3.78361 -1.72673 0
M  V30 6589 H 621.573 3.72755 0.103873 0
M  V30 6590 N 623.758 0.647228 1.43697 0
M  V30 6591 C 624.69 -0.0866232 2.29036 0
M  V30 6592 C 625.703 -0.793051 1.42178 0
M  V30 6593 O 626.892 -0.651807 1.66174 0
M  V30 6594 C 623.992 -1.14552 3.18953 0
M  V30 6595 C 623.165 -0.518422 4.34317 0
M  V30 6596 C 622.224 -1.4734 5.05151 0
M  V30 6597 O 621.25 -0.984312 5.60625 0
M  V30 6598 N 622.452 -2.8075 5.08094 0
M  V30 6599 H 625.217 0.645834 2.92659 0
M  V30 6600 H 622.778 0.489567 1.54321 0
M  V30 6601 H 624.77 -1.78505 3.63205 0
M  V30 6602 H 623.34 -1.78001 2.56971 0
M  V30 6603 H 622.56 0.300079 3.93056 0
M  V30 6604 H 623.848 -0.080401 5.08736 0
M  V30 6605 H 623.246 -3.23052 4.64386 0
M  V30 6606 H 621.803 -3.40022 5.56083 0
M  V30 6607 N 625.236 -1.5273 0.388769 0
M  V30 6608 C 626.186 -2.23238 -0.463567 0
M  V30 6609 C 627.17 -1.23606 -1.03007 0
M  V30 6610 O 628.362 -1.48945 -0.956261 0
M  V30 6611 C 625.491 -3.04228 -1.5906 0
M  V30 6612 C 624.577 -4.11255 -1.03587 0
M  V30 6613 N 624.968 -5.0538 -0.206038 0
M  V30 6614 C 623.266 -4.26376 -1.30841 0
M  V30 6615 C 623.967 -5.81613 0.100359 0
M  V30 6616 N 622.943 -5.41264 -0.503447 0
M  V30 6617 H 626.745 -2.93367 0.176978 0
M  V30 6618 H 624.259 -1.61188 0.198046 0
M  V30 6619 H 626.256 -3.53277 -2.21362 0
M  V30 6620 H 624.916 -2.35634 -2.23398 0
M  V30 6621 H 625.927 -5.17663 0.156659 0
M  V30 6622 H 622.604 -3.69011 -1.95287 0
M  V30 6623 H 623.994 -6.67442 0.772676 0
M  V30 6624 N 626.714 -0.118576 -1.57153 0
M  V30 6625 C 627.662 0.849114 -2.16547 0
M  V30 6626 C 628.656 1.27567 -1.11458 0
M  V30 6627 O 629.862 1.24746 -1.29763 0
M  V30 6628 H 626.237 0.291935 -0.693021 0
M  V30 6629 H 628.208 0.323693 -2.96639 0
M  V30 6630 C 626.957 2.08951 -2.77912 0
M  V30 6631 H 626.28 1.77021 -3.58474 0
M  V30 6632 H 627.72 2.74666 -3.23008 0
M  V30 6633 C 626.179 2.87899 -1.74974 0
M  V30 6634 O 626.709 3.83268 -1.20285 0
M  V30 6635 N 624.915 2.51884 -1.44924 0
M  V30 6636 H 624.462 1.74397 -1.89587 0
M  V30 6637 H 624.42 3.05003 -0.762921 0
M  V30 6638 N 628.193 1.56834 0.155195 0
M  V30 6639 C 629.604 1.72421 0.716082 0
M  V30 6640 C 629.955 0.731685 1.82046 0
M  V30 6641 O 629.08 -0.103481 2.16152 0
M  V30 6642 C 629.675 3.12629 1.30571 0
M  V30 6643 C 628.234 3.29846 1.81325 0
M  V30 6644 C 627.381 2.68359 0.698494 0
M  V30 6645 H 630.332 1.58544 -0.0703861 0
M  V30 6646 H 630.353 3.12174 2.1755 0
M  V30 6647 H 629.865 3.84844 0.501701 0
M  V30 6648 H 627.966 2.62614 2.64319 0
M  V30 6649 H 628.079 4.37727 1.9476 0
M  V30 6650 H 626.443 2.28604 1.12305 0
M  V30 6651 H 627.226 3.43171 -0.0939366 0
M  V30 6652 N 629.671 -0.424282 1.51781 0
M  V30 6653 C 631.087 -0.761768 1.40247 0
M  V30 6654 C 631.287 -1.95324 0.495041 0
M  V30 6655 O 630.343 -2.5246 -0.0448949 0
M  V30 6656 C 631.656 -1.0299 2.82513 0
M  V30 6657 C 633.204 -1.13354 2.91753 0
M  V30 6658 C 633.679 -1.43453 4.34954 0
M  V30 6659 N 635.17 -1.5035 4.3812 0
M  V30 6660 C 635.905 -1.75236 5.45967 0
M  V30 6661 N 635.401 -1.97827 6.63955 0
M  V30 6662 N 637.194 -1.77126 5.33463 0
M  V30 6663 H 629.345 0.360228 2.09323 0
M  V30 6664 H 631.608 0.0988128 0.942836 0
M  V30 6665 H 631.314 -0.226961 3.50967 0
M  V30 6666 H 631.188 -1.95411 3.22637 0
M  V30 6667 H 633.575 -1.92709 2.23489 0
M  V30 6668 H 633.656 -0.188041 2.55108 0
M  V30 6669 H 633.3 -0.646209 5.03772 0
M  V30 6670 H 633.23 -2.3923 4.69123 0
M  V30 6671 H 635.721 -1.34742 3.53062 0
M  V30 6672 H 636.034 -2.16223 7.41935 0
M  V30 6673 H 634.379 -1.95123 6.67047 0
M  V30 6674 H 637.57 -1.59005 4.40267 0
M  V30 6675 H 637.743 -1.96182 6.17589 0
M  V30 6676 N 631.149 -1.42148 -0.680565 0
M  V30 6677 C 632.374 -1.45901 -1.47403 0
M  V30 6678 C 632.799 -0.0700985 -1.87969 0
M  V30 6679 O 632.157 0.930145 -1.55621 0
M  V30 6680 C 632.205 -2.38661 -2.70321 0
M  V30 6681 O 631.309 -1.85399 -3.68376 0
M  V30 6682 H 630.65 -0.494565 -0.443059 0
M  V30 6683 H 633.18 -1.86774 -0.835251 0
M  V30 6684 H 633.19 -2.55046 -3.18458 0
M  V30 6685 H 631.865 -3.39571 -2.40134 0
M  V30 6686 H 630.442 -1.78541 -3.2738 0
M  V30 6687 N 632.627 0.916307 -1.28225 0
M  V30 6688 C 633.852 1.7043 -1.18188 0
M  V30 6689 C 634.277 1.86346 0.256274 0
M  V30 6690 O 633.635 1.37175 1.18544 0
M  V30 6691 C 633.683 3.07546 -1.88275 0
M  V30 6692 O 632.787 3.94904 -1.18848 0
M  V30 6693 H 632.128 0.521967 -0.410423 0
M  V30 6694 H 634.658 1.14589 -1.69501 0
M  V30 6695 H 634.668 3.57793 -1.96082 0
M  V30 6696 H 633.343 2.95279 -2.92887 0
M  V30 6697 H 631.92 3.53339 -1.19187 0
M  V30 6698 N 634.105 1.10431 1.1244 0
M  V30 6699 C 635.335 0.867612 1.87499 0
M  V30 6700 C 635.743 -0.585475 1.79913 0
M  V30 6701 O 635.086 -1.41539 1.171 0
M  V30 6702 C 635.148 1.2374 3.37533 0
M  V30 6703 C 634.812 2.69751 3.68895 0
M  V30 6704 C 635.809 3.67988 3.67261 0
M  V30 6705 C 633.494 3.06135 3.98229 0
M  V30 6706 C 635.488 5.00632 3.9452 0
M  V30 6707 C 633.175 4.38967 4.25149 0
M  V30 6708 C 634.173 5.36025 4.23281 0
M  V30 6709 O 633.861 6.66465 4.49533 0
M  V30 6710 H 633.593 0.311196 0.600111 0
M  V30 6711 H 636.147 1.47257 1.43194 0
M  V30 6712 H 634.377 0.575537 3.82393 0
M  V30 6713 H 636.066 0.978187 3.93937 0
M  V30 6714 H 636.832 3.41224 3.44661 0
M  V30 6715 H 632.711 2.31214 3.98825 0
M  V30 6716 H 636.255 5.7638 3.92978 0
M  V30 6717 H 632.152 4.6547 4.47223 0
M  V30 6718 H 632.92 6.72095 4.67152 0
M  V30 6719 N 635.583 -1.29855 0.893053 0
M  V30 6720 C 636.533 -2.25493 0.337211 0
M  V30 6721 C 637.517 -1.51606 -0.53894 0
M  V30 6722 O 638.709 -1.72828 -0.382043 0
M  V30 6723 C 635.838 -3.40467 -0.440117 0
M  V30 6724 C 634.924 -4.217 0.450578 0
M  V30 6725 N 635.315 -4.81312 1.55476 0
M  V30 6726 C 633.613 -4.45315 0.247154 0
M  V30 6727 C 634.314 -5.42241 2.10593 0
M  V30 6728 N 633.29 -5.25267 1.39982 0
M  V30 6729 H 637.092 -2.69137 1.18079 0
M  V30 6730 H 634.606 -1.44388 0.743359 0
M  V30 6731 H 636.603 -4.08038 -0.855021 0
M  V30 6732 H 635.263 -2.98361 -1.28104 0
M  V30 6733 H 636.274 -4.80291 1.93755 0
M  V30 6734 H 632.951 -4.13782 -0.555939 0
M  V30 6735 H 634.341 -5.99517 3.03362 0
M  V30 6736 N 637.061 -0.65484 -1.43351 0
M  V30 6737 C 638.009 0.0476784 -2.32551 0
M  V30 6738 C 639.003 0.811403 -1.48703 0
M  V30 6739 O 640.209 0.721621 -1.64902 0
M  V30 6740 H 636.584 0.0342038 -0.751222 0
M  V30 6741 H 638.555 -0.722342 -2.89525 0
M  V30 6742 C 637.304 0.999251 -3.33032 0
M  V30 6743 H 636.627 0.421005 -3.97577 0
M  V30 6744 H 638.067 1.45986 -3.98076 0
M  V30 6745 C 636.526 2.09606 -2.63756 0
M  V30 6746 O 637.056 3.18004 -2.4543 0
M  V30 6747 N 635.262 1.86207 -2.23103 0
M  V30 6748 H 634.809 0.980555 -2.38208 0
M  V30 6749 H 634.767 2.59787 -1.77081 0
M  V30 6750 N 638.539 1.52521 -0.396863 0
M  V30 6751 C 639.788 2.00857 0.184184 0
M  V30 6752 C 640.101 1.28733 1.47265 0
M  V30 6753 O 641.307 1.67821 2.13421 0
M  V30 6754 C 639.763 3.57901 0.378787 0
M  V30 6755 C 639.371 4.38931 -0.896873 0
M  V30 6756 C 641.115 4.14504 0.915789 0
M  V30 6757 C 639.022 5.87591 -0.670133 0
M  V30 6758 H 637.952 0.750496 0.0726055 0
M  V30 6759 H 640.603 1.75965 -0.520425 0
M  V30 6760 H 638.985 3.79072 1.14543 0
M  V30 6761 H 640.159 4.29524 -1.66872 0
M  V30 6762 H 638.474 3.93586 -1.35938 0
M  V30 6763 H 641.071 5.23236 1.10126 0
M  V30 6764 H 641.414 3.71076 1.88701 0
M  V30 6765 H 641.947 3.97253 0.208523 0
M  V30 6766 H 638.686 6.35355 -1.61257 0
M  V30 6767 H 638.206 5.99767 0.0626368 0
M  V30 6768 H 639.885 6.46268 -0.307577 0
M  V30 6769 N 640.017 0.126909 1.57088 0
M  V30 6770 C 641.245 -0.53667 1.99819 0
M  V30 6771 C 641.66 -1.5972 1.00673 0
M  V30 6772 O 641.017 -1.825 0.000747365 0
M  V30 6773 C 641.068 -1.15563 3.42531 0
M  V30 6774 O 640.789 -0.137483 4.37884 0
M  V30 6775 C 642.29 -1.90176 4.00435 0
M  V30 6776 H 639.51 -0.141443 0.655923 0
M  V30 6777 H 642.054 0.215578 2.03361 0
M  V30 6778 H 640.209 -1.85861 3.39904 0
M  V30 6779 H 640.623 -0.588229 5.21191 0
M  V30 6780 H 642.097 -2.28801 5.02349 0
M  V30 6781 H 642.574 -2.78002 3.40017 0
M  V30 6782 H 643.18 -1.24623 4.06632 0
M  V30 6783 N 641.495 -1.56914 -0.146875 0
M  V30 6784 C 642.772 -1.74273 -0.888165 0
M  V30 6785 C 643.152 -0.69496 -1.99333 0
M  V30 6786 O 642.5 0.286093 -2.26702 0
M  V30 6787 C 642.71 -3.18336 -1.43051 0
M  V30 6788 C 644.058 -3.80024 -1.89387 0
M  V30 6789 O 645.082 -3.21765 -1.52792 0
M  V30 6790 O 643.941 -4.82367 -2.56874 0
M  V30 6791 H 641.035 -0.712565 -0.419738 0
M  V30 6792 H 643.581 -1.6918 -0.132791 0
M  V30 6793 H 642.353 -3.86092 -0.636274 0
M  V30 6794 H 641.976 -3.27854 -2.24938 0
M  V30 6795 N 642.974 0.416227 -1.52004 0
M  V30 6796 C 644.22 1.16555 -1.6596 0
M  V30 6797 C 644.553 1.90347 -0.384906 0
M  V30 6798 O 643.828 1.84474 0.616405 0
M  V30 6799 C 644.111 2.1657 -2.87696 0
M  V30 6800 C 643.964 1.46722 -4.25197 0
M  V30 6801 C 645.283 3.17321 -3.04951 0
M  V30 6802 H 642.402 0.422369 -0.603965 0
M  V30 6803 H 645.044 0.452141 -1.84542 0
M  V30 6804 H 643.194 2.77411 -2.71985 0
M  V30 6805 H 644.866 0.89056 -4.52622 0
M  V30 6806 H 643.109 0.769263 -4.26925 0
M  V30 6807 H 643.78 2.19665 -5.0641 0
M  V30 6808 H 646.256 2.66552 -3.19514 0
M  V30 6809 H 645.132 3.84573 -3.91656 0
M  V30 6810 H 645.393 3.84643 -2.17951 0
M  V30 6811 N 644.452 1.42507 0.673017 0
M  V30 6812 C 645.692 1.44559 1.44507 0
M  V30 6813 C 646.056 0.0606206 1.91904 0
M  V30 6814 O 647.257 -0.044139 2.68764 0
M  V30 6815 C 645.528 2.44291 2.60877 0
M  V30 6816 S 647.087 2.65059 3.49699 0
M  V30 6817 H 643.905 0.51181 0.49353 0
M  V30 6818 H 646.507 1.79124 0.783256 0
M  V30 6819 H 645.211 3.43685 2.24297 0
M  V30 6820 H 644.742 2.11157 3.31928 0
M  V30 6821 H 646.757 1.93494 4.56919 0
M  V30 6822 N 645.93 -0.909495 1.28709 0
M  V30 6823 C 646.84 -2.04558 1.14861 0
M  V30 6824 C 647.856 -1.73842 0.0741621 0
M  V30 6825 O 649.032 -1.99383 0.2843 0
M  V30 6826 C 646.097 -3.36957 0.816148 0
M  V30 6827 C 645.158 -3.81255 1.97341 0
M  V30 6828 C 644.391 -5.07335 1.65671 0
M  V30 6829 O 644.614 -5.67514 0.573053 0
M  V30 6830 O 643.548 -5.47449 2.50167 0
M  V30 6831 H 647.374 -2.19161 2.10243 0
M  V30 6832 H 644.959 -1.03159 1.08068 0
M  V30 6833 H 646.841 -4.16436 0.644873 0
M  V30 6834 H 645.516 -3.2352 -0.107983 0
M  V30 6835 H 644.423 -3.02584 2.19986 0
M  V30 6836 H 645.756 -3.99261 2.87839 0
M  V30 6837 N 647.408 -1.11026 -1.11852 0
M  V30 6838 C 648.338 -0.786812 -2.19844 0
M  V30 6839 C 649.319 0.242935 -1.68356 0
M  V30 6840 O 650.504 0.107355 -1.93903 0
M  V30 6841 C 647.634 -0.224516 -3.46574 0
M  V30 6842 C 646.588 -1.18564 -4.1125 0
M  V30 6843 C 645.914 -0.484261 -5.32503 0
M  V30 6844 C 647.214 -2.53465 -4.56676 0
M  V30 6845 H 648.908 -1.68978 -2.47158 0
M  V30 6846 H 646.454 -0.813906 -1.18792 0
M  V30 6847 H 648.407 0.0139435 -4.21398 0
M  V30 6848 H 647.131 0.713722 -3.18706 0
M  V30 6849 H 645.79 -1.40966 -3.38414 0
M  V30 6850 H 645.438 0.458646 -5.00905 0
M  V30 6851 H 645.138 -1.12526 -5.76725 0
M  V30 6852 H 646.662 -0.254492 -6.10069 0
M  V30 6853 H 648.076 -2.35177 -5.22843 0
M  V30 6854 H 646.473 -3.13507 -5.11697 0
M  V30 6855 H 647.543 -3.13008 -3.70343 0
M  V30 6856 N 648.886 1.2938 -0.899927 0
M  V30 6857 C 649.849 2.25983 -0.382677 0
M  V30 6858 C 650.849 1.53366 0.483259 0
M  V30 6859 O 652.039 1.71798 0.28828 0
M  V30 6860 C 649.171 3.37878 0.452915 0
M  V30 6861 H 650.364 2.73252 -1.23586 0
M  V30 6862 H 647.917 1.40825 -0.678088 0
M  V30 6863 H 648.652 2.95949 1.32608 0
M  V30 6864 H 648.437 3.91742 -0.167562 0
M  V30 6865 H 649.927 4.09746 0.806107 0
M  V30 6866 N 650.364 0.662433 1.43002 0
M  V30 6867 C 651.61 0.179857 2.02001 0
M  V30 6868 C 651.943 -1.20625 1.52195 0
M  V30 6869 O 651.218 -1.80726 0.718911 0
M  V30 6870 C 651.501 0.200845 3.59539 0
M  V30 6871 C 651.354 1.62153 4.19555 0
M  V30 6872 C 652.673 -0.457738 4.37713 0
M  V30 6873 H 649.792 0.0668305 0.733964 0
M  V30 6874 H 652.434 0.84487 1.70182 0
M  V30 6875 H 650.584 -0.365411 3.86778 0
M  V30 6876 H 652.256 2.23908 4.03315 0
M  V30 6877 H 650.499 2.16601 3.75854 0
M  V30 6878 H 651.17 1.58799 5.28665 0
M  V30 6879 H 653.646 0.0241495 4.16093 0
M  V30 6880 H 652.522 -0.412363 5.47349 0
M  V30 6881 H 652.783 -1.53336 4.14657 0
M  V30 6882 N 651.842 -1.52309 0.404946 0
M  V30 6883 C 653.09 -2.01368 -0.17186 0
M  V30 6884 C 653.411 -1.29261 -1.46002 0
M  V30 6885 O 652.681 -0.41729 -1.91404 0
M  V30 6886 H 651.261 -0.744034 -0.0664993 0
M  V30 6887 H 653.923 -1.87263 0.540228 0
M  V30 6888 H 653.019 -3.09888 -0.370957 0
M  V30 6889 N 653.32 -0.135238 -1.57019 0
M  V30 6890 C 654.731 0.387521 -1.82634 0
M  V30 6891 C 655.082 1.65528 -1.05332 0
M  V30 6892 O 654.207 2.14381 -0.294926 0
M  V30 6893 C 654.802 0.709852 -3.3128 0
M  V30 6894 C 653.361 1.17718 -3.57518 0
M  V30 6895 C 652.508 0.194183 -2.76619 0
M  V30 6896 H 655.459 -0.360126 -1.5456 0
M  V30 6897 H 655.48 1.5657 -3.46794 0
M  V30 6898 H 654.992 -0.213024 -3.87515 0
M  V30 6899 H 653.093 2.1164 -3.06658 0
M  V30 6900 H 653.206 1.11128 -4.66034 0
M  V30 6901 H 651.57 0.684478 -2.4533 0
M  V30 6902 H 652.353 -0.722076 -3.3562 0
M  V30 6903 N 654.798 1.5699 0.138552 0
M  V30 6904 C 655.761 1.97984 1.15478 0
M  V30 6905 C 656.761 0.867416 1.35398 0
M  V30 6906 O 657.951 1.13387 1.32246 0
M  V30 6907 C 655.083 2.3031 2.51337 0
M  V30 6908 H 656.276 2.88953 0.802896 0
M  V30 6909 H 653.829 1.51555 0.382189 0
M  V30 6910 H 654.564 1.42159 2.91481 0
M  V30 6911 H 654.349 3.11425 2.38237 0
M  V30 6912 H 655.839 2.62834 3.24512 0
M  V30 6913 N 656.276 -0.40816 1.52223 0
M  V30 6914 C 657.524 -1.15274 1.66001 0
M  V30 6915 C 657.845 -1.91003 0.392803 0
M  V30 6916 O 657.115 -1.8673 -0.592336 0
M  V30 6917 H 655.695 -0.428526 0.611861 0
M  V30 6918 H 658.357 -0.46512 1.89269 0
M  V30 6919 H 657.453 -1.86628 2.50153 0
M  V30 6920 N 657.755 -1.42862 -0.66545 0
M  V30 6921 C 658.718 -1.46756 -1.76055 0
M  V30 6922 C 659.718 -0.353866 -1.56858 0
M  V30 6923 O 660.908 -0.615099 -1.62979 0
M  V30 6924 C 658.04 -1.30829 -3.14796 0
M  V30 6925 H 659.233 -2.44271 -1.73987 0
M  V30 6926 H 656.786 -1.29447 -0.875965 0
M  V30 6927 H 657.521 -0.342733 -3.22484 0
M  V30 6928 H 657.306 -2.11551 -3.30134 0
M  V30 6929 H 658.796 -1.36458 -3.94676 0
M  V30 6930 N 659.233 0.902656 -1.29189 0
M  V30 6931 C 660.644 1.46809 -1.15343 0
M  V30 6932 C 660.995 1.94568 0.252517 0
M  V30 6933 O 660.12 1.83454 1.14777 0
M  V30 6934 C 660.715 2.66829 -2.08776 0
M  V30 6935 C 659.274 3.19518 -1.98961 0
M  V30 6936 C 658.421 1.92212 -1.99874 0
M  V30 6937 H 661.372 0.714282 -1.41717 0
M  V30 6938 H 661.393 3.42465 -1.65826 0
M  V30 6939 H 660.905 2.32039 -3.11094 0
M  V30 6940 H 659.006 3.59008 -0.99721 0
M  V30 6941 H 659.119 3.84016 -2.86477 0
M  V30 6942 H 657.483 2.0979 -1.44431 0
M  V30 6943 H 658.266 1.59702 -3.03891 0
M  V30 6944 N 660.711 1.11618 1.11262 0
M  V30 6945 C 661.674 0.779447 2.15539 0
M  V30 6946 C 662.674 -0.202081 1.59525 0
M  V30 6947 O 663.864 0.0226356 1.74185 0
M  V30 6948 C 660.996 0.15674 3.40539 0
M  V30 6949 H 662.189 1.70324 2.4684 0
M  V30 6950 H 659.742 0.918298 1.26479 0
M  V30 6951 H 660.477 -0.777186 3.1485 0
M  V30 6952 H 660.262 0.863308 3.82478 0
M  V30 6953 H 661.752 -0.062661 4.17553 0
M  V30 6954 N 662.189 -1.289 0.906776 0
M  V30 6955 C 663.417 -1.99401 0.551969 0
M  V30 6956 C 663.832 -1.67816 -0.865048 0
M  V30 6957 O 663.189 -0.927078 -1.57199 0
M  V30 6958 C 663.24 -3.53779 0.743152 0
M  V30 6959 O 662.961 -3.84248 2.1044 0
M  V30 6960 C 664.462 -4.41543 0.39424 0
M  V30 6961 H 661.682 -0.636926 0.211106 0
M  V30 6962 H 664.226 -1.64266 1.21807 0
M  V30 6963 H 662.381 -3.87201 0.124143 0
M  V30 6964 H 662.795 -4.78904 2.13895 0
M  V30 6965 H 664.269 -5.48957 0.578814 0
M  V30 6966 H 664.746 -4.34073 -0.669137 0
M  V30 6967 H 665.352 -4.13605 0.990491 0
M  V30 6968 N 663.667 -0.670007 -1.42649 0
M  V30 6969 C 664.597 -0.00258501 -2.335 0
M  V30 6970 C 665.578 0.794364 -1.50412 0
M  V30 6971 O 666.763 0.75248 -1.79029 0
M  V30 6972 C 663.893 0.952748 -3.33976 0
M  V30 6973 C 662.847 0.264733 -4.2718 0
M  V30 6974 C 662.173 1.33267 -5.17826 0
M  V30 6975 C 663.473 -0.853289 -5.15283 0
M  V30 6976 H 665.167 -0.761326 -2.89559 0
M  V30 6977 H 662.713 -0.367561 -1.3923 0
M  V30 6978 H 664.666 1.4287 -3.96442 0
M  V30 6979 H 663.39 1.74285 -2.7621 0
M  V30 6980 H 662.049 -0.190938 -3.66102 0
M  V30 6981 H 661.697 2.11464 -4.5639 0
M  V30 6982 H 661.397 0.877476 -5.81011 0
M  V30 6983 H 662.921 1.80965 -5.83167 0
M  V30 6984 H 664.335 -0.458763 -5.71462 0
M  V30 6985 H 662.732 -1.23398 -5.87276 0
M  V30 6986 H 663.802 -1.70412 -4.53969 0
M  V30 6987 N 665.145 1.52092 -0.413018 0
M  V30 6988 C 666.075 2.30021 0.401567 0
M  V30 6989 C 667.056 1.34395 1.04269 0
M  V30 6990 O 668.241 1.63304 1.05097 0
M  V30 6991 C 665.371 3.12447 1.51638 0
M  V30 6992 C 664.325 4.16153 1.00005 0
M  V30 6993 C 663.651 4.86948 2.20875 0
M  V30 6994 C 664.951 5.22275 0.0513757 0
M  V30 6995 H 666.645 2.98365 -0.248704 0
M  V30 6996 H 664.191 1.4349 -0.121052 0
M  V30 6997 H 666.144 3.65733 2.09326 0
M  V30 6998 H 664.868 2.41879 2.19458 0
M  V30 6999 H 663.527 3.63882 0.445549 0
M  V30 7000 H 663.175 4.12905 2.8726 0
M  V30 7001 H 662.875 5.57057 1.86978 0
M  V30 7002 H 664.399 5.43048 2.79162 0
M  V30 7003 H 665.813 5.70778 0.537176 0
M  V30 7004 H 664.21 5.9977 -0.198977 0
M  V30 7005 H 665.28 4.76611 -0.892736 0
M  V30 7006 N 666.623 0.143563 1.56945 0
M  V30 7007 C 667.571 -0.814556 2.17871 0
M  V30 7008 C 668.565 -1.25778 1.13474 0
M  V30 7009 O 669.771 -1.22666 1.31731 0
M  V30 7010 H 666.146 -0.280873 0.697578 0
M  V30 7011 H 668.117 -0.276459 2.97117 0
M  V30 7012 C 666.866 -2.04503 2.81201 0
M  V30 7013 H 666.189 -1.71296 3.61245 0
M  V30 7014 H 667.629 -2.69493 3.27337 0
M  V30 7015 C 666.088 -2.85079 1.79532 0
M  V30 7016 O 666.618 -3.81306 1.26368 0
M  V30 7017 N 664.824 -2.49546 1.48913 0
M  V30 7018 H 664.371 -1.71359 1.92338 0
M  V30 7019 H 664.329 -3.03751 0.811348 0
M  V30 7020 N 668.101 -1.57061 -0.130224 0
M  V30 7021 C 669.011 -2.02802 -1.17934 0
M  V30 7022 C 670.027 -0.946378 -1.46013 0
M  V30 7023 O 671.203 -1.25708 -1.57351 0
M  V30 7024 C 668.268 -2.41368 -2.48882 0
M  V30 7025 C 667.329 -3.63561 -2.28301 0
M  V30 7026 C 666.562 -4.00279 -3.53005 0
M  V30 7027 O 666.785 -3.37463 -4.59864 0
M  V30 7028 O 665.719 -4.93441 -3.44673 0
M  V30 7029 H 669.545 -2.92394 -0.820958 0
M  V30 7030 H 667.13 -1.45475 -0.340197 0
M  V30 7031 H 669.012 -2.66958 -3.26054 0
M  V30 7032 H 667.687 -1.54926 -2.84217 0
M  V30 7033 H 666.594 -3.43136 -1.49025 0
M  V30 7034 H 667.927 -4.50673 -1.97875 0
M  V30 7035 N 669.579 0.400081 -1.52437 0
M  V30 7036 C 670.542 1.4707 -1.75793 0
M  V30 7037 C 671.542 1.48036 -0.627856 0
M  V30 7038 O 672.732 1.49401 -0.895817 0
M  V30 7039 C 669.864 2.86427 -1.84858 0
M  V30 7040 H 671.057 1.27649 -2.71377 0
M  V30 7041 H 668.61 0.631141 -1.42991 0
M  V30 7042 H 669.345 3.11207 -0.912194 0
M  V30 7043 H 669.13 2.87128 -2.6702 0
M  V30 7044 H 670.62 3.64023 -2.04638 0
M  V30 7045 N 671.057 1.43213 0.657864 0
M  V30 7046 C 672.305 1.44298 1.41501 0
M  V30 7047 C 672.626 0.0666478 1.94886 0
M  V30 7048 O 671.896 -0.897345 1.74139 0
M  V30 7049 H 670.476 0.531257 0.525143 0
M  V30 7050 H 673.138 1.78777 0.776195 0
M  V30 7051 H 672.234 2.1528 2.25966 0
M  V30 7052 N 672.536 -0.895792 1.29666 0
M  V30 7053 C 673.483 -2.00035 1.15129 0
M  V30 7054 C 674.453 -1.66043 0.0435819 0
M  V30 7055 O 675.638 -1.89621 0.211811 0
M  V30 7056 C 672.778 -3.34774 0.83787 0
M  V30 7057 C 671.891 -3.81525 2.0264 0
M  V30 7058 C 671.026 -5.04858 1.65201 0
M  V30 7059 C 670.065 -5.43988 2.80612 0
M  V30 7060 N 669.202 -6.58507 2.43544 0
M  V30 7061 H 674.042 -2.11802 2.09628 0
M  V30 7062 H 671.579 -1.03719 1.04311 0
M  V30 7063 H 673.537 -4.12311 0.636824 0
M  V30 7064 H 672.167 -3.22724 -0.0702314 0
M  V30 7065 H 671.219 -2.9999 2.33903 0
M  V30 7066 H 672.531 -4.06472 2.89106 0
M  V30 7067 H 671.685 -5.8999 1.41408 0
M  V30 7068 H 670.424 -4.81759 0.758893 0
M  V30 7069 H 669.429 -4.57388 3.05083 0
M  V30 7070 H 670.654 -5.69066 3.70595 0
M  V30 7071 H 668.6 -6.37004 1.56724 0
M  V30 7072 H 668.517 -6.83269 3.23542 0
M  V30 7073 H 669.785 -7.46897 2.2308 0
M  V30 7074 N 674.014 -1.12206 -1.10668 0
M  V30 7075 C 675.291 -0.787382 -1.79052 0
M  V30 7076 C 675.671 0.723267 -1.98323 0
M  V30 7077 O 675.019 1.6561 -1.57434 0
M  V30 7078 C 675.229 -1.55968 -3.1221 0
M  V30 7079 C 676.577 -1.74413 -3.87125 0
M  V30 7080 O 677.601 -1.5246 -3.21923 0
M  V30 7081 O 676.46 -2.10952 -5.04144 0
M  V30 7082 H 673.554 -0.286137 -0.775922 0
M  V30 7083 H 676.1 -1.22595 -1.1734 0
M  V30 7084 H 674.872 -2.58692 -2.93588 0
M  V30 7085 H 674.495 -1.1152 -3.8164 0
M  V30 7086 N 675.492 1.28418 -0.913599 0
M  V30 7087 C 676.455 2.25564 -0.406624 0
M  V30 7088 C 677.455 1.5387 0.466965 0
M  V30 7089 O 678.645 1.72094 0.270042 0
M  V30 7090 C 675.777 3.38339 0.417053 0
M  V30 7091 H 676.97 2.71926 -1.26477 0
M  V30 7092 H 674.523 1.40098 -0.692986 0
M  V30 7093 H 675.258 2.97339 1.29461 0
M  V30 7094 H 675.043 3.91542 -0.209102 0
M  V30 7095 H 676.533 4.10578 0.762602 0
M  V30 7096 N 676.97 0.677563 1.42291 0
M  V30 7097 C 677.9 0.014968 2.33495 0
M  V30 7098 C 678.881 -0.786376 1.50831 0
M  V30 7099 O 680.066 -0.742975 1.79426 0
M  V30 7100 C 677.196 -0.935023 3.34477 0
M  V30 7101 C 676.15 -0.242074 4.27315 0
M  V30 7102 C 675.476 -1.30519 5.18526 0
M  V30 7103 C 676.776 0.880604 5.14823 0
M  V30 7104 H 678.47 0.776671 2.89151 0
M  V30 7105 H 676.016 0.37494 1.39033 0
M  V30 7106 H 677.969 -1.40766 3.97194 0
M  V30 7107 H 676.693 -1.72818 2.77131 0
M  V30 7108 H 675.352 0.210351 3.65996 0
M  V30 7109 H 675 -2.09041 4.57505 0
M  V30 7110 H 674.7 -0.846652 5.81468 0
M  V30 7111 H 676.224 -1.7787 5.84119 0
M  V30 7112 H 677.638 0.489062 5.7121 0
M  V30 7113 H 676.035 1.26511 5.86613 0
M  V30 7114 H 677.105 1.72818 4.53059 0
M  V30 7115 N 678.448 -1.51871 0.421078 0
M  V30 7116 C 679.395 -2.27334 -0.398508 0
M  V30 7117 C 680.365 -1.30241 -1.03085 0
M  V30 7118 O 681.55 -1.59121 -1.05285 0
M  V30 7119 C 678.69 -3.10664 -1.50272 0
M  V30 7120 C 677.803 -4.2273 -0.890122 0
M  V30 7121 C 676.938 -4.93399 -1.96803 0
M  V30 7122 C 675.977 -5.97409 -1.333 0
M  V30 7123 N 675.114 -6.61548 -2.35156 0
M  V30 7124 H 679.954 -2.96938 0.251411 0
M  V30 7125 H 677.491 -1.46472 0.135825 0
M  V30 7126 H 679.449 -3.57292 -2.15403 0
M  V30 7127 H 678.079 -2.43207 -2.1225 0
M  V30 7128 H 677.131 -3.80186 -0.127537 0
M  V30 7129 H 678.443 -4.97302 -0.386349 0
M  V30 7130 H 677.597 -5.43491 -2.69633 0
M  V30 7131 H 676.336 -4.18421 -2.50549 0
M  V30 7132 H 675.341 -5.46624 -0.59008 0
M  V30 7133 H 676.566 -6.74335 -0.803076 0
M  V30 7134 H 674.512 -5.89394 -2.88012 0
M  V30 7135 H 674.429 -7.31832 -1.89624 0
M  V30 7136 H 675.697 -7.16276 -3.0752 0
M  V30 7137 N 679.926 -0.151884 -1.56866 0
M  V30 7138 C 681.151 0.508044 -2.01081 0
M  V30 7139 C 681.576 1.57306 -1.03134 0
M  V30 7140 O 680.934 1.81298 -0.0078309 0
M  V30 7141 C 680.982 1.08106 -3.44014 0
M  V30 7142 O 680.086 2.19577 -3.49084 0
M  V30 7143 H 679.427 0.123757 -0.652365 0
M  V30 7144 H 681.957 -0.250055 -2.03066 0
M  V30 7145 H 681.967 1.40851 -3.82916 0
M  V30 7146 H 680.642 0.301168 -4.14808 0
M  V30 7147 H 679.219 1.88023 -3.22027 0
M  V30 7148 N 681.404 1.57128 0.121893 0
M  V30 7149 C 682.629 1.89254 0.848385 0
M  V30 7150 C 683.054 0.743527 1.72781 0
M  V30 7151 O 682.412 -0.306056 1.78698 0
M  V30 7152 C 682.46 3.20113 1.66012 0
M  V30 7153 O 681.564 3.05815 2.76679 0
M  V30 7154 H 680.905 0.621103 0.234793 0
M  V30 7155 H 683.435 2.0433 0.10516 0
M  V30 7156 H 683.445 3.52761 2.04996 0
M  V30 7157 H 682.12 4.03336 1.01452 0
M  V30 7158 H 680.697 2.84627 2.40918 0
M  V30 7159 N 682.882 -0.391992 1.52647 0
M  V30 7160 C 683.814 -1.49811 1.73463 0
M  V30 7161 C 684.827 -1.50734 0.615078 0
M  V30 7162 O 686.016 -1.5469 0.890696 0
M  V30 7163 C 683.116 -2.88667 1.77552 0
M  V30 7164 C 682.289 -3.11743 3.06815 0
M  V30 7165 C 681.348 -4.30564 3.02491 0
M  V30 7166 O 680.374 -4.27014 3.76361 0
M  V30 7167 N 681.576 -5.36593 2.21468 0
M  V30 7168 H 684.341 -1.32343 2.68897 0
M  V30 7169 H 681.902 -0.581475 1.51098 0
M  V30 7170 H 683.894 -3.66251 1.7217 0
M  V30 7171 H 682.464 -2.99508 0.895181 0
M  V30 7172 H 681.684 -2.2205 3.25711 0
M  V30 7173 H 682.972 -3.24013 3.92292 0
M  V30 7174 H 682.37 -5.42332 1.60913 0
M  V30 7175 H 680.927 -6.12855 2.21928 0
M  V30 7176 N 684.36 -1.4356 -0.65026 0
M  V30 7177 C 685.588 -1.48779 -1.43779 0
M  V30 7178 C 686.003 -0.106593 -1.88499 0
M  V30 7179 O 685.36 0.883766 -1.59674 0
M  V30 7180 C 685.411 -2.43618 -2.67081 0
M  V30 7181 O 685.132 -3.76367 -2.24231 0
M  V30 7182 C 686.633 -2.5811 -3.60409 0
M  V30 7183 H 683.853 -0.50521 -0.441593 0
M  V30 7184 H 686.397 -1.88332 -0.796941 0
M  V30 7185 H 684.552 -2.07253 -3.273 0
M  V30 7186 H 684.966 -4.27394 -3.0403 0
M  V30 7187 H 686.44 -3.28539 -4.43583 0
M  V30 7188 H 686.917 -1.627 -4.07953 0
M  V30 7189 H 687.523 -2.95298 -3.0607 0
M  V30 7190 N 685.838 0.888903 -1.30139 0
M  V30 7191 C 687.087 1.63507 -1.18103 0
M  V30 7192 C 687.4 1.93808 0.264141 0
M  V30 7193 O 688.606 2.66744 0.505966 0
M  V30 7194 C 687.062 2.94673 -2.0663 0
M  V30 7195 C 686.67 2.71926 -3.56034 0
M  V30 7196 C 688.414 3.72626 -2.03346 0
M  V30 7197 C 686.321 3.98884 -4.3663 0
M  V30 7198 H 685.251 0.613426 -0.438435 0
M  V30 7199 H 687.902 0.984427 -1.54859 0
M  V30 7200 H 686.284 3.61009 -1.62754 0
M  V30 7201 H 687.458 2.14116 -4.08033 0
M  V30 7202 H 685.773 2.07353 -3.61101 0
M  V30 7203 H 688.37 4.66775 -2.60816 0
M  V30 7204 H 688.713 4.03712 -1.016 0
M  V30 7205 H 689.246 3.13147 -2.45324 0
M  V30 7206 H 685.985 3.72959 -5.39056 0
M  V30 7207 H 685.505 4.56214 -3.89396 0
M  V30 7208 H 687.184 4.66938 -4.47859 0
M  V30 7209 N 687.317 1.12792 1.10072 0
M  V30 7210 C 688.264 0.79921 2.16521 0
M  V30 7211 C 689.234 -0.235726 1.64419 0
M  V30 7212 O 690.419 -0.109457 1.90486 0
M  V30 7213 C 687.559 0.264091 3.44088 0
M  V30 7214 C 686.672 1.35729 4.10124 0
M  V30 7215 C 685.807 0.781212 5.25424 0
M  V30 7216 C 684.846 1.85327 5.8337 0
M  V30 7217 N 683.983 1.29564 6.90042 0
M  V30 7218 H 688.823 1.71105 2.43981 0
M  V30 7219 H 686.36 0.854225 1.19756 0
M  V30 7220 H 688.318 -0.0642423 4.17151 0
M  V30 7221 H 686.948 -0.610901 3.16967 0
M  V30 7222 H 686 1.80234 3.34993 0
M  V30 7223 H 687.312 2.16782 4.4923 0
M  V30 7224 H 686.466 0.403769 6.05355 0
M  V30 7225 H 685.205 -0.0604686 4.87663 0
M  V30 7226 H 684.21 2.23986 5.02106 0
M  V30 7227 H 685.435 2.69824 6.23195 0
M  V30 7228 H 683.381 0.475844 6.54272 0
M  V30 7229 H 683.298 2.04271 7.2788 0
M  V30 7230 H 684.566 0.945545 7.73744 0
M  V30 7231 N 688.795 -1.27931 0.920396 0
M  V30 7232 C 690.02 -1.99343 0.572478 0
M  V30 7233 C 690.445 -1.68267 -0.840696 0
M  V30 7234 O 689.803 -0.918805 -1.56294 0
M  V30 7235 C 689.851 -3.51698 0.796284 0
M  V30 7236 O 688.955 -4.12157 -0.141602 0
M  V30 7237 H 688.296 -0.626065 0.221221 0
M  V30 7238 H 690.826 -1.62921 1.23765 0
M  V30 7239 H 690.836 -4.01793 0.708984 0
M  V30 7240 H 689.511 -3.73649 1.82644 0
M  V30 7241 H 688.088 -3.729 -0.005007 0
M  V30 7242 N 690.273 -0.685099 -1.4193 0
M  V30 7243 C 691.689 -0.355632 -1.55587 0
M  V30 7244 C 691.889 1.13823 -1.66273 0
M  V30 7245 O 690.945 1.92387 -1.63534 0
M  V30 7246 C 692.258 -1.09498 -2.80055 0
M  V30 7247 C 693.806 -1.07831 -2.93839 0
M  V30 7248 C 694.281 -1.79919 -4.21181 0
M  V30 7249 N 695.772 -1.76837 -4.28115 0
M  V30 7250 C 696.507 -2.29463 -5.25485 0
M  V30 7251 N 696.003 -2.90516 -6.28945 0
M  V30 7252 N 697.796 -2.19779 -5.17353 0
M  V30 7253 H 689.947 -1.65412 -1.33239 0
M  V30 7254 H 692.21 -0.697453 -0.642078 0
M  V30 7255 H 691.916 -2.14997 -2.78333 0
M  V30 7256 H 691.79 -0.666813 -3.71259 0
M  V30 7257 H 694.177 -0.0316152 -2.95083 0
M  V30 7258 H 694.258 -1.54545 -2.03837 0
M  V30 7259 H 693.902 -2.84562 -4.20698 0
M  V30 7260 H 693.832 -1.30647 -5.10136 0
M  V30 7261 H 696.323 -1.32315 -3.53979 0
M  V30 7262 H 696.636 -3.28266 -6.99615 0
M  V30 7263 H 694.981 -2.94589 -6.29478 0
M  V30 7264 H 698.172 -1.71763 -4.35448 0
M  V30 7265 H 698.345 -2.61097 -5.9307 0
M  V30 7266 N 691.751 1.51645 -0.429126 0
M  V30 7267 C 692.661 2.31288 0.392809 0
M  V30 7268 C 693.677 1.39852 1.03525 0
M  V30 7269 O 694.853 1.72926 1.03241 0
M  V30 7270 C 691.918 3.13347 1.48372 0
M  V30 7271 C 690.979 4.20551 0.862268 0
M  V30 7272 C 690.212 4.98688 1.9012 0
M  V30 7273 O 690.435 4.77359 3.12225 0
M  V30 7274 O 689.369 5.83005 1.4963 0
M  V30 7275 H 693.195 3.02609 -0.257138 0
M  V30 7276 H 690.78 1.48163 -0.191851 0
M  V30 7277 H 692.662 3.64387 2.1166 0
M  V30 7278 H 691.337 2.44799 2.1179 0
M  V30 7279 H 690.244 3.73609 0.191568 0
M  V30 7280 H 691.577 4.91449 0.271704 0
M  V30 7281 N 693.229 0.160201 1.56784 0
M  V30 7282 C 694.139 -0.787167 2.21 0
M  V30 7283 C 695.155 -1.26167 1.19825 0
M  V30 7284 O 696.331 -1.31611 1.52448 0
M  V30 7285 C 693.396 -2.00364 2.8294 0
M  V30 7286 C 692.457 -1.5771 3.99282 0
M  V30 7287 C 691.69 -2.73558 4.58259 0
M  V30 7288 O 691.913 -3.90129 4.16119 0
M  V30 7289 O 690.847 -2.48271 5.48311 0
M  V30 7290 H 694.673 -0.270462 3.02493 0
M  V30 7291 H 692.258 -0.0674666 1.49248 0
M  V30 7292 H 694.14 -2.71529 3.22257 0
M  V30 7293 H 692.815 -2.50961 2.04451 0
M  V30 7294 H 691.722 -0.835274 3.64656 0
M  V30 7295 H 693.055 -1.11815 4.79331 0
M  V30 7296 N 694.707 -1.5719 -0.113559 0
M  V30 7297 C 695.955 -1.84772 -0.818761 0
M  V30 7298 C 696.276 -0.746196 -1.80158 0
M  V30 7299 O 695.546 0.229305 -1.94553 0
M  V30 7300 H 694.126 -0.681737 -0.305359 0
M  V30 7301 H 696.788 -1.94645 -0.0995845 0
M  V30 7302 H 695.884 -2.80878 -1.36067 0
M  V30 7303 N 696.185 0.383891 -1.52853 0
M  V30 7304 C 697.132 1.46924 -1.77995 0
M  V30 7305 C 698.102 1.53958 -0.623396 0
M  V30 7306 O 699.287 1.70134 -0.863657 0
M  V30 7307 C 696.427 2.84093 -1.95921 0
M  V30 7308 C 695.54 2.86171 -3.23621 0
M  V30 7309 C 694.675 4.14799 -3.31836 0
M  V30 7310 C 693.714 4.10948 -4.53639 0
M  V30 7311 N 692.851 5.31192 -4.59107 0
M  V30 7312 H 697.691 1.24786 -2.70615 0
M  V30 7313 H 695.228 0.605265 -1.34071 0
M  V30 7314 H 697.186 3.63755 -2.04299 0
M  V30 7315 H 695.816 3.04671 -1.06656 0
M  V30 7316 H 694.868 1.9885 -3.24288 0
M  V30 7317 H 696.18 2.79194 -4.13343 0
M  V30 7318 H 695.334 5.02867 -3.39425 0
M  V30 7319 H 694.073 4.24505 -2.40097 0
M  V30 7320 H 693.078 3.21268 -4.46169 0
M  V30 7321 H 694.303 4.0286 -5.467 0
M  V30 7322 H 692.249 5.41518 -3.70262 0
M  V30 7323 H 692.166 5.26311 -5.42708 0
M  V30 7324 H 693.434 6.21143 -4.70958 0
M  V30 7325 N 697.663 1.43903 0.642637 0
M  V30 7326 C 698.626 1.49538 1.73698 0
M  V30 7327 C 699.626 0.378776 1.56275 0
M  V30 7328 O 700.816 0.64095 1.6198 0
M  V30 7329 C 697.948 1.35821 3.12675 0
M  V30 7330 H 699.141 2.47008 1.70079 0
M  V30 7331 H 696.694 1.30824 0.85526 0
M  V30 7332 H 697.429 0.393994 3.21898 0
M  V30 7333 H 697.214 2.16776 3.26727 0
M  V30 7334 H 698.704 1.4272 3.92455 0
M  V30 7335 N 699.141 -0.881989 1.30609 0
M  V30 7336 C 700.369 -1.66711 1.22536 0
M  V30 7337 C 700.784 -1.87614 -0.2113 0
M  V30 7338 O 700.141 -1.42576 -1.13923 0
M  V30 7339 C 700.192 -3.04182 1.95335 0
M  V30 7340 O 699.913 -2.8422 3.33393 0
M  V30 7341 C 701.414 -3.98617 1.93956 0
M  V30 7342 H 698.634 -0.520124 0.423925 0
M  V30 7343 H 701.178 -1.10174 1.72285 0
M  V30 7344 H 699.333 -3.57442 1.49378 0
M  V30 7345 H 699.747 -3.71452 3.70302 0
M  V30 7346 H 701.221 -4.92433 2.49426 0
M  V30 7347 H 701.698 -4.29473 0.919198 0
M  V30 7348 H 702.304 -3.51292 2.39738 0
M  V30 7349 N 700.619 -1.13374 -1.09472 0
M  V30 7350 C 701.551 -0.768466 -2.15933 0
M  V30 7351 C 702.564 0.209585 -1.61445 0
M  V30 7352 O 703.753 -0.010539 -1.78497 0
M  V30 7353 C 700.853 -0.118266 -3.38694 0
M  V30 7354 C 700.026 -1.12829 -4.22597 0
M  V30 7355 C 699.085 -0.503875 -5.23782 0
M  V30 7356 O 698.111 -1.16374 -5.57177 0
M  V30 7357 N 699.313 0.724288 -5.75964 0
M  V30 7358 H 702.078 -1.68457 -2.47876 0
M  V30 7359 H 699.639 -1.02668 -1.25183 0
M  V30 7360 H 701.631 0.311698 -4.03498 0
M  V30 7361 H 700.201 0.700769 -3.04644 0
M  V30 7362 H 699.421 -1.73556 -3.53938 0
M  V30 7363 H 700.709 -1.81095 -4.75481 0
M  V30 7364 H 700.107 1.27918 -5.51048 0
M  V30 7365 H 698.664 1.09692 -6.42504 0
M  V30 7366 N 702.098 1.27442 -0.927168 0
M  V30 7367 C 703.03 2.25975 -0.383158 0
M  V30 7368 C 704.043 1.55382 0.485832 0
M  V30 7369 O 705.232 1.75986 0.298541 0
M  V30 7370 C 702.332 3.35629 0.469688 0
M  V30 7371 C 701.505 4.35747 -0.379886 0
M  V30 7372 C 700.564 5.24598 0.410227 0
M  V30 7373 O 699.59 5.68909 -0.181888 0
M  V30 7374 N 700.792 5.54737 1.71017 0
M  V30 7375 H 703.557 2.7329 -1.23015 0
M  V30 7376 H 701.118 1.41063 -0.794539 0
M  V30 7377 H 703.11 3.92015 1.00532 0
M  V30 7378 H 701.68 2.87919 1.21744 0
M  V30 7379 H 700.9 3.78634 -1.09682 0
M  V30 7380 H 702.188 4.99648 -0.960717 0
M  V30 7381 H 701.586 5.20594 2.21356 0
M  V30 7382 H 700.143 6.13824 2.19234 0
M  V30 7383 N 703.576 0.692616 1.41565 0
M  V30 7384 C 704.992 0.363878 1.55397 0
M  V30 7385 C 705.192 -1.1294 1.66874 0
M  V30 7386 O 704.248 -1.91517 1.64552 0
M  V30 7387 C 705.561 1.10982 2.7947 0
M  V30 7388 C 707.109 1.09387 2.93263 0
M  V30 7389 C 707.584 1.8215 4.20221 0
M  V30 7390 N 709.075 1.79105 4.27172 0
M  V30 7391 C 709.81 2.32247 5.2426 0
M  V30 7392 N 709.306 2.93847 6.27396 0
M  V30 7393 N 711.099 2.22519 5.1618 0
M  V30 7394 H 703.25 1.66116 1.3236 0
M  V30 7395 H 705.513 0.700848 0.63837 0
M  V30 7396 H 705.219 2.1647 2.77188 0
M  V30 7397 H 705.093 0.686492 3.709 0
M  V30 7398 H 707.48 0.0472638 2.95062 0
M  V30 7399 H 707.561 1.55623 2.03015 0
M  V30 7400 H 707.205 2.86789 4.19183 0
M  V30 7401 H 707.135 1.33351 5.09436 0
M  V30 7402 H 709.626 1.34191 3.53272 0
M  V30 7403 H 709.939 3.31972 6.97864 0
M  V30 7404 H 708.284 2.97924 6.27906 0
M  V30 7405 H 711.475 1.7407 4.34531 0
M  V30 7406 H 711.648 2.64239 5.91677 0
M  V30 7407 N 705.054 -1.51416 0.437162 0
M  V30 7408 C 705.964 -2.31493 -0.380537 0
M  V30 7409 C 706.98 -1.40399 -1.02782 0
M  V30 7410 O 708.156 -1.73471 -1.02323 0
M  V30 7411 C 705.221 -3.1413 -1.46709 0
M  V30 7412 C 704.282 -4.21003 -0.839953 0
M  V30 7413 C 703.515 -4.9969 -1.87473 0
M  V30 7414 O 703.738 -4.79008 -3.09689 0
M  V30 7415 O 702.672 -5.8379 -1.46536 0
M  V30 7416 H 706.498 -3.02469 0.273183 0
M  V30 7417 H 704.083 -1.48059 0.199706 0
M  V30 7418 H 705.965 -3.65505 -2.09724 0
M  V30 7419 H 704.64 -2.45919 -2.10489 0
M  V30 7420 H 703.547 -3.73706 -0.171752 0
M  V30 7421 H 704.88 -4.91587 -0.245638 0
M  V30 7422 N 706.532 -0.168513 -1.56696 0
M  V30 7423 C 707.778 0.477865 -1.9709 0
M  V30 7424 C 708.111 1.63084 -1.05438 0
M  V30 7425 O 707.386 1.94238 -0.10095 0
M  V30 7426 C 707.669 0.963521 -3.4697 0
M  V30 7427 C 707.522 -0.189443 -4.49401 0
M  V30 7428 C 708.841 1.83813 -3.99876 0
M  V30 7429 H 705.96 0.172229 -0.716593 0
M  V30 7430 H 708.602 -0.254083 -1.88293 0
M  V30 7431 H 706.752 1.58724 -3.54597 0
M  V30 7432 H 708.424 -0.826451 -4.53836 0
M  V30 7433 H 706.667 -0.845366 -4.25483 0
M  V30 7434 H 707.338 0.192446 -5.51664 0
M  V30 7435 H 709.814 1.31235 -3.94863 0
M  V30 7436 H 708.69 2.14697 -5.0517 0
M  V30 7437 H 708.951 2.78289 -3.43523 0
M  V30 7438 N 708.01 1.57248 0.105221 0
M  V30 7439 C 708.92 2.04653 1.14693 0
M  V30 7440 C 709.936 0.969488 1.44489 0
M  V30 7441 O 711.112 1.28196 1.55331 0
M  V30 7442 C 708.177 2.45297 2.45011 0
M  V30 7443 C 707.238 3.67148 2.22489 0
M  V30 7444 C 706.471 4.05844 3.46592 0
M  V30 7445 O 706.694 3.44736 4.54437 0
M  V30 7446 O 705.628 4.98862 3.36779 0
M  V30 7447 H 709.454 2.93663 0.774336 0
M  V30 7448 H 707.039 1.45998 0.31701 0
M  V30 7449 H 708.921 2.72112 3.21766 0
M  V30 7450 H 707.596 1.59429 2.81717 0
M  V30 7451 H 706.503 3.45463 1.43547 0
M  V30 7452 H 707.836 4.53764 1.9068 0
M  V30 7453 N 709.488 -0.375779 1.53054 0
M  V30 7454 C 710.713 -1.14484 1.7294 0
M  V30 7455 C 711.138 -1.82572 0.452668 0
M  V30 7456 O 710.496 -1.71343 -0.592567 0
M  V30 7457 C 710.544 -2.15857 2.88857 0
M  V30 7458 O 709.648 -3.22725 2.56753 0
M  V30 7459 H 708.989 -0.332666 0.574656 0
M  V30 7460 H 711.519 -0.436025 1.999 0
M  V30 7461 H 711.529 -2.59631 3.14731 0
M  V30 7462 H 710.204 -1.65689 3.81471 0
M  V30 7463 H 708.781 -2.83996 2.41663 0
M  V30 7464 N 710.966 -1.44241 -0.634997 0
M  V30 7465 C 712.213 -1.46821 -1.39463 0
M  V30 7466 C 712.541 -0.0993362 -1.94246 0
M  V30 7467 O 711.796 0.898325 -1.73864 0
M  V30 7468 C 712.095 -2.47279 -2.58046 0
M  V30 7469 C 711.761 -3.92703 -2.21574 0
M  V30 7470 C 710.423 -4.32306 -2.1134 0
M  V30 7471 C 712.775 -4.84271 -1.92695 0
M  V30 7472 C 710.103 -5.61407 -1.70409 0
M  V30 7473 C 712.455 -6.13755 -1.53258 0
M  V30 7474 C 711.119 -6.52316 -1.41562 0
M  V30 7475 H 710.389 -0.537256 -0.51033 0
M  V30 7476 H 713.036 -1.77431 -0.720441 0
M  V30 7477 H 711.341 -2.10138 -3.3068 0
M  V30 7478 H 713.038 -2.46523 -3.16271 0
M  V30 7479 H 709.628 -3.61369 -2.30456 0
M  V30 7480 H 713.812 -4.54432 -1.99513 0
M  V30 7481 H 709.068 -5.90105 -1.59955 0
M  V30 7482 H 713.242 -6.84168 -1.29949 0
M  V30 7483 H 710.869 -7.52255 -1.09619 0
M  V30 7484 N 712.444 0.87505 -1.31075 0
M  V30 7485 C 713.394 1.96933 -1.14898 0
M  V30 7486 C 714.378 1.60783 -0.0613703 0
M  V30 7487 O 715.57 1.74678 -0.285751 0
M  V30 7488 C 712.699 3.3253 -0.853166 0
M  V30 7489 C 711.785 3.74963 -1.98151 0
M  V30 7490 N 712.176 3.89403 -3.22799 0
M  V30 7491 C 710.474 4.04436 -1.8801 0
M  V30 7492 C 711.175 4.25563 -3.96574 0
M  V30 7493 N 710.151 4.3597 -3.24701 0
M  V30 7494 H 713.953 2.06201 -2.09424 0
M  V30 7495 H 711.467 1.06551 -1.22558 0
M  V30 7496 H 713.464 4.10666 -0.718266 0
M  V30 7497 H 712.124 3.24592 0.0839218 0
M  V30 7498 H 713.135 3.74266 -3.57974 0
M  V30 7499 H 709.812 4.04915 -1.01733 0
M  V30 7500 H 711.202 4.44375 -5.03965 0
M  V30 7501 N 713.922 1.13953 1.08869 0
M  V30 7502 C 715.147 0.928559 1.85452 0
M  V30 7503 C 715.572 -0.517642 1.80837 0
M  V30 7504 O 714.93 -1.36779 1.19001 0
M  V30 7505 C 714.978 1.42814 3.31114 0
M  V30 7506 O 714.082 0.617129 4.07756 0
M  V30 7507 H 713.423 0.33235 0.574839 0
M  V30 7508 H 715.953 1.5156 1.37443 0
M  V30 7509 H 715.963 1.43425 3.8196 0
M  V30 7510 H 714.638 2.48109 3.33788 0
M  V30 7511 H 713.215 0.679365 3.66659 0
M  V30 7512 N 715.4 -1.26948 0.933913 0
M  V30 7513 C 716.31 -2.30366 0.443671 0
M  V30 7514 C 717.326 -1.67284 -0.478745 0
M  V30 7515 O 718.502 -1.98156 -0.360043 0
M  V30 7516 C 715.567 -3.45485 -0.289974 0
M  V30 7517 C 714.628 -4.24069 0.668114 0
M  V30 7518 C 713.861 -5.33691 -0.0306138 0
M  V30 7519 O 714.084 -5.5656 -1.24888 0
M  V30 7520 O 713.018 -5.98441 0.644384 0
M  V30 7521 H 716.844 -2.74349 1.30254 0
M  V30 7522 H 714.429 -1.32012 0.699506 0
M  V30 7523 H 716.311 -4.15486 -0.70353 0
M  V30 7524 H 714.986 -3.03546 -1.12435 0
M  V30 7525 H 713.893 -3.56579 1.13147 0
M  V30 7526 H 715.226 -4.69739 1.46989 0
M  V30 7527 N 716.879 -0.700114 -1.41195 0
M  V30 7528 C 718.107 -0.242179 -2.05478 0
M  V30 7529 C 718.522 1.11029 -1.52702 0
M  V30 7530 O 717.879 1.69473 -0.677127 0
M  V30 7531 C 717.93 -0.196271 -3.60967 0
M  V30 7532 O 717.651 -1.49532 -4.11791 0
M  V30 7533 C 719.152 0.282102 -4.42401 0
M  V30 7534 H 716.372 -0.111749 -0.661629 0
M  V30 7535 H 718.916 -0.953975 -1.80885 0
M  V30 7536 H 717.071 0.46638 -3.84582 0
M  V30 7537 H 717.485 -1.38545 -5.05871 0
M  V30 7538 H 718.959 0.263093 -5.51373 0
M  V30 7539 H 719.436 1.32174 -4.1884 0
M  V30 7540 H 720.042 -0.349712 -4.2386 0
M  V30 7541 N 718.357 1.51182 -0.445186 0
M  V30 7542 C 719.634 1.9478 0.178965 0
M  V30 7543 C 720.014 1.38428 1.59376 0
M  V30 7544 O 719.362 0.574552 2.21159 0
M  V30 7545 C 719.572 3.48683 0.148711 0
M  V30 7546 C 720.92 4.23152 0.35042 0
M  V30 7547 O 721.944 3.55479 0.226474 0
M  V30 7548 O 720.803 5.4322 0.597893 0
M  V30 7549 H 717.897 0.817387 0.12573 0
M  V30 7550 H 720.443 1.62051 -0.503729 0
M  V30 7551 H 719.215 3.82176 -0.84009 0
M  V30 7552 H 718.838 3.87875 0.873979 0
M  V30 7553 N 719.835 0.176821 1.56605 0
M  V30 7554 C 720.767 -0.782836 2.15417 0
M  V30 7555 C 721.78 -1.18982 1.11117 0
M  V30 7556 O 722.969 -1.12872 1.38283 0
M  V30 7557 C 720.069 -2.06596 2.68647 0
M  V30 7558 C 719.242 -1.82167 3.9766 0
M  V30 7559 C 718.301 -2.94751 4.35899 0
M  V30 7560 O 717.327 -2.65148 5.03672 0
M  V30 7561 N 718.529 -4.2267 3.97907 0
M  V30 7562 H 721.294 -0.280012 2.98389 0
M  V30 7563 H 718.855 -0.00577529 1.61899 0
M  V30 7564 H 720.847 -2.81018 2.91223 0
M  V30 7565 H 719.417 -2.48054 1.90232 0
M  V30 7566 H 718.637 -0.916208 3.83405 0
M  V30 7567 H 719.925 -1.6322 4.81909 0
M  V30 7568 H 719.323 -4.4958 3.43357 0
M  V30 7569 H 717.88 -4.93778 4.25472 0
M  V30 7570 N 721.313 -1.57302 -0.09688 0
M  V30 7571 C 722.59 -1.7701 -0.832272 0
M  V30 7572 C 722.97 -0.758025 -1.97021 0
M  V30 7573 O 722.318 0.213824 -2.27497 0
M  V30 7574 C 722.528 -3.22725 -1.32851 0
M  V30 7575 C 723.876 -3.85856 -1.772 0
M  V30 7576 O 724.9 -3.26464 -1.42478 0
M  V30 7577 O 723.759 -4.90295 -2.41398 0
M  V30 7578 H 720.853 -0.725558 -0.396856 0
M  V30 7579 H 723.399 -1.69516 -0.0789005 0
M  V30 7580 H 722.171 -3.87921 -0.51312 0
M  V30 7581 H 721.794 -3.34845 -2.14394 0
M  V30 7582 N 722.791 0.367657 -1.53252 0
M  V30 7583 C 724.019 1.13119 -1.73239 0
M  V30 7584 C 724.434 1.831 -0.460404 0
M  V30 7585 O 723.791 1.73483 0.566557 0
M  V30 7586 C 723.842 2.16308 -2.89643 0
M  V30 7587 O 723.563 1.49175 -4.1192 0
M  V30 7588 C 725.064 3.05224 -3.21486 0
M  V30 7589 H 722.284 0.338318 -0.579467 0
M  V30 7590 H 724.828 0.42721 -1.99988 0
M  V30 7591 H 722.983 2.82307 -2.65295 0
M  V30 7592 H 723.397 2.17912 -4.7709 0
M  V30 7593 H 724.871 3.73613 -4.06346 0
M  V30 7594 H 725.348 3.69919 -2.36763 0
M  V30 7595 H 725.954 2.44843 -3.47753 0
M  V30 7596 N 724.269 1.44576 0.627338 0
M  V30 7597 C 725.68 1.42266 1.20902 0
M  V30 7598 C 726.031 0.139964 1.957 0
M  V30 7599 O 725.156 -0.759489 2.02634 0
M  V30 7600 C 725.751 2.57727 2.19914 0
M  V30 7601 C 724.31 2.58599 2.73502 0
M  V30 7602 C 723.457 2.34145 1.48564 0
M  V30 7603 H 726.408 1.53102 0.417791 0
M  V30 7604 H 726.429 2.30697 3.02588 0
M  V30 7605 H 725.941 3.51068 1.65447 0
M  V30 7606 H 724.042 1.6921 3.31962 0
M  V30 7607 H 724.155 3.57205 3.19282 0
M  V30 7608 H 722.519 1.83313 1.76829 0
M  V30 7609 H 723.302 3.29606 0.959935 0
M  V30 7610 N 725.747 -0.868086 1.31537 0
M  V30 7611 C 726.993 -1.62359 1.2252 0
M  V30 7612 C 727.348 -1.91204 -0.214169 0
M  V30 7613 O 726.641 -1.5339 -1.14813 0
M  V30 7614 C 726.835 -2.95889 2.0046 0
M  V30 7615 C 726.664 -2.80082 3.5183 0
M  V30 7616 C 725.434 -2.7917 4.21179 0
M  V30 7617 C 727.632 -2.54805 4.46743 0
M  V30 7618 N 725.614 -2.54433 5.58692 0
M  V30 7619 C 726.985 -2.39349 5.71937 0
M  V30 7620 C 729.04 -2.40165 4.36148 0
M  V30 7621 C 727.743 -2.1074 6.87736 0
M  V30 7622 C 729.769 -2.12945 5.51732 0
M  V30 7623 C 729.131 -1.98278 6.75918 0
M  V30 7624 H 725.23 -0.598381 0.503452 0
M  V30 7625 H 727.814 -1.02156 1.65748 0
M  V30 7626 H 725.985 -3.54095 1.59598 0
M  V30 7627 H 727.717 -3.60734 1.83447 0
M  V30 7628 H 724.472 -2.91621 3.73168 0
M  V30 7629 H 724.896 -2.45029 6.31102 0
M  V30 7630 H 729.538 -2.50231 3.408 0
M  V30 7631 H 727.256 -1.99412 7.8311 0
M  V30 7632 H 730.842 -2.02415 5.45454 0
M  V30 7633 H 729.722 -1.77514 7.63845 0
M  V30 7634 N 727.225 -1.14528 -1.08264 0
M  V30 7635 C 728.155 -0.856356 -2.1723 0
M  V30 7636 C 729.136 0.189251 -1.69044 0
M  V30 7637 O 730.321 0.0456119 -1.94146 0
M  V30 7638 C 727.451 -0.334662 -3.45684 0
M  V30 7639 C 726.405 -1.31588 -4.0727 0
M  V30 7640 C 725.731 -0.653428 -5.30692 0
M  V30 7641 C 727.031 -2.67866 -4.48381 0
M  V30 7642 H 728.725 -1.76755 -2.41657 0
M  V30 7643 H 726.271 -0.851287 -1.16143 0
M  V30 7644 H 728.224 -0.120128 -4.21229 0
M  V30 7645 H 726.948 0.611967 -3.20815 0
M  V30 7646 H 725.607 -1.51661 -3.33758 0
M  V30 7647 H 725.255 0.299054 -5.0211 0
M  V30 7648 H 724.955 -1.30817 -5.72853 0
M  V30 7649 H 726.479 -0.448453 -6.08951 0
M  V30 7650 H 727.893 -2.51692 -5.15096 0
M  V30 7651 H 726.29 -3.29627 -5.01464 0
M  V30 7652 H 727.36 -3.24632 -3.60198 0
M  V30 7653 N 728.703 1.26451 -0.940633 0
M  V30 7654 C 729.633 2.28773 -0.467479 0
M  V30 7655 C 730.614 1.63218 0.478955 0
M  V30 7656 O 731.799 1.90427 0.380929 0
M  V30 7657 C 728.929 3.46259 0.268656 0
M  V30 7658 C 727.883 4.23898 -0.591171 0
M  V30 7659 C 727.209 5.33993 0.274891 0
M  V30 7660 C 728.509 4.87974 -1.86223 0
M  V30 7661 H 730.203 2.68601 -1.32265 0
M  V30 7662 H 727.749 1.29123 -0.637436 0
M  V30 7663 H 729.702 4.16951 0.610696 0
M  V30 7664 H 728.426 3.05383 1.15796 0
M  V30 7665 H 727.085 3.54969 -0.916098 0
M  V30 7666 H 726.733 4.89358 1.16353 0
M  V30 7667 H 726.433 5.86849 -0.297006 0
M  V30 7668 H 727.957 6.07523 0.612213 0
M  V30 7669 H 729.371 5.50883 -1.58747 0
M  V30 7670 H 727.768 5.50945 -2.37866 0
M  V30 7671 H 728.838 4.10945 -2.57394 0
M  V30 7672 N 730.181 0.707592 1.40822 0
M  V30 7673 C 731.592 0.317011 1.83989 0
M  V30 7674 C 731.943 -1.14697 1.59182 0
M  V30 7675 O 731.068 -1.8818 1.06852 0
M  V30 7676 C 731.663 0.568593 3.33995 0
M  V30 7677 C 730.222 0.231804 3.75686 0
M  V30 7678 C 729.369 0.844933 2.64114 0
M  V30 7679 H 732.32 0.907349 1.30203 0
M  V30 7680 H 732.341 -0.168798 3.80125 0
M  V30 7681 H 731.853 1.63417 3.52018 0
M  V30 7682 H 729.954 -0.82903 3.6326 0
M  V30 7683 H 730.067 0.695219 4.74029 0
M  V30 7684 H 728.431 0.273588 2.53226 0
M  V30 7685 H 729.214 1.91462 2.84951 0
M  V30 7686 N 731.66 -1.50943 0.453197 0
M  V30 7687 C 732.592 -2.25922 -0.38623 0
M  V30 7688 C 733.605 -1.3055 -0.972652 0
M  V30 7689 O 734.794 -1.56191 -0.864097 0
M  V30 7690 C 731.894 -3.01176 -1.5539 0
M  V30 7691 C 731.067 -4.23768 -1.0835 0
M  V30 7692 C 730.126 -4.81466 -2.12313 0
M  V30 7693 O 729.152 -5.42875 -1.71101 0
M  V30 7694 N 730.354 -4.66889 -3.44956 0
M  V30 7695 H 733.119 -2.98601 0.256468 0
M  V30 7696 H 730.68 -1.59408 0.282965 0
M  V30 7697 H 732.672 -3.36659 -2.24594 0
M  V30 7698 H 731.242 -2.31409 -2.10163 0
M  V30 7699 H 730.462 -3.93597 -0.217961 0
M  V30 7700 H 731.75 -5.03289 -0.746857 0
M  V30 7701 H 731.148 -4.18011 -3.81161 0
M  V30 7702 H 729.705 -5.06691 -4.1001 0
M  V30 7703 N 733.138 -0.185124 -1.56509 0
M  V30 7704 C 734.048 0.751908 -2.22224 0
M  V30 7705 C 735.064 1.24244 -1.21817 0
M  V30 7706 O 736.24 1.29169 -1.54523 0
M  V30 7707 C 733.305 1.95837 -2.86092 0
M  V30 7708 C 732.366 1.51337 -4.01741 0
M  V30 7709 C 731.599 2.66233 -4.62554 0
M  V30 7710 O 731.822 3.8346 -4.22273 0
M  V30 7711 O 730.756 2.39517 -5.52191 0
M  V30 7712 H 734.582 0.222304 -3.02885 0
M  V30 7713 H 732.167 0.0437141 -1.49336 0
M  V30 7714 H 734.049 2.66368 -3.26536 0
M  V30 7715 H 732.724 2.47677 -2.08417 0
M  V30 7716 H 731.631 0.777155 -3.65939 0
M  V30 7717 H 732.964 1.04175 -4.81049 0
M  V30 7718 N 734.616 1.57351 0.0885366 0
M  V30 7719 C 735.563 2.02523 1.10693 0
M  V30 7720 C 736.533 0.902736 1.39427 0
M  V30 7721 O 737.718 1.16921 1.50779 0
M  V30 7722 C 734.858 2.46013 2.42016 0
M  V30 7723 C 733.971 3.7181 2.19957 0
M  V30 7724 C 733.106 4.04152 3.44724 0
M  V30 7725 C 732.145 5.2304 3.17956 0
M  V30 7726 N 731.282 5.51102 4.35007 0
M  V30 7727 H 736.122 2.89302 0.714742 0
M  V30 7728 H 733.659 1.43084 0.341378 0
M  V30 7729 H 735.617 2.69274 3.18665 0
M  V30 7730 H 734.247 1.62235 2.79069 0
M  V30 7731 H 733.299 3.55987 1.34079 0
M  V30 7732 H 734.611 4.58604 1.96173 0
M  V30 7733 H 733.765 4.28225 4.29777 0
M  V30 7734 H 732.504 3.15893 3.71568 0
M  V30 7735 H 731.509 4.98781 2.31296 0
M  V30 7736 H 732.734 6.12902 2.92451 0
M  V30 7737 H 730.68 4.65802 4.61914 0
M  V30 7738 H 730.597 6.3228 4.14437 0
M  V30 7739 H 731.865 5.79714 5.21106 0
M  V30 7740 N 736.094 -0.359525 1.53444 0
M  V30 7741 C 737.322 -1.12198 1.73837 0
M  V30 7742 C 737.737 -1.82854 0.470107 0
M  V30 7743 O 737.094 -1.73781 -0.557349 0
M  V30 7744 C 737.145 -2.14769 2.90786 0
M  V30 7745 O 736.866 -1.46989 4.12706 0
M  V30 7746 C 738.367 -3.03514 3.231 0
M  V30 7747 H 735.587 -0.33524 0.581253 0
M  V30 7748 H 738.131 -0.416598 2.00212 0
M  V30 7749 H 736.286 -2.80896 2.66788 0
M  V30 7750 H 736.7 -2.15378 4.78239 0
M  V30 7751 H 738.174 -3.71453 4.08322 0
M  V30 7752 H 738.651 -3.68658 2.38721 0
M  V30 7753 H 739.257 -2.42996 3.49046 0
M  V30 7754 N 737.572 -1.44907 -0.619662 0
M  V30 7755 C 738.983 -1.42905 -1.20146 0
M  V30 7756 C 739.334 -0.150341 -1.95623 0
M  V30 7757 O 738.459 0.748732 -2.03034 0
M  V30 7758 C 739.054 -2.58889 -2.18545 0
M  V30 7759 C 737.613 -2.60046 -2.72127 0
M  V30 7760 C 736.76 -2.3493 -1.4732 0
M  V30 7761 H 739.711 -1.53321 -0.409666 0
M  V30 7762 H 739.732 -2.32298 -3.0136 0
M  V30 7763 H 739.244 -3.51941 -1.63583 0
M  V30 7764 H 737.345 -1.70968 -3.3106 0
M  V30 7765 H 737.458 -3.58893 -3.17384 0
M  V30 7766 H 735.822 -1.84248 -1.75855 0
M  V30 7767 H 736.605 -3.3011 -0.942442 0
M  V30 7768 N 739.05 0.861098 -1.31996 0
M  V30 7769 C 740.297 1.61481 -1.22188 0
M  V30 7770 C 740.625 1.93276 0.217853 0
M  V30 7771 O 739.88 1.56942 1.16909 0
M  V30 7772 C 740.179 2.94822 -2.02027 0
M  V30 7773 C 739.845 2.82483 -3.51446 0
M  V30 7774 C 738.507 2.78825 -3.92186 0
M  V30 7775 C 740.859 2.68878 -4.46491 0
M  V30 7776 C 738.187 2.59433 -5.26224 0
M  V30 7777 C 740.539 2.51022 -5.80664 0
M  V30 7778 C 739.203 2.45753 -6.20614 0
M  V30 7779 H 738.473 0.590902 -0.447119 0
M  V30 7780 H 741.12 0.999376 -1.63355 0
M  V30 7781 H 739.425 3.6045 -1.53569 0
M  V30 7782 H 741.122 3.52149 -1.91812 0
M  V30 7783 H 737.712 2.86152 -3.19085 0
M  V30 7784 H 741.896 2.70754 -4.1594 0
M  V30 7785 H 737.152 2.53784 -5.5624 0
M  V30 7786 H 741.326 2.39473 -6.53931 0
M  V30 7787 H 738.953 2.30485 -7.24417 0
M  V30 7788 N 740.528 1.15101 1.07655 0
M  V30 7789 C 741.776 0.922149 1.79836 0
M  V30 7790 C 742.097 -0.552346 1.87014 0
M  V30 7791 O 741.367 -1.40145 1.3688 0
M  V30 7792 H 739.947 0.338182 0.666064 0
M  V30 7793 H 742.609 1.45107 1.30115 0
M  V30 7794 H 741.705 1.32883 2.82398 0
M  V30 7795 N 742.006 -1.2595 0.947325 0
M  V30 7796 C 743.231 -1.98083 0.614633 0
M  V30 7797 C 743.656 -1.70013 -0.804815 0
M  V30 7798 O 743.014 -0.95175 -1.54309 0
M  V30 7799 C 743.062 -3.4993 0.870706 0
M  V30 7800 O 742.166 -4.12364 -0.0541451 0
M  V30 7801 H 741.507 -0.621232 0.234451 0
M  V30 7802 H 744.037 -1.60259 1.27193 0
M  V30 7803 H 744.047 -4.00198 0.794051 0
M  V30 7804 H 742.722 -3.69691 1.90529 0
M  V30 7805 H 741.299 -3.72826 0.0740917 0
M  V30 7806 N 743.484 -0.715051 -1.40445 0
M  V30 7807 C 744.447 -0.0708726 -2.2909 0
M  V30 7808 C 745.447 0.687926 -1.45342 0
M  V30 7809 O 746.637 0.519908 -1.66261 0
M  V30 7810 C 743.769 0.909528 -3.28543 0
M  V30 7811 H 744.962 -0.851611 -2.87555 0
M  V30 7812 H 742.515 -0.479674 -1.48758 0
M  V30 7813 H 743.25 1.71734 -2.75096 0
M  V30 7814 H 743.035 0.368318 -3.90366 0
M  V30 7815 H 744.525 1.35744 -3.94922 0
M  V30 7816 N 744.962 1.50701 -0.461195 0
M  V30 7817 C 745.909 2.2831 0.338094 0
M  V30 7818 C 746.879 1.32928 0.995957 0
M  V30 7819 O 748.064 1.61857 1.0103 0
M  V30 7820 C 745.204 3.14539 1.41983 0
M  V30 7821 C 744.317 4.24942 0.77773 0
M  V30 7822 C 743.452 4.98443 1.83652 0
M  V30 7823 C 742.491 6.00733 1.17413 0
M  V30 7824 N 741.628 6.6755 2.17533 0
M  V30 7825 H 746.468 2.96167 -0.330051 0
M  V30 7826 H 744.005 1.4606 -0.174611 0
M  V30 7827 H 745.963 3.62877 2.05855 0
M  V30 7828 H 744.593 2.48749 2.05727 0
M  V30 7829 H 743.645 3.80391 0.0266924 0
M  V30 7830 H 744.957 4.98151 0.254362 0
M  V30 7831 H 744.111 5.50449 2.55129 0
M  V30 7832 H 742.85 4.24917 2.39367 0
M  V30 7833 H 741.855 5.47997 0.444944 0
M  V30 7834 H 743.08 6.76227 0.624006 0
M  V30 7835 H 741.026 5.96823 2.72284 0
M  V30 7836 H 740.943 7.36603 1.70154 0
M  V30 7837 H 742.211 7.24178 2.88421 0
M  V30 7838 N 746.441 0.193421 1.56409 0
M  V30 7839 C 747.852 -0.319471 1.83946 0
M  V30 7840 C 748.203 -1.61505 1.11403 0
M  V30 7841 O 747.328 -2.13139 0.374289 0
M  V30 7842 C 747.923 -0.586411 3.33686 0
M  V30 7843 C 746.482 -1.04368 3.61641 0
M  V30 7844 C 745.629 -0.0913834 2.77149 0
M  V30 7845 H 748.58 0.417242 1.53117 0
M  V30 7846 H 748.601 -1.43591 3.52366 0
M  V30 7847 H 748.113 0.356701 3.86457 0
M  V30 7848 H 746.214 -2.00113 3.14302 0
M  V30 7849 H 746.327 -0.937549 4.69837 0
M  V30 7850 H 744.691 -0.592954 2.47702 0
M  V30 7851 H 745.474 0.846142 3.32709 0
M  V30 7852 N 747.919 -1.57396 -0.0801906 0
M  V30 7853 C 748.849 -2.06145 -1.09665 0
M  V30 7854 C 749.83 -0.953273 -1.40878 0
M  V30 7855 O 751.015 -1.22548 -1.50651 0
M  V30 7856 C 748.145 -2.49836 -2.41245 0
M  V30 7857 C 747.099 -3.64454 -2.24405 0
M  V30 7858 C 746.425 -3.94172 -3.61293 0
M  V30 7859 C 747.725 -4.94807 -1.67223 0
M  V30 7860 H 749.419 -2.91316 -0.691028 0
M  V30 7861 H 746.965 -1.40145 -0.330957 0
M  V30 7862 H 748.918 -2.82552 -3.12638 0
M  V30 7863 H 747.642 -1.61683 -2.83771 0
M  V30 7864 H 746.301 -3.32008 -1.55454 0
M  V30 7865 H 745.949 -3.03163 -4.01374 0
M  V30 7866 H 745.649 -4.71345 -3.50867 0
M  V30 7867 H 747.173 -4.29376 -4.3413 0
M  V30 7868 H 748.587 -5.25807 -2.28472 0
M  V30 7869 H 746.984 -5.76245 -1.67515 0
M  V30 7870 H 748.054 -4.80751 -0.632944 0
M  V30 7871 N 749.397 0.351382 -1.53633 0
M  V30 7872 C 750.674 1.10903 -1.6112 0
M  V30 7873 C 751.054 2.06725 -0.427556 0
M  V30 7874 O 750.402 2.20992 0.580916 0
M  V30 7875 C 750.612 1.83561 -2.96827 0
M  V30 7876 C 751.96 2.37587 -3.51906 0
M  V30 7877 O 752.984 1.93669 -2.9895 0
M  V30 7878 O 751.843 3.17913 -4.44515 0
M  V30 7879 H 748.937 0.509558 -0.651368 0
M  V30 7880 H 751.483 0.353504 -1.65977 0
M  V30 7881 H 750.255 1.1371 -3.74414 0
M  V30 7882 H 749.878 2.6599 -2.95525 0
M  V30 7883 N 750.875 1.45233 0.611969 0
M  V30 7884 C 752.105 1.52318 1.39581 0
M  V30 7885 C 752.513 0.153093 1.8858 0
M  V30 7886 O 751.856 -0.854792 1.62601 0
M  V30 7887 C 751.918 2.4426 2.63775 0
M  V30 7888 C 751.582 3.91079 2.36445 0
M  V30 7889 C 752.579 4.81099 1.97079 0
M  V30 7890 C 750.264 4.35958 2.49492 0
M  V30 7891 C 752.258 6.14002 1.71115 0
M  V30 7892 C 749.945 5.68903 2.23142 0
M  V30 7893 C 750.943 6.57744 1.84015 0
M  V30 7894 O 750.631 7.88226 1.5797 0
M  V30 7895 H 750.363 0.518428 0.43383 0
M  V30 7896 H 752.917 1.91067 0.753837 0
M  V30 7897 H 751.147 2.00474 3.30677 0
M  V30 7898 H 752.836 2.42077 3.25812 0
M  V30 7899 H 753.602 4.47692 1.86539 0
M  V30 7900 H 749.481 3.67053 2.78914 0
M  V30 7901 H 753.025 6.83305 1.405 0
M  V30 7902 H 748.922 6.01866 2.33297 0
M  V30 7903 H 749.69 8.00211 1.72058 0
M  V30 7904 N 752.353 -0.854086 1.3245 0
M  V30 7905 C 753.599 -1.61069 1.23225 0
M  V30 7906 C 753.932 -1.93111 -0.205349 0
M  V30 7907 O 753.207 -1.57397 -1.14265 0
M  V30 7908 C 753.49 -2.93065 2.09249 0
M  V30 7909 C 753.343 -2.67801 3.6139 0
M  V30 7910 C 754.662 -3.94341 1.95406 0
M  V30 7911 H 751.781 -0.584449 0.448986 0
M  V30 7912 H 754.423 -0.986189 1.62402 0
M  V30 7913 H 752.573 -3.46364 1.75967 0
M  V30 7914 H 754.245 -2.21052 4.04887 0
M  V30 7915 H 752.488 -2.01756 3.84027 0
M  V30 7916 H 753.159 -3.6179 4.16907 0
M  V30 7917 H 755.635 -3.50301 2.24562 0
M  V30 7918 H 754.511 -4.84555 2.57872 0
M  V30 7919 H 754.772 -4.32382 0.921865 0
M  V30 7920 N 753.831 -1.1567 -1.07043 0
M  V30 7921 C 754.741 -0.870435 -2.17855 0
M  V30 7922 C 755.757 0.154452 -1.73313 0
M  V30 7923 O 756.933 -0.0203759 -2.0139 0
M  V30 7924 C 753.998 -0.367219 -3.4475 0
M  V30 7925 C 753.059 -1.45639 -4.03841 0
M  V30 7926 C 752.292 -0.977092 -5.2468 0
M  V30 7927 O 752.515 0.176127 -5.70128 0
M  V30 7928 O 751.449 -1.76215 -5.75527 0
M  V30 7929 H 755.275 -1.79687 -2.44839 0
M  V30 7930 H 752.86 -0.936064 -1.1644 0
M  V30 7931 H 754.742 -0.0931947 -4.21297 0
M  V30 7932 H 753.417 0.53131 -3.1931 0
M  V30 7933 H 752.324 -1.78406 -3.28819 0
M  V30 7934 H 753.657 -2.32995 -4.3356 0
M  V30 7935 N 755.309 1.25446 -0.953992 0
M  V30 7936 C 756.558 1.92441 -0.604101 0
M  V30 7937 C 756.871 1.75543 0.862796 0
M  V30 7938 O 758.077 2.37106 1.32262 0
M  V30 7939 C 756.533 3.44854 -1.02974 0
M  V30 7940 C 756.141 3.70464 -2.51914 0
M  V30 7941 C 757.885 4.1778 -0.752352 0
M  V30 7942 C 755.792 5.1638 -2.88281 0
M  V30 7943 H 754.722 0.720508 -0.222227 0
M  V30 7944 H 757.373 1.42318 -1.15836 0
M  V30 7945 H 755.755 3.93935 -0.403904 0
M  V30 7946 H 756.929 3.32038 -3.19511 0
M  V30 7947 H 755.244 3.10797 -2.77117 0
M  V30 7948 H 757.841 5.25261 -1.00024 0
M  V30 7949 H 758.184 4.15135 0.311212 0
M  V30 7950 H 758.717 3.74605 -1.33851 0
M  V30 7951 H 755.456 5.24135 -3.93653 0
M  V30 7952 H 754.976 5.55855 -2.25357 0
M  V30 7953 H 756.655 5.84497 -2.77439 0
M  V30 7954 N 756.787 0.722489 1.40064 0
M  V30 7955 C 757.737 0.0506801 2.27944 0
M  V30 7956 C 758.721 -0.725493 1.43615 0
M  V30 7957 O 759.913 -0.596559 1.66644 0
M  V30 7958 C 757.042 -0.865195 3.32219 0
M  V30 7959 C 756.128 -0.0838393 4.24017 0
M  V30 7960 N 756.519 0.936516 4.97054 0
M  V30 7961 C 754.817 -0.315371 4.44884 0
M  V30 7962 C 755.518 1.4066 5.64437 0
M  V30 7963 N 754.494 0.727485 5.3871 0
M  V30 7964 H 758.296 0.832609 2.8186 0
M  V30 7965 H 755.81 0.555691 1.52597 0
M  V30 7966 H 757.807 -1.36186 3.94029 0
M  V30 7967 H 756.467 -1.64642 2.79862 0
M  V30 7968 H 757.478 1.31755 5.0086 0
M  V30 7969 H 754.155 -1.07238 4.03492 0
M  V30 7970 H 755.545 2.25482 6.32936 0
M  V30 7971 N 758.265 -1.50454 0.469181 0
M  V30 7972 C 759.212 -2.28486 -0.325982 0
M  V30 7973 C 760.182 -1.33455 -0.988893 0
M  V30 7974 O 761.367 -1.6239 -1.0017 0
M  V30 7975 C 758.507 -3.15288 -1.40313 0
M  V30 7976 C 757.62 -4.25348 -0.755183 0
M  V30 7977 C 756.755 -4.9941 -1.81006 0
M  V30 7978 C 755.794 -6.01348 -1.14226 0
M  V30 7979 N 754.931 -6.68695 -2.1399 0
M  V30 7980 H 759.771 -2.95987 0.345753 0
M  V30 7981 H 757.308 -1.45965 0.182355 0
M  V30 7982 H 759.266 -3.63964 -2.03927 0
M  V30 7983 H 757.896 -2.49837 -2.04405 0
M  V30 7984 H 756.948 -3.80399 -0.00651901 0
M  V30 7985 H 758.26 -4.98279 -0.227941 0
M  V30 7986 H 757.414 -5.51794 -2.52206 0
M  V30 7987 H 756.153 -4.26181 -2.3711 0
M  V30 7988 H 755.158 -5.48225 -0.415876 0
M  V30 7989 H 756.383 -6.76548 -0.588135 0
M  V30 7990 H 754.329 -5.98258 -2.69115 0
M  V30 7991 H 754.246 -7.37495 -1.66246 0
M  V30 7992 H 755.514 -7.25697 -2.84576 0
M  V30 7993 N 759.743 -0.201713 -1.56304 0
M  V30 7994 C 760.989 0.435952 -1.98059 0
M  V30 7995 C 761.322 1.60811 -1.08873 0
M  V30 7996 O 760.597 1.9398 -0.142128 0
M  V30 7997 C 760.88 0.889706 -3.48936 0
M  V30 7998 C 760.733 -0.284725 -4.48898 0
M  V30 7999 C 762.052 1.7529 -4.03685 0
M  V30 8000 H 759.171 0.15699 -0.720085 0
M  V30 8001 H 761.813 -0.293965 -1.87712 0
M  V30 8002 H 759.963 1.51166 -3.57884 0
M  V30 8003 H 761.635 -0.922531 -4.51981 0
M  V30 8004 H 759.878 -0.935427 -4.23594 0
M  V30 8005 H 760.549 0.0753865 -5.51949 0
M  V30 8006 H 763.025 1.2283 -3.97558 0
M  V30 8007 H 761.901 2.03933 -5.0961 0
M  V30 8008 H 762.162 2.70939 -3.49348 0
M  V30 8009 N 761.222 1.57436 0.0718424 0
M  V30 8010 C 762.17 2.04725 1.10411 0
M  V30 8011 C 763.164 0.952579 1.4008 0
M  V30 8012 O 764.37 1.13769 1.39487 0
M  V30 8013 H 760.745 0.652749 0.373393 0
M  V30 8014 H 762.716 2.90569 0.679126 0
M  V30 8015 C 761.465 2.5068 2.40946 0
M  V30 8016 H 760.788 3.34505 2.18967 0
M  V30 8017 H 762.228 2.87521 3.11621 0
M  V30 8018 C 760.687 1.38971 3.06902 0
M  V30 8019 O 761.217 0.731786 3.94978 0
M  V30 8020 N 759.423 1.13485 2.67525 0
M  V30 8021 H 758.97 1.67168 1.95991 0
M  V30 8022 H 758.928 0.389467 3.11978 0
M  V30 8023 N 762.7 -0.34323 1.53817 0
M  V30 8024 C 763.647 -1.42153 1.81827 0
M  V30 8025 C 764.617 -1.52251 0.663996 0
M  V30 8026 O 765.802 -1.67784 0.908461 0
M  V30 8027 C 762.942 -2.78799 2.03384 0
M  V30 8028 C 762.055 -2.7749 3.31094 0
M  V30 8029 C 761.19 -4.05856 3.42717 0
M  V30 8030 C 760.229 -3.98776 4.64375 0
M  V30 8031 N 759.366 -5.18833 4.73029 0
M  V30 8032 H 764.206 -1.17567 2.73829 0
M  V30 8033 H 761.743 -0.569506 1.35628 0
M  V30 8034 H 763.701 -3.58211 2.13872 0
M  V30 8035 H 762.331 -3.01736 1.14696 0
M  V30 8036 H 761.383 -1.90182 3.29446 0
M  V30 8037 H 762.695 -2.68137 4.206 0
M  V30 8038 H 761.849 -4.93691 3.52638 0
M  V30 8039 H 760.588 -4.1799 2.51267 0
M  V30 8040 H 759.593 -3.09325 4.5453 0
M  V30 8041 H 760.818 -3.88224 5.57189 0
M  V30 8042 H 758.764 -5.31511 3.84489 0
M  V30 8043 H 758.681 -5.11737 5.56472 0
M  V30 8044 H 759.949 -6.08439 4.87261 0
M  V30 8045 N 764.178 -1.45556 -0.604258 0
M  V30 8046 C 765.455 -1.40221 -1.36373 0
M  V30 8047 C 765.835 -0.0745195 -2.10968 0
M  V30 8048 O 765.183 0.943594 -2.08107 0
M  V30 8049 C 765.393 -2.61807 -2.30777 0
M  V30 8050 C 766.741 -3.07037 -2.93281 0
M  V30 8051 O 767.765 -2.62203 -2.41097 0
M  V30 8052 O 766.624 -3.8485 -3.88011 0
M  V30 8053 H 763.718 -0.556602 -0.611656 0
M  V30 8054 H 766.264 -1.57689 -0.627069 0
M  V30 8055 H 765.036 -3.50017 -1.74939 0
M  V30 8056 H 764.659 -2.46688 -3.11818 0
M  V30 8057 N 765.656 0.84705 -1.32902 0
M  V30 8058 C 766.904 1.5986 -1.2365 0
M  V30 8059 C 767.225 1.93974 0.199789 0
M  V30 8060 O 766.495 1.60273 1.12648 0
M  V30 8061 H 765.075 0.592696 -0.454665 0
M  V30 8062 H 767.737 1.01278 -1.66519 0
M  V30 8063 H 766.833 2.53218 -1.82448 0
M  V30 8064 N 767.134 1.16236 1.06428 0
M  V30 8065 C 768.097 0.870163 2.1204 0
M  V30 8066 C 769.097 -0.134239 1.60239 0
M  V30 8067 O 770.287 0.0964932 1.73933 0
M  V30 8068 C 767.419 0.301033 3.39568 0
M  V30 8069 H 768.612 1.8064 2.39394 0
M  V30 8070 H 766.165 0.971116 1.2247 0
M  V30 8071 H 766.9 -0.642948 3.17863 0
M  V30 8072 H 766.685 1.02475 3.78472 0
M  V30 8073 H 768.175 0.114494 4.17443 0
M  V30 8074 N 768.612 -1.24939 0.960631 0
M  V30 8075 C 769.542 -2.28 0.503815 0
M  V30 8076 C 770.523 -1.63959 -0.452928 0
M  V30 8077 O 771.708 -1.91009 -0.350585 0
M  V30 8078 C 768.838 -3.46643 -0.213535 0
M  V30 8079 C 767.792 -4.22903 0.658535 0
M  V30 8080 C 767.118 -5.34363 -0.189902 0
M  V30 8081 C 768.418 -4.84949 1.93963 0
M  V30 8082 H 770.112 -2.66462 1.36521 0
M  V30 8083 H 767.658 -1.28093 0.657897 0
M  V30 8084 H 769.611 -4.1787 -0.544286 0
M  V30 8085 H 768.335 -3.07187 -1.10923 0
M  V30 8086 H 766.994 -3.53467 0.972455 0
M  V30 8087 H 766.642 -4.91147 -1.08553 0
M  V30 8088 H 766.342 -5.86302 0.390331 0
M  V30 8089 H 767.866 -6.0842 -0.515484 0
M  V30 8090 H 769.28 -5.48288 1.67491 0
M  V30 8091 H 767.677 -5.47091 2.46601 0
M  V30 8092 H 768.747 -4.06799 2.639 0
M  V30 8093 N 770.09 -0.729906 -1.39679 0
M  V30 8094 C 771.315 -0.284345 -2.05442 0
M  V30 8095 C 771.74 1.07056 -1.54663 0
M  V30 8096 O 771.098 1.67732 -0.688157 0
M  V30 8097 C 771.146 -0.290089 -3.59431 0
M  V30 8098 O 770.25 0.723978 -4.05995 0
M  V30 8099 H 769.591 -0.130311 -0.651088 0
M  V30 8100 H 772.121 -0.994403 -1.78809 0
M  V30 8101 H 772.131 -0.132712 -4.07784 0
M  V30 8102 H 770.806 -1.27877 -3.95753 0
M  V30 8103 H 769.383 0.533154 -3.69069 0
M  V30 8104 N 771.568 1.50203 -0.477153 0
M  V30 8105 C 772.498 2.31517 0.303646 0
M  V30 8106 C 773.479 1.38696 0.984753 0
M  V30 8107 O 774.664 1.67615 0.980758 0
M  V30 8108 C 771.794 3.18598 1.38249 0
M  V30 8109 C 770.748 4.2002 0.822645 0
M  V30 8110 C 770.074 4.95878 2.00024 0
M  V30 8111 C 771.374 5.22023 -0.170185 0
M  V30 8112 H 773.068 2.97042 -0.375027 0
M  V30 8113 H 770.614 1.42848 -0.181802 0
M  V30 8114 H 772.567 3.74282 1.93625 0
M  V30 8115 H 771.291 2.5097 2.09002 0
M  V30 8116 H 769.95 3.65445 0.290813 0
M  V30 8117 H 769.598 4.24717 2.69489 0
M  V30 8118 H 769.298 5.64487 1.63183 0
M  V30 8119 H 770.822 5.54399 2.55878 0
M  V30 8120 H 772.236 5.72543 0.294606 0
M  V30 8121 H 770.633 5.98386 -0.453181 0
M  V30 8122 H 771.703 4.72396 -1.09408 0
M  V30 8123 N 773.046 0.209999 1.56195 0
M  V30 8124 C 773.976 -0.699746 2.22769 0
M  V30 8125 C 774.957 -1.20993 1.1956 0
M  V30 8126 O 776.142 -1.25605 1.48112 0
M  V30 8127 C 773.272 -1.91302 2.89863 0
M  V30 8128 C 772.226 -1.53715 3.99444 0
M  V30 8129 C 771.552 -2.82826 4.53777 0
M  V30 8130 C 772.852 -0.735836 5.17091 0
M  V30 8131 H 774.546 -0.144716 2.9905 0
M  V30 8132 H 772.092 -0.0681645 1.43839 0
M  V30 8133 H 774.045 -2.5548 3.35124 0
M  V30 8134 H 772.769 -2.49283 2.11011 0
M  V30 8135 H 771.428 -0.918892 3.54897 0
M  V30 8136 H 771.076 -3.38927 3.71669 0
M  V30 8137 H 770.776 -2.58415 5.27727 0
M  V30 8138 H 772.3 -3.47966 5.01749 0
M  V30 8139 H 773.714 -1.28105 5.58804 0
M  V30 8140 H 772.111 -0.589272 5.972 0
M  V30 8141 H 773.181 0.260004 4.84202 0
M  V30 8142 N 774.524 -1.57472 -0.0634922 0
M  V30 8143 C 775.935 -1.76303 -0.614337 0
M  V30 8144 C 776.286 -0.836578 -1.77471 0
M  V30 8145 O 775.411 -0.0227184 -2.16388 0
M  V30 8146 C 776.006 -3.19709 -1.12122 0
M  V30 8147 C 774.565 -3.39856 -1.61786 0
M  V30 8148 C 773.712 -2.71975 -0.540845 0
M  V30 8149 H 776.663 -1.57864 0.162702 0
M  V30 8150 H 776.684 -3.24326 -1.98979 0
M  V30 8151 H 776.196 -3.87114 -0.276472 0
M  V30 8152 H 774.297 -2.77578 -2.48558 0
M  V30 8153 H 774.41 -4.48338 -1.68908 0
M  V30 8154 H 772.774 -2.34763 -0.987854 0
M  V30 8155 H 773.557 -3.4204 0.293856 0
M  V30 8156 N 776.003 0.335068 -1.53997 0
M  V30 8157 C 776.95 1.41187 -1.82579 0
M  V30 8158 C 777.92 1.51897 -0.672061 0
M  V30 8159 O 779.105 1.673 -0.917346 0
M  V30 8160 C 776.245 2.77717 -2.0486 0
M  V30 8161 C 775.358 2.7573 -3.32561 0
M  V30 8162 C 774.493 4.04032 -3.44864 0
M  V30 8163 C 773.532 3.96308 -4.66483 0
M  V30 8164 N 772.669 5.16317 -4.75774 0
M  V30 8165 H 777.509 1.16113 -2.74448 0
M  V30 8166 H 775.046 0.562305 -1.35928 0
M  V30 8167 H 777.004 3.57071 -2.15768 0
M  V30 8168 H 775.634 3.01124 -1.16294 0
M  V30 8169 H 774.686 1.88432 -3.3045 0
M  V30 8170 H 775.998 2.65902 -4.22016 0
M  V30 8171 H 775.152 4.91814 -3.55251 0
M  V30 8172 H 773.891 4.16652 -2.53481 0
M  V30 8173 H 772.896 3.06911 -4.56164 0
M  V30 8174 H 774.121 3.85263 -5.5924 0
M  V30 8175 H 772.067 5.29464 -3.87303 0
M  V30 8176 H 771.984 5.08779 -5.59178 0
M  V30 8177 H 773.252 6.05846 -4.9048 0
M  V30 8178 N 777.481 1.45874 0.596531 0
M  V30 8179 C 778.413 1.51408 1.7207 0
M  V30 8180 C 779.426 0.403738 1.57714 0
M  V30 8181 O 780.615 0.671384 1.65393 0
M  V30 8182 C 777.715 1.3652 3.10186 0
M  V30 8183 C 776.888 2.61428 3.50677 0
M  V30 8184 C 775.947 2.40937 4.67799 0
M  V30 8185 O 774.973 3.14602 4.74357 0
M  V30 8186 N 776.175 1.4621 5.61785 0
M  V30 8187 H 778.94 2.48333 1.67782 0
M  V30 8188 H 776.501 1.41755 0.782129 0
M  V30 8189 H 778.493 1.20606 3.86311 0
M  V30 8190 H 777.063 0.478302 3.08919 0
M  V30 8191 H 776.283 2.92381 2.644 0
M  V30 8192 H 777.571 3.44432 3.74491 0
M  V30 8193 H 776.969 0.854382 5.59211 0
M  V30 8194 H 775.526 1.36264 6.37397 0
M  V30 8195 N 778.959 -0.83999 1.33349 0
M  V30 8196 C 780.375 -1.13049 1.12659 0
M  V30 8197 C 780.575 -2.01328 -0.0832613 0
M  V30 8198 O 779.631 -2.40669 -0.763856 0
M  V30 8199 C 780.944 -1.79366 2.41347 0
M  V30 8200 C 782.492 -1.91937 2.47243 0
M  V30 8201 C 782.967 -2.6167 3.75889 0
M  V30 8202 N 784.458 -2.69184 3.76954 0
M  V30 8203 C 785.193 -3.23827 4.73206 0
M  V30 8204 N 784.689 -3.79166 5.79832 0
M  V30 8205 N 786.482 -3.22068 4.60683 0
M  V30 8206 H 778.633 -0.252432 2.10895 0
M  V30 8207 H 780.896 -0.174501 0.931801 0
M  V30 8208 H 780.602 -1.2196 3.29877 0
M  V30 8209 H 780.476 -2.79396 2.53412 0
M  V30 8210 H 782.863 -2.48498 1.59163 0
M  V30 8211 H 782.944 -0.908604 2.39119 0
M  V30 8212 H 782.588 -2.05769 4.64351 0
M  V30 8213 H 782.518 -3.63217 3.81289 0
M  V30 8214 H 785.009 -2.2994 2.99893 0
M  V30 8215 H 785.322 -4.19061 6.49313 0
M  V30 8216 H 783.667 -3.77457 5.83568 0
M  V30 8217 H 786.858 -2.78092 3.7654 0
M  V30 8218 H 787.031 -3.64351 5.35866 0
M  V30 8219 N 780.437 -1.16799 -1.0581 0
M  V30 8220 C 781.347 -0.893492 -2.16919 0
M  V30 8221 C 782.363 0.136061 -1.73467 0
M  V30 8222 O 783.539 -0.0417348 -2.01357 0
M  V30 8223 C 780.604 -0.403763 -3.44341 0
M  V30 8224 C 779.665 -1.49914 -4.02274 0
M  V30 8225 C 778.898 -1.03269 -5.23614 0
M  V30 8226 O 779.121 0.115647 -5.70283 0
M  V30 8227 O 778.055 -1.8231 -5.73626 0
M  V30 8228 H 781.881 -1.82274 -2.42919 0
M  V30 8229 H 779.466 -0.948361 -1.1544 0
M  V30 8230 H 781.348 -0.137874 -4.21174 0
M  V30 8231 H 780.023 0.497413 -3.19855 0
M  V30 8232 H 778.93 -1.81883 -3.26909 0
M  V30 8233 H 780.263 -2.3758 -4.31064 0
M  V30 8234 N 781.915 1.24427 -0.967243 0
M  V30 8235 C 782.863 2.27403 -0.488927 0
M  V30 8236 C 783.857 1.63388 0.447302 0
M  V30 8237 O 785.063 1.77085 0.322643 0
M  V30 8238 H 781.438 0.738921 -0.139643 0
M  V30 8239 H 783.409 2.65122 -1.36942 0
M  V30 8240 C 782.158 3.4709 0.205787 0
M  V30 8241 H 781.481 3.96591 -0.50551 0
M  V30 8242 H 782.921 4.2099 0.504296 0
M  V30 8243 C 781.38 3.04923 1.43261 0
M  V30 8244 O 781.91 3.12043 2.52967 0
M  V30 8245 N 780.116 2.59976 1.29849 0
M  V30 8246 H 779.663 2.54382 0.405876 0
M  V30 8247 H 779.621 2.32128 2.12047 0
M  V30 8248 N 783.393 0.737304 1.3929 0
M  V30 8249 C 784.618 0.295237 2.05288 0
M  V30 8250 C 785.043 -1.06235 1.55228 0
M  V30 8251 O 784.401 -1.67365 0.697043 0
M  V30 8252 C 784.449 0.309146 3.59272 0
M  V30 8253 O 783.553 -0.702437 4.06374 0
M  V30 8254 H 782.894 0.133762 0.650387 0
M  V30 8255 H 785.424 1.00387 1.78279 0
M  V30 8256 H 785.434 0.154336 4.07708 0
M  V30 8257 H 784.109 1.29974 3.95069 0
M  V30 8258 H 782.686 -0.513574 3.69346 0
M  V30 8259 N 784.871 -1.49948 0.485112 0
M  V30 8260 C 786.119 -2.01996 -0.0648775 0
M  V30 8261 C 786.44 -1.36819 -1.38945 0
M  V30 8262 O 785.71 -0.518163 -1.88923 0
M  V30 8263 H 784.29 -0.746513 -0.0269662 0
M  V30 8264 H 786.952 -1.84136 0.638733 0
M  V30 8265 H 786.048 -3.11418 -0.20617 0
M  V30 8266 N 786.349 -0.21828 -1.56081 0
M  V30 8267 C 787.296 0.693189 -2.20144 0
M  V30 8268 C 788.266 1.19274 -1.15598 0
M  V30 8269 O 789.451 1.25243 -1.4394 0
M  V30 8270 C 786.591 1.89715 -2.88275 0
M  V30 8271 C 785.704 1.4368 -4.07407 0
M  V30 8272 C 784.839 2.59807 -4.63329 0
M  V30 8273 C 783.878 2.10492 -5.74769 0
M  V30 8274 N 783.015 3.1988 -6.24997 0
M  V30 8275 H 787.855 0.14016 -2.9767 0
M  V30 8276 H 785.392 0.0574292 -1.46988 0
M  V30 8277 H 787.35 2.60398 -3.25958 0
M  V30 8278 H 785.98 2.42311 -2.13273 0
M  V30 8279 H 785.032 0.625007 -3.7523 0
M  V30 8280 H 786.344 1.03517 -4.8794 0
M  V30 8281 H 785.498 3.38577 -5.03438 0
M  V30 8282 H 784.237 3.03256 -3.81951 0
M  V30 8283 H 783.242 1.30182 -5.34165 0
M  V30 8284 H 784.467 1.68045 -6.5798 0
M  V30 8285 H 782.413 3.62817 -5.46534 0
M  V30 8286 H 782.33 2.83958 -7.00645 0
M  V30 8287 H 783.598 3.98796 -6.69763 0
M  V30 8288 N 787.827 1.57504 0.0551401 0
M  V30 8289 C 789.238 1.76626 0.604979 0
M  V30 8290 C 789.589 0.845978 1.77024 0
M  V30 8291 O 788.714 0.0341936 2.16373 0
M  V30 8292 C 789.309 3.203 1.10425 0
M  V30 8293 C 787.868 3.4071 1.59981 0
M  V30 8294 C 787.015 2.72258 0.526414 0
M  V30 8295 H 789.966 1.57775 -0.171072 0
M  V30 8296 H 789.987 3.25377 1.97256 0
M  V30 8297 H 789.499 3.87255 0.255939 0
M  V30 8298 H 787.6 2.78892 2.47083 0
M  V30 8299 H 787.713 4.49227 1.66528 0
M  V30 8300 H 786.077 2.35283 0.97539 0
M  V30 8301 H 786.86 3.41879 -0.311991 0
M  V30 8302 N 789.305 -0.326896 1.54172 0
M  V30 8303 C 790.252 -1.40216 1.83325 0
M  V30 8304 C 791.222 -1.51538 0.680107 0
M  V30 8305 O 792.407 -1.66811 0.926206 0
M  V30 8306 C 789.547 -2.76626 2.0633 0
M  V30 8307 C 788.66 -2.73963 3.34019 0
M  V30 8308 C 787.795 -4.02198 3.47002 0
M  V30 8309 C 786.834 -3.93828 4.68578 0
M  V30 8310 N 785.971 -5.13787 4.78506 0
M  V30 8311 H 790.811 -1.14656 2.7506 0
M  V30 8312 H 788.348 -0.555089 1.36225 0
M  V30 8313 H 790.306 -3.55922 2.17659 0
M  V30 8314 H 788.936 -3.00503 1.1789 0
M  V30 8315 H 787.988 -1.86677 3.31445 0
M  V30 8316 H 789.3 -2.6366 4.2342 0
M  V30 8317 H 788.454 -4.89923 3.57855 0
M  V30 8318 H 787.193 -4.15302 2.55687 0
M  V30 8319 H 786.198 -3.04487 4.57786 0
M  V30 8320 H 787.423 -3.82292 5.61275 0
M  V30 8321 H 785.369 -5.27403 3.90105 0
M  V30 8322 H 785.286 -5.05807 5.61868 0
M  V30 8323 H 786.554 -6.03236 4.93686 0
M  V30 8324 N 790.784 -1.46188 -0.588786 0
M  V30 8325 C 791.731 -1.56292 -1.69828 0
M  V30 8326 C 792.701 -0.407581 -1.61022 0
M  V30 8327 O 793.886 -0.623532 -1.80324 0
M  V30 8328 C 791.026 -1.55341 -3.08161 0
M  V30 8329 C 790.139 -2.81564 -3.27636 0
M  V30 8330 C 789.274 -2.72158 -4.56183 0
M  V30 8331 C 788.313 -3.93348 -4.68981 0
M  V30 8332 N 787.45 -3.82365 -5.88848 0
M  V30 8333 H 792.29 -2.51066 -1.6053 0
M  V30 8334 H 789.827 -1.24562 -0.782474 0
M  V30 8335 H 791.785 -1.52776 -3.88221 0
M  V30 8336 H 790.415 -0.641034 -3.16371 0
M  V30 8337 H 789.467 -2.94136 -2.41223 0
M  V30 8338 H 790.779 -3.714 -3.32962 0
M  V30 8339 H 789.933 -2.67665 -5.44464 0
M  V30 8340 H 788.672 -1.79953 -4.53286 0
M  V30 8341 H 787.677 -3.98181 -3.7912 0
M  V30 8342 H 788.902 -4.86643 -4.73662 0
M  V30 8343 H 786.848 -2.92942 -5.86959 0
M  V30 8344 H 786.765 -4.65851 -5.95415 0
M  V30 8345 H 788.033 -3.81836 -6.79575 0
M  V30 8346 N 792.262 0.832906 -1.33792 0
M  V30 8347 C 793.673 1.40489 -1.22963 0
M  V30 8348 C 794.024 1.95633 0.149026 0
M  V30 8349 O 793.149 1.8928 1.04891 0
M  V30 8350 C 793.744 2.55387 -2.22627 0
M  V30 8351 C 792.303 3.08522 -2.15618 0
M  V30 8352 C 791.45 1.81347 -2.09782 0
M  V30 8353 H 794.401 0.638156 -1.45304 0
M  V30 8354 H 794.422 3.33193 -1.83746 0
M  V30 8355 H 793.934 2.15222 -3.22957 0
M  V30 8356 H 792.035 3.53217 -1.18611 0
M  V30 8357 H 792.148 3.6829 -3.0643 0
M  V30 8358 H 790.512 2.01839 -1.55349 0
M  V30 8359 H 791.295 1.43369 -3.1193 0
M  V30 8360 N 793.74 1.17359 1.05189 0
M  V30 8361 C 794.988 0.960087 1.77839 0
M  V30 8362 C 795.309 -0.512554 1.88143 0
M  V30 8363 O 794.579 -1.3721 1.39822 0
M  V30 8364 H 793.159 0.352234 0.658741 0
M  V30 8365 H 795.821 1.47834 1.27008 0
M  V30 8366 H 794.917 1.38843 2.79516 0
M  V30 8367 N 795.218 -1.23913 0.973828 0
M  V30 8368 C 796.446 -1.96195 0.656891 0
M  V30 8369 C 796.861 -1.72166 -0.774876 0
M  V30 8370 O 796.218 -1.0091 -1.52064 0
M  V30 8371 C 796.269 -3.49342 0.929638 0
M  V30 8372 O 795.99 -3.72553 2.30512 0
M  V30 8373 C 797.491 -4.38833 0.627739 0
M  V30 8374 H 794.711 -0.624841 0.244572 0
M  V30 8375 H 797.255 -1.57579 1.30343 0
M  V30 8376 H 795.41 -3.85999 0.329216 0
M  V30 8377 H 795.824 -4.66893 2.3898 0
M  V30 8378 H 797.298 -5.45117 0.868991 0
M  V30 8379 H 797.775 -4.37009 -0.438104 0
M  V30 8380 H 798.381 -4.07773 1.20834 0
M  V30 8381 N 796.696 -0.74468 -1.38897 0
M  V30 8382 C 798.107 -0.36568 -1.83084 0
M  V30 8383 C 798.458 1.10436 -1.62168 0
M  V30 8384 O 797.583 1.85281 -1.11804 0
M  V30 8385 C 798.178 -0.656946 -3.3237 0
M  V30 8386 C 796.737 -0.331329 -3.74939 0
M  V30 8387 C 795.884 -0.914661 -2.61781 0
M  V30 8388 H 798.835 -0.941551 -1.27752 0
M  V30 8389 H 798.856 0.0679546 -3.80439 0
M  V30 8390 H 798.368 -1.72693 -3.47561 0
M  V30 8391 H 796.469 0.732426 -3.6533 0
M  V30 8392 H 796.582 -0.820655 -4.72019 0
M  V30 8393 H 794.946 -0.34063 -2.52412 0
M  V30 8394 H 795.729 -1.98949 -2.79775 0
M  V30 8395 N 798.174 1.49689 -0.493057 0
M  V30 8396 C 799.084 2.32746 0.294358 0
M  V30 8397 C 800.1 1.44117 0.975003 0
M  V30 8398 O 801.276 1.77149 0.958138 0
M  V30 8399 C 798.341 3.19358 1.34949 0
M  V30 8400 C 797.402 4.2383 0.683122 0
M  V30 8401 C 796.635 5.06303 1.68798 0
M  V30 8402 O 796.858 4.90172 2.91698 0
M  V30 8403 O 795.792 5.88826 1.24768 0
M  V30 8404 H 799.618 3.01247 -0.385254 0
M  V30 8405 H 797.203 1.47216 -0.254519 0
M  V30 8406 H 799.085 3.73037 1.96014 0
M  V30 8407 H 797.76 2.53561 2.01217 0
M  V30 8408 H 796.667 3.74086 0.0329351 0
M  V30 8409 H 798 4.9216 0.0630192 0
M  V30 8410 N 799.652 0.226554 1.55963 0
M  V30 8411 C 800.6 -0.697922 2.21882 0
M  V30 8412 C 801.594 -1.19586 1.19981 0
M  V30 8413 O 802.8 -1.15511 1.38048 0
M  V30 8414 H 799.175 -0.243501 0.711485 0
M  V30 8415 H 801.146 -0.118576 2.98164 0
M  V30 8416 C 799.895 -1.89309 2.91646 0
M  V30 8417 H 799.218 -1.51906 3.69817 0
M  V30 8418 H 800.658 -2.51762 3.41162 0
M  V30 8419 C 799.117 -2.75162 1.94391 0
M  V30 8420 O 799.647 -3.74071 1.46402 0
M  V30 8421 N 797.853 -2.41302 1.61932 0
M  V30 8422 H 797.4 -1.60923 2.01151 0
M  V30 8423 H 797.358 -2.99023 0.971219 0
M  V30 8424 N 801.13 -1.57531 -0.0467866 0
M  V30 8425 C 802.078 -2.06455 -1.0714 0
M  V30 8426 C 803.072 -0.974744 -1.38546 0
M  V30 8427 O 804.278 -1.15974 -1.37659 0
M  V30 8428 H 800.653 -0.658607 -0.362962 0
M  V30 8429 H 802.624 -2.91613 -0.632813 0
M  V30 8430 C 801.373 -2.54481 -2.36927 0
M  V30 8431 H 800.696 -3.37946 -2.13617 0
M  V30 8432 H 802.136 -2.92442 -3.07007 0
M  V30 8433 C 800.595 -1.43836 -3.04652 0
M  V30 8434 O 801.125 -0.794531 -3.93764 0
M  V30 8435 N 799.331 -1.17727 -2.65686 0
M  V30 8436 H 798.878 -1.70265 -1.93307 0
M  V30 8437 H 798.836 -0.439051 -3.11319 0
M  V30 8438 N 802.608 0.318715 -1.54344 0
M  V30 8439 C 803.555 1.39242 -1.84066 0
M  V30 8440 C 804.525 1.51175 -0.688134 0
M  V30 8441 O 805.71 1.66318 -0.935039 0
M  V30 8442 C 802.85 2.75528 -2.07794 0
M  V30 8443 C 801.963 2.72187 -3.35467 0
M  V30 8444 C 801.098 4.00352 -3.4913 0
M  V30 8445 C 800.137 3.91338 -4.7066 0
M  V30 8446 N 799.274 5.11242 -4.81224 0
M  V30 8447 H 804.114 1.13196 -2.75664 0
M  V30 8448 H 801.651 0.547857 -1.36517 0
M  V30 8449 H 803.609 3.54763 -2.19543 0
M  V30 8450 H 802.239 2.99873 -1.19482 0
M  V30 8451 H 801.291 1.84917 -3.3243 0
M  V30 8452 H 802.603 2.61411 -4.24812 0
M  V30 8453 H 801.757 4.88019 -3.60448 0
M  V30 8454 H 800.496 4.1394 -2.57886 0
M  V30 8455 H 799.501 3.02055 -4.59394 0
M  V30 8456 H 800.726 3.7931 -5.63294 0
M  V30 8457 H 798.672 5.25327 -3.92897 0
M  V30 8458 H 798.589 5.0282 -5.64543 0
M  V30 8459 H 799.857 6.0061 -4.96879 0
M  V30 8460 N 804.086 1.46499 0.581025 0
M  V30 8461 C 804.996 1.59778 1.71779 0
M  V30 8462 C 806.012 0.481223 1.67213 0
M  V30 8463 O 807.188 0.74557 1.87091 0
M  V30 8464 C 804.253 1.58626 3.08283 0
M  V30 8465 C 803.314 2.81527 3.241 0
M  V30 8466 C 802.547 2.80421 4.54092 0
M  V30 8467 O 802.77 1.89262 5.38085 0
M  V30 8468 O 801.704 3.71984 4.73193 0
M  V30 8469 H 805.53 2.55918 1.63523 0
M  V30 8470 H 803.115 1.29311 0.748267 0
M  V30 8471 H 804.997 1.60686 3.89561 0
M  V30 8472 H 803.672 0.656467 3.16973 0
M  V30 8473 H 802.579 2.85021 2.42309 0
M  V30 8474 H 803.912 3.73721 3.20302 0
M  V30 8475 N 805.565 -0.825799 1.34232 0
M  V30 8476 C 806.795 -1.61129 1.29309 0
M  V30 8477 C 807.203 -1.88714 -0.135589 0
M  V30 8478 O 806.546 -1.47703 -1.09222 0
M  V30 8479 C 806.608 -2.97866 2.01287 0
M  V30 8480 C 806.272 -2.9319 3.50555 0
M  V30 8481 C 807.269 -2.67978 4.45515 0
M  V30 8482 C 804.954 -3.12913 3.92926 0
M  V30 8483 C 806.948 -2.62536 5.80822 0
M  V30 8484 C 804.635 -3.07096 5.28333 0
M  V30 8485 C 805.633 -2.8194 6.22092 0
M  V30 8486 O 805.321 -2.7605 7.55018 0
M  V30 8487 H 805.053 -0.507652 0.446391 0
M  V30 8488 H 807.607 -1.03575 1.77374 0
M  V30 8489 H 805.837 -3.57327 1.47832 0
M  V30 8490 H 807.526 -3.58848 1.89691 0
M  V30 8491 H 808.292 -2.52478 4.14101 0
M  V30 8492 H 804.171 -3.3151 3.20347 0
M  V30 8493 H 807.715 -2.42821 6.53975 0
M  V30 8494 H 803.612 -3.22148 5.59367 0
M  V30 8495 H 804.38 -2.91798 7.6472 0
M  V30 8496 N 807.043 -1.17915 -1.04565 0
M  V30 8497 C 808.006 -0.903787 -2.10628 0
M  V30 8498 C 809.006 0.10873 -1.60432 0
M  V30 8499 O 810.196 -0.124152 -1.73757 0
M  V30 8500 C 807.328 -0.355017 -3.39046 0
M  V30 8501 H 808.521 -1.84425 -2.3649 0
M  V30 8502 H 806.074 -0.990477 -1.2091 0
M  V30 8503 H 806.809 0.592297 -3.18845 0
M  V30 8504 H 806.594 -1.08484 -3.76794 0
M  V30 8505 H 808.084 -0.180891 -4.17208 0
M  V30 8506 N 808.521 1.23394 -0.980386 0
M  V30 8507 C 809.468 2.24859 -0.520298 0
M  V30 8508 C 810.438 1.60144 0.440821 0
M  V30 8509 O 811.623 1.87593 0.348369 0
M  V30 8510 C 808.763 3.44675 0.171145 0
M  V30 8511 C 807.876 4.23947 -0.830233 0
M  V30 8512 C 807.011 5.31079 -0.113597 0
M  V30 8513 C 806.05 6.02058 -1.10419 0
M  V30 8514 N 805.187 7.00862 -0.416709 0
M  V30 8515 H 810.027 2.63579 -1.39032 0
M  V30 8516 H 807.564 1.29556 -0.696682 0
M  V30 8517 H 809.522 4.13024 0.588838 0
M  V30 8518 H 808.152 3.06755 1.00504 0
M  V30 8519 H 807.204 3.55016 -1.36631 0
M  V30 8520 H 808.516 4.72945 -1.58508 0
M  V30 8521 H 807.67 6.05622 0.36146 0
M  V30 8522 H 806.409 4.83022 0.673854 0
M  V30 8523 H 805.414 5.26307 -1.59 0
M  V30 8524 H 806.639 6.52203 -1.8923 0
M  V30 8525 H 804.585 6.55057 0.351535 0
M  V30 8526 H 804.502 7.47804 -1.11021 0
M  V30 8527 H 805.77 7.79492 0.0359606 0
M  V30 8528 N 809.999 0.752036 1.385 0
M  V30 8529 C 811.245 0.307958 2.00448 0
M  V30 8530 C 811.578 -1.10702 1.59558 0
M  V30 8531 O 810.853 -1.75788 0.832391 0
M  V30 8532 C 811.136 0.429092 3.57534 0
M  V30 8533 C 810.989 1.88507 4.08393 0
M  V30 8534 C 812.308 -0.178442 4.39738 0
M  V30 8535 H 809.427 0.113373 0.728228 0
M  V30 8536 H 812.069 0.951389 1.64465 0
M  V30 8537 H 810.219 -0.118695 3.88319 0
M  V30 8538 H 811.891 2.49104 3.88259 0
M  V30 8539 H 810.134 2.40066 3.61318 0
M  V30 8540 H 810.805 1.92099 5.17496 0
M  V30 8541 H 813.281 0.28872 4.15097 0
M  V30 8542 H 812.157 -0.0634349 5.48863 0
M  V30 8543 H 812.418 -1.26655 4.23569 0
M  V30 8544 N 811.477 -1.49425 0.500989 0
M  V30 8545 C 812.702 -2.07356 -0.0425154 0
M  V30 8546 C 813.127 -1.35887 -1.30063 0
M  V30 8547 O 812.485 -0.41561 -1.76472 0
M  V30 8548 C 812.533 -3.59518 -0.279188 0
M  V30 8549 O 811.637 -3.89542 -1.3539 0
M  V30 8550 H 810.978 -0.663482 0.0262207 0
M  V30 8551 H 813.508 -1.92231 0.700607 0
M  V30 8552 H 813.518 -4.04791 -0.5107 0
M  V30 8553 H 812.193 -4.10946 0.640009 0
M  V30 8554 H 810.77 -3.56079 -1.10734 0
M  V30 8555 N 812.955 -0.234822 -1.55841 0
M  V30 8556 C 814.203 0.392483 -1.98252 0
M  V30 8557 C 814.524 1.59344 -1.12404 0
M  V30 8558 O 813.794 1.94834 -0.204055 0
M  V30 8559 H 812.374 0.147999 -0.732192 0
M  V30 8560 H 815.036 -0.330804 -1.92072 0
M  V30 8561 H 814.132 0.709829 -3.03921 0
M  V30 8562 N 814.433 1.57553 0.0384317 0
M  V30 8563 C 815.679 1.89121 0.732199 0
M  V30 8564 C 816.012 0.831404 1.75503 0
M  V30 8565 O 815.287 -0.154642 1.93884 0
M  V30 8566 C 815.57 3.31338 1.41021 0
M  V30 8567 C 815.423 4.48004 0.401532 0
M  V30 8568 C 816.742 3.72318 2.34665 0
M  V30 8569 H 813.861 0.687819 0.264715 0
M  V30 8570 H 816.503 1.89999 -0.00496279 0
M  V30 8571 H 814.653 3.3072 2.03854 0
M  V30 8572 H 816.325 4.60755 -0.224159 0
M  V30 8573 H 814.568 4.32895 -0.280092 0
M  V30 8574 H 815.239 5.44377 0.91423 0
M  V30 8575 H 817.715 3.74243 1.81883 0
M  V30 8576 H 816.591 4.72652 2.7909 0
M  V30 8577 H 816.852 3.04062 3.20934 0
M  V30 8578 N 815.911 -0.310526 1.54511 0
M  V30 8579 C 816.844 -1.40693 1.79668 0
M  V30 8580 C 817.822 -1.49159 0.64734 0
M  V30 8581 O 819.006 -1.66367 0.886239 0
M  V30 8582 C 816.133 -2.78685 1.92491 0
M  V30 8583 C 815.179 -2.87688 3.14861 0
M  V30 8584 S 816.012 -2.50759 4.7316 0
M  V30 8585 C 817.168 -3.90797 4.88906 0
M  V30 8586 H 817.401 -1.19142 2.72383 0
M  V30 8587 H 814.934 -0.508103 1.458 0
M  V30 8588 H 816.892 -3.58168 2.00563 0
M  V30 8589 H 815.553 -2.9751 1.00731 0
M  V30 8590 H 814.746 -3.8888 3.20607 0
M  V30 8591 H 814.348 -2.16189 3.05186 0
M  V30 8592 H 816.64 -4.85693 4.72344 0
M  V30 8593 H 817.583 -3.90027 5.91003 0
M  V30 8594 H 817.991 -3.80357 4.1712 0
M  V30 8595 N 817.389 -1.46805 -0.573248 0
M  V30 8596 C 818.666 -1.43082 -1.33368 0
M  V30 8597 C 819.046 -0.119252 -2.10763 0
M  V30 8598 O 818.394 0.899239 -2.10062 0
M  V30 8599 C 818.604 -2.66643 -2.25172 0
M  V30 8600 C 819.952 -3.13188 -2.86702 0
M  V30 8601 O 820.976 -2.67258 -2.35482 0
M  V30 8602 O 819.835 -3.92994 -3.79761 0
M  V30 8603 H 816.929 -0.569451 -0.599712 0
M  V30 8604 H 819.475 -1.58984 -0.59348 0
M  V30 8605 H 818.247 -3.53649 -1.67475 0
M  V30 8606 H 817.87 -2.53247 -3.06516 0
M  V30 8607 N 818.867 0.818669 -1.34668 0
M  V30 8608 C 819.815 1.95123 -1.26609 0
M  V30 8609 C 820.809 1.68611 -0.163348 0
M  V30 8610 O 822.015 1.76975 -0.328586 0
M  V30 8611 H 818.39 0.640871 -0.393431 0
M  V30 8612 H 820.361 1.99043 -2.22316 0
M  V30 8613 C 819.11 3.31697 -1.04272 0
M  V30 8614 H 818.433 3.52648 -1.8836 0
M  V30 8615 H 819.873 4.11382 -1.0267 0
M  V30 8616 C 818.332 3.35942 0.253858 0
M  V30 8617 O 818.862 3.81632 1.25378 0
M  V30 8618 N 817.068 2.89165 0.288447 0
M  V30 8619 H 816.615 2.52176 -0.525845 0
M  V30 8620 H 816.573 2.92387 1.15572 0
M  V30 8621 N 820.346 1.18468 1.03938 0
M  V30 8622 C 821.294 0.909286 2.14091 0
M  V30 8623 C 822.288 -0.130928 1.68893 0
M  V30 8624 O 823.494 0.0173403 1.79992 0
M  V30 8625 H 819.869 0.27658 0.699291 0
M  V30 8626 H 821.84 1.84514 2.34515 0
M  V30 8627 C 820.589 0.452922 3.44737 0
M  V30 8628 H 819.912 1.24485 3.79926 0
M  V30 8629 H 821.352 0.299238 4.22943 0
M  V30 8630 C 819.811 -0.831435 3.26479 0
M  V30 8631 O 820.341 -1.89535 3.54174 0
M  V30 8632 N 818.547 -0.784545 2.79809 0
M  V30 8633 H 818.094 0.0814746 2.57471 0
M  V30 8634 H 818.052 -1.64431 2.67973 0
M  V30 8635 N 821.824 -1.22873 0.986916 0
M  V30 8636 C 823.073 -1.90772 0.654911 0
M  V30 8637 C 823.386 -1.77768 -0.81595 0
M  V30 8638 O 824.592 -2.40529 -1.25929 0
M  V30 8639 C 823.048 -3.42003 1.12081 0
M  V30 8640 C 822.656 -3.63655 2.61647 0
M  V30 8641 C 824.4 -4.15638 0.862854 0
M  V30 8642 C 822.307 -5.08555 3.01871 0
M  V30 8643 H 821.237 -0.714362 0.241252 0
M  V30 8644 H 823.888 -1.39196 1.19568 0
M  V30 8645 H 822.27 -3.92725 0.508207 0
M  V30 8646 H 823.444 -3.2345 3.28202 0
M  V30 8647 H 821.759 -3.03341 2.8526 0
M  V30 8648 H 824.356 -5.22425 1.13915 0
M  V30 8649 H 824.699 -4.15814 -0.201036 0
M  V30 8650 H 825.232 -3.70924 1.43736 0
M  V30 8651 H 821.971 -5.13514 4.07411 0
M  V30 8652 H 821.491 -5.49684 2.40015 0
M  V30 8653 H 823.17 -5.76936 2.92839 0
M  V30 8654 N 823.302 -0.75937 -1.38099 0
M  V30 8655 C 824.232 -0.151077 -2.33011 0
M  V30 8656 C 825.213 0.697099 -1.5516 0
M  V30 8657 O 826.398 0.637101 -1.83452 0
M  V30 8658 C 823.528 0.738423 -3.39359 0
M  V30 8659 C 822.482 -0.0074741 -4.27999 0
M  V30 8660 C 821.808 1.00066 -5.25253 0
M  V30 8661 C 823.108 -1.17926 -5.08813 0
M  V30 8662 H 824.802 -0.943933 -2.84131 0
M  V30 8663 H 822.348 -0.455362 -1.36611 0
M  V30 8664 H 824.301 1.17369 -4.04725 0
M  V30 8665 H 823.025 1.56366 -2.86735 0
M  V30 8666 H 821.684 -0.423379 -3.64147 0
M  V30 8667 H 821.332 1.82012 -4.68914 0
M  V30 8668 H 821.032 0.506199 -5.85416 0
M  V30 8669 H 822.556 1.43512 -5.93495 0
M  V30 8670 H 823.97 -0.821262 -5.67387 0
M  V30 8671 H 822.367 -1.60497 -5.78239 0
M  V30 8672 H 823.437 -1.98938 -4.42212 0
M  V30 8673 N 824.78 1.49157 -0.508906 0
M  V30 8674 C 826.026 2.02773 0.0328469 0
M  V30 8675 C 826.359 1.38714 1.35912 0
M  V30 8676 O 825.634 0.525536 1.87266 0
M  V30 8677 C 825.917 3.59664 0.177088 0
M  V30 8678 C 825.77 4.34239 -1.17287 0
M  V30 8679 C 827.089 4.30505 0.913977 0
M  V30 8680 H 824.208 0.736926 0.0104631 0
M  V30 8681 H 826.85 1.781 -0.661851 0
M  V30 8682 H 825 3.80818 0.768774 0
M  V30 8683 H 826.672 4.24561 -1.80404 0
M  V30 8684 H 824.915 3.96486 -1.76016 0
M  V30 8685 H 825.586 5.42397 -1.02516 0
M  V30 8686 H 828.062 4.14054 0.412084 0
M  V30 8687 H 826.938 5.40012 0.983759 0
M  V30 8688 H 827.199 3.96302 1.95951 0
M  V30 8689 N 826.258 0.243083 1.55714 0
M  V30 8690 C 827.188 -0.652336 2.24203 0
M  V30 8691 C 828.169 -1.1843 1.221 0
M  V30 8692 O 829.354 -1.22435 1.50743 0
M  V30 8693 C 826.484 -1.85111 2.93856 0
M  V30 8694 C 825.438 -1.45208 4.02615 0
M  V30 8695 C 824.764 -2.73137 4.59674 0
M  V30 8696 C 826.064 -0.625988 5.18535 0
M  V30 8697 H 827.758 -0.0812504 2.9929 0
M  V30 8698 H 825.304 -0.0376388 1.43951 0
M  V30 8699 H 827.257 -2.48314 3.40468 0
M  V30 8700 H 825.981 -2.44751 2.16251 0
M  V30 8701 H 824.64 -0.843406 3.56766 0
M  V30 8702 H 824.288 -3.30967 3.78774 0
M  V30 8703 H 823.988 -2.47163 5.33089 0
M  V30 8704 H 825.512 -3.37245 5.09017 0
M  V30 8705 H 826.926 -1.16223 5.61396 0
M  V30 8706 H 825.323 -0.462465 5.98315 0
M  V30 8707 H 826.393 0.362652 4.83542 0
M  V30 8708 N 827.736 -1.57571 -0.0300757 0
M  V30 8709 C 828.982 -1.89506 -0.722159 0
M  V30 8710 C 829.315 -0.840699 -1.7506 0
M  V30 8711 O 828.59 0.144358 -1.93964 0
M  V30 8712 C 828.873 -3.32081 -1.39262 0
M  V30 8713 C 828.726 -4.48211 -0.377768 0
M  V30 8714 C 830.045 -3.73557 -2.32687 0
M  V30 8715 H 827.164 -0.689213 -0.261064 0
M  V30 8716 H 829.806 -1.89994 0.0150388 0
M  V30 8717 H 827.956 -3.31796 -2.02098 0
M  V30 8718 H 829.628 -4.6063 0.248591 0
M  V30 8719 H 827.871 -4.3274 0.303045 0
M  V30 8720 H 828.542 -5.44854 -0.885347 0
M  V30 8721 H 831.018 -3.75202 -1.79896 0
M  V30 8722 H 829.894 -4.74125 -2.7658 0
M  V30 8723 H 830.155 -3.05759 -3.19317 0
M  V30 8724 N 829.214 0.302327 -1.54673 0
M  V30 8725 C 830.625 0.875409 -1.64904 0
M  V30 8726 C 830.976 1.88132 -0.55684 0
M  V30 8727 O 830.101 2.14215 0.306754 0
M  V30 8728 C 830.696 1.59457 -2.9893 0
M  V30 8729 C 829.255 2.11607 -3.11287 0
M  V30 8730 C 828.402 0.948324 -2.6058 0
M  V30 8731 H 831.353 0.079362 -1.58501 0
M  V30 8732 H 831.374 2.46005 -2.90279 0
M  V30 8733 H 830.886 0.8622 -3.78402 0
M  V30 8734 H 828.987 2.87895 -2.36532 0
M  V30 8735 H 829.1 2.35151 -4.17422 0
M  V30 8736 H 827.464 1.33352 -2.17001 0
M  V30 8737 H 828.247 0.229936 -3.42529 0
M  V30 8738 N 830.692 1.47107 0.565454 0
M  V30 8739 C 831.969 1.43787 1.32607 0
M  V30 8740 C 832.349 0.130428 2.10697 0
M  V30 8741 O 831.697 -0.888086 2.10536 0
M  V30 8742 C 831.907 2.67833 2.23755 0
M  V30 8743 C 833.255 3.14704 2.85037 0
M  V30 8744 O 834.279 2.68503 2.34061 0
M  V30 8745 O 833.138 3.95002 3.77671 0
M  V30 8746 H 830.232 0.572623 0.596684 0
M  V30 8747 H 832.778 1.59296 0.58504 0
M  V30 8748 H 831.55 3.54532 1.65597 0
M  V30 8749 H 831.173 2.54869 3.05168 0
M  V30 8750 N 832.17 -0.811516 1.35101 0
M  V30 8751 C 833.581 -1.38515 1.25182 0
M  V30 8752 C 833.932 -1.95846 -0.117883 0
M  V30 8753 O 833.057 -1.90925 -1.01866 0
M  V30 8754 C 833.652 -2.51813 2.26662 0
M  V30 8755 C 832.211 -3.05052 2.20499 0
M  V30 8756 C 831.358 -1.77987 2.12641 0
M  V30 8757 H 834.309 -0.614959 1.46301 0
M  V30 8758 H 834.33 -3.30228 1.89023 0
M  V30 8759 H 833.842 -2.10057 3.2634 0
M  V30 8760 H 831.943 -3.51285 1.24215 0
M  V30 8761 H 832.056 -3.63368 3.1225 0
M  V30 8762 H 830.42 -1.99342 1.5854 0
M  V30 8763 H 831.203 -1.38389 3.14171 0
M  V30 8764 N 833.648 -1.19017 -1.03309 0
M  V30 8765 C 834.598 -0.89194 -2.0983 0
M  V30 8766 C 835.582 0.14151 -1.60277 0
M  V30 8767 O 836.774 -0.0635946 -1.76886 0
M  V30 8768 C 833.903 -0.427793 -3.40624 0
M  V30 8769 C 832.989 -1.49374 -3.96923 0
M  V30 8770 N 833.38 -2.71213 -4.26939 0
M  V30 8771 C 831.678 -1.35605 -4.24885 0
M  V30 8772 C 832.379 -3.39849 -4.72099 0
M  V30 8773 N 831.355 -2.67239 -4.73375 0
M  V30 8774 H 835.157 -1.81801 -2.30923 0
M  V30 8775 H 832.671 -1.08171 -1.21131 0
M  V30 8776 H 834.668 -0.195608 -4.16441 0
M  V30 8777 H 833.328 0.491848 -3.20953 0
M  V30 8778 H 834.339 -3.08014 -4.16351 0
M  V30 8779 H 831.016 -0.499537 -4.14501 0
M  V30 8780 H 832.406 -4.44018 -5.04279 0
M  V30 8781 N 835.127 1.22348 -0.993418 0
M  V30 8782 C 836.09 2.22522 -0.549251 0
M  V30 8783 C 837.09 1.56529 0.368164 0
M  V30 8784 O 838.28 1.73463 0.16005 0
M  V30 8785 C 835.412 3.40307 0.201037 0
M  V30 8786 H 836.605 2.63332 -1.43515 0
M  V30 8787 H 834.158 1.35407 -0.78068 0
M  V30 8788 H 834.893 3.0497 1.10289 0
M  V30 8789 H 834.678 3.8942 -0.457685 0
M  V30 8790 H 836.168 4.14597 0.499946 0
M  V30 8791 N 836.605 0.766683 1.37694 0
M  V30 8792 C 837.552 0.147725 2.30327 0
M  V30 8793 C 838.522 -0.695366 1.50844 0
M  V30 8794 O 839.707 -0.64878 1.79431 0
M  V30 8795 C 836.847 -0.72935 3.37305 0
M  V30 8796 C 835.96 0.129795 4.31805 0
M  V30 8797 C 835.095 -0.751511 5.25857 0
M  V30 8798 C 834.134 0.110475 6.12 0
M  V30 8799 N 833.271 -0.728522 6.9831 0
M  V30 8800 H 838.111 0.943204 2.82679 0
M  V30 8801 H 835.648 0.476736 1.3916 0
M  V30 8802 H 837.606 -1.25263 3.97951 0
M  V30 8803 H 836.236 -1.49048 2.86329 0
M  V30 8804 H 835.288 0.770829 3.72508 0
M  V30 8805 H 836.6 0.794923 4.92425 0
M  V30 8806 H 835.754 -1.34146 5.91684 0
M  V30 8807 H 834.493 -1.45034 4.65636 0
M  V30 8808 H 833.498 0.712999 5.45157 0
M  V30 8809 H 834.723 0.806557 6.74293 0
M  V30 8810 H 832.669 -1.41206 6.40622 0
M  V30 8811 H 832.586 -0.12058 7.55904 0
M  V30 8812 H 833.854 -1.30303 7.68532 0
M  V30 8813 N 838.083 -1.48885 0.516809 0
M  V30 8814 C 839.031 -2.31066 -0.266656 0
M  V30 8815 C 840.025 -1.40393 -0.94795 0
M  V30 8816 O 841.231 -1.57366 -0.873836 0
M  V30 8817 H 837.606 -0.744654 -0.104858 0
M  V30 8818 H 839.577 -2.95045 0.446236 0
M  V30 8819 C 838.326 -3.22131 -1.3087 0
M  V30 8820 H 837.649 -3.91839 -0.793865 0
M  V30 8821 H 839.089 -3.82544 -1.82856 0
M  V30 8822 C 837.548 -2.42825 -2.33533 0
M  V30 8823 O 838.078 -2.14364 -3.39722 0
M  V30 8824 N 836.284 -2.04559 -2.06407 0
M  V30 8825 H 835.831 -2.27905 -1.20071 0
M  V30 8826 H 835.789 -1.51807 -2.75322 0
M  V30 8827 N 839.561 -0.251338 -1.55583 0
M  V30 8828 C 840.807 0.37272 -1.99346 0
M  V30 8829 C 841.14 1.57266 -1.13934 0
M  V30 8830 O 840.415 1.9343 -0.20377 0
M  V30 8831 C 840.698 0.778245 -3.5159 0
M  V30 8832 C 840.551 -0.427394 -4.47765 0
M  V30 8833 C 841.87 1.62358 -4.09057 0
M  V30 8834 H 838.989 0.134002 -0.724715 0
M  V30 8835 H 841.631 -0.353536 -1.86682 0
M  V30 8836 H 839.781 1.39704 -3.62512 0
M  V30 8837 H 841.453 -1.06586 -4.48818 0
M  V30 8838 H 839.696 -1.06972 -4.20404 0
M  V30 8839 H 840.367 -0.10025 -5.51909 0
M  V30 8840 H 842.843 1.1012 -4.01264 0
M  V30 8841 H 841.719 1.87617 -5.1584 0
M  V30 8842 H 841.98 2.59688 -3.57791 0
M  V30 8843 N 841.039 1.57585 0.0217189 0
M  V30 8844 C 842.002 2.06004 1.00474 0
M  V30 8845 C 843.002 0.965461 1.2859 0
M  V30 8846 O 844.192 1.22884 1.23471 0
M  V30 8847 C 841.324 2.48319 2.33561 0
M  V30 8848 H 842.517 2.94112 0.586346 0
M  V30 8849 H 840.07 1.53973 0.268716 0
M  V30 8850 H 840.805 1.63389 2.80133 0
M  V30 8851 H 840.59 3.28239 2.1448 0
M  V30 8852 H 842.08 2.86181 3.04122 0
M  V30 8853 N 842.517 -0.29412 1.54831 0
M  V30 8854 C 843.757 -1.03635 1.76179 0
M  V30 8855 C 844.121 -1.84251 0.539953 0
M  V30 8856 O 845.322 -2.61282 0.631295 0
M  V30 8857 C 843.593 -1.91275 3.01909 0
M  V30 8858 S 845.152 -2.7205 3.44288 0
M  V30 8859 H 841.97 -0.349403 0.619224 0
M  V30 8860 H 844.572 -0.309006 1.93042 0
M  V30 8861 H 843.276 -1.30937 3.88952 0
M  V30 8862 H 842.807 -2.68365 2.87652 0
M  V30 8863 H 844.822 -3.93791 3.01899 0
M  V30 8864 N 843.995 -1.47404 -0.557645 0
M  V30 8865 C 845.242 -1.54007 -1.31484 0
M  V30 8866 C 845.57 -0.202162 -1.93447 0
M  V30 8867 O 844.825 0.804901 -1.78381 0
M  V30 8868 C 845.124 -2.6061 -2.44575 0
M  V30 8869 C 844.79 -4.03896 -2.00446 0
M  V30 8870 C 843.452 -4.42901 -1.88127 0
M  V30 8871 C 845.804 -4.93804 -1.66754 0
M  V30 8872 C 843.132 -5.6965 -1.40411 0
M  V30 8873 C 845.484 -6.21016 -1.20509 0
M  V30 8874 C 844.148 -6.58903 -1.06786 0
M  V30 8875 H 843.418 -0.563552 -0.481134 0
M  V30 8876 H 846.065 -1.81001 -0.625375 0
M  V30 8877 H 844.37 -2.27371 -3.19076 0
M  V30 8878 H 846.067 -2.62941 -3.02759 0
M  V30 8879 H 842.657 -3.73077 -2.10977 0
M  V30 8880 H 846.841 -4.64369 -1.75144 0
M  V30 8881 H 842.097 -5.97755 -1.2845 0
M  V30 8882 H 846.271 -6.90095 -0.935001 0
M  V30 8883 H 843.898 -7.57008 -0.695891 0
M  V30 8884 N 845.473 0.80434 -1.35529 0
M  V30 8885 C 846.383 1.94784 -1.30753 0
M  V30 8886 C 847.399 1.72703 -0.212071 0
M  V30 8887 O 848.575 1.96494 -0.441841 0
M  V30 8888 C 845.64 3.29406 -1.08133 0
M  V30 8889 C 844.701 3.64367 -2.27013 0
M  V30 8890 C 843.934 4.92566 -2.05463 0
M  V30 8891 O 844.157 5.61166 -1.02222 0
M  V30 8892 O 843.091 5.25838 -2.92879 0
M  V30 8893 H 846.917 2.01761 -2.26994 0
M  V30 8894 H 844.502 0.942448 -1.15924 0
M  V30 8895 H 846.384 4.09995 -0.973756 0
M  V30 8896 H 845.059 3.23355 -0.149444 0
M  V30 8897 H 843.966 2.84146 -2.43335 0
M  V30 8898 H 845.299 3.75125 -3.18656 0
M  V30 8899 N 846.951 1.19563 1.02676 0
M  V30 8900 C 847.861 0.950691 2.14474 0
M  V30 8901 C 848.877 -0.0900219 1.73767 0
M  V30 8902 O 850.053 0.0951063 2.01175 0
M  V30 8903 C 847.118 0.494917 3.43149 0
M  V30 8904 C 846.179 1.60527 3.98158 0
M  V30 8905 C 845.412 1.17115 5.20692 0
M  V30 8906 O 845.635 0.0355937 5.70389 0
M  V30 8907 O 844.569 1.97454 5.68591 0
M  V30 8908 H 848.395 1.88651 2.38001 0
M  V30 8909 H 845.98 0.978635 1.12885 0
M  V30 8910 H 847.862 0.249492 4.20661 0
M  V30 8911 H 846.537 -0.412434 3.21062 0
M  V30 8912 H 845.444 1.90487 3.21971 0
M  V30 8913 H 846.777 2.48925 4.24614 0
M  V30 8914 N 848.429 -1.21819 0.999893 0
M  V30 8915 C 849.654 -1.95298 0.698094 0
M  V30 8916 C 850.079 -1.73273 -0.731982 0
M  V30 8917 O 849.437 -1.01634 -1.50134 0
M  V30 8918 C 849.485 -3.45922 1.01834 0
M  V30 8919 O 848.589 -4.12223 0.120801 0
M  V30 8920 H 847.93 -0.610729 0.260588 0
M  V30 8921 H 850.46 -1.5472 1.33876 0
M  V30 8922 H 850.47 -3.96471 0.963074 0
M  V30 8923 H 849.145 -3.61278 2.06037 0
M  V30 8924 H 847.722 -3.72177 0.232153 0
M  V30 8925 N 849.908 -0.773975 -1.37286 0
M  V30 8926 C 850.871 -0.167974 -2.28584 0
M  V30 8927 C 851.871 0.625662 -1.48129 0
M  V30 8928 O 853.061 0.448924 -1.68316 0
M  V30 8929 C 850.193 0.769364 -3.32105 0
M  V30 8930 H 851.386 -0.972806 -2.83684 0
M  V30 8931 H 848.939 -0.542335 -1.46589 0
M  V30 8932 H 849.674 1.59912 -2.82132 0
M  V30 8933 H 849.459 0.202419 -3.91577 0
M  V30 8934 H 850.949 1.18872 -4.00324 0
M  V30 8935 N 851.386 1.48609 -0.524698 0
M  V30 8936 C 852.333 2.29539 0.240956 0
M  V30 8937 C 853.303 1.37033 0.938681 0
M  V30 8938 O 854.488 1.65996 0.940737 0
M  V30 8939 C 851.628 3.20278 1.28514 0
M  V30 8940 C 850.741 4.27858 0.596798 0
M  V30 8941 C 849.876 5.05784 1.62346 0
M  V30 8942 C 848.915 6.05173 0.918287 0
M  V30 8943 N 848.052 6.76176 1.89025 0
M  V30 8944 H 852.892 2.945 -0.455368 0
M  V30 8945 H 850.429 1.45188 -0.236403 0
M  V30 8946 H 852.387 3.71281 1.90279 0
M  V30 8947 H 851.017 2.57251 1.94992 0
M  V30 8948 H 850.069 3.80162 -0.134668 0
M  V30 8949 H 851.381 4.98782 0.0428506 0
M  V30 8950 H 850.535 5.60775 2.31553 0
M  V30 8951 H 849.274 4.34687 2.2113 0
M  V30 8952 H 848.279 5.49391 0.21212 0
M  V30 8953 H 849.504 6.78265 0.336633 0
M  V30 8954 H 847.45 6.07834 2.46726 0
M  V30 8955 H 847.367 7.43157 1.3876 0
M  V30 8956 H 848.635 7.35759 2.57446 0
M  V30 8957 N 852.864 0.259585 1.55447 0
M  V30 8958 C 853.774 -0.645026 2.25558 0
M  V30 8959 C 854.79 -1.18291 1.27606 0
M  V30 8960 O 855.966 -1.21649 1.6051 0
M  V30 8961 C 853.031 -1.81964 2.9511 0
M  V30 8962 C 852.092 -1.31997 4.08504 0
M  V30 8963 C 851.325 -2.43861 4.74729 0
M  V30 8964 O 851.548 -3.62876 4.40088 0
M  V30 8965 O 850.482 -2.12898 5.6299 0
M  V30 8966 H 854.308 -0.0775399 3.03601 0
M  V30 8967 H 851.893 0.0275859 1.49375 0
M  V30 8968 H 853.775 -2.50485 3.38873 0
M  V30 8969 H 852.45 -2.37451 2.19997 0
M  V30 8970 H 851.357 -0.601676 3.6923 0
M  V30 8971 H 852.69 -0.811045 4.85472 0
M  V30 8972 N 854.342 -1.57594 -0.0133615 0
M  V30 8973 C 855.305 -2.06534 -0.993799 0
M  V30 8974 C 856.305 -0.972267 -1.28077 0
M  V30 8975 O 857.495 -1.23537 -1.22818 0
M  V30 8976 C 854.627 -2.49554 -2.3224 0
M  V30 8977 H 855.82 -2.94419 -0.570741 0
M  V30 8978 H 853.373 -1.54113 -0.260546 0
M  V30 8979 H 854.108 -1.64872 -2.79263 0
M  V30 8980 H 853.893 -3.29371 -2.12737 0
M  V30 8981 H 855.383 -2.8779 -3.026 0
M  V30 8982 N 855.82 0.285905 -1.54985 0
M  V30 8983 C 857.231 0.857869 -1.65824 0
M  V30 8984 C 857.582 1.87531 -0.576763 0
M  V30 8985 O 856.707 2.14528 0.284016 0
M  V30 8986 C 857.302 1.56277 -3.00604 0
M  V30 8987 C 855.861 2.08294 -3.13513 0
M  V30 8988 C 855.008 0.920633 -2.61571 0
M  V30 8989 H 857.959 0.0625463 -1.58577 0
M  V30 8990 H 857.98 2.42912 -2.92872 0
M  V30 8991 H 857.492 0.822017 -3.79295 0
M  V30 8992 H 855.593 2.8537 -2.39572 0
M  V30 8993 H 855.706 2.3071 -4.19892 0
M  V30 8994 H 854.07 1.31043 -2.18403 0
M  V30 8995 H 854.853 0.193594 -3.42754 0
M  V30 8996 N 857.298 1.47698 0.54982 0
M  V30 8997 C 858.709 1.48474 1.13191 0
M  V30 8998 C 859.06 0.243504 1.94683 0
M  V30 8999 O 858.185 -0.651009 2.06375 0
M  V30 9000 C 858.78 2.69022 2.05944 0
M  V30 9001 C 857.339 2.72733 2.5941 0
M  V30 9002 C 856.486 2.41691 1.35944 0
M  V30 9003 H 859.437 1.55101 0.336048 0
M  V30 9004 H 859.458 2.46412 2.89934 0
M  V30 9005 H 858.97 3.59345 1.46605 0
M  V30 9006 H 857.071 1.86568 3.22526 0
M  V30 9007 H 857.184 3.73628 2.99899 0
M  V30 9008 H 855.548 1.92428 1.66864 0
M  V30 9009 H 856.331 3.34231 0.783869 0
M  V30 9010 N 858.776 -0.797141 1.35954 0
M  V30 9011 C 860.001 -1.59097 1.33053 0
M  V30 9012 C 860.426 -1.87897 -0.0874592 0
M  V30 9013 O 859.784 -1.47291 -1.05712 0
M  V30 9014 C 859.832 -2.89346 2.152 0
M  V30 9015 O 858.936 -3.826 1.5392 0
M  V30 9016 H 858.277 -0.482895 0.45575 0
M  V30 9017 H 860.807 -0.988633 1.79129 0
M  V30 9018 H 860.817 -3.38686 2.27499 0
M  V30 9019 H 859.492 -2.6771 3.18283 0
M  V30 9020 H 858.069 -3.41174 1.50516 0
M  V30 9021 N 860.254 -1.20106 -1.0204 0
M  V30 9022 C 861.184 -0.970301 -2.12385 0
M  V30 9023 C 862.165 0.099378 -1.69809 0
M  V30 9024 O 863.35 -0.057365 -1.94115 0
M  V30 9025 C 860.48 -0.517431 -3.43424 0
M  V30 9026 C 859.434 -1.52992 -3.99722 0
M  V30 9027 C 858.76 -0.933817 -5.26483 0
M  V30 9028 C 860.06 -2.91257 -4.33551 0
M  V30 9029 H 861.754 -1.89316 -2.31948 0
M  V30 9030 H 859.3 -0.911655 -1.11467 0
M  V30 9031 H 861.253 -0.343243 -4.2 0
M  V30 9032 H 859.977 0.441049 -3.23608 0
M  V30 9033 H 858.636 -1.6914 -3.2525 0
M  V30 9034 H 858.284 0.0324763 -5.0299 0
M  V30 9035 H 857.984 -1.60999 -5.65113 0
M  V30 9036 H 859.508 -0.770614 -6.05718 0
M  V30 9037 H 860.922 -2.78642 -5.0103 0
M  V30 9038 H 859.319 -3.55745 -4.83286 0
M  V30 9039 H 860.389 -3.43269 -3.42483 0
M  V30 9040 N 861.732 1.21287 -1.00634 0
M  V30 9041 C 862.642 2.27388 -0.577226 0
M  V30 9042 C 863.658 1.69791 0.380399 0
M  V30 9043 O 864.834 1.99918 0.2439 0
M  V30 9044 C 861.899 3.46588 0.0880532 0
M  V30 9045 C 860.96 4.19453 -0.914222 0
M  V30 9046 C 860.193 5.32962 -0.280596 0
M  V30 9047 O 860.416 5.62895 0.922265 0
M  V30 9048 O 859.35 5.93666 -0.992196 0
M  V30 9049 H 863.176 2.66289 -1.46028 0
M  V30 9050 H 860.761 1.2771 -0.775283 0
M  V30 9051 H 862.643 4.18881 0.460094 0
M  V30 9052 H 861.318 3.09585 0.945461 0
M  V30 9053 H 860.225 3.49376 -1.33744 0
M  V30 9054 H 861.558 4.6037 -1.74126 0
M  V30 9055 N 863.21 0.781244 1.36873 0
M  V30 9056 C 864.142 0.132075 2.28819 0
M  V30 9057 C 865.155 -0.653925 1.49089 0
M  V30 9058 O 866.344 -0.490453 1.7163 0
M  V30 9059 C 863.444 -0.836297 3.28419 0
M  V30 9060 C 862.617 -0.102097 4.37281 0
M  V30 9061 C 861.676 -0.985217 5.16894 0
M  V30 9062 O 860.702 -0.445478 5.67454 0
M  V30 9063 N 861.904 -2.31043 5.3254 0
M  V30 9064 H 864.669 0.921838 2.85171 0
M  V30 9065 H 862.23 0.634427 1.48952 0
M  V30 9066 H 864.222 -1.43074 3.78566 0
M  V30 9067 H 862.792 -1.52698 2.72767 0
M  V30 9068 H 862.012 0.67335 3.88407 0
M  V30 9069 H 863.3 0.404862 5.07187 0
M  V30 9070 H 862.698 -2.77318 4.93063 0
M  V30 9071 H 861.255 -2.85472 5.8596 0
M  V30 9072 N 864.689 -1.48329 0.532571 0
M  V30 9073 C 865.637 -2.31336 -0.242133 0
M  V30 9074 C 866.631 -1.41391 -0.933006 0
M  V30 9075 O 867.837 -1.58284 -0.857096 0
M  V30 9076 H 864.212 -0.745724 -0.0969536 0
M  V30 9077 H 866.183 -2.94555 0.477504 0
M  V30 9078 C 864.932 -3.23501 -1.27446 0
M  V30 9079 H 864.255 -3.92659 -0.752261 0
M  V30 9080 H 865.695 -3.84461 -1.78789 0
M  V30 9081 C 864.154 -2.45288 -2.30944 0
M  V30 9082 O 864.684 -2.17955 -3.37429 0
M  V30 9083 N 862.89 -2.06737 -2.04226 0
M  V30 9084 H 862.437 -2.29166 -1.17647 0
M  V30 9085 H 862.395 -1.54719 -2.73696 0
M  V30 9086 N 866.167 -0.267825 -1.55308 0
M  V30 9087 C 867.099 0.65591 -2.19614 0
M  V30 9088 C 868.112 1.12302 -1.17865 0
M  V30 9089 O 869.301 1.04618 -1.44628 0
M  V30 9090 C 866.401 1.90582 -2.80235 0
M  V30 9091 C 865.574 1.58673 -4.07605 0
M  V30 9092 C 864.633 2.68836 -4.52343 0
M  V30 9093 O 863.659 2.35331 -5.18274 0
M  V30 9094 N 864.861 3.98752 -4.21873 0
M  V30 9095 H 867.626 0.105566 -2.99514 0
M  V30 9096 H 865.187 -0.0886263 -1.61657 0
M  V30 9097 H 867.179 2.63561 -3.07112 0
M  V30 9098 H 865.749 2.3654 -2.04371 0
M  V30 9099 H 864.969 0.691113 -3.88094 0
M  V30 9100 H 866.257 1.34845 -4.90606 0
M  V30 9101 H 865.655 4.28797 -3.68985 0
M  V30 9102 H 864.212 4.68131 -4.53537 0
M  V30 9103 N 867.645 1.57599 0.00500368 0
M  V30 9104 C 868.608 2.07058 0.982832 0
M  V30 9105 C 869.608 0.979045 1.27559 0
M  V30 9106 O 870.798 1.24187 1.22161 0
M  V30 9107 C 867.93 2.50782 2.30914 0
M  V30 9108 H 869.123 2.94718 0.555119 0
M  V30 9109 H 866.676 1.54249 0.25237 0
M  V30 9110 H 867.411 1.66351 2.78385 0
M  V30 9111 H 867.196 3.30495 2.10987 0
M  V30 9112 H 868.686 2.89391 3.0107 0
M  V30 9113 N 869.123 -0.277682 1.55134 0
M  V30 9114 C 870.033 -1.36524 1.90783 0
M  V30 9115 C 871.049 -1.54283 0.804542 0
M  V30 9116 O 872.225 -1.68499 1.10318 0
M  V30 9117 C 869.29 -2.70524 2.16835 0
M  V30 9118 C 868.351 -2.61552 3.40424 0
M  V30 9119 C 867.584 -3.89162 3.65224 0
M  V30 9120 O 867.807 -4.89624 2.92616 0
M  V30 9121 O 866.741 -3.89647 4.58758 0
M  V30 9122 H 870.567 -1.0929 2.83354 0
M  V30 9123 H 868.152 -0.475799 1.41621 0
M  V30 9124 H 870.034 -3.49765 2.35038 0
M  V30 9125 H 868.709 -2.97555 1.27448 0
M  V30 9126 H 867.616 -1.80704 3.27562 0
M  V30 9127 H 868.949 -2.39472 4.30016 0
M  V30 9128 N 870.601 -1.47988 -0.541979 0
M  V30 9129 C 871.548 -1.61615 -1.6477 0
M  V30 9130 C 872.518 -0.458602 -1.59644 0
M  V30 9131 O 873.703 -0.680585 -1.78249 0
M  V30 9132 C 870.843 -1.65066 -3.03063 0
M  V30 9133 C 869.956 -2.91845 -3.18513 0
M  V30 9134 C 869.091 -2.86534 -4.47294 0
M  V30 9135 C 868.13 -4.0807 -4.5623 0
M  V30 9136 N 867.267 -4.00905 -5.76385 0
M  V30 9137 H 872.107 -2.56046 -1.52461 0
M  V30 9138 H 869.644 -1.26989 -0.742449 0
M  V30 9139 H 871.602 -1.65049 -3.83164 0
M  V30 9140 H 870.232 -0.74136 -3.14171 0
M  V30 9141 H 869.284 -3.01661 -2.31743 0
M  V30 9142 H 870.596 -3.81804 -3.20978 0
M  V30 9143 H 869.75 -2.84851 -5.35672 0
M  V30 9144 H 868.489 -1.94283 -4.47332 0
M  V30 9145 H 867.494 -4.10041 -3.66261 0
M  V30 9146 H 868.719 -5.01465 -4.5794 0
M  V30 9147 H 866.665 -3.11467 -5.77342 0
M  V30 9148 H 866.582 -4.84557 -5.80293 0
M  V30 9149 H 867.85 -4.03263 -6.67083 0
M  V30 9150 N 872.079 0.78992 -1.36375 0
M  V30 9151 C 873.042 1.88414 -1.30509 0
M  V30 9152 C 874.042 1.59384 -0.2129 0
M  V30 9153 O 875.232 1.67805 -0.467651 0
M  V30 9154 C 872.364 3.25188 -1.02302 0
M  V30 9155 H 873.557 1.95031 -2.27822 0
M  V30 9156 H 871.11 0.987664 -1.2114 0
M  V30 9157 H 871.845 3.24254 -0.0544486 0
M  V30 9158 H 871.63 3.47647 -1.81338 0
M  V30 9159 H 873.12 4.05252 -1.00801 0
M  V30 9160 N 873.557 1.20646 1.01402 0
M  V30 9161 C 874.487 0.98155 2.11867 0
M  V30 9162 C 875.468 -0.0903712 1.6986 0
M  V30 9163 O 876.653 0.0676586 1.94082 0
M  V30 9164 C 873.783 0.535636 3.43145 0
M  V30 9165 C 872.737 1.55109 3.98905 0
M  V30 9166 C 872.063 0.961725 5.2598 0
M  V30 9167 C 873.363 2.93552 4.32001 0
M  V30 9168 H 875.057 1.90544 2.3094 0
M  V30 9169 H 872.603 0.917554 1.10982 0
M  V30 9170 H 874.556 0.365512 4.19812 0
M  V30 9171 H 873.28 -0.423882 3.23838 0
M  V30 9172 H 871.939 1.70862 3.24348 0
M  V30 9173 H 871.587 -0.00580108 5.03 0
M  V30 9174 H 871.287 1.63993 5.64252 0
M  V30 9175 H 872.811 0.802726 6.053 0
M  V30 9176 H 874.225 2.81295 4.99546 0
M  V30 9177 H 872.622 3.58303 4.81393 0
M  V30 9178 H 873.692 3.4508 3.40658 0
M  V30 9179 N 875.035 -1.20752 1.01276 0
M  V30 9180 C 875.998 -2.2162 0.584583 0
M  V30 9181 C 876.998 -1.57094 -0.343215 0
M  V30 9182 O 878.188 -1.73696 -0.132433 0
M  V30 9183 C 875.32 -3.40583 -0.146872 0
M  V30 9184 H 876.513 -2.61015 1.47686 0
M  V30 9185 H 874.066 -1.34148 0.802123 0
M  V30 9186 H 874.801 -3.06686 -1.05424 0
M  V30 9187 H 874.586 -3.88642 0.51958 0
M  V30 9188 H 876.076 -4.15339 -0.433924 0
M  V30 9189 N 876.513 -0.788492 -1.36457 0
M  V30 9190 C 877.461 -0.174192 -2.31947 0
M  V30 9191 C 878.455 0.665974 -1.5576 0
M  V30 9192 O 879.661 0.561161 -1.71029 0
M  V30 9193 H 876.036 -0.0375538 -0.751062 0
M  V30 9194 H 878.007 -0.995011 -2.81322 0
M  V30 9195 C 876.756 0.677276 -3.4104 0
M  V30 9196 H 876.079 0.0401418 -3.9978 0
M  V30 9197 H 877.519 1.07379 -4.10178 0
M  V30 9198 C 875.978 1.83512 -2.82533 0
M  V30 9199 O 876.508 2.93164 -2.74623 0
M  V30 9200 N 874.714 1.64095 -2.39836 0
M  V30 9201 H 874.261 0.749046 -2.46469 0
M  V30 9202 H 874.219 2.41726 -2.01037 0
M  V30 9203 N 877.991 1.48044 -0.54043 0
M  V30 9204 C 879.238 2.02497 -0.0101567 0
M  V30 9205 C 879.566 1.41651 1.33286 0
M  V30 9206 O 878.821 0.555504 1.8765 0
M  V30 9207 C 879.12 3.57085 0.150008 0
M  V30 9208 C 878.786 4.36769 -1.11998 0
M  V30 9209 C 877.448 4.58261 -1.46801 0
M  V30 9210 C 879.8 4.82848 -1.96232 0
M  V30 9211 C 877.128 5.23079 -2.65717 0
M  V30 9212 C 879.48 5.48977 -3.14335 0
M  V30 9213 C 878.144 5.68705 -3.49472 0
M  V30 9214 H 877.414 0.740991 -0.00371661 0
M  V30 9215 H 880.061 1.77909 -0.708562 0
M  V30 9216 H 878.366 3.80572 0.931259 0
M  V30 9217 H 880.063 3.96851 0.575384 0
M  V30 9218 H 876.653 4.20309 -0.838957 0
M  V30 9219 H 880.837 4.66038 -1.70654 0
M  V30 9220 H 876.093 5.36549 -2.93129 0
M  V30 9221 H 880.267 5.83649 -3.79904 0
M  V30 9222 H 877.894 6.18703 -4.41713 0
M  V30 9223 N 879.47 0.276058 1.55163 0
M  V30 9224 C 880.698 -0.343772 2.04024 0
M  V30 9225 C 881.113 -1.49397 1.15438 0
M  V30 9226 O 880.47 -1.81662 0.174692 0
M  V30 9227 C 880.521 -0.823885 3.51986 0
M  V30 9228 O 880.242 0.280507 4.37201 0
M  V30 9229 C 881.743 -1.51143 4.16738 0
M  V30 9230 H 878.963 -0.07828 0.666418 0
M  V30 9231 H 881.507 0.408427 2.0038 0
M  V30 9232 H 879.662 -1.52617 3.56071 0
M  V30 9233 H 880.076 -0.0887831 5.24425 0
M  V30 9234 H 881.55 -1.79878 5.2187 0
M  V30 9235 H 882.027 -2.44327 3.64967 0
M  V30 9236 H 882.633 -0.852975 4.16659 0
M  V30 9237 N 880.948 -1.576 0.00335426 0
M  V30 9238 C 881.911 -2.07576 -0.971838 0
M  V30 9239 C 882.911 -0.985796 -1.27038 0
M  V30 9240 O 884.101 -1.24833 -1.21501 0
M  V30 9241 C 881.233 -2.52003 -2.29581 0
M  V30 9242 H 882.426 -2.95008 -0.539481 0
M  V30 9243 H 879.979 -1.54381 -0.244186 0
M  V30 9244 H 880.714 -1.67825 -2.77498 0
M  V30 9245 H 880.499 -3.31609 -2.09231 0
M  V30 9246 H 881.989 -2.90983 -2.99531 0
M  V30 9247 N 882.426 0.269451 -1.5528 0
M  V30 9248 C 883.654 1.01872 -1.80082 0
M  V30 9249 C 884.069 1.79802 -0.575917 0
M  V30 9250 O 883.426 1.76735 0.455081 0
M  V30 9251 C 883.477 1.9745 -3.02813 0
M  V30 9252 O 883.198 1.22677 -4.20573 0
M  V30 9253 C 884.699 2.8416 -3.40247 0
M  V30 9254 H 881.919 0.300781 -0.59981 0
M  V30 9255 H 884.463 0.29916 -2.023 0
M  V30 9256 H 882.618 2.64864 -2.82712 0
M  V30 9257 H 883.032 1.87129 -4.89982 0
M  V30 9258 H 884.506 3.47014 -4.29284 0
M  V30 9259 H 884.983 3.54113 -2.59809 0
M  V30 9260 H 885.589 2.22232 -3.6262 0
M  V30 9261 N 883.904 1.48273 0.534124 0
M  V30 9262 C 885.129 1.59988 1.31979 0
M  V30 9263 C 885.554 0.258824 1.86311 0
M  V30 9264 O 884.912 -0.768885 1.64188 0
M  V30 9265 C 884.96 2.64642 2.44943 0
M  V30 9266 O 884.064 2.21515 3.47858 0
M  V30 9267 H 883.405 0.536625 0.391063 0
M  V30 9268 H 885.935 1.94229 0.643135 0
M  V30 9269 H 885.945 2.85786 2.91187 0
M  V30 9270 H 884.62 3.62004 2.04758 0
M  V30 9271 H 883.197 2.10567 3.0776 0
M  V30 9272 N 885.382 -0.782676 1.36792 0
M  V30 9273 C 886.607 -1.57676 1.34733 0
M  V30 9274 C 887.032 -1.87979 -0.0675253 0
M  V30 9275 O 886.39 -1.48404 -1.04144 0
M  V30 9276 C 886.438 -2.87047 2.18257 0
M  V30 9277 O 885.542 -3.80946 1.57969 0
M  V30 9278 H 884.883 -0.478034 0.460846 0
M  V30 9279 H 887.413 -0.969578 1.80168 0
M  V30 9280 H 887.423 -3.36254 2.31079 0
M  V30 9281 H 886.098 -2.64319 3.21104 0
M  V30 9282 H 884.675 -3.39558 1.54126 0
M  V30 9283 N 886.86 -1.21182 -1.00761 0
M  V30 9284 C 887.807 -0.968741 -2.09485 0
M  V30 9285 C 888.777 0.104325 -1.65772 0
M  V30 9286 O 889.962 -0.0422587 -1.90753 0
M  V30 9287 C 887.102 -0.536686 -3.40901 0
M  V30 9288 C 886.215 -1.6789 -3.98041 0
M  V30 9289 C 885.35 -1.19627 -5.17555 0
M  V30 9290 C 884.389 -2.31099 -5.66798 0
M  V30 9291 N 883.526 -1.83988 -6.77564 0
M  V30 9292 H 888.366 -1.89952 -2.29613 0
M  V30 9293 H 885.903 -0.946688 -1.12589 0
M  V30 9294 H 887.861 -0.26745 -4.16342 0
M  V30 9295 H 886.491 0.357092 -3.20819 0
M  V30 9296 H 885.543 -2.06284 -3.19611 0
M  V30 9297 H 886.855 -2.51794 -4.30582 0
M  V30 9298 H 886.009 -0.883539 -6.00232 0
M  V30 9299 H 884.748 -0.327244 -4.86601 0
M  V30 9300 H 883.753 -2.63178 -4.82719 0
M  V30 9301 H 884.978 -3.18493 -5.99782 0
M  V30 9302 H 882.924 -0.994257 -6.48422 0
M  V30 9303 H 882.841 -2.61466 -7.09346 0
M  V30 9304 H 884.109 -1.55741 -7.63783 0
M  V30 9305 N 888.338 1.20213 -1.01915 0
M  V30 9306 C 889.578 1.91354 -0.71853 0
M  V30 9307 C 889.942 1.77231 0.738466 0
M  V30 9308 O 891.143 2.42876 1.15172 0
M  V30 9309 C 889.414 3.38552 -1.14529 0
M  V30 9310 S 890.973 4.28011 -0.967037 0
M  V30 9311 H 887.791 0.661015 -0.261879 0
M  V30 9312 H 890.393 1.45394 -1.30694 0
M  V30 9313 H 889.097 3.46354 -2.20153 0
M  V30 9314 H 888.628 3.8954 -0.549766 0
M  V30 9315 H 890.643 4.96035 0.127974 0
M  V30 9316 N 889.816 0.795718 1.36037 0
M  V30 9317 C 891.232 0.478145 1.52269 0
M  V30 9318 C 891.432 -1.0025 1.74792 0
M  V30 9319 O 890.488 -1.78783 1.78305 0
M  V30 9320 C 891.801 1.31406 2.70468 0
M  V30 9321 C 893.349 1.3084 2.84341 0
M  V30 9322 C 893.824 2.12819 4.05551 0
M  V30 9323 N 895.315 2.10298 4.12709 0
M  V30 9324 C 896.05 2.70495 5.05589 0
M  V30 9325 N 895.546 3.39576 6.03871 0
M  V30 9326 N 897.339 2.60195 4.98252 0
M  V30 9327 H 889.49 1.75477 1.19673 0
M  V30 9328 H 891.753 0.74627 0.584624 0
M  V30 9329 H 891.459 2.36435 2.60368 0
M  V30 9330 H 891.333 0.959726 3.64786 0
M  V30 9331 H 893.72 0.266003 2.93899 0
M  V30 9332 H 893.801 1.70254 1.90912 0
M  V30 9333 H 893.445 3.17093 3.96755 0
M  V30 9334 H 893.375 1.70772 4.98141 0
M  V30 9335 H 895.866 1.60026 3.42345 0
M  V30 9336 H 896.179 3.82823 6.71317 0
M  V30 9337 H 894.524 3.43679 6.04077 0
M  V30 9338 H 897.715 2.05823 4.20422 0
M  V30 9339 H 897.888 3.074 5.70447 0
M  V30 9340 N 891.294 -1.47756 0.548274 0
M  V30 9341 C 892.224 -2.32702 -0.19284 0
M  V30 9342 C 893.205 -1.43237 -0.917457 0
M  V30 9343 O 894.39 -1.72103 -0.89967 0
M  V30 9344 C 891.52 -3.24831 -1.22891 0
M  V30 9345 C 890.474 -4.23466 -0.621312 0
M  V30 9346 C 889.8 -5.04856 -1.76137 0
M  V30 9347 C 891.1 -5.20616 0.419055 0
M  V30 9348 H 892.794 -2.94914 0.516323 0
M  V30 9349 H 890.34 -1.41818 0.24975 0
M  V30 9350 H 892.293 -3.83094 -1.75547 0
M  V30 9351 H 891.017 -2.60656 -1.9679 0
M  V30 9352 H 889.676 -3.66416 -0.116123 0
M  V30 9353 H 889.324 -4.37091 -2.48918 0
M  V30 9354 H 889.024 -5.71629 -1.36065 0
M  V30 9355 H 890.548 -5.65976 -2.29136 0
M  V30 9356 H 891.962 -5.73296 -0.0211034 0
M  V30 9357 H 890.359 -5.95543 0.738163 0
M  V30 9358 H 891.429 -4.66638 1.31822 0
M  V30 9359 N 892.772 -0.284283 -1.55015 0
M  V30 9360 C 893.704 0.63258 -2.20298 0
M  V30 9361 C 894.717 1.11045 -1.1905 0
M  V30 9362 O 895.906 1.03078 -1.4573 0
M  V30 9363 C 893.006 1.87599 -2.82241 0
M  V30 9364 C 892.179 1.5434 -4.09265 0
M  V30 9365 C 891.238 2.64023 -4.55169 0
M  V30 9366 O 890.264 2.29821 -5.20741 0
M  V30 9367 N 891.466 3.94255 -4.26079 0
M  V30 9368 H 894.231 0.0737928 -2.99609 0
M  V30 9369 H 891.792 -0.105767 -1.61554 0
M  V30 9370 H 893.784 2.60289 -3.0989 0
M  V30 9371 H 892.354 2.3436 -2.06868 0
M  V30 9372 H 891.574 0.649912 -3.88806 0
M  V30 9373 H 892.862 1.29634 -4.92009 0
M  V30 9374 H 892.26 4.24859 -3.73512 0
M  V30 9375 H 890.817 4.63295 -4.58477 0
M  V30 9376 N 894.251 1.57596 -0.0117121 0
M  V30 9377 C 895.181 2.12188 0.9746 0
M  V30 9378 C 896.162 1.03379 1.35081 0
M  V30 9379 O 897.347 1.31123 1.4325 0
M  V30 9380 C 894.477 2.63477 2.26268 0
M  V30 9381 C 893.431 3.76917 2.02774 0
M  V30 9382 C 892.757 4.14566 3.37697 0
M  V30 9383 C 894.057 5.03715 1.38089 0
M  V30 9384 H 895.751 2.9485 0.520007 0
M  V30 9385 H 893.297 1.41836 0.248685 0
M  V30 9386 H 895.25 3.00299 2.95633 0
M  V30 9387 H 893.974 1.77953 2.73862 0
M  V30 9388 H 892.633 3.40507 1.35832 0
M  V30 9389 H 892.281 3.26048 3.83016 0
M  V30 9390 H 891.981 4.91 3.22789 0
M  V30 9391 H 893.505 4.53956 4.08358 0
M  V30 9392 H 894.919 5.38233 1.97428 0
M  V30 9393 H 893.316 5.85032 1.33634 0
M  V30 9394 H 894.386 4.83624 0.351575 0
M  V30 9395 N 895.729 -0.261212 1.5542 0
M  V30 9396 C 896.977 -0.989272 1.76232 0
M  V30 9397 C 897.298 -1.86389 0.573067 0
M  V30 9398 O 896.568 -1.91526 -0.41166 0
M  V30 9399 H 895.148 -0.368256 0.64992 0
M  V30 9400 H 897.81 -0.282603 1.9284 0
M  V30 9401 H 896.906 -1.61935 2.66802 0
M  V30 9402 N 897.207 -1.48554 -0.526253 0
M  V30 9403 C 898.455 -1.56452 -1.27935 0
M  V30 9404 C 898.776 -0.24184 -1.93495 0
M  V30 9405 O 898.046 0.736917 -1.81511 0
M  V30 9406 H 896.626 -0.576379 -0.47518 0
M  V30 9407 H 899.288 -1.85039 -0.612083 0
M  V30 9408 H 898.384 -2.34751 -2.05666 0
M  V30 9409 N 898.685 0.775411 -1.37205 0
M  V30 9410 C 899.615 1.90258 -1.35367 0
M  V30 9411 C 900.596 1.68634 -0.222864 0
M  V30 9412 O 901.781 1.89545 -0.422659 0
M  V30 9413 C 898.911 3.27488 -1.15623 0
M  V30 9414 C 897.865 3.63668 -2.25676 0
M  V30 9415 C 897.191 4.994 -1.91059 0
M  V30 9416 C 898.491 3.70797 -3.67841 0
M  V30 9417 H 900.185 1.92053 -2.29687 0
M  V30 9418 H 897.731 0.922597 -1.10563 0
M  V30 9419 H 899.684 4.05976 -1.12968 0
M  V30 9420 H 898.408 3.26117 -0.177573 0
M  V30 9421 H 897.067 2.87486 -2.2748 0
M  V30 9422 H 896.715 4.94565 -0.917324 0
M  V30 9423 H 896.415 5.24576 -2.64751 0
M  V30 9424 H 897.939 5.80291 -1.89985 0
M  V30 9425 H 899.353 4.39444 -3.68187 0
M  V30 9426 H 897.75 4.07468 -4.40556 0
M  V30 9427 H 898.82 2.71549 -4.01732 0
M  V30 9428 N 900.163 1.21714 1.00117 0
M  V30 9429 C 901.44 0.945391 1.71236 0
M  V30 9430 C 901.82 -0.541772 2.0403 0
M  V30 9431 O 901.168 -1.50763 1.71705 0
M  V30 9432 C 901.378 1.83444 2.96899 0
M  V30 9433 C 902.726 2.08558 3.69849 0
M  V30 9434 O 903.75 1.80824 3.06889 0
M  V30 9435 O 902.609 2.55485 4.83104 0
M  V30 9436 H 899.703 0.354834 0.747009 0
M  V30 9437 H 902.249 1.32661 1.05825 0
M  V30 9438 H 901.021 2.84075 2.69105 0
M  V30 9439 H 900.644 1.45428 3.70049 0
M  V30 9440 N 901.641 -1.19671 1.02551 0
M  V30 9441 C 902.871 -1.92952 0.738441 0
M  V30 9442 C 903.279 -1.75528 -0.706155 0
M  V30 9443 O 902.622 -1.0723 -1.49156 0
M  V30 9444 C 902.684 -3.45149 1.00562 0
M  V30 9445 C 902.348 -3.86341 2.44109 0
M  V30 9446 C 903.345 -3.91374 3.42231 0
M  V30 9447 C 901.03 -4.18076 2.7842 0
M  V30 9448 C 903.024 -4.27568 4.7272 0
M  V30 9449 C 900.711 -4.53943 4.0912 0
M  V30 9450 C 901.709 -4.58663 5.06081 0
M  V30 9451 O 901.397 -4.93701 6.3444 0
M  V30 9452 H 901.129 -0.619836 0.269776 0
M  V30 9453 H 903.683 -1.52852 1.37206 0
M  V30 9454 H 901.913 -3.85416 0.314849 0
M  V30 9455 H 903.602 -3.99664 0.708742 0
M  V30 9456 H 904.368 -3.67011 3.17061 0
M  V30 9457 H 900.247 -4.13589 2.03631 0
M  V30 9458 H 903.791 -4.31166 5.48399 0
M  V30 9459 H 899.688 -4.77764 4.34064 0
M  V30 9460 H 900.456 -5.11662 6.38862 0
M  V30 9461 N 903.119 -0.802921 -1.35613 0
M  V30 9462 C 904.049 -0.225131 -2.32412 0
M  V30 9463 C 905.03 0.647383 -1.57299 0
M  V30 9464 O 906.215 0.578414 -1.85386 0
M  V30 9465 C 903.345 0.630085 -3.41537 0
M  V30 9466 C 902.299 -0.143635 -4.27759 0
M  V30 9467 C 901.625 0.833046 -5.28171 0
M  V30 9468 C 902.925 -1.34054 -5.04804 0
M  V30 9469 H 904.619 -1.03385 -2.80984 0
M  V30 9470 H 902.165 -0.498593 -1.35093 0
M  V30 9471 H 904.118 1.04433 -4.08254 0
M  V30 9472 H 902.842 1.47165 -2.91565 0
M  V30 9473 H 901.501 -0.539015 -3.62616 0
M  V30 9474 H 901.149 1.67001 -4.74468 0
M  V30 9475 H 900.849 0.319697 -5.8673 0
M  V30 9476 H 902.373 1.24558 -5.97761 0
M  V30 9477 H 903.787 -1.00136 -5.64487 0
M  V30 9478 H 902.184 -1.78812 -5.72841 0
M  V30 9479 H 903.254 -2.12906 -4.35659 0
M  V30 9480 N 904.597 1.47463 -0.556102 0
M  V30 9481 C 905.874 1.9557 0.0339892 0
M  V30 9482 C 906.254 1.49869 1.48669 0
M  V30 9483 O 905.602 0.737019 2.16288 0
M  V30 9484 C 905.812 3.48826 -0.110343 0
M  V30 9485 C 907.16 4.24585 0.0355716 0
M  V30 9486 O 908.184 3.5618 -0.0378356 0
M  V30 9487 O 907.043 5.46158 0.193299 0
M  V30 9488 H 904.137 0.824461 0.0647521 0
M  V30 9489 H 906.683 1.57868 -0.622547 0
M  V30 9490 H 905.455 3.74891 -1.12126 0
M  V30 9491 H 905.078 3.9329 0.583855 0
M  V30 9492 N 906.075 0.2925 1.54862 0
M  V30 9493 C 907.486 -0.201841 1.85606 0
M  V30 9494 C 907.837 -1.54093 1.21449 0
M  V30 9495 O 906.962 -2.10327 0.509079 0
M  V30 9496 C 907.557 -0.373011 3.3674 0
M  V30 9497 C 906.116 -0.811574 3.67547 0
M  V30 9498 C 905.263 0.0850583 2.7717 0
M  V30 9499 H 908.214 0.513774 1.50153 0
M  V30 9500 H 908.235 -1.20892 3.60785 0
M  V30 9501 H 907.747 0.601751 3.83407 0
M  V30 9502 H 905.848 -1.79719 3.26392 0
M  V30 9503 H 905.961 -0.636853 4.74848 0
M  V30 9504 H 904.325 -0.434224 2.50971 0
M  V30 9505 H 905.108 1.05602 3.26654 0
M  V30 9506 N 907.553 -1.57587 0.0200696 0
M  V30 9507 C 908.516 -2.08595 -0.949767 0
M  V30 9508 C 909.516 -0.999215 -1.25985 0
M  V30 9509 O 910.706 -1.26115 -1.2017 0
M  V30 9510 C 907.838 -2.54424 -2.26895 0
M  V30 9511 H 909.031 -2.95563 -0.508161 0
M  V30 9512 H 906.584 -1.54631 -0.227798 0
M  V30 9513 H 907.319 -1.70758 -2.75703 0
M  V30 9514 H 907.104 -3.3381 -2.05702 0
M  V30 9515 H 908.594 -2.94144 -2.96427 0
M  V30 9516 N 909.032 0.252966 -1.55557 0
M  V30 9517 C 910.272 0.989276 -1.78865 0
M  V30 9518 C 910.636 1.82755 -0.588615 0
M  V30 9519 O 911.837 2.59516 -0.700347 0
M  V30 9520 C 910.108 1.83203 -3.06874 0
M  V30 9521 S 911.667 2.62826 -3.5138 0
M  V30 9522 H 908.485 0.332863 -0.62827 0
M  V30 9523 H 911.087 0.257716 -1.93794 0
M  V30 9524 H 909.791 1.20579 -3.92287 0
M  V30 9525 H 909.322 2.60644 -2.94666 0
M  V30 9526 H 911.337 3.85648 -3.12234 0
M  V30 9527 N 910.51 1.48831 0.518367 0
M  V30 9528 C 911.757 1.57439 1.27355 0
M  V30 9529 C 912.085 0.25338 1.92843 0
M  V30 9530 O 911.34 -0.757323 1.80452 0
M  V30 9531 C 911.639 2.67003 2.3758 0
M  V30 9532 C 911.305 4.09069 1.89667 0
M  V30 9533 C 909.967 4.47733 1.76319 0
M  V30 9534 C 912.319 4.98052 1.53603 0
M  V30 9535 C 909.647 5.73173 1.25258 0
M  V30 9536 C 911.999 6.23992 1.04001 0
M  V30 9537 C 910.663 6.61503 0.892784 0
M  V30 9538 H 909.933 0.57611 0.466023 0
M  V30 9539 H 912.58 1.82595 0.577166 0
M  V30 9540 H 910.885 2.35751 3.12936 0
M  V30 9541 H 912.582 2.70876 2.95681 0
M  V30 9542 H 909.172 3.7854 2.01011 0
M  V30 9543 H 913.356 4.68849 1.62771 0
M  V30 9544 H 908.612 6.0095 1.12557 0
M  V30 9545 H 912.786 6.92331 0.751706 0
M  V30 9546 H 910.413 7.58587 0.494939 0
M  V30 9547 N 911.988 -0.768124 1.37614 0
M  V30 9548 C 913.216 -1.55726 1.36224 0
M  V30 9549 C 913.631 -1.8873 -0.0515357 0
M  V30 9550 O 912.988 -1.51718 -1.0143 0
M  V30 9551 C 913.039 -2.86533 2.20412 0
M  V30 9552 O 912.76 -2.54942 3.56281 0
M  V30 9553 C 914.261 -3.80745 2.27041 0
M  V30 9554 H 911.481 -0.482325 0.46648 0
M  V30 9555 H 914.025 -0.95176 1.81002 0
M  V30 9556 H 912.18 -3.43496 1.79134 0
M  V30 9557 H 912.594 -3.38732 4.00451 0
M  V30 9558 H 914.068 -4.69523 2.90263 0
M  V30 9559 H 914.545 -4.20138 1.27987 0
M  V30 9560 H 915.151 -3.2971 2.68647 0
M  V30 9561 N 913.466 -1.22244 -0.994698 0
M  V30 9562 C 914.416 -0.958244 -2.06886 0
M  V30 9563 C 915.4 0.0904481 -1.60646 0
M  V30 9564 O 916.592 -0.119837 -1.76594 0
M  V30 9565 C 913.721 -0.535944 -3.39091 0
M  V30 9566 C 912.807 -1.61927 -3.9197 0
M  V30 9567 N 913.198 -2.84659 -4.18094 0
M  V30 9568 C 911.496 -1.49053 -4.20356 0
M  V30 9569 C 912.197 -3.54697 -4.61048 0
M  V30 9570 N 911.173 -2.82164 -4.64634 0
M  V30 9571 H 914.975 -1.89056 -2.25022 0
M  V30 9572 H 912.489 -1.1197 -1.17629 0
M  V30 9573 H 914.486 -0.327997 -4.15608 0
M  V30 9574 H 913.146 0.38949 -3.22355 0
M  V30 9575 H 914.157 -3.21104 -4.06341 0
M  V30 9576 H 910.834 -0.631154 -4.12702 0
M  V30 9577 H 912.224 -4.59837 -4.89898 0
M  V30 9578 N 914.944 1.19125 -1.03184 0
M  V30 9579 C 916.169 1.93379 -0.749628 0
M  V30 9580 C 916.594 1.75153 0.685785 0
M  V30 9581 O 915.952 1.05579 1.47386 0
M  V30 9582 C 916 3.43101 -1.1097 0
M  V30 9583 O 915.104 4.11758 -0.230053 0
M  V30 9584 H 914.445 0.603605 -0.276689 0
M  V30 9585 H 916.975 1.51116 -1.37931 0
M  V30 9586 H 916.985 3.93778 -1.06785 0
M  V30 9587 H 915.66 3.55688 -2.15544 0
M  V30 9588 H 914.237 3.7143 -0.330748 0
M  V30 9589 N 916.422 0.810101 1.35185 0
M  V30 9590 C 917.669 0.392117 1.98667 0
M  V30 9591 C 917.997 -1.0416 1.64259 0
M  V30 9592 O 917.252 -1.73795 0.899647 0
M  V30 9593 C 917.551 0.526561 3.535 0
M  V30 9594 C 917.217 1.92411 4.07785 0
M  V30 9595 C 915.879 2.30644 4.22323 0
M  V30 9596 C 918.231 2.83827 4.37141 0
M  V30 9597 C 915.559 3.59655 4.63536 0
M  V30 9598 C 917.911 4.12287 4.79794 0
M  V30 9599 C 916.575 4.50515 4.92536 0
M  V30 9600 H 915.845 0.143486 0.726975 0
M  V30 9601 H 918.492 1.03157 1.61341 0
M  V30 9602 H 916.797 -0.19633 3.91308 0
M  V30 9603 H 918.494 0.183871 4.00578 0
M  V30 9604 H 915.084 1.61707 3.96924 0
M  V30 9605 H 919.268 2.55536 4.25459 0
M  V30 9606 H 914.524 3.89117 4.71591 0
M  V30 9607 H 918.698 4.83221 5.01468 0
M  V30 9608 H 916.325 5.50535 5.24229 0
M  V30 9609 N 917.9 -1.47166 0.563914 0
M  V30 9610 C 918.85 -2.27116 -0.20055 0
M  V30 9611 C 919.834 -1.34756 -0.879177 0
M  V30 9612 O 921.026 -1.59064 -0.776377 0
M  V30 9613 C 918.155 -3.20676 -1.22565 0
M  V30 9614 C 917.241 -4.20517 -0.550092 0
M  V30 9615 N 917.632 -5.04343 0.383662 0
M  V30 9616 C 915.93 -4.38708 -0.803186 0
M  V30 9617 C 916.631 -5.76491 0.776718 0
M  V30 9618 N 915.607 -5.43444 0.130047 0
M  V30 9619 H 919.409 -2.89312 0.517275 0
M  V30 9620 H 916.923 -1.57787 0.384334 0
M  V30 9621 H 918.92 -3.76643 -1.78733 0
M  V30 9622 H 917.58 -2.60038 -1.94449 0
M  V30 9623 H 918.591 -5.1232 0.758192 0
M  V30 9624 H 915.268 -3.89235 -1.51003 0
M  V30 9625 H 916.658 -6.5391 1.54437 0
M  V30 9626 O 919.417 -0.442777 -1.55312 0
M  V30 9627 H 920.108 0.0896089 -1.93493 0
M  V30 END ATOM
M  V30 BEGIN BOND
M  V30 END BOND
M  V30 END CTAB
M  END
$$$$
