drugbank_target|P16410 Cytotoxic T-lymphocyte protein 4 (DB06186; DB11771)
 OpenBabel12092119423D

  0  0  0     0  0            999 V3000
M  V30 BEGIN CTAB
M  V30 COUNTS 3473 3517 0 0 0
M  V30 BEGIN ATOM
M  V30 1 H -0.908 1.98254 -0.117106 0
M  V30 2 N 0 1.576 0 0
M  V30 3 C 0.933 2.03868 1.02534 0
M  V30 4 C 1.911 0.928543 1.3348 0
M  V30 5 O 3.095 1.19667 1.45644 0
M  V30 6 C 0.222 2.43627 2.35294 0
M  V30 7 C -0.732 3.65373 2.2001 0
M  V30 8 S 0.101 5.13292 1.52614 0
M  V30 9 C 1.257 5.56322 2.86805 0
M  V30 10 H 1.49 2.90518 0.631377 0
M  V30 11 H -0.977 1.52953 0.210867 0
M  V30 12 H 0.981 2.67203 3.11629 0
M  V30 13 H -0.358 1.57376 2.7183 0
M  V30 14 H -1.165 3.90944 3.18086 0
M  V30 15 H -1.563 3.418 1.51819 0
M  V30 16 H 0.729 5.58782 3.83104 0
M  V30 17 H 1.672 6.56266 2.65933 0
M  V30 18 H 2.08 4.83886 2.90714 0
M  V30 19 N 1.4781 -0.272755 1.55222 0
M  V30 20 C 2.4411 -1.32041 1.87344 0
M  V30 21 C 3.4411 -1.42342 0.74803 0
M  V30 22 O 4.6311 -1.41488 1.0162 0
M  V30 23 C 1.7631 -2.70173 2.07893 0
M  V30 24 H 2.9561 -1.04789 2.80997 0
M  V30 25 H 0.5091 -0.51083 1.47717 0
M  V30 26 H 1.2441 -3.02605 1.16622 0
M  V30 27 H 1.0291 -2.64082 2.89833 0
M  V30 28 H 2.5191 -3.45869 2.34017 0
M  V30 29 N 2.9562 -1.48159 -0.537278 0
M  V30 30 C 4.1962 -1.57397 -1.30405 0
M  V30 31 C 4.5602 -0.239202 -1.90504 0
M  V30 32 O 5.7612 -0.206528 -2.68005 0
M  V30 33 C 4.0322 -2.6754 -2.36974 0
M  V30 34 S 5.5912 -2.96496 -3.23475 0
M  V30 35 H 2.4092 -0.555577 -0.443684 0
M  V30 36 H 5.0112 -1.85644 -0.612912 0
M  V30 37 H 3.7152 -3.63092 -1.91291 0
M  V30 38 H 3.2462 -2.41172 -3.10805 0
M  V30 39 H 5.2612 -2.35234 -4.36897 0
M  V30 40 N 4.4343 0.785586 -1.36625 0
M  V30 41 C 5.3643 1.91259 -1.33949 0
M  V30 42 C 6.3453 1.68795 -0.210325 0
M  V30 43 O 7.5303 1.89854 -0.408561 0
M  V30 44 C 4.6603 3.28339 -1.13186 0
M  V30 45 C 3.6143 3.65335 -2.22967 0
M  V30 46 C 2.9403 5.00806 -1.87342 0
M  V30 47 C 4.2403 3.7352 -3.65075 0
M  V30 48 H 5.9343 1.93755 -2.28253 0
M  V30 49 H 3.4803 0.930788 -1.09874 0
M  V30 50 H 5.4333 4.06804 -1.09948 0
M  V30 51 H 4.1573 3.2624 -0.153332 0
M  V30 52 H 2.8163 2.89169 -2.25337 0
M  V30 53 H 2.4643 4.95233 -0.880545 0
M  V30 54 H 2.1643 5.26529 -2.60846 0
M  V30 55 H 3.6883 5.81687 -1.85667 0
M  V30 56 H 5.1023 4.42168 -3.64911 0
M  V30 57 H 3.4993 4.10731 -4.37516 0
M  V30 58 H 4.5693 2.74527 -3.99703 0
M  V30 59 N 5.9124 1.20967 1.01018 0
M  V30 60 C 7.1604 1.02172 1.74371 0
M  V30 61 C 7.4814 -0.446414 1.89821 0
M  V30 62 O 6.7514 -1.32234 1.44537 0
M  V30 63 H 5.3314 0.375066 0.646014 0
M  V30 64 H 7.9934 1.52187 1.21758 0
M  V30 65 H 7.0894 1.48538 2.74487 0
M  V30 66 N 7.3905 -1.2043 1.01659 0
M  V30 67 C 8.6375 -1.89797 0.705917 0
M  V30 68 C 8.9655 -1.78848 -0.764439 0
M  V30 69 O 8.2205 -1.16694 -1.57102 0
M  V30 70 C 8.5195 -3.40464 1.08714 0
M  V30 71 C 8.1855 -3.71614 2.5537 0
M  V30 72 C 6.8475 -3.79826 2.95441 0
M  V30 73 C 9.1995 -3.85915 3.50313 0
M  V30 74 C 6.5275 -3.99797 4.29394 0
M  V30 75 C 8.8795 -4.07396 4.83954 0
M  V30 76 C 7.5435 -4.13837 5.23732 0
M  V30 77 H 6.8135 -0.694518 0.258313 0
M  V30 78 H 9.4605 -1.42691 1.27717 0
M  V30 79 H 7.7655 -3.89385 0.434309 0
M  V30 80 H 9.4625 -3.92433 0.824461 0
M  V30 81 H 6.0525 -3.65822 2.23321 0
M  V30 82 H 10.2365 -3.78926 3.20513 0
M  V30 83 H 5.4925 -4.03018 4.59768 0
M  V30 84 H 9.6665 -4.17404 5.57447 0
M  V30 85 H 7.2935 -4.29064 6.27541 0
M  V30 86 N 8.8686 -0.792821 -1.36206 0
M  V30 87 C 9.8006 -0.151469 -2.28699 0
M  V30 88 C 10.8136 0.641262 -1.49638 0
M  V30 89 O 12.0026 0.475885 -1.72039 0
M  V30 90 C 9.1026 0.808424 -3.29117 0
M  V30 91 C 8.2756 0.0650202 -4.37352 0
M  V30 92 C 7.3346 0.941358 -5.17711 0
M  V30 93 O 6.3606 0.397352 -5.67811 0
M  V30 94 N 7.5626 2.2652 -5.3448 0
M  V30 95 H 10.3276 -0.945982 -2.84379 0
M  V30 96 H 7.8886 -0.647032 -1.48409 0
M  V30 97 H 9.8806 1.3986 -3.79765 0
M  V30 98 H 8.4506 1.5038 -2.74052 0
M  V30 99 H 7.6706 -0.706255 -3.87822 0
M  V30 100 H 8.9586 -0.447847 -5.06825 0
M  V30 101 H 8.3566 2.73128 -4.95396 0
M  V30 102 H 6.9136 2.80493 -5.88359 0
M  V30 103 N 10.3467 1.47872 -0.545128 0
M  V30 104 C 11.7627 1.5829 -0.204032 0
M  V30 105 C 11.9627 1.54529 1.29317 0
M  V30 106 O 11.0187 1.44232 2.07252 0
M  V30 107 C 12.3317 2.89304 -0.819987 0
M  V30 108 C 13.8797 3.02864 -0.790105 0
M  V30 109 C 14.3547 4.3656 -1.38491 0
M  V30 110 N 15.8457 4.43165 -1.34755 0
M  V30 111 C 16.5807 5.45153 -1.77753 0
M  V30 112 N 16.0767 6.54016 -2.2855 0
M  V30 113 N 17.8697 5.36125 -1.68897 0
M  V30 114 H 10.0207 1.4856 -1.51802 0
M  V30 115 H 12.2837 0.706305 -0.632327 0
M  V30 116 H 11.9897 2.97757 -1.87173 0
M  V30 117 H 11.8637 3.75957 -0.305915 0
M  V30 118 H 14.2507 2.94014 0.252913 0
M  V30 119 H 14.3317 2.17782 -1.34181 0
M  V30 120 H 13.9757 4.46164 -2.42693 0
M  V30 121 H 13.9057 5.20353 -0.808754 0
M  V30 122 H 16.3967 3.65083 -0.975855 0
M  V30 123 H 16.7097 7.27994 -2.59314 0
M  V30 124 H 15.0547 6.54938 -2.32553 0
M  V30 125 H 18.2457 4.49975 -1.28998 0
M  V30 126 H 18.4187 6.15472 -2.02726 0
M  V30 127 N 11.8248 0.280983 1.55075 0
M  V30 128 C 12.7748 -0.618585 2.19448 0
M  V30 129 C 13.7588 -1.11401 1.16098 0
M  V30 130 O 14.9508 -1.0581 1.41891 0
M  V30 131 C 12.0798 -1.79951 2.92357 0
M  V30 132 C 11.1658 -1.321 4.03002 0
M  V30 133 N 11.5568 -0.559044 5.02701 0
M  V30 134 C 9.8548 -1.60346 4.16179 0
M  V30 135 C 10.5558 -0.306722 5.80891 0
M  V30 136 N 9.5318 -0.880825 5.36416 0
M  V30 137 H 13.3338 -0.0286638 2.93886 0
M  V30 138 H 10.8478 0.0848104 1.62178 0
M  V30 139 H 12.8448 -2.45531 3.36927 0
M  V30 140 H 11.5048 -2.39333 2.19431 0
M  V30 141 H 12.5158 -0.205827 5.17491 0
M  V30 142 H 9.1928 -2.20621 3.54447 0
M  V30 143 H 10.5828 0.30391 6.71212 0
M  V30 144 N 13.3029 -1.57598 0.00835791 0
M  V30 145 C 14.2499 -2.08945 -0.980346 0
M  V30 146 C 15.2199 -0.986738 -1.33614 0
M  V30 147 O 16.4049 -1.25968 -1.43306 0
M  V30 148 C 13.5449 -2.60425 -2.26435 0
M  V30 149 C 12.6579 -3.84628 -1.96685 0
M  V30 150 C 11.7929 -4.24579 -3.19228 0
M  V30 151 C 10.8319 -5.41596 -2.85202 0
M  V30 152 N 9.9689 -5.768 -4.00307 0
M  V30 153 H 14.8089 -2.93148 -0.535551 0
M  V30 154 H 12.3459 -1.44912 -0.252776 0
M  V30 155 H 14.3039 -2.88354 -3.01509 0
M  V30 156 H 12.9339 -1.79083 -2.68568 0
M  V30 157 H 11.9859 -3.63556 -1.11942 0
M  V30 158 H 13.2979 -4.69796 -1.67611 0
M  V30 159 H 12.4519 -4.53834 -4.02641 0
M  V30 160 H 11.1909 -3.38137 -3.51447 0
M  V30 161 H 10.1959 -5.12056 -2.00198 0
M  V30 162 H 11.4209 -6.29721 -2.54222 0
M  V30 163 H 9.3669 -4.93316 -4.32407 0
M  V30 164 H 9.2839 -6.5656 -3.74786 0
M  V30 165 H 10.5519 -6.10652 -4.84484 0
M  V30 166 N 14.781 0.264519 -1.55364 0
M  V30 167 C 15.744 1.31046 -1.88042 0
M  V30 168 C 16.744 1.41943 -0.755569 0
M  V30 169 O 17.934 1.40947 -1.02369 0
M  V30 170 C 15.066 2.69067 -2.09323 0
M  V30 171 H 16.259 1.03297 -2.81549 0
M  V30 172 H 13.812 0.502989 -1.47986 0
M  V30 173 H 14.547 3.01982 -1.18226 0
M  V30 174 H 14.332 2.62542 -2.91229 0
M  V30 175 H 15.822 3.44623 -2.35848 0
M  V30 176 N 16.2591 1.48442 0.529413 0
M  V30 177 C 17.1911 1.59095 1.64989 0
M  V30 178 C 18.2041 0.475212 1.5571 0
M  V30 179 O 19.3931 0.746081 1.6216 0
M  V30 180 C 16.4931 1.50518 3.0364 0
M  V30 181 C 15.6661 2.77142 3.38395 0
M  V30 182 C 14.7251 2.62012 4.56329 0
M  V30 183 O 13.7511 3.35898 4.59522 0
M  V30 184 N 14.9531 1.71667 5.54536 0
M  V30 185 H 17.7181 2.55723 1.56287 0
M  V30 186 H 15.2791 1.45173 0.716697 0
M  V30 187 H 17.2711 1.38091 3.80412 0
M  V30 188 H 15.8411 0.618627 3.06418 0
M  V30 189 H 15.0611 3.0413 2.50796 0
M  V30 190 H 16.3491 3.61146 3.58401 0
M  V30 191 H 15.7471 1.10841 5.54735 0
M  V30 192 H 14.3041 1.65178 6.30523 0
M  V30 193 N 17.7372 -0.778329 1.37039 0
M  V30 194 C 18.6672 -1.90546 1.34962 0
M  V30 195 C 19.6482 -1.68681 0.219274 0
M  V30 196 O 20.8332 -1.89634 0.418624 0
M  V30 197 C 17.9632 -3.27734 1.14925 0
M  V30 198 C 16.9172 -3.64147 2.24902 0
M  V30 199 C 16.2432 -4.99806 1.89996 0
M  V30 200 C 17.5432 -3.71579 3.67051 0
M  V30 201 H 19.2372 -1.92541 2.29277 0
M  V30 202 H 16.7832 -0.924948 1.10366 0
M  V30 203 H 18.7362 -4.06215 1.12104 0
M  V30 204 H 17.4602 -3.26154 0.170631 0
M  V30 205 H 16.1192 -2.8797 2.26868 0
M  V30 206 H 15.7672 -4.94759 0.906796 0
M  V30 207 H 15.4672 -5.25139 2.63634 0
M  V30 208 H 16.9912 -5.80694 1.88749 0
M  V30 209 H 18.4052 -4.40227 3.67251 0
M  V30 210 H 16.8022 -4.08405 4.39688 0
M  V30 211 H 17.8722 -2.72404 4.01154 0
M  V30 212 N 19.2153 -1.21501 -1.00376 0
M  V30 213 C 20.1633 -0.972442 -2.11297 0
M  V30 214 C 21.1573 0.080731 -1.69208 0
M  V30 215 O 22.3633 -0.0707666 -1.79861 0
M  V30 216 H 18.7383 -0.297218 -0.690772 0
M  V30 217 H 20.7093 -1.91394 -2.28934 0
M  V30 218 C 19.4583 -0.555065 -3.43241 0
M  V30 219 H 18.7813 -1.35709 -3.76062 0
M  V30 220 H 20.2213 -0.424664 -4.21868 0
M  V30 221 C 18.6803 0.734147 -3.28804 0
M  V30 222 O 19.2103 1.78937 -3.59645 0
M  V30 223 N 17.4163 0.701133 -2.82015 0
M  V30 224 H 16.9633 -0.157874 -2.57116 0
M  V30 225 H 16.9213 1.56403 -2.72737 0
M  V30 226 N 20.6934 1.19889 -1.02296 0
M  V30 227 C 21.6234 2.25141 -0.619174 0
M  V30 228 C 22.6044 1.66051 0.368915 0
M  V30 229 O 23.7894 1.92546 0.252941 0
M  V30 230 C 20.9194 3.4728 0.0368783 0
M  V30 231 C 19.8734 4.19005 -0.872865 0
M  V30 232 C 19.1994 5.34637 -0.0822402 0
M  V30 233 C 20.4994 4.74452 -2.18387 0
M  V30 234 H 22.1934 2.59171 -1.49903 0
M  V30 235 H 19.7394 1.24579 -0.722222 0
M  V30 236 H 21.6924 4.20098 0.330958 0
M  V30 237 H 20.4164 3.12433 0.95149 0
M  V30 238 H 19.0754 3.48061 -1.15105 0
M  V30 239 H 18.7234 4.96034 0.83422 0
M  V30 240 H 18.4234 5.83557 -0.688149 0
M  V30 241 H 19.9474 6.10255 0.205238 0
M  V30 242 H 21.3614 5.39055 -1.95172 0
M  V30 243 H 19.7584 5.33834 -2.74119 0
M  V30 244 H 20.8284 3.92844 -2.84257 0
M  V30 245 N 22.1715 0.800033 1.35784 0
M  V30 246 C 23.1345 0.211565 2.28221 0
M  V30 247 C 24.1345 -0.59728 1.49296 0
M  V30 248 O 25.3245 -0.416721 1.69142 0
M  V30 249 C 22.4565 -0.705846 3.33513 0
M  V30 250 H 23.6495 1.02677 2.81776 0
M  V30 251 H 21.2025 0.570211 1.45528 0
M  V30 252 H 21.9375 -1.54498 2.85133 0
M  V30 253 H 21.7225 -0.127655 3.91892 0
M  V30 254 H 23.2125 -1.11211 4.02519 0
M  V30 255 N 23.6496 -1.47581 0.552962 0
M  V30 256 C 24.8776 -2.06875 0.0320556 0
M  V30 257 C 25.2926 -1.40625 -1.25976 0
M  V30 258 O 24.6496 -0.501349 -1.75479 0
M  V30 259 C 24.7006 -3.61092 -0.17167 0
M  V30 260 O 24.4216 -4.24858 1.06899 0
M  V30 261 C 25.9226 -4.37242 -0.730344 0
M  V30 262 H 23.1426 -0.669561 0.043915 0
M  V30 263 H 25.6866 -1.89646 0.765163 0
M  V30 264 H 23.8416 -3.7785 -0.854894 0
M  V30 265 H 24.2556 -5.17334 0.864059 0
M  V30 266 H 25.7296 -5.45842 -0.822203 0
M  V30 267 H 26.2066 -4.03235 -1.74064 0
M  V30 268 H 26.8126 -4.25219 -0.0829543 0
M  V30 269 N 25.1277 -0.289203 -1.54924 0
M  V30 270 C 26.5437 0.0645403 -1.59469 0
M  V30 271 C 26.7437 1.53419 -1.30632 0
M  V30 272 O 25.7997 2.2852 -1.074 0
M  V30 273 C 27.1127 -0.32278 -2.98963 0
M  V30 274 C 28.6607 -0.270564 -3.11828 0
M  V30 275 C 29.1357 -0.632532 -4.53611 0
M  V30 276 N 30.6267 -0.584617 -4.59496 0
M  V30 277 C 31.3617 -0.837314 -5.67254 0
M  V30 278 N 30.8577 -1.15536 -6.83098 0
M  V30 279 N 32.6507 -0.765166 -5.56868 0
M  V30 280 H 24.8017 -1.24714 -1.71931 0
M  V30 281 H 27.0647 -0.504809 -0.802416 0
M  V30 282 H 26.7707 -1.34541 -3.24948 0
M  V30 283 H 26.6447 0.32944 -3.75759 0
M  V30 284 H 29.0317 0.742805 -2.85598 0
M  V30 285 H 29.1127 -0.957242 -2.37214 0
M  V30 286 H 28.7567 -1.64365 -4.80569 0
M  V30 287 H 28.6867 0.07609 -5.26545 0
M  V30 288 H 31.1777 -0.349248 -3.76283 0
M  V30 289 H 31.4907 -1.33447 -7.61191 0
M  V30 290 H 29.8357 -1.19328 -6.84679 0
M  V30 291 H 33.0267 -0.516432 -4.65243 0
M  V30 292 H 33.1997 -0.965477 -6.40767 0
M  V30 293 N 26.6058 1.57591 -0.0167156 0
M  V30 294 C 27.8338 1.95575 0.675128 0
M  V30 295 C 28.2488 0.892542 1.6637 0
M  V30 296 O 27.6058 -0.126912 1.82058 0
M  V30 297 C 27.6568 3.33608 1.39239 0
M  V30 298 O 27.3778 4.3585 0.443444 0
M  V30 299 C 28.8788 3.86151 2.17721 0
M  V30 300 H 26.0988 0.644423 0.186978 0
M  V30 301 H 28.6428 2.0437 -0.0728 0
M  V30 302 H 26.7978 3.2607 2.09182 0
M  V30 303 H 27.2118 5.158 0.951358 0
M  V30 304 H 28.6858 4.85114 2.63379 0
M  V30 305 H 29.1628 3.19738 3.01105 0
M  V30 306 H 29.7688 3.96918 1.52761 0
M  V30 307 N 28.0839 -0.256276 1.55502 0
M  V30 308 C 29.3299 -0.982884 1.78076 0
M  V30 309 C 29.6849 -1.83319 0.584109 0
M  V30 310 O 28.9779 -1.86875 -0.422877 0
M  V30 311 C 29.1719 -1.88432 3.03691 0
M  V30 312 C 29.0009 -1.12276 4.35459 0
M  V30 313 C 27.7709 -0.831647 4.98409 0
M  V30 314 C 29.9689 -0.504933 5.11815 0
M  V30 315 N 27.9509 -0.0450423 6.13883 0
M  V30 316 C 29.3219 0.146696 6.19826 0
M  V30 317 C 31.3769 -0.414455 4.96172 0
M  V30 318 C 30.0799 0.880103 7.13895 0
M  V30 319 C 32.1059 0.305398 5.90611 0
M  V30 320 C 31.4679 0.945701 6.98023 0
M  V30 321 H 27.5669 -0.341084 0.703694 0
M  V30 322 H 30.1509 -0.256909 1.92998 0
M  V30 323 H 28.3219 -2.58241 2.90114 0
M  V30 324 H 30.0539 -2.54579 3.14598 0
M  V30 325 H 26.8089 -1.14111 4.59647 0
M  V30 326 H 27.2329 0.336079 6.76165 0
M  V30 327 H 31.8749 -0.895163 4.13215 0
M  V30 328 H 29.5929 1.37244 7.9636 0
M  V30 329 H 33.1789 0.375946 5.80584 0
M  V30 330 H 32.0589 1.49383 7.6984 0
M  V30 331 N 29.562 -1.4872 -0.521534 0
M  V30 332 C 30.973 -1.50607 -1.10337 0
M  V30 333 C 31.324 -0.280612 -1.94183 0
M  V30 334 O 30.449 0.611507 -2.0758 0
M  V30 335 C 31.044 -2.72903 -2.00772 0
M  V30 336 C 29.603 -2.77634 -2.54158 0
M  V30 337 C 28.75 -2.44241 -1.31307 0
M  V30 338 H 31.701 -1.55714 -0.306388 0
M  V30 339 H 31.722 -2.519 -2.85178 0
M  V30 340 H 31.234 -3.62077 -1.39721 0
M  V30 341 H 29.335 -1.92689 -3.18907 0
M  V30 342 H 29.448 -3.79283 -2.92714 0
M  V30 343 H 27.812 -1.95577 -1.63161 0
M  V30 344 H 28.595 -3.35666 -0.719943 0
M  V30 345 N 31.0401 0.771051 -1.3745 0
M  V30 346 C 32.2801 1.54264 -1.34096 0
M  V30 347 C 32.6441 1.91858 0.0737639 0
M  V30 348 O 33.8451 2.67797 0.23203 0
M  V30 349 C 32.1161 2.77326 -2.25445 0
M  V30 350 S 33.6751 3.67383 -2.39948 0
M  V30 351 H 30.4931 0.528122 -0.476034 0
M  V30 352 H 33.0951 0.906633 -1.73206 0
M  V30 353 H 31.7991 2.47788 -3.27153 0
M  V30 354 H 31.3301 3.45886 -1.87421 0
M  V30 355 H 33.3451 4.69334 -1.61059 0
M  V30 356 N 32.5182 1.22032 0.997298 0
M  V30 357 C 33.7462 1.06841 1.7718 0
M  V30 358 C 34.1612 -0.381325 1.84909 0
M  V30 359 O 33.5182 -1.26437 1.31605 0
M  V30 360 C 33.5692 1.66814 3.20711 0
M  V30 361 O 33.2902 3.06116 3.13408 0
M  V30 362 C 34.7912 1.56838 4.14628 0
M  V30 363 H 32.0112 0.374782 0.556578 0
M  V30 364 H 34.5552 1.61532 1.2541 0
M  V30 365 H 32.7102 1.16196 3.69564 0
M  V30 366 H 33.1242 3.34926 4.0364 0
M  V30 367 H 34.5982 2.03532 5.13107 0
M  V30 368 H 35.0752 0.524155 4.36061 0
M  V30 369 H 35.6812 2.06741 3.7167 0
M  V30 370 N 33.9963 -1.19345 1.0293 0
M  V30 371 C 34.9263 -2.2481 0.631105 0
M  V30 372 C 35.9073 -1.66245 -0.360104 0
M  V30 373 O 37.0923 -1.92677 -0.242726 0
M  V30 374 C 34.2223 -3.47295 -0.0184607 0
M  V30 375 C 33.1763 -4.18536 0.895073 0
M  V30 376 C 32.5023 -5.34586 0.110592 0
M  V30 377 C 33.8023 -4.73287 2.209 0
M  V30 378 H 35.4963 -2.58372 1.51275 0
M  V30 379 H 33.0423 -1.24194 0.728818 0
M  V30 380 H 34.9953 -4.20268 -0.308675 0
M  V30 381 H 33.7193 -3.12933 -0.934907 0
M  V30 382 H 32.3783 -3.47446 1.16949 0
M  V30 383 H 32.0263 -4.96469 -0.807902 0
M  V30 384 H 31.7263 -5.83183 0.719087 0
M  V30 385 H 33.2503 -6.10355 -0.172871 0
M  V30 386 H 34.6643 -5.38013 1.98028 0
M  V30 387 H 33.0613 -5.32373 2.76946 0
M  V30 388 H 34.1313 -3.91331 2.86336 0
M  V30 389 N 35.4744 -0.807222 -1.35358 0
M  V30 390 C 36.4044 -0.232509 -2.3234 0
M  V30 391 C 37.3854 0.642386 -1.57504 0
M  V30 392 O 38.5704 0.572526 -1.85569 0
M  V30 393 C 35.7004 0.619238 -3.41735 0
M  V30 394 C 34.6544 -0.157215 -4.27711 0
M  V30 395 C 33.9804 0.816273 -5.28433 0
M  V30 396 C 35.2804 -1.35656 -5.04376 0
M  V30 397 H 36.9744 -1.04276 -2.80654 0
M  V30 398 H 34.5204 -0.50288 -1.34934 0
M  V30 399 H 36.4734 1.03137 -4.08584 0
M  V30 400 H 35.1974 1.46239 -2.92031 0
M  V30 401 H 33.8564 -0.550525 -3.62443 0
M  V30 402 H 33.5044 1.65494 -4.74996 0
M  V30 403 H 33.2044 0.301067 -5.86828 0
M  V30 404 H 34.7284 1.22659 -5.98153 0
M  V30 405 H 36.1424 -1.01927 -5.64166 0
M  V30 406 H 34.5394 -1.8063 -5.7227 0
M  V30 407 H 35.6094 -2.14288 -4.34981 0
M  V30 408 N 36.9525 1.47285 -0.560781 0
M  V30 409 C 38.1995 2.02464 -0.038062 0
M  V30 410 C 38.5275 1.43474 1.31322 0
M  V30 411 O 37.7825 0.581311 1.86867 0
M  V30 412 C 38.0815 3.57258 0.100784 0
M  V30 413 C 37.7475 4.35184 -1.18007 0
M  V30 414 C 36.4095 4.56194 -1.53103 0
M  V30 415 C 38.7615 4.80098 -2.02867 0
M  V30 416 C 36.0895 5.19367 -2.729 0
M  V30 417 C 38.4415 5.44593 -3.21871 0
M  V30 418 C 37.1055 5.63835 -3.57276 0
M  V30 419 H 36.3755 0.740869 -0.0139279 0
M  V30 420 H 39.0225 1.76916 -0.733012 0
M  V30 421 H 37.3275 3.81819 0.878724 0
M  V30 422 H 39.0245 3.97606 0.520639 0
M  V30 423 H 35.6145 4.19113 -0.8968 0
M  V30 424 H 39.7985 4.63642 -1.7706 0
M  V30 425 H 35.0545 5.32459 -3.00496 0
M  V30 426 H 39.2285 5.78358 -3.87911 0
M  V30 427 H 36.8555 6.12557 -4.50197 0
M  V30 428 N 38.4306 0.297415 1.54768 0
M  V30 429 C 39.6776 -0.312913 2.00068 0
M  V30 430 C 40.0056 -1.54171 1.18582 0
M  V30 431 O 39.2606 -1.94108 0.249133 0
M  V30 432 C 39.5596 -0.717561 3.50123 0
M  V30 433 C 39.2256 0.409095 4.4904 0
M  V30 434 C 37.8876 0.718399 4.75807 0
M  V30 435 C 40.2396 1.16717 5.07963 0
M  V30 436 C 37.5676 1.78896 5.5876 0
M  V30 437 C 39.9196 2.22762 5.92081 0
M  V30 438 C 38.5836 2.54303 6.1716 0
M  V30 439 H 37.8536 -0.114503 0.7321 0
M  V30 440 H 40.5006 0.415767 1.86932 0
M  V30 441 H 38.8056 -1.52627 3.60849 0
M  V30 442 H 40.5026 -1.20091 3.82595 0
M  V30 443 H 37.0926 0.157918 4.28309 0
M  V30 444 H 41.2766 0.941466 4.87289 0
M  V30 445 H 36.5326 2.0381 5.7643 0
M  V30 446 H 40.7066 2.81962 6.36765 0
M  V30 447 H 38.3336 3.3739 6.81229 0
M  V30 448 N 39.9087 -1.5758 0.0250728 0
M  V30 449 C 40.8387 -2.13007 -0.956575 0
M  V30 450 C 41.8197 -1.0452 -1.342 0
M  V30 451 O 43.0047 -1.32332 -1.42133 0
M  V30 452 C 40.1347 -2.65386 -2.24026 0
M  V30 453 C 39.0887 -3.78623 -1.99571 0
M  V30 454 C 38.4147 -4.17414 -3.3417 0
M  V30 455 C 39.7147 -5.04867 -1.33814 0
M  V30 456 H 41.4087 -2.9528 -0.494991 0
M  V30 457 H 38.9547 -1.42042 -0.236651 0
M  V30 458 H 40.9077 -3.02794 -2.93076 0
M  V30 459 H 39.6317 -1.80268 -2.72343 0
M  V30 460 H 38.2907 -3.41646 -1.32941 0
M  V30 461 H 37.9387 -3.29284 -3.80238 0
M  V30 462 H 37.6387 -4.93719 -3.18615 0
M  V30 463 H 39.1627 -4.57402 -4.04495 0
M  V30 464 H 40.5767 -5.39888 -1.92857 0
M  V30 465 H 38.9737 -5.86144 -1.28669 0
M  V30 466 H 40.0437 -4.83904 -0.310561 0
M  V30 467 N 41.3868 0.248026 -1.55636 0
M  V30 468 C 42.3168 1.31079 -1.93237 0
M  V30 469 C 43.2978 1.50264 -0.797174 0
M  V30 470 O 44.4828 1.62891 -1.05737 0
M  V30 471 C 41.6128 2.66575 -2.22609 0
M  V30 472 C 40.5668 2.62087 -3.3837 0
M  V30 473 C 39.8928 4.01369 -3.53281 0
M  V30 474 C 41.1928 2.19171 -4.7409 0
M  V30 475 H 42.8868 0.998556 -2.82257 0
M  V30 476 H 40.4328 0.47891 -1.35803 0
M  V30 477 H 42.3858 3.41057 -2.47503 0
M  V30 478 H 41.1098 2.99432 -1.30414 0
M  V30 479 H 39.7688 1.90063 -3.13483 0
M  V30 480 H 39.4168 4.31489 -2.58508 0
M  V30 481 H 39.1168 3.99254 -4.31127 0
M  V30 482 H 40.6408 4.77552 -3.80495 0
M  V30 483 H 42.0548 2.83384 -4.98363 0
M  V30 484 H 40.4518 2.2817 -5.5503 0
M  V30 485 H 41.5218 1.14336 -4.71227 0
M  V30 486 N 42.8649 1.48995 0.513639 0
M  V30 487 C 44.1119 1.57843 1.26854 0
M  V30 488 C 44.4399 0.259501 1.92761 0
M  V30 489 O 43.6949 -0.75159 1.80692 0
M  V30 490 C 43.9939 2.67756 2.36731 0
M  V30 491 C 43.6599 4.09669 1.88368 0
M  V30 492 C 42.3219 4.48291 1.74896 0
M  V30 493 C 44.6739 4.98537 1.52021 0
M  V30 494 C 42.0019 5.73568 1.23438 0
M  V30 495 C 44.3539 6.24319 1.0202 0
M  V30 496 C 43.0179 6.61783 0.871778 0
M  V30 497 H 42.2879 0.577587 0.464192 0
M  V30 498 H 44.9349 1.82778 0.571366 0
M  V30 499 H 43.2399 2.36743 3.12185 0
M  V30 500 H 44.9369 2.71813 2.9482 0
M  V30 501 H 41.5269 3.79176 1.99808 0
M  V30 502 H 45.7109 4.69363 1.61281 0
M  V30 503 H 40.9669 6.01304 1.10648 0
M  V30 504 H 45.1409 6.92566 0.729722 0
M  V30 505 H 42.7679 7.5874 0.470852 0
M  V30 506 N 44.343 -0.763751 1.37857 0
M  V30 507 C 45.592 -1.51789 1.32827 0
M  V30 508 C 45.905 -1.95426 -0.0823719 0
M  V30 509 O 47.111 -2.70298 -0.255172 0
M  V30 510 C 45.567 -2.74133 2.33193 0
M  V30 511 C 45.175 -2.37562 3.79827 0
M  V30 512 C 46.919 -3.52054 2.37188 0
M  V30 513 C 44.826 -3.56456 4.71904 0
M  V30 514 H 43.756 -0.569896 0.493695 0
M  V30 515 H 46.407 -0.835822 1.63359 0
M  V30 516 H 44.789 -3.4427 1.9569 0
M  V30 517 H 45.963 -1.75157 4.26212 0
M  V30 518 H 44.278 -1.72798 3.78853 0
M  V30 519 H 46.875 -4.40437 3.03182 0
M  V30 520 H 47.218 -3.92486 1.38782 0
M  V30 521 H 47.751 -2.88921 2.7344 0
M  V30 522 H 44.49 -3.21099 5.71468 0
M  V30 523 H 44.01 -4.17938 4.30218 0
M  V30 524 H 45.689 -4.23168 4.89426 0
M  V30 525 N 45.8211 -1.22559 -0.990812 0
M  V30 526 C 47.2321 -1.04791 -1.54518 0
M  V30 527 C 47.5831 0.387998 -1.92325 0
M  V30 528 O 46.7081 1.27328 -1.74976 0
M  V30 529 C 47.3031 -1.896 -2.80779 0
M  V30 530 C 45.8621 -1.76124 -3.32652 0
M  V30 531 C 45.0091 -1.8594 -2.05722 0
M  V30 532 H 47.9601 -1.36374 -0.811662 0
M  V30 533 H 47.9811 -1.41464 -3.53225 0
M  V30 534 H 47.4931 -2.94101 -2.53231 0
M  V30 535 H 45.5941 -0.743643 -3.65104 0
M  V30 536 H 45.7071 -2.58913 -4.03114 0
M  V30 537 H 44.0711 -1.29403 -2.19379 0
M  V30 538 H 44.8541 -2.91976 -1.80568 0
M  V30 539 N 47.2992 1.18797 -1.03562 0
M  V30 540 C 48.5452 1.8893 -0.737113 0
M  V30 541 C 48.8782 1.79837 0.732956 0
M  V30 542 O 48.1532 1.19525 1.5344 0
M  V30 543 C 48.4362 3.39607 -1.19745 0
M  V30 544 C 48.2892 3.57537 -2.72924 0
M  V30 545 C 49.6082 4.33069 -0.783526 0
M  V30 546 H 46.7272 0.686057 -0.269249 0
M  V30 547 H 49.3692 1.39797 -1.28673 0
M  V30 548 H 47.5192 3.81583 -0.729855 0
M  V30 549 H 49.1912 3.24688 -3.27682 0
M  V30 550 H 47.4342 3.00363 -3.12993 0
M  V30 551 H 48.1052 4.63238 -3.00191 0
M  V30 552 H 50.5812 3.98846 -1.18581 0
M  V30 553 H 49.4572 5.3707 -1.13343 0
M  V30 554 H 49.7182 4.40986 0.313681 0
M  V30 555 N 48.7773 0.814389 1.34928 0
M  V30 556 C 50.0243 0.398423 1.98542 0
M  V30 557 C 50.3523 -1.03638 1.64589 0
M  V30 558 O 49.6073 -1.73509 0.90516 0
M  V30 559 C 49.9063 0.537781 3.53331 0
M  V30 560 C 49.5723 1.93704 4.07172 0
M  V30 561 C 48.2343 2.31984 4.21589 0
M  V30 562 C 50.5863 2.85213 4.36237 0
M  V30 563 C 47.9143 3.61125 4.62391 0
M  V30 564 C 50.2663 4.13809 4.78482 0
M  V30 565 C 48.9303 4.52077 4.91104 0
M  V30 566 H 48.2003 0.145793 0.726516 0
M  V30 567 H 50.8473 1.03669 1.61012 0
M  V30 568 H 49.1523 -0.183906 3.91368 0
M  V30 569 H 50.8493 0.196588 4.00518 0
M  V30 570 H 47.4393 1.62966 3.96409 0
M  V30 571 H 51.6233 2.56885 4.24645 0
M  V30 572 H 46.8793 3.90612 4.70353 0
M  V30 573 H 51.0533 4.84811 4.99932 0
M  V30 574 H 48.6803 5.52196 5.22478 0
M  V30 575 N 50.2554 -1.46986 0.568584 0
M  V30 576 C 51.4954 -2.04336 0.0512999 0
M  V30 577 C 51.8594 -1.43214 -1.27881 0
M  V30 578 O 53.0604 -1.91679 -1.88448 0
M  V30 579 C 51.3314 -3.57389 -0.0282328 0
M  V30 580 S 52.8904 -4.36056 -0.489991 0
M  V30 581 H 49.7084 -0.71034 0.0306349 0
M  V30 582 H 52.3104 -1.80212 0.757891 0
M  V30 583 H 51.0144 -3.99395 0.944011 0
M  V30 584 H 50.5454 -3.86028 -0.75803 0
M  V30 585 H 52.5604 -4.6441 -1.74752 0
M  V30 586 N 51.7335 -0.305618 -1.54608 0
M  V30 587 C 52.6805 0.568421 -2.23691 0
M  V30 588 C 53.6505 1.12592 -1.22116 0
M  V30 589 O 54.8355 1.16959 -1.50749 0
M  V30 590 C 51.9755 1.7322 -2.98477 0
M  V30 591 C 51.0885 1.20566 -4.14835 0
M  V30 592 C 50.2235 2.33368 -4.77193 0
M  V30 593 C 49.2625 1.7787 -5.85686 0
M  V30 594 N 48.3995 2.84263 -6.4198 0
M  V30 595 H 53.2395 -0.0272867 -2.97988 0
M  V30 596 H 50.7765 -0.0252363 -1.47078 0
M  V30 597 H 52.7345 2.41675 -3.40072 0
M  V30 598 H 51.3645 2.29947 -2.26548 0
M  V30 599 H 50.4165 0.413223 -3.78149 0
M  V30 600 H 51.7285 0.759417 -4.92985 0
M  V30 601 H 50.8825 3.09761 -5.21664 0
M  V30 602 H 49.6215 2.8132 -3.98385 0
M  V30 603 H 48.6265 0.99968 -5.40635 0
M  V30 604 H 49.8515 1.30816 -6.66381 0
M  V30 605 H 47.7975 3.31541 -5.66053 0
M  V30 606 H 47.7145 2.44149 -7.15491 0
M  V30 607 H 48.9825 3.6054 -6.91109 0
M  V30 608 N 53.2116 1.57565 -0.0334293 0
M  V30 609 C 54.1746 2.09393 0.932048 0
M  V30 610 C 55.1746 1.00986 1.25134 0
M  V30 611 O 56.3646 1.27129 1.19096 0
M  V30 612 C 53.4966 2.56338 2.2473 0
M  V30 613 H 54.6896 2.95984 0.483085 0
M  V30 614 H 52.2426 1.54819 0.21468 0
M  V30 615 H 52.9776 1.7309 2.74245 0
M  V30 616 H 52.7626 3.35542 2.02865 0
M  V30 617 H 54.2526 2.96646 2.93923 0
M  V30 618 N 54.6897 -0.239769 1.55765 0
M  V30 619 C 55.6227 -1.32356 1.85895 0
M  V30 620 C 56.6007 -1.46053 0.714662 0
M  V30 621 O 57.7847 -1.62154 0.961157 0
M  V30 622 C 54.9117 -2.6962 2.04994 0
M  V30 623 C 53.9577 -2.73036 3.27648 0
M  V30 624 S 54.7907 -2.28929 4.84099 0
M  V30 625 C 55.9467 -3.68103 5.06212 0
M  V30 626 H 56.1797 -1.06601 2.77531 0
M  V30 627 H 53.7127 -0.441112 1.47965 0
M  V30 628 H 55.6707 -3.48653 2.16682 0
M  V30 629 H 54.3317 -2.92609 1.14188 0
M  V30 630 H 53.5247 -3.7386 3.38 0
M  V30 631 H 53.1267 -2.02052 3.14723 0
M  V30 632 H 55.4187 -4.63656 4.93993 0
M  V30 633 H 56.3617 -3.6268 6.08168 0
M  V30 634 H 56.7697 -3.60947 4.34025 0
M  V30 635 N 56.1678 -1.49265 -0.50573 0
M  V30 636 C 57.1178 -1.6198 -1.60457 0
M  V30 637 C 58.1018 -0.47568 -1.53708 0
M  V30 638 O 59.2938 -0.728392 -1.61318 0
M  V30 639 C 56.4228 -1.68526 -2.99089 0
M  V30 640 C 55.5088 -2.885 -3.10852 0
M  V30 641 N 55.8998 -4.12635 -2.92517 0
M  V30 642 C 54.1978 -2.86338 -3.41945 0
M  V30 643 C 54.8988 -4.93258 -3.08337 0
M  V30 644 N 53.8748 -4.26533 -3.37003 0
M  V30 645 H 57.6768 -2.55681 -1.44928 0
M  V30 646 H 55.1908 -1.45972 -0.711752 0
M  V30 647 H 57.1878 -1.75732 -3.78053 0
M  V30 648 H 55.8478 -0.759584 -3.1569 0
M  V30 649 H 56.8588 -4.42689 -2.68787 0
M  V30 650 H 53.5358 -2.03129 -3.64753 0
M  V30 651 H 54.9258 -6.01856 -2.98695 0
M  V30 652 N 57.6459 0.756429 -1.3826 0
M  V30 653 C 58.8919 1.51772 -1.34511 0
M  V30 654 C 59.2249 1.94089 0.0656691 0
M  V30 655 O 58.4999 1.65221 1.02626 0
M  V30 656 C 58.7829 2.77226 -2.29821 0
M  V30 657 C 58.6359 2.41065 -3.79747 0
M  V30 658 C 59.9549 3.79236 -2.23312 0
M  V30 659 H 57.0739 0.550578 -0.489931 0
M  V30 660 H 59.7159 0.866607 -1.69086 0
M  V30 661 H 57.8659 3.32784 -2.00467 0
M  V30 662 H 59.5379 1.91303 -4.19763 0
M  V30 663 H 57.7809 1.7356 -3.97567 0
M  V30 664 H 58.4519 3.3081 -4.41892 0
M  V30 665 H 60.9279 3.3321 -2.49219 0
M  V30 666 H 59.8039 4.64714 -2.92116 0
M  V30 667 H 60.0649 4.24615 -1.23102 0
M  V30 668 N 59.124 1.23083 0.984299 0
M  V30 669 C 60.087 1.00979 2.05757 0
M  V30 670 C 61.087 -0.0269573 1.60777 0
M  V30 671 O 62.277 0.212403 1.729 0
M  V30 672 C 59.409 0.527072 3.36801 0
M  V30 673 H 60.602 1.9622 2.26799 0
M  V30 674 H 58.155 1.05072 1.15714 0
M  V30 675 H 58.89 -0.429294 3.21446 0
M  V30 676 H 58.675 1.27515 3.70786 0
M  V30 677 H 60.165 0.392942 4.15747 0
M  V30 678 N 60.6021 -1.18246 1.0419 0
M  V30 679 C 61.5341 -2.2142 0.592088 0
M  V30 680 C 62.5471 -1.59233 -0.338909 0
M  V30 681 O 63.7361 -1.78002 -0.133231 0
M  V30 682 C 60.8361 -3.38546 -0.154854 0
M  V30 683 C 60.0091 -4.3031 0.784328 0
M  V30 684 C 59.0681 -5.26138 0.0804583 0
M  V30 685 O 58.0941 -5.64738 0.711292 0
M  V30 686 N 59.2961 -5.68261 -1.18574 0
M  V30 687 H 62.0611 -2.60636 1.47949 0
M  V30 688 H 59.6221 -1.33044 0.922544 0
M  V30 689 H 61.6141 -3.99678 -0.635606 0
M  V30 690 H 60.1841 -2.98012 -0.943811 0
M  V30 691 H 59.4041 -3.66764 1.44491 0
M  V30 692 H 60.6921 -4.8852 1.42218 0
M  V30 693 H 60.0901 -5.38957 -1.71876 0
M  V30 694 H 58.6471 -6.31584 -1.61074 0
M  V30 695 N 62.0802 -0.821533 -1.34494 0
M  V30 696 C 63.4912 -0.467956 -1.8074 0
M  V30 697 C 63.8422 1.01151 -1.68116 0
M  V30 698 O 62.9672 1.78707 -1.22036 0
M  V30 699 C 63.5622 -0.842627 -3.28154 0
M  V30 700 C 62.1212 -0.541439 -3.72485 0
M  V30 701 C 61.2682 -1.06028 -2.56229 0
M  V30 702 H 64.2192 -1.01183 -1.22261 0
M  V30 703 H 64.2402 -0.145876 -3.8022 0
M  V30 704 H 63.7522 -1.91945 -3.37311 0
M  V30 705 H 61.8532 0.526034 -3.68868 0
M  V30 706 H 61.9662 -1.08453 -4.66663 0
M  V30 707 H 60.3302 -0.481892 -2.501 0
M  V30 708 H 61.1132 -2.14352 -2.68157 0
M  V30 709 N 63.5583 1.46682 -0.576371 0
M  V30 710 C 64.5213 2.28707 0.150239 0
M  V30 711 C 65.5213 1.38035 0.824794 0
M  V30 712 O 66.7113 1.60476 0.677719 0
M  V30 713 C 63.8433 3.18248 1.22192 0
M  V30 714 H 65.0363 2.94423 -0.570521 0
M  V30 715 H 62.5893 1.52688 -0.334078 0
M  V30 716 H 63.3243 2.57265 1.97447 0
M  V30 717 H 63.1093 3.85 0.742812 0
M  V30 718 H 64.5993 3.80001 1.73172 0
M  V30 719 N 65.0364 0.313813 1.54444 0
M  V30 720 C 66.2824 -0.292108 2.00685 0
M  V30 721 C 66.6154 -1.52548 1.20177 0
M  V30 722 O 65.8904 -1.92452 0.281531 0
M  V30 723 C 66.1734 -0.635968 3.5444 0
M  V30 724 C 66.0264 0.607437 4.4568 0
M  V30 725 C 67.3454 -1.45747 4.15266 0
M  V30 726 H 64.4644 -0.104697 0.729526 0
M  V30 727 H 67.1064 0.428457 1.85106 0
M  V30 728 H 65.2564 -1.24986 3.67846 0
M  V30 729 H 66.9284 1.24581 4.44159 0
M  V30 730 H 65.1714 1.23822 4.15753 0
M  V30 731 H 65.8424 0.322515 5.51057 0
M  V30 732 H 68.3184 -0.938645 4.05375 0
M  V30 733 H 67.1944 -1.66683 5.2298 0
M  V30 734 H 67.4554 -2.45063 3.67963 0
M  V30 735 N 66.5145 -1.57545 0.0417849 0
M  V30 736 C 67.7605 -1.92601 -0.635021 0
M  V30 737 C 68.0935 -0.919627 -1.71045 0
M  V30 738 O 67.3685 0.0557892 -1.9442 0
M  V30 739 C 67.6515 -3.38085 -1.23979 0
M  V30 740 C 67.5045 -4.49467 -0.173057 0
M  V30 741 C 68.8235 -3.83776 -2.15416 0
M  V30 742 H 65.9425 -0.700397 -0.229374 0
M  V30 743 H 68.5845 -1.89728 0.101633 0
M  V30 744 H 66.7345 -3.40664 -1.86762 0
M  V30 745 H 68.4065 -4.59018 0.458312 0
M  V30 746 H 66.6495 -4.30909 0.499996 0
M  V30 747 H 67.3205 -5.48323 -0.636054 0
M  V30 748 H 69.7965 -3.83013 -1.62605 0
M  V30 749 H 68.6725 -4.8624 -2.54679 0
M  V30 750 H 68.9335 -3.19998 -3.05047 0
M  V30 751 N 67.9926 0.231505 -1.5589 0
M  V30 752 C 68.9226 1.29022 -1.94617 0
M  V30 753 C 69.9036 1.4941 -0.813067 0
M  V30 754 O 71.0886 1.6176 -1.07459 0
M  V30 755 C 68.2186 2.64199 -2.25424 0
M  V30 756 C 67.1726 2.58484 -3.41131 0
M  V30 757 C 66.4986 3.97599 -3.57518 0
M  V30 758 C 67.7986 2.1413 -4.76388 0
M  V30 759 H 69.4926 0.968563 -2.83301 0
M  V30 760 H 67.0386 0.464479 -1.36303 0
M  V30 761 H 68.9916 3.38413 -2.51107 0
M  V30 762 H 67.7156 2.98032 -1.33583 0
M  V30 763 H 66.3746 1.86727 -3.15481 0
M  V30 764 H 66.0226 4.28723 -2.6307 0
M  V30 765 H 65.7226 3.94659 -4.35337 0
M  V30 766 H 67.2466 4.7349 -3.85538 0
M  V30 767 H 68.6606 2.78083 -5.01341 0
M  V30 768 H 67.0576 2.2227 -5.57419 0
M  V30 769 H 68.1276 1.09331 -4.72414 0
M  V30 770 N 69.4707 1.49531 0.497807 0
M  V30 771 C 70.4337 1.65916 1.58128 0
M  V30 772 C 71.4337 0.530825 1.51786 0
M  V30 773 O 72.6237 0.797342 1.54881 0
M  V30 774 C 69.7557 1.65951 2.9778 0
M  V30 775 H 70.9487 2.62556 1.44929 0
M  V30 776 H 68.5017 1.38611 0.722275 0
M  V30 777 H 69.2367 0.709065 3.16453 0
M  V30 778 H 69.0217 2.47897 3.03792 0
M  V30 779 H 70.5117 1.80673 3.76493 0
M  V30 780 N 70.9488 -0.749086 1.3866 0
M  V30 781 C 72.1738 -1.54344 1.38538 0
M  V30 782 C 72.5988 -1.88088 -0.0216655 0
M  V30 783 O 71.9568 -1.50899 -1.00494 0
M  V30 784 C 72.0048 -2.8164 2.25192 0
M  V30 785 O 71.1088 -3.7698 1.67212 0
M  V30 786 H 70.4498 -0.466654 0.472367 0
M  V30 787 H 72.9798 -0.925355 1.82478 0
M  V30 788 H 72.9898 -3.30519 2.3921 0
M  V30 789 H 71.6648 -2.56411 3.27454 0
M  V30 790 H 70.2418 -3.35699 1.6236 0
M  V30 791 N 72.4269 -1.23603 -0.977757 0
M  V30 792 C 73.6519 -1.09735 -1.75991 0
M  V30 793 C 74.0769 0.346858 -1.84874 0
M  V30 794 O 73.4349 1.25093 -1.3123 0
M  V30 795 C 73.4829 -1.73051 -3.16363 0
M  V30 796 O 72.5869 -0.994452 -4.0023 0
M  V30 797 H 71.9279 -0.384476 -0.541364 0
M  V30 798 H 74.4579 -1.6371 -1.2272 0
M  V30 799 H 74.4679 -1.78398 -3.66931 0
M  V30 800 H 73.1429 -2.78137 -3.09213 0
M  V30 801 H 71.7199 -1.01812 -3.58732 0
M  V30 802 N 73.905 1.17692 -1.04816 0
M  V30 803 C 75.321 1.39863 -0.768794 0
M  V30 804 C 75.521 1.91118 0.638451 0
M  V30 805 O 74.577 2.10036 1.40146 0
M  V30 806 C 75.89 2.39274 -1.82122 0
M  V30 807 C 77.438 2.52987 -1.843 0
M  V30 808 C 77.913 3.55669 -2.88555 0
M  V30 809 N 79.404 3.63183 -2.87493 0
M  V30 810 C 80.139 4.42381 -3.64811 0
M  V30 811 N 79.635 5.25125 -4.51903 0
M  V30 812 N 81.428 4.37217 -3.53267 0
M  V30 813 H 73.579 0.82752 -1.95617 0
M  V30 814 H 75.842 0.426123 -0.846831 0
M  V30 815 H 75.548 2.08678 -2.83102 0
M  V30 816 H 75.422 3.38725 -1.65967 0
M  V30 817 H 77.809 2.82896 -0.839869 0
M  V30 818 H 77.89 1.53623 -2.04532 0
M  V30 819 H 77.534 3.26499 -3.89051 0
M  V30 820 H 77.464 4.54728 -2.65575 0
M  V30 821 H 79.955 3.04103 -2.24343 0
M  V30 822 H 80.268 5.82728 -5.07591 0
M  V30 823 H 78.613 5.24519 -4.55966 0
M  V30 824 H 81.804 3.71626 -2.84625 0
M  V30 825 H 81.977 4.98696 -4.13771 0
M  V30 826 N 75.3831 0.828654 1.34056 0
M  V30 827 C 76.6311 0.41863 1.97717 0
M  V30 828 C 76.9521 -1.02314 1.66002 0
M  V30 829 O 76.2221 -1.71119 0.953683 0
M  V30 830 H 74.8021 0.151809 0.731412 0
M  V30 831 H 77.4641 1.05936 1.63596 0
M  V30 832 H 76.5601 0.542318 3.07352 0
M  V30 833 N 76.8612 -1.46375 0.584142 0
M  V30 834 C 78.1102 -2.01585 0.0679741 0
M  V30 835 C 78.4232 -1.46109 -1.30045 0
M  V30 836 O 79.6292 -1.93148 -1.90804 0
M  V30 837 C 78.0852 -3.5983 0.0709207 0
M  V30 838 C 77.6932 -4.24303 1.43775 0
M  V30 839 C 79.4372 -4.22693 -0.391228 0
M  V30 840 C 77.3442 -5.74631 1.39834 0
M  V30 841 H 76.2742 -0.753689 0.0216421 0
M  V30 842 H 78.9252 -1.68093 0.736001 0
M  V30 843 H 77.3072 -3.90405 -0.663299 0
M  V30 844 H 78.4812 -4.05335 2.19181 0
M  V30 845 H 76.7962 -3.73539 1.84004 0
M  V30 846 H 79.3932 -5.3289 -0.439524 0
M  V30 847 H 79.7362 -3.91728 -1.40906 0
M  V30 848 H 80.2692 -3.96749 0.288974 0
M  V30 849 H 77.0082 -6.10258 2.39303 0
M  V30 850 H 76.5282 -5.95858 0.686505 0
M  V30 851 H 78.2072 -6.37375 1.11187 0
M  V30 852 N 78.3393 -0.321999 -1.54275 0
M  V30 853 C 79.3023 0.531975 -2.22941 0
M  V30 854 C 80.3023 1.04478 -1.22234 0
M  V30 855 O 81.4923 0.937452 -1.46825 0
M  V30 856 C 78.6243 1.73874 -2.93224 0
M  V30 857 H 79.8173 -0.0682612 -2.99822 0
M  V30 858 H 77.3703 -0.0730644 -1.56129 0
M  V30 859 H 78.1053 2.37825 -2.20476 0
M  V30 860 H 77.8903 1.37847 -3.6707 0
M  V30 861 H 79.3803 2.34496 -3.45545 0
M  V30 862 N 79.8174 1.5752 -0.0501392 0
M  V30 863 C 81.0424 1.97376 0.636997 0
M  V30 864 C 81.4674 0.927466 1.63645 0
M  V30 865 O 80.8254 -0.10941 1.8097 0
M  V30 866 C 80.8734 3.36304 1.30123 0
M  V30 867 O 79.9774 3.34156 2.41689 0
M  V30 868 H 79.3184 0.642998 0.165679 0
M  V30 869 H 81.8484 2.04258 -0.118233 0
M  V30 870 H 81.8584 3.73008 1.65315 0
M  V30 871 H 80.5334 4.11993 0.568746 0
M  V30 872 H 79.1104 3.09196 2.08451 0
M  V30 873 N 81.2955 -0.223234 1.56011 0
M  V30 874 C 82.5425 -0.947875 1.78946 0
M  V30 875 C 82.8705 -1.844 0.618608 0
M  V30 876 O 82.1255 -1.91629 -0.397093 0
M  V30 877 C 82.4245 -1.81948 3.0762 0
M  V30 878 C 82.0905 -1.07672 4.37856 0
M  V30 879 C 80.7525 -0.871544 4.73242 0
M  V30 880 C 83.1045 -0.552081 5.18268 0
M  V30 881 C 80.4325 -0.129791 5.86556 0
M  V30 882 C 82.7845 0.17632 6.32354 0
M  V30 883 C 81.4485 0.39277 6.66343 0
M  V30 884 H 80.7185 -0.346852 0.654809 0
M  V30 885 H 83.3655 -0.216171 1.90276 0
M  V30 886 H 81.6705 -2.61899 2.91404 0
M  V30 887 H 83.3675 -2.38227 3.22566 0
M  V30 888 H 79.9575 -1.24662 4.1007 0
M  V30 889 H 84.1415 -0.698076 4.91366 0
M  V30 890 H 79.3975 0.048153 6.11381 0
M  V30 891 H 83.5715 0.590367 6.93893 0
M  V30 892 H 81.1985 0.969466 7.53993 0
M  V30 893 N 82.7736 -1.49793 -0.48987 0
M  V30 894 C 84.0196 -1.60078 -1.24511 0
M  V30 895 C 84.3526 -0.291608 -1.91998 0
M  V30 896 O 83.6276 0.705647 -1.81248 0
M  V30 897 C 83.9106 -2.76791 -2.30345 0
M  V30 898 C 83.7636 -4.17535 -1.67286 0
M  V30 899 C 85.0826 -2.89111 -3.31817 0
M  V30 900 H 82.2016 -0.582645 -0.451324 0
M  V30 901 H 84.8436 -1.82117 -0.541612 0
M  V30 902 H 82.9936 -2.5813 -2.90346 0
M  V30 903 H 84.6656 -4.4774 -1.11026 0
M  V30 904 H 82.9086 -4.22665 -0.976577 0
M  V30 905 H 83.5796 -4.95094 -2.44103 0
M  V30 906 H 86.0556 -3.06133 -2.81819 0
M  V30 907 H 84.9316 -3.72433 -4.03219 0
M  V30 908 H 85.1926 -1.9893 -3.94815 0
M  V30 909 N 84.2517 0.741722 -1.39055 0
M  V30 910 C 85.4917 1.51385 -1.37338 0
M  V30 911 C 85.8557 1.91972 0.0330513 0
M  V30 912 O 87.0567 2.68229 0.175174 0
M  V30 913 C 85.3277 2.72481 -2.31276 0
M  V30 914 S 86.8867 3.62211 -2.47687 0
M  V30 915 H 83.7047 0.517906 -0.487129 0
M  V30 916 H 86.3067 0.86969 -1.7509 0
M  V30 917 H 85.0107 2.40793 -3.32336 0
M  V30 918 H 84.5417 3.41832 -1.94716 0
M  V30 919 H 86.5567 4.65812 -1.70978 0
M  V30 920 N 85.7298 1.2412 0.971189 0
M  V30 921 C 86.6398 1.04747 2.09917 0
M  V30 922 C 87.6558 -0.0107162 1.73997 0
M  V30 923 O 88.8318 0.186714 2.00533 0
M  V30 924 C 85.8968 0.650828 3.40537 0
M  V30 925 C 84.9578 1.7851 3.90426 0
M  V30 926 C 84.1908 1.40729 5.14812 0
M  V30 927 O 84.4138 0.29557 5.69634 0
M  V30 928 O 83.3478 2.23168 5.58999 0
M  V30 929 H 87.1738 1.99304 2.29154 0
M  V30 930 H 84.7588 1.02908 1.08307 0
M  V30 931 H 86.6408 0.440992 4.19086 0
M  V30 932 H 85.3158 -0.265649 3.22608 0
M  V30 933 H 84.2228 2.04966 3.12953 0
M  V30 934 H 85.5558 2.68023 4.12825 0
M  V30 935 N 87.2079 -1.17134 1.05439 0
M  V30 936 C 88.4379 -1.91094 0.785274 0
M  V30 937 C 88.8459 -1.77198 -0.663142 0
M  V30 938 O 88.1889 -1.10835 -1.46497 0
M  V30 939 C 88.2509 -3.42594 1.08949 0
M  V30 940 C 87.9149 -3.80274 2.53458 0
M  V30 941 C 88.9119 -3.82912 3.51673 0
M  V30 942 C 86.5969 -4.11162 2.88532 0
M  V30 943 C 88.5909 -4.15913 4.83006 0
M  V30 944 C 86.2779 -4.43831 4.20068 0
M  V30 945 C 87.2759 -4.46185 5.17115 0
M  V30 946 O 86.9639 -4.78083 6.46291 0
M  V30 947 H 86.6959 -0.613073 0.284811 0
M  V30 948 H 89.2499 -1.49461 1.40893 0
M  V30 949 H 87.4799 -3.84534 0.408741 0
M  V30 950 H 89.1689 -3.97817 0.805991 0
M  V30 951 H 89.9349 -3.5917 3.25917 0
M  V30 952 H 85.8139 -4.085 2.13656 0
M  V30 953 H 89.3579 -4.17665 5.5875 0
M  V30 954 H 85.2549 -4.67037 4.45586 0
M  V30 955 H 86.0229 -4.9593 6.51149 0
M  V30 956 N 88.686 -0.835752 -1.33615 0
M  V30 957 C 89.649 -0.272 -2.2758 0
M  V30 958 C 90.649 0.557487 -1.50827 0
M  V30 959 O 91.839 0.37173 -1.70188 0
M  V30 960 C 88.971 0.617173 -3.35267 0
M  V30 961 H 90.164 -1.10111 -2.78954 0
M  V30 962 H 87.717 -0.608594 -1.43965 0
M  V30 963 H 88.452 1.46884 -2.89129 0
M  V30 964 H 88.237 0.0237066 -3.92093 0
M  V30 965 H 89.727 1.005 -4.05326 0
M  V30 966 N 90.1641 1.46063 -0.591896 0
M  V30 967 C 91.3891 2.07226 -0.0850314 0
M  V30 968 C 91.8141 1.43625 1.21463 0
M  V30 969 O 91.1721 0.523305 1.73583 0
M  V30 970 C 91.2201 3.60554 0.0576567 0
M  V30 971 O 90.3241 3.97128 1.11188 0
M  V30 972 H 89.6651 0.660615 -0.0669568 0
M  V30 973 H 92.1951 1.8756 -0.81745 0
M  V30 974 H 92.2051 4.07165 0.2609 0
M  V30 975 H 90.8801 4.06235 -0.891416 0
M  V30 976 H 89.4571 3.62213 0.886356 0
M  V30 977 N 91.6422 0.330177 1.54103 0
M  V30 978 C 93.0532 -0.15652 1.86043 0
M  V30 979 C 93.4042 -1.51086 1.2517 0
M  V30 980 O 92.5292 -2.09023 0.560217 0
M  V30 981 C 93.1242 -0.290784 3.3755 0
M  V30 982 C 91.6832 -0.721705 3.69416 0
M  V30 983 C 90.8302 0.152622 2.7688 0
M  V30 984 H 93.7812 0.550237 1.48856 0
M  V30 985 H 93.8022 -1.12058 3.63625 0
M  V30 986 H 93.3142 0.695068 3.81825 0
M  V30 987 H 91.4152 -1.71706 3.30678 0
M  V30 988 H 91.5282 -0.520869 4.7626 0
M  V30 989 H 89.8922 -0.372894 2.51956 0
M  V30 990 H 90.6752 1.13536 3.23982 0
M  V30 991 N 93.1203 -1.57491 0.0584922 0
M  V30 992 C 94.3683 -1.92597 -0.612436 0
M  V30 993 C 94.6893 -0.938162 -1.70949 0
M  V30 994 O 93.9593 0.0158301 -1.95894 0
M  V30 995 H 92.5393 -0.710964 -0.229214 0
M  V30 996 H 95.2013 -1.94571 0.113218 0
M  V30 997 H 94.2973 -2.94038 -1.04633 0
M  V30 998 N 94.5984 0.214957 -1.56127 0
M  V30 999 C 95.5454 1.26642 -1.92952 0
M  V30 1000 C 96.5154 1.46244 -0.78753 0
M  V30 1001 O 97.7004 1.59704 -1.04399 0
M  V30 1002 C 94.8404 2.6104 -2.25726 0
M  V30 1003 C 93.9534 2.49183 -3.52891 0
M  V30 1004 C 93.0884 3.76149 -3.7508 0
M  V30 1005 C 92.1274 3.59041 -4.95738 0
M  V30 1006 N 91.2644 4.77972 -5.14283 0
M  V30 1007 H 96.1044 0.945384 -2.82607 0
M  V30 1008 H 93.6414 0.455489 -1.3987 0
M  V30 1009 H 95.5994 3.39313 -2.42739 0
M  V30 1010 H 94.2294 2.91227 -1.39236 0
M  V30 1011 H 93.2814 1.6231 -3.44034 0
M  V30 1012 H 94.5934 2.32466 -4.41318 0
M  V30 1013 H 93.7474 4.62865 -3.92226 0
M  V30 1014 H 92.4864 3.95799 -2.84947 0
M  V30 1015 H 91.4914 2.7071 -4.78535 0
M  V30 1016 H 92.7164 3.40856 -5.87362 0
M  V30 1017 H 90.6624 4.97923 -4.27093 0
M  V30 1018 H 90.5794 4.64006 -5.96853 0
M  V30 1019 H 91.8474 5.66096 -5.35869 0
M  V30 1020 N 96.0765 1.50051 0.48192 0
M  V30 1021 C 97.0395 1.67584 1.5636 0
M  V30 1022 C 98.0395 0.546894 1.51214 0
M  V30 1023 O 99.2295 0.813725 1.54026 0
M  V30 1024 C 96.3615 1.691 2.96003 0
M  V30 1025 H 97.5545 2.64078 1.42136 0
M  V30 1026 H 95.1075 1.39369 0.707533 0
M  V30 1027 H 95.8425 0.742589 3.15684 0
M  V30 1028 H 95.6275 2.51105 3.01146 0
M  V30 1029 H 97.1175 1.84656 3.74556 0
M  V30 1030 N 97.5546 -0.734337 1.39446 0
M  V30 1031 C 98.7826 -1.52358 1.39981 0
M  V30 1032 C 99.1976 -1.88799 -0.0054975 0
M  V30 1033 O 98.5546 -1.54146 -0.976998 0
M  V30 1034 C 98.6056 -2.81072 2.27333 0
M  V30 1035 O 98.3266 -2.46178 3.62392 0
M  V30 1036 C 99.8276 -3.75096 2.36259 0
M  V30 1037 H 97.0476 -0.470806 0.478103 0
M  V30 1038 H 99.5916 -0.907339 1.83269 0
M  V30 1039 H 97.7466 -3.39026 1.87457 0
M  V30 1040 H 98.1606 -3.28866 4.08592 0
M  V30 1041 H 99.6346 -4.62305 3.01626 0
M  V30 1042 H 100.112 -4.16892 1.38194 0
M  V30 1043 H 100.718 -3.23061 2.76608 0
M  V30 1044 N 99.0327 -1.24633 -0.964593 0
M  V30 1045 C 99.9427 -1.05859 -2.09359 0
M  V30 1046 C 100.959 0.00148855 -1.74 0
M  V30 1047 O 102.135 -0.197346 -2.00431 0
M  V30 1048 C 99.1997 -0.668879 -3.40187 0
M  V30 1049 C 98.2607 -1.80578 -3.89474 0
M  V30 1050 C 97.4937 -1.43457 -5.14058 0
M  V30 1051 O 97.7167 -0.325775 -5.69469 0
M  V30 1052 O 96.6507 -2.2613 -5.57807 0
M  V30 1053 H 100.477 -2.00516 -2.28094 0
M  V30 1054 H 98.0617 -1.03481 -1.0776 0
M  V30 1055 H 99.9437 -0.463211 -4.18846 0
M  V30 1056 H 98.6187 0.248536 -3.22744 0
M  V30 1057 H 97.5257 -2.06623 -3.11862 0
M  V30 1058 H 98.8587 -2.70208 -4.11398 0
M  V30 1059 N 100.511 1.16574 -1.06058 0
M  V30 1060 C 101.757 1.87324 -0.777022 0
M  V30 1061 C 102.09 1.81351 0.694645 0
M  V30 1062 O 101.365 1.22753 1.50871 0
M  V30 1063 C 101.648 3.36991 -1.26922 0
M  V30 1064 C 101.501 3.51667 -2.80447 0
M  V30 1065 C 102.82 4.3131 -0.87521 0
M  V30 1066 H 99.9388 0.680191 -0.28374 0
M  V30 1067 H 102.581 1.37036 -1.3161 0
M  V30 1068 H 100.731 3.79949 -0.81063 0
M  V30 1069 H 102.403 3.17664 -3.34495 0
M  V30 1070 H 100.646 2.93656 -3.19294 0
M  V30 1071 H 101.317 4.56766 -3.0995 0
M  V30 1072 H 103.793 3.9624 -1.27014 0
M  V30 1073 H 102.669 5.34545 -1.2471 0
M  V30 1074 H 102.93 4.41552 0.220071 0
M  V30 1075 N 101.989 0.842826 1.3317 0
M  V30 1076 C 103.405 0.531128 1.50503 0
M  V30 1077 C 103.605 -0.940734 1.78192 0
M  V30 1078 O 102.661 -1.72436 1.84451 0
M  V30 1079 C 103.974 1.40789 2.65705 0
M  V30 1080 C 105.522 1.40708 2.79589 0
M  V30 1081 C 105.997 2.26878 3.97857 0
M  V30 1082 N 107.488 2.24609 4.05099 0
M  V30 1083 C 108.223 2.88019 4.95815 0
M  V30 1084 N 107.719 3.60496 5.9162 0
M  V30 1085 N 109.512 2.77469 4.88843 0
M  V30 1086 H 101.663 1.79557 1.1346 0
M  V30 1087 H 103.926 0.766267 0.558156 0
M  V30 1088 H 103.632 2.454 2.51936 0
M  V30 1089 H 103.506 1.08677 3.61205 0
M  V30 1090 H 105.893 0.368668 2.92788 0
M  V30 1091 H 105.974 1.76829 1.84838 0
M  V30 1092 H 105.618 3.3078 3.85418 0
M  V30 1093 H 105.548 1.88096 4.91861 0
M  V30 1094 H 108.039 1.71906 3.36536 0
M  V30 1095 H 108.352 4.06076 6.57512 0
M  V30 1096 H 106.697 3.64604 5.91683 0
M  V30 1097 H 109.888 2.20406 4.12963 0
M  V30 1098 H 110.061 3.2717 5.59342 0
M  V30 1099 N 103.467 -1.45747 0.599634 0
M  V30 1100 C 104.713 -2.02592 0.0918643 0
M  V30 1101 C 105.046 -1.46806 -1.27128 0
M  V30 1102 O 104.321 -0.639658 -1.83681 0
M  V30 1103 C 104.604 -3.60073 0.0443398 0
M  V30 1104 C 104.457 -4.26208 1.43759 0
M  V30 1105 C 105.776 -4.35309 -0.647608 0
M  V30 1106 H 102.895 -0.736175 0.034857 0
M  V30 1107 H 105.537 -1.73694 0.770081 0
M  V30 1108 H 103.687 -3.84823 -0.533224 0
M  V30 1109 H 105.359 -4.12668 2.06162 0
M  V30 1110 H 103.602 -3.84916 2.00056 0
M  V30 1111 H 104.273 -5.35069 1.35665 0
M  V30 1112 H 106.749 -4.15805 -0.156776 0
M  V30 1113 H 105.625 -5.45038 -0.649942 0
M  V30 1114 H 105.886 -4.07598 -1.71219 0
M  V30 1115 N 104.945 -0.338344 -1.53925 0
M  V30 1116 C 106.173 0.261298 -2.05243 0
M  V30 1117 C 106.588 1.44625 -1.21363 0
M  V30 1118 O 105.945 1.80811 -0.247736 0
M  V30 1119 C 105.996 0.681412 -3.5502 0
M  V30 1120 O 105.717 -0.456414 -4.35716 0
M  V30 1121 C 107.218 1.34232 -4.22489 0
M  V30 1122 H 104.438 0.0513685 -0.669031 0
M  V30 1123 H 106.982 -0.488822 -1.98572 0
M  V30 1124 H 105.137 1.38148 -3.61931 0
M  V30 1125 H 105.551 -0.122564 -5.24357 0
M  V30 1126 H 107.025 1.58708 -5.28693 0
M  V30 1127 H 107.502 2.29426 -3.74514 0
M  V30 1128 H 108.108 0.684424 -4.19757 0
M  V30 1129 N 106.423 1.57458 -0.0668435 0
M  V30 1130 C 107.669 1.93587 0.6043 0
M  V30 1131 C 108.002 0.946722 1.69561 0
M  V30 1132 O 107.277 -0.0248516 1.94484 0
M  V30 1133 C 107.56 3.40014 1.18585 0
M  V30 1134 C 107.413 4.49685 0.101529 0
M  V30 1135 C 108.732 3.87154 2.09284 0
M  V30 1136 H 105.851 0.703958 0.218202 0
M  V30 1137 H 108.493 1.89542 -0.131804 0
M  V30 1138 H 106.643 3.43592 1.81319 0
M  V30 1139 H 108.315 4.5823 -0.531279 0
M  V30 1140 H 106.558 4.30059 -0.568487 0
M  V30 1141 H 107.229 5.49266 0.54874 0
M  V30 1142 H 109.705 3.85551 1.56491 0
M  V30 1143 H 108.581 4.90231 2.46911 0
M  V30 1144 H 108.842 3.2481 2.99918 0
M  V30 1145 N 107.901 -0.206675 1.56239 0
M  V30 1146 C 108.831 -1.25909 1.96645 0
M  V30 1147 C 109.812 -1.48097 0.836734 0
M  V30 1148 O 110.997 -1.6003 1.10019 0
M  V30 1149 C 108.127 -2.6058 2.29599 0
M  V30 1150 C 107.081 -2.53024 3.452 0
M  V30 1151 C 106.407 -3.91861 3.63798 0
M  V30 1152 C 107.707 -2.06524 4.79734 0
M  V30 1153 H 109.401 -0.923369 2.84806 0
M  V30 1154 H 106.947 -0.442735 1.37025 0
M  V30 1155 H 108.9 -3.34375 2.56459 0
M  V30 1156 H 107.624 -2.95869 1.38307 0
M  V30 1157 H 106.283 -1.81684 3.18412 0
M  V30 1158 H 105.931 -4.24483 2.69857 0
M  V30 1159 H 105.631 -3.87683 4.4156 0
M  V30 1160 H 107.155 -4.67296 3.93022 0
M  V30 1161 H 108.569 -2.70072 5.05702 0
M  V30 1162 H 106.966 -2.13374 5.60885 0
M  V30 1163 H 108.036 -1.01802 4.74093 0
M  V30 1164 N 109.379 -1.50304 -0.473955 0
M  V30 1165 C 110.795 -1.37667 -0.807466 0
M  V30 1166 C 110.995 -0.430555 -1.96846 0
M  V30 1167 O 110.051 0.127874 -2.52176 0
M  V30 1168 C 111.364 -2.78974 -1.12223 0
M  V30 1169 C 112.912 -2.87868 -1.22885 0
M  V30 1170 C 113.387 -4.30003 -1.57676 0
M  V30 1171 N 114.878 -4.3294 -1.64673 0
M  V30 1172 C 115.613 -5.3991 -1.93091 0
M  V30 1173 N 115.109 -6.57092 -2.1955 0
M  V30 1174 N 116.902 -5.27351 -1.94569 0
M  V30 1175 H 109.053 -2.10394 0.291212 0
M  V30 1176 H 111.316 -0.945575 0.0677609 0
M  V30 1177 H 111.022 -3.50031 -0.342229 0
M  V30 1178 H 110.896 -3.16038 -2.05913 0
M  V30 1179 H 113.283 -2.17032 -1.99953 0
M  V30 1180 H 113.364 -2.54352 -0.271814 0
M  V30 1181 H 113.008 -5.01375 -0.81149 0
M  V30 1182 H 112.938 -4.61004 -2.54525 0
M  V30 1183 H 115.429 -3.48441 -1.46277 0
M  V30 1184 H 115.742 -7.34425 -2.405 0
M  V30 1185 H 114.087 -6.60272 -2.16948 0
M  V30 1186 H 117.278 -4.34801 -1.73394 0
M  V30 1187 H 117.451 -6.10805 -2.16381 0
M  V30 1188 N 110.857 0.726932 -1.39834 0
M  V30 1189 C 111.789 1.85147 -1.35104 0
M  V30 1190 C 112.802 1.60736 -0.258392 0
M  V30 1191 O 113.991 1.70821 -0.517931 0
M  V30 1192 C 111.091 3.21332 -1.07697 0
M  V30 1193 C 110.264 3.73033 -2.28396 0
M  V30 1194 C 109.323 4.87802 -1.97322 0
M  V30 1195 O 108.349 5.01043 -2.70083 0
M  V30 1196 N 109.551 5.72768 -0.944273 0
M  V30 1197 H 112.316 1.89706 -2.32017 0
M  V30 1198 H 109.877 0.908006 -1.3404 0
M  V30 1199 H 111.869 3.95691 -0.849144 0
M  V30 1200 H 110.439 3.11992 -0.194909 0
M  V30 1201 H 109.659 2.89934 -2.6708 0
M  V30 1202 H 110.947 4.0431 -3.08887 0
M  V30 1203 H 110.345 5.64669 -0.341427 0
M  V30 1204 H 108.902 6.4716 -0.776346 0
M  V30 1205 N 112.336 1.25143 0.95797 0
M  V30 1206 C 113.299 1.05321 2.03569 0
M  V30 1207 C 114.299 0.007152 1.60798 0
M  V30 1208 O 115.489 0.24903 1.72411 0
M  V30 1209 C 112.621 0.598394 3.35607 0
M  V30 1210 H 113.814 2.00986 2.22586 0
M  V30 1211 H 111.367 1.07502 1.13459 0
M  V30 1212 H 112.102 -0.361014 3.22284 0
M  V30 1213 H 111.887 1.35351 3.67998 0
M  V30 1214 H 113.377 0.48104 4.1482 0
M  V30 1215 N 113.814 -1.1601 1.06675 0
M  V30 1216 C 115.091 -1.82679 0.699114 0
M  V30 1217 C 115.471 -1.94559 -0.819137 0
M  V30 1218 O 114.819 -1.49169 -1.73092 0
M  V30 1219 C 115.029 -3.19445 1.40555 0
M  V30 1220 C 116.377 -3.95171 1.55323 0
M  V30 1221 O 117.401 -3.28976 1.36577 0
M  V30 1222 O 116.26 -5.13833 1.86112 0
M  V30 1223 H 113.354 -0.788954 0.247951 0
M  V30 1224 H 115.9 -1.23179 1.16726 0
M  V30 1225 H 114.672 -3.05856 2.44065 0
M  V30 1226 H 114.295 -3.86625 0.927733 0
M  V30 1227 N 115.292 -0.849877 -1.32721 0
M  V30 1228 C 116.517 -0.463856 -2.02146 0
M  V30 1229 C 116.942 0.930449 -1.63476 0
M  V30 1230 O 116.3 1.61033 -0.832952 0
M  V30 1231 C 116.348 -0.604955 -3.55489 0
M  V30 1232 O 115.452 0.36425 -4.10788 0
M  V30 1233 H 114.793 -0.187046 -0.637111 0
M  V30 1234 H 117.323 -1.14775 -1.69375 0
M  V30 1235 H 117.333 -0.490696 -4.05038 0
M  V30 1236 H 116.008 -1.62174 -3.82978 0
M  V30 1237 H 114.585 0.206628 -3.72327 0
M  V30 1238 N 116.77 1.45427 -0.607355 0
M  V30 1239 C 117.702 2.2871 0.149752 0
M  V30 1240 C 118.715 1.39937 0.831958 0
M  V30 1241 O 119.904 1.64313 0.697385 0
M  V30 1242 C 117.004 3.15673 1.23304 0
M  V30 1243 C 116.177 4.32722 0.637996 0
M  V30 1244 C 115.236 5.00895 1.61215 0
M  V30 1245 O 114.262 5.57697 1.13854 0
M  V30 1246 N 115.464 5.00159 2.94655 0
M  V30 1247 H 118.229 2.94328 -0.564882 0
M  V30 1248 H 115.79 1.55612 -0.446823 0
M  V30 1249 H 117.782 3.58144 1.88454 0
M  V30 1250 H 116.352 2.51965 1.8502 0
M  V30 1251 H 115.572 3.93734 -0.191572 0
M  V30 1252 H 116.86 5.08321 0.220665 0
M  V30 1253 H 116.258 4.553 3.35735 0
M  V30 1254 H 114.815 5.46495 3.55228 0
M  V30 1255 N 118.248 0.346503 1.53744 0
M  V30 1256 C 119.494 -0.249473 2.0126 0
M  V30 1257 C 119.827 -1.49965 1.23386 0
M  V30 1258 O 119.102 -1.91811 0.32229 0
M  V30 1259 C 119.385 -0.560643 3.55709 0
M  V30 1260 C 119.238 0.701836 4.44291 0
M  V30 1261 C 120.557 -1.36905 4.18264 0
M  V30 1262 H 117.676 -0.0891987 0.731582 0
M  V30 1263 H 120.318 0.467624 1.84156 0
M  V30 1264 H 118.468 -1.17156 3.70414 0
M  V30 1265 H 120.14 1.33974 4.41417 0
M  V30 1266 H 118.383 1.32612 4.13033 0
M  V30 1267 H 119.054 0.43933 5.50249 0
M  V30 1268 H 121.53 -0.852448 4.07275 0
M  V30 1269 H 120.406 -1.55553 5.26398 0
M  V30 1270 H 120.667 -2.37203 3.73078 0
M  V30 1271 N 119.726 -1.57421 0.075193 0
M  V30 1272 C 120.954 -1.97946 -0.602076 0
M  V30 1273 C 121.369 -0.953674 -1.62943 0
M  V30 1274 O 120.726 0.0592551 -1.82404 0
M  V30 1275 C 120.777 -3.38546 -1.26762 0
M  V30 1276 O 120.498 -4.37195 -0.281376 0
M  V30 1277 C 121.999 -3.93966 -2.03239 0
M  V30 1278 H 119.219 -0.650918 -0.162931 0
M  V30 1279 H 121.763 -2.03959 0.148601 0
M  V30 1280 H 119.918 -3.33609 -1.96936 0
M  V30 1281 H 120.332 -5.18975 -0.759267 0
M  V30 1282 H 121.806 -4.94555 -2.45193 0
M  V30 1283 H 122.283 -3.30693 -2.8903 0
M  V30 1284 H 122.889 -4.02315 -1.37924 0
M  V30 1285 N 121.204 0.198386 -1.56346 0
M  V30 1286 C 122.114 1.2664 -1.97483 0
M  V30 1287 C 123.13 1.49989 -0.882002 0
M  V30 1288 O 124.306 1.62668 -1.18748 0
M  V30 1289 C 121.371 2.59141 -2.30319 0
M  V30 1290 C 120.432 2.43892 -3.53292 0
M  V30 1291 C 119.665 3.70074 -3.84553 0
M  V30 1292 O 119.888 4.74101 -3.1715 0
M  V30 1293 O 118.822 3.658 -4.7799 0
M  V30 1294 H 122.648 0.947304 -2.88548 0
M  V30 1295 H 120.233 0.403123 -1.43859 0
M  V30 1296 H 122.115 3.37352 -2.5253 0
M  V30 1297 H 120.79 2.90684 -1.42423 0
M  V30 1298 H 119.697 1.63803 -3.36332 0
M  V30 1299 H 121.03 2.17282 -4.41644 0
M  V30 1300 N 122.682 1.50554 0.465978 0
M  V30 1301 C 123.928 1.62038 1.21949 0
M  V30 1302 C 124.261 0.322116 1.9151 0
M  V30 1303 O 123.536 -0.676723 1.82348 0
M  V30 1304 C 123.819 2.80421 2.25912 0
M  V30 1305 C 123.672 4.20144 1.60622 0
M  V30 1306 C 124.991 2.94354 3.27176 0
M  V30 1307 H 122.11 0.589752 0.441998 0
M  V30 1308 H 124.752 1.82956 0.51257 0
M  V30 1309 H 122.902 2.62717 2.86203 0
M  V30 1310 H 124.574 4.49449 1.03889 0
M  V30 1311 H 122.817 4.24165 0.909211 0
M  V30 1312 H 123.488 4.98914 2.36196 0
M  V30 1313 H 125.964 3.10578 2.76913 0
M  V30 1314 H 124.84 3.788 3.97242 0
M  V30 1315 H 125.101 2.05186 3.916 0
M  V30 1316 N 124.16 -0.719506 1.40217 0
M  V30 1317 C 125.4 -1.49181 1.39729 0
M  V30 1318 C 125.764 -1.92 -0.00250614 0
M  V30 1319 O 126.965 -2.68473 -0.132479 0
M  V30 1320 C 125.236 -2.68767 2.35582 0
M  V30 1321 S 126.795 -3.58224 2.53418 0
M  V30 1322 H 123.613 -0.510091 0.495307 0
M  V30 1323 H 126.215 -0.841724 1.76452 0
M  V30 1324 H 124.919 -2.35475 3.36124 0
M  V30 1325 H 124.45 -3.38691 2.0013 0
M  V30 1326 H 126.465 -4.63033 1.78367 0
M  V30 1327 N 125.638 -1.25649 -0.95132 0
M  V30 1328 C 126.601 -1.06399 -2.03007 0
M  V30 1329 C 127.601 -0.0156794 -1.60792 0
M  V30 1330 O 128.791 -0.25817 -1.72276 0
M  V30 1331 C 125.923 -0.616184 -3.35285 0
M  V30 1332 H 127.116 -2.02164 -2.21517 0
M  V30 1333 H 124.669 -1.08103 -1.12887 0
M  V30 1334 H 125.404 0.343917 -3.22471 0
M  V30 1335 H 125.189 -1.37301 -3.67275 0
M  V30 1336 H 126.679 -0.503032 -4.14559 0
M  V30 1337 N 127.117 1.15442 -1.07289 0
M  V30 1338 C 128.08 2.18358 -0.696591 0
M  V30 1339 C 129.08 1.58637 0.262837 0
M  V30 1340 O 130.27 1.74145 0.0438809 0
M  V30 1341 C 127.402 3.4089 -0.0266151 0
M  V30 1342 H 128.595 2.53162 -1.60776 0
M  V30 1343 H 126.148 1.29893 -0.869342 0
M  V30 1344 H 126.883 3.11653 0.896822 0
M  V30 1345 H 126.668 3.85495 -0.716657 0
M  V30 1346 H 128.158 4.17009 0.222028 0
M  V30 1347 N 128.595 0.856903 1.32268 0
M  V30 1348 C 129.823 0.475439 2.01363 0
M  V30 1349 C 130.238 -0.928486 1.64392 0
M  V30 1350 O 129.595 -1.60624 0.866387 0
M  V30 1351 C 129.646 0.607545 3.56358 0
M  V30 1352 O 129.367 1.95617 3.92002 0
M  V30 1353 C 130.868 0.225382 4.42727 0
M  V30 1354 H 128.088 0.186636 0.644521 0
M  V30 1355 H 130.632 1.15446 1.68797 0
M  V30 1356 H 128.787 -0.0237719 3.87393 0
M  V30 1357 H 129.201 1.95455 4.86721 0
M  V30 1358 H 130.675 0.368813 5.50767 0
M  V30 1359 H 131.152 -0.834369 4.31202 0
M  V30 1360 H 131.758 0.831864 4.17085 0
M  V30 1361 N 130.073 -1.45103 0.615059 0
M  V30 1362 C 131.303 -2.06254 0.119596 0
M  V30 1363 C 131.711 -1.4591 -1.20445 0
M  V30 1364 O 131.054 -0.570384 -1.7462 0
M  V30 1365 C 131.116 -3.59396 -0.0865591 0
M  V30 1366 C 130.78 -4.42116 1.15683 0
M  V30 1367 C 131.777 -4.7662 2.07676 0
M  V30 1368 C 129.462 -4.82749 1.38775 0
M  V30 1369 C 131.456 -5.50622 3.21082 0
M  V30 1370 C 129.143 -5.56504 2.52481 0
M  V30 1371 C 130.141 -5.90358 3.43463 0
M  V30 1372 O 129.829 -6.62615 4.55189 0
M  V30 1373 H 129.561 -0.672423 0.0694512 0
M  V30 1374 H 132.115 -1.87219 0.844885 0
M  V30 1375 H 130.345 -3.76859 -0.866823 0
M  V30 1376 H 132.034 -4.02365 -0.534555 0
M  V30 1377 H 132.8 -4.4578 1.91063 0
M  V30 1378 H 128.679 -4.55829 0.688545 0
M  V30 1379 H 132.223 -5.76965 3.92119 0
M  V30 1380 H 128.12 -5.86759 2.69043 0
M  V30 1381 H 128.888 -6.81071 4.53966 0
M  V30 1382 N 131.551 -0.354651 -1.53558 0
M  V30 1383 C 132.484 0.540273 -2.21712 0
M  V30 1384 C 133.462 1.09161 -1.2051 0
M  V30 1385 O 134.646 1.14979 -1.49372 0
M  V30 1386 C 131.773 1.74435 -2.90328 0
M  V30 1387 C 130.819 1.32146 -4.05512 0
M  V30 1388 S 131.652 0.331924 -5.3447 0
M  V30 1389 C 132.808 1.54258 -6.06593 0
M  V30 1390 H 133.041 -0.0385776 -2.97275 0
M  V30 1391 H 130.574 -0.138736 -1.53775 0
M  V30 1392 H 132.532 2.43507 -3.30476 0
M  V30 1393 H 131.193 2.29444 -2.1451 0
M  V30 1394 H 130.386 2.21952 -4.52497 0
M  V30 1395 H 129.988 0.710091 -3.67197 0
M  V30 1396 H 132.28 2.47534 -6.30661 0
M  V30 1397 H 133.223 1.11431 -6.99277 0
M  V30 1398 H 133.631 1.74367 -5.36895 0
M  V30 1399 N 133.029 1.57378 -0.0835403 0
M  V30 1400 C 133.962 2.09016 0.915833 0
M  V30 1401 C 134.94 0.997993 1.2837 0
M  V30 1402 O 136.124 1.27219 1.39096 0
M  V30 1403 C 133.251 2.55757 2.22049 0
M  V30 1404 C 132.297 3.76522 2.00333 0
M  V30 1405 S 133.13 5.20661 1.25191 0
M  V30 1406 C 134.286 5.70743 2.56912 0
M  V30 1407 H 134.519 2.93457 0.476492 0
M  V30 1408 H 132.052 1.53856 0.129493 0
M  V30 1409 H 134.01 2.83346 2.97027 0
M  V30 1410 H 132.671 1.71564 2.63106 0
M  V30 1411 H 131.864 4.07256 2.96916 0
M  V30 1412 H 131.466 3.49367 1.33488 0
M  V30 1413 H 133.758 5.78304 3.52946 0
M  V30 1414 H 134.701 6.6944 2.30772 0
M  V30 1415 H 135.109 4.98616 2.64655 0
M  V30 1416 N 134.507 -0.190092 1.56449 0
M  V30 1417 C 135.755 -0.907908 1.80559 0
M  V30 1418 C 136.076 -1.83583 0.657438 0
M  V30 1419 O 135.346 -1.93203 -0.323924 0
M  V30 1420 H 133.926 -0.338247 0.666032 0
M  V30 1421 H 136.588 -0.194403 1.93928 0
M  V30 1422 H 135.684 -1.49604 2.73907 0
M  V30 1423 N 135.985 -1.50799 -0.457987 0
M  V30 1424 C 136.933 -1.71162 -1.575 0
M  V30 1425 C 137.927 -0.577592 -1.59249 0
M  V30 1426 O 139.133 -0.758443 -1.63241 0
M  V30 1427 H 135.508 -0.540468 -0.522875 0
M  V30 1428 H 137.479 -2.64837 -1.37492 0
M  V30 1429 C 136.228 -1.83496 -2.95338 0
M  V30 1430 H 135.551 -2.70153 -2.94716 0
M  V30 1431 H 136.991 -2.01765 -3.72917 0
M  V30 1432 C 135.45 -0.589694 -3.31699 0
M  V30 1433 O 135.98 0.265163 -4.00824 0
M  V30 1434 N 134.186 -0.439845 -2.87252 0
M  V30 1435 H 133.733 -1.13655 -2.31172 0
M  V30 1436 H 133.691 0.392159 -3.11945 0
M  V30 1437 N 137.463 0.71206 -1.40597 0
M  V30 1438 C 138.373 1.8562 -1.43466 0
M  V30 1439 C 139.389 1.70902 -0.326902 0
M  V30 1440 O 140.565 1.93105 -0.572043 0
M  V30 1441 C 137.63 3.21451 -1.29884 0
M  V30 1442 C 136.691 3.48398 -2.50833 0
M  V30 1443 C 135.924 4.77749 -2.3789 0
M  V30 1444 O 136.147 5.53089 -1.39459 0
M  V30 1445 O 135.081 5.05111 -3.27333 0
M  V30 1446 H 138.907 1.86155 -2.39958 0
M  V30 1447 H 136.492 0.86295 -1.21957 0
M  V30 1448 H 138.374 4.02579 -1.24531 0
M  V30 1449 H 137.049 3.21636 -0.364997 0
M  V30 1450 H 135.956 2.67265 -2.61763 0
M  V30 1451 H 137.289 3.53014 -3.4299 0
M  V30 1452 N 138.941 1.26152 0.944643 0
M  V30 1453 C 139.871 1.09902 2.06019 0
M  V30 1454 C 140.852 0.00519538 1.70099 0
M  V30 1455 O 142.037 0.176583 1.93396 0
M  V30 1456 C 139.167 0.727562 3.39594 0
M  V30 1457 C 138.121 1.77274 3.89561 0
M  V30 1458 C 137.447 1.25569 5.19747 0
M  V30 1459 C 138.747 3.17357 4.14827 0
M  V30 1460 H 140.441 2.03217 2.19871 0
M  V30 1461 H 137.987 0.978452 1.05652 0
M  V30 1462 H 139.94 0.600777 4.17095 0
M  V30 1463 H 138.664 -0.241287 3.25707 0
M  V30 1464 H 137.323 1.88814 3.14237 0
M  V30 1465 H 136.971 0.276783 5.02238 0
M  V30 1466 H 136.671 1.95433 5.54148 0
M  V30 1467 H 138.195 1.1415 5.99835 0
M  V30 1468 H 139.609 3.08914 4.82954 0
M  V30 1469 H 138.006 3.84781 4.60504 0
M  V30 1470 H 139.076 3.63673 3.20734 0
M  V30 1471 N 140.419 -1.14872 1.07899 0
M  V30 1472 C 141.647 -1.89661 0.82683 0
M  V30 1473 C 142.062 -1.78312 -0.620519 0
M  V30 1474 O 141.419 -1.13888 -1.42604 0
M  V30 1475 C 141.47 -3.39817 1.23316 0
M  V30 1476 O 141.191 -3.50845 2.62372 0
M  V30 1477 C 142.692 -4.31615 1.0111 0
M  V30 1478 H 139.912 -0.60092 0.298557 0
M  V30 1479 H 142.456 -1.4551 1.43691 0
M  V30 1480 H 140.611 -3.8161 0.667286 0
M  V30 1481 H 141.025 -4.44076 2.79101 0
M  V30 1482 H 142.499 -5.35367 1.34486 0
M  V30 1483 H 142.976 -4.39169 -0.0522168 0
M  V30 1484 H 143.582 -3.95572 1.56215 0
M  V30 1485 N 141.898 -0.863906 -1.31812 0
M  V30 1486 C 143.145 -0.471836 -1.96926 0
M  V30 1487 C 143.473 0.974578 -1.68322 0
M  V30 1488 O 142.728 1.7003 -0.968933 0
M  V30 1489 C 143.027 -0.668547 -3.51091 0
M  V30 1490 C 142.693 -2.08683 -3.99703 0
M  V30 1491 C 141.355 -2.47471 -4.12688 0
M  V30 1492 C 143.707 -3.01207 -4.25351 0
M  V30 1493 C 141.035 -3.78037 -4.4867 0
M  V30 1494 C 143.387 -4.31282 -4.62794 0
M  V30 1495 C 142.051 -4.69992 -4.73987 0
M  V30 1496 H 141.321 -0.172657 -0.720604 0
M  V30 1497 H 143.968 -1.09573 -1.57054 0
M  V30 1498 H 142.273 0.0385252 -3.91781 0
M  V30 1499 H 143.97 -0.345102 -3.99512 0
M  V30 1500 H 140.56 -1.77566 -3.90087 0
M  V30 1501 H 144.744 -2.72469 -4.14819 0
M  V30 1502 H 140 -4.078 -4.55532 0
M  V30 1503 H 144.174 -5.03031 -4.81594 0
M  V30 1504 H 141.801 -5.71207 -5.01624 0
M  V30 1505 N 143.376 1.44774 -0.622745 0
M  V30 1506 C 144.306 2.33382 0.0741861 0
M  V30 1507 C 145.287 1.47719 0.843387 0
M  V30 1508 O 146.472 1.76458 0.810934 0
M  V30 1509 C 143.602 3.30663 1.06204 0
M  V30 1510 C 142.556 4.26079 0.405037 0
M  V30 1511 C 141.882 5.13165 1.5022 0
M  V30 1512 C 143.182 5.1781 -0.683414 0
M  V30 1513 H 144.876 2.91905 -0.665713 0
M  V30 1514 H 142.422 1.40363 -0.321587 0
M  V30 1515 H 144.375 3.9153 1.55827 0
M  V30 1516 H 143.099 2.70331 1.83272 0
M  V30 1517 H 141.758 3.66532 -0.0704683 0
M  V30 1518 H 141.406 4.49191 2.26355 0
M  V30 1519 H 141.106 5.77812 1.06803 0
M  V30 1520 H 142.63 5.76902 2.00041 0
M  V30 1521 H 144.044 5.72661 -0.270631 0
M  V30 1522 H 142.441 5.91015 -1.04023 0
M  V30 1523 H 143.511 4.59326 -1.55395 0
M  V30 1524 N 144.854 0.36279 1.53368 0
M  V30 1525 C 146.131 -0.284021 1.93527 0
M  V30 1526 C 146.511 -1.66628 1.29608 0
M  V30 1527 O 145.859 -2.23942 0.45413 0
M  V30 1528 C 146.069 -0.337028 3.47369 0
M  V30 1529 C 147.417 -0.578708 4.20638 0
M  V30 1530 O 148.441 -0.418352 3.53735 0
M  V30 1531 O 147.3 -0.89074 5.39192 0
M  V30 1532 H 144.394 -0.169743 0.809393 0
M  V30 1533 H 146.94 0.41537 1.64538 0
M  V30 1534 H 145.712 0.632217 3.86159 0
M  V30 1535 H 145.335 -1.08243 3.82582 0
M  V30 1536 N 146.332 -1.57332 0.0918853 0
M  V30 1537 C 147.609 -1.85691 -0.614668 0
M  V30 1538 C 147.989 -0.988146 -1.86545 0
M  V30 1539 O 147.337 -0.0597055 -2.28422 0
M  V30 1540 C 147.547 -3.36294 -0.933126 0
M  V30 1541 C 148.895 -4.04275 -1.29796 0
M  V30 1542 O 149.919 -3.41157 -1.02424 0
M  V30 1543 O 148.778 -5.1564 -1.81047 0
M  V30 1544 H 145.872 -0.767802 -0.307261 0
M  V30 1545 H 148.418 -1.69244 0.12434 0
M  V30 1546 H 147.19 -3.91273 -0.0456404 0
M  V30 1547 H 146.813 -3.58076 -1.72822 0
M  V30 1548 N 147.81 0.181792 -1.56548 0
M  V30 1549 C 149.035 0.920019 -1.85877 0
M  V30 1550 C 149.46 1.75494 -0.677021 0
M  V30 1551 O 148.818 1.77399 0.374056 0
M  V30 1552 C 148.866 1.78112 -3.13542 0
M  V30 1553 O 147.97 2.88152 -2.95029 0
M  V30 1554 H 147.311 0.258334 -0.611686 0
M  V30 1555 H 149.841 0.183092 -2.03779 0
M  V30 1556 H 149.851 2.18314 -3.44678 0
M  V30 1557 H 148.526 1.16777 -3.99169 0
M  V30 1558 H 147.103 2.51609 -2.75222 0
M  V30 1559 N 149.288 1.51039 0.449983 0
M  V30 1560 C 150.537 1.62317 1.19733 0
M  V30 1561 C 150.85 0.339101 1.92638 0
M  V30 1562 O 152.056 0.331069 2.69474 0
M  V30 1563 C 150.512 2.86608 2.17678 0
M  V30 1564 C 150.12 4.21972 1.50479 0
M  V30 1565 C 151.864 3.07239 2.92924 0
M  V30 1566 C 149.771 5.37426 2.46834 0
M  V30 1567 H 148.701 0.604532 0.450619 0
M  V30 1568 H 151.352 1.77494 0.465625 0
M  V30 1569 H 149.734 2.65037 2.94231 0
M  V30 1570 H 150.908 4.53878 0.795716 0
M  V30 1571 H 149.223 4.07117 0.874344 0
M  V30 1572 H 151.82 3.90668 3.65079 0
M  V30 1573 H 152.163 2.19807 3.5354 0
M  V30 1574 H 152.696 3.29091 2.23481 0
M  V30 1575 H 149.435 6.27079 1.90926 0
M  V30 1576 H 148.955 5.09912 3.15832 0
M  V30 1577 H 150.634 5.68862 3.08228 0
M  V30 1578 N 150.766 -0.704594 1.40972 0
M  V30 1579 C 152.006 -1.47691 1.41304 0
M  V30 1580 C 152.37 -1.91992 0.0178582 0
M  V30 1581 O 153.571 -2.68599 -0.103996 0
M  V30 1582 C 151.842 -2.66254 2.38419 0
M  V30 1583 S 153.401 -3.55516 2.57204 0
M  V30 1584 H 150.219 -0.504808 0.500689 0
M  V30 1585 H 152.821 -0.822962 1.77335 0
M  V30 1586 H 151.525 -2.31897 3.38603 0
M  V30 1587 H 151.056 -3.3655 2.03711 0
M  V30 1588 H 153.071 -4.61115 1.83268 0
M  V30 1589 N 152.244 -1.26651 -0.937939 0
M  V30 1590 C 153.472 -1.15173 -1.7188 0
M  V30 1591 C 153.887 0.292668 -1.86518 0
M  V30 1592 O 153.244 1.20014 -1.37488 0
M  V30 1593 C 153.295 -1.81925 -3.12387 0
M  V30 1594 O 153.016 -3.2072 -2.98446 0
M  V30 1595 C 154.517 -1.76442 -4.06673 0
M  V30 1596 H 151.737 -0.400911 -0.538063 0
M  V30 1597 H 154.281 -1.67332 -1.1756 0
M  V30 1598 H 152.436 -1.33696 -3.63599 0
M  V30 1599 H 152.85 -3.53802 -3.872 0
M  V30 1600 H 154.324 -2.27781 -5.02812 0
M  V30 1601 H 154.801 -0.731608 -4.33064 0
M  V30 1602 H 155.407 -2.24238 -3.61382 0
M  V30 1603 N 153.722 1.14298 -1.08507 0
M  V30 1604 C 154.97 1.84993 -0.813763 0
M  V30 1605 C 155.291 1.83405 0.662393 0
M  V30 1606 O 154.561 1.28319 1.48024 0
M  V30 1607 H 153.141 0.684966 -0.298045 0
M  V30 1608 H 155.803 1.385 -1.37126 0
M  V30 1609 H 154.899 2.89788 -1.15884 0
M  V30 1610 N 155.201 0.870884 1.31352 0
M  V30 1611 C 156.429 0.49677 2.00848 0
M  V30 1612 C 156.844 -0.910998 1.65367 0
M  V30 1613 O 156.201 -1.59696 0.883374 0
M  V30 1614 C 156.252 0.645308 3.55694 0
M  V30 1615 O 155.973 1.99764 3.89905 0
M  V30 1616 C 157.474 0.272326 4.42463 0
M  V30 1617 H 154.694 0.193462 0.642506 0
M  V30 1618 H 157.238 1.1723 1.67563 0
M  V30 1619 H 155.393 0.0173176 3.87396 0
M  V30 1620 H 155.807 2.00607 4.84621 0
M  V30 1621 H 157.281 0.427208 5.50344 0
M  V30 1622 H 157.758 -0.788587 4.32062 0
M  V30 1623 H 158.364 0.876054 4.1618 0
M  V30 1624 N 156.679 -1.44442 0.630414 0
M  V30 1625 C 157.904 -2.06927 0.139944 0
M  V30 1626 C 158.329 -1.46795 -1.17613 0
M  V30 1627 O 157.687 -0.569144 -1.72135 0
M  V30 1628 C 157.735 -3.6058 0.0379581 0
M  V30 1629 O 156.839 -3.99937 -1.0062 0
M  V30 1630 H 156.18 -0.658608 0.0844483 0
M  V30 1631 H 158.71 -1.85327 0.866891 0
M  V30 1632 H 158.72 -4.07714 -0.152856 0
M  V30 1633 H 157.395 -4.03728 0.998809 0
M  V30 1634 H 155.972 -3.64436 -0.79001 0
M  V30 1635 N 158.157 -0.370918 -1.53173 0
M  V30 1636 C 159.382 0.220293 -2.06227 0
M  V30 1637 C 159.807 1.41243 -1.24225 0
M  V30 1638 O 159.165 1.79387 -0.262645 0
M  V30 1639 C 159.213 0.586663 -3.55796 0
M  V30 1640 O 158.317 1.68317 -3.76488 0
M  V30 1641 H 157.658 0.0308099 -0.663285 0
M  V30 1642 H 160.188 -0.533068 -1.97534 0
M  V30 1643 H 160.198 0.85617 -3.98916 0
M  V30 1644 H 158.873 -0.285013 -4.14922 0
M  V30 1645 H 157.45 1.40881 -3.45264 0
M  V30 1646 N 159.635 1.57281 -0.100228 0
M  V30 1647 C 160.883 1.94153 0.561157 0
M  V30 1648 C 161.204 0.983157 1.68401 0
M  V30 1649 O 160.474 0.0361132 1.95867 0
M  V30 1650 H 159.054 0.716791 0.210283 0
M  V30 1651 H 161.716 1.94202 -0.164765 0
M  V30 1652 H 160.812 2.96709 0.968008 0
M  V30 1653 N 161.113 -0.173488 1.56642 0
M  V30 1654 C 162.061 -1.23417 1.97157 0
M  V30 1655 C 163.055 -1.45946 0.860013 0
M  V30 1656 O 164.261 -1.46551 1.04512 0
M  V30 1657 H 160.636 -0.414818 0.62724 0
M  V30 1658 H 162.607 -0.865582 2.8557 0
M  V30 1659 C 161.356 -2.5665 2.34576 0
M  V30 1660 H 160.679 -2.40137 3.19647 0
M  V30 1661 H 162.119 -3.2956 2.6677 0
M  V30 1662 C 160.578 -3.15245 1.18836 0
M  V30 1663 O 161.108 -3.98883 0.474869 0
M  V30 1664 N 159.314 -2.74303 0.959497 0
M  V30 1665 H 158.861 -2.0639 1.54146 0
M  V30 1666 H 158.819 -3.13844 0.186932 0
M  V30 1667 N 162.591 -1.51276 -0.441967 0
M  V30 1668 C 163.523 -1.68444 -1.55433 0
M  V30 1669 C 164.536 -0.565187 -1.52674 0
M  V30 1670 O 165.725 -0.839356 -1.57534 0
M  V30 1671 C 162.825 -1.67966 -2.94348 0
M  V30 1672 C 161.998 -2.964 -3.21661 0
M  V30 1673 C 161.057 -2.88171 -4.40277 0
M  V30 1674 O 160.083 -3.62119 -4.39157 0
M  V30 1675 N 161.285 -2.03706 -5.43584 0
M  V30 1676 H 164.05 -2.644 -1.41112 0
M  V30 1677 H 161.611 -1.49104 -0.630838 0
M  V30 1678 H 163.603 -1.60035 -3.71713 0
M  V30 1679 H 162.173 -0.796225 -3.0229 0
M  V30 1680 H 161.393 -3.18234 -2.32638 0
M  V30 1681 H 162.681 -3.81427 -3.36736 0
M  V30 1682 H 162.079 -1.42995 -5.47329 0
M  V30 1683 H 160.636 -2.01658 -6.1982 0
M  V30 1684 N 164.069 0.697108 -1.41344 0
M  V30 1685 C 165.315 1.4593 -1.40827 0
M  V30 1686 C 165.648 1.94193 -0.0167098 0
M  V30 1687 O 164.923 1.69425 0.955263 0
M  V30 1688 C 165.206 2.67229 -2.41373 0
M  V30 1689 C 165.059 2.24741 -3.8963 0
M  V30 1690 C 166.378 3.69423 -2.39196 0
M  V30 1691 H 163.497 0.529303 -0.512842 0
M  V30 1692 H 166.139 0.794112 -1.72609 0
M  V30 1693 H 164.289 3.23982 -2.14401 0
M  V30 1694 H 165.961 1.73327 -4.27499 0
M  V30 1695 H 164.204 1.56542 -4.0457 0
M  V30 1696 H 164.875 3.1177 -4.55525 0
M  V30 1697 H 167.351 3.2234 -2.63128 0
M  V30 1698 H 166.227 4.51907 -3.11563 0
M  V30 1699 H 166.488 4.19012 -1.41001 0
M  V30 1700 N 165.547 1.27147 0.931209 0
M  V30 1701 C 166.495 1.09398 2.05268 0
M  V30 1702 C 167.489 0.0180591 1.6939 0
M  V30 1703 O 168.695 0.17551 1.79142 0
M  V30 1704 H 165.07 0.336986 0.672268 0
M  V30 1705 H 167.041 2.04416 2.17386 0
M  V30 1706 C 165.79 0.75424 3.39421 0
M  V30 1707 H 165.113 1.57404 3.67511 0
M  V30 1708 H 166.553 0.669903 4.18674 0
M  V30 1709 C 165.012 -0.541197 3.32525 0
M  V30 1710 O 165.542 -1.57664 3.69466 0
M  V30 1711 N 163.748 -0.535517 2.85623 0
M  V30 1712 H 163.295 0.307511 2.55758 0
M  V30 1713 H 163.253 -1.40236 2.81392 0
M  V30 1714 N 167.025 -1.13721 1.09112 0
M  V30 1715 C 167.955 -2.21148 0.749385 0
M  V30 1716 C 168.936 -1.6792 -0.271475 0
M  V30 1717 O 170.121 -1.93693 -0.140251 0
M  V30 1718 C 167.251 -3.46905 0.165659 0
M  V30 1719 C 166.205 -4.13203 1.11567 0
M  V30 1720 C 165.531 -5.33248 0.393809 0
M  V30 1721 C 166.831 -4.60912 2.45678 0
M  V30 1722 H 168.525 -2.4999 1.64758 0
M  V30 1723 H 166.071 -1.20156 0.793626 0
M  V30 1724 H 168.024 -4.21313 -0.085466 0
M  V30 1725 H 166.748 -3.17449 -0.767714 0
M  V30 1726 H 165.407 -3.40758 1.35202 0
M  V30 1727 H 165.055 -5.00054 -0.543599 0
M  V30 1728 H 164.755 -5.78552 1.02721 0
M  V30 1729 H 166.279 -6.10413 0.150908 0
M  V30 1730 H 167.693 -5.26759 2.26269 0
M  V30 1731 H 166.09 -5.16944 3.04776 0
M  V30 1732 H 167.16 -3.75603 3.06677 0
M  V30 1733 N 168.503 -0.877838 -1.30888 0
M  V30 1734 C 169.731 -0.507414 -2.00581 0
M  V30 1735 C 170.146 0.902216 -1.65848 0
M  V30 1736 O 169.503 1.59225 -0.891831 0
M  V30 1737 C 169.554 -0.664162 -3.55347 0
M  V30 1738 O 169.275 -2.01829 -3.8884 0
M  V30 1739 C 170.776 -0.295787 -4.42312 0
M  V30 1740 H 167.996 -0.196866 -0.641471 0
M  V30 1741 H 170.54 -1.18117 -1.66939 0
M  V30 1742 H 168.695 -0.0378619 -3.87381 0
M  V30 1743 H 169.109 -2.03174 -4.8355 0
M  V30 1744 H 170.583 -0.456388 -5.5011 0
M  V30 1745 H 171.06 0.765663 -4.32475 0
M  V30 1746 H 171.666 -0.898113 -4.15709 0
M  V30 1747 N 169.982 1.44106 -0.638065 0
M  V30 1748 C 171.231 2.01194 -0.142744 0
M  V30 1749 C 171.544 1.50835 1.24532 0
M  V30 1750 O 172.75 2.00096 1.83504 0
M  V30 1751 C 171.206 3.59319 -0.20442 0
M  V30 1752 C 170.814 4.18674 -1.59423 0
M  V30 1753 C 172.558 4.23854 0.234079 0
M  V30 1754 C 170.465 5.69045 -1.61065 0
M  V30 1755 H 169.395 0.752367 -0.0495998 0
M  V30 1756 H 172.046 1.65246 -0.797881 0
M  V30 1757 H 170.428 3.92598 0.517946 0
M  V30 1758 H 171.602 3.96921 -2.34074 0
M  V30 1759 H 169.917 3.66453 -1.97741 0
M  V30 1760 H 172.514 5.34155 0.241443 0
M  V30 1761 H 172.857 3.96688 1.2627 0
M  V30 1762 H 173.39 3.95403 -0.436025 0
M  V30 1763 H 170.129 6.00956 -2.61787 0
M  V30 1764 H 169.649 5.929 -0.90718 0
M  V30 1765 H 171.328 6.32809 -1.34766 0
M  V30 1766 N 171.46 0.379036 1.52974 0
M  V30 1767 C 172.392 -0.495963 2.2377 0
M  V30 1768 C 173.405 -1.03517 1.25651 0
M  V30 1769 O 174.594 -0.939249 1.51791 0
M  V30 1770 C 171.694 -1.69894 2.93239 0
M  V30 1771 C 170.867 -1.2889 4.17979 0
M  V30 1772 C 169.926 -2.35543 4.70538 0
M  V30 1773 O 168.952 -1.97375 5.33883 0
M  V30 1774 N 170.154 -3.67318 4.49508 0
M  V30 1775 H 172.919 0.110523 2.99496 0
M  V30 1776 H 170.48 0.204878 1.60598 0
M  V30 1777 H 172.472 -2.40747 3.25304 0
M  V30 1778 H 171.042 -2.212 2.20883 0
M  V30 1779 H 170.262 -0.409676 3.92065 0
M  V30 1780 H 171.55 -0.991443 4.99047 0
M  V30 1781 H 170.948 -4.01095 3.98923 0
M  V30 1782 H 169.505 -4.34235 4.8609 0
M  V30 1783 N 172.938 -1.57226 0.108567 0
M  V30 1784 C 174.186 -1.94448 -0.550853 0
M  V30 1785 C 174.507 -0.992074 -1.67878 0
M  V30 1786 O 173.777 -0.0465 -1.95845 0
M  V30 1787 H 172.357 -0.717897 -0.206479 0
M  V30 1788 H 175.019 -1.94112 0.175062 0
M  V30 1789 H 174.115 -2.97218 -0.952259 0
M  V30 1790 N 174.416 0.165178 -1.56732 0
M  V30 1791 C 175.346 1.20651 -1.99914 0
M  V30 1792 C 176.327 1.45827 -0.875705 0
M  V30 1793 O 177.512 1.57057 -1.14223 0
M  V30 1794 C 174.642 2.54401 -2.36427 0
M  V30 1795 C 173.596 2.43782 -3.51787 0
M  V30 1796 C 172.922 3.82078 -3.7406 0
M  V30 1797 C 174.222 1.93732 -4.85041 0
M  V30 1798 H 175.916 0.847534 -2.87154 0
M  V30 1799 H 173.462 0.40625 -1.38151 0
M  V30 1800 H 175.415 3.27458 -2.65234 0
M  V30 1801 H 174.139 2.92098 -1.46103 0
M  V30 1802 H 172.798 1.73178 -3.23117 0
M  V30 1803 H 172.446 4.17179 -2.81017 0
M  V30 1804 H 172.146 3.7584 -4.51684 0
M  V30 1805 H 173.67 4.56712 -4.05274 0
M  V30 1806 H 175.084 2.56569 -5.12684 0
M  V30 1807 H 173.481 1.98428 -5.66345 0
M  V30 1808 H 174.551 0.891962 -4.76626 0
M  V30 1809 N 175.894 1.51508 0.433938 0
M  V30 1810 C 177.31 1.39759 0.770682 0
M  V30 1811 C 177.51 0.482594 1.95636 0
M  V30 1812 O 176.566 -0.0609691 2.52426 0
M  V30 1813 C 177.879 2.81851 1.04787 0
M  V30 1814 C 179.427 2.91025 1.1521 0
M  V30 1815 C 179.902 4.34032 1.46219 0
M  V30 1816 N 181.393 4.37154 1.53136 0
M  V30 1817 C 182.128 5.4484 1.78709 0
M  V30 1818 N 181.624 6.62682 2.02051 0
M  V30 1819 N 183.417 5.32324 1.80519 0
M  V30 1820 H 175.568 2.09548 -0.346892 0
M  V30 1821 H 177.831 0.943446 -0.0928074 0
M  V30 1822 H 177.537 3.50815 0.249304 0
M  V30 1823 H 177.411 3.21386 1.97461 0
M  V30 1824 H 179.798 2.22257 1.94128 0
M  V30 1825 H 179.879 2.54983 0.204281 0
M  V30 1826 H 179.523 5.03351 0.678274 0
M  V30 1827 H 179.453 4.6759 2.42212 0
M  V30 1828 H 181.944 3.52197 1.36987 0
M  V30 1829 H 182.257 7.40543 2.20943 0
M  V30 1830 H 180.602 6.65791 1.99366 0
M  V30 1831 H 183.793 4.39246 1.61805 0
M  V30 1832 H 183.966 6.16328 2.00111 0
M  V30 1833 N 177.372 -0.689602 1.41712 0
M  V30 1834 C 178.335 -1.78521 1.43746 0
M  V30 1835 C 179.335 -1.57436 0.327191 0
M  V30 1836 O 180.525 -1.64 0.587348 0
M  V30 1837 C 177.657 -3.16971 1.25467 0
M  V30 1838 H 178.85 -1.78108 2.41283 0
M  V30 1839 H 176.403 -0.89781 1.27942 0
M  V30 1840 H 177.138 -3.23019 0.287948 0
M  V30 1841 H 176.923 -3.33678 2.05917 0
M  V30 1842 H 178.413 -3.96935 1.2974 0
M  V30 1843 N 178.85 -1.27639 -0.924453 0
M  V30 1844 C 179.783 -1.04966 -2.02626 0
M  V30 1845 C 180.761 0.0309505 -1.62571 0
M  V30 1846 O 181.945 -0.114846 -1.8815 0
M  V30 1847 C 179.072 -0.59292 -3.3347 0
M  V30 1848 C 178.118 -1.66858 -3.92506 0
M  V30 1849 S 178.951 -3.2619 -4.24689 0
M  V30 1850 C 180.107 -2.82325 -5.58609 0
M  V30 1851 H 180.34 -1.98252 -2.21547 0
M  V30 1852 H 177.873 -1.11506 -1.06798 0
M  V30 1853 H 179.831 -0.336086 -4.09122 0
M  V30 1854 H 178.492 0.319939 -3.12466 0
M  V30 1855 H 177.685 -1.30038 -4.86935 0
M  V30 1856 H 177.287 -1.87766 -3.2345 0
M  V30 1857 H 179.579 -2.2783 -6.38044 0
M  V30 1858 H 180.522 -3.75511 -6.00331 0
M  V30 1859 H 180.93 -2.21367 -5.19285 0
M  V30 1860 N 180.328 1.1314 -1.09713 0
M  V30 1861 C 181.605 1.80762 -0.747302 0
M  V30 1862 C 181.985 1.96663 0.767265 0
M  V30 1863 O 181.333 1.53706 1.69076 0
M  V30 1864 C 181.543 3.15606 -1.48975 0
M  V30 1865 C 182.891 3.90914 -1.65746 0
M  V30 1866 O 183.915 3.25239 -1.45251 0
M  V30 1867 O 182.774 5.08718 -1.9967 0
M  V30 1868 H 179.868 0.782103 -0.268782 0
M  V30 1869 H 182.414 1.20041 -1.19951 0
M  V30 1870 H 181.186 2.99278 -2.52088 0
M  V30 1871 H 180.809 3.84029 -1.02991 0
M  V30 1872 N 181.806 0.884767 1.30421 0
M  V30 1873 C 183.034 0.518044 2.0031 0
M  V30 1874 C 183.449 -0.893408 1.66324 0
M  V30 1875 O 182.806 -1.5875 0.900262 0
M  V30 1876 C 182.857 0.682997 3.54989 0
M  V30 1877 O 182.578 2.03888 3.87764 0
M  V30 1878 C 184.079 0.31924 4.42149 0
M  V30 1879 H 181.299 0.200265 0.640418 0
M  V30 1880 H 183.843 1.19001 1.6631 0
M  V30 1881 H 181.998 0.0584052 3.87356 0
M  V30 1882 H 182.412 2.05735 4.82466 0
M  V30 1883 H 183.886 0.485555 5.4986 0
M  V30 1884 H 184.363 -0.742717 4.32875 0
M  V30 1885 H 184.969 0.920147 4.15227 0
M  V30 1886 N 183.284 -1.43765 0.645699 0
M  V30 1887 C 184.532 -2.01499 0.155731 0
M  V30 1888 C 184.853 -1.51151 -1.232 0
M  V30 1889 O 184.123 -0.721044 -1.82148 0
M  V30 1890 H 182.703 -0.745003 0.0545817 0
M  V30 1891 H 185.365 -1.76075 0.835677 0
M  V30 1892 H 184.461 -3.1181 0.134577 0
M  V30 1893 N 184.763 -0.387143 -1.52771 0
M  V30 1894 C 185.693 0.440551 -2.29306 0
M  V30 1895 C 186.674 1.06535 -1.32606 0
M  V30 1896 O 187.859 1.07853 -1.61497 0
M  V30 1897 C 184.989 1.56919 -3.09829 0
M  V30 1898 C 183.943 1.07054 -4.14395 0
M  V30 1899 C 183.269 2.29109 -4.83129 0
M  V30 1900 C 184.569 0.140015 -5.22112 0
M  V30 1901 H 186.263 -0.198026 -2.98744 0
M  V30 1902 H 183.809 -0.09668 -1.43675 0
M  V30 1903 H 185.762 2.15503 -3.62128 0
M  V30 1904 H 184.486 2.23532 -2.3812 0
M  V30 1905 H 183.145 0.507247 -3.63074 0
M  V30 1906 H 182.793 2.94227 -4.0797 0
M  V30 1907 H 182.493 1.96406 -5.53804 0
M  V30 1908 H 184.017 2.88339 -5.38231 0
M  V30 1909 H 185.431 0.633978 -5.69784 0
M  V30 1910 H 183.828 -0.0971485 -6.00021 0
M  V30 1911 H 184.898 -0.811711 -4.78058 0
M  V30 1912 N 186.241 1.57166 -0.116904 0
M  V30 1913 C 187.471 1.99184 0.548586 0
M  V30 1914 C 187.879 0.995436 1.60897 0
M  V30 1915 O 187.222 -0.0201293 1.83689 0
M  V30 1916 C 187.284 3.37611 1.23526 0
M  V30 1917 C 186.948 4.55857 0.323077 0
M  V30 1918 C 187.945 5.18056 -0.437476 0
M  V30 1919 C 185.63 5.01751 0.234761 0
M  V30 1920 C 187.624 6.24536 -1.2741 0
M  V30 1921 C 185.311 6.08093 -0.605496 0
M  V30 1922 C 186.309 6.69352 -1.35856 0
M  V30 1923 O 185.997 7.7364 -2.18487 0
M  V30 1924 H 185.729 0.659148 0.149999 0
M  V30 1925 H 188.283 2.0443 -0.199428 0
M  V30 1926 H 186.513 3.29113 2.0303 0
M  V30 1927 H 188.202 3.63932 1.79745 0
M  V30 1928 H 188.968 4.83516 -0.379105 0
M  V30 1929 H 184.847 4.53817 0.810601 0
M  V30 1930 H 188.391 6.72281 -1.86237 0
M  V30 1931 H 184.288 6.42063 -0.665268 0
M  V30 1932 H 185.056 7.90727 -2.11406 0
M  V30 1933 N 187.719 -0.156864 1.56817 0
M  V30 1934 C 188.968 -0.869504 1.81996 0
M  V30 1935 C 189.281 -1.82777 0.696545 0
M  V30 1936 O 190.487 -2.58384 0.833658 0
M  V30 1937 C 188.943 -1.59679 3.22538 0
M  V30 1938 C 188.551 -0.681431 4.42787 0
M  V30 1939 C 190.295 -2.2968 3.56997 0
M  V30 1940 C 188.202 -1.40978 5.74351 0
M  V30 1941 H 187.132 -0.328438 0.678708 0
M  V30 1942 H 189.783 -0.1223 1.83092 0
M  V30 1943 H 188.165 -2.38927 3.158 0
M  V30 1944 H 189.339 0.0751166 4.60739 0
M  V30 1945 H 187.654 -0.0903431 4.16302 0
M  V30 1946 H 190.251 -2.84794 4.52544 0
M  V30 1947 H 190.594 -3.05707 2.82576 0
M  V30 1948 H 191.127 -1.57361 3.65352 0
M  V30 1949 H 187.866 -0.691561 6.51842 0
M  V30 1950 H 187.386 -2.13929 5.60352 0
M  V30 1951 H 189.065 -1.95337 6.16808 0
M  V30 1952 N 189.197 -1.51736 -0.425897 0
M  V30 1953 C 190.437 -1.66636 -1.18371 0
M  V30 1954 C 190.801 -0.379854 -1.88205 0
M  V30 1955 O 192.002 -0.404758 -2.65735 0
M  V30 1956 C 190.273 -2.84382 -2.16476 0
M  V30 1957 S 191.832 -3.19673 -3.0059 0
M  V30 1958 H 188.65 -0.586957 -0.40125 0
M  V30 1959 H 191.252 -1.89679 -0.473518 0
M  V30 1960 H 189.956 -3.76281 -1.63831 0
M  V30 1961 H 189.487 -2.63562 -2.92059 0
M  V30 1962 H 191.502 -2.66994 -4.18245 0
M  V30 1963 N 190.675 0.682077 -1.42076 0
M  V30 1964 C 191.622 1.79578 -1.44984 0
M  V30 1965 C 192.592 1.6332 -0.302614 0
M  V30 1966 O 193.777 1.83978 -0.505633 0
M  V30 1967 C 190.917 3.1756 -1.35091 0
M  V30 1968 C 190.03 3.45156 -2.59791 0
M  V30 1969 C 189.165 4.72826 -2.42093 0
M  V30 1970 C 188.204 4.93433 -3.62202 0
M  V30 1971 N 187.341 6.12338 -3.43491 0
M  V30 1972 H 192.181 1.76427 -2.40161 0
M  V30 1973 H 189.718 0.861376 -1.19242 0
M  V30 1974 H 191.676 3.97287 -1.27354 0
M  V30 1975 H 190.306 3.19854 -0.435133 0
M  V30 1976 H 189.358 2.59736 -2.77923 0
M  V30 1977 H 190.67 3.5628 -3.49094 0
M  V30 1978 H 189.824 5.60631 -2.319 0
M  V30 1979 H 188.563 4.63973 -1.50268 0
M  V30 1980 H 187.568 4.04073 -3.72834 0
M  V30 1981 H 188.793 5.04136 -4.54998 0
M  V30 1982 H 186.739 6.04672 -2.54377 0
M  V30 1983 H 186.656 6.2429 -4.26377 0
M  V30 1984 H 187.924 7.02841 -3.37097 0
M  V30 1985 N 192.153 1.28127 0.917671 0
M  V30 1986 C 193.399 1.15223 1.66888 0
M  V30 1987 C 193.732 -0.299293 1.9188 0
M  V30 1988 O 193.007 -1.21805 1.51637 0
M  V30 1989 C 193.29 1.94706 3.02922 0
M  V30 1990 C 193.143 3.47898 2.85109 0
M  V30 1991 C 194.462 1.75939 4.03402 0
M  V30 1992 H 191.581 0.419946 0.605652 0
M  V30 1993 H 194.223 1.57398 1.06423 0
M  V30 1994 H 192.373 1.58864 3.54534 0
M  V30 1995 H 194.045 3.93624 2.40537 0
M  V30 1996 H 192.288 3.7373 2.20246 0
M  V30 1997 H 192.959 3.98765 3.81694 0
M  V30 1998 H 195.435 2.07209 3.60837 0
M  V30 1999 H 194.311 2.33931 4.96556 0
M  V30 2000 H 194.572 0.709877 4.36364 0
M  V30 2001 N 193.631 -1.12557 1.10312 0
M  V30 2002 C 194.541 -2.21841 0.763142 0
M  V30 2003 C 195.557 -1.72354 -0.238801 0
M  V30 2004 O 196.733 -2.01249 -0.0778746 0
M  V30 2005 C 193.798 -3.46131 0.198632 0
M  V30 2006 C 192.859 -4.10464 1.25769 0
M  V30 2007 C 192.092 -5.28821 0.72002 0
M  V30 2008 O 192.315 -5.6859 -0.453993 0
M  V30 2009 O 191.249 -5.83437 1.47935 0
M  V30 2010 H 195.075 -2.53312 1.67532 0
M  V30 2011 H 192.66 -1.20867 0.878157 0
M  V30 2012 H 194.542 -4.2125 -0.112401 0
M  V30 2013 H 193.217 -3.16338 -0.686419 0
M  V30 2014 H 192.124 -3.3713 1.62156 0
M  V30 2015 H 193.457 -4.44408 2.11571 0
M  V30 2016 N 195.109 -0.891671 -1.2995 0
M  V30 2017 C 196.039 -0.379797 -2.30391 0
M  V30 2018 C 197.02 0.540919 -1.6127 0
M  V30 2019 O 198.205 0.453352 -1.88834 0
M  V30 2020 C 195.335 0.400654 -3.44981 0
M  V30 2021 C 194.289 -0.428905 -4.25846 0
M  V30 2022 C 193.615 0.478557 -5.32554 0
M  V30 2023 C 194.915 -1.67458 -4.94727 0
M  V30 2024 H 196.609 -1.21914 -2.73454 0
M  V30 2025 H 194.155 -0.587675 -1.31462 0
M  V30 2026 H 196.108 0.769434 -4.14316 0
M  V30 2027 H 194.832 1.27371 -3.0074 0
M  V30 2028 H 193.491 -0.779911 -3.58208 0
M  V30 2029 H 193.139 1.34951 -4.84559 0
M  V30 2030 H 192.839 -0.0727433 -5.87555 0
M  V30 2031 H 194.363 0.843705 -6.04743 0
M  V30 2032 H 195.777 -1.376 -5.56542 0
M  V30 2033 H 194.174 -2.16659 -5.59624 0
M  V30 2034 H 195.244 -2.41518 -4.20473 0
M  V30 2035 N 196.587 1.43421 -0.653314 0
M  V30 2036 C 197.52 2.2803 0.0879804 0
M  V30 2037 C 198.498 1.39833 0.82979 0
M  V30 2038 O 199.682 1.69275 0.829341 0
M  V30 2039 C 196.809 3.19247 1.13132 0
M  V30 2040 C 195.855 4.23704 0.487546 0
M  V30 2041 S 196.688 5.30377 -0.738961 0
M  V30 2042 C 197.844 6.25162 0.30384 0
M  V30 2043 H 198.077 2.90554 -0.629739 0
M  V30 2044 H 195.61 1.47934 -0.442156 0
M  V30 2045 H 197.568 3.72346 1.72827 0
M  V30 2046 H 196.229 2.55901 1.82136 0
M  V30 2047 H 195.422 4.87631 1.27407 0
M  V30 2048 H 195.024 3.73983 -0.0352915 0
M  V30 2049 H 197.316 6.67321 1.17 0
M  V30 2050 H 198.259 7.07463 -0.300402 0
M  V30 2051 H 198.667 5.60864 0.63969 0
M  V30 2052 N 198.065 0.39524 1.52563 0
M  V30 2053 C 199.295 -0.184675 2.05773 0
M  V30 2054 C 199.703 -1.40571 1.26635 0
M  V30 2055 O 199.046 -1.81105 0.30769 0
M  V30 2056 C 199.108 -0.613551 3.54226 0
M  V30 2057 C 198.772 0.49484 4.54313 0
M  V30 2058 C 199.769 1.3541 5.01956 0
M  V30 2059 C 197.454 0.663565 4.97898 0
M  V30 2060 C 199.448 2.36716 5.91814 0
M  V30 2061 C 197.135 1.67996 5.87555 0
M  V30 2062 C 198.133 2.53017 6.34406 0
M  V30 2063 O 197.821 3.52917 7.22291 0
M  V30 2064 H 197.553 -0.030077 0.675331 0
M  V30 2065 H 200.107 0.560708 1.97599 0
M  V30 2066 H 198.337 -1.411 3.60038 0
M  V30 2067 H 200.026 -1.11981 3.90148 0
M  V30 2068 H 200.792 1.23509 4.6901 0
M  V30 2069 H 196.671 0.0114913 4.60999 0
M  V30 2070 H 200.215 3.03113 6.28306 0
M  V30 2071 H 196.112 1.79933 6.19915 0
M  V30 2072 H 196.88 3.48996 7.40367 0
M  V30 2073 N 199.544 -1.57102 0.125237 0
M  V30 2074 C 200.955 -1.82384 -0.399142 0
M  V30 2075 C 201.306 -1.04276 -1.66195 0
M  V30 2076 O 200.431 -0.281269 -2.14564 0
M  V30 2077 C 201.026 -3.30821 -0.730932 0
M  V30 2078 C 199.585 -3.56762 -1.19992 0
M  V30 2079 C 198.732 -2.7649 -0.211792 0
M  V30 2080 H 201.683 -1.54786 0.350277 0
M  V30 2081 H 201.704 -3.4579 -1.58775 0
M  V30 2082 H 201.216 -3.87643 0.188345 0
M  V30 2083 H 199.317 -3.05305 -2.13588 0
M  V30 2084 H 199.43 -4.65317 -1.14093 0
M  V30 2085 H 197.794 -2.4489 -0.700085 0
M  V30 2086 H 198.577 -3.36073 0.700691 0
M  V30 2087 N 201.022 0.148545 -1.56898 0
M  V30 2088 C 202.433 0.708766 -1.72723 0
M  V30 2089 C 202.784 1.81734 -0.739395 0
M  V30 2090 O 201.909 2.16194 0.0943169 0
M  V30 2091 C 202.504 1.29245 -3.13179 0
M  V30 2092 C 201.063 1.79925 -3.30611 0
M  V30 2093 C 200.21 0.687111 -2.68652 0
M  V30 2094 H 203.161 -0.0771063 -1.58513 0
M  V30 2095 H 203.182 2.16224 -3.13093 0
M  V30 2096 H 202.694 0.485382 -3.85053 0
M  V30 2097 H 200.795 2.63203 -2.63732 0
M  V30 2098 H 200.908 1.92903 -4.38549 0
M  V30 2099 H 199.272 1.11335 -2.29078 0
M  V30 2100 H 200.055 -0.108483 -3.43129 0
M  V30 2101 N 202.5 1.5196 0.417844 0
M  V30 2102 C 203.911 1.57851 0.997 0
M  V30 2103 C 204.262 0.413714 1.91789 0
M  V30 2104 O 203.387 -0.467057 2.113 0
M  V30 2105 C 203.982 2.86085 1.81496 0
M  V30 2106 C 202.541 2.94483 2.34428 0
M  V30 2107 C 201.688 2.52707 1.14169 0
M  V30 2108 H 204.639 1.57455 0.198392 0
M  V30 2109 H 204.66 2.70947 2.67148 0
M  V30 2110 H 204.172 3.70842 1.14446 0
M  V30 2111 H 202.273 2.142 3.04875 0
M  V30 2112 H 202.386 3.98546 2.65891 0
M  V30 2113 H 200.75 2.06353 1.49301 0
M  V30 2114 H 201.533 3.39828 0.486999 0
M  V30 2115 N 203.978 -0.674533 1.42435 0
M  V30 2116 C 205.208 -1.46071 1.46105 0
M  V30 2117 C 205.616 -1.89067 0.0709605 0
M  V30 2118 O 204.959 -1.58731 -0.924677 0
M  V30 2119 C 205.021 -2.74145 2.32561 0
M  V30 2120 C 204.685 -2.53224 3.8043 0
M  V30 2121 C 205.682 -2.17809 4.72075 0
M  V30 2122 C 203.367 -2.6821 4.24698 0
M  V30 2123 C 205.361 -1.97648 6.05982 0
M  V30 2124 C 203.048 -2.47665 5.58664 0
M  V30 2125 C 204.046 -2.12437 6.49122 0
M  V30 2126 O 203.734 -1.9209 7.80613 0
M  V30 2127 H 203.466 -0.455959 0.499076 0
M  V30 2128 H 206.02 -0.836193 1.87609 0
M  V30 2129 H 204.25 -3.3908 1.85908 0
M  V30 2130 H 205.939 -3.36028 2.27683 0
M  V30 2131 H 206.705 -2.05826 4.39159 0
M  V30 2132 H 202.584 -2.94609 3.54579 0
M  V30 2133 H 206.128 -1.70075 6.7655 0
M  V30 2134 H 202.025 -2.59244 5.91154 0
M  V30 2135 H 202.793 -2.06686 7.91974 0
M  V30 2136 N 205.456 -1.28612 -0.910864 0
M  V30 2137 C 206.686 -1.1862 -1.69153 0
M  V30 2138 C 207.094 0.257324 -1.87442 0
M  V30 2139 O 206.437 1.18543 -1.40332 0
M  V30 2140 C 206.499 -1.81606 -3.10257 0
M  V30 2141 C 206.163 -3.30864 -3.15243 0
M  V30 2142 C 207.16 -4.27256 -2.96223 0
M  V30 2143 C 204.845 -3.71871 -3.37664 0
M  V30 2144 C 206.839 -5.62631 -2.99541 0
M  V30 2145 C 204.526 -5.07371 -3.40614 0
M  V30 2146 C 205.524 -6.02561 -3.21573 0
M  V30 2147 O 205.212 -7.35589 -3.2429 0
M  V30 2148 H 204.944 -0.412633 -0.535453 0
M  V30 2149 H 207.498 -1.70306 -1.14827 0
M  V30 2150 H 205.728 -1.24418 -3.66138 0
M  V30 2151 H 207.417 -1.66092 -3.70362 0
M  V30 2152 H 208.183 -3.9691 -2.78725 0
M  V30 2153 H 204.062 -2.98241 -3.5153 0
M  V30 2154 H 207.606 -6.36907 -2.84597 0
M  V30 2155 H 203.503 -5.37366 -3.57642 0
M  V30 2156 H 204.271 -7.44252 -3.40633 0
M  V30 2157 N 206.934 1.1197 -1.10907 0
M  V30 2158 C 207.864 2.19928 -0.784473 0
M  V30 2159 C 208.845 1.6833 0.244726 0
M  V30 2160 O 210.03 1.93892 0.109418 0
M  V30 2161 C 207.16 3.46597 -0.220827 0
M  V30 2162 C 206.114 4.11376 -1.18127 0
M  V30 2163 C 205.44 5.32554 -0.478594 0
M  V30 2164 C 206.74 4.56945 -2.52979 0
M  V30 2165 H 208.434 2.47337 -1.68715 0
M  V30 2166 H 205.98 1.18879 -0.812642 0
M  V30 2167 H 207.933 4.21396 0.0184278 0
M  V30 2168 H 206.657 3.1863 0.717113 0
M  V30 2169 H 205.316 3.38564 -1.40606 0
M  V30 2170 H 204.964 5.00856 0.463976 0
M  V30 2171 H 204.664 5.76844 -1.11912 0
M  V30 2172 H 206.188 6.10096 -0.248 0
M  V30 2173 H 207.602 5.23093 -2.3462 0
M  V30 2174 H 205.999 5.1203 -3.12962 0
M  V30 2175 H 207.069 3.70676 -3.12614 0
M  V30 2176 N 208.412 0.89855 1.29475 0
M  V30 2177 C 209.66 0.522847 1.9522 0
M  V30 2178 C 209.981 -0.93371 1.71192 0
M  V30 2179 O 209.251 -1.65823 1.04305 0
M  V30 2180 H 207.831 0.190366 0.722336 0
M  V30 2181 H 210.493 1.14459 1.5775 0
M  V30 2182 H 209.589 0.704476 3.04045 0
M  V30 2183 N 209.89 -1.43072 0.660911 0
M  V30 2184 C 211.139 -2.00942 0.174735 0
M  V30 2185 C 211.452 -1.52797 -1.22117 0
M  V30 2186 O 212.658 -2.02991 -1.80297 0
M  V30 2187 C 211.114 -3.58948 0.261559 0
M  V30 2188 C 210.722 -4.16085 1.66064 0
M  V30 2189 C 212.466 -4.24173 -0.166617 0
M  V30 2190 C 210.373 -5.6641 1.70098 0
M  V30 2191 H 209.303 -0.751483 0.0615631 0
M  V30 2192 H 211.954 -1.63955 0.824069 0
M  V30 2193 H 210.336 -3.93372 -0.455421 0
M  V30 2194 H 211.51 -3.93147 2.40359 0
M  V30 2195 H 209.825 -3.6326 2.03546 0
M  V30 2196 H 212.422 -5.34471 -0.156433 0
M  V30 2197 H 212.765 -3.98647 -1.19943 0
M  V30 2198 H 213.298 -3.94659 0.498875 0
M  V30 2199 H 210.037 -5.96715 2.71315 0
M  V30 2200 H 209.557 -5.91382 1.00139 0
M  V30 2201 H 211.236 -6.30585 1.44816 0
M  V30 2202 N 211.368 -0.403325 -1.52352 0
M  V30 2203 C 212.616 0.174003 -2.0135 0
M  V30 2204 C 212.937 1.46139 -1.29106 0
M  V30 2205 O 212.207 1.91448 -0.415253 0
M  V30 2206 H 210.787 0.0672911 -0.743963 0
M  V30 2207 H 213.449 -0.538235 -1.87321 0
M  V30 2208 H 212.545 0.374254 -3.09848 0
M  V30 2209 N 212.846 1.57033 -0.133567 0
M  V30 2210 C 213.794 2.17348 0.828412 0
M  V30 2211 C 214.788 1.12671 1.26498 0
M  V30 2212 O 215.994 1.30947 1.23502 0
M  V30 2213 H 212.369 0.695775 0.285309 0
M  V30 2214 H 214.34 2.96935 0.295372 0
M  V30 2215 C 213.089 2.79893 2.06289 0
M  V30 2216 H 212.412 3.60147 1.73592 0
M  V30 2217 H 213.852 3.25615 2.71572 0
M  V30 2218 C 212.311 1.77713 2.86216 0
M  V30 2219 O 212.841 1.23937 3.82103 0
M  V30 2220 N 211.047 1.47321 2.50489 0
M  V30 2221 H 210.594 1.91243 1.7258 0
M  V30 2222 H 210.552 0.79199 3.04261 0
M  V30 2223 N 214.325 -0.140222 1.56975 0
M  V30 2224 C 215.573 -0.850005 1.83356 0
M  V30 2225 C 215.894 -1.81399 0.71551 0
M  V30 2226 O 215.164 -1.94136 -0.262294 0
M  V30 2227 H 213.744 -0.316886 0.676456 0
M  V30 2228 H 216.406 -0.132608 1.94448 0
M  V30 2229 H 215.502 -1.40814 2.78528 0
M  V30 2230 N 215.803 -1.52179 -0.40978 0
M  V30 2231 C 217.031 -1.70054 -1.17853 0
M  V30 2232 C 217.446 -0.409735 -1.843 0
M  V30 2233 O 216.803 0.614183 -1.71855 0
M  V30 2234 C 216.854 -2.83568 -2.24213 0
M  V30 2235 O 216.575 -4.0765 -1.60478 0
M  V30 2236 C 218.076 -3.12947 -3.13973 0
M  V30 2237 H 215.296 -0.569917 -0.354169 0
M  V30 2238 H 217.84 -1.98734 -0.482198 0
M  V30 2239 H 215.995 -2.57409 -2.89516 0
M  V30 2240 H 216.409 -4.70899 -2.30986 0
M  V30 2241 H 217.883 -3.95889 -3.84677 0
M  V30 2242 H 218.36 -2.26472 -3.76307 0
M  V30 2243 H 218.966 -3.40868 -2.5434 0
M  V30 2244 N 217.281 0.66697 -1.42791 0
M  V30 2245 C 218.213 1.7925 -1.42836 0
M  V30 2246 C 219.226 1.59496 -0.326333 0
M  V30 2247 O 220.415 1.6847 -0.589916 0
M  V30 2248 C 217.515 3.16476 -1.21229 0
M  V30 2249 C 216.688 3.63011 -2.44013 0
M  V30 2250 C 215.747 4.78993 -2.17834 0
M  V30 2251 O 214.773 4.89137 -2.91091 0
M  V30 2252 N 215.975 5.68248 -1.18635 0
M  V30 2253 H 218.74 1.79695 -2.39854 0
M  V30 2254 H 216.301 0.850338 -1.37771 0
M  V30 2255 H 218.293 3.91734 -1.01621 0
M  V30 2256 H 216.863 3.10884 -0.32706 0
M  V30 2257 H 216.083 2.78346 -2.79137 0
M  V30 2258 H 217.371 3.90845 -3.25757 0
M  V30 2259 H 216.769 5.62712 -0.580615 0
M  V30 2260 H 215.326 6.43285 -1.05013 0
M  V30 2261 N 218.759 1.29093 0.90403 0
M  V30 2262 C 220.008 1.16187 1.64874 0
M  V30 2263 C 220.321 -0.286742 1.93487 0
M  V30 2264 O 221.527 -0.537062 2.66135 0
M  V30 2265 C 219.983 2.03177 2.97064 0
M  V30 2266 C 219.591 3.52836 2.76062 0
M  V30 2267 C 221.335 1.98984 3.74974 0
M  V30 2268 C 219.242 4.31945 4.03952 0
M  V30 2269 H 218.172 0.431246 0.618501 0
M  V30 2270 H 220.823 1.53699 1.00243 0
M  V30 2271 H 219.205 1.5853 3.62883 0
M  V30 2272 H 220.379 4.05507 2.18863 0
M  V30 2273 H 218.694 3.58656 2.11553 0
M  V30 2274 H 221.291 2.55351 4.69787 0
M  V30 2275 H 221.634 0.968815 4.0487 0
M  V30 2276 H 222.167 2.41652 3.15989 0
M  V30 2277 H 218.906 5.34667 3.79225 0
M  V30 2278 H 218.426 3.84045 4.60727 0
M  V30 2279 H 220.105 4.42379 4.72133 0
M  V30 2280 N 220.237 -1.11381 1.11499 0
M  V30 2281 C 221.467 -1.86663 0.885464 0
M  V30 2282 C 221.875 -1.80464 -0.568281 0
M  V30 2283 O 221.218 -1.18445 -1.40415 0
M  V30 2284 C 221.28 -3.36337 1.26956 0
M  V30 2285 C 220.944 -3.66304 2.73259 0
M  V30 2286 C 221.941 -3.63733 3.71476 0
M  V30 2287 C 219.626 -3.9529 3.09921 0
M  V30 2288 C 221.62 -3.89725 5.04374 0
M  V30 2289 C 219.307 -4.20941 4.43004 0
M  V30 2290 C 220.305 -4.18147 5.40039 0
M  V30 2291 O 219.993 -4.43153 6.70724 0
M  V30 2292 H 219.725 -0.597114 0.316908 0
M  V30 2293 H 222.279 -1.41782 1.48617 0
M  V30 2294 H 220.509 -3.81826 0.611999 0
M  V30 2295 H 222.198 -3.92986 1.01573 0
M  V30 2296 H 222.964 -3.41389 3.44498 0
M  V30 2297 H 218.843 -3.966 2.35009 0
M  V30 2298 H 222.387 -3.8746 5.80104 0
M  V30 2299 H 218.284 -4.42761 4.69716 0
M  V30 2300 H 219.052 -4.60717 6.76522 0
M  V30 2301 N 221.715 -0.905404 -1.28997 0
M  V30 2302 C 222.961 -0.535039 -1.95615 0
M  V30 2303 C 223.294 0.917404 -1.71165 0
M  V30 2304 O 222.569 1.65123 -1.02785 0
M  V30 2305 C 222.852 -0.834918 -3.50287 0
M  V30 2306 C 222.705 -2.33948 -3.84172 0
M  V30 2307 C 224.024 -0.325318 -4.38896 0
M  V30 2308 H 221.143 -0.195861 -0.710498 0
M  V30 2309 H 223.785 -1.13313 -1.52513 0
M  V30 2310 H 221.935 -0.325904 -3.87131 0
M  V30 2311 H 223.607 -2.91847 -3.57243 0
M  V30 2312 H 221.85 -2.79789 -3.31513 0
M  V30 2313 H 222.521 -2.49987 -4.92149 0
M  V30 2314 H 224.997 -0.761256 -4.09077 0
M  V30 2315 H 223.873 -0.564295 -5.45992 0
M  V30 2316 H 224.134 0.774144 -4.35269 0
M  V30 2317 N 223.193 1.4272 -0.668489 0
M  V30 2318 C 224.442 2.00846 -0.185389 0
M  V30 2319 C 224.755 1.53442 1.21305 0
M  V30 2320 O 225.961 2.03944 1.79218 0
M  V30 2321 C 224.417 3.58805 -0.280591 0
M  V30 2322 C 224.025 4.15198 -1.68268 0
M  V30 2323 C 225.769 4.24255 0.14412 0
M  V30 2324 C 223.676 5.655 -1.73099 0
M  V30 2325 H 222.606 0.751145 -0.0655475 0
M  V30 2326 H 225.257 1.63516 -0.832752 0
M  V30 2327 H 223.639 3.93608 0.434553 0
M  V30 2328 H 224.813 3.91866 -2.42441 0
M  V30 2329 H 223.128 3.62176 -2.05469 0
M  V30 2330 H 225.725 5.34547 0.128086 0
M  V30 2331 H 226.068 3.99277 1.17827 0
M  V30 2332 H 226.601 3.94389 -0.519798 0
M  V30 2333 H 223.34 5.95268 -2.74475 0
M  V30 2334 H 222.86 5.90842 -1.03274 0
M  V30 2335 H 224.539 6.29808 -1.48158 0
M  V30 2336 N 224.671 0.411399 1.52136 0
M  V30 2337 C 225.948 -0.222308 1.94333 0
M  V30 2338 C 226.328 -1.6242 1.34844 0
M  V30 2339 O 225.676 -2.22384 0.525145 0
M  V30 2340 C 225.886 -0.226345 3.48265 0
M  V30 2341 C 227.234 -0.444592 4.22266 0
M  V30 2342 O 228.258 -0.305602 3.54887 0
M  V30 2343 O 227.117 -0.718749 5.41753 0
M  V30 2344 H 224.211 -0.143907 0.814383 0
M  V30 2345 H 226.757 0.467506 1.63133 0
M  V30 2346 H 225.529 0.75475 3.83952 0
M  V30 2347 H 225.152 -0.960163 3.85832 0
M  V30 2348 N 226.149 -1.5696 0.141893 0
M  V30 2349 C 227.56 -1.82797 -0.379776 0
M  V30 2350 C 227.911 -1.06033 -1.6508 0
M  V30 2351 O 227.036 -0.304011 -2.14254 0
M  V30 2352 C 227.631 -3.31578 -0.695802 0
M  V30 2353 C 226.19 -3.58014 -1.16201 0
M  V30 2354 C 225.337 -2.76699 -0.182455 0
M  V30 2355 H 228.288 -1.54406 0.366675 0
M  V30 2356 H 228.309 -3.47454 -1.55099 0
M  V30 2357 H 227.821 -3.87421 0.229449 0
M  V30 2358 H 225.922 -3.07553 -2.10338 0
M  V30 2359 H 226.035 -4.66501 -1.09151 0
M  V30 2360 H 224.399 -2.45618 -0.674072 0
M  V30 2361 H 225.182 -3.35311 0.736297 0
M  V30 2362 N 227.627 0.131896 -1.57047 0
M  V30 2363 C 228.537 1.1815 -2.02676 0
M  V30 2364 C 229.553 1.46113 -0.944824 0
M  V30 2365 O 230.729 1.57485 -1.25541 0
M  V30 2366 C 227.794 2.49139 -2.41103 0
M  V30 2367 C 226.855 2.28688 -3.63318 0
M  V30 2368 C 226.088 3.53431 -3.99903 0
M  V30 2369 O 226.311 4.60223 -3.36973 0
M  V30 2370 O 225.245 3.45198 -4.93074 0
M  V30 2371 H 229.071 0.824069 -2.92306 0
M  V30 2372 H 226.656 0.341745 -1.45439 0
M  V30 2373 H 228.538 3.26338 -2.66611 0
M  V30 2374 H 227.213 2.84382 -1.54624 0
M  V30 2375 H 226.12 1.4939 -3.42977 0
M  V30 2376 H 227.453 1.98355 -4.50462 0
M  V30 2377 N 229.106 1.52395 0.401703 0
M  V30 2378 C 230.517 1.58899 0.980202 0
M  V30 2379 C 230.868 0.434032 1.91339 0
M  V30 2380 O 229.993 -0.444619 2.11783 0
M  V30 2381 C 230.588 2.87994 1.78451 0
M  V30 2382 C 229.147 2.96953 2.31292 0
M  V30 2383 C 228.294 2.53903 1.11483 0
M  V30 2384 H 231.245 1.57657 0.18168 0
M  V30 2385 H 231.266 2.73765 2.64259 0
M  V30 2386 H 230.778 3.72035 1.10506 0
M  V30 2387 H 228.879 2.17422 3.02586 0
M  V30 2388 H 228.992 4.01344 2.61649 0
M  V30 2389 H 227.356 2.07925 1.47104 0
M  V30 2390 H 228.139 3.40326 0.450928 0
M  V30 2391 N 230.584 -0.659388 1.43143 0
M  V30 2392 C 231.824 -1.43121 1.45931 0
M  V30 2393 C 232.188 -1.91838 0.0789298 0
M  V30 2394 O 233.389 -2.68794 -0.018491 0
M  V30 2395 C 231.66 -2.58534 2.46769 0
M  V30 2396 S 233.219 -3.47154 2.68384 0
M  V30 2397 H 230.037 -0.488624 0.516496 0
M  V30 2398 H 232.639 -0.766128 1.79863 0
M  V30 2399 H 231.343 -2.21007 3.45809 0
M  V30 2400 H 230.874 -3.29898 2.14315 0
M  V30 2401 H 232.889 -4.55051 1.97845 0
M  V30 2402 N 232.062 -1.29571 -0.897171 0
M  V30 2403 C 233.473 -1.15964 -1.46319 0
M  V30 2404 C 233.824 0.244267 -1.94674 0
M  V30 2405 O 232.949 1.13998 -1.83939 0
M  V30 2406 C 233.544 -2.09906 -2.65942 0
M  V30 2407 C 232.103 -2.00314 -3.18671 0
M  V30 2408 C 231.25 -2.00687 -1.91363 0
M  V30 2409 H 234.201 -1.42019 -0.708268 0
M  V30 2410 H 234.222 -1.67276 -3.41759 0
M  V30 2411 H 233.734 -3.12075 -2.30718 0
M  V30 2412 H 231.835 -1.01242 -3.58582 0
M  V30 2413 H 231.948 -2.88102 -3.82798 0
M  V30 2414 H 230.312 -1.45319 -2.09175 0
M  V30 2415 H 231.095 -3.04566 -1.58413 0
M  V30 2416 N 233.54 1.10788 -1.12088 0
M  V30 2417 C 234.817 1.79136 -0.785476 0
M  V30 2418 C 235.197 1.98246 0.725377 0
M  V30 2419 O 234.545 1.57258 1.65778 0
M  V30 2420 C 234.755 3.12375 -1.55636 0
M  V30 2421 C 236.103 3.8731 -1.74001 0
M  V30 2422 O 237.127 3.22085 -1.52117 0
M  V30 2423 O 235.986 5.04369 -2.10415 0
M  V30 2424 H 233.08 0.776226 -0.285311 0
M  V30 2425 H 235.626 1.1747 -1.2247 0
M  V30 2426 H 234.398 2.93863 -2.5838 0
M  V30 2427 H 234.021 3.81758 -1.11114 0
M  V30 2428 N 235.018 0.912232 1.28515 0
M  V30 2429 C 236.243 0.559774 1.99703 0
M  V30 2430 C 236.668 -0.851393 1.67729 0
M  V30 2431 O 236.026 -1.56875 0.908834 0
M  V30 2432 C 236.074 0.773874 3.52198 0
M  V30 2433 O 235.178 -0.167842 4.12058 0
M  V30 2434 H 234.519 0.21723 0.627461 0
M  V30 2435 H 237.049 1.22725 1.63706 0
M  V30 2436 H 237.059 0.683386 4.02236 0
M  V30 2437 H 235.734 1.80261 3.74805 0
M  V30 2438 H 234.311 -0.0287509 3.72889 0
M  V30 2439 N 236.496 -1.42363 0.676048 0
M  V30 2440 C 237.773 -1.95183 0.127726 0
M  V30 2441 C 238.153 -1.61641 -1.35777 0
M  V30 2442 O 237.501 -0.913216 -2.09458 0
M  V30 2443 C 237.711 -3.46721 0.398199 0
M  V30 2444 C 239.059 -4.23427 0.315383 0
M  V30 2445 O 240.083 -3.54649 0.332016 0
M  V30 2446 O 238.942 -5.45888 0.25865 0
M  V30 2447 H 236.036 -0.826992 0.00359427 0
M  V30 2448 H 238.582 -1.52184 0.750864 0
M  V30 2449 H 237.354 -3.64344 1.4272 0
M  V30 2450 H 236.977 -3.96769 -0.256885 0
M  V30 2451 N 237.974 -0.419461 -1.51915 0
M  V30 2452 C 239.221 0.152939 -2.01922 0
M  V30 2453 C 239.549 1.4426 -1.30458 0
M  V30 2454 O 238.804 1.91514 -0.402593 0
M  V30 2455 C 239.103 0.437067 -3.54717 0
M  V30 2456 C 238.769 -0.764632 -4.44369 0
M  V30 2457 C 237.431 -1.09423 -4.68594 0
M  V30 2458 C 239.783 -1.56713 -4.97082 0
M  V30 2459 C 237.111 -2.22732 -5.42777 0
M  V30 2460 C 239.463 -2.69107 -5.72507 0
M  V30 2461 C 238.127 -3.02541 -5.95 0
M  V30 2462 H 237.397 0.0559644 -0.738884 0
M  V30 2463 H 240.044 -0.562998 -1.83037 0
M  V30 2464 H 238.349 1.23469 -3.71837 0
M  V30 2465 H 240.046 0.893083 -3.90928 0
M  V30 2466 H 236.636 -0.497775 -4.257 0
M  V30 2467 H 240.82 -1.32571 -4.78266 0
M  V30 2468 H 236.076 -2.48971 -5.58411 0
M  V30 2469 H 240.25 -3.31671 -6.12346 0
M  V30 2470 H 237.877 -3.90457 -6.52264 0
M  V30 2471 N 239.452 1.56882 -0.150215 0
M  V30 2472 C 240.382 2.19935 0.784284 0
M  V30 2473 C 241.363 1.14854 1.25469 0
M  V30 2474 O 242.548 1.43209 1.31168 0
M  V30 2475 C 239.678 2.82349 2.02229 0
M  V30 2476 C 238.632 3.93285 1.68853 0
M  V30 2477 C 237.958 4.42649 2.99944 0
M  V30 2478 C 239.258 5.13904 0.932714 0
M  V30 2479 H 240.952 2.9828 0.258781 0
M  V30 2480 H 238.498 1.43473 0.123029 0
M  V30 2481 H 240.451 3.25126 2.68088 0
M  V30 2482 H 239.175 2.0134 2.57157 0
M  V30 2483 H 237.834 3.5113 1.05371 0
M  V30 2484 H 237.482 3.58458 3.52869 0
M  V30 2485 H 237.182 5.17476 2.78374 0
M  V30 2486 H 238.706 4.88099 3.66868 0
M  V30 2487 H 240.12 5.53506 1.49345 0
M  V30 2488 H 238.517 5.94515 0.81684 0
M  V30 2489 H 239.587 4.84842 -0.0749568 0
M  V30 2490 N 240.93 -0.123565 1.57115 0
M  V30 2491 C 241.86 -1.15309 2.03042 0
M  V30 2492 C 242.841 -1.43454 0.914061 0
M  V30 2493 O 244.026 -1.53973 1.18347 0
M  V30 2494 C 241.156 -2.48043 2.43089 0
M  V30 2495 C 240.11 -2.3437 3.58127 0
M  V30 2496 C 239.436 -3.72026 3.84059 0
M  V30 2497 C 240.736 -1.80804 4.90007 0
M  V30 2498 H 242.43 -0.771102 2.893 0
M  V30 2499 H 239.976 -0.369479 1.39179 0
M  V30 2500 H 241.929 -3.20311 2.73823 0
M  V30 2501 H 240.653 -2.88122 1.53796 0
M  V30 2502 H 239.312 -1.64551 3.27595 0
M  V30 2503 H 238.96 -4.09582 2.91979 0
M  V30 2504 H 238.66 -3.63732 4.6149 0
M  V30 2505 H 240.184 -4.45806 4.1724 0
M  V30 2506 H 241.598 -2.42886 5.19307 0
M  V30 2507 H 239.995 -1.83343 5.71407 0
M  V30 2508 H 241.065 -0.76528 4.78823 0
M  V30 2509 N 242.408 -1.52605 -0.393616 0
M  V30 2510 C 243.654 -1.68624 -1.13743 0
M  V30 2511 C 244.009 -0.418687 -1.87789 0
M  V30 2512 O 243.302 0.58747 -1.82371 0
M  V30 2513 C 243.496 -2.85721 -2.14705 0
M  V30 2514 C 243.325 -4.23742 -1.50575 0
M  V30 2515 C 242.095 -4.89033 -1.2718 0
M  V30 2516 C 244.293 -5.05293 -0.958311 0
M  V30 2517 N 242.275 -6.11048 -0.591058 0
M  V30 2518 C 243.646 -6.18673 -0.405367 0
M  V30 2519 C 245.701 -4.90517 -0.854274 0
M  V30 2520 C 244.404 -7.18895 0.241434 0
M  V30 2521 C 246.43 -5.90986 -0.221301 0
M  V30 2522 C 245.792 -7.03669 0.320894 0
M  V30 2523 H 241.891 -0.670556 -0.402342 0
M  V30 2524 H 244.475 -1.89946 -0.427607 0
M  V30 2525 H 242.646 -2.65987 -2.83029 0
M  V30 2526 H 244.378 -2.90699 -2.8156 0
M  V30 2527 H 241.133 -4.47672 -1.54554 0
M  V30 2528 H 241.557 -6.76474 -0.266862 0
M  V30 2529 H 246.199 -4.03612 -1.25926 0
M  V30 2530 H 243.917 -8.05413 0.658448 0
M  V30 2531 H 247.503 -5.81626 -0.142111 0
M  V30 2532 H 246.383 -7.80078 0.802956 0
M  V30 2533 N 243.887 0.651787 -1.4349 0
M  V30 2534 C 245.136 1.40754 -1.44469 0
M  V30 2535 C 245.449 1.95463 -0.0731845 0
M  V30 2536 O 246.655 2.71471 0.0395721 0
M  V30 2537 C 245.111 2.54735 -2.5424 0
M  V30 2538 C 244.719 2.06628 -3.97504 0
M  V30 2539 C 246.463 3.32092 -2.64414 0
M  V30 2540 C 244.37 3.17829 -4.98737 0
M  V30 2541 H 243.3 0.528862 -0.53742 0
M  V30 2542 H 245.951 0.703365 -1.69485 0
M  V30 2543 H 244.333 3.2763 -2.22428 0
M  V30 2544 H 245.507 1.40734 -4.38783 0
M  V30 2545 H 243.822 1.42146 -3.91387 0
M  V30 2546 H 246.419 4.14952 -3.37223 0
M  V30 2547 H 246.762 3.80217 -1.69532 0
M  V30 2548 H 247.295 2.66279 -2.95534 0
M  V30 2549 H 244.034 2.74671 -5.95177 0
M  V30 2550 H 243.554 3.82429 -4.62069 0
M  V30 2551 H 245.233 3.82937 -5.21505 0
M  V30 2552 N 245.365 1.30045 0.890287 0
M  V30 2553 C 246.295 1.18541 2.01172 0
M  V30 2554 C 247.276 0.0773356 1.69924 0
M  V30 2555 O 248.461 0.25845 1.92473 0
M  V30 2556 C 245.591 0.870941 3.36202 0
M  V30 2557 C 244.545 1.93637 3.81692 0
M  V30 2558 C 243.871 1.475 5.13953 0
M  V30 2559 C 245.171 3.34666 4.00994 0
M  V30 2560 H 246.865 2.12359 2.11054 0
M  V30 2561 H 244.411 1.02238 1.01407 0
M  V30 2562 H 246.364 0.777141 4.14172 0
M  V30 2563 H 245.088 -0.102926 3.26438 0
M  V30 2564 H 243.747 2.01972 3.05946 0
M  V30 2565 H 243.395 0.489551 5.00612 0
M  V30 2566 H 243.095 2.1876 5.4536 0
M  V30 2567 H 244.619 1.39489 5.94454 0
M  V30 2568 H 246.033 3.2912 4.69417 0
M  V30 2569 H 244.43 4.03966 4.43769 0
M  V30 2570 H 245.5 3.76949 3.05021 0
M  V30 2571 N 246.843 -1.10192 1.12674 0
M  V30 2572 C 247.806 -2.14786 0.799979 0
M  V30 2573 C 248.806 -1.59711 -0.18685 0
M  V30 2574 O 249.996 -1.74156 0.0392558 0
M  V30 2575 C 247.128 -3.40374 0.189228 0
M  V30 2576 H 248.321 -2.45203 1.72671 0
M  V30 2577 H 245.874 -1.25597 0.930326 0
M  V30 2578 H 246.609 -3.15577 -0.747107 0
M  V30 2579 H 246.394 -3.81637 0.899766 0
M  V30 2580 H 247.884 -4.17594 -0.0228143 0
M  V30 2581 N 248.321 -0.919034 -1.28029 0
M  V30 2582 C 249.284 -0.416182 -2.2539 0
M  V30 2583 C 250.284 0.460438 -1.54067 0
M  V30 2584 O 251.474 0.262744 -1.72207 0
M  V30 2585 C 248.606 0.402707 -3.38513 0
M  V30 2586 H 249.799 -1.27629 -2.71387 0
M  V30 2587 H 247.352 -0.698919 -1.39803 0
M  V30 2588 H 248.087 1.282 -2.97885 0
M  V30 2589 H 247.872 -0.225698 -3.9145 0
M  V30 2590 H 249.362 0.745191 -4.10897 0
M  V30 2591 N 249.799 1.42003 -0.683588 0
M  V30 2592 C 251.045 2.01712 -0.209825 0
M  V30 2593 C 251.378 1.53968 1.18353 0
M  V30 2594 O 250.653 0.745661 1.79639 0
M  V30 2595 C 250.936 3.59202 -0.254197 0
M  V30 2596 C 250.789 4.17102 -1.68363 0
M  V30 2597 C 252.108 4.38344 0.392709 0
M  V30 2598 H 249.227 0.732891 -0.0777189 0
M  V30 2599 H 251.869 1.68909 -0.87004 0
M  V30 2600 H 250.019 3.87278 0.307954 0
M  V30 2601 H 251.691 3.99946 -2.29871 0
M  V30 2602 H 249.934 3.72597 -2.22157 0
M  V30 2603 H 250.605 5.26249 -1.6663 0
M  V30 2604 H 253.081 4.16011 -0.0859162 0
M  V30 2605 H 251.957 5.47901 0.331063 0
M  V30 2606 H 252.218 4.16887 1.47164 0
M  V30 2607 N 251.277 0.427512 1.51691 0
M  V30 2608 C 252.502 -0.143601 2.06902 0
M  V30 2609 C 252.927 -1.36536 1.29382 0
M  V30 2610 O 252.285 -1.78289 0.329043 0
M  V30 2611 C 252.333 -0.454207 3.57728 0
M  V30 2612 O 251.437 -1.54228 3.82475 0
M  V30 2613 H 250.778 -0.00617128 0.663971 0
M  V30 2614 H 253.308 0.606014 1.95419 0
M  V30 2615 H 253.318 -0.707525 4.01818 0
M  V30 2616 H 251.993 0.438812 4.13579 0
M  V30 2617 H 250.57 -1.2797 3.50254 0
M  V30 2618 N 252.755 -1.56801 0.158532 0
M  V30 2619 C 253.98 -2.01295 -0.499516 0
M  V30 2620 C 254.405 -1.03799 -1.56867 0
M  V30 2621 O 253.763 -0.0155162 -1.81293 0
M  V30 2622 C 253.811 -3.44469 -1.06647 0
M  V30 2623 O 252.915 -3.50012 -2.18095 0
M  V30 2624 H 252.256 -0.652884 -0.12099 0
M  V30 2625 H 254.786 -2.02958 0.258661 0
M  V30 2626 H 254.796 -3.8351 -1.39227 0
M  V30 2627 H 253.471 -4.14932 -0.283581 0
M  V30 2628 H 252.048 -3.22822 -1.86656 0
M  V30 2629 N 254.233 0.115231 -1.57178 0
M  V30 2630 C 255.481 0.820727 -1.84685 0
M  V30 2631 C 255.802 1.80237 -0.744279 0
M  V30 2632 O 255.072 1.94529 0.231375 0
M  V30 2633 H 253.652 0.306084 -0.681411 0
M  V30 2634 H 256.314 0.101656 -1.94635 0
M  V30 2635 H 255.41 1.36366 -2.80733 0
M  V30 2636 N 255.711 1.52812 0.385517 0
M  V30 2637 C 256.641 1.80808 1.47752 0
M  V30 2638 C 257.622 0.660318 1.5676 0
M  V30 2639 O 258.807 0.908246 1.71652 0
M  V30 2640 C 255.937 1.98008 2.85324 0
M  V30 2641 C 254.891 3.13709 2.91154 0
M  V30 2642 C 254.217 3.16169 4.31209 0
M  V30 2643 C 255.517 4.52709 2.60483 0
M  V30 2644 H 257.211 2.72253 1.24573 0
M  V30 2645 H 254.757 1.31003 0.597839 0
M  V30 2646 H 256.71 2.16176 3.61726 0
M  V30 2647 H 255.434 1.03255 3.09848 0
M  V30 2648 H 254.093 2.95329 2.17201 0
M  V30 2649 H 253.741 2.19092 4.52778 0
M  V30 2650 H 253.441 3.93894 4.36029 0
M  V30 2651 H 254.965 3.36496 5.09512 0
M  V30 2652 H 256.379 4.71173 3.26602 0
M  V30 2653 H 254.776 5.32528 2.76648 0
M  V30 2654 H 255.846 4.59186 1.55809 0
M  V30 2655 N 257.189 -0.644168 1.43834 0
M  V30 2656 C 258.436 -1.40395 1.4593 0
M  V30 2657 C 258.764 -1.94305 0.0869658 0
M  V30 2658 O 258.019 -1.73288 -0.909378 0
M  V30 2659 C 258.318 -2.59615 2.45631 0
M  V30 2660 C 257.984 -2.2407 3.91284 0
M  V30 2661 C 256.646 -2.14089 4.30952 0
M  V30 2662 C 258.998 -1.95775 4.83034 0
M  V30 2663 C 256.326 -1.73981 5.6031 0
M  V30 2664 C 258.678 -1.57163 6.12766 0
M  V30 2665 C 257.342 -1.45713 6.51402 0
M  V30 2666 H 256.612 -0.513741 0.533995 0
M  V30 2667 H 259.259 -0.731724 1.76969 0
M  V30 2668 H 257.564 -3.32011 2.08028 0
M  V30 2669 H 259.261 -3.17834 2.44504 0
M  V30 2670 H 255.851 -2.32753 3.59895 0
M  V30 2671 H 260.035 -2.02403 4.53152 0
M  V30 2672 H 255.291 -1.63709 5.89075 0
M  V30 2673 H 259.465 -1.34303 6.83327 0
M  V30 2674 H 257.092 -1.14406 7.51542 0
M  V30 2675 N 258.668 -1.30515 -0.883378 0
M  V30 2676 C 259.915 -1.1943 -1.63532 0
M  V30 2677 C 260.243 0.250627 -1.92878 0
M  V30 2678 O 259.498 1.19556 -1.54935 0
M  V30 2679 C 259.797 -1.96994 -2.98209 0
M  V30 2680 C 259.463 -3.466 -2.88408 0
M  V30 2681 C 258.125 -3.87397 -2.85442 0
M  V30 2682 C 260.477 -4.41863 -2.76418 0
M  V30 2683 C 257.805 -5.21745 -2.68327 0
M  V30 2684 C 260.157 -5.7632 -2.60841 0
M  V30 2685 C 258.821 -6.16354 -2.56251 0
M  V30 2686 H 258.091 -0.437025 -0.598406 0
M  V30 2687 H 260.738 -1.61635 -1.02696 0
M  V30 2688 H 259.043 -1.47429 -3.63004 0
M  V30 2689 H 260.74 -1.85808 -3.55354 0
M  V30 2690 H 257.33 -3.14182 -2.91527 0
M  V30 2691 H 261.514 -4.11285 -2.77775 0
M  V30 2692 H 256.77 -5.51853 -2.63189 0
M  V30 2693 H 260.944 -6.49772 -2.50538 0
M  V30 2694 H 258.571 -7.20401 -2.42748 0
M  V30 2695 N 260.146 1.09593 -1.13257 0
M  V30 2696 C 261.376 1.85231 -0.915049 0
M  V30 2697 C 261.784 1.81345 0.539498 0
M  V30 2698 O 261.127 1.20664 1.38513 0
M  V30 2699 C 261.189 3.34275 -1.3229 0
M  V30 2700 C 260.853 3.6191 -2.79052 0
M  V30 2701 C 261.85 3.57777 -3.77216 0
M  V30 2702 C 259.535 3.90309 -3.16171 0
M  V30 2703 C 261.529 3.81652 -5.1051 0
M  V30 2704 C 259.216 4.13839 -4.49644 0
M  V30 2705 C 260.214 4.09502 -5.46623 0
M  V30 2706 O 259.902 4.32426 -6.77689 0
M  V30 2707 H 259.634 0.591997 -0.326367 0
M  V30 2708 H 262.188 1.394 -1.50854 0
M  V30 2709 H 260.418 3.80805 -0.672667 0
M  V30 2710 H 262.107 3.9132 -1.07812 0
M  V30 2711 H 262.873 3.35865 -3.49885 0
M  V30 2712 H 258.752 3.92811 -2.41289 0
M  V30 2713 H 262.296 3.78182 -5.86195 0
M  V30 2714 H 258.193 4.35232 -4.767 0
M  V30 2715 H 258.961 4.49896 -6.83766 0
M  V30 2716 N 261.624 0.925811 1.2754 0
M  V30 2717 C 262.849 0.580924 1.99098 0
M  V30 2718 C 263.274 -0.833555 1.68622 0
M  V30 2719 O 262.632 -1.55903 0.925422 0
M  V30 2720 C 262.68 0.811186 3.51358 0
M  V30 2721 O 261.784 -0.124129 4.12213 0
M  V30 2722 H 261.125 0.223873 0.625122 0
M  V30 2723 H 263.655 1.24455 1.62395 0
M  V30 2724 H 263.665 0.72601 4.01489 0
M  V30 2725 H 262.34 1.84227 3.72872 0
M  V30 2726 H 260.917 0.0108006 3.72898 0
M  V30 2727 N 263.102 -1.41638 0.69111 0
M  V30 2728 C 264.349 -2.01299 0.220193 0
M  V30 2729 C 264.677 -1.54715 -1.17871 0
M  V30 2730 O 263.932 -0.747193 -1.80874 0
M  V30 2731 C 264.231 -3.56714 0.221277 0
M  V30 2732 C 263.897 -4.22792 1.56709 0
M  V30 2733 C 262.559 -4.40557 1.93554 0
M  V30 2734 C 264.911 -4.59883 2.45268 0
M  V30 2735 C 262.239 -4.92688 3.18552 0
M  V30 2736 C 264.591 -5.13403 3.69595 0
M  V30 2737 C 263.255 -5.29379 4.06589 0
M  V30 2738 H 262.525 -0.736606 0.0805743 0
M  V30 2739 H 265.172 -1.69598 0.889319 0
M  V30 2740 H 263.477 -3.8818 -0.531391 0
M  V30 2741 H 265.174 -4.00678 -0.160547 0
M  V30 2742 H 261.764 -4.09336 1.2705 0
M  V30 2743 H 265.948 -4.45817 2.18084 0
M  V30 2744 H 261.204 -5.03242 3.47214 0
M  V30 2745 H 265.378 -5.41084 4.38407 0
M  V30 2746 H 263.005 -5.69537 5.03519 0
M  V30 2747 N 264.58 -0.43555 -1.51462 0
M  V30 2748 C 265.51 0.367376 -2.30592 0
M  V30 2749 C 266.491 1.02263 -1.35928 0
M  V30 2750 O 267.676 1.02661 -1.64847 0
M  V30 2751 C 264.806 1.46983 -3.14664 0
M  V30 2752 C 263.76 0.938161 -4.17591 0
M  V30 2753 C 263.086 2.13622 -4.90173 0
M  V30 2754 C 264.386 -0.0261621 -5.22293 0
M  V30 2755 H 266.08 -0.292969 -2.97963 0
M  V30 2756 H 263.626 -0.14234 -1.43295 0
M  V30 2757 H 265.579 2.03873 -3.688 0
M  V30 2758 H 264.303 2.15843 -2.4511 0
M  V30 2759 H 262.962 0.391481 -3.64504 0
M  V30 2760 H 262.61 2.81098 -4.17124 0
M  V30 2761 H 262.31 1.78688 -5.59772 0
M  V30 2762 H 263.834 2.7107 -5.47132 0
M  V30 2763 H 265.248 0.452384 -5.71512 0
M  V30 2764 H 263.645 -0.287992 -5.99409 0
M  V30 2765 H 264.715 -0.963391 -4.75233 0
M  V30 2766 N 266.058 1.56714 -0.166846 0
M  V30 2767 C 266.988 2.20754 0.760913 0
M  V30 2768 C 267.969 1.16178 1.24244 0
M  V30 2769 O 269.154 1.44592 1.29641 0
M  V30 2770 C 266.284 2.84478 1.99223 0
M  V30 2771 C 265.238 3.95053 1.64672 0
M  V30 2772 C 264.564 4.45805 2.95232 0
M  V30 2773 C 265.864 5.14865 0.878155 0
M  V30 2774 H 267.558 2.98537 0.22713 0
M  V30 2775 H 265.104 1.43596 0.107805 0
M  V30 2776 H 267.057 3.27951 2.64624 0
M  V30 2777 H 265.781 2.04056 2.55007 0
M  V30 2778 H 264.44 3.52228 1.01641 0
M  V30 2779 H 264.088 3.62181 3.49047 0
M  V30 2780 H 263.788 5.204 2.7287 0
M  V30 2781 H 265.312 4.91962 3.6167 0
M  V30 2782 H 266.726 5.55059 1.43466 0
M  V30 2783 H 265.123 5.95348 0.753738 0
M  V30 2784 H 266.193 4.84735 -0.126377 0
M  V30 2785 N 267.536 -0.106894 1.57237 0
M  V30 2786 C 268.764 -0.826389 1.8968 0
M  V30 2787 C 269.179 -1.72856 0.759353 0
M  V30 2788 O 268.536 -1.80503 -0.269263 0
M  V30 2789 C 268.587 -1.64967 3.21665 0
M  V30 2790 O 268.308 -0.783804 4.31031 0
M  V30 2791 C 269.809 -2.47326 3.67892 0
M  V30 2792 H 267.029 -0.236927 0.627779 0
M  V30 2793 H 269.573 -0.0876593 2.04312 0
M  V30 2794 H 267.728 -2.34103 3.08666 0
M  V30 2795 H 268.142 -1.35284 5.06753 0
M  V30 2796 H 269.616 -3.00604 4.6297 0
M  V30 2797 H 270.093 -3.25247 2.95146 0
M  V30 2798 H 270.699 -1.83411 3.83719 0
M  V30 2799 N 269.014 -1.53014 -0.377408 0
M  V30 2800 C 269.977 -1.77957 -1.44444 0
M  V30 2801 C 270.977 -0.649763 -1.47087 0
M  V30 2802 O 272.167 -0.917897 -1.48055 0
M  V30 2803 C 269.299 -1.89089 -2.83651 0
M  V30 2804 H 270.492 -2.73243 -1.23606 0
M  V30 2805 H 268.045 -1.43912 -0.609844 0
M  V30 2806 H 268.78 -0.958293 -3.09818 0
M  V30 2807 H 268.565 -2.71254 -2.83132 0
M  V30 2808 H 270.055 -2.1002 -3.60945 0
M  V30 2809 N 270.492 0.636531 -1.44174 0
M  V30 2810 C 271.738 1.39826 -1.4689 0
M  V30 2811 C 272.071 1.93947 -0.0990585 0
M  V30 2812 O 271.346 1.73325 0.882544 0
M  V30 2813 C 271.629 2.56751 -2.5249 0
M  V30 2814 C 271.482 2.08014 -3.98811 0
M  V30 2815 C 272.801 3.58946 -2.54649 0
M  V30 2816 H 269.92 0.507075 -0.53483 0
M  V30 2817 H 272.562 0.720188 -1.75822 0
M  V30 2818 H 270.712 3.14597 -2.2795 0
M  V30 2819 H 272.384 1.5504 -4.34466 0
M  V30 2820 H 270.627 1.39242 -4.10846 0
M  V30 2821 H 271.298 2.92169 -4.68339 0
M  V30 2822 H 273.774 3.1089 -2.76563 0
M  V30 2823 H 272.65 4.38286 -3.3045 0
M  V30 2824 H 272.911 4.12655 -1.58646 0
M  V30 2825 N 271.97 1.30982 0.876444 0
M  V30 2826 C 273.195 1.23373 1.66715 0
M  V30 2827 C 273.62 -0.19885 1.87046 0
M  V30 2828 O 272.978 -1.1427 1.40756 0
M  V30 2829 C 273.026 1.97644 3.01611 0
M  V30 2830 O 272.13 1.30935 3.91062 0
M  V30 2831 H 271.471 0.426279 0.509099 0
M  V30 2832 H 274.001 1.72944 1.09323 0
M  V30 2833 H 274.011 2.06992 3.51594 0
M  V30 2834 H 272.686 3.01829 2.86133 0
M  V30 2835 H 271.263 1.29996 3.49507 0
M  V30 2836 N 273.449 -1.08991 1.13837 0
M  V30 2837 C 274.379 -2.17771 0.842507 0
M  V30 2838 C 275.36 -1.6892 -0.20001 0
M  V30 2839 O 276.545 -1.94113 -0.0579731 0
M  V30 2840 C 273.675 -3.4589 0.312644 0
M  V30 2841 C 272.629 -4.08099 1.28992 0
M  V30 2842 C 271.955 -5.31098 0.619623 0
M  V30 2843 C 273.255 -4.50077 2.65005 0
M  V30 2844 H 274.949 -2.42777 1.75213 0
M  V30 2845 H 272.495 -1.16682 0.843875 0
M  V30 2846 H 274.448 -4.21297 0.0933043 0
M  V30 2847 H 273.172 -3.20419 -0.632382 0
M  V30 2848 H 271.831 -3.34717 1.49533 0
M  V30 2849 H 271.479 -5.0191 -0.33102 0
M  V30 2850 H 271.179 -5.73674 1.27167 0
M  V30 2851 H 272.703 -6.09224 0.409669 0
M  V30 2852 H 274.117 -5.16688 2.48407 0
M  V30 2853 H 272.514 -5.03553 3.26427 0
M  V30 2854 H 273.584 -3.62257 3.22332 0
M  V30 2855 N 274.927 -0.932562 -1.27047 0
M  V30 2856 C 276.152 -0.591474 -1.98787 0
M  V30 2857 C 276.577 0.824601 -1.69062 0
M  V30 2858 O 275.935 1.5541 -0.933677 0
M  V30 2859 C 275.983 -0.829808 -3.50922 0
M  V30 2860 O 275.087 0.102266 -4.12273 0
M  V30 2861 H 274.428 -0.227185 -0.623926 0
M  V30 2862 H 276.958 -1.25314 -1.61733 0
M  V30 2863 H 276.968 -0.747292 -4.01098 0
M  V30 2864 H 275.643 -1.86201 -3.7189 0
M  V30 2865 H 274.22 -0.0305761 -3.72887 0
M  V30 2866 N 276.405 1.4127 -0.698611 0
M  V30 2867 C 277.352 2.30773 -0.0352094 0
M  V30 2868 C 278.322 1.47273 0.768111 0
M  V30 2869 O 279.507 1.76053 0.735524 0
M  V30 2870 C 276.647 3.33346 0.893 0
M  V30 2871 C 275.76 4.31924 0.0809695 0
M  V30 2872 C 274.895 5.21566 1.0071 0
M  V30 2873 C 273.934 6.11811 0.188155 0
M  V30 2874 N 273.071 6.93926 1.06825 0
M  V30 2875 H 277.911 2.86943 -0.804207 0
M  V30 2876 H 275.448 1.4132 -0.408294 0
M  V30 2877 H 277.406 3.91368 1.44523 0
M  V30 2878 H 276.036 2.78719 1.62836 0
M  V30 2879 H 275.088 3.75825 -0.588224 0
M  V30 2880 H 276.4 4.95716 -0.553801 0
M  V30 2881 H 275.554 5.84437 1.62845 0
M  V30 2882 H 274.293 4.58008 1.67572 0
M  V30 2883 H 273.298 5.47986 -0.446254 0
M  V30 2884 H 274.523 6.77425 -0.476716 0
M  V30 2885 H 272.469 6.32973 1.72283 0
M  V30 2886 H 272.386 7.54416 0.489123 0
M  V30 2887 H 273.654 7.61262 1.67632 0
M  V30 2888 N 277.883 0.443576 1.51229 0
M  V30 2889 C 278.816 -0.410089 2.24485 0
M  V30 2890 C 279.794 -1.01949 1.26669 0
M  V30 2891 O 280.978 -1.06075 1.55821 0
M  V30 2892 C 278.105 -1.57211 3.00004 0
M  V30 2893 C 277.151 -1.08279 4.12526 0
M  V30 2894 S 277.984 -0.0197476 5.35496 0
M  V30 2895 C 279.14 -1.18629 6.14555 0
M  V30 2896 H 279.373 0.211832 2.96544 0
M  V30 2897 H 276.906 0.228156 1.52705 0
M  V30 2898 H 278.864 -2.23825 3.44111 0
M  V30 2899 H 277.525 -2.16547 2.27522 0
M  V30 2900 H 276.718 -1.95193 4.64667 0
M  V30 2901 H 276.32 -0.494797 3.70713 0
M  V30 2902 H 278.612 -2.10344 6.4402 0
M  V30 2903 H 279.555 -0.70472 7.04584 0
M  V30 2904 H 279.963 -1.42768 5.46148 0
M  V30 2905 N 279.361 -1.56624 0.175154 0
M  V30 2906 C 280.291 -2.21155 -0.749195 0
M  V30 2907 C 281.272 -1.16836 -1.23626 0
M  V30 2908 O 282.457 -1.45277 -1.28873 0
M  V30 2909 C 279.587 -2.8553 -1.97711 0
M  V30 2910 C 278.541 -3.95921 -1.62575 0
M  V30 2911 C 277.867 -4.47365 -2.92864 0
M  V30 2912 C 279.167 -5.15323 -0.850838 0
M  V30 2913 H 280.861 -2.98653 -0.211295 0
M  V30 2914 H 278.407 -1.43651 -0.100188 0
M  V30 2915 H 280.36 -3.2935 -2.62881 0
M  V30 2916 H 279.084 -2.05406 -2.53921 0
M  V30 2917 H 277.743 -3.52762 -0.997719 0
M  V30 2918 H 277.391 -3.64027 -3.47122 0
M  V30 2919 H 277.091 -5.21839 -2.70106 0
M  V30 2920 H 278.615 -4.93873 -3.59056 0
M  V30 2921 H 280.029 -5.55812 -1.40521 0
M  V30 2922 H 278.426 -5.95739 -0.722154 0
M  V30 2923 H 279.496 -4.84661 0.152082 0
M  V30 2924 N 280.839 0.0985539 -1.57292 0
M  V30 2925 C 281.786 1.11981 -2.01814 0
M  V30 2926 C 282.756 1.39999 -0.89384 0
M  V30 2927 O 283.941 1.5152 -1.15958 0
M  V30 2928 C 281.081 2.43577 -2.44467 0
M  V30 2929 C 280.194 2.2232 -3.70402 0
M  V30 2930 C 279.329 3.4729 -4.01949 0
M  V30 2931 C 278.368 3.2128 -5.21005 0
M  V30 2932 N 277.505 4.38507 -5.48321 0
M  V30 2933 H 282.345 0.733149 -2.88841 0
M  V30 2934 H 279.882 0.350482 -1.42864 0
M  V30 2935 H 281.84 3.20373 -2.6724 0
M  V30 2936 H 280.47 2.80097 -1.60455 0
M  V30 2937 H 279.522 1.36343 -3.55126 0
M  V30 2938 H 280.834 1.99089 -4.57345 0
M  V30 2939 H 279.988 4.32495 -4.25479 0
M  V30 2940 H 278.727 3.73572 -3.13521 0
M  V30 2941 H 277.732 2.34468 -4.97298 0
M  V30 2942 H 278.957 2.96348 -6.11028 0
M  V30 2943 H 276.903 4.64871 -4.62851 0
M  V30 2944 H 276.82 4.18455 -6.29628 0
M  V30 2945 H 278.088 5.24787 -5.76385 0
M  V30 2946 N 282.317 1.53212 0.369288 0
M  V30 2947 C 283.264 1.79388 1.45219 0
M  V30 2948 C 284.234 0.638059 1.53356 0
M  V30 2949 O 285.419 0.879852 1.69302 0
M  V30 2950 C 282.559 1.98623 2.82211 0
M  V30 2951 C 281.672 3.26337 2.8307 0
M  V30 2952 C 280.807 3.35779 4.11614 0
M  V30 2953 C 279.846 4.5754 4.06601 0
M  V30 2954 N 278.983 4.64155 5.26787 0
M  V30 2955 H 283.823 2.71794 1.22198 0
M  V30 2956 H 281.36 1.34642 0.592444 0
M  V30 2957 H 283.318 2.07761 3.61789 0
M  V30 2958 H 281.948 1.09558 3.03639 0
M  V30 2959 H 281 3.26171 1.95747 0
M  V30 2960 H 282.312 4.15988 2.75237 0
M  V30 2961 H 281.466 3.44208 4.99606 0
M  V30 2962 H 280.205 2.44137 4.22195 0
M  V30 2963 H 279.21 4.49215 3.16996 0
M  V30 2964 H 280.435 5.50519 3.97625 0
M  V30 2965 H 278.381 3.75413 5.3796 0
M  V30 2966 H 278.298 5.47706 5.21109 0
M  V30 2967 H 279.566 4.76863 6.16621 0
M  V30 2968 N 283.795 -0.628877 1.44509 0
M  V30 2969 C 285.211 -0.947305 1.28446 0
M  V30 2970 C 285.411 -2.00275 0.221872 0
M  V30 2971 O 284.467 -2.49447 -0.391471 0
M  V30 2972 C 285.78 -1.40843 2.65676 0
M  V30 2973 C 287.328 -1.52379 2.73404 0
M  V30 2974 C 287.803 -2.01875 4.11109 0
M  V30 2975 N 289.294 -2.09142 4.13296 0
M  V30 2976 C 290.029 -2.48615 5.16699 0
M  V30 2977 N 289.525 -2.87209 6.30462 0
M  V30 2978 N 291.318 -2.48768 5.04054 0
M  V30 2979 H 283.469 0.0690977 2.12288 0
M  V30 2980 H 285.732 -0.0317164 0.947469 0
M  V30 2981 H 285.438 -0.707206 3.44516 0
M  V30 2982 H 285.312 -2.37902 2.92716 0
M  V30 2983 H 287.699 -2.21598 1.9488 0
M  V30 2984 H 287.78 -0.536898 2.50102 0
M  V30 2985 H 287.424 -1.3325 4.90109 0
M  V30 2986 H 287.354 -3.0144 4.31789 0
M  V30 2987 H 289.845 -1.81991 3.31191 0
M  V30 2988 H 290.158 -3.16149 7.05174 0
M  V30 2989 H 288.503 -2.84955 6.33897 0
M  V30 2990 H 291.694 -2.18009 4.14234 0
M  V30 2991 H 291.867 -2.79207 5.84763 0
M  V30 2992 N 285.273 -1.31445 -0.869486 0
M  V30 2993 C 286.498 -1.24256 -1.66058 0
M  V30 2994 C 286.923 0.188928 -1.87149 0
M  V30 2995 O 286.281 1.13522 -1.4136 0
M  V30 2996 C 286.329 -1.9924 -3.00559 0
M  V30 2997 O 285.433 -1.33007 -3.90362 0
M  V30 2998 H 284.774 -0.428973 -0.506831 0
M  V30 2999 H 287.304 -1.73521 -1.08404 0
M  V30 3000 H 287.314 -2.08854 -3.50491 0
M  V30 3001 H 285.989 -3.03342 -2.84528 0
M  V30 3002 H 284.566 -1.31848 -3.48813 0
M  V30 3003 N 286.751 1.08385 -1.14413 0
M  V30 3004 C 288.162 1.62258 -0.923535 0
M  V30 3005 C 288.513 1.88691 0.537595 0
M  V30 3006 O 287.638 1.64454 1.40655 0
M  V30 3007 C 288.233 2.94781 -1.67002 0
M  V30 3008 C 286.792 3.45437 -1.495 0
M  V30 3009 C 285.939 2.19668 -1.69238 0
M  V30 3010 H 288.89 0.916086 -1.2959 0
M  V30 3011 H 288.911 3.63229 -1.13334 0
M  V30 3012 H 288.423 2.7551 -2.73342 0
M  V30 3013 H 286.524 3.6981 -0.455097 0
M  V30 3014 H 286.637 4.22173 -2.2651 0
M  V30 3015 H 285.001 2.28849 -1.11804 0
M  V30 3016 H 285.784 2.02905 -2.7692 0
M  V30 3017 N 288.23 0.939286 1.26551 0
M  V30 3018 C 289.16 0.465044 2.28822 0
M  V30 3019 C 290.141 -0.480692 1.63167 0
M  V30 3020 O 291.326 -0.382955 1.90387 0
M  V30 3021 C 288.456 -0.27234 3.46231 0
M  V30 3022 C 287.41 0.58666 4.2396 0
M  V30 3023 C 286.736 -0.280573 5.33963 0
M  V30 3024 C 288.036 1.85704 4.88171 0
M  V30 3025 H 289.73 1.31979 2.68741 0
M  V30 3026 H 287.276 0.636061 1.29191 0
M  V30 3027 H 289.229 -0.615133 4.16886 0
M  V30 3028 H 287.953 -1.16121 3.0526 0
M  V30 3029 H 286.612 0.91232 3.55067 0
M  V30 3030 H 286.26 -1.16874 4.89234 0
M  V30 3031 H 285.96 0.29076 5.8688 0
M  V30 3032 H 287.484 -0.618678 6.07458 0
M  V30 3033 H 288.898 1.58161 5.51052 0
M  V30 3034 H 287.295 2.37279 5.51197 0
M  V30 3035 H 288.365 2.56957 4.11219 0
M  V30 3036 N 289.708 -1.40897 0.706093 0
M  V30 3037 C 290.936 -2.05373 0.250887 0
M  V30 3038 C 291.351 -1.53172 -1.10381 0
M  V30 3039 O 290.708 -0.684305 -1.69185 0
M  V30 3040 C 290.759 -3.6088 0.211571 0
M  V30 3041 O 290.48 -4.11153 1.51276 0
M  V30 3042 C 291.981 -4.42517 -0.263346 0
M  V30 3043 H 289.201 -0.66115 0.114552 0
M  V30 3044 H 291.745 -1.80479 0.961635 0
M  V30 3045 H 289.9 -3.84777 -0.450073 0
M  V30 3046 H 290.314 -5.05279 1.40689 0
M  V30 3047 H 291.788 -5.51479 -0.239718 0
M  V30 3048 H 292.265 -4.19396 -1.30397 0
M  V30 3049 H 292.871 -4.23708 0.367677 0
M  V30 3050 N 291.186 -0.45159 -1.50991 0
M  V30 3051 C 292.414 0.108334 -2.06616 0
M  V30 3052 C 292.829 1.35224 -1.31757 0
M  V30 3053 O 292.186 1.78475 -0.381174 0
M  V30 3054 C 292.237 0.41619 -3.59096 0
M  V30 3055 O 291.958 -0.778361 -4.3113 0
M  V30 3056 C 293.459 1.02523 -4.31282 0
M  V30 3057 H 290.679 0.00159995 -0.670998 0
M  V30 3058 H 293.223 -0.634771 -1.94399 0
M  V30 3059 H 291.378 1.10921 -3.71181 0
M  V30 3060 H 291.792 -0.511181 -5.22003 0
M  V30 3061 H 293.266 1.19053 -5.39009 0
M  V30 3062 H 293.743 2.01013 -3.905 0
M  V30 3063 H 294.349 0.371173 -4.23677 0
M  V30 3064 N 292.664 1.56529 -0.183458 0
M  V30 3065 C 293.912 1.96855 0.457452 0
M  V30 3066 C 294.233 1.07104 1.62953 0
M  V30 3067 O 293.503 0.139887 1.954 0
M  V30 3068 H 292.083 0.72693 0.171992 0
M  V30 3069 H 294.745 1.93056 -0.267476 0
M  V30 3070 H 293.841 3.01423 0.809368 0
M  V30 3071 N 294.142 -0.090211 1.57342 0
M  V30 3072 C 295.388 -0.793982 1.86611 0
M  V30 3073 C 295.721 -1.78142 0.773252 0
M  V30 3074 O 294.996 -1.93271 -0.218304 0
M  V30 3075 C 295.279 -1.51839 3.26523 0
M  V30 3076 C 295.132 -0.548609 4.46442 0
M  V30 3077 C 296.451 -2.46779 3.64401 0
M  V30 3078 H 293.57 -0.287186 0.678744 0
M  V30 3079 H 296.212 -0.0575076 1.89913 0
M  V30 3080 H 294.362 -2.14617 3.23839 0
M  V30 3081 H 296.034 0.0725513 4.61243 0
M  V30 3082 H 294.277 0.137614 4.33582 0
M  V30 3083 H 294.948 -1.09271 5.41076 0
M  V30 3084 H 297.424 -1.94089 3.68061 0
M  V30 3085 H 296.3 -2.94479 4.63221 0
M  V30 3086 H 296.561 -3.30758 2.93346 0
M  V30 3087 N 295.62 -1.53406 -0.361157 0
M  V30 3088 C 296.85 -1.73465 -1.1222 0
M  V30 3089 C 297.258 -0.465486 -1.83384 0
M  V30 3090 O 296.601 0.571611 -1.7458 0
M  V30 3091 C 296.663 -2.84834 -2.19339 0
M  V30 3092 C 296.327 -4.25038 -1.67903 0
M  V30 3093 C 297.324 -5.07231 -1.14074 0
M  V30 3094 C 295.009 -4.71464 -1.73282 0
M  V30 3095 C 297.003 -6.33942 -0.663068 0
M  V30 3096 C 294.69 -5.98153 -1.25127 0
M  V30 3097 C 295.688 -6.79223 -0.717296 0
M  V30 3098 O 295.376 -8.03533 -0.242865 0
M  V30 3099 H 295.108 -0.583526 -0.341283 0
M  V30 3100 H 297.662 -2.00964 -0.424591 0
M  V30 3101 H 295.892 -2.5282 -2.92607 0
M  V30 3102 H 297.581 -2.9303 -2.80871 0
M  V30 3103 H 298.347 -4.72534 -1.09254 0
M  V30 3104 H 294.226 -4.08432 -2.13786 0
M  V30 3105 H 297.77 -6.97167 -0.245612 0
M  V30 3106 H 293.667 -6.32347 -1.29642 0
M  V30 3107 H 294.435 -8.177 -0.361786 0
M  V30 3108 N 297.098 0.621204 -1.44841 0
M  V30 3109 C 298.344 1.3826 -1.48365 0
M  V30 3110 C 298.677 1.93831 -0.119624 0
M  V30 3111 O 297.952 1.74251 0.864111 0
M  V30 3112 C 298.235 2.54058 -2.55199 0
M  V30 3113 C 298.088 2.03772 -4.00995 0
M  V30 3114 C 299.407 3.56225 -2.58442 0
M  V30 3115 H 296.526 0.501374 -0.540179 0
M  V30 3116 H 299.168 0.7015 -1.76576 0
M  V30 3117 H 297.318 3.12162 -2.31274 0
M  V30 3118 H 298.99 1.50423 -4.36086 0
M  V30 3119 H 297.233 1.34876 -4.12299 0
M  V30 3120 H 297.904 2.87185 -4.71411 0
M  V30 3121 H 300.38 3.07939 -2.79844 0
M  V30 3122 H 299.256 4.34756 -3.3508 0
M  V30 3123 H 299.517 4.10949 -1.63013 0
M  V30 3124 N 298.576 1.31904 0.862503 0
M  V30 3125 C 299.523 1.20182 1.9704 0
M  V30 3126 C 300.493 0.0858247 1.65878 0
M  V30 3127 O 301.678 0.26 1.8902 0
M  V30 3128 C 298.818 0.922797 3.32533 0
M  V30 3129 C 297.931 2.12284 3.76244 0
M  V30 3130 C 297.066 1.77996 5.00491 0
M  V30 3131 C 296.105 2.94366 5.36671 0
M  V30 3132 N 295.242 2.60223 6.52095 0
M  V30 3133 H 300.082 2.14951 2.06398 0
M  V30 3134 H 297.619 1.06917 1.01031 0
M  V30 3135 H 299.577 0.741548 4.10557 0
M  V30 3136 H 298.207 0.0119227 3.22798 0
M  V30 3137 H 297.259 2.41461 2.9394 0
M  V30 3138 H 298.571 2.99357 3.98982 0
M  V30 3139 H 297.725 1.56377 5.862 0
M  V30 3140 H 296.464 0.881252 4.79672 0
M  V30 3141 H 295.469 3.16625 4.49476 0
M  V30 3142 H 296.694 3.84957 5.59451 0
M  V30 3143 H 294.64 1.72884 6.32809 0
M  V30 3144 H 294.557 3.40827 6.74814 0
M  V30 3145 H 295.825 2.42016 7.40978 0
M  V30 3146 N 300.054 -1.07777 1.14986 0
M  V30 3147 C 300.987 -2.14228 0.786243 0
M  V30 3148 C 301.965 -1.60888 -0.235347 0
M  V30 3149 O 303.149 -1.88099 -0.122909 0
M  V30 3150 C 300.276 -3.38281 0.168433 0
M  V30 3151 C 299.322 -4.10387 1.16123 0
M  V30 3152 S 300.155 -4.62371 2.70135 0
M  V30 3153 C 301.311 -5.89704 2.09762 0
M  V30 3154 H 301.544 -2.44741 1.68787 0
M  V30 3155 H 299.077 -1.19984 0.971756 0
M  V30 3156 H 301.035 -4.10098 -0.181588 0
M  V30 3157 H 299.696 -3.05953 -0.710725 0
M  V30 3158 H 298.889 -4.99431 0.677086 0
M  V30 3159 H 298.491 -3.44513 1.45556 0
M  V30 3160 H 300.783 -6.61648 1.45701 0
M  V30 3161 H 301.726 -6.42824 2.96955 0
M  V30 3162 H 302.134 -5.4302 1.54239 0
M  V30 3163 N 301.532 -0.945985 -1.26051 0
M  V30 3164 C 302.943 -0.638096 -1.75457 0
M  V30 3165 C 303.294 0.846672 -1.76991 0
M  V30 3166 O 302.419 1.66262 -1.38513 0
M  V30 3167 C 303.014 -1.15157 -3.18629 0
M  V30 3168 C 301.573 -0.894004 -3.65629 0
M  V30 3169 C 300.72 -1.29967 -2.44957 0
M  V30 3170 H 303.671 -1.12376 -1.1206 0
M  V30 3171 H 303.692 -0.507615 -3.77099 0
M  V30 3172 H 303.204 -2.23222 -3.1748 0
M  V30 3173 H 301.305 0.172057 -3.72203 0
M  V30 3174 H 301.418 -1.52439 -4.54202 0
M  V30 3175 H 299.782 -0.718078 -2.44368 0
M  V30 3176 H 300.565 -2.38935 -2.46505 0
M  V30 3177 N 303.011 1.40521 -0.713556 0
M  V30 3178 C 304.422 1.83853 -0.324807 0
M  V30 3179 C 304.773 1.59667 1.14021 0
M  V30 3180 O 303.898 1.07649 1.87725 0
M  V30 3181 C 304.493 3.33751 -0.582746 0
M  V30 3182 C 303.052 3.75584 -0.247727 0
M  V30 3183 C 302.199 2.63753 -0.856121 0
M  V30 3184 H 305.15 1.29817 -0.91286 0
M  V30 3185 H 305.171 3.80194 0.152682 0
M  V30 3186 H 304.683 3.51322 -1.64908 0
M  V30 3187 H 302.784 3.63608 0.813624 0
M  V30 3188 H 302.897 4.7373 -0.715307 0
M  V30 3189 H 301.261 2.53108 -0.28432 0
M  V30 3190 H 302.044 2.84137 -1.92668 0
M  V30 3191 N 304.489 0.459591 1.5075 0
M  V30 3192 C 305.717 -0.0973749 2.06671 0
M  V30 3193 C 306.132 -1.34524 1.32472 0
M  V30 3194 O 305.489 -1.7827 0.390634 0
M  V30 3195 C 305.54 -0.39714 3.59312 0
M  V30 3196 O 305.261 0.801214 4.30711 0
M  V30 3197 C 306.762 -1.00234 4.31819 0
M  V30 3198 H 303.982 0.00195854 0.670997 0
M  V30 3199 H 306.526 0.645072 1.94059 0
M  V30 3200 H 304.681 -1.08951 3.71764 0
M  V30 3201 H 305.095 0.538857 5.21725 0
M  V30 3202 H 306.569 -1.16193 5.39632 0
M  V30 3203 H 307.046 -1.98939 3.91561 0
M  V30 3204 H 307.652 -0.348699 4.23868 0
M  V30 3205 N 305.967 -1.56429 0.191757 0
M  V30 3206 C 306.877 -2.22541 -0.742481 0
M  V30 3207 C 307.893 -1.22342 -1.23727 0
M  V30 3208 O 309.069 -1.55069 -1.28513 0
M  V30 3209 C 306.134 -2.8692 -1.94623 0
M  V30 3210 C 305.195 -4.02378 -1.49633 0
M  V30 3211 C 304.428 -4.63678 -2.6427 0
M  V30 3212 O 304.651 -4.23895 -3.81666 0
M  V30 3213 O 303.585 -5.53202 -2.37174 0
M  V30 3214 H 307.411 -3.02977 -0.209462 0
M  V30 3215 H 304.996 -1.49353 -0.0373832 0
M  V30 3216 H 306.878 -3.27663 -2.64982 0
M  V30 3217 H 305.553 -2.09466 -2.46791 0
M  V30 3218 H 304.46 -3.66265 -0.761636 0
M  V30 3219 H 305.793 -4.81487 -1.02134 0
M  V30 3220 N 307.445 0.0818655 -1.57387 0
M  V30 3221 C 308.856 0.634871 -1.75574 0
M  V30 3222 C 309.207 1.78435 -0.815809 0
M  V30 3223 O 308.332 2.164 0.0025366 0
M  V30 3224 C 308.927 1.15845 -3.18379 0
M  V30 3225 C 307.486 1.65741 -3.37945 0
M  V30 3226 C 306.633 0.572549 -2.71325 0
M  V30 3227 H 309.584 -0.144268 -1.58043 0
M  V30 3228 H 309.605 2.02751 -3.21982 0
M  V30 3229 H 309.117 0.321631 -3.86765 0
M  V30 3230 H 307.218 2.51781 -2.74658 0
M  V30 3231 H 307.331 1.74129 -4.46336 0
M  V30 3232 H 305.695 1.01518 -2.33594 0
M  V30 3233 H 306.478 -0.253918 -3.4236 0
M  V30 3234 N 308.923 1.53595 0.353017 0
M  V30 3235 C 309.833 1.83897 1.45667 0
M  V30 3236 C 310.849 0.728334 1.58023 0
M  V30 3237 O 312.025 1.01968 1.73679 0
M  V30 3238 C 309.09 2.03383 2.80778 0
M  V30 3239 C 308.151 3.27262 2.77845 0
M  V30 3240 C 307.384 3.45809 4.06512 0
M  V30 3241 O 307.607 2.68387 5.03314 0
M  V30 3242 O 306.541 4.39207 4.11559 0
M  V30 3243 H 310.367 2.77686 1.2298 0
M  V30 3244 H 307.952 1.39132 0.544308 0
M  V30 3245 H 309.834 2.17698 3.60812 0
M  V30 3246 H 308.509 1.12783 3.03417 0
M  V30 3247 H 307.416 3.18359 1.96465 0
M  V30 3248 H 308.749 4.17824 2.60161 0
M  V30 3249 N 310.401 -0.613514 1.45168 0
M  V30 3250 C 311.641 -1.38405 1.5041 0
M  V30 3251 C 312.005 -1.91489 0.139922 0
M  V30 3252 O 313.206 -2.68716 0.067033 0
M  V30 3253 C 311.477 -2.50552 2.5487 0
M  V30 3254 S 313.036 -3.38439 2.79292 0
M  V30 3255 H 309.854 -0.471945 0.531779 0
M  V30 3256 H 312.456 -0.708518 1.82209 0
M  V30 3257 H 311.16 -2.09894 3.52665 0
M  V30 3258 H 310.691 -3.22913 2.24701 0
M  V30 3259 H 312.706 -4.48527 2.12222 0
M  V30 3260 N 311.879 -1.3236 -0.855495 0
M  V30 3261 C 312.789 -1.23221 -1.99634 0
M  V30 3262 C 313.805 -0.145983 -1.73387 0
M  V30 3263 O 314.981 -0.366502 -1.98037 0
M  V30 3264 C 312.046 -0.954782 -3.33294 0
M  V30 3265 C 311.107 -2.12937 -3.72769 0
M  V30 3266 C 310.34 -1.86508 -5.00051 0
M  V30 3267 O 310.563 -0.807231 -5.64659 0
M  V30 3268 O 309.497 -2.72591 -5.36636 0
M  V30 3269 H 313.323 -2.19126 -2.1028 0
M  V30 3270 H 310.908 -1.12241 -0.986018 0
M  V30 3271 H 312.79 -0.816519 -4.13414 0
M  V30 3272 H 311.465 -0.0258854 -3.2369 0
M  V30 3273 H 310.372 -2.3231 -2.93228 0
M  V30 3274 H 311.705 -3.04102 -3.87018 0
M  V30 3275 N 313.357 1.07166 -1.15556 0
M  V30 3276 C 314.304 2.14417 -0.854055 0
M  V30 3277 C 315.274 1.64965 0.193806 0
M  V30 3278 O 316.459 1.90703 0.0609443 0
M  V30 3279 C 313.599 3.43304 -0.351574 0
M  V30 3280 C 312.712 4.06537 -1.46123 0
M  V30 3281 C 311.847 5.23266 -0.914677 0
M  V30 3282 C 310.886 5.78464 -2.00114 0
M  V30 3283 N 310.023 6.86521 -1.47083 0
M  V30 3284 H 314.863 2.39548 -1.77259 0
M  V30 3285 H 312.4 1.17543 -0.884425 0
M  V30 3286 H 314.358 4.17179 -0.0419409 0
M  V30 3287 H 312.988 3.18419 0.530037 0
M  V30 3288 H 312.04 3.30297 -1.88701 0
M  V30 3289 H 313.352 4.43567 -2.28144 0
M  V30 3290 H 312.506 6.04131 -0.557698 0
M  V30 3291 H 311.245 4.87658 -0.0636583 0
M  V30 3292 H 310.25 4.96243 -2.36692 0
M  V30 3293 H 311.475 6.16126 -2.85597 0
M  V30 3294 H 309.421 6.52849 -0.642198 0
M  V30 3295 H 309.338 7.22446 -2.22729 0
M  V30 3296 H 310.606 7.71087 -1.14215 0
M  V30 3297 N 314.835 0.952656 1.25548 0
M  V30 3298 C 315.767 0.428609 2.25157 0
M  V30 3299 C 316.78 -0.454428 1.56329 0
M  V30 3300 O 317.969 -0.263023 1.76552 0
M  V30 3301 C 315.069 -0.401972 3.36508 0
M  V30 3302 C 314.242 0.467601 4.34893 0
M  V30 3303 C 313.301 -0.30445 5.25319 0
M  V30 3304 O 312.327 0.296473 5.68427 0
M  V30 3305 N 313.529 -1.59805 5.5807 0
M  V30 3306 H 316.294 1.28497 2.70756 0
M  V30 3307 H 313.855 0.822798 1.39433 0
M  V30 3308 H 315.847 -0.926134 3.9396 0
M  V30 3309 H 314.417 -1.15918 2.90313 0
M  V30 3310 H 313.637 1.17288 3.76347 0
M  V30 3311 H 314.925 1.06119 4.97611 0
M  V30 3312 H 314.323 -2.10823 5.24948 0
M  V30 3313 H 312.88 -2.06822 6.18116 0
M  V30 3314 N 316.313 -1.40141 0.720998 0
M  V30 3315 C 317.56 -2.00787 0.262842 0
M  V30 3316 C 317.888 -1.5718 -1.14563 0
M  V30 3317 O 317.143 -0.785391 -1.79249 0
M  V30 3318 C 317.442 -3.56165 0.296892 0
M  V30 3319 C 317.108 -4.19373 1.65641 0
M  V30 3320 C 315.77 -4.36352 2.02855 0
M  V30 3321 C 318.122 -4.54578 2.54968 0
M  V30 3322 C 315.45 -4.8582 3.28931 0
M  V30 3323 C 317.802 -5.05447 3.80402 0
M  V30 3324 C 316.466 -5.20635 4.17726 0
M  V30 3325 H 315.736 -0.734731 0.0961807 0
M  V30 3326 H 318.383 -1.67673 0.925093 0
M  V30 3327 H 316.688 -3.8922 -0.448932 0
M  V30 3328 H 318.385 -4.00929 -0.0755208 0
M  V30 3329 H 314.975 -4.06549 1.35704 0
M  V30 3330 H 319.159 -4.41091 2.27491 0
M  V30 3331 H 314.415 -4.95764 3.57811 0
M  V30 3332 H 318.589 -5.31663 4.49786 0
M  V30 3333 H 316.216 -5.58728 5.15487 0
M  V30 3334 N 317.792 -0.46758 -1.50504 0
M  V30 3335 C 318.724 0.364655 -2.26281 0
M  V30 3336 C 319.737 0.960151 -1.31472 0
M  V30 3337 O 320.926 0.849153 -1.57008 0
M  V30 3338 C 318.026 1.52509 -3.02645 0
M  V30 3339 C 317.199 1.04302 -4.24782 0
M  V30 3340 C 316.258 2.07709 -4.8347 0
M  V30 3341 O 315.284 1.65913 -5.44483 0
M  V30 3342 N 316.486 3.40485 -4.70159 0
M  V30 3343 H 319.251 -0.28495 -2.98342 0
M  V30 3344 H 316.812 -0.298163 -1.59131 0
M  V30 3345 H 318.804 2.21371 -3.38787 0
M  V30 3346 H 317.374 2.07945 -2.33404 0
M  V30 3347 H 316.594 0.180393 -3.93787 0
M  V30 3348 H 317.882 0.698798 -5.03978 0
M  V30 3349 H 317.28 3.77155 -4.21629 0
M  V30 3350 H 315.837 4.05156 -5.1058 0
M  V30 3351 N 319.27 1.56325 -0.20005 0
M  V30 3352 C 320.681 1.8408 0.31167 0
M  V30 3353 C 321.032 1.12087 1.61031 0
M  V30 3354 O 320.157 0.38332 2.12978 0
M  V30 3355 C 320.752 3.33932 0.57226 0
M  V30 3356 C 319.311 3.6208 1.02834 0
M  V30 3357 C 318.458 2.77186 0.079634 0
M  V30 3358 H 321.409 1.52939 -0.423729 0
M  V30 3359 H 321.43 3.52971 1.42096 0
M  V30 3360 H 320.942 3.86303 -0.37308 0
M  V30 3361 H 319.043 3.15147 1.98778 0
M  V30 3362 H 319.156 4.7023 0.917624 0
M  V30 3363 H 317.52 2.47951 0.582448 0
M  V30 3364 H 318.303 3.32347 -0.860238 0
M  V30 3365 N 320.748 -0.0735177 1.57428 0
M  V30 3366 C 321.978 -0.78483 1.91112 0
M  V30 3367 C 322.386 -1.71729 0.7941 0
M  V30 3368 O 321.729 -1.82105 -0.241542 0
M  V30 3369 C 321.791 -1.63346 3.20247 0
M  V30 3370 C 321.455 -0.870557 4.48632 0
M  V30 3371 C 322.452 -0.19058 5.19551 0
M  V30 3372 C 320.137 -0.838242 4.95256 0
M  V30 3373 C 322.131 0.511503 6.35344 0
M  V30 3374 C 319.818 -0.132386 6.10957 0
M  V30 3375 C 320.816 0.541288 6.80852 0
M  V30 3376 O 320.504 1.23578 7.94345 0
M  V30 3377 H 320.236 -0.228408 0.636244 0
M  V30 3378 H 322.79 -0.0486039 2.05342 0
M  V30 3379 H 321.02 -2.41245 3.02222 0
M  V30 3380 H 322.709 -2.22329 3.39595 0
M  V30 3381 H 323.475 -0.206864 4.84559 0
M  V30 3382 H 319.354 -1.35206 4.40727 0
M  V30 3383 H 322.898 1.03789 6.89836 0
M  V30 3384 H 318.795 -0.114023 6.45399 0
M  V30 3385 H 319.563 1.14487 8.10454 0
M  V30 3386 N 322.226 -1.5378 -0.344866 0
M  V30 3387 C 323.473 -1.70963 -1.08526 0
M  V30 3388 C 323.801 -0.472126 -1.88683 0
M  V30 3389 O 323.056 0.546116 -1.87926 0
M  V30 3390 C 323.355 -2.92407 -2.05506 0
M  V30 3391 C 323.021 -4.28066 -1.41671 0
M  V30 3392 C 321.683 -4.64951 -1.2399 0
M  V30 3393 C 324.035 -5.12344 -0.956726 0
M  V30 3394 C 321.363 -5.83733 -0.589277 0
M  V30 3395 C 323.715 -6.3179 -0.320015 0
M  V30 3396 C 322.379 -6.67372 -0.130881 0
M  V30 3397 H 321.649 -0.625598 -0.397124 0
M  V30 3398 H 324.296 -1.87995 -0.36469 0
M  V30 3399 H 322.601 -2.69973 -2.8394 0
M  V30 3400 H 324.298 -3.02895 -2.62784 0
M  V30 3401 H 320.888 -3.99034 -1.56429 0
M  V30 3402 H 325.072 -4.8438 -1.08118 0
M  V30 3403 H 320.328 -6.09877 -0.431344 0
M  V30 3404 H 324.502 -6.96386 0.0445072 0
M  V30 3405 H 322.129 -7.59273 0.375318 0
M  V30 3406 N 323.704 0.605807 -1.45491 0
M  V30 3407 C 324.953 1.36086 -1.48874 0
M  V30 3408 C 325.266 1.95131 -0.135333 0
M  V30 3409 O 326.472 2.7146 -0.0468144 0
M  V30 3410 C 324.928 2.46518 -2.62215 0
M  V30 3411 C 324.536 1.93877 -4.03876 0
M  V30 3412 C 326.28 3.23512 -2.74846 0
M  V30 3413 C 324.187 3.01801 -5.08596 0
M  V30 3414 H 323.117 0.511497 -0.553974 0
M  V30 3415 H 325.768 0.649089 -1.71636 0
M  V30 3416 H 324.15 3.20388 -2.32739 0
M  V30 3417 H 325.324 1.26704 -4.43038 0
M  V30 3418 H 323.639 1.29622 -3.95711 0
M  V30 3419 H 326.236 4.04013 -3.50253 0
M  V30 3420 H 326.579 3.74631 -1.81542 0
M  V30 3421 H 327.112 2.56742 -3.03856 0
M  V30 3422 H 323.851 2.55597 -6.03614 0
M  V30 3423 H 323.371 3.67535 -4.74002 0
M  V30 3424 H 325.05 3.66152 -5.33424 0
M  V30 3425 N 325.182 1.32811 0.848464 0
M  V30 3426 C 326.593 1.21315 1.41914 0
M  V30 3427 C 326.944 -0.171847 1.95446 0
M  V30 3428 O 326.069 -1.07093 1.88043 0
M  V30 3429 C 326.664 2.19631 2.57968 0
M  V30 3430 C 325.223 2.12003 3.11017 0
M  V30 3431 C 324.37 2.07651 1.83783 0
M  V30 3432 H 327.321 1.44549 0.655071 0
M  V30 3433 H 327.342 1.79845 3.35315 0
M  V30 3434 H 326.854 3.20423 2.18976 0
M  V30 3435 H 324.955 1.14481 3.54577 0
M  V30 3436 H 325.068 3.02111 3.71841 0
M  V30 3437 H 323.432 1.52983 2.03638 0
M  V30 3438 H 324.215 3.10235 1.47 0
M  V30 3439 N 326.66 -1.06551 1.16123 0
M  V30 3440 C 327.909 -1.78687 0.935622 0
M  V30 3441 C 328.222 -1.88056 -0.538001 0
M  V30 3442 O 329.428 -2.56794 -0.88143 0
M  V30 3443 C 327.884 -3.21143 1.62466 0
M  V30 3444 C 327.492 -3.19949 3.13587 0
M  V30 3445 C 329.236 -3.9783 1.48092 0
M  V30 3446 C 327.143 -4.57108 3.75241 0
M  V30 3447 H 326.073 -0.669712 0.346412 0
M  V30 3448 H 328.724 -1.19534 1.39226 0
M  V30 3449 H 327.106 -3.80539 1.09572 0
M  V30 3450 H 328.28 -2.70151 3.73303 0
M  V30 3451 H 326.595 -2.5676 3.27816 0
M  V30 3452 H 329.192 -4.99217 1.91538 0
M  V30 3453 H 329.535 -4.14078 0.429507 0
M  V30 3454 H 330.068 -3.4495 1.98127 0
M  V30 3455 H 326.807 -4.46065 4.80319 0
M  V30 3456 H 326.327 -5.07111 3.20309 0
M  V30 3457 H 328.006 -5.26069 3.76644 0
M  V30 3458 N 328.138 -0.959301 -1.25041 0
M  V30 3459 C 329.086 -0.474437 -2.2771 0
M  V30 3460 C 330.08 0.457697 -1.631 0
M  V30 3461 O 331.286 0.333912 -1.76876 0
M  V30 3462 H 327.661 -0.134936 -0.739795 0
M  V30 3463 H 329.632 -1.35251 -2.65988 0
M  V30 3464 C 328.381 0.227884 -3.46952 0
M  V30 3465 H 327.704 -0.480248 -3.96905 0
M  V30 3466 H 329.144 0.531091 -4.20661 0
M  V30 3467 C 327.603 1.452 -3.04004 0
M  V30 3468 O 328.133 2.54949 -3.10426 0
M  V30 3469 N 326.339 1.31502 -2.59144 0
M  V30 3470 H 325.886 0.422065 -2.54119 0
M  V30 3471 H 325.844 2.13521 -2.30773 0
M  V30 3472 O 329.655 1.36296 -0.866345 0
M  V30 3473 H 330.346 1.88046 -0.464585 0
M  V30 END ATOM
M  V30 BEGIN BOND
M  V30 END BOND
M  V30 END CTAB
M  END
$$$$
