drugbank_target|P16581 E-selectin (DB01136; DB03721; DB06423)
 OpenBabel12092119473D

  0  0  0     0  0            999 V3000
M  V30 BEGIN CTAB
M  V30 COUNTS 9062 9176 0 0 0
M  V30 BEGIN ATOM
M  V30 1 H -0.908 1.98254 -0.117106 0
M  V30 2 N 0 1.576 0 0
M  V30 3 C 0.933 2.03868 1.02534 0
M  V30 4 C 1.911 0.928543 1.3348 0
M  V30 5 O 3.095 1.19667 1.45644 0
M  V30 6 C 0.222 2.43627 2.35294 0
M  V30 7 C -0.732 3.65373 2.2001 0
M  V30 8 S 0.101 5.13292 1.52614 0
M  V30 9 C 1.257 5.56322 2.86805 0
M  V30 10 H 1.49 2.90518 0.631377 0
M  V30 11 H -0.977 1.52953 0.210867 0
M  V30 12 H 0.981 2.67203 3.11629 0
M  V30 13 H -0.358 1.57376 2.7183 0
M  V30 14 H -1.165 3.90944 3.18086 0
M  V30 15 H -1.563 3.418 1.51819 0
M  V30 16 H 0.729 5.58782 3.83104 0
M  V30 17 H 1.672 6.56266 2.65933 0
M  V30 18 H 2.08 4.83886 2.90714 0
M  V30 19 N 1.4781 -0.272755 1.55222 0
M  V30 20 C 2.7271 -1.00211 1.75045 0
M  V30 21 C 3.0401 -1.87441 0.559046 0
M  V30 22 O 4.2461 -2.63856 0.639698 0
M  V30 23 C 2.7021 -1.83165 3.09804 0
M  V30 24 C 2.3101 -1.008 4.36513 0
M  V30 25 C 4.0541 -2.55529 3.38977 0
M  V30 26 C 1.9611 -1.83194 5.62311 0
M  V30 27 H 0.8911 -0.377878 0.652476 0
M  V30 28 H 3.5421 -0.257776 1.8168 0
M  V30 29 H 1.9241 -2.61694 2.97207 0
M  V30 30 H 3.0981 -0.266855 4.60027 0
M  V30 31 H 1.4131 -0.398897 4.14485 0
M  V30 32 H 4.0101 -3.17578 4.30172 0
M  V30 33 H 4.3531 -3.25825 2.59121 0
M  V30 34 H 4.8861 -1.84029 3.52673 0
M  V30 35 H 1.6251 -1.17318 6.44916 0
M  V30 36 H 1.1451 -2.54905 5.4294 0
M  V30 37 H 2.8241 -2.40552 6.00619 0
M  V30 38 N 2.9562 -1.48159 -0.537278 0
M  V30 39 C 3.9192 -1.61665 -1.62472 0
M  V30 40 C 4.9192 -0.490395 -1.5314 0
M  V30 41 O 6.1092 -0.755998 -1.5694 0
M  V30 42 C 3.2412 -1.57997 -3.02076 0
M  V30 43 H 4.4342 -2.58621 -1.51839 0
M  V30 44 H 1.9872 -1.36647 -0.758771 0
M  V30 45 H 2.7222 -0.624913 -3.18222 0
M  V30 46 H 2.5072 -2.39755 -3.10258 0
M  V30 47 H 3.9972 -1.70627 -3.81151 0
M  V30 48 N 4.4343 0.785586 -1.36625 0
M  V30 49 C 5.6593 1.57963 -1.34397 0
M  V30 50 C 6.0843 1.87964 0.071526 0
M  V30 51 O 5.4423 1.48182 1.0446 0
M  V30 52 C 5.4903 2.87511 -2.17646 0
M  V30 53 O 4.5943 3.81281 -1.57158 0
M  V30 54 H 3.9353 0.479014 -0.459828 0
M  V30 55 H 6.4653 0.973411 -1.79961 0
M  V30 56 H 6.4753 3.36745 -2.30362 0
M  V30 57 H 5.1503 2.65002 -3.20541 0
M  V30 58 H 3.7273 3.39885 -1.53403 0
M  V30 59 N 5.9124 1.20967 1.01018 0
M  V30 60 C 6.8444 0.922059 2.09835 0
M  V30 61 C 7.8574 -0.0927106 1.62536 0
M  V30 62 O 9.0464 0.139127 1.77957 0
M  V30 63 C 6.1464 0.362004 3.36961 0
M  V30 64 C 5.3194 1.42986 4.13369 0
M  V30 65 C 4.3784 0.879976 5.1879 0
M  V30 66 O 3.4044 1.56219 5.47343 0
M  V30 67 N 4.6064 -0.307396 5.79686 0
M  V30 68 H 7.3714 1.8588 2.35093 0
M  V30 69 H 4.9324 1.11422 1.1746 0
M  V30 70 H 6.9244 -0.0201474 4.04695 0
M  V30 71 H 5.4944 -0.479437 3.08902 0
M  V30 72 H 4.7144 1.98608 3.40512 0
M  V30 73 H 6.0024 2.14885 4.61196 0
M  V30 74 H 5.4004 -0.878796 5.58832 0
M  V30 75 H 3.9574 -0.631115 6.48737 0
M  V30 76 N 7.3905 -1.2043 1.01659 0
M  V30 77 C 8.6375 -1.89797 0.705917 0
M  V30 78 C 8.9655 -1.78848 -0.764439 0
M  V30 79 O 8.2205 -1.16694 -1.57102 0
M  V30 80 C 8.5195 -3.40464 1.08714 0
M  V30 81 C 8.1855 -3.71614 2.5537 0
M  V30 82 C 6.8475 -3.79826 2.95441 0
M  V30 83 C 9.1995 -3.85915 3.50313 0
M  V30 84 C 6.5275 -3.99797 4.29394 0
M  V30 85 C 8.8795 -4.07396 4.83954 0
M  V30 86 C 7.5435 -4.13837 5.23732 0
M  V30 87 H 6.8135 -0.694518 0.258313 0
M  V30 88 H 9.4605 -1.42691 1.27717 0
M  V30 89 H 7.7655 -3.89385 0.434309 0
M  V30 90 H 9.4625 -3.92433 0.824461 0
M  V30 91 H 6.0525 -3.65822 2.23321 0
M  V30 92 H 10.2365 -3.78926 3.20513 0
M  V30 93 H 5.4925 -4.03018 4.59768 0
M  V30 94 H 9.6665 -4.17404 5.57447 0
M  V30 95 H 7.2935 -4.29064 6.27541 0
M  V30 96 N 8.8686 -0.792821 -1.36206 0
M  V30 97 C 9.7986 -0.207853 -2.32573 0
M  V30 98 C 10.7796 0.659055 -1.56813 0
M  V30 99 O 11.9646 0.592176 -1.84951 0
M  V30 100 C 9.0946 0.655449 -3.41059 0
M  V30 101 C 8.0486 -0.111842 -4.27854 0
M  V30 102 C 7.3746 0.872274 -5.27537 0
M  V30 103 C 8.6746 -1.30299 -5.05786 0
M  V30 104 H 10.3686 -1.01294 -2.81744 0
M  V30 105 H 7.9146 -0.48854 -1.3546 0
M  V30 106 H 9.8676 1.07464 -4.07467 0
M  V30 107 H 8.5916 1.49328 -2.90463 0
M  V30 108 H 7.2506 -0.512053 -3.63006 0
M  V30 109 H 6.8986 1.70523 -4.73214 0
M  V30 110 H 6.5986 0.363291 -5.86476 0
M  V30 111 H 8.1226 1.28996 -5.96818 0
M  V30 112 H 9.5366 -0.959379 -5.65216 0
M  V30 113 H 7.9336 -1.7455 -5.74154 0
M  V30 114 H 9.0036 -2.09663 -4.37229 0
M  V30 115 N 10.3467 1.47872 -0.545128 0
M  V30 116 C 11.5717 2.07391 -0.0190611 0
M  V30 117 C 11.9967 1.39688 1.25971 0
M  V30 118 O 11.3547 0.467816 1.7516 0
M  V30 119 C 11.4027 3.60188 0.172335 0
M  V30 120 O 10.5067 3.9339 1.23766 0
M  V30 121 H 9.8477 0.662411 -0.0459059 0
M  V30 122 H 12.3777 1.90066 -0.757365 0
M  V30 123 H 12.3877 4.06129 0.390305 0
M  V30 124 H 11.0627 4.08865 -0.761725 0
M  V30 125 H 9.6397 3.5921 1.00114 0
M  V30 126 N 11.8248 0.280983 1.55075 0
M  V30 127 C 12.7878 -0.590896 2.21452 0
M  V30 128 C 13.7878 -1.07682 1.19421 0
M  V30 129 O 14.9778 -0.97605 1.44288 0
M  V30 130 C 12.1098 -1.81587 2.88511 0
M  V30 131 H 13.3028 -0.0112554 2.99898 0
M  V30 132 H 10.8558 0.0316438 1.56268 0
M  V30 133 H 11.5908 -2.43587 2.14093 0
M  V30 134 H 11.3758 -1.4753 3.63287 0
M  V30 135 H 12.8658 -2.43575 3.39206 0
M  V30 136 N 13.3029 -1.57598 0.00835791 0
M  V30 137 C 14.2329 -2.1198 -0.979113 0
M  V30 138 C 15.2139 -1.03091 -1.35301 0
M  V30 139 O 16.3989 -1.30818 -1.43528 0
M  V30 140 C 13.5289 -2.62995 -2.26828 0
M  V30 141 C 12.4829 -3.76485 -2.03576 0
M  V30 142 C 11.8089 -4.13846 -3.38579 0
M  V30 143 C 13.1089 -5.0342 -1.39161 0
M  V30 144 H 14.8029 -2.94738 -0.526281 0
M  V30 145 H 12.3489 -1.41783 -0.251704 0
M  V30 146 H 14.3019 -2.99669 -2.96271 0
M  V30 147 H 13.0259 -1.7737 -2.7424 0
M  V30 148 H 11.6849 -3.40217 -1.36557 0
M  V30 149 H 11.3329 -3.25232 -3.83709 0
M  V30 150 H 11.0329 -4.90312 -3.23834 0
M  V30 151 H 12.5569 -4.53086 -4.09323 0
M  V30 152 H 13.9709 -5.37812 -1.98573 0
M  V30 153 H 12.3679 -5.84746 -1.34878 0
M  V30 154 H 13.4379 -4.83548 -0.361868 0
M  V30 155 N 14.781 0.264519 -1.55364 0
M  V30 156 C 16.009 1.013 -1.80405 0
M  V30 157 C 16.424 1.79618 -0.581622 0
M  V30 158 O 15.781 1.76879 0.449468 0
M  V30 159 C 15.832 1.96487 -3.03439 0
M  V30 160 O 15.553 1.21341 -4.20961 0
M  V30 161 C 17.054 2.83079 -3.41147 0
M  V30 162 H 14.274 0.298875 -0.600762 0
M  V30 163 H 16.818 0.292736 -2.02394 0
M  V30 164 H 14.973 2.63965 -2.83551 0
M  V30 165 H 15.387 1.85573 -4.90574 0
M  V30 166 H 16.861 3.4565 -4.30384 0
M  V30 167 H 17.338 3.53286 -2.60932 0
M  V30 168 H 17.944 2.2108 -3.63323 0
M  V30 169 N 16.2591 1.48442 0.529413 0
M  V30 170 C 17.1891 1.65902 1.64313 0
M  V30 171 C 18.1701 0.507897 1.6234 0
M  V30 172 O 19.3551 0.740503 1.79528 0
M  V30 173 C 16.4851 1.69911 3.02898 0
M  V30 174 C 15.4391 2.8453 3.19729 0
M  V30 175 C 14.7651 2.73629 4.59381 0
M  V30 176 C 16.0651 4.25821 3.02447 0
M  V30 177 H 17.7591 2.5914 1.49955 0
M  V30 178 H 15.3051 1.24709 0.719982 0
M  V30 179 H 17.2581 1.80715 3.80684 0
M  V30 180 H 15.9821 0.732524 3.18279 0
M  V30 181 H 14.6411 2.73283 2.44361 0
M  V30 182 H 14.2891 1.74938 4.71599 0
M  V30 183 H 13.9891 3.50541 4.71588 0
M  V30 184 H 15.5131 2.86401 5.39265 0
M  V30 185 H 16.9271 4.37898 3.70024 0
M  V30 186 H 15.3241 5.03735 3.26146 0
M  V30 187 H 16.3941 4.42244 1.98867 0
M  V30 188 N 17.7372 -0.778329 1.37039 0
M  V30 189 C 18.9832 -1.53892 1.32079 0
M  V30 190 C 19.3162 -1.9396 -0.0965386 0
M  V30 191 O 18.5912 -1.63568 -1.05242 0
M  V30 192 C 18.8742 -2.80847 2.25382 0
M  V30 193 C 18.7272 -2.47076 3.75864 0
M  V30 194 C 20.0462 -3.82741 2.1725 0
M  V30 195 H 17.1652 -0.558303 0.48111 0
M  V30 196 H 19.8072 -0.893397 1.67685 0
M  V30 197 H 17.9572 -3.35931 1.95148 0
M  V30 198 H 19.6292 -1.97957 4.16666 0
M  V30 199 H 17.8722 -1.79863 3.94755 0
M  V30 200 H 18.5432 -3.37798 4.36574 0
M  V30 201 H 21.0192 -3.37133 2.43887 0
M  V30 202 H 19.8952 -4.69303 2.84686 0
M  V30 203 H 20.1562 -4.2652 1.16331 0
M  V30 204 N 19.2153 -1.21501 -1.00376 0
M  V30 205 C 20.1453 -0.999478 -2.11028 0
M  V30 206 C 21.1263 0.0759671 -1.6993 0
M  V30 207 O 22.3113 -0.0841106 -1.94018 0
M  V30 208 C 19.4413 -0.564709 -3.42678 0
M  V30 209 C 18.3953 -1.58486 -3.97576 0
M  V30 210 C 17.7213 -1.00628 -5.25146 0
M  V30 211 C 19.0213 -2.97204 -4.29496 0
M  V30 212 H 20.7153 -1.92495 -2.29317 0
M  V30 213 H 18.2613 -0.92693 -1.102 0
M  V30 214 H 20.2143 -0.401091 -4.19487 0
M  V30 215 H 18.9383 0.396411 -3.24185 0
M  V30 216 H 17.5973 -1.73606 -3.22888 0
M  V30 217 H 17.2453 -0.0368439 -5.02987 0
M  V30 218 H 16.9453 -1.68771 -5.62841 0
M  V30 219 H 18.4693 -0.854015 -6.04598 0
M  V30 220 H 19.8833 -2.8552 -4.97143 0
M  V30 221 H 18.2803 -3.62372 -4.78338 0
M  V30 222 H 19.3503 -3.47956 -3.3772 0
M  V30 223 N 20.6934 1.19889 -1.02296 0
M  V30 224 C 21.6234 2.25141 -0.619174 0
M  V30 225 C 22.6044 1.66051 0.368915 0
M  V30 226 O 23.7894 1.92546 0.252941 0
M  V30 227 C 20.9194 3.4728 0.0368783 0
M  V30 228 C 19.8734 4.19005 -0.872865 0
M  V30 229 C 19.1994 5.34637 -0.0822402 0
M  V30 230 C 20.4994 4.74452 -2.18387 0
M  V30 231 H 22.1934 2.59171 -1.49903 0
M  V30 232 H 19.7394 1.24579 -0.722222 0
M  V30 233 H 21.6924 4.20098 0.330958 0
M  V30 234 H 20.4164 3.12433 0.95149 0
M  V30 235 H 19.0754 3.48061 -1.15105 0
M  V30 236 H 18.7234 4.96034 0.83422 0
M  V30 237 H 18.4234 5.83557 -0.688149 0
M  V30 238 H 19.9474 6.10255 0.205238 0
M  V30 239 H 21.3614 5.39055 -1.95172 0
M  V30 240 H 19.7584 5.33834 -2.74119 0
M  V30 241 H 20.8284 3.92844 -2.84257 0
M  V30 242 N 22.1715 0.800033 1.35784 0
M  V30 243 C 23.4205 0.37387 1.98205 0
M  V30 244 C 23.7335 -1.06302 1.64193 0
M  V30 245 O 24.9395 -1.59198 2.19928 0
M  V30 246 C 23.3955 0.617532 3.54562 0
M  V30 247 C 23.0035 2.06654 3.9749 0
M  V30 248 C 24.7475 0.256401 4.23725 0
M  V30 249 C 22.6545 2.2563 5.46667 0
M  V30 250 H 21.5845 0.136055 0.741623 0
M  V30 251 H 24.2355 0.983166 1.54939 0
M  V30 252 H 22.6175 -0.0616248 3.95952 0
M  V30 253 H 23.7915 2.78296 3.67271 0
M  V30 254 H 22.1065 2.38691 3.41197 0
M  V30 255 H 24.7035 0.376318 5.33374 0
M  V30 256 H 25.0465 -0.796692 4.08606 0
M  V30 257 H 25.5795 0.889214 3.87734 0
M  V30 258 H 22.3185 3.2936 5.66747 0
M  V30 259 H 21.8385 1.58504 5.78478 0
M  V30 260 H 23.5175 2.06861 6.1304 0
M  V30 261 N 23.6496 -1.47581 0.552962 0
M  V30 262 C 24.5966 -2.29957 -0.197108 0
M  V30 263 C 25.5666 -1.38799 -0.912359 0
M  V30 264 O 26.7516 -1.67761 -0.908888 0
M  V30 265 C 23.8916 -3.22672 -1.22379 0
M  V30 266 C 23.0046 -4.28919 -0.515038 0
M  V30 267 C 22.1396 -5.0879 -1.52664 0
M  V30 268 C 21.1786 -6.06815 -0.802631 0
M  V30 269 N 20.3156 -6.7966 -1.76086 0
M  V30 270 H 25.1556 -2.93578 0.511486 0
M  V30 271 H 22.6926 -1.4471 0.264067 0
M  V30 272 H 24.6506 -3.74845 -1.83159 0
M  V30 273 H 23.2806 -2.60925 -1.90047 0
M  V30 274 H 22.3326 -3.79835 0.207192 0
M  V30 275 H 23.6446 -4.98773 0.0523425 0
M  V30 276 H 22.7986 -5.65091 -2.20809 0
M  V30 277 H 21.5376 -4.38828 -2.12794 0
M  V30 278 H 20.5426 -5.49695 -0.107238 0
M  V30 279 H 21.7676 -6.78784 -0.207135 0
M  V30 280 H 19.7136 -6.12432 -2.35081 0
M  V30 281 H 19.6306 -7.45669 -1.24552 0
M  V30 282 H 20.8986 -7.40538 -2.43359 0
M  V30 283 N 25.1277 -0.289203 -1.54924 0
M  V30 284 C 26.0377 0.601863 -2.26748 0
M  V30 285 C 27.0537 1.15834 -1.2984 0
M  V30 286 O 28.2297 1.18564 -1.62802 0
M  V30 287 C 25.2947 1.76299 -2.98529 0
M  V30 288 C 24.3557 1.24178 -4.10948 0
M  V30 289 C 23.5887 2.34757 -4.79296 0
M  V30 290 O 23.8117 3.54411 -4.46933 0
M  V30 291 O 22.7457 2.02115 -5.66951 0
M  V30 292 H 26.5717 0.0195879 -3.03694 0
M  V30 293 H 24.1567 -0.0560868 -1.49295 0
M  V30 294 H 26.0387 2.43973 -3.43592 0
M  V30 295 H 24.7137 2.33209 -2.24488 0
M  V30 296 H 23.6207 0.531104 -3.70311 0
M  V30 297 H 24.9537 0.718252 -4.86931 0
M  V30 298 N 26.6058 1.57591 -0.0167156 0
M  V30 299 C 27.8308 1.9598 0.67872 0
M  V30 300 C 28.2558 0.892546 1.65575 0
M  V30 301 O 27.6138 -0.147772 1.80697 0
M  V30 302 C 27.6618 3.33468 1.37227 0
M  V30 303 O 26.7658 3.28954 2.48722 0
M  V30 304 H 26.1068 0.639339 0.17928 0
M  V30 305 H 28.6368 2.04463 -0.0748802 0
M  V30 306 H 28.6468 3.69417 1.7319 0
M  V30 307 H 27.3218 4.10694 0.656007 0
M  V30 308 H 25.8988 3.04705 2.14963 0
M  V30 309 N 28.0839 -0.256276 1.55502 0
M  V30 310 C 29.3319 -0.983672 1.76545 0
M  V30 311 C 29.6529 -1.86206 0.578982 0
M  V30 312 O 28.9229 -1.91656 -0.405577 0
M  V30 313 H 27.5029 -0.366191 0.651086 0
M  V30 314 H 30.1649 -0.276479 1.92929 0
M  V30 315 H 29.2609 -1.61087 2.67315 0
M  V30 316 N 29.562 -1.4872 -0.521534 0
M  V30 317 C 30.525 -1.63379 -1.60748 0
M  V30 318 C 31.525 -0.50661 -1.52611 0
M  V30 319 O 32.715 -0.772601 -1.5613 0
M  V30 320 C 29.847 -1.61192 -3.00383 0
M  V30 321 H 31.04 -2.60217 -1.49087 0
M  V30 322 H 28.593 -1.37444 -0.744235 0
M  V30 323 H 29.328 -0.65863 -3.17541 0
M  V30 324 H 29.113 -2.43032 -3.07698 0
M  V30 325 H 30.603 -1.7466 -3.7932 0
M  V30 326 N 31.0401 0.771051 -1.3745 0
M  V30 327 C 32.2861 1.53109 -1.339 0
M  V30 328 C 32.6411 1.9225 0.0758401 0
M  V30 329 O 31.9341 1.61264 1.03463 0
M  V30 330 C 32.1281 2.80676 -2.2126 0
M  V30 331 C 31.9571 2.54003 -3.71096 0
M  V30 332 C 30.7271 2.48097 -4.402 0
M  V30 333 C 32.9251 2.21953 -4.63941 0
M  V30 334 N 30.9071 2.13515 -5.75573 0
M  V30 335 C 32.2781 1.97516 -5.87697 0
M  V30 336 C 34.3331 2.08114 -4.5232 0
M  V30 337 C 33.0361 1.60638 -7.01133 0
M  V30 338 C 35.0621 1.72636 -5.65642 0
M  V30 339 C 34.4241 1.4906 -6.88448 0
M  V30 340 H 30.5231 0.56055 -0.54526 0
M  V30 341 H 33.1071 0.899472 -1.72678 0
M  V30 342 H 31.2781 3.41674 -1.84698 0
M  V30 343 H 33.0101 3.46578 -2.08963 0
M  V30 344 H 29.7651 2.63974 -3.93211 0
M  V30 345 H 30.1891 1.98919 -6.47117 0
M  V30 346 H 34.8311 2.25024 -3.57944 0
M  V30 347 H 32.5491 1.42467 -7.95443 0
M  V30 348 H 36.1351 1.62586 -5.58621 0
M  V30 349 H 35.0151 1.22014 -7.7465 0
M  V30 350 N 32.5182 1.22032 0.997298 0
M  V30 351 C 33.7432 1.06921 1.77715 0
M  V30 352 C 34.1682 -0.376226 1.84299 0
M  V30 353 O 33.5262 -1.27165 1.29223 0
M  V30 354 C 33.5742 1.67996 3.19076 0
M  V30 355 O 32.6782 0.930653 4.01762 0
M  V30 356 H 32.0192 0.375814 0.547412 0
M  V30 357 H 34.5492 1.61737 1.25309 0
M  V30 358 H 34.5592 1.72538 3.69723 0
M  V30 359 H 33.2342 2.73182 3.13599 0
M  V30 360 H 31.8112 0.960917 3.60307 0
M  V30 361 N 33.9963 -1.19345 1.0293 0
M  V30 362 C 35.2263 -1.92717 0.744563 0
M  V30 363 C 35.6343 -1.75751 -0.700579 0
M  V30 364 O 34.9773 -1.07703 -1.48815 0
M  V30 365 C 35.0393 -3.44828 1.01657 0
M  V30 366 C 34.7033 -3.85564 2.45335 0
M  V30 367 C 35.7003 -3.90286 3.43472 0
M  V30 368 C 33.3853 -4.1719 2.79746 0
M  V30 369 C 35.3793 -4.26065 4.74075 0
M  V30 370 C 33.0663 -4.52642 4.10559 0
M  V30 371 C 34.0643 -4.57054 5.07534 0
M  V30 372 O 33.7523 -4.91685 6.36004 0
M  V30 373 H 33.4843 -0.618977 0.271742 0
M  V30 374 H 36.0383 -1.52415 1.37691 0
M  V30 375 H 34.2683 -3.85314 0.327084 0
M  V30 376 H 35.9573 -3.99437 0.721427 0
M  V30 377 H 36.7233 -3.66002 3.18225 0
M  V30 378 H 32.6023 -4.1294 2.04943 0
M  V30 379 H 36.1463 -4.29423 5.49765 0
M  V30 380 H 32.0433 -4.76383 4.35579 0
M  V30 381 H 32.8113 -5.09631 6.40483 0
M  V30 382 N 35.4744 -0.807222 -1.35358 0
M  V30 383 C 36.4224 -0.20614 -2.31685 0
M  V30 384 C 37.4164 0.644445 -1.56663 0
M  V30 385 O 38.6224 0.537538 -1.71786 0
M  V30 386 H 34.9974 -0.0479006 -0.750473 0
M  V30 387 H 36.9684 -1.03369 -2.79924 0
M  V30 388 C 35.7174 0.630212 -3.41941 0
M  V30 389 H 35.0404 -0.0149558 -3.99797 0
M  V30 390 H 36.4804 1.01716 -4.11619 0
M  V30 391 C 34.9394 1.79601 -2.85035 0
M  V30 392 O 35.4694 2.89351 -2.78637 0
M  V30 393 N 33.6754 1.60774 -2.42074 0
M  V30 394 H 33.2224 0.715009 -2.47478 0
M  V30 395 H 33.1804 2.38933 -2.04349 0
M  V30 396 N 36.9525 1.47285 -0.560781 0
M  V30 397 C 38.1805 2.06855 -0.0430262 0
M  V30 398 C 38.5955 1.41291 1.25229 0
M  V30 399 O 37.9525 0.510648 1.7521 0
M  V30 400 C 38.0035 3.61178 0.152518 0
M  V30 401 O 37.7245 4.24285 -1.0915 0
M  V30 402 C 39.2255 4.37624 0.707145 0
M  V30 403 H 36.4455 0.669319 -0.0474652 0
M  V30 404 H 38.9895 1.89237 -0.77521 0
M  V30 405 H 37.1445 3.78298 0.834843 0
M  V30 406 H 37.5585 5.16868 -0.891482 0
M  V30 407 H 39.0325 5.46271 0.793244 0
M  V30 408 H 39.5095 4.04152 1.71923 0
M  V30 409 H 40.1155 4.25257 0.0604027 0
M  V30 410 N 38.4306 0.297415 1.54768 0
M  V30 411 C 39.6556 -0.318435 2.04941 0
M  V30 412 C 40.0806 -1.4701 1.17345 0
M  V30 413 O 39.4386 -1.80436 0.176758 0
M  V30 414 C 39.4866 -0.755749 3.52592 0
M  V30 415 O 38.5906 -1.86088 3.68028 0
M  V30 416 H 37.9316 -0.062421 0.661059 0
M  V30 417 H 40.4616 0.438215 1.99852 0
M  V30 418 H 40.4716 -1.04552 3.94376 0
M  V30 419 H 39.1466 0.0867233 4.1581 0
M  V30 420 H 37.7236 -1.57193 3.38149 0
M  V30 421 N 39.9087 -1.5758 0.0250728 0
M  V30 422 C 41.1367 -1.9593 -0.664747 0
M  V30 423 C 41.5517 -0.901352 -1.65895 0
M  V30 424 O 40.9087 0.117255 -1.82123 0
M  V30 425 C 40.9597 -3.34342 -1.37468 0
M  V30 426 O 40.6807 -4.36079 -0.420324 0
M  V30 427 C 42.1817 -3.873 -2.1567 0
M  V30 428 H 39.4017 -0.645405 -0.183557 0
M  V30 429 H 41.9457 -2.04329 0.0836372 0
M  V30 430 H 40.1007 -3.27175 -2.0745 0
M  V30 431 H 40.5147 -5.16297 -0.923991 0
M  V30 432 H 41.9887 -4.86504 -2.60803 0
M  V30 433 H 42.4657 -3.21331 -2.99405 0
M  V30 434 H 43.0717 -3.97723 -1.50654 0
M  V30 435 N 41.3868 0.248026 -1.55636 0
M  V30 436 C 42.2968 1.32859 -1.93354 0
M  V30 437 C 43.3128 1.52719 -0.833838 0
M  V30 438 O 44.4888 1.66363 -1.13513 0
M  V30 439 C 41.5538 2.66337 -2.21958 0
M  V30 440 C 40.6148 2.55008 -3.45354 0
M  V30 441 C 39.8478 3.82121 -3.72584 0
M  V30 442 O 40.0708 4.83951 -3.01907 0
M  V30 443 O 39.0048 3.80822 -4.6611 0
M  V30 444 H 42.8308 1.03862 -2.85388 0
M  V30 445 H 40.4158 0.448686 -1.42503 0
M  V30 446 H 42.2978 3.45216 -2.4167 0
M  V30 447 H 40.9728 2.95068 -1.33103 0
M  V30 448 H 39.8798 1.7442 -3.30951 0
M  V30 449 H 41.2128 2.31222 -4.34508 0
M  V30 450 N 42.8649 1.48995 0.513639 0
M  V30 451 C 43.8279 1.64229 1.59879 0
M  V30 452 C 44.8279 0.514696 1.5234 0
M  V30 453 O 46.0179 0.78087 1.55718 0
M  V30 454 C 43.1499 1.62783 2.99524 0
M  V30 455 H 44.3429 2.61004 1.47705 0
M  V30 456 H 41.8959 1.37837 0.736936 0
M  V30 457 H 42.6309 0.675461 3.17188 0
M  V30 458 H 42.4159 2.4466 3.06404 0
M  V30 459 H 43.9059 1.76669 3.78388 0
M  V30 460 N 44.343 -0.763751 1.37857 0
M  V30 461 C 45.276 -1.88486 1.28639 0
M  V30 462 C 46.254 -1.61757 0.165363 0
M  V30 463 O 47.438 -1.85391 0.340948 0
M  V30 464 C 44.565 -3.23884 0.990811 0
M  V30 465 C 43.611 -3.69514 2.12983 0
M  V30 466 S 44.444 -3.82244 3.75033 0
M  V30 467 C 45.6 -5.20477 3.47641 0
M  V30 468 H 45.833 -1.96017 2.23527 0
M  V30 469 H 43.366 -0.925684 1.23574 0
M  V30 470 H 45.324 -4.02081 0.827101 0
M  V30 471 H 43.985 -3.14044 0.0592832 0
M  V30 472 H 43.178 -4.67696 1.87821 0
M  V30 473 H 42.78 -2.98441 2.25408 0
M  V30 474 H 45.072 -6.05905 3.03125 0
M  V30 475 H 46.015 -5.50655 4.4518 0
M  V30 476 H 46.423 -4.88793 2.82385 0
M  V30 477 N 45.8211 -1.22559 -0.990812 0
M  V30 478 C 47.0491 -1.07779 -1.76611 0
M  V30 479 C 47.4641 0.371513 -1.85109 0
M  V30 480 O 46.8211 1.25737 -1.32274 0
M  V30 481 C 46.8721 -1.68512 -3.19822 0
M  V30 482 O 46.5931 -3.07774 -3.1178 0
M  V30 483 C 48.0941 -1.59035 -4.13791 0
M  V30 484 H 45.3141 -0.377729 -0.554583 0
M  V30 485 H 47.8581 -1.62195 -1.24551 0
M  V30 486 H 46.0131 -1.18154 -3.68942 0
M  V30 487 H 46.4271 -3.37062 -4.01858 0
M  V30 488 H 47.9011 -2.0625 -5.1202 0
M  V30 489 H 48.3781 -0.547273 -4.35777 0
M  V30 490 H 48.9841 -2.08709 -3.70568 0
M  V30 491 N 47.2992 1.18797 -1.03562 0
M  V30 492 C 48.5292 1.92319 -0.754773 0
M  V30 493 C 48.9372 1.7612 0.691248 0
M  V30 494 O 48.2802 1.08491 1.48241 0
M  V30 495 C 48.3422 3.44284 -1.03484 0
M  V30 496 C 48.0062 3.84258 -2.47376 0
M  V30 497 C 49.0032 3.88459 -3.45537 0
M  V30 498 C 46.6882 4.15701 -2.81954 0
M  V30 499 C 48.6822 4.23545 -4.76328 0
M  V30 500 C 46.3692 4.50458 -4.12954 0
M  V30 501 C 47.3672 4.54356 -5.09951 0
M  V30 502 O 47.0552 4.88305 -6.38603 0
M  V30 503 H 46.7872 0.617527 -0.275021 0
M  V30 504 H 49.3412 1.51683 -1.38497 0
M  V30 505 H 47.5712 3.85135 -0.347513 0
M  V30 506 H 49.2602 3.99049 -0.7426 0
M  V30 507 H 50.0262 3.6431 -3.20162 0
M  V30 508 H 45.9052 4.11847 -2.0713 0
M  V30 509 H 49.4492 4.26502 -5.52035 0
M  V30 510 H 45.3462 4.74067 -4.38099 0
M  V30 511 H 46.1142 5.06227 -6.43177 0
M  V30 512 N 48.7773 0.814389 1.34928 0
M  V30 513 C 50.0543 0.321363 1.92942 0
M  V30 514 C 50.4343 -1.19014 1.74353 0
M  V30 515 O 49.7823 -1.99328 1.11716 0
M  V30 516 C 49.9923 0.741323 3.41036 0
M  V30 517 C 51.3403 0.735266 4.18185 0
M  V30 518 O 52.3643 0.68336 3.49584 0
M  V30 519 O 51.2233 0.800703 5.40602 0
M  V30 520 H 48.3173 0.0858893 0.822528 0
M  V30 521 H 50.8633 0.898609 1.43955 0
M  V30 522 H 49.6353 1.78276 3.4833 0
M  V30 523 H 49.2583 0.139307 3.97356 0
M  V30 524 N 50.2554 -1.46986 0.568584 0
M  V30 525 C 51.1654 -2.33942 -0.17555 0
M  V30 526 C 52.1814 -1.48891 -0.90041 0
M  V30 527 O 53.3574 -1.81794 -0.86676 0
M  V30 528 C 50.4224 -3.25811 -1.18524 0
M  V30 529 C 49.4834 -4.26757 -0.466582 0
M  V30 530 C 48.7164 -5.14236 -1.42817 0
M  V30 531 O 48.9394 -5.04379 -2.66379 0
M  V30 532 O 47.8734 -5.94412 -0.946453 0
M  V30 533 H 51.6994 -2.98896 0.538036 0
M  V30 534 H 49.2844 -1.4573 0.329097 0
M  V30 535 H 51.1664 -3.82527 -1.76779 0
M  V30 536 H 49.8414 -2.63471 -1.88055 0
M  V30 537 H 48.7484 -3.73769 0.157451 0
M  V30 538 H 50.0814 -4.91843 0.187485 0
M  V30 539 N 51.7335 -0.305618 -1.54608 0
M  V30 540 C 52.6965 0.555591 -2.22364 0
M  V30 541 C 53.6965 1.05768 -1.21119 0
M  V30 542 O 54.8865 0.952972 -1.45822 0
M  V30 543 C 52.0185 1.76974 -2.91364 0
M  V30 544 H 53.2115 -0.0364572 -2.99878 0
M  V30 545 H 50.7645 -0.0565007 -1.56198 0
M  V30 546 H 51.4995 2.40151 -2.17941 0
M  V30 547 H 51.2845 1.41732 -3.65588 0
M  V30 548 H 52.7745 2.38148 -3.43038 0
M  V30 549 N 53.2116 1.57565 -0.0334293 0
M  V30 550 C 54.4366 1.96689 0.657895 0
M  V30 551 C 54.8616 0.910057 1.64619 0
M  V30 552 O 54.2196 -0.128598 1.80843 0
M  V30 553 C 54.2676 3.34905 1.33683 0
M  V30 554 O 53.3716 3.31574 2.45219 0
M  V30 555 H 52.7126 0.641205 0.172489 0
M  V30 556 H 55.2426 2.04372 -0.0965621 0
M  V30 557 H 55.2526 3.71234 1.69262 0
M  V30 558 H 53.9276 4.11366 0.612411 0
M  V30 559 H 52.5046 3.06968 2.11719 0
M  V30 560 N 54.6897 -0.239769 1.55765 0
M  V30 561 C 55.6527 -1.28038 1.90103 0
M  V30 562 C 56.6527 -1.40723 0.778055 0
M  V30 563 O 57.8427 -1.39301 1.04599 0
M  V30 564 C 54.9747 -2.65702 2.13577 0
M  V30 565 H 56.1677 -0.988048 2.83157 0
M  V30 566 H 53.7207 -0.479382 1.48767 0
M  V30 567 H 54.4557 -3.00063 1.23015 0
M  V30 568 H 54.2407 -2.57875 2.95369 0
M  V30 569 H 55.7307 -3.40828 2.41301 0
M  V30 570 N 56.1678 -1.49265 -0.50573 0
M  V30 571 C 57.3978 -1.61979 -1.28243 0
M  V30 572 C 57.8058 -0.288576 -1.86986 0
M  V30 573 O 57.1488 0.735408 -1.68337 0
M  V30 574 C 57.2108 -2.62632 -2.45489 0
M  V30 575 C 56.8748 -4.071 -2.07651 0
M  V30 576 C 57.8718 -4.94049 -1.61901 0
M  V30 577 C 55.5568 -4.52801 -2.17431 0
M  V30 578 C 57.5508 -6.24736 -1.26428 0
M  V30 579 C 55.2378 -5.83503 -1.8157 0
M  V30 580 C 56.2358 -6.69294 -1.36142 0
M  V30 581 O 55.9238 -7.9756 -1.00764 0
M  V30 582 H 55.6558 -0.54834 -0.395347 0
M  V30 583 H 58.2098 -1.96002 -0.614204 0
M  V30 584 H 56.4398 -2.2378 -3.15372 0
M  V30 585 H 58.1288 -2.64925 -3.07522 0
M  V30 586 H 58.8948 -4.5997 -1.53795 0
M  V30 587 H 54.7738 -3.86196 -2.51742 0
M  V30 588 H 58.3178 -6.91652 -0.908992 0
M  V30 589 H 54.2148 -6.17112 -1.89324 0
M  V30 590 H 54.9828 -8.10529 -1.13952 0
M  V30 591 N 57.6459 0.756429 -1.3826 0
M  V30 592 C 58.8859 1.52833 -1.35725 0
M  V30 593 C 59.2499 1.91926 0.0534106 0
M  V30 594 O 60.4509 2.68028 0.203613 0
M  V30 595 C 58.7219 2.74919 -2.28373 0
M  V30 596 S 60.2809 3.64817 -2.43832 0
M  V30 597 H 57.0989 0.523043 -0.481608 0
M  V30 598 H 59.7009 0.888212 -1.74158 0
M  V30 599 H 58.4049 2.44304 -3.29763 0
M  V30 600 H 57.9359 3.43878 -1.91079 0
M  V30 601 H 59.9509 4.676 -1.66027 0
M  V30 602 N 59.124 1.23083 0.984299 0
M  V30 603 C 60.056 0.96636 2.07832 0
M  V30 604 C 61.069 -0.0582135 1.62696 0
M  V30 605 O 62.258 0.176843 1.77622 0
M  V30 606 C 59.358 0.433397 3.36117 0
M  V30 607 C 58.531 1.51722 4.10243 0
M  V30 608 C 57.59 0.989821 5.16807 0
M  V30 609 O 56.616 1.67794 5.43906 0
M  V30 610 N 57.818 -0.184367 5.80207 0
M  V30 611 H 60.583 1.90824 2.31098 0
M  V30 612 H 58.144 1.13888 1.1507 0
M  V30 613 H 60.136 0.065699 4.04647 0
M  V30 614 H 58.706 -0.413806 3.09849 0
M  V30 615 H 57.926 2.05786 3.36223 0
M  V30 616 H 59.214 2.24619 4.56534 0
M  V30 617 H 58.612 -0.760062 5.60571 0
M  V30 618 H 57.169 -0.493366 6.4993 0
M  V30 619 N 60.6021 -1.18246 1.0419 0
M  V30 620 C 61.5341 -2.2142 0.592088 0
M  V30 621 C 62.5471 -1.59233 -0.338909 0
M  V30 622 O 63.7361 -1.78002 -0.133231 0
M  V30 623 C 60.8361 -3.38546 -0.154854 0
M  V30 624 C 60.0091 -4.3031 0.784328 0
M  V30 625 C 59.0681 -5.26138 0.0804583 0
M  V30 626 O 58.0941 -5.64738 0.711292 0
M  V30 627 N 59.2961 -5.68261 -1.18574 0
M  V30 628 H 62.0611 -2.60636 1.47949 0
M  V30 629 H 59.6221 -1.33044 0.922544 0
M  V30 630 H 61.6141 -3.99678 -0.635606 0
M  V30 631 H 60.1841 -2.98012 -0.943811 0
M  V30 632 H 59.4041 -3.66764 1.44491 0
M  V30 633 H 60.6921 -4.8852 1.42218 0
M  V30 634 H 60.0901 -5.38957 -1.71876 0
M  V30 635 H 58.6471 -6.31584 -1.61074 0
M  V30 636 N 62.0802 -0.821533 -1.34494 0
M  V30 637 C 63.4962 -0.507117 -1.51329 0
M  V30 638 C 63.6962 0.968964 -1.76673 0
M  V30 639 O 62.7522 1.75348 -1.81685 0
M  V30 640 C 64.0652 -1.36544 -2.67911 0
M  V30 641 C 65.6132 -1.36242 -2.81793 0
M  V30 642 C 66.0882 -2.2052 -4.01416 0
M  V30 643 N 67.5792 -2.18136 -4.08621 0
M  V30 644 C 68.3142 -2.80095 -5.00334 0
M  V30 645 N 67.8102 -3.51039 -5.9728 0
M  V30 646 N 69.6032 -2.69656 -4.93196 0
M  V30 647 H 61.7542 -1.77729 -1.16302 0
M  V30 648 H 64.0172 -0.757291 -0.570276 0
M  V30 649 H 63.7232 -2.41361 -2.55808 0
M  V30 650 H 63.5972 -1.02917 -3.62888 0
M  V30 651 H 65.9842 -0.322041 -2.93338 0
M  V30 652 H 66.0652 -1.73866 -1.87628 0
M  V30 653 H 65.7092 -3.24607 -3.90631 0
M  V30 654 H 65.6392 -1.80247 -4.94791 0
M  V30 655 H 68.1302 -1.6653 -3.39229 0
M  V30 656 H 68.4432 -3.95565 -6.63889 0
M  V30 657 H 66.7882 -3.55145 -5.97409 0
M  V30 658 H 69.9792 -2.13808 -4.16418 0
M  V30 659 H 70.1522 -3.1823 -5.64476 0
M  V30 660 N 63.5583 1.46682 -0.576371 0
M  V30 661 C 64.7883 2.06498 -0.0648694 0
M  V30 662 C 65.1963 1.42665 1.24271 0
M  V30 663 O 64.5393 0.523886 1.76071 0
M  V30 664 C 64.6013 3.5904 0.181816 0
M  V30 665 C 64.2653 4.45028 -1.0392 0
M  V30 666 C 65.2623 4.81959 -1.94966 0
M  V30 667 C 62.9473 4.86259 -1.25927 0
M  V30 668 C 64.9413 5.58942 -3.06371 0
M  V30 669 C 62.6283 5.63002 -2.37638 0
M  V30 670 C 63.6263 5.99257 -3.2769 0
M  V30 671 O 63.3143 6.7445 -4.37461 0
M  V30 672 H 63.0463 0.674028 -0.0515987 0
M  V30 673 H 65.6003 1.89393 -0.794951 0
M  V30 674 H 63.8303 3.74429 0.966436 0
M  V30 675 H 65.5193 4.00806 0.641047 0
M  V30 676 H 66.2853 4.50689 -1.79177 0
M  V30 677 H 62.1643 4.57494 -0.567448 0
M  V30 678 H 65.7083 5.87158 -3.76684 0
M  V30 679 H 61.6053 5.93686 -2.53392 0
M  V30 680 H 62.3733 6.92867 -4.35749 0
M  V30 681 N 65.0364 0.313813 1.54444 0
M  V30 682 C 66.2644 -0.293918 2.04802 0
M  V30 683 C 66.6794 -1.46537 1.19047 0
M  V30 684 O 66.0364 -1.81182 0.218939 0
M  V30 685 C 66.0874 -0.737806 3.53891 0
M  V30 686 O 65.8084 0.387038 4.36387 0
M  V30 687 C 67.3094 -1.40936 4.203 0
M  V30 688 H 64.5294 -0.0620057 0.668129 0
M  V30 689 H 67.0734 0.457169 1.99324 0
M  V30 690 H 65.2284 -1.43889 3.59687 0
M  V30 691 H 65.6424 0.0391274 5.24485 0
M  V30 692 H 67.1164 -1.67099 5.26101 0
M  V30 693 H 67.5934 -2.35355 3.70816 0
M  V30 694 H 68.1994 -0.751117 4.18615 0
M  V30 695 N 66.5145 -1.57545 0.0417849 0
M  V30 696 C 67.4645 -2.07483 -0.945247 0
M  V30 697 C 68.4485 -0.977983 -1.27767 0
M  V30 698 O 69.6405 -1.24142 -1.26166 0
M  V30 699 C 66.7695 -2.61576 -2.22335 0
M  V30 700 C 65.8555 -3.78213 -1.91874 0
M  V30 701 N 66.2465 -4.88344 -1.31733 0
M  V30 702 C 64.5445 -3.8694 -2.21796 0
M  V30 703 C 65.2455 -5.69462 -1.1869 0
M  V30 704 N 64.2215 -5.16771 -1.68666 0
M  V30 705 H 68.0235 -2.90029 -0.475441 0
M  V30 706 H 65.5375 -1.61581 -0.162911 0
M  V30 707 H 67.5345 -2.95651 -2.93932 0
M  V30 708 H 66.1945 -1.80465 -2.69931 0
M  V30 709 H 67.2055 -5.08335 -0.990729 0
M  V30 710 H 63.8825 -3.16757 -2.71977 0
M  V30 711 H 65.2725 -6.68023 -0.720793 0
M  V30 712 N 67.9926 0.231505 -1.5589 0
M  V30 713 C 68.9226 1.29022 -1.94617 0
M  V30 714 C 69.9036 1.4941 -0.813067 0
M  V30 715 O 71.0886 1.6176 -1.07459 0
M  V30 716 C 68.2186 2.64199 -2.25424 0
M  V30 717 C 67.1726 2.58484 -3.41131 0
M  V30 718 C 66.4986 3.97599 -3.57518 0
M  V30 719 C 67.7986 2.1413 -4.76388 0
M  V30 720 H 69.4926 0.968563 -2.83301 0
M  V30 721 H 67.0386 0.464479 -1.36303 0
M  V30 722 H 68.9916 3.38413 -2.51107 0
M  V30 723 H 67.7156 2.98032 -1.33583 0
M  V30 724 H 66.3746 1.86727 -3.15481 0
M  V30 725 H 66.0226 4.28723 -2.6307 0
M  V30 726 H 65.7226 3.94659 -4.35337 0
M  V30 727 H 67.2466 4.7349 -3.85538 0
M  V30 728 H 68.6606 2.78083 -5.01341 0
M  V30 729 H 67.0576 2.2227 -5.57419 0
M  V30 730 H 68.1276 1.09331 -4.72414 0
M  V30 731 N 69.4707 1.49531 0.497807 0
M  V30 732 C 70.7167 1.59415 1.25358 0
M  V30 733 C 71.0497 0.281422 1.9215 0
M  V30 734 O 70.3247 -0.715249 1.80871 0
M  V30 735 C 70.6077 2.75566 2.3181 0
M  V30 736 C 70.4607 4.16642 1.69498 0
M  V30 737 C 71.7797 2.87347 3.33346 0
M  V30 738 H 68.8987 0.580244 0.454408 0
M  V30 739 H 71.5407 1.81827 0.551262 0
M  V30 740 H 69.6907 2.56587 2.91711 0
M  V30 741 H 71.3627 4.47145 1.13399 0
M  V30 742 H 69.6057 4.22141 0.998978 0
M  V30 743 H 70.2767 4.93792 2.46725 0
M  V30 744 H 72.7527 3.04634 2.83438 0
M  V30 745 H 71.6287 3.70289 4.05188 0
M  V30 746 H 71.8897 1.96834 3.95865 0
M  V30 747 N 70.9488 -0.749086 1.3866 0
M  V30 748 C 71.9118 -1.84457 1.36045 0
M  V30 749 C 72.9118 -1.58682 0.260122 0
M  V30 750 O 74.1018 -1.66343 0.517261 0
M  V30 751 C 71.2338 -3.22008 1.11911 0
M  V30 752 H 72.4268 -1.88182 2.33512 0
M  V30 753 H 69.9798 -0.951266 1.24019 0
M  V30 754 H 70.7148 -3.2395 0.150686 0
M  V30 755 H 70.4998 -3.42111 1.91579 0
M  V30 756 H 71.9898 -4.0208 1.12788 0
M  V30 757 N 72.4269 -1.23603 -0.977757 0
M  V30 758 C 73.6759 -1.06377 -1.71368 0
M  V30 759 C 73.9889 0.399062 -1.91486 0
M  V30 760 O 75.1949 0.691312 -2.62551 0
M  V30 761 C 73.6509 -1.85512 -3.08404 0
M  V30 762 C 73.2589 -3.36141 -2.96164 0
M  V30 763 C 75.0029 -1.76783 -3.85938 0
M  V30 764 C 72.9099 -4.07659 -4.28449 0
M  V30 765 H 71.8399 -0.394452 -0.642591 0
M  V30 766 H 74.4909 -1.47594 -1.09034 0
M  V30 767 H 72.8729 -1.37103 -3.71509 0
M  V30 768 H 74.0469 -3.92056 -2.42133 0
M  V30 769 H 72.3619 -3.45712 -2.32104 0
M  V30 770 H 74.9589 -2.27526 -4.83876 0
M  V30 771 H 75.3019 -0.731116 -4.0983 0
M  V30 772 H 75.8349 -2.22818 -3.2954 0
M  V30 773 H 72.5739 -5.11648 -4.09752 0
M  V30 774 H 72.0939 -3.5653 -4.82334 0
M  V30 775 H 73.7729 -4.141 -4.97122 0
M  V30 776 N 73.905 1.17692 -1.04816 0
M  V30 777 C 74.837 2.21103 -0.603822 0
M  V30 778 C 75.85 1.59411 0.33046 0
M  V30 779 O 77.039 1.7807 0.12379 0
M  V30 780 C 74.139 3.38623 0.136898 0
M  V30 781 C 73.312 4.29888 -0.807137 0
M  V30 782 C 72.371 5.26088 -0.10836 0
M  V30 783 O 71.397 5.64353 -0.741232 0
M  V30 784 N 72.599 5.68882 1.15558 0
M  V30 785 H 75.364 2.59848 -1.49329 0
M  V30 786 H 72.925 1.32553 -0.929587 0
M  V30 787 H 74.917 4.00009 0.614401 0
M  V30 788 H 73.487 2.98508 0.927993 0
M  V30 789 H 72.707 3.65993 -1.46434 0
M  V30 790 H 73.995 4.87759 -1.44807 0
M  V30 791 H 73.393 5.39861 1.69015 0
M  V30 792 H 71.95 6.32429 1.57722 0
M  V30 793 N 75.3831 0.828654 1.34056 0
M  V30 794 C 76.3311 0.242973 2.31327 0
M  V30 795 C 77.3251 -0.61944 1.57668 0
M  V30 796 O 78.5311 -0.51014 1.7262 0
M  V30 797 H 74.9061 0.059834 0.749616 0
M  V30 798 H 76.8771 1.07809 2.78244 0
M  V30 799 C 75.6261 -0.575733 3.429 0
M  V30 800 H 74.9491 0.0785582 3.99723 0
M  V30 801 H 76.3891 -0.951547 4.13185 0
M  V30 802 C 74.8481 -1.75044 2.87856 0
M  V30 803 O 75.3781 -2.84882 2.83205 0
M  V30 804 N 73.5841 -1.56903 2.44602 0
M  V30 805 H 73.1311 -0.675547 2.48584 0
M  V30 806 H 73.0891 -2.35652 2.08124 0
M  V30 807 N 76.8612 -1.46375 0.584142 0
M  V30 808 C 77.8082 -2.30323 -0.148286 0
M  V30 809 C 78.7782 -1.40703 -0.882713 0
M  V30 810 O 79.9632 -1.69651 -0.873099 0
M  V30 811 C 77.1032 -3.25196 -1.15507 0
M  V30 812 C 76.2162 -4.29915 -0.423943 0
M  V30 813 C 75.3512 -5.11914 -1.41838 0
M  V30 814 C 74.3902 -6.08381 -0.673736 0
M  V30 815 N 73.5272 -6.83242 -1.6163 0
M  V30 816 H 78.3672 -2.92427 0.573644 0
M  V30 817 H 75.9042 -1.44118 0.294703 0
M  V30 818 H 77.8622 -3.78646 -1.75166 0
M  V30 819 H 76.4922 -2.64898 -1.8447 0
M  V30 820 H 75.5442 -3.7931 0.287714 0
M  V30 821 H 76.8562 -4.98549 0.158128 0
M  V30 822 H 76.0102 -5.69648 -2.08773 0
M  V30 823 H 74.7492 -4.43243 -2.03438 0
M  V30 824 H 73.7542 -5.49799 0.00938483 0
M  V30 825 H 74.9792 -6.79071 -0.0631082 0
M  V30 826 H 72.9252 -6.1728 -2.22038 0
M  V30 827 H 72.8422 -7.48144 -1.08707 0
M  V30 828 H 74.1102 -7.45534 -2.27596 0
M  V30 829 N 78.3393 -0.321999 -1.54275 0
M  V30 830 C 79.2493 0.553631 -2.27974 0
M  V30 831 C 80.2653 1.13054 -1.32268 0
M  V30 832 O 81.4413 1.15084 -1.6528 0
M  V30 833 C 78.5063 1.69927 -3.02201 0
M  V30 834 C 77.5673 1.15433 -4.1349 0
M  V30 835 C 76.8003 2.24537 -4.84168 0
M  V30 836 O 77.0233 3.44852 -4.5435 0
M  V30 837 O 75.9573 1.90044 -5.7111 0
M  V30 838 H 79.7833 -0.0448345 -3.03667 0
M  V30 839 H 77.3683 -0.0877418 -1.49142 0
M  V30 840 H 79.2503 2.3663 -3.48689 0
M  V30 841 H 77.9253 2.28395 -2.29385 0
M  V30 842 H 76.8323 0.452436 -3.71354 0
M  V30 843 H 78.1653 0.614805 -4.88345 0
M  V30 844 N 79.8174 1.5752 -0.0501392 0
M  V30 845 C 80.7274 2.14952 0.939827 0
M  V30 846 C 81.7434 1.10706 1.34239 0
M  V30 847 O 82.9194 1.42869 1.41952 0
M  V30 848 C 79.9844 2.68232 2.19665 0
M  V30 849 C 79.0454 3.87272 1.85253 0
M  V30 850 C 78.2784 4.38002 3.04943 0
M  V30 851 O 78.5014 3.87811 4.18281 0
M  V30 852 O 77.4354 5.29602 2.86017 0
M  V30 853 H 81.2614 2.9986 0.481392 0
M  V30 854 H 78.8464 1.4841 0.171699 0
M  V30 855 H 80.7284 3.02475 2.93406 0
M  V30 856 H 79.4034 1.86395 2.64648 0
M  V30 857 H 78.3104 3.5792 1.0883 0
M  V30 858 H 79.6434 4.70336 1.4507 0
M  V30 859 N 81.2955 -0.223234 1.56011 0
M  V30 860 C 82.5445 -0.945912 1.78144 0
M  V30 861 C 82.8575 -1.85567 0.618396 0
M  V30 862 O 84.0635 -2.61688 0.723318 0
M  V30 863 C 82.5195 -1.73216 3.15475 0
M  V30 864 C 82.1275 -0.868619 4.39499 0
M  V30 865 C 83.8715 -2.44615 3.46935 0
M  V30 866 C 81.7785 -1.65212 5.67855 0
M  V30 867 H 80.7085 -0.356929 0.664167 0
M  V30 868 H 83.3595 -0.199845 1.82409 0
M  V30 869 H 81.7415 -2.52107 3.05382 0
M  V30 870 H 82.9155 -0.120366 4.60643 0
M  V30 871 H 81.2305 -0.26683 4.15544 0
M  V30 872 H 83.8275 -3.03732 4.40058 0
M  V30 873 H 84.1705 -3.17417 2.69355 0
M  V30 874 H 84.7035 -1.72715 3.58349 0
M  V30 875 H 81.4425 -0.967407 6.48322 0
M  V30 876 H 80.9625 -2.37503 5.50774 0
M  V30 877 H 82.6415 -2.21322 6.07968 0
M  V30 878 N 82.7736 -1.49793 -0.48987 0
M  V30 879 C 83.6836 -1.70036 -1.61632 0
M  V30 880 C 84.6996 -0.583102 -1.63939 0
M  V30 881 O 85.8756 -0.859169 -1.82154 0
M  V30 882 C 82.9406 -1.77277 -2.97949 0
M  V30 883 C 82.0016 -3.00918 -3.06181 0
M  V30 884 C 81.2346 -3.07804 -4.35996 0
M  V30 885 O 81.4576 -2.21982 -5.25433 0
M  V30 886 O 80.3916 -4.00369 -4.49431 0
M  V30 887 H 84.2176 -2.65486 -1.47482 0
M  V30 888 H 81.8026 -1.33666 -0.667362 0
M  V30 889 H 83.6846 -1.84329 -3.78947 0
M  V30 890 H 82.3596 -0.850076 -3.12339 0
M  V30 891 H 81.2666 -2.99377 -2.2433 0
M  V30 892 H 82.5996 -3.92704 -2.96723 0
M  V30 893 N 84.2517 0.741722 -1.39055 0
M  V30 894 C 85.4817 1.52876 -1.3897 0
M  V30 895 C 85.8897 1.8919 0.0193266 0
M  V30 896 O 85.2327 1.54138 0.999356 0
M  V30 897 C 85.2947 2.84929 -2.19216 0
M  V30 898 C 84.9587 2.71086 -3.67915 0
M  V30 899 C 85.9557 2.40084 -4.61146 0
M  V30 900 C 83.6407 2.88168 -4.11418 0
M  V30 901 C 85.6347 2.26335 -5.95862 0
M  V30 902 C 83.3217 2.74037 -5.46211 0
M  V30 903 C 84.3197 2.43166 -6.38247 0
M  V30 904 O 84.0077 2.29115 -7.70559 0
M  V30 905 H 83.7397 0.479252 -0.476753 0
M  V30 906 H 86.2937 0.924751 -1.83405 0
M  V30 907 H 84.5237 3.47564 -1.69518 0
M  V30 908 H 86.2127 3.46509 -2.11392 0
M  V30 909 H 86.9787 2.26545 -4.28838 0
M  V30 910 H 82.8577 3.11191 -3.40119 0
M  V30 911 H 86.4017 2.0216 -6.67665 0
M  V30 912 H 82.2987 2.87153 -5.78112 0
M  V30 913 H 83.0667 2.44237 -7.81211 0
M  V30 914 N 85.7298 1.2412 0.971189 0
M  V30 915 C 86.6598 1.05508 2.08304 0
M  V30 916 C 87.6408 -0.0308864 1.70072 0
M  V30 917 O 88.8258 0.135521 1.93727 0
M  V30 918 C 85.9558 0.655365 3.4106 0
M  V30 919 C 84.9098 1.68971 3.93234 0
M  V30 920 C 84.2358 1.14516 5.22293 0
M  V30 921 C 85.5358 3.08487 4.21465 0
M  V30 922 H 87.2298 1.98507 2.24132 0
M  V30 923 H 84.7758 0.955821 1.07704 0
M  V30 924 H 86.7288 0.51217 4.18276 0
M  V30 925 H 85.4528 -0.31032 3.25122 0
M  V30 926 H 84.1118 1.82106 3.18171 0
M  V30 927 H 83.7598 0.170189 5.02712 0
M  V30 928 H 83.4598 1.83635 5.58168 0
M  V30 929 H 84.9838 1.01401 6.02121 0
M  V30 930 H 86.3978 2.98601 4.89398 0
M  V30 931 H 84.7948 3.74926 4.68562 0
M  V30 932 H 85.8648 3.56787 3.28376 0
M  V30 933 N 87.2079 -1.17134 1.05439 0
M  V30 934 C 88.1559 -2.23289 0.651511 0
M  V30 935 C 89.1499 -1.66186 -0.328411 0
M  V30 936 O 90.3559 -1.78949 -0.194206 0
M  V30 937 H 86.7309 -0.726938 0.192523 0
M  V30 938 H 88.7019 -2.54565 1.55689 0
M  V30 939 C 87.4509 -3.47671 0.0448436 0
M  V30 940 H 86.7739 -3.91918 0.78996 0
M  V30 941 H 88.2139 -4.2353 -0.19964 0
M  V30 942 C 86.6729 -3.14453 -1.20918 0
M  V30 943 O 87.2029 -3.29459 -2.29825 0
M  V30 944 N 85.4089 -2.68657 -1.10779 0
M  V30 945 H 84.9559 -2.56646 -0.221526 0
M  V30 946 H 84.9139 -2.46804 -1.9477 0
M  V30 947 N 88.686 -0.835752 -1.33615 0
M  V30 948 C 89.911 -0.442389 -2.02627 0
M  V30 949 C 90.336 0.947735 -1.62479 0
M  V30 950 O 89.694 1.61907 -0.815826 0
M  V30 951 C 89.742 -0.567216 -3.56111 0
M  V30 952 O 88.846 0.407799 -4.10379 0
M  V30 953 H 88.187 -0.180278 -0.639059 0
M  V30 954 H 90.717 -1.12972 -1.70583 0
M  V30 955 H 90.727 -0.447708 -4.05536 0
M  V30 956 H 89.402 -1.58103 -3.84677 0
M  V30 957 H 87.979 0.246107 -3.72087 0
M  V30 958 N 90.1641 1.46063 -0.591896 0
M  V30 959 C 91.4131 2.01547 -0.0786637 0
M  V30 960 C 91.7261 1.46796 1.29268 0
M  V30 961 O 92.9321 1.94157 1.89777 0
M  V30 962 C 91.3881 3.59787 -0.0900024 0
M  V30 963 C 90.9961 4.23534 -1.46023 0
M  V30 964 C 92.7401 4.22895 0.368806 0
M  V30 965 C 90.6471 5.73881 -1.4288 0
M  V30 966 H 89.5771 0.753564 -0.0256388 0
M  V30 967 H 92.2281 1.677 -0.744905 0
M  V30 968 H 90.6101 3.90752 0.642586 0
M  V30 969 H 91.7841 4.04167 -2.21328 0
M  V30 970 H 90.0991 3.72558 -1.85982 0
M  V30 971 H 92.6961 5.33116 0.411258 0
M  V30 972 H 93.0391 3.9247 1.38827 0
M  V30 973 H 93.5721 3.9659 -0.31001 0
M  V30 974 H 90.3111 6.0898 -2.42536 0
M  V30 975 H 89.8311 5.95486 -0.718095 0
M  V30 976 H 91.5101 6.36776 -1.14565 0
M  V30 977 N 91.6422 0.330177 1.54103 0
M  V30 978 C 92.5722 -0.525353 2.27513 0
M  V30 979 C 93.5532 -1.11383 1.2856 0
M  V30 980 O 94.7382 -1.13773 1.57383 0
M  V30 981 C 91.8682 -1.6831 3.03791 0
M  V30 982 C 90.8222 -1.2236 4.10137 0
M  V30 983 C 90.1482 -2.46882 4.74293 0
M  V30 984 C 91.4482 -0.333697 5.21233 0
M  V30 985 H 93.1422 0.087013 2.99274 0
M  V30 986 H 90.6882 0.0432893 1.43935 0
M  V30 987 H 92.6412 -2.28795 3.5388 0
M  V30 988 H 91.3652 -2.32216 2.29659 0
M  V30 989 H 90.0242 -0.64165 3.60941 0
M  V30 990 H 89.6722 -3.09165 3.96769 0
M  V30 991 H 89.3722 -2.16825 5.46133 0
M  V30 992 H 90.8962 -3.08117 5.27159 0
M  V30 993 H 92.3102 -0.845013 5.67038 0
M  V30 994 H 90.7072 -0.125612 5.99969 0
M  V30 995 H 91.7772 0.633724 4.80741 0
M  V30 996 N 93.1203 -1.57491 0.0584922 0
M  V30 997 C 94.3453 -1.97711 -0.62652 0
M  V30 998 C 94.7703 -0.936132 -1.63151 0
M  V30 999 O 94.1283 0.099811 -1.81025 0
M  V30 1000 C 94.1763 -3.36989 -1.28338 0
M  V30 1001 O 93.2803 -3.35433 -2.39913 0
M  V30 1002 H 92.6213 -0.643868 -0.162266 0
M  V30 1003 H 95.1513 -2.04193 0.129064 0
M  V30 1004 H 95.1613 -3.73879 -1.63335 0
M  V30 1005 H 93.8363 -4.12289 -0.546889 0
M  V30 1006 H 92.4133 -3.10298 -2.06809 0
M  V30 1007 N 94.5984 0.214957 -1.56127 0
M  V30 1008 C 95.8284 0.953707 -1.8327 0
M  V30 1009 C 96.2364 1.78181 -0.636262 0
M  V30 1010 O 95.5794 1.79191 0.404516 0
M  V30 1011 C 95.6414 1.91516 -3.0424 0
M  V30 1012 C 95.3054 1.27094 -4.38972 0
M  V30 1013 C 96.3024 0.657575 -5.15725 0
M  V30 1014 C 93.9874 1.28073 -4.85698 0
M  V30 1015 C 95.9814 0.0625968 -6.37369 0
M  V30 1016 C 93.6684 0.681914 -6.07283 0
M  V30 1017 C 94.6664 0.0739046 -6.8296 0
M  V30 1018 O 94.3544 -0.515582 -8.02245 0
M  V30 1019 H 94.0864 0.284764 -0.613095 0
M  V30 1020 H 96.6404 0.233283 -2.04071 0
M  V30 1021 H 94.8704 2.67475 -2.79274 0
M  V30 1022 H 96.5594 2.52001 -3.18198 0
M  V30 1023 H 97.3254 0.642288 -4.80728 0
M  V30 1024 H 93.2044 1.74337 -4.26764 0
M  V30 1025 H 96.7484 -0.412593 -6.96379 0
M  V30 1026 H 92.6454 0.694636 -6.41752 0
M  V30 1027 H 93.4134 -0.410544 -8.1747 0
M  V30 1028 N 96.0765 1.50051 0.48192 0
M  V30 1029 C 97.3015 1.64508 1.26301 0
M  V30 1030 C 97.7265 0.323851 1.85291 0
M  V30 1031 O 97.0845 -0.710969 1.66778 0
M  V30 1032 C 97.1325 2.7305 2.35533 0
M  V30 1033 O 96.2365 2.3355 3.39895 0
M  V30 1034 H 95.5775 0.549978 0.372048 0
M  V30 1035 H 98.1075 1.9636 0.574786 0
M  V30 1036 H 98.1175 2.95799 2.8101 0
M  V30 1037 H 96.7925 3.68946 1.91967 0
M  V30 1038 H 95.3695 2.21205 3.00204 0
M  V30 1039 N 97.5546 -0.734337 1.39446 0
M  V30 1040 C 98.9656 -1.31264 1.32766 0
M  V30 1041 C 99.3166 -1.96198 -0.00767497 0
M  V30 1042 O 98.4416 -1.96346 -0.909796 0
M  V30 1043 C 99.0366 -2.38682 2.4045 0
M  V30 1044 C 97.5956 -2.92184 2.37288 0
M  V30 1045 C 96.7426 -1.6576 2.22304 0
M  V30 1046 H 99.6936 -0.531799 1.49525 0
M  V30 1047 H 99.7146 -3.19087 2.07276 0
M  V30 1048 H 99.2266 -1.91392 3.37625 0
M  V30 1049 H 97.3276 -3.43752 1.43754 0
M  V30 1050 H 97.4406 -3.45253 3.3217 0
M  V30 1051 H 95.8046 -1.9012 1.69489 0
M  V30 1052 H 96.5876 -1.20521 3.21449 0
M  V30 1053 N 99.0327 -1.24633 -0.964593 0
M  V30 1054 C 100.258 -1.11596 -1.74818 0
M  V30 1055 C 100.683 0.32723 -1.85232 0
M  V30 1056 O 100.041 1.23695 -1.32549 0
M  V30 1057 C 100.089 -1.76397 -3.1451 0
M  V30 1058 O 99.1927 -1.03685 -3.99153 0
M  V30 1059 H 98.5337 -0.390196 -0.537255 0
M  V30 1060 H 101.064 -1.65002 -1.20977 0
M  V30 1061 H 101.074 -1.8228 -3.65018 0
M  V30 1062 H 99.7487 -2.81401 -3.06246 0
M  V30 1063 H 98.3257 -1.05611 -3.57632 0
M  V30 1064 N 100.511 1.16574 -1.06058 0
M  V30 1065 C 101.741 1.90675 -0.795397 0
M  V30 1066 C 102.149 1.77547 0.653735 0
M  V30 1067 O 101.492 1.11611 1.45907 0
M  V30 1068 C 101.554 3.42011 -1.10764 0
M  V30 1069 C 101.218 3.78924 -2.55471 0
M  V30 1070 C 102.215 3.81042 -3.53699 0
M  V30 1071 C 99.8998 4.09626 -2.90708 0
M  V30 1072 C 101.894 4.13346 -4.85205 0
M  V30 1073 C 99.5808 4.41597 -4.22416 0
M  V30 1074 C 100.579 4.43436 -5.19474 0
M  V30 1075 O 100.267 4.74649 -6.48817 0
M  V30 1076 H 99.9988 0.611554 -0.288058 0
M  V30 1077 H 102.553 1.48711 -1.41683 0
M  V30 1078 H 100.783 3.84312 -0.429128 0
M  V30 1079 H 102.472 3.97384 -0.827077 0
M  V30 1080 H 103.238 3.57437 -3.27817 0
M  V30 1081 H 99.1168 4.07361 -2.15819 0
M  V30 1082 H 102.661 4.14696 -5.60957 0
M  V30 1083 H 98.5578 4.64667 -4.48056 0
M  V30 1084 H 99.3258 4.9247 -6.5377 0
M  V30 1085 N 101.989 0.842826 1.3317 0
M  V30 1086 C 103.219 0.453397 2.01564 0
M  V30 1087 C 103.627 -0.951147 1.63554 0
M  V30 1088 O 102.97 -1.63021 0.846746 0
M  V30 1089 C 103.032 0.499013 3.5602 0
M  V30 1090 C 102.696 1.86037 4.1742 0
M  V30 1091 C 103.693 2.82416 4.36506 0
M  V30 1092 C 101.378 2.15428 4.53757 0
M  V30 1093 C 103.372 4.06346 4.91082 0
M  V30 1094 C 101.059 3.39615 5.0804 0
M  V30 1095 C 102.057 4.3489 5.26649 0
M  V30 1096 O 101.745 5.5688 5.79776 0
M  V30 1097 H 101.477 0.177871 0.652179 0
M  V30 1098 H 104.031 1.13808 1.70988 0
M  V30 1099 H 102.261 -0.242467 3.85939 0
M  V30 1100 H 103.95 0.126852 4.05702 0
M  V30 1101 H 104.716 2.6101 4.08777 0
M  V30 1102 H 100.595 1.42061 4.38565 0
M  V30 1103 H 104.139 4.80722 5.05522 0
M  V30 1104 H 100.036 3.60876 5.352 0
M  V30 1105 H 100.804 5.58674 5.98185 0
M  V30 1106 N 103.467 -1.45747 0.599634 0
M  V30 1107 C 104.713 -2.03153 0.100263 0
M  V30 1108 C 105.068 -1.46073 -1.25221 0
M  V30 1109 O 104.361 -0.622878 -1.81193 0
M  V30 1110 C 104.555 -3.57399 -0.00602758 0
M  V30 1111 C 104.384 -4.2944 1.3346 0
M  V30 1112 C 103.154 -4.6768 1.91321 0
M  V30 1113 C 105.352 -4.61905 2.2616 0
M  V30 1114 N 103.334 -5.24544 3.18946 0
M  V30 1115 C 104.705 -5.19518 3.3838 0
M  V30 1116 C 106.76 -4.43841 2.25631 0
M  V30 1117 C 105.463 -5.60972 4.50226 0
M  V30 1118 C 107.489 -4.86322 3.36518 0
M  V30 1119 C 106.851 -5.44021 4.4746 0
M  V30 1120 H 102.95 -0.777911 0.0798696 0
M  V30 1121 H 105.534 -1.77674 0.796244 0
M  V30 1122 H 103.705 -3.82556 -0.671212 0
M  V30 1123 H 105.437 -4.01457 -0.51133 0
M  V30 1124 H 102.192 -4.5098 1.44617 0
M  V30 1125 H 102.616 -5.57483 3.84112 0
M  V30 1126 H 107.258 -3.98552 1.41123 0
M  V30 1127 H 104.976 -6.0523 5.35464 0
M  V30 1128 H 108.562 -4.74084 3.37247 0
M  V30 1129 H 107.442 -5.76289 5.31846 0
M  V30 1130 N 104.945 -0.338344 -1.53925 0
M  V30 1131 C 106.194 0.260732 -2.00008 0
M  V30 1132 C 106.507 1.52073 -1.23017 0
M  V30 1133 O 107.713 2.19672 -1.5955 0
M  V30 1134 C 106.169 0.51515 -3.56194 0
M  V30 1135 C 105.777 -0.728645 -4.42035 0
M  V30 1136 C 107.521 1.07337 -4.10706 0
M  V30 1137 C 105.428 -0.445315 -5.89721 0
M  V30 1138 H 104.358 0.101205 -0.747177 0
M  V30 1139 H 107.009 -0.452866 -1.77824 0
M  V30 1140 H 105.391 1.28932 -3.74423 0
M  V30 1141 H 106.565 -1.50352 -4.35581 0
M  V30 1142 H 104.88 -1.20813 -3.98489 0
M  V30 1143 H 107.477 1.30022 -5.18651 0
M  V30 1144 H 107.82 2.0273 -3.63602 0
M  V30 1145 H 108.353 0.360034 -3.96167 0
M  V30 1146 H 105.092 -1.36883 -6.41049 0
M  V30 1147 H 104.612 0.291569 -5.99091 0
M  V30 1148 H 106.291 -0.0606218 -6.46972 0
M  V30 1149 N 106.423 1.57458 -0.0668435 0
M  V30 1150 C 107.671 1.92919 0.602214 0
M  V30 1151 C 107.992 0.947215 1.70449 0
M  V30 1152 O 107.262 -0.00544117 1.95899 0
M  V30 1153 H 105.842 0.71217 0.22544 0
M  V30 1154 H 108.504 1.94508 -0.123535 0
M  V30 1155 H 107.6 2.94589 1.03073 0
M  V30 1156 N 107.901 -0.206675 1.56239 0
M  V30 1157 C 109.15 -0.926964 1.79138 0
M  V30 1158 C 109.463 -1.84901 0.638043 0
M  V30 1159 O 110.669 -2.60906 0.751033 0
M  V30 1160 C 109.125 -1.6986 3.17294 0
M  V30 1161 C 108.733 -0.821956 4.40395 0
M  V30 1162 C 110.477 -2.40922 3.4951 0
M  V30 1163 C 108.384 -1.59179 5.69575 0
M  V30 1164 H 107.314 -0.349864 0.667915 0
M  V30 1165 H 109.965 -0.180487 1.8261 0
M  V30 1166 H 108.347 -2.48853 3.08039 0
M  V30 1167 H 109.521 -0.0715019 4.60745 0
M  V30 1168 H 107.836 -0.222741 4.15804 0
M  V30 1169 H 110.433 -2.99047 4.43255 0
M  V30 1170 H 110.776 -3.14542 2.72707 0
M  V30 1171 H 111.309 -1.68905 3.60161 0
M  V30 1172 H 108.048 -0.898589 6.49312 0
M  V30 1173 H 107.568 -2.31648 5.53262 0
M  V30 1174 H 109.247 -2.14862 6.10281 0
M  V30 1175 N 109.379 -1.50304 -0.473955 0
M  V30 1176 C 110.795 -1.37667 -0.807466 0
M  V30 1177 C 110.995 -0.430555 -1.96846 0
M  V30 1178 O 110.051 0.127874 -2.52176 0
M  V30 1179 C 111.364 -2.78974 -1.12223 0
M  V30 1180 C 112.912 -2.87868 -1.22885 0
M  V30 1181 C 113.387 -4.30003 -1.57676 0
M  V30 1182 N 114.878 -4.3294 -1.64673 0
M  V30 1183 C 115.613 -5.3991 -1.93091 0
M  V30 1184 N 115.109 -6.57092 -2.1955 0
M  V30 1185 N 116.902 -5.27351 -1.94569 0
M  V30 1186 H 109.053 -2.10394 0.291212 0
M  V30 1187 H 111.316 -0.945575 0.0677609 0
M  V30 1188 H 111.022 -3.50031 -0.342229 0
M  V30 1189 H 110.896 -3.16038 -2.05913 0
M  V30 1190 H 113.283 -2.17032 -1.99953 0
M  V30 1191 H 113.364 -2.54352 -0.271814 0
M  V30 1192 H 113.008 -5.01375 -0.81149 0
M  V30 1193 H 112.938 -4.61004 -2.54525 0
M  V30 1194 H 115.429 -3.48441 -1.46277 0
M  V30 1195 H 115.742 -7.34425 -2.405 0
M  V30 1196 H 114.087 -6.60272 -2.16948 0
M  V30 1197 H 117.278 -4.34801 -1.73394 0
M  V30 1198 H 117.451 -6.10805 -2.16381 0
M  V30 1199 N 110.857 0.726932 -1.39834 0
M  V30 1200 C 111.804 1.841 -1.39197 0
M  V30 1201 C 112.774 1.642 -0.250502 0
M  V30 1202 O 113.959 1.85494 -0.446846 0
M  V30 1203 C 111.099 3.21697 -1.24919 0
M  V30 1204 C 110.212 3.53247 -2.48678 0
M  V30 1205 C 109.347 4.80289 -2.26928 0
M  V30 1206 C 108.386 5.04707 -3.4632 0
M  V30 1207 N 107.523 6.22956 -3.23836 0
M  V30 1208 H 112.363 1.83979 -2.34427 0
M  V30 1209 H 109.9 0.898876 -1.16442 0
M  V30 1210 H 111.858 4.01137 -1.1465 0
M  V30 1211 H 110.488 3.21076 -0.333153 0
M  V30 1212 H 109.54 2.68447 -2.69519 0
M  V30 1213 H 110.852 3.67205 -3.37582 0
M  V30 1214 H 110.006 5.67725 -2.13947 0
M  V30 1215 H 108.745 4.68519 -1.35431 0
M  V30 1216 H 107.75 4.1573 -3.5979 0
M  V30 1217 H 108.975 5.18357 -4.38729 0
M  V30 1218 H 106.921 6.12459 -2.35011 0
M  V30 1219 H 106.838 6.37539 -4.063 0
M  V30 1220 H 108.106 7.1321 -3.14566 0
M  V30 1221 N 112.336 1.25143 0.95797 0
M  V30 1222 C 113.582 1.09855 1.70469 0
M  V30 1223 C 113.915 -0.360187 1.90831 0
M  V30 1224 O 113.19 -1.26568 1.47685 0
M  V30 1225 C 113.473 1.8497 3.08963 0
M  V30 1226 C 113.326 3.38652 2.96032 0
M  V30 1227 C 114.645 1.63016 4.08795 0
M  V30 1228 H 111.764 0.400465 0.618706 0
M  V30 1229 H 114.406 1.53933 1.11376 0
M  V30 1230 H 112.556 1.47505 3.59409 0
M  V30 1231 H 114.228 3.85772 2.52938 0
M  V30 1232 H 112.471 3.66534 2.32025 0
M  V30 1233 H 113.142 3.8642 3.94187 0
M  V30 1234 H 115.618 1.95625 3.67247 0
M  V30 1235 H 114.494 2.18015 5.03747 0
M  V30 1236 H 114.755 0.570692 4.38401 0
M  V30 1237 N 113.814 -1.1601 1.06675 0
M  V30 1238 C 114.762 -2.22586 0.675157 0
M  V30 1239 C 115.756 -1.66525 -0.310766 0
M  V30 1240 O 116.962 -1.79145 -0.175215 0
M  V30 1241 H 113.337 -0.724855 0.200223 0
M  V30 1242 H 115.308 -2.52899 1.58381 0
M  V30 1243 C 114.057 -3.47604 0.0817162 0
M  V30 1244 H 113.38 -3.91058 0.831484 0
M  V30 1245 H 114.82 -4.23718 -0.154708 0
M  V30 1246 C 113.279 -3.15718 -1.17576 0
M  V30 1247 O 113.809 -3.31878 -2.26318 0
M  V30 1248 N 112.015 -2.69816 -1.07923 0
M  V30 1249 H 111.562 -2.56866 -0.194293 0
M  V30 1250 H 111.52 -2.48855 -1.92141 0
M  V30 1251 N 115.292 -0.849877 -1.32721 0
M  V30 1252 C 116.24 -0.279745 -2.30912 0
M  V30 1253 C 117.234 0.594278 -1.58634 0
M  V30 1254 O 118.44 0.482613 -1.73409 0
M  V30 1255 H 114.815 -0.0717521 -0.748569 0
M  V30 1256 H 116.786 -1.12222 -2.76494 0
M  V30 1257 C 115.535 0.521108 -3.43773 0
M  V30 1258 H 114.858 -0.142141 -3.99547 0
M  V30 1259 H 116.298 0.885693 -4.14646 0
M  V30 1260 C 114.757 1.70442 -2.90605 0
M  V30 1261 O 115.287 2.8034 -2.87702 0
M  V30 1262 N 113.493 1.52991 -2.47067 0
M  V30 1263 H 113.04 0.635914 -2.49628 0
M  V30 1264 H 112.998 2.32311 -2.11847 0
M  V30 1265 N 116.77 1.45427 -0.607355 0
M  V30 1266 C 118.016 2.0254 -0.102607 0
M  V30 1267 C 118.349 1.47478 1.26348 0
M  V30 1268 O 117.624 0.64939 1.83339 0
M  V30 1269 C 117.907 3.60044 -0.0634347 0
M  V30 1270 C 117.76 4.2544 -1.46017 0
M  V30 1271 C 119.079 4.35646 0.624514 0
M  V30 1272 H 116.198 0.73598 -0.0387607 0
M  V30 1273 H 118.84 1.73284 -0.779282 0
M  V30 1274 H 116.99 3.85101 0.512808 0
M  V30 1275 H 118.662 4.11569 -2.08347 0
M  V30 1276 H 116.905 3.83849 -2.02094 0
M  V30 1277 H 117.576 5.34342 -1.385 0
M  V30 1278 H 120.052 4.15882 0.134723 0
M  V30 1279 H 118.928 5.45376 0.621028 0
M  V30 1280 H 119.189 4.08501 1.69055 0
M  V30 1281 N 118.248 0.346503 1.53744 0
M  V30 1282 C 119.494 -0.242135 2.01954 0
M  V30 1283 C 119.849 -1.47962 1.22984 0
M  V30 1284 O 119.142 -1.89077 0.309924 0
M  V30 1285 C 119.336 -0.605809 3.52228 0
M  V30 1286 C 119.165 0.594882 4.45748 0
M  V30 1287 C 117.935 1.1011 4.93157 0
M  V30 1288 C 120.133 1.45425 4.93311 0
M  V30 1289 N 118.115 2.26381 5.70636 0
M  V30 1290 C 119.486 2.46383 5.68942 0
M  V30 1291 C 121.541 1.47935 4.75415 0
M  V30 1292 C 120.244 3.49684 6.28581 0
M  V30 1293 C 122.27 2.50119 5.35905 0
M  V30 1294 C 121.632 3.49803 6.11406 0
M  V30 1295 H 117.731 -0.0518296 0.780281 0
M  V30 1296 H 120.315 0.486736 1.88518 0
M  V30 1297 H 118.486 -1.30378 3.65864 0
M  V30 1298 H 120.218 -1.17789 3.87179 0
M  V30 1299 H 116.973 0.668721 4.68855 0
M  V30 1300 H 117.397 2.85094 6.14044 0
M  V30 1301 H 122.039 0.722274 4.16585 0
M  V30 1302 H 119.757 4.26285 6.86518 0
M  V30 1303 H 123.343 2.52892 5.23963 0
M  V30 1304 H 122.223 4.27576 6.5738 0
M  V30 1305 N 119.726 -1.57421 0.075193 0
M  V30 1306 C 120.972 -1.93905 -0.594025 0
M  V30 1307 C 121.305 -0.955701 -1.69056 0
M  V30 1308 O 120.58 0.0145373 -1.94495 0
M  V30 1309 C 120.863 -3.40638 -1.1678 0
M  V30 1310 C 120.716 -4.49733 -0.0776792 0
M  V30 1311 C 122.035 -3.88259 -2.07228 0
M  V30 1312 H 119.154 -0.705105 -0.214466 0
M  V30 1313 H 121.796 -1.8947 0.141854 0
M  V30 1314 H 119.946 -3.44549 -1.79494 0
M  V30 1315 H 121.618 -4.57942 0.555573 0
M  V30 1316 H 119.861 -4.29751 0.591286 0
M  V30 1317 H 120.532 -5.49549 -0.519603 0
M  V30 1318 H 123.008 -3.86376 -1.54445 0
M  V30 1319 H 121.884 -4.91533 -2.44308 0
M  V30 1320 H 122.145 -3.26396 -2.98191 0
M  V30 1321 N 121.204 0.198386 -1.56346 0
M  V30 1322 C 122.45 0.916115 -1.81601 0
M  V30 1323 C 122.805 1.81025 -0.651744 0
M  V30 1324 O 122.098 1.88316 0.353229 0
M  V30 1325 C 122.292 1.77031 -3.10475 0
M  V30 1326 C 122.121 0.960365 -4.39326 0
M  V30 1327 C 120.891 0.646093 -5.01152 0
M  V30 1328 C 123.089 0.314628 -5.13337 0
M  V30 1329 N 121.071 -0.182828 -6.13628 0
M  V30 1330 C 122.442 -0.37664 -6.18855 0
M  V30 1331 C 124.497 0.230019 -4.97368 0
M  V30 1332 C 123.2 -1.14445 -7.10137 0
M  V30 1333 C 125.226 -0.524389 -5.89071 0
M  V30 1334 C 124.588 -1.20412 -6.94032 0
M  V30 1335 H 120.687 0.314732 -0.715868 0
M  V30 1336 H 123.271 0.185102 -1.93818 0
M  V30 1337 H 121.442 2.47295 -2.99499 0
M  V30 1338 H 123.174 2.42727 -3.2383 0
M  V30 1339 H 119.929 0.969724 -4.63566 0
M  V30 1340 H 120.353 -0.586802 -6.74452 0
M  V30 1341 H 124.995 0.741184 -4.16253 0
M  V30 1342 H 122.713 -1.66706 -7.90718 0
M  V30 1343 H 126.299 -0.591167 -5.78789 0
M  V30 1344 H 125.179 -1.77853 -7.63766 0
M  V30 1345 N 122.682 1.50554 0.465978 0
M  V30 1346 C 123.928 1.62038 1.21949 0
M  V30 1347 C 124.261 0.322116 1.9151 0
M  V30 1348 O 123.536 -0.676723 1.82348 0
M  V30 1349 C 123.819 2.80421 2.25912 0
M  V30 1350 C 123.672 4.20144 1.60622 0
M  V30 1351 C 124.991 2.94354 3.27176 0
M  V30 1352 H 122.11 0.589752 0.441998 0
M  V30 1353 H 124.752 1.82956 0.51257 0
M  V30 1354 H 122.902 2.62717 2.86203 0
M  V30 1355 H 124.574 4.49449 1.03889 0
M  V30 1356 H 122.817 4.24165 0.909211 0
M  V30 1357 H 123.488 4.98914 2.36196 0
M  V30 1358 H 125.964 3.10578 2.76913 0
M  V30 1359 H 124.84 3.788 3.97242 0
M  V30 1360 H 125.101 2.05186 3.916 0
M  V30 1361 N 124.16 -0.719506 1.40217 0
M  V30 1362 C 125.408 -1.47641 1.3801 0
M  V30 1363 C 125.729 -1.94992 -0.018145 0
M  V30 1364 O 124.999 -1.70073 -0.972207 0
M  V30 1365 H 123.579 -0.547744 0.507923 0
M  V30 1366 H 126.241 -0.853187 1.75233 0
M  V30 1367 H 125.337 -2.35112 2.05253 0
M  V30 1368 N 125.638 -1.25649 -0.95132 0
M  V30 1369 C 126.866 -1.13343 -1.73092 0
M  V30 1370 C 127.281 0.312434 -1.86197 0
M  V30 1371 O 126.638 1.21465 -1.36207 0
M  V30 1372 C 126.689 -1.78602 -3.14299 0
M  V30 1373 O 126.41 -3.17537 -3.01831 0
M  V30 1374 C 127.911 -1.72119 -4.08522 0
M  V30 1375 H 125.131 -0.395181 -0.542285 0
M  V30 1376 H 127.675 -1.66076 -1.19328 0
M  V30 1377 H 125.83 -1.29832 -3.64996 0
M  V30 1378 H 126.244 -3.49676 -3.90931 0
M  V30 1379 H 127.718 -2.22435 -5.052 0
M  V30 1380 H 128.195 -0.685635 -4.33815 0
M  V30 1381 H 128.801 -2.20393 -3.63741 0
M  V30 1382 N 127.117 1.15442 -1.07289 0
M  V30 1383 C 128.049 2.19773 -0.650585 0
M  V30 1384 C 129.062 1.60076 0.296572 0
M  V30 1385 O 130.251 1.78293 0.0859905 0
M  V30 1386 C 127.351 3.38838 0.0650398 0
M  V30 1387 C 126.524 4.2808 -0.898141 0
M  V30 1388 C 125.583 5.2574 -0.219926 0
M  V30 1389 O 124.609 5.62654 -0.860773 0
M  V30 1390 N 125.811 5.71205 1.03466 0
M  V30 1391 H 128.576 2.56622 -1.54808 0
M  V30 1392 H 126.137 1.30551 -0.957494 0
M  V30 1393 H 128.129 4.01222 0.529415 0
M  V30 1394 H 126.699 3.00409 0.864466 0
M  V30 1395 H 125.919 3.62804 -1.54165 0
M  V30 1396 H 127.207 4.84577 -1.5512 0
M  V30 1397 H 126.605 5.43325 1.57526 0
M  V30 1398 H 125.162 6.35633 1.44272 0
M  V30 1399 N 128.595 0.856903 1.32268 0
M  V30 1400 C 129.542 0.301172 2.28827 0
M  V30 1401 C 130.512 -0.593104 1.5515 0
M  V30 1402 O 131.697 -0.527537 1.83362 0
M  V30 1403 C 128.837 -0.502523 3.41422 0
M  V30 1404 C 127.95 0.417797 4.29975 0
M  V30 1405 C 127.085 -0.398749 5.29701 0
M  V30 1406 C 126.124 0.518827 6.09897 0
M  V30 1407 N 125.261 -0.260674 7.01616 0
M  V30 1408 H 130.101 1.12983 2.75751 0
M  V30 1409 H 127.638 0.568582 1.35667 0
M  V30 1410 H 129.596 -0.984141 4.05426 0
M  V30 1411 H 128.226 -1.29599 2.95642 0
M  V30 1412 H 127.278 1.01781 3.66531 0
M  V30 1413 H 128.59 1.12191 4.86019 0
M  V30 1414 H 127.744 -0.943435 5.9932 0
M  V30 1415 H 126.483 -1.13622 4.7428 0
M  V30 1416 H 125.488 1.07538 5.39181 0
M  V30 1417 H 126.713 1.25495 6.67404 0
M  V30 1418 H 124.659 -0.981198 6.4862 0
M  V30 1419 H 124.576 0.384364 7.55022 0
M  V30 1420 H 125.844 -0.787014 7.75517 0
M  V30 1421 N 130.073 -1.45103 0.615059 0
M  V30 1422 C 131.484 -1.85654 0.197383 0
M  V30 1423 C 131.835 -1.51433 -1.24749 0
M  V30 1424 O 130.96 -0.944608 -1.94695 0
M  V30 1425 C 131.555 -3.36972 0.351448 0
M  V30 1426 C 130.114 -3.76398 -0.011593 0
M  V30 1427 C 129.261 -2.69024 0.672394 0
M  V30 1428 H 132.212 -1.35797 0.821263 0
M  V30 1429 H 132.233 -3.78239 -0.414227 0
M  V30 1430 H 131.745 -3.61847 1.40314 0
M  V30 1431 H 129.846 -3.5714 -1.06217 0
M  V30 1432 H 129.959 -4.77532 0.387265 0
M  V30 1433 H 128.323 -2.54465 0.109284 0
M  V30 1434 H 129.106 -2.96735 1.72636 0
M  V30 1435 N 131.551 -0.354651 -1.53558 0
M  V30 1436 C 132.481 0.489091 -2.2832 0
M  V30 1437 C 133.462 1.09324 -1.30316 0
M  V30 1438 O 134.647 1.11255 -1.59173 0
M  V30 1439 C 131.777 1.63456 -3.0643 0
M  V30 1440 C 130.731 1.1582 -4.12031 0
M  V30 1441 C 130.057 2.39305 -4.7816 0
M  V30 1442 C 131.357 0.250731 -5.21698 0
M  V30 1443 H 133.051 -0.134614 -2.99097 0
M  V30 1444 H 130.597 -0.0661826 -1.43848 0
M  V30 1445 H 132.55 2.23136 -3.57475 0
M  V30 1446 H 131.274 2.28533 -2.33325 0
M  V30 1447 H 129.933 0.584146 -3.61916 0
M  V30 1448 H 129.581 3.02814 -4.01637 0
M  V30 1449 H 129.281 2.08109 -5.49513 0
M  V30 1450 H 130.805 2.99691 -5.31994 0
M  V30 1451 H 132.219 0.754695 -5.68311 0
M  V30 1452 H 130.616 0.0301468 -6.00092 0
M  V30 1453 H 131.686 -0.710125 -4.79672 0
M  V30 1454 N 133.029 1.57378 -0.0835403 0
M  V30 1455 C 134.257 1.98263 0.59157 0
M  V30 1456 C 134.672 0.962302 1.62435 0
M  V30 1457 O 134.029 -0.049581 1.82433 0
M  V30 1458 C 134.08 3.39214 1.24965 0
M  V30 1459 O 133.801 4.37339 0.258186 0
M  V30 1460 C 135.302 3.95038 2.01147 0
M  V30 1461 H 132.522 0.651773 0.159477 0
M  V30 1462 H 135.066 2.03878 -0.159415 0
M  V30 1463 H 133.221 3.34649 1.95164 0
M  V30 1464 H 133.635 5.19371 0.731734 0
M  V30 1465 H 135.109 4.95848 2.42567 0
M  V30 1466 H 135.586 3.32222 2.87272 0
M  V30 1467 H 136.192 4.0304 1.35789 0
M  V30 1468 N 134.507 -0.190092 1.56449 0
M  V30 1469 C 135.417 -1.25591 1.98152 0
M  V30 1470 C 136.433 -1.49519 0.889944 0
M  V30 1471 O 137.609 -1.62036 1.19609 0
M  V30 1472 C 134.674 -2.57916 2.3169 0
M  V30 1473 C 133.735 -2.42015 3.5458 0
M  V30 1474 C 132.968 -3.6803 3.8651 0
M  V30 1475 O 133.191 -4.72413 3.1966 0
M  V30 1476 O 132.125 -3.6326 4.79923 0
M  V30 1477 H 135.951 -0.931988 2.89046 0
M  V30 1478 H 133.536 -0.395488 1.4407 0
M  V30 1479 H 135.418 -3.36008 2.54316 0
M  V30 1480 H 134.093 -2.89925 1.43963 0
M  V30 1481 H 133 -1.62017 3.37196 0
M  V30 1482 H 134.333 -2.14937 4.4279 0
M  V30 1483 N 135.985 -1.50799 -0.457987 0
M  V30 1484 C 136.895 -1.73426 -1.57989 0
M  V30 1485 C 137.911 -0.617745 -1.62665 0
M  V30 1486 O 139.087 -0.897614 -1.80291 0
M  V30 1487 C 136.152 -1.83557 -2.94122 0
M  V30 1488 C 135.213 -3.07345 -2.99729 0
M  V30 1489 C 134.446 -3.16983 -4.29368 0
M  V30 1490 O 134.669 -2.33077 -5.20607 0
M  V30 1491 O 133.603 -4.09812 -4.40837 0
M  V30 1492 H 137.429 -2.68555 -1.41817 0
M  V30 1493 H 135.014 -1.35052 -0.638859 0
M  V30 1494 H 136.896 -1.92326 -3.74952 0
M  V30 1495 H 135.571 -0.916137 -3.10465 0
M  V30 1496 H 134.478 -3.04068 -2.1793 0
M  V30 1497 H 135.811 -3.9891 -2.88326 0
M  V30 1498 N 137.463 0.71206 -1.40597 0
M  V30 1499 C 138.426 1.80785 -1.40888 0
M  V30 1500 C 139.426 1.57937 -0.302103 0
M  V30 1501 O 140.616 1.64913 -0.561182 0
M  V30 1502 C 137.748 3.18927 -1.20409 0
M  V30 1503 H 138.941 1.81924 -2.38419 0
M  V30 1504 H 136.494 0.91805 -1.26497 0
M  V30 1505 H 137.229 3.23436 -0.236522 0
M  V30 1506 H 137.014 3.36911 -2.00582 0
M  V30 1507 H 138.504 3.98949 -1.23408 0
M  V30 1508 N 138.941 1.26152 0.944643 0
M  V30 1509 C 139.888 1.07408 2.04285 0
M  V30 1510 C 140.858 -0.0198413 1.66088 0
M  V30 1511 O 142.043 0.139264 1.90291 0
M  V30 1512 C 139.183 0.70945 3.37729 0
M  V30 1513 C 138.296 1.87926 3.88983 0
M  V30 1514 C 137.431 1.45807 5.10797 0
M  V30 1515 C 136.47 2.5964 5.54305 0
M  V30 1516 N 135.607 2.18226 6.67324 0
M  V30 1517 H 140.447 2.01389 2.1965 0
M  V30 1518 H 137.984 1.00275 1.07626 0
M  V30 1519 H 139.942 0.478948 4.14442 0
M  V30 1520 H 138.572 -0.193389 3.2222 0
M  V30 1521 H 137.624 2.22279 3.08701 0
M  V30 1522 H 138.936 2.73377 4.17213 0
M  V30 1523 H 138.09 1.18781 5.94959 0
M  V30 1524 H 136.829 0.574414 4.84305 0
M  V30 1525 H 135.834 2.87399 4.68702 0
M  V30 1526 H 137.059 3.48599 5.828 0
M  V30 1527 H 135.005 1.3229 6.42523 0
M  V30 1528 H 134.922 2.97221 6.95123 0
M  V30 1529 H 136.19 1.94403 7.54869 0
M  V30 1530 N 140.419 -1.14872 1.07899 0
M  V30 1531 C 141.367 -2.21857 0.698727 0
M  V30 1532 C 142.361 -1.66845 -0.293086 0
M  V30 1533 O 143.567 -1.79321 -0.156204 0
M  V30 1534 H 139.942 -0.722691 0.207899 0
M  V30 1535 H 141.913 -2.51205 1.61054 0
M  V30 1536 C 140.662 -3.47498 0.11858 0
M  V30 1537 H 139.985 -3.90154 0.872914 0
M  V30 1538 H 141.425 -4.23858 -0.109759 0
M  V30 1539 C 139.884 -3.16947 -1.1422 0
M  V30 1540 O 140.414 -3.3426 -2.22785 0
M  V30 1541 N 138.62 -2.70946 -1.05055 0
M  V30 1542 H 138.167 -2.57058 -0.167038 0
M  V30 1543 H 138.125 -2.50879 -1.89491 0
M  V30 1544 N 141.898 -0.863906 -1.31812 0
M  V30 1545 C 143.144 -0.481841 -1.9761 0
M  V30 1546 C 143.499 0.954048 -1.6708 0
M  V30 1547 O 142.792 1.66182 -0.953624 0
M  V30 1548 C 142.986 -0.668547 -3.51091 0
M  V30 1549 C 142.815 -2.12103 -3.96538 0
M  V30 1550 C 141.585 -2.76141 -4.23171 0
M  V30 1551 C 143.783 -3.09265 -4.10925 0
M  V30 1552 N 141.765 -4.12205 -4.54929 0
M  V30 1553 C 143.136 -4.30341 -4.46326 0
M  V30 1554 C 145.191 -3.05337 -3.93286 0
M  V30 1555 C 143.894 -5.48 -4.65928 0
M  V30 1556 C 145.92 -4.22248 -4.14078 0
M  V30 1557 C 145.282 -5.42085 -4.49804 0
M  V30 1558 H 141.381 -0.225238 -0.74886 0
M  V30 1559 H 143.965 -1.11723 -1.59455 0
M  V30 1560 H 142.136 -0.0627898 -3.88349 0
M  V30 1561 H 143.868 -0.255467 -4.03893 0
M  V30 1562 H 140.623 -2.27125 -4.15585 0
M  V30 1563 H 141.047 -4.82416 -4.74978 0
M  V30 1564 H 145.689 -2.138 -3.64759 0
M  V30 1565 H 143.407 -6.40059 -4.93305 0
M  V30 1566 H 146.993 -4.20654 -4.01922 0
M  V30 1567 H 145.873 -6.31044 -4.65567 0
M  V30 1568 N 143.376 1.44774 -0.622745 0
M  V30 1569 C 144.339 2.29069 0.0774015 0
M  V30 1570 C 145.339 1.4059 0.780461 0
M  V30 1571 O 146.529 1.62551 0.626322 0
M  V30 1572 C 143.661 3.21974 1.12006 0
M  V30 1573 H 144.854 2.92459 -0.663901 0
M  V30 1574 H 142.407 1.51548 -0.382486 0
M  V30 1575 H 143.142 2.63417 1.89162 0
M  V30 1576 H 142.927 3.87168 0.619951 0
M  V30 1577 H 144.417 3.85318 1.60995 0
M  V30 1578 N 144.854 0.36279 1.53368 0
M  V30 1579 C 146.265 -0.117022 1.86333 0
M  V30 1580 C 146.616 -1.48397 1.28347 0
M  V30 1581 O 145.741 -2.07787 0.604428 0
M  V30 1582 C 146.336 -0.21912 3.38091 0
M  V30 1583 C 144.895 -0.643184 3.70864 0
M  V30 1584 C 144.042 0.211318 2.76494 0
M  V30 1585 H 146.993 0.581687 1.47655 0
M  V30 1586 H 147.014 -1.04319 3.6592 0
M  V30 1587 H 146.526 0.775902 3.80265 0
M  V30 1588 H 144.627 -1.64654 3.34245 0
M  V30 1589 H 144.74 -0.41973 4.77258 0
M  V30 1590 H 143.104 -0.319367 2.5269 0
M  V30 1591 H 143.887 1.20383 3.21501 0
M  V30 1592 N 146.332 -1.57332 0.0918853 0
M  V30 1593 C 147.58 -1.93853 -0.571446 0
M  V30 1594 C 147.901 -0.974212 -1.6892 0
M  V30 1595 O 147.171 -0.0257254 -1.95883 0
M  V30 1596 H 145.751 -0.715666 -0.214082 0
M  V30 1597 H 148.413 -1.94287 0.154464 0
M  V30 1598 H 147.509 -2.96191 -0.983729 0
M  V30 1599 N 147.81 0.181792 -1.56548 0
M  V30 1600 C 148.72 1.24538 -1.98815 0
M  V30 1601 C 149.736 1.49045 -0.897861 0
M  V30 1602 O 150.912 1.61399 -1.20467 0
M  V30 1603 C 147.977 2.56683 -2.33055 0
M  V30 1604 C 147.038 2.40131 -3.55859 0
M  V30 1605 C 146.271 3.65975 -3.88456 0
M  V30 1606 O 146.494 4.70711 -3.22161 0
M  V30 1607 O 145.428 3.6071 -4.81842 0
M  V30 1608 H 149.254 0.916647 -2.89536 0
M  V30 1609 H 146.839 0.387842 -1.44278 0
M  V30 1610 H 148.721 3.34655 -2.56094 0
M  V30 1611 H 147.396 2.89157 -1.45498 0
M  V30 1612 H 146.303 1.60226 -3.38051 0
M  V30 1613 H 147.636 2.12585 -4.43924 0
M  V30 1614 N 149.288 1.51039 0.449983 0
M  V30 1615 C 150.699 1.557 1.03026 0
M  V30 1616 C 151.05 0.372939 1.92623 0
M  V30 1617 O 150.175 -0.511771 2.10261 0
M  V30 1618 C 150.77 2.82171 1.87523 0
M  V30 1619 C 149.329 2.89444 2.40622 0
M  V30 1620 C 148.476 2.50228 1.19504 0
M  V30 1621 H 151.427 1.56999 0.231745 0
M  V30 1622 H 151.448 2.65219 2.72835 0
M  V30 1623 H 150.96 3.68331 1.22286 0
M  V30 1624 H 149.061 2.07685 3.0935 0
M  V30 1625 H 149.174 3.92816 2.74285 0
M  V30 1626 H 147.538 2.03139 1.53644 0
M  V30 1627 H 148.321 3.38719 0.558972 0
M  V30 1628 N 150.766 -0.704594 1.40972 0
M  V30 1629 C 151.714 -1.83994 1.42299 0
M  V30 1630 C 152.708 -1.66684 0.302111 0
M  V30 1631 O 153.914 -1.73655 0.473697 0
M  V30 1632 H 150.289 -0.606171 0.44504 0
M  V30 1633 H 152.26 -1.79992 2.38003 0
M  V30 1634 C 151.009 -3.21946 1.31323 0
M  V30 1635 H 150.332 -3.35878 2.16855 0
M  V30 1636 H 151.772 -4.01491 1.36311 0
M  V30 1637 C 150.231 -3.36891 0.0245977 0
M  V30 1638 O 150.761 -3.90687 -0.934153 0
M  V30 1639 N 148.967 -2.90559 -0.0485243 0
M  V30 1640 H 148.514 -2.46968 0.732419 0
M  V30 1641 H 148.472 -3.00937 -0.910171 0
M  V30 1642 N 152.244 -1.26651 -0.937939 0
M  V30 1643 C 153.192 -1.08308 -2.05845 0
M  V30 1644 C 154.186 -0.0090757 -1.69398 0
M  V30 1645 O 155.392 -0.166007 -1.79233 0
M  V30 1646 H 151.767 -0.333416 -0.674046 0
M  V30 1647 H 153.738 -2.03261 -2.18467 0
M  V30 1648 C 152.487 -0.736229 -3.39816 0
M  V30 1649 H 151.81 -1.55453 -3.6834 0
M  V30 1650 H 153.25 -0.64769 -4.19024 0
M  V30 1651 C 151.709 0.558824 -3.32233 0
M  V30 1652 O 152.239 1.59621 -3.68624 0
M  V30 1653 N 150.445 0.550657 -2.85335 0
M  V30 1654 H 149.992 -0.293943 -2.55917 0
M  V30 1655 H 149.95 1.41726 -2.80644 0
M  V30 1656 N 153.722 1.14298 -1.08507 0
M  V30 1657 C 155.138 1.37347 -0.812901 0
M  V30 1658 C 155.338 1.93052 0.577325 0
M  V30 1659 O 154.394 2.14389 1.33393 0
M  V30 1660 C 155.707 2.33359 -1.89642 0
M  V30 1661 C 157.255 2.46996 -1.92255 0
M  V30 1662 C 157.73 3.46309 -2.99724 0
M  V30 1663 N 159.221 3.53853 -2.98902 0
M  V30 1664 C 159.956 4.3055 -3.787 0
M  V30 1665 N 159.452 5.10482 -4.6838 0
M  V30 1666 N 161.245 4.25757 -3.66998 0
M  V30 1667 H 153.396 0.764867 -1.9815 0
M  V30 1668 H 155.659 0.398966 -0.859959 0
M  V30 1669 H 155.365 1.99565 -2.89597 0
M  V30 1670 H 155.239 3.33274 -1.76659 0
M  V30 1671 H 157.626 2.80081 -0.929445 0
M  V30 1672 H 157.707 1.47039 -2.09316 0
M  V30 1673 H 157.351 3.13957 -3.99241 0
M  V30 1674 H 157.281 4.46049 -2.79907 0
M  V30 1675 H 159.772 2.96812 -2.33904 0
M  V30 1676 H 160.085 5.66284 -5.25873 0
M  V30 1677 H 158.43 5.09747 -4.72422 0
M  V30 1678 H 161.621 3.62383 -2.96304 0
M  V30 1679 H 161.794 4.85279 -4.29427 0
M  V30 1680 N 155.201 0.870884 1.31352 0
M  V30 1681 C 156.133 0.28455 2.27427 0
M  V30 1682 C 157.146 -0.552927 1.53123 0
M  V30 1683 O 158.335 -0.374771 1.74521 0
M  V30 1684 C 155.435 -0.615164 3.3327 0
M  V30 1685 C 154.608 0.190079 4.36987 0
M  V30 1686 C 153.667 -0.637917 5.22319 0
M  V30 1687 O 152.693 -0.065626 5.69162 0
M  V30 1688 N 153.895 -1.94973 5.46778 0
M  V30 1689 H 156.66 1.11017 2.7838 0
M  V30 1690 H 154.221 0.732458 1.44384 0
M  V30 1691 H 156.213 -1.1748 3.87273 0
M  V30 1692 H 154.783 -1.34146 2.82354 0
M  V30 1693 H 154.003 0.931165 3.83044 0
M  V30 1694 H 155.291 0.742579 5.03352 0
M  V30 1695 H 154.689 -2.4378 5.10478 0
M  V30 1696 H 153.246 -2.45713 6.03712 0
M  V30 1697 N 156.679 -1.44442 0.630414 0
M  V30 1698 C 157.626 -2.30678 -0.0749355 0
M  V30 1699 C 158.596 -1.4344 -0.837502 0
M  V30 1700 O 159.781 -1.72343 -0.818684 0
M  V30 1701 C 156.921 -3.28706 -1.05103 0
M  V30 1702 C 156.034 -4.31046 -0.286954 0
M  V30 1703 C 155.169 -5.16167 -1.2548 0
M  V30 1704 C 154.208 -6.10216 -0.479843 0
M  V30 1705 N 153.345 -6.88039 -1.39811 0
M  V30 1706 H 158.185 -2.90454 0.666386 0
M  V30 1707 H 155.722 -1.43107 0.340404 0
M  V30 1708 H 157.68 -3.84027 -1.63031 0
M  V30 1709 H 156.31 -2.70632 -1.75949 0
M  V30 1710 H 155.362 -3.78203 0.408243 0
M  V30 1711 H 156.674 -4.97794 0.316657 0
M  V30 1712 H 155.828 -5.76002 -1.90544 0
M  V30 1713 H 154.567 -4.49491 -1.89233 0
M  V30 1714 H 153.572 -5.49491 0.184295 0
M  V30 1715 H 154.797 -6.78928 0.152965 0
M  V30 1716 H 152.743 -6.24032 -2.02287 0
M  V30 1717 H 152.66 -7.51223 -0.848508 0
M  V30 1718 H 153.928 -7.52397 -2.03762 0
M  V30 1719 N 158.157 -0.370918 -1.53173 0
M  V30 1720 C 159.434 0.273754 -1.93675 0
M  V30 1721 C 159.814 1.65938 -1.3049 0
M  V30 1722 O 159.162 2.23698 -0.465999 0
M  V30 1723 C 159.372 0.318602 -3.47543 0
M  V30 1724 C 160.72 0.556392 -4.20939 0
M  V30 1725 O 161.744 0.399587 -3.53952 0
M  V30 1726 O 160.603 0.862133 -5.39657 0
M  V30 1727 H 157.697 0.165448 -0.810281 0
M  V30 1728 H 160.243 -0.42409 -1.64315 0
M  V30 1729 H 159.015 -0.652687 -3.85818 0
M  V30 1730 H 158.638 1.06212 -3.83151 0
M  V30 1731 N 159.635 1.57281 -0.100228 0
M  V30 1732 C 160.545 2.17833 0.870965 0
M  V30 1733 C 161.561 1.14921 1.30649 0
M  V30 1734 O 162.737 1.47313 1.37335 0
M  V30 1735 C 159.802 2.75085 2.1102 0
M  V30 1736 C 158.863 3.9297 1.72838 0
M  V30 1737 C 158.096 4.47482 2.90854 0
M  V30 1738 O 158.319 4.00922 4.05731 0
M  V30 1739 O 157.253 5.38433 2.69023 0
M  V30 1740 H 161.079 3.0124 0.38575 0
M  V30 1741 H 158.664 1.48881 0.124397 0
M  V30 1742 H 160.546 3.11656 2.83634 0
M  V30 1743 H 159.221 1.94721 2.58584 0
M  V30 1744 H 158.128 3.61201 0.973883 0
M  V30 1745 H 159.461 4.74713 1.30033 0
M  V30 1746 N 161.113 -0.173488 1.56642 0
M  V30 1747 C 162.39 -0.917617 1.7274 0
M  V30 1748 C 162.77 -2.00484 0.661027 0
M  V30 1749 O 162.118 -2.26184 -0.32453 0
M  V30 1750 C 162.328 -1.48433 3.15862 0
M  V30 1751 C 163.676 -1.95809 3.76754 0
M  V30 1752 O 164.7 -1.58231 3.19126 0
M  V30 1753 O 163.559 -2.65024 4.77938 0
M  V30 1754 H 160.653 -0.431772 0.705338 0
M  V30 1755 H 163.199 -0.161487 1.6893 0
M  V30 1756 H 161.971 -0.701715 3.84957 0
M  V30 1757 H 161.594 -2.30471 3.23989 0
M  V30 1758 N 162.591 -1.51276 -0.441967 0
M  V30 1759 C 163.831 -1.65372 -1.20132 0
M  V30 1760 C 164.195 -0.359871 -1.88597 0
M  V30 1761 O 165.396 -0.376551 -2.66149 0
M  V30 1762 C 163.667 -2.8207 -2.1948 0
M  V30 1763 S 165.226 -3.16467 -3.03964 0
M  V30 1764 H 162.044 -0.582669 -0.407453 0
M  V30 1765 H 164.646 -1.89166 -0.493609 0
M  V30 1766 H 163.35 -3.74523 -1.67812 0
M  V30 1767 H 162.881 -2.6045 -2.94838 0
M  V30 1768 H 164.896 -2.62543 -4.21053 0
M  V30 1769 N 164.069 0.697108 -1.41344 0
M  V30 1770 C 165.315 1.4593 -1.40827 0
M  V30 1771 C 165.648 1.94193 -0.0167098 0
M  V30 1772 O 164.923 1.69425 0.955263 0
M  V30 1773 C 165.206 2.67229 -2.41373 0
M  V30 1774 C 165.059 2.24741 -3.8963 0
M  V30 1775 C 166.378 3.69423 -2.39196 0
M  V30 1776 H 163.497 0.529303 -0.512842 0
M  V30 1777 H 166.139 0.794112 -1.72609 0
M  V30 1778 H 164.289 3.23982 -2.14401 0
M  V30 1779 H 165.961 1.73327 -4.27499 0
M  V30 1780 H 164.204 1.56542 -4.0457 0
M  V30 1781 H 164.875 3.1177 -4.55525 0
M  V30 1782 H 167.351 3.2234 -2.63128 0
M  V30 1783 H 166.227 4.51907 -3.11563 0
M  V30 1784 H 166.488 4.19012 -1.41001 0
M  V30 1785 N 165.547 1.27147 0.931209 0
M  V30 1786 C 166.457 1.11372 2.06478 0
M  V30 1787 C 167.473 0.044645 1.73943 0
M  V30 1788 O 168.649 0.250417 1.99837 0
M  V30 1789 C 165.714 0.758838 3.38294 0
M  V30 1790 C 164.775 1.90841 3.84549 0
M  V30 1791 C 164.008 1.57036 5.10074 0
M  V30 1792 O 164.231 0.476645 5.68405 0
M  V30 1793 O 163.165 2.40839 5.51616 0
M  V30 1794 H 166.991 2.06493 2.22698 0
M  V30 1795 H 164.576 1.06301 1.04978 0
M  V30 1796 H 166.458 0.574098 4.17471 0
M  V30 1797 H 165.133 -0.162879 3.2329 0
M  V30 1798 H 164.04 2.14819 3.06274 0
M  V30 1799 H 165.373 2.81021 4.04089 0
M  V30 1800 N 167.025 -1.13721 1.09112 0
M  V30 1801 C 168.274 -1.84275 0.82009 0
M  V30 1802 C 168.587 -1.84253 -0.656509 0
M  V30 1803 O 169.793 -2.50668 -1.04296 0
M  V30 1804 C 168.249 -3.30825 1.41714 0
M  V30 1805 C 167.857 -3.39244 2.92605 0
M  V30 1806 C 169.601 -4.06443 1.22492 0
M  V30 1807 C 167.508 -4.80047 3.45411 0
M  V30 1808 H 166.438 -0.690387 0.30312 0
M  V30 1809 H 169.089 -1.28146 1.31343 0
M  V30 1810 H 167.471 -3.86737 0.851498 0
M  V30 1811 H 168.645 -2.93344 3.55367 0
M  V30 1812 H 166.96 -2.77088 3.10823 0
M  V30 1813 H 169.557 -5.10387 1.59402 0
M  V30 1814 H 169.9 -4.15972 0.165299 0
M  V30 1815 H 170.433 -3.56852 1.75788 0
M  V30 1816 H 167.172 -4.75709 4.50978 0
M  V30 1817 H 166.692 -5.26455 2.87411 0
M  V30 1818 H 168.371 -5.48957 3.42425 0
M  V30 1819 N 168.503 -0.877838 -1.30888 0
M  V30 1820 C 169.733 -0.506678 -2.00291 0
M  V30 1821 C 170.141 0.907449 -1.66018 0
M  V30 1822 O 169.484 1.60719 -0.88967 0
M  V30 1823 C 169.546 -0.59323 -3.54572 0
M  V30 1824 C 169.21 -1.97038 -4.12341 0
M  V30 1825 C 170.207 -2.93889 -4.28865 0
M  V30 1826 C 167.892 -2.27383 -4.47886 0
M  V30 1827 C 169.886 -4.19224 -4.80136 0
M  V30 1828 C 167.573 -3.52965 -4.98857 0
M  V30 1829 C 168.571 -4.48701 -5.14934 0
M  V30 1830 O 168.259 -5.72056 -5.64808 0
M  V30 1831 H 167.991 -0.1951 -0.647234 0
M  V30 1832 H 170.545 -1.18301 -1.6791 0
M  V30 1833 H 168.775 0.140057 -3.86446 0
M  V30 1834 H 170.464 -0.234372 -4.05223 0
M  V30 1835 H 171.23 -2.71756 -4.01714 0
M  V30 1836 H 167.109 -1.53639 -4.34645 0
M  V30 1837 H 170.653 -4.93956 -4.92599 0
M  V30 1838 H 166.55 -3.74939 -5.25443 0
M  V30 1839 H 167.318 -5.74337 -5.83163 0
M  V30 1840 N 169.982 1.44106 -0.638065 0
M  V30 1841 C 171.231 2.01194 -0.142744 0
M  V30 1842 C 171.544 1.50835 1.24532 0
M  V30 1843 O 172.75 2.00096 1.83504 0
M  V30 1844 C 171.206 3.59319 -0.20442 0
M  V30 1845 C 170.814 4.18674 -1.59423 0
M  V30 1846 C 172.558 4.23854 0.234079 0
M  V30 1847 C 170.465 5.69045 -1.61065 0
M  V30 1848 H 169.395 0.752367 -0.0495998 0
M  V30 1849 H 172.046 1.65246 -0.797881 0
M  V30 1850 H 170.428 3.92598 0.517946 0
M  V30 1851 H 171.602 3.96921 -2.34074 0
M  V30 1852 H 169.917 3.66453 -1.97741 0
M  V30 1853 H 172.514 5.34155 0.241443 0
M  V30 1854 H 172.857 3.96688 1.2627 0
M  V30 1855 H 173.39 3.95403 -0.436025 0
M  V30 1856 H 170.129 6.00956 -2.61787 0
M  V30 1857 H 169.649 5.929 -0.90718 0
M  V30 1858 H 171.328 6.32809 -1.34766 0
M  V30 1859 N 171.46 0.379036 1.52974 0
M  V30 1860 C 172.407 -0.461048 2.26148 0
M  V30 1861 C 173.377 -1.06637 1.27349 0
M  V30 1862 O 174.562 -1.09633 1.56157 0
M  V30 1863 C 171.702 -1.58782 3.06402 0
M  V30 1864 C 170.815 -1.00636 4.20115 0
M  V30 1865 C 169.95 -2.10334 4.87784 0
M  V30 1866 C 168.989 -1.49724 5.93506 0
M  V30 1867 N 168.126 -2.5331 6.54812 0
M  V30 1868 H 172.966 0.169429 2.97518 0
M  V30 1869 H 170.503 0.0953806 1.4679 0
M  V30 1870 H 172.461 -2.25174 3.51215 0
M  V30 1871 H 171.091 -2.18876 2.37261 0
M  V30 1872 H 170.143 -0.232332 3.7969 0
M  V30 1873 H 171.455 -0.523343 4.96047 0
M  V30 1874 H 170.609 -2.84519 5.35849 0
M  V30 1875 H 169.348 -2.61992 4.11353 0
M  V30 1876 H 168.353 -0.740598 5.44789 0
M  V30 1877 H 169.578 -0.988732 6.71864 0
M  V30 1878 H 167.524 -3.04156 5.81227 0
M  V30 1879 H 167.441 -2.09734 7.26325 0
M  V30 1880 H 168.709 -3.27155 7.07524 0
M  V30 1881 N 172.938 -1.57226 0.108567 0
M  V30 1882 C 174.354 -1.5766 -0.248058 0
M  V30 1883 C 174.554 -1.12063 -1.67464 0
M  V30 1884 O 173.61 -0.803236 -2.39383 0
M  V30 1885 C 174.923 -3.0069 -0.0242287 0
M  V30 1886 C 176.471 -3.12868 -0.0909372 0
M  V30 1887 C 176.946 -4.57879 0.105067 0
M  V30 1888 N 178.437 -4.63172 0.0506846 0
M  V30 1889 C 179.172 -5.73126 0.177396 0
M  V30 1890 N 178.668 -6.91866 0.359696 0
M  V30 1891 N 180.461 -5.61977 0.117709 0
M  V30 1892 H 172.612 -1.85169 1.04049 0
M  V30 1893 H 174.875 -0.85529 0.40888 0
M  V30 1894 H 174.581 -3.38299 0.961604 0
M  V30 1895 H 174.455 -3.6945 -0.76068 0
M  V30 1896 H 176.842 -2.75124 -1.06729 0
M  V30 1897 H 176.923 -2.46672 0.677225 0
M  V30 1898 H 176.567 -4.96321 1.07834 0
M  V30 1899 H 176.497 -5.22153 -0.682954 0
M  V30 1900 H 178.988 -3.778 -0.0871266 0
M  V30 1901 H 179.301 -7.71503 0.447529 0
M  V30 1902 H 177.646 -6.93874 0.395536 0
M  V30 1903 H 180.837 -4.68094 -0.0236741 0
M  V30 1904 H 181.01 -6.47627 0.219905 0
M  V30 1905 N 174.416 0.165178 -1.56732 0
M  V30 1906 C 175.326 1.22423 -2.00125 0
M  V30 1907 C 176.342 1.48084 -0.913619 0
M  V30 1908 O 177.518 1.60112 -1.22172 0
M  V30 1909 C 174.583 2.54197 -2.35764 0
M  V30 1910 C 173.644 2.36343 -3.58386 0
M  V30 1911 C 172.877 3.61834 -3.92316 0
M  V30 1912 O 173.1 4.67267 -3.27135 0
M  V30 1913 O 172.034 3.55579 -4.85641 0
M  V30 1914 H 175.86 0.885886 -2.90492 0
M  V30 1915 H 173.445 0.372518 -1.44681 0
M  V30 1916 H 175.327 3.3192 -2.59629 0
M  V30 1917 H 174.002 2.87598 -1.48557 0
M  V30 1918 H 172.909 1.56632 -3.39731 0
M  V30 1919 H 174.242 2.07865 -4.46154 0
M  V30 1920 N 175.894 1.51508 0.433938 0
M  V30 1921 C 176.841 1.73068 1.52696 0
M  V30 1922 C 177.811 0.572441 1.55924 0
M  V30 1923 O 178.996 0.807253 1.72882 0
M  V30 1924 C 176.136 1.86474 2.90381 0
M  V30 1925 C 175.249 3.14037 2.96656 0
M  V30 1926 C 174.384 3.18019 4.25485 0
M  V30 1927 C 173.423 4.39882 4.2564 0
M  V30 1928 N 172.56 4.41394 5.45999 0
M  V30 1929 H 177.4 2.66366 1.33615 0
M  V30 1930 H 174.937 1.32008 0.649018 0
M  V30 1931 H 176.895 1.92229 3.70275 0
M  V30 1932 H 175.525 0.965809 3.08013 0
M  V30 1933 H 174.577 3.17575 2.09404 0
M  V30 1934 H 175.889 4.0394 2.92633 0
M  V30 1935 H 175.043 3.22708 5.13755 0
M  V30 1936 H 173.782 2.2601 4.3217 0
M  V30 1937 H 172.787 4.35366 3.35763 0
M  V30 1938 H 174.012 5.33159 4.20617 0
M  V30 1939 H 171.958 3.52258 5.53399 0
M  V30 1940 H 171.875 5.25111 5.4387 0
M  V30 1941 H 173.143 4.50281 6.36292 0
M  V30 1942 N 177.372 -0.689602 1.41712 0
M  V30 1943 C 178.649 -1.44457 1.31877 0
M  V30 1944 C 179.029 -2.11039 -0.0508537 0
M  V30 1945 O 178.377 -2.02138 -1.06547 0
M  V30 1946 C 178.587 -2.45913 2.47645 0
M  V30 1947 C 179.935 -3.10991 2.89084 0
M  V30 1948 O 180.959 -2.56238 2.47428 0
M  V30 1949 O 179.818 -4.10174 3.61137 0
M  V30 1950 H 176.912 -0.64362 0.519309 0
M  V30 1951 H 179.458 -0.719576 1.53689 0
M  V30 1952 H 178.23 -1.95409 3.39015 0
M  V30 1953 H 177.853 -3.25913 2.27742 0
M  V30 1954 N 178.85 -1.27639 -0.924453 0
M  V30 1955 C 180.096 -1.14336 -1.67497 0
M  V30 1956 C 180.429 0.309465 -1.91718 0
M  V30 1957 O 179.704 1.22608 -1.50989 0
M  V30 1958 C 179.987 -1.93096 -3.0395 0
M  V30 1959 C 179.84 -3.46381 -2.8695 0
M  V30 1960 C 181.159 -1.73798 -4.0433 0
M  V30 1961 H 178.278 -0.416728 -0.607871 0
M  V30 1962 H 180.92 -1.56832 -1.07256 0
M  V30 1963 H 179.07 -1.56982 -3.55372 0
M  V30 1964 H 180.742 -3.92343 -2.42621 0
M  V30 1965 H 178.985 -3.72557 -2.22225 0
M  V30 1966 H 179.656 -3.96735 -3.83804 0
M  V30 1967 H 182.132 -2.05293 -3.61931 0
M  V30 1968 H 181.008 -2.31294 -4.97789 0
M  V30 1969 H 181.269 -0.686725 -4.36734 0
M  V30 1970 N 180.328 1.1314 -1.09713 0
M  V30 1971 C 181.576 1.84119 -0.833338 0
M  V30 1972 C 181.897 1.84097 0.642904 0
M  V30 1973 O 181.167 1.29881 1.46655 0
M  V30 1974 H 179.747 0.681766 -0.305293 0
M  V30 1975 H 182.409 1.37038 -1.38588 0
M  V30 1976 H 181.505 2.88543 -1.18951 0
M  V30 1977 N 181.806 0.884767 1.30421 0
M  V30 1978 C 182.739 0.295999 2.26272 0
M  V30 1979 C 183.717 -0.58332 1.51777 0
M  V30 1980 O 184.901 -0.53346 1.80794 0
M  V30 1981 C 182.028 -0.57944 3.33707 0
M  V30 1982 C 181.074 0.230525 4.25877 0
M  V30 1983 S 181.907 1.61867 5.1045 0
M  V30 1984 C 183.063 0.749756 6.21393 0
M  V30 1985 H 183.296 1.10848 2.75862 0
M  V30 1986 H 180.829 0.684178 1.38414 0
M  V30 1987 H 182.787 -1.07879 3.96071 0
M  V30 1988 H 181.448 -1.36601 2.82841 0
M  V30 1989 H 180.641 -0.437542 5.02097 0
M  V30 1990 H 180.243 0.662493 3.68086 0
M  V30 1991 H 182.535 -0.0333547 6.77492 0
M  V30 1992 H 183.478 1.48356 6.92384 0
M  V30 1993 H 183.886 0.310751 5.63644 0
M  V30 1994 N 183.284 -1.43765 0.645699 0
M  V30 1995 C 184.53 -2.02731 0.164844 0
M  V30 1996 C 184.885 -1.49983 -1.2051 0
M  V30 1997 O 184.178 -0.680208 -1.79119 0
M  V30 1998 C 184.372 -3.57238 0.107679 0
M  V30 1999 C 184.201 -4.24977 1.47054 0
M  V30 2000 C 182.971 -4.61356 2.06103 0
M  V30 2001 C 185.169 -4.54476 2.40741 0
M  V30 2002 N 183.151 -5.14132 3.35473 0
M  V30 2003 C 184.522 -5.08489 3.54737 0
M  V30 2004 C 186.577 -4.36438 2.39637 0
M  V30 2005 C 185.28 -5.46364 4.67845 0
M  V30 2006 C 187.306 -4.7537 3.5182 0
M  V30 2007 C 186.668 -5.2951 4.64541 0
M  V30 2008 H 182.767 -0.774976 0.104578 0
M  V30 2009 H 185.351 -1.75051 0.852367 0
M  V30 2010 H 183.522 -3.84498 -0.549165 0
M  V30 2011 H 185.254 -4.0288 -0.383351 0
M  V30 2012 H 182.009 -4.46151 1.58892 0
M  V30 2013 H 182.433 -5.4498 4.01654 0
M  V30 2014 H 187.075 -3.93861 1.53731 0
M  V30 2015 H 184.793 -5.87888 5.54448 0
M  V30 2016 H 188.379 -4.63115 3.52159 0
M  V30 2017 H 187.259 -5.59077 5.49911 0
M  V30 2018 N 184.763 -0.387143 -1.52771 0
M  V30 2019 C 185.711 0.463953 -2.27926 0
M  V30 2020 C 186.705 1.06493 -1.31741 0
M  V30 2021 O 187.911 1.00565 -1.49287 0
M  V30 2022 H 184.286 0.16837 -0.732909 0
M  V30 2023 H 186.257 -0.19141 -2.97785 0
M  V30 2024 C 185.006 1.5803 -3.09713 0
M  V30 2025 H 184.329 1.12718 -3.83581 0
M  V30 2026 H 185.769 2.15008 -3.65442 0
M  V30 2027 C 184.228 2.53509 -2.2189 0
M  V30 2028 O 184.758 3.56863 -1.84422 0
M  V30 2029 N 182.964 2.23199 -1.86093 0
M  V30 2030 H 182.511 1.39185 -2.16761 0
M  V30 2031 H 182.469 2.87333 -1.27621 0
M  V30 2032 N 186.241 1.57166 -0.116904 0
M  V30 2033 C 187.518 1.86645 0.585049 0
M  V30 2034 C 187.898 1.0177 1.84949 0
M  V30 2035 O 187.246 0.0960379 2.28298 0
M  V30 2036 C 187.456 3.37736 0.879507 0
M  V30 2037 C 188.804 4.06289 1.23348 0
M  V30 2038 O 189.828 3.42743 0.969836 0
M  V30 2039 O 188.687 5.18455 1.7282 0
M  V30 2040 H 185.781 0.772593 0.295007 0
M  V30 2041 H 188.327 1.69025 -0.151249 0
M  V30 2042 H 187.099 3.91296 -0.0166136 0
M  V30 2043 H 186.722 3.6078 1.67103 0
M  V30 2044 N 187.719 -0.156864 1.56817 0
M  V30 2045 C 188.629 -1.2136 2.00771 0
M  V30 2046 C 189.645 -1.47598 0.921459 0
M  V30 2047 O 190.821 -1.59462 1.2302 0
M  V30 2048 C 187.886 -2.52943 2.37109 0
M  V30 2049 C 186.947 -2.34439 3.59634 0
M  V30 2050 C 186.18 -3.59748 3.94229 0
M  V30 2051 O 186.403 -4.65526 3.29609 0
M  V30 2052 O 185.337 -3.52998 4.8752 0
M  V30 2053 H 189.163 -0.870468 2.90958 0
M  V30 2054 H 186.748 -0.36484 1.44877 0
M  V30 2055 H 188.63 -3.30538 2.61386 0
M  V30 2056 H 187.305 -2.86806 1.5008 0
M  V30 2057 H 186.212 -1.54828 3.40557 0
M  V30 2058 H 187.545 -2.05496 4.4725 0
M  V30 2059 N 189.197 -1.51736 -0.425897 0
M  V30 2060 C 190.613 -1.40166 -0.76326 0
M  V30 2061 C 190.813 -0.492962 -1.95377 0
M  V30 2062 O 189.869 0.0475815 -2.52455 0
M  V30 2063 C 191.182 -2.82403 -1.03291 0
M  V30 2064 C 192.73 -2.91632 -1.13665 0
M  V30 2065 C 193.205 -4.34801 -1.43916 0
M  V30 2066 N 194.696 -4.3796 -1.50816 0
M  V30 2067 C 195.431 -5.4578 -1.75817 0
M  V30 2068 N 194.927 -6.63744 -1.98534 0
M  V30 2069 N 196.72 -5.33274 -1.77694 0
M  V30 2070 H 188.871 -2.09361 0.358 0
M  V30 2071 H 191.134 -0.942941 0.0978094 0
M  V30 2072 H 190.84 -3.50943 -0.230696 0
M  V30 2073 H 190.714 -3.22428 -1.95754 0
M  V30 2074 H 193.101 -2.23284 -1.92947 0
M  V30 2075 H 193.182 -2.55088 -0.190756 0
M  V30 2076 H 192.826 -5.03703 -0.65157 0
M  V30 2077 H 192.756 -4.68868 -2.39729 0
M  V30 2078 H 195.247 -3.52919 -1.35118 0
M  V30 2079 H 195.56 -7.41704 -2.17013 0
M  V30 2080 H 193.905 -6.66839 -1.95832 0
M  V30 2081 H 197.096 -4.40098 -1.59473 0
M  V30 2082 H 197.269 -6.1738 -1.9684 0
M  V30 2083 N 190.675 0.682077 -1.42076 0
M  V30 2084 C 191.915 1.45424 -1.43636 0
M  V30 2085 C 192.279 1.91939 -0.0484001 0
M  V30 2086 O 193.48 2.6873 0.0612514 0
M  V30 2087 C 191.751 2.62427 -2.42625 0
M  V30 2088 S 193.31 3.51379 -2.62827 0
M  V30 2089 H 190.128 0.496779 -0.508657 0
M  V30 2090 H 192.73 0.794645 -1.78621 0
M  V30 2091 H 191.434 2.26481 -3.42249 0
M  V30 2092 H 190.965 3.33266 -2.09039 0
M  V30 2093 H 192.98 4.58141 -1.9058 0
M  V30 2094 N 192.153 1.28127 0.917671 0
M  V30 2095 C 193.378 1.18007 1.70555 0
M  V30 2096 C 193.803 -0.258257 1.86319 0
M  V30 2097 O 193.161 -1.1869 1.37049 0
M  V30 2098 C 193.209 1.87948 3.07746 0
M  V30 2099 O 192.313 1.18427 3.9503 0
M  V30 2100 H 191.654 0.409867 0.522403 0
M  V30 2101 H 194.184 1.69379 1.1477 0
M  V30 2102 H 194.194 1.95701 3.58001 0
M  V30 2103 H 192.869 2.92573 2.95591 0
M  V30 2104 H 191.446 1.18811 3.53466 0
M  V30 2105 N 193.631 -1.12557 1.10312 0
M  V30 2106 C 194.578 -2.18247 0.750781 0
M  V30 2107 C 195.548 -1.63853 -0.272293 0
M  V30 2108 O 196.733 -1.90195 -0.151862 0
M  V30 2109 C 193.873 -3.44591 0.187379 0
M  V30 2110 C 192.986 -4.13046 1.2656 0
M  V30 2111 C 192.121 -5.27034 0.663978 0
M  V30 2112 C 191.16 -5.87353 1.72287 0
M  V30 2113 N 190.297 -6.92757 1.1416 0
M  V30 2114 H 195.137 -2.47732 1.65628 0
M  V30 2115 H 192.674 -1.21629 0.827337 0
M  V30 2116 H 194.632 -4.16904 -0.157148 0
M  V30 2117 H 193.262 -3.15527 -0.681355 0
M  V30 2118 H 192.314 -3.38924 1.72727 0
M  V30 2119 H 193.626 -4.53947 2.06721 0
M  V30 2120 H 192.78 -6.06104 0.268824 0
M  V30 2121 H 191.519 -4.87407 -0.169082 0
M  V30 2122 H 190.524 -5.06971 2.12746 0
M  V30 2123 H 191.749 -6.29051 2.55875 0
M  V30 2124 H 189.695 -6.5517 0.329984 0
M  V30 2125 H 189.612 -7.3225 1.88007 0
M  V30 2126 H 190.88 -7.75658 0.772956 0
M  V30 2127 N 195.109 -0.891671 -1.2995 0
M  V30 2128 C 196.056 -0.361736 -2.27948 0
M  V30 2129 C 197.026 0.551761 -1.56668 0
M  V30 2130 O 198.211 0.478736 -1.84696 0
M  V30 2131 C 195.351 0.411825 -3.42634 0
M  V30 2132 C 194.464 -0.531651 -4.28716 0
M  V30 2133 C 193.599 0.258167 -5.30572 0
M  V30 2134 C 192.638 -0.680349 -6.08307 0
M  V30 2135 N 191.775 0.0745613 -7.0206 0
M  V30 2136 H 196.615 -1.20254 -2.72659 0
M  V30 2137 H 194.152 -0.604352 -1.34112 0
M  V30 2138 H 196.11 0.876304 -4.07893 0
M  V30 2139 H 194.74 1.21715 -2.98974 0
M  V30 2140 H 193.792 -1.11463 -3.63703 0
M  V30 2141 H 195.104 -1.25038 -4.82874 0
M  V30 2142 H 194.258 0.784204 -6.0161 0
M  V30 2143 H 192.997 1.01008 -4.77126 0
M  V30 2144 H 192.002 -1.21796 -5.3614 0
M  V30 2145 H 193.227 -1.43145 -6.63842 0
M  V30 2146 H 191.173 0.808883 -6.50994 0
M  V30 2147 H 191.09 -0.584409 -7.53738 0
M  V30 2148 H 192.358 0.581123 -7.77331 0
M  V30 2149 N 196.587 1.43421 -0.653314 0
M  V30 2150 C 197.534 2.30768 0.0382271 0
M  V30 2151 C 198.504 1.44755 0.814576 0
M  V30 2152 O 199.689 1.73624 0.791162 0
M  V30 2153 C 196.829 3.30336 0.998599 0
M  V30 2154 C 195.942 4.31448 0.218342 0
M  V30 2155 C 195.077 5.18098 1.17252 0
M  V30 2156 C 194.116 6.10902 0.382702 0
M  V30 2157 N 193.253 6.90176 1.28848 0
M  V30 2158 H 198.093 2.89357 -0.712511 0
M  V30 2159 H 195.63 1.42548 -0.363128 0
M  V30 2160 H 197.588 3.86572 1.56901 0
M  V30 2161 H 196.218 2.73397 1.71621 0
M  V30 2162 H 195.27 3.77506 -0.46836 0
M  V30 2163 H 196.582 4.97227 -0.395812 0
M  V30 2164 H 195.736 5.7896 1.81356 0
M  V30 2165 H 194.475 4.52444 1.82058 0
M  V30 2166 H 193.48 5.49128 -0.27169 0
M  V30 2167 H 194.705 6.78598 -0.260957 0
M  V30 2168 H 192.651 6.27171 1.92334 0
M  V30 2169 H 192.568 7.52478 0.728887 0
M  V30 2170 H 193.836 7.55543 1.91766 0
M  V30 2171 N 198.065 0.39524 1.52563 0
M  V30 2172 C 198.995 -0.428384 2.29537 0
M  V30 2173 C 199.976 -1.05831 1.33169 0
M  V30 2174 O 201.161 -1.06995 1.62067 0
M  V30 2175 C 198.291 -1.55274 3.10656 0
M  V30 2176 C 197.245 -1.04855 4.14957 0
M  V30 2177 C 196.571 -2.26543 4.84337 0
M  V30 2178 C 197.871 -0.112324 5.22179 0
M  V30 2179 H 199.565 0.213867 2.98635 0
M  V30 2180 H 197.111 0.104298 1.43622 0
M  V30 2181 H 199.064 -2.1358 3.63265 0
M  V30 2182 H 197.788 -2.22266 2.39302 0
M  V30 2183 H 196.447 -0.487985 3.63338 0
M  V30 2184 H 196.095 -2.92059 4.09525 0
M  V30 2185 H 195.795 -1.93466 5.54837 0
M  V30 2186 H 197.319 -2.85481 5.39753 0
M  V30 2187 H 198.733 -0.603752 5.70112 0
M  V30 2188 H 197.13 0.128968 5.99961 0
M  V30 2189 H 198.2 0.837052 4.77621 0
M  V30 2190 N 199.544 -1.57102 0.125237 0
M  V30 2191 C 200.507 -2.14471 -0.80838 0
M  V30 2192 C 201.507 -1.0811 -1.19033 0
M  V30 2193 O 202.697 -1.33856 -1.11482 0
M  V30 2194 C 199.829 -2.69005 -2.09402 0
M  V30 2195 H 201.022 -2.98297 -0.309696 0
M  V30 2196 H 198.575 -1.55807 -0.124051 0
M  V30 2197 H 199.31 -1.88785 -2.63687 0
M  V30 2198 H 199.095 -3.46799 -1.82957 0
M  V30 2199 H 200.585 -3.13278 -2.76128 0
M  V30 2200 N 201.022 0.148545 -1.56898 0
M  V30 2201 C 201.952 1.18524 -2.01182 0
M  V30 2202 C 202.933 1.4489 -0.891123 0
M  V30 2203 O 204.118 1.55836 -1.15882 0
M  V30 2204 C 201.248 2.51879 -2.39112 0
M  V30 2205 C 200.202 2.40038 -3.54353 0
M  V30 2206 C 199.528 3.78089 -3.78091 0
M  V30 2207 C 200.828 1.88577 -4.87069 0
M  V30 2208 H 202.522 0.817029 -2.88036 0
M  V30 2209 H 200.068 0.391575 -1.38574 0
M  V30 2210 H 202.021 3.24627 -2.68692 0
M  V30 2211 H 200.745 2.90532 -1.49193 0
M  V30 2212 H 199.404 1.69742 -3.24936 0
M  V30 2213 H 199.052 4.14175 -2.85426 0
M  V30 2214 H 198.752 3.71028 -4.55645 0
M  V30 2215 H 200.276 4.52387 -4.10095 0
M  V30 2216 H 201.69 2.51117 -5.15377 0
M  V30 2217 H 200.087 1.9241 -5.68417 0
M  V30 2218 H 201.157 0.84136 -4.77545 0
M  V30 2219 N 202.5 1.5196 0.417844 0
M  V30 2220 C 203.74 1.67262 1.17486 0
M  V30 2221 C 204.104 0.38983 1.88001 0
M  V30 2222 O 205.305 0.418845 2.65517 0
M  V30 2223 C 203.576 2.85526 2.14965 0
M  V30 2224 S 205.135 3.21263 2.98891 0
M  V30 2225 H 201.953 0.589077 0.398132 0
M  V30 2226 H 204.555 1.89927 0.463452 0
M  V30 2227 H 203.259 3.77145 1.61833 0
M  V30 2228 H 202.79 2.65107 2.90657 0
M  V30 2229 H 204.805 2.69208 4.16823 0
M  V30 2230 N 203.978 -0.674533 1.42435 0
M  V30 2231 C 205.208 -1.46071 1.46105 0
M  V30 2232 C 205.616 -1.89067 0.0709605 0
M  V30 2233 O 204.959 -1.58731 -0.924677 0
M  V30 2234 C 205.021 -2.74145 2.32561 0
M  V30 2235 C 204.685 -2.53224 3.8043 0
M  V30 2236 C 205.682 -2.17809 4.72075 0
M  V30 2237 C 203.367 -2.6821 4.24698 0
M  V30 2238 C 205.361 -1.97648 6.05982 0
M  V30 2239 C 203.048 -2.47665 5.58664 0
M  V30 2240 C 204.046 -2.12437 6.49122 0
M  V30 2241 O 203.734 -1.9209 7.80613 0
M  V30 2242 H 203.466 -0.455959 0.499076 0
M  V30 2243 H 206.02 -0.836193 1.87609 0
M  V30 2244 H 204.25 -3.3908 1.85908 0
M  V30 2245 H 205.939 -3.36028 2.27683 0
M  V30 2246 H 206.705 -2.05826 4.39159 0
M  V30 2247 H 202.584 -2.94609 3.54579 0
M  V30 2248 H 206.128 -1.70075 6.7655 0
M  V30 2249 H 202.025 -2.59244 5.91154 0
M  V30 2250 H 202.793 -2.06686 7.91974 0
M  V30 2251 N 205.456 -1.28612 -0.910864 0
M  V30 2252 C 206.684 -1.18792 -1.69399 0
M  V30 2253 C 207.099 0.253039 -1.87097 0
M  V30 2254 O 206.456 1.17071 -1.40003 0
M  V30 2255 C 206.507 -1.88511 -3.08457 0
M  V30 2256 O 206.228 -3.26979 -2.91576 0
M  V30 2257 C 207.729 -1.85029 -4.02839 0
M  V30 2258 H 204.949 -0.412233 -0.529438 0
M  V30 2259 H 207.493 -1.69788 -1.13984 0
M  V30 2260 H 205.648 -1.41379 -3.60681 0
M  V30 2261 H 206.062 -3.61936 -3.79608 0
M  V30 2262 H 207.536 -2.38395 -4.97867 0
M  V30 2263 H 208.013 -0.823303 -4.31414 0
M  V30 2264 H 208.619 -2.31853 -3.56545 0
M  V30 2265 N 206.934 1.1197 -1.10907 0
M  V30 2266 C 207.897 2.16031 -0.765707 0
M  V30 2267 C 208.897 1.59393 0.212235 0
M  V30 2268 O 210.087 1.74196 -0.0115441 0
M  V30 2269 C 207.219 3.40632 -0.135053 0
M  V30 2270 H 208.412 2.47919 -1.68748 0
M  V30 2271 H 205.965 1.27061 -0.910226 0
M  V30 2272 H 206.7 3.14348 0.797218 0
M  V30 2273 H 206.485 3.8302 -0.838937 0
M  V30 2274 H 207.975 4.17505 0.0892469 0
M  V30 2275 N 208.412 0.89855 1.29475 0
M  V30 2276 C 209.375 0.380272 2.26023 0
M  V30 2277 C 210.375 -0.484891 1.53315 0
M  V30 2278 O 211.565 -0.290108 1.71767 0
M  V30 2279 C 208.697 -0.45651 3.3783 0
M  V30 2280 H 209.89 1.23295 2.73383 0
M  V30 2281 H 207.443 0.676589 1.40897 0
M  V30 2282 H 208.178 -1.32922 2.95808 0
M  V30 2283 H 207.963 0.163393 3.91759 0
M  V30 2284 H 209.453 -0.810466 4.0966 0
M  V30 2285 N 209.89 -1.43072 0.660911 0
M  V30 2286 C 211.13 -2.03596 0.181146 0
M  V30 2287 C 211.494 -1.51057 -1.18515 0
M  V30 2288 O 212.695 -2.03275 -1.75877 0
M  V30 2289 C 210.966 -3.56845 0.19911 0
M  V30 2290 S 212.525 -4.38289 -0.211684 0
M  V30 2291 H 209.343 -0.706954 0.0757479 0
M  V30 2292 H 211.945 -1.75027 0.870965 0
M  V30 2293 H 210.649 -3.92583 1.1961 0
M  V30 2294 H 210.18 -3.90067 -0.510996 0
M  V30 2295 H 212.195 -4.74583 -1.44863 0
M  V30 2296 N 211.368 -0.403325 -1.52352 0
M  V30 2297 C 212.596 0.174012 -2.06167 0
M  V30 2298 C 213.011 1.39347 -1.27388 0
M  V30 2299 O 212.368 1.79597 -0.324201 0
M  V30 2300 C 212.419 0.530223 -3.5759 0
M  V30 2301 O 212.14 -0.640806 -4.33388 0
M  V30 2302 C 213.641 1.16192 -4.27802 0
M  V30 2303 H 210.861 0.0229464 -0.670608 0
M  V30 2304 H 213.405 -0.572604 -1.9632 0
M  V30 2305 H 211.56 1.22673 -3.67464 0
M  V30 2306 H 211.974 -0.344851 -5.23365 0
M  V30 2307 H 213.448 1.36141 -5.34948 0
M  V30 2308 H 213.925 2.13335 -3.83907 0
M  V30 2309 H 214.531 0.505775 -4.22282 0
M  V30 2310 N 212.846 1.57033 -0.133567 0
M  V30 2311 C 213.794 2.17348 0.828412 0
M  V30 2312 C 214.788 1.12671 1.26498 0
M  V30 2313 O 215.994 1.30947 1.23502 0
M  V30 2314 H 212.369 0.695775 0.285309 0
M  V30 2315 H 214.34 2.96935 0.295372 0
M  V30 2316 C 213.089 2.79893 2.06289 0
M  V30 2317 H 212.412 3.60147 1.73592 0
M  V30 2318 H 213.852 3.25615 2.71572 0
M  V30 2319 C 212.311 1.77713 2.86216 0
M  V30 2320 O 212.841 1.23937 3.82103 0
M  V30 2321 N 211.047 1.47321 2.50489 0
M  V30 2322 H 210.594 1.91243 1.7258 0
M  V30 2323 H 210.552 0.79199 3.04261 0
M  V30 2324 N 214.325 -0.140222 1.56975 0
M  V30 2325 C 215.553 -0.866437 1.87884 0
M  V30 2326 C 215.968 -1.74428 0.722517 0
M  V30 2327 O 215.325 -1.79891 -0.30749 0
M  V30 2328 C 215.376 -1.71753 3.18093 0
M  V30 2329 O 215.097 -0.875056 4.29272 0
M  V30 2330 C 216.598 -2.55074 3.62563 0
M  V30 2331 H 213.818 -0.25019 0.622612 0
M  V30 2332 H 216.362 -0.130977 2.0408 0
M  V30 2333 H 214.517 -2.40598 3.03631 0
M  V30 2334 H 214.931 -1.46002 5.03769 0
M  V30 2335 H 216.405 -3.10356 4.5649 0
M  V30 2336 H 216.882 -3.31434 2.88181 0
M  V30 2337 H 217.488 -1.91509 3.79743 0
M  V30 2338 N 215.803 -1.52179 -0.40978 0
M  V30 2339 C 217.028 -1.70347 -1.18308 0
M  V30 2340 C 217.453 -0.411887 -1.83535 0
M  V30 2341 O 216.811 0.630587 -1.6998 0
M  V30 2342 C 216.859 -2.83977 -2.22238 0
M  V30 2343 O 215.963 -2.495 -3.28365 0
M  V30 2344 H 215.304 -0.567103 -0.345384 0
M  V30 2345 H 217.834 -1.98879 -0.480445 0
M  V30 2346 H 217.844 -3.0887 -2.66577 0
M  V30 2347 H 216.519 -3.77685 -1.74146 0
M  V30 2348 H 215.096 -2.35277 -2.89308 0
M  V30 2349 N 217.281 0.66697 -1.42791 0
M  V30 2350 C 218.521 1.43892 -1.4517 0
M  V30 2351 C 218.885 1.91877 -0.0687551 0
M  V30 2352 O 220.086 2.6878 0.0327455 0
M  V30 2353 C 218.357 2.59839 -2.45395 0
M  V30 2354 S 219.916 3.48572 -2.66539 0
M  V30 2355 H 216.734 0.491356 -0.513897 0
M  V30 2356 H 219.336 0.775656 -1.79454 0
M  V30 2357 H 218.04 2.22838 -3.44632 0
M  V30 2358 H 217.571 3.3103 -2.12562 0
M  V30 2359 H 219.586 4.56094 -1.95429 0
M  V30 2360 N 218.759 1.29093 0.90403 0
M  V30 2361 C 219.984 1.19809 1.69294 0
M  V30 2362 C 220.409 -0.238481 1.86582 0
M  V30 2363 O 219.767 -1.1723 1.383 0
M  V30 2364 C 219.815 1.91202 3.05736 0
M  V30 2365 O 218.919 1.22611 3.93752 0
M  V30 2366 H 218.26 0.415385 0.518027 0
M  V30 2367 H 220.79 1.70586 1.12967 0
M  V30 2368 H 220.8 1.99487 3.55906 0
M  V30 2369 H 219.475 2.95692 2.92471 0
M  V30 2370 H 218.052 1.22554 3.52186 0
M  V30 2371 N 220.237 -1.11381 1.11499 0
M  V30 2372 C 221.485 -1.8277 0.862524 0
M  V30 2373 C 221.806 -1.85097 -0.613534 0
M  V30 2374 O 221.076 -1.32198 -1.4457 0
M  V30 2375 H 219.656 -0.676823 0.316101 0
M  V30 2376 H 222.318 -1.34816 1.4075 0
M  V30 2377 H 221.414 -2.86614 1.23527 0
M  V30 2378 N 221.715 -0.905404 -1.28997 0
M  V30 2379 C 222.665 -0.358713 -2.25161 0
M  V30 2380 C 223.649 0.524449 -1.52113 0
M  V30 2381 O 224.841 0.365534 -1.73184 0
M  V30 2382 C 221.97 0.407609 -3.40872 0
M  V30 2383 C 221.056 -0.490797 -4.21251 0
M  V30 2384 N 221.447 -1.60061 -4.79806 0
M  V30 2385 C 219.745 -0.289636 -4.45059 0
M  V30 2386 C 220.446 -2.15757 -5.40207 0
M  V30 2387 N 219.422 -1.44988 -5.23908 0
M  V30 2388 H 223.224 -1.20642 -2.67998 0
M  V30 2389 H 220.738 -0.757103 -1.43672 0
M  V30 2390 H 222.735 0.816046 -4.08835 0
M  V30 2391 H 221.395 1.25251 -2.9957 0
M  V30 2392 H 222.406 -1.98329 -4.7842 0
M  V30 2393 H 219.083 0.51643 -4.14294 0
M  V30 2394 H 220.473 -3.09069 -5.96595 0
M  V30 2395 N 223.193 1.4272 -0.668489 0
M  V30 2396 C 224.441 2.01226 -0.187769 0
M  V30 2397 C 224.762 1.53092 1.2078 0
M  V30 2398 O 224.032 0.74993 1.80977 0
M  V30 2399 H 222.612 0.744041 -0.0664272 0
M  V30 2400 H 225.274 1.74723 -0.863583 0
M  V30 2401 H 224.37 3.11556 -0.184166 0
M  V30 2402 N 224.671 0.411399 1.52136 0
M  V30 2403 C 225.581 -0.419774 2.30814 0
M  V30 2404 C 226.597 -1.0515 1.38634 0
M  V30 2405 O 227.773 -1.05252 1.71709 0
M  V30 2406 C 224.838 -1.52019 3.11594 0
M  V30 2407 C 223.899 -0.91129 4.19516 0
M  V30 2408 C 223.132 -1.95927 4.96436 0
M  V30 2409 O 223.355 -3.17775 4.73683 0
M  V30 2410 O 222.289 -1.56423 5.81219 0
M  V30 2411 H 226.115 0.221805 3.02889 0
M  V30 2412 H 223.7 0.174547 1.48377 0
M  V30 2413 H 225.582 -2.15898 3.61892 0
M  V30 2414 H 224.257 -2.14633 2.42311 0
M  V30 2415 H 223.164 -0.235157 3.7336 0
M  V30 2416 H 224.497 -0.32904 4.91099 0
M  V30 2417 N 226.149 -1.5696 0.141893 0
M  V30 2418 C 227.389 -1.9785 -0.513304 0
M  V30 2419 C 227.753 -1.02467 -1.62371 0
M  V30 2420 O 228.954 -1.32382 -2.33941 0
M  V30 2421 C 227.225 -3.42797 -1.01118 0
M  V30 2422 S 228.784 -4.05709 -1.67169 0
M  V30 2423 H 225.602 -0.691318 -0.166135 0
M  V30 2424 H 228.204 -1.94114 0.232398 0
M  V30 2425 H 226.908 -4.0995 -0.192179 0
M  V30 2426 H 226.439 -3.50235 -1.79162 0
M  V30 2427 H 228.454 -3.98342 -2.95868 0
M  V30 2428 N 227.627 0.131896 -1.57047 0
M  V30 2429 C 228.873 0.843179 -1.84441 0
M  V30 2430 C 229.206 1.80129 -0.725749 0
M  V30 2431 O 228.481 1.92624 0.269469 0
M  V30 2432 C 228.764 1.60442 -3.22382 0
M  V30 2433 C 228.617 0.666782 -4.4483 0
M  V30 2434 C 229.936 2.56354 -3.5773 0
M  V30 2435 H 227.055 0.305081 -0.670891 0
M  V30 2436 H 229.697 0.107839 -1.89694 0
M  V30 2437 H 227.847 2.23128 -3.18035 0
M  V30 2438 H 229.519 0.0497646 -4.61273 0
M  V30 2439 H 227.762 -0.022609 -4.33794 0
M  V30 2440 H 228.433 1.23579 -5.37989 0
M  V30 2441 H 230.909 2.0378 -3.62785 0
M  V30 2442 H 229.785 3.06657 -4.5525 0
M  V30 2443 H 230.046 3.38419 -2.84473 0
M  V30 2444 N 229.106 1.52395 0.401703 0
M  V30 2445 C 230.016 1.7917 1.51444 0
M  V30 2446 C 231.032 0.677691 1.6026 0
M  V30 2447 O 232.208 0.963909 1.76835 0
M  V30 2448 C 229.273 1.94347 2.87107 0
M  V30 2449 C 228.334 3.18257 2.88116 0
M  V30 2450 C 227.567 3.32701 4.17308 0
M  V30 2451 O 227.79 2.52238 5.11598 0
M  V30 2452 O 226.724 4.25891 4.25324 0
M  V30 2453 H 230.55 2.73633 1.31752 0
M  V30 2454 H 228.135 1.3733 0.588296 0
M  V30 2455 H 230.017 2.06109 3.67555 0
M  V30 2456 H 228.692 1.03073 3.06851 0
M  V30 2457 H 227.599 3.11947 2.06494 0
M  V30 2458 H 228.932 4.09336 2.73322 0
M  V30 2459 N 230.584 -0.659388 1.43143 0
M  V30 2460 C 231.812 -1.44723 1.47861 0
M  V30 2461 C 232.227 -1.88563 0.0945886 0
M  V30 2462 O 231.584 -1.59108 -0.893915 0
M  V30 2463 C 231.635 -2.68627 2.41913 0
M  V30 2464 O 231.356 -2.26623 3.74932 0
M  V30 2465 C 232.857 -3.62045 2.55809 0
M  V30 2466 H 230.077 -0.444801 0.502387 0
M  V30 2467 H 232.621 -0.808916 1.87821 0
M  V30 2468 H 230.776 -3.28613 2.05164 0
M  V30 2469 H 231.19 -3.06745 4.2545 0
M  V30 2470 H 232.664 -4.45666 3.25708 0
M  V30 2471 H 233.141 -4.08981 1.60099 0
M  V30 2472 H 233.747 -3.07944 2.93344 0
M  V30 2473 N 232.062 -1.29571 -0.897171 0
M  V30 2474 C 233.311 -1.1706 -1.64256 0
M  V30 2475 C 233.624 0.276476 -1.93636 0
M  V30 2476 O 234.83 0.52294 -2.66416 0
M  V30 2477 C 233.286 -2.0475 -2.95982 0
M  V30 2478 C 232.894 -3.54295 -2.74187 0
M  V30 2479 C 234.638 -2.0097 -3.73914 0
M  V30 2480 C 232.545 -4.34081 -4.01656 0
M  V30 2481 H 231.475 -0.43452 -0.616205 0
M  V30 2482 H 234.126 -1.54229 -0.994268 0
M  V30 2483 H 232.508 -1.60452 -3.62038 0
M  V30 2484 H 233.682 -4.06662 -2.1671 0
M  V30 2485 H 231.997 -3.59773 -2.09648 0
M  V30 2486 H 234.594 -2.57838 -4.68427 0
M  V30 2487 H 234.937 -0.990273 -4.0435 0
M  V30 2488 H 235.47 -2.43325 -3.14703 0
M  V30 2489 H 232.209 -5.36671 -3.76384 0
M  V30 2490 H 231.729 -3.86483 -4.58684 0
M  V30 2491 H 233.408 -4.44877 -4.69781 0
M  V30 2492 N 233.54 1.10788 -1.12088 0
M  V30 2493 C 234.488 2.19111 -0.780587 0
M  V30 2494 C 235.482 1.67818 0.230961 0
M  V30 2495 O 236.688 1.79777 0.0895427 0
M  V30 2496 H 233.063 0.714477 -0.234578 0
M  V30 2497 H 235.034 2.45055 -1.70266 0
M  V30 2498 C 233.783 3.46818 -0.24747 0
M  V30 2499 H 233.106 3.86646 -1.01712 0
M  V30 2500 H 234.546 4.23973 -0.0476291 0
M  V30 2501 C 233.005 3.20968 1.02378 0
M  V30 2502 O 233.535 3.42298 2.10226 0
M  V30 2503 N 231.741 2.74658 0.949271 0
M  V30 2504 H 231.288 2.57501 0.0715173 0
M  V30 2505 H 231.246 2.57739 1.80049 0
M  V30 2506 N 235.018 0.912232 1.28515 0
M  V30 2507 C 235.966 0.389597 2.29314 0
M  V30 2508 C 236.96 -0.517915 1.61289 0
M  V30 2509 O 238.166 -0.399328 1.75515 0
M  V30 2510 H 234.541 0.107386 0.744293 0
M  V30 2511 H 236.512 1.25286 2.70825 0
M  V30 2512 C 235.261 -0.356496 3.45868 0
M  V30 2513 H 234.584 0.332608 3.98414 0
M  V30 2514 H 236.024 -0.686851 4.184 0
M  V30 2515 C 234.483 -1.56383 2.98406 0
M  V30 2516 O 235.013 -2.66294 3.00749 0
M  V30 2517 N 233.219 -1.41029 2.54085 0
M  V30 2518 H 232.766 -0.516089 2.52377 0
M  V30 2519 H 232.724 -2.21939 2.22689 0
M  V30 2520 N 236.496 -1.42363 0.676048 0
M  V30 2521 C 237.726 -2.05561 0.206967 0
M  V30 2522 C 238.134 -1.50887 -1.14148 0
M  V30 2523 O 237.477 -0.643933 -1.72044 0
M  V30 2524 C 237.539 -3.5944 0.0659508 0
M  V30 2525 C 237.203 -4.36812 1.34331 0
M  V30 2526 C 238.2 -4.67383 2.27704 0
M  V30 2527 C 235.885 -4.76429 1.59125 0
M  V30 2528 C 237.879 -5.36509 3.44147 0
M  V30 2529 C 235.566 -5.45294 2.75857 0
M  V30 2530 C 236.564 -5.75259 3.68193 0
M  V30 2531 O 236.252 -6.42712 4.82883 0
M  V30 2532 H 235.984 -0.668872 0.0979084 0
M  V30 2533 H 238.538 -1.83467 0.923531 0
M  V30 2534 H 236.768 -3.80197 -0.706204 0
M  V30 2535 H 238.457 -4.0427 -0.363418 0
M  V30 2536 H 239.223 -4.37275 2.09799 0
M  V30 2537 H 235.102 -4.52498 0.881258 0
M  V30 2538 H 238.646 -5.59814 4.16238 0
M  V30 2539 H 234.543 -5.7482 2.93688 0
M  V30 2540 H 235.311 -6.61204 4.82444 0
M  V30 2541 N 237.974 -0.419461 -1.51915 0
M  V30 2542 C 239.202 0.152136 -2.0634 0
M  V30 2543 C 239.617 1.37988 -1.28859 0
M  V30 2544 O 238.974 1.79243 -0.343232 0
M  V30 2545 C 239.025 0.492266 -3.58133 0
M  V30 2546 O 238.746 -0.686736 -4.32684 0
M  V30 2547 C 240.247 1.11648 -4.2901 0
M  V30 2548 H 237.467 0.0158325 -0.670813 0
M  V30 2549 H 240.011 -0.593394 -1.95702 0
M  V30 2550 H 238.166 1.18769 -3.68745 0
M  V30 2551 H 238.58 -0.400341 -5.2297 0
M  V30 2552 H 240.054 1.3046 -5.36362 0
M  V30 2553 H 240.531 2.09251 -3.86148 0
M  V30 2554 H 241.137 0.460958 -4.22795 0
M  V30 2555 N 239.452 1.56882 -0.150215 0
M  V30 2556 C 240.692 1.98119 0.502804 0
M  V30 2557 C 241.056 1.03327 1.61826 0
M  V30 2558 O 242.257 1.33621 2.33236 0
M  V30 2559 C 240.528 3.43329 0.992988 0
M  V30 2560 S 242.087 4.0659 1.65015 0
M  V30 2561 H 238.905 0.692189 0.162467 0
M  V30 2562 H 241.507 1.93988 -0.242689 0
M  V30 2563 H 240.211 4.10046 0.170436 0
M  V30 2564 H 239.742 3.5118 1.77303 0
M  V30 2565 H 241.757 3.99906 2.93752 0
M  V30 2566 N 240.93 -0.123565 1.57115 0
M  V30 2567 C 241.877 -1.15177 2.00007 0
M  V30 2568 C 242.847 -1.41403 0.871454 0
M  V30 2569 O 244.032 -1.53346 1.13533 0
M  V30 2570 C 241.172 -2.47436 2.40561 0
M  V30 2571 C 240.285 -2.28184 3.66819 0
M  V30 2572 C 239.42 -3.53641 3.96373 0
M  V30 2573 C 238.459 -3.29528 5.15827 0
M  V30 2574 N 237.596 -4.47175 5.41275 0
M  V30 2575 H 242.436 -0.779008 2.87638 0
M  V30 2576 H 239.973 -0.373166 1.42288 0
M  V30 2577 H 241.931 -3.24584 2.62109 0
M  V30 2578 H 240.561 -2.82614 1.55978 0
M  V30 2579 H 239.613 -1.41976 3.52912 0
M  V30 2580 H 240.925 -2.0634 4.5412 0
M  V30 2581 H 240.079 -4.39209 4.18545 0
M  V30 2582 H 238.818 -3.78512 3.07538 0
M  V30 2583 H 237.823 -2.42349 4.93505 0
M  V30 2584 H 239.048 -3.06031 6.06236 0
M  V30 2585 H 236.994 -4.72175 4.55397 0
M  V30 2586 H 236.911 -4.28419 6.22891 0
M  V30 2587 H 238.179 -5.3389 5.67963 0
M  V30 2588 N 242.408 -1.52605 -0.393616 0
M  V30 2589 C 243.648 -1.6911 -1.1481 0
M  V30 2590 C 244.012 -0.41969 -1.87357 0
M  V30 2591 O 245.213 -0.461034 -2.64817 0
M  V30 2592 C 243.484 -2.88909 -2.10395 0
M  V30 2593 S 245.043 -3.25977 -2.93742 0
M  V30 2594 H 241.861 -0.595337 -0.38871 0
M  V30 2595 H 244.463 -1.90641 -0.433178 0
M  V30 2596 H 243.167 -3.79672 -1.55812 0
M  V30 2597 H 242.698 -2.69698 -2.86403 0
M  V30 2598 H 244.713 -2.75806 -4.12487 0
M  V30 2599 N 243.887 0.651787 -1.4349 0
M  V30 2600 C 245.164 1.40909 -1.35661 0
M  V30 2601 C 245.544 2.11099 -0.00511733 0
M  V30 2602 O 244.892 2.04892 1.0115 0
M  V30 2603 C 245.102 2.3926 -2.54078 0
M  V30 2604 C 246.45 3.03217 -2.97228 0
M  V30 2605 O 247.474 2.49588 -2.54135 0
M  V30 2606 O 246.333 4.00455 -3.71885 0
M  V30 2607 H 243.427 0.629625 -0.536191 0
M  V30 2608 H 245.973 0.678575 -1.55542 0
M  V30 2609 H 244.745 1.86352 -3.44076 0
M  V30 2610 H 244.368 3.1976 -2.36303 0
M  V30 2611 N 245.365 1.30045 0.890287 0
M  V30 2612 C 246.776 1.16738 1.45702 0
M  V30 2613 C 247.127 -0.233939 1.948 0
M  V30 2614 O 246.252 -1.13021 1.84541 0
M  V30 2615 C 246.847 2.11313 2.64825 0
M  V30 2616 C 245.406 2.02001 3.17604 0
M  V30 2617 C 244.553 2.01699 1.90296 0
M  V30 2618 H 247.504 1.42392 0.700726 0
M  V30 2619 H 247.525 1.69086 3.40867 0
M  V30 2620 H 247.037 3.13294 2.2906 0
M  V30 2621 H 245.138 1.03142 3.5804 0
M  V30 2622 H 245.251 2.90128 3.81264 0
M  V30 2623 H 243.615 1.46427 2.08402 0
M  V30 2624 H 244.398 3.05402 1.56795 0
M  V30 2625 N 246.843 -1.10192 1.12674 0
M  V30 2626 C 248.091 -1.81845 0.881861 0
M  V30 2627 C 248.412 -1.85737 -0.593867 0
M  V30 2628 O 247.682 -1.33724 -1.4316 0
M  V30 2629 H 246.262 -0.673432 0.323261 0
M  V30 2630 H 248.924 -1.33316 1.42172 0
M  V30 2631 H 248.02 -2.85288 1.2656 0
M  V30 2632 N 248.321 -0.919034 -1.28029 0
M  V30 2633 C 249.568 -0.554934 -1.94748 0
M  V30 2634 C 249.896 0.90231 -1.72304 0
M  V30 2635 O 249.151 1.65767 -1.04018 0
M  V30 2636 C 249.45 -0.816855 -3.4794 0
M  V30 2637 C 249.116 -2.25448 -3.90492 0
M  V30 2638 C 247.778 -2.64752 -4.01821 0
M  V30 2639 C 250.13 -3.18977 -4.12193 0
M  V30 2640 C 247.458 -3.96727 -4.32232 0
M  V30 2641 C 249.81 -4.50523 -4.44086 0
M  V30 2642 C 248.474 -4.89673 -4.53626 0
M  V30 2643 H 247.744 -0.203065 -0.712633 0
M  V30 2644 H 250.391 -1.16136 -1.52265 0
M  V30 2645 H 248.696 -0.127677 -3.91592 0
M  V30 2646 H 250.393 -0.514238 -3.97689 0
M  V30 2647 H 246.983 -1.93952 -3.82205 0
M  V30 2648 H 251.167 -2.89817 -4.02889 0
M  V30 2649 H 246.423 -4.26754 -4.37825 0
M  V30 2650 H 250.597 -5.23005 -4.59825 0
M  V30 2651 H 248.224 -5.91969 -4.76946 0
M  V30 2652 N 249.799 1.42003 -0.683588 0
M  V30 2653 C 251.024 2.06265 -0.216647 0
M  V30 2654 C 251.449 1.51059 1.12083 0
M  V30 2655 O 250.807 0.632638 1.69904 0
M  V30 2656 C 250.855 3.60191 -0.171759 0
M  V30 2657 O 249.959 4.03396 0.857069 0
M  V30 2658 H 249.3 0.65502 -0.108834 0
M  V30 2659 H 251.83 1.81982 -0.935077 0
M  V30 2660 H 251.84 4.08 0.0014303 0
M  V30 2661 H 250.515 3.99743 -1.14796 0
M  V30 2662 H 249.092 3.67117 0.654208 0
M  V30 2663 N 251.277 0.427512 1.51691 0
M  V30 2664 C 252.525 -0.141948 2.01601 0
M  V30 2665 C 252.846 -1.44067 1.31414 0
M  V30 2666 O 252.116 -1.90763 0.445658 0
M  V30 2667 H 250.696 -0.0554468 0.744939 0
M  V30 2668 H 253.358 0.567968 1.86441 0
M  V30 2669 H 252.454 -0.324913 3.10404 0
M  V30 2670 N 252.755 -1.56801 0.158532 0
M  V30 2671 C 253.685 -2.20347 -0.772609 0
M  V30 2672 C 254.666 -1.15518 -1.24859 0
M  V30 2673 O 255.851 -1.43902 -1.30406 0
M  V30 2674 C 252.981 -2.83417 -2.00729 0
M  V30 2675 C 251.935 -3.94174 -1.66765 0
M  V30 2676 C 251.261 -4.44233 -2.97592 0
M  V30 2677 C 252.561 -5.14392 -0.905447 0
M  V30 2678 H 254.255 -2.98413 -0.242959 0
M  V30 2679 H 251.801 -1.43537 -0.115419 0
M  V30 2680 H 253.754 -3.26543 -2.6636 0
M  V30 2681 H 252.478 -2.02701 -2.56086 0
M  V30 2682 H 251.137 -3.51684 -1.03508 0
M  V30 2683 H 250.785 -3.60325 -3.50963 0
M  V30 2684 H 250.485 -5.18945 -2.75626 0
M  V30 2685 H 252.009 -4.90037 -3.64274 0
M  V30 2686 H 253.423 -5.5429 -1.46408 0
M  V30 2687 H 251.82 -5.9494 -0.7853 0
M  V30 2688 H 252.89 -4.84795 0.100668 0
M  V30 2689 N 254.233 0.115231 -1.57178 0
M  V30 2690 C 255.18 1.14115 -2.00615 0
M  V30 2691 C 256.15 1.40939 -0.878941 0
M  V30 2692 O 257.335 1.52741 -1.14345 0
M  V30 2693 C 254.475 2.46156 -2.4187 0
M  V30 2694 C 253.588 2.26236 -3.68024 0
M  V30 2695 C 252.723 3.51534 -3.98243 0
M  V30 2696 C 251.762 3.26787 -5.17568 0
M  V30 2697 N 250.899 4.44298 -5.43639 0
M  V30 2698 H 255.739 0.763743 -2.88047 0
M  V30 2699 H 253.276 0.365615 -1.42484 0
M  V30 2700 H 255.234 3.23189 -2.63827 0
M  V30 2701 H 253.864 2.81783 -1.57475 0
M  V30 2702 H 252.916 1.40102 -3.5366 0
M  V30 2703 H 254.228 2.03929 -4.55208 0
M  V30 2704 H 253.382 4.36984 -4.20868 0
M  V30 2705 H 252.121 3.76876 -3.09541 0
M  V30 2706 H 251.126 2.39729 -4.94783 0
M  V30 2707 H 252.351 3.02812 -6.0785 0
M  V30 2708 H 250.297 4.69754 -4.57895 0
M  V30 2709 H 250.214 4.25109 -6.25154 0
M  V30 2710 H 251.482 5.3087 -5.70786 0
M  V30 2711 N 255.711 1.52812 0.385517 0
M  V30 2712 C 256.951 1.69716 1.13911 0
M  V30 2713 C 257.315 0.42962 1.87132 0
M  V30 2714 O 258.516 0.475071 2.64569 0
M  V30 2715 C 256.787 2.90021 2.0886 0
M  V30 2716 S 258.346 3.27531 2.92009 0
M  V30 2717 H 255.164 0.59739 0.385547 0
M  V30 2718 H 257.766 1.90868 0.423061 0
M  V30 2719 H 256.47 3.80493 1.53797 0
M  V30 2720 H 256.001 2.71213 2.84969 0
M  V30 2721 H 258.016 2.77989 4.11019 0
M  V30 2722 N 257.189 -0.644168 1.43834 0
M  V30 2723 C 258.099 -1.78563 1.52159 0
M  V30 2724 C 259.115 -1.69147 0.408069 0
M  V30 2725 O 260.291 -1.90156 0.663524 0
M  V30 2726 C 257.356 -3.14888 1.45073 0
M  V30 2727 C 256.417 -3.36034 2.6717 0
M  V30 2728 C 255.65 -4.65855 2.60413 0
M  V30 2729 O 255.873 -5.45805 1.65689 0
M  V30 2730 O 254.807 -4.88918 3.5106 0
M  V30 2731 H 258.633 -1.74494 2.48567 0
M  V30 2732 H 256.218 -0.80378 1.25935 0
M  V30 2733 H 258.1 -3.96179 1.43597 0
M  V30 2734 H 256.775 -3.19528 0.518037 0
M  V30 2735 H 255.682 -2.54472 2.74217 0
M  V30 2736 H 257.015 -3.36247 3.59442 0
M  V30 2737 N 258.668 -1.30515 -0.883378 0
M  V30 2738 C 259.6 -1.12846 -1.99496 0
M  V30 2739 C 260.613 -0.0712571 -1.62644 0
M  V30 2740 O 261.802 -0.317432 -1.75655 0
M  V30 2741 C 258.902 -0.699123 -3.3161 0
M  V30 2742 C 258.075 -1.83842 -3.96889 0
M  V30 2743 C 257.134 -1.39737 -5.07307 0
M  V30 2744 O 256.16 -2.10485 -5.28852 0
M  V30 2745 N 257.362 -0.277279 -5.79837 0
M  V30 2746 H 260.127 -2.08585 -2.15203 0
M  V30 2747 H 257.688 -1.22672 -1.05656 0
M  V30 2748 H 259.68 -0.387044 -4.02845 0
M  V30 2749 H 258.25 0.166276 -3.12157 0
M  V30 2750 H 257.47 -2.31853 -3.18807 0
M  V30 2751 H 258.758 -2.60187 -4.37241 0
M  V30 2752 H 258.156 0.3122 -5.64838 0
M  V30 2753 H 256.713 -0.0246623 -6.51795 0
M  V30 2754 N 260.146 1.09593 -1.13257 0
M  V30 2755 C 261.395 1.81105 -0.887917 0
M  V30 2756 C 261.708 1.86563 0.587672 0
M  V30 2757 O 262.914 2.54367 0.949204 0
M  V30 2758 C 261.37 3.25338 -1.53895 0
M  V30 2759 C 260.978 3.28151 -3.04994 0
M  V30 2760 C 262.722 4.01617 -1.37492 0
M  V30 2761 C 260.629 4.66897 -3.6299 0
M  V30 2762 H 259.559 0.678661 -0.328534 0
M  V30 2763 H 262.21 1.23183 -1.36008 0
M  V30 2764 H 260.592 3.8331 -0.994446 0
M  V30 2765 H 261.766 2.79953 -3.66009 0
M  V30 2766 H 260.081 2.65361 -3.20893 0
M  V30 2767 H 262.678 5.04119 -1.78235 0
M  V30 2768 H 263.021 4.15072 -0.31957 0
M  V30 2769 H 263.554 3.50082 -1.88912 0
M  V30 2770 H 260.293 4.58643 -4.68323 0
M  V30 2771 H 259.813 5.15426 -3.06752 0
M  V30 2772 H 261.492 5.3587 -3.62563 0
M  V30 2773 N 261.624 0.925811 1.2754 0
M  V30 2774 C 262.87 0.566092 1.94739 0
M  V30 2775 C 263.203 -0.890057 1.72603 0
M  V30 2776 O 262.478 -1.63467 1.05399 0
M  V30 2777 C 262.761 0.89054 3.48915 0
M  V30 2778 C 262.614 2.4003 3.80402 0
M  V30 2779 C 263.933 0.395101 4.38323 0
M  V30 2780 H 261.052 0.20714 0.707292 0
M  V30 2781 H 263.694 1.15725 1.50691 0
M  V30 2782 H 261.844 0.387452 3.86563 0
M  V30 2783 H 263.516 2.97494 3.52555 0
M  V30 2784 H 261.759 2.85028 3.2702 0
M  V30 2785 H 262.43 2.57785 4.8811 0
M  V30 2786 H 264.906 0.826241 4.07814 0
M  V30 2787 H 263.782 0.651086 5.45025 0
M  V30 2788 H 264.043 -0.704798 4.36446 0
M  V30 2789 N 263.102 -1.41638 0.69111 0
M  V30 2790 C 264.05 -2.32597 0.0115199 0
M  V30 2791 C 265.044 -1.5072 -0.773296 0
M  V30 2792 O 266.25 -1.66685 -0.67942 0
M  V30 2793 H 262.625 -0.751849 -0.0150746 0
M  V30 2794 H 264.596 -2.87593 0.795791 0
M  V30 2795 C 263.345 -3.35467 -0.914172 0
M  V30 2796 H 262.668 -3.9852 -0.319687 0
M  V30 2797 H 264.108 -4.01662 -1.35808 0
M  V30 2798 C 262.567 -2.69004 -2.02826 0
M  V30 2799 O 263.097 -2.53444 -3.11655 0
M  V30 2800 N 261.303 -2.2777 -1.80469 0
M  V30 2801 H 260.85 -2.40626 -0.919615 0
M  V30 2802 H 260.808 -1.83635 -2.55197 0
M  V30 2803 N 264.58 -0.43555 -1.51462 0
M  V30 2804 C 265.82 0.130708 -2.03982 0
M  V30 2805 C 266.184 1.40117 -1.31268 0
M  V30 2806 O 267.385 2.04755 -1.74152 0
M  V30 2807 C 265.656 0.346102 -3.5572 0
M  V30 2808 S 267.215 0.876022 -4.29967 0
M  V30 2809 H 264.033 0.0326881 -0.710248 0
M  V30 2810 H 266.635 -0.594544 -1.8624 0
M  V30 2811 H 265.339 -0.584911 -4.0621 0
M  V30 2812 H 264.87 1.09849 -3.77752 0
M  V30 2813 H 266.885 2.15379 -4.47019 0
M  V30 2814 N 266.058 1.56714 -0.166846 0
M  V30 2815 C 267.286 2.0112 0.485644 0
M  V30 2816 C 267.701 1.04705 1.57106 0
M  V30 2817 O 267.058 0.0471923 1.82439 0
M  V30 2818 C 267.109 3.45361 1.06808 0
M  V30 2819 O 266.83 4.38092 0.0259995 0
M  V30 2820 C 268.331 4.05145 1.79924 0
M  V30 2821 H 265.551 0.65931 0.124704 0
M  V30 2822 H 268.095 2.02746 -0.267262 0
M  V30 2823 H 266.25 3.44524 1.7715 0
M  V30 2824 H 266.664 5.22519 0.455398 0
M  V30 2825 H 268.138 5.08009 2.15942 0
M  V30 2826 H 268.615 3.46982 2.69258 0
M  V30 2827 H 269.221 4.09672 1.14234 0
M  V30 2828 N 267.536 -0.106894 1.57237 0
M  V30 2829 C 268.499 -1.11466 2.0027 0
M  V30 2830 C 269.499 -1.33623 0.894519 0
M  V30 2831 O 270.689 -1.29935 1.16028 0
M  V30 2832 C 267.821 -2.46646 2.35327 0
M  V30 2833 H 269.014 -0.744516 2.90512 0
M  V30 2834 H 266.567 -0.351576 1.52295 0
M  V30 2835 H 267.302 -2.88558 1.48003 0
M  V30 2836 H 267.087 -2.31915 3.16161 0
M  V30 2837 H 268.577 -3.19151 2.69318 0
M  V30 2838 N 269.014 -1.53014 -0.377408 0
M  V30 2839 C 269.944 -1.81589 -1.46791 0
M  V30 2840 C 270.925 -0.668622 -1.56408 0
M  V30 2841 O 272.11 -0.917337 -1.71168 0
M  V30 2842 C 269.24 -1.99519 -2.8427 0
M  V30 2843 C 268.194 -3.15249 -2.89486 0
M  V30 2844 C 267.52 -3.18451 -4.29527 0
M  V30 2845 C 268.82 -4.54084 -2.58079 0
M  V30 2846 H 270.514 -2.7291 -1.23127 0
M  V30 2847 H 268.06 -1.31319 -0.590883 0
M  V30 2848 H 270.013 -2.18092 -3.60575 0
M  V30 2849 H 268.737 -1.04897 -3.09296 0
M  V30 2850 H 267.396 -2.96477 -2.15631 0
M  V30 2851 H 267.044 -2.2149 -4.5161 0
M  V30 2852 H 266.744 -3.962 -4.33934 0
M  V30 2853 H 268.268 -3.39193 -5.07721 0
M  V30 2854 H 269.682 -4.72899 -3.24098 0
M  V30 2855 H 268.079 -5.33987 -2.7382 0
M  V30 2856 H 269.149 -4.60006 -1.53372 0
M  V30 2857 N 270.492 0.636531 -1.44174 0
M  V30 2858 C 271.402 1.77754 -1.53103 0
M  V30 2859 C 272.418 1.68928 -0.417034 0
M  V30 2860 O 273.594 1.89801 -0.6736 0
M  V30 2861 C 270.659 3.14115 -1.46741 0
M  V30 2862 C 269.72 3.34612 -2.68948 0
M  V30 2863 C 268.953 4.64467 -2.6288 0
M  V30 2864 O 269.176 5.44919 -1.68581 0
M  V30 2865 O 268.11 4.87049 -3.53648 0
M  V30 2866 H 271.936 1.73174 -2.49489 0
M  V30 2867 H 269.521 0.79709 -1.2636 0
M  V30 2868 H 271.403 3.95412 -1.45696 0
M  V30 2869 H 270.078 3.19249 -0.534975 0
M  V30 2870 H 268.985 2.53014 -2.75562 0
M  V30 2871 H 270.318 3.34336 -3.61221 0
M  V30 2872 N 271.97 1.30982 0.876444 0
M  V30 2873 C 273.195 1.23373 1.66715 0
M  V30 2874 C 273.62 -0.19885 1.87046 0
M  V30 2875 O 272.978 -1.1427 1.40756 0
M  V30 2876 C 273.026 1.97644 3.01611 0
M  V30 2877 O 272.13 1.30935 3.91062 0
M  V30 2878 H 271.471 0.426279 0.509099 0
M  V30 2879 H 274.001 1.72944 1.09323 0
M  V30 2880 H 274.011 2.06992 3.51594 0
M  V30 2881 H 272.686 3.01829 2.86133 0
M  V30 2882 H 271.263 1.29996 3.49507 0
M  V30 2883 N 273.449 -1.08991 1.13837 0
M  V30 2884 C 274.86 -1.62746 0.914917 0
M  V30 2885 C 275.211 -1.88403 -0.547594 0
M  V30 2886 O 274.336 -1.63706 -1.41525 0
M  V30 2887 C 274.931 -2.95662 1.65437 0
M  V30 2888 C 273.49 -3.46225 1.47666 0
M  V30 2889 C 272.637 -2.20562 1.6807 0
M  V30 2890 H 275.588 -0.922946 1.29102 0
M  V30 2891 H 275.609 -3.63825 1.11407 0
M  V30 2892 H 275.121 -2.76956 2.71877 0
M  V30 2893 H 273.222 -3.70046 0.435478 0
M  V30 2894 H 273.335 -4.23368 2.24268 0
M  V30 2895 H 271.699 -2.29439 1.10589 0
M  V30 2896 H 272.482 -2.0437 2.7584 0
M  V30 2897 N 274.927 -0.932562 -1.27047 0
M  V30 2898 C 275.837 -0.441219 -2.30414 0
M  V30 2899 C 276.853 0.480525 -1.67233 0
M  V30 2900 O 278.029 0.362151 -1.98117 0
M  V30 2901 C 275.094 0.293651 -3.45454 0
M  V30 2902 C 274.155 -0.663601 -4.2414 0
M  V30 2903 C 273.388 0.0362932 -5.33688 0
M  V30 2904 O 273.611 1.2548 -5.56427 0
M  V30 2905 O 272.545 -0.638015 -5.98509 0
M  V30 2906 H 276.371 -1.29962 -2.74488 0
M  V30 2907 H 273.956 -0.6981 -1.32087 0
M  V30 2908 H 275.838 0.707951 -4.15411 0
M  V30 2909 H 274.513 1.12758 -3.03426 0
M  V30 2910 H 273.42 -1.12768 -3.56699 0
M  V30 2911 H 274.753 -1.46489 -4.69896 0
M  V30 2912 N 276.405 1.4127 -0.698611 0
M  V30 2913 C 277.355 2.27997 -0.0119836 0
M  V30 2914 C 278.339 1.42363 0.749765 0
M  V30 2915 O 279.531 1.65607 0.624758 0
M  V30 2916 C 276.66 3.30702 0.921458 0
M  V30 2917 C 275.746 4.23814 0.155796 0
M  V30 2918 N 276.137 4.98572 -0.852015 0
M  V30 2919 C 274.435 4.44284 0.390836 0
M  V30 2920 C 275.136 5.66744 -1.3106 0
M  V30 2921 N 274.112 5.39867 -0.635944 0
M  V30 2922 H 277.914 2.83232 -0.784649 0
M  V30 2923 H 275.428 1.53518 -0.529711 0
M  V30 2924 H 277.425 3.91661 1.42854 0
M  V30 2925 H 276.085 2.77028 1.69369 0
M  V30 2926 H 277.096 5.03024 -1.23235 0
M  V30 2927 H 273.773 4.01614 1.14071 0
M  V30 2928 H 275.163 6.36672 -2.14707 0
M  V30 2929 N 277.883 0.443576 1.51229 0
M  V30 2930 C 279.131 -0.120557 2.0174 0
M  V30 2931 C 279.452 -1.42665 1.32935 0
M  V30 2932 O 278.722 -1.9028 0.465866 0
M  V30 2933 H 277.302 -0.0475426 0.745486 0
M  V30 2934 H 279.964 0.587711 1.85828 0
M  V30 2935 H 279.06 -0.291972 3.10731 0
M  V30 2936 N 279.361 -1.56624 0.175154 0
M  V30 2937 C 280.586 -2.01813 -0.478137 0
M  V30 2938 C 281.011 -1.05457 -1.55757 0
M  V30 2939 O 280.369 -0.0347439 -1.81267 0
M  V30 2940 C 280.417 -3.45581 -1.02987 0
M  V30 2941 O 279.521 -3.52305 -2.14371 0
M  V30 2942 H 278.862 -0.65413 -0.114059 0
M  V30 2943 H 281.392 -2.02673 0.280173 0
M  V30 2944 H 281.402 -3.84965 -1.35151 0
M  V30 2945 H 280.077 -4.1521 -0.239556 0
M  V30 2946 H 278.654 -3.24783 -1.83222 0
M  V30 2947 N 280.839 0.0985539 -1.57292 0
M  V30 2948 C 281.769 1.12064 -2.04851 0
M  V30 2949 C 282.75 1.41981 -0.936767 0
M  V30 2950 O 283.935 1.52071 -1.20781 0
M  V30 2951 C 281.065 2.44144 -2.47004 0
M  V30 2952 C 280.019 2.28643 -3.6181 0
M  V30 2953 C 279.345 3.65869 -3.89929 0
M  V30 2954 C 280.645 1.72986 -4.92822 0
M  V30 2955 H 282.339 0.724979 -2.9049 0
M  V30 2956 H 279.885 0.34729 -1.39749 0
M  V30 2957 H 281.838 3.15914 -2.78884 0
M  V30 2958 H 280.562 2.85639 -1.5836 0
M  V30 2959 H 279.221 1.59318 -3.30172 0
M  V30 2960 H 278.869 4.04885 -2.98458 0
M  V30 2961 H 278.569 3.56344 -4.67218 0
M  V30 2962 H 280.093 4.39112 -4.2428 0
M  V30 2963 H 281.507 2.34593 -5.23105 0
M  V30 2964 H 279.904 1.74229 -5.74251 0
M  V30 2965 H 280.974 0.689007 -4.7998 0
M  V30 2966 N 282.317 1.53212 0.369288 0
M  V30 2967 C 283.563 1.69466 1.11397 0
M  V30 2968 C 283.896 0.443257 1.89074 0
M  V30 2969 O 283.171 -0.559386 1.86282 0
M  V30 2970 C 283.454 2.9422 2.07621 0
M  V30 2971 C 283.307 4.29508 1.33577 0
M  V30 2972 C 284.626 3.14565 3.07794 0
M  V30 2973 H 281.745 0.616667 0.403597 0
M  V30 2974 H 284.387 1.85845 0.395179 0
M  V30 2975 H 282.537 2.80387 2.68916 0
M  V30 2976 H 284.209 4.55147 0.750955 0
M  V30 2977 H 282.452 4.29088 0.637618 0
M  V30 2978 H 283.123 5.12926 2.03989 0
M  V30 2979 H 285.599 3.2756 2.56601 0
M  V30 2980 H 284.475 4.03297 3.72348 0
M  V30 2981 H 284.736 2.29675 3.77759 0
M  V30 2982 N 283.795 -0.628877 1.44509 0
M  V30 2983 C 285.035 -1.39993 1.48934 0
M  V30 2984 C 285.399 -1.91627 0.119604 0
M  V30 2985 O 286.6 -2.68772 0.0385283 0
M  V30 2986 C 284.871 -2.53241 2.52198 0
M  V30 2987 S 286.43 -3.41383 2.75687 0
M  V30 2988 H 283.248 -0.477558 0.526744 0
M  V30 2989 H 285.85 -0.727804 1.81448 0
M  V30 2990 H 284.554 -2.13622 3.50419 0
M  V30 2991 H 284.085 -3.25278 2.21264 0
M  V30 2992 H 286.1 -4.50752 2.07453 0
M  V30 2993 N 285.273 -1.31445 -0.869486 0
M  V30 2994 C 286.498 -1.24256 -1.66058 0
M  V30 2995 C 286.923 0.188928 -1.87149 0
M  V30 2996 O 286.281 1.13522 -1.4136 0
M  V30 2997 C 286.329 -1.9924 -3.00559 0
M  V30 2998 O 285.433 -1.33007 -3.90362 0
M  V30 2999 H 284.774 -0.428973 -0.506831 0
M  V30 3000 H 287.304 -1.73521 -1.08404 0
M  V30 3001 H 287.314 -2.08854 -3.50491 0
M  V30 3002 H 285.989 -3.03342 -2.84528 0
M  V30 3003 H 284.566 -1.31848 -3.48813 0
M  V30 3004 N 286.751 1.08385 -1.14413 0
M  V30 3005 C 287.701 2.13509 -0.79987 0
M  V30 3006 C 288.685 1.5951 0.211059 0
M  V30 3007 O 289.877 1.76995 0.0133694 0
M  V30 3008 C 287.006 3.42162 -0.279297 0
M  V30 3009 C 286.092 4.03042 -1.31976 0
M  V30 3010 N 286.483 4.38327 -2.52395 0
M  V30 3011 C 284.781 4.30379 -1.17004 0
M  V30 3012 C 285.482 4.86428 -3.19003 0
M  V30 3013 N 284.458 4.84547 -2.46405 0
M  V30 3014 H 288.26 2.38609 -1.7159 0
M  V30 3015 H 285.774 1.2572 -1.02802 0
M  V30 3016 H 287.771 4.16898 -0.0143688 0
M  V30 3017 H 286.431 3.18511 0.630923 0
M  V30 3018 H 287.442 4.29349 -2.89621 0
M  V30 3019 H 284.119 4.16281 -0.318854 0
M  V30 3020 H 285.509 5.23107 -4.21674 0
M  V30 3021 N 288.23 0.939286 1.26551 0
M  V30 3022 C 289.641 0.628782 1.75793 0
M  V30 3023 C 289.992 -0.856046 1.7654 0
M  V30 3024 O 289.117 -1.66994 1.3763 0
M  V30 3025 C 289.712 1.13465 3.19235 0
M  V30 3026 C 288.271 0.874601 3.66098 0
M  V30 3027 C 287.418 1.28667 2.45642 0
M  V30 3028 H 290.369 1.1178 1.12654 0
M  V30 3029 H 290.39 0.487609 3.77363 0
M  V30 3030 H 289.902 2.21535 3.1866 0
M  V30 3031 H 288.003 -0.191793 3.72106 0
M  V30 3032 H 288.116 1.50028 4.55004 0
M  V30 3033 H 286.48 0.705109 2.44745 0
M  V30 3034 H 287.263 2.37625 2.47769 0
M  V30 3035 N 289.708 -1.40897 0.706093 0
M  V30 3036 C 290.638 -2.33418 0.0620085 0
M  V30 3037 C 291.619 -1.52385 -0.755827 0
M  V30 3038 O 292.804 -1.80886 -0.706674 0
M  V30 3039 C 289.934 -3.36293 -0.867445 0
M  V30 3040 C 288.888 -4.27716 -0.155932 0
M  V30 3041 C 288.214 -5.2105 -1.20046 0
M  V30 3042 C 289.514 -5.12944 0.984149 0
M  V30 3043 H 291.208 -2.87527 0.83477 0
M  V30 3044 H 288.754 -1.38249 0.402875 0
M  V30 3045 H 290.707 -3.99949 -1.32735 0
M  V30 3046 H 289.431 -2.80556 -1.67199 0
M  V30 3047 H 288.09 -3.65498 0.284047 0
M  V30 3048 H 287.738 -4.61624 -1.99781 0
M  V30 3049 H 287.438 -5.83056 -0.729328 0
M  V30 3050 H 288.962 -5.87584 -1.66066 0
M  V30 3051 H 290.376 -5.70109 0.604048 0
M  V30 3052 H 288.773 -5.83945 1.38304 0
M  V30 3053 H 289.843 -4.49485 1.81911 0
M  V30 3054 N 291.186 -0.45159 -1.50991 0
M  V30 3055 C 292.434 0.109857 -2.01801 0
M  V30 3056 C 292.755 1.41958 -1.3369 0
M  V30 3057 O 292.025 1.9003 -0.475951 0
M  V30 3058 H 290.605 0.0435884 -0.745727 0
M  V30 3059 H 293.267 -0.597557 -1.85514 0
M  V30 3060 H 292.363 0.275489 -3.10882 0
M  V30 3061 N 292.664 1.56529 -0.183458 0
M  V30 3062 C 293.612 2.19873 0.758845 0
M  V30 3063 C 294.606 1.16638 1.22849 0
M  V30 3064 O 295.812 1.3481 1.19274 0
M  V30 3065 H 292.187 0.7045 0.263029 0
M  V30 3066 H 294.158 2.97724 0.200755 0
M  V30 3067 C 292.907 2.86314 1.9728 0
M  V30 3068 H 292.23 3.65487 1.62047 0
M  V30 3069 H 293.67 3.3409 2.61075 0
M  V30 3070 C 292.129 1.86729 2.80418 0
M  V30 3071 O 292.659 1.36031 3.77966 0
M  V30 3072 N 290.865 1.55216 2.45675 0
M  V30 3073 H 290.412 1.96636 1.66409 0
M  V30 3074 H 290.37 0.888388 3.01588 0
M  V30 3075 N 294.142 -0.090211 1.57342 0
M  V30 3076 C 295.389 -0.792807 1.86335 0
M  V30 3077 C 295.717 -1.78494 0.772662 0
M  V30 3078 O 294.972 -1.94305 -0.233258 0
M  V30 3079 C 295.271 -1.55222 3.21933 0
M  V30 3080 C 294.937 -0.701765 4.45406 0
M  V30 3081 C 293.599 -0.467334 4.78925 0
M  V30 3082 C 295.951 -0.11086 5.21082 0
M  V30 3083 C 293.279 0.367785 5.85546 0
M  V30 3084 C 295.631 0.711609 6.28585 0
M  V30 3085 C 294.295 0.956086 6.60617 0
M  V30 3086 H 293.565 -0.290109 0.681849 0
M  V30 3087 H 296.212 -0.0541332 1.91423 0
M  V30 3088 H 294.517 -2.3626 3.12551 0
M  V30 3089 H 296.214 -2.10032 3.41595 0
M  V30 3090 H 292.804 -0.894598 4.1916 0
M  V30 3091 H 296.988 -0.279129 4.95514 0
M  V30 3092 H 292.244 0.566128 6.08773 0
M  V30 3093 H 296.418 1.17632 6.86393 0
M  V30 3094 H 294.045 1.60499 7.43064 0
M  V30 3095 N 295.62 -1.53406 -0.361157 0
M  V30 3096 C 296.845 -1.74024 -1.12829 0
M  V30 3097 C 297.27 -0.470069 -1.82132 0
M  V30 3098 O 296.628 0.57619 -1.719 0
M  V30 3099 C 296.676 -2.90903 -2.13091 0
M  V30 3100 O 295.78 -2.59821 -3.20261 0
M  V30 3101 H 295.121 -0.577804 -0.327168 0
M  V30 3102 H 297.651 -2.00307 -0.41693 0
M  V30 3103 H 297.661 -3.17194 -2.56616 0
M  V30 3104 H 296.336 -3.83034 -1.62042 0
M  V30 3105 H 294.913 -2.44362 -2.81677 0
M  V30 3106 N 297.098 0.621204 -1.44841 0
M  V30 3107 C 298.328 1.40548 -1.51426 0
M  V30 3108 C 298.736 1.88673 -0.141083 0
M  V30 3109 O 298.079 1.62053 0.865128 0
M  V30 3110 C 298.141 2.65325 -2.42576 0
M  V30 3111 C 297.805 2.3893 -3.89566 0
M  V30 3112 C 298.802 2.00138 -4.79834 0
M  V30 3113 C 296.487 2.52263 -4.3436 0
M  V30 3114 C 298.481 1.75021 -6.129 0
M  V30 3115 C 296.168 2.2676 -5.67471 0
M  V30 3116 C 297.166 1.88199 -6.56559 0
M  V30 3117 O 296.854 1.62986 -7.87204 0
M  V30 3118 H 296.586 0.437122 -0.515655 0
M  V30 3119 H 299.14 0.765987 -1.90583 0
M  V30 3120 H 297.37 3.31947 -1.98364 0
M  V30 3121 H 299.059 3.27347 -2.39998 0
M  V30 3122 H 299.825 1.89386 -4.46495 0
M  V30 3123 H 295.704 2.81246 -3.65269 0
M  V30 3124 H 299.248 1.44848 -6.82396 0
M  V30 3125 H 295.145 2.37125 -6.00368 0
M  V30 3126 H 295.913 1.7715 -7.991 0
M  V30 3127 N 298.576 1.31904 0.862503 0
M  V30 3128 C 299.524 1.20125 1.9918 0
M  V30 3129 C 300.518 0.107824 1.69056 0
M  V30 3130 O 301.724 0.270223 1.7796 0
M  V30 3131 H 298.099 0.372148 0.65346 0
M  V30 3132 H 300.07 2.15652 2.06244 0
M  V30 3133 C 298.819 0.933099 3.34946 0
M  V30 3134 H 298.142 1.76664 3.5865 0
M  V30 3135 H 299.582 0.890892 4.14535 0
M  V30 3136 C 298.041 -0.364172 3.34926 0
M  V30 3137 O 298.571 -1.37858 3.77304 0
M  V30 3138 N 296.777 -0.383362 2.8806 0
M  V30 3139 H 296.324 0.442651 2.53768 0
M  V30 3140 H 296.282 -1.25123 2.8843 0
M  V30 3141 N 300.054 -1.07777 1.14986 0
M  V30 3142 C 301.279 -1.84558 0.946213 0
M  V30 3143 C 301.704 -1.81323 -0.500362 0
M  V30 3144 O 301.062 -1.20301 -1.35637 0
M  V30 3145 C 301.11 -3.29736 1.45968 0
M  V30 3146 O 300.214 -4.07149 0.65601 0
M  V30 3147 H 299.555 -0.571641 0.33782 0
M  V30 3148 H 302.085 -1.35991 1.52865 0
M  V30 3149 H 302.095 -3.80574 1.47063 0
M  V30 3150 H 300.77 -3.31406 2.51283 0
M  V30 3151 H 299.347 -3.65994 0.714322 0
M  V30 3152 N 301.532 -0.945985 -1.26051 0
M  V30 3153 C 302.757 -0.612525 -1.98149 0
M  V30 3154 C 303.182 0.806623 -1.69927 0
M  V30 3155 O 302.54 1.54411 -0.950108 0
M  V30 3156 C 302.588 -0.866981 -3.50023 0
M  V30 3157 O 301.692 0.0585333 -4.12358 0
M  V30 3158 H 301.033 -0.23379 -0.621481 0
M  V30 3159 H 303.563 -1.27023 -1.60395 0
M  V30 3160 H 303.573 -0.789792 -4.00283 0
M  V30 3161 H 302.248 -1.90135 -3.69894 0
M  V30 3162 H 300.825 -0.0701241 -3.72834 0
M  V30 3163 N 303.011 1.40521 -0.713556 0
M  V30 3164 C 304.251 2.02783 -0.256584 0
M  V30 3165 C 304.615 1.55352 1.12827 0
M  V30 3166 O 305.816 2.09663 1.68211 0
M  V30 3167 C 304.087 3.5586 -0.331414 0
M  V30 3168 S 305.646 4.38773 0.0488703 0
M  V30 3169 H 302.464 0.703655 -0.101934 0
M  V30 3170 H 305.066 1.71674 -0.935325 0
M  V30 3171 H 303.77 3.87874 -1.34098 0
M  V30 3172 H 303.301 3.91695 0.365873 0
M  V30 3173 H 305.316 4.79633 1.2715 0
M  V30 3174 N 304.489 0.459591 1.5075 0
M  V30 3175 C 305.714 -0.0996819 2.0716 0
M  V30 3176 C 306.139 -1.33761 1.32249 0
M  V30 3177 O 305.497 -1.77551 0.366786 0
M  V30 3178 C 305.545 -0.378226 3.58611 0
M  V30 3179 O 304.649 -1.46081 3.85661 0
M  V30 3180 H 303.99 0.00791392 0.663953 0
M  V30 3181 H 306.52 0.647329 1.9409 0
M  V30 3182 H 306.53 -0.622135 4.03229 0
M  V30 3183 H 305.205 0.526439 4.12555 0
M  V30 3184 H 303.782 -1.20511 3.5289 0
M  V30 3185 N 305.967 -1.56429 0.191757 0
M  V30 3186 C 307.216 -1.9666 -0.448088 0
M  V30 3187 C 307.529 -1.08136 -1.62991 0
M  V30 3188 O 308.735 -1.38135 -2.33733 0
M  V30 3189 C 307.191 -3.49753 -0.848585 0
M  V30 3190 C 306.799 -4.46935 0.308764 0
M  V30 3191 C 308.543 -3.9876 -1.4557 0
M  V30 3192 C 306.45 -5.91293 -0.112506 0
M  V30 3193 H 305.38 -0.734312 -0.171179 0
M  V30 3194 H 308.031 -1.81301 0.283242 0
M  V30 3195 H 306.413 -3.60604 -1.63649 0
M  V30 3196 H 307.587 -4.47813 1.08627 0
M  V30 3197 H 305.902 -4.08102 0.827158 0
M  V30 3198 H 308.499 -5.04086 -1.78328 0
M  V30 3199 H 308.842 -3.42875 -2.36099 0
M  V30 3200 H 309.375 -3.9101 -0.731836 0
M  V30 3201 H 306.114 -6.51097 0.758514 0
M  V30 3202 H 305.634 -5.93676 -0.854941 0
M  V30 3203 H 307.313 -6.44663 -0.549448 0
M  V30 3204 N 307.445 0.0818655 -1.57387 0
M  V30 3205 C 308.67 0.799946 -1.91352 0
M  V30 3206 C 309.095 1.70833 -0.787258 0
M  V30 3207 O 308.453 1.79419 0.26048 0
M  V30 3208 C 308.501 1.57812 -3.24234 0
M  V30 3209 O 307.605 2.68806 -3.12757 0
M  V30 3210 H 306.946 0.21891 -0.626877 0
M  V30 3211 H 309.476 0.0531256 -2.04531 0
M  V30 3212 H 309.486 1.95952 -3.57864 0
M  V30 3213 H 308.161 0.911548 -4.05788 0
M  V30 3214 H 306.738 2.33597 -2.90666 0
M  V30 3215 N 308.923 1.53595 0.353017 0
M  V30 3216 C 310.163 1.72094 1.10286 0
M  V30 3217 C 310.527 0.469217 1.86178 0
M  V30 3218 O 311.728 0.531083 2.63501 0
M  V30 3219 C 309.999 2.94386 2.02661 0
M  V30 3220 S 311.558 3.33651 2.84996 0
M  V30 3221 H 308.376 0.605433 0.372789 0
M  V30 3222 H 310.978 1.91722 0.38248 0
M  V30 3223 H 309.682 3.83669 1.45691 0
M  V30 3224 H 309.213 2.77197 2.79152 0
M  V30 3225 H 311.228 2.86645 4.0503 0
M  V30 3226 N 310.401 -0.613514 1.45168 0
M  V30 3227 C 311.678 -1.37263 1.39349 0
M  V30 3228 C 312.058 -2.11012 0.0610848 0
M  V30 3229 O 311.406 -2.07502 -0.956825 0
M  V30 3230 C 311.616 -2.3244 2.60332 0
M  V30 3231 C 312.964 -2.9523 3.05163 0
M  V30 3232 O 313.988 -2.42762 2.60663 0
M  V30 3233 O 312.847 -3.90454 3.82372 0
M  V30 3234 H 309.941 -0.615188 0.552696 0
M  V30 3235 H 312.487 -0.637097 1.57287 0
M  V30 3236 H 311.259 -1.77164 3.48896 0
M  V30 3237 H 310.882 -3.13383 2.44698 0
M  V30 3238 N 311.879 -1.3236 -0.855495 0
M  V30 3239 C 313.295 -1.11332 -1.14356 0
M  V30 3240 C 313.495 0.106751 -2.01217 0
M  V30 3241 O 312.551 0.791891 -2.39761 0
M  V30 3242 C 313.864 -2.39237 -1.82171 0
M  V30 3243 C 315.412 -2.44986 -1.9481 0
M  V30 3244 C 315.887 -3.7281 -2.66039 0
M  V30 3245 N 317.378 -3.73787 -2.73565 0
M  V30 3246 C 318.113 -4.69394 -3.29327 0
M  V30 3247 N 317.609 -5.75367 -3.85907 0
M  V30 3248 N 319.402 -4.56893 -3.27423 0
M  V30 3249 H 311.553 -2.10586 -0.277027 0
M  V30 3250 H 313.816 -0.929701 -0.185364 0
M  V30 3251 H 313.522 -3.28431 -1.25802 0
M  V30 3252 H 313.396 -2.50134 -2.82335 0
M  V30 3253 H 315.783 -1.56252 -2.50338 0
M  V30 3254 H 315.864 -2.38043 -0.936448 0
M  V30 3255 H 315.508 -4.61918 -2.11174 0
M  V30 3256 H 315.438 -3.77024 -3.67642 0
M  V30 3257 H 317.929 -2.97189 -2.33424 0
M  V30 3258 H 318.242 -6.44378 -4.26611 0
M  V30 3259 H 316.587 -5.79123 -3.84242 0
M  V30 3260 H 319.778 -3.73269 -2.82467 0
M  V30 3261 H 319.951 -5.31577 -3.7058 0
M  V30 3262 N 313.357 1.07166 -1.15556 0
M  V30 3263 C 314.605 1.79443 -0.929764 0
M  V30 3264 C 314.926 1.87246 0.544414 0
M  V30 3265 O 314.196 1.37473 1.39564 0
M  V30 3266 H 312.776 0.664625 -0.341003 0
M  V30 3267 H 315.438 1.29499 -1.45657 0
M  V30 3268 H 314.534 2.81832 -1.34079 0
M  V30 3269 N 314.835 0.952656 1.25548 0
M  V30 3270 C 316.065 0.622592 1.96996 0
M  V30 3271 C 316.473 -0.809112 1.71026 0
M  V30 3272 O 315.816 -1.55258 0.981861 0
M  V30 3273 C 315.878 0.798946 3.5051 0
M  V30 3274 C 315.542 2.20744 4.00151 0
M  V30 3275 C 316.539 3.18394 4.11001 0
M  V30 3276 C 314.224 2.5311 4.33867 0
M  V30 3277 C 316.218 4.46504 4.54877 0
M  V30 3278 C 313.905 3.8145 4.7743 0
M  V30 3279 C 314.903 4.77959 4.87897 0
M  V30 3280 O 314.591 6.04012 5.30494 0
M  V30 3281 H 314.323 0.232503 0.634758 0
M  V30 3282 H 316.877 1.2789 1.60728 0
M  V30 3283 H 315.107 0.0854903 3.86605 0
M  V30 3284 H 316.796 0.47023 4.03167 0
M  V30 3285 H 317.562 2.94715 3.85186 0
M  V30 3286 H 313.441 1.78719 4.24948 0
M  V30 3287 H 316.985 5.21835 4.62962 0
M  V30 3288 H 312.882 4.04936 5.0269 0
M  V30 3289 H 313.65 6.0736 5.48685 0
M  V30 3290 N 316.313 -1.40141 0.720998 0
M  V30 3291 C 317.243 -2.33339 0.0867621 0
M  V30 3292 C 318.224 -1.53178 -0.739622 0
M  V30 3293 O 319.409 -1.81625 -0.687449 0
M  V30 3294 C 316.539 -3.37194 -0.831728 0
M  V30 3295 C 315.493 -4.27857 -0.110558 0
M  V30 3296 C 314.819 -5.22294 -1.14513 0
M  V30 3297 C 316.119 -5.11872 1.0385 0
M  V30 3298 H 317.813 -2.86626 0.865219 0
M  V30 3299 H 315.359 -1.37814 0.417516 0
M  V30 3300 H 317.312 -4.01335 -1.28485 0
M  V30 3301 H 316.036 -2.82314 -1.64214 0
M  V30 3302 H 314.695 -3.65176 0.322797 0
M  V30 3303 H 314.343 -4.63717 -1.94874 0
M  V30 3304 H 314.043 -5.83797 -0.667446 0
M  V30 3305 H 315.567 -5.89312 -1.59824 0
M  V30 3306 H 316.981 -5.69436 0.664482 0
M  V30 3307 H 315.378 -5.82445 1.4449 0
M  V30 3308 H 316.448 -4.4753 1.86668 0
M  V30 3309 N 317.792 -0.46758 -1.50504 0
M  V30 3310 C 319.203 -0.0116166 -1.86696 0
M  V30 3311 C 319.554 1.39202 -1.38265 0
M  V30 3312 O 318.679 2.0313 -0.746132 0
M  V30 3313 C 319.274 -0.0143044 -3.38797 0
M  V30 3314 C 317.833 0.386175 -3.74414 0
M  V30 3315 C 316.98 -0.401287 -2.74381 0
M  V30 3316 H 319.931 -0.682022 -1.43297 0
M  V30 3317 H 319.952 0.788641 -3.72237 0
M  V30 3318 H 319.464 -1.03602 -3.74016 0
M  V30 3319 H 317.565 1.41237 -3.44794 0
M  V30 3320 H 317.678 0.0899596 -4.79016 0
M  V30 3321 H 316.042 0.144536 -2.5429 0
M  V30 3322 H 316.825 -1.42244 -3.12444 0
M  V30 3323 N 319.27 1.56325 -0.20005 0
M  V30 3324 C 320.495 2.02548 0.44597 0
M  V30 3325 C 320.92 1.07922 1.5406 0
M  V30 3326 O 320.278 0.0635775 1.81188 0
M  V30 3327 C 320.326 3.47175 0.974761 0
M  V30 3328 O 319.43 3.55671 2.08739 0
M  V30 3329 H 318.771 0.655862 0.103638 0
M  V30 3330 H 321.301 2.02201 -0.312381 0
M  V30 3331 H 321.311 3.87067 1.2901 0
M  V30 3332 H 319.986 4.15538 0.17347 0
M  V30 3333 H 318.563 3.27657 1.78032 0
M  V30 3334 N 320.748 -0.0735177 1.57428 0
M  V30 3335 C 321.973 -0.789787 1.91774 0
M  V30 3336 C 322.398 -1.70413 0.796306 0
M  V30 3337 O 321.756 -1.79555 -0.250961 0
M  V30 3338 C 321.804 -1.5609 3.25067 0
M  V30 3339 O 320.908 -2.67144 3.14178 0
M  V30 3340 H 320.249 -0.215582 0.628029 0
M  V30 3341 H 322.779 -0.0422781 2.04556 0
M  V30 3342 H 322.789 -1.94052 3.58898 0
M  V30 3343 H 321.464 -0.890015 4.06265 0
M  V30 3344 H 320.041 -2.32052 2.91901 0
M  V30 3345 N 322.226 -1.5378 -0.344866 0
M  V30 3346 C 323.159 -1.7649 -1.4466 0
M  V30 3347 C 324.137 -0.613954 -1.50563 0
M  V30 3348 O 325.321 -0.84896 -1.683 0
M  V30 3349 C 322.448 -1.86235 -2.82903 0
M  V30 3350 C 321.494 -3.08375 -2.94631 0
M  V30 3351 S 322.327 -4.67457 -2.61236 0
M  V30 3352 C 323.483 -4.80079 -4.0159 0
M  V30 3353 H 323.716 -2.69661 -1.2518 0
M  V30 3354 H 321.249 -1.44632 -0.540455 0
M  V30 3355 H 323.207 -1.92535 -3.62547 0
M  V30 3356 H 321.868 -0.940786 -2.9968 0
M  V30 3357 H 321.061 -3.11865 -3.95925 0
M  V30 3358 H 320.663 -3.00294 -2.22934 0
M  V30 3359 H 322.955 -4.61407 -4.96094 0
M  V30 3360 H 323.898 -5.82168 -4.03095 0
M  V30 3361 H 324.306 -4.08544 -3.89554 0
M  V30 3362 N 323.704 0.605807 -1.45491 0
M  V30 3363 C 324.614 1.74466 -1.56839 0
M  V30 3364 C 325.63 1.68006 -0.452772 0
M  V30 3365 O 326.806 1.8833 -0.713708 0
M  V30 3366 C 323.871 3.10931 -1.53371 0
M  V30 3367 C 322.932 3.28832 -2.75986 0
M  V30 3368 C 322.165 4.58787 -2.72673 0
M  V30 3369 O 322.388 5.4122 -1.80102 0
M  V30 3370 O 321.322 4.79438 -3.63899 0
M  V30 3371 H 325.148 1.67843 -2.53106 0
M  V30 3372 H 322.733 0.770108 -1.28022 0
M  V30 3373 H 324.615 3.92233 -1.54051 0
M  V30 3374 H 323.29 3.18042 -0.602572 0
M  V30 3375 H 322.197 2.47112 -2.80867 0
M  V30 3376 H 323.53 3.26599 -3.68231 0
M  V30 3377 N 325.182 1.32811 0.848464 0
M  V30 3378 C 326.41 1.26739 1.63538 0
M  V30 3379 C 326.825 -0.163484 1.88091 0
M  V30 3380 O 326.182 -1.10258 1.45429 0
M  V30 3381 C 326.233 2.03013 2.99112 0
M  V30 3382 O 325.954 3.40518 2.75643 0
M  V30 3383 C 327.455 2.04038 3.93552 0
M  V30 3384 H 324.675 0.437024 0.509167 0
M  V30 3385 H 327.219 1.75033 1.05753 0
M  V30 3386 H 325.374 1.58426 3.53525 0
M  V30 3387 H 325.788 3.79635 3.61908 0
M  V30 3388 H 327.262 2.61877 4.85926 0
M  V30 3389 H 327.739 1.0282 4.26995 0
M  V30 3390 H 328.345 2.486 3.45077 0
M  V30 3391 N 326.66 -1.06551 1.16123 0
M  V30 3392 C 327.593 -2.13382 0.80892 0
M  V30 3393 C 328.571 -1.61128 -0.21827 0
M  V30 3394 O 329.755 -1.88219 -0.102952 0
M  V30 3395 C 326.882 -3.38083 0.204303 0
M  V30 3396 C 325.928 -4.09133 1.20469 0
M  V30 3397 S 326.761 -4.5948 2.75024 0
M  V30 3398 C 327.917 -5.87446 2.16005 0
M  V30 3399 H 328.15 -2.42937 1.71373 0
M  V30 3400 H 325.683 -1.18947 0.984428 0
M  V30 3401 H 327.641 -4.10268 -0.138081 0
M  V30 3402 H 326.302 -3.0669 -0.678234 0
M  V30 3403 H 325.495 -4.98685 0.730019 0
M  V30 3404 H 325.097 -3.4295 1.49202 0
M  V30 3405 H 327.389 -6.60065 1.5271 0
M  V30 3406 H 328.332 -6.39639 3.03756 0
M  V30 3407 H 328.74 -5.41354 1.59989 0
M  V30 3408 N 328.138 -0.959301 -1.25041 0
M  V30 3409 C 329.07 -0.440543 -2.24926 0
M  V30 3410 C 330.083 0.446131 -1.56568 0
M  V30 3411 O 331.272 0.253657 -1.76689 0
M  V30 3412 C 328.372 0.38412 -3.36716 0
M  V30 3413 C 327.545 -0.490658 -4.34639 0
M  V30 3414 C 326.604 0.276587 -5.25473 0
M  V30 3415 O 325.63 -0.326614 -5.68262 0
M  V30 3416 N 326.832 1.56844 -5.5891 0
M  V30 3417 H 329.597 -1.29931 -2.70071 0
M  V30 3418 H 327.158 -0.830181 -1.38995 0
M  V30 3419 H 329.15 0.905228 -3.94446 0
M  V30 3420 H 327.72 1.14377 -2.90924 0
M  V30 3421 H 326.94 -1.19282 -3.7572 0
M  V30 3422 H 328.228 -1.08756 -4.97041 0
M  V30 3423 H 327.626 2.08036 -5.26059 0
M  V30 3424 H 326.183 2.03541 -6.19205 0
M  V30 3425 N 329.616 1.39756 -0.72842 0
M  V30 3426 C 330.856 2.025 -0.278078 0
M  V30 3427 C 331.22 1.5654 1.11173 0
M  V30 3428 O 332.421 2.11435 1.65978 0
M  V30 3429 C 330.692 3.55489 -0.369139 0
M  V30 3430 S 332.251 4.388 0.00232983 0
M  V30 3431 H 329.069 0.702534 -0.109391 0
M  V30 3432 H 331.671 1.70672 -0.95348 0
M  V30 3433 H 330.375 3.86429 -1.38204 0
M  V30 3434 H 329.906 3.92061 0.324308 0
M  V30 3435 H 331.921 4.80954 1.22055 0
M  V30 3436 N 331.094 0.475555 1.50254 0
M  V30 3437 C 332.027 -0.362381 2.25304 0
M  V30 3438 C 333.005 -0.992393 1.28803 0
M  V30 3439 O 334.189 -1.02746 1.58036 0
M  V30 3440 C 331.316 -1.50813 3.03271 0
M  V30 3441 C 330.362 -0.995044 4.1473 0
M  V30 3442 S 331.195 0.0938436 5.35418 0
M  V30 3443 C 332.351 -1.05567 6.16933 0
M  V30 3444 H 332.584 0.274686 2.96028 0
M  V30 3445 H 330.117 0.260495 1.52187 0
M  V30 3446 H 332.075 -2.16476 3.48781 0
M  V30 3447 H 330.736 -2.11672 2.32064 0
M  V30 3448 H 329.929 -1.85293 4.68703 0
M  V30 3449 H 329.531 -0.416052 3.71679 0
M  V30 3450 H 331.823 -1.96636 6.48337 0
M  V30 3451 H 332.766 -0.555109 7.05921 0
M  V30 3452 H 333.174 -1.31151 5.49053 0
M  V30 3453 N 332.573 -1.56217 0.208337 0
M  V30 3454 C 333.798 -2.02782 -0.435222 0
M  V30 3455 C 334.223 -1.08738 -1.53485 0
M  V30 3456 O 333.581 -0.0731855 -1.81152 0
M  V30 3457 C 333.629 -3.47687 -0.956335 0
M  V30 3458 O 332.733 -3.56773 -2.06849 0
M  V30 3459 H 332.074 -0.656403 -0.100158 0
M  V30 3460 H 334.604 -2.02033 0.3231 0
M  V30 3461 H 334.614 -3.87745 -1.26955 0
M  V30 3462 H 333.289 -4.15624 -0.15143 0
M  V30 3463 H 331.866 -3.28597 -1.76292 0
M  V30 3464 N 334.051 0.0651679 -1.57465 0
M  V30 3465 C 335.276 0.779605 -1.9219 0
M  V30 3466 C 335.701 1.69988 -0.805333 0
M  V30 3467 O 335.059 1.79685 0.241435 0
M  V30 3468 C 335.107 1.54364 -3.2589 0
M  V30 3469 O 334.211 2.65474 -3.1559 0
M  V30 3470 H 333.552 0.212249 -0.629163 0
M  V30 3471 H 336.082 0.0314294 -2.04576 0
M  V30 3472 H 336.092 1.92146 -3.59922 0
M  V30 3473 H 334.767 0.868457 -4.06732 0
M  V30 3474 H 333.344 2.30501 -2.93128 0
M  V30 3475 N 335.529 1.53961 0.336706 0
M  V30 3476 C 336.777 1.71197 1.07405 0
M  V30 3477 C 337.098 0.481475 1.88962 0
M  V30 3478 O 336.368 -0.504585 1.8929 0
M  V30 3479 H 334.948 0.631185 0.399517 0
M  V30 3480 H 337.61 1.91232 0.376323 0
M  V30 3481 H 336.706 2.58587 1.74755 0
M  V30 3482 N 337.007 -0.598083 1.45811 0
M  V30 3483 C 337.917 -1.73632 1.57763 0
M  V30 3484 C 338.933 -1.67763 0.461676 0
M  V30 3485 O 340.109 -1.87949 0.723685 0
M  V30 3486 C 337.174 -3.10114 1.55018 0
M  V30 3487 C 336.235 -3.27364 2.77726 0
M  V30 3488 C 335.468 -4.57334 2.75102 0
M  V30 3489 O 335.691 -5.40258 1.8297 0
M  V30 3490 O 334.625 -4.77502 3.66437 0
M  V30 3491 H 338.451 -1.66498 2.53992 0
M  V30 3492 H 336.036 -0.763308 1.28429 0
M  V30 3493 H 337.918 -3.9141 1.56129 0
M  V30 3494 H 336.593 -3.17718 0.619431 0
M  V30 3495 H 335.5 -2.45619 2.82174 0
M  V30 3496 H 336.833 -3.24641 3.69958 0
M  V30 3497 N 338.485 -1.33259 -0.841409 0
M  V30 3498 C 339.731 -1.25766 -1.59857 0
M  V30 3499 C 340.086 0.175602 -1.91597 0
M  V30 3500 O 339.379 1.117 -1.55672 0
M  V30 3501 C 339.573 -2.06381 -2.9179 0
M  V30 3502 C 339.402 -3.57401 -2.72937 0
M  V30 3503 C 338.172 -4.26718 -2.70628 0
M  V30 3504 C 340.37 -4.51786 -2.45753 0
M  V30 3505 N 338.352 -5.63705 -2.43125 0
M  V30 3506 C 339.723 -5.76643 -2.27777 0
M  V30 3507 C 341.778 -4.40898 -2.31329 0
M  V30 3508 C 340.481 -6.91842 -1.96841 0
M  V30 3509 C 342.507 -5.55911 -2.01786 0
M  V30 3510 C 341.869 -6.79776 -1.8462 0
M  V30 3511 H 337.968 -0.515406 -0.588117 0
M  V30 3512 H 340.552 -1.67772 -0.987955 0
M  V30 3513 H 338.723 -1.667 -3.50807 0
M  V30 3514 H 340.455 -1.90678 -3.56965 0
M  V30 3515 H 337.21 -3.78968 -2.84043 0
M  V30 3516 H 337.634 -6.35911 -2.32265 0
M  V30 3517 H 342.276 -3.45772 -2.43314 0
M  V30 3518 H 339.994 -7.86968 -1.83594 0
M  V30 3519 H 343.58 -5.49421 -1.91384 0
M  V30 3520 H 342.46 -7.67266 -1.62088 0
M  V30 3521 N 339.963 1.05934 -1.16686 0
M  V30 3522 C 341.188 1.83029 -0.975455 0
M  V30 3523 C 341.613 1.82096 0.471452 0
M  V30 3524 O 340.971 1.22443 1.33706 0
M  V30 3525 C 341.019 3.27372 -1.51195 0
M  V30 3526 O 340.123 4.06054 -0.720701 0
M  V30 3527 H 339.464 0.566194 -0.346872 0
M  V30 3528 H 341.994 1.33541 -1.55009 0
M  V30 3529 H 342.004 3.78186 -1.53099 0
M  V30 3530 H 340.679 3.27366 -2.56523 0
M  V30 3531 H 339.256 3.64812 -0.772458 0
M  V30 3532 N 341.441 0.965919 1.2453 0
M  V30 3533 C 342.404 0.499547 2.2369 0
M  V30 3534 C 343.404 -0.40294 1.5567 0
M  V30 3535 O 344.594 -0.19865 1.73064 0
M  V30 3536 C 341.726 -0.276792 3.39774 0
M  V30 3537 H 342.919 1.37613 2.66463 0
M  V30 3538 H 340.472 0.750324 1.37112 0
M  V30 3539 H 341.207 -1.17055 3.02438 0
M  V30 3540 H 340.992 0.370826 3.90343 0
M  V30 3541 H 342.482 -0.592175 4.1338 0
M  V30 3542 N 342.919 -1.39368 0.735821 0
M  V30 3543 C 344.33 -1.83313 0.354015 0
M  V30 3544 C 344.681 -1.61461 -1.11466 0
M  V30 3545 O 343.806 -1.10621 -1.85989 0
M  V30 3546 C 344.401 -3.32781 0.635769 0
M  V30 3547 C 342.96 -3.75142 0.307448 0
M  V30 3548 C 342.107 -2.62358 0.897974 0
M  V30 3549 H 345.058 -1.28349 0.933398 0
M  V30 3550 H 345.079 -3.80388 -0.0921773 0
M  V30 3551 H 344.591 -3.48654 1.70476 0
M  V30 3552 H 342.692 -3.64857 -0.755674 0
M  V30 3553 H 342.805 -4.72532 0.790583 0
M  V30 3554 H 341.169 -2.52624 0.324551 0
M  V30 3555 H 341.952 -2.81036 1.97164 0
M  V30 3556 N 344.397 -0.483516 -1.5 0
M  V30 3557 C 345.646 0.0689102 -2.01582 0
M  V30 3558 C 345.959 1.39655 -1.36952 0
M  V30 3559 O 347.165 2.03465 -1.79762 0
M  V30 3560 C 345.621 0.173302 -3.59483 0
M  V30 3561 C 345.229 -1.14665 -4.33077 0
M  V30 3562 C 346.973 0.677024 -4.19066 0
M  V30 3563 C 344.88 -1.00537 -5.82792 0
M  V30 3564 H 343.81 0.0295277 -0.753422 0
M  V30 3565 H 346.461 -0.620295 -1.72698 0
M  V30 3566 H 344.843 0.926569 -3.85007 0
M  V30 3567 H 346.017 -1.91184 -4.19268 0
M  V30 3568 H 344.332 -1.58244 -3.85159 0
M  V30 3569 H 346.929 0.799952 -5.28682 0
M  V30 3570 H 347.272 1.67151 -3.81269 0
M  V30 3571 H 347.805 -0.0192083 -3.97795 0
M  V30 3572 H 344.544 -1.9736 -6.25083 0
M  V30 3573 H 344.064 -0.280776 -5.99142 0
M  V30 3574 H 345.743 -0.677 -6.43448 0
M  V30 3575 N 345.875 1.56104 -0.216619 0
M  V30 3576 C 347.286 1.844 0.292128 0
M  V30 3577 C 347.637 1.13788 1.59833 0
M  V30 3578 O 346.762 0.405888 2.12559 0
M  V30 3579 C 347.357 3.3452 0.53681 0
M  V30 3580 C 345.916 3.63151 0.989876 0
M  V30 3581 C 345.063 2.77255 0.0502302 0
M  V30 3582 H 348.014 1.52481 -0.439926 0
M  V30 3583 H 348.035 3.54459 1.38345 0
M  V30 3584 H 347.547 3.85885 -0.414031 0
M  V30 3585 H 345.648 3.17238 1.95425 0
M  V30 3586 H 345.761 4.71177 0.867698 0
M  V30 3587 H 344.125 2.48555 0.556117 0
M  V30 3588 H 344.908 3.31416 -0.89544 0
M  V30 3589 N 347.353 -0.0568162 1.57498 0
M  V30 3590 C 348.316 -1.05038 2.03715 0
M  V30 3591 C 349.316 -1.30709 0.936577 0
M  V30 3592 O 350.506 -1.26178 1.20103 0
M  V30 3593 C 347.638 -2.39034 2.43055 0
M  V30 3594 H 348.831 -0.651715 2.92733 0
M  V30 3595 H 346.384 -0.302947 1.53336 0
M  V30 3596 H 347.119 -2.83703 1.57108 0
M  V30 3597 H 346.904 -2.21739 3.2338 0
M  V30 3598 H 348.394 -3.10421 2.79336 0
M  V30 3599 N 348.832 -1.54138 -0.328536 0
M  V30 3600 C 350.072 -1.73827 -1.07534 0
M  V30 3601 C 350.436 -0.498777 -1.85408 0
M  V30 3602 O 351.637 -0.572937 -2.62623 0
M  V30 3603 C 349.908 -2.97573 -1.97952 0
M  V30 3604 S 351.467 -3.38143 -2.79652 0
M  V30 3605 H 348.285 -0.611287 -0.36311 0
M  V30 3606 H 350.887 -1.92306 -0.351931 0
M  V30 3607 H 349.591 -3.85939 -1.39569 0
M  V30 3608 H 349.122 -2.81603 -2.74706 0
M  V30 3609 H 351.137 -2.93052 -4.00418 0
M  V30 3610 N 350.31 0.590341 -1.46126 0
M  V30 3611 C 351.258 1.72105 -1.5647 0
M  V30 3612 C 352.252 1.63756 -0.433612 0
M  V30 3613 O 353.458 1.69342 -0.610194 0
M  V30 3614 H 349.833 0.568889 -0.491802 0
M  V30 3615 H 351.804 1.6051 -2.51553 0
M  V30 3616 C 350.553 3.10493 -1.56491 0
M  V30 3617 H 349.876 3.17583 -2.4286 0
M  V30 3618 H 351.316 3.8939 -1.67785 0
M  V30 3619 C 349.775 3.3563 -0.292231 0
M  V30 3620 O 350.305 3.96875 0.620739 0
M  V30 3621 N 348.511 2.90026 -0.182523 0
M  V30 3622 H 348.058 2.40367 -0.926356 0
M  V30 3623 H 348.016 3.07218 0.668152 0
M  V30 3624 N 351.788 1.33704 0.83433 0
M  V30 3625 C 353.034 1.25603 1.59222 0
M  V30 3626 C 353.367 -0.176659 1.93395 0
M  V30 3627 O 352.642 -1.11915 1.59076 0
M  V30 3628 C 352.925 2.13576 2.89926 0
M  V30 3629 C 352.778 3.65326 2.62406 0
M  V30 3630 C 354.097 2.01238 3.91397 0
M  V30 3631 H 351.216 0.457613 0.577719 0
M  V30 3632 H 353.858 1.63848 0.961972 0
M  V30 3633 H 352.008 1.8109 3.43713 0
M  V30 3634 H 353.68 4.08124 2.15017 0
M  V30 3635 H 351.923 3.8698 1.96033 0
M  V30 3636 H 352.594 4.22232 3.55562 0
M  V30 3637 H 355.07 2.29738 3.46929 0
M  V30 3638 H 353.946 2.65036 4.80673 0
M  V30 3639 H 354.207 0.985951 4.30966 0
M  V30 3640 N 353.266 -1.05314 1.17247 0
M  V30 3641 C 354.512 -1.78557 0.961513 0
M  V30 3642 C 354.845 -1.87419 -0.508697 0
M  V30 3643 O 354.12 -1.37307 -1.37757 0
M  V30 3644 C 354.403 -3.22514 1.60176 0
M  V30 3645 C 354.256 -3.21673 3.14399 0
M  V30 3646 C 355.575 -4.20318 1.30463 0
M  V30 3647 H 352.694 -0.6482 0.350723 0
M  V30 3648 H 355.336 -1.23102 1.44727 0
M  V30 3649 H 353.486 -3.69867 1.18871 0
M  V30 3650 H 355.158 -2.82405 3.64753 0
M  V30 3651 H 353.401 -2.60048 3.47214 0
M  V30 3652 H 354.072 -4.23271 3.54324 0
M  V30 3653 H 356.548 -3.81454 1.66229 0
M  V30 3654 H 355.424 -5.19289 1.77848 0
M  V30 3655 H 355.685 -4.41526 0.22521 0
M  V30 3656 N 354.744 -0.972509 -1.24016 0
M  V30 3657 C 355.654 -0.5143 -2.28893 0
M  V30 3658 C 356.67 0.427078 -1.68677 0
M  V30 3659 O 357.846 0.298939 -1.99169 0
M  V30 3660 C 354.911 0.183598 -3.46214 0
M  V30 3661 C 353.972 -0.798202 -4.21814 0
M  V30 3662 C 353.205 -0.133514 -5.33533 0
M  V30 3663 O 353.428 1.07714 -5.60137 0
M  V30 3664 O 352.362 -0.828103 -5.96176 0
M  V30 3665 H 356.188 -1.38629 -2.70214 0
M  V30 3666 H 353.773 -0.739769 -1.29799 0
M  V30 3667 H 355.655 0.575433 -4.17453 0
M  V30 3668 H 354.33 1.03048 -3.0686 0
M  V30 3669 H 353.237 -1.24059 -3.52931 0
M  V30 3670 H 354.57 -1.61364 -4.64997 0
M  V30 3671 N 356.222 1.38976 -0.743202 0
M  V30 3672 C 357.462 2.02193 -0.29954 0
M  V30 3673 C 357.826 1.5771 1.09506 0
M  V30 3674 O 359.027 2.13184 1.63726 0
M  V30 3675 C 357.298 3.55077 -0.406822 0
M  V30 3676 S 358.857 4.38778 -0.0442109 0
M  V30 3677 H 355.675 0.701335 -0.116836 0
M  V30 3678 H 358.277 1.69651 -0.971529 0
M  V30 3679 H 356.981 3.84942 -1.42295 0
M  V30 3680 H 356.512 3.92383 0.282707 0
M  V30 3681 H 358.527 4.82222 1.16947 0
M  V30 3682 N 357.7 0.491464 1.49741 0
M  V30 3683 C 358.977 -0.118984 1.95238 0
M  V30 3684 C 359.357 -1.55044 1.43264 0
M  V30 3685 O 358.705 -2.19287 0.642287 0
M  V30 3686 C 358.915 -0.0414187 3.48975 0
M  V30 3687 C 360.263 -0.220133 4.24029 0
M  V30 3688 O 361.287 -0.117055 3.56008 0
M  V30 3689 O 360.146 -0.430567 5.44801 0
M  V30 3690 H 357.24 -0.100536 0.820866 0
M  V30 3691 H 359.786 0.553322 1.60426 0
M  V30 3692 H 358.558 0.957214 3.79412 0
M  V30 3693 H 358.181 -0.754292 3.9038 0
M  V30 3694 N 359.178 -1.55987 0.224894 0
M  V30 3695 C 360.141 -2.19178 -0.670348 0
M  V30 3696 C 361.141 -1.15461 -1.11917 0
M  V30 3697 O 362.331 -1.40675 -1.02743 0
M  V30 3698 C 359.463 -2.81777 -1.9187 0
M  V30 3699 H 360.656 -2.99662 -0.119364 0
M  V30 3700 H 358.209 -1.5628 -0.0247128 0
M  V30 3701 H 358.944 -2.05172 -2.51147 0
M  V30 3702 H 358.729 -3.57732 -1.60531 0
M  V30 3703 H 360.219 -3.30205 -2.55645 0
M  V30 3704 N 360.656 0.0484629 -1.57525 0
M  V30 3705 C 361.902 0.744226 -1.88651 0
M  V30 3706 C 362.235 1.76029 -0.820212 0
M  V30 3707 O 361.51 1.93782 0.166985 0
M  V30 3708 C 361.793 1.43128 -3.30434 0
M  V30 3709 C 361.646 0.43005 -4.47739 0
M  V30 3710 C 362.965 2.37031 -3.70816 0
M  V30 3711 H 360.084 0.269089 -0.68612 0
M  V30 3712 H 362.726 0.00713532 -1.89999 0
M  V30 3713 H 360.876 2.05956 -3.29415 0
M  V30 3714 H 362.548 -0.194816 -4.60888 0
M  V30 3715 H 360.791 -0.252522 -4.33064 0
M  V30 3716 H 361.462 0.948874 -5.43783 0
M  V30 3717 H 363.938 1.84263 -3.73077 0
M  V30 3718 H 362.814 2.82094 -4.70865 0
M  V30 3719 H 363.075 3.22864 -3.02012 0
M  V30 3720 N 362.134 1.5431 0.320358 0
M  V30 3721 C 363.362 1.76636 1.07738 0
M  V30 3722 C 363.777 0.51649 1.81598 0
M  V30 3723 O 363.134 -0.512942 1.75143 0
M  V30 3724 C 363.185 2.96158 2.07299 0
M  V30 3725 O 362.906 4.16313 1.36438 0
M  V30 3726 C 364.407 3.3072 2.95193 0
M  V30 3727 H 361.627 0.589597 0.320339 0
M  V30 3728 H 364.171 2.01207 0.36551 0
M  V30 3729 H 362.326 2.73851 2.74016 0
M  V30 3730 H 362.74 4.83565 2.03138 0
M  V30 3731 H 364.214 4.17643 3.60941 0
M  V30 3732 H 364.691 2.48026 3.62463 0
M  V30 3733 H 365.297 3.55117 2.34034 0
M  V30 3734 N 363.613 -0.582584 1.46437 0
M  V30 3735 C 364.561 -1.71272 1.5738 0
M  V30 3736 C 365.555 -1.63524 0.44229 0
M  V30 3737 O 366.761 -1.69016 0.619166 0
M  V30 3738 H 363.136 -0.566273 0.494813 0
M  V30 3739 H 365.107 -1.59174 2.52401 0
M  V30 3740 C 363.856 -3.09658 1.58136 0
M  V30 3741 H 363.179 -3.16291 2.44541 0
M  V30 3742 H 364.619 -3.88494 1.69847 0
M  V30 3743 C 363.078 -3.3547 0.310026 0
M  V30 3744 O 363.608 -3.97199 -0.599683 0
M  V30 3745 N 361.814 -2.89925 0.197901 0
M  V30 3746 H 361.361 -2.39873 0.93909 0
M  V30 3747 H 361.319 -3.07568 -0.65185 0
M  V30 3748 N 365.091 -1.34144 -0.827227 0
M  V30 3749 C 366.502 -1.23557 -1.39966 0
M  V30 3750 C 366.853 0.140731 -1.95695 0
M  V30 3751 O 365.978 1.04087 -1.89723 0
M  V30 3752 C 366.573 -2.23708 -2.54441 0
M  V30 3753 C 365.132 -2.16924 -3.07605 0
M  V30 3754 C 364.279 -2.10549 -1.80456 0
M  V30 3755 H 367.23 -1.45573 -0.631991 0
M  V30 3756 H 367.251 -1.85157 -3.32411 0
M  V30 3757 H 366.763 -3.23866 -2.13851 0
M  V30 3758 H 364.864 -1.20107 -3.52711 0
M  V30 3759 H 364.977 -3.07988 -3.66988 0
M  V30 3760 H 363.341 -1.56203 -2.01178 0
M  V30 3761 H 364.124 -3.12535 -1.42046 0
M  V30 3762 N 366.569 1.04691 -1.17803 0
M  V30 3763 C 367.532 2.10724 -0.901545 0
M  V30 3764 C 368.532 1.6042 0.110437 0
M  V30 3765 O 369.722 1.7377 -0.122303 0
M  V30 3766 C 366.854 3.39084 -0.351409 0
M  V30 3767 H 368.047 2.36686 -1.84174 0
M  V30 3768 H 365.6 1.21015 -0.98919 0
M  V30 3769 H 366.335 3.18782 0.59569 0
M  V30 3770 H 366.12 3.76909 -1.08083 0
M  V30 3771 H 367.61 4.17227 -0.176451 0
M  V30 3772 N 368.047 0.979072 1.23499 0
M  V30 3773 C 368.995 0.510604 2.26926 0
M  V30 3774 C 369.989 -0.431691 1.63807 0
M  V30 3775 O 371.195 -0.30573 1.77385 0
M  V30 3776 H 367.57 0.146688 0.737554 0
M  V30 3777 H 369.541 1.39466 2.63803 0
M  V30 3778 C 368.29 -0.172658 3.47271 0
M  V30 3779 H 367.613 0.543331 3.96091 0
M  V30 3780 H 369.053 -0.464101 4.21452 0
M  V30 3781 C 367.512 -1.40345 3.06276 0
M  V30 3782 O 368.042 -2.49978 3.14442 0
M  V30 3783 N 366.248 -1.27362 2.61203 0
M  V30 3784 H 365.795 -0.381584 2.54758 0
M  V30 3785 H 365.753 -2.09822 2.34141 0
M  V30 3786 N 369.525 -1.3858 0.750561 0
M  V30 3787 C 370.773 -1.99789 0.30477 0
M  V30 3788 C 371.094 -1.59874 -1.11649 0
M  V30 3789 O 370.364 -0.85417 -1.76297 0
M  V30 3790 H 368.944 -0.738902 0.109694 0
M  V30 3791 H 371.606 -1.69391 0.963983 0
M  V30 3792 H 370.702 -3.09952 0.365499 0
M  V30 3793 N 371.003 -0.499398 -1.49478 0
M  V30 3794 C 372.25 0.0456899 -2.02448 0
M  V30 3795 C 372.578 1.37142 -1.37921 0
M  V30 3796 O 371.833 1.89111 -0.503544 0
M  V30 3797 C 372.132 0.248424 -3.56536 0
M  V30 3798 C 371.798 -0.999107 -4.39692 0
M  V30 3799 C 370.46 -1.34108 -4.62135 0
M  V30 3800 C 372.812 -1.82842 -4.88076 0
M  V30 3801 C 370.14 -2.51191 -5.30208 0
M  V30 3802 C 372.492 -2.99076 -5.57437 0
M  V30 3803 C 371.156 -3.33655 -5.78127 0
M  V30 3804 H 370.426 0.0167191 -0.740811 0
M  V30 3805 H 373.073 -0.65923 -1.79795 0
M  V30 3806 H 371.378 1.03586 -3.77859 0
M  V30 3807 H 373.075 0.684605 -3.95113 0
M  V30 3808 H 369.665 -0.722729 -4.22463 0
M  V30 3809 H 373.849 -1.57737 -4.70566 0
M  V30 3810 H 369.105 -2.78221 -5.44429 0
M  V30 3811 H 373.279 -3.63664 -5.93904 0
M  V30 3812 H 370.906 -4.24483 -6.30649 0
M  V30 3813 N 372.481 1.55866 -0.233164 0
M  V30 3814 C 373.727 1.98897 0.395959 0
M  V30 3815 C 374.06 1.12091 1.58585 0
M  V30 3816 O 373.335 0.181182 1.93654 0
M  V30 3817 C 373.618 3.50658 0.819224 0
M  V30 3818 C 373.471 4.48233 -0.375109 0
M  V30 3819 C 374.79 4.07135 1.67121 0
M  V30 3820 H 371.909 0.723102 0.142451 0
M  V30 3821 H 374.551 1.87082 -0.331725 0
M  V30 3822 H 372.701 3.60857 1.43925 0
M  V30 3823 H 374.373 4.50031 -1.01341 0
M  V30 3824 H 372.616 4.21624 -1.02058 0
M  V30 3825 H 373.287 5.51988 -0.0358328 0
M  V30 3826 H 375.763 3.99952 1.14795 0
M  V30 3827 H 374.639 5.13615 1.93625 0
M  V30 3828 H 374.9 3.54736 2.63846 0
M  V30 3829 N 373.959 -0.0401083 1.57549 0
M  V30 3830 C 374.869 -1.06133 2.0922 0
M  V30 3831 C 375.885 -1.40356 1.0284 0
M  V30 3832 O 377.061 -1.49897 1.34509 0
M  V30 3833 C 374.126 -2.34658 2.55218 0
M  V30 3834 C 373.187 -2.07117 3.76033 0
M  V30 3835 C 372.42 -3.29514 4.19829 0
M  V30 3836 O 372.643 -4.39794 3.63232 0
M  V30 3837 O 371.577 -3.15863 5.12362 0
M  V30 3838 H 375.403 -0.652244 2.96613 0
M  V30 3839 H 372.988 -0.256368 1.47184 0
M  V30 3840 H 374.87 -3.10239 2.85184 0
M  V30 3841 H 373.545 -2.74883 1.70941 0
M  V30 3842 H 372.452 -1.29139 3.51104 0
M  V30 3843 H 373.785 -1.71754 4.61261 0
M  V30 3844 N 375.437 -1.54477 -0.31217 0
M  V30 3845 C 376.677 -1.74958 -1.05684 0
M  V30 3846 C 377.041 -0.518414 -1.84869 0
M  V30 3847 O 378.242 -0.600759 -2.62001 0
M  V30 3848 C 376.513 -2.99656 -1.94785 0
M  V30 3849 S 378.072 -3.4109 -2.76049 0
M  V30 3850 H 374.89 -0.615104 -0.356606 0
M  V30 3851 H 377.492 -1.92669 -0.331514 0
M  V30 3852 H 376.196 -3.87397 -1.35468 0
M  V30 3853 H 375.727 -2.845 -2.71704 0
M  V30 3854 H 377.742 -2.97283 -3.97287 0
M  V30 3855 N 376.915 0.57481 -1.46744 0
M  V30 3856 C 378.162 1.33272 -1.52462 0
M  V30 3857 C 378.49 1.93669 -0.179572 0
M  V30 3858 O 377.745 1.7743 0.825664 0
M  V30 3859 C 378.044 2.476 -2.57738 0
M  V30 3860 C 377.71 2.05146 -4.01529 0
M  V30 3861 C 376.372 1.93284 -4.40676 0
M  V30 3862 C 378.724 1.72506 -4.91824 0
M  V30 3863 C 376.052 1.47049 -5.67973 0
M  V30 3864 C 378.404 1.27748 -6.19567 0
M  V30 3865 C 377.068 1.14468 -6.57612 0
M  V30 3866 H 376.338 0.487678 -0.557899 0
M  V30 3867 H 378.985 0.646456 -1.80259 0
M  V30 3868 H 377.29 3.21708 -2.23632 0
M  V30 3869 H 378.987 3.05807 -2.5939 0
M  V30 3870 H 375.577 2.15316 -3.7059 0
M  V30 3871 H 379.761 1.80552 -4.62293 0
M  V30 3872 H 375.017 1.35417 -5.96215 0
M  V30 3873 H 379.191 1.01547 -6.88957 0
M  V30 3874 H 376.818 0.78419 -7.56145 0
M  V30 3875 N 378.394 1.34581 0.820102 0
M  V30 3876 C 379.326 1.22236 1.93884 0
M  V30 3877 C 380.339 0.148776 1.62119 0
M  V30 3878 O 381.528 0.400877 1.7394 0
M  V30 3879 C 378.628 0.856542 3.27897 0
M  V30 3880 C 377.801 2.02569 3.87666 0
M  V30 3881 C 376.86 1.63782 5.00062 0
M  V30 3882 O 375.886 2.35477 5.18208 0
M  V30 3883 N 377.088 0.553611 5.77854 0
M  V30 3884 H 379.853 2.18615 2.05006 0
M  V30 3885 H 377.414 1.27573 0.99683 0
M  V30 3886 H 379.406 0.578806 4.0054 0
M  V30 3887 H 377.976 -0.0171518 3.12595 0
M  V30 3888 H 377.196 2.468 3.07382 0
M  V30 3889 H 378.484 2.80752 4.24329 0
M  V30 3890 H 377.882 -0.0423528 5.65684 0
M  V30 3891 H 376.439 0.335614 6.50935 0
M  V30 3892 N 379.872 -1.04064 1.18357 0
M  V30 3893 C 380.82 -2.14187 0.907007 0
M  V30 3894 C 381.814 -1.68879 -0.132725 0
M  V30 3895 O 383.02 -1.79993 0.0154248 0
M  V30 3896 H 379.395 -0.699585 0.275835 0
M  V30 3897 H 381.366 -2.34711 1.84264 0
M  V30 3898 C 380.115 -3.44785 0.449254 0
M  V30 3899 H 379.438 -3.80058 1.24081 0
M  V30 3900 H 380.878 -4.22974 0.294737 0
M  V30 3901 C 379.337 -3.26391 -0.834909 0
M  V30 3902 O 379.867 -3.53973 -1.89911 0
M  V30 3903 N 378.073 -2.79726 -0.787523 0
M  V30 3904 H 377.62 -2.5748 0.0787347 0
M  V30 3905 H 377.578 -2.67798 -1.64716 0
M  V30 3906 N 381.35 -0.985608 -1.22978 0
M  V30 3907 C 382.761 -0.693593 -1.73338 0
M  V30 3908 C 383.112 0.789935 -1.79595 0
M  V30 3909 O 382.237 1.61771 -1.43733 0
M  V30 3910 C 382.832 -1.25235 -3.14804 0
M  V30 3911 C 381.391 -1.00987 -3.626 0
M  V30 3912 C 380.538 -1.37695 -2.40698 0
M  V30 3913 H 383.489 -1.15884 -1.08428 0
M  V30 3914 H 383.51 -0.627329 -3.75293 0
M  V30 3915 H 383.022 -2.33209 -3.10218 0
M  V30 3916 H 381.123 0.0535565 -3.72562 0
M  V30 3917 H 381.236 -1.66812 -4.49122 0
M  V30 3918 H 379.6 -0.795459 -2.4196 0
M  V30 3919 H 380.383 -2.46657 -2.38779 0
M  V30 3920 N 382.828 1.3818 -0.7579 0
M  V30 3921 C 384.076 1.99624 -0.315361 0
M  V30 3922 C 384.397 1.60464 1.10799 0
M  V30 3923 O 383.667 0.863507 1.75842 0
M  V30 3924 H 382.247 0.73831 -0.113611 0
M  V30 3925 H 384.909 1.68878 -0.972952 0
M  V30 3926 H 384.005 3.09754 -0.381931 0
M  V30 3927 N 384.306 0.507319 1.49211 0
M  V30 3928 C 385.531 -0.033725 2.07373 0
M  V30 3929 C 385.956 -1.29485 1.36437 0
M  V30 3930 O 385.314 -1.76294 0.423087 0
M  V30 3931 C 385.362 -0.263945 3.59633 0
M  V30 3932 O 384.466 -1.33737 3.90113 0
M  V30 3933 H 383.807 0.0290331 0.663365 0
M  V30 3934 H 386.337 0.708749 1.91932 0
M  V30 3935 H 386.347 -0.493536 4.05004 0
M  V30 3936 H 385.022 0.657424 4.10671 0
M  V30 3937 H 383.599 -1.09224 3.56545 0
M  V30 3938 N 385.784 -1.5574 0.241426 0
M  V30 3939 C 387.031 -1.9881 -0.384836 0
M  V30 3940 C 387.359 -1.12947 -1.58346 0
M  V30 3941 O 386.614 -0.178993 -1.9488 0
M  V30 3942 C 386.913 -3.47308 -0.843317 0
M  V30 3943 C 386.579 -4.50223 0.246946 0
M  V30 3944 C 385.241 -4.78088 0.546399 0
M  V30 3945 C 387.593 -5.11841 0.983282 0
M  V30 3946 C 384.921 -5.64846 1.58636 0
M  V30 3947 C 387.273 -5.99727 2.01272 0
M  V30 3948 C 385.937 -6.25927 2.31888 0
M  V30 3949 H 385.207 -0.727496 -0.140821 0
M  V30 3950 H 387.854 -1.8831 0.348106 0
M  V30 3951 H 386.159 -3.55112 -1.65537 0
M  V30 3952 H 387.856 -3.78017 -1.33806 0
M  V30 3953 H 384.446 -4.286 0.00340639 0
M  V30 3954 H 388.63 -4.90366 0.765182 0
M  V30 3955 H 383.886 -5.83403 1.82896 0
M  V30 3956 H 388.06 -6.46517 2.58823 0
M  V30 3957 H 385.687 -6.92949 3.12611 0
M  V30 3958 N 387.262 0.0317525 -1.57568 0
M  V30 3959 C 388.673 0.578692 -1.77505 0
M  V30 3960 C 389.024 1.75749 -0.872164 0
M  V30 3961 O 388.149 2.16298 -0.0663106 0
M  V30 3962 C 388.744 1.05658 -3.21904 0
M  V30 3963 C 387.303 1.54906 -3.43047 0
M  V30 3964 C 386.45 0.485939 -2.73009 0
M  V30 3965 H 389.401 -0.194475 -1.57504 0
M  V30 3966 H 389.422 1.92404 -3.28269 0
M  V30 3967 H 388.934 0.198422 -3.87592 0
M  V30 3968 H 387.035 2.42915 -2.82529 0
M  V30 3969 H 387.148 1.59841 -4.5165 0
M  V30 3970 H 385.512 0.940354 -2.36705 0
M  V30 3971 H 386.295 -0.362709 -3.41379 0
M  V30 3972 N 388.74 1.54641 0.303973 0
M  V30 3973 C 389.986 1.74969 1.03718 0
M  V30 3974 C 390.341 0.527461 1.85029 0
M  V30 3975 O 389.634 -0.480143 1.85486 0
M  V30 3976 C 389.828 2.97753 1.97681 0
M  V30 3977 C 389.657 4.318 1.25613 0
M  V30 3978 C 388.427 4.95616 0.984518 0
M  V30 3979 C 390.625 5.10021 0.662081 0
M  V30 3980 N 388.607 6.13455 0.233794 0
M  V30 3981 C 389.978 6.19984 0.0439736 0
M  V30 3982 C 392.033 4.94663 0.566835 0
M  V30 3983 C 390.736 7.16264 -0.66016 0
M  V30 3984 C 392.762 5.91271 -0.123637 0
M  V30 3985 C 392.124 7.00601 -0.730608 0
M  V30 3986 H 388.223 0.692873 0.362562 0
M  V30 3987 H 390.807 1.92116 0.316135 0
M  V30 3988 H 388.978 2.82036 2.6704 0
M  V30 3989 H 390.71 3.06621 2.64132 0
M  V30 3990 H 387.465 4.55921 1.28191 0
M  V30 3991 H 387.889 6.76879 -0.127996 0
M  V30 3992 H 392.531 4.10267 1.02181 0
M  V30 3993 H 390.249 8.00204 -1.12691 0
M  V30 3994 H 393.835 5.81466 -0.197236 0
M  V30 3995 H 392.715 7.7407 -1.2564 0
M  V30 3996 N 390.218 -0.567019 1.47046 0
M  V30 3997 C 391.166 -1.69593 1.59188 0
M  V30 3998 C 392.16 -1.63046 0.459609 0
M  V30 3999 O 393.366 -1.6835 0.637058 0
M  V30 4000 H 389.741 -0.560993 0.500791 0
M  V30 4001 H 391.712 -1.56488 2.54075 0
M  V30 4002 C 390.461 -3.07964 1.61411 0
M  V30 4003 H 389.784 -3.13679 2.47881 0
M  V30 4004 H 391.224 -3.86671 1.73958 0
M  V30 4005 C 389.683 -3.35123 0.34559 0
M  V30 4006 O 390.213 -3.97812 -0.557521 0
M  V30 4007 N 388.419 -2.89699 0.22864 0
M  V30 4008 H 387.966 -2.38863 0.964479 0
M  V30 4009 H 387.924 -3.08242 -0.619192 0
M  V30 4010 N 391.696 -1.35014 -0.812953 0
M  V30 4011 C 392.924 -1.31031 -1.6012 0
M  V30 4012 C 393.339 0.113558 -1.88458 0
M  V30 4013 O 392.696 1.06363 -1.48301 0
M  V30 4014 C 392.747 -2.10872 -2.93624 0
M  V30 4015 O 392.468 -3.47706 -2.66518 0
M  V30 4016 C 393.969 -2.14401 -3.88004 0
M  V30 4017 H 391.189 -0.45037 -0.497401 0
M  V30 4018 H 393.733 -1.77775 -1.01076 0
M  V30 4019 H 391.888 -1.67744 -3.492 0
M  V30 4020 H 392.302 -3.89097 -3.51715 0
M  V30 4021 H 393.776 -2.74669 -4.78812 0
M  V30 4022 H 394.253 -1.14105 -4.24119 0
M  V30 4023 H 394.859 -2.57662 -3.38364 0
M  V30 4024 N 393.175 1.03435 -1.18907 0
M  V30 4025 C 394.403 1.80381 -1.01342 0
M  V30 4026 C 394.818 1.83649 0.438005 0
M  V30 4027 O 394.175 1.27655 1.30424 0
M  V30 4028 C 394.226 3.25689 -1.56873 0
M  V30 4029 O 393.947 3.22673 -2.96334 0
M  V30 4030 C 395.448 4.19255 -1.44014 0
M  V30 4031 H 392.668 0.56784 -0.35749 0
M  V30 4032 H 395.212 1.30317 -1.576 0
M  V30 4033 H 393.367 3.72962 -1.04777 0
M  V30 4034 H 393.781 4.13748 -3.22355 0
M  V30 4035 H 395.255 5.19123 -1.87657 0
M  V30 4036 H 395.732 4.37467 -0.389815 0
M  V30 4037 H 396.338 3.77851 -1.95214 0
M  V30 4038 N 394.653 0.992116 1.22453 0
M  V30 4039 C 395.893 0.675727 1.92907 0
M  V30 4040 C 396.257 -0.777762 1.75542 0
M  V30 4041 O 397.458 -1.20553 2.40251 0
M  V30 4042 C 395.729 1.0696 3.4102 0
M  V30 4043 S 397.288 0.871456 4.30059 0
M  V30 4044 H 394.106 0.247089 0.666684 0
M  V30 4045 H 396.708 1.27423 1.48269 0
M  V30 4046 H 395.412 2.12383 3.51172 0
M  V30 4047 H 394.943 0.462858 3.90668 0
M  V30 4048 H 396.958 -0.238436 4.95627 0
M  V30 4049 N 396.131 -1.37776 0.765217 0
M  V30 4050 C 397.359 -2.04124 0.337767 0
M  V30 4051 C 397.774 -1.57715 -1.03785 0
M  V30 4052 O 397.131 -0.755447 -1.6613 0
M  V30 4053 C 397.182 -3.59658 0.364442 0
M  V30 4054 O 396.903 -4.04367 1.68579 0
M  V30 4055 C 398.404 -4.43236 -0.0754221 0
M  V30 4056 H 395.624 -0.655696 0.142491 0
M  V30 4057 H 398.168 -1.76238 1.03732 0
M  V30 4058 H 396.323 -3.86339 -0.286471 0
M  V30 4059 H 396.737 -4.98857 1.61993 0
M  V30 4060 H 398.211 -5.52 -0.00560067 0
M  V30 4061 H 398.688 -4.2455 -1.12491 0
M  V30 4062 H 399.294 -4.21767 0.547055 0
M  V30 4063 N 397.609 -0.515225 -1.4894 0
M  V30 4064 C 398.856 0.024215 -2.02486 0
M  V30 4065 C 399.184 1.35671 -1.39368 0
M  V30 4066 O 398.439 1.88566 -0.523574 0
M  V30 4067 C 398.738 0.210595 -3.56779 0
M  V30 4068 C 398.404 -1.04569 -4.38607 0
M  V30 4069 C 397.066 -1.39002 -4.60686 0
M  V30 4070 C 399.418 -1.88008 -4.86109 0
M  V30 4071 C 396.746 -2.568 -5.27514 0
M  V30 4072 C 399.098 -3.04972 -5.54234 0
M  V30 4073 C 397.762 -3.39768 -5.74555 0
M  V30 4074 H 397.032 0.00886088 -0.740947 0
M  V30 4075 H 399.679 -0.678263 -1.79086 0
M  V30 4076 H 397.984 0.99572 -3.78936 0
M  V30 4077 H 399.681 0.642659 -3.95817 0
M  V30 4078 H 396.271 -0.767497 -4.21672 0
M  V30 4079 H 400.455 -1.62719 -4.68867 0
M  V30 4080 H 395.711 -2.8398 -5.41447 0
M  V30 4081 H 399.885 -3.69943 -5.90013 0
M  V30 4082 H 397.512 -4.31148 -6.26112 0
M  V30 4083 N 399.087 1.5561 -0.249682 0
M  V30 4084 C 400.364 1.90932 0.424761 0
M  V30 4085 C 400.744 1.17078 1.75658 0
M  V30 4086 O 400.092 0.289176 2.26663 0
M  V30 4087 C 400.302 3.43975 0.590109 0
M  V30 4088 C 401.65 4.15281 0.884714 0
M  V30 4089 O 402.674 3.49729 0.67587 0
M  V30 4090 O 401.533 5.31236 1.28259 0
M  V30 4091 H 398.627 0.794815 0.228468 0
M  V30 4092 H 401.173 1.67135 -0.293954 0
M  V30 4093 H 399.945 3.89748 -0.34818 0
M  V30 4094 H 399.568 3.73644 1.35926 0
M  V30 4095 N 400.565 -0.0233959 1.57583 0
M  V30 4096 C 401.805 -0.71784 1.9138 0
M  V30 4097 C 402.169 -1.72216 0.848853 0
M  V30 4098 O 403.37 -2.46527 1.07134 0
M  V30 4099 C 401.641 -1.36489 3.30311 0
M  V30 4100 S 403.2 -2.0877 3.85954 0
M  V30 4101 H 400.018 -0.237676 0.670098 0
M  V30 4102 H 402.62 0.0276709 1.9548 0
M  V30 4103 H 401.324 -0.620782 4.05678 0
M  V30 4104 H 400.855 -2.14883 3.29528 0
M  V30 4105 H 402.87 -3.35988 3.65139 0
M  V30 4106 N 402.043 -1.548 -0.295768 0
M  V30 4107 C 402.953 -1.89177 -1.38742 0
M  V30 4108 C 403.969 -0.786481 -1.55211 0
M  V30 4109 O 405.145 -1.08344 -1.69775 0
M  V30 4110 C 402.21 -2.13663 -2.73036 0
M  V30 4111 C 401.271 -3.37349 -2.65508 0
M  V30 4112 C 400.504 -3.60658 -3.93398 0
M  V30 4113 O 400.727 -2.86882 -4.93006 0
M  V30 4114 O 399.661 -4.54179 -3.94975 0
M  V30 4115 H 403.487 -2.82059 -1.12589 0
M  V30 4116 H 401.072 -1.41056 -0.492295 0
M  V30 4117 H 402.954 -2.3094 -3.52484 0
M  V30 4118 H 401.629 -1.23967 -2.99022 0
M  V30 4119 H 400.536 -3.25431 -1.84514 0
M  V30 4120 H 401.869 -4.27192 -2.44474 0
M  V30 4121 N 403.521 0.559213 -1.47345 0
M  V30 4122 C 404.431 1.69388 -1.62311 0
M  V30 4123 C 405.447 1.6648 -0.505993 0
M  V30 4124 O 406.623 1.85964 -0.773262 0
M  V30 4125 C 403.688 3.05894 -1.63185 0
M  V30 4126 C 402.749 3.19885 -2.86307 0
M  V30 4127 C 401.982 4.49879 -2.87131 0
M  V30 4128 O 402.205 5.35217 -1.97229 0
M  V30 4129 O 401.139 4.67618 -3.78968 0
M  V30 4130 H 404.965 1.59706 -2.58317 0
M  V30 4131 H 402.55 0.728989 -1.30407 0
M  V30 4132 H 404.432 3.87133 -1.66451 0
M  V30 4133 H 403.107 3.15964 -0.70345 0
M  V30 4134 H 402.014 2.38052 -2.88587 0
M  V30 4135 H 403.347 3.14718 -3.78435 0
M  V30 4136 N 404.999 1.35443 0.805782 0
M  V30 4137 C 406.247 1.28507 1.55982 0
M  V30 4138 C 406.568 -0.140046 1.94496 0
M  V30 4139 O 405.838 -1.07666 1.63661 0
M  V30 4140 H 404.418 0.472676 0.578434 0
M  V30 4141 H 407.08 1.69555 0.961098 0
M  V30 4142 H 406.176 1.90148 2.47488 0
M  V30 4143 N 406.477 -1.02803 1.19454 0
M  V30 4144 C 407.724 -1.76217 0.997693 0
M  V30 4145 C 408.052 -1.887 -0.47144 0
M  V30 4146 O 407.307 -1.4011 -1.3663 0
M  V30 4147 C 407.606 -3.18941 1.6128 0
M  V30 4148 C 407.272 -3.26463 3.11019 0
M  V30 4149 C 405.934 -3.28223 3.51885 0
M  V30 4150 C 408.286 -3.25542 4.07028 0
M  V30 4151 C 405.614 -3.26719 4.8731 0
M  V30 4152 C 407.966 -3.25579 5.42385 0
M  V30 4153 C 406.63 -3.25637 5.82681 0
M  V30 4154 H 405.9 -0.644823 0.365082 0
M  V30 4155 H 408.547 -1.20655 1.4871 0
M  V30 4156 H 406.852 -3.77587 1.04572 0
M  V30 4157 H 408.549 -3.74415 1.43577 0
M  V30 4158 H 405.139 -3.25822 2.78457 0
M  V30 4159 H 409.323 -3.23362 3.76498 0
M  V30 4160 H 404.579 -3.25089 5.1781 0
M  V30 4161 H 408.753 -3.23817 6.16535 0
M  V30 4162 H 406.38 -3.24226 6.87591 0
M  V30 4163 N 407.956 -0.998596 -1.21925 0
M  V30 4164 C 408.866 -0.562736 -2.27751 0
M  V30 4165 C 409.882 0.391203 -1.69545 0
M  V30 4166 O 411.058 0.256625 -1.99758 0
M  V30 4167 C 408.123 0.11012 -3.46525 0
M  V30 4168 C 407.184 -0.887495 -4.20026 0
M  V30 4169 C 406.417 -0.246654 -5.3313 0
M  V30 4170 O 406.64 0.958088 -5.62296 0
M  V30 4171 O 405.574 -0.954374 -5.94286 0
M  V30 4172 H 409.4 -1.44329 -2.67213 0
M  V30 4173 H 406.985 -0.767135 -1.28201 0
M  V30 4174 H 408.867 0.486756 -4.18579 0
M  V30 4175 H 407.542 0.965154 -3.08976 0
M  V30 4176 H 406.449 -1.31517 -3.5022 0
M  V30 4177 H 407.782 -1.71191 -4.6147 0
M  V30 4178 N 409.434 1.37368 -0.772513 0
M  V30 4179 C 410.364 2.32856 -0.173304 0
M  V30 4180 C 411.345 1.55818 0.682262 0
M  V30 4181 O 412.53 1.84052 0.619566 0
M  V30 4182 C 409.66 3.40048 0.706007 0
M  V30 4183 C 408.614 4.27973 -0.0483144 0
M  V30 4184 C 407.94 5.26184 0.950491 0
M  V30 4185 C 409.24 5.07665 -1.22776 0
M  V30 4186 H 410.934 2.83217 -0.971002 0
M  V30 4187 H 408.48 1.3617 -0.468377 0
M  V30 4188 H 410.433 4.05827 1.13501 0
M  V30 4189 H 409.157 2.88214 1.53623 0
M  V30 4190 H 407.816 3.63726 -0.458107 0
M  V30 4191 H 407.464 4.7063 1.77529 0
M  V30 4192 H 407.164 5.85872 0.450314 0
M  V30 4193 H 408.688 5.94838 1.37842 0
M  V30 4194 H 410.102 5.66578 -0.875366 0
M  V30 4195 H 408.499 5.76681 -1.66007 0
M  V30 4196 H 409.569 4.40294 -2.03149 0
M  V30 4197 N 410.912 0.523116 1.48665 0
M  V30 4198 C 411.845 -0.290518 2.26343 0
M  V30 4199 C 412.823 -0.950913 1.31895 0
M  V30 4200 O 414.007 -0.976662 1.61225 0
M  V30 4201 C 411.134 -1.41088 3.07915 0
M  V30 4202 C 410.18 -0.862597 4.17686 0
M  V30 4203 S 411.013 0.264135 5.34848 0
M  V30 4204 C 412.169 -0.858864 6.19979 0
M  V30 4205 H 412.402 0.368726 2.95005 0
M  V30 4206 H 409.935 0.30878 1.51281 0
M  V30 4207 H 411.893 -2.0527 3.55492 0
M  V30 4208 H 410.554 -2.04182 2.38681 0
M  V30 4209 H 409.747 -1.70287 4.74361 0
M  V30 4210 H 409.349 -0.297595 3.72814 0
M  V30 4211 H 411.641 -1.7591 6.54264 0
M  V30 4212 H 412.584 -0.330244 7.07329 0
M  V30 4213 H 412.992 -1.13617 5.52948 0
M  V30 4214 N 412.39 -1.55475 0.257931 0
M  V30 4215 C 413.638 -1.98813 -0.363009 0
M  V30 4216 C 413.959 -1.14757 -1.57657 0
M  V30 4217 O 413.229 -0.232956 -1.9451 0
M  V30 4218 H 411.809 -0.734308 -0.137113 0
M  V30 4219 H 414.471 -1.9156 0.359281 0
M  V30 4220 H 413.567 -3.04941 -0.664634 0
M  V30 4221 N 413.868 0.0150385 -1.57593 0
M  V30 4222 C 414.831 0.995996 -2.06428 0
M  V30 4223 C 415.831 1.2818 -0.970903 0
M  V30 4224 O 417.021 1.22949 -1.23406 0
M  V30 4225 C 414.153 2.32506 -2.49307 0
M  V30 4226 H 415.346 0.573873 -2.94358 0
M  V30 4227 H 412.899 0.262186 -1.54085 0
M  V30 4228 H 413.634 2.79438 -1.64575 0
M  V30 4229 H 413.419 2.13087 -3.29145 0
M  V30 4230 H 414.909 3.02906 -2.87468 0
M  V30 4231 N 415.346 1.54954 0.287554 0
M  V30 4232 C 416.278 1.83224 1.37701 0
M  V30 4233 C 417.291 0.715898 1.46215 0
M  V30 4234 O 418.48 0.993565 1.48292 0
M  V30 4235 C 415.58 1.96723 2.75959 0
M  V30 4236 C 414.753 3.27253 2.90215 0
M  V30 4237 C 413.812 3.30998 4.09056 0
M  V30 4238 O 412.838 4.04457 4.00503 0
M  V30 4239 N 414.04 2.57353 5.20336 0
M  V30 4240 H 416.805 2.77254 1.138 0
M  V30 4241 H 414.366 1.54694 0.477652 0
M  V30 4242 H 416.358 1.96615 3.5373 0
M  V30 4243 H 414.928 1.09626 2.92747 0
M  V30 4244 H 414.148 3.40022 1.99447 0
M  V30 4245 H 415.436 4.13365 2.96659 0
M  V30 4246 H 414.834 1.97327 5.30169 0
M  V30 4247 H 413.391 2.62984 5.96391 0
M  V30 4248 N 416.824 -0.551391 1.4764 0
M  V30 4249 C 418.049 -1.33837 1.58437 0
M  V30 4250 C 418.474 -1.866 0.237063 0
M  V30 4251 O 417.832 -1.6328 -0.787994 0
M  V30 4252 C 417.88 -2.48014 2.61766 0
M  V30 4253 O 416.984 -3.50419 2.1744 0
M  V30 4254 H 416.325 -0.397299 0.532024 0
M  V30 4255 H 418.855 -0.665759 1.93465 0
M  V30 4256 H 418.865 -2.94503 2.82369 0
M  V30 4257 H 417.54 -2.08969 3.5959 0
M  V30 4258 H 416.117 -3.10196 2.06961 0
M  V30 4259 N 418.302 -1.35869 -0.798587 0
M  V30 4260 C 419.232 -1.32118 -1.92528 0
M  V30 4261 C 420.213 -0.194209 -1.68988 0
M  V30 4262 O 421.398 -0.390426 -1.90235 0
M  V30 4263 C 418.528 -1.10047 -3.29404 0
M  V30 4264 C 417.482 -2.19471 -3.67446 0
M  V30 4265 C 416.808 -1.82555 -5.02571 0
M  V30 4266 C 418.108 -3.61495 -3.76987 0
M  V30 4267 H 419.802 -2.26394 -1.95924 0
M  V30 4268 H 417.348 -1.08981 -0.94123 0
M  V30 4269 H 419.301 -1.06061 -4.07835 0
M  V30 4270 H 418.025 -0.122195 -3.26371 0
M  V30 4271 H 416.684 -2.22568 -2.91306 0
M  V30 4272 H 416.332 -0.833249 -4.9605 0
M  V30 4273 H 416.032 -2.5581 -5.28995 0
M  V30 4274 H 417.556 -1.80108 -5.83432 0
M  V30 4275 H 418.97 -3.60676 -4.4563 0
M  V30 4276 H 417.367 -4.33577 -4.14887 0
M  V30 4277 H 418.437 -3.97065 -2.78329 0
M  V30 4278 N 419.78 1.02168 -1.19998 0
M  V30 4279 C 420.712 2.10705 -0.901994 0
M  V30 4280 C 421.725 1.6244 0.108216 0
M  V30 4281 O 422.914 1.78082 -0.12214 0
M  V30 4282 C 420.014 3.37291 -0.329834 0
M  V30 4283 C 419.187 4.14714 -1.39035 0
M  V30 4284 C 418.246 5.19606 -0.830432 0
M  V30 4285 O 417.272 5.48809 -1.50989 0
M  V30 4286 N 418.474 5.79366 0.362696 0
M  V30 4287 H 421.239 2.36856 -1.83628 0
M  V30 4288 H 418.8 1.18518 -1.10296 0
M  V30 4289 H 420.792 4.04657 0.0587633 0
M  V30 4290 H 419.362 3.0843 0.508891 0
M  V30 4291 H 418.582 3.42392 -1.9535 0
M  V30 4292 H 419.87 4.63226 -2.10474 0
M  V30 4293 H 419.268 5.57968 0.932081 0
M  V30 4294 H 417.825 6.48106 0.69299 0
M  V30 4295 N 421.258 1.00505 1.21394 0
M  V30 4296 C 422.498 0.696149 1.9218 0
M  V30 4297 C 422.862 -0.759099 1.76357 0
M  V30 4298 O 424.063 -1.17998 2.41516 0
M  V30 4299 C 422.334 1.10571 3.39866 0
M  V30 4300 S 423.893 0.91702 4.29111 0
M  V30 4301 H 420.711 0.254147 0.664026 0
M  V30 4302 H 423.313 1.28988 1.46909 0
M  V30 4303 H 422.017 2.16096 3.489 0
M  V30 4304 H 421.548 0.504268 3.90155 0
M  V30 4305 H 423.563 -0.185855 4.95852 0
M  V30 4306 N 422.737 -1.36956 0.779787 0
M  V30 4307 C 423.965 -2.03755 0.359398 0
M  V30 4308 C 424.38 -1.58807 -1.02106 0
M  V30 4309 O 423.737 -0.773024 -1.6532 0
M  V30 4310 C 423.788 -3.59251 0.402568 0
M  V30 4311 O 423.509 -4.02557 1.72858 0
M  V30 4312 C 425.01 -4.43291 -0.0284068 0
M  V30 4313 H 422.23 -0.654148 0.149437 0
M  V30 4314 H 424.774 -1.75128 1.05595 0
M  V30 4315 H 422.929 -3.86621 -0.245478 0
M  V30 4316 H 423.343 -4.97111 1.67275 0
M  V30 4317 H 424.817 -5.51975 0.0529466 0
M  V30 4318 H 425.294 -4.25719 -1.07982 0
M  V30 4319 H 425.9 -4.21163 0.591758 0
M  V30 4320 N 424.215 -0.530993 -1.48385 0
M  V30 4321 C 425.44 0.000729535 -2.074 0
M  V30 4322 C 425.865 1.27298 -1.3848 0
M  V30 4323 O 425.223 1.75599 -0.451081 0
M  V30 4324 C 425.271 0.206697 -3.60007 0
M  V30 4325 O 424.375 1.27514 -3.92191 0
M  V30 4326 H 423.716 -0.039583 -0.662819 0
M  V30 4327 H 426.246 -0.739194 -1.9078 0
M  V30 4328 H 426.256 0.42904 -4.05738 0
M  V30 4329 H 424.931 -0.722675 -4.09573 0
M  V30 4330 H 423.508 1.03537 -3.58238 0
M  V30 4331 N 425.693 1.55336 -0.266172 0
M  V30 4332 C 426.918 2.04258 0.359661 0
M  V30 4333 C 427.343 1.14359 1.49344 0
M  V30 4334 O 426.701 0.140369 1.80756 0
M  V30 4335 C 426.749 3.50997 0.826635 0
M  V30 4336 O 425.853 3.64204 1.93466 0
M  V30 4337 H 425.194 0.659668 0.075727 0
M  V30 4338 H 427.724 2.00694 -0.39786 0
M  V30 4339 H 427.734 3.9219 1.12477 0
M  V30 4340 H 426.409 4.159 -0.00293032 0
M  V30 4341 H 424.986 3.34913 1.63974 0
M  V30 4342 N 427.171 -0.0066808 1.57599 0
M  V30 4343 C 428.419 -0.691552 1.899 0
M  V30 4344 C 428.74 -1.74682 0.866672 0
M  V30 4345 O 428.01 -1.95661 -0.0968189 0
M  V30 4346 H 426.59 -0.258416 0.700878 0
M  V30 4347 H 429.252 0.0326655 1.94873 0
M  V30 4348 H 428.348 -1.16702 2.8946 0
M  V30 4349 N 428.649 -1.55105 -0.279332 0
M  V30 4350 C 429.597 -1.88333 -1.36505 0
M  V30 4351 C 430.591 -0.759043 -1.51443 0
M  V30 4352 O 431.797 -0.943312 -1.53302 0
M  V30 4353 H 428.172 -0.59766 -0.456406 0
M  V30 4354 H 430.143 -2.79041 -1.05728 0
M  V30 4355 C 428.892 -2.16628 -2.7197 0
M  V30 4356 H 428.215 -3.02624 -2.61264 0
M  V30 4357 H 429.655 -2.43803 -3.46895 0
M  V30 4358 C 428.114 -0.971807 -3.22579 0
M  V30 4359 O 428.644 -0.203228 -4.01186 0
M  V30 4360 N 426.85 -0.771238 -2.80179 0
M  V30 4361 H 426.397 -1.39792 -2.1637 0
M  V30 4362 H 426.355 0.0263667 -3.14389 0
M  V30 4363 N 430.127 0.543554 -1.4793 0
M  V30 4364 C 431.373 1.29961 -1.56466 0
M  V30 4365 C 431.728 1.91024 -0.229696 0
M  V30 4366 O 431.021 1.75619 0.766072 0
M  V30 4367 C 431.215 2.42078 -2.62932 0
M  V30 4368 C 431.044 1.92003 -4.06651 0
M  V30 4369 C 429.814 1.75223 -4.73946 0
M  V30 4370 C 432.012 1.45648 -4.93245 0
M  V30 4371 N 429.994 1.19632 -6.02131 0
M  V30 4372 C 431.365 1.01914 -6.11566 0
M  V30 4373 C 433.42 1.33826 -4.79578 0
M  V30 4374 C 432.123 0.475301 -7.17728 0
M  V30 4375 C 434.149 0.808427 -5.85848 0
M  V30 4376 C 433.511 0.381081 -7.03368 0
M  V30 4377 H 429.61 0.467086 -0.62718 0
M  V30 4378 H 432.194 0.614543 -1.84747 0
M  V30 4379 H 430.365 3.08098 -2.36496 0
M  V30 4380 H 432.097 3.09096 -2.61231 0
M  V30 4381 H 428.852 1.98345 -4.30065 0
M  V30 4382 H 429.276 0.93885 -6.70458 0
M  V30 4383 H 433.918 1.65474 -3.89074 0
M  V30 4384 H 431.636 0.146472 -8.07967 0
M  V30 4385 H 435.222 0.720315 -5.77324 0
M  V30 4386 H 434.102 -0.0225344 -7.84197 0
M  V30 4387 N 431.605 1.3629 0.791371 0
M  V30 4388 C 432.882 1.20962 1.53712 0
M  V30 4389 C 433.262 -0.205021 2.10102 0
M  V30 4390 O 432.61 -1.21042 1.93807 0
M  V30 4391 C 432.82 2.29002 2.63361 0
M  V30 4392 C 434.168 2.65572 3.31295 0
M  V30 4393 O 435.192 2.2803 2.73643 0
M  V30 4394 O 434.051 3.3018 4.35481 0
M  V30 4395 H 431.145 0.47086 0.679867 0
M  V30 4396 H 433.691 1.48016 0.830021 0
M  V30 4397 H 432.463 3.2382 2.19674 0
M  V30 4398 H 432.086 2.03303 3.41692 0
M  V30 4399 N 433.083 -1.0153 1.20538 0
M  V30 4400 C 434.031 -2.12215 0.952235 0
M  V30 4401 C 435.025 -1.69123 -0.0968735 0
M  V30 4402 O 436.231 -1.7992 0.0536006 0
M  V30 4403 H 432.606 -0.693576 0.290613 0
M  V30 4404 H 434.577 -2.3075 1.89201 0
M  V30 4405 C 433.326 -3.43755 0.522287 0
M  V30 4406 H 432.649 -3.7734 1.32115 0
M  V30 4407 H 434.089 -4.22254 0.384389 0
M  V30 4408 C 432.548 -3.28088 -0.765489 0
M  V30 4409 O 433.078 -3.57921 -1.8236 0
M  V30 4410 N 431.284 -2.81333 -0.728011 0
M  V30 4411 H 430.831 -2.57255 0.133332 0
M  V30 4412 H 430.789 -2.71232 -1.58999 0
M  V30 4413 N 434.561 -1.01147 -1.20859 0
M  V30 4414 C 435.471 -0.58686 -2.27141 0
M  V30 4415 C 436.487 0.373198 -1.69951 0
M  V30 4416 O 437.663 0.235423 -2.00019 0
M  V30 4417 C 434.728 0.0733602 -3.46622 0
M  V30 4418 C 433.789 -0.931995 -4.19061 0
M  V30 4419 C 433.022 -0.303186 -5.32838 0
M  V30 4420 O 433.245 0.898395 -5.63281 0
M  V30 4421 O 432.179 -1.01735 -5.9324 0
M  V30 4422 H 436.005 -1.47155 -2.65667 0
M  V30 4423 H 433.59 -0.780689 -1.2738 0
M  V30 4424 H 435.472 0.442333 -4.19072 0
M  V30 4425 H 434.147 0.932329 -3.09983 0
M  V30 4426 H 433.054 -1.35224 -3.48805 0
M  V30 4427 H 434.387 -1.76076 -4.59628 0
M  V30 4428 N 436.039 1.36541 -0.78704 0
M  V30 4429 C 436.986 2.30082 -0.181901 0
M  V30 4430 C 437.956 1.5186 0.672896 0
M  V30 4431 O 439.141 1.80374 0.622072 0
M  V30 4432 C 436.281 3.3835 0.679197 0
M  V30 4433 C 435.394 4.31565 -0.193882 0
M  V30 4434 C 434.529 5.26915 0.673364 0
M  V30 4435 C 433.568 6.11769 -0.201315 0
M  V30 4436 N 432.705 6.99315 0.624777 0
M  V30 4437 H 437.545 2.81248 -0.985064 0
M  V30 4438 H 435.082 1.38437 -0.497342 0
M  V30 4439 H 437.04 3.99767 1.19341 0
M  V30 4440 H 435.67 2.8851 1.44781 0
M  V30 4441 H 434.722 3.71323 -0.826044 0
M  V30 4442 H 436.034 4.91191 -0.867937 0
M  V30 4443 H 435.188 5.9361 1.25348 0
M  V30 4444 H 433.927 4.67737 1.38105 0
M  V30 4445 H 432.932 5.44039 -0.793849 0
M  V30 4446 H 434.157 6.73022 -0.906568 0
M  V30 4447 H 432.103 6.42648 1.3168 0
M  V30 4448 H 432.02 7.56 0.00835237 0
M  V30 4449 H 433.288 7.70382 1.18879 0
M  V30 4450 N 437.518 0.538854 1.48102 0
M  V30 4451 C 438.929 0.100679 1.86428 0
M  V30 4452 C 439.28 -1.32447 1.44749 0
M  V30 4453 O 438.405 -1.99339 0.842199 0
M  V30 4454 C 439 0.175933 3.38343 0
M  V30 4455 C 437.559 -0.207098 3.7583 0
M  V30 4456 C 436.706 0.531741 2.72154 0
M  V30 4457 H 439.657 0.749614 1.3988 0
M  V30 4458 H 439.678 -0.610144 3.75576 0
M  V30 4459 H 439.19 1.21328 3.68648 0
M  V30 4460 H 437.291 -1.24626 3.5114 0
M  V30 4461 H 437.404 0.138687 4.78899 0
M  V30 4462 H 435.768 -0.0230462 2.5469 0
M  V30 4463 H 436.551 1.56989 3.05302 0
M  V30 4464 N 438.996 -1.55193 0.274407 0
M  V30 4465 C 440.224 -2.03987 -0.345943 0
M  V30 4466 C 440.639 -1.15279 -1.4952 0
M  V30 4467 O 439.996 -0.172759 -1.8168 0
M  V30 4468 C 440.047 -3.51898 -0.827631 0
M  V30 4469 O 439.768 -4.37231 0.275855 0
M  V30 4470 C 441.269 -4.16577 -1.51587 0
M  V30 4471 H 438.489 -0.666335 -0.0789892 0
M  V30 4472 H 441.033 -2.00423 0.406294 0
M  V30 4473 H 439.188 -3.55909 -1.52996 0
M  V30 4474 H 439.602 -5.24415 -0.0943638 0
M  V30 4475 H 441.076 -5.21678 -1.80433 0
M  V30 4476 H 441.553 -3.64707 -2.44716 0
M  V30 4477 H 442.159 -4.16568 -0.857409 0
M  V30 4478 N 440.474 -0.00167713 -1.576 0
M  V30 4479 C 441.714 0.687302 -1.92498 0
M  V30 4480 C 442.078 1.70844 -0.876144 0
M  V30 4481 O 443.279 2.44792 -1.11043 0
M  V30 4482 C 441.55 1.31217 -3.32441 0
M  V30 4483 S 443.109 2.02604 -3.89226 0
M  V30 4484 H 439.927 0.226985 -0.673794 0
M  V30 4485 H 442.529 -0.0587666 -1.95412 0
M  V30 4486 H 441.233 0.556164 -4.06614 0
M  V30 4487 H 440.764 2.09613 -3.32905 0
M  V30 4488 H 442.779 3.30137 -3.70438 0
M  V30 4489 N 441.952 1.55251 0.271103 0
M  V30 4490 C 442.899 1.88261 1.33516 0
M  V30 4491 C 443.869 0.734296 1.48988 0
M  V30 4492 O 445.054 0.985741 1.63364 0
M  V30 4493 C 442.194 2.16168 2.69008 0
M  V30 4494 C 441.307 3.43678 2.61743 0
M  V30 4495 C 440.442 3.61276 3.89427 0
M  V30 4496 C 439.481 4.82472 3.7668 0
M  V30 4497 N 438.618 4.96717 4.96202 0
M  V30 4498 H 443.458 2.79015 1.04665 0
M  V30 4499 H 440.995 1.38137 0.505618 0
M  V30 4500 H 442.953 2.30349 3.47844 0
M  V30 4501 H 441.583 1.28646 2.96057 0
M  V30 4502 H 440.635 3.37959 1.74607 0
M  V30 4503 H 441.947 4.3265 2.48224 0
M  V30 4504 H 441.101 3.75284 4.76704 0
M  V30 4505 H 439.84 2.70492 4.05814 0
M  V30 4506 H 438.845 4.68465 2.87786 0
M  V30 4507 H 440.07 5.74692 3.61809 0
M  V30 4508 H 438.016 4.08865 5.12997 0
M  V30 4509 H 437.933 5.79738 4.85222 0
M  V30 4510 H 439.201 5.15113 5.85046 0
M  V30 4511 N 443.43 -0.535701 1.48216 0
M  V30 4512 C 444.393 -1.623 1.61838 0
M  V30 4513 C 445.393 -1.53087 0.492024 0
M  V30 4514 O 446.583 -1.5686 0.757668 0
M  V30 4515 C 443.715 -3.01907 1.58319 0
M  V30 4516 H 444.908 -1.51564 2.58783 0
M  V30 4517 H 442.461 -0.757317 1.36727 0
M  V30 4518 H 443.196 -3.18155 0.628299 0
M  V30 4519 H 442.981 -3.10003 2.40085 0
M  V30 4520 H 444.471 -3.80969 1.71033 0
M  V30 4521 N 444.908 -1.36708 -0.784132 0
M  V30 4522 C 446.154 -1.31426 -1.54451 0
M  V30 4523 C 446.487 0.10476 -1.93917 0
M  V30 4524 O 445.762 1.05934 -1.6312 0
M  V30 4525 C 446.045 -2.24189 -2.818 0
M  V30 4526 C 445.898 -3.74813 -2.48667 0
M  V30 4527 C 447.217 -2.15626 -3.83658 0
M  V30 4528 H 444.336 -0.478739 -0.560337 0
M  V30 4529 H 446.978 -1.67305 -0.900498 0
M  V30 4530 H 445.128 -1.93722 -3.36755 0
M  V30 4531 H 446.8 -4.15823 -1.99722 0
M  V30 4532 H 445.043 -3.93989 -1.81535 0
M  V30 4533 H 445.714 -4.35138 -3.39646 0
M  V30 4534 H 448.19 -2.42456 -3.38163 0
M  V30 4535 H 447.066 -2.82694 -4.70506 0
M  V30 4536 H 447.327 -1.14522 -4.27009 0
M  V30 4537 N 446.386 1.0089 -1.21074 0
M  V30 4538 C 447.614 1.78191 -1.05145 0
M  V30 4539 C 448.029 1.84537 0.398952 0
M  V30 4540 O 447.386 1.30393 1.27687 0
M  V30 4541 C 447.437 3.22288 -1.63746 0
M  V30 4542 O 447.158 3.16315 -3.03111 0
M  V30 4543 C 448.659 4.16106 -1.52875 0
M  V30 4544 H 445.879 0.560129 -0.369454 0
M  V30 4545 H 448.423 1.26945 -1.60328 0
M  V30 4546 H 446.578 3.70655 -1.12664 0
M  V30 4547 H 446.992 4.06817 -3.31059 0
M  V30 4548 H 448.466 5.15026 -1.98626 0
M  V30 4549 H 448.943 4.36541 -0.482521 0
M  V30 4550 H 449.549 3.73625 -2.03185 0
M  V30 4551 N 447.864 1.01787 1.20321 0
M  V30 4552 C 449.104 0.716493 1.91431 0
M  V30 4553 C 449.468 -0.740352 1.77152 0
M  V30 4554 O 450.669 -1.1543 2.42754 0
M  V30 4555 C 448.94 1.14169 3.38674 0
M  V30 4556 S 450.499 0.962482 4.28114 0
M  V30 4557 H 447.317 0.261175 0.661293 0
M  V30 4558 H 449.919 1.30539 1.45533 0
M  V30 4559 H 448.623 2.19784 3.46588 0
M  V30 4560 H 448.154 0.545621 3.89598 0
M  V30 4561 H 450.169 -0.133253 4.96021 0
M  V30 4562 N 449.342 -1.36122 0.79427 0
M  V30 4563 C 450.758 -1.5232 0.476525 0
M  V30 4564 C 450.958 -1.74685 -1.00436 0
M  V30 4565 O 450.014 -1.78115 -1.78973 0
M  V30 4566 C 451.327 -2.70607 1.31119 0
M  V30 4567 C 452.875 -2.8448 1.30537 0
M  V30 4568 C 453.35 -4.05778 2.12387 0
M  V30 4569 N 454.841 -4.12933 2.09859 0
M  V30 4570 C 455.576 -5.05876 2.69957 0
M  V30 4571 N 455.072 -6.04232 3.38934 0
M  V30 4572 N 456.865 -4.98528 2.59665 0
M  V30 4573 H 449.016 -1.1986 1.75349 0
M  V30 4574 H 451.279 -0.585418 0.745647 0
M  V30 4575 H 450.985 -2.60619 2.36158 0
M  V30 4576 H 450.859 -3.64888 0.955843 0
M  V30 4577 H 453.246 -2.93927 0.262876 0
M  V30 4578 H 453.327 -1.91093 1.70051 0
M  V30 4579 H 452.971 -3.97092 3.1667 0
M  V30 4580 H 452.901 -4.98323 1.70242 0
M  V30 4581 H 455.392 -3.42515 1.59662 0
M  V30 4582 H 455.705 -6.71724 3.82109 0
M  V30 4583 H 454.05 -6.04443 3.43036 0
M  V30 4584 H 457.241 -4.20641 2.05375 0
M  V30 4585 H 457.414 -5.70773 3.06793 0
M  V30 4586 N 450.82 -0.546701 -1.47814 0
M  V30 4587 C 451.783 0.196287 -2.28358 0
M  V30 4588 C 452.783 0.852437 -1.36346 0
M  V30 4589 O 453.973 0.709913 -1.59078 0
M  V30 4590 C 451.105 1.28579 -3.15722 0
M  V30 4591 H 452.298 -0.511086 -2.95513 0
M  V30 4592 H 449.851 -0.303248 -1.5333 0
M  V30 4593 H 450.586 2.0259 -2.53235 0
M  V30 4594 H 450.371 0.820229 -3.83425 0
M  V30 4595 H 451.861 1.80793 -3.76435 0
M  V30 4596 N 452.299 1.55045 -0.282633 0
M  V30 4597 C 453.545 2.00056 0.332481 0
M  V30 4598 C 453.878 1.1708 1.54939 0
M  V30 4599 O 453.153 0.2427 1.9298 0
M  V30 4600 C 453.436 3.53086 0.70725 0
M  V30 4601 C 453.289 4.46813 -0.517521 0
M  V30 4602 C 454.608 4.12245 1.54084 0
M  V30 4603 H 451.727 0.727268 0.119373 0
M  V30 4604 H 454.369 1.85932 -0.391076 0
M  V30 4605 H 452.519 3.65253 1.32372 0
M  V30 4606 H 454.191 4.46579 -1.15607 0
M  V30 4607 H 452.434 4.18163 -1.1542 0
M  V30 4608 H 453.105 5.51595 -0.211426 0
M  V30 4609 H 455.581 4.03401 1.02013 0
M  V30 4610 H 454.457 5.19515 1.77186 0
M  V30 4611 H 454.718 3.62951 2.52427 0
M  V30 4612 N 453.777 0.010035 1.57597 0
M  V30 4613 C 455.193 -0.346164 1.55801 0
M  V30 4614 C 455.393 -1.74144 1.01371 0
M  V30 4615 O 454.449 -2.43938 0.651968 0
M  V30 4616 C 455.762 -0.212216 2.9995 0
M  V30 4617 C 457.31 -0.286409 3.11687 0
M  V30 4618 C 457.785 -0.18147 4.5764 0
M  V30 4619 N 459.276 -0.239056 4.62583 0
M  V30 4620 C 460.011 -0.181351 5.73113 0
M  V30 4621 N 459.507 -0.073661 6.92761 0
M  V30 4622 N 461.3 -0.233949 5.61613 0
M  V30 4623 H 453.451 0.922657 1.91313 0
M  V30 4624 H 455.714 0.354595 0.879185 0
M  V30 4625 H 455.42 0.748169 3.4365 0
M  V30 4626 H 455.294 -0.990224 3.6397 0
M  V30 4627 H 457.681 -1.23724 2.67911 0
M  V30 4628 H 457.762 0.521645 2.50425 0
M  V30 4629 H 457.406 0.765863 5.02093 0
M  V30 4630 H 457.336 -1.00814 5.1686 0
M  V30 4631 H 459.827 -0.32321 3.76515 0
M  V30 4632 H 460.14 -0.0358003 7.72792 0
M  V30 4633 H 458.485 -0.0391461 6.94989 0
M  V30 4634 H 461.676 -0.316347 4.6703 0
M  V30 4635 H 461.849 -0.185514 6.47734 0
M  V30 4636 N 455.255 -1.55392 -0.262866 0
M  V30 4637 C 456.187 -1.85392 -1.34768 0
M  V30 4638 C 457.2 -0.739069 -1.45057 0
M  V30 4639 O 458.389 -1.01703 -1.46693 0
M  V30 4640 C 455.489 -2.01088 -2.72795 0
M  V30 4641 C 454.662 -3.31828 -2.84972 0
M  V30 4642 C 453.721 -3.37464 -4.03738 0
M  V30 4643 O 452.747 -4.10778 -3.94018 0
M  V30 4644 N 453.949 -2.65599 -5.16176 0
M  V30 4645 H 456.714 -2.79029 -1.09375 0
M  V30 4646 H 454.275 -1.55434 -0.452981 0
M  V30 4647 H 456.267 -2.02217 -3.50557 0
M  V30 4648 H 454.837 -1.1427 -2.90966 0
M  V30 4649 H 454.057 -3.43152 -1.94012 0
M  V30 4650 H 455.345 -4.18032 -2.90045 0
M  V30 4651 H 454.743 -2.05736 -5.26962 0
M  V30 4652 H 453.3 -2.72439 -5.92132 0
M  V30 4653 N 456.733 0.527833 -1.48498 0
M  V30 4654 C 458.144 1.10975 -1.50138 0
M  V30 4655 C 458.495 1.943 -0.272378 0
M  V30 4656 O 457.62 2.07319 0.620301 0
M  V30 4657 C 458.215 2.01927 -2.72049 0
M  V30 4658 C 456.774 2.55332 -2.76554 0
M  V30 4659 C 455.921 1.32341 -2.43683 0
M  V30 4660 H 458.872 0.312986 -1.55583 0
M  V30 4661 H 458.893 2.86244 -2.50689 0
M  V30 4662 H 458.405 1.41254 -3.61481 0
M  V30 4663 H 456.506 3.19721 -1.91336 0
M  V30 4664 H 456.619 2.94319 -3.78038 0
M  V30 4665 H 454.983 1.63989 -1.94884 0
M  V30 4666 H 455.766 0.734165 -3.35358 0
M  V30 4667 N 458.211 1.37122 0.776871 0
M  V30 4668 C 459.143 1.28342 1.89897 0
M  V30 4669 C 460.156 0.200277 1.61563 0
M  V30 4670 O 461.345 0.456012 1.72577 0
M  V30 4671 C 458.445 0.960427 3.25006 0
M  V30 4672 C 457.618 2.148 3.81025 0
M  V30 4673 C 456.677 1.79608 4.94598 0
M  V30 4674 O 455.703 2.51845 5.10454 0
M  V30 4675 N 456.905 0.737171 5.758 0
M  V30 4676 H 459.67 2.25027 1.97947 0
M  V30 4677 H 457.231 1.3068 0.955739 0
M  V30 4678 H 459.223 0.705942 3.98495 0
M  V30 4679 H 457.793 0.0823066 3.12492 0
M  V30 4680 H 457.013 2.56454 2.99374 0
M  V30 4681 H 458.301 2.9411 4.15183 0
M  V30 4682 H 457.699 0.137637 5.65533 0
M  V30 4683 H 456.256 0.542534 6.49538 0
M  V30 4684 N 459.689 -1.00246 1.21608 0
M  V30 4685 C 460.637 -2.11193 0.97469 0
M  V30 4686 C 461.631 -1.69216 -0.0789303 0
M  V30 4687 O 462.837 -1.79853 0.0726806 0
M  V30 4688 H 459.212 -0.690455 0.297953 0
M  V30 4689 H 461.183 -2.2873 1.91638 0
M  V30 4690 C 459.932 -3.43182 0.558717 0
M  V30 4691 H 459.255 -3.75918 1.3611 0
M  V30 4692 H 460.695 -4.21823 0.429154 0
M  V30 4693 C 459.154 -3.28882 -0.730648 0
M  V30 4694 O 459.684 -3.59835 -1.78554 0
M  V30 4695 N 457.89 -2.8209 -0.698131 0
M  V30 4696 H 457.437 -2.57099 0.16061 0
M  V30 4697 H 457.395 -2.72903 -1.56113 0
M  V30 4698 N 461.167 -1.02423 -1.1978 0
M  V30 4699 C 462.415 -0.716569 -1.8897 0
M  V30 4700 C 462.736 0.756769 -1.79716 0
M  V30 4701 O 462.006 1.5449 -1.20456 0
M  V30 4702 H 460.586 -0.262062 -0.699523 0
M  V30 4703 H 463.248 -1.29747 -1.45436 0
M  V30 4704 H 462.344 -1.00675 -2.95417 0
M  V30 4705 N 462.645 1.35699 -0.801477 0
M  V30 4706 C 463.87 2.03687 -0.390678 0
M  V30 4707 C 464.295 1.60015 0.988778 0
M  V30 4708 O 463.653 0.774357 1.63931 0
M  V30 4709 C 463.701 3.57439 -0.476404 0
M  V30 4710 O 462.805 4.09208 0.512106 0
M  V30 4711 H 462.146 0.64344 -0.163956 0
M  V30 4712 H 464.676 1.73403 -1.08594 0
M  V30 4713 H 464.686 4.06544 -0.344357 0
M  V30 4714 H 463.361 3.88576 -1.48262 0
M  V30 4715 H 461.938 3.7134 0.340721 0
M  V30 4716 N 464.123 0.554532 1.47522 0
M  V30 4717 C 465.369 0.0295227 2.02779 0
M  V30 4718 C 465.702 -1.31582 1.42828 0
M  V30 4719 O 464.977 -1.85561 0.582872 0
M  V30 4720 C 465.26 -0.0664057 3.60039 0
M  V30 4721 C 465.113 1.30585 4.30427 0
M  V30 4722 C 466.432 -0.781162 4.33112 0
M  V30 4723 H 463.551 0.0122027 0.736899 0
M  V30 4724 H 466.193 0.716305 1.7598 0
M  V30 4725 H 464.343 -0.651307 3.83002 0
M  V30 4726 H 466.015 1.93374 4.18813 0
M  V30 4727 H 464.258 1.88125 3.90886 0
M  V30 4728 H 464.929 1.19147 5.38988 0
M  V30 4729 H 467.405 -0.284565 4.15126 0
M  V30 4730 H 466.281 -0.817237 5.42782 0
M  V30 4731 H 466.542 -1.83672 4.0214 0
M  V30 4732 N 465.601 -1.54893 0.290851 0
M  V30 4733 C 467.017 -1.59476 -0.0628432 0
M  V30 4734 C 467.217 -1.30795 -1.5328 0
M  V30 4735 O 466.273 -1.07644 -2.28406 0
M  V30 4736 C 467.586 -2.98928 0.325962 0
M  V30 4737 C 469.134 -3.11799 0.273882 0
M  V30 4738 C 469.609 -4.53544 0.637359 0
M  V30 4739 N 471.1 -4.59433 0.589507 0
M  V30 4740 C 471.835 -5.67164 0.84335 0
M  V30 4741 N 471.331 -6.82975 1.16263 0
M  V30 4742 N 473.124 -5.56786 0.771091 0
M  V30 4743 H 465.275 -1.71798 1.24896 0
M  V30 4744 H 467.538 -0.801879 0.505663 0
M  V30 4745 H 467.244 -3.24805 1.34887 0
M  V30 4746 H 467.118 -3.75793 -0.325441 0
M  V30 4747 H 469.505 -2.85677 -0.739765 0
M  V30 4748 H 469.586 -2.37112 0.959766 0
M  V30 4749 H 469.23 -4.80394 1.64877 0
M  V30 4750 H 469.16 -5.26553 -0.0704866 0
M  V30 4751 H 471.651 -3.76245 0.353252 0
M  V30 4752 H 471.964 -7.61048 1.34257 0
M  V30 4753 H 470.309 -6.84552 1.20057 0
M  V30 4754 H 473.5 -4.65187 0.521383 0
M  V30 4755 H 473.673 -6.40664 0.972295 0
M  V30 4756 N 467.08 -0.0183926 -1.57589 0
M  V30 4757 C 468.32 0.666846 -1.93216 0
M  V30 4758 C 468.684 1.69905 -0.894215 0
M  V30 4759 O 469.885 2.436 -1.13633 0
M  V30 4760 C 468.156 1.27684 -3.33814 0
M  V30 4761 S 469.715 1.98464 -3.91353 0
M  V30 4762 H 466.533 0.219826 -0.676164 0
M  V30 4763 H 469.135 -0.0794893 -1.95338 0
M  V30 4764 H 467.839 0.513006 -4.07181 0
M  V30 4765 H 467.37 2.06071 -3.3511 0
M  V30 4766 H 469.385 3.26189 -3.73918 0
M  V30 4767 N 468.558 1.5553 0.254621 0
M  V30 4768 C 469.783 1.81383 1.00573 0
M  V30 4769 C 470.208 0.594419 1.78461 0
M  V30 4770 O 469.566 -0.456403 1.75461 0
M  V30 4771 C 469.614 3.04892 1.92545 0
M  V30 4772 O 468.718 2.81266 3.01601 0
M  V30 4773 H 468.059 0.598969 0.286587 0
M  V30 4774 H 470.589 2.02703 0.277952 0
M  V30 4775 H 470.599 3.34119 2.34155 0
M  V30 4776 H 469.274 3.93287 1.3527 0
M  V30 4777 H 467.851 2.63185 2.64174 0
M  V30 4778 N 470.036 -0.519951 1.48776 0
M  V30 4779 C 470.986 -1.61995 1.60442 0
M  V30 4780 C 471.97 -1.54155 0.460991 0
M  V30 4781 O 473.162 -1.62006 0.712965 0
M  V30 4782 C 470.291 -3.00683 1.65664 0
M  V30 4783 C 469.377 -3.1359 2.8552 0
M  V30 4784 N 469.768 -2.96441 4.09825 0
M  V30 4785 C 468.066 -3.44662 2.83062 0
M  V30 4786 C 468.767 -3.1303 4.90293 0
M  V30 4787 N 467.743 -3.41058 4.23297 0
M  V30 4788 H 471.545 -1.47362 2.54287 0
M  V30 4789 H 469.059 -0.725649 1.45286 0
M  V30 4790 H 471.056 -3.79712 1.72117 0
M  V30 4791 H 469.716 -3.16401 0.729425 0
M  V30 4792 H 470.727 -2.72999 4.40104 0
M  V30 4793 H 467.404 -3.66675 1.9964 0
M  V30 4794 H 468.794 -3.04424 5.98979 0
M  V30 4795 N 471.514 -1.37532 -0.769588 0
M  V30 4796 C 472.739 -1.36231 -1.56384 0
M  V30 4797 C 473.164 0.0495849 -1.88035 0
M  V30 4798 O 472.522 1.02723 -1.49391 0
M  V30 4799 C 472.57 -2.20986 -2.84952 0
M  V30 4800 O 471.674 -1.61597 -3.79421 0
M  V30 4801 H 471.015 -0.465387 -0.473615 0
M  V30 4802 H 473.545 -1.81085 -0.952342 0
M  V30 4803 H 473.555 -2.34277 -3.34034 0
M  V30 4804 H 472.23 -3.23612 -2.61243 0
M  V30 4805 H 470.807 -1.57359 -3.38072 0
M  V30 4806 N 472.992 0.995999 -1.22138 0
M  V30 4807 C 474.403 1.54961 -1.04135 0
M  V30 4808 C 474.754 1.92159 0.396147 0
M  V30 4809 O 473.879 1.74435 1.28069 0
M  V30 4810 C 474.474 2.81581 -1.88408 0
M  V30 4811 C 473.033 3.33396 -1.74712 0
M  V30 4812 C 472.18 2.06509 -1.85066 0
M  V30 4813 H 475.131 0.817436 -1.36028 0
M  V30 4814 H 475.152 3.53822 -1.39966 0
M  V30 4815 H 474.664 2.54476 -2.93025 0
M  V30 4816 H 472.765 3.65416 -0.728159 0
M  V30 4817 H 472.878 4.04208 -2.57202 0
M  V30 4818 H 471.242 2.19925 -1.28472 0
M  V30 4819 H 472.025 1.81804 -2.91208 0
M  V30 4820 N 474.47 1.03057 1.19235 0
M  V30 4821 C 475.433 0.617418 2.20727 0
M  V30 4822 C 476.433 -0.319856 1.57587 0
M  V30 4823 O 477.623 -0.106633 1.73873 0
M  V30 4824 C 474.755 -0.096296 3.40764 0
M  V30 4825 H 475.948 1.51544 2.58794 0
M  V30 4826 H 473.501 0.821949 1.32942 0
M  V30 4827 H 474.236 -1.00859 3.08217 0
M  V30 4828 H 474.021 0.577217 3.87828 0
M  V30 4829 H 475.511 -0.372219 4.15938 0
M  V30 4830 N 475.948 -1.35272 0.808662 0
M  V30 4831 C 477.196 -1.98316 0.389233 0
M  V30 4832 C 477.517 -1.64465 -1.04767 0
M  V30 4833 O 476.787 -0.928175 -1.72516 0
M  V30 4834 H 475.367 -0.733585 0.140935 0
M  V30 4835 H 478.029 -1.6515 1.03496 0
M  V30 4836 H 477.125 -3.08123 0.496631 0
M  V30 4837 N 477.426 -0.562348 -1.47226 0
M  V30 4838 C 478.336 0.185466 -2.33866 0
M  V30 4839 C 479.352 0.906713 -1.48508 0
M  V30 4840 O 480.528 0.874458 -1.81425 0
M  V30 4841 C 477.593 1.19904 -3.25306 0
M  V30 4842 C 476.654 0.484669 -4.26555 0
M  V30 4843 C 475.887 1.44996 -5.13626 0
M  V30 4844 O 476.11 2.68515 -5.03245 0
M  V30 4845 O 475.044 0.971642 -5.94006 0
M  V30 4846 H 478.87 -0.525361 -2.99121 0
M  V30 4847 H 476.455 -0.322916 -1.45868 0
M  V30 4848 H 478.337 1.78399 -3.81774 0
M  V30 4849 H 477.012 1.8917 -2.62672 0
M  V30 4850 H 475.919 -0.141605 -3.73832 0
M  V30 4851 H 477.252 -0.166634 -4.91918 0
M  V30 4852 N 478.904 1.54736 -0.299062 0
M  V30 4853 C 480.151 2.00101 0.310784 0
M  V30 4854 C 480.479 1.18746 1.54045 0
M  V30 4855 O 479.734 0.251198 1.94081 0
M  V30 4856 C 480.033 3.50199 0.713835 0
M  V30 4857 C 479.699 4.48997 -0.413873 0
M  V30 4858 C 478.361 4.7573 -0.723462 0
M  V30 4859 C 480.713 5.07839 -1.17257 0
M  V30 4860 C 478.041 5.5857 -1.79491 0
M  V30 4861 C 480.393 5.91844 -2.23392 0
M  V30 4862 C 479.057 6.16889 -2.54959 0
M  V30 4863 H 478.327 0.732221 0.113724 0
M  V30 4864 H 480.974 1.86888 -0.417756 0
M  V30 4865 H 479.279 3.61012 1.52243 0
M  V30 4866 H 480.976 3.82723 1.19684 0
M  V30 4867 H 477.566 4.28292 -0.162476 0
M  V30 4868 H 481.75 4.87188 -0.946651 0
M  V30 4869 H 477.006 5.76213 -2.04423 0
M  V30 4870 H 481.18 6.36465 -2.8264 0
M  V30 4871 H 478.807 6.80869 -3.38114 0
M  V30 4872 N 480.382 0.0267497 1.57577 0
M  V30 4873 C 481.61 -0.662661 1.96001 0
M  V30 4874 C 482.025 -1.65799 0.903117 0
M  V30 4875 O 481.382 -1.82135 -0.115317 0
M  V30 4876 C 481.433 -1.37112 3.34488 0
M  V30 4877 O 481.154 -0.415683 4.36123 0
M  V30 4878 C 482.655 -2.15257 3.8753 0
M  V30 4879 H 479.875 -0.18287 0.6456 0
M  V30 4880 H 482.419 0.0858116 2.0432 0
M  V30 4881 H 480.574 -2.07101 3.27395 0
M  V30 4882 H 480.988 -0.918496 5.16395 0
M  V30 4883 H 482.462 -2.60285 4.86781 0
M  V30 4884 H 482.939 -2.99063 3.21649 0
M  V30 4885 H 483.545 -1.50231 3.97883 0
M  V30 4886 N 481.861 -1.55662 -0.24637 0
M  V30 4887 C 483.108 -1.77519 -0.974335 0
M  V30 4888 C 483.436 -0.591165 -1.85298 0
M  V30 4889 O 482.691 0.425497 -1.91018 0
M  V30 4890 C 482.99 -3.04885 -1.86494 0
M  V30 4891 C 482.656 -4.36209 -1.14161 0
M  V30 4892 C 481.318 -4.71896 -0.941701 0
M  V30 4893 C 483.67 -5.17391 -0.628957 0
M  V30 4894 C 480.998 -5.86299 -0.216852 0
M  V30 4895 C 483.35 -6.32546 0.0824273 0
M  V30 4896 C 482.014 -6.66853 0.293807 0
M  V30 4897 H 481.284 -0.649588 -0.356535 0
M  V30 4898 H 483.931 -1.89934 -0.244394 0
M  V30 4899 H 482.236 -2.87484 -2.66196 0
M  V30 4900 H 483.933 -3.18994 -2.42989 0
M  V30 4901 H 480.523 -4.08174 -1.30736 0
M  V30 4902 H 484.707 -4.90276 -0.770943 0
M  V30 4903 H 479.963 -6.11385 -0.0426124 0
M  V30 4904 H 484.137 -6.94693 0.487292 0
M  V30 4905 H 481.764 -7.55349 0.857428 0
M  V30 4906 N 483.339 0.512053 -1.4905 0
M  V30 4907 C 484.286 1.6148 -1.64902 0
M  V30 4908 C 485.256 1.58687 -0.490673 0
M  V30 4909 O 486.441 1.76842 -0.71636 0
M  V30 4910 C 483.581 2.99676 -1.71139 0
M  V30 4911 C 482.694 3.12568 -2.98203 0
M  V30 4912 C 481.829 4.4143 -2.95487 0
M  V30 4913 C 480.868 4.47916 -4.17179 0
M  V30 4914 N 480.005 5.68191 -4.12437 0
M  V30 4915 H 484.845 1.47271 -2.59066 0
M  V30 4916 H 482.382 0.716713 -1.28459 0
M  V30 4917 H 484.34 3.79761 -1.72736 0
M  V30 4918 H 482.97 3.12614 -0.804508 0
M  V30 4919 H 482.022 2.25618 -3.06269 0
M  V30 4920 H 483.334 3.1322 -3.88194 0
M  V30 4921 H 482.488 5.29825 -2.95585 0
M  V30 4922 H 481.227 4.43326 -2.03256 0
M  V30 4923 H 480.232 3.57925 -4.17337 0
M  V30 4924 H 481.457 4.47744 -5.1059 0
M  V30 4925 H 479.403 5.7095 -3.23036 0
M  V30 4926 H 479.32 5.70413 -4.96151 0
M  V30 4927 H 480.588 6.58823 -4.16621 0
M  V30 4928 N 484.817 1.37938 0.762283 0
M  V30 4929 C 486.042 1.37059 1.55659 0
M  V30 4930 C 486.467 -0.0396123 1.88058 0
M  V30 4931 O 485.825 -1.01929 1.49934 0
M  V30 4932 C 485.873 2.22494 2.83776 0
M  V30 4933 O 484.977 1.63607 3.78559 0
M  V30 4934 H 484.318 0.467892 0.47114 0
M  V30 4935 H 486.848 1.81587 0.942725 0
M  V30 4936 H 486.858 2.36045 3.32786 0
M  V30 4937 H 485.533 3.24993 2.59524 0
M  V30 4938 H 484.11 1.5915 3.37233 0
M  V30 4939 N 486.295 -0.989507 1.22664 0
M  V30 4940 C 487.52 -1.77031 1.08051 0
M  V30 4941 C 487.945 -1.84535 -0.364483 0
M  V30 4942 O 487.303 -1.3003 -1.2634 0
M  V30 4943 C 487.351 -3.18 1.70024 0
M  V30 4944 O 486.455 -4.01161 0.956216 0
M  V30 4945 H 485.796 -0.545008 0.379292 0
M  V30 4946 H 488.326 -1.24277 1.62531 0
M  V30 4947 H 488.336 -3.68616 1.74888 0
M  V30 4948 H 487.011 -3.11853 2.75174 0
M  V30 4949 H 485.588 -3.59687 0.98384 0
M  V30 4950 N 487.773 -1.03688 -1.18687 0
M  V30 4951 C 489.013 -0.746858 -1.90267 0
M  V30 4952 C 489.377 0.712075 -1.78307 0
M  V30 4953 O 490.578 1.11553 -2.44559 0
M  V30 4954 C 488.849 -1.19543 -3.36815 0
M  V30 4955 S 490.408 -1.03047 -4.26529 0
M  V30 4956 H 487.226 -0.271663 -0.657054 0
M  V30 4957 H 489.828 -1.32838 -1.43437 0
M  V30 4958 H 488.532 -2.2527 -3.43047 0
M  V30 4959 H 488.063 -0.607533 -3.88681 0
M  V30 4960 H 490.078 0.0543232 -4.9617 0
M  V30 4961 N 489.251 1.34841 -0.815825 0
M  V30 4962 C 490.199 2.31549 -0.220888 0
M  V30 4963 C 491.193 1.5707 0.634457 0
M  V30 4964 O 492.399 1.72125 0.526589 0
M  V30 4965 H 488.774 0.750153 -0.0526782 0
M  V30 4966 H 490.745 2.7926 -1.05149 0
M  V30 4967 C 489.494 3.42335 0.608427 0
M  V30 4968 H 488.817 3.9978 -0.0404121 0
M  V30 4969 H 490.257 4.12258 0.990931 0
M  V30 4970 C 488.716 2.86173 1.77782 0
M  V30 4971 O 489.246 2.80474 2.87571 0
M  V30 4972 N 487.452 2.43093 1.59229 0
M  V30 4973 H 486.999 2.47928 0.699237 0
M  V30 4974 H 486.957 2.05866 2.37627 0
M  V30 4975 N 490.729 0.570148 1.46925 0
M  V30 4976 C 491.976 0.0509529 2.02436 0
M  V30 4977 C 492.304 -1.30405 1.44308 0
M  V30 4978 O 491.559 -1.86493 0.593198 0
M  V30 4979 C 491.858 -0.0780336 3.57315 0
M  V30 4980 C 491.524 1.20775 4.34424 0
M  V30 4981 C 490.186 1.56004 4.5521 0
M  V30 4982 C 492.538 2.0592 4.78797 0
M  V30 4983 C 489.866 2.76201 5.17619 0
M  V30 4984 C 492.218 3.25332 5.42533 0
M  V30 4985 C 490.882 3.60859 5.61549 0
M  V30 4986 H 490.152 0.018645 0.740765 0
M  V30 4987 H 492.799 0.744262 1.76445 0
M  V30 4988 H 491.104 -0.854394 3.82371 0
M  V30 4989 H 492.801 -0.495312 3.97929 0
M  V30 4990 H 489.391 0.923469 4.18533 0
M  V30 4991 H 493.575 1.80008 4.62505 0
M  V30 4992 H 488.831 3.0388 5.30535 0
M  V30 4993 H 493.005 3.91586 5.75876 0
M  V30 4994 H 490.632 4.54088 6.09678 0
M  V30 4995 N 492.207 -1.54576 0.307264 0
M  V30 4996 C 493.435 -2.04675 -0.302597 0
M  V30 4997 C 493.85 -1.18425 -1.47041 0
M  V30 4998 O 493.207 -0.211257 -1.81273 0
M  V30 4999 C 493.258 -3.53575 -0.752801 0
M  V30 5000 O 492.979 -4.36547 0.368536 0
M  V30 5001 C 494.48 -4.19699 -1.42717 0
M  V30 5002 H 491.7 -0.66786 -0.0648374 0
M  V30 5003 H 494.244 -1.99516 0.448716 0
M  V30 5004 H 492.399 -3.59074 -1.45412 0
M  V30 5005 H 492.813 -5.24497 0.0168937 0
M  V30 5006 H 494.287 -5.25388 -1.69327 0
M  V30 5007 H 494.764 -3.69815 -2.36925 0
M  V30 5008 H 495.37 -4.18293 -0.768856 0
M  V30 5009 N 493.685 -0.035106 -1.57561 0
M  V30 5010 C 494.925 0.646316 -1.93913 0
M  V30 5011 C 495.289 1.68947 -0.912185 0
M  V30 5012 O 496.49 2.42381 -1.1621 0
M  V30 5013 C 494.761 1.24136 -3.35149 0
M  V30 5014 S 496.32 1.94302 -3.93436 0
M  V30 5015 H 493.138 0.212642 -0.678457 0
M  V30 5016 H 495.74 -0.100203 -1.95243 0
M  V30 5017 H 494.444 0.46979 -4.07702 0
M  V30 5018 H 493.975 2.02505 -3.37276 0
M  V30 5019 H 495.99 3.22205 -3.77357 0
M  V30 5020 N 495.163 1.55791 0.238111 0
M  V30 5021 C 496.073 1.94196 1.31625 0
M  V30 5022 C 497.089 0.843545 1.52185 0
M  V30 5023 O 498.265 1.1457 1.65637 0
M  V30 5024 C 495.33 2.2365 2.64918 0
M  V30 5025 C 494.391 3.46971 2.52804 0
M  V30 5026 C 493.624 3.7501 3.79741 0
M  V30 5027 O 493.847 3.04982 4.82019 0
M  V30 5028 O 492.781 4.68525 3.77846 0
M  V30 5029 H 496.607 2.86044 1.02043 0
M  V30 5030 H 494.192 1.42786 0.439603 0
M  V30 5031 H 496.074 2.43863 3.4367 0
M  V30 5032 H 494.749 1.34979 2.94215 0
M  V30 5033 H 493.656 3.32055 1.72309 0
M  V30 5034 H 494.989 4.35971 2.28451 0
M  V30 5035 N 496.642 -0.504142 1.49319 0
M  V30 5036 C 497.552 -1.63248 1.68486 0
M  V30 5037 C 498.568 -1.64488 0.567432 0
M  V30 5038 O 499.744 -1.82966 0.841749 0
M  V30 5039 C 496.809 -2.99627 1.74426 0
M  V30 5040 C 495.87 -3.09039 2.97982 0
M  V30 5041 C 495.103 -4.38913 3.0363 0
M  V30 5042 O 495.326 -5.27528 2.16958 0
M  V30 5043 O 494.26 -4.53231 3.96062 0
M  V30 5044 H 498.086 -1.50008 2.64067 0
M  V30 5045 H 495.671 -0.680086 1.33023 0
M  V30 5046 H 497.553 -3.80689 1.80705 0
M  V30 5047 H 496.228 -3.13136 0.820233 0
M  V30 5048 H 495.135 -2.27177 2.97223 0
M  V30 5049 H 496.468 -3.00456 3.89855 0
M  V30 5050 N 498.12 -1.38341 -0.754957 0
M  V30 5051 C 499.368 -1.34208 -1.51105 0
M  V30 5052 C 499.689 0.0677634 -1.94882 0
M  V30 5053 O 498.959 1.01517 -1.67544 0
M  V30 5054 H 497.539 -0.493819 -0.560493 0
M  V30 5055 H 500.201 -1.73005 -0.897507 0
M  V30 5056 H 499.297 -1.99203 -2.4026 0
M  V30 5057 N 499.598 0.982988 -1.23187 0
M  V30 5058 C 500.845 1.72392 -1.06241 0
M  V30 5059 C 501.173 1.9032 0.40108 0
M  V30 5060 O 500.428 1.45084 1.31336 0
M  V30 5061 C 500.727 3.12736 -1.73006 0
M  V30 5062 C 500.393 3.14695 -3.22921 0
M  V30 5063 C 499.055 3.14937 -3.63824 0
M  V30 5064 C 501.407 3.10211 -4.1883 0
M  V30 5065 C 498.735 3.08408 -4.99101 0
M  V30 5066 C 501.087 3.05224 -5.54095 0
M  V30 5067 C 499.751 3.03787 -5.94365 0
M  V30 5068 H 499.021 0.630829 -0.388762 0
M  V30 5069 H 501.668 1.15053 -1.53085 0
M  V30 5070 H 499.973 3.73446 -1.18514 0
M  V30 5071 H 501.67 3.68828 -1.57374 0
M  V30 5072 H 498.26 3.15262 -2.90358 0
M  V30 5073 H 502.444 3.09166 -3.8824 0
M  V30 5074 H 497.7 3.05646 -5.29519 0
M  V30 5075 H 501.874 3.00712 -6.28128 0
M  V30 5076 H 499.501 2.98483 -6.99151 0
M  V30 5077 N 501.076 1.04316 1.18135 0
M  V30 5078 C 502.009 0.580823 2.20685 0
M  V30 5079 C 502.987 -0.385943 1.57953 0
M  V30 5080 O 504.171 -0.299654 1.86103 0
M  V30 5081 C 501.298 -0.151162 3.38363 0
M  V30 5082 C 500.344 0.769247 4.19505 0
M  V30 5083 S 501.177 2.25352 4.85774 0
M  V30 5084 C 502.333 1.53246 6.0685 0
M  V30 5085 H 502.566 1.44968 2.5956 0
M  V30 5086 H 500.099 0.85434 1.28609 0
M  V30 5087 H 502.057 -0.567315 4.06561 0
M  V30 5088 H 500.718 -0.995936 2.97892 0
M  V30 5089 H 499.911 0.203335 5.0359 0
M  V30 5090 H 499.513 1.12436 3.56699 0
M  V30 5091 H 501.805 0.82689 6.72435 0
M  V30 5092 H 502.748 2.35044 6.67952 0
M  V30 5093 H 503.156 1.0237 5.5514 0
M  V30 5094 N 502.554 -1.34406 0.822964 0
M  V30 5095 C 503.484 -2.32052 0.259608 0
M  V30 5096 C 504.465 -1.58243 -0.623961 0
M  V30 5097 O 505.65 -1.86224 -0.55083 0
M  V30 5098 C 502.78 -3.42434 -0.579314 0
M  V30 5099 C 501.734 -4.27499 0.20712 0
M  V30 5100 C 501.06 -5.29349 -0.754547 0
M  V30 5101 C 502.36 -5.02758 1.41533 0
M  V30 5102 H 504.054 -2.79418 1.07545 0
M  V30 5103 H 501.6 -1.34338 0.518593 0
M  V30 5104 H 503.553 -4.0976 -0.983612 0
M  V30 5105 H 502.277 -2.93717 -1.4282 0
M  V30 5106 H 500.936 -3.61776 0.592787 0
M  V30 5107 H 500.584 -4.76895 -1.59939 0
M  V30 5108 H 500.284 -5.8714 -0.232561 0
M  V30 5109 H 501.808 -5.99544 -1.1567 0
M  V30 5110 H 503.222 -5.62938 1.08504 0
M  V30 5111 H 501.619 -5.70123 1.87296 0
M  V30 5112 H 502.689 -4.32451 2.1935 0
M  V30 5113 N 504.032 -0.577932 -1.46621 0
M  V30 5114 C 504.964 0.195801 -2.28362 0
M  V30 5115 C 505.977 0.859983 -1.38232 0
M  V30 5116 O 507.166 0.730349 -1.62875 0
M  V30 5117 C 504.266 1.29639 -3.13124 0
M  V30 5118 C 503.439 0.725049 -4.31349 0
M  V30 5119 C 502.498 1.71274 -4.97546 0
M  V30 5120 O 501.524 1.25067 -5.5529 0
M  V30 5121 N 502.726 3.04672 -4.94121 0
M  V30 5122 H 505.491 -0.505468 -2.95407 0
M  V30 5123 H 503.052 -0.415381 -1.56481 0
M  V30 5124 H 505.044 1.95631 -3.54275 0
M  V30 5125 H 503.614 1.90059 -2.48186 0
M  V30 5126 H 502.834 -0.112205 -3.9404 0
M  V30 5127 H 504.122 0.323034 -5.07774 0
M  V30 5128 H 503.52 3.4484 -4.48444 0
M  V30 5129 H 502.077 3.66166 -5.39227 0
M  V30 5130 N 505.51 1.54411 -0.315457 0
M  V30 5131 C 506.758 2.00023 0.288971 0
M  V30 5132 C 507.079 1.20529 1.5329 0
M  V30 5133 O 506.349 0.304986 1.93511 0
M  V30 5134 H 504.929 0.738891 0.109766 0
M  V30 5135 H 507.591 1.90094 -0.430129 0
M  V30 5136 H 506.687 3.07198 0.550999 0
M  V30 5137 N 506.988 0.0434614 1.5754 0
M  V30 5138 C 508.399 -0.493343 1.80064 0
M  V30 5139 C 508.75 -1.71388 0.955023 0
M  V30 5140 O 507.875 -2.15736 0.169434 0
M  V30 5141 C 508.47 -0.90179 3.26578 0
M  V30 5142 C 507.029 -1.38362 3.50047 0
M  V30 5143 C 506.176 -0.355129 2.75017 0
M  V30 5144 H 509.127 0.2694 1.56397 0
M  V30 5145 H 509.148 -1.76523 3.37075 0
M  V30 5146 H 508.66 -0.013271 3.88098 0
M  V30 5147 H 506.761 -2.29159 2.93798 0
M  V30 5148 H 506.874 -1.3811 4.58762 0
M  V30 5149 H 505.238 -0.826348 2.40922 0
M  V30 5150 H 506.021 0.525172 3.39259 0
M  V30 5151 N 508.466 -1.55915 -0.229846 0
M  V30 5152 C 509.429 -1.90914 -1.26824 0
M  V30 5153 C 510.429 -0.786999 -1.40225 0
M  V30 5154 O 511.619 -1.05484 -1.38632 0
M  V30 5155 C 508.751 -2.15264 -2.64337 0
M  V30 5156 H 509.944 -2.8378 -0.969998 0
M  V30 5157 H 507.497 -1.49069 -0.4699 0
M  V30 5158 H 508.232 -1.24923 -2.99274 0
M  V30 5159 H 508.017 -2.97005 -2.55989 0
M  V30 5160 H 509.507 -2.43467 -3.39284 0
M  V30 5161 N 509.944 0.496216 -1.49584 0
M  V30 5162 C 510.876 1.61404 -1.62731 0
M  V30 5163 C 511.889 1.54613 -0.50978 0
M  V30 5164 O 513.078 1.60458 -0.782017 0
M  V30 5165 C 510.178 3.00212 -1.57245 0
M  V30 5166 C 509.351 3.32138 -2.84611 0
M  V30 5167 C 508.41 4.5038 -2.72112 0
M  V30 5168 O 507.436 4.51926 -3.46051 0
M  V30 5169 N 508.638 5.50575 -1.83977 0
M  V30 5170 H 511.403 1.50552 -2.59141 0
M  V30 5171 H 508.964 0.684182 -1.46733 0
M  V30 5172 H 510.956 3.77241 -1.4653 0
M  V30 5173 H 509.526 3.04964 -0.686729 0
M  V30 5174 H 508.746 2.4396 -3.09641 0
M  V30 5175 H 510.034 3.50268 -3.69039 0
M  V30 5176 H 509.432 5.52128 -1.23171 0
M  V30 5177 H 507.989 6.26687 -1.79182 0
M  V30 5178 N 511.423 1.38739 0.74761 0
M  V30 5179 C 512.669 1.35475 1.50912 0
M  V30 5180 C 513.002 -0.0533093 1.94127 0
M  V30 5181 O 512.277 -1.01572 1.65871 0
M  V30 5182 C 512.56 2.31582 2.75757 0
M  V30 5183 C 512.413 3.81274 2.38642 0
M  V30 5184 C 513.732 2.25722 3.77806 0
M  V30 5185 H 510.851 0.493427 0.547447 0
M  V30 5186 H 513.493 1.69634 0.855823 0
M  V30 5187 H 511.643 2.02582 3.31501 0
M  V30 5188 H 513.315 4.20972 1.88626 0
M  V30 5189 H 511.558 3.98664 1.71025 0
M  V30 5190 H 512.229 4.4399 3.27989 0
M  V30 5191 H 514.705 2.51336 3.31616 0
M  V30 5192 H 513.581 2.95069 4.62845 0
M  V30 5193 H 513.842 1.25803 4.23823 0
M  V30 5194 N 512.901 -0.976442 1.23707 0
M  V30 5195 C 513.811 -2.10359 1.03856 0
M  V30 5196 C 514.827 -1.73991 -0.0180919 0
M  V30 5197 O 516.003 -2.0061 0.178211 0
M  V30 5198 C 513.068 -3.40809 0.636387 0
M  V30 5199 C 512.129 -3.91179 1.76854 0
M  V30 5200 C 511.362 -5.15404 1.38546 0
M  V30 5201 O 511.585 -5.69754 0.27142 0
M  V30 5202 O 510.519 -5.5994 2.20797 0
M  V30 5203 H 514.345 -2.29997 1.98331 0
M  V30 5204 H 511.93 -1.08742 1.02448 0
M  V30 5205 H 513.812 -4.19269 0.423223 0
M  V30 5206 H 512.487 -3.22493 -0.279322 0
M  V30 5207 H 511.394 -3.13819 2.03638 0
M  V30 5208 H 512.727 -4.13958 2.6627 0
M  V30 5209 N 514.379 -1.04941 -1.1758 0
M  V30 5210 C 515.619 -0.766996 -1.89464 0
M  V30 5211 C 515.983 0.693123 -1.79053 0
M  V30 5212 O 517.184 1.08953 -2.45729 0
M  V30 5213 C 515.455 -1.23108 -3.35528 0
M  V30 5214 S 517.014 -1.07565 -4.25412 0
M  V30 5215 H 513.832 -0.278616 -0.654136 0
M  V30 5216 H 516.434 -1.34352 -1.4202 0
M  V30 5217 H 515.138 -2.28896 -3.40639 0
M  V30 5218 H 514.669 -0.648724 -3.88014 0
M  V30 5219 H 516.684 0.00169467 -4.962 0
M  V30 5220 N 515.857 1.33968 -0.830081 0
M  V30 5221 C 517.085 2.0228 -0.434773 0
M  V30 5222 C 517.5 1.62487 0.961419 0
M  V30 5223 O 516.857 0.833849 1.62337 0
M  V30 5224 C 516.908 3.5751 -0.535625 0
M  V30 5225 O 516.629 3.95864 -1.87679 0
M  V30 5226 C 518.13 4.43091 -0.136137 0
M  V30 5227 H 515.35 0.648151 -0.173613 0
M  V30 5228 H 517.894 1.71089 -1.12022 0
M  V30 5229 H 516.049 3.87266 0.101817 0
M  V30 5230 H 516.463 4.9056 -1.85609 0
M  V30 5231 H 517.937 5.51398 -0.257772 0
M  V30 5232 H 518.414 4.29433 0.921076 0
M  V30 5233 H 519.02 4.18677 -0.747662 0
M  V30 5234 N 517.335 0.585699 1.46312 0
M  V30 5235 C 518.563 0.0781299 2.06752 0
M  V30 5236 C 518.978 -1.22812 1.43396 0
M  V30 5237 O 518.335 -1.74318 0.540314 0
M  V30 5238 C 518.386 -0.0911927 3.61385 0
M  V30 5239 O 518.107 1.16336 4.22371 0
M  V30 5240 C 519.608 -0.632765 4.38761 0
M  V30 5241 H 516.828 0.0588188 0.668417 0
M  V30 5242 H 519.372 0.807218 1.87894 0
M  V30 5243 H 517.527 -0.770514 3.7966 0
M  V30 5244 H 517.941 0.979082 5.15281 0
M  V30 5245 H 519.415 -0.70041 5.47538 0
M  V30 5246 H 519.892 -1.65039 4.07012 0
M  V30 5247 H 520.498 0.0117856 4.25298 0
M  V30 5248 N 518.813 -1.54241 0.323641 0
M  V30 5249 C 519.745 -2.21836 -0.576311 0
M  V30 5250 C 520.758 -1.21837 -1.07979 0
M  V30 5251 O 521.947 -1.48306 -0.99336 0
M  V30 5252 C 519.047 -2.86923 -1.80356 0
M  V30 5253 C 518.22 -4.1306 -1.43875 0
M  V30 5254 C 517.279 -4.6174 -2.52353 0
M  V30 5255 O 516.305 -5.26421 -2.16494 0
M  V30 5256 N 517.507 -4.35974 -3.83284 0
M  V30 5257 H 520.272 -2.997 0.00247987 0
M  V30 5258 H 517.833 -1.61233 0.146848 0
M  V30 5259 H 519.825 -3.16414 -2.52318 0
M  V30 5260 H 518.395 -2.12765 -2.29019 0
M  V30 5261 H 517.615 -3.90334 -0.550752 0
M  V30 5262 H 518.903 -4.95148 -1.17071 0
M  V30 5263 H 518.301 -3.84203 -4.15216 0
M  V30 5264 H 516.858 -4.70119 -4.51477 0
M  V30 5265 N 520.291 -0.0518155 -1.57515 0
M  V30 5266 C 521.539 0.620595 -1.92336 0
M  V30 5267 C 521.86 1.71345 -0.930907 0
M  V30 5268 O 521.13 1.95885 0.0241341 0
M  V30 5269 H 519.71 0.232226 -0.709986 0
M  V30 5270 H 522.372 -0.104969 -1.94617 0
M  V30 5271 H 521.468 1.05879 -2.93592 0
M  V30 5272 N 521.769 1.56035 0.221574 0
M  V30 5273 C 522.701 1.889 1.29805 0
M  V30 5274 C 523.714 0.777269 1.43047 0
M  V30 5275 O 524.903 1.05557 1.43945 0
M  V30 5276 C 522.003 2.0825 2.67367 0
M  V30 5277 C 521.176 3.39267 2.76073 0
M  V30 5278 C 520.235 3.48049 3.94649 0
M  V30 5279 O 519.261 4.2108 3.82988 0
M  V30 5280 N 520.463 2.79191 5.08953 0
M  V30 5281 H 523.228 2.81831 1.01938 0
M  V30 5282 H 520.789 1.5658 0.411612 0
M  V30 5283 H 522.781 2.11441 3.45072 0
M  V30 5284 H 521.351 1.21944 2.87834 0
M  V30 5285 H 520.571 3.48175 1.84846 0
M  V30 5286 H 521.859 4.25575 2.7886 0
M  V30 5287 H 521.257 2.19635 5.21322 0
M  V30 5288 H 519.814 2.88043 5.84701 0
M  V30 5289 N 523.247 -0.488276 1.49845 0
M  V30 5290 C 524.493 -1.24065 1.61182 0
M  V30 5291 C 524.848 -1.9004 0.300435 0
M  V30 5292 O 524.141 -1.78341 -0.700365 0
M  V30 5293 C 524.335 -2.32152 2.71735 0
M  V30 5294 C 524.164 -1.76778 4.13497 0
M  V30 5295 C 522.934 -1.57513 4.80123 0
M  V30 5296 C 525.132 -1.27242 4.98311 0
M  V30 5297 N 523.114 -0.972015 6.06156 0
M  V30 5298 C 524.485 -0.791457 6.14928 0
M  V30 5299 C 526.54 -1.15934 4.84214 0
M  V30 5300 C 525.243 -0.208593 7.18997 0
M  V30 5301 C 527.269 -0.590436 5.88445 0
M  V30 5302 C 526.631 -0.119767 7.04298 0
M  V30 5303 H 522.73 -0.443487 0.644083 0
M  V30 5304 H 525.314 -0.545551 1.86901 0
M  V30 5305 H 523.485 -2.99108 2.47768 0
M  V30 5306 H 525.217 -2.99187 2.72523 0
M  V30 5307 H 521.972 -1.82247 4.37131 0
M  V30 5308 H 522.396 -0.689367 6.73481 0
M  V30 5309 H 527.038 -1.5092 3.94947 0
M  V30 5310 H 524.756 0.153501 8.07954 0
M  V30 5311 H 528.342 -0.505548 5.79599 0
M  V30 5312 H 527.222 0.313568 7.83573 0
M  V30 5313 N 524.725 -1.39134 -0.740242 0
M  V30 5314 C 525.953 -1.39334 -1.5295 0
M  V30 5315 C 526.368 0.0135008 -1.88795 0
M  V30 5316 O 525.725 0.983524 -1.5373 0
M  V30 5317 C 525.776 -2.2614 -2.82034 0
M  V30 5318 O 525.497 -3.61345 -2.47712 0
M  V30 5319 C 526.998 -2.34666 -3.76094 0
M  V30 5320 H 524.218 -0.476103 -0.472828 0
M  V30 5321 H 526.762 -1.82883 -0.9151 0
M  V30 5322 H 524.917 -1.86018 -3.39818 0
M  V30 5323 H 525.331 -4.07194 -3.30595 0
M  V30 5324 H 526.805 -2.99663 -4.63579 0
M  V30 5325 H 527.282 -1.36426 -4.17474 0
M  V30 5326 H 527.888 -2.75236 -3.2423 0
M  V30 5327 N 526.204 0.969867 -1.24223 0
M  V30 5328 C 527.136 2.0669 -0.99055 0
M  V30 5329 C 528.149 1.62753 0.0392222 0
M  V30 5330 O 529.338 1.77403 -0.197561 0
M  V30 5331 C 526.438 3.35589 -0.472594 0
M  V30 5332 C 525.611 4.08444 -1.56499 0
M  V30 5333 C 524.67 5.15616 -1.05007 0
M  V30 5334 O 523.696 5.41911 -1.7413 0
M  V30 5335 N 524.898 5.80383 0.116641 0
M  V30 5336 H 527.663 2.28855 -1.93508 0
M  V30 5337 H 525.224 1.13733 -1.15223 0
M  V30 5338 H 527.216 4.04542 -0.112919 0
M  V30 5339 H 525.786 3.10311 0.377617 0
M  V30 5340 H 525.006 3.33798 -2.09696 0
M  V30 5341 H 526.294 4.53882 -2.29932 0
M  V30 5342 H 525.692 5.6142 0.694589 0
M  V30 5343 H 524.249 6.50462 0.417483 0
M  V30 5344 N 527.682 1.05563 1.17022 0
M  V30 5345 C 528.614 0.617888 2.20714 0
M  V30 5346 C 529.627 -0.320303 1.59618 0
M  V30 5347 O 530.816 -0.112449 1.78145 0
M  V30 5348 C 527.916 -0.115333 3.38704 0
M  V30 5349 C 527.089 0.834493 4.29366 0
M  V30 5350 C 526.148 0.141855 5.26009 0
M  V30 5351 O 525.174 0.777151 5.6387 0
M  V30 5352 N 526.376 -1.11934 5.69606 0
M  V30 5353 H 529.141 1.50981 2.58892 0
M  V30 5354 H 526.702 0.938008 1.31958 0
M  V30 5355 H 528.694 -0.588918 4.00392 0
M  V30 5356 H 527.264 -0.908967 2.99093 0
M  V30 5357 H 526.484 1.48762 3.65053 0
M  V30 5358 H 527.772 1.4791 4.86827 0
M  V30 5359 H 527.17 -1.65574 5.40927 0
M  V30 5360 H 525.727 -1.53692 6.33421 0
M  V30 5361 N 529.16 -1.33526 0.837174 0
M  V30 5362 C 530.409 -1.97098 0.428387 0
M  V30 5363 C 530.722 -1.67062 -1.01734 0
M  V30 5364 O 531.928 -2.24235 -1.53072 0
M  V30 5365 C 530.384 -3.52725 0.715075 0
M  V30 5366 C 529.992 -3.9164 2.17537 0
M  V30 5367 C 531.736 -4.22857 0.373154 0
M  V30 5368 C 529.643 -5.40237 2.40619 0
M  V30 5369 H 528.573 -0.737589 0.156455 0
M  V30 5370 H 531.224 -1.52169 1.02552 0
M  V30 5371 H 529.606 -3.95971 0.0475904 0
M  V30 5372 H 530.78 -3.59456 2.88319 0
M  V30 5373 H 529.095 -3.34485 2.4801 0
M  V30 5374 H 531.692 -5.32133 0.523264 0
M  V30 5375 H 532.035 -4.10647 -0.683708 0
M  V30 5376 H 532.568 -3.85135 0.995801 0
M  V30 5377 H 529.307 -5.57449 3.44864 0
M  V30 5378 H 528.827 -5.73887 1.74396 0
M  V30 5379 H 530.506 -6.07102 2.23688 0
M  V30 5380 N 530.638 -0.59345 -1.46 0
M  V30 5381 C 532.049 -0.169801 -1.85926 0
M  V30 5382 C 532.4 1.26984 -1.49565 0
M  V30 5383 O 531.525 1.96076 -0.915602 0
M  V30 5384 C 532.12 -0.301385 -3.37457 0
M  V30 5385 C 530.679 0.0674684 -3.7634 0
M  V30 5386 C 529.826 -0.632383 -2.69993 0
M  V30 5387 H 532.777 -0.801014 -1.37002 0
M  V30 5388 H 532.798 0.470331 -3.77582 0
M  V30 5389 H 532.31 -1.34927 -3.63891 0
M  V30 5390 H 530.411 1.11507 -3.55523 0
M  V30 5391 H 530.524 -0.316332 -4.78055 0
M  V30 5392 H 528.888 -0.0714961 -2.546 0
M  V30 5393 H 529.671 -1.68212 -2.99265 0
M  V30 5394 N 532.116 1.54067 -0.331816 0
M  V30 5395 C 533.362 2.01012 0.268667 0
M  V30 5396 C 533.695 1.2195 1.51136 0
M  V30 5397 O 532.97 0.303972 1.9211 0
M  V30 5398 C 533.253 3.55158 0.59456 0
M  V30 5399 C 533.106 4.4494 -0.659409 0
M  V30 5400 C 534.425 4.16939 1.4089 0
M  V30 5401 H 531.544 0.730698 0.0961756 0
M  V30 5402 H 534.186 1.84593 -0.450031 0
M  V30 5403 H 532.336 3.6928 1.20685 0
M  V30 5404 H 534.008 4.42675 -1.29756 0
M  V30 5405 H 532.251 4.1428 -1.28665 0
M  V30 5406 H 532.922 5.50643 -0.386804 0
M  V30 5407 H 535.398 4.06443 0.891272 0
M  V30 5408 H 534.274 5.24889 1.60569 0
M  V30 5409 H 534.535 3.70798 2.40752 0
M  V30 5410 N 533.594 0.0601682 1.57485 0
M  V30 5411 C 534.834 -0.615384 1.94916 0
M  V30 5412 C 535.198 -1.67475 0.938948 0
M  V30 5413 O 536.399 -2.40502 1.20051 0
M  V30 5414 C 534.67 -1.18788 3.37082 0
M  V30 5415 S 536.229 -1.88018 3.96478 0
M  V30 5416 H 533.047 -0.201821 0.681754 0
M  V30 5417 H 535.649 0.131252 1.95059 0
M  V30 5418 H 534.353 -0.404869 4.08398 0
M  V30 5419 H 533.884 -1.97114 3.40455 0
M  V30 5420 H 535.899 -3.16161 3.82435 0
M  V30 5421 N 535.072 -1.5615 -0.213296 0
M  V30 5422 C 535.982 -1.96265 -1.28519 0
M  V30 5423 C 536.998 -0.86765 -1.50824 0
M  V30 5424 O 538.174 -1.17191 -1.63793 0
M  V30 5425 C 535.239 -2.27836 -2.61327 0
M  V30 5426 C 534.3 -3.50949 -2.47252 0
M  V30 5427 C 533.533 -3.81004 -3.73727 0
M  V30 5428 O 533.756 -3.12612 -4.77106 0
M  V30 5429 O 532.69 -4.74477 -3.70344 0
M  V30 5430 H 536.516 -2.87631 -0.974795 0
M  V30 5431 H 534.101 -1.43467 -0.416832 0
M  V30 5432 H 535.983 -2.49299 -3.39747 0
M  V30 5433 H 534.658 -1.39643 -2.9203 0
M  V30 5434 H 533.565 -3.34754 -1.67004 0
M  V30 5435 H 534.898 -4.39551 -2.21486 0
M  V30 5436 N 536.55 0.480323 -1.50102 0
M  V30 5437 C 537.513 1.56181 -1.6775 0
M  V30 5438 C 538.513 1.51156 -0.548503 0
M  V30 5439 O 539.703 1.5394 -0.815363 0
M  V30 5440 C 536.835 2.95823 -1.69415 0
M  V30 5441 H 538.028 1.41855 -2.6423 0
M  V30 5442 H 535.581 0.70605 -1.39444 0
M  V30 5443 H 536.316 3.15604 -0.745948 0
M  V30 5444 H 536.101 3.00878 -2.51425 0
M  V30 5445 H 537.591 3.74359 -1.85054 0
M  V30 5446 N 538.028 1.39524 0.732853 0
M  V30 5447 C 539.275 1.36865 1.49246 0
M  V30 5448 C 539.603 -0.0347118 1.94469 0
M  V30 5449 O 538.858 -1.01596 1.67262 0
M  V30 5450 C 539.157 2.28916 2.74468 0
M  V30 5451 C 538.823 3.76506 2.481 0
M  V30 5452 C 537.485 4.16721 2.40619 0
M  V30 5453 C 539.837 4.69846 2.25598 0
M  V30 5454 C 537.165 5.48334 2.08679 0
M  V30 5455 C 539.517 6.01739 1.95174 0
M  V30 5456 C 538.181 6.41015 1.86163 0
M  V30 5457 H 537.451 0.500824 0.546129 0
M  V30 5458 H 540.098 1.72047 0.840958 0
M  V30 5459 H 538.403 1.86859 3.4437 0
M  V30 5460 H 540.1 2.2415 3.32502 0
M  V30 5461 H 536.69 3.44635 2.54803 0
M  V30 5462 H 540.874 4.39608 2.30344 0
M  V30 5463 H 536.13 5.77685 2.00226 0
M  V30 5464 H 540.304 6.73591 1.76771 0
M  V30 5465 H 537.931 7.42917 1.61179 0
M  V30 5466 N 539.506 -0.963266 1.24736 0
M  V30 5467 C 540.438 -2.06162 1.0015 0
M  V30 5468 C 541.451 -1.62771 -0.0305905 0
M  V30 5469 O 542.64 -1.77296 0.206966 0
M  V30 5470 C 539.74 -3.35333 0.490385 0
M  V30 5471 C 538.913 -4.07609 1.58663 0
M  V30 5472 C 537.972 -5.15052 1.0774 0
M  V30 5473 O 536.998 -5.4098 1.77002 0
M  V30 5474 N 538.2 -5.80436 -0.0858605 0
M  V30 5475 H 540.965 -2.27825 1.94719 0
M  V30 5476 H 538.526 -1.13121 1.15825 0
M  V30 5477 H 540.518 -4.04477 0.134371 0
M  V30 5478 H 539.088 -3.10507 -0.361155 0
M  V30 5479 H 538.308 -3.32681 2.11463 0
M  V30 5480 H 539.596 -4.52656 2.32336 0
M  V30 5481 H 538.994 -5.6178 -0.664806 0
M  V30 5482 H 537.551 -6.50674 -0.382981 0
M  V30 5483 N 540.985 -1.06182 -1.16461 0
M  V30 5484 C 542.225 -0.787048 -1.8864 0
M  V30 5485 C 542.589 0.674093 -1.79778 0
M  V30 5486 O 543.79 1.06341 -2.46871 0
M  V30 5487 C 542.061 -1.2666 -3.34203 0
M  V30 5488 S 543.62 -1.12071 -4.24247 0
M  V30 5489 H 540.438 -0.285539 -0.651144 0
M  V30 5490 H 543.04 -1.35851 -1.40587 0
M  V30 5491 H 541.744 -2.32496 -3.38192 0
M  V30 5492 H 541.275 -0.689841 -3.87304 0
M  V30 5493 H 543.29 -0.0509341 -4.96174 0
M  V30 5494 N 542.463 1.3308 -0.844243 0
M  V30 5495 C 543.691 2.01808 -0.456203 0
M  V30 5496 C 544.106 1.63498 0.944131 0
M  V30 5497 O 543.463 0.85102 1.61443 0
M  V30 5498 C 543.514 3.56922 -0.573513 0
M  V30 5499 O 543.235 3.93851 -1.91868 0
M  V30 5500 C 544.736 4.42922 -0.183125 0
M  V30 5501 H 541.956 0.646273 -0.180477 0
M  V30 5502 H 544.5 1.69891 -1.1383 0
M  V30 5503 H 542.655 3.87352 0.0607367 0
M  V30 5504 H 543.069 4.88564 -1.90802 0
M  V30 5505 H 544.543 5.51093 -0.316241 0
M  V30 5506 H 545.02 4.30386 0.875477 0
M  V30 5507 H 545.626 4.1786 -0.792027 0
M  V30 5508 N 543.941 0.601185 1.45683 0
M  V30 5509 C 544.904 -0.111398 2.28929 0
M  V30 5510 C 545.904 -0.801246 1.39416 0
M  V30 5511 O 547.094 -0.650383 1.61603 0
M  V30 5512 C 544.226 -1.16773 3.20276 0
M  V30 5513 H 545.419 0.620412 2.93413 0
M  V30 5514 H 542.972 0.359946 1.52099 0
M  V30 5515 H 543.707 -1.93051 2.60579 0
M  V30 5516 H 543.492 -0.677358 3.86205 0
M  V30 5517 H 544.982 -1.66698 3.82886 0
M  V30 5518 N 545.419 -1.53889 0.339982 0
M  V30 5519 C 546.349 -2.27843 -0.510856 0
M  V30 5520 C 547.33 -1.29267 -1.10563 0
M  V30 5521 O 548.515 -1.58104 -1.12768 0
M  V30 5522 C 545.645 -3.04857 -1.66372 0
M  V30 5523 C 544.599 -4.10907 -1.19746 0
M  V30 5524 C 543.925 -4.75855 -2.43857 0
M  V30 5525 C 545.225 -5.21435 -0.300501 0
M  V30 5526 H 546.919 -2.99212 0.106067 0
M  V30 5527 H 544.465 -1.43904 0.0524533 0
M  V30 5528 H 546.418 -3.5533 -2.26537 0
M  V30 5529 H 545.142 -2.31133 -2.30749 0
M  V30 5530 H 543.801 -3.61342 -0.618654 0
M  V30 5531 H 543.449 -3.9873 -3.06633 0
M  V30 5532 H 543.149 -5.47502 -2.13343 0
M  V30 5533 H 544.673 -5.2911 -3.04754 0
M  V30 5534 H 546.087 -5.67565 -0.80889 0
M  V30 5535 H 544.484 -6.00036 -0.0874076 0
M  V30 5536 H 545.554 -4.80328 0.664321 0
M  V30 5537 N 546.897 -0.0685191 -1.57451 0
M  V30 5538 C 548.122 0.613919 -1.98106 0
M  V30 5539 C 548.547 1.62551 -0.946501 0
M  V30 5540 O 547.905 1.81085 0.0882824 0
M  V30 5541 C 547.953 1.26189 -3.378 0
M  V30 5542 O 547.057 2.37773 -3.36954 0
M  V30 5543 H 546.398 0.158163 -0.644888 0
M  V30 5544 H 548.928 -0.142063 -2.04106 0
M  V30 5545 H 548.938 1.60951 -3.74912 0
M  V30 5546 H 547.613 0.520625 -4.12629 0
M  V30 5547 H 546.19 2.04829 -3.11608 0
M  V30 5548 N 548.375 1.56261 0.205012 0
M  V30 5549 C 549.323 1.94631 1.27364 0
M  V30 5550 C 550.317 0.830434 1.47649 0
M  V30 5551 O 551.523 1.01538 1.48627 0
M  V30 5552 H 547.898 0.618755 0.427371 0
M  V30 5553 H 549.869 2.83768 0.922941 0
M  V30 5554 C 548.618 2.29358 2.61324 0
M  V30 5555 H 547.941 3.14744 2.46528 0
M  V30 5556 H 549.381 2.60076 3.34868 0
M  V30 5557 C 547.84 1.12461 3.17575 0
M  V30 5558 O 548.37 0.394407 3.99759 0
M  V30 5559 N 546.576 0.904036 2.7618 0
M  V30 5560 H 546.123 1.49956 2.09454 0
M  V30 5561 H 546.081 0.123662 3.14157 0
M  V30 5562 N 549.853 -0.472356 1.50355 0
M  V30 5563 C 551.264 -1.05326 1.54154 0
M  V30 5564 C 551.615 -1.93155 0.344303 0
M  V30 5565 O 550.74 -2.09479 -0.542928 0
M  V30 5566 C 551.335 -1.91691 2.79356 0
M  V30 5567 C 549.894 -2.44892 2.8584 0
M  V30 5568 C 549.041 -1.23205 2.48426 0
M  V30 5569 H 551.992 -0.255027 1.56637 0
M  V30 5570 H 552.013 -2.76742 2.6114 0
M  V30 5571 H 551.525 -1.27741 3.66475 0
M  V30 5572 H 549.626 -3.12399 2.0307 0
M  V30 5573 H 549.739 -2.80086 3.88701 0
M  V30 5574 H 548.103 -1.56643 2.00836 0
M  V30 5575 H 548.886 -0.609194 3.37852 0
M  V30 5576 N 551.331 -1.39911 -0.725443 0
M  V30 5577 C 552.241 -1.41688 -1.8698 0
M  V30 5578 C 553.257 -0.310579 -1.71206 0
M  V30 5579 O 554.433 -0.55359 -1.93642 0
M  V30 5580 C 551.498 -1.26811 -3.22676 0
M  V30 5581 C 550.559 -2.47497 -3.50776 0
M  V30 5582 C 549.792 -2.3332 -4.79997 0
M  V30 5583 O 550.015 -1.34175 -5.54394 0
M  V30 5584 O 548.949 -3.22498 -5.08211 0
M  V30 5585 H 552.775 -2.38171 -1.88436 0
M  V30 5586 H 550.36 -1.21128 -0.874548 0
M  V30 5587 H 552.242 -1.20684 -4.03749 0
M  V30 5588 H 550.917 -0.334289 -3.21969 0
M  V30 5589 H 549.824 -2.59201 -2.69751 0
M  V30 5590 H 551.157 -3.39606 -3.5627 0
M  V30 5591 N 552.809 0.956637 -1.25245 0
M  V30 5592 C 554.225 1.22733 -1.02023 0
M  V30 5593 C 554.425 1.99761 0.264186 0
M  V30 5594 O 553.481 2.32814 0.977436 0
M  V30 5595 C 554.794 2.00367 -2.24217 0
M  V30 5596 C 556.342 2.13418 -2.28958 0
M  V30 5597 C 556.817 2.9445 -3.50803 0
M  V30 5598 N 558.308 3.02029 -3.51187 0
M  V30 5599 C 559.043 3.65116 -4.42129 0
M  V30 5600 N 558.539 4.2983 -5.43339 0
M  V30 5601 N 560.332 3.62237 -4.29815 0
M  V30 5602 H 552.483 0.441282 -2.07765 0
M  V30 5603 H 554.746 0.257686 -0.912306 0
M  V30 5604 H 554.452 1.51165 -3.17556 0
M  V30 5605 H 554.326 3.01077 -2.27228 0
M  V30 5606 H 556.713 2.61819 -1.36143 0
M  V30 5607 H 556.794 1.1202 -2.29968 0
M  V30 5608 H 556.438 2.46741 -4.43939 0
M  V30 5609 H 556.368 3.9607 -3.47039 0
M  V30 5610 H 558.859 2.56007 -2.77973 0
M  V30 5611 H 559.172 4.75819 -6.08947 0
M  V30 5612 H 557.517 4.28465 -5.47214 0
M  V30 5613 H 560.708 3.10863 -3.49974 0
M  V30 5614 H 560.881 4.11117 -5.00886 0
M  V30 5615 N 554.287 1.06798 1.15896 0
M  V30 5616 C 555.535 0.786211 1.8618 0
M  V30 5617 C 555.856 -0.689547 1.82401 0
M  V30 5618 O 555.126 -1.49913 1.26107 0
M  V30 5619 H 553.706 0.287843 0.689315 0
M  V30 5620 H 556.368 1.35055 1.40521 0
M  V30 5621 H 555.464 1.1157 2.91477 0
M  V30 5622 N 555.766 -1.3263 0.851289 0
M  V30 5623 C 556.996 -2.01271 0.466222 0
M  V30 5624 C 557.404 -1.64156 -0.940714 0
M  V30 5625 O 556.747 -0.857109 -1.62479 0
M  V30 5626 C 556.809 -3.55695 0.521672 0
M  V30 5627 C 556.473 -4.16227 1.88691 0
M  V30 5628 C 557.47 -4.34699 2.85189 0
M  V30 5629 C 555.155 -4.52377 2.18313 0
M  V30 5630 C 557.149 -4.88484 4.09465 0
M  V30 5631 C 554.836 -5.05868 3.42843 0
M  V30 5632 C 555.834 -5.23869 4.38235 0
M  V30 5633 O 555.522 -5.76218 5.6056 0
M  V30 5634 H 555.254 -0.651034 0.18202 0
M  V30 5635 H 557.808 -1.7026 1.14894 0
M  V30 5636 H 556.038 -3.86086 -0.217888 0
M  V30 5637 H 557.727 -4.05613 0.152682 0
M  V30 5638 H 558.493 -4.07107 2.63607 0
M  V30 5639 H 554.372 -4.37652 1.44851 0
M  V30 5640 H 557.916 -5.02451 4.83931 0
M  V30 5641 H 553.813 -5.32891 3.64277 0
M  V30 5642 H 554.581 -5.94616 5.62471 0
M  V30 5643 N 557.244 -0.608902 -1.45362 0
M  V30 5644 C 558.177 0.158059 -2.27652 0
M  V30 5645 C 559.155 0.872397 -1.37215 0
M  V30 5646 O 560.339 0.881002 -1.66645 0
M  V30 5647 C 557.466 1.22896 -3.15617 0
M  V30 5648 C 556.512 0.617607 -4.22005 0
M  V30 5649 S 557.345 -0.575518 -5.32398 0
M  V30 5650 C 558.501 0.495938 -6.23932 0
M  V30 5651 H 558.734 -0.540095 -2.92353 0
M  V30 5652 H 556.267 -0.396456 -1.49223 0
M  V30 5653 H 558.225 1.84195 -3.66855 0
M  V30 5654 H 556.886 1.89919 -2.50179 0
M  V30 5655 H 556.079 1.42341 -4.83482 0
M  V30 5656 H 555.681 0.0797273 -3.73915 0
M  V30 5657 H 557.973 1.37465 -6.63408 0
M  V30 5658 H 558.916 -0.0827108 -7.08052 0
M  V30 5659 H 559.324 0.811856 -5.58631 0
M  V30 5660 N 558.722 1.53707 -0.348139 0
M  V30 5661 C 559.67 2.26671 0.521808 0
M  V30 5662 C 560.664 1.28988 1.09811 0
M  V30 5663 O 561.87 1.4668 1.04332 0
M  V30 5664 H 558.245 0.728387 0.186968 0
M  V30 5665 H 560.216 2.98176 -0.115563 0
M  V30 5666 C 558.965 3.05591 1.6586 0
M  V30 5667 H 558.288 3.80589 1.22443 0
M  V30 5668 H 559.728 3.59851 2.24239 0
M  V30 5669 C 558.187 2.15366 2.59073 0
M  V30 5670 O 558.717 1.7528 3.61441 0
M  V30 5671 N 556.923 1.80352 2.27863 0
M  V30 5672 H 556.47 2.13149 1.44656 0
M  V30 5673 H 556.428 1.20268 2.90488 0
M  V30 5674 N 560.2 0.0768682 1.57412 0
M  V30 5675 C 561.44 -0.594676 1.95558 0
M  V30 5676 C 561.804 -1.66469 0.956658 0
M  V30 5677 O 563.005 -2.39215 1.22595 0
M  V30 5678 C 561.276 -1.15206 3.38323 0
M  V30 5679 S 562.835 -1.83803 3.9845 0
M  V30 5680 H 559.653 -0.194579 0.683857 0
M  V30 5681 H 562.255 0.151933 1.94909 0
M  V30 5682 H 560.959 -0.36153 4.08805 0
M  V30 5683 H 560.49 -1.93491 3.42527 0
M  V30 5684 H 562.505 -3.12087 3.85767 0
M  V30 5685 N 561.678 -1.56367 -0.196722 0
M  V30 5686 C 562.608 -1.97442 -1.24655 0
M  V30 5687 C 563.589 -0.846147 -1.47561 0
M  V30 5688 O 564.774 -1.11035 -1.59326 0
M  V30 5689 C 561.904 -2.31253 -2.59112 0
M  V30 5690 C 560.858 -3.46804 -2.50821 0
M  V30 5691 C 560.184 -3.66286 -3.89536 0
M  V30 5692 C 561.484 -4.8104 -2.03465 0
M  V30 5693 H 563.178 -2.85388 -0.905216 0
M  V30 5694 H 560.724 -1.37304 -0.434002 0
M  V30 5695 H 562.677 -2.58583 -3.32736 0
M  V30 5696 H 561.401 -1.40188 -2.94983 0
M  V30 5697 H 560.06 -3.19563 -1.79653 0
M  V30 5698 H 559.708 -2.72555 -4.22756 0
M  V30 5699 H 559.408 -4.4402 -3.84864 0
M  V30 5700 H 560.932 -3.9599 -4.64784 0
M  V30 5701 H 562.346 -5.07411 -2.66846 0
M  V30 5702 H 560.743 -5.62232 -2.09798 0
M  V30 5703 H 561.813 -4.74732 -0.98781 0
M  V30 5704 N 563.156 0.464375 -1.50603 0
M  V30 5705 C 564.567 1.04507 -1.5471 0
M  V30 5706 C 564.918 1.9297 -0.354542 0
M  V30 5707 O 564.043 2.09763 0.531812 0
M  V30 5708 C 564.638 1.90207 -2.80369 0
M  V30 5709 C 563.197 2.43373 -2.87135 0
M  V30 5710 C 562.344 1.21886 -2.49076 0
M  V30 5711 H 565.295 0.246716 -1.56771 0
M  V30 5712 H 565.316 2.75353 -2.62604 0
M  V30 5713 H 564.828 1.25796 -3.67147 0
M  V30 5714 H 562.929 3.11318 -2.04724 0
M  V30 5715 H 563.042 2.7802 -3.90181 0
M  V30 5716 H 561.406 1.55575 -2.01664 0
M  V30 5717 H 562.189 0.591268 -3.3817 0
M  V30 5718 N 564.634 1.40294 0.718013 0
M  V30 5719 C 565.859 1.41941 1.5122 0
M  V30 5720 C 566.284 0.0202371 1.88089 0
M  V30 5721 O 565.642 -0.971078 1.53101 0
M  V30 5722 C 565.69 2.3141 2.76554 0
M  V30 5723 O 564.794 1.75567 3.73162 0
M  V30 5724 H 564.135 0.482644 0.456016 0
M  V30 5725 H 566.665 1.84494 0.884478 0
M  V30 5726 H 566.675 2.46513 3.25108 0
M  V30 5727 H 565.35 3.33085 2.49053 0
M  V30 5728 H 563.927 1.69798 3.31999 0
M  V30 5729 N 566.112 -0.949982 1.2575 0
M  V30 5730 C 567.075 -2.02894 1.06615 0
M  V30 5731 C 568.075 -1.60791 0.0173905 0
M  V30 5732 O 569.265 -1.72249 0.260003 0
M  V30 5733 C 566.397 -3.35219 0.619751 0
M  V30 5734 H 567.59 -2.21302 2.02399 0
M  V30 5735 H 565.143 -1.12772 1.08223 0
M  V30 5736 H 565.878 -3.22508 -0.340486 0
M  V30 5737 H 565.663 -3.67129 1.37692 0
M  V30 5738 H 567.153 -4.14505 0.507443 0
M  V30 5739 N 567.59 -1.07411 -1.15328 0
M  V30 5740 C 568.815 -0.818856 -1.90551 0
M  V30 5741 C 569.24 0.622194 -1.77512 0
M  V30 5742 O 568.598 1.43484 -1.10824 0
M  V30 5743 C 568.646 -1.23267 -3.38877 0
M  V30 5744 O 567.75 -0.378345 -4.10661 0
M  V30 5745 H 567.091 -0.29827 -0.593238 0
M  V30 5746 H 569.621 -1.43289 -1.46046 0
M  V30 5747 H 569.631 -1.20912 -3.89672 0
M  V30 5748 H 568.306 -2.28226 -3.47686 0
M  V30 5749 H 566.883 -0.464437 -3.69996 0
M  V30 5750 N 569.068 1.32177 -0.85831 0
M  V30 5751 C 570.316 1.96735 -0.462568 0
M  V30 5752 C 570.637 1.6824 0.985911 0
M  V30 5753 O 569.907 0.991564 1.68952 0
M  V30 5754 H 568.487 0.727849 -0.168064 0
M  V30 5755 H 571.149 1.61195 -1.09554 0
M  V30 5756 H 570.245 3.06068 -0.610647 0
M  V30 5757 N 570.547 0.616602 1.45037 0
M  V30 5758 C 571.772 0.120192 2.07051 0
M  V30 5759 C 572.197 -1.19008 1.45666 0
M  V30 5760 O 571.555 -1.7267 0.552692 0
M  V30 5761 C 571.603 0.00354901 3.606 0
M  V30 5762 O 570.707 -1.04431 3.98958 0
M  V30 5763 H 570.048 0.0781599 0.659384 0
M  V30 5764 H 572.578 0.849167 1.86146 0
M  V30 5765 H 572.588 -0.191754 4.07549 0
M  V30 5766 H 571.263 0.960239 4.04663 0
M  V30 5767 H 569.84 -0.824749 3.63665 0
M  V30 5768 N 572.025 -1.5352 0.356285 0
M  V30 5769 C 573.272 -2.01117 -0.236303 0
M  V30 5770 C 573.6 -1.24381 -1.49531 0
M  V30 5771 O 572.855 -0.323057 -1.93015 0
M  V30 5772 C 573.154 -3.52607 -0.583369 0
M  V30 5773 C 572.82 -4.47151 0.58023 0
M  V30 5774 C 571.482 -4.72718 0.899528 0
M  V30 5775 C 573.834 -5.03137 1.36024 0
M  V30 5776 C 571.162 -5.51523 2.00098 0
M  V30 5777 C 573.514 -5.83145 2.45204 0
M  V30 5778 C 572.178 -6.07001 2.77679 0
M  V30 5779 H 571.448 -0.735938 -0.0864695 0
M  V30 5780 H 574.095 -1.85209 0.48683 0
M  V30 5781 H 572.4 -3.66413 -1.38739 0
M  V30 5782 H 574.097 -3.86901 -1.05397 0
M  V30 5783 H 570.687 -4.27394 0.321322 0
M  V30 5784 H 574.871 -4.83339 1.12682 0
M  V30 5785 H 570.127 -5.68229 2.25668 0
M  V30 5786 H 574.301 -6.25537 3.06067 0
M  V30 5787 H 571.928 -6.67851 3.63151 0
M  V30 5788 N 573.503 -0.0852151 -1.57369 0
M  V30 5789 C 574.919 0.271436 -1.57275 0
M  V30 5790 C 575.119 1.69109 -1.09565 0
M  V30 5791 O 574.175 2.40549 -0.767611 0
M  V30 5792 C 575.488 0.0688638 -3.00621 0
M  V30 5793 C 577.036 0.137373 -3.12698 0
M  V30 5794 C 577.511 -0.0370832 -4.57985 0
M  V30 5795 N 579.002 0.0180794 -4.63196 0
M  V30 5796 C 579.737 -0.0922953 -5.73326 0
M  V30 5797 N 579.233 -0.256948 -6.92323 0
M  V30 5798 N 581.026 -0.0342702 -5.6209 0
M  V30 5799 H 573.177 -1.01288 -1.86693 0
M  V30 5800 H 575.44 -0.396138 -0.861266 0
M  V30 5801 H 575.146 -0.911277 -3.39689 0
M  V30 5802 H 575.02 0.815442 -3.6828 0
M  V30 5803 H 577.407 1.10801 -2.73509 0
M  V30 5804 H 577.488 -0.640532 -2.47651 0
M  V30 5805 H 577.132 -1.00455 -4.97867 0
M  V30 5806 H 577.062 0.760392 -5.21081 0
M  V30 5807 H 579.553 0.143202 -3.77629 0
M  V30 5808 H 579.866 -0.332949 -7.72082 0
M  V30 5809 H 578.211 -0.292487 -6.94384 0
M  V30 5810 H 581.402 0.0931605 -4.68007 0
M  V30 5811 H 581.575 -0.12374 -6.47882 0
M  V30 5812 N 574.981 1.5647 0.188427 0
M  V30 5813 C 576.211 1.84863 0.922463 0
M  V30 5814 C 576.619 0.666413 1.77075 0
M  V30 5815 O 575.962 -0.374044 1.79852 0
M  V30 5816 C 576.024 3.07447 1.86324 0
M  V30 5817 C 575.688 4.41066 1.19625 0
M  V30 5818 C 576.685 5.16767 0.569946 0
M  V30 5819 C 574.37 4.87802 1.19811 0
M  V30 5820 C 576.364 6.37384 -0.045594 0
M  V30 5821 C 574.051 6.08353 0.57874 0
M  V30 5822 C 575.049 6.82987 -0.0420259 0
M  V30 5823 O 574.737 8.01254 -0.651675 0
M  V30 5824 H 574.469 0.61784 0.274316 0
M  V30 5825 H 577.023 2.04437 0.198613 0
M  V30 5826 H 575.253 2.83774 2.62696 0
M  V30 5827 H 576.942 3.2243 2.46564 0
M  V30 5828 H 577.708 4.81749 0.560601 0
M  V30 5829 H 573.587 4.29662 1.67069 0
M  V30 5830 H 577.131 6.95578 -0.530731 0
M  V30 5831 H 573.028 6.42838 0.58561 0
M  V30 5832 H 573.796 8.16655 -0.549236 0
M  V30 5833 N 576.459 -0.456382 1.50847 0
M  V30 5834 C 577.707 -1.20497 1.62249 0
M  V30 5835 C 578.028 -1.92156 0.331839 0
M  V30 5836 O 577.298 -1.84751 -0.651443 0
M  V30 5837 H 575.878 -0.447775 0.597918 0
M  V30 5838 H 578.54 -0.525099 1.87693 0
M  V30 5839 H 577.636 -1.94492 2.44089 0
M  V30 5840 N 577.937 -1.40673 -0.710563 0
M  V30 5841 C 579.162 -1.42741 -1.50465 0
M  V30 5842 C 579.587 -0.0302116 -1.88076 0
M  V30 5843 O 578.945 0.962945 -1.53613 0
M  V30 5844 C 578.993 -2.32873 -2.75322 0
M  V30 5845 O 578.097 -1.77544 -3.72226 0
M  V30 5846 H 577.438 -0.485056 -0.45345 0
M  V30 5847 H 579.968 -1.84961 -0.874681 0
M  V30 5848 H 579.978 -2.48233 -3.23797 0
M  V30 5849 H 578.653 -3.34401 -2.47283 0
M  V30 5850 H 577.23 -1.71556 -3.31093 0
M  V30 5851 N 579.415 0.9433 -1.26252 0
M  V30 5852 C 580.64 1.72898 -1.14547 0
M  V30 5853 C 581.065 1.85761 0.295743 0
M  V30 5854 O 580.423 1.3463 1.21427 0
M  V30 5855 C 580.471 3.11471 -1.8171 0
M  V30 5856 O 579.575 3.97336 -1.10445 0
M  V30 5857 H 578.916 0.530555 -0.399259 0
M  V30 5858 H 581.446 1.18159 -1.67032 0
M  V30 5859 H 581.456 3.61872 -1.88449 0
M  V30 5860 H 580.131 3.01425 -2.86558 0
M  V30 5861 H 578.708 3.55788 -1.11666 0
M  V30 5862 N 580.893 1.08022 1.14757 0
M  V30 5863 C 582.133 0.816959 1.87364 0
M  V30 5864 C 582.497 -0.645407 1.80827 0
M  V30 5865 O 583.698 -1.024 2.48531 0
M  V30 5866 C 581.969 1.31961 3.32146 0
M  V30 5867 S 583.528 1.18806 4.2241 0
M  V30 5868 H 580.346 0.295862 0.646519 0
M  V30 5869 H 582.948 1.3807 1.38408 0
M  V30 5870 H 581.652 2.37847 3.3445 0
M  V30 5871 H 581.183 0.751371 3.86158 0
M  V30 5872 H 583.198 0.129865 4.9603 0
M  V30 5873 N 582.371 -1.3172 0.865308 0
M  V30 5874 C 583.281 -2.32394 0.320935 0
M  V30 5875 C 584.297 -1.64511 -0.566746 0
M  V30 5876 O 585.473 -1.95969 -0.464575 0
M  V30 5877 C 582.538 -3.43462 -0.472701 0
M  V30 5878 C 581.599 -4.27015 0.442385 0
M  V30 5879 C 580.832 -5.32779 -0.313469 0
M  V30 5880 O 581.055 -5.49158 -1.54214 0
M  V30 5881 O 579.989 -6.01015 0.326257 0
M  V30 5882 H 583.815 -2.80868 1.15528 0
M  V30 5883 H 581.4 -1.35535 0.628545 0
M  V30 5884 H 583.282 -4.11172 -0.922781 0
M  V30 5885 H 581.957 -2.97159 -1.28367 0
M  V30 5886 H 580.864 -3.62075 0.940866 0
M  V30 5887 H 582.197 -4.76871 1.21882 0
M  V30 5888 N 583.85 -0.624285 -1.44708 0
M  V30 5889 C 585.096 -0.126051 -2.02107 0
M  V30 5890 C 585.425 1.2496 -1.49048 0
M  V30 5891 O 584.68 1.84163 -0.662005 0
M  V30 5892 C 584.979 -0.0546353 -3.57358 0
M  V30 5893 C 584.644 -1.36815 -4.29642 0
M  V30 5894 C 583.307 -1.72792 -4.49106 0
M  V30 5895 C 585.659 -2.23549 -4.70824 0
M  V30 5896 C 582.986 -2.95222 -5.07012 0
M  V30 5897 C 585.339 -3.45243 -5.30085 0
M  V30 5898 C 584.003 -3.81452 -5.47769 0
M  V30 5899 H 583.273 -0.0461252 -0.739563 0
M  V30 5900 H 585.92 -0.809236 -1.73562 0
M  V30 5901 H 584.225 0.711891 -3.85278 0
M  V30 5902 H 585.922 0.347282 -3.99493 0
M  V30 5903 H 582.512 -1.07817 -4.14817 0
M  V30 5904 H 586.696 -1.9705 -4.55505 0
M  V30 5905 H 581.952 -3.23361 -5.18891 0
M  V30 5906 H 586.125 -4.12689 -5.60946 0
M  V30 5907 H 583.753 -4.76403 -5.92405 0
M  V30 5908 N 585.328 1.53329 -0.364422 0
M  V30 5909 C 586.553 2.06132 0.229033 0
M  V30 5910 C 586.978 1.23625 1.41769 0
M  V30 5911 O 586.336 0.255038 1.79497 0
M  V30 5912 C 586.384 3.55544 0.60174 0
M  V30 5913 O 585.488 3.75771 1.69912 0
M  V30 5914 H 584.829 0.663148 0.0336213 0
M  V30 5915 H 587.359 1.97758 -0.524689 0
M  V30 5916 H 587.369 3.98549 0.873073 0
M  V30 5917 H 586.044 4.15039 -0.267421 0
M  V30 5918 H 584.621 3.44663 1.42343 0
M  V30 5919 N 586.806 0.0935595 1.57322 0
M  V30 5920 C 588.046 -0.573901 1.96178 0
M  V30 5921 C 588.41 -1.65445 0.97426 0
M  V30 5922 O 589.611 -2.37901 1.25126 0
M  V30 5923 C 587.882 -1.11612 3.39526 0
M  V30 5924 S 589.441 -1.79566 4.00377 0
M  V30 5925 H 586.259 -0.187315 0.685882 0
M  V30 5926 H 588.861 0.172597 1.94737 0
M  V30 5927 H 587.565 -0.31815 4.09165 0
M  V30 5928 H 587.096 -1.89848 3.4456 0
M  V30 5929 H 589.111 -3.07978 3.89056 0
M  V30 5930 N 588.284 -1.56567 -0.180126 0
M  V30 5931 C 589.194 -1.98947 -1.24327 0
M  V30 5932 C 590.21 -0.899446 -1.4895 0
M  V30 5933 O 591.386 -1.20639 -1.61271 0
M  V30 5934 C 588.451 -2.33328 -2.56435 0
M  V30 5935 C 587.512 -3.56114 -2.39752 0
M  V30 5936 C 586.745 -3.88845 -3.65561 0
M  V30 5937 O 586.968 -3.22662 -4.70368 0
M  V30 5938 O 585.902 -4.82226 -3.60197 0
M  V30 5939 H 589.728 -2.89634 -0.913565 0
M  V30 5940 H 587.313 -1.44319 -0.386306 0
M  V30 5941 H 589.195 -2.5645 -3.34382 0
M  V30 5942 H 587.87 -1.45806 -2.89002 0
M  V30 5943 H 586.777 -3.38221 -1.59866 0
M  V30 5944 H 588.11 -4.4415 -2.12113 0
M  V30 5945 N 589.762 0.448376 -1.51087 0
M  V30 5946 C 590.694 1.56146 -1.67783 0
M  V30 5947 C 591.707 1.52913 -0.55871 0
M  V30 5948 O 592.896 1.57889 -0.83267 0
M  V30 5949 C 589.996 2.95057 -1.66716 0
M  V30 5950 C 589.169 3.22915 -2.95033 0
M  V30 5951 C 588.228 4.41495 -2.86302 0
M  V30 5952 O 587.254 4.40688 -3.60254 0
M  V30 5953 N 588.456 5.44443 -2.014 0
M  V30 5954 H 591.221 1.42232 -2.638 0
M  V30 5955 H 588.782 0.637153 -1.48835 0
M  V30 5956 H 590.774 3.72388 -1.58458 0
M  V30 5957 H 589.344 3.02624 -0.783403 0
M  V30 5958 H 588.564 2.33985 -3.17245 0
M  V30 5959 H 589.852 3.38349 -3.79996 0
M  V30 5960 H 589.25 5.4793 -1.40674 0
M  V30 5961 H 587.807 6.2067 -1.99029 0
M  V30 5962 N 591.24 1.41047 0.703093 0
M  V30 5963 C 592.488 1.39723 1.4602 0
M  V30 5964 C 592.809 0.00461257 1.94999 0
M  V30 5965 O 592.079 -0.952292 1.71196 0
M  V30 5966 H 590.659 0.514281 0.541779 0
M  V30 5967 H 593.321 1.76217 0.832678 0
M  V30 5968 H 592.417 2.07982 2.32701 0
M  V30 5969 N 592.718 -0.936591 1.26751 0
M  V30 5970 C 593.965 -1.68331 1.12566 0
M  V30 5971 C 594.293 -1.91677 -0.330168 0
M  V30 5972 O 593.548 -1.49859 -1.2586 0
M  V30 5973 C 593.847 -3.06099 1.84494 0
M  V30 5974 C 593.513 -3.02493 3.34378 0
M  V30 5975 C 592.175 -3.01217 3.75262 0
M  V30 5976 C 594.527 -2.94453 4.30055 0
M  V30 5977 C 591.855 -2.89672 5.10203 0
M  V30 5978 C 594.207 -2.84449 5.65041 0
M  V30 5979 C 592.871 -2.81518 6.0523 0
M  V30 5980 H 592.141 -0.615965 0.411907 0
M  V30 5981 H 594.788 -1.09292 1.5725 0
M  V30 5982 H 593.093 -3.6879 1.32292 0
M  V30 5983 H 594.79 -3.62733 1.70955 0
M  V30 5984 H 591.38 -3.04269 3.01858 0
M  V30 5985 H 595.564 -2.94544 3.99447 0
M  V30 5986 H 590.82 -2.85783 5.40498 0
M  V30 5987 H 594.994 -2.77192 6.38856 0
M  V30 5988 H 592.621 -2.72329 7.09747 0
M  V30 5989 N 594.196 -1.08629 -1.14182 0
M  V30 5990 C 595.442 -0.818556 -1.85546 0
M  V30 5991 C 595.775 0.654076 -1.82854 0
M  V30 5992 O 595.05 1.48099 -1.26083 0
M  V30 5993 C 595.333 -1.34397 -3.3408 0
M  V30 5994 C 595.186 -2.8821 -3.45333 0
M  V30 5995 C 596.505 -0.971069 -4.29253 0
M  V30 5996 H 593.624 -0.298821 -0.673702 0
M  V30 5997 H 596.266 -1.34629 -1.34071 0
M  V30 5998 H 594.416 -0.895064 -3.78049 0
M  V30 5999 H 596.088 -3.41488 -3.10134 0
M  V30 6000 H 594.331 -3.25756 -2.86471 0
M  V30 6001 H 595.002 -3.20047 -4.49749 0
M  V30 6002 H 597.478 -1.35809 -3.93313 0
M  V30 6003 H 596.354 -1.36586 -5.31635 0
M  V30 6004 H 596.615 0.121659 -4.41933 0
M  V30 6005 N 595.674 1.31259 -0.872281 0
M  V30 6006 C 596.604 2.30929 -0.345554 0
M  V30 6007 C 597.585 1.60449 0.5648 0
M  V30 6008 O 598.77 1.8814 0.481335 0
M  V30 6009 C 595.9 3.44348 0.451823 0
M  V30 6010 C 594.854 4.26435 -0.365641 0
M  V30 6011 C 594.18 5.31785 0.557562 0
M  V30 6012 C 595.48 4.97159 -1.60095 0
M  V30 6013 H 597.174 2.75234 -1.17841 0
M  V30 6014 H 594.72 1.3232 -0.568094 0
M  V30 6015 H 596.673 4.13128 0.830854 0
M  V30 6016 H 595.397 2.98816 1.31821 0
M  V30 6017 H 594.056 3.59326 -0.726649 0
M  V30 6018 H 593.704 4.82502 1.4213 0
M  V30 6019 H 593.404 5.87598 0.0144878 0
M  V30 6020 H 594.928 6.03424 0.933387 0
M  V30 6021 H 596.342 5.58523 -1.29323 0
M  V30 6022 H 594.739 5.62779 -2.08327 0
M  V30 6023 H 595.809 4.24012 -2.35249 0
M  V30 6024 N 597.152 0.631951 1.44375 0
M  V30 6025 C 598.099 -0.0724807 2.30686 0
M  V30 6026 C 599.069 -0.835975 1.43529 0
M  V30 6027 O 600.254 -0.816849 1.7243 0
M  V30 6028 C 597.394 -1.04753 3.28817 0
M  V30 6029 C 596.507 -0.282367 4.31076 0
M  V30 6030 C 595.642 -1.2493 5.163 0
M  V30 6031 C 594.681 -0.473349 6.10267 0
M  V30 6032 N 593.818 -1.39079 6.88187 0
M  V30 6033 H 598.658 0.669477 2.90383 0
M  V30 6034 H 596.195 0.341927 1.43071 0
M  V30 6035 H 598.153 -1.62623 3.842 0
M  V30 6036 H 596.783 -1.75661 2.70819 0
M  V30 6037 H 595.835 0.412268 3.78159 0
M  V30 6038 H 597.147 0.321955 4.9776 0
M  V30 6039 H 596.301 -1.89931 5.76204 0
M  V30 6040 H 595.04 -1.88755 4.49692 0
M  V30 6041 H 594.045 0.190142 5.49471 0
M  V30 6042 H 595.27 0.16019 6.78911 0
M  V30 6043 H 593.216 -2.01623 6.24247 0
M  V30 6044 H 593.133 -0.840513 7.51313 0
M  V30 6045 H 594.401 -2.02961 7.52613 0
M  V30 6046 N 598.631 -1.53133 0.372548 0
M  V30 6047 C 599.879 -2.00958 -0.214534 0
M  V30 6048 C 600.2 -1.26135 -1.48711 0
M  V30 6049 O 599.47 -0.376597 -1.92246 0
M  V30 6050 H 598.05 -0.742456 -0.0822664 0
M  V30 6051 H 600.712 -1.88367 0.500385 0
M  V30 6052 H 599.808 -3.09031 -0.436605 0
M  V30 6053 N 600.109 -0.101901 -1.5727 0
M  V30 6054 C 601.334 0.571759 -1.99363 0
M  V30 6055 C 601.759 1.60507 -0.980768 0
M  V30 6056 O 601.117 1.81231 0.0498517 0
M  V30 6057 C 601.165 1.18996 -3.404 0
M  V30 6058 O 600.269 2.30572 -3.41922 0
M  V30 6059 H 599.61 0.144449 -0.648098 0
M  V30 6060 H 602.14 -0.185325 -2.03759 0
M  V30 6061 H 602.15 1.52962 -3.78241 0
M  V30 6062 H 600.825 0.432984 -4.1364 0
M  V30 6063 H 599.402 1.98173 -3.15883 0
M  V30 6064 N 601.587 1.56661 0.17182 0
M  V30 6065 C 602.534 1.96371 1.21273 0
M  V30 6066 C 603.504 0.82756 1.44016 0
M  V30 6067 O 604.689 1.08764 1.56764 0
M  V30 6068 C 601.829 2.32838 2.54716 0
M  V30 6069 C 600.942 3.59628 2.39356 0
M  V30 6070 C 600.077 3.85311 3.65662 0
M  V30 6071 C 599.116 5.0545 3.45234 0
M  V30 6072 N 598.253 5.27268 4.63608 0
M  V30 6073 H 603.093 2.85106 0.86709 0
M  V30 6074 H 600.63 1.41073 0.416744 0
M  V30 6075 H 602.588 2.52004 3.3249 0
M  V30 6076 H 601.218 1.47214 2.87277 0
M  V30 6077 H 600.27 3.4838 1.52761 0
M  V30 6078 H 601.582 4.4756 2.20207 0
M  V30 6079 H 600.736 4.04841 4.51872 0
M  V30 6080 H 599.475 2.95753 3.8779 0
M  V30 6081 H 598.48 4.85819 2.5741 0
M  V30 6082 H 599.705 5.96538 3.24529 0
M  V30 6083 H 597.651 4.40662 4.85956 0
M  V30 6084 H 597.568 6.09422 4.4737 0
M  V30 6085 H 598.836 5.51277 5.51103 0
M  V30 6086 N 603.065 -0.440357 1.51323 0
M  V30 6087 C 604.481 -0.7766 1.39431 0
M  V30 6088 C 604.681 -1.95838 0.474296 0
M  V30 6089 O 603.737 -2.52398 -0.0716692 0
M  V30 6090 C 605.05 -1.05981 2.81405 0
M  V30 6091 C 606.598 -1.16442 2.90534 0
M  V30 6092 C 607.073 -1.48058 4.33408 0
M  V30 6093 N 608.564 -1.54988 4.36501 0
M  V30 6094 C 609.299 -1.81017 5.44078 0
M  V30 6095 N 608.795 -2.04858 6.61819 0
M  V30 6096 N 610.588 -1.82774 5.31554 0
M  V30 6097 H 602.739 0.338006 2.09693 0
M  V30 6098 H 605.002 0.0888072 0.943831 0
M  V30 6099 H 604.708 -0.264173 3.50706 0
M  V30 6100 H 604.582 -1.98822 3.20546 0
M  V30 6101 H 606.969 -1.95068 2.21432 0
M  V30 6102 H 607.05 -0.215088 2.54894 0
M  V30 6103 H 606.694 -0.699605 5.03059 0
M  V30 6104 H 606.624 -2.44192 4.66559 0
M  V30 6105 H 609.115 -1.38479 3.51613 0
M  V30 6106 H 609.428 -2.2408 7.396 0
M  V30 6107 H 607.773 -2.02187 6.6494 0
M  V30 6108 H 610.964 -1.63665 4.38556 0
M  V30 6109 H 611.137 -2.02722 6.15474 0
M  V30 6110 N 604.543 -1.41418 -0.695603 0
M  V30 6111 C 605.473 -1.46035 -1.82197 0
M  V30 6112 C 606.454 -0.319025 -1.67082 0
M  V30 6113 O 607.639 -0.530462 -1.86815 0
M  V30 6114 C 604.769 -1.34179 -3.20333 0
M  V30 6115 C 603.723 -2.46123 -3.50154 0
M  V30 6116 C 603.049 -2.19332 -4.87645 0
M  V30 6117 C 604.349 -3.88463 -3.49133 0
M  V30 6118 H 606.043 -2.40303 -1.78591 0
M  V30 6119 H 603.589 -1.15663 -0.857797 0
M  V30 6120 H 605.542 -1.36021 -3.98844 0
M  V30 6121 H 604.266 -0.363952 -3.24566 0
M  V30 6122 H 602.925 -2.43563 -2.73994 0
M  V30 6123 H 602.573 -1.19891 -4.88503 0
M  V30 6124 H 602.273 -2.94344 -5.08562 0
M  V30 6125 H 603.797 -2.22889 -5.68465 0
M  V30 6126 H 605.211 -3.92738 -4.17648 0
M  V30 6127 H 603.608 -4.63158 -3.81582 0
M  V30 6128 H 604.678 -4.16617 -2.48109 0
M  V30 6129 N 606.021 0.929856 -1.27246 0
M  V30 6130 C 606.953 2.03434 -1.0558 0
M  V30 6131 C 607.966 1.62795 -0.0125762 0
M  V30 6132 O 609.155 1.76685 -0.2539 0
M  V30 6133 C 606.255 3.33915 -0.57912 0
M  V30 6134 C 605.428 4.03259 -1.69415 0
M  V30 6135 C 604.487 5.12014 -1.21357 0
M  V30 6136 O 603.513 5.36097 -1.91282 0
M  V30 6137 N 604.715 5.8046 -0.0680622 0
M  V30 6138 H 607.48 2.22583 -2.00691 0
M  V30 6139 H 605.041 1.1001 -1.18783 0
M  V30 6140 H 607.033 4.03978 -0.241563 0
M  V30 6141 H 605.603 3.11355 0.278703 0
M  V30 6142 H 604.823 3.26958 -2.20209 0
M  V30 6143 H 606.111 4.46337 -2.44255 0
M  V30 6144 H 605.509 5.63345 0.515626 0
M  V30 6145 H 604.066 6.51461 0.210332 0
M  V30 6146 N 607.499 1.09233 1.13605 0
M  V30 6147 C 608.739 0.836786 1.86487 0
M  V30 6148 C 609.103 -0.626191 1.81502 0
M  V30 6149 O 610.304 -0.99758 2.49603 0
M  V30 6150 C 608.575 1.35476 3.30728 0
M  V30 6151 S 610.134 1.2328 4.21126 0
M  V30 6152 H 606.952 0.302702 0.643345 0
M  V30 6153 H 609.554 1.3953 1.36936 0
M  V30 6154 H 608.258 2.41381 3.31909 0
M  V30 6155 H 607.789 0.792286 3.85339 0
M  V30 6156 H 609.804 0.182468 4.95864 0
M  V30 6157 N 608.977 -1.30795 0.87923 0
M  V30 6158 C 610.225 -1.95974 0.493809 0
M  V30 6159 C 610.546 -1.69787 -0.959021 0
M  V30 6160 O 609.816 -1.01832 -1.67353 0
M  V30 6161 H 608.396 -0.725083 0.179622 0
M  V30 6162 H 611.058 -1.59432 1.12105 0
M  V30 6163 H 610.154 -3.05058 0.659263 0
M  V30 6164 N 610.455 -0.639598 -1.44038 0
M  V30 6165 C 611.866 -0.228866 -1.85292 0
M  V30 6166 C 612.217 1.22161 -1.53529 0
M  V30 6167 O 611.342 1.93064 -0.977518 0
M  V30 6168 C 611.937 -0.408592 -3.36327 0
M  V30 6169 C 610.496 -0.0522953 -3.76364 0
M  V30 6170 C 609.643 -0.717959 -2.67844 0
M  V30 6171 H 612.594 -0.844194 -1.34384 0
M  V30 6172 H 612.615 0.349968 -3.78887 0
M  V30 6173 H 612.127 -1.46435 -3.59414 0
M  V30 6174 H 610.228 1.0014 -3.58891 0
M  V30 6175 H 610.341 -0.468261 -4.76806 0
M  V30 6176 H 608.705 -0.152459 -2.54243 0
M  V30 6177 H 609.488 -1.77648 -2.93762 0
M  V30 6178 N 611.933 1.52934 -0.380664 0
M  V30 6179 C 613.161 2.05886 0.204599 0
M  V30 6180 C 613.576 1.25305 1.41223 0
M  V30 6181 O 612.933 0.297504 1.80059 0
M  V30 6182 C 612.984 3.56764 0.583249 0
M  V30 6183 O 612.705 4.34292 -0.576398 0
M  V30 6184 C 614.206 4.2603 1.2253 0
M  V30 6185 H 611.426 0.670193 0.0328991 0
M  V30 6186 H 613.97 1.97148 -0.543397 0
M  V30 6187 H 612.125 3.65603 1.28115 0
M  V30 6188 H 612.539 5.23819 -0.267119 0
M  V30 6189 H 614.013 5.32868 1.44068 0
M  V30 6190 H 614.49 3.80698 2.19011 0
M  V30 6191 H 615.096 4.21485 0.568407 0
M  V30 6192 N 613.412 0.11024 1.57214 0
M  V30 6193 C 614.66 -0.548783 1.94506 0
M  V30 6194 C 614.981 -1.67772 0.99386 0
M  V30 6195 O 614.251 -1.9584 0.0485841 0
M  V30 6196 H 612.831 -0.205715 0.718116 0
M  V30 6197 H 615.493 0.177127 1.94093 0
M  V30 6198 H 614.589 -0.949096 2.97319 0
M  V30 6199 N 614.89 -1.56749 -0.16351 0
M  V30 6200 C 615.8 -2.00255 -1.2221 0
M  V30 6201 C 616.816 -0.915194 -1.47987 0
M  V30 6202 O 617.992 -1.22342 -1.59982 0
M  V30 6203 C 615.057 -2.36035 -2.53946 0
M  V30 6204 C 614.118 -3.58637 -2.35962 0
M  V30 6205 C 613.351 -3.92701 -3.61416 0
M  V30 6206 O 613.574 -3.27632 -4.66919 0
M  V30 6207 O 612.508 -4.86019 -3.55062 0
M  V30 6208 H 616.334 -2.90586 -0.882794 0
M  V30 6209 H 613.919 -1.44721 -0.370978 0
M  V30 6210 H 615.801 -2.59982 -3.31643 0
M  V30 6211 H 614.476 -1.48863 -2.8744 0
M  V30 6212 H 613.383 -3.39898 -1.5627 0
M  V30 6213 H 614.716 -4.46374 -2.0739 0
M  V30 6214 N 616.368 0.432326 -1.51554 0
M  V30 6215 C 617.614 1.17997 -1.65675 0
M  V30 6216 C 617.969 1.88794 -0.37076 0
M  V30 6217 O 617.262 1.80817 0.633692 0
M  V30 6218 C 617.456 2.21907 -2.80164 0
M  V30 6219 C 617.285 1.6131 -4.19773 0
M  V30 6220 C 616.055 1.39585 -4.85638 0
M  V30 6221 C 618.253 1.08659 -5.0269 0
M  V30 6222 N 616.235 0.746374 -6.09346 0
M  V30 6223 C 617.606 0.562685 -6.17441 0
M  V30 6224 C 619.661 0.978831 -4.88184 0
M  V30 6225 C 618.364 -0.0584015 -7.19276 0
M  V30 6226 C 620.39 0.371631 -5.90231 0
M  V30 6227 C 619.752 -0.141711 -7.04257 0
M  V30 6228 H 615.851 0.419277 -0.660099 0
M  V30 6229 H 618.435 0.475809 -1.88797 0
M  V30 6230 H 616.606 2.89706 -2.58698 0
M  V30 6231 H 618.338 2.88867 -2.8344 0
M  V30 6232 H 615.093 1.65897 -4.43593 0
M  V30 6233 H 615.517 0.438934 -6.75576 0
M  V30 6234 H 620.159 1.36157 -4.00276 0
M  V30 6235 H 617.877 -0.453262 -8.06828 0
M  V30 6236 H 621.463 0.290086 -5.81076 0
M  V30 6237 H 620.343 -0.60417 -7.81869 0
M  V30 6238 N 617.846 1.41785 0.688094 0
M  V30 6239 C 619.123 1.32031 1.44316 0
M  V30 6240 C 619.503 -0.0486079 2.11044 0
M  V30 6241 O 618.851 -1.06332 2.02252 0
M  V30 6242 C 619.061 2.47906 2.45649 0
M  V30 6243 C 620.409 2.89415 3.10683 0
M  V30 6244 O 621.433 2.477 2.55975 0
M  V30 6245 O 620.292 3.61573 4.09789 0
M  V30 6246 H 617.386 0.519994 0.643067 0
M  V30 6247 H 619.932 1.53765 0.71794 0
M  V30 6248 H 618.704 3.39222 1.95048 0
M  V30 6249 H 618.327 2.28089 3.25671 0
M  V30 6250 N 619.324 -0.923095 1.27737 0
M  V30 6251 C 620.272 -2.04567 1.10703 0
M  V30 6252 C 621.266 -1.69375 0.0288445 0
M  V30 6253 O 622.472 -1.79027 0.186913 0
M  V30 6254 H 618.847 -0.670109 0.34126 0
M  V30 6255 H 620.818 -2.1608 2.05796 0
M  V30 6256 C 619.567 -3.38934 0.775837 0
M  V30 6257 H 618.89 -3.66501 1.59741 0
M  V30 6258 H 620.33 -4.18239 0.696548 0
M  V30 6259 C 618.789 -3.32863 -0.520012 0
M  V30 6260 O 619.319 -3.70462 -1.55308 0
M  V30 6261 N 617.525 -2.85958 -0.51732 0
M  V30 6262 H 617.072 -2.55557 0.32379 0
M  V30 6263 H 617.03 -2.82279 -1.38441 0
M  V30 6264 N 620.802 -1.09834 -1.13024 0
M  V30 6265 C 621.712 -0.753731 -2.22162 0
M  V30 6266 C 622.728 0.246105 -1.72251 0
M  V30 6267 O 623.904 0.0864051 -2.01215 0
M  V30 6268 C 620.969 -0.183958 -3.46212 0
M  V30 6269 C 620.03 -1.24028 -4.10993 0
M  V30 6270 C 619.263 -0.697597 -5.29121 0
M  V30 6271 O 619.486 0.478092 -5.68393 0
M  V30 6272 O 618.42 -1.4546 -5.84059 0
M  V30 6273 H 622.246 -1.66456 -2.5402 0
M  V30 6274 H 619.831 -0.873026 -1.21238 0
M  V30 6275 H 621.713 0.130257 -4.21199 0
M  V30 6276 H 620.388 0.699823 -3.16045 0
M  V30 6277 H 619.295 -1.60725 -3.37814 0
M  V30 6278 H 620.628 -2.09685 -4.45301 0
M  V30 6279 N 622.28 1.30327 -0.886154 0
M  V30 6280 C 623.227 2.28099 -0.352069 0
M  V30 6281 C 624.197 1.56433 0.558397 0
M  V30 6282 O 625.382 1.84492 0.486561 0
M  V30 6283 C 622.522 3.42456 0.426346 0
M  V30 6284 C 621.635 4.28938 -0.513472 0
M  V30 6285 C 620.77 5.30458 0.280657 0
M  V30 6286 C 619.809 6.0859 -0.654556 0
M  V30 6287 N 618.946 7.02022 0.104322 0
M  V30 6288 H 623.786 2.73166 -1.19097 0
M  V30 6289 H 621.323 1.34367 -0.598662 0
M  V30 6290 H 623.281 4.07518 0.893587 0
M  V30 6291 H 621.911 2.98455 1.22981 0
M  V30 6292 H 620.963 3.64173 -1.09921 0
M  V30 6293 H 622.275 4.83399 -1.2299 0
M  V30 6294 H 621.429 6.01273 0.8097 0
M  V30 6295 H 620.168 4.76693 1.03029 0
M  V30 6296 H 619.173 5.36651 -1.19522 0
M  V30 6297 H 620.398 6.64443 -1.4033 0
M  V30 6298 H 618.344 6.50645 0.836472 0
M  V30 6299 H 618.261 7.53979 -0.552453 0
M  V30 6300 H 619.529 7.77077 0.614069 0
M  V30 6301 N 623.758 0.647228 1.43697 0
M  V30 6302 C 625.169 0.238689 1.85168 0
M  V30 6303 C 625.52 -1.21345 1.54175 0
M  V30 6304 O 624.645 -1.92542 0.987743 0
M  V30 6305 C 625.24 0.426422 3.36106 0
M  V30 6306 C 623.799 0.0722541 3.76331 0
M  V30 6307 C 622.946 0.732153 2.6746 0
M  V30 6308 H 625.897 0.851309 1.33934 0
M  V30 6309 H 625.918 -0.32987 3.79067 0
M  V30 6310 H 625.43 1.48339 3.58632 0
M  V30 6311 H 623.531 -0.982355 3.59417 0
M  V30 6312 H 623.644 0.493541 4.76551 0
M  V30 6313 H 622.008 0.16594 2.54159 0
M  V30 6314 H 622.791 1.79204 2.92816 0
M  V30 6315 N 625.236 -1.5273 0.388769 0
M  V30 6316 C 626.464 -2.05992 -0.193677 0
M  V30 6317 C 626.879 -1.26053 -1.40557 0
M  V30 6318 O 626.236 -0.307049 -1.79898 0
M  V30 6319 C 626.287 -3.57068 -0.564321 0
M  V30 6320 O 626.008 -4.3398 0.599422 0
M  V30 6321 C 627.509 -4.26674 -1.20269 0
M  V30 6322 H 624.729 -0.670358 -0.0293445 0
M  V30 6323 H 627.273 -1.96857 0.553844 0
M  V30 6324 H 625.428 -3.66277 -1.26174 0
M  V30 6325 H 625.842 -5.2367 0.294895 0
M  V30 6326 H 627.316 -5.33625 -1.4124 0
M  V30 6327 H 627.793 -3.81854 -2.16989 0
M  V30 6328 H 628.399 -4.2178 -0.546047 0
M  V30 6329 N 626.714 -0.118576 -1.57153 0
M  V30 6330 C 627.954 0.542618 -1.97066 0
M  V30 6331 C 628.318 1.63874 -1.00046 0
M  V30 6332 O 629.519 2.3588 -1.28895 0
M  V30 6333 C 627.79 1.06196 -3.41258 0
M  V30 6334 S 629.349 1.73174 -4.03183 0
M  V30 6335 H 626.167 0.17638 -0.688775 0
M  V30 6336 H 628.769 -0.203556 -1.94437 0
M  V30 6337 H 627.473 0.253016 -4.09619 0
M  V30 6338 H 627.004 1.84342 -3.47536 0
M  V30 6339 H 629.019 3.01749 -3.93906 0
M  V30 6340 N 628.193 1.56834 0.155195 0
M  V30 6341 C 629.103 2.009 1.21146 0
M  V30 6342 C 630.119 0.923029 1.475 0
M  V30 6343 O 631.295 1.23189 1.59331 0
M  V30 6344 C 628.36 2.37378 2.52691 0
M  V30 6345 C 627.421 3.59883 2.34057 0
M  V30 6346 C 626.654 3.94612 3.59329 0
M  V30 6347 O 626.877 3.30104 4.65175 0
M  V30 6348 O 625.811 4.87895 3.52479 0
M  V30 6349 H 629.637 2.9105 0.867371 0
M  V30 6350 H 627.222 1.44916 0.363298 0
M  V30 6351 H 629.104 2.61737 3.3026 0
M  V30 6352 H 627.779 1.50385 2.86646 0
M  V30 6353 H 626.686 3.40722 1.54465 0
M  V30 6354 H 628.019 4.47468 2.0502 0
M  V30 6355 N 629.671 -0.424282 1.51781 0
M  V30 6356 C 630.634 -1.49848 1.73431 0
M  V30 6357 C 631.634 -1.49016 0.604225 0
M  V30 6358 O 632.824 -1.50808 0.871935 0
M  V30 6359 C 629.956 -2.89332 1.80277 0
M  V30 6360 H 631.149 -1.3195 2.69312 0
M  V30 6361 H 628.702 -0.653809 1.41968 0
M  V30 6362 H 629.437 -3.12618 0.862568 0
M  V30 6363 H 629.222 -2.9134 2.62419 0
M  V30 6364 H 630.712 -3.67233 1.98821 0
M  V30 6365 N 631.149 -1.42148 -0.680565 0
M  V30 6366 C 632.395 -1.42521 -1.44277 0
M  V30 6367 C 632.728 -0.0393718 -1.9416 0
M  V30 6368 O 632.003 0.935425 -1.70529 0
M  V30 6369 C 632.286 -2.44475 -2.64394 0
M  V30 6370 C 632.139 -3.92226 -2.20179 0
M  V30 6371 C 633.458 -2.43491 -3.66606 0
M  V30 6372 H 630.577 -0.518985 -0.523282 0
M  V30 6373 H 633.219 -1.73524 -0.773914 0
M  V30 6374 H 631.369 -2.18168 -3.21458 0
M  V30 6375 H 633.041 -4.29493 -1.68327 0
M  V30 6376 H 631.284 -4.0637 -1.5181 0
M  V30 6377 H 631.955 -4.59133 -3.06433 0
M  V30 6378 H 634.431 -2.66872 -3.19247 0
M  V30 6379 H 633.307 -3.16816 -4.4824 0
M  V30 6380 H 633.568 -1.45881 -4.17338 0
M  V30 6381 N 632.627 0.916307 -1.28225 0
M  V30 6382 C 634.043 1.19425 -1.05876 0
M  V30 6383 C 634.243 2.005 0.2005 0
M  V30 6384 O 633.299 2.35806 0.902873 0
M  V30 6385 C 634.612 1.93133 -2.30478 0
M  V30 6386 C 636.16 2.06026 -2.35632 0
M  V30 6387 C 636.635 2.83141 -3.59994 0
M  V30 6388 N 638.126 2.90704 -3.60618 0
M  V30 6389 C 638.861 3.50865 -4.53521 0
M  V30 6390 N 638.357 4.12327 -5.56739 0
M  V30 6391 N 640.15 3.48379 -4.41122 0
M  V30 6392 H 632.301 0.37496 -2.09064 0
M  V30 6393 H 634.564 0.228531 -0.920042 0
M  V30 6394 H 634.27 1.40985 -3.22205 0
M  V30 6395 H 634.144 2.93696 -2.36691 0
M  V30 6396 H 636.531 2.57355 -1.44404 0
M  V30 6397 H 636.612 1.04647 -2.33415 0
M  V30 6398 H 636.256 2.32492 -4.51564 0
M  V30 6399 H 636.186 3.84829 -3.59464 0
M  V30 6400 H 638.677 2.47034 -2.85977 0
M  V30 6401 H 638.99 4.56205 -6.23776 0
M  V30 6402 H 637.335 4.10839 -5.60568 0
M  V30 6403 H 640.526 2.99572 -3.59686 0
M  V30 6404 H 640.699 3.94974 -5.13712 0
M  V30 6405 N 634.105 1.10431 1.1244 0
M  V30 6406 C 635.345 0.856518 1.85589 0
M  V30 6407 C 635.709 -0.606905 1.82156 0
M  V30 6408 O 636.91 -0.97105 2.50647 0
M  V30 6409 C 635.181 1.38977 3.29272 0
M  V30 6410 S 636.74 1.27739 4.19795 0
M  V30 6411 H 633.558 0.309509 0.640098 0
M  V30 6412 H 636.16 1.40975 1.35449 0
M  V30 6413 H 634.864 2.44887 3.2933 0
M  V30 6414 H 634.395 0.833112 3.84477 0
M  V30 6415 H 636.41 0.235051 4.95643 0
M  V30 6416 N 635.583 -1.29855 0.893053 0
M  V30 6417 C 636.86 -1.90694 0.435336 0
M  V30 6418 C 637.24 -1.8111 -1.08454 0
M  V30 6419 O 636.588 -1.23352 -1.92345 0
M  V30 6420 C 636.798 -3.36033 0.942472 0
M  V30 6421 C 638.146 -4.13083 0.982226 0
M  V30 6422 O 639.17 -3.4491 0.889686 0
M  V30 6423 O 638.029 -5.34896 1.12022 0
M  V30 6424 H 635.123 -0.815978 0.134567 0
M  V30 6425 H 637.669 -1.38367 0.982484 0
M  V30 6426 H 636.441 -3.37132 1.9864 0
M  V30 6427 H 636.064 -3.95828 0.374952 0
M  V30 6428 N 637.061 -0.65484 -1.43351 0
M  V30 6429 C 638.024 0.0263562 -2.29185 0
M  V30 6430 C 639.024 0.748951 -1.42293 0
M  V30 6431 O 640.214 0.589957 -1.63906 0
M  V30 6432 C 637.346 1.04806 -3.2439 0
M  V30 6433 H 638.539 -0.728883 -2.90908 0
M  V30 6434 H 636.092 -0.416149 -1.50658 0
M  V30 6435 H 636.827 1.83247 -2.67565 0
M  V30 6436 H 636.612 0.533554 -3.88453 0
M  V30 6437 H 638.102 1.52372 -3.88809 0
M  V30 6438 N 638.539 1.52521 -0.396863 0
M  V30 6439 C 639.785 2.01971 0.183169 0
M  V30 6440 C 640.118 1.2825 1.45827 0
M  V30 6441 O 639.393 0.385179 1.90648 0
M  V30 6442 C 639.676 3.5736 0.443391 0
M  V30 6443 C 639.529 4.41743 -0.84753 0
M  V30 6444 C 640.848 4.22539 1.2308 0
M  V30 6445 H 637.967 0.734119 0.0650976 0
M  V30 6446 H 640.609 1.82519 -0.527918 0
M  V30 6447 H 638.759 3.74066 1.04914 0
M  V30 6448 H 640.431 4.36773 -1.48414 0
M  V30 6449 H 638.674 4.0845 -1.4612 0
M  V30 6450 H 639.345 5.48507 -0.620003 0
M  V30 6451 H 641.821 4.09857 0.718084 0
M  V30 6452 H 640.697 5.31227 1.38162 0
M  V30 6453 H 640.958 3.80675 2.24808 0
M  V30 6454 N 640.017 0.126909 1.57088 0
M  V30 6455 C 640.967 -0.831678 2.1229 0
M  V30 6456 C 641.951 -1.22292 1.04564 0
M  V30 6457 O 643.143 -1.19269 1.30782 0
M  V30 6458 C 640.272 -2.07866 2.73215 0
M  V30 6459 C 639.358 -1.71143 3.88035 0
M  V30 6460 N 639.749 -1.05136 4.94753 0
M  V30 6461 C 638.047 -2.00549 3.98367 0
M  V30 6462 C 638.748 -0.877257 5.75047 0
M  V30 6463 N 637.724 -1.40477 5.25135 0
M  V30 6464 H 641.526 -0.317926 2.92175 0
M  V30 6465 H 639.04 -0.0753052 1.62225 0
M  V30 6466 H 641.037 -2.77516 3.11111 0
M  V30 6467 H 639.697 -2.59778 1.94796 0
M  V30 6468 H 640.708 -0.71442 5.12949 0
M  V30 6469 H 637.385 -2.54452 3.30999 0
M  V30 6470 H 638.775 -0.358536 6.70943 0
M  V30 6471 N 641.495 -1.56914 -0.146875 0
M  V30 6472 C 642.427 -1.94878 -1.20645 0
M  V30 6473 C 643.44 -0.844633 -1.39175 0
M  V30 6474 O 644.629 -1.12304 -1.38744 0
M  V30 6475 C 641.729 -2.20769 -2.57127 0
M  V30 6476 C 640.902 -3.52053 -2.59572 0
M  V30 6477 C 639.961 -3.66482 -3.77594 0
M  V30 6478 O 638.987 -4.38873 -3.62462 0
M  V30 6479 N 640.189 -3.03156 -4.95052 0
M  V30 6480 H 642.954 -2.86374 -0.883757 0
M  V30 6481 H 640.515 -1.58366 -0.336436 0
M  V30 6482 H 642.507 -2.27664 -3.34591 0
M  V30 6483 H 641.077 -1.35538 -2.81688 0
M  V30 6484 H 640.297 -3.56598 -1.68023 0
M  V30 6485 H 641.585 -4.38396 -2.58238 0
M  V30 6486 H 640.983 -2.44258 -5.10249 0
M  V30 6487 H 639.54 -3.15611 -5.70292 0
M  V30 6488 N 642.974 0.416227 -1.52004 0
M  V30 6489 C 644.385 0.995319 -1.57957 0
M  V30 6490 C 644.736 1.91744 -0.415754 0
M  V30 6491 O 643.861 2.11349 0.464808 0
M  V30 6492 C 644.456 1.81191 -2.86278 0
M  V30 6493 C 643.015 2.34115 -2.94732 0
M  V30 6494 C 642.162 1.139 -2.52828 0
M  V30 6495 H 645.113 0.196716 -1.57476 0
M  V30 6496 H 645.134 2.66859 -2.71231 0
M  V30 6497 H 644.646 1.14051 -3.70963 0
M  V30 6498 H 642.747 3.04647 -2.14525 0
M  V30 6499 H 642.86 2.65466 -3.98829 0
M  V30 6500 H 641.224 1.49081 -2.06511 0
M  V30 6501 H 642.007 0.483383 -3.3988 0
M  V30 6502 N 644.452 1.42507 0.673017 0
M  V30 6503 C 645.863 1.38347 1.25367 0
M  V30 6504 C 646.214 0.0776327 1.96046 0
M  V30 6505 O 645.339 -0.823571 2.00116 0
M  V30 6506 C 645.934 2.506 2.28002 0
M  V30 6507 C 644.493 2.49767 2.81591 0
M  V30 6508 C 643.64 2.293 1.55938 0
M  V30 6509 H 646.591 1.51695 0.466288 0
M  V30 6510 H 646.612 2.20953 3.09774 0
M  V30 6511 H 646.124 3.45627 1.76532 0
M  V30 6512 H 644.225 1.58563 3.37177 0
M  V30 6513 H 644.338 3.46867 3.30485 0
M  V30 6514 H 642.702 1.77594 1.82572 0
M  V30 6515 H 643.485 3.26385 1.06431 0
M  V30 6516 N 645.93 -0.909495 1.28709 0
M  V30 6517 C 646.877 -2.01245 1.13 0
M  V30 6518 C 647.847 -1.6608 0.0259684 0
M  V30 6519 O 649.032 -1.89835 0.191687 0
M  V30 6520 C 646.172 -3.35644 0.802315 0
M  V30 6521 C 645.285 -3.83653 1.98582 0
M  V30 6522 C 644.42 -5.06582 1.59837 0
M  V30 6523 C 643.459 -5.46934 2.74827 0
M  V30 6524 N 642.596 -6.61053 2.36546 0
M  V30 6525 H 647.436 -2.14013 2.0737 0
M  V30 6526 H 644.973 -1.0482 1.03205 0
M  V30 6527 H 646.931 -4.12963 0.593057 0
M  V30 6528 H 645.561 -3.22631 -0.104457 0
M  V30 6529 H 644.613 -3.02454 2.30708 0
M  V30 6530 H 645.925 -4.09515 2.84779 0
M  V30 6531 H 645.079 -5.91457 1.35143 0
M  V30 6532 H 643.818 -4.82537 0.707753 0
M  V30 6533 H 642.823 -4.60599 3.00215 0
M  V30 6534 H 644.048 -5.72965 3.64538 0
M  V30 6535 H 641.994 -6.3863 1.49959 0
M  V30 6536 H 641.911 -6.86662 3.16277 0
M  V30 6537 H 643.179 -7.49221 2.15146 0
M  V30 6538 N 647.408 -1.11026 -1.11852 0
M  V30 6539 C 648.656 -0.854769 -1.83134 0
M  V30 6540 C 648.977 0.621375 -1.84835 0
M  V30 6541 O 648.247 1.45129 -1.31584 0
M  V30 6542 H 646.827 -0.313229 -0.678157 0
M  V30 6543 H 649.489 -1.40178 -1.35411 0
M  V30 6544 H 648.585 -1.22311 -2.87135 0
M  V30 6545 N 648.886 1.2938 -0.899927 0
M  V30 6546 C 649.816 2.30144 -0.39446 0
M  V30 6547 C 650.797 1.61611 0.530639 0
M  V30 6548 O 651.982 1.89119 0.441319 0
M  V30 6549 C 649.112 3.45229 0.37868 0
M  V30 6550 C 648.066 4.25564 -0.456012 0
M  V30 6551 C 647.392 5.32848 0.444637 0
M  V30 6552 C 648.692 4.93651 -1.70605 0
M  V30 6553 H 650.386 2.72673 -1.23653 0
M  V30 6554 H 647.932 1.31086 -0.596034 0
M  V30 6555 H 649.885 4.14797 0.743037 0
M  V30 6556 H 648.609 3.01545 1.25453 0
M  V30 6557 H 647.268 3.57704 -0.802704 0
M  V30 6558 H 646.916 4.85408 1.31863 0
M  V30 6559 H 646.616 5.87497 -0.110154 0
M  V30 6560 H 648.14 6.05268 0.805182 0
M  V30 6561 H 649.554 5.55655 -1.41141 0
M  V30 6562 H 647.951 5.58233 -2.20217 0
M  V30 6563 H 649.021 4.18926 -2.4419 0
M  V30 6564 N 650.364 0.662433 1.43002 0
M  V30 6565 C 651.61 0.179857 2.02001 0
M  V30 6566 C 651.943 -1.20625 1.52195 0
M  V30 6567 O 651.218 -1.80726 0.718911 0
M  V30 6568 C 651.501 0.200845 3.59539 0
M  V30 6569 C 651.354 1.62153 4.19555 0
M  V30 6570 C 652.673 -0.457738 4.37713 0
M  V30 6571 H 649.792 0.0668305 0.733964 0
M  V30 6572 H 652.434 0.84487 1.70182 0
M  V30 6573 H 650.584 -0.365411 3.86778 0
M  V30 6574 H 652.256 2.23908 4.03315 0
M  V30 6575 H 650.499 2.16601 3.75854 0
M  V30 6576 H 651.17 1.58799 5.28665 0
M  V30 6577 H 653.646 0.0241495 4.16093 0
M  V30 6578 H 652.522 -0.412363 5.47349 0
M  V30 6579 H 652.783 -1.53336 4.14657 0
M  V30 6580 N 651.842 -1.52309 0.404946 0
M  V30 6581 C 653.258 -1.59503 0.0556255 0
M  V30 6582 C 653.458 -1.41805 -1.43156 0
M  V30 6583 O 652.514 -1.2429 -2.19792 0
M  V30 6584 C 653.827 -2.95687 0.546801 0
M  V30 6585 C 655.375 -3.08909 0.504413 0
M  V30 6586 C 655.85 -4.47566 0.97203 0
M  V30 6587 N 657.341 -4.53795 0.928679 0
M  V30 6588 C 658.076 -5.59346 1.26174 0
M  V30 6589 N 657.572 -6.72469 1.66604 0
M  V30 6590 N 659.365 -5.49532 1.18198 0
M  V30 6591 H 651.516 -1.6206 1.37296 0
M  V30 6592 H 653.779 -0.762161 0.563751 0
M  V30 6593 H 653.485 -3.13905 1.58609 0
M  V30 6594 H 653.359 -3.77172 -0.0457905 0
M  V30 6595 H 655.746 -2.90378 -0.525819 0
M  V30 6596 H 655.827 -2.2934 1.13301 0
M  V30 6597 H 655.471 -4.6684 2.00057 0
M  V30 6598 H 655.401 -5.25625 0.320292 0
M  V30 6599 H 657.892 -3.72588 0.631369 0
M  V30 6600 H 658.205 -7.48993 1.9034 0
M  V30 6601 H 656.55 -6.73761 1.70504 0
M  V30 6602 H 659.741 -4.60038 0.865011 0
M  V30 6603 H 659.914 -6.31687 1.44485 0
M  V30 6604 N 653.32 -0.135238 -1.57019 0
M  V30 6605 C 654.56 0.521686 -1.9763 0
M  V30 6606 C 654.924 1.62804 -1.01778 0
M  V30 6607 O 656.125 2.345 -1.31389 0
M  V30 6608 C 654.396 1.0257 -3.42365 0
M  V30 6609 S 655.955 1.68888 -4.04997 0
M  V30 6610 H 652.773 0.169064 -0.690607 0
M  V30 6611 H 655.375 -0.224168 -1.94211 0
M  V30 6612 H 654.079 0.209556 -4.09865 0
M  V30 6613 H 653.61 1.80645 -3.49472 0
M  V30 6614 H 655.625 2.97554 -3.97084 0
M  V30 6615 N 654.798 1.5699 0.138552 0
M  V30 6616 C 655.761 1.97984 1.15478 0
M  V30 6617 C 656.761 0.867416 1.35398 0
M  V30 6618 O 657.951 1.13387 1.32246 0
M  V30 6619 C 655.083 2.3031 2.51337 0
M  V30 6620 H 656.276 2.88953 0.802896 0
M  V30 6621 H 653.829 1.51555 0.382189 0
M  V30 6622 H 654.564 1.42159 2.91481 0
M  V30 6623 H 654.349 3.11425 2.38237 0
M  V30 6624 H 655.839 2.62834 3.24512 0
M  V30 6625 N 656.276 -0.40816 1.52223 0
M  V30 6626 C 657.226 -1.49648 1.72016 0
M  V30 6627 C 658.21 -1.50311 0.574069 0
M  V30 6628 O 659.402 -1.56271 0.831173 0
M  V30 6629 C 656.531 -2.87566 1.87512 0
M  V30 6630 C 655.617 -2.91547 3.07995 0
M  V30 6631 N 656.008 -2.65225 4.30685 0
M  V30 6632 C 654.306 -3.22715 3.07849 0
M  V30 6633 C 655.007 -2.75799 5.12162 0
M  V30 6634 N 653.983 -3.08719 4.4743 0
M  V30 6635 H 657.785 -1.28093 2.64517 0
M  V30 6636 H 655.299 -0.61588 1.50269 0
M  V30 6637 H 657.296 -3.65899 1.99809 0
M  V30 6638 H 655.956 -3.10118 0.962114 0
M  V30 6639 H 656.967 -2.39601 4.59142 0
M  V30 6640 H 653.644 -3.50856 2.26289 0
M  V30 6641 H 655.034 -2.59155 6.1991 0
M  V30 6642 N 657.755 -1.42862 -0.66545 0
M  V30 6643 C 658.98 -1.47456 -1.45848 0
M  V30 6644 C 659.405 -0.0900312 -1.87884 0
M  V30 6645 O 658.763 0.913587 -1.56599 0
M  V30 6646 C 658.811 -2.41514 -2.67774 0
M  V30 6647 O 657.915 -1.89296 -3.66389 0
M  V30 6648 H 657.256 -0.499236 -0.437789 0
M  V30 6649 H 659.786 -1.8765 -0.815394 0
M  V30 6650 H 659.796 -2.58409 -3.15735 0
M  V30 6651 H 658.471 -3.42099 -2.36519 0
M  V30 6652 H 657.048 -1.82003 -3.25468 0
M  V30 6653 N 659.233 0.902656 -1.29189 0
M  V30 6654 C 660.644 1.46809 -1.15343 0
M  V30 6655 C 660.995 1.94568 0.252517 0
M  V30 6656 O 660.12 1.83454 1.14777 0
M  V30 6657 C 660.715 2.66829 -2.08776 0
M  V30 6658 C 659.274 3.19518 -1.98961 0
M  V30 6659 C 658.421 1.92212 -1.99874 0
M  V30 6660 H 661.372 0.714282 -1.41717 0
M  V30 6661 H 661.393 3.42465 -1.65826 0
M  V30 6662 H 660.905 2.32039 -3.11094 0
M  V30 6663 H 659.006 3.59008 -0.99721 0
M  V30 6664 H 659.119 3.84016 -2.86477 0
M  V30 6665 H 657.483 2.0979 -1.44431 0
M  V30 6666 H 658.266 1.59702 -3.03891 0
M  V30 6667 N 660.711 1.11618 1.11262 0
M  V30 6668 C 661.96 0.860934 1.82403 0
M  V30 6669 C 662.273 -0.615303 1.8567 0
M  V30 6670 O 663.479 -0.986861 2.52929 0
M  V30 6671 C 661.935 1.49048 3.27586 0
M  V30 6672 C 661.543 3.00089 3.32642 0
M  V30 6673 C 663.287 1.31515 4.03614 0
M  V30 6674 C 661.194 3.56019 4.72234 0
M  V30 6675 H 660.124 0.318423 0.683464 0
M  V30 6676 H 662.775 1.34165 1.25188 0
M  V30 6677 H 661.157 0.937434 3.84744 0
M  V30 6678 H 662.331 3.61813 2.85356 0
M  V30 6679 H 660.646 3.16919 2.70096 0
M  V30 6680 H 663.243 1.70732 5.0671 0
M  V30 6681 H 663.586 0.257917 4.155 0
M  V30 6682 H 664.119 1.83694 3.52848 0
M  V30 6683 H 660.858 4.61463 4.65545 0
M  V30 6684 H 660.378 2.99066 5.19923 0
M  V30 6685 H 662.057 3.54568 5.41193 0
M  V30 6686 N 662.189 -1.289 0.906776 0
M  V30 6687 C 663.437 -1.94883 0.535266 0
M  V30 6688 C 663.758 -1.71784 -0.922791 0
M  V30 6689 O 663.028 -1.05359 -1.65156 0
M  V30 6690 H 661.608 -0.721109 0.194962 0
M  V30 6691 H 664.27 -1.57018 1.15461 0
M  V30 6692 H 663.366 -3.03591 0.723821 0
M  V30 6693 N 663.667 -0.670007 -1.42649 0
M  V30 6694 C 664.577 0.0114788 -2.34597 0
M  V30 6695 C 665.593 0.794055 -1.54825 0
M  V30 6696 O 666.769 0.737472 -1.87412 0
M  V30 6697 C 663.834 0.954436 -3.33304 0
M  V30 6698 C 662.895 0.166925 -4.28975 0
M  V30 6699 C 662.128 1.06497 -5.22967 0
M  V30 6700 O 662.351 2.30446 -5.21777 0
M  V30 6701 O 661.285 0.528347 -5.99577 0
M  V30 6702 H 665.111 -0.745794 -2.944 0
M  V30 6703 H 662.696 -0.430228 -1.43071 0
M  V30 6704 H 664.578 1.49589 -3.93956 0
M  V30 6705 H 663.253 1.69164 -2.7598 0
M  V30 6706 H 662.16 -0.418515 -3.71752 0
M  V30 6707 H 663.493 -0.531067 -4.89327 0
M  V30 6708 N 665.145 1.52092 -0.413018 0
M  V30 6709 C 666.392 2.01855 0.161497 0
M  V30 6710 C 666.72 1.29845 1.44812 0
M  V30 6711 O 665.975 0.394471 1.91683 0
M  V30 6712 C 666.274 3.54529 0.4521 0
M  V30 6713 C 665.94 4.4469 -0.745788 0
M  V30 6714 C 664.602 4.69053 -1.07435 0
M  V30 6715 C 666.954 4.97742 -1.54604 0
M  V30 6716 C 664.282 5.43717 -2.20429 0
M  V30 6717 C 666.634 5.73642 -2.66678 0
M  V30 6718 C 665.298 5.96277 -3.00016 0
M  V30 6719 H 664.568 0.73864 0.0590961 0
M  V30 6720 H 667.215 1.83274 -0.555234 0
M  V30 6721 H 665.52 3.7131 1.25045 0
M  V30 6722 H 667.217 3.90546 0.909647 0
M  V30 6723 H 663.807 4.25907 -0.479725 0
M  V30 6724 H 667.991 4.78824 -1.30543 0
M  V30 6725 H 663.247 5.59462 -2.46602 0
M  V30 6726 H 667.421 6.13746 -3.29072 0
M  V30 6727 H 665.048 6.53913 -3.87688 0
M  V30 6728 N 666.623 0.143563 1.56945 0
M  V30 6729 C 667.851 -0.515447 2.00377 0
M  V30 6730 C 668.266 -1.58643 1.02361 0
M  V30 6731 O 667.623 -1.82489 0.0201039 0
M  V30 6732 C 667.674 -1.11923 3.43737 0
M  V30 6733 O 667.395 -0.0910318 4.38005 0
M  V30 6734 C 668.896 -1.85918 4.02429 0
M  V30 6735 H 666.116 -0.134478 0.657386 0
M  V30 6736 H 668.66 0.237135 2.0312 0
M  V30 6737 H 666.815 -1.82245 3.41856 0
M  V30 6738 H 667.229 -0.532916 5.21786 0
M  V30 6739 H 668.703 -2.2346 5.04747 0
M  V30 6740 H 669.18 -2.7438 3.42947 0
M  V30 6741 H 669.786 -1.20303 4.07931 0
M  V30 6742 N 668.101 -1.57061 -0.130224 0
M  V30 6743 C 669.331 -1.88159 -0.853217 0
M  V30 6744 C 669.739 -0.731675 -1.7448 0
M  V30 6745 O 669.082 0.307035 -1.81116 0
M  V30 6746 C 669.144 -3.1415 -1.74785 0
M  V30 6747 C 668.808 -4.45202 -1.03173 0
M  V30 6748 C 669.805 -5.18526 -0.377759 0
M  V30 6749 C 667.49 -4.91912 -1.01624 0
M  V30 6750 C 669.484 -6.36775 0.282123 0
M  V30 6751 C 667.171 -6.10082 -0.352555 0
M  V30 6752 C 668.169 -6.82361 0.295483 0
M  V30 6753 O 667.857 -7.98284 0.948606 0
M  V30 6754 H 667.589 -0.627596 -0.251197 0
M  V30 6755 H 670.143 -2.05034 -0.1226 0
M  V30 6756 H 668.373 -2.93328 -2.51983 0
M  V30 6757 H 670.062 -3.31359 -2.34427 0
M  V30 6758 H 670.828 -4.83498 -0.381417 0
M  V30 6759 H 666.707 -4.35566 -1.51007 0
M  V30 6760 H 670.251 -6.93129 0.788525 0
M  V30 6761 H 666.148 -6.44569 -0.346621 0
M  V30 6762 H 666.916 -8.14054 0.851954 0
M  V30 6763 N 669.579 0.400081 -1.52437 0
M  V30 6764 C 670.526 1.48803 -1.76426 0
M  V30 6765 C 671.496 1.5461 -0.607032 0
M  V30 6766 O 672.681 1.71041 -0.845563 0
M  V30 6767 C 669.821 2.86156 -1.92896 0
M  V30 6768 C 668.934 2.89587 -3.20567 0
M  V30 6769 C 668.069 4.18296 -3.27417 0
M  V30 6770 C 667.108 4.15736 -4.49255 0
M  V30 6771 N 666.245 5.36032 -4.53447 0
M  V30 6772 H 671.085 1.27649 -2.69276 0
M  V30 6773 H 668.622 0.619451 -1.33421 0
M  V30 6774 H 670.58 3.65901 -2.00429 0
M  V30 6775 H 669.21 3.05785 -1.03418 0
M  V30 6776 H 668.262 2.02278 -3.22161 0
M  V30 6777 H 669.574 2.83562 -4.10358 0
M  V30 6778 H 668.728 5.06439 -3.34072 0
M  V30 6779 H 667.467 4.27028 -2.35581 0
M  V30 6780 H 666.472 3.25982 -4.42737 0
M  V30 6781 H 667.697 4.08636 -5.42396 0
M  V30 6782 H 665.643 5.45415 -3.64498 0
M  V30 6783 H 665.56 5.32038 -5.37096 0
M  V30 6784 H 666.828 6.26104 -4.64343 0
M  V30 6785 N 671.057 1.43213 0.657864 0
M  V30 6786 C 672.282 1.48227 1.45064 0
M  V30 6787 C 672.707 0.0999939 1.87834 0
M  V30 6788 O 672.065 -0.905269 1.57081 0
M  V30 6789 C 672.113 2.42931 2.6649 0
M  V30 6790 O 671.217 1.91237 3.6538 0
M  V30 6791 H 670.558 0.501551 0.435135 0
M  V30 6792 H 673.088 1.8808 0.805431 0
M  V30 6793 H 673.098 2.6008 3.1436 0
M  V30 6794 H 671.773 3.43348 2.34701 0
M  V30 6795 H 670.35 1.83726 3.24498 0
M  V30 6796 N 672.536 -0.895792 1.29666 0
M  V30 6797 C 673.761 -1.68528 1.20885 0
M  V30 6798 C 674.186 -1.8673 -0.226595 0
M  V30 6799 O 673.544 -1.39044 -1.16347 0
M  V30 6800 C 673.592 -3.04512 1.93144 0
M  V30 6801 O 672.696 -3.92963 1.25115 0
M  V30 6802 H 672.037 -0.515371 0.418675 0
M  V30 6803 H 674.567 -1.11878 1.71302 0
M  V30 6804 H 674.577 -3.54628 2.0175 0
M  V30 6805 H 673.252 -2.90582 2.97548 0
M  V30 6806 H 671.829 -3.51399 1.24794 0
M  V30 6807 N 674.014 -1.12206 -1.10668 0
M  V30 6808 C 675.254 -0.885935 -1.84202 0
M  V30 6809 C 675.618 0.577849 -1.83098 0
M  V30 6810 O 676.819 0.931051 -2.5216 0
M  V30 6811 C 675.09 -1.44197 -3.2702 0
M  V30 6812 S 676.649 -1.34402 -4.1771 0
M  V30 6813 H 673.467 -0.319653 -0.635093 0
M  V30 6814 H 676.069 -1.43112 -1.33189 0
M  V30 6815 H 674.773 -2.50096 -3.25392 0
M  V30 6816 H 674.304 -0.894173 -3.83103 0
M  V30 6817 H 676.319 -0.313873 -4.95206 0
M  V30 6818 N 675.492 1.28418 -0.913599 0
M  V30 6819 C 676.455 2.25564 -0.406624 0
M  V30 6820 C 677.455 1.5387 0.466965 0
M  V30 6821 O 678.645 1.72094 0.270042 0
M  V30 6822 C 675.777 3.38339 0.417053 0
M  V30 6823 H 676.97 2.71926 -1.26477 0
M  V30 6824 H 674.523 1.40098 -0.692986 0
M  V30 6825 H 675.258 2.97339 1.29461 0
M  V30 6826 H 675.043 3.91542 -0.209102 0
M  V30 6827 H 676.533 4.10578 0.762602 0
M  V30 6828 N 676.97 0.677563 1.42291 0
M  V30 6829 C 678.217 0.200975 2.015 0
M  V30 6830 C 678.545 -1.19342 1.53583 0
M  V30 6831 O 677.8 -1.81579 0.7299 0
M  V30 6832 C 678.099 0.187229 3.56909 0
M  V30 6833 C 677.765 1.52667 4.24268 0
M  V30 6834 C 676.427 1.89341 4.42384 0
M  V30 6835 C 678.779 2.40869 4.62203 0
M  V30 6836 C 676.107 3.13836 4.95705 0
M  V30 6837 C 678.459 3.64679 5.16906 0
M  V30 6838 C 677.123 4.01519 5.33234 0
M  V30 6839 H 676.393 0.0735418 0.737342 0
M  V30 6840 H 679.04 0.873095 1.70439 0
M  V30 6841 H 677.345 -0.568407 3.87655 0
M  V30 6842 H 679.042 -0.198773 4.00507 0
M  V30 6843 H 675.632 1.23138 4.1053 0
M  V30 6844 H 679.816 2.1382 4.47878 0
M  V30 6845 H 675.072 3.42396 5.06532 0
M  V30 6846 H 679.246 4.33224 5.45243 0
M  V30 6847 H 676.873 4.98062 5.74316 0
M  V30 6848 N 678.448 -1.51871 0.421078 0
M  V30 6849 C 679.673 -2.0684 -0.152371 0
M  V30 6850 C 680.098 -1.28802 -1.37083 0
M  V30 6851 O 679.456 -0.321482 -1.78427 0
M  V30 6852 C 679.504 -3.57532 -0.469368 0
M  V30 6853 O 678.608 -3.81818 -1.55848 0
M  V30 6854 H 677.949 -0.663939 -0.00898586 0
M  V30 6855 H 680.479 -1.95674 0.597724 0
M  V30 6856 H 680.489 -4.01515 -0.724553 0
M  V30 6857 H 679.164 -4.13761 0.421276 0
M  V30 6858 H 677.741 -3.49709 -1.29453 0
M  V30 6859 N 679.926 -0.151884 -1.56866 0
M  V30 6860 C 681.166 0.500695 -1.98173 0
M  V30 6861 C 681.53 1.61715 -1.03499 0
M  V30 6862 O 682.731 2.33093 -1.33869 0
M  V30 6863 C 681.002 0.989333 -3.43434 0
M  V30 6864 S 682.561 1.64583 -4.06765 0
M  V30 6865 H 679.379 0.16173 -0.692361 0
M  V30 6866 H 681.981 -0.244754 -1.93962 0
M  V30 6867 H 680.685 0.166072 -4.10064 0
M  V30 6868 H 680.216 1.76929 -3.51368 0
M  V30 6869 H 682.231 2.93326 -4.00218 0
M  V30 6870 N 681.404 1.57128 0.121893 0
M  V30 6871 C 682.314 2.03425 1.16857 0
M  V30 6872 C 683.33 0.954108 1.45509 0
M  V30 6873 O 684.506 1.26541 1.56682 0
M  V30 6874 C 681.571 2.42685 2.47599 0
M  V30 6875 C 680.632 3.64767 2.2637 0
M  V30 6876 C 679.865 4.02145 3.50878 0
M  V30 6877 O 680.088 3.39897 4.58068 0
M  V30 6878 O 679.022 4.95262 3.42051 0
M  V30 6879 H 682.848 2.92825 0.80544 0
M  V30 6880 H 680.433 1.45654 0.332477 0
M  V30 6881 H 682.315 2.68684 3.24634 0
M  V30 6882 H 680.99 1.56432 2.83392 0
M  V30 6883 H 679.897 3.43922 1.47203 0
M  V30 6884 H 681.23 4.51716 1.95482 0
M  V30 6885 N 682.882 -0.391992 1.52647 0
M  V30 6886 C 683.792 -1.503 1.80131 0
M  V30 6887 C 684.808 -1.59825 0.687882 0
M  V30 6888 O 685.984 -1.76218 0.975149 0
M  V30 6889 C 683.049 -2.85863 1.96171 0
M  V30 6890 C 682.11 -2.86084 3.20085 0
M  V30 6891 C 681.343 -4.15181 3.35351 0
M  V30 6892 O 681.566 -5.09981 2.55491 0
M  V30 6893 O 680.5 -4.22603 4.28591 0
M  V30 6894 H 684.326 -1.30007 2.74466 0
M  V30 6895 H 681.911 -0.579539 1.37701 0
M  V30 6896 H 683.793 -3.66236 2.08445 0
M  V30 6897 H 682.468 -3.06189 1.05025 0
M  V30 6898 H 681.375 -2.04504 3.13256 0
M  V30 6899 H 682.708 -2.7071 4.11068 0
M  V30 6900 N 684.36 -1.4356 -0.65026 0
M  V30 6901 C 685.608 -1.45046 -1.40734 0
M  V30 6902 C 685.929 -0.0769822 -1.94848 0
M  V30 6903 O 685.199 0.888098 -1.74613 0
M  V30 6904 H 683.779 -0.534034 -0.522318 0
M  V30 6905 H 686.441 -1.79186 -0.766703 0
M  V30 6906 H 685.537 -2.16476 -2.24822 0
M  V30 6907 N 685.838 0.888903 -1.30139 0
M  V30 6908 C 687.085 1.64037 -1.18736 0
M  V30 6909 C 687.413 1.92771 0.258801 0
M  V30 6910 O 686.668 1.54427 1.20212 0
M  V30 6911 C 686.967 2.99041 -1.95728 0
M  V30 6912 C 686.633 2.89874 -3.45375 0
M  V30 6913 C 685.295 2.87082 -3.86183 0
M  V30 6914 C 687.647 2.78289 -4.40687 0
M  V30 6915 C 684.975 2.70536 -5.20603 0
M  V30 6916 C 687.327 2.63282 -5.75209 0
M  V30 6917 C 685.991 2.58861 -6.15262 0
M  V30 6918 H 685.261 0.600253 -0.434485 0
M  V30 6919 H 687.908 1.0338 -1.61198 0
M  V30 6920 H 686.213 3.63626 -1.45888 0
M  V30 6921 H 687.91 3.56139 -1.843 0
M  V30 6922 H 684.5 2.92856 -3.12943 0
M  V30 6923 H 688.684 2.79516 -4.10103 0
M  V30 6924 H 683.94 2.65526 -5.50732 0
M  V30 6925 H 688.114 2.5329 -6.48704 0
M  V30 6926 H 685.741 2.45799 -7.19366 0
M  V30 6927 N 687.317 1.12792 1.10072 0
M  V30 6928 C 688.227 0.812369 2.20086 0
M  V30 6929 C 689.243 -0.200349 1.72843 0
M  V30 6930 O 690.419 -0.0330262 2.01373 0
M  V30 6931 C 687.484 0.275685 3.45602 0
M  V30 6932 C 686.545 1.34881 4.07561 0
M  V30 6933 C 685.778 0.837639 5.27086 0
M  V30 6934 O 686.001 -0.327224 5.69461 0
M  V30 6935 O 684.935 1.60894 5.79997 0
M  V30 6936 H 688.761 1.73133 2.49517 0
M  V30 6937 H 686.346 0.904863 1.18881 0
M  V30 6938 H 688.228 -0.0185375 4.21396 0
M  V30 6939 H 686.903 -0.615783 3.17789 0
M  V30 6940 H 685.81 1.69625 3.33434 0
M  V30 6941 H 687.143 2.21418 4.39585 0
M  V30 6942 N 688.795 -1.27931 0.920396 0
M  V30 6943 C 689.725 -2.29487 0.431024 0
M  V30 6944 C 690.706 -1.62435 -0.504861 0
M  V30 6945 O 691.891 -1.89797 -0.411176 0
M  V30 6946 C 689.021 -3.45788 -0.323709 0
M  V30 6947 C 687.975 -4.24784 0.523658 0
M  V30 6948 C 687.301 -5.33488 -0.359809 0
M  V30 6949 C 688.601 -4.90874 1.78437 0
M  V30 6950 H 690.295 -2.70671 1.27975 0
M  V30 6951 H 687.841 -1.30121 0.616813 0
M  V30 6952 H 689.794 -4.15927 -0.676952 0
M  V30 6953 H 688.518 -3.03502 -1.2064 0
M  V30 6954 H 687.177 -3.56382 0.85951 0
M  V30 6955 H 686.825 -4.87445 -1.24124 0
M  V30 6956 H 686.525 -5.87247 0.203605 0
M  V30 6957 H 688.049 -6.06472 -0.708787 0
M  V30 6958 H 689.463 -5.53339 1.49963 0
M  V30 6959 H 687.86 -5.54659 2.29071 0
M  V30 6960 H 688.93 -4.14988 2.50824 0
M  V30 6961 N 690.273 -0.685099 -1.4193 0
M  V30 6962 C 691.223 0.00977295 -2.27998 0
M  V30 6963 C 692.207 0.763315 -1.41641 0
M  V30 6964 O 693.399 0.640532 -1.65004 0
M  V30 6965 C 690.528 0.952972 -3.29808 0
M  V30 6966 C 689.614 0.196231 -4.23646 0
M  V30 6967 N 690.005 -0.804401 -4.99363 0
M  V30 6968 C 688.303 0.433213 -4.43891 0
M  V30 6969 C 689.004 -1.25646 -5.67968 0
M  V30 6970 N 687.98 -0.5844 -5.4045 0
M  V30 6971 H 691.782 -0.757586 -2.83968 0
M  V30 6972 H 689.296 -0.515037 -1.54017 0
M  V30 6973 H 691.293 1.46585 -3.9028 0
M  V30 6974 H 689.953 1.72004 -2.75399 0
M  V30 6975 H 690.964 -1.18429 -5.04177 0
M  V30 6976 H 687.641 1.17899 -4.00507 0
M  V30 6977 H 689.031 -2.08622 -6.38691 0
M  V30 6978 N 691.751 1.51645 -0.429126 0
M  V30 6979 C 692.999 2.01616 0.139802 0
M  V30 6980 C 693.32 1.31568 1.43927 0
M  V30 6981 O 692.59 0.447688 1.90716 0
M  V30 6982 H 691.17 0.744998 0.054654 0
M  V30 6983 H 693.832 1.8638 -0.569952 0
M  V30 6984 H 692.928 3.10439 0.321609 0
M  V30 6985 N 693.229 0.160201 1.56784 0
M  V30 6986 C 694.454 -0.497373 2.01348 0
M  V30 6987 C 694.879 -1.56757 1.03966 0
M  V30 6988 O 694.237 -1.81292 0.0174455 0
M  V30 6989 C 694.285 -1.0628 3.44582 0
M  V30 6990 O 693.389 -2.17723 3.50244 0
M  V30 6991 H 692.73 -0.120295 0.653012 0
M  V30 6992 H 695.26 0.260821 2.02931 0
M  V30 6993 H 695.27 -1.38819 3.83658 0
M  V30 6994 H 693.945 -0.279166 4.14962 0
M  V30 6995 H 692.522 -1.86313 3.2302 0
M  V30 6996 N 694.707 -1.5719 -0.113559 0
M  V30 6997 C 695.935 -1.89328 -0.834422 0
M  V30 6998 C 696.35 -0.752018 -1.73177 0
M  V30 6999 O 695.707 0.276912 -1.80387 0
M  V30 7000 C 695.758 -3.20962 -1.66329 0
M  V30 7001 O 695.479 -4.30695 -0.802069 0
M  V30 7002 C 696.98 -3.6684 -2.48884 0
M  V30 7003 H 694.2 -0.626769 -0.239587 0
M  V30 7004 H 696.744 -2.04273 -0.0963195 0
M  V30 7005 H 694.899 -3.0767 -2.35409 0
M  V30 7006 H 695.313 -5.06175 -1.37431 0
M  V30 7007 H 696.787 -4.61692 -3.02563 0
M  V30 7008 H 697.264 -2.93765 -3.26495 0
M  V30 7009 H 697.87 -3.82938 -1.85036 0
M  V30 7010 N 696.185 0.383891 -1.52853 0
M  V30 7011 C 697.117 1.48889 -1.74255 0
M  V30 7012 C 698.13 1.50405 -0.623063 0
M  V30 7013 O 699.319 1.54215 -0.898887 0
M  V30 7014 C 696.419 2.87721 -1.79081 0
M  V30 7015 C 695.592 3.10111 -3.08464 0
M  V30 7016 C 694.651 4.28954 -3.0477 0
M  V30 7017 O 693.677 4.25012 -3.78621 0
M  V30 7018 N 694.879 5.35411 -2.24311 0
M  V30 7019 H 697.644 1.30915 -2.69595 0
M  V30 7020 H 695.205 0.573454 -1.51404 0
M  V30 7021 H 697.197 3.65333 -1.7411 0
M  V30 7022 H 695.767 2.99029 -0.911052 0
M  V30 7023 H 694.987 2.20319 -3.26884 0
M  V30 7024 H 696.275 3.21928 -3.94005 0
M  V30 7025 H 695.673 5.41471 -1.63787 0
M  V30 7026 H 694.23 6.1167 -2.25175 0
M  V30 7027 N 697.663 1.43903 0.642637 0
M  V30 7028 C 698.593 1.52697 1.76652 0
M  V30 7029 C 699.574 0.380816 1.65782 0
M  V30 7030 O 700.759 0.599432 1.84717 0
M  V30 7031 C 697.889 1.45975 3.15133 0
M  V30 7032 C 696.843 2.58949 3.40778 0
M  V30 7033 C 696.169 2.37279 4.79169 0
M  V30 7034 C 697.469 4.01153 3.34475 0
M  V30 7035 H 699.163 2.46766 1.69549 0
M  V30 7036 H 696.709 1.18767 0.814279 0
M  V30 7037 H 698.662 1.5073 3.93521 0
M  V30 7038 H 697.386 0.484162 3.22991 0
M  V30 7039 H 696.045 2.53564 2.64765 0
M  V30 7040 H 695.693 1.37939 4.83717 0
M  V30 7041 H 695.393 3.13016 4.97287 0
M  V30 7042 H 696.917 2.43834 5.59801 0
M  V30 7043 H 698.331 4.07968 4.02784 0
M  V30 7044 H 696.728 4.77001 3.64129 0
M  V30 7045 H 697.798 4.25539 2.32475 0
M  V30 7046 N 699.141 -0.881989 1.30609 0
M  V30 7047 C 700.051 -2.02076 1.19174 0
M  V30 7048 C 701.067 -1.73645 0.11102 0
M  V30 7049 O 702.243 -1.98735 0.326528 0
M  V30 7050 C 699.308 -3.3515 0.887438 0
M  V30 7051 C 698.369 -3.76983 2.05383 0
M  V30 7052 C 697.602 -5.03707 1.76395 0
M  V30 7053 O 697.825 -5.66171 0.693302 0
M  V30 7054 O 696.759 -5.42019 2.61723 0
M  V30 7055 H 700.585 -2.14652 2.14845 0
M  V30 7056 H 698.17 -1.00843 1.10232 0
M  V30 7057 H 700.052 -4.14975 0.73306 0
M  V30 7058 H 698.727 -3.23676 -0.0393354 0
M  V30 7059 H 697.634 -2.97849 2.26355 0
M  V30 7060 H 698.967 -3.93066 2.96243 0
M  V30 7061 N 700.619 -1.13374 -1.09472 0
M  V30 7062 C 701.859 -0.905422 -1.83252 0
M  V30 7063 C 702.223 0.558396 -1.83701 0
M  V30 7064 O 703.424 0.904254 -2.53134 0
M  V30 7065 C 701.695 -1.47658 -3.25472 0
M  V30 7066 S 703.254 -1.38825 -4.16261 0
M  V30 7067 H 700.072 -0.326371 -0.631667 0
M  V30 7068 H 702.674 -1.44517 -1.31663 0
M  V30 7069 H 701.378 -2.53533 -3.22722 0
M  V30 7070 H 700.909 -0.934756 -3.82133 0
M  V30 7071 H 702.924 -0.366379 -4.94846 0
M  V30 7072 N 702.098 1.27442 -0.927168 0
M  V30 7073 C 703.326 1.98498 -0.583622 0
M  V30 7074 C 703.741 1.69171 0.838241 0
M  V30 7075 O 703.098 0.951969 1.55704 0
M  V30 7076 C 703.149 3.52552 -0.799341 0
M  V30 7077 O 702.87 3.80851 -2.16527 0
M  V30 7078 C 704.371 4.4086 -0.464436 0
M  V30 7079 H 701.591 0.633487 -0.221213 0
M  V30 7080 H 704.135 1.62308 -1.24404 0
M  V30 7081 H 702.29 3.86955 -0.185728 0
M  V30 7082 H 702.704 4.75441 -2.21487 0
M  V30 7083 H 704.178 5.47967 -0.666075 0
M  V30 7084 H 704.655 4.35082 0.599995 0
M  V30 7085 H 705.261 4.11977 -1.05617 0
M  V30 7086 N 703.576 0.692616 1.41565 0
M  V30 7087 C 704.801 0.229776 2.06123 0
M  V30 7088 C 705.226 -1.11119 1.5177 0
M  V30 7089 O 704.584 -1.69498 0.643444 0
M  V30 7090 C 704.632 0.19469 3.60074 0
M  V30 7091 O 703.736 -0.831366 4.03933 0
M  V30 7092 H 703.077 0.113002 0.654314 0
M  V30 7093 H 705.607 0.946645 1.81383 0
M  V30 7094 H 705.617 0.0245487 4.07993 0
M  V30 7095 H 704.292 1.17339 3.99004 0
M  V30 7096 H 702.869 -0.630819 3.67526 0
M  V30 7097 N 705.054 -1.51416 0.437162 0
M  V30 7098 C 705.986 -2.255 -0.410171 0
M  V30 7099 C 706.999 -1.29511 -0.986444 0
M  V30 7100 O 708.188 -1.55266 -0.880614 0
M  V30 7101 C 705.288 -2.99511 -1.58575 0
M  V30 7102 C 704.461 -4.22595 -1.12839 0
M  V30 7103 C 703.52 -4.79187 -2.17407 0
M  V30 7104 O 702.546 -5.4103 -1.76849 0
M  V30 7105 N 703.748 -4.63204 -3.49889 0
M  V30 7106 H 706.513 -2.98856 0.224783 0
M  V30 7107 H 704.074 -1.59699 0.266041 0
M  V30 7108 H 706.066 -3.34258 -2.28152 0
M  V30 7109 H 704.636 -2.29167 -2.12606 0
M  V30 7110 H 703.856 -3.93344 -0.259695 0
M  V30 7111 H 705.144 -5.02468 -0.800196 0
M  V30 7112 H 704.542 -4.13945 -3.85573 0
M  V30 7113 H 703.099 -5.02313 -4.15361 0
M  V30 7114 N 706.532 -0.168513 -1.56696 0
M  V30 7115 C 707.78 0.476216 -1.96409 0
M  V30 7116 C 708.101 1.63968 -1.05544 0
M  V30 7117 O 707.371 1.95525 -0.121235 0
M  V30 7118 H 705.951 0.178921 -0.725256 0
M  V30 7119 H 708.613 -0.249042 -1.93302 0
M  V30 7120 H 707.709 0.838094 -3.00637 0
M  V30 7121 N 708.01 1.57248 0.105221 0
M  V30 7122 C 708.942 1.98008 1.15436 0
M  V30 7123 C 709.955 0.881236 1.36887 0
M  V30 7124 O 711.144 1.15943 1.35718 0
M  V30 7125 C 708.244 2.27509 2.51183 0
M  V30 7126 C 707.417 3.58811 2.50147 0
M  V30 7127 C 706.476 3.76365 3.67745 0
M  V30 7128 O 705.502 4.48329 3.50699 0
M  V30 7129 N 706.704 3.16174 4.86841 0
M  V30 7130 H 709.469 2.88616 0.807519 0
M  V30 7131 H 707.03 1.59202 0.29433 0
M  V30 7132 H 709.022 2.36455 3.28438 0
M  V30 7133 H 707.592 1.42959 2.77995 0
M  V30 7134 H 706.812 3.60927 1.5851 0
M  V30 7135 H 708.1 4.45088 2.46524 0
M  V30 7136 H 707.498 2.57701 5.03594 0
M  V30 7137 H 706.055 3.30621 5.61723 0
M  V30 7138 N 709.488 -0.375779 1.53054 0
M  V30 7139 C 710.734 -1.11767 1.6994 0
M  V30 7140 C 711.089 -1.87288 0.440574 0
M  V30 7141 O 710.382 -1.83045 -0.566146 0
M  V30 7142 C 710.576 -2.11356 2.88207 0
M  V30 7143 C 710.405 -1.45619 4.25471 0
M  V30 7144 C 709.175 -1.21464 4.90484 0
M  V30 7145 C 711.373 -0.899276 5.06377 0
M  V30 7146 N 709.355 -0.519705 6.11696 0
M  V30 7147 C 710.726 -0.333138 6.19104 0
M  V30 7148 C 712.781 -0.79697 4.9148 0
M  V30 7149 C 711.484 0.325316 7.18564 0
M  V30 7150 C 713.51 -0.152315 5.91204 0
M  V30 7151 C 712.872 0.402994 7.03246 0
M  V30 7152 H 708.971 -0.394489 0.675206 0
M  V30 7153 H 711.555 -0.40541 1.90432 0
M  V30 7154 H 709.726 -2.79905 2.69272 0
M  V30 7155 H 711.458 -2.78148 2.93966 0
M  V30 7156 H 708.213 -1.49319 4.49445 0
M  V30 7157 H 708.637 -0.187896 6.76739 0
M  V30 7158 H 713.279 -1.21208 4.05054 0
M  V30 7159 H 710.997 0.752399 8.0459 0
M  V30 7160 H 714.583 -0.074223 5.81753 0
M  V30 7161 H 713.463 0.89394 7.79088 0
M  V30 7162 N 710.966 -1.44241 -0.634997 0
M  V30 7163 C 712.194 -1.50296 -1.42193 0
M  V30 7164 C 712.609 -0.12658 -1.88375 0
M  V30 7165 O 711.966 0.86678 -1.60603 0
M  V30 7166 C 712.017 -2.46437 -2.64482 0
M  V30 7167 O 711.738 -3.78724 -2.20226 0
M  V30 7168 C 713.239 -2.61918 -3.57651 0
M  V30 7169 H 710.459 -0.509865 -0.43621 0
M  V30 7170 H 713.003 -1.89167 -0.776921 0
M  V30 7171 H 711.158 -2.10712 -3.25083 0
M  V30 7172 H 711.572 -4.30595 -2.9948 0
M  V30 7173 H 713.046 -3.33225 -4.40074 0
M  V30 7174 H 713.523 -1.67017 -4.06204 0
M  V30 7175 H 714.129 -2.98528 -3.02921 0
M  V30 7176 N 712.444 0.87505 -1.31075 0
M  V30 7177 C 713.354 2.01441 -1.20244 0
M  V30 7178 C 714.37 1.73584 -0.120227 0
M  V30 7179 O 715.546 1.98559 -0.337063 0
M  V30 7180 C 712.611 3.34675 -0.905199 0
M  V30 7181 C 711.672 3.75889 -2.0738 0
M  V30 7182 C 710.905 5.02764 -1.79064 0
M  V30 7183 O 711.128 5.65795 -0.723318 0
M  V30 7184 O 710.062 5.40623 -2.64594 0
M  V30 7185 H 713.888 2.13509 -2.1598 0
M  V30 7186 H 711.473 1.00257 -1.10765 0
M  V30 7187 H 713.355 4.1458 -0.755057 0
M  V30 7188 H 712.03 3.23692 0.0221695 0
M  V30 7189 H 710.937 2.96645 -2.27931 0
M  V30 7190 H 712.27 3.91489 -2.98324 0
M  V30 7191 N 713.922 1.13953 1.08869 0
M  V30 7192 C 714.832 0.835666 2.19212 0
M  V30 7193 C 715.848 -0.182005 1.73045 0
M  V30 7194 O 717.024 -0.0116661 2.01397 0
M  V30 7195 C 714.089 0.312325 3.4529 0
M  V30 7196 C 713.15 1.39196 4.06107 0
M  V30 7197 C 712.383 0.893496 5.26168 0
M  V30 7198 O 712.606 -0.266807 5.69776 0
M  V30 7199 O 711.54 1.67037 5.78258 0
M  V30 7200 H 715.366 1.75769 2.47667 0
M  V30 7201 H 712.951 0.917421 1.17914 0
M  V30 7202 H 714.833 0.0261582 4.21392 0
M  V30 7203 H 713.508 -0.582042 3.18424 0
M  V30 7204 H 712.415 1.73152 3.31616 0
M  V30 7205 H 713.748 2.26068 4.37212 0
M  V30 7206 N 715.4 -1.26948 0.933913 0
M  V30 7207 C 716.646 -1.94374 0.57848 0
M  V30 7208 C 716.979 -1.73166 -0.879048 0
M  V30 7209 O 716.254 -1.06438 -1.62792 0
M  V30 7210 C 716.537 -3.4834 0.912739 0
M  V30 7211 C 716.39 -3.78866 2.42448 0
M  V30 7212 C 717.709 -4.38062 0.423003 0
M  V30 7213 H 714.828 -0.705959 0.211639 0
M  V30 7214 H 717.47 -1.49951 1.16682 0
M  V30 7215 H 715.62 -3.86309 0.412058 0
M  V30 7216 H 717.292 -3.50654 2.99733 0
M  V30 7217 H 715.535 -3.25198 2.87104 0
M  V30 7218 H 716.206 -4.86458 2.60887 0
M  V30 7219 H 718.682 -4.0728 0.852191 0
M  V30 7220 H 717.558 -5.44599 0.685776 0
M  V30 7221 H 717.819 -4.36886 -0.676994 0
M  V30 7222 N 716.879 -0.700114 -1.41195 0
M  V30 7223 C 718.29 -0.307249 -1.84154 0
M  V30 7224 C 718.641 1.15539 -1.58572 0
M  V30 7225 O 717.766 1.88744 -1.05852 0
M  V30 7226 C 718.361 -0.550872 -3.34292 0
M  V30 7227 C 716.92 -0.211877 -3.75803 0
M  V30 7228 C 716.067 -0.830915 -2.64558 0
M  V30 7229 H 719.018 -0.900431 -1.30683 0
M  V30 7230 H 719.039 0.188954 -3.80031 0
M  V30 7231 H 718.551 -1.61548 -3.5288 0
M  V30 7232 H 716.652 0.848283 -3.62815 0
M  V30 7233 H 716.765 -0.67007 -4.74391 0
M  V30 7234 H 715.129 -0.260155 -2.53368 0
M  V30 7235 H 715.912 -1.89948 -2.85963 0
M  V30 7236 N 718.357 1.51182 -0.445186 0
M  V30 7237 C 719.582 2.07056 0.119445 0
M  V30 7238 C 720.007 1.30966 1.35016 0
M  V30 7239 O 719.365 0.349827 1.77893 0
M  V30 7240 C 719.413 3.58234 0.412428 0
M  V30 7241 O 718.517 3.84249 1.49754 0
M  V30 7242 H 717.858 0.663998 -0.00157797 0
M  V30 7243 H 720.388 1.94699 -0.628779 0
M  V30 7244 H 720.398 4.02617 0.660583 0
M  V30 7245 H 719.073 4.13038 -0.487049 0
M  V30 7246 H 717.65 3.51724 1.23873 0
M  V30 7247 N 719.835 0.176821 1.56605 0
M  V30 7248 C 721.075 -0.469104 1.98944 0
M  V30 7249 C 721.439 -1.60048 1.06059 0
M  V30 7250 O 722.64 -2.30934 1.3756 0
M  V30 7251 C 720.911 -0.934571 3.44965 0
M  V30 7252 S 722.47 -1.58091 4.09332 0
M  V30 7253 H 719.288 -0.150695 0.694847 0
M  V30 7254 H 721.89 0.27558 1.93548 0
M  V30 7255 H 720.594 -0.100814 4.10276 0
M  V30 7256 H 720.125 -1.71316 3.54139 0
M  V30 7257 H 722.14 -2.86922 4.04834 0
M  V30 7258 N 721.313 -1.57302 -0.09688 0
M  V30 7259 C 722.245 -1.98618 -1.14384 0
M  V30 7260 C 723.258 -0.888483 -1.36418 0
M  V30 7261 O 724.447 -1.16661 -1.35101 0
M  V30 7262 C 721.547 -2.28838 -2.49973 0
M  V30 7263 C 720.72 -3.60132 -2.48241 0
M  V30 7264 C 719.779 -3.7831 -3.65743 0
M  V30 7265 O 718.805 -4.50183 -3.48316 0
M  V30 7266 N 720.007 -3.18752 -4.85157 0
M  V30 7267 H 722.772 -2.8904 -0.792202 0
M  V30 7268 H 720.333 -1.59356 -0.285883 0
M  V30 7269 H 722.325 -2.38193 -3.27179 0
M  V30 7270 H 720.895 -1.44431 -2.77233 0
M  V30 7271 H 720.115 -3.61763 -1.56593 0
M  V30 7272 H 721.403 -4.46389 -2.4416 0
M  V30 7273 H 720.801 -2.60368 -5.0222 0
M  V30 7274 H 719.358 -3.33595 -5.59962 0
M  V30 7275 N 722.791 0.367657 -1.53252 0
M  V30 7276 C 724.037 1.11216 -1.69584 0
M  V30 7277 C 724.37 1.89026 -0.445269 0
M  V30 7278 O 723.645 1.86342 0.557404 0
M  V30 7279 C 723.928 2.07308 -2.94441 0
M  V30 7280 C 723.781 1.3312 -4.2965 0
M  V30 7281 C 725.1 3.07459 -3.14892 0
M  V30 7282 H 722.219 0.40294 -0.617096 0
M  V30 7283 H 724.861 0.393201 -1.85887 0
M  V30 7284 H 723.011 2.68617 -2.80673 0
M  V30 7285 H 724.683 0.746111 -4.55226 0
M  V30 7286 H 722.926 0.633051 -4.29156 0
M  V30 7287 H 723.597 2.03443 -5.13142 0
M  V30 7288 H 726.073 2.56252 -3.27832 0
M  V30 7289 H 724.949 3.71919 -4.03693 0
M  V30 7290 H 725.21 3.77514 -2.30077 0
M  V30 7291 N 724.269 1.44576 0.627338 0
M  V30 7292 C 725.515 1.47777 1.38888 0
M  V30 7293 C 725.848 0.111406 1.9388 0
M  V30 7294 O 725.123 -0.87149 1.73883 0
M  V30 7295 C 725.406 2.54119 2.55138 0
M  V30 7296 C 725.259 4.00128 2.0547 0
M  V30 7297 C 726.578 2.56929 3.57317 0
M  V30 7298 H 723.697 0.538048 0.50366 0
M  V30 7299 H 726.339 1.76277 0.708978 0
M  V30 7300 H 724.489 2.29948 3.13139 0
M  V30 7301 H 726.161 4.35444 1.5227 0
M  V30 7302 H 724.404 4.11724 1.36623 0
M  V30 7303 H 725.075 4.7019 2.89181 0
M  V30 7304 H 727.551 2.78536 3.09122 0
M  V30 7305 H 726.427 3.33234 4.36173 0
M  V30 7306 H 726.688 1.6127 4.11636 0
M  V30 7307 N 725.747 -0.868086 1.31537 0
M  V30 7308 C 726.694 -1.97548 1.19346 0
M  V30 7309 C 727.664 -1.65913 0.0787922 0
M  V30 7310 O 728.849 -1.89129 0.251985 0
M  V30 7311 C 725.989 -3.32922 0.908692 0
M  V30 7312 C 725.102 -3.77141 2.10687 0
M  V30 7313 C 724.237 -5.01241 1.75873 0
M  V30 7314 C 723.276 -5.37914 2.92088 0
M  V30 7315 N 722.413 -6.53192 2.57457 0
M  V30 7316 H 727.253 -2.07307 2.14074 0
M  V30 7317 H 724.79 -1.01483 1.06487 0
M  V30 7318 H 726.748 -4.10867 0.724138 0
M  V30 7319 H 725.378 -3.228 -0.0017611 0
M  V30 7320 H 724.43 -2.94961 2.40213 0
M  V30 7321 H 725.742 -4.00248 2.97663 0
M  V30 7322 H 724.896 -5.86858 1.53891 0
M  V30 7323 H 723.635 -4.80041 0.86091 0
M  V30 7324 H 722.64 -4.50814 3.14717 0
M  V30 7325 H 723.865 -5.61077 3.82582 0
M  V30 7326 H 721.811 -6.33536 1.702 0
M  V30 7327 H 721.728 -6.76252 3.37963 0
M  V30 7328 H 722.996 -7.41997 2.38873 0
M  V30 7329 N 727.225 -1.14528 -1.08264 0
M  V30 7330 C 728.465 -0.924808 -1.82282 0
M  V30 7331 C 728.829 0.538881 -1.84283 0
M  V30 7332 O 730.03 0.877355 -2.54079 0
M  V30 7333 C 728.301 -1.51102 -3.23887 0
M  V30 7334 S 729.86 -1.43232 -4.14765 0
M  V30 7335 H 726.678 -0.333052 -0.62817 0
M  V30 7336 H 729.28 -1.45905 -1.30123 0
M  V30 7337 H 727.984 -2.56942 -3.20014 0
M  V30 7338 H 727.515 -0.975234 -3.8112 0
M  V30 7339 H 729.53 -0.418843 -4.94429 0
M  V30 7340 N 728.703 1.26451 -0.940633 0
M  V30 7341 C 729.928 1.98407 -0.60412 0
M  V30 7342 C 730.353 1.69584 0.81382 0
M  V30 7343 O 729.711 0.943553 1.54812 0
M  V30 7344 C 729.759 3.50387 -0.852136 0
M  V30 7345 O 728.863 4.1233 0.076013 0
M  V30 7346 H 728.204 0.622466 -0.231153 0
M  V30 7347 H 730.734 1.60932 -1.26342 0
M  V30 7348 H 730.744 4.00614 -0.772816 0
M  V30 7349 H 729.419 3.70696 -1.88566 0
M  V30 7350 H 727.996 3.7286 -0.0543187 0
M  V30 7351 N 730.181 0.707592 1.40822 0
M  V30 7352 C 731.406 0.251626 2.05868 0
M  V30 7353 C 731.831 -1.09503 1.5294 0
M  V30 7354 O 731.189 -1.68806 0.661385 0
M  V30 7355 C 731.237 0.23287 3.59847 0
M  V30 7356 O 730.341 -0.788477 4.04792 0
M  V30 7357 H 729.682 0.119936 0.653078 0
M  V30 7358 H 732.212 0.96583 1.80369 0
M  V30 7359 H 732.222 0.0678204 4.07944 0
M  V30 7360 H 730.897 1.21565 3.97737 0
M  V30 7361 H 729.474 -0.591802 3.68174 0
M  V30 7362 N 731.66 -1.50943 0.453197 0
M  V30 7363 C 732.59 -2.31005 -0.34044 0
M  V30 7364 C 733.571 -1.37112 -1.00669 0
M  V30 7365 O 734.756 -1.66033 -1.0073 0
M  V30 7366 C 731.886 -3.16358 -1.433 0
M  V30 7367 C 730.84 -4.18658 -0.889363 0
M  V30 7368 C 730.166 -4.92633 -2.07887 0
M  V30 7369 C 731.466 -5.22227 0.0871142 0
M  V30 7370 H 733.16 -2.97601 0.327723 0
M  V30 7371 H 730.706 -1.43119 0.159054 0
M  V30 7372 H 732.659 -3.71155 -1.99555 0
M  V30 7373 H 731.383 -2.47613 -2.12968 0
M  V30 7374 H 730.042 -3.64936 -0.348915 0
M  V30 7375 H 729.69 -4.20376 -2.76211 0
M  V30 7376 H 729.39 -5.61819 -1.72143 0
M  V30 7377 H 730.914 -5.50258 -2.64666 0
M  V30 7378 H 732.328 -5.72001 -0.385656 0
M  V30 7379 H 730.725 -5.99032 0.357926 0
M  V30 7380 H 731.795 -4.74077 1.01879 0
M  V30 7381 N 733.138 -0.185124 -1.56509 0
M  V30 7382 C 734.101 0.72591 -2.17401 0
M  V30 7383 C 735.101 1.14819 -1.12575 0
M  V30 7384 O 736.291 1.0629 -1.38015 0
M  V30 7385 C 733.423 1.98979 -2.76803 0
M  V30 7386 H 734.616 0.195588 -2.99262 0
M  V30 7387 H 732.169 0.0644772 -1.56167 0
M  V30 7388 H 732.904 2.56287 -1.98714 0
M  V30 7389 H 732.689 1.69583 -3.53531 0
M  V30 7390 H 734.179 2.63966 -3.23592 0
M  V30 7391 N 734.616 1.57351 0.0885366 0
M  V30 7392 C 735.862 1.86696 0.791996 0
M  V30 7393 C 736.195 0.775148 1.78059 0
M  V30 7394 O 735.47 -0.216247 1.93294 0
M  V30 7395 C 735.753 3.26684 1.51491 0
M  V30 7396 C 735.606 4.465 0.543858 0
M  V30 7397 C 736.925 3.64664 2.46391 0
M  V30 7398 H 734.044 0.679049 0.286463 0
M  V30 7399 H 736.686 1.89919 0.0554866 0
M  V30 7400 H 734.836 3.24067 2.14273 0
M  V30 7401 H 736.508 4.61235 -0.0774597 0
M  V30 7402 H 734.751 4.33567 -0.142228 0
M  V30 7403 H 735.422 5.41192 1.08696 0
M  V30 7404 H 737.898 3.68267 1.93698 0
M  V30 7405 H 736.774 4.63534 2.93986 0
M  V30 7406 H 737.035 2.93698 3.30445 0
M  V30 7407 N 736.094 -0.359525 1.53444 0
M  V30 7408 C 737.505 -0.936009 1.61542 0
M  V30 7409 C 737.856 -1.90069 0.486633 0
M  V30 7410 O 736.981 -2.12929 -0.386047 0
M  V30 7411 C 737.576 -1.70441 2.92806 0
M  V30 7412 C 736.135 -2.23015 3.03218 0
M  V30 7413 C 735.282 -1.04438 2.56881 0
M  V30 7414 H 738.233 -0.138134 1.58098 0
M  V30 7415 H 738.254 -2.56609 2.80948 0
M  V30 7416 H 737.766 -1.00205 3.74941 0
M  V30 7417 H 735.867 -2.96475 2.25684 0
M  V30 7418 H 735.98 -2.50481 4.08407 0
M  V30 7419 H 734.344 -1.41314 2.11902 0
M  V30 7420 H 735.127 -0.356905 3.4144 0
M  V30 7421 N 737.572 -1.44907 -0.619662 0
M  V30 7422 C 738.82 -1.47999 -1.37625 0
M  V30 7423 C 739.141 -0.118295 -1.94641 0
M  V30 7424 O 738.411 0.85086 -1.76457 0
M  V30 7425 H 736.991 -0.544993 -0.510873 0
M  V30 7426 H 739.653 -1.80772 -0.728522 0
M  V30 7427 H 738.749 -2.21196 -2.20179 0
M  V30 7428 N 739.05 0.861098 -1.31996 0
M  V30 7429 C 739.997 1.96912 -1.20392 0
M  V30 7430 C 740.967 1.65869 -0.0875899 0
M  V30 7431 O 742.152 1.88992 -0.262011 0
M  V30 7432 C 739.292 3.32435 -0.926335 0
M  V30 7433 C 738.405 3.76018 -2.12684 0
M  V30 7434 C 737.54 5.00301 -1.78529 0
M  V30 7435 C 736.579 5.36357 -2.94937 0
M  V30 7436 N 735.716 6.51818 -2.60917 0
M  V30 7437 H 740.556 2.06169 -2.1517 0
M  V30 7438 H 738.093 1.00917 -1.07024 0
M  V30 7439 H 740.051 4.10478 -0.745917 0
M  V30 7440 H 738.681 3.22796 -0.0153578 0
M  V30 7441 H 737.733 2.93683 -2.41774 0
M  V30 7442 H 739.045 3.98664 -2.99781 0
M  V30 7443 H 738.199 5.86034 -1.57001 0
M  V30 7444 H 736.938 4.79578 -0.886356 0
M  V30 7445 H 735.943 4.49139 -3.17103 0
M  V30 7446 H 737.168 5.59041 -3.85552 0
M  V30 7447 H 735.114 6.32624 -1.73558 0
M  V30 7448 H 735.031 6.7445 -3.41544 0
M  V30 7449 H 736.299 7.4072 -2.42804 0
M  V30 7450 N 740.528 1.15101 1.07655 0
M  V30 7451 C 741.777 0.918528 1.79572 0
M  V30 7452 C 742.09 -0.555922 1.87534 0
M  V30 7453 O 743.296 -0.905893 2.55941 0
M  V30 7454 C 741.752 1.59394 3.22679 0
M  V30 7455 C 741.36 3.1052 3.22927 0
M  V30 7456 C 743.104 1.44289 3.99225 0
M  V30 7457 C 741.011 3.70862 4.60668 0
M  V30 7458 H 739.941 0.340006 0.672987 0
M  V30 7459 H 742.592 1.38079 1.20857 0
M  V30 7460 H 740.974 1.05936 3.81567 0
M  V30 7461 H 742.148 3.70708 2.737 0
M  V30 7462 H 740.463 3.25351 2.59876 0
M  V30 7463 H 743.06 1.86766 5.01022 0
M  V30 7464 H 743.403 0.389975 4.14469 0
M  V30 7465 H 743.936 1.94826 3.46825 0
M  V30 7466 H 740.675 4.7604 4.50628 0
M  V30 7467 H 740.195 3.15456 5.10145 0
M  V30 7468 H 741.874 3.71607 5.29639 0
M  V30 7469 N 742.006 -1.2595 0.947325 0
M  V30 7470 C 742.954 -2.28152 0.452687 0
M  V30 7471 C 743.948 -1.62655 -0.473239 0
M  V30 7472 O 745.154 -1.76549 -0.350774 0
M  V30 7473 H 741.529 -0.741049 0.12787 0
M  V30 7474 H 743.5 -2.67267 1.32707 0
M  V30 7475 C 742.249 -3.46719 -0.26098 0
M  V30 7476 H 741.572 -3.97345 0.442352 0
M  V30 7477 H 743.012 -4.20135 -0.571208 0
M  V30 7478 C 741.471 -3.02605 -1.48094 0
M  V30 7479 O 742.001 -3.07979 -2.57899 0
M  V30 7480 N 740.207 -2.57877 -1.33969 0
M  V30 7481 H 739.754 -2.53704 -0.446295 0
M  V30 7482 H 739.712 -2.28725 -2.15713 0
M  V30 7483 N 743.484 -0.715051 -1.40445 0
M  V30 7484 C 744.417 -0.0112426 -2.28197 0
M  V30 7485 C 745.395 0.768211 -1.43308 0
M  V30 7486 O 746.579 0.754961 -1.72721 0
M  V30 7487 C 743.706 0.991453 -3.23864 0
M  V30 7488 C 742.752 0.302873 -4.25423 0
M  V30 7489 S 743.585 -0.968852 -5.26663 0
M  V30 7490 C 744.741 0.0317538 -6.25892 0
M  V30 7491 H 744.974 -0.755467 -2.87541 0
M  V30 7492 H 742.507 -0.506054 -1.45871 0
M  V30 7493 H 744.465 1.56475 -3.79507 0
M  V30 7494 H 743.126 1.70838 -2.63578 0
M  V30 7495 H 742.319 1.06086 -4.92709 0
M  V30 7496 H 741.921 -0.197853 -3.73476 0
M  V30 7497 H 744.213 0.878764 -6.71777 0
M  V30 7498 H 745.156 -0.607698 -7.05488 0
M  V30 7499 H 745.564 0.39524 -5.63115 0
M  V30 7500 N 744.962 1.50701 -0.461195 0
M  V30 7501 C 746.187 2.07171 0.0974773 0
M  V30 7502 C 746.612 1.32391 1.3362 0
M  V30 7503 O 745.97 0.368676 1.77512 0
M  V30 7504 C 746.018 3.58651 0.374409 0
M  V30 7505 O 745.122 3.85816 1.4567 0
M  V30 7506 H 744.463 0.663944 -0.00862047 0
M  V30 7507 H 746.993 1.94021 -0.649394 0
M  V30 7508 H 747.003 4.03295 0.617843 0
M  V30 7509 H 745.678 4.12498 -0.530829 0
M  V30 7510 H 744.255 3.53018 1.20136 0
M  V30 7511 N 746.441 0.193421 1.56409 0
M  V30 7512 C 747.681 -0.447977 1.9943 0
M  V30 7513 C 748.045 -1.58915 1.07751 0
M  V30 7514 O 749.246 -2.29462 1.40002 0
M  V30 7515 C 747.517 -0.89793 3.45936 0
M  V30 7516 S 749.076 -1.5374 4.10986 0
M  V30 7517 H 745.894 -0.143316 0.696406 0
M  V30 7518 H 748.496 0.296093 1.93245 0
M  V30 7519 H 747.2 -0.0572927 4.1036 0
M  V30 7520 H 746.731 -1.67551 3.55936 0
M  V30 7521 H 748.746 -2.82612 4.07854 0
M  V30 7522 N 747.919 -1.57396 -0.0801906 0
M  V30 7523 C 749.144 -1.91437 -0.797909 0
M  V30 7524 C 749.569 -0.789075 -1.70749 0
M  V30 7525 O 748.927 0.25857 -1.79447 0
M  V30 7526 C 748.975 -3.24402 -1.57467 0
M  V30 7527 O 748.079 -3.13043 -2.68473 0
M  V30 7528 H 747.42 -0.627109 -0.218243 0
M  V30 7529 H 749.95 -2.04537 -0.050949 0
M  V30 7530 H 749.96 -3.58072 -1.95571 0
M  V30 7531 H 748.635 -4.05884 -0.907229 0
M  V30 7532 H 747.212 -2.90915 -2.33287 0
M  V30 7533 N 749.397 0.351382 -1.53633 0
M  V30 7534 C 750.645 1.09034 -1.70165 0
M  V30 7535 C 750.966 1.89413 -0.463422 0
M  V30 7536 O 750.236 1.888 0.522624 0
M  V30 7537 H 748.816 0.405522 -0.627344 0
M  V30 7538 H 751.478 0.394554 -1.90865 0
M  V30 7539 H 750.574 1.77215 -2.56907 0
M  V30 7540 N 750.875 1.45233 0.611969 0
M  V30 7541 C 751.785 1.56098 1.7513 0
M  V30 7542 C 752.801 0.445646 1.68196 0
M  V30 7543 O 753.977 0.705718 1.88631 0
M  V30 7544 C 751.042 1.52052 3.11579 0
M  V30 7545 C 750.103 2.74589 3.29999 0
M  V30 7546 C 749.336 2.70726 4.59938 0
M  V30 7547 O 749.559 1.77806 5.41979 0
M  V30 7548 O 748.493 3.61864 4.80976 0
M  V30 7549 H 752.319 2.52392 1.68914 0
M  V30 7550 H 749.904 1.27695 0.775528 0
M  V30 7551 H 751.786 1.52387 3.92882 0
M  V30 7552 H 750.461 0.589085 3.18295 0
M  V30 7553 H 749.368 2.79817 2.48301 0
M  V30 7554 H 750.701 3.66843 3.28157 0
M  V30 7555 N 752.353 -0.854086 1.3245 0
M  V30 7556 C 753.764 -1.42427 1.20712 0
M  V30 7557 C 754.115 -1.95371 -0.18013 0
M  V30 7558 O 753.24 -1.87587 -1.07889 0
M  V30 7559 C 753.835 -2.58897 2.18536 0
M  V30 7560 C 752.394 -3.11913 2.10683 0
M  V30 7561 C 751.541 -1.84661 2.06871 0
M  V30 7562 H 754.492 -0.661192 1.4427 0
M  V30 7563 H 754.513 -3.36074 1.78422 0
M  V30 7564 H 754.025 -2.20333 3.19492 0
M  V30 7565 H 752.126 -3.55059 1.12977 0
M  V30 7566 H 752.239 -3.73119 3.00532 0
M  V30 7567 H 750.603 -2.04285 1.52118 0
M  V30 7568 H 751.386 -1.48314 3.09609 0
M  V30 7569 N 753.831 -1.1567 -1.07043 0
M  V30 7570 C 755.077 -0.9349 -1.79965 0
M  V30 7571 C 755.41 0.536464 -1.86643 0
M  V30 7572 O 754.685 1.39781 -1.35247 0
M  V30 7573 C 754.968 -1.55371 -3.24857 0
M  V30 7574 C 754.821 -3.09589 -3.26305 0
M  V30 7575 C 756.14 -1.24209 -4.22209 0
M  V30 7576 H 753.259 -0.341061 -0.653335 0
M  V30 7577 H 755.901 -1.42883 -1.25237 0
M  V30 7578 H 754.051 -1.13368 -3.71591 0
M  V30 7579 H 755.723 -3.60521 -2.87789 0
M  V30 7580 H 753.966 -3.43315 -2.65174 0
M  V30 7581 H 754.637 -3.48002 -4.28484 0
M  V30 7582 H 757.113 -1.60548 -3.8388 0
M  V30 7583 H 755.989 -1.70119 -5.21872 0
M  V30 7584 H 756.25 -0.15964 -4.41812 0
M  V30 7585 N 755.309 1.25446 -0.953992 0
M  V30 7586 C 756.556 1.93143 -0.608429 0
M  V30 7587 C 756.884 1.74727 0.854451 0
M  V30 7588 O 756.139 1.0855 1.62836 0
M  V30 7589 C 756.438 3.45555 -0.912496 0
M  V30 7590 C 756.104 3.84126 -2.36131 0
M  V30 7591 C 754.766 3.94367 -2.75732 0
M  V30 7592 C 757.118 4.0324 -3.30223 0
M  V30 7593 C 754.446 4.21127 -4.08496 0
M  V30 7594 C 756.798 4.31493 -4.62598 0
M  V30 7595 C 755.462 4.3995 -5.01996 0
M  V30 7596 H 754.732 0.706762 -0.22264 0
M  V30 7597 H 757.379 1.49005 -1.20291 0
M  V30 7598 H 755.684 3.91091 -0.235618 0
M  V30 7599 H 757.381 3.9612 -0.623714 0
M  V30 7600 H 753.971 3.76711 -2.04418 0
M  V30 7601 H 758.155 3.94744 -3.00817 0
M  V30 7602 H 753.411 4.2589 -4.38665 0
M  V30 7603 H 757.585 4.45227 -5.35486 0
M  V30 7604 H 755.212 4.60439 -6.04896 0
M  V30 7605 N 756.787 0.722489 1.40064 0
M  V30 7606 C 758.035 0.264455 2.00362 0
M  V30 7607 C 758.356 -1.14847 1.57592 0
M  V30 7608 O 757.626 -1.77982 0.818477 0
M  V30 7609 H 756.206 0.0947846 0.740962 0
M  V30 7610 H 758.868 0.929659 1.71299 0
M  V30 7611 H 757.964 0.302977 3.10626 0
M  V30 7612 N 758.265 -1.50454 0.469181 0
M  V30 7613 C 759.493 -2.06729 -0.0842134 0
M  V30 7614 C 759.908 -1.33326 -1.33677 0
M  V30 7615 O 759.265 -0.401977 -1.78018 0
M  V30 7616 C 759.316 -3.59557 -0.374253 0
M  V30 7617 O 759.037 -4.30192 0.828622 0
M  V30 7618 C 760.538 -4.32449 -0.974824 0
M  V30 7619 H 757.758 -0.670971 0.006231 0
M  V30 7620 H 760.302 -1.93645 0.657415 0
M  V30 7621 H 758.457 -3.7245 -1.06581 0
M  V30 7622 H 758.871 -5.21371 0.572066 0
M  V30 7623 H 760.345 -5.40361 -1.12755 0
M  V30 7624 H 760.822 -3.92819 -1.96442 0
M  V30 7625 H 761.428 -4.24082 -0.321703 0
M  V30 7626 N 759.743 -0.201713 -1.56304 0
M  V30 7627 C 760.989 0.435952 -1.98059 0
M  V30 7628 C 761.322 1.60811 -1.08873 0
M  V30 7629 O 760.597 1.9398 -0.142128 0
M  V30 7630 C 760.88 0.889706 -3.48936 0
M  V30 7631 C 760.733 -0.284725 -4.48898 0
M  V30 7632 C 762.052 1.7529 -4.03685 0
M  V30 7633 H 759.171 0.15699 -0.720085 0
M  V30 7634 H 761.813 -0.293965 -1.87712 0
M  V30 7635 H 759.963 1.51166 -3.57884 0
M  V30 7636 H 761.635 -0.922531 -4.51981 0
M  V30 7637 H 759.878 -0.935427 -4.23594 0
M  V30 7638 H 760.549 0.0753865 -5.51949 0
M  V30 7639 H 763.025 1.2283 -3.97558 0
M  V30 7640 H 761.901 2.03933 -5.0961 0
M  V30 7641 H 762.162 2.70939 -3.49348 0
M  V30 7642 N 761.222 1.57436 0.0718424 0
M  V30 7643 C 762.462 1.89082 0.776351 0
M  V30 7644 C 762.826 0.795494 1.74745 0
M  V30 7645 O 764.027 0.995025 2.49705 0
M  V30 7646 C 762.298 3.25958 1.46582 0
M  V30 7647 S 763.857 3.79352 2.2054 0
M  V30 7648 H 760.675 0.662472 0.25817 0
M  V30 7649 H 763.277 1.95473 0.0324536 0
M  V30 7650 H 761.981 4.03577 0.745237 0
M  V30 7651 H 761.512 3.22764 2.24915 0
M  V30 7652 H 763.527 3.54634 3.47058 0
M  V30 7653 N 762.7 -0.34323 1.53817 0
M  V30 7654 C 763.647 -1.42153 1.81827 0
M  V30 7655 C 764.617 -1.52251 0.663996 0
M  V30 7656 O 765.802 -1.67784 0.908461 0
M  V30 7657 C 762.942 -2.78799 2.03384 0
M  V30 7658 C 762.055 -2.7749 3.31094 0
M  V30 7659 C 761.19 -4.05856 3.42717 0
M  V30 7660 C 760.229 -3.98776 4.64375 0
M  V30 7661 N 759.366 -5.18833 4.73029 0
M  V30 7662 H 764.206 -1.17567 2.73829 0
M  V30 7663 H 761.743 -0.569506 1.35628 0
M  V30 7664 H 763.701 -3.58211 2.13872 0
M  V30 7665 H 762.331 -3.01736 1.14696 0
M  V30 7666 H 761.383 -1.90182 3.29446 0
M  V30 7667 H 762.695 -2.68137 4.206 0
M  V30 7668 H 761.849 -4.93691 3.52638 0
M  V30 7669 H 760.588 -4.1799 2.51267 0
M  V30 7670 H 759.593 -3.09325 4.5453 0
M  V30 7671 H 760.818 -3.88224 5.57189 0
M  V30 7672 H 758.764 -5.31511 3.84489 0
M  V30 7673 H 758.681 -5.11737 5.56472 0
M  V30 7674 H 759.949 -6.08439 4.87261 0
M  V30 7675 N 764.178 -1.45556 -0.604258 0
M  V30 7676 C 765.425 -1.49746 -1.36317 0
M  V30 7677 C 765.753 -0.140516 -1.93992 0
M  V30 7678 O 765.008 0.861244 -1.7573 0
M  V30 7679 C 765.307 -2.52697 -2.52743 0
M  V30 7680 C 764.973 -3.97315 -2.13195 0
M  V30 7681 C 763.635 -4.36692 -2.02123 0
M  V30 7682 C 765.987 -4.88249 -1.8238 0
M  V30 7683 C 763.315 -5.64895 -1.58463 0
M  V30 7684 C 765.667 -6.16867 -1.40205 0
M  V30 7685 C 764.331 -6.55172 -1.27694 0
M  V30 7686 H 763.601 -0.54796 -0.49882 0
M  V30 7687 H 766.248 -1.7892 -0.682643 0
M  V30 7688 H 764.553 -2.17105 -3.26148 0
M  V30 7689 H 766.25 -2.53176 -3.10971 0
M  V30 7690 H 762.84 -3.66176 -2.22739 0
M  V30 7691 H 767.024 -4.58561 -1.89829 0
M  V30 7692 H 762.28 -5.93365 -1.47402 0
M  V30 7693 H 766.454 -6.86771 -1.15408 0
M  V30 7694 H 764.081 -7.54411 -0.936375 0
M  V30 7695 N 765.656 0.84705 -1.32902 0
M  V30 7696 C 766.619 1.9378 -1.224 0
M  V30 7697 C 767.619 1.60144 -0.145108 0
M  V30 7698 O 768.809 1.69638 -0.396058 0
M  V30 7699 C 765.941 3.29234 -0.884174 0
M  V30 7700 H 767.134 2.04518 -2.19345 0
M  V30 7701 H 764.687 1.03816 -1.16842 0
M  V30 7702 H 765.422 3.24193 0.0831277 0
M  V30 7703 H 765.207 3.55026 -1.6643 0
M  V30 7704 H 766.697 4.09162 -0.835226 0
M  V30 7705 N 767.134 1.16236 1.06428 0
M  V30 7706 C 768.374 0.95369 1.80787 0
M  V30 7707 C 768.738 -0.509495 1.85117 0
M  V30 7708 O 769.939 -0.836822 2.55442 0
M  V30 7709 C 768.21 1.56235 3.21443 0
M  V30 7710 S 769.769 1.49812 4.12434 0
M  V30 7711 H 766.587 0.343004 0.622792 0
M  V30 7712 H 769.189 1.47957 1.27785 0
M  V30 7713 H 767.893 2.62 3.15886 0
M  V30 7714 H 767.424 1.03574 3.79521 0
M  V30 7715 H 769.439 0.49745 4.937 0
M  V30 7716 N 768.612 -1.24939 0.960631 0
M  V30 7717 C 770.023 -1.74701 0.658529 0
M  V30 7718 C 770.374 -1.77967 -0.825959 0
M  V30 7719 O 769.499 -1.40444 -1.64634 0
M  V30 7720 C 770.094 -3.17263 1.18867 0
M  V30 7721 C 768.653 -3.64561 0.936614 0
M  V30 7722 C 767.8 -2.43423 1.32817 0
M  V30 7723 H 770.751 -1.10741 1.13676 0
M  V30 7724 H 770.772 -3.76481 0.551589 0
M  V30 7725 H 770.284 -3.14854 2.26912 0
M  V30 7726 H 768.385 -3.72378 -0.128608 0
M  V30 7727 H 768.498 -4.52392 1.57729 0
M  V30 7728 H 766.862 -2.43513 0.746548 0
M  V30 7729 H 767.645 -2.437 2.41796 0
M  V30 7730 N 770.09 -0.729906 -1.39679 0
M  V30 7731 C 771 -0.0880322 -2.34435 0
M  V30 7732 C 772.016 0.727674 -1.58053 0
M  V30 7733 O 773.192 0.657321 -1.90371 0
M  V30 7734 C 770.257 0.812211 -3.37052 0
M  V30 7735 C 769.318 -0.0151681 -4.29297 0
M  V30 7736 C 768.551 0.842202 -5.27013 0
M  V30 7737 O 768.774 2.08108 -5.31081 0
M  V30 7738 O 767.708 0.27357 -6.01278 0
M  V30 7739 H 771.534 -0.869989 -2.90972 0
M  V30 7740 H 769.119 -0.490522 -1.41118 0
M  V30 7741 H 771.001 1.32745 -3.99946 0
M  V30 7742 H 769.676 1.57307 -2.82907 0
M  V30 7743 H 768.583 -0.575811 -3.69642 0
M  V30 7744 H 769.916 -0.738129 -4.86634 0
M  V30 7745 N 771.568 1.50203 -0.477153 0
M  V30 7746 C 772.816 2.01959 0.0755889 0
M  V30 7747 C 773.137 1.3608 1.39668 0
M  V30 7748 O 772.407 0.508136 1.89195 0
M  V30 7749 H 770.987 0.74636 0.0309248 0
M  V30 7750 H 773.649 1.84473 -0.628959 0
M  V30 7751 H 772.745 3.11305 0.222683 0
M  V30 7752 N 773.046 0.209999 1.56195 0
M  V30 7753 C 774.292 -0.418742 1.99043 0
M  V30 7754 C 774.647 -1.58201 1.095 0
M  V30 7755 O 773.94 -1.91069 0.1425 0
M  V30 7756 C 774.134 -0.91312 3.45539 0
M  V30 7757 C 773.963 0.200706 4.49252 0
M  V30 7758 C 772.733 0.663287 5.00928 0
M  V30 7759 C 774.931 1.01493 5.04186 0
M  V30 7760 N 772.913 1.75338 5.88328 0
M  V30 7761 C 774.284 1.95411 5.884 0
M  V30 7762 C 776.339 1.05567 4.8658 0
M  V30 7763 C 775.042 2.93069 6.56889 0
M  V30 7764 C 777.068 2.02037 5.55819 0
M  V30 7765 C 776.43 2.94697 6.39791 0
M  V30 7766 H 772.529 -0.120226 0.772703 0
M  V30 7767 H 775.113 0.319119 1.92067 0
M  V30 7768 H 773.284 -1.62038 3.52985 0
M  V30 7769 H 775.016 -1.51371 3.75325 0
M  V30 7770 H 771.771 0.253945 4.72919 0
M  V30 7771 H 772.195 2.30007 6.3673 0
M  V30 7772 H 776.837 0.353242 4.21322 0
M  V30 7773 H 774.555 3.6428 7.21336 0
M  V30 7774 H 778.141 2.05849 5.44167 0
M  V30 7775 H 777.021 3.68128 6.92425 0
M  V30 7776 N 774.524 -1.57472 -0.0634922 0
M  V30 7777 C 775.752 -1.91887 -0.773767 0
M  V30 7778 C 776.167 -0.806733 -1.70696 0
M  V30 7779 O 775.524 0.219383 -1.81177 0
M  V30 7780 C 775.575 -3.26092 -1.56034 0
M  V30 7781 O 775.296 -4.33029 -0.66464 0
M  V30 7782 C 776.797 -3.74573 -2.37087 0
M  V30 7783 H 774.017 -0.634074 -0.219525 0
M  V30 7784 H 776.561 -2.04476 -0.0312828 0
M  V30 7785 H 774.716 -3.15004 -2.25502 0
M  V30 7786 H 775.13 -5.10291 -1.21258 0
M  V30 7787 H 776.604 -4.71084 -2.87722 0
M  V30 7788 H 777.081 -3.04003 -3.16984 0
M  V30 7789 H 777.687 -3.88631 -1.72759 0
M  V30 7790 N 776.003 0.335068 -1.53997 0
M  V30 7791 C 776.933 1.41727 -1.85568 0
M  V30 7792 C 777.914 1.54505 -0.7115 0
M  V30 7793 O 779.099 1.68573 -0.964191 0
M  V30 7794 C 776.229 2.7866 -2.07282 0
M  V30 7795 C 775.183 2.80682 -3.23112 0
M  V30 7796 C 774.509 4.20581 -3.30175 0
M  V30 7797 C 775.809 2.45458 -4.61029 0
M  V30 7798 H 777.503 1.15555 -2.76202 0
M  V30 7799 H 775.049 0.554445 -1.32898 0
M  V30 7800 H 777.002 3.54423 -2.27952 0
M  V30 7801 H 775.726 3.06286 -1.13387 0
M  V30 7802 H 774.385 2.07373 -3.02311 0
M  V30 7803 H 774.033 4.4533 -2.33859 0
M  V30 7804 H 773.733 4.22843 -4.08016 0
M  V30 7805 H 775.257 4.98174 -3.53066 0
M  V30 7806 H 776.671 3.10934 -4.81656 0
M  V30 7807 H 775.068 2.5899 -5.41336 0
M  V30 7808 H 776.138 1.40628 -4.6406 0
M  V30 7809 N 777.481 1.45874 0.596531 0
M  V30 7810 C 778.429 1.55739 1.72766 0
M  V30 7811 C 779.423 0.426666 1.63939 0
M  V30 7812 O 780.629 0.60301 1.69599 0
M  V30 7813 H 777.004 0.489386 0.570968 0
M  V30 7814 H 778.975 2.50871 1.61575 0
M  V30 7815 C 777.724 1.55174 3.11153 0
M  V30 7816 H 777.047 2.41511 3.1861 0
M  V30 7817 H 778.487 1.66133 3.90097 0
M  V30 7818 C 776.946 0.278001 3.35751 0
M  V30 7819 O 777.476 -0.637557 3.96608 0
M  V30 7820 N 775.682 0.170227 2.90101 0
M  V30 7821 H 775.229 0.916159 2.40758 0
M  V30 7822 H 775.187 -0.68117 3.06932 0
M  V30 7823 N 778.959 -0.83999 1.33349 0
M  V30 7824 C 780.207 -1.59202 1.24496 0
M  V30 7825 C 780.528 -1.94077 -0.189499 0
M  V30 7826 O 779.798 -1.60868 -1.11796 0
M  V30 7827 H 778.378 -0.590276 0.457802 0
M  V30 7828 H 781.04 -1.00394 1.67054 0
M  V30 7829 H 780.136 -2.52247 1.83788 0
M  V30 7830 N 780.437 -1.16799 -1.0581 0
M  V30 7831 C 781.662 -0.977402 -1.82925 0
M  V30 7832 C 782.087 0.469514 -1.82146 0
M  V30 7833 O 781.445 1.33576 -1.22585 0
M  V30 7834 C 781.493 -1.51543 -3.27211 0
M  V30 7835 O 780.597 -0.725021 -4.05977 0
M  V30 7836 H 779.938 -0.347474 -0.565825 0
M  V30 7837 H 782.468 -1.55151 -1.33376 0
M  V30 7838 H 782.478 -1.53502 -3.78023 0
M  V30 7839 H 781.153 -2.56872 -3.27093 0
M  V30 7840 H 779.73 -0.77634 -3.64729 0
M  V30 7841 N 781.915 1.24427 -0.967243 0
M  V30 7842 C 782.878 2.23637 -0.501927 0
M  V30 7843 C 783.878 1.55712 0.401283 0
M  V30 7844 O 785.068 1.73085 0.196808 0
M  V30 7845 C 782.2 3.39804 0.273176 0
M  V30 7846 H 783.393 2.66317 -1.37897 0
M  V30 7847 H 780.946 1.37033 -0.751783 0
M  V30 7848 H 781.681 3.02562 1.16733 0
M  V30 7849 H 781.466 3.90303 -0.37498 0
M  V30 7850 H 782.956 4.13443 0.587776 0
M  V30 7851 N 783.393 0.737304 1.3929 0
M  V30 7852 C 784.356 0.10731 2.28949 0
M  V30 7853 C 785.356 -0.664716 1.46418 0
M  V30 7854 O 786.546 -0.493392 1.67067 0
M  V30 7855 C 783.678 -0.857145 3.29948 0
M  V30 7856 H 784.871 0.89725 2.86163 0
M  V30 7857 H 782.424 0.503279 1.47976 0
M  V30 7858 H 783.159 -1.67336 2.77794 0
M  V30 7859 H 782.944 -0.306167 3.90903 0
M  V30 7860 H 784.434 -1.29444 3.97031 0
M  V30 7861 N 784.871 -1.49948 0.485112 0
M  V30 7862 C 786.287 -1.58984 0.140096 0
M  V30 7863 C 786.487 -1.49194 -1.35438 0
M  V30 7864 O 785.543 -1.35765 -2.12894 0
M  V30 7865 C 786.856 -2.92372 0.702769 0
M  V30 7866 C 788.404 -3.05801 0.66745 0
M  V30 7867 C 788.879 -4.41785 1.20791 0
M  V30 7868 N 790.37 -4.48234 1.16792 0
M  V30 7869 C 791.105 -5.51871 1.55646 0
M  V30 7870 N 790.601 -6.62692 2.02016 0
M  V30 7871 N 792.394 -5.42494 1.47161 0
M  V30 7872 H 784.545 -1.54555 1.45693 0
M  V30 7873 H 786.808 -0.731206 0.603359 0
M  V30 7874 H 786.514 -3.05056 1.75025 0
M  V30 7875 H 786.388 -3.76885 0.154205 0
M  V30 7876 H 788.775 -2.92757 -0.371157 0
M  V30 7877 H 788.856 -2.23011 1.25298 0
M  V30 7878 H 788.5 -4.55579 2.24522 0
M  V30 7879 H 788.43 -5.23188 0.598464 0
M  V30 7880 H 790.921 -3.68718 0.827982 0
M  V30 7881 H 791.234 -7.3785 2.29775 0
M  V30 7882 H 789.579 -6.63775 2.05979 0
M  V30 7883 H 792.77 -4.54806 1.10765 0
M  V30 7884 H 792.943 -6.2314 1.77766 0
M  V30 7885 N 786.349 -0.21828 -1.56081 0
M  V30 7886 C 787.577 0.419258 -2.02608 0
M  V30 7887 C 787.992 1.53578 -1.09814 0
M  V30 7888 O 787.349 1.82185 -0.107149 0
M  V30 7889 C 787.4 0.953955 -3.48686 0
M  V30 7890 O 787.121 -0.11805 -4.37941 0
M  V30 7891 C 788.622 1.66506 -4.10841 0
M  V30 7892 H 785.842 0.10296 -0.663054 0
M  V30 7893 H 788.386 -0.333776 -2.01758 0
M  V30 7894 H 786.541 1.65727 -3.50162 0
M  V30 7895 H 786.955 0.283359 -5.23734 0
M  V30 7896 H 788.429 1.99123 -5.14834 0
M  V30 7897 H 788.906 2.57705 -3.55647 0
M  V30 7898 H 789.512 1.00703 -4.13206 0
M  V30 7899 N 787.827 1.57504 0.0551401 0
M  V30 7900 C 789.067 1.89895 0.756252 0
M  V30 7901 C 789.431 0.813983 1.73892 0
M  V30 7902 O 790.632 1.02145 2.48636 0
M  V30 7903 C 788.903 3.27494 1.43116 0
M  V30 7904 S 790.462 3.81669 2.16504 0
M  V30 7905 H 787.28 0.665173 0.251129 0
M  V30 7906 H 789.882 1.95496 0.0117193 0
M  V30 7907 H 788.586 4.04345 0.702391 0
M  V30 7908 H 788.117 3.25132 2.21479 0
M  V30 7909 H 790.132 3.58295 3.43277 0
M  V30 7910 N 789.305 -0.326896 1.54172 0
M  V30 7911 C 790.553 -1.06313 1.71878 0
M  V30 7912 C 790.874 -1.88652 0.493498 0
M  V30 7913 O 790.144 -1.89608 -0.492522 0
M  V30 7914 H 788.724 -0.39549 0.633716 0
M  V30 7915 H 791.386 -0.364139 1.91468 0
M  V30 7916 H 790.482 -1.73105 2.59694 0
M  V30 7917 N 790.784 -1.46188 -0.588786 0
M  V30 7918 C 791.747 -1.55882 -1.68029 0
M  V30 7919 C 792.747 -0.436515 -1.54762 0
M  V30 7920 O 793.937 -0.700626 -1.59489 0
M  V30 7921 C 791.069 -1.47332 -3.07418 0
M  V30 7922 H 792.262 -2.5315 -1.60795 0
M  V30 7923 H 789.815 -1.33908 -0.806116 0
M  V30 7924 H 790.55 -0.513193 -3.20214 0
M  V30 7925 H 790.335 -2.28753 -3.18456 0
M  V30 7926 H 791.825 -1.57187 -3.86887 0
M  V30 7927 N 792.262 0.832906 -1.33792 0
M  V30 7928 C 793.49 1.62048 -1.28639 0
M  V30 7929 C 793.905 1.88269 0.141522 0
M  V30 7930 O 793.262 1.46706 1.08553 0
M  V30 7931 C 793.313 2.96722 -2.0649 0
M  V30 7932 O 793.034 2.7165 -3.43712 0
M  V30 7933 C 794.535 3.91144 -2.08617 0
M  V30 7934 H 791.755 0.504032 -0.442937 0
M  V30 7935 H 794.299 1.03704 -1.76255 0
M  V30 7936 H 792.454 3.51652 -1.62541 0
M  V30 7937 H 792.868 3.57453 -3.83833 0
M  V30 7938 H 794.342 4.82837 -2.67531 0
M  V30 7939 H 794.819 4.25766 -1.07796 0
M  V30 7940 H 795.425 3.42152 -2.52611 0
M  V30 7941 N 793.74 1.17359 1.05189 0
M  V30 7942 C 794.988 0.960087 1.77839 0
M  V30 7943 C 795.309 -0.512554 1.88143 0
M  V30 7944 O 794.579 -1.3721 1.39822 0
M  V30 7945 H 793.159 0.352234 0.658741 0
M  V30 7946 H 795.821 1.47834 1.27008 0
M  V30 7947 H 794.917 1.38843 2.79516 0
M  V30 7948 N 795.218 -1.23913 0.973828 0
M  V30 7949 C 796.168 -2.22892 0.479933 0
M  V30 7950 C 797.152 -1.54726 -0.441434 0
M  V30 7951 O 798.344 -1.74908 -0.271358 0
M  V30 7952 C 795.473 -3.42577 -0.222702 0
M  V30 7953 C 794.559 -4.17981 0.717851 0
M  V30 7954 N 794.95 -4.7045 1.8577 0
M  V30 7955 C 793.248 -4.42841 0.529858 0
M  V30 7956 C 793.949 -5.27751 2.44651 0
M  V30 7957 N 792.925 -5.15302 1.73104 0
M  V30 7958 H 796.727 -2.61083 1.34956 0
M  V30 7959 H 794.241 -1.39368 0.83368 0
M  V30 7960 H 796.238 -4.1265 -0.593793 0
M  V30 7961 H 794.898 -3.05904 -1.0887 0
M  V30 7962 H 795.909 -4.66997 2.23908 0
M  V30 7963 H 792.586 -4.1648 -0.291664 0
M  V30 7964 H 793.976 -5.79011 3.40875 0
M  V30 7965 N 796.696 -0.74468 -1.38897 0
M  V30 7966 C 797.942 -0.306249 -2.01081 0
M  V30 7967 C 798.297 1.09724 -1.58046 0
M  V30 7968 O 797.59 1.73923 -0.803834 0
M  V30 7969 C 797.784 -0.357302 -3.55609 0
M  V30 7970 C 797.613 -1.76421 -4.13649 0
M  V30 7971 C 796.383 -2.3787 -4.4581 0
M  V30 7972 C 798.581 -2.71942 -4.36523 0
M  V30 7973 N 796.563 -3.70614 -4.89406 0
M  V30 7974 C 797.934 -3.89437 -4.8243 0
M  V30 7975 C 799.989 -2.69579 -4.18607 0
M  V30 7976 C 798.692 -5.04917 -5.123 0
M  V30 7977 C 800.718 -3.8421 -4.49596 0
M  V30 7978 C 800.08 -5.00442 -4.95719 0
M  V30 7979 H 796.179 -0.158531 -0.765762 0
M  V30 7980 H 798.763 -0.972726 -1.6866 0
M  V30 7981 H 796.934 0.278865 -3.87398 0
M  V30 7982 H 798.666 0.100599 -4.04575 0
M  V30 7983 H 795.421 -1.8971 -4.33943 0
M  V30 7984 H 795.845 -4.38791 -5.1555 0
M  V30 7985 H 800.487 -1.80905 -3.82143 0
M  V30 7986 H 798.205 -5.94213 -5.47665 0
M  V30 7987 H 801.791 -3.83691 -4.37347 0
M  V30 7988 H 800.671 -5.87671 -5.19242 0
M  V30 7989 N 798.174 1.49689 -0.493057 0
M  V30 7990 C 799.399 2.07331 0.0535114 0
M  V30 7991 C 799.824 1.35196 1.30781 0
M  V30 7992 O 799.182 0.406246 1.7669 0
M  V30 7993 C 799.23 3.59364 0.29825 0
M  V30 7994 O 798.334 3.88819 1.37454 0
M  V30 7995 H 797.675 0.663612 -0.0227018 0
M  V30 7996 H 800.205 1.926 -0.690402 0
M  V30 7997 H 800.215 4.04515 0.532159 0
M  V30 7998 H 798.89 4.1128 -0.618207 0
M  V30 7999 H 797.467 3.55487 1.12621 0
M  V30 8000 N 799.652 0.226554 1.55963 0
M  V30 8001 C 800.9 -0.402991 1.98041 0
M  V30 8002 C 801.221 -1.59938 1.11557 0
M  V30 8003 O 800.491 -1.9494 0.193719 0
M  V30 8004 H 799.071 -0.15188 0.731397 0
M  V30 8005 H 801.733 0.320613 1.92245 0
M  V30 8006 H 800.829 -0.725937 3.0354 0
M  V30 8007 N 801.13 -1.57531 -0.0467866 0
M  V30 8008 C 802.06 -2.08425 -1.05268 0
M  V30 8009 C 803.041 -0.982941 -1.38825 0
M  V30 8010 O 804.226 -1.25716 -1.48018 0
M  V30 8011 C 801.356 -2.54897 -2.35891 0
M  V30 8012 C 800.31 -3.69132 -2.16623 0
M  V30 8013 C 799.636 -4.01747 -3.52851 0
M  V30 8014 C 800.936 -4.98243 -1.56689 0
M  V30 8015 H 802.63 -2.92716 -0.62908 0
M  V30 8016 H 800.176 -1.40816 -0.301156 0
M  V30 8017 H 802.129 -2.8912 -3.06574 0
M  V30 8018 H 800.853 -1.67666 -2.80278 0
M  V30 8019 H 799.512 -3.35231 -1.48377 0
M  V30 8020 H 799.16 -3.11608 -3.94853 0
M  V30 8021 H 798.86 -4.78681 -3.4079 0
M  V30 8022 H 800.384 -4.38487 -4.24925 0
M  V30 8023 H 801.798 -5.30535 -2.17268 0
M  V30 8024 H 800.195 -5.79669 -1.55255 0
M  V30 8025 H 801.265 -4.81986 -0.530827 0
M  V30 8026 N 802.608 0.318715 -1.54344 0
M  V30 8027 C 803.538 1.39751 -1.87061 0
M  V30 8028 C 804.519 1.53741 -0.727848 0
M  V30 8029 O 805.704 1.67541 -0.982016 0
M  V30 8030 C 802.834 2.76446 -2.10226 0
M  V30 8031 C 801.788 2.77239 -3.26071 0
M  V30 8032 C 801.114 4.17056 -3.34617 0
M  V30 8033 C 802.414 2.40555 -4.63606 0
M  V30 8034 H 804.108 1.12619 -2.77412 0
M  V30 8035 H 801.654 0.540318 -1.33479 0
M  V30 8036 H 803.607 3.51985 -2.31699 0
M  V30 8037 H 802.331 3.05066 -1.16629 0
M  V30 8038 H 800.99 2.04155 -3.04493 0
M  V30 8039 H 800.638 4.42824 -2.3857 0
M  V30 8040 H 800.338 4.18492 -4.12478 0
M  V30 8041 H 801.862 4.94401 -3.5833 0
M  V30 8042 H 803.276 3.05808 -4.84927 0
M  V30 8043 H 801.673 2.53234 -5.44052 0
M  V30 8044 H 802.743 1.35698 -4.65526 0
M  V30 8045 N 804.086 1.46499 0.581025 0
M  V30 8046 C 805.497 1.4604 1.16315 0
M  V30 8047 C 805.848 0.202154 1.95156 0
M  V30 8048 O 804.973 -0.694638 2.04948 0
M  V30 8049 C 805.568 2.64593 2.11604 0
M  V30 8050 C 804.127 2.6717 2.65136 0
M  V30 8051 C 803.274 2.38753 1.4104 0
M  V30 8052 H 806.225 1.54354 0.368871 0
M  V30 8053 H 806.246 2.40207 2.95095 0
M  V30 8054 H 805.758 3.56154 1.54194 0
M  V30 8055 H 803.859 1.79685 3.26411 0
M  V30 8056 H 803.972 3.67182 3.07757 0
M  V30 8057 H 802.336 1.88845 1.70908 0
M  V30 8058 H 803.119 3.32493 0.854588 0
M  V30 8059 N 805.565 -0.825799 1.34232 0
M  V30 8060 C 806.793 -1.61363 1.29497 0
M  V30 8061 C 807.208 -1.88341 -0.131536 0
M  V30 8062 O 806.565 -1.47279 -1.07773 0
M  V30 8063 C 806.616 -2.95623 2.08061 0
M  V30 8064 O 806.337 -2.69824 3.45147 0
M  V30 8065 C 807.838 -3.90032 2.10688 0
M  V30 8066 H 805.058 -0.501676 0.445603 0
M  V30 8067 H 807.602 -1.02767 1.76803 0
M  V30 8068 H 805.757 -3.50785 1.64404 0
M  V30 8069 H 806.171 -3.55412 3.85723 0
M  V30 8070 H 807.645 -4.81411 2.70087 0
M  V30 8071 H 808.122 -4.25188 1.10052 0
M  V30 8072 H 808.728 -3.40807 2.54422 0
M  V30 8073 N 807.043 -1.17915 -1.04565 0
M  V30 8074 C 808.283 -0.982331 -1.79247 0
M  V30 8075 C 808.647 0.47998 -1.85904 0
M  V30 8076 O 809.848 0.796078 -2.56741 0
M  V30 8077 C 808.119 -1.61329 -3.18916 0
M  V30 8078 S 809.678 -1.56355 -4.09998 0
M  V30 8079 H 806.496 -0.352869 -0.617256 0
M  V30 8080 H 809.098 -1.49971 -1.25415 0
M  V30 8081 H 807.802 -2.66993 -3.11678 0
M  V30 8082 H 807.333 -1.09599 -3.77825 0
M  V30 8083 H 809.348 -0.57593 -4.92846 0
M  V30 8084 N 808.521 1.23394 -0.980386 0
M  V30 8085 C 809.431 2.28561 -0.528864 0
M  V30 8086 C 810.447 1.68946 0.416329 0
M  V30 8087 O 811.623 1.99355 0.286251 0
M  V30 8088 C 808.688 3.46323 0.16155 0
M  V30 8089 C 807.749 4.21297 -0.825044 0
M  V30 8090 C 806.982 5.33437 -0.167483 0
M  V30 8091 O 807.205 5.60812 1.04146 0
M  V30 8092 O 806.139 5.95637 -0.866047 0
M  V30 8093 H 809.965 2.69326 -1.40346 0
M  V30 8094 H 807.55 1.29325 -0.748019 0
M  V30 8095 H 809.432 4.17811 0.548841 0
M  V30 8096 H 808.107 3.0751 1.01092 0
M  V30 8097 H 807.014 3.52134 -1.26303 0
M  V30 8098 H 808.347 4.6396 -1.64322 0
M  V30 8099 N 809.999 0.752036 1.385 0
M  V30 8100 C 810.962 0.131587 2.28822 0
M  V30 8101 C 811.962 -0.649149 1.47115 0
M  V30 8102 O 813.152 -0.475645 1.67581 0
M  V30 8103 C 810.284 -0.822101 3.30839 0
M  V30 8104 H 811.477 0.927551 2.85196 0
M  V30 8105 H 809.03 0.518945 1.47434 0
M  V30 8106 H 809.765 -1.6438 2.79553 0
M  V30 8107 H 809.55 -0.264689 3.91206 0
M  V30 8108 H 811.04 -1.25226 3.98382 0
M  V30 8109 N 811.477 -1.49425 0.500989 0
M  V30 8110 C 812.888 -1.86624 0.0532011 0
M  V30 8111 C 813.239 -1.41331 -1.36088 0
M  V30 8112 O 812.364 -0.791195 -2.01418 0
M  V30 8113 C 812.959 -3.38681 0.0897693 0
M  V30 8114 C 811.518 -3.75181 -0.302677 0
M  V30 8115 C 810.665 -2.73419 0.462307 0
M  V30 8116 H 813.616 -1.41743 0.713773 0
M  V30 8117 H 813.637 -3.73902 -0.705528 0
M  V30 8118 H 813.149 -3.71616 1.11907 0
M  V30 8119 H 811.25 -3.47855 -1.33521 0
M  V30 8120 H 811.363 -4.79097 0.0167653 0
M  V30 8121 H 809.727 -2.54548 -0.0878557 0
M  V30 8122 H 810.51 -3.09198 1.49169 0
M  V30 8123 N 812.955 -0.234822 -1.55841 0
M  V30 8124 C 814.183 0.397745 -2.03041 0
M  V30 8125 C 814.598 1.52405 -1.11437 0
M  V30 8126 O 813.955 1.82061 -0.126466 0
M  V30 8127 C 814.006 0.916919 -3.49678 0
M  V30 8128 O 813.727 -0.164493 -4.37791 0
M  V30 8129 C 815.228 1.62139 -4.12584 0
M  V30 8130 H 812.448 0.0959214 -0.664108 0
M  V30 8131 H 814.992 -0.355156 -2.01392 0
M  V30 8132 H 813.147 1.62004 -3.519 0
M  V30 8133 H 813.561 0.227794 -5.24005 0
M  V30 8134 H 815.035 1.93651 -5.16917 0
M  V30 8135 H 815.512 2.53918 -3.58361 0
M  V30 8136 H 816.118 0.963145 -4.14251 0
M  V30 8137 N 814.433 1.57553 0.0384317 0
M  V30 8138 C 815.343 2.09333 1.0591 0
M  V30 8139 C 816.359 1.0299 1.40247 0
M  V30 8140 O 817.535 1.34669 1.49754 0
M  V30 8141 C 814.6 2.55468 2.34386 0
M  V30 8142 C 813.661 3.76254 2.06716 0
M  V30 8143 C 812.894 4.20179 3.29067 0
M  V30 8144 O 813.117 3.637 4.39407 0
M  V30 8145 O 812.051 5.12697 3.15317 0
M  V30 8146 H 815.877 2.96683 0.649087 0
M  V30 8147 H 813.462 1.47211 0.254802 0
M  V30 8148 H 815.344 2.85514 3.09935 0
M  V30 8149 H 814.019 1.71234 2.74701 0
M  V30 8150 H 812.926 3.51241 1.28766 0
M  V30 8151 H 814.259 4.61443 1.71263 0
M  V30 8152 N 815.911 -0.310526 1.54511 0
M  V30 8153 C 817.136 -1.07046 1.7764 0
M  V30 8154 C 817.561 -1.80488 0.529696 0
M  V30 8155 O 816.919 -1.73702 -0.519361 0
M  V30 8156 C 816.967 -2.03411 2.97752 0
M  V30 8157 O 816.071 -3.11545 2.7021 0
M  V30 8158 H 815.412 -0.307994 0.588248 0
M  V30 8159 H 817.942 -0.350848 2.01569 0
M  V30 8160 H 817.952 -2.46048 3.2546 0
M  V30 8161 H 816.627 -1.49361 3.88155 0
M  V30 8162 H 815.204 -2.7349 2.53491 0
M  V30 8163 N 817.389 -1.46805 -0.573248 0
M  V30 8164 C 818.337 -1.58468 -1.70267 0
M  V30 8165 C 819.331 -0.452694 -1.63239 0
M  V30 8166 O 820.537 -0.629915 -1.68618 0
M  V30 8167 H 816.912 -0.498408 -0.56311 0
M  V30 8168 H 818.883 -2.5341 -1.57563 0
M  V30 8169 C 817.632 -1.60104 -3.08645 0
M  V30 8170 H 816.955 -2.4655 -3.14727 0
M  V30 8171 H 818.395 -1.72318 -3.87405 0
M  V30 8172 C 816.854 -0.33138 -3.35266 0
M  V30 8173 O 817.384 0.57438 -3.97572 0
M  V30 8174 N 815.59 -0.216358 -2.89793 0
M  V30 8175 H 815.137 -0.954345 -2.3927 0
M  V30 8176 H 815.095 0.632253 -3.07977 0
M  V30 8177 N 818.867 0.818669 -1.34668 0
M  V30 8178 C 820.116 1.57017 -1.26604 0
M  V30 8179 C 820.429 1.94936 0.161036 0
M  V30 8180 O 821.635 2.69051 0.36386 0
M  V30 8181 C 820.091 2.83305 -2.2196 0
M  V30 8182 C 819.699 2.52671 -3.69948 0
M  V30 8183 C 821.443 3.61324 -2.22813 0
M  V30 8184 C 819.35 3.75178 -4.5716 0
M  V30 8185 H 818.28 0.589323 -0.470335 0
M  V30 8186 H 820.931 0.900956 -1.59859 0
M  V30 8187 H 819.313 3.51874 -1.81661 0
M  V30 8188 H 820.487 1.92186 -4.18809 0
M  V30 8189 H 818.802 1.8792 -3.71584 0
M  V30 8190 H 821.399 4.52294 -2.85192 0
M  V30 8191 H 821.742 3.97759 -1.22857 0
M  V30 8192 H 822.275 2.99703 -2.61578 0
M  V30 8193 H 819.014 3.43861 -5.58068 0
M  V30 8194 H 818.534 4.34931 -4.13031 0
M  V30 8195 H 820.213 4.42542 -4.71981 0
M  V30 8196 N 820.346 1.18468 1.03938 0
M  V30 8197 C 821.757 0.984808 1.58614 0
M  V30 8198 C 822.108 -0.465165 1.90606 0
M  V30 8199 O 821.233 -1.34274 1.69704 0
M  V30 8200 C 821.828 1.78135 2.8819 0
M  V30 8201 C 820.387 1.62579 3.39478 0
M  V30 8202 C 819.534 1.77501 2.13046 0
M  V30 8203 H 822.485 1.32993 0.865944 0
M  V30 8204 H 822.506 1.27119 3.58638 0
M  V30 8205 H 822.018 2.83661 2.64874 0
M  V30 8206 H 820.119 0.59595 3.67803 0
M  V30 8207 H 820.232 2.42463 4.13217 0
M  V30 8208 H 818.596 1.2046 2.24414 0
M  V30 8209 H 819.379 2.84464 1.92185 0
M  V30 8210 N 821.824 -1.22873 0.986916 0
M  V30 8211 C 822.754 -2.2688 0.552064 0
M  V30 8212 C 823.735 -1.64883 -0.418048 0
M  V30 8213 O 824.92 -1.9171 -0.30999 0
M  V30 8214 C 822.05 -3.47018 -0.139959 0
M  V30 8215 C 821.004 -4.21411 0.748091 0
M  V30 8216 C 820.33 -5.34645 -0.0765132 0
M  V30 8217 C 821.63 -4.80726 2.04206 0
M  V30 8218 H 823.324 -2.63507 1.42143 0
M  V30 8219 H 820.87 -1.26668 0.68492 0
M  V30 8220 H 822.823 -4.18931 -0.455527 0
M  V30 8221 H 821.547 -3.0947 -1.04382 0
M  V30 8222 H 820.206 -3.51325 1.04721 0
M  V30 8223 H 819.854 -4.93339 -0.981109 0
M  V30 8224 H 819.554 -5.85342 0.514606 0
M  V30 8225 H 821.078 -6.09377 -0.386313 0
M  V30 8226 H 822.492 -5.44612 1.79083 0
M  V30 8227 H 820.889 -5.41737 2.5815 0
M  V30 8228 H 821.959 -4.01109 2.72469 0
M  V30 8229 N 823.302 -0.75937 -1.38099 0
M  V30 8230 C 824.548 -0.318584 -2.00282 0
M  V30 8231 C 824.881 1.09854 -1.60143 0
M  V30 8232 O 824.156 1.75344 -0.841702 0
M  V30 8233 C 824.439 -0.448047 -3.57302 0
M  V30 8234 C 824.292 -1.9067 -4.07388 0
M  V30 8235 C 825.611 0.155119 -4.39827 0
M  V30 8236 H 822.73 -0.117233 -0.727616 0
M  V30 8237 H 825.372 -0.960097 -1.63958 0
M  V30 8238 H 823.522 0.0981003 -3.88376 0
M  V30 8239 H 825.194 -2.5116 -3.86932 0
M  V30 8240 H 823.437 -2.41979 -3.6004 0
M  V30 8241 H 824.108 -1.94841 -5.1647 0
M  V30 8242 H 826.584 -0.31073 -4.14938 0
M  V30 8243 H 825.46 0.0343264 -5.48889 0
M  V30 8244 H 825.721 1.24407 -4.24235 0
M  V30 8245 N 824.78 1.49157 -0.508906 0
M  V30 8246 C 825.743 2.27784 0.25434 0
M  V30 8247 C 826.743 1.34132 0.88686 0
M  V30 8248 O 827.933 1.5722 0.750168 0
M  V30 8249 C 825.065 3.12347 1.36573 0
M  V30 8250 H 826.258 2.96718 -0.435714 0
M  V30 8251 H 823.811 1.54052 -0.264128 0
M  V30 8252 H 824.546 2.47997 2.08969 0
M  V30 8253 H 824.331 3.81213 0.917543 0
M  V30 8254 H 825.821 3.71712 1.90315 0
M  V30 8255 N 826.258 0.243083 1.55714 0
M  V30 8256 C 827.506 -0.381964 1.98458 0
M  V30 8257 C 827.827 -1.58745 1.13247 0
M  V30 8258 O 827.097 -1.94723 0.214384 0
M  V30 8259 H 825.677 -0.144114 0.732967 0
M  V30 8260 H 828.339 0.340985 1.91894 0
M  V30 8261 H 827.435 -0.693702 3.04293 0
M  V30 8262 N 827.736 -1.57571 -0.0300757 0
M  V30 8263 C 828.666 -2.0953 -1.03051 0
M  V30 8264 C 829.647 -0.99761 -1.37774 0
M  V30 8265 O 830.832 -1.27279 -1.46676 0
M  V30 8266 C 827.962 -2.57385 -2.33174 0
M  V30 8267 C 826.916 -3.71409 -2.12696 0
M  V30 8268 C 826.242 -4.05467 -3.4857 0
M  V30 8269 C 827.542 -4.99877 -1.51396 0
M  V30 8270 H 829.236 -2.93367 -0.597999 0
M  V30 8271 H 826.782 -1.41127 -0.286203 0
M  V30 8272 H 828.735 -2.92355 -3.03491 0
M  V30 8273 H 827.459 -1.70629 -2.78484 0
M  V30 8274 H 826.118 -3.36786 -1.44813 0
M  V30 8275 H 825.766 -3.15779 -3.91526 0
M  V30 8276 H 825.466 -4.82269 -3.35694 0
M  V30 8277 H 826.99 -4.4297 -4.2025 0
M  V30 8278 H 828.404 -5.3281 -2.11629 0
M  V30 8279 H 826.801 -5.81283 -1.49098 0
M  V30 8280 H 827.871 -4.82522 -0.479676 0
M  V30 8281 N 829.214 0.302327 -1.54673 0
M  V30 8282 C 830.439 1.06103 -1.78205 0
M  V30 8283 C 830.864 1.80204 -0.53926 0
M  V30 8284 O 830.222 1.73975 0.510142 0
M  V30 8285 C 830.27 2.01829 -2.98827 0
M  V30 8286 O 829.374 3.10108 -2.71858 0
M  V30 8287 H 828.715 0.30487 -0.589873 0
M  V30 8288 H 831.245 0.340153 -2.01753 0
M  V30 8289 H 831.255 2.44319 -3.2676 0
M  V30 8290 H 829.93 1.473 -3.88942 0
M  V30 8291 H 828.507 2.72142 -2.54937 0
M  V30 8292 N 830.692 1.47107 0.565454 0
M  V30 8293 C 831.655 1.58535 1.65527 0
M  V30 8294 C 832.655 0.461081 1.54048 0
M  V30 8295 O 833.845 0.725911 1.58355 0
M  V30 8296 C 830.977 1.52204 3.05036 0
M  V30 8297 H 832.17 2.55676 1.56747 0
M  V30 8298 H 829.723 1.35174 0.78471 0
M  V30 8299 H 830.458 0.564071 3.19357 0
M  V30 8300 H 830.243 2.3379 3.14777 0
M  V30 8301 H 831.733 1.63322 3.84338 0
M  V30 8302 N 832.17 -0.811516 1.35101 0
M  V30 8303 C 833.133 -1.90467 1.27495 0
M  V30 8304 C 834.133 -1.59703 0.187516 0
M  V30 8305 O 835.323 -1.68528 0.440896 0
M  V30 8306 C 832.455 -3.26774 0.971154 0
M  V30 8307 H 833.648 -1.98631 2.2469 0
M  V30 8308 H 831.201 -1.00681 1.19553 0
M  V30 8309 H 831.936 -3.243 0.0028557 0
M  V30 8310 H 831.721 -3.50488 1.75785 0
M  V30 8311 H 833.211 -4.06804 0.943414 0
M  V30 8312 N 833.648 -1.19017 -1.03309 0
M  V30 8313 C 834.896 -0.988258 -1.76289 0
M  V30 8314 C 835.217 0.482557 -1.88935 0
M  V30 8315 O 834.487 1.34969 -1.41987 0
M  V30 8316 H 833.067 -0.36267 -0.653054 0
M  V30 8317 H 835.729 -1.49836 -1.2464 0
M  V30 8318 H 834.825 -1.43273 -2.77271 0
M  V30 8319 N 835.127 1.22348 -0.993418 0
M  V30 8320 C 836.057 2.26584 -0.564088 0
M  V30 8321 C 837.038 1.65102 0.409298 0
M  V30 8322 O 838.223 1.91872 0.299819 0
M  V30 8323 C 835.353 3.47087 0.121554 0
M  V30 8324 C 834.307 4.21009 -0.770429 0
M  V30 8325 C 833.633 5.34678 0.0481586 0
M  V30 8326 C 834.933 4.79636 -2.06752 0
M  V30 8327 H 836.627 2.62749 -1.43538 0
M  V30 8328 H 834.173 1.26303 -0.691628 0
M  V30 8329 H 836.126 4.19166 0.433303 0
M  V30 8330 H 834.85 3.1002 1.0274 0
M  V30 8331 H 833.509 3.50764 -1.06583 0
M  V30 8332 H 833.157 4.93852 0.954933 0
M  V30 8333 H 832.857 5.85061 -0.545641 0
M  V30 8334 H 834.381 6.09573 0.353991 0
M  V30 8335 H 835.795 5.43654 -1.81969 0
M  V30 8336 H 834.192 5.4036 -2.61019 0
M  V30 8337 H 835.262 3.99659 -2.74592 0
M  V30 8338 N 836.605 0.766683 1.37694 0
M  V30 8339 C 837.83 0.338715 2.04615 0
M  V30 8340 C 838.255 -1.02918 1.57447 0
M  V30 8341 O 837.613 -1.65849 0.732386 0
M  V30 8342 C 837.661 0.385284 3.58536 0
M  V30 8343 O 836.765 -0.616081 4.07772 0
M  V30 8344 H 836.106 0.147527 0.647404 0
M  V30 8345 H 838.636 1.04146 1.7611 0
M  V30 8346 H 838.646 0.240782 4.07289 0
M  V30 8347 H 837.321 1.38325 3.92223 0
M  V30 8348 H 835.898 -0.435115 3.70353 0
M  V30 8349 N 838.083 -1.48885 0.516809 0
M  V30 8350 C 839.013 -2.32241 -0.242157 0
M  V30 8351 C 839.994 -1.41258 -0.947633 0
M  V30 8352 O 841.179 -1.70156 -0.935973 0
M  V30 8353 C 838.309 -3.22151 -1.29754 0
M  V30 8354 C 837.263 -4.22053 -0.710995 0
M  V30 8355 C 836.589 -5.01007 -1.86806 0
M  V30 8356 C 837.889 -5.21388 0.30853 0
M  V30 8357 H 839.583 -2.95943 0.453651 0
M  V30 8358 H 837.129 -1.42316 0.219612 0
M  V30 8359 H 839.082 -3.79284 -1.83634 0
M  V30 8360 H 837.806 -2.56423 -2.02274 0
M  V30 8361 H 836.465 -3.66087 -0.193819 0
M  V30 8362 H 836.113 -4.31713 -2.58133 0
M  V30 8363 H 835.813 -5.68615 -1.48159 0
M  V30 8364 H 837.337 -5.60989 -2.4109 0
M  V30 8365 H 838.751 -5.73122 -0.142703 0
M  V30 8366 H 837.148 -5.96975 0.611673 0
M  V30 8367 H 838.218 -4.69329 1.21894 0
M  V30 8368 N 839.561 -0.251338 -1.55583 0
M  V30 8369 C 840.491 0.640437 -2.24545 0
M  V30 8370 C 841.472 1.17781 -1.22726 0
M  V30 8371 O 842.657 1.21633 -1.5139 0
M  V30 8372 C 839.787 1.8355 -2.94834 0
M  V30 8373 C 838.741 1.4307 -4.03379 0
M  V30 8374 C 838.067 2.70695 -4.61116 0
M  V30 8375 C 839.367 0.59848 -5.1886 0
M  V30 8376 H 841.061 0.0653772 -2.99329 0
M  V30 8377 H 838.607 0.0300042 -1.43969 0
M  V30 8378 H 840.56 2.46505 -3.4178 0
M  V30 8379 H 839.284 2.43601 -2.17546 0
M  V30 8380 H 837.943 0.824474 -3.57209 0
M  V30 8381 H 837.591 3.28954 -3.80524 0
M  V30 8382 H 837.291 2.44332 -5.34393 0
M  V30 8383 H 838.815 3.34541 -5.10798 0
M  V30 8384 H 840.229 1.13244 -5.62004 0
M  V30 8385 H 838.626 0.430728 -5.98552 0
M  V30 8386 H 839.696 -0.38829 -4.83343 0
M  V30 8387 N 841.039 1.57585 0.0217189 0
M  V30 8388 C 842.267 1.93871 0.722619 0
M  V30 8389 C 842.682 0.851706 1.68498 0
M  V30 8390 O 842.039 -0.17127 1.81695 0
M  V30 8391 C 842.09 3.30114 1.47333 0
M  V30 8392 O 841.811 4.34639 0.549597 0
M  V30 8393 C 843.312 3.80727 2.27072 0
M  V30 8394 H 840.532 0.639671 0.202637 0
M  V30 8395 H 843.076 2.04487 -0.0229414 0
M  V30 8396 H 841.231 3.20872 2.17071 0
M  V30 8397 H 841.645 5.13326 1.07686 0
M  V30 8398 H 843.119 4.78547 2.75131 0
M  V30 8399 H 843.596 3.12301 3.08812 0
M  V30 8400 H 844.202 3.93075 1.62395 0
M  V30 8401 N 842.517 -0.29412 1.54831 0
M  V30 8402 C 843.447 -1.36757 1.89261 0
M  V30 8403 C 844.428 -1.52564 0.752214 0
M  V30 8404 O 845.613 -1.65958 1.00855 0
M  V30 8405 C 842.743 -2.73066 2.14597 0
M  V30 8406 C 841.697 -2.72017 3.3044 0
M  V30 8407 C 841.023 -4.11679 3.4121 0
M  V30 8408 C 842.323 -2.33149 4.67375 0
M  V30 8409 H 844.017 -1.08191 2.79169 0
M  V30 8410 H 841.563 -0.519014 1.34321 0
M  V30 8411 H 843.516 -3.48255 2.37269 0
M  V30 8412 H 842.24 -3.03172 1.21467 0
M  V30 8413 H 840.899 -1.99285 3.07703 0
M  V30 8414 H 840.547 -4.38973 2.45584 0
M  V30 8415 H 840.247 -4.11877 4.19084 0
M  V30 8416 H 841.771 -4.88637 3.6615 0
M  V30 8417 H 843.185 -2.98054 4.89731 0
M  V30 8418 H 841.582 -2.44546 5.48012 0
M  V30 8419 H 842.652 -1.28275 4.67626 0
M  V30 8420 N 843.995 -1.47404 -0.557645 0
M  V30 8421 C 844.958 -1.59411 -1.64684 0
M  V30 8422 C 845.958 -0.469244 -1.53801 0
M  V30 8423 O 847.148 -0.734298 -1.57967 0
M  V30 8424 C 844.28 -1.5382 -3.04224 0
M  V30 8425 H 845.473 -2.56504 -1.55389 0
M  V30 8426 H 843.026 -1.35588 -0.777531 0
M  V30 8427 H 843.761 -0.581 -3.19053 0
M  V30 8428 H 843.546 -2.35456 -3.13533 0
M  V30 8429 H 845.036 -1.65358 -3.83466 0
M  V30 8430 N 845.473 0.80434 -1.35529 0
M  V30 8431 C 846.884 1.37849 -1.25915 0
M  V30 8432 C 847.235 1.95905 0.107495 0
M  V30 8433 O 846.36 1.91462 1.00852 0
M  V30 8434 C 846.955 2.50608 -2.27994 0
M  V30 8435 C 845.514 3.03879 -2.22114 0
M  V30 8436 C 844.661 1.76856 -2.13582 0
M  V30 8437 H 847.612 0.607192 -1.46625 0
M  V30 8438 H 847.633 3.29221 -1.90772 0
M  V30 8439 H 847.145 2.08323 -3.27449 0
M  V30 8440 H 845.246 3.50622 -1.26077 0
M  V30 8441 H 845.359 3.61707 -3.14173 0
M  V30 8442 H 843.723 1.98498 -1.59595 0
M  V30 8443 H 844.506 1.36721 -3.14901 0
M  V30 8444 N 846.951 1.19563 1.02676 0
M  V30 8445 C 848.198 0.999568 1.7611 0
M  V30 8446 C 848.526 -0.469432 1.8875 0
M  V30 8447 O 847.781 -1.36481 1.40255 0
M  V30 8448 C 848.08 1.61619 3.18769 0
M  V30 8449 C 847.746 3.11366 3.26132 0
M  V30 8450 C 846.408 3.52234 3.27848 0
M  V30 8451 C 848.76 4.07374 3.25109 0
M  V30 8452 C 846.088 4.87658 3.26201 0
M  V30 8453 C 848.44 5.42731 3.25002 0
M  V30 8454 C 847.104 5.83027 3.25017 0
M  V30 8455 H 846.374 0.365768 0.644434 0
M  V30 8456 H 849.021 1.48838 1.20497 0
M  V30 8457 H 847.326 1.04974 3.77476 0
M  V30 8458 H 849.023 1.43975 3.74262 0
M  V30 8459 H 845.613 2.78804 3.25525 0
M  V30 8460 H 849.797 3.76842 3.22961 0
M  V30 8461 H 845.053 5.18156 3.24537 0
M  V30 8462 H 849.227 6.16879 3.23161 0
M  V30 8463 H 846.854 6.87936 3.23494 0
M  V30 8464 N 848.429 -1.21819 0.999893 0
M  V30 8465 C 849.359 -2.26282 0.576096 0
M  V30 8466 C 850.34 -1.65317 -0.400537 0
M  V30 8467 O 851.525 -1.92028 -0.28964 0
M  V30 8468 C 848.655 -3.47147 -0.103145 0
M  V30 8469 C 847.609 -4.20594 0.792745 0
M  V30 8470 C 846.935 -5.34696 -0.0198026 0
M  V30 8471 C 848.235 -4.78533 2.09293 0
M  V30 8472 H 849.929 -2.61984 1.4493 0
M  V30 8473 H 847.475 -1.25935 0.698316 0
M  V30 8474 H 849.428 -4.1939 -0.411068 0
M  V30 8475 H 848.152 -3.1056 -1.01094 0
M  V30 8476 H 846.811 -3.50194 1.08442 0
M  V30 8477 H 846.459 -4.94352 -0.928729 0
M  V30 8478 H 846.159 -5.84764 0.576661 0
M  V30 8479 H 847.683 -6.09752 -0.321659 0
M  V30 8480 H 849.097 -5.42682 1.8485 0
M  V30 8481 H 847.494 -5.38968 2.63881 0
M  V30 8482 H 848.564 -3.98197 2.76708 0
M  V30 8483 N 849.908 -0.773975 -1.37286 0
M  V30 8484 C 850.838 -0.175782 -2.32837 0
M  V30 8485 C 851.819 0.680603 -1.5589 0
M  V30 8486 O 853.004 0.617607 -1.84117 0
M  V30 8487 C 850.134 0.702388 -3.40123 0
M  V30 8488 C 849.088 -0.0528687 -4.27967 0
M  V30 8489 C 848.414 0.944891 -5.26285 0
M  V30 8490 C 849.714 -1.23316 -5.07534 0
M  V30 8491 H 851.408 -0.974016 -2.83114 0
M  V30 8492 H 848.954 -0.469826 -1.3612 0
M  V30 8493 H 850.907 1.13069 -4.05947 0
M  V30 8494 H 849.631 1.53316 -2.88378 0
M  V30 8495 H 848.29 -0.461978 -3.63678 0
M  V30 8496 H 847.938 1.77028 -4.70819 0
M  V30 8497 H 847.638 0.444079 -5.8592 0
M  V30 8498 H 849.162 1.37209 -5.94984 0
M  V30 8499 H 850.576 -0.881395 -5.66484 0
M  V30 8500 H 848.973 -1.66621 -5.76504 0
M  V30 8501 H 850.043 -2.03617 -4.40077 0
M  V30 8502 N 851.386 1.48609 -0.524698 0
M  V30 8503 C 852.632 2.034 0.00323579 0
M  V30 8504 C 852.987 1.39513 1.32491 0
M  V30 8505 O 852.28 0.529876 1.84127 0
M  V30 8506 C 852.474 3.56906 0.187873 0
M  V30 8507 C 852.303 4.35674 -1.11436 0
M  V30 8508 C 851.073 4.76809 -1.67276 0
M  V30 8509 C 853.271 4.72814 -2.02365 0
M  V30 8510 N 851.253 5.40093 -2.91843 0
M  V30 8511 C 852.624 5.36062 -3.11508 0
M  V30 8512 C 854.679 4.54747 -2.02755 0
M  V30 8513 C 853.382 5.83154 -4.21099 0
M  V30 8514 C 855.408 5.02815 -3.11337 0
M  V30 8515 C 854.77 5.66084 -4.19199 0
M  V30 8516 H 850.869 0.780967 -0.0401842 0
M  V30 8517 H 853.453 1.81495 -0.704808 0
M  V30 8518 H 851.624 3.78645 0.864996 0
M  V30 8519 H 853.356 3.98335 0.714938 0
M  V30 8520 H 850.111 4.57754 -1.21483 0
M  V30 8521 H 850.535 5.76305 -3.55249 0
M  V30 8522 H 855.177 4.05217 -1.20661 0
M  V30 8523 H 852.895 6.31692 -5.03975 0
M  V30 8524 H 856.481 4.9063 -3.12688 0
M  V30 8525 H 855.361 6.02604 -5.01834 0
M  V30 8526 N 852.864 0.259585 1.55447 0
M  V30 8527 C 853.794 -0.62852 2.24882 0
M  V30 8528 C 854.775 -1.17128 1.23349 0
M  V30 8529 O 855.96 -1.20829 1.52033 0
M  V30 8530 C 853.09 -1.81983 2.95803 0
M  V30 8531 C 852.044 -1.40929 4.04132 0
M  V30 8532 C 851.37 -2.68246 4.62545 0
M  V30 8533 C 852.67 -0.570956 5.1917 0
M  V30 8534 H 854.364 -0.0495021 2.99359 0
M  V30 8535 H 851.91 -0.0223688 1.43983 0
M  V30 8536 H 853.863 -2.44689 3.43082 0
M  V30 8537 H 852.587 -2.42444 2.18835 0
M  V30 8538 H 851.246 -0.805519 3.57641 0
M  V30 8539 H 850.894 -3.26931 3.82263 0
M  V30 8540 H 850.594 -2.41495 5.35681 0
M  V30 8541 H 852.118 -3.31827 5.12565 0
M  V30 8542 H 853.532 -1.10262 5.62597 0
M  V30 8543 H 851.929 -0.398979 5.98772 0
M  V30 8544 H 852.999 0.413918 4.8313 0
M  V30 8545 N 854.342 -1.57594 -0.0133615 0
M  V30 8546 C 855.758 -1.5527 -0.369255 0
M  V30 8547 C 855.958 -0.987751 -1.7563 0
M  V30 8548 O 855.014 -0.615683 -2.44879 0
M  V30 8549 C 856.327 -2.99602 -0.25672 0
M  V30 8550 C 857.875 -3.11227 -0.332647 0
M  V30 8551 C 858.35 -4.57321 -0.249387 0
M  V30 8552 N 859.841 -4.62177 -0.3077 0
M  V30 8553 C 860.576 -5.72781 -0.26641 0
M  V30 8554 N 860.072 -6.92575 -0.176494 0
M  V30 8555 N 861.865 -5.61204 -0.317295 0
M  V30 8556 H 854.016 -1.92662 0.894154 0
M  V30 8557 H 856.279 -0.884352 0.341505 0
M  V30 8558 H 855.985 -3.44723 0.697072 0
M  V30 8559 H 855.859 -3.6246 -1.04415 0
M  V30 8560 H 858.246 -2.66045 -1.27688 0
M  V30 8561 H 858.327 -2.51171 0.484412 0
M  V30 8562 H 857.971 -5.03174 0.691242 0
M  V30 8563 H 857.901 -5.15306 -1.08476 0
M  V30 8564 H 860.392 -3.75994 -0.379069 0
M  V30 8565 H 860.705 -7.72653 -0.150518 0
M  V30 8566 H 859.05 -6.94854 -0.142314 0
M  V30 8567 H 862.241 -4.66509 -0.385643 0
M  V30 8568 H 862.414 -6.47388 -0.28165 0
M  V30 8569 N 855.82 0.285905 -1.54985 0
M  V30 8570 C 856.767 1.35306 -1.86978 0
M  V30 8571 C 857.737 1.49682 -0.720046 0
M  V30 8572 O 858.922 1.64297 -0.970107 0
M  V30 8573 C 856.062 2.71059 -2.13591 0
M  V30 8574 C 855.175 2.6501 -3.41165 0
M  V30 8575 C 854.31 3.92856 -3.57544 0
M  V30 8576 C 853.349 3.81266 -4.78855 0
M  V30 8577 N 852.486 5.00919 -4.9196 0
M  V30 8578 H 857.326 1.07323 -2.78003 0
M  V30 8579 H 854.863 0.518776 -1.37649 0
M  V30 8580 H 856.821 3.50026 -2.27019 0
M  V30 8581 H 855.451 2.97271 -1.25816 0
M  V30 8582 H 854.503 1.77824 -3.36278 0
M  V30 8583 H 855.815 2.52342 -4.30262 0
M  V30 8584 H 854.969 4.80263 -3.70718 0
M  V30 8585 H 853.708 4.08377 -2.66608 0
M  V30 8586 H 852.713 2.92243 -4.65698 0
M  V30 8587 H 853.938 3.67277 -5.71213 0
M  V30 8588 H 851.884 5.16875 -4.03951 0
M  V30 8589 H 851.801 4.90732 -5.75081 0
M  V30 8590 H 853.069 5.89935 -5.09507 0
M  V30 8591 N 857.298 1.47698 0.54982 0
M  V30 8592 C 858.538 1.56286 1.31735 0
M  V30 8593 C 858.902 0.223042 1.907 0
M  V30 8594 O 860.103 0.183798 2.68171 0
M  V30 8595 C 858.374 2.65522 2.39234 0
M  V30 8596 S 859.933 2.93742 3.25977 0
M  V30 8597 H 856.751 0.551795 0.448378 0
M  V30 8598 H 859.353 1.85118 0.628629 0
M  V30 8599 H 858.057 3.61457 1.94362 0
M  V30 8600 H 857.588 2.38528 3.12838 0
M  V30 8601 H 859.603 2.31522 4.38876 0
M  V30 8602 N 858.776 -0.797141 1.35954 0
M  V30 8603 C 859.706 -1.92387 1.32323 0
M  V30 8604 C 860.687 -1.68967 0.196007 0
M  V30 8605 O 861.872 -1.90193 0.39245 0
M  V30 8606 C 859.002 -3.29286 1.10398 0
M  V30 8607 C 857.956 -3.67212 2.19862 0
M  V30 8608 C 857.282 -5.02377 1.8309 0
M  V30 8609 C 858.582 -3.76602 3.61896 0
M  V30 8610 H 860.276 -1.95683 2.26602 0
M  V30 8611 H 857.822 -0.94007 1.09081 0
M  V30 8612 H 859.775 -4.07721 1.06495 0
M  V30 8613 H 858.499 -3.26358 0.125668 0
M  V30 8614 H 857.158 -2.91069 2.22878 0
M  V30 8615 H 856.806 -4.95961 0.838527 0
M  V30 8616 H 856.506 -5.28722 2.56372 0
M  V30 8617 H 858.03 -5.8324 1.80729 0
M  V30 8618 H 859.444 -4.45246 3.6115 0
M  V30 8619 H 857.841 -4.14425 4.34018 0
M  V30 8620 H 858.911 -2.77906 3.97361 0
M  V30 8621 N 860.254 -1.20106 -1.0204 0
M  V30 8622 C 861.67 -0.955099 -1.27867 0
M  V30 8623 C 861.87 0.367595 -1.98119 0
M  V30 8624 O 860.926 1.09705 -2.27423 0
M  V30 8625 C 862.239 -2.13507 -2.11744 0
M  V30 8626 C 863.787 -2.17563 -2.25023 0
M  V30 8627 C 864.262 -3.35035 -3.12275 0
M  V30 8628 N 865.753 -3.35024 -3.19864 0
M  V30 8629 C 866.488 -4.22566 -3.8759 0
M  V30 8630 N 865.984 -5.20278 -4.57474 0
M  V30 8631 N 867.777 -4.10418 -3.84075 0
M  V30 8632 H 859.928 -2.05193 -0.54861 0
M  V30 8633 H 862.191 -0.897689 -0.304728 0
M  V30 8634 H 861.897 -3.09275 -1.67456 0
M  V30 8635 H 861.771 -2.11281 -3.12474 0
M  V30 8636 H 864.158 -1.22359 -2.68537 0
M  V30 8637 H 864.239 -2.23838 -1.23815 0
M  V30 8638 H 863.883 -4.30522 -2.69468 0
M  V30 8639 H 863.813 -3.25996 -4.13563 0
M  V30 8640 H 866.304 -2.64299 -2.701 0
M  V30 8641 H 866.617 -5.83408 -5.06809 0
M  V30 8642 H 864.962 -5.24219 -4.56311 0
M  V30 8643 H 868.153 -3.33353 -3.28623 0
M  V30 8644 H 868.326 -4.78854 -4.36581 0
M  V30 8645 N 861.732 1.21287 -1.00634 0
M  V30 8646 C 862.679 2.23705 -0.567876 0
M  V30 8647 C 863.649 1.61043 0.406753 0
M  V30 8648 O 864.834 1.88289 0.308499 0
M  V30 8649 C 861.974 3.44961 0.097996 0
M  V30 8650 C 861.087 4.22091 -0.919972 0
M  V30 8651 C 860.222 5.30718 -0.226222 0
M  V30 8652 C 859.261 5.99581 -1.23165 0
M  V30 8653 N 858.398 6.99821 -0.565278 0
M  V30 8654 H 863.238 2.60571 -1.44592 0
M  V30 8655 H 860.775 1.28049 -0.724006 0
M  V30 8656 H 862.733 4.1418 0.501097 0
M  V30 8657 H 861.363 3.08818 0.939744 0
M  V30 8658 H 860.415 3.52038 -1.44131 0
M  V30 8659 H 861.727 4.69476 -1.68505 0
M  V30 8660 H 860.881 6.06253 0.232917 0
M  V30 8661 H 859.62 4.84343 0.571247 0
M  V30 8662 H 858.625 5.22816 -1.70128 0
M  V30 8663 H 859.85 6.48042 -2.03022 0
M  V30 8664 H 857.796 6.55656 0.212508 0
M  V30 8665 H 857.713 7.4528 -1.26858 0
M  V30 8666 H 858.981 7.79393 -0.129389 0
M  V30 8667 N 863.21 0.781244 1.36873 0
M  V30 8668 C 864.173 0.180094 2.28491 0
M  V30 8669 C 865.173 -0.617798 1.48458 0
M  V30 8670 O 866.363 -0.439991 1.68552 0
M  V30 8671 C 863.495 -0.751741 3.32508 0
M  V30 8672 H 864.688 0.987837 2.83164 0
M  V30 8673 H 862.241 0.550102 1.463 0
M  V30 8674 H 862.976 -1.58413 2.82977 0
M  V30 8675 H 862.761 -0.181649 3.91679 0
M  V30 8676 H 864.251 -1.16748 4.00949 0
M  V30 8677 N 864.689 -1.48329 0.532571 0
M  V30 8678 C 865.636 -2.29663 -0.228779 0
M  V30 8679 C 866.606 -1.37529 -0.931401 0
M  V30 8680 O 867.791 -1.66493 -0.931921 0
M  V30 8681 C 864.931 -3.20955 -1.26814 0
M  V30 8682 C 864.044 -4.28168 -0.574099 0
M  V30 8683 C 863.179 -5.06638 -1.59661 0
M  V30 8684 C 862.218 -6.05651 -0.88618 0
M  V30 8685 N 861.355 -6.77169 -1.85436 0
M  V30 8686 H 866.195 -2.94255 0.47098 0
M  V30 8687 H 863.732 -1.45061 0.2441 0
M  V30 8688 H 865.69 -3.72285 -1.88307 0
M  V30 8689 H 864.32 -2.58281 -1.93625 0
M  V30 8690 H 863.372 -3.80085 0.154827 0
M  V30 8691 H 864.684 -4.98797 -0.0163984 0
M  V30 8692 H 863.838 -5.61995 -2.28576 0
M  V30 8693 H 862.577 -4.35854 -2.18821 0
M  V30 8694 H 861.582 -5.49495 -0.182981 0
M  V30 8695 H 862.807 -6.78434 -0.300659 0
M  V30 8696 H 860.753 -6.09134 -2.43499 0
M  V30 8697 H 860.67 -7.43882 -1.34816 0
M  V30 8698 H 861.938 -7.37114 -2.53541 0
M  V30 8699 N 866.167 -0.267825 -1.55308 0
M  V30 8700 C 867.114 0.6228 -2.22238 0
M  V30 8701 C 868.084 1.15536 -1.19334 0
M  V30 8702 O 869.269 1.206 -1.47852 0
M  V30 8703 C 866.409 1.80447 -2.94164 0
M  V30 8704 C 865.522 1.30646 -4.11771 0
M  V30 8705 C 864.657 2.44935 -4.7136 0
M  V30 8706 C 863.696 1.92099 -5.81175 0
M  V30 8707 N 862.833 2.99834 -6.34857 0
M  V30 8708 H 867.673 0.0453874 -2.97965 0
M  V30 8709 H 865.21 0.0106371 -1.47096 0
M  V30 8710 H 867.168 2.49896 -3.34078 0
M  V30 8711 H 865.798 2.35403 -2.20874 0
M  V30 8712 H 864.85 0.505314 -3.77029 0
M  V30 8713 H 866.162 0.879409 -4.90987 0
M  V30 8714 H 865.316 3.2239 -5.13955 0
M  V30 8715 H 864.055 2.90951 -3.91406 0
M  V30 8716 H 863.06 1.13122 -5.38037 0
M  V30 8717 H 864.285 1.47027 -6.62993 0
M  V30 8718 H 862.231 3.45246 -5.578 0
M  V30 8719 H 862.148 2.61524 -7.09324 0
M  V30 8720 H 863.416 3.77286 -6.82111 0
M  V30 8721 N 867.645 1.57599 0.00500368 0
M  V30 8722 C 868.892 1.90349 0.690895 0
M  V30 8723 C 869.22 0.868045 1.74055 0
M  V30 8724 O 868.475 -0.127855 1.95282 0
M  V30 8725 C 868.774 3.29855 1.37588 0
M  V30 8726 C 868.44 4.48548 0.459906 0
M  V30 8727 C 867.102 4.80752 0.207693 0
M  V30 8728 C 869.454 5.20919 -0.171054 0
M  V30 8729 C 866.782 5.82701 -0.683855 0
M  V30 8730 C 869.134 6.23818 -1.05045 0
M  V30 8731 C 867.798 6.54481 -1.31189 0
M  V30 8732 H 867.068 0.696538 0.252816 0
M  V30 8733 H 869.715 1.91436 -0.0494495 0
M  V30 8734 H 868.02 3.24869 2.19015 0
M  V30 8735 H 869.717 3.52452 1.91255 0
M  V30 8736 H 866.307 4.23384 0.666648 0
M  V30 8737 H 870.491 4.96299 0.0107942 0
M  V30 8738 H 865.747 6.04822 -0.894467 0
M  V30 8739 H 869.921 6.79029 -1.54574 0
M  V30 8740 H 867.548 7.33299 -2.00442 0
M  V30 8741 N 869.123 -0.277682 1.55134 0
M  V30 8742 C 870.369 -1.0114 1.7578 0
M  V30 8743 C 870.702 -1.86109 0.554719 0
M  V30 8744 O 869.977 -1.89275 -0.447813 0
M  V30 8745 C 870.26 -1.89789 3.06027 0
M  V30 8746 C 870.113 -1.07844 4.3668 0
M  V30 8747 C 871.432 -2.88577 3.32282 0
M  V30 8748 H 868.551 -0.366277 0.639539 0
M  V30 8749 H 871.193 -0.284155 1.87863 0
M  V30 8750 H 869.343 -2.51796 2.95856 0
M  V30 8751 H 871.015 -0.479432 4.58802 0
M  V30 8752 H 869.258 -0.381764 4.32117 0
M  V30 8753 H 869.929 -1.73179 5.24131 0
M  V30 8754 H 872.405 -2.36702 3.42215 0
M  V30 8755 H 871.281 -3.47749 4.2469 0
M  V30 8756 H 871.542 -3.63458 2.51696 0
M  V30 8757 N 870.601 -1.47988 -0.541979 0
M  V30 8758 C 872.012 -1.49073 -1.12402 0
M  V30 8759 C 872.363 -0.253825 -1.94551 0
M  V30 8760 O 871.488 0.640056 -2.06718 0
M  V30 8761 C 872.083 -2.7011 -2.04514 0
M  V30 8762 C 870.642 -2.74105 -2.5796 0
M  V30 8763 C 869.789 -2.42409 -1.3466 0
M  V30 8764 H 872.74 -1.55277 -0.327818 0
M  V30 8765 H 872.761 -2.47946 -2.88623 0
M  V30 8766 H 872.273 -3.60117 -1.44697 0
M  V30 8767 H 870.374 -1.88276 -3.21532 0
M  V30 8768 H 870.487 -3.75213 -2.97913 0
M  V30 8769 H 868.851 -1.9331 -1.65841 0
M  V30 8770 H 869.634 -3.34642 -0.766133 0
M  V30 8771 N 872.079 0.78992 -1.36375 0
M  V30 8772 C 873.042 1.88414 -1.30509 0
M  V30 8773 C 874.042 1.59384 -0.2129 0
M  V30 8774 O 875.232 1.67805 -0.467651 0
M  V30 8775 C 872.364 3.25188 -1.02302 0
M  V30 8776 H 873.557 1.95031 -2.27822 0
M  V30 8777 H 871.11 0.987664 -1.2114 0
M  V30 8778 H 871.845 3.24254 -0.0544486 0
M  V30 8779 H 871.63 3.47647 -1.81338 0
M  V30 8780 H 873.12 4.05252 -1.00801 0
M  V30 8781 N 873.557 1.20646 1.01402 0
M  V30 8782 C 874.782 1.04462 1.79172 0
M  V30 8783 C 875.207 -0.401588 1.83763 0
M  V30 8784 O 874.565 -1.28934 1.27459 0
M  V30 8785 C 874.613 1.63583 3.21361 0
M  V30 8786 O 873.717 0.875198 4.03006 0
M  V30 8787 H 873.058 0.368235 0.552539 0
M  V30 8788 H 875.588 1.59994 1.27526 0
M  V30 8789 H 875.598 1.67426 3.72065 0
M  V30 8790 H 874.273 2.68835 3.17334 0
M  V30 8791 H 872.85 0.911172 3.61597 0
M  V30 8792 N 875.035 -1.20752 1.01276 0
M  V30 8793 C 876.26 -1.94547 0.718769 0
M  V30 8794 C 876.685 -1.7404 -0.713563 0
M  V30 8795 O 876.043 -1.03221 -1.49047 0
M  V30 8796 C 876.091 -3.44823 1.05497 0
M  V30 8797 O 875.195 -4.12072 0.164516 0
M  V30 8798 H 874.536 -0.607931 0.267051 0
M  V30 8799 H 877.066 -1.53292 1.35509 0
M  V30 8800 H 877.076 -3.95427 1.00507 0
M  V30 8801 H 875.751 -3.59072 2.09858 0
M  V30 8802 H 874.328 -3.71909 0.271615 0
M  V30 8803 N 876.513 -0.788492 -1.36457 0
M  V30 8804 C 877.753 -0.365855 -2.01099 0
M  V30 8805 C 878.117 1.04262 -1.61225 0
M  V30 8806 O 879.318 1.56628 -2.18451 0
M  V30 8807 C 877.589 -0.523344 -3.53548 0
M  V30 8808 S 879.148 -0.188448 -4.38395 0
M  V30 8809 H 875.966 -0.139832 -0.697114 0
M  V30 8810 H 878.568 -1.02678 -1.66365 0
M  V30 8811 H 877.272 -1.54874 -3.80055 0
M  V30 8812 H 876.803 0.153547 -3.931 0
M  V30 8813 H 878.818 1.0103 -4.85806 0
M  V30 8814 N 877.991 1.48044 -0.54043 0
M  V30 8815 C 878.923 2.2779 0.253854 0
M  V30 8816 C 879.936 1.35999 0.894883 0
M  V30 8817 O 881.125 1.60963 0.771563 0
M  V30 8818 C 878.225 3.09724 1.37566 0
M  V30 8819 C 877.398 4.29364 0.83459 0
M  V30 8820 C 876.457 4.93026 1.83881 0
M  V30 8821 O 875.483 5.51927 1.39159 0
M  V30 8822 N 876.685 4.86207 3.17149 0
M  V30 8823 H 879.45 2.96597 -0.430125 0
M  V30 8824 H 877.011 1.57487 -0.375423 0
M  V30 8825 H 879.003 3.49181 2.04584 0
M  V30 8826 H 877.573 2.43269 1.96314 0
M  V30 8827 H 876.793 3.94198 -0.0118878 0
M  V30 8828 H 878.081 5.06787 0.452155 0
M  V30 8829 H 877.479 4.39523 3.56141 0
M  V30 8830 H 876.036 5.29733 3.79771 0
M  V30 8831 N 879.47 0.276058 1.55163 0
M  V30 8832 C 880.695 -0.346648 2.04483 0
M  V30 8833 C 881.12 -1.48613 1.15308 0
M  V30 8834 O 880.478 -1.80663 0.151875 0
M  V30 8835 C 880.526 -0.804268 3.51517 0
M  V30 8836 O 879.63 -1.91143 3.65429 0
M  V30 8837 H 878.971 -0.0715251 0.660136 0
M  V30 8838 H 881.501 0.410631 2.00437 0
M  V30 8839 H 881.511 -1.09977 3.92898 0
M  V30 8840 H 880.186 0.0294123 4.1589 0
M  V30 8841 H 878.763 -1.61839 3.3595 0
M  V30 8842 N 880.948 -1.576 0.00335426 0
M  V30 8843 C 881.878 -2.11668 -0.985839 0
M  V30 8844 C 882.859 -1.02661 -1.35627 0
M  V30 8845 O 884.044 -1.30361 -1.43943 0
M  V30 8846 C 881.174 -2.62273 -2.27662 0
M  V30 8847 C 880.128 -3.75837 -2.0477 0
M  V30 8848 C 879.454 -4.12769 -3.39891 0
M  V30 8849 C 880.754 -5.02975 -1.40759 0
M  V30 8850 H 882.448 -2.9457 -0.535637 0
M  V30 8851 H 879.994 -1.41702 -0.256204 0
M  V30 8852 H 881.947 -2.98727 -2.97221 0
M  V30 8853 H 880.671 -1.76498 -2.74802 0
M  V30 8854 H 879.33 -3.39782 -1.37636 0
M  V30 8855 H 878.978 -3.24013 -3.8474 0
M  V30 8856 H 878.678 -4.89281 -3.25389 0
M  V30 8857 H 880.202 -4.51784 -4.1076 0
M  V30 8858 H 881.616 -5.37179 -2.00279 0
M  V30 8859 H 880.013 -5.84315 -1.36734 0
M  V30 8860 H 881.083 -4.83431 -0.377218 0
M  V30 8861 N 882.426 0.269451 -1.5528 0
M  V30 8862 C 883.336 1.35511 -1.91505 0
M  V30 8863 C 884.352 1.53854 -0.812712 0
M  V30 8864 O 885.528 1.67912 -1.1121 0
M  V30 8865 C 882.593 2.6937 -2.18267 0
M  V30 8866 C 881.654 2.59743 -3.41807 0
M  V30 8867 C 880.887 3.87219 -3.67283 0
M  V30 8868 O 881.11 4.88066 -2.95208 0
M  V30 8869 O 880.044 3.87209 -4.60818 0
M  V30 8870 H 883.87 1.07785 -2.8393 0
M  V30 8871 H 881.455 0.468282 -1.41871 0
M  V30 8872 H 883.337 3.48513 -2.36889 0
M  V30 8873 H 882.012 2.96874 -1.29024 0
M  V30 8874 H 880.919 1.78964 -3.28516 0
M  V30 8875 H 882.252 2.37188 -4.3128 0
M  V30 8876 N 883.904 1.48273 0.534124 0
M  V30 8877 C 885.129 1.59988 1.31979 0
M  V30 8878 C 885.554 0.258824 1.86311 0
M  V30 8879 O 884.912 -0.768885 1.64188 0
M  V30 8880 C 884.96 2.64642 2.44943 0
M  V30 8881 O 884.064 2.21515 3.47858 0
M  V30 8882 H 883.405 0.536625 0.391063 0
M  V30 8883 H 885.935 1.94229 0.643135 0
M  V30 8884 H 885.945 2.85786 2.91187 0
M  V30 8885 H 884.62 3.62004 2.04758 0
M  V30 8886 H 883.197 2.10567 3.0776 0
M  V30 8887 N 885.382 -0.782676 1.36792 0
M  V30 8888 C 886.659 -1.52939 1.21939 0
M  V30 8889 C 887.039 -2.10228 -0.191639 0
M  V30 8890 O 886.387 -1.94574 -1.19805 0
M  V30 8891 C 886.597 -2.61898 2.30674 0
M  V30 8892 C 887.945 -3.29598 2.67676 0
M  V30 8893 O 888.969 -2.72186 2.29768 0
M  V30 8894 O 887.828 -4.3337 3.32946 0
M  V30 8895 H 884.922 -0.676856 0.47518 0
M  V30 8896 H 887.468 -0.82058 1.48542 0
M  V30 8897 H 886.24 -2.17607 3.25212 0
M  V30 8898 H 885.863 -3.40391 2.05475 0
M  V30 8899 N 886.86 -1.21182 -1.00761 0
M  V30 8900 C 888.108 -1.02543 -1.74153 0
M  V30 8901 C 888.429 0.442372 -1.89916 0
M  V30 8902 O 887.699 1.31927 -1.44818 0
M  V30 8903 H 886.279 -0.37644 -0.645214 0
M  V30 8904 H 888.941 -1.52446 -1.21434 0
M  V30 8905 H 888.037 -1.49122 -2.7417 0
M  V30 8906 N 888.338 1.20213 -1.01915 0
M  V30 8907 C 889.563 1.94163 -0.729076 0
M  V30 8908 C 889.988 1.74416 0.704323 0
M  V30 8909 O 889.346 1.0401 1.48498 0
M  V30 8910 C 889.394 3.44258 -1.07324 0
M  V30 8911 O 888.498 4.11979 -0.186367 0
M  V30 8912 H 887.839 0.606506 -0.270272 0
M  V30 8913 H 890.369 1.52571 -1.3632 0
M  V30 8914 H 890.379 3.94888 -1.02603 0
M  V30 8915 H 889.054 3.57954 -2.11759 0
M  V30 8916 H 887.631 3.7176 -0.291334 0
M  V30 8917 N 889.816 0.795718 1.36037 0
M  V30 8918 C 891.046 0.382597 2.03026 0
M  V30 8919 C 891.454 -1.00779 1.60126 0
M  V30 8920 O 890.797 -1.65884 0.78919 0
M  V30 8921 C 890.859 0.374145 3.57548 0
M  V30 8922 C 890.523 1.71318 4.23673 0
M  V30 8923 C 891.52 2.6697 4.4612 0
M  V30 8924 C 889.205 1.99421 4.61017 0
M  V30 8925 C 891.199 3.88916 5.04998 0
M  V30 8926 C 888.886 3.21632 5.19611 0
M  V30 8927 C 889.884 4.16198 5.41542 0
M  V30 8928 O 889.572 5.36254 5.98905 0
M  V30 8929 H 889.304 0.154944 0.658003 0
M  V30 8930 H 891.858 1.07756 1.74865 0
M  V30 8931 H 890.088 -0.377349 3.84854 0
M  V30 8932 H 891.777 -0.01517 4.05897 0
M  V30 8933 H 892.543 2.46548 4.17659 0
M  V30 8934 H 888.422 1.2663 4.43267 0
M  V30 8935 H 891.966 4.6274 5.22032 0
M  V30 8936 H 887.863 3.4193 5.47498 0
M  V30 8937 H 888.631 5.37403 6.17366 0
M  V30 8938 N 891.294 -1.47756 0.548274 0
M  V30 8939 C 892.226 -2.27921 -0.24177 0
M  V30 8940 C 893.239 -1.36471 -0.887658 0
M  V30 8941 O 894.428 -1.6137 -0.763016 0
M  V30 8942 C 891.528 -3.10449 -1.35922 0
M  V30 8943 C 890.701 -4.298 -0.811808 0
M  V30 8944 C 889.76 -4.93994 -1.81264 0
M  V30 8945 O 888.786 -5.52657 -1.3623 0
M  V30 8946 N 889.988 -4.87882 -3.14566 0
M  V30 8947 H 892.753 -2.96365 0.445848 0
M  V30 8948 H 890.314 -1.57286 0.383769 0
M  V30 8949 H 892.306 -3.50261 -2.02729 0
M  V30 8950 H 890.876 -2.44306 -1.95021 0
M  V30 8951 H 890.096 -3.94186 0.0327929 0
M  V30 8952 H 891.384 -5.0702 -0.425272 0
M  V30 8953 H 890.782 -4.41405 -3.53805 0
M  V30 8954 H 889.339 -5.3174 -3.76956 0
M  V30 8955 N 892.772 -0.284283 -1.55015 0
M  V30 8956 C 893.719 0.599194 -2.22886 0
M  V30 8957 C 894.689 1.14264 -1.20553 0
M  V30 8958 O 895.874 1.19025 -1.49123 0
M  V30 8959 C 893.014 1.77317 -2.96062 0
M  V30 8960 C 892.127 1.26271 -4.13134 0
M  V30 8961 C 891.262 2.39922 -4.73931 0
M  V30 8962 C 890.301 1.85925 -5.8318 0
M  V30 8963 N 889.438 2.93084 -6.38002 0
M  V30 8964 H 894.278 0.0137816 -2.97997 0
M  V30 8965 H 891.815 -0.00496503 -1.47099 0
M  V30 8966 H 893.773 2.46339 -3.36709 0
M  V30 8967 H 892.403 2.33047 -2.23358 0
M  V30 8968 H 891.455 0.465296 -3.77544 0
M  V30 8969 H 892.767 0.827284 -4.91892 0
M  V30 8970 H 891.921 3.1692 -5.17346 0
M  V30 8971 H 890.66 2.86784 -3.9447 0
M  V30 8972 H 889.665 1.07409 -5.39206 0
M  V30 8973 H 890.89 1.39987 -6.64515 0
M  V30 8974 H 888.836 3.3931 -5.61431 0
M  V30 8975 H 888.753 2.53986 -7.12058 0
M  V30 8976 H 890.021 3.7003 -6.86075 0
M  V30 8977 N 894.251 1.57596 -0.0117121 0
M  V30 8978 C 895.662 1.79033 0.529521 0
M  V30 8979 C 896.013 0.920299 1.73277 0
M  V30 8980 O 895.138 0.125934 2.16033 0
M  V30 8981 C 895.733 3.24695 0.967405 0
M  V30 8982 C 894.292 3.47188 1.45387 0
M  V30 8983 C 893.439 2.74245 0.410466 0
M  V30 8984 H 896.39 1.56908 -0.237836 0
M  V30 8985 H 896.411 3.33451 1.83278 0
M  V30 8986 H 895.923 3.87992 0.0914605 0
M  V30 8987 H 894.024 2.89121 2.35032 0
M  V30 8988 H 894.137 4.55886 1.47325 0
M  V30 8989 H 892.501 2.39209 0.874721 0
M  V30 8990 H 893.284 3.40248 -0.456713 0
M  V30 8991 N 895.729 -0.261212 1.5542 0
M  V30 8992 C 896.954 -1.01341 1.80955 0
M  V30 8993 C 897.379 -1.78711 0.586849 0
M  V30 8994 O 896.737 -1.75266 -0.463837 0
M  V30 8995 C 896.785 -1.93835 3.04073 0
M  V30 8996 O 895.889 -3.02791 2.79985 0
M  V30 8997 H 895.23 -0.289123 0.597749 0
M  V30 8998 H 897.76 -0.286543 2.02584 0
M  V30 8999 H 897.77 -2.3557 3.33123 0
M  V30 9000 H 896.445 -1.36936 3.9271 0
M  V30 9001 H 895.022 -2.65287 2.62063 0
M  V30 9002 N 897.207 -1.48554 -0.526253 0
M  V30 9003 C 898.437 -1.60197 -1.30463 0
M  V30 9004 C 898.845 -0.26278 -1.87366 0
M  V30 9005 O 898.188 0.758537 -1.67308 0
M  V30 9006 C 898.25 -2.59223 -2.49085 0
M  V30 9007 C 897.914 -4.04199 -2.13241 0
M  V30 9008 C 898.911 -4.91771 -1.68694 0
M  V30 9009 C 896.596 -4.49762 -2.2365 0
M  V30 9010 C 898.59 -6.22934 -1.35026 0
M  V30 9011 C 896.277 -5.80945 -1.89594 0
M  V30 9012 C 897.275 -6.67354 -1.45353 0
M  V30 9013 O 896.963 -7.96096 -1.11745 0
M  V30 9014 H 896.695 -0.54284 -0.402866 0
M  V30 9015 H 899.249 -1.95137 -0.641157 0
M  V30 9016 H 897.479 -2.19412 -3.18426 0
M  V30 9017 H 899.168 -2.60661 -3.11144 0
M  V30 9018 H 899.934 -4.57806 -1.6012 0
M  V30 9019 H 895.813 -3.8269 -2.5704 0
M  V30 9020 H 899.357 -6.90334 -1.00422 0
M  V30 9021 H 895.254 -6.14444 -1.9781 0
M  V30 9022 H 896.022 -8.08882 -1.25111 0
M  V30 9023 N 898.685 0.775411 -1.37205 0
M  V30 9024 C 899.934 1.52909 -1.31536 0
M  V30 9025 C 900.247 1.9535 0.0989374 0
M  V30 9026 O 901.453 2.70072 0.278079 0
M  V30 9027 C 899.909 2.761 -2.30861 0
M  V30 9028 C 899.517 2.40773 -3.77799 0
M  V30 9029 C 901.261 3.54052 -2.34195 0
M  V30 9030 C 899.168 3.60444 -4.68865 0
M  V30 9031 H 898.098 0.574061 -0.488845 0
M  V30 9032 H 900.749 0.849642 -1.62645 0
M  V30 9033 H 899.131 3.45916 -1.92764 0
M  V30 9034 H 900.305 1.78764 -4.24712 0
M  V30 9035 H 898.62 1.76004 -3.77375 0
M  V30 9036 H 901.217 4.42992 -2.99437 0
M  V30 9037 H 901.56 3.93649 -1.35449 0
M  V30 9038 H 902.093 2.91229 -2.7098 0
M  V30 9039 H 898.832 3.25932 -5.68725 0
M  V30 9040 H 898.352 4.21571 -4.26659 0
M  V30 9041 H 900.031 4.27302 -4.85821 0
M  V30 9042 N 900.163 1.21714 1.00117 0
M  V30 9043 C 901.093 1.00397 2.10815 0
M  V30 9044 C 902.074 -0.0723502 1.69946 0
M  V30 9045 O 903.259 0.0882398 1.93999 0
M  V30 9046 C 900.389 0.572001 3.42557 0
M  V30 9047 C 899.343 1.59331 3.97237 0
M  V30 9048 C 898.669 1.01746 5.2493 0
M  V30 9049 C 899.969 2.98117 4.28863 0
M  V30 9050 H 901.663 1.92983 2.28906 0
M  V30 9051 H 899.209 0.929273 1.10002 0
M  V30 9052 H 901.162 0.410018 4.19401 0
M  V30 9053 H 899.886 -0.38951 3.24269 0
M  V30 9054 H 898.545 1.74293 3.22518 0
M  V30 9055 H 898.193 0.0475491 5.02978 0
M  V30 9056 H 897.893 1.69969 5.62481 0
M  V30 9057 H 899.417 0.866881 6.04415 0
M  V30 9058 H 900.831 2.86578 4.96534 0
M  V30 9059 H 899.228 3.63389 4.77565 0
M  V30 9060 H 900.298 3.48674 3.36979 0
M  V30 9061 O 901.68 -1.13182 1.15204 0
M  V30 9062 H 902.371 -1.72675 0.877672 0
M  V30 END ATOM
M  V30 BEGIN BOND
M  V30 END BOND
M  V30 END CTAB
M  END
$$$$
