drugbank_target|P16591 Tyrosine-protein kinase Fer (DB12010)
 OpenBabel12092121153D

  0  0  0     0  0            999 V3000
M  V30 BEGIN CTAB
M  V30 COUNTS 13385 13493 0 0 0
M  V30 BEGIN ATOM
M  V30 1 H -0.908 1.98254 -0.117106 0
M  V30 2 N 0 1.576 0 0
M  V30 3 C 0.933 2.03868 1.02534 0
M  V30 4 C 1.911 0.928543 1.3348 0
M  V30 5 O 3.095 1.19667 1.45644 0
M  V30 6 C 0.222 2.43627 2.35294 0
M  V30 7 C -0.732 3.65373 2.2001 0
M  V30 8 S 0.101 5.13292 1.52614 0
M  V30 9 C 1.257 5.56322 2.86805 0
M  V30 10 H 1.49 2.90518 0.631377 0
M  V30 11 H -0.977 1.52953 0.210867 0
M  V30 12 H 0.981 2.67203 3.11629 0
M  V30 13 H -0.358 1.57376 2.7183 0
M  V30 14 H -1.165 3.90944 3.18086 0
M  V30 15 H -1.563 3.418 1.51819 0
M  V30 16 H 0.729 5.58782 3.83104 0
M  V30 17 H 1.672 6.56266 2.65933 0
M  V30 18 H 2.08 4.83886 2.90714 0
M  V30 19 N 1.4781 -0.272755 1.55222 0
M  V30 20 C 2.7261 -1.00234 1.75492 0
M  V30 21 C 3.0471 -1.8681 0.5592 0
M  V30 22 O 2.3171 -1.91215 -0.425882 0
M  V30 23 H 0.8971 -0.373076 0.647166 0
M  V30 24 H 3.5591 -0.296926 1.92625 0
M  V30 25 H 2.6551 -1.63913 2.65592 0
M  V30 26 N 2.9562 -1.48159 -0.537278 0
M  V30 27 C 4.2032 -1.55804 -1.29349 0
M  V30 28 C 4.5312 -0.228802 -1.9315 0
M  V30 29 O 3.7862 0.780242 -1.79473 0
M  V30 30 C 4.0852 -2.63956 -2.40961 0
M  V30 31 C 3.7512 -4.0662 -1.94861 0
M  V30 32 C 2.4132 -4.45452 -1.82006 0
M  V30 33 C 4.7652 -4.96055 -1.59933 0
M  V30 34 C 2.0932 -5.71531 -1.32547 0
M  V30 35 C 4.4452 -6.22617 -1.11939 0
M  V30 36 C 3.1092 -6.60312 -0.976951 0
M  V30 37 H 2.3792 -0.570129 -0.473322 0
M  V30 38 H 5.0262 -1.81845 -0.600372 0
M  V30 39 H 3.3312 -2.31747 -3.15912 0
M  V30 40 H 5.0282 -2.67089 -2.99107 0
M  V30 41 H 1.6182 -3.75949 -2.05815 0
M  V30 42 H 5.8022 -4.66738 -1.68728 0
M  V30 43 H 1.0582 -5.99468 -1.202 0
M  V30 44 H 5.2322 -6.91318 -0.839811 0
M  V30 45 H 2.8592 -7.57895 -0.591501 0
M  V30 46 N 4.4343 0.785586 -1.36625 0
M  V30 47 C 5.6823 1.54057 -1.30808 0
M  V30 48 C 6.0033 1.94683 0.111157 0
M  V30 49 O 5.2733 1.65241 1.05224 0
M  V30 50 H 3.8533 0.571354 -0.481211 0
M  V30 51 H 6.5153 0.935821 -1.70963 0
M  V30 52 H 5.6113 2.44637 -1.93801 0
M  V30 53 N 5.9124 1.20967 1.01018 0
M  V30 54 C 7.1374 1.0503 1.78839 0
M  V30 55 C 7.5624 -0.395752 1.8389 0
M  V30 56 O 6.9204 -1.28529 1.27867 0
M  V30 57 C 6.9684 1.64602 3.2084 0
M  V30 58 O 6.0724 0.887988 4.02726 0
M  V30 59 H 5.4134 0.369987 0.551367 0
M  V30 60 H 7.9434 1.60399 1.27018 0
M  V30 61 H 7.9534 1.68607 3.71532 0
M  V30 62 H 6.6284 2.69841 3.16479 0
M  V30 63 H 5.2054 0.922648 3.61305 0
M  V30 64 N 7.3905 -1.2043 1.01659 0
M  V30 65 C 8.6675 -1.8548 0.621004 0
M  V30 66 C 9.0475 -1.9091 -0.900919 0
M  V30 67 O 8.3955 -1.41694 -1.79263 0
M  V30 68 C 8.6055 -3.25119 1.2688 0
M  V30 69 C 9.9535 -4.01403 1.38423 0
M  V30 70 O 10.9775 -3.34473 1.22501 0
M  V30 71 O 9.8365 -5.21265 1.64151 0
M  V30 72 H 6.9305 -0.798761 0.214266 0
M  V30 73 H 9.4765 -1.28019 1.11396 0
M  V30 74 H 8.2485 -3.15932 2.30873 0
M  V30 75 H 7.8715 -3.90212 0.762917 0
M  V30 76 N 8.8686 -0.792821 -1.36206 0
M  V30 77 C 9.7986 -0.207853 -2.32573 0
M  V30 78 C 10.7796 0.659055 -1.56813 0
M  V30 79 O 11.9646 0.592176 -1.84951 0
M  V30 80 C 9.0946 0.655449 -3.41059 0
M  V30 81 C 8.0486 -0.111842 -4.27854 0
M  V30 82 C 7.3746 0.872274 -5.27537 0
M  V30 83 C 8.6746 -1.30299 -5.05786 0
M  V30 84 H 10.3686 -1.01294 -2.81744 0
M  V30 85 H 7.9146 -0.48854 -1.3546 0
M  V30 86 H 9.8676 1.07464 -4.07467 0
M  V30 87 H 8.5916 1.49328 -2.90463 0
M  V30 88 H 7.2506 -0.512053 -3.63006 0
M  V30 89 H 6.8986 1.70523 -4.73214 0
M  V30 90 H 6.5986 0.363291 -5.86476 0
M  V30 91 H 8.1226 1.28996 -5.96818 0
M  V30 92 H 9.5366 -0.959379 -5.65216 0
M  V30 93 H 7.9336 -1.7455 -5.74154 0
M  V30 94 H 9.0036 -2.09663 -4.37229 0
M  V30 95 N 10.3467 1.47872 -0.545128 0
M  V30 96 C 11.2937 2.29849 0.2093 0
M  V30 97 C 12.2637 1.38313 0.919707 0
M  V30 98 O 13.4487 1.67277 0.917772 0
M  V30 99 C 10.5887 3.22019 1.24088 0
M  V30 100 C 9.7017 4.2864 0.537778 0
M  V30 101 C 8.8367 5.07973 1.5536 0
M  V30 102 C 7.8757 6.06381 0.8348 0
M  V30 103 N 7.0127 6.78717 1.79688 0
M  V30 104 H 11.8527 2.93845 -0.49591 0
M  V30 105 H 9.3897 1.44848 -0.256389 0
M  V30 106 H 11.3477 3.73868 1.85144 0
M  V30 107 H 9.9777 2.59914 1.91428 0
M  V30 108 H 9.0297 3.7994 -0.187046 0
M  V30 109 H 10.3417 4.98793 -0.0258907 0
M  V30 110 H 9.4957 5.63912 2.23803 0
M  V30 111 H 8.2347 4.37693 2.15118 0
M  V30 112 H 7.2397 5.49631 0.136388 0
M  V30 113 H 8.4647 6.78665 0.24313 0
M  V30 114 H 6.4107 6.11177 2.38326 0
M  V30 115 H 6.3277 7.44998 1.28505 0
M  V30 116 H 7.5957 7.39237 2.47282 0
M  V30 117 N 11.8248 0.280983 1.55075 0
M  V30 118 C 12.7728 -0.619864 2.24188 0
M  V30 119 C 13.7668 -1.15315 1.24092 0
M  V30 120 O 14.9728 -1.1061 1.42005 0
M  V30 121 H 11.3478 -0.218459 0.719569 0
M  V30 122 H 13.3188 -0.0141831 2.98397 0
M  V30 123 C 12.0678 -1.7899 2.98091 0
M  V30 124 H 11.3908 -1.38874 3.74905 0
M  V30 125 H 12.8308 -2.39672 3.49762 0
M  V30 126 C 11.2898 -2.68192 2.03899 0
M  V30 127 O 11.8198 -3.6872 1.594 0
M  V30 128 N 10.0258 -2.35488 1.70275 0
M  V30 129 H 9.5728 -1.53787 2.06658 0
M  V30 130 H 9.5308 -2.95442 1.07524 0
M  V30 131 N 13.3029 -1.57598 0.00835791 0
M  V30 132 C 14.5279 -1.95617 -0.689103 0
M  V30 133 C 14.9529 -0.883753 -1.66046 0
M  V30 134 O 14.3109 0.157352 -1.80616 0
M  V30 135 C 14.3589 -3.32736 -1.38994 0
M  V30 136 O 13.4629 -3.27631 -2.50463 0
M  V30 137 H 12.8039 -0.638379 -0.182668 0
M  V30 138 H 15.3339 -2.045 0.064036 0
M  V30 139 H 15.3439 -3.68494 -1.75147 0
M  V30 140 H 14.0189 -4.1034 -0.677778 0
M  V30 141 H 12.5959 -3.03561 -2.16576 0
M  V30 142 N 14.781 0.264519 -1.55364 0
M  V30 143 C 15.731 1.32966 -1.85214 0
M  V30 144 C 16.715 1.44306 -0.711653 0
M  V30 145 O 17.907 1.47844 -0.973192 0
M  V30 146 C 15.036 2.68839 -2.13495 0
M  V30 147 C 14.122 2.61575 -3.33825 0
M  V30 148 N 14.513 2.23933 -4.53528 0
M  V30 149 C 12.811 2.92621 -3.36584 0
M  V30 150 C 13.512 2.26868 -5.35636 0
M  V30 151 N 12.488 2.65677 -4.74254 0
M  V30 152 H 16.29 1.02884 -2.75304 0
M  V30 153 H 13.804 0.473157 -1.55354 0
M  V30 154 H 15.801 3.45685 -2.33039 0
M  V30 155 H 14.461 2.99802 -1.24694 0
M  V30 156 H 15.472 1.95769 -4.79474 0
M  V30 157 H 12.149 3.2824 -2.58002 0
M  V30 158 H 13.539 2.00254 -6.41364 0
M  V30 159 N 16.2591 1.48442 0.529413 0
M  V30 160 C 17.1691 1.6569 1.66084 0
M  V30 161 C 18.1851 0.539432 1.65427 0
M  V30 162 O 19.3611 0.810572 1.84368 0
M  V30 163 C 16.4261 1.69315 3.02545 0
M  V30 164 C 15.4871 2.92694 3.14052 0
M  V30 165 C 14.7201 2.96137 4.44003 0
M  V30 166 O 14.9431 2.07973 5.31134 0
M  V30 167 O 13.8771 3.88312 4.59888 0
M  V30 168 H 17.7031 2.61483 1.54469 0
M  V30 169 H 15.2881 1.3185 0.702567 0
M  V30 170 H 17.1701 1.74217 3.83701 0
M  V30 171 H 15.8451 0.766966 3.14483 0
M  V30 172 H 14.7521 2.93324 2.32189 0
M  V30 173 H 16.0851 3.84699 3.0703 0
M  V30 174 N 17.7372 -0.778329 1.37039 0
M  V30 175 C 18.7002 -1.87301 1.32102 0
M  V30 176 C 19.7002 -1.59198 0.226405 0
M  V30 177 O 20.8902 -1.67403 0.481861 0
M  V30 178 C 18.0222 -3.24309 1.05055 0
M  V30 179 H 19.2152 -1.93093 2.29467 0
M  V30 180 H 16.7682 -0.977358 1.21973 0
M  V30 181 H 17.5032 -3.24196 0.0819373 0
M  V30 182 H 17.2882 -3.46098 1.84279 0
M  V30 183 H 18.7782 -4.04382 1.04234 0
M  V30 184 N 19.2153 -1.21501 -1.00376 0
M  V30 185 C 20.4613 -1.03452 -1.74429 0
M  V30 186 C 20.7943 0.430764 -1.89362 0
M  V30 187 O 20.0693 1.31962 -1.42886 0
M  V30 188 C 20.3523 -1.73375 -3.15615 0
M  V30 189 C 20.2053 -3.27431 -3.08397 0
M  V30 190 C 21.5243 -1.47732 -4.14564 0
M  V30 191 H 18.6433 -0.377226 -0.633143 0
M  V30 192 H 21.2853 -1.49693 -1.17013 0
M  V30 193 H 19.4353 -1.34064 -3.64636 0
M  V30 194 H 21.1073 -3.76119 -2.67081 0
M  V30 195 H 19.3503 -3.5767 -2.45468 0
M  V30 196 H 20.0213 -3.71524 -4.08258 0
M  V30 197 H 22.4973 -1.8186 -3.74254 0
M  V30 198 H 21.3733 -1.99169 -5.11491 0
M  V30 199 H 21.6343 -0.407589 -4.40217 0
M  V30 200 N 20.6934 1.19889 -1.02296 0
M  V30 201 C 21.6234 2.25141 -0.619174 0
M  V30 202 C 22.6044 1.66051 0.368915 0
M  V30 203 O 23.7894 1.92546 0.252941 0
M  V30 204 C 20.9194 3.4728 0.0368783 0
M  V30 205 C 19.8734 4.19005 -0.872865 0
M  V30 206 C 19.1994 5.34637 -0.0822402 0
M  V30 207 C 20.4994 4.74452 -2.18387 0
M  V30 208 H 22.1934 2.59171 -1.49903 0
M  V30 209 H 19.7394 1.24579 -0.722222 0
M  V30 210 H 21.6924 4.20098 0.330958 0
M  V30 211 H 20.4164 3.12433 0.95149 0
M  V30 212 H 19.0754 3.48061 -1.15105 0
M  V30 213 H 18.7234 4.96034 0.83422 0
M  V30 214 H 18.4234 5.83557 -0.688149 0
M  V30 215 H 19.9474 6.10255 0.205238 0
M  V30 216 H 21.3614 5.39055 -1.95172 0
M  V30 217 H 19.7584 5.33834 -2.74119 0
M  V30 218 H 20.8284 3.92844 -2.84257 0
M  V30 219 N 22.1715 0.800033 1.35784 0
M  V30 220 C 23.1185 0.203848 2.29898 0
M  V30 221 C 24.0885 -0.658375 1.52495 0
M  V30 222 O 25.2735 -0.604832 1.8096 0
M  V30 223 C 22.4135 -0.64688 3.38983 0
M  V30 224 C 21.5265 0.235054 4.3136 0
M  V30 225 C 20.6615 -0.623054 5.27533 0
M  V30 226 C 19.7005 0.259682 6.11549 0
M  V30 227 N 18.8375 -0.558019 6.99879 0
M  V30 228 H 23.6775 1.01186 2.80295 0
M  V30 229 H 21.2145 0.51053 1.37957 0
M  V30 230 H 23.1725 -1.15521 4.00887 0
M  V30 231 H 21.8025 -1.42021 2.89879 0
M  V30 232 H 20.8545 0.861438 3.70518 0
M  V30 233 H 22.1665 0.914768 4.9034 0
M  V30 234 H 21.3205 -1.19678 5.94779 0
M  V30 235 H 20.0595 -1.33636 4.69034 0
M  V30 236 H 19.0645 0.845726 5.43256 0
M  V30 237 H 20.2895 0.970748 6.72126 0
M  V30 238 H 18.2355 -1.25542 6.43875 0
M  V30 239 H 18.1525 0.0637872 7.55973 0
M  V30 240 H 19.4205 -1.11523 7.71481 0
M  V30 241 N 23.6496 -1.47581 0.552962 0
M  V30 242 C 24.5796 -2.32762 -0.185451 0
M  V30 243 C 25.5606 -1.43527 -0.912905 0
M  V30 244 O 26.7456 -1.72388 -0.894201 0
M  V30 245 C 23.8756 -3.25219 -1.21859 0
M  V30 246 C 22.8296 -4.23661 -0.607864 0
M  V30 247 C 22.1556 -5.05413 -1.74533 0
M  V30 248 C 23.4556 -5.20481 0.435582 0
M  V30 249 H 25.1496 -2.94749 0.525684 0
M  V30 250 H 22.6956 -1.41738 0.254251 0
M  V30 251 H 24.6486 -3.8365 -1.7433 0
M  V30 252 H 23.3726 -2.61279 -1.95961 0
M  V30 253 H 22.0316 -3.66451 -0.104489 0
M  V30 254 H 21.6796 -4.3788 -2.47529 0
M  V30 255 H 21.3796 -5.72059 -1.34249 0
M  V30 256 H 22.9036 -5.66701 -2.27338 0
M  V30 257 H 24.3176 -5.733 -0.00290157 0
M  V30 258 H 22.7146 -5.95305 0.757067 0
M  V30 259 H 23.7846 -4.66217 1.33303 0
M  V30 260 N 25.1277 -0.289203 -1.54924 0
M  V30 261 C 26.0597 0.625583 -2.20497 0
M  V30 262 C 27.0727 1.10667 -1.19402 0
M  V30 263 O 28.2617 1.02615 -1.46056 0
M  V30 264 C 25.3617 1.86702 -2.82835 0
M  V30 265 C 24.5347 1.5304 -4.09753 0
M  V30 266 C 23.5937 2.62576 -4.56005 0
M  V30 267 O 22.6197 2.28167 -5.21468 0
M  V30 268 N 23.8217 3.92901 -4.27328 0
M  V30 269 H 26.5867 0.0642801 -2.99631 0
M  V30 270 H 24.1477 -0.110896 -1.6152 0
M  V30 271 H 26.1397 2.59304 -3.10715 0
M  V30 272 H 24.7097 2.33702 -2.07611 0
M  V30 273 H 23.9297 0.637564 -3.8901 0
M  V30 274 H 25.2177 1.28072 -4.92418 0
M  V30 275 H 24.6157 4.23671 -3.74859 0
M  V30 276 H 23.1727 4.61837 -4.59946 0
M  V30 277 N 26.6058 1.57591 -0.0167156 0
M  V30 278 C 27.8828 1.82547 0.702564 0
M  V30 279 C 28.2628 0.898018 1.91047 0
M  V30 280 O 27.6108 -0.0493456 2.28447 0
M  V30 281 C 27.8208 3.31459 1.09251 0
M  V30 282 C 29.1688 3.97622 1.48937 0
M  V30 283 O 30.1928 3.35881 1.18584 0
M  V30 284 O 29.0518 5.06415 2.05442 0
M  V30 285 H 26.1458 0.752268 0.343544 0
M  V30 286 H 28.6918 1.69644 -0.0434495 0
M  V30 287 H 27.4638 3.9061 0.23227 0
M  V30 288 H 27.0868 3.49422 1.89709 0
M  V30 289 N 28.0839 -0.256276 1.55502 0
M  V30 290 C 29.3299 -0.982884 1.78076 0
M  V30 291 C 29.6849 -1.83319 0.584109 0
M  V30 292 O 28.9779 -1.86875 -0.422877 0
M  V30 293 C 29.1719 -1.88432 3.03691 0
M  V30 294 C 29.0009 -1.12276 4.35459 0
M  V30 295 C 27.7709 -0.831647 4.98409 0
M  V30 296 C 29.9689 -0.504933 5.11815 0
M  V30 297 N 27.9509 -0.0450423 6.13883 0
M  V30 298 C 29.3219 0.146696 6.19826 0
M  V30 299 C 31.3769 -0.414455 4.96172 0
M  V30 300 C 30.0799 0.880103 7.13895 0
M  V30 301 C 32.1059 0.305398 5.90611 0
M  V30 302 C 31.4679 0.945701 6.98023 0
M  V30 303 H 27.5669 -0.341084 0.703694 0
M  V30 304 H 30.1509 -0.256909 1.92998 0
M  V30 305 H 28.3219 -2.58241 2.90114 0
M  V30 306 H 30.0539 -2.54579 3.14598 0
M  V30 307 H 26.8089 -1.14111 4.59647 0
M  V30 308 H 27.2329 0.336079 6.76165 0
M  V30 309 H 31.8749 -0.895163 4.13215 0
M  V30 310 H 29.5929 1.37244 7.9636 0
M  V30 311 H 33.1789 0.375946 5.80584 0
M  V30 312 H 32.0589 1.49383 7.6984 0
M  V30 313 N 29.562 -1.4872 -0.521534 0
M  V30 314 C 30.472 -1.66569 -1.65203 0
M  V30 315 C 31.488 -0.548197 -1.65139 0
M  V30 316 O 32.664 -0.820339 -1.83936 0
M  V30 317 C 29.729 -1.70917 -3.01642 0
M  V30 318 C 28.79 -2.94356 -3.12495 0
M  V30 319 C 28.023 -2.98487 -4.42426 0
M  V30 320 O 28.246 -2.10786 -5.30024 0
M  V30 321 O 27.18 -3.90746 -4.57822 0
M  V30 322 H 31.006 -2.62298 -1.5308 0
M  V30 323 H 28.591 -1.3222 -0.695565 0
M  V30 324 H 30.473 -1.7625 -3.82771 0
M  V30 325 H 29.148 -0.783633 -3.14071 0
M  V30 326 H 28.055 -2.94552 -2.3063 0
M  V30 327 H 29.388 -3.86322 -3.04986 0
M  V30 328 N 31.0401 0.771051 -1.3745 0
M  V30 329 C 31.9701 1.89827 -1.3597 0
M  V30 330 C 32.9511 1.68562 -0.228216 0
M  V30 331 O 34.1361 1.8941 -0.428675 0
M  V30 332 C 31.2661 3.2712 -1.16662 0
M  V30 333 C 30.2201 3.6295 -2.2683 0
M  V30 334 C 29.5461 4.98791 -1.92644 0
M  V30 335 C 30.8461 3.69627 -3.69017 0
M  V30 336 H 32.5401 1.91323 -2.30295 0
M  V30 337 H 30.0861 0.919082 -1.10855 0
M  V30 338 H 32.0391 4.05615 -1.14256 0
M  V30 339 H 30.7631 3.26059 -0.187926 0
M  V30 340 H 29.4221 2.86763 -2.28392 0
M  V30 341 H 29.0701 4.94271 -0.933021 0
M  V30 342 H 28.7701 5.23733 -2.66416 0
M  V30 343 H 30.2941 5.79685 -1.91826 0
M  V30 344 H 31.7081 4.38273 -3.69581 0
M  V30 345 H 30.1051 4.06067 -4.41848 0
M  V30 346 H 31.1751 2.70273 -4.02592 0
M  V30 347 N 32.5182 1.22032 0.997298 0
M  V30 348 C 33.9342 0.979326 1.26021 0
M  V30 349 C 34.1342 -0.32972 1.98784 0
M  V30 350 O 33.1902 -1.05345 2.29475 0
M  V30 351 C 34.5032 2.17509 2.07631 0
M  V30 352 C 36.0512 2.21817 2.2083 0
M  V30 353 C 36.5262 3.40933 3.05825 0
M  V30 354 N 38.0172 3.41067 3.13412 0
M  V30 355 C 38.7522 4.29885 3.79455 0
M  V30 356 N 38.2482 5.28914 4.47462 0
M  V30 357 N 40.0412 4.17673 3.76173 0
M  V30 358 H 32.1922 2.06202 0.509352 0
M  V30 359 H 34.4552 0.90334 0.287541 0
M  V30 360 H 34.1612 3.12415 1.61524 0
M  V30 361 H 34.0352 2.17206 3.08385 0
M  V30 362 H 36.4222 1.27462 2.66153 0
M  V30 363 H 36.5032 2.2616 1.1952 0
M  V30 364 H 36.1472 4.35586 2.61203 0
M  V30 365 H 36.0772 3.33829 4.07266 0
M  V30 366 H 38.5682 2.69406 2.65007 0
M  V30 367 H 38.8812 5.92973 4.95583 0
M  V30 368 H 37.2262 5.32831 4.46224 0
M  V30 369 H 40.4172 3.39564 3.22202 0
M  V30 370 H 40.5902 4.87098 4.27363 0
M  V30 371 N 33.9963 -1.19345 1.0293 0
M  V30 372 C 34.9263 -2.2481 0.631105 0
M  V30 373 C 35.9073 -1.66245 -0.360104 0
M  V30 374 O 37.0923 -1.92677 -0.242726 0
M  V30 375 C 34.2223 -3.47295 -0.0184607 0
M  V30 376 C 33.1763 -4.18536 0.895073 0
M  V30 377 C 32.5023 -5.34586 0.110592 0
M  V30 378 C 33.8023 -4.73287 2.209 0
M  V30 379 H 35.4963 -2.58372 1.51275 0
M  V30 380 H 33.0423 -1.24194 0.728818 0
M  V30 381 H 34.9953 -4.20268 -0.308675 0
M  V30 382 H 33.7193 -3.12933 -0.934907 0
M  V30 383 H 32.3783 -3.47446 1.16949 0
M  V30 384 H 32.0263 -4.96469 -0.807902 0
M  V30 385 H 31.7263 -5.83183 0.719087 0
M  V30 386 H 33.2503 -6.10355 -0.172871 0
M  V30 387 H 34.6643 -5.38013 1.98028 0
M  V30 388 H 33.0613 -5.32373 2.76946 0
M  V30 389 H 34.1313 -3.91331 2.86336 0
M  V30 390 N 35.4744 -0.807222 -1.35358 0
M  V30 391 C 36.4044 -0.232509 -2.3234 0
M  V30 392 C 37.3854 0.642386 -1.57504 0
M  V30 393 O 38.5704 0.572526 -1.85569 0
M  V30 394 C 35.7004 0.619238 -3.41735 0
M  V30 395 C 34.6544 -0.157215 -4.27711 0
M  V30 396 C 33.9804 0.816273 -5.28433 0
M  V30 397 C 35.2804 -1.35656 -5.04376 0
M  V30 398 H 36.9744 -1.04276 -2.80654 0
M  V30 399 H 34.5204 -0.50288 -1.34934 0
M  V30 400 H 36.4734 1.03137 -4.08584 0
M  V30 401 H 35.1974 1.46239 -2.92031 0
M  V30 402 H 33.8564 -0.550525 -3.62443 0
M  V30 403 H 33.5044 1.65494 -4.74996 0
M  V30 404 H 33.2044 0.301067 -5.86828 0
M  V30 405 H 34.7284 1.22659 -5.98153 0
M  V30 406 H 36.1424 -1.01927 -5.64166 0
M  V30 407 H 34.5394 -1.8063 -5.7227 0
M  V30 408 H 35.6094 -2.14288 -4.34981 0
M  V30 409 N 36.9525 1.47285 -0.560781 0
M  V30 410 C 37.8625 2.33846 0.187954 0
M  V30 411 C 38.8785 1.48412 0.908293 0
M  V30 412 O 40.0545 1.81332 0.876388 0
M  V30 413 C 37.1195 3.25178 1.2025 0
M  V30 414 C 36.1805 4.26504 0.489208 0
M  V30 415 C 35.4135 5.13472 1.45542 0
M  V30 416 O 35.6365 5.02959 2.6905 0
M  V30 417 O 34.5705 5.93902 0.977963 0
M  V30 418 H 38.3965 2.99177 -0.522177 0
M  V30 419 H 35.9815 1.45903 -0.321364 0
M  V30 420 H 37.8635 3.81584 1.78805 0
M  V30 421 H 36.5385 2.6247 1.89449 0
M  V30 422 H 35.4455 3.73847 -0.137627 0
M  V30 423 H 36.7785 4.91935 -0.161399 0
M  V30 424 N 38.4306 0.297415 1.54768 0
M  V30 425 C 39.6586 -0.315623 2.04478 0
M  V30 426 C 40.0736 -1.47792 1.17486 0
M  V30 427 O 39.4306 -1.81404 0.19971 0
M  V30 428 C 39.4816 -0.7753 3.53088 0
M  V30 429 O 39.2026 0.340732 4.36773 0
M  V30 430 C 40.7036 -1.45386 4.18781 0
M  V30 431 H 37.9236 -0.0690887 0.667434 0
M  V30 432 H 40.4676 0.436003 1.99798 0
M  V30 433 H 38.6226 -1.47696 3.58141 0
M  V30 434 H 39.0366 -0.0165035 5.24497 0
M  V30 435 H 40.5106 -1.72669 5.24299 0
M  V30 436 H 40.9876 -2.39275 3.68299 0
M  V30 437 H 41.5936 -0.795475 4.17795 0
M  V30 438 N 39.9087 -1.5758 0.0250728 0
M  V30 439 C 41.1547 -1.91917 -0.655413 0
M  V30 440 C 41.4877 -0.901433 -1.72011 0
M  V30 441 O 40.7627 0.0764069 -1.9435 0
M  V30 442 C 41.0457 -3.36751 -1.27558 0
M  V30 443 C 40.8987 -4.49258 -0.220719 0
M  V30 444 C 42.2177 -3.81469 -2.19475 0
M  V30 445 H 39.3367 -0.697925 -0.23679 0
M  V30 446 H 41.9787 -1.89825 0.0815036 0
M  V30 447 H 40.1287 -3.38664 -1.90365 0
M  V30 448 H 41.8007 -4.59478 0.409601 0
M  V30 449 H 40.0437 -4.31415 0.454264 0
M  V30 450 H 40.7147 -5.47618 -0.694175 0
M  V30 451 H 43.1907 -3.81266 -1.66659 0
M  V30 452 H 42.0667 -4.83512 -2.59822 0
M  V30 453 H 42.3277 -3.16744 -3.08424 0
M  V30 454 N 41.3868 0.248026 -1.55636 0
M  V30 455 C 42.3338 1.30707 -1.90222 0
M  V30 456 C 43.3038 1.47881 -0.756332 0
M  V30 457 O 44.4888 1.61883 -1.00988 0
M  V30 458 C 41.6288 2.65769 -2.20138 0
M  V30 459 C 40.7418 2.56612 -3.47526 0
M  V30 460 C 39.8768 3.8402 -3.67017 0
M  V30 461 C 38.9158 3.69476 -4.8801 0
M  V30 462 N 38.0528 4.88774 -5.04029 0
M  V30 463 H 42.8928 1.00512 -2.80538 0
M  V30 464 H 40.4298 0.485055 -1.38873 0
M  V30 465 H 42.3878 3.44386 -2.35487 0
M  V30 466 H 41.0178 2.94115 -1.33027 0
M  V30 467 H 40.0698 1.69571 -3.40514 0
M  V30 468 H 41.3818 2.41774 -4.36287 0
M  V30 469 H 40.5358 4.7108 -3.8232 0
M  V30 470 H 39.2748 4.01754 -2.76487 0
M  V30 471 H 38.2798 2.80799 -4.72686 0
M  V30 472 H 39.5048 3.53238 -5.8 0
M  V30 473 H 37.4508 5.0687 -4.16435 0
M  V30 474 H 37.3678 4.76562 -5.86877 0
M  V30 475 H 38.6358 5.77335 -5.23741 0
M  V30 476 N 42.8649 1.48995 0.513639 0
M  V30 477 C 43.8119 1.6473 1.61656 0
M  V30 478 C 44.7819 0.488984 1.58739 0
M  V30 479 O 45.9669 0.714478 1.76918 0
M  V30 480 C 43.1069 1.7082 2.99858 0
M  V30 481 C 42.2199 2.9787 3.12885 0
M  V30 482 C 41.3549 2.95017 4.41744 0
M  V30 483 C 40.3939 4.16702 4.48359 0
M  V30 484 N 39.5309 4.11832 5.68629 0
M  V30 485 H 44.3709 2.58909 1.47547 0
M  V30 486 H 41.9079 1.28382 0.71808 0
M  V30 487 H 43.8659 1.72331 3.79944 0
M  V30 488 H 42.4959 0.801181 3.12699 0
M  V30 489 H 41.5479 3.06029 2.25944 0
M  V30 490 H 42.8599 3.8786 3.13633 0
M  V30 491 H 42.0139 2.95021 5.30139 0
M  V30 492 H 40.7529 2.02784 4.43542 0
M  V30 493 H 39.7579 4.16955 3.58369 0
M  V30 494 H 40.9829 5.10113 4.48287 0
M  V30 495 H 38.9289 3.22428 5.71293 0
M  V30 496 H 38.8459 4.95543 5.7094 0
M  V30 497 H 40.1139 4.1592 6.59266 0
M  V30 498 N 44.343 -0.763751 1.37857 0
M  V30 499 C 45.59 -1.52257 1.33506 0
M  V30 500 C 45.918 -1.94343 -0.078022 0
M  V30 501 O 45.173 -1.64958 -1.05297 0
M  V30 502 C 45.472 -2.79499 2.22745 0
M  V30 503 C 45.138 -2.56426 3.70886 0
M  V30 504 C 43.8 -2.49842 4.11257 0
M  V30 505 C 46.152 -2.36008 4.64704 0
M  V30 506 C 43.48 -2.20841 5.43549 0
M  V30 507 C 45.832 -2.0853 5.97242 0
M  V30 508 C 44.496 -2.00396 6.36709 0
M  V30 509 H 43.766 -0.557149 0.488534 0
M  V30 510 H 46.413 -0.879073 1.70131 0
M  V30 511 H 44.718 -3.48447 1.79142 0
M  V30 512 H 46.415 -3.37413 2.16688 0
M  V30 513 H 43.005 -2.62416 3.38874 0
M  V30 514 H 47.189 -2.40079 4.34368 0
M  V30 515 H 42.445 -2.13045 5.73081 0
M  V30 516 H 46.619 -1.91732 6.69486 0
M  V30 517 H 44.246 -1.77688 7.39142 0
M  V30 518 N 45.8211 -1.22559 -0.990812 0
M  V30 519 C 46.7541 -0.940773 -2.07905 0
M  V30 520 C 47.7321 0.117082 -1.62178 0
M  V30 521 O 48.9161 -0.0149506 -1.88494 0
M  V30 522 C 46.0431 -0.415321 -3.36144 0
M  V30 523 C 45.0891 -1.45818 -4.00799 0
M  V30 524 S 45.9221 -3.03219 -4.41382 0
M  V30 525 C 47.0781 -2.52317 -5.72789 0
M  V30 526 H 47.3111 -1.8623 -2.31745 0
M  V30 527 H 44.8441 -1.05688 -1.12558 0
M  V30 528 H 46.8021 -0.118747 -4.10328 0
M  V30 529 H 45.4631 0.485121 -3.10331 0
M  V30 530 H 44.6561 -1.04044 -4.93144 0
M  V30 531 H 44.2581 -1.70356 -3.32949 0
M  V30 532 H 46.5501 -1.93688 -6.49224 0
M  V30 533 H 47.4931 -3.43161 -6.19392 0
M  V30 534 H 47.9011 -1.93529 -5.30289 0
M  V30 535 N 47.2992 1.18797 -1.03562 0
M  V30 536 C 48.2622 2.20464 -0.626769 0
M  V30 537 C 49.2622 1.57721 0.313173 0
M  V30 538 O 50.4522 1.73917 0.0992615 0
M  V30 539 C 47.5842 3.40802 0.0818498 0
M  V30 540 H 48.7772 2.58149 -1.5264 0
M  V30 541 H 46.3302 1.32593 -0.827578 0
M  V30 542 H 47.0652 3.08642 0.995518 0
M  V30 543 H 46.8502 3.8758 -0.593652 0
M  V30 544 H 48.3402 4.16092 0.354584 0
M  V30 545 N 48.7773 0.814389 1.34928 0
M  V30 546 C 49.7073 0.244827 2.32213 0
M  V30 547 C 50.6883 -0.634024 1.57842 0
M  V30 548 O 51.8733 -0.562676 1.8587 0
M  V30 549 C 49.0033 -0.601106 3.42058 0
M  V30 550 C 47.9573 0.179896 4.27622 0
M  V30 551 C 47.2833 -0.788237 5.28858 0
M  V30 552 C 48.5833 1.38329 5.03649 0
M  V30 553 H 50.2773 1.05763 2.80097 0
M  V30 554 H 47.8233 0.510029 1.34665 0
M  V30 555 H 49.7763 -1.00968 4.09125 0
M  V30 556 H 48.5003 -1.44688 2.92802 0
M  V30 557 H 47.1593 0.569739 3.62146 0
M  V30 558 H 46.8073 -1.62973 4.75866 0
M  V30 559 H 46.5073 -0.269942 5.8698 0
M  V30 560 H 48.0313 -1.19485 5.98795 0
M  V30 561 H 49.4453 1.04918 5.63618 0
M  V30 562 H 47.8423 1.83662 5.71304 0
M  V30 563 H 48.9123 2.16592 4.33839 0
M  V30 564 N 50.2554 -1.46986 0.568584 0
M  V30 565 C 51.6714 -1.57946 0.229189 0
M  V30 566 C 51.8714 -1.56567 -1.26843 0
M  V30 567 O 50.9274 -1.47511 -2.04931 0
M  V30 568 C 52.2404 -2.87963 0.865909 0
M  V30 569 C 53.7884 -3.01568 0.838188 0
M  V30 570 C 54.2634 -4.34301 1.45419 0
M  V30 571 N 55.7544 -4.40965 1.41788 0
M  V30 572 C 56.4894 -5.42256 1.86403 0
M  V30 573 N 55.9854 -6.50297 2.38926 0
M  V30 574 N 57.7784 -5.3337 1.77405 0
M  V30 575 H 49.9294 -1.46126 1.54146 0
M  V30 576 H 52.1924 -0.696156 0.643484 0
M  V30 577 H 51.8984 -2.94742 1.91886 0
M  V30 578 H 51.7724 -3.75423 0.365687 0
M  V30 579 H 54.1594 -2.94379 -0.206106 0
M  V30 580 H 54.2404 -2.1562 1.37629 0
M  V30 581 H 53.8844 -4.42247 2.49761 0
M  V30 582 H 53.8144 -5.19 0.891435 0
M  V30 583 H 56.3054 -3.63484 1.03381 0
M  V30 584 H 56.6184 -7.23777 2.70863 0
M  V30 585 H 54.9634 -6.51155 2.42944 0
M  V30 586 H 58.1544 -4.47865 1.3614 0
M  V30 587 H 58.3274 -6.12169 2.12492 0
M  V30 588 N 51.7335 -0.305618 -1.54608 0
M  V30 589 C 52.9825 0.303098 -1.9941 0
M  V30 590 C 53.2955 1.54648 -1.19764 0
M  V30 591 O 54.5015 2.23007 -1.54855 0
M  V30 592 C 52.9575 0.590588 -3.55021 0
M  V30 593 C 52.5655 -0.634719 -4.43481 0
M  V30 594 C 54.3095 1.16025 -4.08336 0
M  V30 595 C 52.2165 -0.320126 -5.90533 0
M  V30 596 H 51.1465 0.117031 -0.744862 0
M  V30 597 H 53.7975 -0.415045 -1.78745 0
M  V30 598 H 52.1795 1.36845 -3.71604 0
M  V30 599 H 53.3535 -1.41079 -4.38672 0
M  V30 600 H 51.6685 -1.12333 -4.00962 0
M  V30 601 H 54.2655 1.40994 -5.15776 0
M  V30 602 H 54.6085 2.10397 -3.5922 0
M  V30 603 H 55.1415 0.443985 -3.95315 0
M  V30 604 H 51.8805 -1.23254 -6.43808 0
M  V30 605 H 51.4005 0.418579 -5.98338 0
M  V30 606 H 53.0795 0.0766241 -6.46955 0
M  V30 607 N 53.2116 1.57565 -0.0334293 0
M  V30 608 C 54.1586 2.10478 0.946981 0
M  V30 609 C 55.1286 1.00787 1.32027 0
M  V30 610 O 56.3136 1.28232 1.41284 0
M  V30 611 C 53.4536 2.63994 2.22263 0
M  V30 612 C 52.5666 3.87709 1.90541 0
M  V30 613 C 51.7016 4.29604 3.12433 0
M  V30 614 C 50.7406 5.46065 2.76549 0
M  V30 615 N 49.8776 5.83096 3.9108 0
M  V30 616 H 54.7176 2.93963 0.488846 0
M  V30 617 H 52.2546 1.45296 0.22969 0
M  V30 618 H 54.2126 2.93114 2.96884 0
M  V30 619 H 52.8426 1.83333 2.65685 0
M  V30 620 H 51.8946 3.65291 1.06144 0
M  V30 621 H 53.2066 4.72403 1.60116 0
M  V30 622 H 52.3606 4.60182 3.9537 0
M  V30 623 H 51.0996 3.43685 3.46023 0
M  V30 624 H 50.1046 5.15176 1.92026 0
M  V30 625 H 51.3296 6.33685 2.44171 0
M  V30 626 H 49.2756 5.00132 4.24504 0
M  V30 627 H 49.1926 6.6244 3.64293 0
M  V30 628 H 50.4606 6.18282 4.74708 0
M  V30 629 N 54.6897 -0.239769 1.55765 0
M  V30 630 C 55.9147 -0.988373 1.82335 0
M  V30 631 C 56.3397 -1.77886 0.611421 0
M  V30 632 O 55.6977 -1.75889 -0.439639 0
M  V30 633 C 55.7457 -1.89627 3.06715 0
M  V30 634 O 54.8497 -2.98904 2.84131 0
M  V30 635 H 54.1907 -0.280858 0.601677 0
M  V30 636 H 56.7207 -0.258597 2.02959 0
M  V30 637 H 56.7307 -2.30957 3.36338 0
M  V30 638 H 55.4057 -1.31511 3.9456 0
M  V30 639 H 53.9827 -2.61651 2.65694 0
M  V30 640 N 56.1678 -1.49265 -0.50573 0
M  V30 641 C 57.4448 -1.49012 -1.26707 0
M  V30 642 C 57.8248 -0.215205 -2.1 0
M  V30 643 O 57.1728 0.802547 -2.13943 0
M  V30 644 C 57.3828 -2.7663 -2.12783 0
M  V30 645 C 58.7308 -3.25932 -2.72127 0
M  V30 646 O 59.7548 -2.77715 -2.23054 0
M  V30 647 O 58.6138 -4.09897 -3.61451 0
M  V30 648 H 55.7078 -0.596197 -0.57313 0
M  V30 649 H 58.2538 -1.61524 -0.52039 0
M  V30 650 H 57.0258 -3.60916 -1.5118 0
M  V30 651 H 56.6488 -2.66956 -2.94653 0
M  V30 652 N 57.6459 0.756429 -1.3826 0
M  V30 653 C 58.5929 1.87011 -1.35261 0
M  V30 654 C 59.5629 1.64695 -0.215616 0
M  V30 655 O 60.7479 1.864 -0.407399 0
M  V30 656 C 57.8879 3.24275 -1.18068 0
M  V30 657 C 57.0009 3.58442 -2.41129 0
M  V30 658 C 56.1359 4.84994 -2.16689 0
M  V30 659 C 55.1749 5.11939 -3.35537 0
M  V30 660 N 54.3119 6.29685 -3.10549 0
M  V30 661 H 59.1519 1.8891 -2.30472 0
M  V30 662 H 56.6889 0.923373 -1.14509 0
M  V30 663 H 58.6469 4.03479 -1.06116 0
M  V30 664 H 57.2769 3.21711 -0.264973 0
M  V30 665 H 56.3289 2.74103 -2.63764 0
M  V30 666 H 57.6409 3.74283 -3.29717 0
M  V30 667 H 56.7949 5.72135 -2.01857 0
M  V30 668 H 55.5339 4.71286 -1.25462 0
M  V30 669 H 54.5389 4.23268 -3.50891 0
M  V30 670 H 55.7639 5.27546 -4.27635 0
M  V30 671 H 53.7099 6.17306 -2.21967 0
M  V30 672 H 53.6269 6.46014 -3.92686 0
M  V30 673 H 54.8949 7.19722 -2.99367 0
M  V30 674 N 59.124 1.23083 0.984299 0
M  V30 675 C 60.034 1.02515 2.11016 0
M  V30 676 C 61.05 -0.0291702 1.73976 0
M  V30 677 O 62.226 0.165434 2.00719 0
M  V30 678 C 59.291 0.614673 3.41208 0
M  V30 679 C 58.352 1.74359 3.92297 0
M  V30 680 C 57.585 1.35261 5.16275 0
M  V30 681 O 57.808 0.235136 5.69915 0
M  V30 682 O 56.742 2.17227 5.61334 0
M  V30 683 H 60.568 1.96862 2.31255 0
M  V30 684 H 58.153 1.01753 1.09392 0
M  V30 685 H 60.035 0.396518 4.1953 0
M  V30 686 H 58.71 -0.299851 3.22308 0
M  V30 687 H 57.617 2.01635 3.1511 0
M  V30 688 H 58.95 2.63629 4.15645 0
M  V30 689 N 60.6021 -1.18246 1.0419 0
M  V30 690 C 61.8321 -1.91916 0.764961 0
M  V30 691 C 62.2401 -1.76485 -0.681898 0
M  V30 692 O 61.5831 -1.09275 -1.47664 0
M  V30 693 C 61.6451 -3.4373 1.05309 0
M  V30 694 C 61.3091 -3.8294 2.4941 0
M  V30 695 C 62.3061 -3.86621 3.47592 0
M  V30 696 C 59.9911 -4.142 2.84155 0
M  V30 697 C 61.9851 -4.21013 4.78568 0
M  V30 698 C 59.6721 -4.48262 4.15337 0
M  V30 699 C 60.6701 -4.51645 5.12353 0
M  V30 700 O 60.3581 -4.84911 6.41183 0
M  V30 701 H 60.0901 -0.61606 0.278292 0
M  V30 702 H 62.6441 -1.50947 1.39299 0
M  V30 703 H 60.8741 -3.84946 0.367933 0
M  V30 704 H 62.5631 -3.9865 0.763752 0
M  V30 705 H 63.3291 -3.62607 3.22089 0
M  V30 706 H 59.2081 -4.10743 2.09311 0
M  V30 707 H 62.7521 -4.23568 5.54289 0
M  V30 708 H 58.6491 -4.71737 4.40607 0
M  V30 709 H 59.4171 -5.02809 6.45852 0
M  V30 710 N 62.0802 -0.821533 -1.34494 0
M  V30 711 C 63.0432 -0.247847 -2.27856 0
M  V30 712 C 64.0432 0.573453 -1.50227 0
M  V30 713 O 65.2332 0.389759 -1.69784 0
M  V30 714 C 62.3652 0.652698 -3.34593 0
M  V30 715 H 63.5582 -1.07146 -2.80107 0
M  V30 716 H 61.1112 -0.593291 -1.44602 0
M  V30 717 H 61.8462 1.49943 -2.87555 0
M  V30 718 H 61.6312 0.065292 -3.92046 0
M  V30 719 H 63.1212 1.04793 -4.04238 0
M  V30 720 N 63.5583 1.46682 -0.576371 0
M  V30 721 C 64.7833 2.07304 -0.0630475 0
M  V30 722 C 65.2083 1.42329 1.2298 0
M  V30 723 O 64.5663 0.504865 1.74129 0
M  V30 724 C 64.6143 3.60472 0.095895 0
M  V30 725 O 63.7183 3.95927 1.15394 0
M  V30 726 H 63.0593 0.661288 -0.0599463 0
M  V30 727 H 65.5893 1.88417 -0.797511 0
M  V30 728 H 65.5993 4.06865 0.304071 0
M  V30 729 H 64.2743 4.07157 -0.84828 0
M  V30 730 H 62.8513 3.61252 0.924724 0
M  V30 731 N 65.0364 0.313813 1.54444 0
M  V30 732 C 66.2644 -0.293918 2.04802 0
M  V30 733 C 66.6794 -1.46537 1.19047 0
M  V30 734 O 66.0364 -1.81182 0.218939 0
M  V30 735 C 66.0874 -0.737806 3.53891 0
M  V30 736 O 65.8084 0.387038 4.36387 0
M  V30 737 C 67.3094 -1.40936 4.203 0
M  V30 738 H 64.5294 -0.0620057 0.668129 0
M  V30 739 H 67.0734 0.457169 1.99324 0
M  V30 740 H 65.2284 -1.43889 3.59687 0
M  V30 741 H 65.6424 0.0391274 5.24485 0
M  V30 742 H 67.1164 -1.67099 5.26101 0
M  V30 743 H 67.5934 -2.35355 3.70816 0
M  V30 744 H 68.1994 -0.751117 4.18615 0
M  V30 745 N 66.5145 -1.57545 0.0417849 0
M  V30 746 C 67.4445 -2.14009 -0.933929 0
M  V30 747 C 68.4255 -1.05938 -1.33083 0
M  V30 748 O 69.6105 -1.33833 -1.40721 0
M  V30 749 C 66.7405 -2.67747 -2.21199 0
M  V30 750 C 65.6945 -3.80718 -1.95544 0
M  V30 751 C 65.0205 -4.20935 -3.29724 0
M  V30 752 C 66.3205 -5.06258 -1.28452 0
M  V30 753 H 68.0145 -2.95788 -0.463645 0
M  V30 754 H 65.5605 -1.42285 -0.221573 0
M  V30 755 H 67.5135 -3.05886 -2.89848 0
M  V30 756 H 66.2375 -1.83147 -2.70416 0
M  V30 757 H 64.8965 -3.43037 -1.2931 0
M  V30 758 H 64.5445 -3.33298 -3.76724 0
M  V30 759 H 64.2445 -4.9707 -3.13361 0
M  V30 760 H 65.7685 -4.61666 -3.9962 0
M  V30 761 H 67.1825 -5.41903 -1.8712 0
M  V30 762 H 65.5795 -5.87475 -1.22445 0
M  V30 763 H 66.6495 -4.84207 -0.259219 0
M  V30 764 N 67.9926 0.231505 -1.5589 0
M  V30 765 C 68.9246 1.31006 -1.8807 0
M  V30 766 C 69.9376 1.43539 -0.768145 0
M  V30 767 O 71.1266 1.44614 -1.04638 0
M  V30 768 C 68.2266 2.68688 -2.06543 0
M  V30 769 C 67.3996 2.78228 -3.37502 0
M  V30 770 C 66.4586 3.96857 -3.4553 0
M  V30 771 O 65.4846 3.85662 -4.18633 0
M  V30 772 N 66.6866 5.1072 -2.75944 0
M  V30 773 H 69.4516 1.03731 -2.81176 0
M  V30 774 H 67.0126 0.421573 -1.56315 0
M  V30 775 H 69.0046 3.46412 -2.09239 0
M  V30 776 H 67.5746 2.88605 -1.20109 0
M  V30 777 H 66.7946 1.87059 -3.46991 0
M  V30 778 H 68.0826 2.81564 -4.23791 0
M  V30 779 H 67.4806 5.2271 -2.16311 0
M  V30 780 H 66.0376 5.86523 -2.84314 0
M  V30 781 N 69.4707 1.49531 0.497807 0
M  V30 782 C 70.4187 1.66926 1.61983 0
M  V30 783 C 71.4127 0.535167 1.60724 0
M  V30 784 O 72.6187 0.714896 1.65195 0
M  V30 785 H 68.9937 0.526415 0.537021 0
M  V30 786 H 70.9647 2.61098 1.44465 0
M  V30 787 C 69.7137 1.75602 3.00099 0
M  V30 788 H 69.0367 2.62244 3.01775 0
M  V30 789 H 70.4767 1.91807 3.78135 0
M  V30 790 C 68.9357 0.501543 3.33146 0
M  V30 791 O 69.4657 -0.371342 3.9998 0
M  V30 792 N 67.6717 0.363531 2.88317 0
M  V30 793 H 67.2187 1.07485 2.34104 0
M  V30 794 H 67.1767 -0.474728 3.10795 0
M  V30 795 N 70.9488 -0.749086 1.3866 0
M  V30 796 C 71.8788 -1.8764 1.38973 0
M  V30 797 C 72.8598 -1.68178 0.255004 0
M  V30 798 O 74.0448 -1.88704 0.458754 0
M  V30 799 C 71.1748 -3.25222 1.21851 0
M  V30 800 C 70.1288 -3.59295 2.32575 0
M  V30 801 C 69.4548 -4.95663 2.00555 0
M  V30 802 C 70.7548 -3.63709 3.7485 0
M  V30 803 H 72.4488 -1.87635 2.3331 0
M  V30 804 H 69.9948 -0.901329 1.12303 0
M  V30 805 H 71.9478 -4.03746 1.20695 0
M  V30 806 H 70.6718 -3.25719 0.239775 0
M  V30 807 H 69.3308 -2.83093 2.32925 0
M  V30 808 H 68.9788 -4.92724 1.01154 0
M  V30 809 H 68.6788 -5.19429 2.74714 0
M  V30 810 H 70.2028 -5.7656 2.01024 0
M  V30 811 H 71.6168 -4.32338 3.76506 0
M  V30 812 H 70.0138 -3.98986 4.48252 0
M  V30 813 H 71.0838 -2.63834 4.06841 0
M  V30 814 N 72.4269 -1.23603 -0.977757 0
M  V30 815 C 73.6669 -1.08148 -1.73446 0
M  V30 816 C 74.0309 0.374785 -1.88307 0
M  V30 817 O 75.2319 0.650588 -2.60808 0
M  V30 818 C 73.5029 -1.78991 -3.0935 0
M  V30 819 S 75.0619 -1.79141 -4.00567 0
M  V30 820 H 71.8799 -0.386987 -0.596458 0
M  V30 821 H 74.4819 -1.5678 -1.16792 0
M  V30 822 H 73.1859 -2.8408 -2.96187 0
M  V30 823 H 72.7169 -1.30651 -3.71071 0
M  V30 824 H 74.7319 -0.851892 -4.88833 0
M  V30 825 N 73.905 1.17692 -1.04816 0
M  V30 826 C 74.853 2.23632 -0.63966 0
M  V30 827 C 75.847 1.6601 0.337219 0
M  V30 828 O 77.053 1.78844 0.203693 0
M  V30 829 H 73.428 0.727949 -0.188665 0
M  V30 830 H 75.399 2.55387 -1.54337 0
M  V30 831 C 74.148 3.4769 -0.0264051 0
M  V30 832 H 73.471 3.92331 -0.769164 0
M  V30 833 H 74.911 4.23418 0.222098 0
M  V30 834 C 73.37 3.13807 1.22584 0
M  V30 835 O 73.9 3.28236 2.31569 0
M  V30 836 N 72.106 2.68065 1.12202 0
M  V30 837 H 71.653 2.56525 0.235133 0
M  V30 838 H 71.611 2.45767 1.96076 0
M  V30 839 N 75.3831 0.828654 1.34056 0
M  V30 840 C 76.3151 0.212052 2.28217 0
M  V30 841 C 77.3281 -0.601362 1.51286 0
M  V30 842 O 78.5171 -0.430104 1.73241 0
M  V30 843 C 75.6171 -0.72088 3.31144 0
M  V30 844 C 74.7901 0.0509587 4.3737 0
M  V30 845 C 73.8491 -0.803766 5.20025 0
M  V30 846 O 72.8751 -0.246667 5.68665 0
M  V30 847 N 74.0771 -2.1227 5.40298 0
M  V30 848 H 76.8421 1.02105 2.81771 0
M  V30 849 H 74.4031 0.686153 1.46641 0
M  V30 850 H 76.3951 -1.29742 3.8334 0
M  V30 851 H 74.9651 -1.43061 2.77943 0
M  V30 852 H 74.1851 0.808831 3.85813 0
M  V30 853 H 75.4731 0.582065 5.0546 0
M  V30 854 H 74.8711 -2.59898 5.02464 0
M  V30 855 H 73.4281 -2.64796 5.95589 0
M  V30 856 N 76.8612 -1.46375 0.584142 0
M  V30 857 C 78.1072 -2.02678 0.0703716 0
M  V30 858 C 78.4402 -1.4545 -1.28678 0
M  V30 859 O 77.7152 -0.62014 -1.84349 0
M  V30 860 C 77.9982 -3.60099 0.00614674 0
M  V30 861 C 77.8512 -4.27709 1.3923 0
M  V30 862 C 79.1702 -4.34598 -0.693742 0
M  V30 863 H 76.2892 -0.736504 0.027047 0
M  V30 864 H 78.9312 -1.74501 0.751615 0
M  V30 865 H 77.0812 -3.84236 -0.574009 0
M  V30 866 H 78.7532 -4.14832 2.01773 0
M  V30 867 H 76.9962 -3.87016 1.95962 0
M  V30 868 H 77.6672 -5.36478 1.29982 0
M  V30 869 H 80.1432 -4.15615 -0.200869 0
M  V30 870 H 79.0192 -5.44318 -0.707714 0
M  V30 871 H 79.2802 -4.05759 -1.75533 0
M  V30 872 N 78.3393 -0.321999 -1.54275 0
M  V30 873 C 79.6163 0.335232 -1.92706 0
M  V30 874 C 79.9963 1.70006 -1.25145 0
M  V30 875 O 79.3443 2.25067 -0.394596 0
M  V30 876 C 79.5543 0.429008 -3.46353 0
M  V30 877 C 80.9023 0.690029 -4.18956 0
M  V30 878 O 81.9263 0.511992 -3.52501 0
M  V30 879 O 80.7853 1.03338 -5.36641 0
M  V30 880 H 77.8793 0.191143 -0.804608 0
M  V30 881 H 80.4253 -0.3716 -1.65581 0
M  V30 882 H 79.1973 -0.529611 -3.87699 0
M  V30 883 H 78.8203 1.18348 -3.79578 0
M  V30 884 N 79.8174 1.5752 -0.0501392 0
M  V30 885 C 80.7644 2.1147 0.924603 0
M  V30 886 C 81.7344 1.02182 1.30951 0
M  V30 887 O 82.9194 1.29723 1.39916 0
M  V30 888 C 80.0594 2.66337 2.19451 0
M  V30 889 C 79.1724 3.89708 1.86418 0
M  V30 890 C 78.3074 4.32893 3.07859 0
M  V30 891 C 77.3464 5.48967 2.70742 0
M  V30 892 N 76.4834 5.87211 3.84874 0
M  V30 893 H 81.3234 2.94465 0.457639 0
M  V30 894 H 78.8604 1.45531 0.214266 0
M  V30 895 H 80.8184 2.96247 2.93758 0
M  V30 896 H 79.4484 1.86141 2.63726 0
M  V30 897 H 78.5004 3.66396 1.02264 0
M  V30 898 H 79.8124 4.74074 1.55096 0
M  V30 899 H 78.9664 4.6435 3.90466 0
M  V30 900 H 77.7054 3.47336 3.42358 0
M  V30 901 H 76.7104 5.17183 1.86551 0
M  V30 902 H 77.9354 6.3624 2.37436 0
M  V30 903 H 75.8814 5.04607 4.19175 0
M  V30 904 H 75.7984 6.66266 3.57247 0
M  V30 905 H 77.0664 6.23282 4.68123 0
M  V30 906 N 81.2955 -0.223234 1.56011 0
M  V30 907 C 82.2055 -1.29766 1.95443 0
M  V30 908 C 83.2215 -1.51373 0.858028 0
M  V30 909 O 84.3975 -1.64536 1.16146 0
M  V30 910 C 81.4625 -2.62772 2.26167 0
M  V30 911 C 80.5235 -2.49482 3.49367 0
M  V30 912 C 79.7565 -3.76145 3.78616 0
M  V30 913 O 79.9795 -4.79087 3.09568 0
M  V30 914 O 78.9135 -3.73358 4.72109 0
M  V30 915 H 82.7395 -0.99309 2.87004 0
M  V30 916 H 80.3245 -0.425958 1.43199 0
M  V30 917 H 82.2065 -3.41327 2.47131 0
M  V30 918 H 80.8815 -2.92913 1.37781 0
M  V30 919 H 79.7885 -1.69133 3.33684 0
M  V30 920 H 81.1215 -2.2428 4.38131 0
M  V30 921 N 82.7736 -1.49793 -0.48987 0
M  V30 922 C 83.9986 -1.63836 -1.27172 0
M  V30 923 C 84.4236 -0.31402 -1.8546 0
M  V30 924 O 83.7816 0.719803 -1.66399 0
M  V30 925 C 83.8296 -2.71797 -2.36978 0
M  V30 926 O 82.9336 -2.31744 -3.41128 0
M  V30 927 H 82.2746 -0.547997 -0.37496 0
M  V30 928 H 84.8046 -1.96053 -0.585191 0
M  V30 929 H 84.8146 -2.94305 -2.82575 0
M  V30 930 H 83.4896 -3.67923 -1.93921 0
M  V30 931 H 82.0666 -2.1961 -3.01373 0
M  V30 932 N 84.2517 0.741722 -1.39055 0
M  V30 933 C 85.4797 1.53098 -1.39171 0
M  V30 934 C 85.8947 1.88794 0.0155099 0
M  V30 935 O 85.2517 1.53626 0.985159 0
M  V30 936 C 85.3027 2.82274 -2.2584 0
M  V30 937 O 85.0237 2.48097 -3.61081 0
M  V30 938 C 86.5247 3.76343 -2.34266 0
M  V30 939 H 83.7447 0.473335 -0.4756 0
M  V30 940 H 86.2887 0.917045 -1.82785 0
M  V30 941 H 84.4437 3.40015 -1.85656 0
M  V30 942 H 84.8577 3.31029 -4.06842 0
M  V30 943 H 86.3317 4.63898 -2.9917 0
M  V30 944 H 86.8087 4.17619 -1.35982 0
M  V30 945 H 87.4147 3.24523 -2.74891 0
M  V30 946 N 85.7298 1.2412 0.971189 0
M  V30 947 C 86.9758 1.08041 1.71625 0
M  V30 948 C 87.3088 -0.380407 1.90438 0
M  V30 949 O 86.5838 -1.28127 1.46334 0
M  V30 950 C 86.8668 1.81682 3.10908 0
M  V30 951 C 86.7198 3.35493 2.99608 0
M  V30 952 C 88.0388 1.58671 4.10501 0
M  V30 953 H 85.1578 0.39388 0.622919 0
M  V30 954 H 87.7998 1.52743 1.13003 0
M  V30 955 H 85.9498 1.43684 3.60953 0
M  V30 956 H 87.6218 3.83068 2.57015 0
M  V30 957 H 85.8648 3.64052 2.35899 0
M  V30 958 H 86.5358 3.82217 3.98264 0
M  V30 959 H 89.0118 1.91719 3.69301 0
M  V30 960 H 87.8878 2.1266 5.06031 0
M  V30 961 H 88.1488 0.524161 4.38982 0
M  V30 962 N 87.2079 -1.17134 1.05439 0
M  V30 963 C 88.1399 -2.2078 0.615539 0
M  V30 964 C 89.1529 -1.59584 -0.322001 0
M  V30 965 O 90.3419 -1.78133 -0.114344 0
M  V30 966 C 87.4419 -3.38691 -0.118938 0
M  V30 967 C 86.6149 -4.29454 0.829924 0
M  V30 968 C 85.6739 -5.26024 0.136258 0
M  V30 969 O 84.6999 -5.63952 0.77115 0
M  V30 970 N 85.9019 -5.69487 -1.1254 0
M  V30 971 H 88.6669 -2.59052 1.50705 0
M  V30 972 H 86.2279 -1.32058 0.936603 0
M  V30 973 H 88.2199 -4.00329 -0.593179 0
M  V30 974 H 86.7899 -2.98996 -0.91215 0
M  V30 975 H 86.0099 -3.65211 1.48373 0
M  V30 976 H 87.2979 -4.86984 1.47392 0
M  V30 977 H 86.6959 -5.4075 -1.6615 0
M  V30 978 H 85.2529 -6.33257 -1.54366 0
M  V30 979 N 88.686 -0.835752 -1.33615 0
M  V30 980 C 89.619 -0.211815 -2.27215 0
M  V30 981 C 90.597 0.639249 -1.49507 0
M  V30 982 O 91.781 0.600193 -1.78689 0
M  V30 983 C 88.908 0.702893 -3.31326 0
M  V30 984 C 87.954 -0.0723049 -4.26439 0
M  V30 985 S 88.787 -1.42811 -5.16106 0
M  V30 986 C 89.943 -0.518613 -6.23748 0
M  V30 987 H 90.176 -1.00533 -2.79786 0
M  V30 988 H 87.709 -0.632336 -1.40858 0
M  V30 989 H 89.667 1.22505 -3.91794 0
M  V30 990 H 88.328 1.47004 -2.77576 0
M  V30 991 H 87.521 0.62359 -5.00127 0
M  V30 992 H 87.123 -0.525424 -3.70291 0
M  V30 993 H 89.415 0.284778 -6.76901 0
M  V30 994 H 90.358 -1.22556 -6.97413 0
M  V30 995 H 90.766 -0.101344 -5.64409 0
M  V30 996 N 90.1641 1.46063 -0.591896 0
M  V30 997 C 91.1121 2.32124 0.148739 0
M  V30 998 C 92.1061 1.45035 0.875286 0
M  V30 999 O 93.3121 1.61609 0.792632 0
M  V30 1000 H 89.6871 0.749024 0.066832 0
M  V30 1001 H 91.6581 2.92392 -0.595783 0
M  V30 1002 C 90.4071 3.28373 1.1431 0
M  V30 1003 H 89.7301 3.95371 0.59346 0
M  V30 1004 H 91.1701 3.91352 1.63155 0
M  V30 1005 C 89.6291 2.54393 2.20875 0
M  V30 1006 O 90.1591 2.31373 3.28374 0
M  V30 1007 N 88.3651 2.14797 1.95731 0
M  V30 1008 H 87.9121 2.33719 1.08319 0
M  V30 1009 H 87.8701 1.65619 2.67241 0
M  V30 1010 N 91.6422 0.330177 1.54103 0
M  V30 1011 C 92.8722 -0.271784 2.04805 0
M  V30 1012 C 93.2802 -1.45816 1.20559 0
M  V30 1013 O 92.6232 -1.82247 0.2306 0
M  V30 1014 C 92.6852 -0.763238 3.51305 0
M  V30 1015 C 92.3492 0.301705 4.56003 0
M  V30 1016 C 93.3462 1.13999 5.07248 0
M  V30 1017 C 91.0312 0.451793 5.00264 0
M  V30 1018 C 93.0252 2.11402 6.01322 0
M  V30 1019 C 90.7122 1.42924 5.94151 0
M  V30 1020 C 91.7102 2.25882 6.44567 0
M  V30 1021 O 91.3982 3.21965 7.3661 0
M  V30 1022 H 91.1302 -0.058693 0.673447 0
M  V30 1023 H 93.6842 0.476395 1.99799 0
M  V30 1024 H 91.9142 -1.56244 3.5373 0
M  V30 1025 H 93.6032 -1.28427 3.85047 0
M  V30 1026 H 94.3692 1.03505 4.73827 0
M  V30 1027 H 90.2482 -0.184044 4.60632 0
M  V30 1028 H 93.7922 2.76192 6.40596 0
M  V30 1029 H 89.6892 1.53479 6.26988 0
M  V30 1030 H 90.4572 3.17281 7.54503 0
M  V30 1031 N 93.1203 -1.57491 0.0584922 0
M  V30 1032 C 94.3663 -1.93264 -0.614558 0
M  V30 1033 C 94.6993 -0.937717 -1.7006 0
M  V30 1034 O 93.9743 0.0351652 -1.94468 0
M  V30 1035 C 94.2573 -3.3938 -1.20386 0
M  V30 1036 C 94.1103 -4.49625 -0.125375 0
M  V30 1037 C 95.4293 -3.86039 -2.11334 0
M  V30 1038 H 92.5483 -0.702791 -0.221933 0
M  V30 1039 H 95.1903 -1.8961 0.12175 0
M  V30 1040 H 93.3403 -3.42626 -1.83139 0
M  V30 1041 H 95.0123 -4.58506 0.506971 0
M  V30 1042 H 93.2553 -4.30354 0.545672 0
M  V30 1043 H 93.9263 -5.48967 -0.577861 0
M  V30 1044 H 96.4023 -3.84716 -1.58534 0
M  V30 1045 H 95.2783 -4.88914 -2.49507 0
M  V30 1046 H 95.5393 -3.23215 -3.01636 0
M  V30 1047 N 94.5984 0.214957 -1.56127 0
M  V30 1048 C 95.8234 0.95924 -1.83884 0
M  V30 1049 C 96.2484 1.7689 -0.639644 0
M  V30 1050 O 95.6064 1.76566 0.411601 0
M  V30 1051 C 95.6544 1.84723 -3.09693 0
M  V30 1052 O 94.7584 2.94346 -2.8885 0
M  V30 1053 H 94.0994 0.27125 -0.606069 0
M  V30 1054 H 96.6294 0.226276 -2.03345 0
M  V30 1055 H 96.6394 2.25576 -3.39969 0
M  V30 1056 H 95.3144 1.25218 -3.96602 0
M  V30 1057 H 93.8914 2.57391 -2.69823 0
M  V30 1058 N 96.0765 1.50051 0.48192 0
M  V30 1059 C 97.0245 1.68635 1.60203 0
M  V30 1060 C 98.0185 0.552184 1.60148 0
M  V30 1061 O 99.2245 0.732377 1.64427 0
M  V30 1062 H 95.5995 0.532081 0.531407 0
M  V30 1063 H 97.5705 2.62616 1.41688 0
M  V30 1064 C 96.3195 1.78775 2.9822 0
M  V30 1065 H 95.6425 2.6543 2.98976 0
M  V30 1066 H 97.0825 1.95806 3.7608 0
M  V30 1067 C 95.5415 0.536849 3.32595 0
M  V30 1068 O 96.0715 -0.328897 4.00351 0
M  V30 1069 N 94.2775 0.394091 2.87915 0
M  V30 1070 H 93.8245 1.09962 2.32951 0
M  V30 1071 H 93.7825 -0.441737 3.11281 0
M  V30 1072 N 97.5546 -0.734337 1.39446 0
M  V30 1073 C 98.8006 -1.49613 1.36908 0
M  V30 1074 C 99.1336 -1.94169 -0.0347829 0
M  V30 1075 O 98.4086 -1.66833 -0.999847 0
M  V30 1076 C 98.6916 -2.73534 2.34203 0
M  V30 1077 C 98.5446 -2.34993 3.83534 0
M  V30 1078 C 99.8636 -3.75635 2.29317 0
M  V30 1079 H 96.9826 -0.542714 0.498629 0
M  V30 1080 H 99.6246 -0.839597 1.70443 0
M  V30 1081 H 97.7746 -3.29553 2.05736 0
M  V30 1082 H 99.4466 -1.84601 4.22753 0
M  V30 1083 H 97.6896 -1.67213 4.00278 0
M  V30 1084 H 98.3606 -3.23738 4.47099 0
M  V30 1085 H 100.837 -3.29203 2.54489 0
M  V30 1086 H 99.7126 -4.60008 2.99472 0
M  V30 1087 H 99.9736 -4.22603 1.29842 0
M  V30 1088 N 99.0327 -1.24633 -0.964593 0
M  V30 1089 C 100.258 -1.11596 -1.74818 0
M  V30 1090 C 100.683 0.32723 -1.85232 0
M  V30 1091 O 100.041 1.23695 -1.32549 0
M  V30 1092 C 100.089 -1.76397 -3.1451 0
M  V30 1093 O 99.1927 -1.03685 -3.99153 0
M  V30 1094 H 98.5337 -0.390196 -0.537255 0
M  V30 1095 H 101.064 -1.65002 -1.20977 0
M  V30 1096 H 101.074 -1.8228 -3.65018 0
M  V30 1097 H 99.7487 -2.81401 -3.06246 0
M  V30 1098 H 98.3257 -1.05611 -3.57632 0
M  V30 1099 N 100.511 1.16574 -1.06058 0
M  V30 1100 C 101.458 2.20883 -0.669263 0
M  V30 1101 C 102.428 1.62729 0.332918 0
M  V30 1102 O 103.613 1.895 0.222346 0
M  V30 1103 C 100.753 3.45049 -0.0593572 0
M  V30 1104 C 99.8658 4.17458 -1.11143 0
M  V30 1105 C 99.0008 5.29135 -0.467916 0
M  V30 1106 C 98.0398 5.93343 -1.50369 0
M  V30 1107 N 97.1768 6.96516 -0.883706 0
M  V30 1108 H 102.017 2.53709 -1.5632 0
M  V30 1109 H 99.5538 1.24616 -0.781625 0
M  V30 1110 H 101.512 4.16033 0.311771 0
M  V30 1111 H 100.142 3.12781 0.797992 0
M  V30 1112 H 99.1938 3.45101 -1.60029 0
M  V30 1113 H 100.506 4.61307 -1.89731 0
M  V30 1114 H 99.6598 6.06684 -0.0436871 0
M  V30 1115 H 98.3988 4.86443 0.349864 0
M  V30 1116 H 97.4038 5.14517 -1.93784 0
M  V30 1117 H 98.6288 6.38114 -2.32352 0
M  V30 1118 H 96.5748 6.55943 -0.086595 0
M  V30 1119 H 96.4918 7.38723 -1.607 0
M  V30 1120 H 97.7598 7.77993 -0.484543 0
M  V30 1121 N 101.989 0.842826 1.3317 0
M  V30 1122 C 103.214 0.453129 2.02389 0
M  V30 1123 C 103.639 -0.939105 1.6298 0
M  V30 1124 O 102.997 -1.61472 0.8244 0
M  V30 1125 C 103.045 0.586094 3.55805 0
M  V30 1126 O 102.149 -0.386029 4.10589 0
M  V30 1127 H 101.49 0.183664 0.638094 0
M  V30 1128 H 104.02 1.13875 1.69981 0
M  V30 1129 H 104.03 0.469209 4.05293 0
M  V30 1130 H 102.705 1.6014 3.83833 0
M  V30 1131 H 101.282 -0.226371 3.72212 0
M  V30 1132 N 103.467 -1.45747 0.599634 0
M  V30 1133 C 104.713 -2.03153 0.100263 0
M  V30 1134 C 105.068 -1.46073 -1.25221 0
M  V30 1135 O 104.361 -0.622878 -1.81193 0
M  V30 1136 C 104.555 -3.57399 -0.00602758 0
M  V30 1137 C 104.384 -4.2944 1.3346 0
M  V30 1138 C 103.154 -4.6768 1.91321 0
M  V30 1139 C 105.352 -4.61905 2.2616 0
M  V30 1140 N 103.334 -5.24544 3.18946 0
M  V30 1141 C 104.705 -5.19518 3.3838 0
M  V30 1142 C 106.76 -4.43841 2.25631 0
M  V30 1143 C 105.463 -5.60972 4.50226 0
M  V30 1144 C 107.489 -4.86322 3.36518 0
M  V30 1145 C 106.851 -5.44021 4.4746 0
M  V30 1146 H 102.95 -0.777911 0.0798696 0
M  V30 1147 H 105.534 -1.77674 0.796244 0
M  V30 1148 H 103.705 -3.82556 -0.671212 0
M  V30 1149 H 105.437 -4.01457 -0.51133 0
M  V30 1150 H 102.192 -4.5098 1.44617 0
M  V30 1151 H 102.616 -5.57483 3.84112 0
M  V30 1152 H 107.258 -3.98552 1.41123 0
M  V30 1153 H 104.976 -6.0523 5.35464 0
M  V30 1154 H 108.562 -4.74084 3.37247 0
M  V30 1155 H 107.442 -5.76289 5.31846 0
M  V30 1156 N 104.945 -0.338344 -1.53925 0
M  V30 1157 C 105.875 0.51328 -2.27789 0
M  V30 1158 C 106.856 1.107 -1.29149 0
M  V30 1159 O 108.041 1.12937 -1.57984 0
M  V30 1160 C 105.171 1.66697 -3.04679 0
M  V30 1161 C 104.125 1.20183 -4.1078 0
M  V30 1162 C 103.451 2.44363 -4.75595 0
M  V30 1163 C 104.751 0.30605 -5.21403 0
M  V30 1164 H 106.445 -0.102883 -2.99223 0
M  V30 1165 H 103.991 -0.0509219 -1.4391 0
M  V30 1166 H 105.944 2.26915 -3.55088 0
M  V30 1167 H 104.668 2.30995 -2.30887 0
M  V30 1168 H 103.327 0.622499 -3.61276 0
M  V30 1169 H 102.975 3.07057 -3.98403 0
M  V30 1170 H 102.675 2.13925 -5.47275 0
M  V30 1171 H 104.199 3.05317 -5.28786 0
M  V30 1172 H 105.613 0.814929 -5.67478 0
M  V30 1173 H 104.01 0.0937929 -6.00027 0
M  V30 1174 H 105.08 -0.65921 -4.80398 0
M  V30 1175 N 106.423 1.57458 -0.0668435 0
M  V30 1176 C 107.353 2.15468 0.899764 0
M  V30 1177 C 108.334 1.08042 1.31381 0
M  V30 1178 O 109.519 1.36054 1.38574 0
M  V30 1179 C 106.649 2.71232 2.16911 0
M  V30 1180 C 105.603 3.83781 1.89463 0
M  V30 1181 C 104.929 4.26127 3.22986 0
M  V30 1182 C 106.229 5.08238 1.20381 0
M  V30 1183 H 107.923 2.96488 0.416529 0
M  V30 1184 H 105.469 1.4262 0.198908 0
M  V30 1185 H 107.422 3.10458 2.84945 0
M  V30 1186 H 106.146 1.87426 2.67468 0
M  V30 1187 H 104.805 3.45051 1.23836 0
M  V30 1188 H 104.453 3.39249 3.71374 0
M  V30 1189 H 104.153 5.01993 3.05413 0
M  V30 1190 H 105.677 4.67966 3.92225 0
M  V30 1191 H 107.091 5.44811 1.78475 0
M  V30 1192 H 105.488 5.89349 1.13083 0
M  V30 1193 H 106.558 4.84558 0.182153 0
M  V30 1194 N 107.901 -0.206675 1.56239 0
M  V30 1195 C 108.834 -1.28383 1.88661 0
M  V30 1196 C 109.812 -1.44504 0.745481 0
M  V30 1197 O 110.996 -1.60079 0.995336 0
M  V30 1198 C 108.123 -2.65211 2.10667 0
M  V30 1199 C 107.169 -2.66025 3.33366 0
M  V30 1200 S 108.002 -2.18609 4.88846 0
M  V30 1201 C 109.158 -3.57283 5.13906 0
M  V30 1202 H 109.391 -1.00691 2.7973 0
M  V30 1203 H 106.924 -0.409627 1.48867 0
M  V30 1204 H 108.882 -3.43979 2.24029 0
M  V30 1205 H 107.543 -2.90121 1.20369 0
M  V30 1206 H 106.736 -3.66607 3.45855 0
M  V30 1207 H 106.338 -1.95331 3.18938 0
M  V30 1208 H 108.63 -4.53074 5.03717 0
M  V30 1209 H 109.573 -3.49699 6.15724 0
M  V30 1210 H 109.981 -3.51659 4.41583 0
M  V30 1211 N 109.379 -1.50304 -0.473955 0
M  V30 1212 C 110.628 -1.60392 -1.22301 0
M  V30 1213 C 110.941 -0.308411 -1.93153 0
M  V30 1214 O 112.147 -0.288156 -2.69966 0
M  V30 1215 C 110.603 -2.83109 -2.2221 0
M  V30 1216 C 110.211 -4.19524 -1.57173 0
M  V30 1217 C 111.955 -3.0254 -2.97775 0
M  V30 1218 C 109.862 -5.33431 -2.55353 0
M  V30 1219 H 108.792 -0.597286 -0.460179 0
M  V30 1220 H 111.443 -1.76731 -0.493803 0
M  V30 1221 H 109.825 -2.60322 -2.9841 0
M  V30 1222 H 110.999 -4.52554 -0.867824 0
M  V30 1223 H 109.314 -4.05674 -0.939002 0
M  V30 1224 H 111.911 -3.84811 -3.71248 0
M  V30 1225 H 112.254 -2.14154 -3.56992 0
M  V30 1226 H 112.787 -3.25494 -2.28688 0
M  V30 1227 H 109.526 -6.23962 -2.00878 0
M  V30 1228 H 109.046 -5.04823 -3.23904 0
M  V30 1229 H 110.725 -5.63887 -3.17239 0
M  V30 1230 N 110.857 0.726932 -1.39834 0
M  V30 1231 C 111.789 1.85147 -1.35104 0
M  V30 1232 C 112.802 1.60736 -0.258392 0
M  V30 1233 O 113.991 1.70821 -0.517931 0
M  V30 1234 C 111.091 3.21332 -1.07697 0
M  V30 1235 C 110.264 3.73033 -2.28396 0
M  V30 1236 C 109.323 4.87802 -1.97322 0
M  V30 1237 O 108.349 5.01043 -2.70083 0
M  V30 1238 N 109.551 5.72768 -0.944273 0
M  V30 1239 H 112.316 1.89706 -2.32017 0
M  V30 1240 H 109.877 0.908006 -1.3404 0
M  V30 1241 H 111.869 3.95691 -0.849144 0
M  V30 1242 H 110.439 3.11992 -0.194909 0
M  V30 1243 H 109.659 2.89934 -2.6708 0
M  V30 1244 H 110.947 4.0431 -3.08887 0
M  V30 1245 H 110.345 5.64669 -0.341427 0
M  V30 1246 H 108.902 6.4716 -0.776346 0
M  V30 1247 N 112.336 1.25143 0.95797 0
M  V30 1248 C 113.268 1.01023 2.05735 0
M  V30 1249 C 114.281 -0.0236902 1.62783 0
M  V30 1250 O 115.47 0.21448 1.77207 0
M  V30 1251 C 112.57 0.504595 3.35122 0
M  V30 1252 C 111.743 1.6039 4.06932 0
M  V30 1253 C 110.802 1.09922 5.14591 0
M  V30 1254 O 109.828 1.79293 5.40225 0
M  V30 1255 N 111.03 -0.0612545 5.80468 0
M  V30 1256 H 113.795 1.95683 2.26998 0
M  V30 1257 H 111.356 1.16303 1.12629 0
M  V30 1258 H 113.348 0.151516 4.04416 0
M  V30 1259 H 111.918 -0.347989 3.10657 0
M  V30 1260 H 111.138 2.12872 3.31782 0
M  V30 1261 H 112.426 2.34252 4.51667 0
M  V30 1262 H 111.824 -0.640985 5.62057 0
M  V30 1263 H 110.381 -0.355395 6.5083 0
M  V30 1264 N 113.814 -1.1601 1.06675 0
M  V30 1265 C 115.042 -1.90527 0.806667 0
M  V30 1266 C 115.457 -1.77643 -0.639396 0
M  V30 1267 O 114.814 -1.12369 -1.43803 0
M  V30 1268 C 114.865 -3.41106 1.19705 0
M  V30 1269 O 114.586 -3.53608 2.58636 0
M  V30 1270 C 116.087 -4.32663 0.965266 0
M  V30 1271 H 113.307 -0.604053 0.292166 0
M  V30 1272 H 115.851 -1.47026 1.4214 0
M  V30 1273 H 114.006 -3.82296 0.626774 0
M  V30 1274 H 114.42 -4.47011 2.74375 0
M  V30 1275 H 115.894 -5.36763 1.288 0
M  V30 1276 H 116.371 -4.39089 -0.0987936 0
M  V30 1277 H 116.977 -3.97206 1.52011 0
M  V30 1278 N 115.292 -0.849877 -1.32721 0
M  V30 1279 C 116.202 -0.293791 -2.32753 0
M  V30 1280 C 117.218 0.585906 -1.63839 0
M  V30 1281 O 118.394 0.487413 -1.95413 0
M  V30 1282 C 115.459 0.512752 -3.42887 0
M  V30 1283 C 114.52 -0.39252 -4.27502 0
M  V30 1284 C 113.753 0.375625 -5.32377 0
M  V30 1285 O 113.976 1.60613 -5.4732 0
M  V30 1286 O 112.91 -0.256094 -6.01355 0
M  V30 1287 H 116.736 -1.12242 -2.82197 0
M  V30 1288 H 114.321 -0.612685 -1.36259 0
M  V30 1289 H 116.203 0.970704 -4.10067 0
M  V30 1290 H 114.878 1.31826 -2.95641 0
M  V30 1291 H 113.785 -0.898547 -3.63149 0
M  V30 1292 H 115.118 -1.16309 -4.7826 0
M  V30 1293 N 116.77 1.45427 -0.607355 0
M  V30 1294 C 117.702 2.2871 0.149752 0
M  V30 1295 C 118.715 1.39937 0.831958 0
M  V30 1296 O 119.904 1.64313 0.697385 0
M  V30 1297 C 117.004 3.15673 1.23304 0
M  V30 1298 C 116.177 4.32722 0.637996 0
M  V30 1299 C 115.236 5.00895 1.61215 0
M  V30 1300 O 114.262 5.57697 1.13854 0
M  V30 1301 N 115.464 5.00159 2.94655 0
M  V30 1302 H 118.229 2.94328 -0.564882 0
M  V30 1303 H 115.79 1.55612 -0.446823 0
M  V30 1304 H 117.782 3.58144 1.88454 0
M  V30 1305 H 116.352 2.51965 1.8502 0
M  V30 1306 H 115.572 3.93734 -0.191572 0
M  V30 1307 H 116.86 5.08321 0.220665 0
M  V30 1308 H 116.258 4.553 3.35735 0
M  V30 1309 H 114.815 5.46495 3.55228 0
M  V30 1310 N 118.248 0.346503 1.53744 0
M  V30 1311 C 119.178 -0.501193 2.28058 0
M  V30 1312 C 120.159 -1.10014 1.29734 0
M  V30 1313 O 121.344 -1.12097 1.58581 0
M  V30 1314 C 118.474 -1.65078 3.05559 0
M  V30 1315 C 117.428 -1.18003 4.11411 0
M  V30 1316 C 116.754 -2.41837 4.76884 0
M  V30 1317 C 118.054 -0.278394 5.21558 0
M  V30 1318 H 119.748 0.11875 2.99164 0
M  V30 1319 H 117.294 0.0585531 1.43881 0
M  V30 1320 H 119.247 -2.25028 3.56287 0
M  V30 1321 H 117.971 -2.29767 2.32109 0
M  V30 1322 H 116.63 -0.603331 3.61601 0
M  V30 1323 H 116.278 -3.0494 4.00026 0
M  V30 1324 H 115.978 -2.1102 5.48402 0
M  V30 1325 H 117.502 -3.02508 5.30397 0
M  V30 1326 H 118.916 -0.784823 5.67903 0
M  V30 1327 H 117.313 -0.0619707 6.00068 0
M  V30 1328 H 118.383 0.684677 4.80042 0
M  V30 1329 N 119.726 -1.57421 0.075193 0
M  V30 1330 C 120.951 -1.98364 -0.605515 0
M  V30 1331 C 121.376 -0.953383 -1.62149 0
M  V30 1332 O 120.734 0.0806053 -1.81121 0
M  V30 1333 C 120.782 -3.38332 -1.24756 0
M  V30 1334 O 119.886 -3.37959 -2.36342 0
M  V30 1335 H 119.227 -0.645553 -0.155428 0
M  V30 1336 H 121.757 -2.04044 0.150714 0
M  V30 1337 H 121.767 -3.75591 -1.5936 0
M  V30 1338 H 120.442 -4.12846 -0.503129 0
M  V30 1339 H 119.019 -3.12474 -2.03506 0
M  V30 1340 N 121.204 0.198386 -1.56346 0
M  V30 1341 C 122.62 0.549085 -1.49857 0
M  V30 1342 C 122.82 1.86016 -0.774611 0
M  V30 1343 O 121.876 2.50416 -0.323776 0
M  V30 1344 C 123.189 0.606868 -2.94512 0
M  V30 1345 C 124.737 0.695925 -3.05165 0
M  V30 1346 C 125.212 0.784848 -4.51225 0
M  V30 1347 N 126.703 0.848463 -4.55363 0
M  V30 1348 C 127.438 0.937378 -5.65686 0
M  V30 1349 N 126.934 0.9888 -6.85707 0
M  V30 1350 N 128.727 0.974312 -5.53592 0
M  V30 1351 H 120.878 -0.661655 -2.01831 0
M  V30 1352 H 123.141 -0.235261 -0.918344 0
M  V30 1353 H 122.847 -0.28732 -3.50524 0
M  V30 1354 H 122.721 1.46268 -3.47686 0
M  V30 1355 H 125.108 1.58055 -2.49204 0
M  V30 1356 H 125.189 -0.186022 -2.55123 0
M  V30 1357 H 124.833 -0.0954072 -5.0781 0
M  V30 1358 H 124.763 1.68255 -4.98997 0
M  V30 1359 H 127.254 0.818103 -3.68938 0
M  V30 1360 H 127.567 1.05707 -7.65536 0
M  V30 1361 H 125.912 0.957534 -6.88372 0
M  V30 1362 H 129.103 0.930954 -4.58749 0
M  V30 1363 H 129.276 1.04015 -6.39597 0
M  V30 1364 N 122.682 1.50554 0.465978 0
M  V30 1365 C 123.931 1.61038 1.21448 0
M  V30 1366 C 124.244 0.31865 1.92987 0
M  V30 1367 O 125.45 0.302469 2.6981 0
M  V30 1368 C 123.906 2.84283 2.20706 0
M  V30 1369 C 123.514 4.20352 1.54946 0
M  V30 1370 C 125.258 3.04115 2.96166 0
M  V30 1371 C 123.165 5.34778 2.5252 0
M  V30 1372 H 122.095 0.599718 0.457005 0
M  V30 1373 H 124.746 1.7699 0.484424 0
M  V30 1374 H 123.128 2.61901 2.97025 0
M  V30 1375 H 124.302 4.53008 0.843811 0
M  V30 1376 H 122.617 4.06167 0.917475 0
M  V30 1377 H 125.214 3.86774 3.69202 0
M  V30 1378 H 125.557 2.16045 3.55852 0
M  V30 1379 H 126.09 3.26702 2.26959 0
M  V30 1380 H 122.829 6.25018 1.97566 0
M  V30 1381 H 122.349 5.06534 3.21222 0
M  V30 1382 H 124.028 5.65561 3.14245 0
M  V30 1383 N 124.16 -0.719506 1.40217 0
M  V30 1384 C 125.093 -1.84298 1.34571 0
M  V30 1385 C 126.071 -1.61149 0.216741 0
M  V30 1386 O 127.255 -1.84212 0.399756 0
M  V30 1387 C 124.382 -3.20568 1.09335 0
M  V30 1388 C 123.428 -3.62551 2.24631 0
M  V30 1389 S 124.261 -3.7012 3.87004 0
M  V30 1390 C 125.417 -5.09154 3.64024 0
M  V30 1391 H 125.65 -1.88807 2.2965 0
M  V30 1392 H 123.183 -0.885901 1.26456 0
M  V30 1393 H 125.141 -3.99246 0.954602 0
M  V30 1394 H 123.802 -3.13696 0.159164 0
M  V30 1395 H 122.995 -4.61483 2.02606 0
M  V30 1396 H 122.597 -2.91119 2.34789 0
M  V30 1397 H 124.889 -5.95955 3.22248 0
M  V30 1398 H 125.832 -5.36213 4.62473 0
M  V30 1399 H 126.24 -4.79562 2.97793 0
M  V30 1400 N 125.638 -1.25649 -0.95132 0
M  V30 1401 C 126.585 -1.06323 -2.04851 0
M  V30 1402 C 127.555 0.0286491 -1.66075 0
M  V30 1403 O 128.74 -0.12917 -1.90362 0
M  V30 1404 C 125.88 -0.691529 -3.381 0
M  V30 1405 C 124.993 -1.85861 -3.89974 0
M  V30 1406 C 124.128 -1.43096 -5.11563 0
M  V30 1407 C 123.167 -2.56696 -5.55674 0
M  V30 1408 N 122.304 -2.14684 -6.68472 0
M  V30 1409 H 127.144 -2.00222 -2.20715 0
M  V30 1410 H 124.681 -0.997027 -1.08156 0
M  V30 1411 H 126.639 -0.456963 -4.1469 0
M  V30 1412 H 125.269 0.210474 -3.22113 0
M  V30 1413 H 124.321 -2.20639 -3.09875 0
M  V30 1414 H 125.633 -2.71161 -4.18657 0
M  V30 1415 H 124.787 -1.15624 -5.9558 0
M  V30 1416 H 123.526 -0.548722 -4.84603 0
M  V30 1417 H 122.531 -2.84909 -4.7022 0
M  V30 1418 H 123.756 -3.45503 -5.8464 0
M  V30 1419 H 121.702 -1.28881 -6.43215 0
M  V30 1420 H 121.619 -2.9353 -6.96689 0
M  V30 1421 H 122.887 -1.90397 -7.5589 0
M  V30 1422 N 127.117 1.15442 -1.07289 0
M  V30 1423 C 128.345 1.90096 -0.81676 0
M  V30 1424 C 128.76 1.7798 0.629966 0
M  V30 1425 O 128.117 1.1313 1.43206 0
M  V30 1426 C 128.168 3.40466 -1.21512 0
M  V30 1427 O 127.889 3.52232 -2.60508 0
M  V30 1428 C 129.39 4.32145 -0.988198 0
M  V30 1429 H 126.61 0.602495 -0.295366 0
M  V30 1430 H 129.154 1.4627 -1.42918 0
M  V30 1431 H 127.309 3.81958 -0.647039 0
M  V30 1432 H 127.723 4.45549 -2.76742 0
M  V30 1433 H 129.197 5.36072 -1.31645 0
M  V30 1434 H 129.674 4.39135 0.0755063 0
M  V30 1435 H 130.28 3.96395 -1.54115 0
M  V30 1436 N 128.595 0.856903 1.32268 0
M  V30 1437 C 129.545 0.274899 2.26337 0
M  V30 1438 C 130.529 -0.580543 1.50062 0
M  V30 1439 O 131.721 -0.429559 1.71708 0
M  V30 1440 C 128.85 -0.533841 3.39124 0
M  V30 1441 C 127.936 0.334114 4.22782 0
M  V30 1442 N 128.327 1.42143 4.85416 0
M  V30 1443 C 126.625 0.124256 4.45827 0
M  V30 1444 C 127.326 1.95559 5.47843 0
M  V30 1445 N 126.302 1.25444 5.28928 0
M  V30 1446 H 130.104 1.10612 2.72291 0
M  V30 1447 H 127.618 0.703258 1.46383 0
M  V30 1448 H 129.615 -0.96722 4.05525 0
M  V30 1449 H 128.275 -1.36283 2.94715 0
M  V30 1450 H 129.286 1.80436 4.85451 0
M  V30 1451 H 125.963 -0.669837 4.12092 0
M  V30 1452 H 127.353 2.86714 6.07655 0
M  V30 1453 N 130.073 -1.45103 0.615059 0
M  V30 1454 C 131.036 -2.29025 -0.0895485 0
M  V30 1455 C 132.036 -1.40174 -0.787906 0
M  V30 1456 O 133.226 -1.62217 -0.634933 0
M  V30 1457 C 130.358 -3.21376 -1.13711 0
M  V30 1458 H 131.551 -2.92807 0.648382 0
M  V30 1459 H 129.104 -1.51749 0.374444 0
M  V30 1460 H 129.839 -2.6241 -1.90556 0
M  V30 1461 H 129.624 -3.86834 -0.640475 0
M  V30 1462 H 131.114 -3.84459 -1.63036 0
M  V30 1463 N 131.551 -0.354651 -1.53558 0
M  V30 1464 C 132.461 0.50515 -2.29097 0
M  V30 1465 C 133.477 1.10223 -1.34636 0
M  V30 1466 O 134.653 1.11553 -1.67684 0
M  V30 1467 C 131.718 1.63479 -3.05738 0
M  V30 1468 C 130.779 1.06636 -4.15845 0
M  V30 1469 C 130.012 2.14217 -4.88822 0
M  V30 1470 O 130.235 3.35137 -4.61562 0
M  V30 1471 O 129.169 1.77887 -5.75013 0
M  V30 1472 H 132.995 -0.109237 -3.03503 0
M  V30 1473 H 130.58 -0.119357 -1.48922 0
M  V30 1474 H 132.462 2.2918 -3.5363 0
M  V30 1475 H 131.137 2.23478 -2.34178 0
M  V30 1476 H 130.044 0.373565 -3.7223 0
M  V30 1477 H 131.377 0.511081 -4.89539 0
M  V30 1478 N 133.029 1.57378 -0.0835403 0
M  V30 1479 C 134.306 1.85363 0.624507 0
M  V30 1480 C 134.686 0.978239 1.87066 0
M  V30 1481 O 134.034 0.0475908 2.2845 0
M  V30 1482 C 134.244 3.35795 0.950947 0
M  V30 1483 C 135.592 4.03581 1.31939 0
M  V30 1484 O 136.616 3.40609 1.04232 0
M  V30 1485 O 135.475 5.14672 1.83779 0
M  V30 1486 H 132.569 0.766162 0.311329 0
M  V30 1487 H 135.115 1.69307 -0.115362 0
M  V30 1488 H 133.887 3.91244 0.0663899 0
M  V30 1489 H 133.51 3.57154 1.74719 0
M  V30 1490 N 134.507 -0.190092 1.56449 0
M  V30 1491 C 135.437 -1.23816 1.97969 0
M  V30 1492 C 136.418 -1.47201 0.852395 0
M  V30 1493 O 137.603 -1.58854 1.1171 0
M  V30 1494 C 134.733 -2.5813 2.3235 0
M  V30 1495 C 133.687 -2.49348 3.47864 0
M  V30 1496 C 133.013 -3.8798 3.67934 0
M  V30 1497 C 134.313 -2.01424 4.81898 0
M  V30 1498 H 136.007 -0.89311 2.85769 0
M  V30 1499 H 133.553 -0.428177 1.37487 0
M  V30 1500 H 135.506 -3.31637 2.59991 0
M  V30 1501 H 134.23 -2.94386 1.41438 0
M  V30 1502 H 132.889 -1.78297 3.20321 0
M  V30 1503 H 132.537 -4.21597 2.74344 0
M  V30 1504 H 132.237 -3.82978 4.45648 0
M  V30 1505 H 133.761 -4.63101 3.97957 0
M  V30 1506 H 135.175 -2.64693 5.08538 0
M  V30 1507 H 133.572 -2.07413 5.63116 0
M  V30 1508 H 134.642 -0.967677 4.75146 0
M  V30 1509 N 135.985 -1.50799 -0.457987 0
M  V30 1510 C 136.933 -1.71162 -1.575 0
M  V30 1511 C 137.927 -0.577592 -1.59249 0
M  V30 1512 O 139.133 -0.758443 -1.63241 0
M  V30 1513 H 135.508 -0.540468 -0.522875 0
M  V30 1514 H 137.479 -2.64837 -1.37492 0
M  V30 1515 C 136.228 -1.83496 -2.95338 0
M  V30 1516 H 135.551 -2.70153 -2.94716 0
M  V30 1517 H 136.991 -2.01765 -3.72917 0
M  V30 1518 C 135.45 -0.589694 -3.31699 0
M  V30 1519 O 135.98 0.265163 -4.00824 0
M  V30 1520 N 134.186 -0.439845 -2.87252 0
M  V30 1521 H 133.733 -1.13655 -2.31172 0
M  V30 1522 H 133.691 0.392159 -3.11945 0
M  V30 1523 N 137.463 0.71206 -1.40597 0
M  V30 1524 C 138.688 1.50617 -1.42581 0
M  V30 1525 C 139.113 1.88079 -0.0282102 0
M  V30 1526 O 138.471 1.53511 0.964579 0
M  V30 1527 C 138.519 2.7557 -2.3258 0
M  V30 1528 O 137.623 3.72414 -1.77148 0
M  V30 1529 H 136.964 0.453966 -0.484573 0
M  V30 1530 H 139.494 0.876649 -1.84868 0
M  V30 1531 H 139.504 3.2406 -2.47889 0
M  V30 1532 H 138.179 2.47639 -3.34138 0
M  V30 1533 H 136.756 3.31276 -1.71204 0
M  V30 1534 N 138.941 1.26152 0.944643 0
M  V30 1535 C 140.189 1.11271 1.6871 0
M  V30 1536 C 140.51 -0.345166 1.91921 0
M  V30 1537 O 139.78 -1.24387 1.51343 0
M  V30 1538 H 138.36 0.408783 0.625224 0
M  V30 1539 H 141.022 1.58427 1.1352 0
M  V30 1540 H 140.118 1.62879 2.66227 0
M  V30 1541 N 140.419 -1.14872 1.07899 0
M  V30 1542 C 141.83 -1.67367 0.827363 0
M  V30 1543 C 142.181 -1.85236 -0.646693 0
M  V30 1544 O 141.306 -1.55974 -1.50004 0
M  V30 1545 C 141.901 -3.04016 1.49532 0
M  V30 1546 C 140.46 -3.53566 1.29106 0
M  V30 1547 C 139.607 -2.29161 1.56143 0
M  V30 1548 H 142.558 -0.990083 1.24028 0
M  V30 1549 H 142.579 -3.69219 0.919643 0
M  V30 1550 H 142.091 -2.90978 2.56814 0
M  V30 1551 H 140.192 -3.71835 0.238713 0
M  V30 1552 H 140.305 -4.34661 2.01511 0
M  V30 1553 H 138.669 -2.34978 0.982717 0
M  V30 1554 H 139.452 -2.18705 2.64619 0
M  V30 1555 N 141.898 -0.863906 -1.31812 0
M  V30 1556 C 142.828 -0.330843 -2.31144 0
M  V30 1557 C 143.809 0.575005 -1.60087 0
M  V30 1558 O 144.994 0.493304 -1.8783 0
M  V30 1559 C 142.124 0.47374 -3.44054 0
M  V30 1560 C 141.078 -0.338481 -4.26659 0
M  V30 1561 C 140.404 0.591412 -5.31419 0
M  V30 1562 C 141.704 -1.56926 -4.98168 0
M  V30 1563 H 143.398 -1.16086 -2.75979 0
M  V30 1564 H 140.944 -0.559657 -1.32679 0
M  V30 1565 H 142.897 0.857143 -4.12591 0
M  V30 1566 H 141.621 1.33721 -2.9797 0
M  V30 1567 H 140.28 -0.703754 -3.59782 0
M  V30 1568 H 139.928 1.45199 -4.81587 0
M  V30 1569 H 139.628 0.0519022 -5.87577 0
M  V30 1570 H 141.152 0.97179 -6.02817 0
M  V30 1571 H 142.566 -1.25764 -5.59336 0
M  V30 1572 H 140.963 -2.04739 -5.64094 0
M  V30 1573 H 142.033 -2.32544 -4.25501 0
M  V30 1574 N 143.376 1.44774 -0.622745 0
M  V30 1575 C 144.326 2.2774 0.108889 0
M  V30 1576 C 145.31 1.38189 0.824175 0
M  V30 1577 O 146.502 1.62063 0.711664 0
M  V30 1578 C 143.631 3.25353 1.09546 0
M  V30 1579 C 142.717 4.22392 0.380232 0
M  V30 1580 N 143.108 5.02388 -0.586535 0
M  V30 1581 C 141.406 4.41588 0.625792 0
M  V30 1582 C 142.107 5.72894 -1.00834 0
M  V30 1583 N 141.083 5.42479 -0.348878 0
M  V30 1584 H 144.885 2.86993 -0.63341 0
M  V30 1585 H 142.399 1.5611 -0.447589 0
M  V30 1586 H 144.396 3.83538 1.63414 0
M  V30 1587 H 143.056 2.6766 1.83815 0
M  V30 1588 H 144.067 5.0885 -0.963975 0
M  V30 1589 H 140.744 3.95003 1.352 0
M  V30 1590 H 142.134 6.47158 -1.80656 0
M  V30 1591 N 144.854 0.36279 1.53368 0
M  V30 1592 C 146.27 0.0116182 1.59596 0
M  V30 1593 C 146.47 -1.47012 1.37803 0
M  V30 1594 O 145.526 -2.23136 1.18181 0
M  V30 1595 C 146.839 0.465052 2.97082 0
M  V30 1596 C 148.387 0.419033 3.10182 0
M  V30 1597 C 148.862 0.848235 4.50077 0
M  V30 1598 N 150.353 0.803183 4.56183 0
M  V30 1599 C 151.088 1.107 5.62613 0
M  V30 1600 N 150.584 1.47996 6.76808 0
M  V30 1601 N 152.377 1.02998 5.52583 0
M  V30 1602 H 144.528 1.32775 1.65785 0
M  V30 1603 H 146.791 0.542518 0.777417 0
M  V30 1604 H 146.497 1.49892 3.18159 0
M  V30 1605 H 146.371 -0.149786 3.76902 0
M  V30 1606 H 148.758 -0.605696 2.88817 0
M  V30 1607 H 148.839 1.06933 2.32377 0
M  V30 1608 H 148.483 1.87107 4.7218 0
M  V30 1609 H 148.413 0.175218 5.26308 0
M  V30 1610 H 150.904 0.52838 3.74188 0
M  V30 1611 H 151.217 1.69613 7.53957 0
M  V30 1612 H 149.562 1.51859 6.78206 0
M  V30 1613 H 152.753 0.737817 4.62249 0
M  V30 1614 H 152.926 1.2701 6.35431 0
M  V30 1615 N 146.332 -1.57332 0.0918853 0
M  V30 1616 C 147.262 -2.16872 -0.865371 0
M  V30 1617 C 148.243 -1.10118 -1.29646 0
M  V30 1618 O 149.428 -1.38242 -1.36392 0
M  V30 1619 C 146.558 -2.74649 -2.12569 0
M  V30 1620 C 145.512 -3.86747 -1.83333 0
M  V30 1621 C 144.838 -4.31212 -3.16166 0
M  V30 1622 C 146.138 -5.10089 -1.1228 0
M  V30 1623 H 147.832 -2.97114 -0.369307 0
M  V30 1624 H 145.378 -1.42918 -0.176194 0
M  V30 1625 H 147.331 -3.14952 -2.7997 0
M  V30 1626 H 146.055 -1.91657 -2.64452 0
M  V30 1627 H 144.714 -3.46978 -1.18331 0
M  V30 1628 H 144.362 -3.45115 -3.6593 0
M  V30 1629 H 144.062 -5.06788 -2.97388 0
M  V30 1630 H 145.586 -4.74146 -3.84731 0
M  V30 1631 H 147 -5.47582 -1.69785 0
M  V30 1632 H 145.397 -5.91073 -1.03693 0
M  V30 1633 H 146.467 -4.84786 -0.105041 0
M  V30 1634 N 147.81 0.181792 -1.56548 0
M  V30 1635 C 149.038 0.915947 -1.85521 0
M  V30 1636 C 149.453 1.76282 -0.676016 0
M  V30 1637 O 148.81 1.79012 0.355077 0
M  V30 1638 C 148.861 1.80126 -3.13427 0
M  V30 1639 O 148.582 0.988562 -4.26801 0
M  V30 1640 C 150.083 2.64597 -3.55673 0
M  V30 1641 H 147.303 0.26661 -0.61576 0
M  V30 1642 H 149.847 0.185039 -2.03661 0
M  V30 1643 H 148.002 2.48563 -2.97145 0
M  V30 1644 H 148.416 1.59308 -4.99721 0
M  V30 1645 H 149.89 3.2235 -4.48101 0
M  V30 1646 H 150.367 3.38958 -2.79292 0
M  V30 1647 H 150.973 2.0151 -3.74532 0
M  V30 1648 N 149.288 1.51039 0.449983 0
M  V30 1649 C 150.221 1.66105 1.56474 0
M  V30 1650 C 151.199 0.508776 1.54435 0
M  V30 1651 O 152.383 0.731005 1.73749 0
M  V30 1652 C 149.51 1.66304 2.9506 0
M  V30 1653 C 148.556 2.87346 3.15174 0
M  V30 1654 S 149.389 4.4835 2.92818 0
M  V30 1655 C 150.545 4.51274 4.33708 0
M  V30 1656 H 150.778 2.60397 1.43459 0
M  V30 1657 H 148.311 1.40565 0.638805 0
M  V30 1658 H 150.269 1.67103 3.74949 0
M  V30 1659 H 148.93 0.732108 3.05449 0
M  V30 1660 H 148.123 2.83849 4.16468 0
M  V30 1661 H 147.725 2.84223 2.43091 0
M  V30 1662 H 150.017 4.26136 5.26701 0
M  V30 1663 H 150.96 5.53017 4.42242 0
M  V30 1664 H 151.368 3.80738 4.16772 0
M  V30 1665 N 150.766 -0.704594 1.40972 0
M  V30 1666 C 151.699 -1.82861 1.36518 0
M  V30 1667 C 152.677 -1.6091 0.23382 0
M  V30 1668 O 153.861 -1.83778 0.419271 0
M  V30 1669 C 150.988 -3.1939 1.12729 0
M  V30 1670 C 150.034 -3.60148 2.28463 0
M  V30 1671 S 150.867 -3.65994 3.90907 0
M  V30 1672 C 152.023 -5.05264 3.69403 0
M  V30 1673 H 152.256 -1.86361 2.3164 0
M  V30 1674 H 149.789 -0.872439 1.27389 0
M  V30 1675 H 151.747 -3.98211 0.996893 0
M  V30 1676 H 150.408 -3.1351 0.192427 0
M  V30 1677 H 149.601 -4.59309 2.07489 0
M  V30 1678 H 149.203 -2.88612 2.37863 0
M  V30 1679 H 151.495 -5.92504 3.28551 0
M  V30 1680 H 152.438 -5.31278 4.68134 0
M  V30 1681 H 152.846 -4.76377 3.02862 0
M  V30 1682 N 152.244 -1.26651 -0.937939 0
M  V30 1683 C 153.493 -1.11775 -1.67897 0
M  V30 1684 C 153.806 0.33794 -1.92659 0
M  V30 1685 O 155.012 0.607434 -2.64618 0
M  V30 1686 C 153.468 -1.9523 -3.02346 0
M  V30 1687 C 153.076 -3.45393 -2.8532 0
M  V30 1688 C 154.82 -1.88972 -3.80118 0
M  V30 1689 C 152.727 -4.21083 -4.15263 0
M  V30 1690 H 151.657 -0.414696 -0.629717 0
M  V30 1691 H 154.308 -1.50988 -1.04283 0
M  V30 1692 H 152.69 -1.48853 -3.66959 0
M  V30 1693 H 153.864 -3.99561 -2.29537 0
M  V30 1694 H 152.179 -3.52921 -2.20988 0
M  V30 1695 H 154.776 -2.42805 -4.76392 0
M  V30 1696 H 155.119 -0.86113 -4.07296 0
M  V30 1697 H 155.652 -2.33189 -3.22285 0
M  V30 1698 H 152.391 -5.24425 -3.93267 0
M  V30 1699 H 151.911 -3.71695 -4.70747 0
M  V30 1700 H 153.59 -4.29706 -4.83696 0
M  V30 1701 N 153.722 1.14298 -1.08507 0
M  V30 1702 C 154.669 2.19414 -0.715965 0
M  V30 1703 C 155.639 1.63399 0.298326 0
M  V30 1704 O 156.824 1.89929 0.182101 0
M  V30 1705 C 153.964 3.44845 -0.132534 0
M  V30 1706 C 153.077 4.15007 -1.19973 0
M  V30 1707 C 152.212 5.28024 -0.580048 0
M  V30 1708 C 151.251 5.9002 -1.62921 0
M  V30 1709 N 150.388 6.94485 -1.03125 0
M  V30 1710 H 155.228 2.50336 -1.61666 0
M  V30 1711 H 152.765 1.2293 -0.807882 0
M  V30 1712 H 154.723 4.16601 0.223454 0
M  V30 1713 H 153.353 3.14403 0.731467 0
M  V30 1714 H 152.405 3.41629 -1.67313 0
M  V30 1715 H 153.717 4.57178 -1.99473 0
M  V30 1716 H 152.871 6.06455 -0.172364 0
M  V30 1717 H 151.61 4.87076 0.246603 0
M  V30 1718 H 150.615 5.10291 -2.04654 0
M  V30 1719 H 151.84 6.33042 -2.45835 0
M  V30 1720 H 149.786 6.55612 -0.225711 0
M  V30 1721 H 149.703 7.35148 -1.76334 0
M  V30 1722 H 150.971 7.7679 -0.649458 0
M  V30 1723 N 155.201 0.870884 1.31352 0
M  V30 1724 C 156.478 0.402907 1.91405 0
M  V30 1725 C 156.858 -1.11512 1.79244 0
M  V30 1726 O 156.206 -1.94411 1.2007 0
M  V30 1727 C 156.416 0.885301 3.37585 0
M  V30 1728 C 157.764 0.911971 4.14691 0
M  V30 1729 O 158.788 0.831016 3.46371 0
M  V30 1730 O 157.647 1.02927 5.3672 0
M  V30 1731 H 154.741 0.120698 0.818145 0
M  V30 1732 H 157.287 0.958857 1.40014 0
M  V30 1733 H 156.059 1.92889 3.40455 0
M  V30 1734 H 155.682 0.307714 3.96407 0
M  V30 1735 N 156.679 -1.44442 0.630414 0
M  V30 1736 C 157.626 -2.30678 -0.0749355 0
M  V30 1737 C 158.596 -1.4344 -0.837502 0
M  V30 1738 O 159.781 -1.72343 -0.818684 0
M  V30 1739 C 156.921 -3.28706 -1.05103 0
M  V30 1740 C 156.034 -4.31046 -0.286954 0
M  V30 1741 C 155.169 -5.16167 -1.2548 0
M  V30 1742 C 154.208 -6.10216 -0.479843 0
M  V30 1743 N 153.345 -6.88039 -1.39811 0
M  V30 1744 H 158.185 -2.90454 0.666386 0
M  V30 1745 H 155.722 -1.43107 0.340404 0
M  V30 1746 H 157.68 -3.84027 -1.63031 0
M  V30 1747 H 156.31 -2.70632 -1.75949 0
M  V30 1748 H 155.362 -3.78203 0.408243 0
M  V30 1749 H 156.674 -4.97794 0.316657 0
M  V30 1750 H 155.828 -5.76002 -1.90544 0
M  V30 1751 H 154.567 -4.49491 -1.89233 0
M  V30 1752 H 153.572 -5.49491 0.184295 0
M  V30 1753 H 154.797 -6.78928 0.152965 0
M  V30 1754 H 152.743 -6.24032 -2.02287 0
M  V30 1755 H 152.66 -7.51223 -0.848508 0
M  V30 1756 H 153.928 -7.52397 -2.03762 0
M  V30 1757 N 158.157 -0.370918 -1.53173 0
M  V30 1758 C 159.089 0.507823 -2.23503 0
M  V30 1759 C 160.102 1.04182 -1.251 0
M  V30 1760 O 161.291 0.947286 -1.5129 0
M  V30 1761 C 158.391 1.71447 -2.92334 0
M  V30 1762 C 157.564 1.31105 -4.17289 0
M  V30 1763 C 156.623 2.38035 -4.69282 0
M  V30 1764 O 155.649 2.00204 -5.32829 0
M  V30 1765 N 156.851 3.69697 -4.47554 0
M  V30 1766 H 159.616 -0.0946382 -2.99551 0
M  V30 1767 H 157.177 -0.196358 -1.60705 0
M  V30 1768 H 159.169 2.42469 -3.24023 0
M  V30 1769 H 157.739 2.22368 -2.19707 0
M  V30 1770 H 156.959 0.430462 -3.91843 0
M  V30 1771 H 158.247 1.0179 -4.98514 0
M  V30 1772 H 157.645 4.03205 -3.9679 0
M  V30 1773 H 156.202 4.36807 -4.8378 0
M  V30 1774 N 159.635 1.57281 -0.100228 0
M  V30 1775 C 160.567 2.11342 0.886972 0
M  V30 1776 C 161.58 1.05182 1.24261 0
M  V30 1777 O 162.769 1.32613 1.19483 0
M  V30 1778 C 159.869 2.5825 2.19454 0
M  V30 1779 C 159.042 3.88302 2.01346 0
M  V30 1780 C 158.101 4.21004 3.15661 0
M  V30 1781 O 157.127 4.9014 2.89398 0
M  V30 1782 N 158.329 3.76818 4.41575 0
M  V30 1783 H 161.094 2.96668 0.425216 0
M  V30 1784 H 158.655 1.61678 0.0847334 0
M  V30 1785 H 160.647 2.7717 2.94888 0
M  V30 1786 H 159.217 1.77907 2.57037 0
M  V30 1787 H 158.437 3.7848 1.10212 0
M  V30 1788 H 159.725 4.73375 1.8653 0
M  V30 1789 H 159.123 3.2102 4.65792 0
M  V30 1790 H 157.68 4.00882 5.13942 0
M  V30 1791 N 161.113 -0.173488 1.56642 0
M  V30 1792 C 162.359 -0.891784 1.8214 0
M  V30 1793 C 162.692 -1.8199 0.677736 0
M  V30 1794 O 161.967 -1.91842 -0.320446 0
M  V30 1795 C 162.25 -1.68933 3.18015 0
M  V30 1796 C 162.103 -0.784487 4.42906 0
M  V30 1797 C 163.422 -2.65748 3.50808 0
M  V30 1798 H 160.541 -0.322761 0.662567 0
M  V30 1799 H 163.183 -0.158095 1.89341 0
M  V30 1800 H 161.333 -2.31482 3.12007 0
M  V30 1801 H 163.005 -0.172046 4.60979 0
M  V30 1802 H 161.248 -0.0924117 4.33702 0
M  V30 1803 H 161.919 -1.37799 5.34524 0
M  V30 1804 H 164.395 -2.13327 3.57255 0
M  V30 1805 H 163.271 -3.18619 4.4696 0
M  V30 1806 H 163.532 -3.45842 2.75401 0
M  V30 1807 N 162.591 -1.51276 -0.441967 0
M  V30 1808 C 163.538 -1.72256 -1.53612 0
M  V30 1809 C 164.508 -0.564164 -1.56225 0
M  V30 1810 O 165.693 -0.798074 -1.73307 0
M  V30 1811 C 162.833 -1.84932 -2.91366 0
M  V30 1812 C 161.946 -3.12459 -2.98317 0
M  V30 1813 C 161.081 -3.15758 -4.27166 0
M  V30 1814 C 160.12 -4.37619 -4.27967 0
M  V30 1815 N 159.257 -4.38493 -5.48333 0
M  V30 1816 H 164.097 -2.65654 -1.35026 0
M  V30 1817 H 161.634 -1.31662 -0.656009 0
M  V30 1818 H 163.592 -1.90263 -3.7129 0
M  V30 1819 H 162.222 -0.949461 -3.08521 0
M  V30 1820 H 161.274 -3.1646 -2.11086 0
M  V30 1821 H 162.586 -4.02382 -2.94771 0
M  V30 1822 H 161.74 -3.19979 -5.15459 0
M  V30 1823 H 160.479 -2.23715 -4.33362 0
M  V30 1824 H 159.484 -4.33579 -3.38067 0
M  V30 1825 H 160.709 -5.30921 -4.23438 0
M  V30 1826 H 158.655 -3.49318 -5.55259 0
M  V30 1827 H 158.572 -5.22219 -5.46647 0
M  V30 1828 H 159.84 -4.469 -6.38671 0
M  V30 1829 N 164.069 0.697108 -1.41344 0
M  V30 1830 C 165.016 1.81106 -1.43071 0
M  V30 1831 C 165.986 1.63632 -0.285275 0
M  V30 1832 O 167.171 1.84504 -0.486091 0
M  V30 1833 C 164.311 3.18975 -1.31715 0
M  V30 1834 C 163.424 3.47892 -2.56115 0
M  V30 1835 C 162.559 4.75367 -2.37064 0
M  V30 1836 C 161.598 4.97247 -3.56948 0
M  V30 1837 N 160.735 6.15947 -3.36977 0
M  V30 1838 H 165.575 1.78965 -2.38276 0
M  V30 1839 H 163.112 0.873975 -1.18322 0
M  V30 1840 H 165.07 3.98615 -1.23133 0
M  V30 1841 H 163.7 3.20297 -0.401183 0
M  V30 1842 H 162.752 2.62669 -2.75153 0
M  V30 1843 H 164.064 3.59962 -3.45295 0
M  V30 1844 H 163.218 5.63059 -2.25941 0
M  V30 1845 H 161.957 4.65541 -1.45338 0
M  V30 1846 H 160.962 4.08004 -3.68527 0
M  V30 1847 H 162.187 5.08934 -4.49626 0
M  V30 1848 H 160.133 6.07336 -2.47949 0
M  V30 1849 H 160.05 6.28777 -4.19732 0
M  V30 1850 H 161.318 7.06377 -3.29623 0
M  V30 1851 N 165.547 1.27147 0.931209 0
M  V30 1852 C 166.772 1.16191 1.71797 0
M  V30 1853 C 167.197 -0.278004 1.86034 0
M  V30 1854 O 166.555 -1.20137 1.35782 0
M  V30 1855 C 166.603 1.84673 3.09723 0
M  V30 1856 O 165.707 1.14231 3.96264 0
M  V30 1857 H 165.048 0.404303 0.526721 0
M  V30 1858 H 167.578 1.68152 1.1656 0
M  V30 1859 H 167.588 1.91893 3.60057 0
M  V30 1860 H 166.263 2.89421 2.98677 0
M  V30 1861 H 164.84 1.15056 3.54706 0
M  V30 1862 N 167.025 -1.13721 1.09112 0
M  V30 1863 C 168.255 -1.88499 0.845671 0
M  V30 1864 C 168.663 -1.79218 -0.606432 0
M  V30 1865 O 168.006 -1.1544 -1.42896 0
M  V30 1866 C 168.068 -3.38954 1.19793 0
M  V30 1867 C 167.732 -3.72018 2.65428 0
M  V30 1868 C 168.729 -3.7153 3.63677 0
M  V30 1869 C 166.414 -4.01775 3.01467 0
M  V30 1870 C 168.408 -4.00336 4.95994 0
M  V30 1871 C 166.095 -4.30243 4.33975 0
M  V30 1872 C 167.093 -4.29508 5.31048 0
M  V30 1873 O 166.781 -4.5728 6.61173 0
M  V30 1874 H 166.513 -0.603702 0.304171 0
M  V30 1875 H 169.067 -1.44903 1.45576 0
M  V30 1876 H 167.297 -3.83039 0.530871 0
M  V30 1877 H 168.986 -3.95052 0.932146 0
M  V30 1878 H 169.752 -3.4862 3.37179 0
M  V30 1879 H 165.631 -4.01496 2.26544 0
M  V30 1880 H 169.175 -3.99678 5.71755 0
M  V30 1881 H 165.072 -4.52625 4.60219 0
M  V30 1882 H 165.84 -4.74964 6.66597 0
M  V30 1883 N 168.503 -0.877838 -1.30888 0
M  V30 1884 C 169.752 -0.488793 -1.95688 0
M  V30 1885 C 170.065 0.965485 -1.70111 0
M  V30 1886 O 171.271 1.46104 -2.28836 0
M  V30 1887 C 169.727 -0.823201 -3.50359 0
M  V30 1888 C 169.335 -2.29477 -3.84765 0
M  V30 1889 C 171.079 -0.503009 -4.21509 0
M  V30 1890 C 168.986 -2.57118 -5.32583 0
M  V30 1891 H 167.916 -0.179062 -0.732429 0
M  V30 1892 H 170.567 -1.07183 -1.48943 0
M  V30 1893 H 168.949 -0.169331 -3.95638 0
M  V30 1894 H 170.123 -2.99236 -3.5042 0
M  V30 1895 H 168.438 -2.58178 -3.267 0
M  V30 1896 H 171.035 -0.68665 -5.30273 0
M  V30 1897 H 171.378 0.557109 -4.12555 0
M  V30 1898 H 171.911 -1.11376 -3.8189 0
M  V30 1899 H 168.65 -3.61843 -5.4658 0
M  V30 1900 H 168.17 -1.91961 -5.68253 0
M  V30 1901 H 169.849 -2.42251 -5.99936 0
M  V30 1902 N 169.982 1.44106 -0.638065 0
M  V30 1903 C 171.23 2.01579 -0.145043 0
M  V30 1904 C 171.551 1.50496 1.24 0
M  V30 1905 O 170.821 0.711374 1.82527 0
M  V30 1906 H 169.401 0.745282 -0.05063 0
M  V30 1907 H 172.063 1.76516 -0.826327 0
M  V30 1908 H 171.159 3.11877 -0.118039 0
M  V30 1909 N 171.46 0.379036 1.52974 0
M  V30 1910 C 172.706 -0.206727 2.01744 0
M  V30 1911 C 173.039 -1.47314 1.26539 0
M  V30 1912 O 172.314 -1.91084 0.362903 0
M  V30 1913 C 172.597 -0.485066 3.56818 0
M  V30 1914 C 172.45 0.795919 4.42702 0
M  V30 1915 C 173.769 -1.28003 4.21074 0
M  V30 1916 H 170.888 -0.0736607 0.73331 0
M  V30 1917 H 173.53 0.506581 1.83122 0
M  V30 1918 H 171.68 -1.09272 3.72816 0
M  V30 1919 H 173.352 1.43307 4.38476 0
M  V30 1920 H 171.595 1.41344 4.10127 0
M  V30 1921 H 172.266 0.555947 5.49193 0
M  V30 1922 H 174.742 -0.765867 4.08991 0
M  V30 1923 H 173.618 -1.44352 5.29579 0
M  V30 1924 H 173.879 -2.29236 3.78026 0
M  V30 1925 N 172.938 -1.57226 0.108567 0
M  V30 1926 C 173.888 -2.11305 -0.856396 0
M  V30 1927 C 174.872 -1.03129 -1.23504 0
M  V30 1928 O 176.064 -1.29381 -1.20787 0
M  V30 1929 C 173.193 -2.70771 -2.11041 0
M  V30 1930 C 172.279 -3.86011 -1.7566 0
M  V30 1931 N 172.67 -4.93492 -1.10902 0
M  V30 1932 C 170.968 -3.95999 -2.05185 0
M  V30 1933 C 171.669 -5.73984 -0.944308 0
M  V30 1934 N 170.645 -5.2346 -1.46596 0
M  V30 1935 H 174.447 -2.91784 -0.352002 0
M  V30 1936 H 171.961 -1.62126 -0.0942324 0
M  V30 1937 H 173.958 -3.07851 -2.81128 0
M  V30 1938 H 172.618 -1.91751 -2.62034 0
M  V30 1939 H 173.629 -5.1208 -0.774235 0
M  V30 1940 H 170.306 -3.28007 -2.58298 0
M  V30 1941 H 171.696 -6.70479 -0.436813 0
M  V30 1942 N 174.416 0.165178 -1.56732 0
M  V30 1943 C 175.348 1.22911 -1.93457 0
M  V30 1944 C 176.361 1.40152 -0.828333 0
M  V30 1945 O 177.55 1.40046 -1.10677 0
M  V30 1946 C 174.65 2.59686 -2.17753 0
M  V30 1947 C 173.823 2.63663 -3.48999 0
M  V30 1948 C 172.882 3.81845 -3.62051 0
M  V30 1949 O 171.908 3.67559 -4.34613 0
M  V30 1950 N 173.11 4.98557 -2.97357 0
M  V30 1951 H 175.875 0.917118 -2.85323 0
M  V30 1952 H 173.436 0.354895 -1.57962 0
M  V30 1953 H 175.428 3.37225 -2.23743 0
M  V30 1954 H 173.998 2.83251 -1.32242 0
M  V30 1955 H 173.218 1.72173 -3.54612 0
M  V30 1956 H 174.506 2.63336 -4.35352 0
M  V30 1957 H 173.904 5.13065 -2.38287 0
M  V30 1958 H 172.461 5.73936 -3.08934 0
M  V30 1959 N 175.894 1.51508 0.433938 0
M  V30 1960 C 176.826 1.69266 1.54537 0
M  V30 1961 C 177.839 0.573276 1.52373 0
M  V30 1962 O 179.028 0.847698 1.57087 0
M  V30 1963 C 176.128 1.69524 2.93453 0
M  V30 1964 C 175.301 2.98101 3.20085 0
M  V30 1965 C 174.36 2.90502 4.38742 0
M  V30 1966 O 173.386 3.64442 4.3723 0
M  V30 1967 N 174.588 2.06586 5.42496 0
M  V30 1968 H 177.353 2.65145 1.39708 0
M  V30 1969 H 174.914 1.49437 0.622922 0
M  V30 1970 H 176.906 1.62004 3.70859 0
M  V30 1971 H 175.476 0.812245 3.01863 0
M  V30 1972 H 174.696 3.19464 2.30947 0
M  V30 1973 H 175.984 3.83207 3.34708 0
M  V30 1974 H 175.382 1.45896 5.46563 0
M  V30 1975 H 173.939 2.04943 6.18742 0
M  V30 1976 N 177.372 -0.689602 1.41712 0
M  V30 1977 C 178.621 -1.44534 1.40686 0
M  V30 1978 C 178.934 -1.95588 0.0213352 0
M  V30 1979 O 180.14 -2.71271 -0.111534 0
M  V30 1980 C 178.596 -2.61387 2.47396 0
M  V30 1981 C 178.204 -2.17094 3.91885 0
M  V30 1982 C 179.948 -3.38986 2.55517 0
M  V30 1983 C 177.855 -3.3094 4.90135 0
M  V30 1984 H 176.785 -0.542925 0.52321 0
M  V30 1985 H 179.436 -0.748054 1.6756 0
M  V30 1986 H 177.818 -3.33412 2.13664 0
M  V30 1987 H 178.992 -1.52318 4.34897 0
M  V30 1988 H 177.307 -1.52473 3.8748 0
M  V30 1989 H 179.904 -4.23747 3.26102 0
M  V30 1990 H 180.247 -3.84578 1.59391 0
M  V30 1991 H 180.78 -2.74021 2.8837 0
M  V30 1992 H 177.519 -2.90355 5.87685 0
M  V30 1993 H 177.039 -3.94546 4.51767 0
M  V30 1994 H 178.718 -3.9663 5.11169 0
M  V30 1995 N 178.85 -1.27639 -0.924453 0
M  V30 1996 C 179.76 -1.12466 -2.05885 0
M  V30 1997 C 180.776 -0.053869 -1.73917 0
M  V30 1998 O 181.952 -0.261012 -1.99702 0
M  V30 1999 C 179.017 -0.776768 -3.37886 0
M  V30 2000 C 178.078 -1.92878 -3.83532 0
M  V30 2001 C 177.311 -1.59739 -5.09234 0
M  V30 2002 O 177.534 -0.506782 -5.68144 0
M  V30 2003 O 176.468 -2.43761 -5.50331 0
M  V30 2004 H 180.294 -2.07671 -2.21599 0
M  V30 2005 H 177.879 -1.06857 -1.04413 0
M  V30 2006 H 179.761 -0.596229 -4.17161 0
M  V30 2007 H 178.436 0.145732 -3.23372 0
M  V30 2008 H 177.343 -2.1644 -3.0513 0
M  V30 2009 H 178.676 -2.8316 -4.02593 0
M  V30 2010 N 180.328 1.1314 -1.09713 0
M  V30 2011 C 181.291 2.16831 -0.742751 0
M  V30 2012 C 182.291 1.59159 0.229129 0
M  V30 2013 O 183.481 1.74199 0.00693237 0
M  V30 2014 C 180.613 3.40756 -0.0989168 0
M  V30 2015 H 181.806 2.49695 -1.66109 0
M  V30 2016 H 179.359 1.2802 -0.896699 0
M  V30 2017 H 180.094 3.13485 0.830514 0
M  V30 2018 H 179.879 3.83888 -0.798265 0
M  V30 2019 H 181.369 4.17386 0.133524 0
M  V30 2020 N 181.806 0.884767 1.30421 0
M  V30 2021 C 182.716 0.355398 2.31892 0
M  V30 2022 C 183.732 -0.542261 1.65335 0
M  V30 2023 O 184.908 -0.435432 1.96637 0
M  V30 2024 C 181.973 -0.421661 3.44126 0
M  V30 2025 C 181.034 0.505727 4.26311 0
M  V30 2026 C 180.267 -0.234343 5.33185 0
M  V30 2027 O 180.49 -1.46045 5.51386 0
M  V30 2028 O 179.424 0.415443 6.00465 0
M  V30 2029 H 183.25 1.19685 2.79122 0
M  V30 2030 H 180.835 0.648596 1.34587 0
M  V30 2031 H 182.717 -0.861641 4.12497 0
M  V30 2032 H 181.392 -1.23942 2.99032 0
M  V30 2033 H 180.299 0.994513 3.60639 0
M  V30 2034 H 181.632 1.28948 4.75009 0
M  V30 2035 N 183.284 -1.43765 0.645699 0
M  V30 2036 C 184.217 -2.2798 -0.100072 0
M  V30 2037 C 185.195 -1.39391 -0.837194 0
M  V30 2038 O 186.379 -1.68833 -0.838306 0
M  V30 2039 C 183.506 -3.18643 -1.14823 0
M  V30 2040 C 182.552 -4.2344 -0.510009 0
M  V30 2041 S 183.385 -5.30761 0.710824 0
M  V30 2042 C 184.541 -6.24992 -0.33699 0
M  V30 2043 H 184.774 -2.90884 0.614322 0
M  V30 2044 H 182.307 -1.48166 0.434304 0
M  V30 2045 H 184.265 -3.71424 -1.74799 0
M  V30 2046 H 182.926 -2.54932 -1.8349 0
M  V30 2047 H 182.119 -4.86948 -1.29991 0
M  V30 2048 H 181.721 -3.73997 0.0154577 0
M  V30 2049 H 184.013 -6.66691 -1.20537 0
M  V30 2050 H 184.956 -7.07612 0.262879 0
M  V30 2051 H 185.364 -5.60517 -0.669425 0
M  V30 2052 N 184.763 -0.387143 -1.52771 0
M  V30 2053 C 186.012 0.19697 -2.00736 0
M  V30 2054 C 186.325 1.48082 -1.27793 0
M  V30 2055 O 187.531 2.14485 -1.66458 0
M  V30 2056 C 185.987 0.401568 -3.57653 0
M  V30 2057 C 185.595 -0.868907 -4.39493 0
M  V30 2058 C 187.339 0.942164 -4.13912 0
M  V30 2059 C 185.246 -0.632705 -5.88006 0
M  V30 2060 H 184.176 0.0773827 -0.750019 0
M  V30 2061 H 186.827 -0.50921 -1.76293 0
M  V30 2062 H 185.209 1.16954 -3.78335 0
M  V30 2063 H 186.383 -1.64133 -4.30577 0
M  V30 2064 H 184.698 -1.33429 -3.94443 0
M  V30 2065 H 187.295 1.13455 -5.22525 0
M  V30 2066 H 187.638 1.9106 -3.69867 0
M  V30 2067 H 188.171 0.233814 -3.97112 0
M  V30 2068 H 184.91 -1.57208 -6.36369 0
M  V30 2069 H 184.43 0.100825 -5.99715 0
M  V30 2070 H 186.109 -0.26642 -6.46451 0
M  V30 2071 N 186.241 1.57166 -0.116904 0
M  V30 2072 C 187.188 2.15202 0.83408 0
M  V30 2073 C 188.158 1.07644 1.26499 0
M  V30 2074 O 189.343 1.35541 1.34288 0
M  V30 2075 C 186.483 2.75405 2.07957 0
M  V30 2076 C 185.596 3.97264 1.69721 0
M  V30 2077 C 184.731 4.45561 2.89221 0
M  V30 2078 C 183.77 5.59956 2.47215 0
M  V30 2079 N 182.907 6.03006 3.59622 0
M  V30 2080 H 187.747 2.96141 0.332335 0
M  V30 2081 H 185.284 1.46309 0.152349 0
M  V30 2082 H 187.242 3.08439 2.80929 0
M  V30 2083 H 185.872 1.97159 2.55594 0
M  V30 2084 H 184.924 3.70404 0.866316 0
M  V30 2085 H 186.236 4.80226 1.34849 0
M  V30 2086 H 185.39 4.80493 3.7042 0
M  V30 2087 H 184.129 3.61544 3.27318 0
M  V30 2088 H 183.134 5.2463 1.64448 0
M  V30 2089 H 184.359 6.45738 2.10238 0
M  V30 2090 H 182.305 5.21931 3.97396 0
M  V30 2091 H 182.222 6.80819 3.28667 0
M  V30 2092 H 183.49 6.42576 4.41267 0
M  V30 2093 N 187.719 -0.156864 1.56817 0
M  V30 2094 C 188.965 -0.872416 1.83076 0
M  V30 2095 C 189.298 -1.81261 0.697001 0
M  V30 2096 O 188.573 -1.92171 -0.30008 0
M  V30 2097 C 188.856 -1.65551 3.19789 0
M  V30 2098 C 188.709 -0.737467 4.43713 0
M  V30 2099 C 190.028 -2.62012 3.53606 0
M  V30 2100 H 187.147 -0.315715 0.665953 0
M  V30 2101 H 189.789 -0.138004 1.89498 0
M  V30 2102 H 187.939 -2.28159 3.14445 0
M  V30 2103 H 189.611 -0.123143 4.61136 0
M  V30 2104 H 187.854 -0.0464067 4.33775 0
M  V30 2105 H 188.525 -1.32122 5.35955 0
M  V30 2106 H 191.001 -2.09525 3.59497 0
M  V30 2107 H 189.877 -3.13861 4.50314 0
M  V30 2108 H 190.138 -3.42902 2.79053 0
M  V30 2109 N 189.197 -1.51736 -0.425897 0
M  V30 2110 C 190.425 -1.68794 -1.1965 0
M  V30 2111 C 190.84 -0.390164 -1.84725 0
M  V30 2112 O 190.197 0.632376 -1.71194 0
M  V30 2113 C 190.248 -2.81174 -2.27208 0
M  V30 2114 O 189.969 -4.05925 -1.64793 0
M  V30 2115 C 191.47 -3.09599 -3.17275 0
M  V30 2116 H 188.69 -0.566128 -0.360194 0
M  V30 2117 H 191.234 -1.98211 -0.503249 0
M  V30 2118 H 189.389 -2.54324 -2.9223 0
M  V30 2119 H 189.803 -4.68423 -2.35967 0
M  V30 2120 H 191.277 -3.91786 -3.88854 0
M  V30 2121 H 191.754 -2.22468 -3.78688 0
M  V30 2122 H 192.36 -3.38151 -2.57941 0
M  V30 2123 N 190.675 0.682077 -1.42076 0
M  V30 2124 C 191.622 1.79578 -1.44984 0
M  V30 2125 C 192.592 1.6332 -0.302614 0
M  V30 2126 O 193.777 1.83978 -0.505633 0
M  V30 2127 C 190.917 3.1756 -1.35091 0
M  V30 2128 C 190.03 3.45156 -2.59791 0
M  V30 2129 C 189.165 4.72826 -2.42093 0
M  V30 2130 C 188.204 4.93433 -3.62202 0
M  V30 2131 N 187.341 6.12338 -3.43491 0
M  V30 2132 H 192.181 1.76427 -2.40161 0
M  V30 2133 H 189.718 0.861376 -1.19242 0
M  V30 2134 H 191.676 3.97287 -1.27354 0
M  V30 2135 H 190.306 3.19854 -0.435133 0
M  V30 2136 H 189.358 2.59736 -2.77923 0
M  V30 2137 H 190.67 3.5628 -3.49094 0
M  V30 2138 H 189.824 5.60631 -2.319 0
M  V30 2139 H 188.563 4.63973 -1.50268 0
M  V30 2140 H 187.568 4.04073 -3.72834 0
M  V30 2141 H 188.793 5.04136 -4.54998 0
M  V30 2142 H 186.739 6.04672 -2.54377 0
M  V30 2143 H 186.656 6.2429 -4.26377 0
M  V30 2144 H 187.924 7.02841 -3.37097 0
M  V30 2145 N 192.153 1.28127 0.917671 0
M  V30 2146 C 193.381 1.17892 1.70026 0
M  V30 2147 C 193.796 -0.262958 1.8696 0
M  V30 2148 O 193.153 -1.17811 1.3938 0
M  V30 2149 C 193.204 1.86872 3.09453 0
M  V30 2150 O 192.925 3.25428 2.93306 0
M  V30 2151 C 194.426 1.8289 4.03815 0
M  V30 2152 H 191.646 0.40942 0.531617 0
M  V30 2153 H 194.19 1.69181 1.14883 0
M  V30 2154 H 192.345 1.39464 3.61426 0
M  V30 2155 H 192.759 3.59918 3.81523 0
M  V30 2156 H 194.233 2.35751 4.99125 0
M  V30 2157 H 194.71 0.800412 4.31845 0
M  V30 2158 H 195.316 2.29959 3.57769 0
M  V30 2159 N 193.631 -1.12557 1.10312 0
M  V30 2160 C 194.541 -2.21841 0.763142 0
M  V30 2161 C 195.557 -1.72354 -0.238801 0
M  V30 2162 O 196.733 -2.01249 -0.0778746 0
M  V30 2163 C 193.798 -3.46131 0.198632 0
M  V30 2164 C 192.859 -4.10464 1.25769 0
M  V30 2165 C 192.092 -5.28821 0.72002 0
M  V30 2166 O 192.315 -5.6859 -0.453993 0
M  V30 2167 O 191.249 -5.83437 1.47935 0
M  V30 2168 H 195.075 -2.53312 1.67532 0
M  V30 2169 H 192.66 -1.20867 0.878157 0
M  V30 2170 H 194.542 -4.2125 -0.112401 0
M  V30 2171 H 193.217 -3.16338 -0.686419 0
M  V30 2172 H 192.124 -3.3713 1.62156 0
M  V30 2173 H 193.457 -4.44408 2.11571 0
M  V30 2174 N 195.109 -0.891671 -1.2995 0
M  V30 2175 C 196.039 -0.379797 -2.30391 0
M  V30 2176 C 197.02 0.540919 -1.6127 0
M  V30 2177 O 198.205 0.453352 -1.88834 0
M  V30 2178 C 195.335 0.400654 -3.44981 0
M  V30 2179 C 194.289 -0.428905 -4.25846 0
M  V30 2180 C 193.615 0.478557 -5.32554 0
M  V30 2181 C 194.915 -1.67458 -4.94727 0
M  V30 2182 H 196.609 -1.21914 -2.73454 0
M  V30 2183 H 194.155 -0.587675 -1.31462 0
M  V30 2184 H 196.108 0.769434 -4.14316 0
M  V30 2185 H 194.832 1.27371 -3.0074 0
M  V30 2186 H 193.491 -0.779911 -3.58208 0
M  V30 2187 H 193.139 1.34951 -4.84559 0
M  V30 2188 H 192.839 -0.0727433 -5.87555 0
M  V30 2189 H 194.363 0.843705 -6.04743 0
M  V30 2190 H 195.777 -1.376 -5.56542 0
M  V30 2191 H 194.174 -2.16659 -5.59624 0
M  V30 2192 H 195.244 -2.41518 -4.20473 0
M  V30 2193 N 196.587 1.43421 -0.653314 0
M  V30 2194 C 197.497 2.34568 0.0388565 0
M  V30 2195 C 198.513 1.53888 0.81207 0
M  V30 2196 O 199.689 1.86539 0.759294 0
M  V30 2197 C 196.754 3.32167 0.993269 0
M  V30 2198 C 195.815 4.28751 0.216977 0
M  V30 2199 C 195.048 5.21688 1.12593 0
M  V30 2200 O 195.271 5.19052 2.36519 0
M  V30 2201 O 194.205 5.98919 0.598284 0
M  V30 2202 H 198.031 2.95251 -0.711386 0
M  V30 2203 H 195.616 1.43564 -0.413502 0
M  V30 2204 H 197.498 3.92183 1.54176 0
M  V30 2205 H 196.173 2.73987 1.72374 0
M  V30 2206 H 195.08 3.72215 -0.375101 0
M  V30 2207 H 196.413 4.89913 -0.473924 0
M  V30 2208 N 198.065 0.39524 1.52563 0
M  V30 2209 C 199.012 -0.437036 2.26624 0
M  V30 2210 C 199.982 -1.05281 1.28472 0
M  V30 2211 O 201.167 -1.07971 1.57311 0
M  V30 2212 C 198.307 -1.55524 3.08069 0
M  V30 2213 C 197.42 -0.961745 4.21158 0
M  V30 2214 C 196.555 -2.05149 4.89987 0
M  V30 2215 C 195.594 -1.4342 5.95061 0
M  V30 2216 N 194.731 -2.46351 6.57462 0
M  V30 2217 H 199.571 0.200976 2.97322 0
M  V30 2218 H 197.108 0.110944 1.46681 0
M  V30 2219 H 199.066 -2.21437 3.53584 0
M  V30 2220 H 197.696 -2.16348 2.3957 0
M  V30 2221 H 196.748 -0.192048 3.79915 0
M  V30 2222 H 198.06 -0.470701 4.96574 0
M  V30 2223 H 197.214 -2.78819 5.38837 0
M  V30 2224 H 195.953 -2.57615 4.14109 0
M  V30 2225 H 194.958 -0.682774 5.45544 0
M  V30 2226 H 196.183 -0.917416 6.72875 0
M  V30 2227 H 194.129 -2.97975 5.8442 0
M  V30 2228 H 194.046 -2.02019 7.28508 0
M  V30 2229 H 195.314 -3.19633 7.10954 0
M  V30 2230 N 199.544 -1.57102 0.125237 0
M  V30 2231 C 200.474 -2.18659 -0.819174 0
M  V30 2232 C 201.455 -1.12843 -1.27281 0
M  V30 2233 O 202.64 -1.41104 -1.33429 0
M  V30 2234 C 199.77 -2.79096 -2.06695 0
M  V30 2235 C 198.724 -3.90548 -1.75088 0
M  V30 2236 C 198.05 -4.37821 -3.06948 0
M  V30 2237 C 199.35 -5.12356 -1.01435 0
M  V30 2238 H 201.044 -2.9783 -0.306202 0
M  V30 2239 H 198.59 -1.4326 -0.145839 0
M  V30 2240 H 200.543 -3.2082 -2.73226 0
M  V30 2241 H 199.267 -1.97223 -2.60328 0
M  V30 2242 H 197.926 -3.49409 -1.10944 0
M  V30 2243 H 197.574 -3.52799 -3.58527 0
M  V30 2244 H 197.274 -5.12982 -2.86571 0
M  V30 2245 H 198.798 -4.822 -3.74587 0
M  V30 2246 H 200.212 -5.5106 -1.58132 0
M  V30 2247 H 198.609 -5.9314 -0.911319 0
M  V30 2248 H 199.679 -4.849 -0.00218681 0
M  V30 2249 N 201.022 0.148545 -1.56898 0
M  V30 2250 C 201.969 1.18345 -1.98149 0
M  V30 2251 C 202.939 1.42772 -0.848848 0
M  V30 2252 O 204.124 1.55132 -1.11079 0
M  V30 2253 C 201.264 2.51231 -2.36594 0
M  V30 2254 C 200.377 2.33991 -3.63142 0
M  V30 2255 C 199.512 3.59902 -3.90697 0
M  V30 2256 C 198.551 3.37692 -5.1052 0
M  V30 2257 N 197.688 4.5573 -5.34092 0
M  V30 2258 H 202.528 0.82467 -2.86362 0
M  V30 2259 H 200.065 0.395756 -1.41676 0
M  V30 2260 H 202.023 3.28713 -2.56912 0
M  V30 2261 H 200.653 2.85059 -1.51463 0
M  V30 2262 H 199.705 1.47572 -3.50609 0
M  V30 2263 H 201.017 2.13539 -4.5078 0
M  V30 2264 H 200.171 4.45813 -4.11505 0
M  V30 2265 H 198.91 3.83357 -3.01477 0
M  V30 2266 H 197.915 2.5017 -4.89587 0
M  V30 2267 H 199.14 3.15637 -6.0129 0
M  V30 2268 H 197.086 4.79361 -4.47827 0
M  V30 2269 H 197.003 4.38274 -6.15996 0
M  V30 2270 H 198.271 5.42858 -5.59397 0
M  V30 2271 N 202.5 1.5196 0.417844 0
M  V30 2272 C 203.74 1.67262 1.17486 0
M  V30 2273 C 204.104 0.38983 1.88001 0
M  V30 2274 O 205.305 0.418845 2.65517 0
M  V30 2275 C 203.576 2.85526 2.14965 0
M  V30 2276 S 205.135 3.21263 2.98891 0
M  V30 2277 H 201.953 0.589077 0.398132 0
M  V30 2278 H 204.555 1.89927 0.463452 0
M  V30 2279 H 203.259 3.77145 1.61833 0
M  V30 2280 H 202.79 2.65107 2.90657 0
M  V30 2281 H 204.805 2.69208 4.16823 0
M  V30 2282 N 203.978 -0.674533 1.42435 0
M  V30 2283 C 205.203 -1.46784 1.46524 0
M  V30 2284 C 205.628 -1.87938 0.078066 0
M  V30 2285 O 204.986 -1.56014 -0.92354 0
M  V30 2286 C 205.034 -2.69307 2.39805 0
M  V30 2287 O 204.138 -3.67587 1.86959 0
M  V30 2288 H 203.479 -0.440959 0.496439 0
M  V30 2289 H 206.009 -0.827326 1.87127 0
M  V30 2290 H 206.019 -3.17374 2.56393 0
M  V30 2291 H 204.694 -2.38692 3.40586 0
M  V30 2292 H 203.271 -3.2662 1.79927 0
M  V30 2293 N 205.456 -1.28612 -0.910864 0
M  V30 2294 C 206.686 -1.1862 -1.69153 0
M  V30 2295 C 207.094 0.257324 -1.87442 0
M  V30 2296 O 206.437 1.18543 -1.40332 0
M  V30 2297 C 206.499 -1.81606 -3.10257 0
M  V30 2298 C 206.163 -3.30864 -3.15243 0
M  V30 2299 C 207.16 -4.27256 -2.96223 0
M  V30 2300 C 204.845 -3.71871 -3.37664 0
M  V30 2301 C 206.839 -5.62631 -2.99541 0
M  V30 2302 C 204.526 -5.07371 -3.40614 0
M  V30 2303 C 205.524 -6.02561 -3.21573 0
M  V30 2304 O 205.212 -7.35589 -3.2429 0
M  V30 2305 H 204.944 -0.412633 -0.535453 0
M  V30 2306 H 207.498 -1.70306 -1.14827 0
M  V30 2307 H 205.728 -1.24418 -3.66138 0
M  V30 2308 H 207.417 -1.66092 -3.70362 0
M  V30 2309 H 208.183 -3.9691 -2.78725 0
M  V30 2310 H 204.062 -2.98241 -3.5153 0
M  V30 2311 H 207.606 -6.36907 -2.84597 0
M  V30 2312 H 203.503 -5.37366 -3.57642 0
M  V30 2313 H 204.271 -7.44252 -3.40633 0
M  V30 2314 N 206.934 1.1197 -1.10907 0
M  V30 2315 C 208.35 1.35591 -0.841852 0
M  V30 2316 C 208.55 1.94233 0.536246 0
M  V30 2317 O 207.606 2.1717 1.28816 0
M  V30 2318 C 208.919 2.29284 -1.94549 0
M  V30 2319 C 210.467 2.42862 -1.97451 0
M  V30 2320 C 210.942 3.39873 -3.07002 0
M  V30 2321 N 212.433 3.47433 -3.06341 0
M  V30 2322 C 213.168 4.22421 -3.87748 0
M  V30 2323 N 212.664 5.00432 -4.79103 0
M  V30 2324 N 214.457 4.17876 -3.75946 0
M  V30 2325 H 206.608 0.722664 -1.99728 0
M  V30 2326 H 208.871 0.380635 -0.868229 0
M  V30 2327 H 208.577 1.93378 -2.93765 0
M  V30 2328 H 208.451 3.29452 -1.83688 0
M  V30 2329 H 210.838 2.78046 -0.988645 0
M  V30 2330 H 210.919 1.42566 -2.12388 0
M  V30 2331 H 210.563 3.05417 -4.05811 0
M  V30 2332 H 210.493 4.40011 -2.89306 0
M  V30 2333 H 212.984 2.91784 -2.40147 0
M  V30 2334 H 213.297 5.55002 -5.37766 0
M  V30 2335 H 211.642 4.99612 -4.83128 0
M  V30 2336 H 214.833 3.56016 -3.03924 0
M  V30 2337 H 215.006 4.76061 -4.39624 0
M  V30 2338 N 208.412 0.89855 1.29475 0
M  V30 2339 C 209.344 0.332726 2.26772 0
M  V30 2340 C 210.357 -0.520323 1.54261 0
M  V30 2341 O 211.546 -0.337668 1.75277 0
M  V30 2342 C 208.646 -0.544334 3.345 0
M  V30 2343 C 207.819 0.282728 4.36485 0
M  V30 2344 C 206.878 -0.526982 5.23555 0
M  V30 2345 O 205.904 0.0551165 5.69173 0
M  V30 2346 N 207.106 -1.83331 5.5079 0
M  V30 2347 H 209.871 1.16897 2.75962 0
M  V30 2348 H 207.432 0.762919 1.42798 0
M  V30 2349 H 209.424 -1.09239 3.89678 0
M  V30 2350 H 207.994 -1.28127 2.85136 0
M  V30 2351 H 207.214 1.01221 3.80983 0
M  V30 2352 H 208.502 0.84918 5.01664 0
M  V30 2353 H 207.9 -2.32898 5.15534 0
M  V30 2354 H 206.457 -2.32852 6.08788 0
M  V30 2355 N 209.89 -1.43072 0.660911 0
M  V30 2356 C 210.82 -2.33497 -0.0122829 0
M  V30 2357 C 211.801 -1.49903 -0.803925 0
M  V30 2358 O 212.986 -1.78546 -0.763864 0
M  V30 2359 C 210.116 -3.33363 -0.973994 0
M  V30 2360 C 209.07 -4.27003 -0.291928 0
M  V30 2361 C 208.396 -5.16967 -1.36562 0
M  V30 2362 C 209.696 -5.15816 0.820462 0
M  V30 2363 H 211.39 -2.90038 0.742873 0
M  V30 2364 H 208.936 -1.39461 0.358688 0
M  V30 2365 H 210.889 -3.95524 -1.45392 0
M  V30 2366 H 209.613 -2.75095 -1.7604 0
M  V30 2367 H 208.272 -3.66217 0.167623 0
M  V30 2368 H 207.92 -4.55034 -2.14366 0
M  V30 2369 H 207.62 -5.80441 -0.914454 0
M  V30 2370 H 209.144 -5.82003 -1.84675 0
M  V30 2371 H 210.558 -5.71742 0.422366 0
M  V30 2372 H 208.955 -5.8805 1.19656 0
M  V30 2373 H 210.025 -4.55045 1.67518 0
M  V30 2374 N 211.368 -0.403325 -1.52352 0
M  V30 2375 C 212.617 0.175668 -2.00934 0
M  V30 2376 C 212.93 1.46718 -1.29356 0
M  V30 2377 O 214.136 2.12708 -1.68724 0
M  V30 2378 C 212.592 0.363612 -3.58058 0
M  V30 2379 C 212.2 -0.915472 -4.38547 0
M  V30 2380 C 213.944 0.89821 -4.14888 0
M  V30 2381 C 211.851 -0.695035 -5.87302 0
M  V30 2382 H 210.781 0.0694234 -0.750797 0
M  V30 2383 H 213.432 -0.527879 -1.75743 0
M  V30 2384 H 211.814 1.12935 -3.79555 0
M  V30 2385 H 212.988 -1.68691 -4.28812 0
M  V30 2386 H 211.303 -1.37606 -3.93006 0
M  V30 2387 H 213.9 1.07907 -5.23699 0
M  V30 2388 H 214.243 1.87126 -3.71873 0
M  V30 2389 H 214.776 0.191681 -3.97338 0
M  V30 2390 H 211.515 -1.63948 -6.34666 0
M  V30 2391 H 211.035 0.0372116 -5.99788 0
M  V30 2392 H 212.714 -0.33497 -6.46132 0
M  V30 2393 N 212.846 1.57033 -0.133567 0
M  V30 2394 C 213.793 2.16074 0.811208 0
M  V30 2395 C 214.763 1.08979 1.2535 0
M  V30 2396 O 215.948 1.36958 1.32843 0
M  V30 2397 C 213.088 2.77595 2.05024 0
M  V30 2398 C 212.201 3.99042 1.65498 0
M  V30 2399 C 211.336 4.48603 2.84479 0
M  V30 2400 C 210.375 5.62547 2.41262 0
M  V30 2401 N 209.512 6.06787 3.53206 0
M  V30 2402 H 214.352 2.96477 0.300906 0
M  V30 2403 H 211.889 1.46462 0.136822 0
M  V30 2404 H 213.847 3.11402 2.77642 0
M  V30 2405 H 212.477 1.99859 2.53488 0
M  V30 2406 H 211.529 3.71302 0.826981 0
M  V30 2407 H 212.841 4.81629 1.29748 0
M  V30 2408 H 211.995 4.84395 3.65303 0
M  V30 2409 H 210.734 3.64995 3.23465 0
M  V30 2410 H 209.739 5.26345 1.58874 0
M  V30 2411 H 210.964 6.47931 2.03377 0
M  V30 2412 H 208.91 5.26117 3.91838 0
M  V30 2413 H 208.827 6.84266 3.21427 0
M  V30 2414 H 210.095 6.4722 4.34427 0
M  V30 2415 N 214.325 -0.140222 1.56975 0
M  V30 2416 C 215.235 -1.19223 2.02047 0
M  V30 2417 C 216.251 -1.46612 0.937062 0
M  V30 2418 O 217.427 -1.58148 1.24704 0
M  V30 2419 C 214.492 -2.50414 2.39778 0
M  V30 2420 C 213.553 -2.30612 3.621 0
M  V30 2421 C 212.786 -3.55547 3.98023 0
M  V30 2422 O 213.009 -4.62004 3.34528 0
M  V30 2423 O 211.943 -3.47808 4.91237 0
M  V30 2424 H 215.769 -0.839559 2.91865 0
M  V30 2425 H 213.354 -0.349453 1.45256 0
M  V30 2426 H 215.236 -3.27747 2.64877 0
M  V30 2427 H 213.911 -2.85198 1.53114 0
M  V30 2428 H 212.818 -1.51207 3.4218 0
M  V30 2429 H 214.151 -2.00741 4.49404 0
M  V30 2430 N 215.803 -1.52179 -0.40978 0
M  V30 2431 C 216.736 -1.70196 -1.52015 0
M  V30 2432 C 217.714 -0.549542 -1.53032 0
M  V30 2433 O 218.898 -0.776815 -1.71749 0
M  V30 2434 C 216.025 -1.74069 -2.90547 0
M  V30 2435 C 215.071 -2.95601 -3.07445 0
M  V30 2436 S 215.904 -4.55956 -2.80827 0
M  V30 2437 C 217.06 -4.62614 -4.21591 0
M  V30 2438 H 217.293 -2.64109 -1.36504 0
M  V30 2439 H 214.826 -1.4221 -0.601312 0
M  V30 2440 H 216.784 -1.76985 -3.70387 0
M  V30 2441 H 215.445 -0.812835 -3.034 0
M  V30 2442 H 214.638 -2.94791 -4.08796 0
M  V30 2443 H 214.24 -2.90569 -2.35469 0
M  V30 2444 H 216.532 -4.39951 -5.15218 0
M  V30 2445 H 217.475 -5.64548 -4.27424 0
M  V30 2446 H 217.883 -3.91654 -4.06531 0
M  V30 2447 N 217.281 0.66697 -1.42791 0
M  V30 2448 C 218.229 1.80157 -1.47127 0
M  V30 2449 C 219.223 1.65825 -0.346199 0
M  V30 2450 O 220.429 1.72338 -0.519572 0
M  V30 2451 H 216.804 0.594158 -0.460956 0
M  V30 2452 H 218.775 1.73619 -2.42692 0
M  V30 2453 C 217.524 3.18351 -1.39813 0
M  V30 2454 H 216.847 3.3001 -2.25684 0
M  V30 2455 H 218.287 3.97736 -1.46908 0
M  V30 2456 C 216.746 3.36707 -0.11391 0
M  V30 2457 O 217.276 3.93027 0.830241 0
M  V30 2458 N 215.482 2.90586 -0.0285295 0
M  V30 2459 H 215.029 2.4494 -0.79764 0
M  V30 2460 H 214.987 3.03245 0.830063 0
M  V30 2461 N 218.759 1.29093 0.90403 0
M  V30 2462 C 219.984 1.19809 1.69294 0
M  V30 2463 C 220.409 -0.238481 1.86582 0
M  V30 2464 O 219.767 -1.1723 1.383 0
M  V30 2465 C 219.815 1.91202 3.05736 0
M  V30 2466 O 218.919 1.22611 3.93752 0
M  V30 2467 H 218.26 0.415385 0.518027 0
M  V30 2468 H 220.79 1.70586 1.12967 0
M  V30 2469 H 220.8 1.99487 3.55906 0
M  V30 2470 H 219.475 2.95692 2.92471 0
M  V30 2471 H 218.052 1.22554 3.52186 0
M  V30 2472 N 220.237 -1.11381 1.11499 0
M  V30 2473 C 221.2 -2.15622 0.777153 0
M  V30 2474 C 222.2 -1.59504 -0.203779 0
M  V30 2475 O 223.39 -1.74188 0.020782 0
M  V30 2476 C 220.522 -3.40556 0.153116 0
M  V30 2477 H 221.715 -2.47021 1.70061 0
M  V30 2478 H 219.268 -1.26577 0.916952 0
M  V30 2479 H 220.003 -3.14767 -0.780536 0
M  V30 2480 H 219.788 -3.8257 0.859238 0
M  V30 2481 H 221.278 -4.17546 -0.0671044 0
M  V30 2482 N 221.715 -0.905404 -1.28997 0
M  V30 2483 C 222.662 -0.385892 -2.27551 0
M  V30 2484 C 223.632 0.535113 -1.57244 0
M  V30 2485 O 224.817 0.459119 -1.85194 0
M  V30 2486 C 221.957 0.375461 -3.43051 0
M  V30 2487 C 221.07 -0.577092 -4.28128 0
M  V30 2488 C 220.205 0.201879 -5.30816 0
M  V30 2489 C 219.244 -0.744829 -6.07551 0
M  V30 2490 N 218.381 9.42587e-05 -7.021 0
M  V30 2491 H 223.221 -1.23139 -2.71368 0
M  V30 2492 H 220.758 -0.618542 -1.33463 0
M  V30 2493 H 222.716 0.832992 -4.088 0
M  V30 2494 H 221.346 1.18537 -3.00248 0
M  V30 2495 H 220.398 -1.15315 -3.62501 0
M  V30 2496 H 221.71 -1.30152 -4.8152 0
M  V30 2497 H 220.864 0.720351 -6.02408 0
M  V30 2498 H 219.603 0.959413 -4.7817 0
M  V30 2499 H 218.608 -1.27475 -5.34818 0
M  V30 2500 H 219.833 -1.50178 -6.62286 0
M  V30 2501 H 217.779 0.739791 -6.51815 0
M  V30 2502 H 217.696 -0.664321 -7.53076 0
M  V30 2503 H 218.964 0.498644 -7.77903 0
M  V30 2504 N 223.193 1.4272 -0.668489 0
M  V30 2505 C 224.103 2.34596 0.0139753 0
M  V30 2506 C 225.119 1.5474 0.795703 0
M  V30 2507 O 226.295 1.87334 0.739466 0
M  V30 2508 C 223.36 3.33202 0.957982 0
M  V30 2509 C 222.421 4.28957 0.17149 0
M  V30 2510 C 221.654 5.22853 1.07053 0
M  V30 2511 O 221.877 5.21531 2.31001 0
M  V30 2512 O 220.811 5.9952 0.534727 0
M  V30 2513 H 224.637 2.9448 -0.742661 0
M  V30 2514 H 222.222 1.43117 -0.428705 0
M  V30 2515 H 224.104 3.93796 1.50008 0
M  V30 2516 H 222.779 2.758 1.69458 0
M  V30 2517 H 221.686 3.71796 -0.414558 0
M  V30 2518 H 223.019 4.89383 -0.52586 0
M  V30 2519 N 224.671 0.411399 1.52136 0
M  V30 2520 C 225.618 -0.412975 2.27075 0
M  V30 2521 C 226.588 -1.03912 1.29582 0
M  V30 2522 O 227.773 -1.06296 1.58448 0
M  V30 2523 C 224.913 -1.52247 3.09701 0
M  V30 2524 C 224.026 -0.917021 4.22155 0
M  V30 2525 C 223.161 -1.9994 4.92135 0
M  V30 2526 C 222.2 -1.37101 5.96548 0
M  V30 2527 N 221.337 -2.39364 6.60038 0
M  V30 2528 H 226.177 0.232499 2.97092 0
M  V30 2529 H 223.714 0.126496 1.46555 0
M  V30 2530 H 225.672 -2.17674 3.55913 0
M  V30 2531 H 224.302 -2.13794 2.41851 0
M  V30 2532 H 223.354 -0.151742 3.80097 0
M  V30 2533 H 224.666 -0.418006 4.97045 0
M  V30 2534 H 223.82 -2.73088 5.41763 0
M  V30 2535 H 222.559 -2.53208 4.16818 0
M  V30 2536 H 221.564 -0.624873 5.46237 0
M  V30 2537 H 222.789 -0.845998 6.7381 0
M  V30 2538 H 220.735 -2.91759 5.87548 0
M  V30 2539 H 220.652 -1.9428 7.3061 0
M  V30 2540 H 221.92 -3.12074 7.14304 0
M  V30 2541 N 226.149 -1.5696 0.141893 0
M  V30 2542 C 227.379 -2.00031 -0.516828 0
M  V30 2543 C 227.787 -1.02091 -1.59293 0
M  V30 2544 O 227.13 -0.00909657 -1.83698 0
M  V30 2545 C 227.192 -3.39534 -1.1814 0
M  V30 2546 C 226.856 -4.56313 -0.250513 0
M  V30 2547 C 227.853 -5.17295 0.519839 0
M  V30 2548 C 225.538 -5.02061 -0.154907 0
M  V30 2549 C 227.532 -6.2243 1.3733 0
M  V30 2550 C 225.219 -6.07053 0.702161 0
M  V30 2551 C 226.217 -6.67106 1.46487 0
M  V30 2552 O 225.905 -7.70066 2.30767 0
M  V30 2553 H 225.637 -0.661451 -0.139493 0
M  V30 2554 H 228.191 -2.04086 0.231926 0
M  V30 2555 H 226.421 -3.32302 -1.97769 0
M  V30 2556 H 228.11 -3.66745 -1.73933 0
M  V30 2557 H 228.876 -4.82852 0.45598 0
M  V30 2558 H 224.755 -4.5505 -0.7383 0
M  V30 2559 H 228.299 -6.69233 1.96909 0
M  V30 2560 H 224.196 -6.40923 0.76733 0
M  V30 2561 H 224.964 -7.87264 2.23959 0
M  V30 2562 N 227.627 0.131896 -1.57047 0
M  V30 2563 C 228.574 1.16236 -1.99393 0
M  V30 2564 C 229.544 1.41863 -0.863943 0
M  V30 2565 O 230.729 1.53946 -1.12718 0
M  V30 2566 C 227.869 2.48708 -2.39245 0
M  V30 2567 C 226.982 2.30127 -3.65603 0
M  V30 2568 C 226.117 3.55738 -3.94492 0
M  V30 2569 C 225.156 3.32259 -5.14073 0
M  V30 2570 N 224.293 4.50039 -5.38896 0
M  V30 2571 H 229.133 0.794251 -2.87221 0
M  V30 2572 H 226.67 0.380707 -1.42088 0
M  V30 2573 H 228.628 3.25969 -2.60384 0
M  V30 2574 H 227.258 2.83437 -1.54478 0
M  V30 2575 H 226.31 1.43845 -3.52154 0
M  V30 2576 H 227.622 2.08746 -4.5302 0
M  V30 2577 H 226.776 4.41423 -4.1621 0
M  V30 2578 H 225.515 3.80138 -3.05526 0
M  V30 2579 H 224.52 2.44963 -4.92212 0
M  V30 2580 H 225.745 3.09242 -6.04604 0
M  V30 2581 H 223.691 4.74584 -4.52886 0
M  V30 2582 H 223.608 4.31716 -6.2061 0
M  V30 2583 H 224.876 5.36895 -5.65123 0
M  V30 2584 N 229.106 1.52395 0.401703 0
M  V30 2585 C 230.016 1.7917 1.51444 0
M  V30 2586 C 231.032 0.677691 1.6026 0
M  V30 2587 O 232.208 0.963909 1.76835 0
M  V30 2588 C 229.273 1.94347 2.87107 0
M  V30 2589 C 228.334 3.18257 2.88116 0
M  V30 2590 C 227.567 3.32701 4.17308 0
M  V30 2591 O 227.79 2.52238 5.11598 0
M  V30 2592 O 226.724 4.25891 4.25324 0
M  V30 2593 H 230.55 2.73633 1.31752 0
M  V30 2594 H 228.135 1.3733 0.588296 0
M  V30 2595 H 230.017 2.06109 3.67555 0
M  V30 2596 H 228.692 1.03073 3.06851 0
M  V30 2597 H 227.599 3.11947 2.06494 0
M  V30 2598 H 228.932 4.09336 2.73322 0
M  V30 2599 N 230.584 -0.659388 1.43143 0
M  V30 2600 C 231.547 -1.75432 1.47501 0
M  V30 2601 C 232.547 -1.56707 0.360512 0
M  V30 2602 O 233.737 -1.62717 0.622002 0
M  V30 2603 C 230.869 -3.14239 1.32162 0
M  V30 2604 H 232.062 -1.7295 2.45006 0
M  V30 2605 H 229.615 -0.870469 1.29817 0
M  V30 2606 H 230.35 -3.22336 0.356401 0
M  V30 2607 H 230.135 -3.29235 2.12948 0
M  V30 2608 H 231.625 -3.94094 1.3813 0
M  V30 2609 N 232.062 -1.29571 -0.897171 0
M  V30 2610 C 232.992 -1.17473 -2.01798 0
M  V30 2611 C 233.973 -0.068323 -1.69963 0
M  V30 2612 O 235.158 -0.248239 -1.92607 0
M  V30 2613 C 232.288 -0.853099 -3.36659 0
M  V30 2614 C 231.242 -1.9161 -3.82713 0
M  V30 2615 C 230.568 -1.44773 -5.14728 0
M  V30 2616 C 231.868 -3.32535 -4.02763 0
M  V30 2617 H 233.562 -2.11237 -2.12177 0
M  V30 2618 H 231.108 -1.01699 -1.01948 0
M  V30 2619 H 233.061 -0.755165 -4.14578 0
M  V30 2620 H 231.785 0.120236 -3.26379 0
M  V30 2621 H 230.444 -2.00346 -3.07013 0
M  V30 2622 H 230.092 -0.462995 -5.00865 0
M  V30 2623 H 229.792 -2.15865 -5.46513 0
M  V30 2624 H 231.316 -1.36334 -5.95185 0
M  V30 2625 H 232.73 -3.26626 -4.71156 0
M  V30 2626 H 231.127 -4.01607 -4.45905 0
M  V30 2627 H 232.197 -3.75326 -3.07016 0
M  V30 2628 N 233.54 1.10788 -1.12088 0
M  V30 2629 C 234.503 2.15207 -0.788577 0
M  V30 2630 C 235.503 1.59609 0.195317 0
M  V30 2631 O 236.693 1.74174 -0.0300193 0
M  V30 2632 C 233.825 3.4047 -0.171174 0
M  V30 2633 H 235.018 2.46116 -1.71368 0
M  V30 2634 H 232.571 1.26089 -0.923652 0
M  V30 2635 H 233.306 3.15176 0.763832 0
M  V30 2636 H 233.091 3.82109 -0.879514 0
M  V30 2637 H 234.581 4.17576 0.04496 0
M  V30 2638 N 235.018 0.912232 1.28515 0
M  V30 2639 C 235.965 0.397954 2.27343 0
M  V30 2640 C 236.935 -0.526766 1.57526 0
M  V30 2641 O 238.12 -0.449292 1.85435 0
M  V30 2642 C 235.26 -0.357263 3.43246 0
M  V30 2643 C 234.373 0.599788 4.27816 0
M  V30 2644 C 233.508 -0.173725 5.30916 0
M  V30 2645 C 232.547 0.777039 6.07148 0
M  V30 2646 N 231.684 0.0371398 7.0209 0
M  V30 2647 H 236.524 1.24577 2.70711 0
M  V30 2648 H 234.061 0.625612 1.33133 0
M  V30 2649 H 236.019 -0.8113 4.09236 0
M  V30 2650 H 234.649 -1.16943 3.00872 0
M  V30 2651 H 233.701 1.17235 3.61884 0
M  V30 2652 H 235.013 1.32704 4.80823 0
M  V30 2653 H 234.167 -0.688394 6.02782 0
M  V30 2654 H 232.906 -0.934041 4.78672 0
M  V30 2655 H 231.911 1.3031 5.34134 0
M  V30 2656 H 233.136 1.53689 6.61481 0
M  V30 2657 H 231.082 -0.705213 6.52198 0
M  V30 2658 H 230.999 0.704249 7.52713 0
M  V30 2659 H 232.267 -0.457383 7.78157 0
M  V30 2660 N 236.496 -1.42363 0.676048 0
M  V30 2661 C 237.744 -2.01123 0.198437 0
M  V30 2662 C 238.065 -1.53731 -1.19966 0
M  V30 2663 O 237.335 -0.759518 -1.80577 0
M  V30 2664 H 235.915 -0.743678 0.0703721 0
M  V30 2665 H 238.577 -1.74263 0.872837 0
M  V30 2666 H 237.673 -3.11454 0.200686 0
M  V30 2667 N 237.974 -0.419461 -1.51915 0
M  V30 2668 C 238.921 0.400927 -2.27291 0
M  V30 2669 C 239.891 1.03224 -1.30131 0
M  V30 2670 O 241.076 1.05455 -1.59009 0
M  V30 2671 C 238.216 1.50603 -3.10504 0
M  V30 2672 C 237.329 0.89462 -4.22635 0
M  V30 2673 C 236.464 1.97328 -4.93189 0
M  V30 2674 C 235.503 1.33935 -5.97267 0
M  V30 2675 N 234.64 2.3586 -6.61298 0
M  V30 2676 H 239.48 -0.248251 -2.96964 0
M  V30 2677 H 237.017 -0.134266 -1.46486 0
M  V30 2678 H 238.975 2.15783 -3.57062 0
M  V30 2679 H 237.605 2.12509 -2.42981 0
M  V30 2680 H 236.657 0.131583 -3.80172 0
M  V30 2681 H 237.969 0.391641 -4.9726 0
M  V30 2682 H 237.123 2.70211 -5.43204 0
M  V30 2683 H 235.862 2.50994 -4.18155 0
M  V30 2684 H 234.867 0.595896 -5.46561 0
M  V30 2685 H 236.092 0.810252 -6.74249 0
M  V30 2686 H 234.038 2.88639 -5.89087 0
M  V30 2687 H 233.955 1.90403 -7.3163 0
M  V30 2688 H 235.223 3.08282 -7.15949 0
M  V30 2689 N 239.452 1.56882 -0.150215 0
M  V30 2690 C 240.362 2.20494 0.801222 0
M  V30 2691 C 241.378 1.19019 1.26927 0
M  V30 2692 O 242.554 1.51607 1.32579 0
M  V30 2693 C 239.619 2.81659 2.02161 0
M  V30 2694 C 238.68 3.9827 1.60249 0
M  V30 2695 C 237.913 4.56508 2.7647 0
M  V30 2696 O 238.136 4.13627 3.92771 0
M  V30 2697 O 237.07 5.46719 2.51757 0
M  V30 2698 H 240.896 3.02315 0.289717 0
M  V30 2699 H 238.481 1.49202 0.0769684 0
M  V30 2700 H 240.363 3.20522 2.73576 0
M  V30 2701 H 239.038 2.02849 2.52258 0
M  V30 2702 H 237.945 3.64117 0.858477 0
M  V30 2703 H 239.278 4.78609 1.14864 0
M  V30 2704 N 240.93 -0.123565 1.57115 0
M  V30 2705 C 242.158 -0.846461 1.88793 0
M  V30 2706 C 242.573 -1.73652 0.740976 0
M  V30 2707 O 241.93 -1.80207 -0.288393 0
M  V30 2708 C 241.981 -1.6837 3.19897 0
M  V30 2709 O 241.702 -0.829477 4.30176 0
M  V30 2710 C 243.203 -2.51214 3.65248 0
M  V30 2711 H 240.423 -0.243573 0.625231 0
M  V30 2712 H 242.967 -0.109324 2.04208 0
M  V30 2713 H 241.122 -2.37364 3.06165 0
M  V30 2714 H 241.536 -1.40651 5.0529 0
M  V30 2715 H 243.01 -3.05497 4.59756 0
M  V30 2716 H 243.487 -3.28359 2.9168 0
M  V30 2717 H 244.093 -1.8747 3.81752 0
M  V30 2718 N 242.408 -1.52605 -0.393616 0
M  V30 2719 C 243.318 -1.79971 -1.50492 0
M  V30 2720 C 244.334 -0.686181 -1.59899 0
M  V30 2721 O 245.51 -0.973274 -1.76322 0
M  V30 2722 C 242.575 -1.95867 -2.86072 0
M  V30 2723 C 241.636 -3.19781 -2.86424 0
M  V30 2724 C 240.869 -3.34909 -4.15538 0
M  V30 2725 O 241.092 -2.54948 -5.10253 0
M  V30 2726 O 240.026 -4.28141 -4.23059 0
M  V30 2727 H 243.852 -2.74328 -1.30299 0
M  V30 2728 H 241.437 -1.3764 -0.581005 0
M  V30 2729 H 243.319 -2.08056 -3.66457 0
M  V30 2730 H 241.994 -1.04699 -3.063 0
M  V30 2731 H 240.901 -3.13038 -2.04837 0
M  V30 2732 H 242.234 -4.1078 -2.71147 0
M  V30 2733 N 243.887 0.651787 -1.4349 0
M  V30 2734 C 244.834 1.76462 -1.4876 0
M  V30 2735 C 245.804 1.62641 -0.337189 0
M  V30 2736 O 246.989 1.82864 -0.544544 0
M  V30 2737 C 244.129 3.14623 -1.41796 0
M  V30 2738 C 243.242 3.39568 -2.67053 0
M  V30 2739 C 242.377 4.67585 -2.52068 0
M  V30 2740 C 241.416 4.85639 -3.72587 0
M  V30 2741 N 240.553 6.04915 -3.56402 0
M  V30 2742 H 245.393 1.71293 -2.43849 0
M  V30 2743 H 242.93 0.835889 -1.21043 0
M  V30 2744 H 244.888 3.94496 -1.35753 0
M  V30 2745 H 243.518 3.18859 -0.50288 0
M  V30 2746 H 242.57 2.53783 -2.8337 0
M  V30 2747 H 243.882 3.48795 -3.56572 0
M  V30 2748 H 243.036 5.55586 -2.4374 0
M  V30 2749 H 241.775 4.60681 -1.60075 0
M  V30 2750 H 240.78 3.96073 -3.81321 0
M  V30 2751 H 242.005 4.94372 -4.65589 0
M  V30 2752 H 239.951 5.9914 -2.67146 0
M  V30 2753 H 239.868 6.15106 -4.39524 0
M  V30 2754 H 241.136 6.95533 -3.51929 0
M  V30 2755 N 245.365 1.30045 0.890287 0
M  V30 2756 C 246.328 1.15963 1.977 0
M  V30 2757 C 247.328 0.0923777 1.60534 0
M  V30 2758 O 248.518 0.340071 1.70848 0
M  V30 2759 C 245.65 0.775451 3.31963 0
M  V30 2760 H 246.843 2.12502 2.11619 0
M  V30 2761 H 244.396 1.13366 1.07601 0
M  V30 2762 H 245.131 -0.189671 3.23745 0
M  V30 2763 H 244.916 1.54668 3.60306 0
M  V30 2764 H 246.406 0.700251 4.11687 0
M  V30 2765 N 246.843 -1.10192 1.12674 0
M  V30 2766 C 247.79 -2.16606 0.796906 0
M  V30 2767 C 248.76 -1.64394 -0.237476 0
M  V30 2768 O 249.945 -1.90474 -0.111484 0
M  V30 2769 C 247.085 -3.44116 0.26043 0
M  V30 2770 C 246.198 -4.10268 1.35293 0
M  V30 2771 C 245.333 -5.25507 0.775621 0
M  V30 2772 C 244.372 -5.83567 1.84706 0
M  V30 2773 N 243.509 -6.90179 1.28829 0
M  V30 2774 H 248.349 -2.44163 1.70846 0
M  V30 2775 H 245.886 -1.19846 0.85295 0
M  V30 2776 H 247.844 -4.17143 -0.0686814 0
M  V30 2777 H 246.474 -3.16901 -0.614274 0
M  V30 2778 H 245.526 -3.35184 1.79877 0
M  V30 2779 H 246.838 -4.4946 2.16303 0
M  V30 2780 H 245.992 -6.05398 0.397327 0
M  V30 2781 H 244.731 -4.87656 -0.0656581 0
M  V30 2782 H 243.736 -5.02344 2.23452 0
M  V30 2783 H 244.961 -6.23482 2.69161 0
M  V30 2784 H 242.907 -6.54322 0.468881 0
M  V30 2785 H 242.824 -7.28097 2.03497 0
M  V30 2786 H 244.092 -7.73844 0.937311 0
M  V30 2787 N 248.321 -0.919034 -1.28029 0
M  V30 2788 C 249.231 -0.416756 -2.30869 0
M  V30 2789 C 250.247 0.498235 -1.66714 0
M  V30 2790 O 251.423 0.383144 -1.97722 0
M  V30 2791 C 248.488 0.330274 -3.45123 0
M  V30 2792 C 247.549 -0.618578 -4.2482 0
M  V30 2793 C 246.782 0.0928959 -5.33619 0
M  V30 2794 O 247.005 1.31375 -5.55065 0
M  V30 2795 O 245.939 -0.574499 -5.99152 0
M  V30 2796 H 249.765 -1.27043 -2.75851 0
M  V30 2797 H 247.35 -0.684052 -1.3282 0
M  V30 2798 H 249.232 0.751972 -4.14636 0
M  V30 2799 H 247.907 1.1597 -3.02213 0
M  V30 2800 H 246.814 -1.08978 -3.57875 0
M  V30 2801 H 248.147 -1.41497 -4.71423 0
M  V30 2802 N 249.799 1.42003 -0.683588 0
M  V30 2803 C 251.215 1.55625 -0.353976 0
M  V30 2804 C 251.415 1.66151 1.14 0
M  V30 2805 O 250.471 1.63329 1.92561 0
M  V30 2806 C 251.784 2.80171 -1.092 0
M  V30 2807 C 253.332 2.93954 -1.07518 0
M  V30 2808 C 253.807 4.21372 -1.79471 0
M  V30 2809 N 255.298 4.28303 -1.76381 0
M  V30 2810 C 256.033 5.25729 -2.28904 0
M  V30 2811 N 255.529 6.29254 -2.89846 0
M  V30 2812 N 257.322 5.17586 -2.19228 0
M  V30 2813 H 249.473 1.33415 -1.6527 0
M  V30 2814 H 251.736 0.64282 -0.696769 0
M  V30 2815 H 251.442 2.78561 -2.14701 0
M  V30 2816 H 251.316 3.7133 -0.662862 0
M  V30 2817 H 253.703 2.95086 -0.028475 0
M  V30 2818 H 253.784 2.04002 -1.54328 0
M  V30 2819 H 253.428 4.21001 -2.84114 0
M  V30 2820 H 253.358 5.10275 -1.30104 0
M  V30 2821 H 255.849 3.54119 -1.31939 0
M  V30 2822 H 256.162 6.99964 -3.27522 0
M  V30 2823 H 254.507 6.29791 -2.93919 0
M  V30 2824 H 257.698 4.35631 -1.71299 0
M  V30 2825 H 257.871 5.93348 -2.60466 0
M  V30 2826 N 251.277 0.427512 1.51691 0
M  V30 2827 C 252.507 -0.140986 2.06118 0
M  V30 2828 C 252.915 -1.37854 1.29588 0
M  V30 2829 O 252.258 -1.80411 0.346036 0
M  V30 2830 C 252.32 -0.538276 3.55447 0
M  V30 2831 C 251.984 0.591095 4.53161 0
M  V30 2832 C 252.981 1.46027 4.98971 0
M  V30 2833 C 250.666 0.769028 4.96378 0
M  V30 2834 C 252.66 2.49216 5.8666 0
M  V30 2835 C 250.347 1.80421 5.83859 0
M  V30 2836 C 251.345 2.66417 6.28897 0
M  V30 2837 O 251.033 3.68159 7.14643 0
M  V30 2838 H 250.765 -0.0157455 0.675817 0
M  V30 2839 H 253.319 0.602495 1.96365 0
M  V30 2840 H 251.549 -1.33432 3.6295 0
M  V30 2841 H 253.238 -1.0368 3.92435 0
M  V30 2842 H 254.004 1.33429 4.66285 0
M  V30 2843 H 249.883 0.109273 4.6087 0
M  V30 2844 H 253.427 3.16372 6.21735 0
M  V30 2845 H 249.324 1.93042 6.15959 0
M  V30 2846 H 250.092 3.64622 7.32798 0
M  V30 2847 N 252.755 -1.56801 0.158532 0
M  V30 2848 C 254.032 -1.88131 -0.535357 0
M  V30 2849 C 254.412 -1.06638 -1.82186 0
M  V30 2850 O 253.76 -0.156533 -2.27963 0
M  V30 2851 C 253.97 -3.39949 -0.789653 0
M  V30 2852 C 255.318 -4.09416 -1.12533 0
M  V30 2853 O 256.342 -3.45194 -0.878622 0
M  V30 2854 O 255.201 -5.22855 -1.59014 0
M  V30 2855 H 252.295 -0.780143 -0.27442 0
M  V30 2856 H 254.841 -1.68564 0.19601 0
M  V30 2857 H 253.613 -3.91115 0.120353 0
M  V30 2858 H 253.236 -3.65084 -1.57479 0
M  V30 2859 N 254.233 0.115231 -1.57178 0
M  V30 2860 C 255.18 1.14115 -2.00615 0
M  V30 2861 C 256.15 1.40939 -0.878941 0
M  V30 2862 O 257.335 1.52741 -1.14345 0
M  V30 2863 C 254.475 2.46156 -2.4187 0
M  V30 2864 C 253.588 2.26236 -3.68024 0
M  V30 2865 C 252.723 3.51534 -3.98243 0
M  V30 2866 C 251.762 3.26787 -5.17568 0
M  V30 2867 N 250.899 4.44298 -5.43639 0
M  V30 2868 H 255.739 0.763743 -2.88047 0
M  V30 2869 H 253.276 0.365615 -1.42484 0
M  V30 2870 H 255.234 3.23189 -2.63827 0
M  V30 2871 H 253.864 2.81783 -1.57475 0
M  V30 2872 H 252.916 1.40102 -3.5366 0
M  V30 2873 H 254.228 2.03929 -4.55208 0
M  V30 2874 H 253.382 4.36984 -4.20868 0
M  V30 2875 H 252.121 3.76876 -3.09541 0
M  V30 2876 H 251.126 2.39729 -4.94783 0
M  V30 2877 H 252.351 3.02812 -6.0785 0
M  V30 2878 H 250.297 4.69754 -4.57895 0
M  V30 2879 H 250.214 4.25109 -6.25154 0
M  V30 2880 H 251.482 5.3087 -5.70786 0
M  V30 2881 N 255.711 1.52812 0.385517 0
M  V30 2882 C 256.674 1.77188 1.45386 0
M  V30 2883 C 257.674 0.641953 1.4743 0
M  V30 2884 O 258.864 0.910033 1.4854 0
M  V30 2885 C 255.996 1.87582 2.8465 0
M  V30 2886 H 257.189 2.72583 1.25054 0
M  V30 2887 H 254.742 1.43586 0.617467 0
M  V30 2888 H 255.477 0.941849 3.10322 0
M  V30 2889 H 255.262 2.69748 2.84567 0
M  V30 2890 H 256.752 2.08102 3.62054 0
M  V30 2891 N 257.189 -0.644168 1.43834 0
M  V30 2892 C 258.417 -1.43147 1.49387 0
M  V30 2893 C 258.832 -1.88452 0.114583 0
M  V30 2894 O 258.189 -1.60047 -0.876989 0
M  V30 2895 C 258.24 -2.66046 2.44748 0
M  V30 2896 O 257.961 -2.22633 3.77314 0
M  V30 2897 C 259.462 -3.59311 2.59635 0
M  V30 2898 H 256.682 -0.439447 0.507077 0
M  V30 2899 H 259.226 -0.78895 1.88669 0
M  V30 2900 H 257.381 -3.26418 2.08638 0
M  V30 2901 H 257.795 -3.02216 4.28679 0
M  V30 2902 H 259.269 -4.42187 3.30416 0
M  V30 2903 H 259.746 -4.07259 1.64427 0
M  V30 2904 H 260.352 -3.04816 2.96593 0
M  V30 2905 N 258.668 -1.30515 -0.883378 0
M  V30 2906 C 259.601 -1.11359 -1.99184 0
M  V30 2907 C 260.579 -0.0207858 -1.62587 0
M  V30 2908 O 261.763 -0.174646 -1.87689 0
M  V30 2909 C 258.89 -0.69871 -3.31415 0
M  V30 2910 C 257.936 -1.79261 -3.86998 0
M  V30 2911 S 258.769 -3.39536 -4.14096 0
M  V30 2912 C 259.925 -2.99954 -5.49344 0
M  V30 2913 H 260.158 -2.052 -2.15128 0
M  V30 2914 H 257.691 -1.14847 -1.03196 0
M  V30 2915 H 259.649 -0.466075 -4.07846 0
M  V30 2916 H 258.31 0.220368 -3.13326 0
M  V30 2917 H 257.503 -1.45464 -4.82552 0
M  V30 2918 H 257.105 -1.97961 -3.17313 0
M  V30 2919 H 259.397 -2.48013 -6.30473 0
M  V30 2920 H 260.34 -3.9442 -5.8808 0
M  V30 2921 H 260.748 -2.37775 -5.1198 0
M  V30 2922 N 260.146 1.09593 -1.13257 0
M  V30 2923 C 261.093 2.1618 -0.808381 0
M  V30 2924 C 262.063 1.64517 0.228754 0
M  V30 2925 O 263.248 1.9053 0.101381 0
M  V30 2926 C 260.388 3.43973 -0.278675 0
M  V30 2927 C 259.501 4.09545 -1.37466 0
M  V30 2928 C 258.636 5.25088 -0.803479 0
M  V30 2929 C 257.675 5.82579 -1.87799 0
M  V30 2930 N 256.812 6.89486 -1.32488 0
M  V30 2931 H 261.652 2.43254 -1.72138 0
M  V30 2932 H 259.189 1.19392 -0.859294 0
M  V30 2933 H 261.147 4.17174 0.0465583 0
M  V30 2934 H 259.777 3.17223 0.597459 0
M  V30 2935 H 258.829 3.34226 -1.81652 0
M  V30 2936 H 260.141 4.48307 -2.18684 0
M  V30 2937 H 259.295 6.05178 -0.429427 0
M  V30 2938 H 258.034 4.87684 0.0397956 0
M  V30 2939 H 257.039 5.01152 -2.26113 0
M  V30 2940 H 258.264 6.22045 -2.72463 0
M  V30 2941 H 256.21 6.54064 -0.503575 0
M  V30 2942 H 256.127 7.27007 -2.07355 0
M  V30 2943 H 257.395 7.73336 -0.978336 0
M  V30 2944 N 261.624 0.925811 1.2754 0
M  V30 2945 C 262.554 0.440748 2.29303 0
M  V30 2946 C 263.535 -0.497971 1.62648 0
M  V30 2947 O 264.72 -0.403126 1.8997 0
M  V30 2948 C 261.85 -0.309048 3.45922 0
M  V30 2949 C 260.804 0.54166 4.24559 0
M  V30 2950 C 260.13 -0.337191 5.33636 0
M  V30 2951 C 261.43 1.80516 4.90114 0
M  V30 2952 H 263.124 1.29121 2.70126 0
M  V30 2953 H 260.67 0.622323 1.29858 0
M  V30 2954 H 262.623 -0.659315 4.1621 0
M  V30 2955 H 261.347 -1.19352 3.04011 0
M  V30 2956 H 260.006 0.874609 3.56014 0
M  V30 2957 H 259.654 -1.22056 4.87966 0
M  V30 2958 H 259.354 0.228497 5.87156 0
M  V30 2959 H 260.878 -0.683072 6.06767 0
M  V30 2960 H 262.292 1.52307 5.52698 0
M  V30 2961 H 260.689 2.3142 5.53683 0
M  V30 2962 H 261.759 2.52581 4.13921 0
M  V30 2963 N 263.102 -1.41638 0.69111 0
M  V30 2964 C 264.052 -2.28 -0.000107832 0
M  V30 2965 C 265.036 -1.41964 -0.757304 0
M  V30 2966 O 266.228 -1.65274 -0.633532 0
M  V30 2967 C 263.357 -3.30209 -0.938983 0
M  V30 2968 C 262.443 -4.23725 -0.17827 0
M  V30 2969 N 262.834 -4.99017 0.825563 0
M  V30 2970 C 261.132 -4.44071 -0.414392 0
M  V30 2971 C 261.833 -5.67431 1.28052 0
M  V30 2972 N 260.809 -5.40197 0.607304 0
M  V30 2973 H 264.611 -2.83644 0.769617 0
M  V30 2974 H 262.125 -1.53797 0.521562 0
M  V30 2975 H 264.122 -3.90898 -1.44929 0
M  V30 2976 H 262.782 -2.76126 -1.70836 0
M  V30 2977 H 263.793 -5.03671 1.20566 0
M  V30 2978 H 260.47 -4.01004 -1.162 0
M  V30 2979 H 261.86 -6.37801 2.11327 0
M  V30 2980 N 264.58 -0.43555 -1.51462 0
M  V30 2981 C 265.513 0.421989 -2.24264 0
M  V30 2982 C 266.491 1.02619 -1.26127 0
M  V30 2983 O 267.675 1.069 -1.55257 0
M  V30 2984 C 264.802 1.588 -2.99166 0
M  V30 2985 C 263.848 1.10465 -4.11946 0
M  V30 2986 S 264.681 0.048146 -5.35478 0
M  V30 2987 C 265.837 1.21887 -6.13917 0
M  V30 2988 H 266.07 -0.196102 -2.96653 0
M  V30 2989 H 263.603 -0.220054 -1.52824 0
M  V30 2990 H 265.561 2.25647 -3.42919 0
M  V30 2991 H 264.222 2.1775 -2.26371 0
M  V30 2992 H 263.415 1.97654 -4.63626 0
M  V30 2993 H 263.017 0.51445 -3.70445 0
M  V30 2994 H 265.309 2.13756 -6.42895 0
M  V30 2995 H 266.252 0.742076 -7.04201 0
M  V30 2996 H 266.66 1.45663 -5.45383 0
M  V30 2997 N 266.058 1.56714 -0.166846 0
M  V30 2998 C 266.988 2.20754 0.760913 0
M  V30 2999 C 267.969 1.16178 1.24244 0
M  V30 3000 O 269.154 1.44592 1.29641 0
M  V30 3001 C 266.284 2.84478 1.99223 0
M  V30 3002 C 265.238 3.95053 1.64672 0
M  V30 3003 C 264.564 4.45805 2.95232 0
M  V30 3004 C 265.864 5.14865 0.878155 0
M  V30 3005 H 267.558 2.98537 0.22713 0
M  V30 3006 H 265.104 1.43596 0.107805 0
M  V30 3007 H 267.057 3.27951 2.64624 0
M  V30 3008 H 265.781 2.04056 2.55007 0
M  V30 3009 H 264.44 3.52228 1.01641 0
M  V30 3010 H 264.088 3.62181 3.49047 0
M  V30 3011 H 263.788 5.204 2.7287 0
M  V30 3012 H 265.312 4.91962 3.6167 0
M  V30 3013 H 266.726 5.55059 1.43466 0
M  V30 3014 H 265.123 5.95348 0.753738 0
M  V30 3015 H 266.193 4.84735 -0.126377 0
M  V30 3016 N 267.536 -0.106894 1.57237 0
M  V30 3017 C 268.486 -1.1366 1.9765 0
M  V30 3018 C 269.47 -1.36416 0.853203 0
M  V30 3019 O 270.662 -1.37305 1.11697 0
M  V30 3020 C 267.791 -2.46 2.39455 0
M  V30 3021 C 266.877 -2.26668 3.58445 0
M  V30 3022 N 267.268 -1.77176 4.73754 0
M  V30 3023 C 265.566 -2.57279 3.64312 0
M  V30 3024 C 266.267 -1.71836 5.5574 0
M  V30 3025 N 265.243 -2.16623 4.98573 0
M  V30 3026 H 269.045 -0.74669 2.84256 0
M  V30 3027 H 266.559 -0.314483 1.59326 0
M  V30 3028 H 268.556 -3.2049 2.6663 0
M  V30 3029 H 267.216 -2.85738 1.54219 0
M  V30 3030 H 268.227 -1.46545 4.96734 0
M  V30 3031 H 264.904 -3.00622 2.89711 0
M  V30 3032 H 266.294 -1.34723 6.58255 0
M  V30 3033 N 269.014 -1.53014 -0.377408 0
M  V30 3034 C 269.962 -1.7927 -1.48206 0
M  V30 3035 C 270.956 -0.661195 -1.55963 0
M  V30 3036 O 272.162 -0.843908 -1.58991 0
M  V30 3037 H 268.537 -0.567425 -0.493491 0
M  V30 3038 H 270.508 -2.71753 -1.2326 0
M  V30 3039 C 269.257 -1.98894 -2.85196 0
M  V30 3040 H 268.58 -2.85395 -2.79981 0
M  V30 3041 H 270.02 -2.21249 -3.61698 0
M  V30 3042 C 268.479 -0.764691 -3.28107 0
M  V30 3043 O 269.009 0.0523226 -4.01666 0
M  V30 3044 N 267.215 -0.591493 -2.84517 0
M  V30 3045 H 266.762 -1.25749 -2.24822 0
M  V30 3046 H 266.72 0.226253 -3.13585 0
M  V30 3047 N 270.492 0.636531 -1.44174 0
M  V30 3048 C 271.424 1.7618 -1.46606 0
M  V30 3049 C 272.437 1.58768 -0.360091 0
M  V30 3050 O 273.626 1.67181 -0.625518 0
M  V30 3051 C 270.726 3.13833 -1.27915 0
M  V30 3052 C 269.899 3.57753 -2.51658 0
M  V30 3053 C 268.958 4.74265 -2.27945 0
M  V30 3054 O 267.984 4.82852 -3.01401 0
M  V30 3055 N 269.186 5.65604 -1.30662 0
M  V30 3056 H 271.951 1.74567 -2.43612 0
M  V30 3057 H 269.512 0.820924 -1.39544 0
M  V30 3058 H 271.504 3.8949 -1.09907 0
M  V30 3059 H 270.074 3.10121 -0.39293 0
M  V30 3060 H 269.294 2.72362 -2.84978 0
M  V30 3061 H 270.582 3.83847 -3.33974 0
M  V30 3062 H 269.98 5.61354 -0.699844 0
M  V30 3063 H 268.537 6.40913 -1.18634 0
M  V30 3064 N 271.97 1.30982 0.876444 0
M  V30 3065 C 273.2 1.23063 1.65949 0
M  V30 3066 C 273.608 -0.207537 1.88058 0
M  V30 3067 O 272.951 -1.14781 1.43426 0
M  V30 3068 C 273.013 1.89768 3.05333 0
M  V30 3069 C 272.677 3.39106 3.0636 0
M  V30 3070 C 273.674 4.3496 2.84791 0
M  V30 3071 C 271.359 3.80693 3.27686 0
M  V30 3072 C 273.353 5.70375 2.84519 0
M  V30 3073 C 271.04 5.16223 3.27043 0
M  V30 3074 C 272.038 6.10875 3.05485 0
M  V30 3075 O 271.726 7.43928 3.04674 0
M  V30 3076 H 271.458 0.426685 0.524324 0
M  V30 3077 H 274.012 1.7329 1.10271 0
M  V30 3078 H 272.242 1.34082 3.6271 0
M  V30 3079 H 273.931 1.75853 3.65829 0
M  V30 3080 H 274.697 4.0416 2.68103 0
M  V30 3081 H 270.576 3.07457 3.43499 0
M  V30 3082 H 274.12 6.44228 2.67611 0
M  V30 3083 H 270.017 5.4666 3.43269 0
M  V30 3084 H 270.785 7.53022 3.2078 0
M  V30 3085 N 273.449 -1.08991 1.13837 0
M  V30 3086 C 274.695 -1.81526 0.90422 0
M  V30 3087 C 275.028 -1.85706 -0.568066 0
M  V30 3088 O 274.303 -1.32855 -1.42056 0
M  V30 3089 C 274.586 -3.27447 1.49835 0
M  V30 3090 C 274.439 -3.31512 3.04006 0
M  V30 3091 C 275.758 -4.24256 1.17025 0
M  V30 3092 H 272.877 -0.659029 0.329923 0
M  V30 3093 H 275.519 -1.27644 1.40737 0
M  V30 3094 H 273.669 -3.73462 1.07044 0
M  V30 3095 H 275.341 -2.93867 3.55584 0
M  V30 3096 H 273.584 -2.70963 3.38765 0
M  V30 3097 H 274.255 -4.34329 3.40679 0
M  V30 3098 H 276.731 -3.86549 1.54009 0
M  V30 3099 H 275.607 -5.24684 1.61237 0
M  V30 3100 H 275.868 -4.42019 0.0846274 0
M  V30 3101 N 274.927 -0.932562 -1.27047 0
M  V30 3102 C 275.857 -0.452902 -2.29066 0
M  V30 3103 C 276.838 0.489338 -1.62909 0
M  V30 3104 O 278.023 0.393046 -1.90181 0
M  V30 3105 C 275.153 0.290698 -3.46081 0
M  V30 3106 C 274.107 -0.564168 -4.24265 0
M  V30 3107 C 273.433 0.308886 -5.33807 0
M  V30 3108 C 274.733 -1.83112 -4.89149 0
M  V30 3109 H 276.427 -1.30552 -2.69437 0
M  V30 3110 H 273.973 -0.629201 -1.29526 0
M  V30 3111 H 275.926 0.637233 -4.16554 0
M  V30 3112 H 274.65 1.17738 -3.0464 0
M  V30 3113 H 273.309 -0.893477 -3.55545 0
M  V30 3114 H 272.957 1.19467 -4.88607 0
M  V30 3115 H 272.657 -0.259633 -5.87026 0
M  V30 3116 H 274.181 0.650884 -6.07121 0
M  V30 3117 H 275.595 -1.55236 -5.51883 0
M  V30 3118 H 273.992 -2.34353 -5.52448 0
M  V30 3119 H 275.062 -2.54772 -4.12576 0
M  V30 3120 N 276.405 1.4127 -0.698611 0
M  V30 3121 C 277.368 2.29158 -0.044132 0
M  V30 3122 C 278.368 1.44529 0.704841 0
M  V30 3123 O 279.558 1.65643 0.539276 0
M  V30 3124 C 276.69 3.27459 0.947809 0
M  V30 3125 H 277.883 2.88529 -0.817994 0
M  V30 3126 H 275.436 1.49307 -0.46228 0
M  V30 3127 H 276.171 2.73073 1.74933 0
M  V30 3128 H 275.956 3.8991 0.41385 0
M  V30 3129 H 277.446 3.93311 1.40344 0
M  V30 3130 N 277.883 0.443576 1.51229 0
M  V30 3131 C 278.813 -0.355142 2.30783 0
M  V30 3132 C 279.794 -1.0154 1.36468 0
M  V30 3133 O 280.979 -1.01785 1.65389 0
M  V30 3134 C 278.109 -1.45312 3.15439 0
M  V30 3135 C 277.063 -0.916002 4.18083 0
M  V30 3136 C 276.389 -2.1102 4.91299 0
M  V30 3137 C 277.689 0.0538602 5.22272 0
M  V30 3138 H 279.383 0.308767 2.97804 0
M  V30 3139 H 276.929 0.149937 1.43217 0
M  V30 3140 H 278.882 -2.01914 3.69876 0
M  V30 3141 H 277.606 -2.14541 2.46252 0
M  V30 3142 H 276.265 -0.372145 3.64706 0
M  V30 3143 H 275.913 -2.78882 4.18609 0
M  V30 3144 H 275.613 -1.75717 5.60712 0
M  V30 3145 H 277.137 -2.68164 5.48562 0
M  V30 3146 H 278.551 -0.422069 5.71744 0
M  V30 3147 H 276.948 0.319776 5.99247 0
M  V30 3148 H 278.018 0.98858 4.74716 0
M  V30 3149 N 279.361 -1.56624 0.175154 0
M  V30 3150 C 280.308 -2.18149 -0.753634 0
M  V30 3151 C 281.278 -1.12265 -1.22417 0
M  V30 3152 O 282.463 -1.40432 -1.29165 0
M  V30 3153 C 279.603 -2.82933 -1.97592 0
M  V30 3154 C 278.716 -4.03289 -1.5486 0
M  V30 3155 C 277.851 -4.55988 -2.72485 0
M  V30 3156 C 276.89 -5.68746 -2.26262 0
M  V30 3157 N 276.027 -6.15938 -3.36994 0
M  V30 3158 H 280.867 -2.9717 -0.222195 0
M  V30 3159 H 278.404 -1.46774 -0.0979422 0
M  V30 3160 H 280.362 -3.18653 -2.69288 0
M  V30 3161 H 278.992 -2.06509 -2.481 0
M  V30 3162 H 278.044 -3.73364 -0.728246 0
M  V30 3163 H 279.356 -4.849 -1.16933 0
M  V30 3164 H 278.51 -4.9391 -3.52332 0
M  V30 3165 H 277.249 -3.73443 -3.13674 0
M  V30 3166 H 276.254 -5.30372 -1.44863 0
M  V30 3167 H 277.479 -6.53095 -1.86127 0
M  V30 3168 H 275.425 -5.36321 -3.77751 0
M  V30 3169 H 275.342 -6.92548 -3.03172 0
M  V30 3170 H 276.61 -6.58511 -4.17114 0
M  V30 3171 N 280.839 0.0985539 -1.57292 0
M  V30 3172 C 282.087 0.801092 -1.85545 0
M  V30 3173 C 282.408 1.79438 -0.763353 0
M  V30 3174 O 281.678 1.94763 0.21073 0
M  V30 3175 H 280.258 0.29884 -0.684619 0
M  V30 3176 H 282.92 0.0810064 -1.94732 0
M  V30 3177 H 282.016 1.3338 -2.82163 0
M  V30 3178 N 282.317 1.53212 0.369288 0
M  V30 3179 C 283.28 1.7872 1.43498 0
M  V30 3180 C 284.28 0.657554 1.46741 0
M  V30 3181 O 285.47 0.925736 1.47566 0
M  V30 3182 C 282.602 1.90591 2.82645 0
M  V30 3183 H 283.795 2.73894 1.22156 0
M  V30 3184 H 281.348 1.44233 0.602203 0
M  V30 3185 H 282.083 0.974709 3.09306 0
M  V30 3186 H 281.868 2.72751 2.8169 0
M  V30 3187 H 283.358 2.11931 3.59826 0
M  V30 3188 N 283.795 -0.628877 1.44509 0
M  V30 3189 C 284.727 -1.754 1.47538 0
M  V30 3190 C 285.74 -1.58575 0.368506 0
M  V30 3191 O 286.929 -1.66847 0.634376 0
M  V30 3192 C 284.029 -3.1315 1.29577 0
M  V30 3193 C 283.202 -3.56413 2.53551 0
M  V30 3194 C 282.261 -4.7305 2.30457 0
M  V30 3195 O 281.287 -4.81247 3.03957 0
M  V30 3196 N 282.489 -5.64903 1.3366 0
M  V30 3197 H 285.254 -1.73272 2.44534 0
M  V30 3198 H 282.815 -0.813512 1.39977 0
M  V30 3199 H 284.807 -3.88902 1.11971 0
M  V30 3200 H 283.377 -3.09908 0.409371 0
M  V30 3201 H 282.597 -2.70847 2.86419 0
M  V30 3202 H 283.885 -3.82071 3.36005 0
M  V30 3203 H 283.283 -5.60975 0.729604 0
M  V30 3204 H 281.84 -6.40275 1.22032 0
M  V30 3205 N 285.273 -1.31445 -0.869486 0
M  V30 3206 C 286.203 -1.21727 -1.99261 0
M  V30 3207 C 287.184 -0.104359 -1.6978 0
M  V30 3208 O 288.369 -0.289038 -1.92037 0
M  V30 3209 C 285.499 -0.924317 -3.34774 0
M  V30 3210 C 284.453 -1.99685 -3.78563 0
M  V30 3211 C 283.779 -1.55658 -5.11541 0
M  V30 3212 C 285.079 -3.41003 -3.95619 0
M  V30 3213 H 286.773 -2.1569 -2.07649 0
M  V30 3214 H 284.319 -1.03839 -0.997675 0
M  V30 3215 H 286.272 -0.842934 -4.12883 0
M  V30 3216 H 284.996 0.0509793 -3.2656 0
M  V30 3217 H 283.655 -2.06813 -3.02694 0
M  V30 3218 H 283.303 -0.569132 -4.9977 0
M  V30 3219 H 283.003 -2.27409 -5.41811 0
M  V30 3220 H 284.527 -1.48928 -5.92159 0
M  V30 3221 H 285.941 -3.36547 -4.64122 0
M  V30 3222 H 284.338 -4.10975 -4.37286 0
M  V30 3223 H 285.408 -3.81754 -2.98985 0
M  V30 3224 N 286.751 1.08385 -1.14413 0
M  V30 3225 C 287.701 2.13509 -0.79987 0
M  V30 3226 C 288.685 1.5951 0.211059 0
M  V30 3227 O 289.877 1.76995 0.0133694 0
M  V30 3228 C 287.006 3.42162 -0.279297 0
M  V30 3229 C 286.092 4.03042 -1.31976 0
M  V30 3230 N 286.483 4.38327 -2.52395 0
M  V30 3231 C 284.781 4.30379 -1.17004 0
M  V30 3232 C 285.482 4.86428 -3.19003 0
M  V30 3233 N 284.458 4.84547 -2.46405 0
M  V30 3234 H 288.26 2.38609 -1.7159 0
M  V30 3235 H 285.774 1.2572 -1.02802 0
M  V30 3236 H 287.771 4.16898 -0.0143688 0
M  V30 3237 H 286.431 3.18511 0.630923 0
M  V30 3238 H 287.442 4.29349 -2.89621 0
M  V30 3239 H 284.119 4.16281 -0.318854 0
M  V30 3240 H 285.509 5.23107 -4.21674 0
M  V30 3241 N 288.23 0.939286 1.26551 0
M  V30 3242 C 289.162 0.404704 2.25599 0
M  V30 3243 C 290.175 -0.470983 1.55838 0
M  V30 3244 O 291.364 -0.281734 1.76263 0
M  V30 3245 C 288.464 -0.43764 3.36062 0
M  V30 3246 C 287.637 0.421449 4.35365 0
M  V30 3247 C 286.696 -0.36015 5.24966 0
M  V30 3248 O 285.722 0.236167 5.6871 0
M  V30 3249 N 286.924 -1.65715 5.56344 0
M  V30 3250 H 289.689 1.25618 2.72103 0
M  V30 3251 H 287.25 0.807963 1.40298 0
M  V30 3252 H 289.242 -0.967866 3.92956 0
M  V30 3253 H 287.812 -1.18991 2.89067 0
M  V30 3254 H 287.032 1.1329 3.7757 0
M  V30 3255 H 288.32 1.00835 4.98708 0
M  V30 3256 H 287.718 -2.16378 5.22682 0
M  V30 3257 H 286.275 -2.13366 6.15888 0
M  V30 3258 N 289.708 -1.40897 0.706093 0
M  V30 3259 C 290.656 -2.32572 0.0361893 0
M  V30 3260 C 291.65 -1.51532 -0.757266 0
M  V30 3261 O 292.856 -1.67396 -0.661703 0
M  V30 3262 H 289.231 -0.751966 -0.00709935 0
M  V30 3263 H 291.202 -2.86733 0.826249 0
M  V30 3264 C 289.951 -3.36418 -0.87854 0
M  V30 3265 H 289.274 -3.98836 -0.277401 0
M  V30 3266 H 290.714 -4.0308 -1.3154 0
M  V30 3267 C 289.173 -2.71141 -1.99961 0
M  V30 3268 O 289.703 -2.56735 -3.0895 0
M  V30 3269 N 287.909 -2.29671 -1.78043 0
M  V30 3270 H 287.456 -2.41588 -0.894042 0
M  V30 3271 H 287.414 -1.86332 -2.53235 0
M  V30 3272 N 291.186 -0.45159 -1.50991 0
M  V30 3273 C 292.118 0.388634 -2.25881 0
M  V30 3274 C 293.131 0.974041 -1.30446 0
M  V30 3275 O 294.32 0.865758 -1.56099 0
M  V30 3276 C 291.42 1.5571 -3.01011 0
M  V30 3277 C 290.593 1.08801 -4.23652 0
M  V30 3278 C 289.652 2.12825 -4.8124 0
M  V30 3279 O 288.678 1.71678 -5.42693 0
M  V30 3280 N 289.88 3.45453 -4.66522 0
M  V30 3281 H 292.645 -0.25329 -2.98628 0
M  V30 3282 H 290.206 -0.281268 -1.59438 0
M  V30 3283 H 292.198 2.24952 -3.3642 0
M  V30 3284 H 290.768 2.10409 -2.31186 0
M  V30 3285 H 289.988 0.22215 -3.93574 0
M  V30 3286 H 291.276 0.752213 -5.03209 0
M  V30 3287 H 290.674 3.81605 -4.17605 0
M  V30 3288 H 289.231 4.10549 -5.06254 0
M  V30 3289 N 292.664 1.56529 -0.183458 0
M  V30 3290 C 293.894 2.01331 0.463612 0
M  V30 3291 C 294.302 1.06278 1.5653 0
M  V30 3292 O 293.645 0.0577976 1.83609 0
M  V30 3293 C 293.707 3.42547 1.09096 0
M  V30 3294 C 293.371 4.56817 0.129442 0
M  V30 3295 C 294.368 5.15734 -0.656807 0
M  V30 3296 C 292.053 5.02295 0.02174 0
M  V30 3297 C 294.047 6.1857 -1.53784 0
M  V30 3298 C 291.734 6.04978 -0.862864 0
M  V30 3299 C 292.732 6.62988 -1.64123 0
M  V30 3300 O 292.42 7.63677 -2.51103 0
M  V30 3301 H 292.152 0.664917 0.121907 0
M  V30 3302 H 294.706 2.034 -0.285954 0
M  V30 3303 H 292.936 3.37428 1.88889 0
M  V30 3304 H 294.625 3.71228 1.64148 0
M  V30 3305 H 295.391 4.81473 -0.583839 0
M  V30 3306 H 291.27 4.56847 0.617392 0
M  V30 3307 H 294.814 6.63777 -2.14583 0
M  V30 3308 H 290.711 6.38663 -0.93699 0
M  V30 3309 H 291.479 7.81049 -2.44753 0
M  V30 3310 N 294.142 -0.090211 1.57342 0
M  V30 3311 C 295.372 -0.805055 1.90269 0
M  V30 3312 C 295.78 -1.72561 0.775842 0
M  V30 3313 O 295.123 -1.81839 -0.260843 0
M  V30 3314 C 295.185 -1.66734 3.18497 0
M  V30 3315 C 294.849 -0.918092 4.47683 0
M  V30 3316 C 295.846 -0.245674 5.19319 0
M  V30 3317 C 293.531 -0.890724 4.94339 0
M  V30 3318 C 295.525 0.444088 6.35851 0
M  V30 3319 C 293.212 -0.197179 6.10782 0
M  V30 3320 C 294.21 0.469044 6.81388 0
M  V30 3321 O 293.898 1.15146 7.95611 0
M  V30 3322 H 293.63 -0.235143 0.633785 0
M  V30 3323 H 296.184 -0.0703805 2.05279 0
M  V30 3324 H 294.414 -2.44437 2.99646 0
M  V30 3325 H 296.103 -2.25919 3.37217 0
M  V30 3326 H 296.869 -0.258246 4.84312 0
M  V30 3327 H 292.748 -1.39873 4.39268 0
M  V30 3328 H 296.292 0.964667 6.90898 0
M  V30 3329 H 292.189 -0.18247 6.45242 0
M  V30 3330 H 292.957 1.05885 8.11622 0
M  V30 3331 N 295.62 -1.53406 -0.361157 0
M  V30 3332 C 296.897 -1.60411 -1.11927 0
M  V30 3333 C 297.277 -0.414385 -2.06993 0
M  V30 3334 O 296.625 0.594976 -2.20618 0
M  V30 3335 C 296.835 -2.95652 -1.85448 0
M  V30 3336 C 298.183 -3.50386 -2.39823 0
M  V30 3337 O 299.207 -2.97711 -1.95568 0
M  V30 3338 O 298.066 -4.42482 -3.20737 0
M  V30 3339 H 295.16 -0.64811 -0.513695 0
M  V30 3340 H 297.706 -1.65749 -0.364065 0
M  V30 3341 H 296.478 -3.73682 -1.16091 0
M  V30 3342 H 296.101 -2.93825 -2.67866 0
M  V30 3343 N 297.098 0.621204 -1.44841 0
M  V30 3344 C 298.347 1.37658 -1.47422 0
M  V30 3345 C 298.66 1.95264 -0.114629 0
M  V30 3346 O 299.866 2.71494 -0.0180199 0
M  V30 3347 C 298.322 2.49285 -2.59586 0
M  V30 3348 C 297.93 1.98149 -4.01797 0
M  V30 3349 C 299.674 3.26409 -2.71399 0
M  V30 3350 C 297.581 3.07178 -5.05367 0
M  V30 3351 H 296.511 0.517344 -0.548517 0
M  V30 3352 H 299.162 0.667257 -1.70938 0
M  V30 3353 H 297.544 3.22839 -2.29328 0
M  V30 3354 H 298.718 1.31395 -4.41669 0
M  V30 3355 H 297.033 1.33812 -3.94314 0
M  V30 3356 H 299.63 4.07706 -3.45948 0
M  V30 3357 H 299.973 3.76535 -1.77559 0
M  V30 3358 H 300.506 2.5995 -3.01116 0
M  V30 3359 H 297.245 2.61985 -6.00869 0
M  V30 3360 H 296.765 3.72542 -4.70077 0
M  V30 3361 H 298.444 3.71789 -5.29511 0
M  V30 3362 N 298.576 1.31904 0.862503 0
M  V30 3363 C 299.804 1.24998 1.64873 0
M  V30 3364 C 300.219 -0.183425 1.87907 0
M  V30 3365 O 299.576 -1.11794 1.44251 0
M  V30 3366 C 299.627 1.99829 3.01248 0
M  V30 3367 O 299.348 3.37575 2.79239 0
M  V30 3368 C 300.849 1.99852 3.95694 0
M  V30 3369 H 298.069 0.431599 0.513773 0
M  V30 3370 H 300.613 1.73901 1.07604 0
M  V30 3371 H 298.768 1.54668 3.55185 0
M  V30 3372 H 299.182 3.75776 3.65914 0
M  V30 3373 H 300.656 2.56709 4.88676 0
M  V30 3374 H 301.133 0.982852 4.28062 0
M  V30 3375 H 301.739 2.44926 3.47694 0
M  V30 3376 N 300.054 -1.07777 1.14986 0
M  V30 3377 C 300.984 -2.16865 0.865557 0
M  V30 3378 C 301.965 -1.69123 -0.182083 0
M  V30 3379 O 303.15 -1.94164 -0.0373815 0
M  V30 3380 C 300.28 -3.45539 0.349313 0
M  V30 3381 C 299.234 -4.06708 1.33313 0
M  V30 3382 C 298.56 -5.30411 0.675918 0
M  V30 3383 C 299.86 -4.47241 2.69764 0
M  V30 3384 H 301.554 -2.40905 1.77778 0
M  V30 3385 H 299.1 -1.15781 0.856203 0
M  V30 3386 H 301.053 -4.21174 0.137983 0
M  V30 3387 H 299.777 -3.21072 -0.598362 0
M  V30 3388 H 298.436 -3.33112 1.53075 0
M  V30 3389 H 298.084 -5.02232 -0.277767 0
M  V30 3390 H 297.784 -5.72293 1.33244 0
M  V30 3391 H 299.308 -6.08755 0.474262 0
M  V30 3392 H 300.722 -5.14025 2.53873 0
M  V30 3393 H 299.119 -5.00062 3.3175 0
M  V30 3394 H 300.189 -3.58818 3.26156 0
M  V30 3395 N 301.532 -0.945985 -1.26051 0
M  V30 3396 C 302.943 -0.638096 -1.75457 0
M  V30 3397 C 303.294 0.846672 -1.76991 0
M  V30 3398 O 302.419 1.66262 -1.38513 0
M  V30 3399 C 303.014 -1.15157 -3.18629 0
M  V30 3400 C 301.573 -0.894004 -3.65629 0
M  V30 3401 C 300.72 -1.29967 -2.44957 0
M  V30 3402 H 303.671 -1.12376 -1.1206 0
M  V30 3403 H 303.692 -0.507615 -3.77099 0
M  V30 3404 H 303.204 -2.23222 -3.1748 0
M  V30 3405 H 301.305 0.172057 -3.72203 0
M  V30 3406 H 301.418 -1.52439 -4.54202 0
M  V30 3407 H 299.782 -0.718078 -2.44368 0
M  V30 3408 H 300.565 -2.38935 -2.46505 0
M  V30 3409 N 303.011 1.40521 -0.713556 0
M  V30 3410 C 303.941 2.33381 -0.0743864 0
M  V30 3411 C 304.922 1.52784 0.747735 0
M  V30 3412 O 306.107 1.81258 0.697071 0
M  V30 3413 C 303.237 3.36748 0.849598 0
M  V30 3414 C 302.191 4.27793 0.133247 0
M  V30 3415 C 301.517 5.21679 1.17281 0
M  V30 3416 C 302.817 5.12415 -1.01134 0
M  V30 3417 H 304.511 2.87081 -0.850007 0
M  V30 3418 H 302.057 1.38034 -0.410201 0
M  V30 3419 H 304.01 4.00648 1.30612 0
M  V30 3420 H 302.734 2.81439 1.65709 0
M  V30 3421 H 301.393 3.65342 -0.303426 0
M  V30 3422 H 301.041 4.62677 1.9733 0
M  V30 3423 H 300.741 5.83435 0.698397 0
M  V30 3424 H 302.265 5.88456 1.62947 0
M  V30 3425 H 303.679 5.69781 -0.634274 0
M  V30 3426 H 302.076 5.83203 -1.41399 0
M  V30 3427 H 303.146 4.48514 -1.84292 0
M  V30 3428 N 304.489 0.459591 1.5075 0
M  V30 3429 C 305.419 -0.330644 2.31147 0
M  V30 3430 C 306.4 -1.00087 1.37538 0
M  V30 3431 O 307.585 -1.00025 1.66459 0
M  V30 3432 C 304.715 -1.41958 3.16962 0
M  V30 3433 C 303.669 -0.871608 4.19031 0
M  V30 3434 C 302.995 -2.05797 4.9351 0
M  V30 3435 C 304.295 0.109251 5.22186 0
M  V30 3436 H 305.989 0.340336 2.97459 0
M  V30 3437 H 303.535 0.165119 1.4305 0
M  V30 3438 H 305.488 -1.9798 3.71997 0
M  V30 3439 H 304.212 -2.11917 2.48513 0
M  V30 3440 H 302.871 -0.333442 3.6508 0
M  V30 3441 H 302.519 -2.74427 4.21544 0
M  V30 3442 H 302.219 -1.6976 5.62544 0
M  V30 3443 H 303.743 -2.62331 5.51375 0
M  V30 3444 H 305.157 -0.361405 5.7216 0
M  V30 3445 H 303.554 0.383316 5.98875 0
M  V30 3446 H 304.624 1.03887 4.73641 0
M  V30 3447 N 305.967 -1.56429 0.191757 0
M  V30 3448 C 306.897 -2.21937 -0.725696 0
M  V30 3449 C 307.878 -1.1814 -1.2238 0
M  V30 3450 O 309.063 -1.46636 -1.27325 0
M  V30 3451 C 306.193 -2.87611 -1.94672 0
M  V30 3452 C 305.147 -3.97623 -1.58366 0
M  V30 3453 C 304.473 -4.50446 -2.88102 0
M  V30 3454 C 305.773 -5.16197 -0.796133 0
M  V30 3455 H 307.467 -2.98861 -0.179606 0
M  V30 3456 H 305.013 -1.43749 -0.0849464 0
M  V30 3457 H 306.966 -3.3212 -2.59373 0
M  V30 3458 H 305.69 -2.08087 -2.51728 0
M  V30 3459 H 304.349 -3.53801 -0.960247 0
M  V30 3460 H 303.997 -3.67688 -3.43241 0
M  V30 3461 H 303.697 -5.24675 -2.64556 0
M  V30 3462 H 305.221 -4.97654 -3.53798 0
M  V30 3463 H 306.635 -5.57271 -1.34618 0
M  V30 3464 H 305.032 -5.96471 -0.658928 0
M  V30 3465 H 306.102 -4.84473 0.203478 0
M  V30 3466 N 307.445 0.0818655 -1.57387 0
M  V30 3467 C 308.722 0.815343 -1.77796 0
M  V30 3468 C 309.102 1.96289 -0.77679 0
M  V30 3469 O 308.45 2.27691 0.192106 0
M  V30 3470 C 308.66 1.29765 -3.23978 0
M  V30 3471 C 310.008 1.7351 -3.8753 0
M  V30 3472 O 311.032 1.39356 -3.27808 0
M  V30 3473 O 309.891 2.36708 -4.92576 0
M  V30 3474 H 306.985 0.389914 -0.729312 0
M  V30 3475 H 309.531 0.0627213 -1.69584 0
M  V30 3476 H 308.303 0.47608 -3.88393 0
M  V30 3477 H 307.926 2.11189 -3.36875 0
M  V30 3478 N 308.923 1.53595 0.353017 0
M  V30 3479 C 310.148 1.7462 1.11904 0
M  V30 3480 C 310.573 0.479721 1.8188 0
M  V30 3481 O 309.931 -0.567066 1.72204 0
M  V30 3482 C 309.979 2.92029 2.11545 0
M  V30 3483 O 309.083 2.61516 3.18878 0
M  V30 3484 H 308.424 0.579531 0.324099 0
M  V30 3485 H 310.954 2.00525 0.406301 0
M  V30 3486 H 310.964 3.18551 2.5493 0
M  V30 3487 H 309.639 3.83888 1.60008 0
M  V30 3488 H 308.216 2.45852 2.80377 0
M  V30 3489 N 310.401 -0.613514 1.45168 0
M  V30 3490 C 311.331 -1.7354 1.56225 0
M  V30 3491 C 312.312 -1.64981 0.41414 0
M  V30 3492 O 313.497 -1.83472 0.636526 0
M  V30 3493 C 310.627 -3.12128 1.52295 0
M  V30 3494 C 309.581 -3.35491 2.65762 0
M  V30 3495 C 308.907 -4.74291 2.46885 0
M  V30 3496 C 310.207 -3.26325 4.0781 0
M  V30 3497 H 311.901 -1.64543 2.50132 0
M  V30 3498 H 309.447 -0.790185 1.20383 0
M  V30 3499 H 311.4 -3.90404 1.58628 0
M  V30 3500 H 310.124 -3.2195 0.549139 0
M  V30 3501 H 308.783 -2.59603 2.58847 0
M  V30 3502 H 308.431 -4.80839 1.47657 0
M  V30 3503 H 308.131 -4.9088 3.22972 0
M  V30 3504 H 309.655 -5.54775 2.55063 0
M  V30 3505 H 311.069 -3.94483 4.16 0
M  V30 3506 H 309.466 -3.54445 4.8424 0
M  V30 3507 H 310.536 -2.23855 4.30136 0
M  V30 3508 N 311.879 -1.3236 -0.855495 0
M  V30 3509 C 312.811 -1.17052 -1.97057 0
M  V30 3510 C 313.824 -0.10574 -1.62456 0
M  V30 3511 O 315.013 -0.354619 -1.74942 0
M  V30 3512 C 312.113 -0.769305 -3.30053 0
M  V30 3513 C 311.286 -1.9222 -3.929 0
M  V30 3514 C 310.345 -1.50466 -5.04228 0
M  V30 3515 O 309.371 -2.21655 -5.24269 0
M  V30 3516 N 310.573 -0.400209 -5.79119 0
M  V30 3517 H 313.338 -2.13103 -2.1073 0
M  V30 3518 H 310.899 -1.24885 -1.0303 0
M  V30 3519 H 312.891 -0.472407 -4.01933 0
M  V30 3520 H 311.461 0.100025 -3.1244 0
M  V30 3521 H 310.681 -2.38563 -3.13817 0
M  V30 3522 H 311.969 -2.69403 -4.31624 0
M  V30 3523 H 311.367 0.192319 -5.65373 0
M  V30 3524 H 309.924 -0.162912 -6.51596 0
M  V30 3525 N 313.357 1.07166 -1.15556 0
M  V30 3526 C 314.304 2.14417 -0.854055 0
M  V30 3527 C 315.274 1.64965 0.193806 0
M  V30 3528 O 316.459 1.90703 0.0609443 0
M  V30 3529 C 313.599 3.43304 -0.351574 0
M  V30 3530 C 312.712 4.06537 -1.46123 0
M  V30 3531 C 311.847 5.23266 -0.914677 0
M  V30 3532 C 310.886 5.78464 -2.00114 0
M  V30 3533 N 310.023 6.86521 -1.47083 0
M  V30 3534 H 314.863 2.39548 -1.77259 0
M  V30 3535 H 312.4 1.17543 -0.884425 0
M  V30 3536 H 314.358 4.17179 -0.0419409 0
M  V30 3537 H 312.988 3.18419 0.530037 0
M  V30 3538 H 312.04 3.30297 -1.88701 0
M  V30 3539 H 313.352 4.43567 -2.28144 0
M  V30 3540 H 312.506 6.04131 -0.557698 0
M  V30 3541 H 311.245 4.87658 -0.0636583 0
M  V30 3542 H 310.25 4.96243 -2.36692 0
M  V30 3543 H 311.475 6.16126 -2.85597 0
M  V30 3544 H 309.421 6.52849 -0.642198 0
M  V30 3545 H 309.338 7.22446 -2.22729 0
M  V30 3546 H 310.606 7.71087 -1.14215 0
M  V30 3547 N 314.835 0.952656 1.25548 0
M  V30 3548 C 315.768 0.415525 2.24385 0
M  V30 3549 C 316.746 -0.502046 1.54655 0
M  V30 3550 O 317.93 -0.436875 1.83368 0
M  V30 3551 C 315.057 -0.401734 3.36309 0
M  V30 3552 C 314.103 0.455949 4.24056 0
M  V30 3553 S 314.936 1.88698 5.01152 0
M  V30 3554 C 316.092 1.07809 6.16545 0
M  V30 3555 H 316.325 1.25315 2.69599 0
M  V30 3556 H 313.858 0.756587 1.34592 0
M  V30 3557 H 315.816 -0.867329 4.01233 0
M  V30 3558 H 314.477 -1.21416 2.89684 0
M  V30 3559 H 313.67 -0.170776 5.03711 0
M  V30 3560 H 313.272 0.856675 3.64056 0
M  V30 3561 H 315.564 0.325816 6.76716 0
M  V30 3562 H 316.507 1.84849 6.83547 0
M  V30 3563 H 316.915 0.60909 5.61204 0
M  V30 3564 N 316.313 -1.40141 0.720998 0
M  V30 3565 C 317.245 -2.29177 0.0324669 0
M  V30 3566 C 318.258 -1.46105 -0.718126 0
M  V30 3567 O 319.447 -1.69335 -0.564608 0
M  V30 3568 C 316.547 -3.24473 -0.978292 0
M  V30 3569 C 315.72 -4.36423 -0.292115 0
M  V30 3570 C 314.779 -5.12122 -1.20901 0
M  V30 3571 O 313.805 -5.64981 -0.691766 0
M  V30 3572 N 315.007 -5.21992 -2.53978 0
M  V30 3573 H 317.772 -2.88909 0.796984 0
M  V30 3574 H 315.333 -1.51569 0.569068 0
M  V30 3575 H 317.325 -3.71987 -1.59398 0
M  V30 3576 H 315.895 -2.65871 -1.64413 0
M  V30 3577 H 315.115 -3.90967 0.503847 0
M  V30 3578 H 316.403 -5.08467 0.183971 0
M  V30 3579 H 315.801 -4.8054 -2.98493 0
M  V30 3580 H 314.358 -5.72995 -3.10677 0
M  V30 3581 N 317.792 -0.46758 -1.50504 0
M  V30 3582 C 318.702 0.33382 -2.32213 0
M  V30 3583 C 319.718 0.999323 -1.42441 0
M  V30 3584 O 320.894 0.988068 -1.75497 0
M  V30 3585 C 317.959 1.4035 -3.17022 0
M  V30 3586 C 317.02 0.754961 -4.2261 0
M  V30 3587 C 316.253 1.77367 -5.03365 0
M  V30 3588 O 316.476 2.99976 -4.8515 0
M  V30 3589 O 315.41 1.34744 -5.86624 0
M  V30 3590 H 319.236 -0.334067 -3.01857 0
M  V30 3591 H 316.821 -0.229496 -1.47627 0
M  V30 3592 H 318.703 2.02318 -3.69656 0
M  V30 3593 H 317.378 2.05492 -2.5011 0
M  V30 3594 H 316.285 0.0964244 -3.73976 0
M  V30 3595 H 317.618 0.146545 -4.91982 0
M  V30 3596 N 319.27 1.56325 -0.20005 0
M  V30 3597 C 320.18 2.22931 0.730668 0
M  V30 3598 C 321.196 1.22997 1.23076 0
M  V30 3599 O 322.372 1.55748 1.27689 0
M  V30 3600 C 319.437 2.87948 1.93098 0
M  V30 3601 C 318.498 4.03166 1.47497 0
M  V30 3602 C 317.731 4.65073 2.61807 0
M  V30 3603 O 317.954 4.25913 3.79413 0
M  V30 3604 O 316.888 5.54452 2.34237 0
M  V30 3605 H 320.714 3.03084 0.193391 0
M  V30 3606 H 318.299 1.49371 0.0294621 0
M  V30 3607 H 320.181 3.29063 2.6324 0
M  V30 3608 H 318.856 2.10771 2.45677 0
M  V30 3609 H 317.763 3.66664 0.742201 0
M  V30 3610 H 319.096 4.82022 0.995796 0
M  V30 3611 N 320.748 -0.0735177 1.57428 0
M  V30 3612 C 321.681 -1.11932 1.98863 0
M  V30 3613 C 322.659 -1.37666 0.865266 0
M  V30 3614 O 323.843 -1.51068 1.12742 0
M  V30 3615 C 320.97 -2.46403 2.32386 0
M  V30 3616 C 320.016 -2.36815 3.54713 0
M  V30 3617 S 320.849 -1.76392 5.05614 0
M  V30 3618 C 322.005 -3.12444 5.42337 0
M  V30 3619 H 322.238 -0.766212 2.87257 0
M  V30 3620 H 319.771 -0.281987 1.51803 0
M  V30 3621 H 321.729 -3.23755 2.52375 0
M  V30 3622 H 320.39 -2.78876 1.44524 0
M  V30 3623 H 319.583 -3.35977 3.7568 0
M  V30 3624 H 319.185 -1.67598 3.34345 0
M  V30 3625 H 321.477 -4.08753 5.40303 0
M  V30 3626 H 322.42 -2.96258 6.43146 0
M  V30 3627 H 322.828 -3.1297 4.69798 0
M  V30 3628 N 322.226 -1.5378 -0.344866 0
M  V30 3629 C 323.475 -1.7018 -1.08267 0
M  V30 3630 C 323.788 -0.471 -1.89845 0
M  V30 3631 O 324.994 -0.515917 -2.66553 0
M  V30 3632 C 323.45 -3.00923 -1.97417 0
M  V30 3633 C 323.058 -4.31335 -1.21053 0
M  V30 3634 C 324.802 -3.26688 -2.71063 0
M  V30 3635 C 322.709 -5.53153 -2.09225 0
M  V30 3636 H 321.639 -0.634138 -0.407903 0
M  V30 3637 H 324.29 -1.8028 -0.342246 0
M  V30 3638 H 322.672 -2.84676 -2.75274 0
M  V30 3639 H 323.846 -4.58281 -0.481159 0
M  V30 3640 H 322.161 -4.12173 -0.591813 0
M  V30 3641 H 324.758 -4.1489 -3.37299 0
M  V30 3642 H 325.101 -2.43639 -3.37558 0
M  V30 3643 H 325.634 -3.43705 -2.0028 0
M  V30 3644 H 322.373 -6.38741 -1.47274 0
M  V30 3645 H 321.893 -5.30458 -2.79955 0
M  V30 3646 H 323.572 -5.88744 -2.68308 0
M  V30 3647 N 323.704 0.605807 -1.45491 0
M  V30 3648 C 324.651 1.7164 -1.54299 0
M  V30 3649 C 325.621 1.61486 -0.388761 0
M  V30 3650 O 326.806 1.81039 -0.602445 0
M  V30 3651 C 323.946 3.09953 -1.51734 0
M  V30 3652 C 323.059 3.309 -2.77721 0
M  V30 3653 C 322.194 4.59329 -2.66816 0
M  V30 3654 C 321.233 4.7354 -3.87848 0
M  V30 3655 N 320.37 5.9327 -3.75467 0
M  V30 3656 H 325.21 1.63449 -2.49176 0
M  V30 3657 H 322.747 0.796957 -1.23641 0
M  V30 3658 H 324.705 3.89977 -1.48235 0
M  V30 3659 H 323.335 3.17098 -0.604068 0
M  V30 3660 H 322.387 2.44639 -2.913 0
M  V30 3661 H 323.699 3.37274 -3.67488 0
M  V30 3662 H 322.853 5.4755 -2.61292 0
M  V30 3663 H 321.592 4.55355 -1.74651 0
M  V30 3664 H 320.597 3.83741 -3.93729 0
M  V30 3665 H 321.822 4.79309 -4.81082 0
M  V30 3666 H 319.768 5.90338 -2.86072 0
M  V30 3667 H 319.685 6.00811 -4.5887 0
M  V30 3668 H 320.953 6.83984 -3.73879 0
M  V30 3669 N 325.182 1.32811 0.848464 0
M  V30 3670 C 326.145 1.22194 1.9391 0
M  V30 3671 C 327.145 0.143404 1.60159 0
M  V30 3672 O 328.335 0.394253 1.6968 0
M  V30 3673 C 325.467 0.88067 3.29328 0
M  V30 3674 H 326.66 2.19127 2.04752 0
M  V30 3675 H 324.213 1.16731 1.0394 0
M  V30 3676 H 324.948 -0.0865776 3.24184 0
M  V30 3677 H 324.733 1.66052 3.55203 0
M  V30 3678 H 326.223 0.830871 4.09251 0
M  V30 3679 N 326.66 -1.06551 1.16123 0
M  V30 3680 C 327.59 -2.15935 0.88851 0
M  V30 3681 C 328.571 -1.69306 -0.164135 0
M  V30 3682 O 329.756 -1.94193 -0.0167857 0
M  V30 3683 C 326.886 -3.45149 0.385942 0
M  V30 3684 C 325.84 -4.05271 1.3762 0
M  V30 3685 C 325.166 -5.29664 0.732137 0
M  V30 3686 C 326.466 -4.44355 2.74493 0
M  V30 3687 H 328.16 -2.39006 1.80323 0
M  V30 3688 H 325.706 -1.14866 0.868435 0
M  V30 3689 H 327.659 -4.21004 0.182647 0
M  V30 3690 H 326.383 -3.21689 -0.564274 0
M  V30 3691 H 325.042 -3.3147 1.56599 0
M  V30 3692 H 324.69 -5.02499 -0.224483 0
M  V30 3693 H 324.39 -5.70848 1.39307 0
M  V30 3694 H 325.914 -6.08218 0.538802 0
M  V30 3695 H 327.328 -5.11303 2.59311 0
M  V30 3696 H 325.725 -4.96515 3.37035 0
M  V30 3697 H 326.795 -3.55339 3.29943 0
M  V30 3698 N 328.138 -0.959301 -1.25041 0
M  V30 3699 C 329.085 -0.482057 -2.2571 0
M  V30 3700 C 330.055 0.467939 -1.59372 0
M  V30 3701 O 331.24 0.380159 -1.86974 0
M  V30 3702 C 328.38 0.229623 -3.44335 0
M  V30 3703 C 327.493 -0.758156 -4.25295 0
M  V30 3704 C 326.628 -0.0234403 -5.31195 0
M  V30 3705 C 325.667 -1.00184 -6.03846 0
M  V30 3706 N 324.804 -0.29769 -7.01469 0
M  V30 3707 H 329.644 -1.34538 -2.65901 0
M  V30 3708 H 327.181 -0.674592 -1.3072 0
M  V30 3709 H 329.139 0.658856 -4.11965 0
M  V30 3710 H 327.769 1.05696 -3.05005 0
M  V30 3711 H 326.821 -1.30586 -3.57284 0
M  V30 3712 H 328.133 -1.50458 -4.75567 0
M  V30 3713 H 327.287 0.464201 -6.04922 0
M  V30 3714 H 326.026 0.755741 -4.81809 0
M  V30 3715 H 325.031 -1.50044 -5.2893 0
M  V30 3716 H 326.256 -1.78133 -6.55321 0
M  V30 3717 H 324.202 0.462668 -6.54366 0
M  V30 3718 H 324.119 -0.983128 -7.4958 0
M  V30 3719 H 325.387 0.16826 -7.79318 0
M  V30 3720 N 329.616 1.39756 -0.72842 0
M  V30 3721 C 330.864 2.00248 -0.272946 0
M  V30 3722 C 331.185 1.58077 1.14178 0
M  V30 3723 O 330.455 0.826014 1.77634 0
M  V30 3724 H 329.035 0.740554 -0.0979247 0
M  V30 3725 H 331.697 1.70903 -0.936912 0
M  V30 3726 H 330.793 3.10495 -0.316142 0
M  V30 3727 N 331.094 0.475555 1.50254 0
M  V30 3728 C 332.343 -0.0795996 2.01543 0
M  V30 3729 C 332.656 -1.4038 1.36209 0
M  V30 3730 O 333.862 -2.04415 1.7868 0
M  V30 3731 C 332.318 -0.192363 3.59386 0
M  V30 3732 C 331.926 1.12367 4.33679 0
M  V30 3733 C 333.67 -0.699238 4.18701 0
M  V30 3734 C 331.577 0.974453 5.83317 0
M  V30 3735 H 330.507 -0.0335228 0.753254 0
M  V30 3736 H 333.158 0.611128 1.73025 0
M  V30 3737 H 331.54 -0.946974 3.84511 0
M  V30 3738 H 332.714 1.88958 4.20276 0
M  V30 3739 H 331.029 1.562 3.85993 0
M  V30 3740 H 333.626 -0.827978 5.28251 0
M  V30 3741 H 333.969 -1.69171 3.80377 0
M  V30 3742 H 334.502 -0.00188807 3.978 0
M  V30 3743 H 331.241 1.94042 6.26121 0
M  V30 3744 H 330.761 0.248998 5.99283 0
M  V30 3745 H 332.44 0.642867 6.43798 0
M  V30 3746 N 332.573 -1.56217 0.208337 0
M  V30 3747 C 333.82 -1.97949 -0.42692 0
M  V30 3748 C 334.148 -1.09562 -1.60706 0
M  V30 3749 O 333.403 -0.137616 -1.95216 0
M  V30 3750 C 333.702 -3.45441 -0.916797 0
M  V30 3751 C 333.368 -4.50646 0.151391 0
M  V30 3752 C 332.03 -4.79139 0.444867 0
M  V30 3753 C 334.382 -5.13811 0.874492 0
M  V30 3754 C 331.71 -5.68084 1.46619 0
M  V30 3755 C 334.062 -6.03861 1.88506 0
M  V30 3756 C 332.726 -6.30704 2.18559 0
M  V30 3757 H 331.996 -0.724345 -0.156221 0
M  V30 3758 H 334.643 -1.89006 0.308084 0
M  V30 3759 H 332.948 -3.51521 -1.73032 0
M  V30 3760 H 334.645 -3.75094 -1.41794 0
M  V30 3761 H 331.235 -4.28511 -0.0875068 0
M  V30 3762 H 335.419 -4.91879 0.660996 0
M  V30 3763 H 330.675 -5.87151 1.7048 0
M  V30 3764 H 334.849 -6.51861 2.45051 0
M  V30 3765 H 332.476 -6.99424 2.97843 0
M  V30 3766 N 334.051 0.0651679 -1.57465 0
M  V30 3767 C 335.328 0.79644 -1.78651 0
M  V30 3768 C 335.708 1.95454 -0.797566 0
M  V30 3769 O 335.056 2.27882 0.167946 0
M  V30 3770 C 335.266 1.26322 -3.25337 0
M  V30 3771 C 336.614 1.6939 -3.89348 0
M  V30 3772 O 337.638 1.35872 -3.29268 0
M  V30 3773 O 336.497 2.31471 -4.95059 0
M  V30 3774 H 333.591 0.382157 -0.733407 0
M  V30 3775 H 336.137 0.0447311 -1.69641 0
M  V30 3776 H 334.909 0.434859 -3.88876 0
M  V30 3777 H 334.532 2.07604 -3.39096 0
M  V30 3778 N 335.529 1.53961 0.336706 0
M  V30 3779 C 336.439 1.85432 1.43708 0
M  V30 3780 C 337.455 0.745053 1.57242 0
M  V30 3781 O 338.631 1.03804 1.72588 0
M  V30 3782 C 335.696 2.06349 2.78605 0
M  V30 3783 C 334.757 3.30191 2.74358 0
M  V30 3784 C 333.99 3.50101 4.02822 0
M  V30 3785 O 334.213 2.7371 5.00439 0
M  V30 3786 O 333.147 4.43547 4.06878 0
M  V30 3787 H 336.973 2.78975 1.20028 0
M  V30 3788 H 334.558 1.39701 0.52952 0
M  V30 3789 H 336.44 2.21513 3.58483 0
M  V30 3790 H 335.115 1.15995 3.02203 0
M  V30 3791 H 334.022 3.20425 1.93078 0
M  V30 3792 H 335.355 4.2056 2.55715 0
M  V30 3793 N 337.007 -0.598083 1.45811 0
M  V30 3794 C 338.237 -1.38121 1.53643 0
M  V30 3795 C 338.645 -1.88425 0.171081 0
M  V30 3796 O 337.988 -1.63409 -0.839237 0
M  V30 3797 C 338.05 -2.61432 2.46766 0
M  V30 3798 C 337.714 -2.32702 3.93318 0
M  V30 3799 C 338.711 -1.92479 4.82957 0
M  V30 3800 C 336.396 -2.45321 4.38318 0
M  V30 3801 C 338.39 -1.65248 6.15607 0
M  V30 3802 C 336.077 -2.17703 5.71007 0
M  V30 3803 C 337.075 -1.7773 6.5947 0
M  V30 3804 O 336.763 -1.50441 7.89698 0
M  V30 3805 H 336.495 -0.428863 0.522544 0
M  V30 3806 H 339.049 -0.73557 1.91777 0
M  V30 3807 H 337.279 -3.28749 2.0362 0
M  V30 3808 H 338.968 -3.23487 2.45175 0
M  V30 3809 H 339.734 -1.82258 4.49452 0
M  V30 3810 H 335.613 -2.75399 3.69697 0
M  V30 3811 H 339.157 -1.33973 6.84614 0
M  V30 3812 H 335.054 -2.27544 6.04065 0
M  V30 3813 H 335.822 -1.64415 8.01817 0
M  V30 3814 N 338.485 -1.33259 -0.841409 0
M  V30 3815 C 339.71 -1.2775 -1.63385 0
M  V30 3816 C 340.135 0.149188 -1.87507 0
M  V30 3817 O 339.493 1.10498 -1.43736 0
M  V30 3818 C 339.541 -2.05571 -2.96265 0
M  V30 3819 O 338.645 -1.41257 -3.87453 0
M  V30 3820 H 337.986 -0.439627 -0.497618 0
M  V30 3821 H 340.516 -1.75782 -1.04699 0
M  V30 3822 H 340.526 -2.16241 -3.45982 0
M  V30 3823 H 339.201 -3.09309 -2.7803 0
M  V30 3824 H 337.778 -1.39217 -3.45938 0
M  V30 3825 N 339.963 1.05934 -1.16686 0
M  V30 3826 C 340.895 2.13468 -0.834503 0
M  V30 3827 C 341.908 1.62013 0.15984 0
M  V30 3828 O 343.097 1.7838 -0.0654228 0
M  V30 3829 C 340.197 3.3817 -0.222361 0
M  V30 3830 C 339.37 4.18928 -1.25771 0
M  V30 3831 C 338.429 5.21985 -0.664703 0
M  V30 3832 O 337.455 5.53334 -1.33453 0
M  V30 3833 N 338.657 5.77919 0.546834 0
M  V30 3834 H 341.422 2.42578 -1.75999 0
M  V30 3835 H 338.983 1.21967 -1.06469 0
M  V30 3836 H 340.975 4.04266 0.187472 0
M  V30 3837 H 339.545 3.06655 0.606758 0
M  V30 3838 H 338.765 3.48433 -1.84358 0
M  V30 3839 H 340.053 4.69687 -1.95631 0
M  V30 3840 H 339.451 5.54721 1.10912 0
M  V30 3841 H 338.008 6.45573 0.898829 0
M  V30 3842 N 341.441 0.965919 1.2453 0
M  V30 3843 C 342.69 0.622437 1.91856 0
M  V30 3844 C 343.003 -0.846006 1.76358 0
M  V30 3845 O 344.209 -1.29993 2.38357 0
M  V30 3846 C 342.665 1.0626 3.43856 0
M  V30 3847 C 342.273 2.55437 3.68043 0
M  V30 3848 C 344.017 0.792183 4.17043 0
M  V30 3849 C 341.924 2.93196 5.13605 0
M  V30 3850 H 340.854 0.229092 0.718354 0
M  V30 3851 H 343.505 1.17189 1.41206 0
M  V30 3852 H 341.887 0.441476 3.93531 0
M  V30 3853 H 343.061 3.22665 3.28974 0
M  V30 3854 H 341.376 2.8007 3.08139 0
M  V30 3855 H 343.973 1.05031 5.24283 0
M  V30 3856 H 344.316 -0.271584 4.15413 0
M  V30 3857 H 344.849 1.37419 3.73311 0
M  V30 3858 H 341.588 3.98636 5.20355 0
M  V30 3859 H 341.108 2.30651 5.53679 0
M  V30 3860 H 342.787 2.83004 5.81823 0
M  V30 3861 N 342.919 -1.39368 0.735821 0
M  V30 3862 C 344.147 -2.04795 0.294393 0
M  V30 3863 C 344.562 -1.55478 -1.07107 0
M  V30 3864 O 343.919 -0.720038 -1.67695 0
M  V30 3865 C 343.97 -3.6035 0.288071 0
M  V30 3866 O 343.691 -4.07852 1.59963 0
M  V30 3867 C 345.192 -4.42976 -0.169422 0
M  V30 3868 H 342.412 -0.658571 0.128551 0
M  V30 3869 H 344.956 -1.78399 0.999701 0
M  V30 3870 H 343.111 -3.85645 -0.368355 0
M  V30 3871 H 343.525 -5.02181 1.51375 0
M  V30 3872 H 344.999 -5.51864 -0.122687 0
M  V30 3873 H 345.476 -4.22068 -1.21472 0
M  V30 3874 H 346.082 -4.22832 0.457469 0
M  V30 3875 N 344.397 -0.483516 -1.5 0
M  V30 3876 C 345.622 0.0667119 -2.07293 0
M  V30 3877 C 346.047 1.3164 -1.3436 0
M  V30 3878 O 345.405 1.76945 -0.394987 0
M  V30 3879 C 345.453 0.321126 -3.59167 0
M  V30 3880 O 344.557 1.39927 -3.87936 0
M  V30 3881 H 343.898 -0.0184758 -0.663743 0
M  V30 3882 H 346.428 -0.678125 -1.93035 0
M  V30 3883 H 346.438 0.557906 -4.04168 0
M  V30 3884 H 345.113 -0.592007 -4.11665 0
M  V30 3885 H 343.69 1.14882 -3.54763 0
M  V30 3886 N 345.875 1.56104 -0.216619 0
M  V30 3887 C 346.805 2.23063 0.690296 0
M  V30 3888 C 347.786 1.20072 1.20485 0
M  V30 3889 O 348.971 1.48643 1.24976 0
M  V30 3890 C 346.101 2.90672 1.90072 0
M  V30 3891 C 345.055 4.00092 1.5202 0
M  V30 3892 C 344.381 4.54972 2.80899 0
M  V30 3893 C 345.681 5.17398 0.71391 0
M  V30 3894 H 347.375 2.99109 0.132038 0
M  V30 3895 H 344.921 1.43866 0.0620664 0
M  V30 3896 H 346.874 3.36204 2.54057 0
M  V30 3897 H 345.598 2.12066 2.48386 0
M  V30 3898 H 344.257 3.55283 0.903839 0
M  V30 3899 H 343.905 3.73102 3.37348 0
M  V30 3900 H 343.605 5.28817 2.56176 0
M  V30 3901 H 345.129 5.0322 3.45836 0
M  V30 3902 H 346.543 5.59342 1.25735 0
M  V30 3903 H 344.94 5.97444 0.563951 0
M  V30 3904 H 346.01 4.84088 -0.280527 0
M  V30 3905 N 347.353 -0.0568162 1.57498 0
M  V30 3906 C 348.599 -0.75422 1.88253 0
M  V30 3907 C 348.932 -1.76461 0.810865 0
M  V30 3908 O 348.207 -1.93691 -0.177259 0
M  V30 3909 C 348.49 -1.44878 3.2967 0
M  V30 3910 C 348.343 -0.453789 4.47505 0
M  V30 3911 C 349.662 -2.38994 3.69554 0
M  V30 3912 H 346.781 -0.272724 0.684683 0
M  V30 3913 H 349.423 -0.0172113 1.89992 0
M  V30 3914 H 347.573 -2.077 3.28318 0
M  V30 3915 H 349.245 0.170371 4.60985 0
M  V30 3916 H 347.488 0.229552 4.33192 0
M  V30 3917 H 348.159 -0.977699 5.43273 0
M  V30 3918 H 350.635 -1.86239 3.72095 0
M  V30 3919 H 349.511 -2.84587 4.69363 0
M  V30 3920 H 349.772 -3.24461 3.00296 0
M  V30 3921 N 348.832 -1.54138 -0.328536 0
M  V30 3922 C 350.06 -1.76062 -1.08673 0
M  V30 3923 C 350.475 -0.506852 -1.81869 0
M  V30 3924 O 349.832 0.522223 -1.74869 0
M  V30 3925 C 349.883 -2.95054 -2.08866 0
M  V30 3926 O 349.604 -4.15583 -1.38644 0
M  V30 3927 C 351.105 -3.2915 -2.96943 0
M  V30 3928 H 348.325 -0.587889 -0.323461 0
M  V30 3929 H 350.869 -2.0101 -0.376175 0
M  V30 3930 H 349.024 -2.72394 -2.75464 0
M  V30 3931 H 349.438 -4.82481 -2.05699 0
M  V30 3932 H 350.912 -4.15723 -3.63151 0
M  V30 3933 H 351.389 -2.461 -3.63774 0
M  V30 3934 H 351.995 -3.53871 -2.35914 0
M  V30 3935 N 350.31 0.590341 -1.46126 0
M  V30 3936 C 351.22 1.72793 -1.58681 0
M  V30 3937 C 352.236 1.67516 -0.470566 0
M  V30 3938 O 353.412 1.87562 -0.733642 0
M  V30 3939 C 350.477 3.09287 -1.5666 0
M  V30 3940 C 349.538 3.25886 -2.79458 0
M  V30 3941 C 348.771 4.55869 -2.77524 0
M  V30 3942 O 348.994 5.3928 -1.85832 0
M  V30 3943 O 347.928 4.75552 -3.68964 0
M  V30 3944 H 351.754 1.65149 -2.54872 0
M  V30 3945 H 349.339 0.756486 -1.28832 0
M  V30 3946 H 351.221 3.90577 -1.58202 0
M  V30 3947 H 349.896 3.17385 -0.636271 0
M  V30 3948 H 348.803 2.44119 -2.83472 0
M  V30 3949 H 350.136 3.22675 -3.71674 0
M  V30 3950 N 351.788 1.33704 0.83433 0
M  V30 3951 C 352.698 1.26382 1.97648 0
M  V30 3952 C 353.714 0.173548 1.73132 0
M  V30 3953 O 354.89 0.397962 1.97429 0
M  V30 3954 C 351.955 1.00769 3.31733 0
M  V30 3955 C 351.016 2.1884 3.69334 0
M  V30 3956 C 350.249 1.9444 4.9702 0
M  V30 3957 O 350.472 0.896961 5.63303 0
M  V30 3958 O 349.406 2.81093 5.32231 0
M  V30 3959 H 353.232 2.22444 2.06767 0
M  V30 3960 H 350.817 1.13795 0.968037 0
M  V30 3961 H 352.699 0.882186 4.12062 0
M  V30 3962 H 351.374 0.0773783 3.23608 0
M  V30 3963 H 350.281 2.36946 2.89495 0
M  V30 3964 H 351.614 3.10221 3.82131 0
M  V30 3965 N 353.266 -1.05314 1.17247 0
M  V30 3966 C 354.515 -1.77685 0.954521 0
M  V30 3967 C 354.828 -1.88616 -0.518025 0
M  V30 3968 O 356.034 -2.57714 -0.854144 0
M  V30 3969 C 354.49 -3.19402 1.65863 0
M  V30 3970 C 354.098 -3.16605 3.16963 0
M  V30 3971 C 355.842 -3.96237 1.52303 0
M  V30 3972 C 353.749 -4.53103 3.80068 0
M  V30 3973 H 352.679 -0.666 0.353496 0
M  V30 3974 H 355.33 -1.1805 1.40486 0
M  V30 3975 H 353.712 -3.79355 1.13602 0
M  V30 3976 H 354.886 -2.66176 3.76148 0
M  V30 3977 H 353.201 -2.53268 3.30521 0
M  V30 3978 H 355.798 -4.97157 1.96822 0
M  V30 3979 H 356.141 -4.136 0.473401 0
M  V30 3980 H 356.674 -3.42829 2.01775 0
M  V30 3981 H 353.413 -4.40946 4.85023 0
M  V30 3982 H 352.933 -5.03686 3.2567 0
M  V30 3983 H 354.612 -5.22045 3.82202 0
M  V30 3984 N 354.744 -0.972509 -1.24016 0
M  V30 3985 C 355.99 -0.637978 -1.92504 0
M  V30 3986 C 356.323 0.825383 -1.75787 0
M  V30 3987 O 355.598 1.59442 -1.11393 0
M  V30 3988 C 355.881 -1.01942 -3.45369 0
M  V30 3989 C 355.734 -2.53983 -3.71231 0
M  V30 3990 C 357.053 -0.55751 -4.36555 0
M  V30 3991 H 354.172 -0.233248 -0.699117 0
M  V30 3992 H 356.814 -1.21238 -1.46292 0
M  V30 3993 H 354.964 -0.530656 -3.84859 0
M  V30 3994 H 356.636 -3.10374 -3.41271 0
M  V30 3995 H 354.879 -2.96968 -3.16216 0
M  V30 3996 H 355.55 -2.75723 -4.78206 0
M  V30 3997 H 358.026 -0.977029 -4.04467 0
M  V30 3998 H 356.902 -0.85292 -5.42233 0
M  V30 3999 H 357.163 0.542328 -4.38761 0
M  V30 4000 N 356.222 1.38976 -0.743202 0
M  V30 4001 C 357.17 2.32394 -0.0978389 0
M  V30 4002 C 358.164 1.53486 0.716824 0
M  V30 4003 O 359.37 1.69092 0.617088 0
M  V30 4004 H 355.745 0.75189 -0.0128402 0
M  V30 4005 H 357.716 2.84441 -0.901981 0
M  V30 4006 C 356.465 3.38629 0.789036 0
M  V30 4007 H 355.788 3.99432 0.171559 0
M  V30 4008 H 357.228 4.06426 1.20807 0
M  V30 4009 C 355.687 2.76347 1.92702 0
M  V30 4010 O 356.217 2.64836 3.02034 0
M  V30 4011 N 354.423 2.34311 1.71891 0
M  V30 4012 H 353.97 2.43873 0.829675 0
M  V30 4013 H 353.928 1.9298 2.48205 0
M  V30 4014 N 357.7 0.491464 1.49741 0
M  V30 4015 C 358.946 -0.0565092 2.02721 0
M  V30 4016 C 359.279 -1.37522 1.37118 0
M  V30 4017 O 358.554 -1.87866 0.503645 0
M  V30 4018 C 358.837 -0.219051 3.59433 0
M  V30 4019 C 358.69 1.12211 4.35579 0
M  V30 4020 C 360.009 -0.964157 4.29409 0
M  V30 4021 H 357.128 -0.0190627 0.736753 0
M  V30 4022 H 359.77 0.641021 1.7886 0
M  V30 4023 H 357.92 -0.813165 3.79895 0
M  V30 4024 H 359.592 1.75437 4.26637 0
M  V30 4025 H 357.835 1.71377 3.98513 0
M  V30 4026 H 358.506 0.961794 5.43556 0
M  V30 4027 H 360.982 -0.460378 4.13545 0
M  V30 4028 H 359.858 -1.04671 5.38828 0
M  V30 4029 H 360.119 -2.00563 3.93988 0
M  V30 4030 N 359.178 -1.55987 0.224894 0
M  V30 4031 C 360.128 -2.17076 -0.697296 0
M  V30 4032 C 361.112 -1.12006 -1.15514 0
M  V30 4033 O 362.304 -1.37985 -1.10857 0
M  V30 4034 C 359.433 -2.85679 -1.90374 0
M  V30 4035 C 358.519 -3.97977 -1.46543 0
M  V30 4036 N 358.91 -5.00359 -0.739909 0
M  V30 4037 C 357.208 -4.10128 -1.75245 0
M  V30 4038 C 357.909 -5.79407 -0.515939 0
M  V30 4039 N 356.885 -5.32892 -1.07364 0
M  V30 4040 H 360.687 -2.93592 -0.134594 0
M  V30 4041 H 358.201 -1.62379 0.0262885 0
M  V30 4042 H 360.198 -3.27857 -2.57518 0
M  V30 4043 H 358.858 -2.1066 -2.47088 0
M  V30 4044 H 359.869 -5.16412 -0.392253 0
M  V30 4045 H 356.546 -3.46263 -2.33255 0
M  V30 4046 H 357.936 -6.71872 0.0617349 0
M  V30 4047 N 360.656 0.0484629 -1.57525 0
M  V30 4048 C 361.603 1.05504 -2.05275 0
M  V30 4049 C 362.573 1.37084 -0.937927 0
M  V30 4050 O 363.758 1.47754 -1.2072 0
M  V30 4051 C 360.898 2.35676 -2.52093 0
M  V30 4052 C 360.011 2.10423 -3.77288 0
M  V30 4053 C 359.146 3.34327 -4.12794 0
M  V30 4054 C 358.185 3.04542 -5.30962 0
M  V30 4055 N 357.322 4.20841 -5.61994 0
M  V30 4056 H 362.162 0.640885 -2.91027 0
M  V30 4057 H 359.699 0.304854 -1.43906 0
M  V30 4058 H 361.657 3.11709 -2.77297 0
M  V30 4059 H 360.287 2.7485 -1.69285 0
M  V30 4060 H 359.339 1.24976 -3.59284 0
M  V30 4061 H 360.651 1.84438 -4.63448 0
M  V30 4062 H 359.805 4.1874 -4.39024 0
M  V30 4063 H 358.544 3.63408 -3.25247 0
M  V30 4064 H 357.549 2.18528 -5.04505 0
M  V30 4065 H 358.774 2.76758 -6.20146 0
M  V30 4066 H 356.72 4.4991 -4.77406 0
M  V30 4067 H 356.637 3.98212 -6.42622 0
M  V30 4068 H 357.905 5.06184 -5.92789 0
M  V30 4069 N 362.134 1.5431 0.320358 0
M  V30 4070 C 363.044 1.86946 1.41734 0
M  V30 4071 C 364.06 0.761689 1.56443 0
M  V30 4072 O 365.236 1.05629 1.71477 0
M  V30 4073 C 362.301 2.09293 2.76401 0
M  V30 4074 C 361.362 3.33082 2.70841 0
M  V30 4075 C 360.595 3.54353 3.99086 0
M  V30 4076 O 360.818 2.79002 4.97508 0
M  V30 4077 O 359.752 4.47838 4.0215 0
M  V30 4078 H 363.578 2.80232 1.17062 0
M  V30 4079 H 361.163 1.40255 0.514673 0
M  V30 4080 H 363.045 2.25303 3.56113 0
M  V30 4081 H 361.72 1.19194 3.00956 0
M  V30 4082 H 360.627 3.22454 1.89668 0
M  V30 4083 H 361.96 4.23249 2.5124 0
M  V30 4084 N 363.613 -0.582584 1.46437 0
M  V30 4085 C 364.862 -1.337 1.5102 0
M  V30 4086 C 365.175 -1.94891 0.166359 0
M  V30 4087 O 366.381 -2.71351 0.0899954 0
M  V30 4088 C 364.837 -2.42315 2.66104 0
M  V30 4089 C 364.445 -1.87427 4.06909 0
M  V30 4090 C 366.189 -3.19099 2.79958 0
M  V30 4091 C 364.096 -2.93672 5.13333 0
M  V30 4092 H 363.026 -0.502619 0.562041 0
M  V30 4093 H 365.677 -0.621701 1.72647 0
M  V30 4094 H 364.059 -3.16645 2.37807 0
M  V30 4095 H 365.233 -1.19639 4.44998 0
M  V30 4096 H 363.548 -1.2331 3.97723 0
M  V30 4097 H 366.145 -3.9839 3.56636 0
M  V30 4098 H 366.488 -3.71695 1.87479 0
M  V30 4099 H 367.021 -2.51875 3.07902 0
M  V30 4100 H 363.76 -2.45962 6.07604 0
M  V30 4101 H 363.28 -3.59948 4.79789 0
M  V30 4102 H 364.959 -3.5762 5.39182 0
M  V30 4103 N 365.091 -1.34144 -0.827227 0
M  V30 4104 C 366.023 -1.21206 -1.9453 0
M  V30 4105 C 367.036 -0.140176 -1.62195 0
M  V30 4106 O 368.225 -0.391647 -1.7415 0
M  V30 4107 C 365.325 -0.839141 -3.28347 0
M  V30 4108 C 364.498 -2.0051 -3.88734 0
M  V30 4109 C 363.557 -1.61128 -5.00923 0
M  V30 4110 O 362.583 -2.32726 -5.19449 0
M  V30 4111 N 363.785 -0.522958 -5.7814 0
M  V30 4112 H 366.55 -2.17525 -2.06162 0
M  V30 4113 H 364.111 -1.27043 -1.00358 0
M  V30 4114 H 366.103 -0.557556 -4.00841 0
M  V30 4115 H 364.673 0.0337293 -3.12582 0
M  V30 4116 H 363.893 -2.45166 -3.08686 0
M  V30 4117 H 365.181 -2.78498 -4.25812 0
M  V30 4118 H 364.579 0.0723518 -5.65654 0
M  V30 4119 H 363.136 -0.301089 -6.51104 0
M  V30 4120 N 366.569 1.04691 -1.17803 0
M  V30 4121 C 367.502 2.12068 -0.842765 0
M  V30 4122 C 368.48 1.61455 0.192608 0
M  V30 4123 O 369.664 1.88359 0.072995 0
M  V30 4124 C 366.791 3.37715 -0.258063 0
M  V30 4125 C 365.837 4.07164 -1.26962 0
M  V30 4126 S 366.67 4.55047 -2.82299 0
M  V30 4127 C 367.826 5.83935 -2.25323 0
M  V30 4128 H 368.059 2.4018 -1.75217 0
M  V30 4129 H 365.592 1.17366 -1.00323 0
M  V30 4130 H 367.55 4.10435 0.0727935 0
M  V30 4131 H 366.211 3.0773 0.629357 0
M  V30 4132 H 365.404 4.9746 -0.809263 0
M  V30 4133 H 365.006 3.40533 -1.54639 0
M  V30 4134 H 367.298 6.57552 -1.63192 0
M  V30 4135 H 368.241 6.34725 -3.13894 0
M  V30 4136 H 368.649 5.3874 -1.68582 0
M  V30 4137 N 368.047 0.979072 1.23499 0
M  V30 4138 C 369.272 0.664845 1.96455 0
M  V30 4139 C 369.697 -0.761287 1.72006 0
M  V30 4140 O 369.055 -1.51837 0.990713 0
M  V30 4141 C 369.103 0.959479 3.47601 0
M  V30 4142 O 368.207 0.0508168 4.12369 0
M  V30 4143 H 367.548 0.250185 0.615064 0
M  V30 4144 H 370.078 1.31231 1.5697 0
M  V30 4145 H 370.088 0.895642 3.98048 0
M  V30 4146 H 368.763 1.99876 3.64723 0
M  V30 4147 H 367.34 0.16895 3.72517 0
M  V30 4148 N 369.525 -1.3858 0.750561 0
M  V30 4149 C 370.771 -2.00481 0.305825 0
M  V30 4150 C 371.104 -1.5944 -1.10872 0
M  V30 4151 O 370.379 -0.83052 -1.75877 0
M  V30 4152 C 370.662 -3.5758 0.425287 0
M  V30 4153 C 370.515 -4.08594 1.88072 0
M  V30 4154 C 371.834 -4.39719 -0.183122 0
M  V30 4155 H 368.953 -0.728348 0.112598 0
M  V30 4156 H 371.595 -1.64566 0.949638 0
M  V30 4157 H 369.745 -3.88306 -0.122828 0
M  V30 4158 H 371.417 -3.88523 2.48691 0
M  V30 4159 H 369.66 -3.61574 2.39681 0
M  V30 4160 H 370.331 -5.177 1.91548 0
M  V30 4161 H 372.807 -4.15128 0.284303 0
M  V30 4162 H 371.683 -5.48856 -0.0692757 0
M  V30 4163 H 371.944 -4.23434 -1.27106 0
M  V30 4164 N 371.003 -0.499398 -1.49478 0
M  V30 4165 C 371.913 0.284489 -2.32869 0
M  V30 4166 C 372.929 0.968885 -1.44529 0
M  V30 4167 O 374.105 0.95062 -1.77553 0
M  V30 4168 C 371.17 1.33594 -3.19928 0
M  V30 4169 C 370.231 0.665149 -4.24116 0
M  V30 4170 C 369.464 1.6665 -5.07014 0
M  V30 4171 O 369.687 2.89618 -4.91404 0
M  V30 4172 O 368.621 1.22271 -5.8935 0
M  V30 4173 H 372.447 -0.39802 -3.01081 0
M  V30 4174 H 370.032 -0.260758 -1.47107 0
M  V30 4175 H 371.914 1.94431 -3.73864 0
M  V30 4176 H 370.589 2.0014 -2.54412 0
M  V30 4177 H 369.496 0.0170769 -3.74096 0
M  V30 4178 H 370.829 0.0421555 -4.92182 0
M  V30 4179 N 372.481 1.55866 -0.233164 0
M  V30 4180 C 373.413 2.18099 0.704668 0
M  V30 4181 C 374.426 1.15334 1.14899 0
M  V30 4182 O 375.615 1.42262 1.07814 0
M  V30 4183 C 372.715 2.7592 1.96777 0
M  V30 4184 C 371.888 4.03969 1.67713 0
M  V30 4185 C 370.947 4.46242 2.78845 0
M  V30 4186 O 369.973 5.12903 2.46818 0
M  V30 4187 N 371.175 4.12886 4.08051 0
M  V30 4188 H 373.94 2.99205 0.172258 0
M  V30 4189 H 371.501 1.61815 -0.0525945 0
M  V30 4190 H 373.493 3.01165 2.70337 0
M  V30 4191 H 372.063 1.99051 2.41034 0
M  V30 4192 H 371.283 3.86459 0.777391 0
M  V30 4193 H 372.571 4.8748 1.4574 0
M  V30 4194 H 371.969 3.59342 4.3691 0
M  V30 4195 H 370.526 4.42997 4.78118 0
M  V30 4196 N 373.959 -0.0401083 1.57549 0
M  V30 4197 C 375.208 -0.732108 1.87944 0
M  V30 4198 C 375.521 -1.77107 0.830206 0
M  V30 4199 O 376.727 -2.51488 1.02302 0
M  V30 4200 C 375.183 -1.35315 3.33494 0
M  V30 4201 C 374.791 -0.351105 4.46622 0
M  V30 4202 C 376.535 -2.02566 3.73051 0
M  V30 4203 C 374.442 -0.979859 5.83226 0
M  V30 4204 H 373.372 -0.277188 0.701201 0
M  V30 4205 H 376.023 0.0138501 1.83495 0
M  V30 4206 H 374.405 -2.14844 3.32653 0
M  V30 4207 H 375.579 0.416674 4.58912 0
M  V30 4208 H 373.894 0.218708 4.15825 0
M  V30 4209 H 376.491 -2.50441 4.72423 0
M  V30 4210 H 376.834 -2.83904 3.04474 0
M  V30 4211 H 377.367 -1.29827 3.76018 0
M  V30 4212 H 374.106 -0.206135 6.55176 0
M  V30 4213 H 373.626 -1.71774 5.74677 0
M  V30 4214 H 375.305 -1.49046 6.29599 0
M  V30 4215 N 375.437 -1.54477 -0.31217 0
M  V30 4216 C 376.714 -1.63891 -1.06767 0
M  V30 4217 C 377.094 -0.480028 -2.0557 0
M  V30 4218 O 376.442 0.524487 -2.22399 0
M  V30 4219 C 376.652 -3.01402 -1.75948 0
M  V30 4220 C 378 -3.57838 -2.28554 0
M  V30 4221 O 379.024 -3.03782 -1.85998 0
M  V30 4222 O 377.883 -4.52462 -3.06497 0
M  V30 4223 H 374.977 -0.664125 -0.492816 0
M  V30 4224 H 377.523 -1.66823 -0.311149 0
M  V30 4225 H 376.295 -3.77187 -1.04144 0
M  V30 4226 H 375.918 -3.02199 -2.58383 0
M  V30 4227 N 376.915 0.57481 -1.46744 0
M  V30 4228 C 378.326 1.15695 -1.46532 0
M  V30 4229 C 378.677 1.95068 -0.210425 0
M  V30 4230 O 377.802 2.05241 0.685944 0
M  V30 4231 C 378.397 2.1048 -2.65487 0
M  V30 4232 C 376.956 2.64002 -2.68291 0
M  V30 4233 C 376.103 1.40026 -2.39349 0
M  V30 4234 H 379.054 0.362325 -1.54509 0
M  V30 4235 H 379.075 2.94074 -2.41455 0
M  V30 4236 H 378.587 1.52683 -3.56805 0
M  V30 4237 H 376.688 3.25646 -1.81067 0
M  V30 4238 H 376.801 3.06197 -3.68483 0
M  V30 4239 H 375.165 1.70106 -1.89568 0
M  V30 4240 H 375.948 0.840485 -3.32852 0
M  V30 4241 N 378.394 1.34581 0.820102 0
M  V30 4242 C 379.619 1.30333 1.61332 0
M  V30 4243 C 380.044 -0.119339 1.87721 0
M  V30 4244 O 379.402 -1.08197 1.45475 0
M  V30 4245 C 379.45 2.10258 2.92957 0
M  V30 4246 O 378.554 1.47404 3.85157 0
M  V30 4247 H 377.895 0.447488 0.490561 0
M  V30 4248 H 380.425 1.77425 1.01889 0
M  V30 4249 H 380.435 2.21718 3.42498 0
M  V30 4250 H 379.11 3.13693 2.73074 0
M  V30 4251 H 377.687 1.44703 3.43679 0
M  V30 4252 N 379.872 -1.04064 1.18357 0
M  V30 4253 C 381.1 -1.80916 1.00384 0
M  V30 4254 C 381.515 -1.83414 -0.447738 0
M  V30 4255 O 380.872 -1.26962 -1.31099 0
M  V30 4256 C 380.923 -3.26516 1.55144 0
M  V30 4257 O 380.644 -3.2424 2.94618 0
M  V30 4258 C 382.145 -4.20013 1.41789 0
M  V30 4259 H 379.365 -0.569728 0.354474 0
M  V30 4260 H 381.909 -1.31151 1.56906 0
M  V30 4261 H 380.064 -3.73512 1.02798 0
M  V30 4262 H 380.478 -4.15452 3.20156 0
M  V30 4263 H 381.952 -5.20111 1.84901 0
M  V30 4264 H 382.429 -4.37667 0.36661 0
M  V30 4265 H 383.035 -3.78881 1.93207 0
M  V30 4266 N 381.35 -0.985608 -1.22978 0
M  V30 4267 C 382.26 -0.538548 -2.28335 0
M  V30 4268 C 383.276 0.409163 -1.69121 0
M  V30 4269 O 384.452 0.277797 -1.99475 0
M  V30 4270 C 381.517 0.146867 -3.46389 0
M  V30 4271 C 380.578 -0.842896 -4.20944 0
M  V30 4272 C 379.811 -0.190095 -5.33361 0
M  V30 4273 O 380.034 1.01767 -5.61248 0
M  V30 4274 O 378.968 -0.891289 -5.95264 0
M  V30 4275 H 382.794 -1.41487 -2.68729 0
M  V30 4276 H 380.379 -0.753495 -1.29007 0
M  V30 4277 H 382.261 0.531125 -4.1804 0
M  V30 4278 H 380.936 0.997871 -3.07935 0
M  V30 4279 H 379.843 -1.27795 -3.51595 0
M  V30 4280 H 381.176 -1.66287 -4.6326 0
M  V30 4281 N 382.828 1.3818 -0.7579 0
M  V30 4282 C 384.058 2.04004 -0.326463 0
M  V30 4283 C 384.466 1.57286 1.05156 0
M  V30 4284 O 383.809 0.743144 1.67997 0
M  V30 4285 C 383.871 3.58444 -0.275402 0
M  V30 4286 C 383.535 4.28237 -1.59569 0
M  V30 4287 C 384.532 4.53312 -2.54566 0
M  V30 4288 C 382.217 4.66341 -1.86631 0
M  V30 4289 C 384.211 5.15531 -3.74842 0
M  V30 4290 C 381.898 5.28283 -3.0718 0
M  V30 4291 C 382.896 5.52814 -4.01106 0
M  V30 4292 O 382.584 6.13465 -5.19534 0
M  V30 4293 H 382.316 0.662026 -0.136739 0
M  V30 4294 H 384.87 1.7777 -1.02893 0
M  V30 4295 H 383.1 3.83667 0.483337 0
M  V30 4296 H 384.789 4.05701 0.127099 0
M  V30 4297 H 385.555 4.24299 -2.34936 0
M  V30 4298 H 381.434 4.46591 -1.14358 0
M  V30 4299 H 384.978 5.34594 -4.48168 0
M  V30 4300 H 380.875 5.56719 -3.26702 0
M  V30 4301 H 381.643 6.31951 -5.20173 0
M  V30 4302 N 384.306 0.507319 1.49211 0
M  V30 4303 C 385.254 -0.281364 2.30892 0
M  V30 4304 C 386.248 -0.95687 1.39787 0
M  V30 4305 O 387.454 -0.883838 1.56807 0
M  V30 4306 H 383.829 -0.109597 0.743971 0
M  V30 4307 H 385.8 0.42744 2.95323 0
M  V30 4308 C 384.549 -1.32918 3.21291 0
M  V30 4309 H 383.872 -0.818799 3.91326 0
M  V30 4310 H 385.312 -1.85288 3.81372 0
M  V30 4311 C 383.771 -2.35074 2.41333 0
M  V30 4312 O 384.301 -3.4108 2.12197 0
M  V30 4313 N 382.507 -2.07705 2.03241 0
M  V30 4314 H 382.054 -1.2152 2.27136 0
M  V30 4315 H 382.012 -2.76283 1.50051 0
M  V30 4316 N 385.784 -1.5574 0.241426 0
M  V30 4317 C 386.732 -2.22538 -0.676718 0
M  V30 4318 C 387.726 -1.21117 -1.18436 0
M  V30 4319 O 388.932 -1.39144 -1.14188 0
M  V30 4320 H 385.307 -0.713776 -0.236701 0
M  V30 4321 H 387.278 -2.98264 -0.0901187 0
M  V30 4322 C 386.027 -2.93439 -1.86518 0
M  V30 4323 H 385.35 -3.7125 -1.4837 0
M  V30 4324 H 386.79 -3.43549 -2.48495 0
M  V30 4325 C 385.249 -1.97008 -2.73294 0
M  V30 4326 O 385.779 -1.49965 -3.72657 0
M  V30 4327 N 383.985 -1.64227 -2.39745 0
M  V30 4328 H 383.532 -2.02677 -1.58996 0
M  V30 4329 H 383.49 -0.999708 -2.98083 0
M  V30 4330 N 387.262 0.0317525 -1.57568 0
M  V30 4331 C 388.509 0.723104 -1.89149 0
M  V30 4332 C 388.837 1.75504 -0.838377 0
M  V30 4333 O 388.092 1.95037 0.160982 0
M  V30 4334 C 388.391 1.43167 -3.27472 0
M  V30 4335 C 388.057 0.535972 -4.47703 0
M  V30 4336 C 386.719 0.289262 -4.8033 0
M  V30 4337 C 389.071 -0.0826125 -5.21135 0
M  V30 4338 C 386.399 -0.584853 -5.83778 0
M  V30 4339 C 388.751 -0.944414 -6.25511 0
M  V30 4340 C 387.415 -1.20061 -6.56614 0
M  V30 4341 H 386.685 0.264602 -0.692146 0
M  V30 4342 H 389.332 -0.0169496 -1.91492 0
M  V30 4343 H 387.637 2.24497 -3.21105 0
M  V30 4344 H 389.334 1.97209 -3.49155 0
M  V30 4345 H 385.924 0.738414 -4.22191 0
M  V30 4346 H 390.108 0.0950302 -4.96209 0
M  V30 4347 H 385.364 -0.79168 -6.06253 0
M  V30 4348 H 389.538 -1.43026 -6.81554 0
M  V30 4349 H 387.165 -1.87967 -7.36595 0
M  V30 4350 N 388.74 1.54641 0.303973 0
M  V30 4351 C 389.989 1.7299 1.03717 0
M  V30 4352 C 390.302 0.521168 1.88529 0
M  V30 4353 O 391.508 0.586408 2.65092 0
M  V30 4354 C 389.964 3.06051 1.89369 0
M  V30 4355 C 389.572 4.34393 1.09574 0
M  V30 4356 C 391.316 3.3376 2.62306 0
M  V30 4357 C 389.223 5.58506 1.94486 0
M  V30 4358 H 388.153 0.64473 0.390947 0
M  V30 4359 H 390.804 1.81124 0.294328 0
M  V30 4360 H 389.186 2.91874 2.67629 0
M  V30 4361 H 390.36 4.59396 0.359485 0
M  V30 4362 H 388.675 4.13597 0.482324 0
M  V30 4363 H 391.272 4.23687 3.26181 0
M  V30 4364 H 391.615 2.52503 3.3098 0
M  V30 4365 H 392.148 3.48894 1.91097 0
M  V30 4366 H 388.887 6.42422 1.30287 0
M  V30 4367 H 388.407 5.37694 2.65792 0
M  V30 4368 H 390.086 5.95651 2.52605 0
M  V30 4369 N 390.218 -0.567019 1.47046 0
M  V30 4370 C 391.495 -1.3276 1.43646 0
M  V30 4371 C 391.875 -2.1071 0.128186 0
M  V30 4372 O 391.223 -2.10441 -0.890326 0
M  V30 4373 C 391.433 -2.2404 2.67595 0
M  V30 4374 C 392.781 -2.85372 3.14401 0
M  V30 4375 O 393.805 -2.34346 2.68254 0
M  V30 4376 O 392.664 -3.78091 3.946 0
M  V30 4377 H 389.758 -0.597293 0.571988 0
M  V30 4378 H 392.304 -0.586735 1.59234 0
M  V30 4379 H 391.076 -1.65975 3.54356 0
M  V30 4380 H 390.699 -3.05439 2.54544 0
M  V30 4381 N 391.696 -1.35014 -0.812953 0
M  V30 4382 C 392.942 -1.2812 -1.57204 0
M  V30 4383 C 393.275 0.145869 -1.93651 0
M  V30 4384 O 392.55 1.0937 -1.60836 0
M  V30 4385 C 392.833 -2.18162 -2.86492 0
M  V30 4386 C 392.686 -3.69454 -2.56561 0
M  V30 4387 C 394.005 -2.07439 -3.88145 0
M  V30 4388 H 391.124 -0.466746 -0.570366 0
M  V30 4389 H 393.766 -1.65357 -0.935783 0
M  V30 4390 H 391.916 -1.86535 -3.40789 0
M  V30 4391 H 393.588 -4.11493 -2.08497 0
M  V30 4392 H 391.831 -3.9005 -1.89851 0
M  V30 4393 H 392.502 -4.27835 -3.48799 0
M  V30 4394 H 394.978 -2.35228 -3.4323 0
M  V30 4395 H 393.854 -2.7265 -4.76396 0
M  V30 4396 H 394.115 -1.05439 -4.29343 0
M  V30 4397 N 393.175 1.03435 -1.18907 0
M  V30 4398 C 394.125 2.09924 -0.889706 0
M  V30 4399 C 395.109 1.60261 0.143216 0
M  V30 4400 O 396.301 1.76892 -0.0617122 0
M  V30 4401 C 393.43 3.40669 -0.424168 0
M  V30 4402 C 392.516 3.97082 -1.48952 0
M  V30 4403 N 392.907 4.27227 -2.70759 0
M  V30 4404 C 391.205 4.25029 -1.35152 0
M  V30 4405 C 391.906 4.7246 -3.39347 0
M  V30 4406 N 390.882 4.7366 -2.66735 0
M  V30 4407 H 394.684 2.31116 -1.81555 0
M  V30 4408 H 392.198 1.21246 -1.08042 0
M  V30 4409 H 394.195 4.16461 -0.191176 0
M  V30 4410 H 392.855 3.20901 0.495263 0
M  V30 4411 H 393.866 4.16678 -3.0757 0
M  V30 4412 H 390.543 4.14554 -0.495126 0
M  V30 4413 H 391.933 5.04751 -4.43481 0
M  V30 4414 N 394.653 0.992116 1.22453 0
M  V30 4415 C 396.069 0.702713 1.43297 0
M  V30 4416 C 396.269 -0.726909 1.87932 0
M  V30 4417 O 395.325 -1.49792 2.0327 0
M  V30 4418 C 396.638 1.70762 2.47509 0
M  V30 4419 C 398.186 1.72298 2.61309 0
M  V30 4420 C 398.661 2.71649 3.68742 0
M  V30 4421 N 400.152 2.70239 3.76199 0
M  V30 4422 C 400.887 3.43778 4.58917 0
M  V30 4423 N 400.383 4.26914 5.45633 0
M  V30 4424 N 402.176 3.32487 4.5322 0
M  V30 4425 H 394.327 1.91543 0.917871 0
M  V30 4426 H 396.59 0.826031 0.465162 0
M  V30 4427 H 396.296 2.73059 2.21657 0
M  V30 4428 H 396.17 1.49985 3.46099 0
M  V30 4429 H 398.557 0.706989 2.86506 0
M  V30 4430 H 398.638 1.97143 1.62997 0
M  V30 4431 H 398.282 3.73397 3.44292 0
M  V30 4432 H 398.212 2.44074 4.66622 0
M  V30 4433 H 400.703 2.09912 3.14237 0
M  V30 4434 H 401.016 4.79855 6.05771 0
M  V30 4435 H 399.361 4.31002 5.45218 0
M  V30 4436 H 402.552 2.6698 3.84499 0
M  V30 4437 H 402.725 3.90058 5.17454 0
M  V30 4438 N 396.131 -1.37776 0.765217 0
M  V30 4439 C 397.359 -2.04124 0.337767 0
M  V30 4440 C 397.774 -1.57715 -1.03785 0
M  V30 4441 O 397.131 -0.755447 -1.6613 0
M  V30 4442 C 397.182 -3.59658 0.364442 0
M  V30 4443 O 396.903 -4.04367 1.68579 0
M  V30 4444 C 398.404 -4.43236 -0.0754221 0
M  V30 4445 H 395.624 -0.655696 0.142491 0
M  V30 4446 H 398.168 -1.76238 1.03732 0
M  V30 4447 H 396.323 -3.86339 -0.286471 0
M  V30 4448 H 396.737 -4.98857 1.61993 0
M  V30 4449 H 398.211 -5.52 -0.00560067 0
M  V30 4450 H 398.688 -4.2455 -1.12491 0
M  V30 4451 H 399.294 -4.21767 0.547055 0
M  V30 4452 N 397.609 -0.515225 -1.4894 0
M  V30 4453 C 398.837 0.0206034 -2.0689 0
M  V30 4454 C 399.252 1.29514 -1.37374 0
M  V30 4455 O 398.609 1.76698 -0.456529 0
M  V30 4456 C 398.66 0.26351 -3.60538 0
M  V30 4457 O 398.381 -0.960517 -4.27441 0
M  V30 4458 C 399.882 0.841383 -4.35242 0
M  V30 4459 H 397.102 -0.0268608 -0.670462 0
M  V30 4460 H 399.646 -0.716651 -1.91532 0
M  V30 4461 H 397.801 0.950777 -3.75552 0
M  V30 4462 H 398.215 -0.73212 -5.19365 0
M  V30 4463 H 399.689 0.96085 -5.43573 0
M  V30 4464 H 400.166 1.8427 -3.98674 0
M  V30 4465 H 400.772 0.191143 -4.2487 0
M  V30 4466 N 399.087 1.5561 -0.249682 0
M  V30 4467 C 400.05 2.20217 0.635394 0
M  V30 4468 C 401.05 1.17227 1.10066 0
M  V30 4469 O 402.24 1.42292 1.00492 0
M  V30 4470 C 399.372 2.84794 1.87363 0
M  V30 4471 H 400.565 2.99814 0.0716752 0
M  V30 4472 H 398.118 1.563 -0.000153234 0
M  V30 4473 H 398.853 2.09142 2.47851 0
M  V30 4474 H 398.638 3.60241 1.5482 0
M  V30 4475 H 400.128 3.3423 2.5036 0
M  V30 4476 N 400.565 -0.0233959 1.57583 0
M  V30 4477 C 401.528 -1.00693 2.05897 0
M  V30 4478 C 402.528 -1.28693 0.964092 0
M  V30 4479 O 403.718 -1.23602 1.22753 0
M  V30 4480 C 400.85 -2.33825 2.4807 0
M  V30 4481 H 402.043 -0.589476 2.9405 0
M  V30 4482 H 399.596 -0.270354 1.53944 0
M  V30 4483 H 400.331 -2.80307 1.6309 0
M  V30 4484 H 400.116 -2.1483 3.2801 0
M  V30 4485 H 401.606 -3.04426 2.85857 0
M  V30 4486 N 402.043 -1.548 -0.295768 0
M  V30 4487 C 402.99 -1.86113 -1.36494 0
M  V30 4488 C 403.96 -0.7105 -1.50137 0
M  V30 4489 O 405.145 -0.959626 -1.64912 0
M  V30 4490 C 402.285 -2.11861 -2.72413 0
M  V30 4491 C 401.398 -3.39471 -2.67177 0
M  V30 4492 C 400.533 -3.55035 -3.95125 0
M  V30 4493 C 399.572 -4.76418 -3.84308 0
M  V30 4494 N 398.709 -4.8876 -5.04042 0
M  V30 4495 H 403.549 -2.77314 -1.09091 0
M  V30 4496 H 401.086 -1.37315 -0.52753 0
M  V30 4497 H 403.044 -2.24786 -3.51464 0
M  V30 4498 H 401.674 -1.2392 -2.98066 0
M  V30 4499 H 400.726 -3.35139 -1.79962 0
M  V30 4500 H 402.038 -4.28646 -2.55076 0
M  V30 4501 H 401.192 -3.67653 -4.82614 0
M  V30 4502 H 399.931 -2.64002 -4.10066 0
M  V30 4503 H 398.936 -4.63827 -2.95202 0
M  V30 4504 H 400.161 -5.68863 -3.70906 0
M  V30 4505 H 398.107 -4.00652 -5.19436 0
M  V30 4506 H 398.024 -5.71945 -4.94384 0
M  V30 4507 H 399.292 -5.0574 -5.93167 0
M  V30 4508 N 403.521 0.559213 -1.47345 0
M  V30 4509 C 404.431 1.69388 -1.62311 0
M  V30 4510 C 405.447 1.6648 -0.505993 0
M  V30 4511 O 406.623 1.85964 -0.773262 0
M  V30 4512 C 403.688 3.05894 -1.63185 0
M  V30 4513 C 402.749 3.19885 -2.86307 0
M  V30 4514 C 401.982 4.49879 -2.87131 0
M  V30 4515 O 402.205 5.35217 -1.97229 0
M  V30 4516 O 401.139 4.67618 -3.78968 0
M  V30 4517 H 404.965 1.59706 -2.58317 0
M  V30 4518 H 402.55 0.728989 -1.30407 0
M  V30 4519 H 404.432 3.87133 -1.66451 0
M  V30 4520 H 403.107 3.15964 -0.70345 0
M  V30 4521 H 402.014 2.38052 -2.88587 0
M  V30 4522 H 403.347 3.14718 -3.78435 0
M  V30 4523 N 404.999 1.35443 0.805782 0
M  V30 4524 C 405.931 1.24285 1.92577 0
M  V30 4525 C 406.944 0.165962 1.61952 0
M  V30 4526 O 408.133 0.419303 1.73505 0
M  V30 4527 C 405.233 0.891272 3.2697 0
M  V30 4528 C 404.406 2.06669 3.85495 0
M  V30 4529 C 403.465 1.69077 4.98297 0
M  V30 4530 O 402.491 2.4096 5.15681 0
M  V30 4531 N 403.693 0.614869 5.77234 0
M  V30 4532 H 406.458 2.20777 2.02676 0
M  V30 4533 H 404.019 1.28623 0.983243 0
M  V30 4534 H 406.011 0.621256 3.99903 0
M  V30 4535 H 404.581 0.016004 3.12596 0
M  V30 4536 H 403.801 2.50046 3.04747 0
M  V30 4537 H 405.089 2.85237 4.21328 0
M  V30 4538 H 404.487 0.017648 5.65697 0
M  V30 4539 H 403.044 0.404636 6.50543 0
M  V30 4540 N 406.477 -1.02803 1.19454 0
M  V30 4541 C 407.387 -2.14575 0.948408 0
M  V30 4542 C 408.403 -1.73757 -0.091871 0
M  V30 4543 O 409.579 -2.01185 0.0929654 0
M  V30 4544 C 406.644 -3.43202 0.491265 0
M  V30 4545 C 405.705 -3.98328 1.60103 0
M  V30 4546 C 404.938 -5.20816 1.16561 0
M  V30 4547 O 405.161 -5.70392 0.0295238 0
M  V30 4548 O 404.095 -5.68801 1.96849 0
M  V30 4549 H 407.921 -2.38202 1.88397 0
M  V30 4550 H 405.506 -1.12989 0.977433 0
M  V30 4551 H 407.388 -4.20687 0.245015 0
M  V30 4552 H 406.063 -3.21018 -0.415851 0
M  V30 4553 H 404.97 -3.22174 1.90144 0
M  V30 4554 H 406.303 -4.24879 2.48473 0
M  V30 4555 N 407.956 -0.998596 -1.21925 0
M  V30 4556 C 409.205 -0.673085 -1.90138 0
M  V30 4557 C 409.518 0.79895 -1.78539 0
M  V30 4558 O 410.724 1.23628 -2.4172 0
M  V30 4559 C 409.18 -1.15339 -3.40918 0
M  V30 4560 C 408.788 -2.65106 -3.61141 0
M  V30 4561 C 410.532 -0.902476 -4.14796 0
M  V30 4562 C 408.439 -3.0671 -5.05651 0
M  V30 4563 H 407.369 -0.248057 -0.712028 0
M  V30 4564 H 410.02 -1.20891 -1.38049 0
M  V30 4565 H 408.402 -0.545658 -3.92223 0
M  V30 4566 H 409.576 -3.31274 -3.20304 0
M  V30 4567 H 407.891 -2.88142 -3.00605 0
M  V30 4568 H 410.488 -1.18895 -5.21314 0
M  V30 4569 H 410.831 0.161349 -4.15987 0
M  V30 4570 H 411.364 -1.47269 -3.69536 0
M  V30 4571 H 408.103 -4.12292 -5.09603 0
M  V30 4572 H 407.623 -2.45249 -5.47369 0
M  V30 4573 H 409.302 -2.9833 -5.74115 0
M  V30 4574 N 409.434 1.37368 -0.772513 0
M  V30 4575 C 410.344 2.34053 -0.160081 0
M  V30 4576 C 411.36 1.60216 0.678728 0
M  V30 4577 O 412.536 1.92303 0.59847 0
M  V30 4578 C 409.601 3.3939 0.708182 0
M  V30 4579 C 408.662 4.29048 -0.147172 0
M  V30 4580 C 407.895 5.29354 0.679744 0
M  V30 4581 O 408.118 5.3723 1.91678 0
M  V30 4582 O 407.052 6.01835 0.0885444 0
M  V30 4583 H 410.878 2.88159 -0.959053 0
M  V30 4584 H 408.463 1.39543 -0.533685 0
M  V30 4585 H 410.345 4.03839 1.20384 0
M  V30 4586 H 409.02 2.8761 1.48533 0
M  V30 4587 H 407.927 3.67697 -0.689205 0
M  V30 4588 H 409.26 4.84134 -0.887423 0
M  V30 4589 N 410.912 0.523116 1.48665 0
M  V30 4590 C 412.159 -0.0134763 2.02496 0
M  V30 4591 C 412.487 -1.3493 1.40086 0
M  V30 4592 O 411.742 -1.88286 0.533567 0
M  V30 4593 C 412.041 -0.191671 3.56886 0
M  V30 4594 C 411.707 1.06893 4.38046 0
M  V30 4595 C 410.369 1.41443 4.59943 0
M  V30 4596 C 412.721 1.90584 4.85106 0
M  V30 4597 C 410.049 2.59594 5.26144 0
M  V30 4598 C 412.401 3.07907 5.52609 0
M  V30 4599 C 411.065 3.42811 5.72745 0
M  V30 4600 H 410.335 -0.00493133 0.740984 0
M  V30 4601 H 412.982 0.687751 1.78724 0
M  V30 4602 H 411.287 -0.97561 3.79459 0
M  V30 4603 H 412.984 -0.621659 3.96152 0
M  V30 4604 H 409.574 0.789848 4.21259 0
M  V30 4605 H 413.758 1.65203 4.67997 0
M  V30 4606 H 409.014 2.86847 5.39934 0
M  V30 4607 H 413.188 3.73066 5.88043 0
M  V30 4608 H 410.815 4.34462 6.23816 0
M  V30 4609 N 412.39 -1.55475 0.257931 0
M  V30 4610 C 413.667 -1.91155 -0.414629 0
M  V30 4611 C 414.047 -1.18008 -1.75035 0
M  V30 4612 O 413.395 -0.301193 -2.26506 0
M  V30 4613 C 413.605 -3.44283 -0.571859 0
M  V30 4614 C 414.953 -4.15744 -0.862678 0
M  V30 4615 O 415.977 -3.50083 -0.657314 0
M  V30 4616 O 414.836 -5.31909 -1.2544 0
M  V30 4617 H 411.93 -0.796016 -0.22425 0
M  V30 4618 H 414.476 -1.66976 0.302814 0
M  V30 4619 H 413.248 -3.89558 0.368844 0
M  V30 4620 H 412.871 -3.7436 -1.33943 0
M  V30 4621 N 413.868 0.0150385 -1.57593 0
M  V30 4622 C 415.096 0.714395 -1.94175 0
M  V30 4623 C 415.511 1.68135 -0.858841 0
M  V30 4624 O 414.868 1.81766 0.163567 0
M  V30 4625 C 414.919 1.45933 -3.30735 0
M  V30 4626 O 414.64 0.531167 -4.34868 0
M  V30 4627 C 416.141 2.25456 -3.81686 0
M  V30 4628 H 413.361 0.199923 -0.640525 0
M  V30 4629 H 415.905 -0.0316096 -2.04476 0
M  V30 4630 H 414.06 2.15709 -3.21789 0
M  V30 4631 H 414.474 1.05509 -5.13778 0
M  V30 4632 H 415.948 2.731 -4.79709 0
M  V30 4633 H 416.425 3.07485 -3.13607 0
M  V30 4634 H 417.031 1.60727 -3.9376 0
M  V30 4635 N 415.346 1.54954 0.287554 0
M  V30 4636 C 416.571 1.79209 1.04397 0
M  V30 4637 C 416.996 0.556431 1.79682 0
M  V30 4638 O 416.354 -0.493518 1.74454 0
M  V30 4639 C 416.402 3.00739 1.98969 0
M  V30 4640 O 415.506 2.74805 3.075 0
M  V30 4641 H 414.847 0.592755 0.299227 0
M  V30 4642 H 417.377 2.02068 0.320886 0
M  V30 4643 H 417.387 3.29077 2.4119 0
M  V30 4644 H 416.062 3.90329 1.43582 0
M  V30 4645 H 414.639 2.57523 2.69697 0
M  V30 4646 N 416.824 -0.551391 1.4764 0
M  V30 4647 C 417.754 -1.66757 1.63445 0
M  V30 4648 C 418.735 -1.63077 0.483742 0
M  V30 4649 O 419.92 -1.80607 0.71377 0
M  V30 4650 C 417.05 -3.05387 1.65396 0
M  V30 4651 C 416.004 -3.23918 2.79752 0
M  V30 4652 C 415.33 -4.63393 2.66779 0
M  V30 4653 C 416.63 -3.08735 4.21284 0
M  V30 4654 H 418.324 -1.53786 2.56886 0
M  V30 4655 H 415.87 -0.738415 1.23626 0
M  V30 4656 H 417.823 -3.83325 1.75043 0
M  V30 4657 H 416.547 -3.19332 0.685195 0
M  V30 4658 H 415.206 -2.48391 2.69625 0
M  V30 4659 H 414.854 -4.74144 1.67918 0
M  V30 4660 H 414.554 -4.7674 3.43501 0
M  V30 4661 H 416.078 -5.43458 2.78364 0
M  V30 4662 H 417.492 -3.76484 4.32357 0
M  V30 4663 H 415.889 -3.33588 4.98838 0
M  V30 4664 H 416.959 -2.0541 4.39243 0
M  V30 4665 N 418.302 -1.35869 -0.798587 0
M  V30 4666 C 419.232 -1.32118 -1.92528 0
M  V30 4667 C 420.213 -0.194209 -1.68988 0
M  V30 4668 O 421.398 -0.390426 -1.90235 0
M  V30 4669 C 418.528 -1.10047 -3.29404 0
M  V30 4670 C 417.482 -2.19471 -3.67446 0
M  V30 4671 C 416.808 -1.82555 -5.02571 0
M  V30 4672 C 418.108 -3.61495 -3.76987 0
M  V30 4673 H 419.802 -2.26394 -1.95924 0
M  V30 4674 H 417.348 -1.08981 -0.94123 0
M  V30 4675 H 419.301 -1.06061 -4.07835 0
M  V30 4676 H 418.025 -0.122195 -3.26371 0
M  V30 4677 H 416.684 -2.22568 -2.91306 0
M  V30 4678 H 416.332 -0.833249 -4.9605 0
M  V30 4679 H 416.032 -2.5581 -5.28995 0
M  V30 4680 H 417.556 -1.80108 -5.83432 0
M  V30 4681 H 418.97 -3.60676 -4.4563 0
M  V30 4682 H 417.367 -4.33577 -4.14887 0
M  V30 4683 H 418.437 -3.97065 -2.78329 0
M  V30 4684 N 419.78 1.02168 -1.19998 0
M  V30 4685 C 420.69 2.14069 -0.959774 0
M  V30 4686 C 421.706 1.73804 0.082655 0
M  V30 4687 O 422.882 2.01133 -0.103633 0
M  V30 4688 C 419.947 3.42936 -0.509459 0
M  V30 4689 C 419.008 3.97474 -1.62213 0
M  V30 4690 C 418.241 5.2019 -1.19321 0
M  V30 4691 O 418.464 5.70369 -0.0597726 0
M  V30 4692 O 417.398 5.67749 -1.99863 0
M  V30 4693 H 421.224 2.37199 -1.89658 0
M  V30 4694 H 418.809 1.12469 -0.983411 0
M  V30 4695 H 420.691 4.20551 -0.267322 0
M  V30 4696 H 419.366 3.21234 0.398821 0
M  V30 4697 H 418.273 3.21161 -1.9185 0
M  V30 4698 H 419.606 4.23555 -2.50723 0
M  V30 4699 N 421.258 1.00505 1.21394 0
M  V30 4700 C 422.168 0.574806 2.27449 0
M  V30 4701 C 423.184 -0.382206 1.6975 0
M  V30 4702 O 424.36 -0.246027 1.99892 0
M  V30 4703 C 421.425 -0.0917414 3.46579 0
M  V30 4704 C 420.486 0.909758 4.1955 0
M  V30 4705 C 419.719 0.274924 5.32991 0
M  V30 4706 O 419.942 -0.928254 5.62796 0
M  V30 4707 O 418.876 0.985877 5.93771 0
M  V30 4708 H 422.702 1.45744 2.66444 0
M  V30 4709 H 420.287 0.773923 1.27792 0
M  V30 4710 H 422.169 -0.464551 4.18832 0
M  V30 4711 H 420.844 -0.948755 3.09484 0
M  V30 4712 H 419.751 1.33372 3.49518 0
M  V30 4713 H 421.084 1.73636 4.60555 0
M  V30 4714 N 422.737 -1.36956 0.779787 0
M  V30 4715 C 423.685 -2.32053 0.15942 0
M  V30 4716 C 424.679 -1.55333 -0.675878 0
M  V30 4717 O 425.885 -1.70668 -0.57204 0
M  V30 4718 H 422.26 -0.751286 0.0327707 0
M  V30 4719 H 424.231 -2.8195 0.977078 0
M  V30 4720 C 422.98 -3.40602 -0.698977 0
M  V30 4721 H 422.303 -3.99746 -0.0655966 0
M  V30 4722 H 423.743 -4.09486 -1.09989 0
M  V30 4723 C 422.202 -2.81359 -1.85307 0
M  V30 4724 O 422.732 -2.72751 -2.94906 0
M  V30 4725 N 420.938 -2.38786 -1.65619 0
M  V30 4726 H 420.485 -2.45987 -0.764725 0
M  V30 4727 H 420.443 -1.99493 -2.43002 0
M  V30 4728 N 424.215 -0.530993 -1.48385 0
M  V30 4729 C 425.125 0.23503 -2.3342 0
M  V30 4730 C 426.141 0.93801 -1.46552 0
M  V30 4731 O 427.317 0.912745 -1.7953 0
M  V30 4732 C 424.382 1.26778 -3.22689 0
M  V30 4733 C 423.443 0.575038 -4.25431 0
M  V30 4734 C 422.676 1.55858 -5.10435 0
M  V30 4735 O 422.899 2.79129 -4.97437 0
M  V30 4736 O 421.833 1.09742 -5.91811 0
M  V30 4737 H 425.659 -0.461794 -3.00169 0
M  V30 4738 H 423.244 -0.291903 -1.46521 0
M  V30 4739 H 425.126 1.86457 -3.77904 0
M  V30 4740 H 423.801 1.94699 -2.586 0
M  V30 4741 H 422.708 -0.0622782 -3.74048 0
M  V30 4742 H 424.041 -0.062253 -4.92161 0
M  V30 4743 N 425.693 1.55336 -0.266172 0
M  V30 4744 C 426.641 2.23587 0.641228 0
M  V30 4745 C 427.635 1.22986 1.16494 0
M  V30 4746 O 428.841 1.40943 1.1196 0
M  V30 4747 H 425.216 0.717452 0.225315 0
M  V30 4748 H 427.187 2.9837 0.0426561 0
M  V30 4749 C 425.936 2.96369 1.81826 0
M  V30 4750 H 425.259 3.73563 1.42445 0
M  V30 4751 H 426.699 3.47459 2.42998 0
M  V30 4752 C 425.158 2.0133 2.70125 0
M  V30 4753 O 425.688 1.55875 3.70224 0
M  V30 4754 N 423.894 1.6802 2.37102 0
M  V30 4755 H 423.441 2.05181 1.55751 0
M  V30 4756 H 423.399 1.047 2.96454 0
M  V30 4757 N 427.171 -0.0066808 1.57599 0
M  V30 4758 C 428.101 -0.999296 2.11036 0
M  V30 4759 C 429.082 -1.36278 1.01795 0
M  V30 4760 O 430.267 -1.4477 1.29442 0
M  V30 4761 C 427.397 -2.29328 2.60818 0
M  V30 4762 C 426.351 -2.07159 3.74525 0
M  V30 4763 C 425.677 -3.42512 4.10596 0
M  V30 4764 C 426.977 -1.43959 5.02069 0
M  V30 4765 H 428.671 -0.554382 2.94223 0
M  V30 4766 H 426.217 -0.265221 1.41536 0
M  V30 4767 H 428.17 -2.99117 2.96828 0
M  V30 4768 H 426.894 -2.7592 1.74745 0
M  V30 4769 H 425.553 -1.39797 3.38899 0
M  V30 4770 H 425.201 -3.86795 3.21556 0
M  V30 4771 H 424.901 -3.28498 4.87199 0
M  V30 4772 H 426.425 -4.13628 4.4916 0
M  V30 4773 H 427.839 -2.03696 5.35893 0
M  V30 4774 H 426.236 -1.40452 5.83432 0
M  V30 4775 H 427.306 -0.407992 4.83181 0
M  V30 4776 N 428.649 -1.55105 -0.279332 0
M  V30 4777 C 429.581 -1.83952 -1.36727 0
M  V30 4778 C 430.594 -0.723642 -1.45833 0
M  V30 4779 O 431.783 -1.00141 -1.47763 0
M  V30 4780 C 428.883 -1.98183 -2.74912 0
M  V30 4781 C 428.056 -3.28787 -2.88475 0
M  V30 4782 C 427.115 -3.33162 -4.07295 0
M  V30 4783 O 426.141 -4.06576 -3.98353 0
M  V30 4784 N 427.343 -2.60109 -5.18964 0
M  V30 4785 H 430.108 -2.77853 -1.12328 0
M  V30 4786 H 427.669 -1.54945 -0.469442 0
M  V30 4787 H 429.661 -1.98488 -3.52682 0
M  V30 4788 H 428.231 -1.11177 -2.92162 0
M  V30 4789 H 427.451 -3.41075 -1.97641 0
M  V30 4790 H 428.739 -4.14933 -2.94463 0
M  V30 4791 H 428.137 -2.00136 -5.29115 0
M  V30 4792 H 426.694 -2.66143 -5.94988 0
M  V30 4793 N 430.127 0.543554 -1.4793 0
M  V30 4794 C 431.09 1.63156 -1.60975 0
M  V30 4795 C 432.09 1.53346 -0.483899 0
M  V30 4796 O 433.28 1.5726 -0.749339 0
M  V30 4797 C 430.412 3.02743 -1.56716 0
M  V30 4798 H 431.605 1.52934 -2.57975 0
M  V30 4799 H 429.158 0.764557 -1.36324 0
M  V30 4800 H 429.893 3.18484 -0.611418 0
M  V30 4801 H 429.678 3.11272 -2.38438 0
M  V30 4802 H 431.168 3.81871 -1.6901 0
M  V30 4803 N 431.605 1.3629 0.791371 0
M  V30 4804 C 432.553 1.30514 1.92533 0
M  V30 4805 C 433.547 0.197285 1.68247 0
M  V30 4806 O 434.753 0.364176 1.76278 0
M  V30 4807 H 431.128 0.406263 0.632815 0
M  V30 4808 H 433.099 2.26282 1.94523 0
M  V30 4809 C 431.848 1.10933 3.29529 0
M  V30 4810 H 431.171 1.95427 3.48781 0
M  V30 4811 H 432.611 1.10937 4.0923 0
M  V30 4812 C 431.07 -0.186123 3.36385 0
M  V30 4813 O 431.6 -1.17664 3.84081 0
M  V30 4814 N 429.806 -0.230128 2.89687 0
M  V30 4815 H 429.353 0.576545 2.51065 0
M  V30 4816 H 429.311 -1.09658 2.94657 0
M  V30 4817 N 433.083 -1.0153 1.20538 0
M  V30 4818 C 433.993 -2.13557 0.971113 0
M  V30 4819 C 435.009 -1.73845 -0.0734366 0
M  V30 4820 O 436.185 -2.01075 0.114299 0
M  V30 4821 C 433.25 -3.42661 0.527639 0
M  V30 4822 C 432.311 -3.96608 1.64319 0
M  V30 4823 C 431.544 -5.1955 1.22078 0
M  V30 4824 O 431.767 -5.70329 0.0900198 0
M  V30 4825 O 430.701 -5.66681 2.02871 0
M  V30 4826 H 434.527 -2.3619 1.90913 0
M  V30 4827 H 432.112 -1.11946 0.989362 0
M  V30 4828 H 433.994 -4.20404 0.289621 0
M  V30 4829 H 432.669 -3.21441 -0.381779 0
M  V30 4830 H 431.576 -3.20139 1.93551 0
M  V30 4831 H 432.909 -4.22219 2.52966 0
M  V30 4832 N 434.561 -1.01147 -1.20859 0
M  V30 4833 C 435.81 -0.693214 -1.89413 0
M  V30 4834 C 436.123 0.779969 -1.79376 0
M  V30 4835 O 437.329 1.21057 -2.43017 0
M  V30 4836 C 435.785 -1.18949 -3.39675 0
M  V30 4837 C 435.393 -2.68921 -3.58309 0
M  V30 4838 C 437.137 -0.94642 -4.13815 0
M  V30 4839 C 435.044 -3.12056 -5.0237 0
M  V30 4840 H 433.974 -0.255595 -0.709357 0
M  V30 4841 H 436.625 -1.22349 -1.36759 0
M  V30 4842 H 435.007 -0.587228 -3.91622 0
M  V30 4843 H 436.181 -3.34652 -3.16772 0
M  V30 4844 H 434.496 -2.91314 -2.97532 0
M  V30 4845 H 437.093 -1.24417 -5.20023 0
M  V30 4846 H 437.436 0.117219 -4.16135 0
M  V30 4847 H 437.969 -1.5118 -3.67953 0
M  V30 4848 H 434.708 -4.17674 -5.05202 0
M  V30 4849 H 434.228 -2.51041 -5.44737 0
M  V30 4850 H 435.907 -3.04403 -5.70918 0
M  V30 4851 N 436.039 1.36541 -0.78704 0
M  V30 4852 C 436.972 2.27831 -0.129765 0
M  V30 4853 C 437.95 1.47105 0.692732 0
M  V30 4854 O 439.134 1.7641 0.664222 0
M  V30 4855 C 436.261 3.28577 0.821883 0
M  V30 4856 C 435.307 4.26422 0.0814771 0
M  V30 4857 S 436.14 5.20919 -1.24112 0
M  V30 4858 C 437.296 6.25212 -0.293409 0
M  V30 4859 H 437.529 2.83229 -0.903811 0
M  V30 4860 H 435.062 1.43046 -0.581144 0
M  V30 4861 H 437.02 3.87123 1.3655 0
M  V30 4862 H 435.681 2.72096 1.56916 0
M  V30 4863 H 434.874 4.97554 0.803485 0
M  V30 4864 H 434.476 3.71944 -0.391589 0
M  V30 4865 H 436.768 6.75435 0.528622 0
M  V30 4866 H 437.711 7.01378 -0.973344 0
M  V30 4867 H 438.119 5.64407 0.102196 0
M  V30 4868 N 437.518 0.538854 1.48102 0
M  V30 4869 C 438.764 0.0161732 2.03394 0
M  V30 4870 C 439.119 -1.31154 1.40771 0
M  V30 4871 O 438.412 -1.83613 0.547421 0
M  V30 4872 C 438.606 -0.153808 3.57069 0
M  V30 4873 C 438.435 1.15588 4.34591 0
M  V30 4874 C 437.205 1.71818 4.75191 0
M  V30 4875 C 439.403 2.06867 4.70861 0
M  V30 4876 N 437.385 2.96983 5.37284 0
M  V30 4877 C 438.756 3.16609 5.33066 0
M  V30 4878 C 440.811 2.07085 4.52791 0
M  V30 4879 C 439.514 4.26645 5.79109 0
M  V30 4880 C 441.54 3.16121 4.99821 0
M  V30 4881 C 440.902 4.24582 5.62058 0
M  V30 4882 H 437.001 0.0476346 0.780548 0
M  V30 4883 H 439.585 0.722094 1.80815 0
M  V30 4884 H 437.756 -0.828825 3.79454 0
M  V30 4885 H 439.488 -0.676896 3.98999 0
M  V30 4886 H 436.243 1.25845 4.56574 0
M  V30 4887 H 436.667 3.60732 5.72889 0
M  V30 4888 H 441.309 1.24522 4.04047 0
M  V30 4889 H 439.027 5.0998 6.26854 0
M  V30 4890 H 442.613 3.17355 4.87624 0
M  V30 4891 H 441.493 5.07562 5.97788 0
M  V30 4892 N 438.996 -1.55193 0.274407 0
M  V30 4893 C 439.944 -2.23924 -0.629362 0
M  V30 4894 C 440.938 -1.23602 -1.1584 0
M  V30 4895 O 442.144 -1.41535 -1.11211 0
M  V30 4896 H 438.519 -0.718637 -0.221507 0
M  V30 4897 H 440.49 -2.98388 -0.0268322 0
M  V30 4898 C 439.239 -2.97329 -1.80252 0
M  V30 4899 H 438.562 -3.74313 -1.40462 0
M  V30 4900 H 440.002 -3.48743 -2.41152 0
M  V30 4901 C 438.461 -2.0276 -2.69054 0
M  V30 4902 O 438.991 -1.57836 -3.69392 0
M  V30 4903 N 437.197 -1.69275 -2.36208 0
M  V30 4904 H 436.744 -2.06004 -1.54661 0
M  V30 4905 H 436.702 -1.06271 -2.95895 0
M  V30 4906 N 440.474 -0.00167713 -1.576 0
M  V30 4907 C 441.422 1.0074 -2.09652 0
M  V30 4908 C 442.416 1.35483 -1.01689 0
M  V30 4909 O 443.622 1.34028 -1.20152 0
M  V30 4910 H 439.997 0.342537 -0.669457 0
M  V30 4911 H 441.968 0.542841 -2.93421 0
M  V30 4912 C 440.717 2.2899 -2.61647 0
M  V30 4913 H 440.04 2.03124 -3.44355 0
M  V30 4914 H 441.48 2.9787 -3.01744 0
M  V30 4915 C 439.939 3.00085 -1.53136 0
M  V30 4916 O 440.469 3.91135 -0.91524 0
M  V30 4917 N 438.675 2.6194 -1.25841 0
M  V30 4918 H 438.222 1.8798 -1.76129 0
M  V30 4919 H 438.18 3.09822 -0.534576 0
M  V30 4920 N 441.952 1.55251 0.271103 0
M  V30 4921 C 442.882 1.9127 1.33933 0
M  V30 4922 C 443.863 0.77478 1.5143 0
M  V30 4923 O 445.048 1.03307 1.64442 0
M  V30 4924 C 442.178 2.18627 2.69851 0
M  V30 4925 C 441.132 3.34442 2.67081 0
M  V30 4926 C 440.458 3.47284 4.06569 0
M  V30 4927 C 441.758 4.70784 2.26185 0
M  V30 4928 H 443.452 2.80744 1.04035 0
M  V30 4929 H 440.998 1.35077 0.499017 0
M  V30 4930 H 442.951 2.42413 3.44694 0
M  V30 4931 H 441.675 1.25955 3.01335 0
M  V30 4932 H 440.334 3.10627 1.94695 0
M  V30 4933 H 439.982 2.52074 4.35279 0
M  V30 4934 H 439.682 4.25152 4.0561 0
M  V30 4935 H 441.206 3.73363 4.83148 0
M  V30 4936 H 442.62 4.94102 2.90751 0
M  V30 4937 H 441.017 5.51582 2.36384 0
M  V30 4938 H 442.087 4.69478 1.21319 0
M  V30 4939 N 443.43 -0.535701 1.48216 0
M  V30 4940 C 444.658 -1.31671 1.59594 0
M  V30 4941 C 445.073 -1.87083 0.254056 0
M  V30 4942 O 444.43 -1.66112 -0.755854 0
M  V30 4943 C 444.481 -2.47158 2.63809 0
M  V30 4944 O 444.202 -1.94032 3.92789 0
M  V30 4945 C 445.703 -3.39062 2.85573 0
M  V30 4946 H 442.923 -0.400623 0.538277 0
M  V30 4947 H 445.467 -0.646827 1.94001 0
M  V30 4948 H 443.622 -3.10043 2.32276 0
M  V30 4949 H 444.036 -2.69585 4.49916 0
M  V30 4950 H 445.51 -4.16459 3.62306 0
M  V30 4951 H 445.987 -3.93941 1.94184 0
M  V30 4952 H 446.593 -2.81975 3.18387 0
M  V30 4953 N 444.908 -1.36708 -0.784132 0
M  V30 4954 C 445.871 -1.31307 -1.87859 0
M  V30 4955 C 446.871 -0.219654 -1.59293 0
M  V30 4956 O 448.061 -0.47476 -1.67606 0
M  V30 4957 C 445.193 -1.03679 -3.24751 0
M  V30 4958 H 446.386 -2.28647 -1.94064 0
M  V30 4959 H 443.939 -1.21558 -0.98252 0
M  V30 4960 H 444.674 -0.0681936 -3.24228 0
M  V30 4961 H 444.459 -1.82811 -3.46876 0
M  V30 4962 H 445.949 -1.02518 -4.04821 0
M  V30 4963 N 446.386 1.0089 -1.21074 0
M  V30 4964 C 447.296 2.13039 -0.982425 0
M  V30 4965 C 448.312 1.73881 0.0642161 0
M  V30 4966 O 449.488 2.01012 -0.12496 0
M  V30 4967 C 446.553 3.42377 -0.545803 0
M  V30 4968 C 445.614 3.95731 -1.6642 0
M  V30 4969 C 444.847 5.18896 -1.24832 0
M  V30 4970 O 445.07 5.70273 -0.120265 0
M  V30 4971 O 444.004 5.65597 -2.05873 0
M  V30 4972 H 447.83 2.35175 -1.92163 0
M  V30 4973 H 445.415 1.1142 -0.995285 0
M  V30 4974 H 447.297 4.20244 -0.311912 0
M  V30 4975 H 445.972 3.21639 0.364727 0
M  V30 4976 H 444.879 3.19108 -1.95246 0
M  V30 4977 H 446.212 4.20872 -2.55201 0
M  V30 4978 N 447.864 1.01787 1.20321 0
M  V30 4979 C 449.089 0.727009 1.9424 0
M  V30 4980 C 449.514 -0.706179 1.74341 0
M  V30 4981 O 448.872 -1.48609 1.03852 0
M  V30 4982 C 448.92 1.06958 3.44372 0
M  V30 4983 O 448.024 0.181983 4.11998 0
M  V30 4984 H 447.365 0.269626 0.606793 0
M  V30 4985 H 449.895 1.36158 1.52716 0
M  V30 4986 H 449.905 1.02182 3.94997 0
M  V30 4987 H 448.58 2.11378 3.58179 0
M  V30 4988 H 447.157 0.287378 3.71791 0
M  V30 4989 N 449.342 -1.36122 0.79427 0
M  V30 4990 C 450.272 -2.32551 0.210328 0
M  V30 4991 C 451.253 -1.56884 -0.657386 0
M  V30 4992 O 452.438 -1.85014 -0.590207 0
M  V30 4993 C 449.568 -3.41128 -0.651819 0
M  V30 4994 C 448.522 -4.27842 0.116395 0
M  V30 4995 C 447.848 -5.2763 -0.86666 0
M  V30 4996 C 449.148 -5.05647 1.30837 0
M  V30 4997 H 450.842 -2.81636 1.01594 0
M  V30 4998 H 448.388 -1.35407 0.489981 0
M  V30 4999 H 450.341 -4.07581 -1.07031 0
M  V30 5000 H 449.065 -2.90622 -1.49019 0
M  V30 5001 H 447.724 -3.62952 0.515915 0
M  V30 5002 H 447.372 -4.73395 -1.70019 0
M  V30 5003 H 447.072 -5.86514 -0.35705 0
M  V30 5004 H 448.596 -5.96955 -1.28361 0
M  V30 5005 H 450.01 -5.65113 0.965393 0
M  V30 5006 H 448.407 -5.73967 1.75161 0
M  V30 5007 H 449.477 -4.37006 2.10128 0
M  V30 5008 N 450.82 -0.546701 -1.47814 0
M  V30 5009 C 451.752 0.244196 -2.27895 0
M  V30 5010 C 452.765 0.88911 -1.36377 0
M  V30 5011 O 453.954 0.764733 -1.61289 0
M  V30 5012 C 451.054 1.36252 -3.10304 0
M  V30 5013 C 450.227 0.816382 -4.29714 0
M  V30 5014 C 449.286 1.81789 -4.93801 0
M  V30 5015 O 448.312 1.36818 -5.52512 0
M  V30 5016 N 449.514 3.15085 -4.87547 0
M  V30 5017 H 452.279 -0.442694 -2.96412 0
M  V30 5018 H 449.84 -0.382095 -1.57327 0
M  V30 5019 H 451.832 2.03102 -3.50045 0
M  V30 5020 H 450.402 1.95281 -2.44099 0
M  V30 5021 H 449.622 -0.0285981 -3.9419 0
M  V30 5022 H 450.91 0.430668 -5.06974 0
M  V30 5023 H 450.308 3.54275 -4.41028 0
M  V30 5024 H 448.865 3.77522 -5.31339 0
M  V30 5025 N 452.299 1.55045 -0.282633 0
M  V30 5026 C 453.545 2.00056 0.332481 0
M  V30 5027 C 453.878 1.1708 1.54939 0
M  V30 5028 O 453.153 0.2427 1.9298 0
M  V30 5029 C 453.436 3.53086 0.70725 0
M  V30 5030 C 453.289 4.46813 -0.517521 0
M  V30 5031 C 454.608 4.12245 1.54084 0
M  V30 5032 H 451.727 0.727268 0.119373 0
M  V30 5033 H 454.369 1.85932 -0.391076 0
M  V30 5034 H 452.519 3.65253 1.32372 0
M  V30 5035 H 454.191 4.46579 -1.15607 0
M  V30 5036 H 452.434 4.18163 -1.1542 0
M  V30 5037 H 453.105 5.51595 -0.211426 0
M  V30 5038 H 455.581 4.03401 1.02013 0
M  V30 5039 H 454.457 5.19515 1.77186 0
M  V30 5040 H 454.718 3.62951 2.52427 0
M  V30 5041 N 453.777 0.010035 1.57597 0
M  V30 5042 C 454.71 -1.01234 2.04516 0
M  V30 5043 C 455.688 -1.32886 0.937024 0
M  V30 5044 O 456.872 -1.44879 1.20592 0
M  V30 5045 C 453.999 -2.33738 2.45121 0
M  V30 5046 C 453.045 -2.17679 3.66767 0
M  V30 5047 S 453.878 -1.49343 5.14254 0
M  V30 5048 C 455.034 -2.83256 5.58137 0
M  V30 5049 H 455.267 -0.612866 2.90914 0
M  V30 5050 H 452.8 -0.201124 1.53084 0
M  V30 5051 H 454.758 -3.09922 2.69182 0
M  V30 5052 H 453.419 -2.70823 1.59103 0
M  V30 5053 H 452.612 -3.1559 3.92962 0
M  V30 5054 H 452.214 -1.4964 3.42759 0
M  V30 5055 H 454.506 -3.79538 5.6121 0
M  V30 5056 H 455.449 -2.61749 6.57946 0
M  V30 5057 H 455.857 -2.87627 4.85727 0
M  V30 5058 N 455.255 -1.55392 -0.262866 0
M  V30 5059 C 456.185 -1.91978 -1.32917 0
M  V30 5060 C 457.166 -0.7828 -1.51017 0
M  V30 5061 O 458.351 -1.04178 -1.63892 0
M  V30 5062 C 455.481 -2.20055 -2.68687 0
M  V30 5063 C 454.435 -3.35854 -2.65304 0
M  V30 5064 C 453.761 -3.49435 -4.04721 0
M  V30 5065 C 455.061 -4.71977 -2.23685 0
M  V30 5066 H 456.755 -2.81292 -1.02544 0
M  V30 5067 H 454.301 -1.3534 -0.491846 0
M  V30 5068 H 456.254 -2.44237 -3.43404 0
M  V30 5069 H 454.978 -1.27551 -3.00663 0
M  V30 5070 H 453.637 -3.11655 -1.93045 0
M  V30 5071 H 453.285 -2.54379 -4.33936 0
M  V30 5072 H 452.985 -4.27297 -4.0335 0
M  V30 5073 H 454.509 -3.7592 -4.81161 0
M  V30 5074 H 455.923 -4.95637 -2.88127 0
M  V30 5075 H 454.32 -5.52828 -2.33456 0
M  V30 5076 H 455.39 -4.70115 -1.18827 0
M  V30 5077 N 456.733 0.527833 -1.48498 0
M  V30 5078 C 457.68 1.6322 -1.6318 0
M  V30 5079 C 458.65 1.59199 -0.473815 0
M  V30 5080 O 459.835 1.77591 -0.697563 0
M  V30 5081 C 456.975 3.01474 -1.67951 0
M  V30 5082 C 456.088 3.15713 -2.94871 0
M  V30 5083 C 455.223 4.44539 -2.90789 0
M  V30 5084 C 454.262 4.52315 -4.12404 0
M  V30 5085 N 453.399 5.72533 -4.06387 0
M  V30 5086 H 458.239 1.50011 -2.57489 0
M  V30 5087 H 455.776 0.730298 -1.27691 0
M  V30 5088 H 457.734 3.81572 -1.68698 0
M  V30 5089 H 456.364 3.1345 -0.771306 0
M  V30 5090 H 455.416 2.28854 -3.03859 0
M  V30 5091 H 456.728 3.1732 -3.8485 0
M  V30 5092 H 455.882 5.3293 -2.89949 0
M  V30 5093 H 454.621 4.45457 -1.98542 0
M  V30 5094 H 453.626 3.62331 -4.13517 0
M  V30 5095 H 454.851 4.53134 -5.05812 0
M  V30 5096 H 452.797 5.74344 -3.16962 0
M  V30 5097 H 452.714 5.75643 -4.90073 0
M  V30 5098 H 453.982 6.63204 -4.0961 0
M  V30 5099 N 458.211 1.37122 0.776871 0
M  V30 5100 C 459.439 1.3523 1.5659 0
M  V30 5101 C 459.854 -0.0635518 1.88693 0
M  V30 5102 O 459.211 -1.02394 1.51069 0
M  V30 5103 C 459.262 2.18583 2.8793 0
M  V30 5104 O 458.983 3.5465 2.57206 0
M  V30 5105 C 460.484 2.24612 3.82183 0
M  V30 5106 H 457.704 0.4634 0.485285 0
M  V30 5107 H 460.248 1.80392 0.963266 0
M  V30 5108 H 458.403 1.76943 3.4463 0
M  V30 5109 H 458.817 3.98286 3.41275 0
M  V30 5110 H 460.291 2.87267 4.71361 0
M  V30 5111 H 460.768 1.25309 4.20944 0
M  V30 5112 H 461.374 2.66543 3.31414 0
M  V30 5113 N 459.689 -1.00246 1.21608 0
M  V30 5114 C 460.619 -2.10921 1.00172 0
M  V30 5115 C 461.6 -1.69938 -0.0741587 0
M  V30 5116 O 462.785 -1.94009 0.0861753 0
M  V30 5117 C 459.915 -3.42618 0.568355 0
M  V30 5118 C 458.869 -3.97407 1.58909 0
M  V30 5119 C 458.195 -5.25038 1.01187 0
M  V30 5120 C 459.495 -4.2918 2.97661 0
M  V30 5121 H 461.189 -2.29112 1.92739 0
M  V30 5122 H 458.735 -1.10101 0.928102 0
M  V30 5123 H 460.688 -4.19444 0.405555 0
M  V30 5124 H 459.412 -3.24227 -0.392961 0
M  V30 5125 H 458.071 -3.22703 1.73949 0
M  V30 5126 H 457.719 -5.02982 0.0421965 0
M  V30 5127 H 457.419 -5.62661 1.6937 0
M  V30 5128 H 458.943 -6.04507 0.860448 0
M  V30 5129 H 460.357 -4.96839 2.86049 0
M  V30 5130 H 458.754 -4.77952 3.6288 0
M  V30 5131 H 459.824 -3.3735 3.48315 0
M  V30 5132 N 461.167 -1.02423 -1.1978 0
M  V30 5133 C 462.13 -0.605703 -2.21052 0
M  V30 5134 C 463.13 0.328209 -1.57415 0
M  V30 5135 O 464.32 0.115853 -1.73814 0
M  V30 5136 C 461.452 0.114366 -3.40708 0
M  V30 5137 H 462.645 -1.5017 -2.59594 0
M  V30 5138 H 460.198 -0.814888 -1.33376 0
M  V30 5139 H 460.933 1.02492 -3.07678 0
M  V30 5140 H 460.718 -0.556641 -3.88129 0
M  V30 5141 H 462.208 0.394272 -4.15735 0
M  V30 5142 N 462.645 1.35699 -0.801477 0
M  V30 5143 C 463.555 2.33661 -0.209691 0
M  V30 5144 C 464.571 1.6162 0.644591 0
M  V30 5145 O 465.747 1.93529 0.557545 0
M  V30 5146 C 462.812 3.40816 0.636033 0
M  V30 5147 C 461.873 4.28639 -0.238147 0
M  V30 5148 C 461.106 5.30676 0.567307 0
M  V30 5149 O 461.329 5.41174 1.8024 0
M  V30 5150 O 460.263 6.01887 -0.0391336 0
M  V30 5151 H 464.089 2.8606 -1.01996 0
M  V30 5152 H 461.674 1.38379 -0.563164 0
M  V30 5153 H 463.556 4.06301 1.11791 0
M  V30 5154 H 462.231 2.90696 1.42399 0
M  V30 5155 H 461.138 3.66152 -0.767044 0
M  V30 5156 H 462.471 4.82143 -0.989915 0
M  V30 5157 N 464.123 0.554532 1.47522 0
M  V30 5158 C 465.033 -0.197865 2.33764 0
M  V30 5159 C 466.049 -0.914576 1.48025 0
M  V30 5160 O 467.225 -0.884067 1.80959 0
M  V30 5161 C 464.29 -1.21628 3.24665 0
M  V30 5162 C 463.351 -0.507283 4.26292 0
M  V30 5163 C 462.584 -1.47718 5.1285 0
M  V30 5164 O 462.807 -2.7118 5.01814 0
M  V30 5165 O 461.741 -1.00313 5.93482 0
M  V30 5166 H 465.567 0.50949 2.99396 0
M  V30 5167 H 463.152 0.315176 1.46038 0
M  V30 5168 H 465.034 -1.80421 3.80823 0
M  V30 5169 H 463.709 -1.9056 2.61665 0
M  V30 5170 H 462.616 0.121778 3.73902 0
M  V30 5171 H 463.949 0.140544 4.91999 0
M  V30 5172 N 465.601 -1.54893 0.290851 0
M  V30 5173 C 466.531 -2.26103 -0.583084 0
M  V30 5174 C 467.512 -1.25684 -1.14619 0
M  V30 5175 O 468.697 -1.54436 -1.17741 0
M  V30 5176 C 465.827 -2.99409 -1.75987 0
M  V30 5177 C 464.781 -4.0689 -1.32758 0
M  V30 5178 C 464.107 -4.67856 -2.58872 0
M  V30 5179 C 465.407 -5.20215 -0.46624 0
M  V30 5180 H 467.101 -2.99398 0.0108214 0
M  V30 5181 H 464.647 -1.43998 0.00664468 0
M  V30 5182 H 466.6 -3.47943 -2.37727 0
M  V30 5183 H 465.324 -2.23675 -2.37985 0
M  V30 5184 H 463.983 -3.59191 -0.733299 0
M  V30 5185 H 463.631 -3.88772 -3.19163 0
M  V30 5186 H 463.331 -5.40438 -2.30653 0
M  V30 5187 H 464.855 -5.19147 -3.21433 0
M  V30 5188 H 466.269 -5.64704 -0.989047 0
M  V30 5189 H 464.666 -5.99455 -0.27826 0
M  V30 5190 H 465.736 -4.82198 0.511173 0
M  V30 5191 N 467.08 -0.0183926 -1.57589 0
M  V30 5192 C 468.013 1.00148 -2.0505 0
M  V30 5193 C 468.991 1.32387 -0.944058 0
M  V30 5194 O 470.175 1.44237 -1.21358 0
M  V30 5195 C 467.302 2.32435 -2.46357 0
M  V30 5196 C 466.348 2.15731 -3.67916 0
M  V30 5197 S 467.181 1.46613 -5.15039 0
M  V30 5198 C 468.337 2.80293 -5.59631 0
M  V30 5199 H 468.57 0.597429 -2.91235 0
M  V30 5200 H 466.103 0.193002 -1.53189 0
M  V30 5201 H 468.061 3.0849 -2.70822 0
M  V30 5202 H 466.722 2.69975 -1.60537 0
M  V30 5203 H 465.915 3.13502 -3.9463 0
M  V30 5204 H 465.517 1.4782 -3.43548 0
M  V30 5205 H 467.809 3.76557 -5.63215 0
M  V30 5206 H 468.752 2.58256 -6.59325 0
M  V30 5207 H 469.16 2.85047 -4.87246 0
M  V30 5208 N 468.558 1.5553 0.254621 0
M  V30 5209 C 469.49 1.86104 1.33783 0
M  V30 5210 C 470.503 0.746752 1.44663 0
M  V30 5211 O 471.692 1.0248 1.46151 0
M  V30 5212 C 468.792 2.02532 2.71724 0
M  V30 5213 C 467.965 3.33335 2.83208 0
M  V30 5214 C 467.024 3.396 4.01943 0
M  V30 5215 O 466.05 4.12862 3.91834 0
M  V30 5216 N 467.252 2.68332 5.1476 0
M  V30 5217 H 470.017 2.79605 1.07893 0
M  V30 5218 H 467.578 1.55672 0.444732 0
M  V30 5219 H 469.57 2.04074 3.4948 0
M  V30 5220 H 468.14 1.15811 2.90356 0
M  V30 5221 H 467.36 3.44176 1.92189 0
M  V30 5222 H 468.648 4.19565 2.87824 0
M  V30 5223 H 468.046 2.08528 5.25864 0
M  V30 5224 H 466.603 2.75575 5.90679 0
M  V30 5225 N 470.036 -0.519951 1.48776 0
M  V30 5226 C 471.264 -1.29971 1.60982 0
M  V30 5227 C 471.679 -1.86803 0.273885 0
M  V30 5228 O 471.036 -1.66904 -0.738193 0
M  V30 5229 C 471.087 -2.44346 2.66415 0
M  V30 5230 O 470.808 -1.89855 3.94825 0
M  V30 5231 C 472.309 -3.36014 2.89153 0
M  V30 5232 H 469.529 -0.394891 0.542496 0
M  V30 5233 H 472.073 -0.626214 1.94676 0
M  V30 5234 H 470.228 -3.07562 2.35552 0
M  V30 5235 H 470.642 -2.64798 4.5275 0
M  V30 5236 H 472.116 -4.12593 3.66703 0
M  V30 5237 H 472.593 -3.91859 1.98351 0
M  V30 5238 H 473.199 -2.78582 3.21359 0
M  V30 5239 N 471.514 -1.37532 -0.769588 0
M  V30 5240 C 472.446 -1.29347 -1.89214 0
M  V30 5241 C 473.459 -0.208842 -1.61455 0
M  V30 5242 O 474.648 -0.465158 -1.72333 0
M  V30 5243 C 471.748 -0.977649 -3.24492 0
M  V30 5244 C 470.921 -2.16817 -3.7988 0
M  V30 5245 C 469.98 -1.82229 -4.93639 0
M  V30 5246 O 469.006 -2.54548 -5.09111 0
M  V30 5247 N 470.208 -0.767696 -5.75401 0
M  V30 5248 H 472.973 -2.26073 -1.96751 0
M  V30 5249 H 470.534 -1.31185 -0.948795 0
M  V30 5250 H 472.526 -0.727065 -3.98115 0
M  V30 5251 H 471.096 -0.0988777 -3.12444 0
M  V30 5252 H 470.316 -2.58038 -2.9801 0
M  V30 5253 H 471.604 -2.96308 -4.13617 0
M  V30 5254 H 471.002 -0.167626 -5.65452 0
M  V30 5255 H 469.559 -0.576973 -6.49241 0
M  V30 5256 N 472.992 0.995999 -1.22138 0
M  V30 5257 C 473.924 2.08745 -0.946485 0
M  V30 5258 C 474.937 1.62633 0.0737356 0
M  V30 5259 O 476.126 1.77782 -0.159886 0
M  V30 5260 C 473.226 3.36516 -0.401305 0
M  V30 5261 C 472.399 4.11672 -1.47801 0
M  V30 5262 C 471.458 5.17728 -0.940461 0
M  V30 5263 O 470.484 5.45482 -1.62596 0
M  V30 5264 N 471.686 5.80005 0.239723 0
M  V30 5265 H 474.451 2.32908 -1.88611 0
M  V30 5266 H 472.012 1.16152 -1.12785 0
M  V30 5267 H 474.004 4.04691 -0.0270837 0
M  V30 5268 H 472.574 3.0944 0.443354 0
M  V30 5269 H 471.794 3.38171 -2.02568 0
M  V30 5270 H 473.082 4.58657 -2.20253 0
M  V30 5271 H 472.48 5.5982 0.813518 0
M  V30 5272 H 471.037 6.4943 0.555361 0
M  V30 5273 N 474.47 1.03057 1.19235 0
M  V30 5274 C 475.403 0.557384 2.21288 0
M  V30 5275 C 476.381 -0.402675 1.57535 0
M  V30 5276 O 477.565 -0.319376 1.85775 0
M  V30 5277 C 474.692 -0.187041 3.38183 0
M  V30 5278 C 473.738 0.72471 4.20298 0
M  V30 5279 S 474.571 2.20187 4.88137 0
M  V30 5280 C 475.727 1.46801 6.08441 0
M  V30 5281 H 475.96 1.42207 2.61083 0
M  V30 5282 H 473.493 0.840651 1.29508 0
M  V30 5283 H 475.451 -0.610405 4.05936 0
M  V30 5284 H 474.112 -1.02748 2.96819 0
M  V30 5285 H 473.305 0.149911 5.03777 0
M  V30 5286 H 472.907 1.08647 3.57871 0
M  V30 5287 H 475.199 0.755522 6.73274 0
M  V30 5288 H 476.142 2.27946 6.70407 0
M  V30 5289 H 476.55 0.964762 5.56195 0
M  V30 5290 N 475.948 -1.35272 0.808662 0
M  V30 5291 C 476.878 -2.32315 0.234981 0
M  V30 5292 C 477.859 -1.57572 -0.64071 0
M  V30 5293 O 479.044 -1.8563 -0.570551 0
M  V30 5294 C 476.174 -3.41801 -0.615601 0
M  V30 5295 C 475.128 -4.27694 0.161767 0
M  V30 5296 C 474.454 -5.28519 -0.810649 0
M  V30 5297 C 475.754 -5.04231 1.36193 0
M  V30 5298 H 477.448 -2.80543 1.04575 0
M  V30 5299 H 474.994 -1.3488 0.504315 0
M  V30 5300 H 476.947 -4.08693 -1.02702 0
M  V30 5301 H 475.671 -2.92186 -1.45928 0
M  V30 5302 H 474.33 -3.62384 0.554382 0
M  V30 5303 H 473.978 -4.75171 -1.64988 0
M  V30 5304 H 473.678 -5.8686 -0.294822 0
M  V30 5305 H 475.202 -5.98283 -1.22023 0
M  V30 5306 H 476.616 -5.64058 1.02528 0
M  V30 5307 H 475.013 -5.72077 1.81239 0
M  V30 5308 H 476.083 -4.34753 2.14751 0
M  V30 5309 N 477.426 -0.562348 -1.47226 0
M  V30 5310 C 478.356 0.170627 -2.32876 0
M  V30 5311 C 479.337 0.903748 -1.44106 0
M  V30 5312 O 480.522 0.883206 -1.72954 0
M  V30 5313 C 477.652 1.19786 -3.25989 0
M  V30 5314 C 476.606 0.580875 -4.2404 0
M  V30 5315 C 475.932 1.71311 -5.06514 0
M  V30 5316 C 477.232 -0.468714 -5.20193 0
M  V30 5317 H 478.926 -0.544441 -2.94408 0
M  V30 5318 H 476.472 -0.263271 -1.41573 0
M  V30 5319 H 478.425 1.71884 -3.84752 0
M  V30 5320 H 477.149 1.94294 -2.62521 0
M  V30 5321 H 475.808 0.0811538 -3.6651 0
M  V30 5322 H 475.456 2.44736 -4.39447 0
M  V30 5323 H 475.156 1.30604 -5.72902 0
M  V30 5324 H 476.68 2.23725 -5.68137 0
M  V30 5325 H 478.094 -0.0336028 -5.7329 0
M  V30 5326 H 476.491 -0.794957 -5.94811 0
M  V30 5327 H 477.561 -1.36269 -4.65359 0
M  V30 5328 N 478.904 1.54736 -0.299062 0
M  V30 5329 C 479.852 2.24897 0.593658 0
M  V30 5330 C 480.846 1.25429 1.13859 0
M  V30 5331 O 482.052 1.43286 1.08945 0
M  V30 5332 H 478.427 0.72207 0.210046 0
M  V30 5333 H 480.398 2.98393 -0.0206421 0
M  V30 5334 C 479.147 3.00159 1.75499 0
M  V30 5335 H 478.47 3.76501 1.34489 0
M  V30 5336 H 479.91 3.52535 2.35574 0
M  V30 5337 C 478.369 2.07015 2.65794 0
M  V30 5338 O 478.899 1.63692 3.66835 0
M  V30 5339 N 477.105 1.73012 2.33485 0
M  V30 5340 H 476.652 2.08439 1.51364 0
M  V30 5341 H 476.61 1.10965 2.94167 0
M  V30 5342 N 480.382 0.0267497 1.57577 0
M  V30 5343 C 481.329 -0.955894 2.10075 0
M  V30 5344 C 482.299 -1.32453 1.00226 0
M  V30 5345 O 483.484 -1.41826 1.27632 0
M  V30 5346 C 480.624 -2.2338 2.6305 0
M  V30 5347 C 479.737 -1.92183 3.86898 0
M  V30 5348 C 478.872 -3.14251 4.28275 0
M  V30 5349 C 477.911 -2.78862 5.44888 0
M  V30 5350 N 477.048 -3.93548 5.81433 0
M  V30 5351 H 481.888 -0.501303 2.93753 0
M  V30 5352 H 479.425 -0.235847 1.45197 0
M  V30 5353 H 481.383 -2.98124 2.91853 0
M  V30 5354 H 480.013 -2.6646 1.82205 0
M  V30 5355 H 479.065 -1.07692 3.64838 0
M  V30 5356 H 480.377 -1.62117 4.7172 0
M  V30 5357 H 479.531 -3.97317 4.58502 0
M  V30 5358 H 478.27 -3.47476 3.42215 0
M  V30 5359 H 477.275 -1.94208 5.14357 0
M  V30 5360 H 478.5 -2.46855 6.32645 0
M  V30 5361 H 476.446 -4.2662 4.98328 0
M  V30 5362 H 476.363 -3.67098 6.6089 0
M  V30 5363 H 477.631 -4.77325 6.16264 0
M  V30 5364 N 481.861 -1.55662 -0.24637 0
M  V30 5365 C 482.771 -1.93495 -1.32653 0
M  V30 5366 C 483.787 -0.835462 -1.5263 0
M  V30 5367 O 484.963 -1.1369 -1.66242 0
M  V30 5368 C 482.028 -2.22242 -2.66101 0
M  V30 5369 C 481.089 -3.45625 -2.54641 0
M  V30 5370 C 480.322 -3.72991 -3.81724 0
M  V30 5371 O 480.545 -3.02421 -4.8363 0
M  V30 5372 O 479.479 -4.66515 -3.80325 0
M  V30 5373 H 483.305 -2.85498 -1.03559 0
M  V30 5374 H 480.89 -1.42551 -0.44717 0
M  V30 5375 H 482.772 -2.42037 -3.44958 0
M  V30 5376 H 481.447 -1.33417 -2.94926 0
M  V30 5377 H 480.354 -3.31136 -1.74067 0
M  V30 5378 H 481.687 -4.34754 -2.3076 0
M  V30 5379 N 483.339 0.512053 -1.4905 0
M  V30 5380 C 484.249 1.64139 -1.67617 0
M  V30 5381 C 485.265 1.64786 -0.558701 0
M  V30 5382 O 486.441 1.8341 -0.832034 0
M  V30 5383 C 483.506 3.00548 -1.72835 0
M  V30 5384 C 482.567 3.10615 -2.96339 0
M  V30 5385 C 481.8 4.40517 -3.01298 0
M  V30 5386 O 482.023 5.28671 -2.14157 0
M  V30 5387 O 480.957 4.55325 -3.93653 0
M  V30 5388 H 484.783 1.51407 -2.63267 0
M  V30 5389 H 482.368 0.687131 -1.32661 0
M  V30 5390 H 484.25 3.81641 -1.78683 0
M  V30 5391 H 482.925 3.13566 -0.803616 0
M  V30 5392 H 481.832 2.2875 -2.96014 0
M  V30 5393 H 483.165 3.0252 -3.88256 0
M  V30 5394 N 484.817 1.37938 0.762283 0
M  V30 5395 C 485.78 1.34279 1.85747 0
M  V30 5396 C 486.78 0.244969 1.58923 0
M  V30 5397 O 487.97 0.501365 1.66829 0
M  V30 5398 C 485.102 1.08833 3.23061 0
M  V30 5399 H 486.295 2.31705 1.90401 0
M  V30 5400 H 483.848 1.23105 0.963057 0
M  V30 5401 H 484.583 0.119767 3.24079 0
M  V30 5402 H 484.368 1.88306 3.43923 0
M  V30 5403 H 485.858 1.08946 4.03138 0
M  V30 5404 N 486.295 -0.989507 1.22664 0
M  V30 5405 C 487.541 -1.7321 1.05481 0
M  V30 5406 C 487.874 -1.89852 -0.408635 0
M  V30 5407 O 487.149 -1.44416 -1.30285 0
M  V30 5408 C 487.432 -3.1357 1.77047 0
M  V30 5409 C 487.285 -3.04555 3.31008 0
M  V30 5410 C 488.604 -4.12812 1.5256 0
M  V30 5411 H 485.723 -0.628697 0.384589 0
M  V30 5412 H 488.365 -1.15258 1.51049 0
M  V30 5413 H 486.515 -3.63046 1.3831 0
M  V30 5414 H 488.187 -2.62674 3.7921 0
M  V30 5415 H 486.43 -2.41278 3.6051 0
M  V30 5416 H 487.101 -4.03894 3.76263 0
M  V30 5417 H 489.577 -3.72106 1.86215 0
M  V30 5418 H 488.453 -5.09132 2.05124 0
M  V30 5419 H 488.714 -4.39711 0.458936 0
M  V30 5420 N 487.773 -1.03688 -1.18687 0
M  V30 5421 C 488.703 -0.645407 -2.24403 0
M  V30 5422 C 489.684 0.349511 -1.66471 0
M  V30 5423 O 490.869 0.230453 -1.92828 0
M  V30 5424 C 487.999 -0.00365337 -3.473 0
M  V30 5425 C 486.953 -0.921705 -4.17958 0
M  V30 5426 C 486.279 -0.144629 -5.34504 0
M  V30 5427 C 487.579 -2.23909 -4.71871 0
M  V30 5428 H 489.273 -1.52917 -2.57404 0
M  V30 5429 H 486.819 -0.736711 -1.23728 0
M  V30 5430 H 488.772 0.281908 -4.20456 0
M  V30 5431 H 487.496 0.914963 -3.13522 0
M  V30 5432 H 486.155 -1.19159 -3.46694 0
M  V30 5433 H 485.803 0.776274 -4.96974 0
M  V30 5434 H 485.503 -0.756206 -5.82714 0
M  V30 5435 H 487.027 0.134004 -6.10453 0
M  V30 5436 H 488.441 -2.0145 -5.36741 0
M  V30 5437 H 486.838 -2.8033 -5.30599 0
M  V30 5438 H 487.908 -2.88822 -3.895 0
M  V30 5439 N 489.251 1.34841 -0.815825 0
M  V30 5440 C 490.161 2.33425 -0.234462 0
M  V30 5441 C 491.177 1.62295 0.627413 0
M  V30 5442 O 492.353 1.94109 0.536987 0
M  V30 5443 C 489.418 3.41471 0.599849 0
M  V30 5444 C 488.479 4.28362 -0.283596 0
M  V30 5445 C 487.712 5.31248 0.51099 0
M  V30 5446 O 487.935 5.43056 1.7449 0
M  V30 5447 O 486.869 6.01812 -0.10297 0
M  V30 5448 H 490.695 2.84962 -1.05024 0
M  V30 5449 H 488.28 1.37774 -0.577809 0
M  V30 5450 H 490.162 4.07464 1.07475 0
M  V30 5451 H 488.837 2.9219 1.39308 0
M  V30 5452 H 487.744 3.65318 -0.805836 0
M  V30 5453 H 489.077 4.81066 -1.041 0
M  V30 5454 N 490.729 0.570148 1.46925 0
M  V30 5455 C 491.659 -0.158274 2.32963 0
M  V30 5456 C 492.64 -0.896093 1.44583 0
M  V30 5457 O 493.825 -0.874022 1.7342 0
M  V30 5458 C 490.955 -1.18055 3.26619 0
M  V30 5459 C 489.909 -0.558379 4.24342 0
M  V30 5460 C 489.235 -1.68623 5.07415 0
M  V30 5461 C 490.535 0.496295 5.19937 0
M  V30 5462 H 492.229 0.560046 2.94115 0
M  V30 5463 H 489.775 0.270775 1.41431 0
M  V30 5464 H 491.728 -1.69841 3.85658 0
M  V30 5465 H 490.452 -1.92899 2.63548 0
M  V30 5466 H 489.111 -0.0617157 3.66548 0
M  V30 5467 H 488.759 -2.42402 4.40738 0
M  V30 5468 H 488.459 -1.27564 5.73586 0
M  V30 5469 H 489.983 -2.20709 5.69315 0
M  V30 5470 H 491.397 0.0640052 5.73264 0
M  V30 5471 H 489.794 0.82649 5.94381 0
M  V30 5472 H 490.864 1.38735 4.6463 0
M  V30 5473 N 492.207 -1.54576 0.307264 0
M  V30 5474 C 493.117 -2.27435 -0.57536 0
M  V30 5475 C 494.133 -1.31183 -1.14311 0
M  V30 5476 O 495.309 -1.64175 -1.16656 0
M  V30 5477 C 492.374 -3.00566 -1.72803 0
M  V30 5478 C 491.435 -4.12369 -1.19373 0
M  V30 5479 C 490.668 -4.82003 -2.29147 0
M  V30 5480 O 490.891 -4.51038 -3.49171 0
M  V30 5481 O 489.825 -5.69271 -1.95485 0
M  V30 5482 H 493.651 -3.03696 0.0158558 0
M  V30 5483 H 491.236 -1.49219 0.0735064 0
M  V30 5484 H 493.118 -3.46416 -2.39946 0
M  V30 5485 H 491.793 -2.27195 -2.30574 0
M  V30 5486 H 490.7 -3.70905 -0.487851 0
M  V30 5487 H 492.033 -4.87736 -0.661376 0
M  V30 5488 N 493.685 -0.035106 -1.57561 0
M  V30 5489 C 494.632 0.94474 -2.10578 0
M  V30 5490 C 495.602 1.3192 -1.00927 0
M  V30 5491 O 496.787 1.41147 -1.28382 0
M  V30 5492 C 493.927 2.21982 -2.64231 0
M  V30 5493 C 493.04 1.90128 -3.87911 0
M  V30 5494 C 492.175 3.11975 -4.29936 0
M  V30 5495 C 491.214 2.75968 -5.46359 0
M  V30 5496 N 490.351 3.90459 -5.83512 0
M  V30 5497 H 495.191 0.485717 -2.94015 0
M  V30 5498 H 492.728 0.228143 -1.4532 0
M  V30 5499 H 494.686 2.96572 -2.9343 0
M  V30 5500 H 493.316 2.6549 -1.83616 0
M  V30 5501 H 492.368 1.05755 -3.65404 0
M  V30 5502 H 493.68 1.59613 -4.72573 0
M  V30 5503 H 492.834 3.9488 -4.60603 0
M  V30 5504 H 491.573 3.45657 -3.44053 0
M  V30 5505 H 490.578 1.91478 -5.1538 0
M  V30 5506 H 491.803 2.43497 -6.33945 0
M  V30 5507 H 489.749 4.23971 -5.00584 0
M  V30 5508 H 489.666 3.63588 -6.62827 0
M  V30 5509 H 490.934 4.7405 -6.18787 0
M  V30 5510 N 495.163 1.55791 0.238111 0
M  V30 5511 C 496.579 1.48411 0.587045 0
M  V30 5512 C 496.779 0.72702 1.87927 0
M  V30 5513 O 495.835 0.259942 2.51158 0
M  V30 5514 C 497.148 2.92873 0.681623 0
M  V30 5515 C 498.696 3.03295 0.773363 0
M  V30 5516 C 499.171 4.49082 0.899428 0
M  V30 5517 N 500.662 4.53056 0.964075 0
M  V30 5518 C 501.397 5.63117 1.08104 0
M  V30 5519 N 500.893 6.82969 1.16299 0
M  V30 5520 N 502.686 5.50933 1.11488 0
M  V30 5521 H 494.837 2.0345 -0.610076 0
M  V30 5522 H 497.1 0.924034 -0.211813 0
M  V30 5523 H 496.806 3.51142 -0.19802 0
M  V30 5524 H 496.68 3.43851 1.55069 0
M  V30 5525 H 499.067 2.45101 1.64346 0
M  V30 5526 H 499.148 2.55513 -0.121034 0
M  V30 5527 H 498.792 5.07889 0.0338586 0
M  V30 5528 H 498.722 4.94553 1.809 0
M  V30 5529 H 501.213 3.66737 0.91173 0
M  V30 5530 H 501.526 7.62598 1.25155 0
M  V30 5531 H 499.871 6.85712 1.13241 0
M  V30 5532 H 503.062 4.56231 1.0474 0
M  V30 5533 H 503.235 6.36743 1.20259 0
M  V30 5534 N 496.642 -0.504142 1.49319 0
M  V30 5535 C 497.891 -1.25507 1.57895 0
M  V30 5536 C 498.204 -1.93735 0.269433 0
M  V30 5537 O 499.41 -2.70492 0.233706 0
M  V30 5538 C 497.866 -2.27869 2.78574 0
M  V30 5539 C 497.474 -1.65594 4.16272 0
M  V30 5540 C 499.218 -3.0381 2.96479 0
M  V30 5541 C 497.125 -2.66048 5.28178 0
M  V30 5542 H 496.055 -0.47212 0.587894 0
M  V30 5543 H 498.706 -0.52931 1.757 0
M  V30 5544 H 497.088 -3.03594 2.54257 0
M  V30 5545 H 498.262 -0.958826 4.50714 0
M  V30 5546 H 496.577 -1.02055 4.037 0
M  V30 5547 H 499.174 -3.78925 3.77253 0
M  V30 5548 H 499.517 -3.61235 2.06918 0
M  V30 5549 H 500.05 -2.352 3.20821 0
M  V30 5550 H 496.789 -2.13408 6.19788 0
M  V30 5551 H 496.309 -3.34009 4.98195 0
M  V30 5552 H 497.988 -3.28536 5.57381 0
M  V30 5553 N 498.12 -1.38341 -0.754957 0
M  V30 5554 C 499.03 -1.3769 -1.89944 0
M  V30 5555 C 500.046 -0.274194 -1.71826 0
M  V30 5556 O 501.222 -0.512391 -1.94773 0
M  V30 5557 C 498.287 -1.19938 -3.25293 0
M  V30 5558 C 497.348 -2.40001 -3.55946 0
M  V30 5559 C 496.581 -2.23087 -4.84838 0
M  V30 5560 O 496.804 -1.22386 -5.57116 0
M  V30 5561 O 495.738 -3.11646 -5.14937 0
M  V30 5562 H 499.564 -2.3412 -1.93446 0
M  V30 5563 H 497.149 -1.19246 -0.900044 0
M  V30 5564 H 499.031 -1.12093 -4.06218 0
M  V30 5565 H 497.706 -0.265919 -3.22606 0
M  V30 5566 H 496.613 -2.53421 -2.75188 0
M  V30 5567 H 497.946 -3.31973 -3.63394 0
M  V30 5568 N 499.598 0.982988 -1.23187 0
M  V30 5569 C 500.508 2.10907 -1.02739 0
M  V30 5570 C 501.524 1.73979 0.0273188 0
M  V30 5571 O 502.7 2.00702 -0.16757 0
M  V30 5572 C 499.765 3.41142 -0.618304 0
M  V30 5573 C 498.826 3.92112 -1.74777 0
M  V30 5574 C 498.059 5.16131 -1.3581 0
M  V30 5575 O 498.282 5.6989 -0.241201 0
M  V30 5576 O 497.216 5.61103 -2.17824 0
M  V30 5577 H 501.042 2.31046 -1.97108 0
M  V30 5578 H 498.627 1.09284 -1.01869 0
M  V30 5579 H 500.509 4.19488 -0.400982 0
M  V30 5580 H 499.184 3.2234 0.296421 0
M  V30 5581 H 498.091 3.14895 -2.0197 0
M  V30 5582 H 499.424 4.15364 -2.64071 0
M  V30 5583 N 501.076 1.04316 1.18135 0
M  V30 5584 C 502.301 0.768047 1.92655 0
M  V30 5585 C 502.726 -0.66904 1.758 0
M  V30 5586 O 502.084 -1.46372 1.06981 0
M  V30 5587 C 502.132 1.14239 3.42026 0
M  V30 5588 O 501.236 0.269333 4.1152 0
M  V30 5589 H 500.577 0.282436 0.600937 0
M  V30 5590 H 503.107 1.39367 1.49793 0
M  V30 5591 H 503.117 1.10538 3.92741 0
M  V30 5592 H 501.792 2.18928 3.53615 0
M  V30 5593 H 500.369 0.366175 3.71098 0
M  V30 5594 N 502.554 -1.34406 0.822964 0
M  V30 5595 C 503.779 -2.0304 0.423034 0
M  V30 5596 C 504.204 -1.61568 -0.963196 0
M  V30 5597 O 503.562 -0.800339 -1.62678 0
M  V30 5598 C 503.61 -3.56636 0.53321 0
M  V30 5599 O 502.714 -4.09971 -0.446939 0
M  V30 5600 H 502.055 -0.64075 0.174171 0
M  V30 5601 H 504.585 -1.71653 1.11339 0
M  V30 5602 H 504.595 -4.05945 0.408991 0
M  V30 5603 H 503.27 -3.86168 1.54425 0
M  V30 5604 H 501.847 -3.71835 -0.281601 0
M  V30 5605 N 504.032 -0.577932 -1.46621 0
M  V30 5606 C 504.942 0.160651 -2.34049 0
M  V30 5607 C 505.958 0.890911 -1.49462 0
M  V30 5608 O 507.134 0.855166 -1.82343 0
M  V30 5609 C 504.199 1.16447 -3.26559 0
M  V30 5610 C 503.26 0.4394 -4.27045 0
M  V30 5611 C 502.493 1.3954 -5.15135 0
M  V30 5612 O 502.716 2.63162 -5.06065 0
M  V30 5613 O 501.65 0.908585 -5.95003 0
M  V30 5614 H 505.476 -0.557057 -2.98547 0
M  V30 5615 H 503.061 -0.338369 -1.45518 0
M  V30 5616 H 504.943 1.7434 -3.83645 0
M  V30 5617 H 503.618 1.86373 -2.64663 0
M  V30 5618 H 502.525 -0.181247 -3.73661 0
M  V30 5619 H 503.858 -0.218799 -4.91713 0
M  V30 5620 N 505.51 1.54411 -0.315457 0
M  V30 5621 C 506.738 2.04833 0.291738 0
M  V30 5622 C 507.153 1.19203 1.46411 0
M  V30 5623 O 506.51 0.220867 1.81159 0
M  V30 5624 C 506.561 3.53969 0.73404 0
M  V30 5625 O 506.282 4.36346 -0.391682 0
M  V30 5626 C 507.783 4.2045 1.40489 0
M  V30 5627 H 505.003 0.668195 0.0612947 0
M  V30 5628 H 507.547 1.99276 -0.45929 0
M  V30 5629 H 505.702 3.5984 1.43506 0
M  V30 5630 H 506.116 5.24481 -0.0447088 0
M  V30 5631 H 507.59 5.26278 1.66539 0
M  V30 5632 H 508.067 3.71067 2.3496 0
M  V30 5633 H 508.673 4.18694 0.746662 0
M  V30 5634 N 506.988 0.0434614 1.5754 0
M  V30 5635 C 508.228 -0.636023 1.94253 0
M  V30 5636 C 508.592 -1.68461 0.921132 0
M  V30 5637 O 509.793 -2.41762 1.17494 0
M  V30 5638 C 508.064 -1.22357 3.35803 0
M  V30 5639 S 509.623 -1.92213 3.94461 0
M  V30 5640 H 506.441 -0.209041 0.679575 0
M  V30 5641 H 509.043 0.110556 1.95187 0
M  V30 5642 H 507.747 -0.448162 4.07946 0
M  V30 5643 H 507.278 -2.00713 3.38346 0
M  V30 5644 H 509.293 -3.20199 3.79061 0
M  V30 5645 N 508.466 -1.55915 -0.229846 0
M  V30 5646 C 509.376 -1.94891 -1.30593 0
M  V30 5647 C 510.392 -0.851604 -1.51736 0
M  V30 5648 O 511.568 -1.15447 -1.65027 0
M  V30 5649 C 508.633 -2.25052 -2.63728 0
M  V30 5650 C 507.694 -3.48306 -2.5096 0
M  V30 5651 C 506.927 -3.77019 -3.77747 0
M  V30 5652 O 507.15 -3.07534 -4.80395 0
M  V30 5653 O 506.084 -4.70523 -3.75356 0
M  V30 5654 H 509.91 -2.86581 -1.00525 0
M  V30 5655 H 507.495 -1.43017 -0.432025 0
M  V30 5656 H 509.377 -2.45682 -3.42372 0
M  V30 5657 H 508.052 -1.36538 -2.93495 0
M  V30 5658 H 506.959 -3.32964 -1.70546 0
M  V30 5659 H 508.292 -4.37177 -2.26136 0
M  V30 5660 N 509.944 0.496216 -1.49584 0
M  V30 5661 C 510.891 1.59722 -1.66606 0
M  V30 5662 C 511.861 1.58158 -0.507477 0
M  V30 5663 O 513.046 1.76072 -0.735076 0
M  V30 5664 C 510.186 2.97844 -1.74308 0
M  V30 5665 C 509.299 3.09388 -3.01502 0
M  V30 5666 C 508.434 4.38271 -3.00153 0
M  V30 5667 C 507.473 4.43466 -4.21906 0
M  V30 5668 N 506.61 5.63784 -4.1844 0
M  V30 5669 H 511.45 1.44515 -2.60613 0
M  V30 5670 H 508.987 0.703048 -1.29212 0
M  V30 5671 H 510.945 3.77907 -1.76754 0
M  V30 5672 H 509.575 3.11743 -0.837619 0
M  V30 5673 H 508.627 2.22357 -3.08645 0
M  V30 5674 H 509.939 3.09085 -3.91494 0
M  V30 5675 H 509.093 5.2666 -3.01188 0
M  V30 5676 H 507.832 4.41146 -2.07947 0
M  V30 5677 H 506.837 3.53478 -4.21109 0
M  V30 5678 H 508.062 4.42303 -5.1531 0
M  V30 5679 H 506.008 5.67491 -3.29074 0
M  V30 5680 H 505.925 5.65118 -5.02173 0
M  V30 5681 H 507.193 6.54367 -4.23585 0
M  V30 5682 N 511.423 1.38739 0.74761 0
M  V30 5683 C 512.37 1.36449 1.86146 0
M  V30 5684 C 513.34 0.226098 1.64554 0
M  V30 5685 O 514.525 0.41926 1.86137 0
M  V30 5686 C 511.665 1.2013 3.23516 0
M  V30 5687 C 510.778 2.43407 3.56899 0
M  V30 5688 C 509.913 2.19773 4.83605 0
M  V30 5689 C 508.952 3.3879 5.09792 0
M  V30 5690 N 508.089 3.14553 6.27695 0
M  V30 5691 H 512.929 2.3167 1.87438 0
M  V30 5692 H 510.466 1.15094 0.916063 0
M  V30 5693 H 512.424 1.08683 4.02795 0
M  V30 5694 H 511.054 0.285453 3.21535 0
M  V30 5695 H 510.106 2.65504 2.72418 0
M  V30 5696 H 511.418 3.32094 3.72176 0
M  V30 5697 H 510.572 2.05496 5.70838 0
M  V30 5698 H 509.311 1.28461 4.70478 0
M  V30 5699 H 508.316 3.53579 4.21025 0
M  V30 5700 H 509.541 4.30986 5.24812 0
M  V30 5701 H 507.487 2.25893 6.1588 0
M  V30 5702 H 507.404 3.96791 6.435 0
M  V30 5703 H 508.672 3.03943 7.17801 0
M  V30 5704 N 512.901 -0.976442 1.23707 0
M  V30 5705 C 514.126 -1.75875 1.09922 0
M  V30 5706 C 514.551 -1.84911 -0.34489 0
M  V30 5707 O 513.909 -1.31363 -1.24954 0
M  V30 5708 C 513.957 -3.16179 1.73388 0
M  V30 5709 O 513.061 -4.00124 0.99871 0
M  V30 5710 H 512.402 -0.540954 0.385052 0
M  V30 5711 H 514.932 -1.22546 1.6384 0
M  V30 5712 H 514.942 -3.66741 1.78788 0
M  V30 5713 H 513.617 -3.08917 2.78466 0
M  V30 5714 H 512.194 -3.58624 1.02193 0
M  V30 5715 N 514.379 -1.04941 -1.1758 0
M  V30 5716 C 515.656 -0.671918 -1.83697 0
M  V30 5717 C 516.036 0.847929 -1.93322 0
M  V30 5718 O 515.384 1.75287 -1.46583 0
M  V30 5719 C 515.594 -1.35797 -3.21497 0
M  V30 5720 C 516.942 -1.4944 -3.97433 0
M  V30 5721 O 517.966 -1.31678 -3.30967 0
M  V30 5722 O 516.825 -1.78463 -5.1654 0
M  V30 5723 H 513.919 -0.236212 -0.792548 0
M  V30 5724 H 516.465 -1.14884 -1.24899 0
M  V30 5725 H 515.237 -2.39498 -3.09446 0
M  V30 5726 H 514.86 -0.870236 -3.8796 0
M  V30 5727 N 515.857 1.33968 -0.830081 0
M  V30 5728 C 517.106 1.97323 -0.417928 0
M  V30 5729 C 517.419 1.6652 1.02618 0
M  V30 5730 O 518.625 2.2342 1.54259 0
M  V30 5731 C 517.081 3.53099 -0.696359 0
M  V30 5732 C 516.689 3.92788 -2.15457 0
M  V30 5733 C 518.433 4.23049 -0.350724 0
M  V30 5734 C 516.34 5.41506 -2.37751 0
M  V30 5735 H 515.27 0.738409 -0.152541 0
M  V30 5736 H 517.921 1.52711 -1.01744 0
M  V30 5737 H 516.303 3.95991 -0.0265904 0
M  V30 5738 H 517.477 3.6098 -2.86408 0
M  V30 5739 H 515.792 3.35795 -2.46232 0
M  V30 5740 H 518.389 5.32403 -0.495036 0
M  V30 5741 H 518.732 4.10279 0.705476 0
M  V30 5742 H 519.265 3.85657 -0.975362 0
M  V30 5743 H 516.004 5.5927 -3.41903 0
M  V30 5744 H 515.524 5.74804 -1.7135 0
M  V30 5745 H 517.203 6.0828 -2.20465 0
M  V30 5746 N 517.335 0.585699 1.46312 0
M  V30 5747 C 518.581 0.0725284 2.0267 0
M  V30 5748 C 518.914 -1.28523 1.45586 0
M  V30 5749 O 518.189 -1.84283 0.622101 0
M  V30 5750 C 518.472 0.0099788 3.60099 0
M  V30 5751 C 518.325 1.39685 4.27561 0
M  V30 5752 C 519.644 -0.689117 4.34671 0
M  V30 5753 H 516.763 0.0278307 0.736474 0
M  V30 5754 H 519.405 0.753472 1.74421 0
M  V30 5755 H 517.555 -0.56992 3.84297 0
M  V30 5756 H 519.227 2.02215 4.14617 0
M  V30 5757 H 517.47 1.96374 3.86807 0
M  V30 5758 H 518.141 1.30553 5.36339 0
M  V30 5759 H 520.617 -0.196446 4.15636 0
M  V30 5760 H 519.493 -0.701921 5.44393 0
M  V30 5761 H 519.754 -1.75101 4.05946 0
M  V30 5762 N 518.813 -1.54241 0.323641 0
M  V30 5763 C 519.743 -2.27289 -0.534993 0
M  V30 5764 C 520.724 -1.28087 -1.11927 0
M  V30 5765 O 521.909 -1.56899 -1.14439 0
M  V30 5766 C 519.039 -3.03075 -1.69596 0
M  V30 5767 C 517.993 -4.09614 -1.24098 0
M  V30 5768 C 517.319 -4.73242 -2.4889 0
M  V30 5769 C 518.619 -5.21087 -0.355789 0
M  V30 5770 H 520.313 -2.99308 0.0743257 0
M  V30 5771 H 517.859 -1.43952 0.0371874 0
M  V30 5772 H 519.812 -3.52907 -2.30293 0
M  V30 5773 H 518.536 -2.28673 -2.33187 0
M  V30 5774 H 517.195 -3.60666 -0.656945 0
M  V30 5775 H 516.843 -3.95455 -3.10845 0
M  V30 5776 H 516.543 -5.45209 -2.19138 0
M  V30 5777 H 518.067 -5.25848 -3.10348 0
M  V30 5778 H 519.481 -5.66675 -0.869042 0
M  V30 5779 H 517.878 -5.9991 -0.151045 0
M  V30 5780 H 518.948 -4.81005 0.613339 0
M  V30 5781 N 520.291 -0.0518155 -1.57515 0
M  V30 5782 C 521.221 0.920283 -2.146 0
M  V30 5783 C 522.202 1.32406 -1.06783 0
M  V30 5784 O 523.387 1.39866 -1.34726 0
M  V30 5785 C 520.517 2.1949 -2.6915 0
M  V30 5786 C 519.471 1.93116 -3.81956 0
M  V30 5787 C 518.797 3.27037 -4.23026 0
M  V30 5788 C 520.097 1.25225 -5.07066 0
M  V30 5789 H 521.791 0.444801 -2.96077 0
M  V30 5790 H 519.337 0.212508 -1.42423 0
M  V30 5791 H 521.29 2.87894 -3.07725 0
M  V30 5792 H 520.014 2.69244 -1.84865 0
M  V30 5793 H 518.673 1.27123 -3.43854 0
M  V30 5794 H 518.321 3.74595 -3.3569 0
M  V30 5795 H 518.021 3.10189 -4.99056 0
M  V30 5796 H 519.545 3.96673 -4.64202 0
M  V30 5797 H 520.959 1.83666 -5.43083 0
M  V30 5798 H 519.356 1.18702 -5.88243 0
M  V30 5799 H 520.426 0.228382 -4.84362 0
M  V30 5800 N 521.769 1.56035 0.221574 0
M  V30 5801 C 522.699 1.95434 1.2778 0
M  V30 5802 C 523.68 0.822564 1.48889 0
M  V30 5803 O 524.865 1.08486 1.61072 0
M  V30 5804 C 521.995 2.27102 2.62759 0
M  V30 5805 C 520.949 3.4277 2.56306 0
M  V30 5806 C 520.275 3.60043 3.95314 0
M  V30 5807 C 521.575 4.77742 2.11093 0
M  V30 5808 H 523.269 2.83912 0.950504 0
M  V30 5809 H 520.815 1.36596 0.455791 0
M  V30 5810 H 522.768 2.53256 3.36807 0
M  V30 5811 H 521.492 1.35478 2.97176 0
M  V30 5812 H 520.151 3.16664 1.84715 0
M  V30 5813 H 519.799 2.65794 4.27039 0
M  V30 5814 H 519.499 4.37841 3.91879 0
M  V30 5815 H 521.023 3.88545 4.71025 0
M  V30 5816 H 522.437 5.03102 2.74885 0
M  V30 5817 H 520.834 5.58823 2.18716 0
M  V30 5818 H 521.904 4.731 1.06321 0
M  V30 5819 N 523.247 -0.488276 1.49845 0
M  V30 5820 C 524.472 -1.26997 1.63971 0
M  V30 5821 C 524.897 -1.85427 0.315994 0
M  V30 5822 O 524.255 -1.66475 -0.718032 0
M  V30 5823 C 524.303 -2.36689 2.72049 0
M  V30 5824 O 523.407 -3.40882 2.32107 0
M  V30 5825 H 522.748 -0.374376 0.548396 0
M  V30 5826 H 525.278 -0.583104 1.96115 0
M  V30 5827 H 525.288 -2.82262 2.94605 0
M  V30 5828 H 523.963 -1.93529 3.68129 0
M  V30 5829 H 522.54 -3.01139 2.19931 0
M  V30 5830 N 524.725 -1.39134 -0.740242 0
M  V30 5831 C 525.657 -1.33332 -1.86428 0
M  V30 5832 C 526.67 -0.243042 -1.60976 0
M  V30 5833 O 527.859 -0.501608 -1.71307 0
M  V30 5834 C 524.959 -1.04626 -3.22346 0
M  V30 5835 C 524.132 -2.24826 -3.75196 0
M  V30 5836 C 523.191 -1.92659 -4.89662 0
M  V30 5837 O 522.217 -2.6529 -5.03597 0
M  V30 5838 N 523.419 -0.889575 -5.73643 0
M  V30 5839 H 526.184 -2.30196 -1.91911 0
M  V30 5840 H 523.745 -1.33168 -0.920756 0
M  V30 5841 H 525.737 -0.811347 -3.96484 0
M  V30 5842 H 524.307 -0.165129 -3.12164 0
M  V30 5843 H 523.527 -2.64301 -2.9247 0
M  V30 5844 H 524.815 -3.05015 -4.07239 0
M  V30 5845 H 524.213 -0.287529 -5.64969 0
M  V30 5846 H 522.77 -0.714557 -6.47871 0
M  V30 5847 N 526.204 0.969867 -1.24223 0
M  V30 5848 C 527.151 2.06407 -1.0327 0
M  V30 5849 C 528.121 1.66014 0.0533 0
M  V30 5850 O 529.306 1.90533 -0.100896 0
M  V30 5851 C 526.446 3.3909 -0.641262 0
M  V30 5852 C 525.559 3.9269 -1.80051 0
M  V30 5853 C 524.694 5.13631 -1.35486 0
M  V30 5854 C 523.733 5.59423 -2.48419 0
M  V30 5855 N 522.87 6.71586 -2.04737 0
M  V30 5856 H 527.71 2.23663 -1.96923 0
M  V30 5857 H 525.247 1.09624 -0.980862 0
M  V30 5858 H 527.205 4.15323 -0.395351 0
M  V30 5859 H 525.835 3.21765 0.258269 0
M  V30 5860 H 524.887 3.13116 -2.16014 0
M  V30 5861 H 526.199 4.22636 -2.64916 0
M  V30 5862 H 525.353 5.97231 -1.0677 0
M  V30 5863 H 524.092 4.85364 -0.476722 0
M  V30 5864 H 523.097 4.74398 -2.77897 0
M  V30 5865 H 524.322 5.89705 -3.36786 0
M  V30 5866 H 522.268 6.45058 -1.19318 0
M  V30 5867 H 522.185 7.0097 -2.83156 0
M  V30 5868 H 523.453 7.58633 -1.79154 0
M  V30 5869 N 527.682 1.05563 1.17022 0
M  V30 5870 C 528.614 0.617888 2.20714 0
M  V30 5871 C 529.627 -0.320303 1.59618 0
M  V30 5872 O 530.816 -0.112449 1.78145 0
M  V30 5873 C 527.916 -0.115333 3.38704 0
M  V30 5874 C 527.089 0.834493 4.29366 0
M  V30 5875 C 526.148 0.141855 5.26009 0
M  V30 5876 O 525.174 0.777151 5.6387 0
M  V30 5877 N 526.376 -1.11934 5.69606 0
M  V30 5878 H 529.141 1.50981 2.58892 0
M  V30 5879 H 526.702 0.938008 1.31958 0
M  V30 5880 H 528.694 -0.588918 4.00392 0
M  V30 5881 H 527.264 -0.908967 2.99093 0
M  V30 5882 H 526.484 1.48762 3.65053 0
M  V30 5883 H 527.772 1.4791 4.86827 0
M  V30 5884 H 527.17 -1.65574 5.40927 0
M  V30 5885 H 525.727 -1.53692 6.33421 0
M  V30 5886 N 529.16 -1.33526 0.837174 0
M  V30 5887 C 530.123 -2.27551 0.274421 0
M  V30 5888 C 531.123 -1.50886 -0.555881 0
M  V30 5889 O 532.313 -1.70227 -0.369918 0
M  V30 5890 C 529.445 -3.35332 -0.613605 0
M  V30 5891 H 530.638 -2.78837 1.10408 0
M  V30 5892 H 528.191 -1.439 0.610126 0
M  V30 5893 H 528.926 -2.89285 -1.46577 0
M  V30 5894 H 528.711 -3.92095 -0.0195341 0
M  V30 5895 H 530.201 -4.05433 -1.00068 0
M  V30 5896 N 530.638 -0.59345 -1.46 0
M  V30 5897 C 531.568 0.121192 -2.33185 0
M  V30 5898 C 532.549 0.872977 -1.4599 0
M  V30 5899 O 533.734 0.846321 -1.74789 0
M  V30 5900 C 530.864 1.12844 -3.28456 0
M  V30 5901 C 529.818 0.4908 -4.25177 0
M  V30 5902 C 529.144 1.60529 -5.10034 0
M  V30 5903 C 530.444 -0.578949 -5.19081 0
M  V30 5904 H 532.138 -0.606767 -2.93187 0
M  V30 5905 H 529.684 -0.293242 -1.40983 0
M  V30 5906 H 531.637 1.63684 -3.88311 0
M  V30 5907 H 530.361 1.88681 -2.66584 0
M  V30 5908 H 529.02 0.00339328 -3.666 0
M  V30 5909 H 528.668 2.35359 -4.44539 0
M  V30 5910 H 528.368 1.18422 -5.75543 0
M  V30 5911 H 529.892 2.11623 -5.72755 0
M  V30 5912 H 531.306 -0.155199 -5.7309 0
M  V30 5913 H 529.703 -0.920947 -5.92991 0
M  V30 5914 H 530.773 -1.46109 -4.62364 0
M  V30 5915 N 532.116 1.54067 -0.331816 0
M  V30 5916 C 533.026 2.28322 0.539104 0
M  V30 5917 C 534.042 1.32985 1.1221 0
M  V30 5918 O 535.218 1.6601 1.1403 0
M  V30 5919 C 532.283 3.03277 1.68 0
M  V30 5920 C 531.344 4.14216 1.12798 0
M  V30 5921 C 530.577 4.85588 2.2145 0
M  V30 5922 O 530.8 4.56536 3.41952 0
M  V30 5923 O 529.734 5.72309 1.86404 0
M  V30 5924 H 533.56 3.03632 -0.0641692 0
M  V30 5925 H 531.145 1.49083 -0.0972365 0
M  V30 5926 H 533.027 3.50189 2.34405 0
M  V30 5927 H 531.702 2.30834 2.2693 0
M  V30 5928 H 530.609 3.71635 0.428782 0
M  V30 5929 H 531.942 4.88727 0.583698 0
M  V30 5930 N 533.594 0.0601682 1.57485 0
M  V30 5931 C 534.504 -0.926121 2.15546 0
M  V30 5932 C 535.52 -1.33532 1.11558 0
M  V30 5933 O 536.696 -1.4104 1.4377 0
M  V30 5934 C 533.761 -2.17952 2.69625 0
M  V30 5935 C 532.822 -1.82783 3.88444 0
M  V30 5936 C 532.055 -3.02148 4.39935 0
M  V30 5937 O 532.278 -4.15803 3.90466 0
M  V30 5938 O 531.212 -2.82639 5.31412 0
M  V30 5939 H 535.038 -0.462289 3.00161 0
M  V30 5940 H 532.623 -0.162246 1.48516 0
M  V30 5941 H 534.505 -2.91474 3.04337 0
M  V30 5942 H 533.18 -2.63456 1.88077 0
M  V30 5943 H 532.087 -1.06549 3.58606 0
M  V30 5944 H 533.42 -1.42072 4.7125 0
M  V30 5945 N 535.072 -1.5615 -0.213296 0
M  V30 5946 C 536.002 -1.96109 -1.26742 0
M  V30 5947 C 536.983 -0.830448 -1.48451 0
M  V30 5948 O 538.168 -1.09339 -1.60495 0
M  V30 5949 C 535.298 -2.28492 -2.61551 0
M  V30 5950 C 534.252 -3.44124 -2.54485 0
M  V30 5951 C 533.578 -3.62134 -3.93399 0
M  V30 5952 C 534.878 -4.78855 -2.08556 0
M  V30 5953 H 536.572 -2.84412 -0.935434 0
M  V30 5954 H 534.118 -1.36836 -0.44854 0
M  V30 5955 H 536.071 -2.55039 -3.3546 0
M  V30 5956 H 534.795 -1.37052 -2.96453 0
M  V30 5957 H 533.454 -3.17639 -1.83033 0
M  V30 5958 H 533.102 -2.68055 -4.25623 0
M  V30 5959 H 532.802 -4.39913 -3.89551 0
M  V30 5960 H 534.326 -3.91038 -4.68958 0
M  V30 5961 H 535.74 -5.04552 -2.72213 0
M  V30 5962 H 534.137 -5.59975 -2.1575 0
M  V30 5963 H 535.207 -4.73657 -1.03811 0
M  V30 5964 N 536.55 0.480323 -1.50102 0
M  V30 5965 C 537.497 1.57946 -1.6829 0
M  V30 5966 C 538.467 1.57611 -0.524223 0
M  V30 5967 O 539.652 1.75282 -0.753709 0
M  V30 5968 C 536.792 2.95978 -1.77457 0
M  V30 5969 C 535.905 3.06173 -3.04766 0
M  V30 5970 C 535.04 4.35063 -3.04784 0
M  V30 5971 C 534.079 4.38966 -4.26586 0
M  V30 5972 N 533.216 5.59314 -4.24396 0
M  V30 5973 H 538.056 1.41743 -2.62131 0
M  V30 5974 H 535.593 0.689304 -1.2995 0
M  V30 5975 H 537.551 3.76011 -1.80752 0
M  V30 5976 H 536.181 3.10837 -0.870637 0
M  V30 5977 H 535.233 2.19071 -3.10986 0
M  V30 5978 H 536.545 3.04916 -3.9475 0
M  V30 5979 H 535.699 5.23436 -3.06757 0
M  V30 5980 H 534.438 4.38915 -2.12614 0
M  V30 5981 H 533.443 3.48992 -4.24835 0
M  V30 5982 H 534.668 4.36813 -5.19972 0
M  V30 5983 H 532.614 5.63969 -3.35074 0
M  V30 5984 H 532.531 5.5976 -5.08138 0
M  V30 5985 H 533.799 6.49837 -4.30502 0
M  V30 5986 N 538.028 1.39524 0.732853 0
M  V30 5987 C 538.96 1.34318 1.85718 0
M  V30 5988 C 539.973 0.251576 1.60844 0
M  V30 5989 O 541.162 0.510685 1.71039 0
M  V30 5990 C 538.262 1.06334 3.21786 0
M  V30 5991 C 537.435 2.26813 3.73998 0
M  V30 5992 C 536.494 1.95253 4.88634 0
M  V30 5993 O 535.52 2.67957 5.02183 0
M  V30 5994 N 536.722 0.919984 5.73164 0
M  V30 5995 H 539.487 2.3121 1.90688 0
M  V30 5996 H 537.048 1.33654 0.91368 0
M  V30 5997 H 539.04 0.832363 3.96048 0
M  V30 5998 H 537.61 0.181682 3.12072 0
M  V30 5999 H 536.83 2.65849 2.91064 0
M  V30 6000 H 538.118 3.0717 4.05616 0
M  V30 6001 H 537.516 0.317487 5.64808 0
M  V30 6002 H 536.073 0.748905 6.47483 0
M  V30 6003 N 539.506 -0.963266 1.24736 0
M  V30 6004 C 540.731 -1.74699 1.11781 0
M  V30 6005 C 541.156 -1.85267 -0.325258 0
M  V30 6006 O 540.514 -1.32681 -1.23553 0
M  V30 6007 C 540.562 -3.14322 1.76731 0
M  V30 6008 O 539.666 -3.99043 1.04109 0
M  V30 6009 H 539.007 -0.53684 0.390767 0
M  V30 6010 H 541.537 -1.20801 1.65131 0
M  V30 6011 H 541.547 -3.64824 1.82668 0
M  V30 6012 H 540.222 -3.05946 2.81726 0
M  V30 6013 H 538.799 -3.5752 1.05991 0
M  V30 6014 N 540.985 -1.06182 -1.16461 0
M  V30 6015 C 542.231 -0.779015 -1.87241 0
M  V30 6016 C 542.564 0.692715 -1.81425 0
M  V30 6017 O 541.839 1.5074 -1.22913 0
M  V30 6018 C 542.122 -1.2728 -3.36856 0
M  V30 6019 C 541.975 -2.80821 -3.51368 0
M  V30 6020 C 543.294 -0.879799 -4.31216 0
M  V30 6021 H 540.413 -0.284464 -0.679889 0
M  V30 6022 H 543.055 -1.31755 -1.36896 0
M  V30 6023 H 541.205 -0.814673 -3.79862 0
M  V30 6024 H 542.877 -3.34833 -3.17308 0
M  V30 6025 H 541.12 -3.19606 -2.93316 0
M  V30 6026 H 541.791 -3.10435 -4.56436 0
M  V30 6027 H 544.267 -1.27436 -3.96105 0
M  V30 6028 H 543.143 -1.25278 -5.34412 0
M  V30 6029 H 543.404 0.215372 -4.41575 0
M  V30 6030 N 542.463 1.3308 -0.844243 0
M  V30 6031 C 543.395 2.27954 -0.238671 0
M  V30 6032 C 544.408 1.51978 0.583665 0
M  V30 6033 O 545.597 1.73731 0.409857 0
M  V30 6034 C 542.697 3.31963 0.682185 0
M  V30 6035 C 541.87 4.37281 -0.101998 0
M  V30 6036 C 540.929 5.20928 0.743022 0
M  V30 6037 O 539.955 5.68914 0.180285 0
M  V30 6038 N 541.157 5.42738 2.0595 0
M  V30 6039 H 543.922 2.8056 -1.05386 0
M  V30 6040 H 541.483 1.4583 -0.70322 0
M  V30 6041 H 543.475 3.84828 1.25259 0
M  V30 6042 H 542.045 2.79594 1.39808 0
M  V30 6043 H 541.265 3.84843 -0.853802 0
M  V30 6044 H 542.553 5.04746 -0.641015 0
M  V30 6045 H 541.951 5.05463 2.54016 0
M  V30 6046 H 540.508 5.98639 2.57827 0
M  V30 6047 N 543.941 0.601185 1.45683 0
M  V30 6048 C 544.873 -0.159446 2.28645 0
M  V30 6049 C 545.886 -0.837882 1.39583 0
M  V30 6050 O 547.075 -0.704344 1.64016 0
M  V30 6051 C 544.175 -1.24641 3.15147 0
M  V30 6052 C 543.348 -0.656334 4.32448 0
M  V30 6053 C 542.407 -1.63337 5.00208 0
M  V30 6054 O 541.433 -1.16217 5.57209 0
M  V30 6055 N 542.635 -2.96773 4.98905 0
M  V30 6056 H 545.4 0.5524 2.94565 0
M  V30 6057 H 542.961 0.440223 1.558 0
M  V30 6058 H 544.953 -1.8997 3.57342 0
M  V30 6059 H 543.523 -1.86087 2.51178 0
M  V30 6060 H 542.743 0.174879 3.93812 0
M  V30 6061 H 544.031 -0.242211 5.08223 0
M  V30 6062 H 543.429 -3.37662 4.53873 0
M  V30 6063 H 541.986 -3.57541 5.44984 0
M  V30 6064 N 545.419 -1.53889 0.339982 0
M  V30 6065 C 546.349 -2.27843 -0.510856 0
M  V30 6066 C 547.33 -1.29267 -1.10563 0
M  V30 6067 O 548.515 -1.58104 -1.12768 0
M  V30 6068 C 545.645 -3.04857 -1.66372 0
M  V30 6069 C 544.599 -4.10907 -1.19746 0
M  V30 6070 C 543.925 -4.75855 -2.43857 0
M  V30 6071 C 545.225 -5.21435 -0.300501 0
M  V30 6072 H 546.919 -2.99212 0.106067 0
M  V30 6073 H 544.465 -1.43904 0.0524533 0
M  V30 6074 H 546.418 -3.5533 -2.26537 0
M  V30 6075 H 545.142 -2.31133 -2.30749 0
M  V30 6076 H 543.801 -3.61342 -0.618654 0
M  V30 6077 H 543.449 -3.9873 -3.06633 0
M  V30 6078 H 543.149 -5.47502 -2.13343 0
M  V30 6079 H 544.673 -5.2911 -3.04754 0
M  V30 6080 H 546.087 -5.67565 -0.80889 0
M  V30 6081 H 544.484 -6.00036 -0.0874076 0
M  V30 6082 H 545.554 -4.80328 0.664321 0
M  V30 6083 N 546.897 -0.0685191 -1.57451 0
M  V30 6084 C 548.313 0.288101 -1.56978 0
M  V30 6085 C 548.513 1.70262 -1.07765 0
M  V30 6086 O 547.569 2.4135 -0.742054 0
M  V30 6087 C 548.882 0.100745 -3.00531 0
M  V30 6088 C 550.43 0.170531 -3.12535 0
M  V30 6089 C 550.905 0.0114944 -4.57999 0
M  V30 6090 N 552.396 0.0672065 -4.63151 0
M  V30 6091 C 553.131 -0.0314813 -5.73391 0
M  V30 6092 N 552.627 -0.183503 -6.92557 0
M  V30 6093 N 554.42 0.0253489 -5.62094 0
M  V30 6094 H 546.571 -0.993026 -1.87757 0
M  V30 6095 H 548.834 -0.386981 -0.865419 0
M  V30 6096 H 548.54 -0.875197 -3.40636 0
M  V30 6097 H 548.414 0.854457 -3.67395 0
M  V30 6098 H 550.801 1.13696 -2.72318 0
M  V30 6099 H 550.882 -0.614229 -2.48316 0
M  V30 6100 H 550.526 -0.951684 -4.98904 0
M  V30 6101 H 550.456 0.815617 -5.20245 0
M  V30 6102 H 552.947 0.183246 -3.77455 0
M  V30 6103 H 553.26 -0.251041 -7.72392 0
M  V30 6104 H 551.605 -0.218822 -6.94655 0
M  V30 6105 H 554.796 0.142794 -4.67882 0
M  V30 6106 H 554.969 -0.0550166 -6.47977 0
M  V30 6107 N 548.375 1.56261 0.205012 0
M  V30 6108 C 549.615 1.81823 0.933806 0
M  V30 6109 C 549.979 0.644534 1.80858 0
M  V30 6110 O 551.18 0.779819 2.5724 0
M  V30 6111 C 549.451 3.12362 1.7368 0
M  V30 6112 S 551.01 3.59296 2.51897 0
M  V30 6113 H 547.828 0.638209 0.313386 0
M  V30 6114 H 550.43 1.94495 0.198001 0
M  V30 6115 H 549.134 3.95809 1.08459 0
M  V30 6116 H 548.665 3.02542 2.5146 0
M  V30 6117 H 550.68 3.23945 3.75864 0
M  V30 6118 N 549.853 -0.472356 1.50355 0
M  V30 6119 C 551.081 -1.24784 1.65035 0
M  V30 6120 C 551.496 -1.85837 0.333176 0
M  V30 6121 O 550.853 -1.69168 -0.68472 0
M  V30 6122 C 550.904 -2.35747 2.74054 0
M  V30 6123 O 550.625 -1.77197 4.00665 0
M  V30 6124 C 552.126 -3.26645 2.99696 0
M  V30 6125 H 549.346 -0.377432 0.554785 0
M  V30 6126 H 551.89 -0.563962 1.9657 0
M  V30 6127 H 550.045 -2.99912 2.45217 0
M  V30 6128 H 550.459 -2.5026 4.60945 0
M  V30 6129 H 551.933 -4.00718 3.79644 0
M  V30 6130 H 552.41 -3.8535 2.10718 0
M  V30 6131 H 553.016 -2.68218 3.3006 0
M  V30 6132 N 551.331 -1.39911 -0.725443 0
M  V30 6133 C 552.241 -1.41688 -1.8698 0
M  V30 6134 C 553.257 -0.310579 -1.71206 0
M  V30 6135 O 554.433 -0.55359 -1.93642 0
M  V30 6136 C 551.498 -1.26811 -3.22676 0
M  V30 6137 C 550.559 -2.47497 -3.50776 0
M  V30 6138 C 549.792 -2.3332 -4.79997 0
M  V30 6139 O 550.015 -1.34175 -5.54394 0
M  V30 6140 O 548.949 -3.22498 -5.08211 0
M  V30 6141 H 552.775 -2.38171 -1.88436 0
M  V30 6142 H 550.36 -1.21128 -0.874548 0
M  V30 6143 H 552.242 -1.20684 -4.03749 0
M  V30 6144 H 550.917 -0.334289 -3.21969 0
M  V30 6145 H 549.824 -2.59201 -2.69751 0
M  V30 6146 H 551.157 -3.39606 -3.5627 0
M  V30 6147 N 552.809 0.956637 -1.25245 0
M  V30 6148 C 553.772 2.03457 -1.05537 0
M  V30 6149 C 554.772 1.60798 -0.00886317 0
M  V30 6150 O 555.962 1.72384 -0.250865 0
M  V30 6151 C 553.094 3.35543 -0.601965 0
M  V30 6152 H 554.287 2.22372 -2.01223 0
M  V30 6153 H 551.84 1.13344 -1.07623 0
M  V30 6154 H 552.575 3.22323 0.357584 0
M  V30 6155 H 552.36 3.67854 -1.35743 0
M  V30 6156 H 553.85 4.14769 -0.485454 0
M  V30 6157 N 554.287 1.06798 1.15896 0
M  V30 6158 C 555.234 0.683314 2.20453 0
M  V30 6159 C 556.204 -0.32255 1.62938 0
M  V30 6160 O 557.389 -0.210276 1.89638 0
M  V30 6161 C 554.529 0.0813266 3.45004 0
M  V30 6162 C 553.642 1.13799 4.16742 0
M  V30 6163 C 552.777 0.501598 5.28826 0
M  V30 6164 C 551.816 1.54144 5.92373 0
M  V30 6165 N 550.953 0.928038 6.9594 0
M  V30 6166 H 555.793 1.57932 2.52708 0
M  V30 6167 H 553.33 0.789544 1.24115 0
M  V30 6168 H 555.288 -0.285274 4.16224 0
M  V30 6169 H 553.918 -0.77806 3.13283 0
M  V30 6170 H 552.97 1.62223 3.44075 0
M  V30 6171 H 554.282 1.92664 4.60089 0
M  V30 6172 H 553.436 0.0823162 6.06644 0
M  V30 6173 H 552.175 -0.318883 4.86656 0
M  V30 6174 H 551.18 1.97056 5.13273 0
M  V30 6175 H 552.405 2.3641 6.36621 0
M  V30 6176 H 550.351 0.12836 6.55874 0
M  V30 6177 H 550.268 1.65401 7.37685 0
M  V30 6178 H 551.536 0.534071 7.77668 0
M  V30 6179 N 555.766 -1.3263 0.851289 0
M  V30 6180 C 557.013 -1.97368 0.453023 0
M  V30 6181 C 557.341 -1.67384 -0.990596 0
M  V30 6182 O 556.596 -0.952665 -1.70947 0
M  V30 6183 C 556.895 -3.51713 0.635015 0
M  V30 6184 C 556.561 -4.01676 2.04859 0
M  V30 6185 C 555.223 -4.15031 2.43522 0
M  V30 6186 C 557.575 -4.28206 2.97135 0
M  V30 6187 C 554.903 -4.52257 3.73739 0
M  V30 6188 C 557.255 -4.66889 4.26846 0
M  V30 6189 C 555.919 -4.7845 4.65448 0
M  V30 6190 H 555.189 -0.722219 0.165773 0
M  V30 6191 H 557.836 -1.58092 1.0807 0
M  V30 6192 H 556.141 -3.91726 -0.0759081 0
M  V30 6193 H 557.838 -3.99823 0.306964 0
M  V30 6194 H 554.428 -3.91764 1.73836 0
M  V30 6195 H 558.612 -4.174 2.68498 0
M  V30 6196 H 553.868 -4.59402 4.03435 0
M  V30 6197 H 558.042 -4.86372 4.98413 0
M  V30 6198 H 555.669 -5.07052 5.66395 0
M  V30 6199 N 557.244 -0.608902 -1.45362 0
M  V30 6200 C 558.469 -0.10921 -2.07112 0
M  V30 6201 C 558.894 1.19779 -1.45033 0
M  V30 6202 O 558.252 1.72961 -0.543527 0
M  V30 6203 C 558.3 0.0155745 -3.60597 0
M  V30 6204 O 557.404 1.06546 -3.98399 0
M  V30 6205 H 556.745 -0.0746619 -0.659789 0
M  V30 6206 H 559.275 -0.839283 -1.86594 0
M  V30 6207 H 559.285 0.213364 -4.07442 0
M  V30 6208 H 557.96 -0.938765 -4.05167 0
M  V30 6209 H 556.537 0.844024 -3.63223 0
M  V30 6210 N 558.722 1.53707 -0.348139 0
M  V30 6211 C 559.685 2.23812 0.494058 0
M  V30 6212 C 560.685 1.23989 1.02388 0
M  V30 6213 O 561.875 1.48395 0.912396 0
M  V30 6214 C 559.007 2.96133 1.68872 0
M  V30 6215 H 560.2 2.99663 -0.119141 0
M  V30 6216 H 557.753 1.55983 -0.0995539 0
M  V30 6217 H 558.488 2.24481 2.34049 0
M  V30 6218 H 558.273 3.69357 1.31596 0
M  V30 6219 H 559.763 3.49475 2.28597 0
M  V30 6220 N 560.2 0.0768682 1.57412 0
M  V30 6221 C 561.132 -0.918248 2.10002 0
M  V30 6222 C 562.145 -1.25808 1.03325 0
M  V30 6223 O 563.334 -1.21438 1.30824 0
M  V30 6224 C 560.434 -2.23263 2.54964 0
M  V30 6225 C 559.607 -2.07088 3.8527 0
M  V30 6226 C 558.666 -3.21876 4.16272 0
M  V30 6227 O 557.692 -2.96643 4.8579 0
M  V30 6228 N 558.894 -4.4712 3.70221 0
M  V30 6229 H 561.659 -0.469209 2.96004 0
M  V30 6230 H 559.22 -0.108725 1.61535 0
M  V30 6231 H 561.212 -2.9897 2.72762 0
M  V30 6232 H 559.782 -2.59649 1.74072 0
M  V30 6233 H 559.002 -1.15818 3.76802 0
M  V30 6234 H 560.29 -1.93537 4.70554 0
M  V30 6235 H 559.688 -4.70506 3.1407 0
M  V30 6236 H 558.245 -5.19837 3.93209 0
M  V30 6237 N 561.678 -1.56367 -0.196722 0
M  V30 6238 C 562.625 -1.94417 -1.24382 0
M  V30 6239 C 563.595 -0.804543 -1.45315 0
M  V30 6240 O 564.78 -1.06256 -1.58475 0
M  V30 6241 C 561.92 -2.28757 -2.58388 0
M  V30 6242 C 561.033 -3.55775 -2.45047 0
M  V30 6243 C 560.168 -3.79445 -3.71746 0
M  V30 6244 C 559.207 -4.99894 -3.53231 0
M  V30 6245 N 558.344 -5.19826 -4.71938 0
M  V30 6246 H 563.184 -2.83691 -0.912338 0
M  V30 6247 H 560.721 -1.40392 -0.439135 0
M  V30 6248 H 562.679 -2.46682 -3.36457 0
M  V30 6249 H 561.309 -1.42625 -2.89582 0
M  V30 6250 H 560.361 -3.45905 -1.58284 0
M  V30 6251 H 561.673 -4.44 -2.27299 0
M  V30 6252 H 560.827 -3.97601 -4.58256 0
M  V30 6253 H 559.566 -2.89546 -3.92446 0
M  V30 6254 H 558.571 -4.81662 -2.65107 0
M  V30 6255 H 559.796 -5.913 -3.33978 0
M  V30 6256 H 557.742 -4.32875 -4.92905 0
M  V30 6257 H 557.659 -6.02228 -4.57009 0
M  V30 6258 H 558.927 -5.42439 -5.59803 0
M  V30 6259 N 563.156 0.464375 -1.50603 0
M  V30 6260 C 564.066 1.58723 -1.72754 0
M  V30 6261 C 565.082 1.62925 -0.610844 0
M  V30 6262 O 566.258 1.8067 -0.889963 0
M  V30 6263 C 563.323 2.94897 -1.82309 0
M  V30 6264 C 562.384 3.0103 -3.06071 0
M  V30 6265 C 561.617 4.30708 -3.1516 0
M  V30 6266 O 561.84 5.2159 -2.30868 0
M  V30 6267 O 560.774 4.42571 -4.0794 0
M  V30 6268 H 564.6 1.42954 -2.67951 0
M  V30 6269 H 562.185 0.644579 -1.3478 0
M  V30 6270 H 564.067 3.75764 -1.90735 0
M  V30 6271 H 562.742 3.10851 -0.902967 0
M  V30 6272 H 561.649 2.19217 -3.03142 0
M  V30 6273 H 562.982 2.90014 -3.97684 0
M  V30 6274 N 564.634 1.40294 0.718013 0
M  V30 6275 C 565.564 1.43118 1.84498 0
M  V30 6276 C 566.545 0.292403 1.67568 0
M  V30 6277 O 567.73 0.500675 1.87635 0
M  V30 6278 C 564.86 1.29065 3.22427 0
M  V30 6279 C 563.814 2.40521 3.54025 0
M  V30 6280 C 563.14 2.11546 4.91073 0
M  V30 6281 C 564.44 3.82859 3.55269 0
M  V30 6282 H 566.134 2.37432 1.82391 0
M  V30 6283 H 563.68 1.14283 0.87609 0
M  V30 6284 H 565.633 1.29658 4.00957 0
M  V30 6285 H 564.357 0.312271 3.25104 0
M  V30 6286 H 563.016 2.39173 2.77834 0
M  V30 6287 H 562.664 1.12104 4.90348 0
M  V30 6288 H 562.364 2.86216 5.1318 0
M  V30 6289 H 563.888 2.13817 5.71939 0
M  V30 6290 H 565.302 3.86044 4.23843 0
M  V30 6291 H 563.699 4.57029 3.88902 0
M  V30 6292 H 564.769 4.12617 2.54706 0
M  V30 6293 N 566.112 -0.949982 1.2575 0
M  V30 6294 C 567.042 -2.06483 1.09028 0
M  V30 6295 C 568.023 -1.701 -0.00201532 0
M  V30 6296 O 569.208 -1.93469 0.168383 0
M  V30 6297 C 566.338 -3.39899 0.71316 0
M  V30 6298 C 565.292 -3.90309 1.75621 0
M  V30 6299 C 564.618 -5.20274 1.23365 0
M  V30 6300 C 565.918 -4.16169 3.15596 0
M  V30 6301 H 567.612 -2.20731 2.02283 0
M  V30 6302 H 565.158 -1.06066 0.973964 0
M  V30 6303 H 567.111 -4.17346 0.58309 0
M  V30 6304 H 565.835 -3.25602 -0.255091 0
M  V30 6305 H 564.494 -3.15035 1.8748 0
M  V30 6306 H 564.142 -5.02351 0.255491 0
M  V30 6307 H 563.842 -5.54971 1.93082 0
M  V30 6308 H 565.366 -6.00314 1.11607 0
M  V30 6309 H 566.78 -4.84259 3.06864 0
M  V30 6310 H 565.177 -4.62131 3.82825 0
M  V30 6311 H 566.247 -3.22273 3.6231 0
M  V30 6312 N 567.59 -1.07411 -1.15328 0
M  V30 6313 C 568.5 -0.706438 -2.23711 0
M  V30 6314 C 569.516 0.282586 -1.7169 0
M  V30 6315 O 570.692 0.129066 -2.00986 0
M  V30 6316 C 567.757 -0.11048 -3.46524 0
M  V30 6317 C 566.818 -1.15282 -4.13532 0
M  V30 6318 C 566.051 -0.585205 -5.30482 0
M  V30 6319 O 566.274 0.598549 -5.67251 0
M  V30 6320 O 565.208 -1.33039 -5.87013 0
M  V30 6321 H 569.034 -1.61031 -2.57493 0
M  V30 6322 H 566.619 -0.847113 -1.23062 0
M  V30 6323 H 568.501 0.21957 -4.20828 0
M  V30 6324 H 567.176 0.766703 -3.14489 0
M  V30 6325 H 566.083 -1.53523 -3.41147 0
M  V30 6326 H 567.416 -2.00192 -4.49649 0
M  V30 6327 N 569.068 1.32177 -0.85831 0
M  V30 6328 C 570 2.27688 -0.262835 0
M  V30 6329 C 571.013 1.52588 0.567513 0
M  V30 6330 O 572.202 1.74156 0.391407 0
M  V30 6331 C 569.302 3.32668 0.646937 0
M  V30 6332 C 568.475 4.37148 -0.148372 0
M  V30 6333 C 567.534 5.21686 0.687728 0
M  V30 6334 O 566.56 5.69074 0.119934 0
M  V30 6335 N 567.762 5.44892 2.00182 0
M  V30 6336 H 570.527 2.79426 -1.08356 0
M  V30 6337 H 568.088 1.45076 -0.718647 0
M  V30 6338 H 570.08 3.86134 1.2117 0
M  V30 6339 H 568.65 2.81061 1.36834 0
M  V30 6340 H 567.87 3.83915 -0.894572 0
M  V30 6341 H 569.158 5.04038 -0.694514 0
M  V30 6342 H 568.556 5.08128 2.4864 0
M  V30 6343 H 567.113 6.0134 2.51463 0
M  V30 6344 N 570.547 0.616602 1.45037 0
M  V30 6345 C 571.494 -0.0969439 2.30596 0
M  V30 6346 C 572.464 -0.851151 1.42635 0
M  V30 6347 O 573.649 -0.835092 1.71554 0
M  V30 6348 C 570.789 -1.08234 3.27688 0
M  V30 6349 C 569.902 -0.328072 4.30752 0
M  V30 6350 C 569.037 -1.30399 5.14946 0
M  V30 6351 C 568.076 -0.538049 6.09731 0
M  V30 6352 N 567.213 -1.46371 6.86673 0
M  V30 6353 H 572.053 0.63864 2.91076 0
M  V30 6354 H 569.59 0.326733 1.43425 0
M  V30 6355 H 571.548 -1.66688 3.82454 0
M  V30 6356 H 570.178 -1.78523 2.68941 0
M  V30 6357 H 569.23 0.372136 3.78575 0
M  V30 6358 H 570.542 0.269142 4.98073 0
M  V30 6359 H 569.696 -1.96032 5.74157 0
M  V30 6360 H 568.435 -1.93514 4.47665 0
M  V30 6361 H 567.44 0.131852 5.49642 0
M  V30 6362 H 568.665 0.0881732 6.79043 0
M  V30 6363 H 566.611 -2.08233 6.22073 0
M  V30 6364 H 566.528 -0.920152 7.50379 0
M  V30 6365 H 567.796 -2.10932 7.50418 0
M  V30 6366 N 572.025 -1.5352 0.356285 0
M  V30 6367 C 573.271 -2.01414 -0.236653 0
M  V30 6368 C 573.604 -1.24339 -1.49176 0
M  V30 6369 O 572.879 -0.334496 -1.91602 0
M  V30 6370 C 573.162 -3.56059 -0.537982 0
M  V30 6371 C 573.015 -4.43835 0.730112 0
M  V30 6372 C 574.334 -4.19127 -1.34239 0
M  V30 6373 H 571.453 -0.732135 -0.0845386 0
M  V30 6374 H 574.095 -1.83854 0.479341 0
M  V30 6375 H 572.245 -3.71153 -1.14795 0
M  V30 6376 H 573.917 -4.40555 1.36782 0
M  V30 6377 H 572.16 -4.1218 1.3524 0
M  V30 6378 H 572.831 -5.49958 0.474358 0
M  V30 6379 H 575.307 -4.07809 -0.826498 0
M  V30 6380 H 574.183 -5.27378 -1.52198 0
M  V30 6381 H 574.444 -3.74581 -2.34822 0
M  V30 6382 N 573.503 -0.0852151 -1.57369 0
M  V30 6383 C 574.435 0.907099 -2.10486 0
M  V30 6384 C 575.448 1.25259 -1.03991 0
M  V30 6385 O 576.637 1.20743 -1.31467 0
M  V30 6386 C 573.737 2.21908 -2.56145 0
M  V30 6387 C 572.91 2.05042 -3.86363 0
M  V30 6388 C 571.969 3.19664 -4.17973 0
M  V30 6389 O 570.995 2.94062 -4.87356 0
M  V30 6390 N 572.197 4.45151 -3.72587 0
M  V30 6391 H 574.962 0.453505 -2.96249 0
M  V30 6392 H 572.523 0.100157 -1.6159 0
M  V30 6393 H 574.515 2.97519 -2.74343 0
M  V30 6394 H 573.085 2.58723 -1.75446 0
M  V30 6395 H 572.305 1.13819 -3.77411 0
M  V30 6396 H 573.593 1.91039 -4.71574 0
M  V30 6397 H 572.991 4.68834 -3.16561 0
M  V30 6398 H 571.548 5.17744 -3.9596 0
M  V30 6399 N 574.981 1.5647 0.188427 0
M  V30 6400 C 575.891 1.98285 1.2538 0
M  V30 6401 C 576.907 0.891535 1.49424 0
M  V30 6402 O 578.083 1.19782 1.61908 0
M  V30 6403 C 575.148 2.31965 2.57669 0
M  V30 6404 C 574.209 3.54838 2.41638 0
M  V30 6405 C 573.442 3.86901 3.67618 0
M  V30 6406 O 573.665 3.20163 4.72072 0
M  V30 6407 O 572.599 4.80309 3.62749 0
M  V30 6408 H 576.425 2.89145 0.928912 0
M  V30 6409 H 574.01 1.44112 0.393955 0
M  V30 6410 H 575.892 2.54673 3.35737 0
M  V30 6411 H 574.567 1.44271 2.89771 0
M  V30 6412 H 573.474 3.37369 1.61658 0
M  V30 6413 H 574.807 4.43019 2.14465 0
M  V30 6414 N 576.459 -0.456382 1.50847 0
M  V30 6415 C 577.407 -1.57318 1.71329 0
M  V30 6416 C 578.401 -1.59187 0.579287 0
M  V30 6417 O 579.607 -1.6316 0.76018 0
M  V30 6418 H 575.982 -0.5223 0.541024 0
M  V30 6419 H 577.953 -1.3721 2.64983 0
M  V30 6420 C 576.702 -2.95142 1.83811 0
M  V30 6421 H 576.025 -2.94428 2.70467 0
M  V30 6422 H 577.465 -3.72702 2.02161 0
M  V30 6423 C 575.924 -3.31636 0.593224 0
M  V30 6424 O 576.454 -4.00852 -0.260898 0
M  V30 6425 N 574.66 -2.87205 0.442902 0
M  V30 6426 H 574.207 -2.31051 1.13901 0
M  V30 6427 H 574.165 -3.11986 -0.38884 0
M  V30 6428 N 577.937 -1.40673 -0.710563 0
M  V30 6429 C 579.214 -1.29718 -1.46398 0
M  V30 6430 C 579.594 0.082177 -2.1094 0
M  V30 6431 O 578.942 1.09536 -2.00534 0
M  V30 6432 C 579.152 -2.43967 -2.49562 0
M  V30 6433 C 580.5 -2.84436 -3.15248 0
M  V30 6434 O 581.524 -2.43597 -2.59883 0
M  V30 6435 O 580.383 -3.55008 -4.1549 0
M  V30 6436 H 577.477 -0.509697 -0.651258 0
M  V30 6437 H 580.023 -1.52603 -0.742312 0
M  V30 6438 H 578.795 -3.36076 -2.0042 0
M  V30 6439 H 578.418 -2.22879 -3.29258 0
M  V30 6440 N 579.415 0.9433 -1.26252 0
M  V30 6441 C 580.663 1.68592 -1.11451 0
M  V30 6442 C 580.984 1.91957 0.343123 0
M  V30 6443 O 580.254 1.51475 1.24226 0
M  V30 6444 H 578.834 0.624789 -0.409448 0
M  V30 6445 H 581.496 1.13351 -1.58548 0
M  V30 6446 H 580.592 2.66054 -1.63162 0
M  V30 6447 N 580.893 1.08022 1.14757 0
M  V30 6448 C 581.84 0.706657 2.19716 0
M  V30 6449 C 582.81 -0.30525 1.63271 0
M  V30 6450 O 583.995 -0.19015 1.8985 0
M  V30 6451 C 581.135 0.117914 3.44898 0
M  V30 6452 C 580.248 1.18212 4.15512 0
M  V30 6453 C 579.383 0.557659 5.28265 0
M  V30 6454 C 578.422 1.60418 5.90705 0
M  V30 6455 N 577.559 1.0018 6.94916 0
M  V30 6456 H 582.399 1.60603 2.51019 0
M  V30 6457 H 579.936 0.802664 1.23271 0
M  V30 6458 H 581.894 -0.241112 4.16503 0
M  V30 6459 H 580.524 -0.744788 3.1409 0
M  V30 6460 H 579.576 1.65863 3.42335 0
M  V30 6461 H 580.888 1.97533 4.5802 0
M  V30 6462 H 580.042 0.146654 6.06523 0
M  V30 6463 H 578.781 -0.267249 4.86967 0
M  V30 6464 H 577.786 2.02489 5.11154 0
M  V30 6465 H 579.011 2.43149 6.34078 0
M  V30 6466 H 576.957 0.197917 6.55701 0
M  V30 6467 H 576.874 1.73216 7.35889 0
M  V30 6468 H 578.142 0.616523 7.77058 0
M  V30 6469 N 582.371 -1.3172 0.865308 0
M  V30 6470 C 583.281 -2.32394 0.320935 0
M  V30 6471 C 584.297 -1.64511 -0.566746 0
M  V30 6472 O 585.473 -1.95969 -0.464575 0
M  V30 6473 C 582.538 -3.43462 -0.472701 0
M  V30 6474 C 581.599 -4.27015 0.442385 0
M  V30 6475 C 580.832 -5.32779 -0.313469 0
M  V30 6476 O 581.055 -5.49158 -1.54214 0
M  V30 6477 O 579.989 -6.01015 0.326257 0
M  V30 6478 H 583.815 -2.80868 1.15528 0
M  V30 6479 H 581.4 -1.35535 0.628545 0
M  V30 6480 H 583.282 -4.11172 -0.922781 0
M  V30 6481 H 581.957 -2.97159 -1.28367 0
M  V30 6482 H 580.864 -3.62075 0.940866 0
M  V30 6483 H 582.197 -4.76871 1.21882 0
M  V30 6484 N 583.85 -0.624285 -1.44708 0
M  V30 6485 C 585.26 -0.2092 -1.85524 0
M  V30 6486 C 585.611 1.23783 -1.52225 0
M  V30 6487 O 584.736 1.94089 -0.956986 0
M  V30 6488 C 585.332 -0.372897 -3.36742 0
M  V30 6489 C 583.891 -0.012374 -3.76398 0
M  V30 6490 C 583.038 -0.68951 -2.68591 0
M  V30 6491 H 585.989 -0.829894 -1.35272 0
M  V30 6492 H 586.01 0.390134 -3.78495 0
M  V30 6493 H 585.522 -1.42615 -3.60947 0
M  V30 6494 H 583.623 1.03941 -3.57809 0
M  V30 6495 H 583.736 -0.417663 -4.77276 0
M  V30 6496 H 582.1 -0.125484 -2.54391 0
M  V30 6497 H 582.883 -1.74522 -2.9563 0
M  V30 6498 N 585.328 1.53329 -0.364422 0
M  V30 6499 C 586.739 1.86345 0.115039 0
M  V30 6500 C 587.09 1.28505 1.4826 0
M  V30 6501 O 586.215 0.606639 2.07723 0
M  V30 6502 C 586.81 3.38114 0.215522 0
M  V30 6503 C 585.369 3.70932 0.639237 0
M  V30 6504 C 584.516 2.76471 -0.214261 0
M  V30 6505 H 587.467 1.47593 -0.583258 0
M  V30 6506 H 587.488 3.66031 1.0393 0
M  V30 6507 H 587 3.80182 -0.779948 0
M  V30 6508 H 585.101 3.3442 1.64298 0
M  V30 6509 H 585.214 4.77302 0.41465 0
M  V30 6510 H 583.578 2.52724 0.316678 0
M  V30 6511 H 584.361 3.21373 -1.20725 0
M  V30 6512 N 586.806 0.0935595 1.57322 0
M  V30 6513 C 588.217 -0.435807 1.81542 0
M  V30 6514 C 588.568 -1.68263 1.00907 0
M  V30 6515 O 587.693 -2.15087 0.237983 0
M  V30 6516 C 588.288 -0.797436 3.29282 0
M  V30 6517 C 586.847 -1.27155 3.54272 0
M  V30 6518 C 585.994 -0.267455 2.76007 0
M  V30 6519 H 588.945 0.31902 1.5546 0
M  V30 6520 H 588.966 -1.6571 3.42521 0
M  V30 6521 H 588.478 0.110206 3.87943 0
M  V30 6522 H 586.579 -2.19696 3.00939 0
M  V30 6523 H 586.692 -1.23445 4.62923 0
M  V30 6524 H 585.056 -0.749282 2.43429 0
M  V30 6525 H 585.839 0.632839 3.37417 0
M  V30 6526 N 588.284 -1.56567 -0.180126 0
M  V30 6527 C 589.53 -1.81761 -0.899497 0
M  V30 6528 C 589.863 -0.670015 -1.82276 0
M  V30 6529 O 589.138 0.328575 -1.91705 0
M  V30 6530 C 589.421 -3.17296 -1.7028 0
M  V30 6531 C 589.274 -4.4257 -0.803255 0
M  V30 6532 C 590.593 -3.49678 -2.67233 0
M  V30 6533 H 587.712 -0.661192 -0.325567 0
M  V30 6534 H 590.354 -1.89272 -0.16612 0
M  V30 6535 H 588.504 -3.11023 -2.32802 0
M  V30 6536 H 590.176 -4.60902 -0.191585 0
M  V30 6537 H 588.419 -4.33658 -0.110796 0
M  V30 6538 H 589.09 -5.33935 -1.40064 0
M  V30 6539 H 591.566 -3.56347 -2.14839 0
M  V30 6540 H 590.442 -4.45605 -3.20511 0
M  V30 6541 H 590.703 -2.73932 -3.47007 0
M  V30 6542 N 589.762 0.448376 -1.51087 0
M  V30 6543 C 591.008 1.20049 -1.6345 0
M  V30 6544 C 591.341 1.91121 -0.344444 0
M  V30 6545 O 590.616 1.83125 0.655396 0
M  V30 6546 C 590.899 2.22624 -2.83038 0
M  V30 6547 C 590.752 1.55708 -4.21989 0
M  V30 6548 C 592.071 3.23718 -2.98152 0
M  V30 6549 H 589.19 0.435085 -0.59487 0
M  V30 6550 H 591.832 0.491183 -1.83541 0
M  V30 6551 H 589.982 2.83117 -2.66039 0
M  V30 6552 H 591.654 0.986367 -4.50631 0
M  V30 6553 H 589.897 0.859647 -4.25197 0
M  V30 6554 H 590.568 2.30357 -5.01637 0
M  V30 6555 H 593.044 2.73269 -3.13788 0
M  V30 6556 H 591.92 3.92795 -3.83411 0
M  V30 6557 H 592.181 3.89179 -2.09743 0
M  V30 6558 N 591.24 1.41047 0.703093 0
M  V30 6559 C 592.188 1.42494 1.83843 0
M  V30 6560 C 593.182 0.303885 1.66652 0
M  V30 6561 O 594.388 0.475544 1.73605 0
M  V30 6562 H 590.763 0.445685 0.605697 0
M  V30 6563 H 592.734 2.38194 1.79739 0
M  V30 6564 C 591.483 1.31666 3.21807 0
M  V30 6565 H 590.806 2.17212 3.35647 0
M  V30 6566 H 592.246 1.36738 4.01346 0
M  V30 6567 C 590.705 0.0281828 3.36888 0
M  V30 6568 O 591.235 -0.929995 3.90786 0
M  V30 6569 N 589.441 -0.0454322 2.90564 0
M  V30 6570 H 588.988 0.735046 2.4689 0
M  V30 6571 H 588.946 -0.906968 3.01034 0
M  V30 6572 N 592.718 -0.936591 1.26751 0
M  V30 6573 C 593.948 -1.71509 1.15188 0
M  V30 6574 C 594.356 -1.86885 -0.295037 0
M  V30 6575 O 593.699 -1.37915 -1.21347 0
M  V30 6576 C 593.761 -3.13853 1.75318 0
M  V30 6577 C 593.425 -3.21845 3.24445 0
M  V30 6578 C 594.422 -3.04771 4.21201 0
M  V30 6579 C 592.107 -3.45088 3.64992 0
M  V30 6580 C 594.101 -3.10816 5.56482 0
M  V30 6581 C 591.788 -3.50767 5.00405 0
M  V30 6582 C 592.786 -3.33648 5.9596 0
M  V30 6583 O 592.474 -3.39045 7.28906 0
M  V30 6584 H 592.206 -0.543658 0.401761 0
M  V30 6585 H 594.76 -1.18234 1.67958 0
M  V30 6586 H 592.99 -3.6857 1.17016 0
M  V30 6587 H 594.679 -3.73634 1.58596 0
M  V30 6588 H 595.445 -2.86665 3.91214 0
M  V30 6589 H 591.324 -3.57467 2.91098 0
M  V30 6590 H 594.868 -2.97372 6.31043 0
M  V30 6591 H 590.765 -3.68396 5.30052 0
M  V30 6592 H 591.533 -3.55558 7.37238 0
M  V30 6593 N 594.196 -1.08629 -1.14182 0
M  V30 6594 C 595.106 -0.730126 -2.22949 0
M  V30 6595 C 596.122 0.26436 -1.7198 0
M  V30 6596 O 597.298 0.107742 -2.01112 0
M  V30 6597 C 594.363 -0.147227 -3.46387 0
M  V30 6598 C 593.424 -1.19662 -4.12286 0
M  V30 6599 C 592.657 -0.641437 -5.29831 0
M  V30 6600 O 592.88 0.538351 -5.67854 0
M  V30 6601 O 591.814 -1.39257 -5.85569 0
M  V30 6602 H 595.64 -1.63753 -2.55771 0
M  V30 6603 H 593.225 -0.860118 -1.22157 0
M  V30 6604 H 595.107 0.174923 -4.21037 0
M  V30 6605 H 593.782 0.733304 -3.15285 0
M  V30 6606 H 592.689 -1.57133 -3.395 0
M  V30 6607 H 594.022 -2.0495 -4.475 0
M  V30 6608 N 595.674 1.31259 -0.872281 0
M  V30 6609 C 596.584 2.32221 -0.333255 0
M  V30 6610 C 597.6 1.6481 0.558013 0
M  V30 6611 O 598.776 1.96212 0.454175 0
M  V30 6612 C 595.841 3.43708 0.454479 0
M  V30 6613 C 594.902 4.26774 -0.465024 0
M  V30 6614 C 594.135 5.32937 0.28521 0
M  V30 6615 O 594.358 5.49968 1.513 0
M  V30 6616 O 593.292 6.00834 -0.358126 0
M  V30 6617 H 597.118 2.80252 -1.17016 0
M  V30 6618 H 594.703 1.352 -0.635724 0
M  V30 6619 H 596.585 4.11656 0.900963 0
M  V30 6620 H 595.26 2.97836 1.26789 0
M  V30 6621 H 594.167 3.61571 -0.960055 0
M  V30 6622 H 595.5 4.76217 -1.2441 0
M  V30 6623 N 597.152 0.631951 1.44375 0
M  V30 6624 C 598.429 0.067646 1.95483 0
M  V30 6625 C 598.809 -1.40683 1.57389 0
M  V30 6626 O 598.157 -2.12167 0.848375 0
M  V30 6627 C 598.367 0.291392 3.47781 0
M  V30 6628 C 599.715 0.185028 4.24197 0
M  V30 6629 O 600.739 0.222803 3.55503 0
M  V30 6630 O 599.598 0.0906642 5.46425 0
M  V30 6631 H 596.692 -0.0218379 0.826712 0
M  V30 6632 H 599.238 0.703711 1.54421 0
M  V30 6633 H 598.01 1.31449 3.68561 0
M  V30 6634 H 597.633 -0.378772 3.95792 0
M  V30 6635 N 598.631 -1.53133 0.372548 0
M  V30 6636 C 599.594 -2.24569 -0.458389 0
M  V30 6637 C 600.594 -1.25603 -1.00402 0
M  V30 6638 O 601.784 -1.49827 -0.888672 0
M  V30 6639 C 598.916 -2.98783 -1.6414 0
M  V30 6640 H 600.109 -2.99436 0.166799 0
M  V30 6641 H 597.662 -1.55805 0.124357 0
M  V30 6642 H 598.397 -2.28176 -2.30448 0
M  V30 6643 H 598.182 -3.71404 -1.25704 0
M  V30 6644 H 599.672 -3.53068 -2.23008 0
M  V30 6645 N 600.109 -0.101901 -1.5727 0
M  V30 6646 C 601.525 0.254739 -1.57554 0
M  V30 6647 C 601.725 1.67937 -1.11352 0
M  V30 6648 O 600.781 2.39722 -0.793081 0
M  V30 6649 C 602.094 0.036975 -3.00677 0
M  V30 6650 C 603.642 0.104199 -3.12827 0
M  V30 6651 C 604.117 -0.0856565 -4.5792 0
M  V30 6652 N 605.608 -0.0310498 -4.6319 0
M  V30 6653 C 606.343 -0.153099 -5.73196 0
M  V30 6654 N 605.839 -0.330364 -6.92012 0
M  V30 6655 N 607.632 -0.0938854 -5.62022 0
M  V30 6656 H 599.783 -1.03263 -1.85609 0
M  V30 6657 H 602.046 -0.405251 -0.857016 0
M  V30 6658 H 601.752 -0.947254 -3.38703 0
M  V30 6659 H 601.626 0.776335 -3.69124 0
M  V30 6660 H 604.013 1.07894 -2.74669 0
M  V30 6661 H 604.094 -0.666762 -2.46957 0
M  V30 6662 H 603.738 -1.05729 -4.96773 0
M  V30 6663 H 603.668 0.705082 -5.21858 0
M  V30 6664 H 606.159 0.103141 -3.77759 0
M  V30 6665 H 606.472 -0.41482 -7.71686 0
M  V30 6666 H 604.817 -0.366119 -6.94035 0
M  V30 6667 H 608.008 0.0435168 -4.6808 0
M  V30 6668 H 608.181 -0.19245 -6.47714 0
M  V30 6669 N 601.587 1.56661 0.17182 0
M  V30 6670 C 602.812 1.86459 0.908165 0
M  V30 6671 C 603.237 0.688181 1.75059 0
M  V30 6672 O 602.595 -0.362753 1.77634 0
M  V30 6673 C 602.643 3.14669 1.76112 0
M  V30 6674 O 601.747 2.96858 2.86268 0
M  V30 6675 H 601.088 0.613318 0.254434 0
M  V30 6676 H 603.618 2.03892 0.170113 0
M  V30 6677 H 603.628 3.46061 2.16115 0
M  V30 6678 H 602.303 3.99905 1.14233 0
M  V30 6679 H 600.88 2.76819 2.49852 0
M  V30 6680 N 603.065 -0.440357 1.51323 0
M  V30 6681 C 604.311 -1.19181 1.64085 0
M  V30 6682 C 604.644 -1.90936 0.354575 0
M  V30 6683 O 603.919 -1.8347 -0.645675 0
M  V30 6684 C 604.202 -2.2112 2.84215 0
M  V30 6685 C 604.055 -1.53468 4.22809 0
M  V30 6686 C 605.374 -3.22133 2.99864 0
M  V30 6687 H 602.493 -0.431924 0.597169 0
M  V30 6688 H 605.135 -0.481443 1.83799 0
M  V30 6689 H 603.285 -2.81703 2.67537 0
M  V30 6690 H 604.957 -0.962455 4.51148 0
M  V30 6691 H 603.2 -0.837086 4.25647 0
M  V30 6692 H 603.871 -2.27694 5.02852 0
M  V30 6693 H 606.347 -2.71601 3.15233 0
M  V30 6694 H 605.223 -3.90756 3.85488 0
M  V30 6695 H 605.484 -3.88061 2.11804 0
M  V30 6696 N 604.543 -1.41418 -0.695603 0
M  V30 6697 C 605.771 -1.4413 -1.48439 0
M  V30 6698 C 606.186 -0.0465698 -1.88743 0
M  V30 6699 O 605.543 0.934117 -1.56782 0
M  V30 6700 C 605.594 -2.34998 -2.74696 0
M  V30 6701 O 605.315 -3.69043 -2.36091 0
M  V30 6702 C 606.816 -2.46513 -3.68438 0
M  V30 6703 H 604.036 -0.490905 -0.457442 0
M  V30 6704 H 606.58 -1.85702 -0.856454 0
M  V30 6705 H 604.735 -1.96735 -3.33728 0
M  V30 6706 H 605.149 -4.17505 -3.17474 0
M  V30 6707 H 606.623 -3.1426 -4.53811 0
M  V30 6708 H 607.1 -1.49638 -4.12922 0
M  V30 6709 H 607.706 -2.85412 -3.1531 0
M  V30 6710 N 606.021 0.929856 -1.27246 0
M  V30 6711 C 607.246 1.71674 -1.16374 0
M  V30 6712 C 607.671 1.86064 0.276024 0
M  V30 6713 O 607.029 1.3591 1.19992 0
M  V30 6714 C 607.077 3.09526 -1.85003 0
M  V30 6715 O 606.181 3.96142 -1.14653 0
M  V30 6716 H 605.522 0.52629 -0.404863 0
M  V30 6717 H 608.052 1.16381 -1.68276 0
M  V30 6718 H 608.062 3.59852 -1.92276 0
M  V30 6719 H 606.737 2.98369 -2.89739 0
M  V30 6720 H 605.314 3.54584 -1.15433 0
M  V30 6721 N 607.499 1.09233 1.13605 0
M  V30 6722 C 608.432 0.6739 2.18023 0
M  V30 6723 C 609.41 -0.318603 1.59448 0
M  V30 6724 O 610.594 -0.220452 1.87206 0
M  V30 6725 C 607.721 -0.00751458 3.38699 0
M  V30 6726 C 606.767 0.946481 4.15865 0
M  V30 6727 S 607.6 2.45753 4.75779 0
M  V30 6728 C 608.756 1.78846 5.99804 0
M  V30 6729 H 608.989 1.55846 2.53178 0
M  V30 6730 H 606.522 0.908118 1.2487 0
M  V30 6731 H 608.48 -0.394368 4.08601 0
M  V30 6732 H 607.141 -0.868693 3.01849 0
M  V30 6733 H 606.334 0.416742 5.02274 0
M  V30 6734 H 605.936 1.27464 3.51609 0
M  V30 6735 H 608.228 1.11135 6.68323 0
M  V30 6736 H 609.171 2.63163 6.57382 0
M  V30 6737 H 609.579 1.25823 5.50299 0
M  V30 6738 N 608.977 -1.30795 0.87923 0
M  V30 6739 C 609.887 -2.32041 0.345565 0
M  V30 6740 C 610.903 -1.65103 -0.549265 0
M  V30 6741 O 612.079 -1.9645 -0.443763 0
M  V30 6742 C 609.144 -3.43944 -0.436245 0
M  V30 6743 C 608.205 -4.26521 0.48765 0
M  V30 6744 C 607.438 -5.33081 -0.256943 0
M  V30 6745 O 607.661 -5.50762 -1.48381 0
M  V30 6746 O 606.595 -6.00635 0.389985 0
M  V30 6747 H 610.421 -2.79627 1.18501 0
M  V30 6748 H 608.006 -1.3486 0.642885 0
M  V30 6749 H 609.888 -4.12128 -0.879119 0
M  V30 6750 H 608.563 -2.98504 -1.25208 0
M  V30 6751 H 607.47 -3.61057 0.979216 0
M  V30 6752 H 608.803 -4.75551 1.26933 0
M  V30 6753 N 610.455 -0.639598 -1.44038 0
M  V30 6754 C 611.871 -0.305953 -1.5664 0
M  V30 6755 C 612.071 1.19055 -1.62567 0
M  V30 6756 O 611.127 1.97492 -1.57331 0
M  V30 6757 C 612.44 -1.00533 -2.83397 0
M  V30 6758 C 613.988 -0.984278 -2.97121 0
M  V30 6759 C 614.463 -1.66428 -4.26691 0
M  V30 6760 N 615.954 -1.63127 -4.33525 0
M  V30 6761 C 616.689 -2.12629 -5.32519 0
M  V30 6762 N 616.185 -2.70359 -6.3787 0
M  V30 6763 N 617.978 -2.03208 -5.24083 0
M  V30 6764 H 610.129 -1.6109 -1.38434 0
M  V30 6765 H 612.392 -0.676672 -0.663942 0
M  V30 6766 H 612.098 -2.06034 -2.85032 0
M  V30 6767 H 611.972 -0.548362 -3.73193 0
M  V30 6768 H 614.359 0.0622792 -2.95034 0
M  V30 6769 H 614.44 -1.47981 -2.08651 0
M  V30 6770 H 614.084 -2.71034 -4.29538 0
M  V30 6771 H 614.014 -1.14351 -5.14034 0
M  V30 6772 H 616.505 -1.20987 -3.58009 0
M  V30 6773 H 616.818 -3.05842 -7.09704 0
M  V30 6774 H 615.163 -2.74414 -6.38531 0
M  V30 6775 H 618.354 -1.57823 -4.40692 0
M  V30 6776 H 618.527 -2.42097 -6.01077 0
M  V30 6777 N 611.933 1.52934 -0.380664 0
M  V30 6778 C 612.88 2.26197 0.458641 0
M  V30 6779 C 613.85 1.27462 1.06502 0
M  V30 6780 O 615.035 1.56274 1.09467 0
M  V30 6781 C 612.175 3.06571 1.58456 0
M  V30 6782 C 611.288 4.20222 1.00189 0
M  V30 6783 C 610.423 4.88007 2.09815 0
M  V30 6784 C 609.462 5.93665 1.49092 0
M  V30 6785 N 608.599 6.55081 2.52613 0
M  V30 6786 H 613.439 2.975 -0.172595 0
M  V30 6787 H 610.976 1.4678 -0.0969426 0
M  V30 6788 H 612.934 3.51455 2.24801 0
M  V30 6789 H 611.564 2.37494 2.18624 0
M  V30 6790 H 610.616 3.79714 0.228292 0
M  V30 6791 H 611.928 4.96102 0.518064 0
M  V30 6792 H 611.082 5.36151 2.83948 0
M  V30 6793 H 609.821 4.11632 2.61555 0
M  V30 6794 H 608.826 5.44868 0.7348 0
M  V30 6795 H 610.051 6.71969 0.981582 0
M  V30 6796 H 607.997 5.8155 3.03538 0
M  V30 6797 H 607.914 7.26548 2.08961 0
M  V30 6798 H 609.182 7.07871 3.26402 0
M  V30 6799 N 613.412 0.11024 1.57214 0
M  V30 6800 C 614.322 -0.857077 2.18383 0
M  V30 6801 C 615.338 -1.29915 1.1575 0
M  V30 6802 O 616.514 -1.36394 1.48184 0
M  V30 6803 C 613.579 -2.09264 2.76423 0
M  V30 6804 C 612.64 -1.70333 3.94063 0
M  V30 6805 C 611.873 -2.87999 4.49324 0
M  V30 6806 O 612.096 -4.0317 4.03497 0
M  V30 6807 O 611.03 -2.6559 5.40135 0
M  V30 6808 H 614.856 -0.366561 3.0148 0
M  V30 6809 H 612.441 -0.114914 1.48957 0
M  V30 6810 H 614.323 -2.81644 3.13456 0
M  V30 6811 H 612.998 -2.57339 1.96363 0
M  V30 6812 H 611.905 -0.950864 3.61814 0
M  V30 6813 H 613.238 -1.27007 4.75531 0
M  V30 6814 N 614.89 -1.56749 -0.16351 0
M  V30 6815 C 616.306 -1.51043 -0.515567 0
M  V30 6816 C 616.506 -0.815855 -1.84245 0
M  V30 6817 O 615.562 -0.379477 -2.49632 0
M  V30 6818 C 616.875 -2.95791 -0.541114 0
M  V30 6819 C 618.423 -3.0664 -0.627776 0
M  V30 6820 C 618.898 -4.52861 -0.684141 0
M  V30 6821 N 620.389 -4.5714 -0.746818 0
M  V30 6822 C 621.124 -5.67634 -0.811137 0
M  V30 6823 N 620.62 -6.8774 -0.835811 0
M  V30 6824 N 622.413 -5.55624 -0.850756 0
M  V30 6825 H 614.564 -2.00307 0.70645 0
M  V30 6826 H 616.827 -0.912876 0.255659 0
M  V30 6827 H 616.533 -3.49797 0.365329 0
M  V30 6828 H 616.407 -3.50858 -1.38487 0
M  V30 6829 H 618.794 -2.52663 -1.52464 0
M  V30 6830 H 618.875 -2.54645 0.242805 0
M  V30 6831 H 618.519 -5.07472 0.2085 0
M  V30 6832 H 618.449 -5.02621 -1.57098 0
M  V30 6833 H 620.94 -3.70669 -0.735717 0
M  V30 6834 H 621.253 -7.67701 -0.886279 0
M  V30 6835 H 619.598 -6.90334 -0.803958 0
M  V30 6836 H 622.789 -4.60709 -0.828535 0
M  V30 6837 H 622.962 -6.41756 -0.897418 0
M  V30 6838 N 616.368 0.432326 -1.51554 0
M  V30 6839 C 617.298 1.53242 -1.76179 0
M  V30 6840 C 618.279 1.58717 -0.611801 0
M  V30 6841 O 619.464 1.74364 -0.855033 0
M  V30 6842 C 616.594 2.91278 -1.89141 0
M  V30 6843 C 615.548 3.00663 -3.04608 0
M  V30 6844 C 614.874 4.40728 -3.02759 0
M  V30 6845 C 616.174 2.74281 -4.44485 0
M  V30 6846 H 617.868 1.32886 -2.68294 0
M  V30 6847 H 615.414 0.637841 -1.29103 0
M  V30 6848 H 617.367 3.68203 -2.04951 0
M  V30 6849 H 616.091 3.12877 -0.936785 0
M  V30 6850 H 614.75 2.26179 -2.88511 0
M  V30 6851 H 614.398 4.59301 -2.05065 0
M  V30 6852 H 614.098 4.47936 -3.80299 0
M  V30 6853 H 615.622 5.19619 -3.20669 0
M  V30 6854 H 617.036 3.40936 -4.60907 0
M  V30 6855 H 615.433 2.92893 -5.23769 0
M  V30 6856 H 616.503 1.69856 -4.54177 0
M  V30 6857 N 617.846 1.41785 0.688094 0
M  V30 6858 C 619.071 1.45117 1.48175 0
M  V30 6859 C 619.496 0.060129 1.88004 0
M  V30 6860 O 618.854 -0.938385 1.55126 0
M  V30 6861 C 618.902 2.37224 2.71583 0
M  V30 6862 O 618.006 1.83443 3.69354 0
M  V30 6863 H 617.347 0.492208 0.445676 0
M  V30 6864 H 619.877 1.86329 0.845145 0
M  V30 6865 H 619.887 2.53353 3.19806 0
M  V30 6866 H 618.562 3.38293 2.41931 0
M  V30 6867 H 617.139 1.76802 3.28322 0
M  V30 6868 N 619.324 -0.923095 1.27737 0
M  V30 6869 C 620.271 -2.02432 1.1086 0
M  V30 6870 C 621.241 -1.66098 0.00835195 0
M  V30 6871 O 622.426 -1.90027 0.171542 0
M  V30 6872 C 619.566 -3.36476 0.766671 0
M  V30 6873 C 618.679 -3.85737 1.94501 0
M  V30 6874 C 617.814 -5.08249 1.54455 0
M  V30 6875 C 616.853 -5.49818 2.6901 0
M  V30 6876 N 615.99 -6.63524 2.29521 0
M  V30 6877 H 620.83 -2.16201 2.05089 0
M  V30 6878 H 618.367 -1.05909 1.02087 0
M  V30 6879 H 620.325 -4.13569 0.549223 0
M  V30 6880 H 618.955 -3.22502 -0.13867 0
M  V30 6881 H 618.007 -3.04883 2.27487 0
M  V30 6882 H 619.319 -4.12513 2.80419 0
M  V30 6883 H 618.473 -5.92857 1.28862 0
M  V30 6884 H 617.212 -4.83261 0.656534 0
M  V30 6885 H 616.217 -4.63757 2.95313 0
M  V30 6886 H 617.442 -5.76799 3.5844 0
M  V30 6887 H 615.388 -6.40185 1.43177 0
M  V30 6888 H 615.305 -6.89978 3.08977 0
M  V30 6889 H 616.573 -7.51461 2.07187 0
M  V30 6890 N 620.802 -1.09834 -1.13024 0
M  V30 6891 C 622.049 -0.83695 -1.84395 0
M  V30 6892 C 622.377 0.637463 -1.83757 0
M  V30 6893 O 621.632 1.48554 -1.27398 0
M  V30 6894 C 621.931 -1.32263 -3.32026 0
M  V30 6895 C 621.597 -2.80739 -3.52841 0
M  V30 6896 C 620.259 -3.21286 -3.5823 0
M  V30 6897 C 622.611 -3.76449 -3.60466 0
M  V30 6898 C 619.939 -4.56308 -3.68781 0
M  V30 6899 C 622.291 -5.11266 -3.72546 0
M  V30 6900 C 620.955 -5.51397 -3.76189 0
M  V30 6901 H 620.225 -0.306262 -0.674748 0
M  V30 6902 H 622.872 -1.37385 -1.33408 0
M  V30 6903 H 621.177 -0.705618 -3.85394 0
M  V30 6904 H 622.874 -1.09695 -3.85705 0
M  V30 6905 H 619.464 -2.48363 -3.49305 0
M  V30 6906 H 623.648 -3.46234 -3.55578 0
M  V30 6907 H 618.904 -4.86832 -3.69871 0
M  V30 6908 H 623.078 -5.85279 -3.77388 0
M  V30 6909 H 620.705 -6.56017 -3.84117 0
M  V30 6910 N 622.28 1.30327 -0.886154 0
M  V30 6911 C 623.19 2.31854 -0.357866 0
M  V30 6912 C 624.206 1.65392 0.540502 0
M  V30 6913 O 625.382 1.96683 0.433339 0
M  V30 6914 C 622.447 3.44171 0.417999 0
M  V30 6915 C 621.508 4.26257 -0.510263 0
M  V30 6916 C 620.741 5.3321 0.228669 0
M  V30 6917 O 620.964 5.51542 1.45458 0
M  V30 6918 O 619.898 6.0042 -0.421832 0
M  V30 6919 H 623.724 2.78995 -1.19982 0
M  V30 6920 H 621.309 1.34518 -0.650028 0
M  V30 6921 H 623.191 4.12588 0.857251 0
M  V30 6922 H 621.866 2.99164 1.23623 0
M  V30 6923 H 620.773 3.60533 -0.99835 0
M  V30 6924 H 622.106 4.74871 -1.29454 0
M  V30 6925 N 623.758 0.647228 1.43697 0
M  V30 6926 C 624.983 0.164083 2.0675 0
M  V30 6927 C 625.408 -1.15892 1.48158 0
M  V30 6928 O 624.766 -1.71459 0.589194 0
M  V30 6929 C 624.814 0.0800368 3.60511 0
M  V30 6930 O 623.918 -0.959453 4.01084 0
M  V30 6931 H 623.259 0.0921288 0.657578 0
M  V30 6932 H 625.789 0.88846 1.84303 0
M  V30 6933 H 625.799 -0.105263 4.07864 0
M  V30 6934 H 624.474 1.04586 4.02535 0
M  V30 6935 H 623.051 -0.747425 3.65333 0
M  V30 6936 N 625.236 -1.5273 0.388769 0
M  V30 6937 C 626.485 -2.00757 -0.194833 0
M  V30 6938 C 626.798 -1.27951 -1.47946 0
M  V30 6939 O 628.004 -1.66686 -2.14308 0
M  V30 6940 C 626.46 -3.57695 -0.397762 0
M  V30 6941 C 626.068 -4.394 0.873583 0
M  V30 6942 C 627.812 -4.14012 -0.937759 0
M  V30 6943 C 625.719 -5.87938 0.638962 0
M  V30 6944 H 624.649 -0.750101 -0.0765845 0
M  V30 6945 H 627.3 -1.76239 0.511086 0
M  V30 6946 H 625.682 -3.7846 -1.16552 0
M  V30 6947 H 626.856 -4.30403 1.64591 0
M  V30 6948 H 625.171 -3.94301 1.33849 0
M  V30 6949 H 627.768 -5.22645 -1.12899 0
M  V30 6950 H 628.111 -3.7007 -1.90666 0
M  V30 6951 H 628.644 -3.97137 -0.229588 0
M  V30 6952 H 625.383 -6.36202 1.57885 0
M  V30 6953 H 624.903 -5.99726 -0.094443 0
M  V30 6954 H 626.582 -6.46423 0.273299 0
M  V30 6955 N 626.714 -0.118576 -1.57153 0
M  V30 6956 C 628.13 0.238014 -1.57815 0
M  V30 6957 C 628.33 1.66747 -1.13127 0
M  V30 6958 O 627.386 2.38867 -0.818462 0
M  V30 6959 C 628.699 0.00508207 -3.007 0
M  V30 6960 C 630.247 0.0710139 -3.12919 0
M  V30 6961 C 630.722 -0.13422 -4.57803 0
M  V30 6962 N 632.213 -0.0801755 -4.63131 0
M  V30 6963 C 632.948 -0.213885 -5.73001 0
M  V30 6964 N 632.444 -0.403742 -6.91623 0
M  V30 6965 N 634.237 -0.15349 -5.6189 0
M  V30 6966 H 626.388 -1.05226 -1.84503 0
M  V30 6967 H 628.651 -0.414318 -0.852669 0
M  V30 6968 H 628.357 -0.983125 -3.3768 0
M  V30 6969 H 628.231 0.73714 -3.69927 0
M  V30 6970 H 630.618 1.04975 -2.75798 0
M  V30 6971 H 630.699 -0.692918 -2.46236 0
M  V30 6972 H 630.343 -1.10992 -4.95624 0
M  V30 6973 H 630.273 0.649692 -5.22577 0
M  V30 6974 H 632.764 0.0630689 -3.77847 0
M  V30 6975 H 633.077 -0.496645 -7.71202 0
M  V30 6976 H 631.422 -0.43971 -6.93608 0
M  V30 6977 H 634.613 -0.00613174 -4.681 0
M  V30 6978 H 634.786 -0.261138 -6.47474 0
M  V30 6979 N 628.193 1.56834 0.155195 0
M  V30 6980 C 629.143 1.94061 1.19684 0
M  V30 6981 C 630.127 0.810851 1.38975 0
M  V30 6982 O 631.319 1.07422 1.40675 0
M  V30 6983 C 628.448 2.31778 2.53247 0
M  V30 6984 C 627.534 3.51305 2.37583 0
M  V30 6985 N 627.925 4.68081 1.9166 0
M  V30 6986 C 626.223 3.56228 2.6836 0
M  V30 6987 C 626.924 5.50193 1.88845 0
M  V30 6988 N 625.9 4.91676 2.31852 0
M  V30 6989 H 629.702 2.81826 0.833747 0
M  V30 6990 H 627.216 1.58284 0.363328 0
M  V30 6991 H 629.213 2.56649 3.28538 0
M  V30 6992 H 627.873 1.4536 2.90346 0
M  V30 6993 H 628.884 4.91993 1.6175 0
M  V30 6994 H 625.561 2.8033 3.09389 0
M  V30 6995 H 626.951 6.53801 1.54901 0
M  V30 6996 N 629.671 -0.424282 1.51781 0
M  V30 6997 C 630.896 -1.19928 1.6921 0
M  V30 6998 C 631.321 -1.8392 0.394355 0
M  V30 6999 O 630.679 -1.69371 -0.646778 0
M  V30 7000 C 630.727 -2.24937 2.81843 0
M  V30 7001 O 629.831 -3.3073 2.46356 0
M  V30 7002 H 629.172 -0.35078 0.563781 0
M  V30 7003 H 631.702 -0.499401 1.98412 0
M  V30 7004 H 631.712 -2.69512 3.06312 0
M  V30 7005 H 630.387 -1.77742 3.76006 0
M  V30 7006 H 628.964 -2.9154 2.32505 0
M  V30 7007 N 631.149 -1.42148 -0.680565 0
M  V30 7008 C 632.398 -1.41604 -1.43636 0
M  V30 7009 C 632.711 -0.0337887 -1.95571 0
M  V30 7010 O 633.917 0.0942588 -2.71336 0
M  V30 7011 C 632.373 -2.49056 -2.59806 0
M  V30 7012 C 631.981 -3.9326 -2.14594 0
M  V30 7013 C 633.725 -2.5767 -3.37352 0
M  V30 7014 C 631.632 -4.92232 -3.27813 0
M  V30 7015 H 630.562 -0.526656 -0.539583 0
M  V30 7016 H 633.213 -1.68033 -0.737369 0
M  V30 7017 H 631.595 -2.15782 -3.32045 0
M  V30 7018 H 632.769 -4.35858 -1.49546 0
M  V30 7019 H 631.084 -3.88443 -1.50002 0
M  V30 7020 H 633.681 -3.28794 -4.21662 0
M  V30 7021 H 634.024 -1.61837 -3.83555 0
M  V30 7022 H 634.557 -2.90109 -2.72179 0
M  V30 7023 H 631.296 -5.89522 -2.86607 0
M  V30 7024 H 630.816 -4.5427 -3.91661 0
M  V30 7025 H 632.495 -5.13684 -3.93367 0
M  V30 7026 N 632.627 0.916307 -1.28225 0
M  V30 7027 C 633.59 1.99996 -1.11957 0
M  V30 7028 C 634.59 1.60688 -0.0600152 0
M  V30 7029 O 635.78 1.71499 -0.30558 0
M  V30 7030 C 632.912 3.33458 -0.708411 0
M  V30 7031 H 634.105 2.15858 -2.08196 0
M  V30 7032 H 631.658 1.09863 -1.11175 0
M  V30 7033 H 632.393 3.23297 0.254859 0
M  V30 7034 H 632.178 3.63349 -1.47377 0
M  V30 7035 H 633.668 4.13014 -0.617164 0
M  V30 7036 N 634.105 1.10431 1.1244 0
M  V30 7037 C 635.353 0.845045 1.83585 0
M  V30 7038 C 635.674 -0.631168 1.84503 0
M  V30 7039 O 634.944 -1.45825 1.30813 0
M  V30 7040 H 633.524 0.309628 0.679809 0
M  V30 7041 H 636.186 1.39458 1.36153 0
M  V30 7042 H 635.282 1.20786 2.8778 0
M  V30 7043 N 635.583 -1.29855 0.893053 0
M  V30 7044 C 636.832 -1.95104 0.511597 0
M  V30 7045 C 637.145 -1.71226 -0.945567 0
M  V30 7046 O 638.351 -2.30525 -1.43424 0
M  V30 7047 C 636.807 -3.49374 0.864034 0
M  V30 7048 C 636.415 -3.82061 2.33952 0
M  V30 7049 C 638.159 -4.20894 0.552167 0
M  V30 7050 C 636.066 -5.29546 2.63316 0
M  V30 7051 H 634.996 -0.73029 0.187597 0
M  V30 7052 H 637.647 -1.47682 1.08914 0
M  V30 7053 H 636.029 -3.95413 0.215493 0
M  V30 7054 H 637.203 -3.46904 3.03305 0
M  V30 7055 H 635.518 -3.23665 2.61973 0
M  V30 7056 H 638.115 -5.29435 0.748489 0
M  V30 7057 H 638.458 -4.13178 -0.508924 0
M  V30 7058 H 638.991 -3.80564 1.15825 0
M  V30 7059 H 635.73 -5.4232 3.68197 0
M  V30 7060 H 635.25 -5.65974 1.9858 0
M  V30 7061 H 636.929 -5.97068 2.49236 0
M  V30 7062 N 637.061 -0.65484 -1.43351 0
M  V30 7063 C 638.31 -0.166215 -2.01014 0
M  V30 7064 C 638.623 1.22764 -1.52278 0
M  V30 7065 O 639.829 1.81156 -2.02224 0
M  V30 7066 C 638.285 -0.246341 -3.59056 0
M  V30 7067 C 637.893 -1.64299 -4.16785 0
M  V30 7068 C 639.637 0.184597 -4.24098 0
M  V30 7069 C 637.544 -1.67695 -5.67126 0
M  V30 7070 H 636.474 -0.0583769 -0.751737 0
M  V30 7071 H 639.125 -0.817111 -1.64303 0
M  V30 7072 H 637.507 0.472092 -3.93176 0
M  V30 7073 H 638.681 -2.3869 -3.94162 0
M  V30 7074 H 636.996 -2.02004 -3.6412 0
M  V30 7075 H 639.593 0.179088 -5.344 0
M  V30 7076 H 639.936 1.21632 -3.98135 0
M  V30 7077 H 640.469 -0.482141 -3.94867 0
M  V30 7078 H 637.208 -2.68783 -5.9786 0
M  V30 7079 H 636.728 -0.976313 -5.91801 0
M  V30 7080 H 638.407 -1.42142 -6.31193 0
M  V30 7081 N 638.539 1.52521 -0.396863 0
M  V30 7082 C 639.955 1.5953 -0.0471659 0
M  V30 7083 C 640.155 1.41044 1.43906 0
M  V30 7084 O 639.211 1.23122 2.20448 0
M  V30 7085 C 640.524 2.95972 -0.531113 0
M  V30 7086 C 642.072 3.09172 -0.488024 0
M  V30 7087 C 642.547 4.48075 -0.948281 0
M  V30 7088 N 644.038 4.54281 -0.9046 0
M  V30 7089 C 644.773 5.60007 -1.23205 0
M  V30 7090 N 644.269 6.73343 -1.63036 0
M  V30 7091 N 646.062 5.50151 -1.15282 0
M  V30 7092 H 638.213 1.62786 -1.36435 0
M  V30 7093 H 640.476 0.76514 -0.559701 0
M  V30 7094 H 640.182 3.14741 -1.56942 0
M  V30 7095 H 640.056 3.77143 0.0657922 0
M  V30 7096 H 642.443 2.90095 0.541211 0
M  V30 7097 H 642.524 2.29937 -1.12083 0
M  V30 7098 H 642.168 4.67894 -1.97578 0
M  V30 7099 H 642.098 5.25788 -0.292412 0
M  V30 7100 H 644.589 3.72918 -0.6116 0
M  V30 7101 H 644.902 7.49992 -1.86365 0
M  V30 7102 H 643.247 6.74655 -1.66929 0
M  V30 7103 H 646.438 4.6049 -0.840602 0
M  V30 7104 H 646.611 6.32444 -1.41133 0
M  V30 7105 N 640.017 0.126909 1.57088 0
M  V30 7106 C 641.242 -0.53997 2.00248 0
M  V30 7107 C 641.667 -1.58927 1.00618 0
M  V30 7108 O 641.025 -1.81288 -0.0210131 0
M  V30 7109 C 641.073 -1.13565 3.4225 0
M  V30 7110 O 640.177 -2.25103 3.45547 0
M  V30 7111 H 639.518 -0.13412 0.650314 0
M  V30 7112 H 642.048 0.217718 2.03438 0
M  V30 7113 H 642.058 -1.46925 3.80627 0
M  V30 7114 H 640.733 -0.367122 4.14277 0
M  V30 7115 H 639.31 -1.93123 3.18995 0
M  V30 7116 N 641.495 -1.56914 -0.146875 0
M  V30 7117 C 642.906 -1.72799 -0.706928 0
M  V30 7118 C 643.257 -0.741329 -1.81656 0
M  V30 7119 O 642.382 0.0920162 -2.16204 0
M  V30 7120 C 642.977 -3.13317 -1.28911 0
M  V30 7121 C 641.536 -3.30803 -1.79573 0
M  V30 7122 C 640.683 -2.68725 -0.684252 0
M  V30 7123 H 643.634 -1.58504 0.0787931 0
M  V30 7124 H 643.655 -3.13323 -2.15891 0
M  V30 7125 H 643.167 -3.85104 -0.481284 0
M  V30 7126 H 641.268 -2.64012 -2.62923 0
M  V30 7127 H 641.381 -4.38754 -1.92436 0
M  V30 7128 H 639.745 -2.29196 -1.11091 0
M  V30 7129 H 640.528 -3.43117 0.112134 0
M  V30 7130 N 642.974 0.416227 -1.52004 0
M  V30 7131 C 643.921 1.50666 -1.74838 0
M  V30 7132 C 644.891 1.55245 -0.590599 0
M  V30 7133 O 646.076 1.71928 -0.827374 0
M  V30 7134 C 643.216 2.88185 -1.89851 0
M  V30 7135 C 642.329 2.92971 -3.17478 0
M  V30 7136 C 641.464 4.21745 -3.22962 0
M  V30 7137 C 640.503 4.20478 -4.4482 0
M  V30 7138 N 639.64 5.40811 -4.47736 0
M  V30 7139 H 644.48 1.30498 -2.67907 0
M  V30 7140 H 642.017 0.633568 -1.32757 0
M  V30 7141 H 643.975 3.68007 -1.96537 0
M  V30 7142 H 642.605 3.06865 -1.00169 0
M  V30 7143 H 641.657 2.05684 -3.19997 0
M  V30 7144 H 642.969 2.87899 -4.07328 0
M  V30 7145 H 642.123 5.09954 -3.28682 0
M  V30 7146 H 640.862 4.29503 -2.31038 0
M  V30 7147 H 639.867 3.30659 -4.39254 0
M  V30 7148 H 641.092 4.14366 -5.38031 0
M  V30 7149 H 639.038 5.4925 -3.58692 0
M  V30 7150 H 638.955 5.37705 -5.31422 0
M  V30 7151 H 640.223 6.30993 -4.57676 0
M  V30 7152 N 644.452 1.42507 0.673017 0
M  V30 7153 C 645.677 1.4668 1.46627 0
M  V30 7154 C 646.102 0.080066 1.8793 0
M  V30 7155 O 645.46 -0.921879 1.56112 0
M  V30 7156 C 645.508 2.40091 2.69051 0
M  V30 7157 O 644.612 1.8735 3.67387 0
M  V30 7158 H 643.953 0.496908 0.44043 0
M  V30 7159 H 646.483 1.87215 0.825334 0
M  V30 7160 H 646.493 2.56731 3.17101 0
M  V30 7161 H 645.168 3.4084 2.3833 0
M  V30 7162 H 643.745 1.80274 3.26429 0
M  V30 7163 N 645.93 -0.909495 1.28709 0
M  V30 7164 C 646.893 -1.99399 1.13016 0
M  V30 7165 C 647.893 -1.60654 0.068536 0
M  V30 7166 O 649.083 -1.71334 0.314671 0
M  V30 7167 C 646.215 -3.33078 0.726085 0
M  V30 7168 H 647.408 -2.14751 2.09338 0
M  V30 7169 H 644.961 -1.09272 1.11756 0
M  V30 7170 H 645.696 -3.23428 -0.23771 0
M  V30 7171 H 645.481 -3.62562 1.49302 0
M  V30 7172 H 646.971 -4.12681 0.639058 0
M  V30 7173 N 647.408 -1.11026 -1.11852 0
M  V30 7174 C 648.338 -0.786812 -2.19844 0
M  V30 7175 C 649.319 0.242935 -1.68356 0
M  V30 7176 O 650.504 0.107355 -1.93903 0
M  V30 7177 C 647.634 -0.224516 -3.46574 0
M  V30 7178 C 646.588 -1.18564 -4.1125 0
M  V30 7179 C 645.914 -0.484261 -5.32503 0
M  V30 7180 C 647.214 -2.53465 -4.56676 0
M  V30 7181 H 648.908 -1.68978 -2.47158 0
M  V30 7182 H 646.454 -0.813906 -1.18792 0
M  V30 7183 H 648.407 0.0139435 -4.21398 0
M  V30 7184 H 647.131 0.713722 -3.18706 0
M  V30 7185 H 645.79 -1.40966 -3.38414 0
M  V30 7186 H 645.438 0.458646 -5.00905 0
M  V30 7187 H 645.138 -1.12526 -5.76725 0
M  V30 7188 H 646.662 -0.254492 -6.10069 0
M  V30 7189 H 648.076 -2.35177 -5.22843 0
M  V30 7190 H 646.473 -3.13507 -5.11697 0
M  V30 7191 H 647.543 -3.13008 -3.70343 0
M  V30 7192 N 648.886 1.2938 -0.899927 0
M  V30 7193 C 650.134 1.95164 -0.524924 0
M  V30 7194 C 650.455 1.71292 0.931888 0
M  V30 7195 O 649.725 1.04481 1.65712 0
M  V30 7196 H 648.305 0.722133 -0.191135 0
M  V30 7197 H 650.967 1.57628 -1.14627 0
M  V30 7198 H 650.063 3.0397 -0.707711 0
M  V30 7199 N 650.364 0.662433 1.43002 0
M  V30 7200 C 651.589 0.186003 2.06564 0
M  V30 7201 C 652.014 -1.14314 1.49379 0
M  V30 7202 O 651.372 -1.70824 0.607346 0
M  V30 7203 C 651.42 0.118269 3.60406 0
M  V30 7204 O 650.524 -0.916859 4.02079 0
M  V30 7205 H 649.865 0.0990981 0.656563 0
M  V30 7206 H 652.395 0.907958 1.8335 0
M  V30 7207 H 652.405 -0.0619981 4.07953 0
M  V30 7208 H 651.08 1.08849 4.01403 0
M  V30 7209 H 649.657 -0.708635 3.66105 0
M  V30 7210 N 651.842 -1.52309 0.404946 0
M  V30 7211 C 653.067 -2.06666 -0.1743 0
M  V30 7212 C 653.492 -1.27341 -1.38441 0
M  V30 7213 O 652.85 -0.302539 -1.78758 0
M  V30 7214 C 652.898 -3.57014 -0.507262 0
M  V30 7215 O 652.002 -3.80144 -1.59889 0
M  V30 7216 H 651.343 -0.663807 -0.0160273 0
M  V30 7217 H 653.873 -1.96297 0.576937 0
M  V30 7218 H 653.883 -4.00724 -0.767098 0
M  V30 7219 H 652.558 -4.14184 0.377368 0
M  V30 7220 H 651.135 -3.48316 -1.33155 0
M  V30 7221 N 653.32 -0.135238 -1.57019 0
M  V30 7222 C 654.283 0.794707 -2.14981 0
M  V30 7223 C 655.283 1.18342 -1.08866 0
M  V30 7224 O 656.473 1.10627 -1.34563 0
M  V30 7225 C 653.605 2.07685 -2.70333 0
M  V30 7226 H 654.798 0.290696 -2.98488 0
M  V30 7227 H 652.351 0.114128 -1.55883 0
M  V30 7228 H 653.086 2.6248 -1.9046 0
M  V30 7229 H 652.871 1.80745 -3.47957 0
M  V30 7230 H 654.361 2.74127 -3.1503 0
M  V30 7231 N 654.798 1.5699 0.138552 0
M  V30 7232 C 655.728 2.01933 1.17241 0
M  V30 7233 C 656.709 0.90033 1.44319 0
M  V30 7234 O 657.894 1.16872 1.55095 0
M  V30 7235 C 655.024 2.40711 2.50351 0
M  V30 7236 C 653.978 3.55874 2.37776 0
M  V30 7237 C 653.304 3.80491 3.75674 0
M  V30 7238 C 654.604 4.8826 1.85472 0
M  V30 7239 H 656.298 2.88551 0.798672 0
M  V30 7240 H 653.844 1.3882 0.382743 0
M  V30 7241 H 655.797 2.70754 3.22909 0
M  V30 7242 H 654.521 1.5104 2.89576 0
M  V30 7243 H 653.18 3.2601 1.67669 0
M  V30 7244 H 652.828 2.88057 4.12349 0
M  V30 7245 H 652.528 4.57998 3.68119 0
M  V30 7246 H 654.052 4.12967 4.49767 0
M  V30 7247 H 655.466 5.16965 2.4783 0
M  V30 7248 H 653.863 5.69631 1.88787 0
M  V30 7249 H 654.933 4.78071 0.810935 0
M  V30 7250 N 656.276 -0.40816 1.52223 0
M  V30 7251 C 657.501 -1.18127 1.70472 0
M  V30 7252 C 657.926 -1.83491 0.41384 0
M  V30 7253 O 657.284 -1.70047 -0.628778 0
M  V30 7254 C 657.332 -2.21935 2.84213 0
M  V30 7255 O 656.436 -3.28099 2.4985 0
M  V30 7256 H 655.777 -0.344781 0.56747 0
M  V30 7257 H 658.307 -0.478328 1.9893 0
M  V30 7258 H 658.317 -2.66248 3.09153 0
M  V30 7259 H 656.992 -1.73744 3.7787 0
M  V30 7260 H 655.569 -2.89058 2.35584 0
M  V30 7261 N 657.755 -1.42862 -0.66545 0
M  V30 7262 C 659.032 -1.3431 -1.42197 0
M  V30 7263 C 659.412 0.0150265 -2.11095 0
M  V30 7264 O 658.76 1.03101 -2.03918 0
M  V30 7265 C 658.97 -2.51783 -2.41674 0
M  V30 7266 C 660.318 -2.94321 -3.0604 0
M  V30 7267 O 661.342 -2.51741 -2.52001 0
M  V30 7268 O 660.201 -3.68047 -4.03985 0
M  V30 7269 H 657.295 -0.530159 -0.634713 0
M  V30 7270 H 659.841 -1.54888 -0.693386 0
M  V30 7271 H 658.613 -3.42282 -1.89627 0
M  V30 7272 H 658.236 -2.33241 -3.22001 0
M  V30 7273 N 659.233 0.902656 -1.29189 0
M  V30 7274 C 660.166 2.00816 -1.0839 0
M  V30 7275 C 661.144 1.626 0.00335266 0
M  V30 7276 O 662.328 1.87928 -0.146765 0
M  V30 7277 C 659.455 3.32415 -0.649435 0
M  V30 7278 C 658.501 3.89617 -1.73496 0
M  V30 7279 S 659.334 4.19091 -3.33351 0
M  V30 7280 C 660.49 5.53736 -2.91766 0
M  V30 7281 H 660.723 2.18151 -2.01984 0
M  V30 7282 H 658.256 1.0489 -1.13303 0
M  V30 7283 H 660.214 4.08492 -0.405479 0
M  V30 7284 H 658.875 3.12964 0.266857 0
M  V30 7285 H 658.068 4.84658 -1.38284 0
M  V30 7286 H 657.67 3.20217 -1.93229 0
M  V30 7287 H 659.962 6.34085 -2.38627 0
M  V30 7288 H 660.905 5.93871 -3.85647 0
M  V30 7289 H 661.313 5.15453 -2.30149 0
M  V30 7290 N 660.711 1.11618 1.11262 0
M  V30 7291 C 661.96 0.860934 1.82403 0
M  V30 7292 C 662.273 -0.615303 1.8567 0
M  V30 7293 O 663.479 -0.986861 2.52929 0
M  V30 7294 C 661.935 1.49048 3.27586 0
M  V30 7295 C 661.543 3.00089 3.32642 0
M  V30 7296 C 663.287 1.31515 4.03614 0
M  V30 7297 C 661.194 3.56019 4.72234 0
M  V30 7298 H 660.124 0.318423 0.683464 0
M  V30 7299 H 662.775 1.34165 1.25188 0
M  V30 7300 H 661.157 0.937434 3.84744 0
M  V30 7301 H 662.331 3.61813 2.85356 0
M  V30 7302 H 660.646 3.16919 2.70096 0
M  V30 7303 H 663.243 1.70732 5.0671 0
M  V30 7304 H 663.586 0.257917 4.155 0
M  V30 7305 H 664.119 1.83694 3.52848 0
M  V30 7306 H 660.858 4.61463 4.65545 0
M  V30 7307 H 660.378 2.99066 5.19923 0
M  V30 7308 H 662.057 3.54568 5.41193 0
M  V30 7309 N 662.189 -1.289 0.906776 0
M  V30 7310 C 663.414 -1.99939 0.551303 0
M  V30 7311 C 663.839 -1.67366 -0.858496 0
M  V30 7312 O 663.197 -0.902176 -1.57259 0
M  V30 7313 C 663.245 -3.52523 0.758937 0
M  V30 7314 O 662.349 -4.11983 -0.185308 0
M  V30 7315 H 661.69 -0.628376 0.214568 0
M  V30 7316 H 664.22 -1.64225 1.2203 0
M  V30 7317 H 664.23 -4.02522 0.666329 0
M  V30 7318 H 662.905 -3.75566 1.78671 0
M  V30 7319 H 661.482 -3.72873 -0.0445577 0
M  V30 7320 N 663.667 -0.670007 -1.42649 0
M  V30 7321 C 664.916 -0.187526 -2.00826 0
M  V30 7322 C 665.229 1.21142 -1.53571 0
M  V30 7323 O 666.435 1.79001 -2.04134 0
M  V30 7324 C 664.891 -0.284409 -3.58774 0
M  V30 7325 C 664.499 -1.6871 -4.15019 0
M  V30 7326 C 666.243 0.139605 -4.2427 0
M  V30 7327 C 664.15 -1.73701 -5.65316 0
M  V30 7328 H 663.08 -0.0663468 -0.751075 0
M  V30 7329 H 665.731 -0.834492 -1.63427 0
M  V30 7330 H 664.113 0.430364 -3.93655 0
M  V30 7331 H 665.287 -2.42857 -3.91608 0
M  V30 7332 H 663.602 -2.05855 -3.61957 0
M  V30 7333 H 666.199 0.122398 -5.3456 0
M  V30 7334 H 666.542 1.17403 -3.99402 0
M  V30 7335 H 667.075 -0.523995 -3.94334 0
M  V30 7336 H 663.814 -2.75109 -5.94975 0
M  V30 7337 H 663.334 -1.03903 -5.90732 0
M  V30 7338 H 665.013 -1.48829 -6.2965 0
M  V30 7339 N 665.145 1.52092 -0.413018 0
M  V30 7340 C 666.37 2.06756 0.163338 0
M  V30 7341 C 666.795 1.28073 1.37764 0
M  V30 7342 O 666.153 0.312015 1.78595 0
M  V30 7343 C 666.201 3.57278 0.488322 0
M  V30 7344 O 665.305 3.80986 1.57871 0
M  V30 7345 H 664.646 0.663882 0.0125068 0
M  V30 7346 H 667.176 1.95988 -0.587339 0
M  V30 7347 H 667.186 4.01125 0.745836 0
M  V30 7348 H 665.861 4.13978 -0.399327 0
M  V30 7349 H 664.438 3.49017 1.31306 0
M  V30 7350 N 666.623 0.143563 1.56945 0
M  V30 7351 C 667.533 -0.810562 2.20152 0
M  V30 7352 C 668.549 -1.27431 1.1848 0
M  V30 7353 O 669.725 -1.33221 1.51044 0
M  V30 7354 C 666.79 -2.03353 2.80799 0
M  V30 7355 C 665.851 -1.61936 3.97587 0
M  V30 7356 C 665.084 -2.78403 4.55332 0
M  V30 7357 O 665.307 -3.94521 4.11958 0
M  V30 7358 O 664.241 -2.54073 5.45647 0
M  V30 7359 H 668.067 -0.30253 3.02189 0
M  V30 7360 H 665.652 -0.0832925 1.49168 0
M  V30 7361 H 667.534 -2.74932 3.19359 0
M  V30 7362 H 666.209 -2.53116 2.01777 0
M  V30 7363 H 665.116 -0.873904 3.6375 0
M  V30 7364 H 666.449 -1.16892 4.78118 0
M  V30 7365 N 668.101 -1.57061 -0.130224 0
M  V30 7366 C 669.048 -1.99517 -1.16024 0
M  V30 7367 C 670.018 -0.865452 -1.41771 0
M  V30 7368 O 671.203 -1.12882 -1.53826 0
M  V30 7369 C 668.343 -2.3951 -2.48453 0
M  V30 7370 C 667.456 -3.65848 -2.29737 0
M  V30 7371 C 666.591 -3.9487 -3.55318 0
M  V30 7372 C 665.63 -5.14426 -3.31711 0
M  V30 7373 N 664.767 -5.39375 -4.49466 0
M  V30 7374 H 669.607 -2.87305 -0.791194 0
M  V30 7375 H 667.144 -1.42129 -0.379195 0
M  V30 7376 H 669.102 -2.60731 -3.25692 0
M  V30 7377 H 667.732 -1.54779 -2.83272 0
M  V30 7378 H 666.784 -3.52307 -1.4347 0
M  V30 7379 H 668.096 -4.53241 -2.08263 0
M  V30 7380 H 667.25 -4.16679 -4.4098 0
M  V30 7381 H 665.989 -3.05931 -3.79813 0
M  V30 7382 H 664.994 -4.92473 -2.44439 0
M  V30 7383 H 666.219 -6.04933 -3.08598 0
M  V30 7384 H 664.165 -4.53391 -4.74102 0
M  V30 7385 H 664.082 -6.21069 -4.31055 0
M  V30 7386 H 665.35 -5.65694 -5.36293 0
M  V30 7387 N 669.579 0.400081 -1.52437 0
M  V30 7388 C 670.99 0.97851 -1.59003 0
M  V30 7389 C 671.341 1.91293 -0.436068 0
M  V30 7390 O 670.466 2.1183 0.442365 0
M  V30 7391 C 671.061 1.78145 -2.88184 0
M  V30 7392 C 669.62 2.30976 -2.97199 0
M  V30 7393 C 668.767 1.11212 -2.54022 0
M  V30 7394 H 671.718 0.180002 -1.57676 0
M  V30 7395 H 671.739 2.63968 -2.74046 0
M  V30 7396 H 671.251 1.1011 -3.72152 0
M  V30 7397 H 669.352 3.02355 -2.17744 0
M  V30 7398 H 669.465 2.61221 -4.01622 0
M  V30 7399 H 667.829 1.46882 -2.08081 0
M  V30 7400 H 668.612 0.447307 -3.40373 0
M  V30 7401 N 671.057 1.43213 0.657864 0
M  V30 7402 C 671.987 1.50815 1.78262 0
M  V30 7403 C 672.968 0.363211 1.66177 0
M  V30 7404 O 674.153 0.579806 1.85343 0
M  V30 7405 C 671.283 1.42625 3.16663 0
M  V30 7406 C 670.237 2.5532 3.43505 0
M  V30 7407 C 669.563 2.32184 4.81658 0
M  V30 7408 C 670.863 3.97583 3.38711 0
M  V30 7409 H 672.557 2.44954 1.72157 0
M  V30 7410 H 670.103 1.17896 0.82683 0
M  V30 7411 H 672.056 1.46548 3.95097 0
M  V30 7412 H 670.78 0.449877 3.23487 0
M  V30 7413 H 669.439 2.50742 2.6744 0
M  V30 7414 H 669.087 1.32801 4.85153 0
M  V30 7415 H 668.787 3.07724 5.00579 0
M  V30 7416 H 670.311 2.37883 5.62356 0
M  V30 7417 H 671.725 4.03673 4.07089 0
M  V30 7418 H 670.122 4.73112 3.69168 0
M  V30 7419 H 671.192 4.23049 2.36976 0
M  V30 7420 N 672.536 -0.895792 1.29666 0
M  V30 7421 C 673.499 -1.98189 1.15124 0
M  V30 7422 C 674.499 -1.60572 0.0855717 0
M  V30 7423 O 675.689 -1.70991 0.332826 0
M  V30 7424 C 672.821 -3.32289 0.761372 0
M  V30 7425 H 674.014 -2.12518 2.11603 0
M  V30 7426 H 671.567 -1.0808 1.12908 0
M  V30 7427 H 672.302 -3.23662 -0.203393 0
M  V30 7428 H 672.087 -3.60958 1.53139 0
M  V30 7429 H 673.577 -4.1198 0.682792 0
M  V30 7430 N 674.014 -1.12206 -1.10668 0
M  V30 7431 C 674.924 -0.800686 -2.20513 0
M  V30 7432 C 675.94 0.209512 -1.72734 0
M  V30 7433 O 677.116 0.043705 -2.01353 0
M  V30 7434 C 674.181 -0.257353 -3.45744 0
M  V30 7435 C 673.242 -1.32718 -4.0827 0
M  V30 7436 C 672.475 -0.809674 -5.27522 0
M  V30 7437 O 672.698 0.35742 -5.69279 0
M  V30 7438 O 671.632 -1.57816 -5.80842 0
M  V30 7439 H 675.458 -1.71807 -2.50432 0
M  V30 7440 H 673.043 -0.898546 -1.19359 0
M  V30 7441 H 674.925 0.0408849 -4.2138 0
M  V30 7442 H 673.6 0.632627 -3.17458 0
M  V30 7443 H 672.507 -1.67855 -3.34329 0
M  V30 7444 H 673.84 -2.19083 -4.40753 0
M  V30 7445 N 675.492 1.28418 -0.913599 0
M  V30 7446 C 676.424 2.26368 -0.359169 0
M  V30 7447 C 677.437 1.54858 0.502285 0
M  V30 7448 O 678.626 1.75659 0.31719 0
M  V30 7449 C 675.726 3.35112 0.50526 0
M  V30 7450 C 674.899 4.36126 -0.333648 0
M  V30 7451 C 673.958 5.24134 0.465845 0
M  V30 7452 O 672.984 5.6907 -0.121538 0
M  V30 7453 N 674.186 5.52892 1.76891 0
M  V30 7454 H 676.951 2.74579 -1.2011 0
M  V30 7455 H 674.512 1.41898 -0.779532 0
M  V30 7456 H 676.504 3.90926 1.04684 0
M  V30 7457 H 675.074 2.86611 1.2479 0
M  V30 7458 H 674.294 3.79776 -1.0566 0
M  V30 7459 H 675.582 5.00638 -0.907669 0
M  V30 7460 H 674.98 5.18217 2.26865 0
M  V30 7461 H 673.537 6.11464 2.25732 0
M  V30 7462 N 676.97 0.677563 1.42291 0
M  V30 7463 C 678.247 0.129803 1.95169 0
M  V30 7464 C 678.627 -1.35605 1.61786 0
M  V30 7465 O 677.975 -2.09361 0.915444 0
M  V30 7466 C 678.185 0.401889 3.46678 0
M  V30 7467 C 679.533 0.319889 4.23393 0
M  V30 7468 O 680.557 0.33579 3.54614 0
M  V30 7469 O 679.416 0.264459 5.4586 0
M  V30 7470 H 676.51 0.00447433 0.826988 0
M  V30 7471 H 679.056 0.752483 1.52105 0
M  V30 7472 H 677.828 1.43108 3.64192 0
M  V30 7473 H 677.451 -0.252662 3.96796 0
M  V30 7474 N 678.448 -1.51871 0.421078 0
M  V30 7475 C 679.694 -2.02894 -0.143346 0
M  V30 7476 C 680.049 -1.30054 -1.41787 0
M  V30 7477 O 679.342 -0.401776 -1.8734 0
M  V30 7478 C 679.536 -3.54764 -0.433292 0
M  V30 7479 C 679.365 -4.42316 0.811584 0
M  V30 7480 C 678.135 -4.872 1.34033 0
M  V30 7481 C 680.333 -4.85631 1.69313 0
M  V30 7482 N 678.315 -5.58915 2.53944 0
M  V30 7483 C 679.686 -5.56248 2.7384 0
M  V30 7484 C 681.741 -4.67634 1.70947 0
M  V30 7485 C 680.444 -6.10777 3.79927 0
M  V30 7486 C 682.47 -5.23068 2.7596 0
M  V30 7487 C 681.832 -5.93617 3.79207 0
M  V30 7488 H 677.931 -0.78188 -0.0137104 0
M  V30 7489 H 680.515 -1.85919 0.578105 0
M  V30 7490 H 678.686 -3.71787 -1.12378 0
M  V30 7491 H 680.418 -3.92464 -0.987644 0
M  V30 7492 H 677.173 -4.65035 0.896606 0
M  V30 7493 H 677.597 -5.99408 3.14704 0
M  V30 7494 H 682.239 -4.12566 0.9246 0
M  V30 7495 H 679.957 -6.64909 4.59262 0
M  V30 7496 H 683.543 -5.11005 2.78147 0
M  V30 7497 H 682.423 -6.35743 4.5913 0
M  V30 7498 N 679.926 -0.151884 -1.56866 0
M  V30 7499 C 681.156 0.504081 -2.00356 0
M  V30 7500 C 681.564 1.58639 -1.03103 0
M  V30 7501 O 680.907 1.83688 -0.0207931 0
M  V30 7502 C 680.969 1.15975 -3.40279 0
M  V30 7503 C 680.633 0.221453 -4.56463 0
M  V30 7504 C 681.63 -0.552766 -5.16953 0
M  V30 7505 C 679.315 0.122936 -5.0215 0
M  V30 7506 C 681.309 -1.4129 -6.21543 0
M  V30 7507 C 678.996 -0.740801 -6.06593 0
M  V30 7508 C 679.994 -1.50732 -6.6616 0
M  V30 7509 O 679.682 -2.35666 -7.68581 0
M  V30 7510 H 679.414 0.135279 -0.662326 0
M  V30 7511 H 681.968 -0.244916 -2.03935 0
M  V30 7512 H 680.198 1.95649 -3.33554 0
M  V30 7513 H 681.887 1.71594 -3.67846 0
M  V30 7514 H 682.653 -0.486716 -4.82552 0
M  V30 7515 H 678.532 0.70931 -4.5551 0
M  V30 7516 H 682.076 -2.01166 -6.67966 0
M  V30 7517 H 677.973 -0.808125 -6.40421 0
M  V30 7518 H 678.741 -2.28967 -7.85822 0
M  V30 7519 N 681.404 1.57128 0.121893 0
M  V30 7520 C 682.354 1.96556 1.15541 0
M  V30 7521 C 683.338 0.840147 1.37224 0
M  V30 7522 O 684.53 1.10382 1.38365 0
M  V30 7523 C 681.659 2.37097 2.48274 0
M  V30 7524 C 680.745 3.56265 2.30078 0
M  V30 7525 N 681.136 4.72041 1.81688 0
M  V30 7526 C 679.434 3.61841 2.60744 0
M  V30 7527 C 680.135 5.54075 1.77132 0
M  V30 7528 N 679.111 4.96483 2.21371 0
M  V30 7529 H 682.913 2.83531 0.77378 0
M  V30 7530 H 680.427 1.59019 0.329672 0
M  V30 7531 H 682.424 2.6356 3.2302 0
M  V30 7532 H 681.084 1.51486 2.87197 0
M  V30 7533 H 682.095 4.95313 1.51278 0
M  V30 7534 H 678.772 2.8683 3.03373 0
M  V30 7535 H 680.162 6.56939 1.40998 0
M  V30 7536 N 682.882 -0.391992 1.52647 0
M  V30 7537 C 684.13 -1.13507 1.67214 0
M  V30 7538 C 684.451 -1.90575 0.41304 0
M  V30 7539 O 683.721 -1.87348 -0.572498 0
M  V30 7540 H 682.301 -0.422013 0.616372 0
M  V30 7541 H 684.963 -0.44502 1.89751 0
M  V30 7542 H 684.059 -1.83964 2.52118 0
M  V30 7543 N 684.36 -1.4356 -0.65026 0
M  V30 7544 C 685.323 -1.48615 -1.74489 0
M  V30 7545 C 686.323 -0.370483 -1.56474 0
M  V30 7546 O 687.513 -0.632351 -1.62317 0
M  V30 7547 C 684.645 -1.34161 -3.13391 0
M  V30 7548 H 685.838 -2.46103 -1.71387 0
M  V30 7549 H 683.391 -1.30369 -0.862186 0
M  V30 7550 H 684.126 -0.376918 -3.22102 0
M  V30 7551 H 683.911 -2.1504 -3.27872 0
M  V30 7552 H 685.401 -1.40637 -3.93206 0
M  V30 7553 N 685.838 0.888903 -1.30139 0
M  V30 7554 C 687.087 1.63507 -1.18103 0
M  V30 7555 C 687.4 1.93808 0.264141 0
M  V30 7556 O 688.606 2.66744 0.505966 0
M  V30 7557 C 687.062 2.94673 -2.0663 0
M  V30 7558 C 686.67 2.71926 -3.56034 0
M  V30 7559 C 688.414 3.72626 -2.03346 0
M  V30 7560 C 686.321 3.98884 -4.3663 0
M  V30 7561 H 685.251 0.613426 -0.438435 0
M  V30 7562 H 687.902 0.984427 -1.54859 0
M  V30 7563 H 686.284 3.61009 -1.62754 0
M  V30 7564 H 687.458 2.14116 -4.08033 0
M  V30 7565 H 685.773 2.07353 -3.61101 0
M  V30 7566 H 688.37 4.66775 -2.60816 0
M  V30 7567 H 688.713 4.03712 -1.016 0
M  V30 7568 H 689.246 3.13147 -2.45324 0
M  V30 7569 H 685.985 3.72959 -5.39056 0
M  V30 7570 H 685.505 4.56214 -3.89396 0
M  V30 7571 H 687.184 4.66938 -4.47859 0
M  V30 7572 N 687.317 1.12792 1.10072 0
M  V30 7573 C 688.728 0.899346 1.63611 0
M  V30 7574 C 689.079 -0.565547 1.87872 0
M  V30 7575 O 688.204 -1.43081 1.62348 0
M  V30 7576 C 688.799 1.62608 2.97227 0
M  V30 7577 C 687.358 1.44356 3.47618 0
M  V30 7578 C 686.505 1.65958 2.22156 0
M  V30 7579 H 689.456 1.28216 0.935223 0
M  V30 7580 H 689.477 1.0793 3.64872 0
M  V30 7581 H 688.989 2.69221 2.79538 0
M  V30 7582 H 687.09 0.400148 3.70445 0
M  V30 7583 H 687.203 2.20218 4.25489 0
M  V30 7584 H 685.567 1.08395 2.30484 0
M  V30 7585 H 686.35 2.73877 2.06993 0
M  V30 7586 N 688.795 -1.27931 0.920396 0
M  V30 7587 C 690.211 -1.47085 0.619537 0
M  V30 7588 C 690.411 -1.83463 -0.833291 0
M  V30 7589 O 689.467 -1.94363 -1.61181 0
M  V30 7590 C 690.78 -2.56878 1.56314 0
M  V30 7591 C 692.328 -2.70743 1.57058 0
M  V30 7592 C 692.803 -3.83687 2.50097 0
M  V30 7593 N 694.294 -3.9105 2.48262 0
M  V30 7594 C 695.029 -4.77842 3.16945 0
M  V30 7595 N 694.525 -5.69176 3.94982 0
M  V30 7596 N 696.318 -4.71509 3.06 0
M  V30 7597 H 688.469 -1.02601 1.85975 0
M  V30 7598 H 690.732 -0.511682 0.798051 0
M  V30 7599 H 690.438 -2.36923 2.59923 0
M  V30 7600 H 690.312 -3.54117 1.29928 0
M  V30 7601 H 692.699 -2.90083 0.541832 0
M  V30 7602 H 692.78 -1.74015 1.8749 0
M  V30 7603 H 692.424 -3.65101 3.53077 0
M  V30 7604 H 692.354 -4.79827 2.16964 0
M  V30 7605 H 694.845 -3.25738 1.91581 0
M  V30 7606 H 695.158 -6.32245 4.44394 0
M  V30 7607 H 693.503 -5.68995 3.99086 0
M  V30 7608 H 696.694 -3.99151 2.44533 0
M  V30 7609 H 696.867 -5.38933 3.59799 0
M  V30 7610 N 690.273 -0.685099 -1.4193 0
M  V30 7611 C 691.522 -0.208816 -2.00616 0
M  V30 7612 C 691.835 1.19506 -1.54847 0
M  V30 7613 O 693.041 1.76826 -2.06021 0
M  V30 7614 C 691.497 -0.322446 -3.58453 0
M  V30 7615 C 691.105 -1.73102 -4.13206 0
M  V30 7616 C 692.849 0.0945979 -4.24395 0
M  V30 7617 C 690.756 -1.79687 -5.63442 0
M  V30 7618 H 689.686 -0.0743092 -0.750329 0
M  V30 7619 H 692.337 -0.851778 -1.62533 0
M  V30 7620 H 690.719 0.388588 -3.94089 0
M  V30 7621 H 691.893 -2.46997 -3.8901 0
M  V30 7622 H 690.208 -2.09682 -3.59753 0
M  V30 7623 H 692.805 0.0656937 -5.3466 0
M  V30 7624 H 693.148 1.1316 -4.00625 0
M  V30 7625 H 693.681 -0.56579 -3.93756 0
M  V30 7626 H 690.42 -2.81404 -5.92024 0
M  V30 7627 H 689.94 -1.10162 -5.89597 0
M  V30 7628 H 691.619 -1.55498 -6.28036 0
M  V30 7629 N 691.751 1.51645 -0.429126 0
M  V30 7630 C 692.661 2.31288 0.392809 0
M  V30 7631 C 693.677 1.39852 1.03525 0
M  V30 7632 O 694.853 1.72926 1.03241 0
M  V30 7633 C 691.918 3.13347 1.48372 0
M  V30 7634 C 690.979 4.20551 0.862268 0
M  V30 7635 C 690.212 4.98688 1.9012 0
M  V30 7636 O 690.435 4.77359 3.12225 0
M  V30 7637 O 689.369 5.83005 1.4963 0
M  V30 7638 H 693.195 3.02609 -0.257138 0
M  V30 7639 H 690.78 1.48163 -0.191851 0
M  V30 7640 H 692.662 3.64387 2.1166 0
M  V30 7641 H 691.337 2.44799 2.1179 0
M  V30 7642 H 690.244 3.73609 0.191568 0
M  V30 7643 H 691.577 4.91449 0.271704 0
M  V30 7644 N 693.229 0.160201 1.56784 0
M  V30 7645 C 694.192 -0.760405 2.16219 0
M  V30 7646 C 695.192 -1.16595 1.10735 0
M  V30 7647 O 696.382 -1.08472 1.36306 0
M  V30 7648 C 693.514 -2.03358 2.73603 0
M  V30 7649 H 694.707 -0.243173 2.98912 0
M  V30 7650 H 692.26 -0.0893139 1.56045 0
M  V30 7651 H 692.995 -2.59416 1.94612 0
M  V30 7652 H 692.78 -1.75186 3.50788 0
M  V30 7653 H 694.27 -2.69081 3.19351 0
M  V30 7654 N 694.707 -1.5719 -0.113559 0
M  V30 7655 C 695.639 -1.97393 -1.16484 0
M  V30 7656 C 696.652 -0.873964 -1.37352 0
M  V30 7657 O 697.841 -1.15222 -1.36331 0
M  V30 7658 C 694.941 -2.26174 -2.52386 0
M  V30 7659 C 694.114 -3.57479 -2.52046 0
M  V30 7660 C 693.173 -3.74409 -3.69735 0
M  V30 7661 O 692.199 -4.46463 -3.53071 0
M  V30 7662 N 693.401 -3.13588 -4.88511 0
M  V30 7663 H 696.166 -2.88184 -0.822814 0
M  V30 7664 H 693.727 -1.59044 -0.302769 0
M  V30 7665 H 695.719 -2.3471 -3.29687 0
M  V30 7666 H 694.289 -1.41483 -2.7875 0
M  V30 7667 H 693.509 -3.60081 -1.60421 0
M  V30 7668 H 694.797 -4.43775 -2.48881 0
M  V30 7669 H 694.195 -2.55026 -5.04953 0
M  V30 7670 H 692.752 -3.27637 -5.63469 0
M  V30 7671 N 696.185 0.383891 -1.52853 0
M  V30 7672 C 697.095 1.49343 -1.80925 0
M  V30 7673 C 698.111 1.59458 -0.696348 0
M  V30 7674 O 699.287 1.75698 -0.984481 0
M  V30 7675 C 696.352 2.84819 -1.97684 0
M  V30 7676 C 695.413 2.84382 -3.21598 0
M  V30 7677 C 694.646 4.13397 -3.37548 0
M  V30 7678 O 694.869 5.08619 -2.58192 0
M  V30 7679 O 693.803 4.20325 -4.30826 0
M  V30 7680 H 697.629 1.2855 -2.75152 0
M  V30 7681 H 695.214 0.572229 -1.38007 0
M  V30 7682 H 697.096 3.65125 -2.10385 0
M  V30 7683 H 695.771 3.05627 -1.06647 0
M  V30 7684 H 694.678 2.0284 -3.14336 0
M  V30 7685 H 696.011 2.68526 -4.12498 0
M  V30 7686 N 697.663 1.43903 0.642637 0
M  V30 7687 C 698.593 1.52697 1.76652 0
M  V30 7688 C 699.574 0.380816 1.65782 0
M  V30 7689 O 700.759 0.599432 1.84717 0
M  V30 7690 C 697.889 1.45975 3.15133 0
M  V30 7691 C 696.843 2.58949 3.40778 0
M  V30 7692 C 696.169 2.37279 4.79169 0
M  V30 7693 C 697.469 4.01153 3.34475 0
M  V30 7694 H 699.163 2.46766 1.69549 0
M  V30 7695 H 696.709 1.18767 0.814279 0
M  V30 7696 H 698.662 1.5073 3.93521 0
M  V30 7697 H 697.386 0.484162 3.22991 0
M  V30 7698 H 696.045 2.53564 2.64765 0
M  V30 7699 H 695.693 1.37939 4.83717 0
M  V30 7700 H 695.393 3.13016 4.97287 0
M  V30 7701 H 696.917 2.43834 5.59801 0
M  V30 7702 H 698.331 4.07968 4.02784 0
M  V30 7703 H 696.728 4.77001 3.64129 0
M  V30 7704 H 697.798 4.25539 2.32475 0
M  V30 7705 N 699.141 -0.881989 1.30609 0
M  V30 7706 C 700.071 -2.00413 1.1982 0
M  V30 7707 C 701.052 -1.69871 0.0881538 0
M  V30 7708 O 702.237 -1.92304 0.2707 0
M  V30 7709 C 699.367 -3.35641 0.89233 0
M  V30 7710 C 698.321 -3.80451 1.96064 0
M  V30 7711 C 697.647 -5.13003 1.5077 0
M  V30 7712 C 698.947 -3.98855 3.37213 0
M  V30 7713 H 700.641 -2.09698 2.13699 0
M  V30 7714 H 698.187 -1.00754 1.02882 0
M  V30 7715 H 700.14 -4.13669 0.803497 0
M  V30 7716 H 698.864 -3.26497 -0.0821381 0
M  V30 7717 H 697.523 -3.04654 2.03916 0
M  V30 7718 H 697.171 -5.0029 0.521417 0
M  V30 7719 H 696.871 -5.43956 2.22229 0
M  V30 7720 H 698.395 -5.93554 1.43271 0
M  V30 7721 H 699.809 -4.67312 3.32103 0
M  V30 7722 H 698.206 -4.41188 4.06784 0
M  V30 7723 H 699.276 -3.02614 3.78883 0
M  V30 7724 N 700.619 -1.13374 -1.09472 0
M  V30 7725 C 701.566 -0.810682 -2.16094 0
M  V30 7726 C 702.536 0.227003 -1.64541 0
M  V30 7727 O 703.721 0.0993538 -1.90541 0
M  V30 7728 C 700.861 -0.282336 -3.43943 0
M  V30 7729 C 699.974 -1.37902 -4.09398 0
M  V30 7730 C 699.109 -0.809066 -5.25002 0
M  V30 7731 C 698.148 -1.88419 -5.82379 0
M  V30 7732 N 697.285 -1.33221 -6.89345 0
M  V30 7733 H 702.125 -1.72397 -2.43071 0
M  V30 7734 H 699.662 -0.860564 -1.19301 0
M  V30 7735 H 701.62 0.0421189 -4.17179 0
M  V30 7736 H 700.25 0.594083 -3.17286 0
M  V30 7737 H 699.302 -1.82008 -3.34032 0
M  V30 7738 H 700.614 -2.19161 -4.48074 0
M  V30 7739 H 699.768 -0.435867 -6.05132 0
M  V30 7740 H 698.507 0.0346058 -4.87688 0
M  V30 7741 H 697.512 -2.26646 -5.00911 0
M  V30 7742 H 698.737 -2.73125 -6.21755 0
M  V30 7743 H 696.683 -0.510535 -6.5401 0
M  V30 7744 H 696.6 -2.08129 -7.26786 0
M  V30 7745 H 697.868 -0.986565 -7.73232 0
M  V30 7746 N 702.098 1.27442 -0.927168 0
M  V30 7747 C 703.045 2.26863 -0.424459 0
M  V30 7748 C 704.015 1.5813 0.508346 0
M  V30 7749 O 705.2 1.85946 0.42762 0
M  V30 7750 C 702.34 3.43639 0.31718 0
M  V30 7751 C 701.453 4.27087 -0.649675 0
M  V30 7752 C 700.588 5.31082 0.111753 0
M  V30 7753 C 699.627 6.062 -0.847843 0
M  V30 7754 N 698.764 7.01999 -0.119074 0
M  V30 7755 H 703.604 2.69239 -1.27728 0
M  V30 7756 H 701.141 1.32394 -0.641106 0
M  V30 7757 H 703.099 4.10155 0.763486 0
M  V30 7758 H 701.729 3.02217 1.13424 0
M  V30 7759 H 700.781 3.60491 -1.21451 0
M  V30 7760 H 702.093 4.79242 -1.38307 0
M  V30 7761 H 701.247 6.03544 0.618 0
M  V30 7762 H 699.986 4.7973 0.878114 0
M  V30 7763 H 698.991 5.32577 -1.36534 0
M  V30 7764 H 700.216 6.59642 -1.61398 0
M  V30 7765 H 698.162 6.52977 0.629051 0
M  V30 7766 H 698.079 7.5184 -0.792046 0
M  V30 7767 H 699.347 7.78638 0.366537 0
M  V30 7768 N 703.576 0.692616 1.41565 0
M  V30 7769 C 704.508 -0.0137132 2.29196 0
M  V30 7770 C 705.521 -0.747417 1.44629 0
M  V30 7771 O 706.71 -0.598611 1.68163 0
M  V30 7772 C 703.81 -1.04347 3.22436 0
M  V30 7773 C 702.983 -0.379985 4.35746 0
M  V30 7774 C 702.042 -1.31195 5.09583 0
M  V30 7775 O 701.068 -0.805455 5.63472 0
M  V30 7776 N 702.27 -2.64443 5.16769 0
M  V30 7777 H 705.035 0.738614 2.90456 0
M  V30 7778 H 702.596 0.538415 1.52685 0
M  V30 7779 H 704.588 -1.6686 3.687 0
M  V30 7780 H 703.158 -1.69736 2.62504 0
M  V30 7781 H 702.378 0.424975 3.91903 0
M  V30 7782 H 703.666 0.0814904 5.08735 0
M  V30 7783 H 703.064 -3.08114 4.74428 0
M  V30 7784 H 701.621 -3.22159 5.66619 0
M  V30 7785 N 705.054 -1.51416 0.437162 0
M  V30 7786 C 706.302 -2.01687 -0.129108 0
M  V30 7787 C 706.623 -1.32329 -1.43227 0
M  V30 7788 O 705.893 -0.457796 -1.90476 0
M  V30 7789 H 704.473 -0.745277 -0.0507023 0
M  V30 7790 H 707.135 -1.86075 0.579828 0
M  V30 7791 H 706.231 -3.10605 -0.305141 0
M  V30 7792 N 706.532 -0.168513 -1.56696 0
M  V30 7793 C 707.809 0.523367 -1.88468 0
M  V30 7794 C 708.189 1.81503 -1.07796 0
M  V30 7795 O 707.537 2.27859 -0.171045 0
M  V30 7796 C 707.747 0.767991 -3.40445 0
M  V30 7797 C 709.095 1.09924 -4.10124 0
M  V30 7798 O 710.119 0.856625 -3.45746 0
M  V30 7799 O 708.978 1.55681 -5.23856 0
M  V30 7800 H 706.072 0.269447 -0.781874 0
M  V30 7801 H 708.618 -0.206739 -1.68436 0
M  V30 7802 H 707.39 -0.145254 -3.9103 0
M  V30 7803 H 707.013 1.55151 -3.66079 0
M  V30 7804 N 708.01 1.57248 0.105221 0
M  V30 7805 C 709.257 1.8557 0.810552 0
M  V30 7806 C 709.585 0.755595 1.79223 0
M  V30 7807 O 708.84 -0.251788 1.94073 0
M  V30 7808 C 709.139 3.20437 1.58287 0
M  V30 7809 C 708.805 4.44716 0.744235 0
M  V30 7810 C 707.467 4.78458 0.513013 0
M  V30 7811 C 709.819 5.20953 0.160578 0
M  V30 7812 C 707.147 5.8587 -0.311894 0
M  V30 7813 C 709.499 6.29235 -0.651596 0
M  V30 7814 C 708.163 6.615 -0.893005 0
M  V30 7815 H 707.433 0.67905 0.296602 0
M  V30 7816 H 710.08 1.91363 0.0723968 0
M  V30 7817 H 708.385 3.10283 2.39232 0
M  V30 7818 H 710.082 3.39576 2.13282 0
M  V30 7819 H 706.672 4.18287 0.934555 0
M  V30 7820 H 710.856 4.95226 0.3264 0
M  V30 7821 H 706.112 6.09286 -0.508012 0
M  V30 7822 H 710.286 6.87484 -1.11077 0
M  V30 7823 H 707.913 7.44562 -1.53401 0
M  V30 7824 N 709.488 -0.375779 1.53054 0
M  V30 7825 C 710.418 -1.46598 1.81745 0
M  V30 7826 C 711.399 -1.56337 0.670286 0
M  V30 7827 O 712.584 -1.71071 0.919158 0
M  V30 7828 C 709.714 -2.84058 1.99821 0
M  V30 7829 C 708.668 -2.8915 3.15557 0
M  V30 7830 C 707.994 -4.29187 3.18908 0
M  V30 7831 C 709.294 -2.57595 4.54359 0
M  V30 7832 H 710.988 -1.22837 2.73041 0
M  V30 7833 H 708.534 -0.589485 1.31381 0
M  V30 7834 H 710.487 -3.60342 2.18475 0
M  V30 7835 H 709.211 -3.09184 1.05226 0
M  V30 7836 H 707.87 -2.15316 2.96706 0
M  V30 7837 H 707.518 -4.51374 2.2197 0
M  V30 7838 H 707.218 -4.33512 3.96662 0
M  V30 7839 H 708.742 -5.07359 3.39734 0
M  V30 7840 H 710.156 -3.23595 4.73243 0
M  V30 7841 H 708.553 -2.73252 5.34279 0
M  V30 7842 H 709.623 -1.52882 4.60169 0
M  V30 7843 N 710.966 -1.44241 -0.634997 0
M  V30 7844 C 712.212 -1.47038 -1.39669 0
M  V30 7845 C 712.545 -0.101122 -1.93937 0
M  V30 7846 O 711.82 0.880699 -1.73418 0
M  V30 7847 C 712.103 -2.52763 -2.56482 0
M  V30 7848 C 711.956 -3.99032 -2.07589 0
M  V30 7849 C 713.275 -2.55031 -3.58674 0
M  V30 7850 H 710.394 -0.53537 -0.506506 0
M  V30 7851 H 713.036 -1.75898 -0.718317 0
M  V30 7852 H 711.186 -2.28284 -3.14354 0
M  V30 7853 H 712.858 -4.3463 -1.54577 0
M  V30 7854 H 711.101 -4.10994 -1.38804 0
M  V30 7855 H 711.772 -4.68649 -2.91671 0
M  V30 7856 H 714.248 -2.76893 -3.10595 0
M  V30 7857 H 713.124 -3.30916 -4.37934 0
M  V30 7858 H 713.385 -1.59085 -4.12486 0
M  V30 7859 N 712.444 0.87505 -1.31075 0
M  V30 7860 C 713.86 1.15997 -1.09622 0
M  V30 7861 C 714.06 2.01036 0.136611 0
M  V30 7862 O 713.116 2.38559 0.827397 0
M  V30 7863 C 714.429 1.85702 -2.36506 0
M  V30 7864 C 715.977 1.98425 -2.42067 0
M  V30 7865 C 716.452 2.71544 -3.68819 0
M  V30 7866 N 717.943 2.79084 -3.69684 0
M  V30 7867 C 718.678 3.36259 -4.64454 0
M  V30 7868 N 718.174 3.94406 -5.69575 0
M  V30 7869 N 719.967 3.34169 -4.51982 0
M  V30 7870 H 712.118 0.308258 -2.10151 0
M  V30 7871 H 714.381 0.199145 -0.926847 0
M  V30 7872 H 714.087 1.30663 -3.26527 0
M  V30 7873 H 713.961 2.86017 -2.45915 0
M  V30 7874 H 716.348 2.5263 -1.52518 0
M  V30 7875 H 716.429 0.971682 -2.36626 0
M  V30 7876 H 716.073 2.18008 -4.58732 0
M  V30 7877 H 716.003 3.73198 -3.71525 0
M  V30 7878 H 718.494 2.3781 -2.93691 0
M  V30 7879 H 718.807 4.36129 -6.37974 0
M  V30 7880 H 717.152 3.92797 -5.73355 0
M  V30 7881 H 720.343 2.87977 -3.69035 0
M  V30 7882 H 720.516 3.78431 -5.26017 0
M  V30 7883 N 713.922 1.13953 1.08869 0
M  V30 7884 C 714.832 0.835666 2.19212 0
M  V30 7885 C 715.848 -0.182005 1.73045 0
M  V30 7886 O 717.024 -0.0116661 2.01397 0
M  V30 7887 C 714.089 0.312325 3.4529 0
M  V30 7888 C 713.15 1.39196 4.06107 0
M  V30 7889 C 712.383 0.893496 5.26168 0
M  V30 7890 O 712.606 -0.266807 5.69776 0
M  V30 7891 O 711.54 1.67037 5.78258 0
M  V30 7892 H 715.366 1.75769 2.47667 0
M  V30 7893 H 712.951 0.917421 1.17914 0
M  V30 7894 H 714.833 0.0261582 4.21392 0
M  V30 7895 H 713.508 -0.582042 3.18424 0
M  V30 7896 H 712.415 1.73152 3.31616 0
M  V30 7897 H 713.748 2.26068 4.37212 0
M  V30 7898 N 715.4 -1.26948 0.933913 0
M  V30 7899 C 716.625 -1.98724 0.593589 0
M  V30 7900 C 717.05 -1.6915 -0.822801 0
M  V30 7901 O 716.408 -0.93533 -1.5531 0
M  V30 7902 C 716.456 -3.50834 0.833542 0
M  V30 7903 O 715.56 -4.12284 -0.0978788 0
M  V30 7904 H 714.901 -0.623683 0.227849 0
M  V30 7905 H 717.431 -1.61599 1.25486 0
M  V30 7906 H 717.441 -4.01018 0.75156 0
M  V30 7907 H 716.116 -3.71691 1.86597 0
M  V30 7908 H 714.693 -3.72884 0.0345443 0
M  V30 7909 N 716.879 -0.700114 -1.41195 0
M  V30 7910 C 717.829 -0.0144098 -2.27995 0
M  V30 7911 C 718.813 0.748249 -1.42443 0
M  V30 7912 O 720.005 0.622995 -1.65674 0
M  V30 7913 C 717.134 0.917938 -3.308 0
M  V30 7914 C 716.22 0.151286 -4.2383 0
M  V30 7915 N 716.611 -0.85732 -4.98481 0
M  V30 7916 C 714.909 0.386108 -4.44326 0
M  V30 7917 C 715.61 -1.31663 -5.66604 0
M  V30 7918 N 714.586 -0.641689 -5.39799 0
M  V30 7919 H 718.388 -0.787662 -2.83149 0
M  V30 7920 H 715.902 -0.531344 -1.53462 0
M  V30 7921 H 717.899 1.42437 -3.91813 0
M  V30 7922 H 716.559 1.69074 -2.77208 0
M  V30 7923 H 717.57 -1.2377 -5.02893 0
M  V30 7924 H 714.247 1.13644 -4.01735 0
M  V30 7925 H 715.637 -2.15384 -6.36443 0
M  V30 7926 N 718.357 1.51182 -0.445186 0
M  V30 7927 C 719.605 2.01753 0.11841 0
M  V30 7928 C 719.926 1.33087 1.42523 0
M  V30 7929 O 719.196 0.467891 1.9023 0
M  V30 7930 H 717.776 0.745536 0.0467492 0
M  V30 7931 H 720.438 1.85765 -0.589688 0
M  V30 7932 H 719.534 3.10762 0.288665 0
M  V30 7933 N 719.835 0.176821 1.56605 0
M  V30 7934 C 720.782 -0.751312 2.18229 0
M  V30 7935 C 721.752 -1.22297 1.12395 0
M  V30 7936 O 722.937 -1.29015 1.40569 0
M  V30 7937 C 720.077 -1.97291 2.83143 0
M  V30 7938 C 719.19 -1.54431 4.03454 0
M  V30 7939 C 718.325 -2.72 4.56278 0
M  V30 7940 C 717.364 -2.25657 5.68986 0
M  V30 7941 N 716.501 -3.36338 6.16296 0
M  V30 7942 H 721.341 -0.219033 2.97194 0
M  V30 7943 H 718.878 -0.0963803 1.46784 0
M  V30 7944 H 720.836 -2.68949 3.1894 0
M  V30 7945 H 719.466 -2.4788 2.06773 0
M  V30 7946 H 718.518 -0.724273 3.73441 0
M  V30 7947 H 719.83 -1.16417 4.85024 0
M  V30 7948 H 718.984 -3.51806 4.94285 0
M  V30 7949 H 717.723 -3.13277 3.73777 0
M  V30 7950 H 716.728 -1.44299 5.30526 0
M  V30 7951 H 717.953 -1.85432 6.53293 0
M  V30 7952 H 715.899 -3.7718 5.36723 0
M  V30 7953 H 715.816 -3.02435 6.9287 0
M  V30 7954 H 717.084 -4.16413 6.58954 0
M  V30 7955 N 721.313 -1.57302 -0.09688 0
M  V30 7956 C 722.724 -1.7496 -0.651595 0
M  V30 7957 C 723.075 -0.798746 -1.79205 0
M  V30 7958 O 722.2 0.0231858 -2.16388 0
M  V30 7959 C 722.795 -3.17259 -1.18878 0
M  V30 7960 C 721.354 -3.36348 -1.68958 0
M  V30 7961 C 720.501 -2.70766 -0.598413 0
M  V30 7962 H 723.452 -1.58173 0.12918 0
M  V30 7963 H 723.473 -3.20033 -2.05814 0
M  V30 7964 H 722.985 -3.8644 -0.358523 0
M  V30 7965 H 721.086 -2.72243 -2.5439 0
M  V30 7966 H 721.199 -4.44654 -1.7838 0
M  V30 7967 H 719.563 -2.32615 -1.03743 0
M  V30 7968 H 720.346 -3.42586 0.221238 0
M  V30 7969 N 722.791 0.367657 -1.53252 0
M  V30 7970 C 724.039 1.10832 -1.68999 0
M  V30 7971 C 724.36 1.89894 -0.443306 0
M  V30 7972 O 723.63 1.88235 0.54262 0
M  V30 7973 H 722.21 0.412153 -0.623008 0
M  V30 7974 H 724.872 0.414775 -1.90435 0
M  V30 7975 H 723.968 1.7993 -2.55013 0
M  V30 7976 N 724.269 1.44576 0.627338 0
M  V30 7977 C 725.179 1.54232 1.76776 0
M  V30 7978 C 726.195 0.427782 1.6866 0
M  V30 7979 O 727.371 0.685671 1.89369 0
M  V30 7980 C 724.436 1.48738 3.13174 0
M  V30 7981 C 723.497 2.71074 3.32893 0
M  V30 7982 C 722.73 2.65832 4.62784 0
M  V30 7983 O 722.953 1.72048 5.43834 0
M  V30 7984 O 721.887 3.56742 4.84787 0
M  V30 7985 H 725.713 2.50586 1.71582 0
M  V30 7986 H 723.298 1.26865 0.789028 0
M  V30 7987 H 725.18 1.48211 3.94476 0
M  V30 7988 H 723.855 0.555292 3.18902 0
M  V30 7989 H 722.762 2.77168 2.51254 0
M  V30 7990 H 724.095 3.63342 3.32029 0
M  V30 7991 N 725.747 -0.868086 1.31537 0
M  V30 7992 C 726.977 -1.65162 1.24118 0
M  V30 7993 C 727.385 -1.88187 -0.195558 0
M  V30 7994 O 726.728 -1.44154 -1.13866 0
M  V30 7995 C 726.79 -3.04119 1.91708 0
M  V30 7996 C 726.454 -3.04194 3.4105 0
M  V30 7997 C 727.451 -2.82016 4.36764 0
M  V30 7998 C 725.136 -3.25256 3.82772 0
M  V30 7999 C 727.13 -2.80881 5.72175 0
M  V30 8000 C 724.817 -3.23749 5.18295 0
M  V30 8001 C 725.815 -3.01589 6.12808 0
M  V30 8002 O 725.503 -2.9993 7.45853 0
M  V30 8003 H 725.235 -0.521597 0.430015 0
M  V30 8004 H 727.789 -1.09165 1.73989 0
M  V30 8005 H 726.019 -3.61849 1.36389 0
M  V30 8006 H 727.708 -3.64701 1.78179 0
M  V30 8007 H 728.474 -2.65525 4.05859 0
M  V30 8008 H 724.353 -3.41534 3.09638 0
M  V30 8009 H 727.897 -2.63503 6.45919 0
M  V30 8010 H 723.794 -3.39781 5.48834 0
M  V30 8011 H 724.562 -3.15979 7.55049 0
M  V30 8012 N 727.225 -1.14528 -1.08264 0
M  V30 8013 C 728.471 -0.91576 -1.80947 0
M  V30 8014 C 728.804 0.55623 -1.86064 0
M  V30 8015 O 728.079 1.41207 -1.33756 0
M  V30 8016 C 728.362 -1.51917 -3.26486 0
M  V30 8017 C 728.215 -3.06111 -3.2957 0
M  V30 8018 C 729.534 -1.19724 -4.23502 0
M  V30 8019 H 726.653 -0.334113 -0.656915 0
M  V30 8020 H 729.295 -1.41547 -1.26746 0
M  V30 8021 H 727.445 -1.0942 -3.72773 0
M  V30 8022 H 729.117 -3.57448 -2.91597 0
M  V30 8023 H 727.36 -3.40483 -2.688 0
M  V30 8024 H 728.031 -3.43438 -4.32151 0
M  V30 8025 H 730.507 -1.56467 -3.85561 0
M  V30 8026 H 729.383 -1.64575 -5.23647 0
M  V30 8027 H 729.644 -0.112771 -4.41956 0
M  V30 8028 N 728.703 1.26451 -0.940633 0
M  V30 8029 C 729.633 2.28773 -0.467479 0
M  V30 8030 C 730.614 1.63218 0.478955 0
M  V30 8031 O 731.799 1.90427 0.380929 0
M  V30 8032 C 728.929 3.46259 0.268656 0
M  V30 8033 C 727.883 4.23898 -0.591171 0
M  V30 8034 C 727.209 5.33993 0.274891 0
M  V30 8035 C 728.509 4.87974 -1.86223 0
M  V30 8036 H 730.203 2.68601 -1.32265 0
M  V30 8037 H 727.749 1.29123 -0.637436 0
M  V30 8038 H 729.702 4.16951 0.610696 0
M  V30 8039 H 728.426 3.05383 1.15796 0
M  V30 8040 H 727.085 3.54969 -0.916098 0
M  V30 8041 H 726.733 4.89358 1.16353 0
M  V30 8042 H 726.433 5.86849 -0.297006 0
M  V30 8043 H 727.957 6.07523 0.612213 0
M  V30 8044 H 729.371 5.50883 -1.58747 0
M  V30 8045 H 727.768 5.50945 -2.37866 0
M  V30 8046 H 728.838 4.10945 -2.57394 0
M  V30 8047 N 730.181 0.707592 1.40822 0
M  V30 8048 C 731.406 0.251626 2.05868 0
M  V30 8049 C 731.831 -1.09503 1.5294 0
M  V30 8050 O 731.189 -1.68806 0.661385 0
M  V30 8051 C 731.237 0.23287 3.59847 0
M  V30 8052 O 730.341 -0.788477 4.04792 0
M  V30 8053 H 729.682 0.119936 0.653078 0
M  V30 8054 H 732.212 0.96583 1.80369 0
M  V30 8055 H 732.222 0.0678204 4.07944 0
M  V30 8056 H 730.897 1.21565 3.97737 0
M  V30 8057 H 729.474 -0.591802 3.68174 0
M  V30 8058 N 731.66 -1.50943 0.453197 0
M  V30 8059 C 732.906 -2.02512 -0.108082 0
M  V30 8060 C 733.239 -1.33574 -1.40967 0
M  V30 8061 O 732.514 -0.455671 -1.89087 0
M  V30 8062 C 732.797 -3.58759 -0.310453 0
M  V30 8063 C 732.65 -4.38293 1.0109 0
M  V30 8064 C 733.969 -4.26816 -1.07313 0
M  V30 8065 H 731.088 -0.73603 -0.0378064 0
M  V30 8066 H 733.73 -1.80433 0.595295 0
M  V30 8067 H 731.88 -3.77702 -0.909582 0
M  V30 8068 H 733.552 -4.30964 1.64523 0
M  V30 8069 H 731.795 -4.02745 1.61179 0
M  V30 8070 H 732.466 -5.45828 0.82315 0
M  V30 8071 H 734.942 -4.1224 -0.565473 0
M  V30 8072 H 733.818 -5.35989 -1.1835 0
M  V30 8073 H 734.079 -3.88757 -2.10525 0
M  V30 8074 N 733.138 -0.185124 -1.56509 0
M  V30 8075 C 734.368 0.461469 -2.0138 0
M  V30 8076 C 734.776 1.56417 -1.06445 0
M  V30 8077 O 734.119 1.83603 -0.0597515 0
M  V30 8078 C 734.181 1.08731 -3.42663 0
M  V30 8079 C 733.845 0.124581 -4.5683 0
M  V30 8080 C 734.842 -0.662295 -5.15664 0
M  V30 8081 C 732.527 0.0163947 -5.02297 0
M  V30 8082 C 734.521 -1.54442 -6.18406 0
M  V30 8083 C 732.208 -0.869301 -6.04885 0
M  V30 8084 C 733.206 -1.64828 -6.62813 0
M  V30 8085 O 732.894 -2.51915 -7.63409 0
M  V30 8086 H 732.626 0.1212 -0.665046 0
M  V30 8087 H 735.18 -0.288119 -2.03369 0
M  V30 8088 H 733.41 1.8853 -3.37629 0
M  V30 8089 H 735.099 1.63753 -3.71403 0
M  V30 8090 H 735.865 -0.588963 -4.81411 0
M  V30 8091 H 731.744 0.61253 -4.56913 0
M  V30 8092 H 735.288 -2.15289 -6.63548 0
M  V30 8093 H 731.185 -0.943786 -6.38563 0
M  V30 8094 H 731.953 -2.45584 -7.80789 0
M  V30 8095 N 734.616 1.57351 0.0885366 0
M  V30 8096 C 735.841 1.91011 0.80805 0
M  V30 8097 C 736.266 0.780009 1.71165 0
M  V30 8098 O 735.624 -0.268083 1.79307 0
M  V30 8099 C 735.672 3.23562 1.59185 0
M  V30 8100 O 734.776 3.11615 2.7013 0
M  V30 8101 H 734.117 0.625943 0.221565 0
M  V30 8102 H 736.647 2.04507 0.0617954 0
M  V30 8103 H 736.657 3.5703 1.97468 0
M  V30 8104 H 735.332 4.05398 0.928741 0
M  V30 8105 H 733.909 2.89673 2.34827 0
M  V30 8106 N 736.094 -0.359525 1.53444 0
M  V30 8107 C 737.371 -1.11756 1.6053 0
M  V30 8108 C 737.751 -2.06949 0.416587 0
M  V30 8109 O 737.099 -2.20681 -0.592628 0
M  V30 8110 C 737.309 -1.85133 2.95849 0
M  V30 8111 C 738.657 -2.3945 3.50641 0
M  V30 8112 O 739.681 -1.95251 2.97918 0
M  V30 8113 O 738.54 -3.20266 4.42823 0
M  V30 8114 H 735.634 -0.513005 0.648656 0
M  V30 8115 H 738.18 -0.362301 1.65787 0
M  V30 8116 H 736.952 -1.15694 3.73806 0
M  V30 8117 H 736.575 -2.67554 2.9411 0
M  V30 8118 N 737.572 -1.44907 -0.619662 0
M  V30 8119 C 738.82 -1.47999 -1.37625 0
M  V30 8120 C 739.141 -0.118295 -1.94641 0
M  V30 8121 O 738.411 0.85086 -1.76457 0
M  V30 8122 H 736.991 -0.544993 -0.510873 0
M  V30 8123 H 739.653 -1.80772 -0.728522 0
M  V30 8124 H 738.749 -2.21196 -2.20179 0
M  V30 8125 N 739.05 0.861098 -1.31996 0
M  V30 8126 C 739.982 1.97551 -1.16216 0
M  V30 8127 C 740.995 1.625 -0.0988527 0
M  V30 8128 O 742.184 1.75091 -0.3472 0
M  V30 8129 C 739.284 3.30376 -0.755307 0
M  V30 8130 C 738.457 3.93711 -1.90552 0
M  V30 8131 C 737.516 5.04862 -1.48328 0
M  V30 8132 O 736.542 5.25204 -2.19431 0
M  V30 8133 N 737.744 5.79283 -0.375656 0
M  V30 8134 H 740.509 2.11632 -2.12208 0
M  V30 8135 H 738.07 1.03559 -1.24448 0
M  V30 8136 H 740.062 4.0213 -0.455364 0
M  V30 8137 H 738.632 3.12395 0.113269 0
M  V30 8138 H 737.852 3.14825 -2.37231 0
M  V30 8139 H 739.14 4.32762 -2.67571 0
M  V30 8140 H 738.538 5.65286 0.216284 0
M  V30 8141 H 737.095 6.5166 -0.135289 0
M  V30 8142 N 740.528 1.15101 1.07655 0
M  V30 8143 C 741.944 0.893004 1.32279 0
M  V30 8144 C 742.144 -0.461701 1.96139 0
M  V30 8145 O 741.2 -1.20431 2.21929 0
M  V30 8146 C 742.513 2.03161 2.21689 0
M  V30 8147 C 744.061 2.06579 2.35147 0
M  V30 8148 C 744.536 3.19754 3.27905 0
M  V30 8149 N 746.027 3.19382 3.35484 0
M  V30 8150 C 746.762 4.03592 4.07309 0
M  V30 8151 N 746.258 4.97859 4.81776 0
M  V30 8152 N 748.051 3.91626 4.03219 0
M  V30 8153 H 740.202 2.02341 0.645886 0
M  V30 8154 H 742.465 0.882127 0.347211 0
M  V30 8155 H 742.171 3.00934 1.82021 0
M  V30 8156 H 742.045 1.96132 3.22199 0
M  V30 8157 H 744.432 1.09408 2.74069 0
M  V30 8158 H 744.513 2.17676 1.34353 0
M  V30 8159 H 744.157 4.17175 2.89702 0
M  V30 8160 H 744.087 3.05893 4.28645 0
M  V30 8161 H 746.578 2.51112 2.82403 0
M  V30 8162 H 746.891 5.58563 5.34067 0
M  V30 8163 H 745.236 5.0185 4.80803 0
M  V30 8164 H 748.427 3.17295 3.44154 0
M  V30 8165 H 748.6 4.57479 4.5893 0
M  V30 8166 N 742.006 -1.2595 0.947325 0
M  V30 8167 C 743.422 -1.45737 0.650597 0
M  V30 8168 C 743.622 -1.85189 -0.794188 0
M  V30 8169 O 742.678 -1.97738 -1.57022 0
M  V30 8170 C 743.991 -2.53505 1.61728 0
M  V30 8171 C 745.539 -2.67351 1.62765 0
M  V30 8172 C 746.014 -3.78296 2.58179 0
M  V30 8173 N 747.505 -3.85696 2.56501 0
M  V30 8174 C 748.24 -4.71012 3.2701 0
M  V30 8175 N 747.736 -5.60669 4.06966 0
M  V30 8176 N 749.529 -4.64912 3.15932 0
M  V30 8177 H 741.68 -0.986327 1.8811 0
M  V30 8178 H 743.943 -0.494639 0.808725 0
M  V30 8179 H 743.649 -2.31357 2.6489 0
M  V30 8180 H 743.523 -3.51281 1.3741 0
M  V30 8181 H 745.91 -2.88869 0.603241 0
M  V30 8182 H 745.991 -1.69998 1.91139 0
M  V30 8183 H 745.635 -3.5753 3.60742 0
M  V30 8184 H 745.565 -4.75117 2.27093 0
M  V30 8185 H 748.056 -3.21601 1.98447 0
M  V30 8186 H 748.369 -6.22677 4.57704 0
M  V30 8187 H 746.714 -5.60402 4.11066 0
M  V30 8188 H 749.905 -3.93874 2.52945 0
M  V30 8189 H 750.078 -5.3118 3.71149 0
M  V30 8190 N 743.484 -0.715051 -1.40445 0
M  V30 8191 C 744.434 -0.038591 -2.27967 0
M  V30 8192 C 745.418 0.733099 -1.43229 0
M  V30 8193 O 746.61 0.605388 -1.66325 0
M  V30 8194 C 743.739 0.882801 -3.31755 0
M  V30 8195 C 742.825 0.106325 -4.23967 0
M  V30 8196 N 743.216 -0.910143 -4.97544 0
M  V30 8197 C 741.514 0.33896 -4.4471 0
M  V30 8198 C 742.215 -1.37665 -5.65175 0
M  V30 8199 N 741.191 -0.698905 -5.39088 0
M  V30 8200 H 744.993 -0.81765 -2.82297 0
M  V30 8201 H 742.507 -0.547591 -1.5289 0
M  V30 8202 H 744.504 1.38273 -3.93302 0
M  V30 8203 H 743.164 1.66124 -2.78985 0
M  V30 8204 H 744.175 -1.29097 -5.01552 0
M  V30 8205 H 740.852 1.09377 -4.02918 0
M  V30 8206 H 742.242 -2.22122 -6.34123 0
M  V30 8207 N 744.962 1.50701 -0.461195 0
M  V30 8208 C 746.209 2.02267 0.0971971 0
M  V30 8209 C 746.537 1.34387 1.40608 0
M  V30 8210 O 745.792 0.455254 1.90331 0
M  V30 8211 C 746.091 3.55788 0.33908 0
M  V30 8212 C 745.757 4.42092 -0.886885 0
M  V30 8213 C 744.419 4.65398 -1.22304 0
M  V30 8214 C 746.771 4.92571 -1.70361 0
M  V30 8215 C 744.099 5.36429 -2.37616 0
M  V30 8216 C 746.451 5.64868 -2.84793 0
M  V30 8217 C 745.115 5.86431 -3.18834 0
M  V30 8218 H 744.385 0.740146 0.0355669 0
M  V30 8219 H 747.032 1.81415 -0.61326 0
M  V30 8220 H 745.337 3.751 1.13168 0
M  V30 8221 H 747.034 3.93243 0.784937 0
M  V30 8222 H 743.624 4.24165 -0.614981 0
M  V30 8223 H 747.808 4.74428 -1.4571 0
M  V30 8224 H 743.064 5.51333 -2.64276 0
M  V30 8225 H 747.238 6.02966 -3.48432 0
M  V30 8226 H 744.865 6.41248 -4.08296 0
M  V30 8227 N 746.441 0.193421 1.56409 0
M  V30 8228 C 747.69 -0.445995 1.96707 0
M  V30 8229 C 748.003 -1.62876 1.08309 0
M  V30 8230 O 749.209 -2.33586 1.38383 0
M  V30 8231 C 747.665 -0.844863 3.49843 0
M  V30 8232 C 747.273 0.31352 4.46902 0
M  V30 8233 C 749.017 -1.45146 3.98915 0
M  V30 8234 C 746.924 -0.106214 5.91305 0
M  V30 8235 H 745.854 -0.170398 0.734493 0
M  V30 8236 H 748.505 0.285172 1.81271 0
M  V30 8237 H 746.887 -1.63265 3.60778 0
M  V30 8238 H 748.061 1.09103 4.47698 0
M  V30 8239 H 746.376 0.8315 4.08014 0
M  V30 8240 H 748.973 -1.77792 5.04276 0
M  V30 8241 H 749.316 -2.35734 3.43126 0
M  V30 8242 H 749.849 -0.727675 3.91088 0
M  V30 8243 H 746.588 0.765442 6.51016 0
M  V30 8244 H 746.108 -0.848623 5.93766 0
M  V30 8245 H 747.787 -0.542588 6.44721 0
M  V30 8246 N 747.919 -1.57396 -0.0801906 0
M  V30 8247 C 749.168 -1.8602 -0.779702 0
M  V30 8248 C 749.481 -0.784864 -1.79163 0
M  V30 8249 O 750.687 -0.958691 -2.54011 0
M  V30 8250 C 749.143 -3.29942 -1.43758 0
M  V30 8251 C 748.751 -4.45584 -0.464654 0
M  V30 8252 C 750.495 -3.67775 -2.11995 0
M  V30 8253 C 748.402 -5.80544 -1.12797 0
M  V30 8254 H 747.332 -0.69392 -0.294943 0
M  V30 8255 H 749.983 -1.83471 -0.0328527 0
M  V30 8256 H 748.365 -3.27078 -2.2324 0
M  V30 8257 H 749.539 -4.59824 0.299749 0
M  V30 8258 H 747.854 -4.16247 0.112813 0
M  V30 8259 H 750.451 -4.65896 -2.62383 0
M  V30 8260 H 750.794 -2.9715 -2.91561 0
M  V30 8261 H 751.327 -3.72593 -1.39354 0
M  V30 8262 H 748.066 -6.54439 -0.372807 0
M  V30 8263 H 747.586 -5.70119 -1.86344 0
M  V30 8264 H 749.265 -6.25602 -1.6502 0
M  V30 8265 N 749.397 0.351382 -1.53633 0
M  V30 8266 C 750.329 1.45159 -1.77374 0
M  V30 8267 C 751.342 1.4905 -0.654826 0
M  V30 8268 O 752.531 1.52274 -0.931396 0
M  V30 8269 C 749.631 2.83858 -1.85143 0
M  V30 8270 C 748.804 3.03498 -3.14972 0
M  V30 8271 C 747.863 4.22393 -3.138 0
M  V30 8272 O 746.889 4.16885 -3.87551 0
M  V30 8273 N 748.091 5.30533 -2.35617 0
M  V30 8274 H 750.856 1.25167 -2.72311 0
M  V30 8275 H 748.417 0.54121 -1.52586 0
M  V30 8276 H 750.409 3.61557 -1.8182 0
M  V30 8277 H 748.979 2.9703 -0.974275 0
M  V30 8278 H 748.199 2.13336 -3.31484 0
M  V30 8279 H 749.487 3.13498 -4.00745 0
M  V30 8280 H 748.885 5.37875 -1.75235 0
M  V30 8281 H 747.442 6.06756 -2.38098 0
M  V30 8282 N 750.875 1.45233 0.611969 0
M  V30 8283 C 752.105 1.52318 1.39581 0
M  V30 8284 C 752.513 0.153093 1.8858 0
M  V30 8285 O 751.856 -0.854792 1.62601 0
M  V30 8286 C 751.918 2.4426 2.63775 0
M  V30 8287 C 751.582 3.91079 2.36445 0
M  V30 8288 C 752.579 4.81099 1.97079 0
M  V30 8289 C 750.264 4.35958 2.49492 0
M  V30 8290 C 752.258 6.14002 1.71115 0
M  V30 8291 C 749.945 5.68903 2.23142 0
M  V30 8292 C 750.943 6.57744 1.84015 0
M  V30 8293 O 750.631 7.88226 1.5797 0
M  V30 8294 H 750.363 0.518428 0.43383 0
M  V30 8295 H 752.917 1.91067 0.753837 0
M  V30 8296 H 751.147 2.00474 3.30677 0
M  V30 8297 H 752.836 2.42077 3.25812 0
M  V30 8298 H 753.602 4.47692 1.86539 0
M  V30 8299 H 749.481 3.67053 2.78914 0
M  V30 8300 H 753.025 6.83305 1.405 0
M  V30 8301 H 748.922 6.01866 2.33297 0
M  V30 8302 H 749.69 8.00211 1.72058 0
M  V30 8303 N 752.353 -0.854086 1.3245 0
M  V30 8304 C 753.599 -1.61069 1.23225 0
M  V30 8305 C 753.932 -1.93111 -0.205349 0
M  V30 8306 O 753.207 -1.57397 -1.14265 0
M  V30 8307 C 753.49 -2.93065 2.09249 0
M  V30 8308 C 753.343 -2.67801 3.6139 0
M  V30 8309 C 754.662 -3.94341 1.95406 0
M  V30 8310 H 751.781 -0.584449 0.448986 0
M  V30 8311 H 754.423 -0.986189 1.62402 0
M  V30 8312 H 752.573 -3.46364 1.75967 0
M  V30 8313 H 754.245 -2.21052 4.04887 0
M  V30 8314 H 752.488 -2.01756 3.84027 0
M  V30 8315 H 753.159 -3.6179 4.16907 0
M  V30 8316 H 755.635 -3.50301 2.24562 0
M  V30 8317 H 754.511 -4.84555 2.57872 0
M  V30 8318 H 754.772 -4.32382 0.921865 0
M  V30 8319 N 753.831 -1.1567 -1.07043 0
M  V30 8320 C 755.108 -0.843948 -1.76456 0
M  V30 8321 C 755.488 0.659806 -2.00524 0
M  V30 8322 O 754.836 1.60518 -1.62623 0
M  V30 8323 C 755.046 -1.65822 -3.0709 0
M  V30 8324 C 756.394 -1.8664 -3.8138 0
M  V30 8325 O 757.418 -1.62624 -3.1691 0
M  V30 8326 O 756.277 -2.26884 -4.97178 0
M  V30 8327 H 753.371 -0.310677 -0.766426 0
M  V30 8328 H 755.917 -1.26266 -1.1338 0
M  V30 8329 H 754.689 -2.67902 -2.85209 0
M  V30 8330 H 754.312 -1.23605 -3.77899 0
M  V30 8331 N 755.309 1.25446 -0.953992 0
M  V30 8332 C 756.257 2.27909 -0.46478 0
M  V30 8333 C 757.251 1.62904 0.464607 0
M  V30 8334 O 758.457 1.76733 0.341407 0
M  V30 8335 H 754.832 0.74036 -0.131798 0
M  V30 8336 H 756.803 2.66559 -1.34122 0
M  V30 8337 C 755.552 3.46853 0.242589 0
M  V30 8338 H 754.875 3.97105 -0.463418 0
M  V30 8339 H 756.315 4.20432 0.548919 0
M  V30 8340 C 754.774 3.03386 1.46487 0
M  V30 8341 O 755.304 3.09342 2.56262 0
M  V30 8342 N 753.51 2.58584 1.32599 0
M  V30 8343 H 753.057 2.53938 0.432834 0
M  V30 8344 H 753.015 2.29866 2.14497 0
M  V30 8345 N 756.787 0.722489 1.40064 0
M  V30 8346 C 757.72 0.0233443 2.28188 0
M  V30 8347 C 758.698 -0.7606 1.43714 0
M  V30 8348 O 759.882 -0.745791 1.73119 0
M  V30 8349 C 757.009 -0.974264 3.24385 0
M  V30 8350 C 756.055 -0.280307 4.25578 0
M  V30 8351 S 756.888 0.996769 5.26141 0
M  V30 8352 C 758.044 0.00143923 6.259 0
M  V30 8353 H 758.277 0.770705 2.87137 0
M  V30 8354 H 755.81 0.513783 1.45601 0
M  V30 8355 H 757.768 -1.5446 3.80332 0
M  V30 8356 H 756.429 -1.69438 2.6448 0
M  V30 8357 H 755.622 -1.03471 4.93264 0
M  V30 8358 H 755.224 0.217657 3.73366 0
M  V30 8359 H 757.516 -0.843126 6.72233 0
M  V30 8360 H 758.459 0.645104 7.05155 0
M  V30 8361 H 758.867 -0.365371 5.63316 0
M  V30 8362 N 758.265 -1.50454 0.469181 0
M  V30 8363 C 759.495 -2.06429 -0.0840913 0
M  V30 8364 C 759.903 -1.3334 -1.34227 0
M  V30 8365 O 759.246 -0.395656 -1.79389 0
M  V30 8366 C 759.308 -3.56797 -0.440049 0
M  V30 8367 C 758.972 -4.51359 0.715838 0
M  V30 8368 C 759.969 -4.94754 1.59732 0
M  V30 8369 C 757.654 -4.94069 0.905621 0
M  V30 8370 C 759.648 -5.79564 2.653 0
M  V30 8371 C 757.335 -5.78662 1.96453 0
M  V30 8372 C 758.333 -6.21311 2.83658 0
M  V30 8373 O 758.021 -7.04218 3.87727 0
M  V30 8374 H 757.753 -0.675994 0.00289751 0
M  V30 8375 H 760.307 -1.94629 0.656417 0
M  V30 8376 H 758.537 -3.66492 -1.23372 0
M  V30 8377 H 760.226 -3.95145 -0.928181 0
M  V30 8378 H 760.992 -4.62428 1.46237 0
M  V30 8379 H 756.871 -4.60394 0.236326 0
M  V30 8380 H 760.415 -6.12774 3.33398 0
M  V30 8381 H 756.312 -6.10401 2.09955 0
M  V30 8382 H 757.08 -7.22464 3.84692 0
M  V30 8383 N 759.743 -0.201713 -1.56304 0
M  V30 8384 C 761.159 0.154025 -1.58855 0
M  V30 8385 C 761.359 1.60516 -1.21807 0
M  V30 8386 O 760.415 2.34193 -0.94393 0
M  V30 8387 C 761.728 -0.154319 -3.00304 0
M  V30 8388 C 763.276 -0.0949578 -3.12856 0
M  V30 8389 C 763.751 -0.376703 -4.56448 0
M  V30 8390 N 765.242 -0.325558 -4.62054 0
M  V30 8391 C 765.977 -0.51732 -5.71062 0
M  V30 8392 N 765.473 -0.769789 -6.8851 0
M  V30 8393 N 767.266 -0.45112 -5.60287 0
M  V30 8394 H 759.417 -1.14858 -1.78666 0
M  V30 8395 H 761.68 -0.458934 -0.829508 0
M  V30 8396 H 761.386 -1.16074 -3.31994 0
M  V30 8397 H 761.26 0.540014 -3.73314 0
M  V30 8398 H 763.647 0.902075 -2.80974 0
M  V30 8399 H 763.728 -0.822468 -2.42217 0
M  V30 8400 H 763.372 -1.37108 -4.89044 0
M  V30 8401 H 763.302 0.371772 -5.25286 0
M  V30 8402 H 765.793 -0.137308 -3.7765 0
M  V30 8403 H 766.106 -0.904744 -7.67486 0
M  V30 8404 H 764.451 -0.806758 -6.90302 0
M  V30 8405 H 767.642 -0.254253 -4.67409 0
M  V30 8406 H 767.815 -0.603982 -6.45179 0
M  V30 8407 N 761.222 1.57436 0.0718424 0
M  V30 8408 C 762.469 1.87248 0.771007 0
M  V30 8409 C 762.797 0.793441 1.7758 0
M  V30 8410 O 762.052 -0.210565 1.94564 0
M  V30 8411 C 762.351 3.23723 1.51455 0
M  V30 8412 C 762.017 4.46194 0.649736 0
M  V30 8413 C 760.679 4.79438 0.411409 0
M  V30 8414 C 763.031 5.21176 0.05004 0
M  V30 8415 C 760.359 5.85077 -0.436096 0
M  V30 8416 C 762.711 6.27712 -0.784919 0
M  V30 8417 C 761.375 6.59457 -1.03312 0
M  V30 8418 H 760.645 0.685188 0.282132 0
M  V30 8419 H 763.292 1.91474 0.0317896 0
M  V30 8420 H 761.597 3.15287 2.32597 0
M  V30 8421 H 763.294 3.44023 2.06031 0
M  V30 8422 H 759.884 4.20175 0.84562 0
M  V30 8423 H 764.068 4.95806 0.221282 0
M  V30 8424 H 759.324 6.08071 -0.637136 0
M  V30 8425 H 763.498 6.84974 -1.25635 0
M  V30 8426 H 761.125 7.4114 -1.6916 0
M  V30 8427 N 762.7 -0.34323 1.53817 0
M  V30 8428 C 763.61 -1.44493 1.84821 0
M  V30 8429 C 764.626 -1.57556 0.738381 0
M  V30 8430 O 765.802 -1.73026 1.03072 0
M  V30 8431 C 762.867 -2.79478 2.05166 0
M  V30 8432 C 761.928 -2.75756 3.29025 0
M  V30 8433 C 761.161 -4.04302 3.4839 0
M  V30 8434 O 761.384 -5.01595 2.71586 0
M  V30 8435 O 760.318 -4.08754 4.41819 0
M  V30 8436 H 764.144 -1.21209 2.78464 0
M  V30 8437 H 761.729 -0.535437 1.39476 0
M  V30 8438 H 763.611 -3.59419 2.19991 0
M  V30 8439 H 762.286 -3.02692 1.14713 0
M  V30 8440 H 761.193 -1.94434 3.19603 0
M  V30 8441 H 762.526 -2.57495 4.19472 0
M  V30 8442 N 764.178 -1.45556 -0.604258 0
M  V30 8443 C 765.426 -1.4945 -1.36048 0
M  V30 8444 C 765.747 -0.138933 -1.94504 0
M  V30 8445 O 765.017 0.832097 -1.7735 0
M  V30 8446 H 763.597 -0.550381 -0.505064 0
M  V30 8447 H 766.259 -1.81535 -0.709308 0
M  V30 8448 H 765.355 -2.23519 -2.17821 0
M  V30 8449 N 765.656 0.84705 -1.32902 0
M  V30 8450 C 766.884 1.63403 -1.26913 0
M  V30 8451 C 767.299 1.88108 0.161483 0
M  V30 8452 O 766.656 1.45546 1.10103 0
M  V30 8453 C 766.707 2.98896 -2.03331 0
M  V30 8454 O 766.428 2.75281 -3.40811 0
M  V30 8455 C 767.929 3.93335 -2.04457 0
M  V30 8456 H 765.149 0.508701 -0.437566 0
M  V30 8457 H 767.693 1.05567 -1.75145 0
M  V30 8458 H 765.848 3.53356 -1.58802 0
M  V30 8459 H 766.262 3.61504 -3.8002 0
M  V30 8460 H 767.736 4.85647 -2.62394 0
M  V30 8461 H 768.213 4.26885 -1.03274 0
M  V30 8462 H 768.819 3.44812 -2.48967 0
M  V30 8463 N 767.134 1.16236 1.06428 0
M  V30 8464 C 768.382 0.941171 1.78847 0
M  V30 8465 C 768.703 -0.53248 1.87589 0
M  V30 8466 O 767.973 -1.38686 1.38358 0
M  V30 8467 H 766.553 0.345228 0.66244 0
M  V30 8468 H 769.215 1.46479 1.28569 0
M  V30 8469 H 768.311 1.35871 2.80972 0
M  V30 8470 N 768.612 -1.24939 0.960631 0
M  V30 8471 C 769.859 -1.92818 0.618663 0
M  V30 8472 C 770.187 -1.75177 -0.845173 0
M  V30 8473 O 769.442 -1.09412 -1.62258 0
M  V30 8474 C 769.741 -3.45066 0.930809 0
M  V30 8475 C 769.407 -3.82869 2.38164 0
M  V30 8476 C 768.069 -3.92899 2.7782 0
M  V30 8477 C 770.421 -4.01483 3.32356 0
M  V30 8478 C 767.749 -4.18955 4.10723 0
M  V30 8479 C 770.101 -4.29033 4.6488 0
M  V30 8480 C 768.765 -4.37282 5.04322 0
M  V30 8481 H 768.035 -0.705571 0.226385 0
M  V30 8482 H 770.682 -1.48365 1.21079 0
M  V30 8483 H 768.987 -3.9096 0.256355 0
M  V30 8484 H 770.684 -3.95783 0.644712 0
M  V30 8485 H 767.274 -3.75622 2.06413 0
M  V30 8486 H 771.458 -3.93143 3.02907 0
M  V30 8487 H 766.714 -4.23558 4.40918 0
M  V30 8488 H 770.888 -4.42381 5.3784 0
M  V30 8489 H 768.515 -4.57225 6.0733 0
M  V30 8490 N 770.09 -0.729906 -1.39679 0
M  V30 8491 C 771.315 -0.284345 -2.05442 0
M  V30 8492 C 771.74 1.07056 -1.54663 0
M  V30 8493 O 771.098 1.67732 -0.688157 0
M  V30 8494 C 771.146 -0.290089 -3.59431 0
M  V30 8495 O 770.25 0.723978 -4.05995 0
M  V30 8496 H 769.591 -0.130311 -0.651088 0
M  V30 8497 H 772.121 -0.994403 -1.78809 0
M  V30 8498 H 772.131 -0.132712 -4.07784 0
M  V30 8499 H 770.806 -1.27877 -3.95753 0
M  V30 8500 H 769.383 0.533154 -3.69069 0
M  V30 8501 N 771.568 1.50203 -0.477153 0
M  V30 8502 C 772.516 2.30278 0.327826 0
M  V30 8503 C 773.51 1.37831 0.984839 0
M  V30 8504 O 774.716 1.54994 0.915251 0
M  V30 8505 H 771.091 0.741612 0.124564 0
M  V30 8506 H 773.062 2.96124 -0.367853 0
M  V30 8507 C 771.811 3.18548 1.39365 0
M  V30 8508 H 771.134 3.89596 0.897475 0
M  V30 8509 H 772.574 3.77561 1.92934 0
M  V30 8510 C 771.033 2.36548 2.39889 0
M  V30 8511 O 771.563 2.05282 3.45286 0
M  V30 8512 N 769.769 1.99015 2.11758 0
M  V30 8513 H 769.316 2.24641 1.26071 0
M  V30 8514 H 769.274 1.44454 2.7925 0
M  V30 8515 N 773.046 0.209999 1.56195 0
M  V30 8516 C 774.295 -0.425106 1.97169 0
M  V30 8517 C 774.608 -1.61718 1.10031 0
M  V30 8518 O 775.814 -2.32105 1.40853 0
M  V30 8519 C 774.27 -0.80771 3.50719 0
M  V30 8520 C 773.878 0.360902 4.46544 0
M  V30 8521 C 775.622 -1.40906 4.00432 0
M  V30 8522 C 773.529 -0.0434919 5.91384 0
M  V30 8523 H 772.459 -0.162598 0.736259 0
M  V30 8524 H 775.11 0.304382 1.80958 0
M  V30 8525 H 773.492 -1.59429 3.62489 0
M  V30 8526 H 774.666 1.13846 4.46515 0
M  V30 8527 H 772.981 0.874729 4.07109 0
M  V30 8528 H 775.578 -1.72433 5.06133 0
M  V30 8529 H 775.921 -2.32081 3.45607 0
M  V30 8530 H 776.454 -0.686154 3.91838 0
M  V30 8531 H 773.193 0.834448 6.50167 0
M  V30 8532 H 772.713 -0.785598 5.94633 0
M  V30 8533 H 774.392 -0.474176 6.4526 0
M  V30 8534 N 774.524 -1.57472 -0.0634922 0
M  V30 8535 C 775.935 -1.76303 -0.614337 0
M  V30 8536 C 776.286 -0.836578 -1.77471 0
M  V30 8537 O 775.411 -0.0227184 -2.16388 0
M  V30 8538 C 776.006 -3.19709 -1.12122 0
M  V30 8539 C 774.565 -3.39856 -1.61786 0
M  V30 8540 C 773.712 -2.71975 -0.540845 0
M  V30 8541 H 776.663 -1.57864 0.162702 0
M  V30 8542 H 776.684 -3.24326 -1.98979 0
M  V30 8543 H 776.196 -3.87114 -0.276472 0
M  V30 8544 H 774.297 -2.77578 -2.48558 0
M  V30 8545 H 774.41 -4.48338 -1.68908 0
M  V30 8546 H 772.774 -2.34763 -0.987854 0
M  V30 8547 H 773.557 -3.4204 0.293856 0
M  V30 8548 N 776.003 0.335068 -1.53997 0
M  V30 8549 C 776.935 1.4327 -1.78903 0
M  V30 8550 C 777.948 1.48347 -0.670598 0
M  V30 8551 O 779.137 1.51277 -0.947494 0
M  V30 8552 C 776.237 2.81878 -1.88144 0
M  V30 8553 C 775.41 3.00141 -3.18174 0
M  V30 8554 C 774.469 4.19041 -3.18263 0
M  V30 8555 O 773.495 4.12751 -3.9195 0
M  V30 8556 N 774.697 5.28004 -2.41231 0
M  V30 8557 H 777.462 1.22272 -2.73623 0
M  V30 8558 H 775.023 0.524996 -1.53152 0
M  V30 8559 H 777.015 3.59609 -1.85644 0
M  V30 8560 H 775.585 2.9598 -1.00572 0
M  V30 8561 H 774.805 2.09808 -3.33728 0
M  V30 8562 H 776.093 3.0923 -4.04047 0
M  V30 8563 H 775.491 5.35986 -1.8093 0
M  V30 8564 H 774.048 6.04196 -2.44521 0
M  V30 8565 N 777.481 1.45874 0.596531 0
M  V30 8566 C 778.411 1.5824 1.71705 0
M  V30 8567 C 779.392 0.433366 1.64487 0
M  V30 8568 O 780.577 0.657895 1.82717 0
M  V30 8569 C 777.707 1.55927 3.10329 0
M  V30 8570 C 776.661 2.69659 3.32367 0
M  V30 8571 C 775.987 2.52403 4.71377 0
M  V30 8572 C 777.287 4.11591 3.21544 0
M  V30 8573 H 778.981 2.52035 1.61613 0
M  V30 8574 H 776.527 1.21297 0.776082 0
M  V30 8575 H 778.48 1.63173 3.88526 0
M  V30 8576 H 777.204 0.586674 3.21288 0
M  V30 8577 H 775.863 2.61859 2.56564 0
M  V30 8578 H 775.511 1.53258 4.79083 0
M  V30 8579 H 775.211 3.28679 4.87077 0
M  V30 8580 H 776.735 2.6152 5.5176 0
M  V30 8581 H 778.149 4.20576 3.89601 0
M  V30 8582 H 776.546 4.88344 3.4877 0
M  V30 8583 H 777.616 4.32719 2.1882 0
M  V30 8584 N 778.959 -0.83999 1.33349 0
M  V30 8585 C 780.208 -1.59011 1.2409 0
M  V30 8586 C 780.521 -1.94655 -0.192029 0
M  V30 8587 O 781.727 -2.68438 -0.406617 0
M  V30 8588 C 780.183 -2.86801 2.17425 0
M  V30 8589 C 779.791 -2.58525 3.65881 0
M  V30 8590 C 781.535 -3.64823 2.17036 0
M  V30 8591 C 779.442 -3.82404 4.51133 0
M  V30 8592 H 778.372 -0.596731 0.460899 0
M  V30 8593 H 781.023 -0.926274 1.58406 0
M  V30 8594 H 779.405 -3.54719 1.7604 0
M  V30 8595 H 780.579 -1.98824 4.15699 0
M  V30 8596 H 778.894 -1.93808 3.68548 0
M  V30 8597 H 781.491 -4.56774 2.7796 0
M  V30 8598 H 781.834 -3.99663 1.16513 0
M  V30 8599 H 782.367 -3.03826 2.56777 0
M  V30 8600 H 779.106 -3.52696 5.52527 0
M  V30 8601 H 778.626 -4.41447 4.0606 0
M  V30 8602 H 780.305 -4.49995 4.6488 0
M  V30 8603 N 780.437 -1.16799 -1.0581 0
M  V30 8604 C 781.714 -0.862616 -1.75551 0
M  V30 8605 C 782.094 0.6385 -2.01212 0
M  V30 8606 O 781.442 1.58784 -1.64317 0
M  V30 8607 C 781.652 -1.6907 -3.05314 0
M  V30 8608 C 783 -1.90675 -3.79379 0
M  V30 8609 O 784.024 -1.65976 -3.15167 0
M  V30 8610 O 782.883 -2.32145 -4.94743 0
M  V30 8611 H 779.977 -0.318789 -0.763088 0
M  V30 8612 H 782.523 -1.27461 -1.12034 0
M  V30 8613 H 781.295 -2.70912 -2.82352 0
M  V30 8614 H 780.918 -1.27606 -3.76567 0
M  V30 8615 N 781.915 1.24427 -0.967243 0
M  V30 8616 C 782.865 2.23143 -0.468106 0
M  V30 8617 C 783.849 1.5449 0.449633 0
M  V30 8618 O 785.041 1.74761 0.28063 0
M  V30 8619 C 782.17 3.42454 0.240867 0
M  V30 8620 C 781.256 4.18355 -0.695674 0
M  V30 8621 N 781.647 4.71428 -1.83273 0
M  V30 8622 C 779.945 4.43116 -0.506365 0
M  V30 8623 C 780.646 5.29041 -2.41849 0
M  V30 8624 N 779.622 5.16213 -1.70369 0
M  V30 8625 H 783.424 2.61795 -1.3357 0
M  V30 8626 H 780.938 1.39809 -0.826277 0
M  V30 8627 H 782.935 4.12329 0.615668 0
M  V30 8628 H 781.595 3.05323 1.10491 0
M  V30 8629 H 782.606 4.68177 -2.21428 0
M  V30 8630 H 779.283 4.16319 0.313747 0
M  V30 8631 H 780.673 5.80811 -3.37799 0
M  V30 8632 N 783.393 0.737304 1.3929 0
M  V30 8633 C 784.343 0.0748537 2.27877 0
M  V30 8634 C 785.327 -0.71022 1.44377 0
M  V30 8635 O 786.519 -0.578851 1.67267 0
M  V30 8636 C 783.648 -0.82991 3.33118 0
M  V30 8637 C 782.734 -0.0388619 4.24082 0
M  V30 8638 N 783.125 0.989182 4.96033 0
M  V30 8639 C 781.423 -0.268167 4.45193 0
M  V30 8640 C 782.124 1.46639 5.62914 0
M  V30 8641 N 781.1 0.784581 5.37908 0
M  V30 8642 H 784.902 0.862457 2.80961 0
M  V30 8643 H 782.416 0.571845 1.51999 0
M  V30 8644 H 784.413 -1.31999 3.95452 0
M  V30 8645 H 783.073 -1.61665 2.81593 0
M  V30 8646 H 784.084 1.3706 4.99435 0
M  V30 8647 H 780.761 -1.02953 4.04607 0
M  V30 8648 H 782.151 2.32182 6.30508 0
M  V30 8649 N 784.871 -1.49948 0.485112 0
M  V30 8650 C 786.101 -2.06506 -0.0621921 0
M  V30 8651 C 786.509 -1.34756 -1.32806 0
M  V30 8652 O 785.852 -0.41466 -1.78959 0
M  V30 8653 C 785.914 -3.57243 -0.402182 0
M  V30 8654 C 785.578 -4.50574 0.763671 0
M  V30 8655 C 786.575 -4.93032 1.6497 0
M  V30 8656 C 784.26 -4.9308 0.957973 0
M  V30 8657 C 786.254 -5.76718 2.71432 0
M  V30 8658 C 783.941 -5.76546 2.0258 0
M  V30 8659 C 784.939 -6.18267 2.90232 0
M  V30 8660 O 784.627 -7.00066 3.95174 0
M  V30 8661 H 784.359 -0.675925 0.0100672 0
M  V30 8662 H 786.913 -1.93922 0.677023 0
M  V30 8663 H 785.143 -3.6778 -1.19478 0
M  V30 8664 H 786.832 -3.96107 -0.886219 0
M  V30 8665 H 787.598 -4.60851 1.51134 0
M  V30 8666 H 783.477 -4.60117 0.285144 0
M  V30 8667 H 787.021 -6.09203 3.39878 0
M  V30 8668 H 782.918 -6.0814 2.16417 0
M  V30 8669 H 783.686 -7.18343 3.92333 0
M  V30 8670 N 786.349 -0.21828 -1.56081 0
M  V30 8671 C 787.577 0.419258 -2.02608 0
M  V30 8672 C 787.992 1.53578 -1.09814 0
M  V30 8673 O 787.349 1.82185 -0.107149 0
M  V30 8674 C 787.4 0.953955 -3.48686 0
M  V30 8675 O 787.121 -0.11805 -4.37941 0
M  V30 8676 C 788.622 1.66506 -4.10841 0
M  V30 8677 H 785.842 0.10296 -0.663054 0
M  V30 8678 H 788.386 -0.333776 -2.01758 0
M  V30 8679 H 786.541 1.65727 -3.50162 0
M  V30 8680 H 786.955 0.283359 -5.23734 0
M  V30 8681 H 788.429 1.99123 -5.14834 0
M  V30 8682 H 788.906 2.57705 -3.55647 0
M  V30 8683 H 789.512 1.00703 -4.13206 0
M  V30 8684 N 787.827 1.57504 0.0551401 0
M  V30 8685 C 789.055 1.92294 0.76358 0
M  V30 8686 C 789.47 0.815774 1.70266 0
M  V30 8687 O 788.827 -0.209772 1.8129 0
M  V30 8688 C 788.878 3.26914 1.54302 0
M  V30 8689 O 788.599 4.33375 0.641666 0
M  V30 8690 C 790.1 3.75825 2.35097 0
M  V30 8691 H 787.32 0.635229 0.216159 0
M  V30 8692 H 789.864 2.0449 0.0204385 0
M  V30 8693 H 788.019 3.16196 2.23828 0
M  V30 8694 H 788.433 5.10927 1.1855 0
M  V30 8695 H 789.907 4.72603 2.8522 0
M  V30 8696 H 790.384 3.0568 3.15367 0
M  V30 8697 H 790.99 3.89542 1.70696 0
M  V30 8698 N 789.305 -0.326896 1.54172 0
M  V30 8699 C 790.252 -1.40216 1.83325 0
M  V30 8700 C 791.222 -1.51538 0.680107 0
M  V30 8701 O 792.407 -1.66811 0.926206 0
M  V30 8702 C 789.547 -2.76626 2.0633 0
M  V30 8703 C 788.66 -2.73963 3.34019 0
M  V30 8704 C 787.795 -4.02198 3.47002 0
M  V30 8705 C 786.834 -3.93828 4.68578 0
M  V30 8706 N 785.971 -5.13787 4.78506 0
M  V30 8707 H 790.811 -1.14656 2.7506 0
M  V30 8708 H 788.348 -0.555089 1.36225 0
M  V30 8709 H 790.306 -3.55922 2.17659 0
M  V30 8710 H 788.936 -3.00503 1.1789 0
M  V30 8711 H 787.988 -1.86677 3.31445 0
M  V30 8712 H 789.3 -2.6366 4.2342 0
M  V30 8713 H 788.454 -4.89923 3.57855 0
M  V30 8714 H 787.193 -4.15302 2.55687 0
M  V30 8715 H 786.198 -3.04487 4.57786 0
M  V30 8716 H 787.423 -3.82292 5.61275 0
M  V30 8717 H 785.369 -5.27403 3.90105 0
M  V30 8718 H 785.286 -5.05807 5.61868 0
M  V30 8719 H 786.554 -6.03236 4.93686 0
M  V30 8720 N 790.784 -1.46188 -0.588786 0
M  V30 8721 C 791.716 -1.52319 -1.71265 0
M  V30 8722 C 792.729 -0.412096 -1.57498 0
M  V30 8723 O 793.918 -0.680146 -1.65034 0
M  V30 8724 C 791.018 -1.38164 -3.09458 0
M  V30 8725 C 790.191 -2.63284 -3.49286 0
M  V30 8726 C 789.25 -2.43415 -4.66514 0
M  V30 8727 O 788.276 -3.17113 -4.72682 0
M  V30 8728 N 789.478 -1.49187 -5.61002 0
M  V30 8729 H 792.243 -2.49219 -1.66463 0
M  V30 8730 H 789.804 -1.42167 -0.774601 0
M  V30 8731 H 791.796 -1.22653 -3.85666 0
M  V30 8732 H 790.366 -0.494678 -3.08661 0
M  V30 8733 H 789.586 -2.93779 -2.62845 0
M  V30 8734 H 790.874 -3.46413 -3.7266 0
M  V30 8735 H 790.272 -0.884027 -5.5875 0
M  V30 8736 H 788.829 -1.39642 -6.36666 0
M  V30 8737 N 792.262 0.832906 -1.33792 0
M  V30 8738 C 793.508 1.59089 -1.25772 0
M  V30 8739 C 793.841 1.93414 0.174601 0
M  V30 8740 O 793.116 1.59195 1.11746 0
M  V30 8741 C 793.399 2.89699 -2.13885 0
M  V30 8742 C 793.252 2.62017 -3.65605 0
M  V30 8743 C 794.571 3.91182 -2.01654 0
M  V30 8744 H 791.69 0.577232 -0.458227 0
M  V30 8745 H 794.332 0.960227 -1.6395 0
M  V30 8746 H 792.482 3.4352 -1.81456 0
M  V30 8747 H 794.154 2.14582 -4.08353 0
M  V30 8748 H 792.397 1.95621 -3.87189 0
M  V30 8749 H 793.068 3.55112 -4.2261 0
M  V30 8750 H 795.544 3.46684 -2.30107 0
M  V30 8751 H 794.42 4.80391 -2.65548 0
M  V30 8752 H 794.681 4.30861 -0.990536 0
M  V30 8753 N 793.74 1.17359 1.05189 0
M  V30 8754 C 794.989 0.956412 1.77583 0
M  V30 8755 C 795.302 -0.516018 1.88671 0
M  V30 8756 O 796.508 -0.851401 2.57805 0
M  V30 8757 C 794.964 1.66203 3.19225 0
M  V30 8758 C 794.572 3.17299 3.16267 0
M  V30 8759 C 796.316 1.52725 3.96075 0
M  V30 8760 C 794.223 3.8055 4.52698 0
M  V30 8761 H 793.153 0.354204 0.665624 0
M  V30 8762 H 795.804 1.40612 1.17901 0
M  V30 8763 H 794.186 1.14006 3.79234 0
M  V30 8764 H 795.36 3.76431 2.65776 0
M  V30 8765 H 793.675 3.3079 2.52917 0
M  V30 8766 H 796.272 1.97351 4.96947 0
M  V30 8767 H 796.615 0.477803 4.13549 0
M  V30 8768 H 797.148 2.02139 3.42614 0
M  V30 8769 H 793.887 4.85492 4.4043 0
M  V30 8770 H 793.407 3.26206 5.03339 0
M  V30 8771 H 795.086 3.82757 5.21638 0
M  V30 8772 N 795.218 -1.23913 0.973828 0
M  V30 8773 C 796.446 -1.96195 0.656891 0
M  V30 8774 C 796.861 -1.72166 -0.774876 0
M  V30 8775 O 796.218 -1.0091 -1.52064 0
M  V30 8776 C 796.269 -3.49342 0.929638 0
M  V30 8777 O 795.99 -3.72553 2.30512 0
M  V30 8778 C 797.491 -4.38833 0.627739 0
M  V30 8779 H 794.711 -0.624841 0.244572 0
M  V30 8780 H 797.255 -1.57579 1.30343 0
M  V30 8781 H 795.41 -3.85999 0.329216 0
M  V30 8782 H 795.824 -4.66893 2.3898 0
M  V30 8783 H 797.298 -5.45117 0.868991 0
M  V30 8784 H 797.775 -4.37009 -0.438104 0
M  V30 8785 H 798.381 -4.07773 1.20834 0
M  V30 8786 N 796.696 -0.74468 -1.38897 0
M  V30 8787 C 797.643 -0.111064 -2.30533 0
M  V30 8788 C 798.613 0.719276 -1.49719 0
M  V30 8789 O 799.798 0.677244 -1.78376 0
M  V30 8790 C 796.938 0.78292 -3.36102 0
M  V30 8791 C 796.051 -0.0610817 -4.31957 0
M  V30 8792 C 795.186 0.835075 -5.24595 0
M  V30 8793 C 794.225 -0.0130974 -6.12099 0
M  V30 8794 N 793.362 0.839525 -6.97063 0
M  V30 8795 H 798.202 -0.898113 -2.84144 0
M  V30 8796 H 795.739 -0.454537 -1.39901 0
M  V30 8797 H 797.697 1.31578 -3.95908 0
M  V30 8798 H 796.327 1.53585 -2.83922 0
M  V30 8799 H 795.379 -0.711469 -3.73687 0
M  V30 8800 H 796.691 -0.716482 -4.93627 0
M  V30 8801 H 795.845 1.43542 -5.89475 0
M  V30 8802 H 794.584 1.52423 -4.63269 0
M  V30 8803 H 793.589 -0.626179 -5.46223 0
M  V30 8804 H 794.814 -0.699181 -6.75491 0
M  V30 8805 H 792.76 1.5138 -6.38295 0
M  V30 8806 H 792.677 0.240823 -7.55616 0
M  V30 8807 H 793.945 1.42513 -7.66362 0
M  V30 8808 N 798.174 1.49689 -0.493057 0
M  V30 8809 C 799.121 2.28976 0.28959 0
M  V30 8810 C 800.091 1.35011 0.967536 0
M  V30 8811 O 801.276 1.63964 0.975736 0
M  V30 8812 C 798.416 3.1748 1.35279 0
M  V30 8813 C 797.529 4.26496 0.687418 0
M  V30 8814 C 796.664 5.02226 1.73038 0
M  V30 8815 C 795.703 6.03089 1.04645 0
M  V30 8816 N 794.84 6.72014 2.03325 0
M  V30 8817 H 799.68 2.954 -0.392798 0
M  V30 8818 H 797.217 1.45657 -0.205554 0
M  V30 8819 H 799.175 3.67162 1.98111 0
M  V30 8820 H 797.805 2.53057 2.00405 0
M  V30 8821 H 796.857 3.80362 -0.0540001 0
M  V30 8822 H 798.169 4.98578 0.14864 0
M  V30 8823 H 797.323 5.55737 2.43395 0
M  V30 8824 H 796.062 4.29899 2.303 0
M  V30 8825 H 795.067 5.48817 0.328606 0
M  V30 8826 H 796.292 6.77398 0.480428 0
M  V30 8827 H 794.238 6.02464 2.59564 0
M  V30 8828 H 794.155 7.40046 1.54492 0
M  V30 8829 H 795.423 7.30133 2.72995 0
M  V30 8830 N 799.652 0.226554 1.55963 0
M  V30 8831 C 800.877 -0.411527 2.03276 0
M  V30 8832 C 801.302 -1.52206 1.10521 0
M  V30 8833 O 800.66 -1.81054 0.0943217 0
M  V30 8834 C 800.708 -0.915694 3.4878 0
M  V30 8835 O 799.812 -2.02672 3.59163 0
M  V30 8836 H 799.153 -0.0924907 0.657527 0
M  V30 8837 H 801.683 0.346656 2.01642 0
M  V30 8838 H 801.693 -1.22421 3.892 0
M  V30 8839 H 800.368 -0.102915 4.15773 0
M  V30 8840 H 798.945 -1.72445 3.30632 0
M  V30 8841 N 801.13 -1.57531 -0.0467866 0
M  V30 8842 C 802.378 -1.88078 -0.739656 0
M  V30 8843 C 802.699 -0.821936 -1.76831 0
M  V30 8844 O 801.969 0.146582 -1.95351 0
M  V30 8845 H 800.549 -0.694075 -0.276169 0
M  V30 8846 H 803.211 -1.94893 -0.0169391 0
M  V30 8847 H 802.307 -2.86396 -1.24031 0
M  V30 8848 N 802.608 0.318715 -1.54344 0
M  V30 8849 C 803.854 1.05765 -1.73037 0
M  V30 8850 C 804.187 1.87514 -0.505181 0
M  V30 8851 O 803.462 1.88021 0.497838 0
M  V30 8852 C 803.745 1.97836 -3.00887 0
M  V30 8853 C 803.598 1.19384 -4.33668 0
M  V30 8854 C 804.917 2.97285 -3.24514 0
M  V30 8855 H 802.036 0.383104 -0.629603 0
M  V30 8856 H 804.678 0.333864 -1.87044 0
M  V30 8857 H 802.828 2.59552 -2.89076 0
M  V30 8858 H 804.5 0.600906 -4.57369 0
M  V30 8859 H 802.743 0.496198 -4.30953 0
M  V30 8860 H 803.414 1.87014 -5.19355 0
M  V30 8861 H 805.89 2.45693 -3.35819 0
M  V30 8862 H 804.766 3.58887 -4.15321 0
M  V30 8863 H 805.027 3.70003 -2.41971 0
M  V30 8864 N 804.086 1.46499 0.581025 0
M  V30 8865 C 805.332 1.52121 1.34116 0
M  V30 8866 C 805.665 0.173031 1.93428 0
M  V30 8867 O 804.94 -0.815729 1.76568 0
M  V30 8868 C 805.223 2.62108 2.46924 0
M  V30 8869 C 805.076 4.06462 1.92636 0
M  V30 8870 C 806.395 2.68167 3.48962 0
M  V30 8871 H 803.514 0.5538 0.486287 0
M  V30 8872 H 806.156 1.78443 0.652538 0
M  V30 8873 H 804.306 2.39794 3.05665 0
M  V30 8874 H 805.978 4.40068 1.3834 0
M  V30 8875 H 804.221 4.15862 1.23455 0
M  V30 8876 H 804.892 4.79152 2.74076 0
M  V30 8877 H 807.368 2.8823 3.00104 0
M  V30 8878 H 806.244 3.46942 4.2535 0
M  V30 8879 H 806.505 1.74284 4.06297 0
M  V30 8880 N 805.565 -0.825799 1.34232 0
M  V30 8881 C 806.495 -1.95151 1.28212 0
M  V30 8882 C 807.476 -1.69345 0.160123 0
M  V30 8883 O 808.661 -1.90983 0.352019 0
M  V30 8884 C 805.791 -3.31554 1.03388 0
M  V30 8885 C 804.745 -3.71793 2.12023 0
M  V30 8886 C 804.071 -5.06147 1.72392 0
M  V30 8887 C 805.371 -3.84193 3.53826 0
M  V30 8888 H 807.065 -2.00445 2.22401 0
M  V30 8889 H 804.611 -0.962996 1.07063 0
M  V30 8890 H 806.564 -4.09889 0.978225 0
M  V30 8891 H 805.288 -3.26551 0.0564142 0
M  V30 8892 H 803.947 -2.95731 2.16654 0
M  V30 8893 H 803.595 -4.97628 0.733137 0
M  V30 8894 H 803.295 -5.34041 2.451 0
M  V30 8895 H 804.819 -5.86943 1.68317 0
M  V30 8896 H 806.233 -4.52806 3.51624 0
M  V30 8897 H 804.63 -4.23538 4.2513 0
M  V30 8898 H 805.7 -2.86272 3.91377 0
M  V30 8899 N 807.043 -1.17915 -1.04565 0
M  V30 8900 C 807.973 -0.925033 -2.14395 0
M  V30 8901 C 808.954 0.135375 -1.6956 0
M  V30 8902 O 810.139 -0.0161774 -1.94193 0
M  V30 8903 C 807.269 -0.444469 -3.44444 0
M  V30 8904 C 806.223 -1.44478 -4.02877 0
M  V30 8905 C 805.549 -0.821933 -5.28345 0
M  V30 8906 C 806.849 -2.81995 -4.39632 0
M  V30 8907 H 808.543 -1.84354 -2.35911 0
M  V30 8908 H 806.089 -0.887806 -1.13375 0
M  V30 8909 H 808.042 -0.254078 -4.20633 0
M  V30 8910 H 806.766 0.509592 -3.226 0
M  V30 8911 H 805.425 -1.62203 -3.28764 0
M  V30 8912 H 805.073 0.139161 -5.02807 0
M  V30 8913 H 804.773 -1.48976 -5.68401 0
M  V30 8914 H 806.297 -0.641959 -6.07216 0
M  V30 8915 H 807.711 -2.67952 -5.06828 0
M  V30 8916 H 806.108 -3.45414 -4.90723 0
M  V30 8917 H 807.178 -3.35927 -3.49687 0
M  V30 8918 N 808.521 1.23394 -0.980386 0
M  V30 8919 C 809.469 2.26872 -0.513018 0
M  V30 8920 C 810.463 1.63853 0.429948 0
M  V30 8921 O 811.669 1.77417 0.303842 0
M  V30 8922 H 808.044 0.737398 -0.147473 0
M  V30 8923 H 810.015 2.63654 -1.39746 0
M  V30 8924 C 808.764 3.47289 0.168962 0
M  V30 8925 H 808.087 3.96033 -0.547546 0
M  V30 8926 H 809.527 4.21502 0.459616 0
M  V30 8927 C 807.986 3.06425 1.40019 0
M  V30 8928 O 808.516 3.14708 2.49643 0
M  V30 8929 N 806.722 2.61339 1.27084 0
M  V30 8930 H 806.269 2.54799 0.378872 0
M  V30 8931 H 806.227 2.34364 2.09573 0
M  V30 8932 N 809.999 0.752036 1.385 0
M  V30 8933 C 811.41 0.375385 1.82887 0
M  V30 8934 C 811.761 -1.09575 1.62751 0
M  V30 8935 O 810.886 -1.84685 1.12785 0
M  V30 8936 C 811.481 0.674563 3.32017 0
M  V30 8937 C 810.04 0.351208 3.74758 0
M  V30 8938 C 809.187 0.928531 2.61292 0
M  V30 8939 H 812.138 0.948313 1.27251 0
M  V30 8940 H 812.159 -0.0477781 3.8047 0
M  V30 8941 H 811.671 1.74533 3.46641 0
M  V30 8942 H 809.772 -0.713042 3.65714 0
M  V30 8943 H 809.885 0.845675 4.71577 0
M  V30 8944 H 808.249 0.354012 2.52228 0
M  V30 8945 H 809.032 2.0043 2.78716 0
M  V30 8946 N 811.477 -1.49425 0.500989 0
M  V30 8947 C 812.726 -2.01649 -0.04538 0
M  V30 8948 C 813.039 -1.38572 -1.38047 0
M  V30 8949 O 814.245 -1.82124 -2.01353 0
M  V30 8950 C 812.701 -3.5966 -0.131337 0
M  V30 8951 C 812.309 -4.3171 1.19711 0
M  V30 8952 C 814.053 -4.19828 -0.628071 0
M  V30 8953 C 811.96 -5.81579 1.07332 0
M  V30 8954 H 810.89 -0.753715 -0.0207329 0
M  V30 8955 H 813.541 -1.71962 0.640407 0
M  V30 8956 H 811.923 -3.86063 -0.881574 0
M  V30 8957 H 813.097 -4.17008 1.96064 0
M  V30 8958 H 811.412 -3.83286 1.62729 0
M  V30 8959 H 814.009 -5.2958 -0.738198 0
M  V30 8960 H 814.352 -3.83194 -1.6269 0
M  V30 8961 H 814.885 -3.97746 0.0656314 0
M  V30 8962 H 811.624 -6.22738 2.04642 0
M  V30 8963 H 811.144 -5.98774 0.350679 0
M  V30 8964 H 812.823 -6.42614 0.752047 0
M  V30 8965 N 812.955 -0.234822 -1.55841 0
M  V30 8966 C 814.366 0.270588 -1.84729 0
M  V30 8967 C 814.717 1.58494 -1.15646 0
M  V30 8968 O 813.842 2.12071 -0.430667 0
M  V30 8969 C 814.437 0.497733 -3.35124 0
M  V30 8970 C 812.996 0.947428 -3.64281 0
M  V30 8971 C 812.143 0.01787 -2.77294 0
M  V30 8972 H 815.094 -0.457691 -1.51957 0
M  V30 8973 H 815.115 1.34199 -3.56049 0
M  V30 8974 H 814.627 -0.459037 -3.85376 0
M  V30 8975 H 812.728 1.91709 -3.19497 0
M  V30 8976 H 812.841 0.812651 -4.72158 0
M  V30 8977 H 811.205 0.527071 -2.49187 0
M  V30 8978 H 811.988 -0.934056 -3.30349 0
M  V30 8979 N 814.433 1.57553 0.0384317 0
M  V30 8980 C 815.38 2.05942 1.04194 0
M  V30 8981 C 816.35 0.946637 1.36484 0
M  V30 8982 O 817.535 1.21658 1.46983 0
M  V30 8983 C 814.675 2.53588 2.34066 0
M  V30 8984 C 813.788 3.7862 2.08017 0
M  V30 8985 C 812.923 4.14915 3.31692 0
M  V30 8986 C 811.962 5.32891 3.01155 0
M  V30 8987 N 811.099 5.64662 4.17254 0
M  V30 8988 H 815.939 2.91429 0.622341 0
M  V30 8989 H 813.476 1.44098 0.295684 0
M  V30 8990 H 815.434 2.79276 3.09937 0
M  V30 8991 H 814.064 1.71031 2.73767 0
M  V30 8992 H 813.116 3.60073 1.22686 0
M  V30 8993 H 814.428 4.64613 1.81484 0
M  V30 8994 H 813.582 4.41681 4.15936 0
M  V30 8995 H 812.321 3.27555 3.6133 0
M  V30 8996 H 811.326 5.05887 2.15311 0
M  V30 8997 H 812.551 6.21896 2.72804 0
M  V30 8998 H 810.497 4.80261 4.46861 0
M  V30 8999 H 810.414 6.45145 3.94112 0
M  V30 9000 H 811.682 5.96 5.02399 0
M  V30 9001 N 815.911 -0.310526 1.54511 0
M  V30 9002 C 817.188 -1.06593 1.64004 0
M  V30 9003 C 817.568 -2.05519 0.482216 0
M  V30 9004 O 816.916 -2.22455 -0.52212 0
M  V30 9005 C 817.126 -1.75627 3.01589 0
M  V30 9006 C 818.474 -2.28173 3.58081 0
M  V30 9007 O 819.498 -1.85674 3.03979 0
M  V30 9008 O 818.357 -3.06015 4.52788 0
M  V30 9009 H 815.451 -0.492109 0.664649 0
M  V30 9010 H 817.997 -0.309374 1.66856 0
M  V30 9011 H 816.769 -1.03743 3.77297 0
M  V30 9012 H 816.392 -2.58061 3.02473 0
M  V30 9013 N 817.389 -1.46805 -0.573248 0
M  V30 9014 C 818.336 -1.58084 -1.68161 0
M  V30 9015 C 819.306 -0.424636 -1.6058 0
M  V30 9016 O 820.491 -0.642623 -1.79652 0
M  V30 9017 C 817.631 -1.58601 -3.06496 0
M  V30 9018 C 816.744 -2.85023 -3.24632 0
M  V30 9019 C 815.879 -2.76981 -4.53271 0
M  V30 9020 C 814.918 -3.983 -4.64783 0
M  V30 9021 N 814.055 -3.88589 -5.84759 0
M  V30 9022 H 818.895 -2.52755 -1.57858 0
M  V30 9023 H 816.432 -1.25385 -0.769218 0
M  V30 9024 H 818.39 -1.56885 -3.86579 0
M  V30 9025 H 817.02 -0.674553 -3.15673 0
M  V30 9026 H 816.072 -2.96678 -2.38089 0
M  V30 9027 H 817.384 -3.7491 -3.29004 0
M  V30 9028 H 816.538 -2.73424 -5.41594 0
M  V30 9029 H 815.277 -1.84751 -4.51352 0
M  V30 9030 H 814.282 -4.02179 -3.74876 0
M  V30 9031 H 815.507 -4.91639 -4.68474 0
M  V30 9032 H 813.453 -2.99151 -5.83819 0
M  V30 9033 H 813.37 -4.7214 -5.90441 0
M  V30 9034 H 814.638 -3.89022 -6.75486 0
M  V30 9035 N 818.867 0.818669 -1.34668 0
M  V30 9036 C 819.814 1.92983 -1.26595 0
M  V30 9037 C 820.784 1.65506 -0.140315 0
M  V30 9038 O 821.969 1.88063 -0.322005 0
M  V30 9039 C 819.109 3.2932 -1.03163 0
M  V30 9040 C 818.222 3.69061 -2.24539 0
M  V30 9041 C 817.357 4.94368 -1.94355 0
M  V30 9042 C 816.396 5.26702 -3.11851 0
M  V30 9043 N 815.533 6.43187 -2.81522 0
M  V30 9044 H 820.373 1.99219 -2.2162 0
M  V30 9045 H 817.91 0.974612 -1.1018 0
M  V30 9046 H 819.868 4.07897 -0.87613 0
M  V30 9047 H 818.498 3.22584 -0.118045 0
M  V30 9048 H 817.55 2.85842 -2.50995 0
M  V30 9049 H 818.862 3.88924 -3.12313 0
M  V30 9050 H 818.016 5.80742 -1.75566 0
M  V30 9051 H 816.755 4.76515 -1.03848 0
M  V30 9052 H 815.76 4.38823 -3.31231 0
M  V30 9053 H 816.985 5.46492 -4.03142 0
M  V30 9054 H 814.931 6.26783 -1.93596 0
M  V30 9055 H 814.848 6.63243 -3.62829 0
M  V30 9056 H 816.116 7.32621 -2.66247 0
M  V30 9057 N 820.346 1.18468 1.03938 0
M  V30 9058 C 821.592 0.992302 1.77553 0
M  V30 9059 C 821.947 -0.472959 1.86496 0
M  V30 9060 O 821.24 -1.34662 1.36296 0
M  V30 9061 C 821.434 1.58229 3.20466 0
M  V30 9062 C 821.263 3.1034 3.25452 0
M  V30 9063 C 820.033 3.79166 3.34008 0
M  V30 9064 C 822.231 4.07814 3.13357 0
M  V30 9065 N 820.213 5.18768 3.28258 0
M  V30 9066 C 821.584 5.33946 3.15121 0
M  V30 9067 C 823.639 3.99315 2.97409 0
M  V30 9068 C 822.342 6.52565 3.02574 0
M  V30 9069 C 824.368 5.17532 2.86208 0
M  V30 9070 C 823.73 6.42557 2.88617 0
M  V30 9071 H 819.829 0.417131 0.661457 0
M  V30 9072 H 822.413 1.50265 1.23808 0
M  V30 9073 H 820.584 1.0981 3.72554 0
M  V30 9074 H 822.316 1.32531 3.82384 0
M  V30 9075 H 819.071 3.29905 3.39794 0
M  V30 9076 H 819.495 5.91783 3.28818 0
M  V30 9077 H 824.137 3.03485 2.94375 0
M  V30 9078 H 821.855 7.48592 3.0436 0
M  V30 9079 H 825.441 5.12748 2.7492 0
M  V30 9080 H 824.321 7.32494 2.80039 0
M  V30 9081 N 821.824 -1.22873 0.986916 0
M  V30 9082 C 823.073 -1.90772 0.654911 0
M  V30 9083 C 823.386 -1.77768 -0.81595 0
M  V30 9084 O 824.592 -2.40529 -1.25929 0
M  V30 9085 C 823.048 -3.42003 1.12081 0
M  V30 9086 C 822.656 -3.63655 2.61647 0
M  V30 9087 C 824.4 -4.15638 0.862854 0
M  V30 9088 C 822.307 -5.08555 3.01871 0
M  V30 9089 H 821.237 -0.714362 0.241252 0
M  V30 9090 H 823.888 -1.39196 1.19568 0
M  V30 9091 H 822.27 -3.92725 0.508207 0
M  V30 9092 H 823.444 -3.2345 3.28202 0
M  V30 9093 H 821.759 -3.03341 2.8526 0
M  V30 9094 H 824.356 -5.22425 1.13915 0
M  V30 9095 H 824.699 -4.15814 -0.201036 0
M  V30 9096 H 825.232 -3.70924 1.43736 0
M  V30 9097 H 821.971 -5.13514 4.07411 0
M  V30 9098 H 821.491 -5.49684 2.40015 0
M  V30 9099 H 823.17 -5.76936 2.92839 0
M  V30 9100 N 823.302 -0.75937 -1.38099 0
M  V30 9101 C 824.232 -0.151077 -2.33011 0
M  V30 9102 C 825.213 0.697099 -1.5516 0
M  V30 9103 O 826.398 0.637101 -1.83452 0
M  V30 9104 C 823.528 0.738423 -3.39359 0
M  V30 9105 C 822.482 -0.0074741 -4.27999 0
M  V30 9106 C 821.808 1.00066 -5.25253 0
M  V30 9107 C 823.108 -1.17926 -5.08813 0
M  V30 9108 H 824.802 -0.943933 -2.84131 0
M  V30 9109 H 822.348 -0.455362 -1.36611 0
M  V30 9110 H 824.301 1.17369 -4.04725 0
M  V30 9111 H 823.025 1.56366 -2.86735 0
M  V30 9112 H 821.684 -0.423379 -3.64147 0
M  V30 9113 H 821.332 1.82012 -4.68914 0
M  V30 9114 H 821.032 0.506199 -5.85416 0
M  V30 9115 H 822.556 1.43512 -5.93495 0
M  V30 9116 H 823.97 -0.821262 -5.67387 0
M  V30 9117 H 822.367 -1.60497 -5.78239 0
M  V30 9118 H 823.437 -1.98938 -4.42212 0
M  V30 9119 N 824.78 1.49157 -0.508906 0
M  V30 9120 C 826.005 2.07376 0.0315182 0
M  V30 9121 C 826.43 1.36575 1.2934 0
M  V30 9122 O 825.788 0.424963 1.76249 0
M  V30 9123 C 825.836 3.59661 0.260118 0
M  V30 9124 O 824.94 3.90255 1.33322 0
M  V30 9125 H 824.281 0.663334 -0.029739 0
M  V30 9126 H 826.811 1.91857 -0.710791 0
M  V30 9127 H 826.821 4.05056 0.489225 0
M  V30 9128 H 825.496 4.10601 -0.661794 0
M  V30 9129 H 824.073 3.56661 1.08844 0
M  V30 9130 N 826.258 0.243083 1.55714 0
M  V30 9131 C 827.208 -0.671915 2.17875 0
M  V30 9132 C 828.192 -1.14199 1.13347 0
M  V30 9133 O 829.384 -1.09239 1.39269 0
M  V30 9134 C 826.513 -1.87027 2.87881 0
M  V30 9135 C 825.599 -1.41888 3.99661 0
M  V30 9136 N 825.99 -0.681465 5.01188 0
M  V30 9137 C 824.288 -1.70447 4.12145 0
M  V30 9138 C 824.989 -0.448285 5.7997 0
M  V30 9139 N 823.965 -1.01137 5.34109 0
M  V30 9140 H 827.767 -0.100321 2.93729 0
M  V30 9141 H 825.281 0.0452371 1.62337 0
M  V30 9142 H 827.278 -2.53674 3.3084 0
M  V30 9143 H 825.938 -2.44613 2.13529 0
M  V30 9144 H 826.949 -0.331959 5.16835 0
M  V30 9145 H 823.626 -2.29198 3.48962 0
M  V30 9146 H 825.016 0.140141 6.71754 0
M  V30 9147 N 827.736 -1.57571 -0.0300757 0
M  V30 9148 C 828.646 -2.09892 -1.04798 0
M  V30 9149 C 829.662 -1.03732 -1.39698 0
M  V30 9150 O 830.838 -1.35461 -1.49038 0
M  V30 9151 C 827.903 -2.56707 -2.33028 0
M  V30 9152 C 826.964 -3.77345 -2.04718 0
M  V30 9153 C 826.197 -4.21918 -3.26834 0
M  V30 9154 O 826.42 -3.66025 -4.37472 0
M  V30 9155 O 825.354 -5.14362 -3.12594 0
M  V30 9156 H 829.18 -2.97023 -0.633344 0
M  V30 9157 H 826.765 -1.47344 -0.246991 0
M  V30 9158 H 828.647 -2.87154 -3.08417 0
M  V30 9159 H 827.322 -1.72688 -2.73789 0
M  V30 9160 H 826.229 -3.51919 -1.26901 0
M  V30 9161 H 827.562 -4.62345 -1.68813 0
M  V30 9162 N 829.214 0.302327 -1.54673 0
M  V30 9163 C 830.491 1.05721 -1.64567 0
M  V30 9164 C 830.871 2.0526 -0.493108 0
M  V30 9165 O 830.219 2.22729 0.510315 0
M  V30 9166 C 830.429 1.74025 -3.02517 0
M  V30 9167 C 831.777 2.26271 -3.59286 0
M  V30 9168 O 832.801 1.8406 -3.0496 0
M  V30 9169 O 831.66 3.0361 -4.54404 0
M  V30 9170 H 828.754 0.488577 -0.667249 0
M  V30 9171 H 831.3 0.300521 -1.67018 0
M  V30 9172 H 830.072 1.0174 -3.77842 0
M  V30 9173 H 829.695 2.56454 -3.03838 0
M  V30 9174 N 830.692 1.47107 0.565454 0
M  V30 9175 C 831.938 1.53535 1.32495 0
M  V30 9176 C 832.271 0.193537 1.93233 0
M  V30 9177 O 831.546 -0.796956 1.77423 0
M  V30 9178 C 831.829 2.64712 2.4413 0
M  V30 9179 C 831.682 4.08482 1.88314 0
M  V30 9180 C 833.001 2.71853 3.46098 0
M  V30 9181 H 830.12 0.558926 0.480386 0
M  V30 9182 H 832.762 1.79125 0.633575 0
M  V30 9183 H 830.912 2.43023 3.03104 0
M  V30 9184 H 832.584 4.4151 1.33665 0
M  V30 9185 H 830.827 4.17148 1.19037 0
M  V30 9186 H 831.498 4.82032 2.68978 0
M  V30 9187 H 833.974 2.91397 2.97031 0
M  V30 9188 H 832.85 3.51433 4.21646 0
M  V30 9189 H 833.111 1.78584 4.04426 0
M  V30 9190 N 832.17 -0.811516 1.35101 0
M  V30 9191 C 833.419 -1.56343 1.27435 0
M  V30 9192 C 833.732 -1.95019 -0.150696 0
M  V30 9193 O 834.938 -2.6924 -0.349586 0
M  V30 9194 C 833.394 -2.82124 2.23459 0
M  V30 9195 C 833.002 -2.50706 3.71283 0
M  V30 9196 C 834.746 -3.60137 2.24726 0
M  V30 9197 C 832.653 -3.72748 4.59143 0
M  V30 9198 H 831.583 -0.58682 0.473453 0
M  V30 9199 H 834.234 -0.892465 1.60335 0
M  V30 9200 H 832.616 -3.50905 1.83525 0
M  V30 9201 H 833.79 -1.89962 4.19823 0
M  V30 9202 H 832.105 -1.85947 3.72576 0
M  V30 9203 H 834.702 -4.50775 2.87587 0
M  V30 9204 H 835.045 -3.97101 1.24965 0
M  V30 9205 H 835.578 -2.98311 2.63164 0
M  V30 9206 H 832.317 -3.40896 5.59884 0
M  V30 9207 H 831.837 -4.32735 4.15332 0
M  V30 9208 H 833.516 -4.40033 4.74321 0
M  V30 9209 N 833.648 -1.19017 -1.03309 0
M  V30 9210 C 834.578 -0.94772 -2.13402 0
M  V30 9211 C 835.559 0.117383 -1.69694 0
M  V30 9212 O 836.744 -0.0367733 -1.94165 0
M  V30 9213 C 833.874 -0.480977 -3.43953 0
M  V30 9214 C 832.828 -1.48743 -4.01322 0
M  V30 9215 C 832.154 -0.877924 -5.27443 0
M  V30 9216 C 833.454 -2.86642 -4.36616 0
M  V30 9217 H 835.148 -1.86846 -2.33942 0
M  V30 9218 H 832.694 -0.899781 -1.12427 0
M  V30 9219 H 834.647 -0.298677 -4.2034 0
M  V30 9220 H 833.371 0.475348 -3.23122 0
M  V30 9221 H 832.03 -1.65681 -3.27025 0
M  V30 9222 H 831.678 0.0858232 -5.02927 0
M  V30 9223 H 831.378 -1.54996 -5.66789 0
M  V30 9224 H 832.902 -0.706326 -6.06501 0
M  V30 9225 H 834.316 -2.73312 -5.03958 0
M  V30 9226 H 832.713 -3.50599 -4.87032 0
M  V30 9227 H 833.783 -3.39617 -3.46105 0
M  V30 9228 N 835.127 1.22348 -0.993418 0
M  V30 9229 C 836.375 1.90733 -0.668246 0
M  V30 9230 C 836.696 1.77732 0.802261 0
M  V30 9231 O 835.966 1.16486 1.57505 0
M  V30 9232 H 834.546 0.705966 -0.244174 0
M  V30 9233 H 837.208 1.48691 -1.26004 0
M  V30 9234 H 836.304 2.97883 -0.931239 0
M  V30 9235 N 836.605 0.766683 1.37694 0
M  V30 9236 C 837.515 0.150158 2.34119 0
M  V30 9237 C 838.531 -0.685513 1.59927 0
M  V30 9238 O 839.707 -0.606616 1.92047 0
M  V30 9239 C 836.772 -0.722562 3.39087 0
M  V30 9240 C 835.833 0.128983 4.29106 0
M  V30 9241 C 835.066 -0.702178 5.29061 0
M  V30 9242 O 835.289 -1.93954 5.36412 0
M  V30 9243 O 834.223 -0.114056 6.01792 0
M  V30 9244 H 838.049 0.946829 2.88563 0
M  V30 9245 H 835.634 0.527765 1.39768 0
M  V30 9246 H 837.516 -1.22095 4.03325 0
M  V30 9247 H 836.191 -1.49751 2.86978 0
M  V30 9248 H 835.098 0.673612 3.67985 0
M  V30 9249 H 836.431 0.866892 4.84506 0
M  V30 9250 N 838.083 -1.48885 0.516809 0
M  V30 9251 C 839.013 -2.32241 -0.242157 0
M  V30 9252 C 839.994 -1.41258 -0.947633 0
M  V30 9253 O 841.179 -1.70156 -0.935973 0
M  V30 9254 C 838.309 -3.22151 -1.29754 0
M  V30 9255 C 837.263 -4.22053 -0.710995 0
M  V30 9256 C 836.589 -5.01007 -1.86806 0
M  V30 9257 C 837.889 -5.21388 0.30853 0
M  V30 9258 H 839.583 -2.95943 0.453651 0
M  V30 9259 H 837.129 -1.42316 0.219612 0
M  V30 9260 H 839.082 -3.79284 -1.83634 0
M  V30 9261 H 837.806 -2.56423 -2.02274 0
M  V30 9262 H 836.465 -3.66087 -0.193819 0
M  V30 9263 H 836.113 -4.31713 -2.58133 0
M  V30 9264 H 835.813 -5.68615 -1.48159 0
M  V30 9265 H 837.337 -5.60989 -2.4109 0
M  V30 9266 H 838.751 -5.73122 -0.142703 0
M  V30 9267 H 837.148 -5.96975 0.611673 0
M  V30 9268 H 838.218 -4.69329 1.21894 0
M  V30 9269 N 839.561 -0.251338 -1.55583 0
M  V30 9270 C 840.491 0.640437 -2.24545 0
M  V30 9271 C 841.472 1.17781 -1.22726 0
M  V30 9272 O 842.657 1.21633 -1.5139 0
M  V30 9273 C 839.787 1.8355 -2.94834 0
M  V30 9274 C 838.741 1.4307 -4.03379 0
M  V30 9275 C 838.067 2.70695 -4.61116 0
M  V30 9276 C 839.367 0.59848 -5.1886 0
M  V30 9277 H 841.061 0.0653772 -2.99329 0
M  V30 9278 H 838.607 0.0300042 -1.43969 0
M  V30 9279 H 840.56 2.46505 -3.4178 0
M  V30 9280 H 839.284 2.43601 -2.17546 0
M  V30 9281 H 837.943 0.824474 -3.57209 0
M  V30 9282 H 837.591 3.28954 -3.80524 0
M  V30 9283 H 837.291 2.44332 -5.34393 0
M  V30 9284 H 838.815 3.34541 -5.10798 0
M  V30 9285 H 840.229 1.13244 -5.62004 0
M  V30 9286 H 838.626 0.430728 -5.98552 0
M  V30 9287 H 839.696 -0.38829 -4.83343 0
M  V30 9288 N 841.039 1.57585 0.0217189 0
M  V30 9289 C 842.287 1.89231 0.709641 0
M  V30 9290 C 842.608 0.849964 1.75501 0
M  V30 9291 O 841.878 -0.115485 1.95559 0
M  V30 9292 H 840.458 0.69838 0.265092 0
M  V30 9293 H 843.12 1.94895 -0.0140688 0
M  V30 9294 H 842.216 2.88333 1.19459 0
M  V30 9295 N 842.517 -0.29412 1.54831 0
M  V30 9296 C 843.464 -1.36296 1.86258 0
M  V30 9297 C 844.434 -1.50061 0.712097 0
M  V30 9298 O 845.619 -1.64809 0.961381 0
M  V30 9299 C 842.759 -2.72187 2.12151 0
M  V30 9300 C 841.872 -2.66816 3.39755 0
M  V30 9301 C 841.007 -3.94747 3.55455 0
M  V30 9302 C 840.046 -3.838 4.76827 0
M  V30 9303 N 839.183 -5.03521 4.89296 0
M  V30 9304 H 844.023 -1.08796 2.7743 0
M  V30 9305 H 841.56 -0.526069 1.37371 0
M  V30 9306 H 843.518 -3.51225 2.25159 0
M  V30 9307 H 842.148 -2.97934 1.24237 0
M  V30 9308 H 841.2 -1.79605 3.3533 0
M  V30 9309 H 842.512 -2.5462 4.28917 0
M  V30 9310 H 841.666 -4.82223 3.68166 0
M  V30 9311 H 840.405 -4.09785 2.64438 0
M  V30 9312 H 839.41 -2.94708 4.64141 0
M  V30 9313 H 840.635 -3.70301 5.69258 0
M  V30 9314 H 838.581 -5.1901 4.01204 0
M  V30 9315 H 838.498 -4.93775 5.72471 0
M  V30 9316 H 839.766 -5.92629 5.06371 0
M  V30 9317 N 843.995 -1.47404 -0.557645 0
M  V30 9318 C 845.243 -1.53703 -1.31224 0
M  V30 9319 C 845.564 -0.200742 -1.93964 0
M  V30 9320 O 844.834 0.775253 -1.79907 0
M  V30 9321 H 843.414 -0.566171 -0.487299 0
M  V30 9322 H 846.076 -1.83699 -0.651195 0
M  V30 9323 H 845.172 -2.30335 -2.10599 0
M  V30 9324 N 845.473 0.80434 -1.35529 0
M  V30 9325 C 846.421 1.93769 -1.28671 0
M  V30 9326 C 847.415 1.68428 -0.181222 0
M  V30 9327 O 848.621 1.76617 -0.347338 0
M  V30 9328 H 844.996 0.636663 -0.400206 0
M  V30 9329 H 846.967 1.96673 -2.24415 0
M  V30 9330 C 845.716 3.30572 -1.07784 0
M  V30 9331 H 845.039 3.5063 -1.9209 0
M  V30 9332 H 846.479 4.1027 -1.07027 0
M  V30 9333 C 844.938 3.36193 0.218213 0
M  V30 9334 O 845.468 3.82941 1.21323 0
M  V30 9335 N 843.674 2.89455 0.257761 0
M  V30 9336 H 843.221 2.51604 -0.552562 0
M  V30 9337 H 843.179 2.93597 1.12465 0
M  V30 9338 N 846.951 1.19563 1.02676 0
M  V30 9339 C 848.198 0.999568 1.7611 0
M  V30 9340 C 848.526 -0.469432 1.8875 0
M  V30 9341 O 847.781 -1.36481 1.40255 0
M  V30 9342 C 848.08 1.61619 3.18769 0
M  V30 9343 C 847.746 3.11366 3.26132 0
M  V30 9344 C 846.408 3.52234 3.27848 0
M  V30 9345 C 848.76 4.07374 3.25109 0
M  V30 9346 C 846.088 4.87658 3.26201 0
M  V30 9347 C 848.44 5.42731 3.25002 0
M  V30 9348 C 847.104 5.83027 3.25017 0
M  V30 9349 H 846.374 0.365768 0.644434 0
M  V30 9350 H 849.021 1.48838 1.20497 0
M  V30 9351 H 847.326 1.04974 3.77476 0
M  V30 9352 H 849.023 1.43975 3.74262 0
M  V30 9353 H 845.613 2.78804 3.25525 0
M  V30 9354 H 849.797 3.76842 3.22961 0
M  V30 9355 H 845.053 5.18156 3.24537 0
M  V30 9356 H 849.227 6.16879 3.23161 0
M  V30 9357 H 846.854 6.87936 3.23494 0
M  V30 9358 N 848.429 -1.21819 0.999893 0
M  V30 9359 C 849.677 -1.90375 0.678351 0
M  V30 9360 C 849.998 -1.78155 -0.792824 0
M  V30 9361 O 849.268 -1.17319 -1.56885 0
M  V30 9362 H 847.848 -0.704661 0.247915 0
M  V30 9363 H 850.51 -1.48021 1.2679 0
M  V30 9364 H 849.606 -2.97385 0.947023 0
M  V30 9365 N 849.908 -0.773975 -1.37286 0
M  V30 9366 C 850.818 -0.162571 -2.34036 0
M  V30 9367 C 851.834 0.677022 -1.60289 0
M  V30 9368 O 853.01 0.596423 -1.92366 0
M  V30 9369 C 850.075 0.70457 -3.39465 0
M  V30 9370 C 849.136 -0.151738 -4.29032 0
M  V30 9371 C 848.369 0.674111 -5.29426 0
M  V30 9372 O 848.592 1.91107 -5.37433 0
M  V30 9373 O 847.526 0.0821398 -6.01844 0
M  V30 9374 H 851.352 -0.962119 -2.88057 0
M  V30 9375 H 848.937 -0.53517 -1.39486 0
M  V30 9376 H 850.819 1.19954 -4.03967 0
M  V30 9377 H 849.494 1.48227 -2.87768 0
M  V30 9378 H 848.401 -0.693118 -3.67623 0
M  V30 9379 H 849.734 -0.892575 -4.84039 0
M  V30 9380 N 851.386 1.48609 -0.524698 0
M  V30 9381 C 852.632 2.02797 0.0113382 0
M  V30 9382 C 852.965 1.40147 1.34433 0
M  V30 9383 O 852.24 0.545368 1.86698 0
M  V30 9384 C 852.523 3.59832 0.138931 0
M  V30 9385 C 852.376 4.32971 -1.21886 0
M  V30 9386 C 853.695 4.3145 0.868265 0
M  V30 9387 H 850.814 0.736995 0.00264645 0
M  V30 9388 H 853.456 1.77388 -0.680704 0
M  V30 9389 H 851.606 3.81612 0.72834 0
M  V30 9390 H 853.278 4.22624 -1.84897 0
M  V30 9391 H 851.521 3.94597 -1.80211 0
M  V30 9392 H 852.192 5.41279 -1.08263 0
M  V30 9393 H 854.668 4.14468 0.368145 0
M  V30 9394 H 853.544 5.41025 0.926428 0
M  V30 9395 H 853.805 3.98358 1.91737 0
M  V30 9396 N 852.864 0.259585 1.55447 0
M  V30 9397 C 854.094 -0.364863 2.03353 0
M  V30 9398 C 854.502 -1.5116 1.13786 0
M  V30 9399 O 853.845 -1.83109 0.147283 0
M  V30 9400 C 853.907 -0.922587 3.4746 0
M  V30 9401 C 853.571 0.0935207 4.56904 0
M  V30 9402 C 854.568 0.907571 5.11917 0
M  V30 9403 C 852.253 0.223276 5.01804 0
M  V30 9404 C 854.247 1.83771 6.10333 0
M  V30 9405 C 851.934 1.15691 6.00049 0
M  V30 9406 C 852.932 1.96264 6.54194 0
M  V30 9407 O 852.62 2.88052 7.50521 0
M  V30 9408 H 852.352 -0.0893313 0.670072 0
M  V30 9409 H 854.906 0.384821 2.01763 0
M  V30 9410 H 853.136 -1.72206 3.4624 0
M  V30 9411 H 854.825 -1.45846 3.78792 0
M  V30 9412 H 855.591 0.817979 4.78052 0
M  V30 9413 H 851.47 -0.393834 4.59315 0
M  V30 9414 H 855.014 2.46703 6.52521 0
M  V30 9415 H 850.911 1.24738 6.33333 0
M  V30 9416 H 851.679 2.82557 7.68182 0
M  V30 9417 N 854.342 -1.57594 -0.0133615 0
M  V30 9418 C 855.289 -2.07574 -1.00905 0
M  V30 9419 C 856.259 -0.968231 -1.34961 0
M  V30 9420 O 857.444 -1.23981 -1.45028 0
M  V30 9421 C 854.584 -2.5728 -2.30002 0
M  V30 9422 C 853.697 -3.81881 -2.01967 0
M  V30 9423 C 852.832 -4.20139 -3.25049 0
M  V30 9424 C 851.871 -5.37614 -2.92639 0
M  V30 9425 N 851.008 -5.71229 -4.08218 0
M  V30 9426 H 855.848 -2.92382 -0.575899 0
M  V30 9427 H 853.385 -1.4455 -0.272722 0
M  V30 9428 H 855.343 -2.84171 -3.05454 0
M  V30 9429 H 853.973 -1.75365 -2.71011 0
M  V30 9430 H 853.025 -3.61979 -1.16942 0
M  V30 9431 H 854.337 -4.67441 -1.74069 0
M  V30 9432 H 853.491 -4.48242 -4.08857 0
M  V30 9433 H 852.23 -3.33262 -3.56073 0
M  V30 9434 H 851.235 -5.09248 -2.07235 0
M  V30 9435 H 852.46 -6.26157 -2.62876 0
M  V30 9436 H 850.406 -4.8731 -4.39164 0
M  V30 9437 H 850.323 -6.51333 -3.83799 0
M  V30 9438 H 851.591 -6.03917 -4.92854 0
M  V30 9439 N 855.82 0.285905 -1.54985 0
M  V30 9440 C 857.068 1.01718 -1.74636 0
M  V30 9441 C 857.389 1.87277 -0.543342 0
M  V30 9442 O 856.659 1.90847 0.442078 0
M  V30 9443 H 855.239 0.378549 -0.643979 0
M  V30 9444 H 857.901 0.313247 -1.92366 0
M  V30 9445 H 856.997 1.66159 -2.64192 0
M  V30 9446 N 857.298 1.47698 0.54982 0
M  V30 9447 C 858.526 1.5833 1.33188 0
M  V30 9448 C 858.941 0.236193 1.87317 0
M  V30 9449 O 858.298 -0.77167 1.65383 0
M  V30 9450 C 858.349 2.61438 2.49664 0
M  V30 9451 O 858.07 3.9092 1.97771 0
M  V30 9452 C 859.571 2.82324 3.41772 0
M  V30 9453 H 856.791 0.53443 0.405741 0
M  V30 9454 H 859.335 1.93375 0.665309 0
M  V30 9455 H 857.49 2.29307 3.12245 0
M  V30 9456 H 857.904 4.47323 2.73866 0
M  V30 9457 H 859.378 3.58316 4.19897 0
M  V30 9458 H 859.855 1.90416 3.95776 0
M  V30 9459 H 860.461 3.15682 2.85 0
M  V30 9460 N 858.776 -0.797141 1.35954 0
M  V30 9461 C 859.706 -1.92387 1.32323 0
M  V30 9462 C 860.687 -1.68967 0.196007 0
M  V30 9463 O 861.872 -1.90193 0.39245 0
M  V30 9464 C 859.002 -3.29286 1.10398 0
M  V30 9465 C 857.956 -3.67212 2.19862 0
M  V30 9466 C 857.282 -5.02377 1.8309 0
M  V30 9467 C 858.582 -3.76602 3.61896 0
M  V30 9468 H 860.276 -1.95683 2.26602 0
M  V30 9469 H 857.822 -0.94007 1.09081 0
M  V30 9470 H 859.775 -4.07721 1.06495 0
M  V30 9471 H 858.499 -3.26358 0.125668 0
M  V30 9472 H 857.158 -2.91069 2.22878 0
M  V30 9473 H 856.806 -4.95961 0.838527 0
M  V30 9474 H 856.506 -5.28722 2.56372 0
M  V30 9475 H 858.03 -5.8324 1.80729 0
M  V30 9476 H 859.444 -4.45246 3.6115 0
M  V30 9477 H 857.841 -4.14425 4.34018 0
M  V30 9478 H 858.911 -2.77906 3.97361 0
M  V30 9479 N 860.254 -1.20106 -1.0204 0
M  V30 9480 C 861.201 -0.946468 -2.10501 0
M  V30 9481 C 862.171 0.121902 -1.65652 0
M  V30 9482 O 863.356 -0.0220244 -1.90787 0
M  V30 9483 C 860.496 -0.500499 -3.41451 0
M  V30 9484 C 859.609 -1.63659 -3.998 0
M  V30 9485 C 858.744 -1.14131 -5.18794 0
M  V30 9486 C 857.783 -2.25074 -5.69217 0
M  V30 9487 N 856.92 -1.76791 -6.79477 0
M  V30 9488 H 861.76 -1.87506 -2.31615 0
M  V30 9489 H 859.297 -0.934693 -1.13587 0
M  V30 9490 H 861.255 -0.223276 -4.16602 0
M  V30 9491 H 859.885 0.391099 -3.20422 0
M  V30 9492 H 858.937 -2.02882 -3.21781 0
M  V30 9493 H 860.249 -2.47213 -4.33229 0
M  V30 9494 H 859.403 -0.819826 -6.01135 0
M  V30 9495 H 858.142 -0.275615 -4.86921 0
M  V30 9496 H 857.147 -2.58043 -4.85483 0
M  V30 9497 H 858.372 -3.12114 -6.03127 0
M  V30 9498 H 856.318 -0.925428 -6.4944 0
M  V30 9499 H 856.235 -2.53928 -7.12079 0
M  V30 9500 H 857.503 -1.47631 -7.65392 0
M  V30 9501 N 861.732 1.21287 -1.00634 0
M  V30 9502 C 863.009 1.86 -0.605257 0
M  V30 9503 C 863.389 1.90139 0.917072 0
M  V30 9504 O 862.737 1.40169 1.80458 0
M  V30 9505 C 862.947 3.26183 -1.24119 0
M  V30 9506 C 864.295 4.02562 -1.35015 0
M  V30 9507 O 865.319 3.35499 -1.19661 0
M  V30 9508 O 864.178 5.22638 -1.59726 0
M  V30 9509 H 861.272 0.800549 -0.207486 0
M  V30 9510 H 863.818 1.28959 -1.10307 0
M  V30 9511 H 862.59 3.17878 -2.28186 0
M  V30 9512 H 862.213 3.90845 -0.729807 0
M  V30 9513 N 863.21 0.781244 1.36873 0
M  V30 9514 C 864.157 0.172146 2.30157 0
M  V30 9515 C 865.127 -0.679328 1.51573 0
M  V30 9516 O 866.312 -0.629713 1.80109 0
M  V30 9517 C 863.452 -0.693534 3.38059 0
M  V30 9518 C 862.565 0.175586 4.31643 0
M  V30 9519 C 861.7 -0.695695 5.26625 0
M  V30 9520 C 860.739 0.17538 6.11849 0
M  V30 9521 N 859.876 -0.654416 6.99043 0
M  V30 9522 H 864.716 0.973133 2.81663 0
M  V30 9523 H 862.253 0.491469 1.38647 0
M  V30 9524 H 864.211 -1.21035 3.99257 0
M  V30 9525 H 862.841 -1.46003 2.87894 0
M  V30 9526 H 861.893 0.810295 3.7167 0
M  V30 9527 H 863.205 0.847107 4.91554 0
M  V30 9528 H 862.359 -1.27863 5.93073 0
M  V30 9529 H 861.098 -1.40087 4.67148 0
M  V30 9530 H 860.103 0.77078 5.4437 0
M  V30 9531 H 861.328 0.87803 6.734 0
M  V30 9532 H 859.274 -1.34403 6.42084 0
M  V30 9533 H 859.191 -0.0403998 7.55989 0
M  V30 9534 H 860.459 -1.22144 7.69871 0
M  V30 9535 N 864.689 -1.48329 0.532571 0
M  V30 9536 C 865.917 -2.069 0.00354299 0
M  V30 9537 C 866.332 -1.38876 -1.27902 0
M  V30 9538 O 865.689 -0.477119 -1.76153 0
M  V30 9539 C 865.74 -3.60821 -0.221416 0
M  V30 9540 O 865.461 -4.26291 1.01034 0
M  V30 9541 C 866.962 -4.36194 -0.790531 0
M  V30 9542 H 864.182 -0.670103 0.0346836 0
M  V30 9543 H 866.726 -1.90682 0.738955 0
M  V30 9544 H 864.881 -3.76636 -0.906884 0
M  V30 9545 H 865.295 -5.18475 0.792683 0
M  V30 9546 H 866.769 -5.44657 -0.897347 0
M  V30 9547 H 867.246 -4.00798 -1.79605 0
M  V30 9548 H 867.852 -4.25064 -0.141546 0
M  V30 9549 N 866.167 -0.267825 -1.55308 0
M  V30 9550 C 867.392 0.357487 -2.04296 0
M  V30 9551 C 867.817 1.49222 -1.14518 0
M  V30 9552 O 867.175 1.80741 -0.142292 0
M  V30 9553 C 867.223 0.822899 -3.51085 0
M  V30 9554 O 866.327 1.93078 -3.6441 0
M  V30 9555 H 865.668 0.075025 -0.659748 0
M  V30 9556 H 868.198 -0.399996 -2.00652 0
M  V30 9557 H 868.208 1.12059 -3.92309 0
M  V30 9558 H 866.883 -0.0073562 -4.15899 0
M  V30 9559 H 865.46 1.63618 -3.35087 0
M  V30 9560 N 867.645 1.57599 0.00500368 0
M  V30 9561 C 868.891 1.90631 0.691919 0
M  V30 9562 C 869.224 0.868443 1.737 0
M  V30 9563 O 868.499 -0.113482 1.94169 0
M  V30 9564 C 868.782 3.34255 1.33961 0
M  V30 9565 C 868.635 4.48755 0.306413 0
M  V30 9566 C 869.954 3.77211 2.26715 0
M  V30 9567 H 867.073 0.693279 0.250066 0
M  V30 9568 H 869.715 1.89946 -0.0452634 0
M  V30 9569 H 867.865 3.3497 1.96793 0
M  V30 9570 H 869.537 4.60176 -0.321841 0
M  V30 9571 H 867.78 4.32203 -0.371852 0
M  V30 9572 H 868.451 5.46193 0.798554 0
M  V30 9573 H 870.927 3.78017 1.73904 0
M  V30 9574 H 869.803 4.78466 2.69002 0
M  V30 9575 H 870.064 3.10801 3.14413 0
M  V30 9576 N 869.123 -0.277682 1.55134 0
M  V30 9577 C 870.086 -1.32635 1.86924 0
M  V30 9578 C 871.086 -1.42578 0.743507 0
M  V30 9579 O 872.276 -1.4181 1.01171 0
M  V30 9580 C 869.408 -2.70832 2.07034 0
M  V30 9581 H 870.601 -1.0568 2.80663 0
M  V30 9582 H 868.154 -0.515517 1.47554 0
M  V30 9583 H 868.889 -3.02974 1.15661 0
M  V30 9584 H 868.674 -2.65001 2.88993 0
M  V30 9585 H 870.164 -3.46611 2.32918 0
M  V30 9586 N 870.601 -1.47988 -0.541979 0
M  V30 9587 C 871.847 -1.55623 -1.30036 0
M  V30 9588 C 872.18 -0.224254 -1.92901 0
M  V30 9589 O 871.455 0.768629 -1.78668 0
M  V30 9590 C 871.738 -2.68562 -2.39888 0
M  V30 9591 C 871.591 -4.11426 -1.81792 0
M  V30 9592 C 872.91 -2.77325 -3.41729 0
M  V30 9593 H 870.029 -0.566498 -0.471433 0
M  V30 9594 H 872.671 -1.8011 -0.604998 0
M  V30 9595 H 870.821 -2.47814 -2.992 0
M  V30 9596 H 872.493 -4.43581 -1.26624 0
M  V30 9597 H 870.736 -4.18989 -1.12386 0
M  V30 9598 H 871.407 -4.8625 -2.61276 0
M  V30 9599 H 873.883 -2.96085 -2.92357 0
M  V30 9600 H 872.759 -3.58097 -4.16002 0
M  V30 9601 H 873.02 -1.84995 -4.01534 0
M  V30 9602 N 872.079 0.78992 -1.36375 0
M  V30 9603 C 873.026 1.90254 -1.3066 0
M  V30 9604 C 873.996 1.65171 -0.17539 0
M  V30 9605 O 875.181 1.87338 -0.361824 0
M  V30 9606 C 872.321 3.27057 -1.10125 0
M  V30 9607 C 871.434 3.64215 -2.32317 0
M  V30 9608 C 870.569 4.90134 -2.04798 0
M  V30 9609 C 869.608 5.19969 -3.22953 0
M  V30 9610 N 868.745 6.37071 -2.95102 0
M  V30 9611 H 873.585 1.94474 -2.25796 0
M  V30 9612 H 871.122 0.951022 -1.12223 0
M  V30 9613 H 873.08 4.05947 -0.962453 0
M  V30 9614 H 871.71 3.22261 -0.186444 0
M  V30 9615 H 870.762 2.80454 -2.57002 0
M  V30 9616 H 872.074 3.82212 -3.20492 0
M  V30 9617 H 871.228 5.76888 -1.87845 0
M  V30 9618 H 869.967 4.74205 -1.13932 0
M  V30 9619 H 868.972 4.31699 -3.40465 0
M  V30 9620 H 870.197 5.37817 -4.14644 0
M  V30 9621 H 868.143 6.22535 -2.06848 0
M  V30 9622 H 868.06 6.55398 -3.76815 0
M  V30 9623 H 869.328 7.26808 -2.81727 0
M  V30 9624 N 873.557 1.20646 1.01402 0
M  V30 9625 C 874.785 1.04389 1.78635 0
M  V30 9626 C 875.2 -0.406771 1.84366 0
M  V30 9627 O 874.557 -1.28239 1.2985 0
M  V30 9628 C 874.608 1.62378 3.22979 0
M  V30 9629 O 874.329 3.01768 3.17597 0
M  V30 9630 C 875.83 1.5111 4.1675 0
M  V30 9631 H 873.05 0.367077 0.56169 0
M  V30 9632 H 875.594 1.59789 1.27624 0
M  V30 9633 H 873.749 1.11092 3.7113 0
M  V30 9634 H 874.163 3.29331 4.08217 0
M  V30 9635 H 875.637 1.96441 5.15863 0
M  V30 9636 H 876.114 0.464011 4.36742 0
M  V30 9637 H 876.72 2.01599 3.74483 0
M  V30 9638 N 875.035 -1.20752 1.01276 0
M  V30 9639 C 876.275 -1.91733 0.708372 0
M  V30 9640 C 876.639 -1.76836 -0.747855 0
M  V30 9641 O 877.84 -2.42262 -1.16458 0
M  V30 9642 C 876.111 -3.39155 1.12732 0
M  V30 9643 S 877.67 -4.28518 0.944325 0
M  V30 9644 H 874.488 -0.662394 0.25837 0
M  V30 9645 H 877.09 -1.46085 1.29921 0
M  V30 9646 H 875.794 -3.47516 2.18313 0
M  V30 9647 H 875.325 -3.89826 0.5291 0
M  V30 9648 H 877.34 -4.9596 -0.154278 0
M  V30 9649 N 876.513 -0.788492 -1.36457 0
M  V30 9650 C 877.46 -0.18435 -2.30063 0
M  V30 9651 C 878.43 0.67128 -1.51931 0
M  V30 9652 O 879.615 0.620152 -1.8044 0
M  V30 9653 C 876.755 0.675596 -3.38422 0
M  V30 9654 C 875.868 -0.198475 -4.31544 0
M  V30 9655 C 875.003 0.667757 -5.26986 0
M  V30 9656 C 874.042 -0.207825 -6.11747 0
M  V30 9657 N 873.179 0.617335 -6.99381 0
M  V30 9658 H 878.019 -0.988056 -2.81143 0
M  V30 9659 H 875.556 -0.498815 -1.38384 0
M  V30 9660 H 877.514 1.18916 -3.99894 0
M  V30 9661 H 876.144 1.44474 -2.88664 0
M  V30 9662 H 875.196 -0.829995 -3.71235 0
M  V30 9663 H 876.508 -0.873163 -4.91098 0
M  V30 9664 H 875.662 1.24716 -5.93743 0
M  V30 9665 H 874.401 1.37607 -4.67884 0
M  V30 9666 H 873.406 -0.799638 -5.43954 0
M  V30 9667 H 874.631 -0.913729 -6.72925 0
M  V30 9668 H 872.577 1.30996 -6.42788 0
M  V30 9669 H 872.494 0.000307255 -7.56 0
M  V30 9670 H 873.762 1.1806 -7.70508 0
M  V30 9671 N 877.991 1.48044 -0.54043 0
M  V30 9672 C 878.901 2.33565 0.220163 0
M  V30 9673 C 879.917 1.47146 0.928659 0
M  V30 9674 O 881.093 1.80107 0.901295 0
M  V30 9675 C 878.158 3.2349 1.2472 0
M  V30 9676 C 877.219 4.25789 0.547938 0
M  V30 9677 C 876.452 5.11417 1.52605 0
M  V30 9678 O 876.675 4.99204 2.75956 0
M  V30 9679 O 875.609 5.92498 1.05972 0
M  V30 9680 H 879.435 2.99868 -0.480898 0
M  V30 9681 H 877.02 1.46332 -0.301226 0
M  V30 9682 H 878.902 3.79084 1.84047 0
M  V30 9683 H 877.577 2.59835 1.93048 0
M  V30 9684 H 876.484 3.74001 -0.0860941 0
M  V30 9685 H 877.817 4.92111 -0.0935896 0
M  V30 9686 N 879.47 0.276058 1.55163 0
M  V30 9687 C 880.747 -0.392292 1.91626 0
M  V30 9688 C 881.127 -1.73646 1.20043 0
M  V30 9689 O 880.475 -2.26139 0.327606 0
M  V30 9690 C 880.685 -0.531641 3.44927 0
M  V30 9691 C 882.033 -0.8141 4.16722 0
M  V30 9692 O 883.057 -0.616413 3.50826 0
M  V30 9693 O 881.916 -1.19224 5.33337 0
M  V30 9694 H 879.01 -0.214945 0.798579 0
M  V30 9695 H 881.556 0.32228 1.66612 0
M  V30 9696 H 880.328 0.414282 3.89101 0
M  V30 9697 H 879.951 -1.29564 3.75897 0
M  V30 9698 N 880.948 -1.576 0.00335426 0
M  V30 9699 C 881.878 -2.11668 -0.985839 0
M  V30 9700 C 882.859 -1.02661 -1.35627 0
M  V30 9701 O 884.044 -1.30361 -1.43943 0
M  V30 9702 C 881.174 -2.62273 -2.27662 0
M  V30 9703 C 880.128 -3.75837 -2.0477 0
M  V30 9704 C 879.454 -4.12769 -3.39891 0
M  V30 9705 C 880.754 -5.02975 -1.40759 0
M  V30 9706 H 882.448 -2.9457 -0.535637 0
M  V30 9707 H 879.994 -1.41702 -0.256204 0
M  V30 9708 H 881.947 -2.98727 -2.97221 0
M  V30 9709 H 880.671 -1.76498 -2.74802 0
M  V30 9710 H 879.33 -3.39782 -1.37636 0
M  V30 9711 H 878.978 -3.24013 -3.8474 0
M  V30 9712 H 878.678 -4.89281 -3.25389 0
M  V30 9713 H 880.202 -4.51784 -4.1076 0
M  V30 9714 H 881.616 -5.37179 -2.00279 0
M  V30 9715 H 880.013 -5.84315 -1.36734 0
M  V30 9716 H 881.083 -4.83431 -0.377218 0
M  V30 9717 N 882.426 0.269451 -1.5528 0
M  V30 9718 C 883.837 0.840233 -1.66724 0
M  V30 9719 C 884.188 1.86909 -0.596621 0
M  V30 9720 O 883.313 2.14817 0.261246 0
M  V30 9721 C 883.908 1.5308 -3.02245 0
M  V30 9722 C 882.467 2.04957 -3.15705 0
M  V30 9723 C 881.614 0.892838 -2.62533 0
M  V30 9724 H 884.565 0.0457236 -1.58634 0
M  V30 9725 H 884.586 2.39792 -2.95432 0
M  V30 9726 H 884.098 0.781741 -3.80145 0
M  V30 9727 H 882.199 2.82813 -2.42585 0
M  V30 9728 H 882.312 2.26244 -4.22316 0
M  V30 9729 H 880.676 1.28719 -2.19781 0
M  V30 9730 H 881.459 0.157229 -3.4294 0
M  V30 9731 N 883.904 1.48273 0.534124 0
M  V30 9732 C 884.836 1.5857 1.65494 0
M  V30 9733 C 885.849 0.470266 1.5586 0
M  V30 9734 O 887.038 0.740928 1.62396 0
M  V30 9735 C 884.138 1.49554 3.04117 0
M  V30 9736 C 883.311 2.76066 3.39273 0
M  V30 9737 C 882.37 2.60562 4.57159 0
M  V30 9738 O 881.396 3.34438 4.60587 0
M  V30 9739 N 882.598 1.69906 5.55079 0
M  V30 9740 H 885.363 2.55226 1.57099 0
M  V30 9741 H 882.924 1.44944 0.721303 0
M  V30 9742 H 884.916 1.36882 3.80848 0
M  V30 9743 H 883.486 0.608895 3.06613 0
M  V30 9744 H 882.706 3.03332 2.51761 0
M  V30 9745 H 883.994 3.60006 3.59546 0
M  V30 9746 H 883.392 1.09079 5.55084 0
M  V30 9747 H 881.949 1.63175 6.31044 0
M  V30 9748 N 885.382 -0.782676 1.36792 0
M  V30 9749 C 886.292 -1.92679 1.33835 0
M  V30 9750 C 887.308 -1.72344 0.23952 0
M  V30 9751 O 888.484 -1.95766 0.473045 0
M  V30 9752 C 885.549 -3.27644 1.1336 0
M  V30 9753 C 884.61 -3.6071 2.32781 0
M  V30 9754 C 883.843 -4.89234 2.13273 0
M  V30 9755 O 884.066 -5.59468 1.11136 0
M  V30 9756 O 883 -5.21112 3.01208 0
M  V30 9757 H 886.826 -1.98124 2.30175 0
M  V30 9758 H 884.411 -0.923887 1.17408 0
M  V30 9759 H 886.293 -4.08394 1.03886 0
M  V30 9760 H 884.968 -3.23076 0.200868 0
M  V30 9761 H 883.875 -2.80238 2.47825 0
M  V30 9762 H 885.208 -3.70008 3.24584 0
M  V30 9763 N 886.86 -1.21182 -1.00761 0
M  V30 9764 C 887.79 -0.992773 -2.11344 0
M  V30 9765 C 888.771 0.0813618 -1.69905 0
M  V30 9766 O 889.956 -0.0779503 -1.94043 0
M  V30 9767 C 887.086 -0.553826 -3.42856 0
M  V30 9768 C 886.04 -1.57223 -3.98077 0
M  V30 9769 C 885.366 -0.989605 -5.25463 0
M  V30 9770 C 886.666 -2.95839 -4.30438 0
M  V30 9771 H 888.36 -1.91766 -2.29927 0
M  V30 9772 H 885.906 -0.923426 -1.10494 0
M  V30 9773 H 887.859 -0.387771 -4.19612 0
M  V30 9774 H 886.583 0.406702 -3.24058 0
M  V30 9775 H 885.242 -1.7258 -3.23437 0
M  V30 9776 H 884.89 -0.0208743 -5.02996 0
M  V30 9777 H 884.59 -1.66984 -5.63374 0
M  V30 9778 H 886.114 -0.834815 -6.04866 0
M  V30 9779 H 887.528 -2.8394 -4.98047 0
M  V30 9780 H 885.925 -3.60851 -4.79486 0
M  V30 9781 H 886.995 -3.46882 -3.38823 0
M  V30 9782 N 888.338 1.20213 -1.01915 0
M  V30 9783 C 889.285 2.2309 -0.591571 0
M  V30 9784 C 890.255 1.61465 0.389649 0
M  V30 9785 O 891.44 1.88606 0.288511 0
M  V30 9786 C 888.58 3.45045 0.0614028 0
M  V30 9787 C 887.693 4.21091 -0.964688 0
M  V30 9788 C 886.828 5.30448 -0.282499 0
M  V30 9789 C 885.867 5.98241 -1.29517 0
M  V30 9790 N 885.004 6.99182 -0.639472 0
M  V30 9791 H 889.844 2.59023 -1.47347 0
M  V30 9792 H 887.381 1.27274 -0.737547 0
M  V30 9793 H 889.339 4.14688 0.45714 0
M  V30 9794 H 887.969 3.09797 0.906937 0
M  V30 9795 H 887.021 3.50489 -1.47857 0
M  V30 9796 H 888.333 4.67662 -1.73475 0
M  V30 9797 H 887.487 6.06466 0.168603 0
M  V30 9798 H 886.226 4.84922 0.519843 0
M  V30 9799 H 885.231 5.20982 -1.75663 0
M  V30 9800 H 886.456 6.45853 -2.09884 0
M  V30 9801 H 884.402 6.55844 0.142955 0
M  V30 9802 H 884.319 7.43893 -1.34756 0
M  V30 9803 H 885.587 7.79212 -0.212047 0
M  V30 9804 N 889.816 0.795718 1.36037 0
M  V30 9805 C 891.065 0.367575 1.98322 0
M  V30 9806 C 891.378 -1.06823 1.63854 0
M  V30 9807 O 892.584 -1.59895 2.19421 0
M  V30 9808 C 891.04 0.606272 3.54757 0
M  V30 9809 C 890.648 2.0539 3.98144 0
M  V30 9810 C 892.392 0.242947 4.23804 0
M  V30 9811 C 890.299 2.23893 5.47381 0
M  V30 9812 H 889.229 0.133699 0.742052 0
M  V30 9813 H 891.88 0.978242 1.5525 0
M  V30 9814 H 890.262 -0.0741957 3.9593 0
M  V30 9815 H 891.436 2.77129 3.68152 0
M  V30 9816 H 889.751 2.37607 3.41953 0
M  V30 9817 H 892.348 0.359382 5.33491 0
M  V30 9818 H 892.691 -0.809661 4.08351 0
M  V30 9819 H 893.224 0.876899 3.88015 0
M  V30 9820 H 889.963 3.27559 5.6779 0
M  V30 9821 H 889.483 1.56666 5.78978 0
M  V30 9822 H 891.162 2.04914 6.13693 0
M  V30 9823 N 891.294 -1.47756 0.548274 0
M  V30 9824 C 892.241 -2.29893 -0.204408 0
M  V30 9825 C 893.211 -1.38509 -0.916761 0
M  V30 9826 O 894.396 -1.67472 -0.91421 0
M  V30 9827 C 891.536 -3.22282 -1.23403 0
M  V30 9828 C 890.649 -4.28753 -0.528654 0
M  V30 9829 C 889.784 -5.08303 -1.54279 0
M  V30 9830 C 888.823 -6.06557 -0.821893 0
M  V30 9831 N 887.96 -6.79098 -1.78243 0
M  V30 9832 H 892.8 -2.93739 0.502163 0
M  V30 9833 H 890.337 -1.44793 0.259471 0
M  V30 9834 H 892.295 -3.74262 -1.84348 0
M  V30 9835 H 890.925 -2.6032 -1.90875 0
M  V30 9836 H 889.977 -3.79899 0.195132 0
M  V30 9837 H 891.289 -4.98787 0.0365066 0
M  V30 9838 H 890.443 -5.64388 -2.22602 0
M  V30 9839 H 889.182 -4.3815 -2.14186 0
M  V30 9840 H 888.187 -5.49659 -0.12469 0
M  V30 9841 H 889.412 -6.78715 -0.228685 0
M  V30 9842 H 887.358 -6.11682 -2.37025 0
M  V30 9843 H 887.275 -7.4527 -1.26919 0
M  V30 9844 H 888.543 -7.39762 -2.45709 0
M  V30 9845 N 892.772 -0.284283 -1.55015 0
M  V30 9846 C 894.019 0.329864 -1.99795 0
M  V30 9847 C 894.347 1.55171 -1.1727 0
M  V30 9848 O 893.602 1.94312 -0.232667 0
M  V30 9849 C 893.901 0.747219 -3.49502 0
M  V30 9850 C 893.567 -0.37101 -4.49371 0
M  V30 9851 C 892.229 -0.678034 -4.76399 0
M  V30 9852 C 894.581 -1.12406 -5.08935 0
M  V30 9853 C 891.909 -1.74152 -5.60257 0
M  V30 9854 C 894.261 -2.17734 -5.93948 0
M  V30 9855 C 892.925 -2.49061 -6.19294 0
M  V30 9856 H 892.195 0.120706 -0.731103 0
M  V30 9857 H 894.842 -0.399904 -1.87278 0
M  V30 9858 H 893.147 1.55681 -3.59542 0
M  V30 9859 H 894.844 1.2333 -3.81563 0
M  V30 9860 H 891.434 -0.1216 -4.28427 0
M  V30 9861 H 895.618 -0.900119 -4.88069 0
M  V30 9862 H 890.874 -1.98915 -5.78137 0
M  V30 9863 H 895.048 -2.76553 -6.39133 0
M  V30 9864 H 892.675 -3.31602 -6.84064 0
M  V30 9865 N 894.251 1.57596 -0.0117121 0
M  V30 9866 C 895.181 2.12188 0.9746 0
M  V30 9867 C 896.162 1.03379 1.35081 0
M  V30 9868 O 897.347 1.31123 1.4325 0
M  V30 9869 C 894.477 2.63477 2.26268 0
M  V30 9870 C 893.431 3.76917 2.02774 0
M  V30 9871 C 892.757 4.14566 3.37697 0
M  V30 9872 C 894.057 5.03715 1.38089 0
M  V30 9873 H 895.751 2.9485 0.520007 0
M  V30 9874 H 893.297 1.41836 0.248685 0
M  V30 9875 H 895.25 3.00299 2.95633 0
M  V30 9876 H 893.974 1.77953 2.73862 0
M  V30 9877 H 892.633 3.40507 1.35832 0
M  V30 9878 H 892.281 3.26048 3.83016 0
M  V30 9879 H 891.981 4.91 3.22789 0
M  V30 9880 H 893.505 4.53956 4.08358 0
M  V30 9881 H 894.919 5.38233 1.97428 0
M  V30 9882 H 893.316 5.85032 1.33634 0
M  V30 9883 H 894.386 4.83624 0.351575 0
M  V30 9884 N 895.729 -0.261212 1.5542 0
M  V30 9885 C 896.661 -1.34571 1.85535 0
M  V30 9886 C 897.674 -1.44979 0.740612 0
M  V30 9887 O 898.863 -1.46584 1.01859 0
M  V30 9888 C 895.963 -2.7258 2.01378 0
M  V30 9889 C 895.136 -2.84618 3.32131 0
M  V30 9890 C 894.195 -4.03379 3.37893 0
M  V30 9891 O 893.221 -3.93581 4.11197 0
M  V30 9892 N 894.423 -5.15893 2.66148 0
M  V30 9893 H 897.188 -1.09078 2.79145 0
M  V30 9894 H 894.749 -0.451327 1.55482 0
M  V30 9895 H 896.741 -3.50342 2.0259 0
M  V30 9896 H 895.311 -2.90844 1.14579 0
M  V30 9897 H 894.531 -1.93647 3.43358 0
M  V30 9898 H 895.819 -2.896 4.18341 0
M  V30 9899 H 895.217 -5.26743 2.06297 0
M  V30 9900 H 893.774 -5.91842 2.73069 0
M  V30 9901 N 897.207 -1.48554 -0.526253 0
M  V30 9902 C 898.117 -1.66044 -1.65731 0
M  V30 9903 C 899.133 -0.542951 -1.65312 0
M  V30 9904 O 900.309 -0.814495 -1.84195 0
M  V30 9905 C 897.374 -1.69959 -3.02184 0
M  V30 9906 C 896.435 -2.93362 -3.13428 0
M  V30 9907 C 895.668 -2.97081 -4.43372 0
M  V30 9908 O 895.891 -2.09103 -5.3069 0
M  V30 9909 O 894.825 -3.8929 -4.59061 0
M  V30 9910 H 898.651 -2.61811 -1.53912 0
M  V30 9911 H 896.236 -1.31999 -0.699759 0
M  V30 9912 H 898.118 -1.75033 -3.83329 0
M  V30 9913 H 896.793 -0.773658 -3.14319 0
M  V30 9914 H 895.7 -2.93818 -2.31564 0
M  V30 9915 H 897.033 -3.85352 -3.06211 0
M  V30 9916 N 898.685 0.775411 -1.37205 0
M  V30 9917 C 899.648 1.8702 -1.325 0
M  V30 9918 C 900.648 1.5915 -0.229793 0
M  V30 9919 O 901.838 1.673 -0.485423 0
M  V30 9920 C 898.97 3.24085 -1.05745 0
M  V30 9921 H 900.163 1.92604 -2.29878 0
M  V30 9922 H 897.716 0.97476 -1.22181 0
M  V30 9923 H 898.451 3.24178 -0.0888371 0
M  V30 9924 H 898.236 3.45705 -1.85016 0
M  V30 9925 H 899.726 4.0416 -1.05094 0
M  V30 9926 N 900.163 1.21714 1.00117 0
M  V30 9927 C 901.11 0.979837 2.08968 0
M  V30 9928 C 902.08 -0.0955324 1.65825 0
M  V30 9929 O 903.265 0.0523742 1.90728 0
M  V30 9930 C 900.405 0.554758 3.40612 0
M  V30 9931 C 899.518 1.69999 3.97145 0
M  V30 9932 C 898.653 1.2237 5.16913 0
M  V30 9933 C 897.692 2.34101 5.65564 0
M  V30 9934 N 896.829 1.87579 6.76579 0
M  V30 9935 H 901.669 1.91167 2.28602 0
M  V30 9936 H 899.206 0.952645 1.12085 0
M  V30 9937 H 901.164 0.289526 4.16194 0
M  V30 9938 H 899.794 -0.340073 3.21004 0
M  V30 9939 H 898.846 2.07976 3.18512 0
M  V30 9940 H 900.158 2.54074 4.29241 0
M  V30 9941 H 899.312 0.915358 5.99755 0
M  V30 9942 H 898.051 0.353045 4.8642 0
M  V30 9943 H 897.056 2.65734 4.81316 0
M  V30 9944 H 898.281 3.21669 5.98085 0
M  V30 9945 H 896.227 1.02863 6.47885 0
M  V30 9946 H 896.144 2.65225 7.07949 0
M  V30 9947 H 897.412 1.5979 7.62947 0
M  V30 9948 N 901.641 -1.19671 1.02551 0
M  V30 9949 C 902.89 -1.88591 0.715272 0
M  V30 9950 C 903.203 -1.80274 -0.758982 0
M  V30 9951 O 904.409 -2.44413 -1.18213 0
M  V30 9952 C 902.865 -3.38264 1.22905 0
M  V30 9953 C 902.473 -3.55146 2.73084 0
M  V30 9954 C 904.217 -4.12683 0.994649 0
M  V30 9955 C 902.124 -4.98693 3.17897 0
M  V30 9956 H 901.054 -0.706326 0.263857 0
M  V30 9957 H 903.705 -1.35322 1.23936 0
M  V30 9958 H 902.087 -3.9091 0.632892 0
M  V30 9959 H 903.261 -3.12845 3.38326 0
M  V30 9960 H 901.576 -2.94112 2.94766 0
M  V30 9961 H 904.173 -5.18536 1.30478 0
M  V30 9962 H 904.516 -4.16243 -0.0686466 0
M  V30 9963 H 905.049 -3.66164 1.55464 0
M  V30 9964 H 901.788 -5.00293 4.23542 0
M  V30 9965 H 901.308 -5.4177 2.57381 0
M  V30 9966 H 902.987 -5.67327 3.11045 0
M  V30 9967 N 903.119 -0.802921 -1.35613 0
M  V30 9968 C 904.049 -0.225131 -2.32412 0
M  V30 9969 C 905.03 0.647383 -1.57299 0
M  V30 9970 O 906.215 0.578414 -1.85386 0
M  V30 9971 C 903.345 0.630085 -3.41537 0
M  V30 9972 C 902.299 -0.143635 -4.27759 0
M  V30 9973 C 901.625 0.833046 -5.28171 0
M  V30 9974 C 902.925 -1.34054 -5.04804 0
M  V30 9975 H 904.619 -1.03385 -2.80984 0
M  V30 9976 H 902.165 -0.498593 -1.35093 0
M  V30 9977 H 904.118 1.04433 -4.08254 0
M  V30 9978 H 902.842 1.47165 -2.91565 0
M  V30 9979 H 901.501 -0.539015 -3.62616 0
M  V30 9980 H 901.149 1.67001 -4.74468 0
M  V30 9981 H 900.849 0.319697 -5.8673 0
M  V30 9982 H 902.373 1.24558 -5.97761 0
M  V30 9983 H 903.787 -1.00136 -5.64487 0
M  V30 9984 H 902.184 -1.78812 -5.72841 0
M  V30 9985 H 903.254 -2.12906 -4.35659 0
M  V30 9986 N 904.597 1.47463 -0.556102 0
M  V30 9987 C 905.544 2.29998 0.192213 0
M  V30 9988 C 906.514 1.38993 0.909403 0
M  V30 9989 O 907.699 1.67954 0.905316 0
M  V30 9990 C 904.839 3.22932 1.21692 0
M  V30 9991 C 903.952 4.29027 0.505908 0
M  V30 9992 C 903.087 5.09114 1.51581 0
M  V30 9993 C 902.126 6.06984 0.789714 0
M  V30 9994 N 901.263 6.80033 1.74639 0
M  V30 9995 H 906.103 2.93468 -0.517734 0
M  V30 9996 H 903.64 1.44654 -0.267147 0
M  V30 9997 H 905.598 3.75234 1.8236 0
M  V30 9998 H 904.228 2.61329 1.89491 0
M  V30 9999 H 903.28 3.7979 -0.215276 0
M  V30 10000 H 904.592 4.9876 -0.062958 0
M  V30 10001 H 903.746 5.6556 2.19606 0
M  V30 10002 H 902.485 4.3928 2.11859 0
M  V30 10003 H 901.49 5.49717 0.0955382 0
M  V30 10004 H 902.715 6.78827 0.192688 0
M  V30 10005 H 900.661 6.12931 2.33777 0
M  V30 10006 H 900.578 7.45933 1.22965 0
M  V30 10007 H 901.846 7.41054 2.41782 0
M  V30 10008 N 906.075 0.2925 1.54862 0
M  V30 10009 C 907.007 -0.620889 2.2063 0
M  V30 10010 C 908.02 -1.10412 1.19637 0
M  V30 10011 O 909.209 -1.02304 1.46274 0
M  V30 10012 C 906.309 -1.861 2.83232 0
M  V30 10013 C 905.482 -1.52168 4.10078 0
M  V30 10014 C 904.541 -2.61605 4.56562 0
M  V30 10015 O 903.567 -2.27056 5.21952 0
M  V30 10016 N 904.769 -3.9199 4.28163 0
M  V30 10017 H 907.534 -0.0579028 2.99644 0
M  V30 10018 H 905.095 0.114333 1.61496 0
M  V30 10019 H 907.087 -2.58642 3.11266 0
M  V30 10020 H 905.657 -2.33259 2.08108 0
M  V30 10021 H 904.877 -0.629283 3.89145 0
M  V30 10022 H 906.165 -1.27023 4.92689 0
M  V30 10023 H 905.563 -4.22872 3.7576 0
M  V30 10024 H 904.12 -4.60857 4.60928 0
M  V30 10025 N 907.553 -1.57587 0.0200696 0
M  V30 10026 C 908.783 -1.95435 -0.669991 0
M  V30 10027 C 909.191 -0.894647 -1.66711 0
M  V30 10028 O 908.534 0.133009 -1.83218 0
M  V30 10029 C 908.596 -3.29379 -1.44047 0
M  V30 10030 C 908.26 -4.53008 -0.602691 0
M  V30 10031 C 909.257 -5.19766 0.118188 0
M  V30 10032 C 906.942 -4.99359 -0.542754 0
M  V30 10033 C 908.936 -6.31187 0.887774 0
M  V30 10034 C 906.623 -6.10665 0.230543 0
M  V30 10035 C 907.621 -6.76438 0.944522 0
M  V30 10036 O 907.309 -7.85608 1.70516 0
M  V30 10037 H 907.041 -0.648681 -0.190234 0
M  V30 10038 H 909.595 -2.05269 0.0733838 0
M  V30 10039 H 907.825 -3.1601 -2.22878 0
M  V30 10040 H 909.514 -3.52194 -2.01777 0
M  V30 10041 H 910.28 -4.84932 0.0811604 0
M  V30 10042 H 906.159 -4.47976 -1.08804 0
M  V30 10043 H 909.703 -6.82458 1.44558 0
M  V30 10044 H 905.6 -6.44938 0.26932 0
M  V30 10045 H 906.368 -8.02228 1.62398 0
M  V30 10046 N 909.032 0.252966 -1.55557 0
M  V30 10047 C 910.309 1.00432 -1.67847 0
M  V30 10048 C 910.689 2.03587 -0.55816 0
M  V30 10049 O 910.037 2.24239 0.439197 0
M  V30 10050 C 910.247 1.64313 -3.079 0
M  V30 10051 C 911.595 2.14726 -3.66303 0
M  V30 10052 O 912.619 1.74264 -3.10661 0
M  V30 10053 O 911.478 2.89 -4.63833 0
M  V30 10054 H 908.572 0.467102 -0.682455 0
M  V30 10055 H 911.118 0.247233 -1.67889 0
M  V30 10056 H 909.89 0.896681 -3.80888 0
M  V30 10057 H 909.513 2.46657 -3.11843 0
M  V30 10058 N 910.51 1.48831 0.518367 0
M  V30 10059 C 911.46 1.60614 1.61824 0
M  V30 10060 C 912.444 0.462631 1.54106 0
M  V30 10061 O 913.636 0.714689 1.6193 0
M  V30 10062 C 910.765 1.65984 3.00507 0
M  V30 10063 C 909.851 2.85854 3.13286 0
M  V30 10064 N 910.242 4.1014 2.96005 0
M  V30 10065 C 908.54 2.83429 3.4436 0
M  V30 10066 C 909.241 4.90626 3.12508 0
M  V30 10067 N 908.217 4.2366 3.40607 0
M  V30 10068 H 912.019 2.54443 1.47091 0
M  V30 10069 H 909.533 1.45363 0.724102 0
M  V30 10070 H 911.53 1.72521 3.79529 0
M  V30 10071 H 910.19 0.732792 3.16323 0
M  V30 10072 H 911.201 4.40395 2.72531 0
M  V30 10073 H 907.878 2.0003 3.66462 0
M  V30 10074 H 909.268 5.99302 3.03786 0
M  V30 10075 N 911.988 -0.768124 1.37614 0
M  V30 10076 C 913.399 -1.34462 1.29525 0
M  V30 10077 C 913.75 -1.96121 -0.0555168 0
M  V30 10078 O 912.875 -1.94069 -0.957406 0
M  V30 10079 C 913.47 -2.44475 2.34558 0
M  V30 10080 C 912.029 -2.97883 2.30093 0
M  V30 10081 C 911.176 -1.71131 2.18196 0
M  V30 10082 H 914.127 -0.568103 1.48183 0
M  V30 10083 H 914.148 -3.24047 1.99434 0
M  V30 10084 H 913.66 -1.99568 3.32858 0
M  V30 10085 H 911.761 -3.47156 1.35328 0
M  V30 10086 H 911.874 -3.53251 3.23652 0
M  V30 10087 H 910.238 -1.94197 1.64802 0
M  V30 10088 H 911.021 -1.28323 3.18415 0
M  V30 10089 N 913.466 -1.22244 -0.994698 0
M  V30 10090 C 914.414 -0.988118 -2.10568 0
M  V30 10091 C 915.408 0.0681541 -1.69263 0
M  V30 10092 O 916.614 -0.0841311 -1.79803 0
M  V30 10093 H 912.989 -0.302343 -0.688544 0
M  V30 10094 H 914.96 -1.93091 -2.27505 0
M  V30 10095 C 913.709 -0.580557 -3.42819 0
M  V30 10096 H 913.032 -1.385 -3.75044 0
M  V30 10097 H 914.472 -0.456004 -4.21541 0
M  V30 10098 C 912.931 0.709692 -3.2934 0
M  V30 10099 O 913.461 1.76259 -3.60965 0
M  V30 10100 N 911.667 0.680155 -2.82528 0
M  V30 10101 H 911.214 -0.176977 -2.56991 0
M  V30 10102 H 911.172 1.54372 -2.73892 0
M  V30 10103 N 914.944 1.19125 -1.03184 0
M  V30 10104 C 916.193 1.8821 -0.725264 0
M  V30 10105 C 916.506 1.80674 0.749411 0
M  V30 10106 O 917.712 2.45037 1.16915 0
M  V30 10107 C 916.168 3.37607 -1.24697 0
M  V30 10108 C 915.776 3.53693 -2.74964 0
M  V30 10109 C 917.52 4.12149 -1.01652 0
M  V30 10110 C 915.427 4.97001 -3.20538 0
M  V30 10111 H 914.357 0.704916 -0.267599 0
M  V30 10112 H 917.008 1.34663 -1.24652 0
M  V30 10113 H 915.39 3.90569 -0.653614 0
M  V30 10114 H 916.564 3.11046 -3.39981 0
M  V30 10115 H 914.879 2.92544 -2.96322 0
M  V30 10116 H 917.476 5.17837 -1.33226 0
M  V30 10117 H 917.819 4.16274 0.0465712 0
M  V30 10118 H 918.352 3.65334 -1.57403 0
M  V30 10119 H 915.091 4.9804 -4.26189 0
M  V30 10120 H 914.611 5.40398 -2.60251 0
M  V30 10121 H 916.29 5.65669 -3.14049 0
M  V30 10122 N 916.422 0.810101 1.35185 0
M  V30 10123 C 917.668 0.392698 1.98962 0
M  V30 10124 C 918.001 -1.03835 1.64109 0
M  V30 10125 O 917.276 -1.721 0.9062 0
M  V30 10126 C 917.559 0.580349 3.55393 0
M  V30 10127 C 917.412 2.05658 4.00031 0
M  V30 10128 C 918.731 0.00822618 4.40099 0
M  V30 10129 H 915.85 0.144157 0.722764 0
M  V30 10130 H 918.492 1.02029 1.60281 0
M  V30 10131 H 916.642 0.0461106 3.88473 0
M  V30 10132 H 918.314 2.65348 3.77344 0
M  V30 10133 H 916.557 2.55174 3.50811 0
M  V30 10134 H 917.228 2.13875 5.08883 0
M  V30 10135 H 919.704 0.464517 4.13499 0
M  V30 10136 H 918.58 0.169414 5.48638 0
M  V30 10137 H 918.841 -1.08576 4.2856 0
M  V30 10138 N 917.9 -1.47166 0.563914 0
M  V30 10139 C 918.847 -2.30097 -0.180013 0
M  V30 10140 C 919.817 -1.39473 -0.902019 0
M  V30 10141 O 921.002 -1.68432 -0.896396 0
M  V30 10142 C 918.142 -3.23573 -1.19978 0
M  V30 10143 C 917.255 -4.2929 -0.483149 0
M  V30 10144 C 916.39 -5.0991 -1.48879 0
M  V30 10145 C 915.429 -6.07395 -0.757513 0
M  V30 10146 N 914.566 -6.8095 -1.71031 0
M  V30 10147 H 919.406 -2.93189 0.53329 0
M  V30 10148 H 916.943 -1.4451 0.274814 0
M  V30 10149 H 918.901 -3.76196 -1.80368 0
M  V30 10150 H 917.531 -2.6233 -1.88103 0
M  V30 10151 H 916.583 -3.79671 0.235414 0
M  V30 10152 H 917.895 -4.9872 0.0894075 0
M  V30 10153 H 917.049 -5.66717 -2.16603 0
M  V30 10154 H 915.788 -4.40397 -2.09527 0
M  V30 10155 H 914.793 -5.4976 -0.0663841 0
M  V30 10156 H 916.018 -6.78919 -0.156685 0
M  V30 10157 H 913.964 -6.14162 -2.30524 0
M  V30 10158 H 913.881 -7.46574 -1.19007 0
M  V30 10159 H 915.149 -7.42326 -2.37849 0
M  V30 10160 N 919.378 -0.300708 -1.54705 0
M  V30 10161 C 920.308 0.568675 -2.26469 0
M  V30 10162 C 921.289 1.13817 -1.26411 0
M  V30 10163 O 922.474 1.16756 -1.55183 0
M  V30 10164 C 919.604 1.74077 -3.00524 0
M  V30 10165 C 918.558 1.30165 -4.07727 0
M  V30 10166 C 917.884 2.55888 -4.69495 0
M  V30 10167 C 919.184 0.433106 -5.20501 0
M  V30 10168 H 920.878 -0.0298851 -2.99385 0
M  V30 10169 H 918.424 -0.0158135 -1.43991 0
M  V30 10170 H 920.377 2.35506 -3.49449 0
M  V30 10171 H 919.101 2.36556 -2.25186 0
M  V30 10172 H 917.76 0.710414 -3.59651 0
M  V30 10173 H 917.408 3.16681 -3.90797 0
M  V30 10174 H 917.108 2.27207 -5.41895 0
M  V30 10175 H 918.632 3.18121 -5.21183 0
M  V30 10176 H 920.046 0.95307 -5.65322 0
M  V30 10177 H 918.443 0.240085 -5.9962 0
M  V30 10178 H 919.513 -0.541866 -4.81863 0
M  V30 10179 N 920.856 1.57574 -0.0284266 0
M  V30 10180 C 922.105 1.9095 0.649704 0
M  V30 10181 C 922.418 0.906421 1.7333 0
M  V30 10182 O 923.624 1.1314 2.46803 0
M  V30 10183 C 922.08 3.39061 1.20687 0
M  V30 10184 C 921.688 4.47726 0.156597 0
M  V30 10185 C 923.432 3.81505 1.86156 0
M  V30 10186 C 921.339 5.86935 0.725365 0
M  V30 10187 H 920.269 0.712589 0.24644 0
M  V30 10188 H 922.92 1.83261 -0.0936143 0
M  V30 10189 H 921.302 3.41679 2.00178 0
M  V30 10190 H 922.476 4.56667 -0.6158 0
M  V30 10191 H 920.791 4.14481 -0.399288 0
M  V30 10192 H 923.388 4.82865 2.29665 0
M  V30 10193 H 923.731 3.16529 2.70398 0
M  V30 10194 H 924.264 3.81307 1.13356 0
M  V30 10195 H 921.003 6.55453 -0.0789081 0
M  V30 10196 H 920.523 5.81602 1.46627 0
M  V30 10197 H 922.202 6.35483 1.21532 0
M  V30 10198 N 922.334 -0.244713 1.55689 0
M  V30 10199 C 923.582 -0.970525 1.77272 0
M  V30 10200 C 923.903 -1.85771 0.592804 0
M  V30 10201 O 923.173 -1.91952 -0.391323 0
M  V30 10202 H 921.753 -0.361342 0.653789 0
M  V30 10203 H 924.415 -0.262134 1.93129 0
M  V30 10204 H 923.511 -1.59096 2.68505 0
M  V30 10205 N 923.813 -1.49104 -0.510467 0
M  V30 10206 C 925.059 -1.58346 -1.26705 0
M  V30 10207 C 925.392 -0.265121 -1.92382 0
M  V30 10208 O 924.667 0.730558 -1.80258 0
M  V30 10209 C 924.95 -2.7359 -2.34137 0
M  V30 10210 C 924.803 -4.1519 -1.73024 0
M  V30 10211 C 926.122 -2.84511 -3.3577 0
M  V30 10212 H 923.241 -0.57637 -0.459311 0
M  V30 10213 H 925.883 -1.81353 -0.566658 0
M  V30 10214 H 924.033 -2.54105 -2.93876 0
M  V30 10215 H 925.705 -4.46167 -1.17186 0
M  V30 10216 H 923.948 -4.21279 -1.03473 0
M  V30 10217 H 924.619 -4.91683 -2.50903 0
M  V30 10218 H 927.095 -3.0222 -2.86011 0
M  V30 10219 H 925.971 -3.6684 -4.08313 0
M  V30 10220 H 926.232 -1.93471 -3.97519 0
M  V30 10221 N 925.291 0.760815 -1.38019 0
M  V30 10222 C 926.531 1.53264 -1.35239 0
M  V30 10223 C 926.895 1.91908 0.0595038 0
M  V30 10224 O 928.096 2.67962 0.212122 0
M  V30 10225 C 926.367 2.75643 -2.27499 0
M  V30 10226 S 927.926 3.6559 -2.42672 0
M  V30 10227 H 924.744 0.52457 -0.479945 0
M  V30 10228 H 927.346 0.893737 -1.73875 0
M  V30 10229 H 926.05 2.4535 -3.28986 0
M  V30 10230 H 925.581 3.44483 -1.89987 0
M  V30 10231 H 927.596 4.68124 -1.64542 0
M  V30 10232 N 926.769 1.22769 0.988202 0
M  V30 10233 C 927.997 1.08155 1.76381 0
M  V30 10234 C 928.412 -0.367573 1.85187 0
M  V30 10235 O 927.769 -1.25455 1.32541 0
M  V30 10236 C 927.82 1.69193 3.19462 0
M  V30 10237 O 927.541 3.08437 3.11125 0
M  V30 10238 C 929.042 1.59915 4.13451 0
M  V30 10239 H 926.262 0.378908 0.553778 0
M  V30 10240 H 928.806 1.6246 1.24206 0
M  V30 10241 H 926.961 1.18939 3.6869 0
M  V30 10242 H 927.375 3.37916 4.0114 0
M  V30 10243 H 928.849 2.07339 5.1158 0
M  V30 10244 H 929.326 0.556546 4.3566 0
M  V30 10245 H 929.932 2.09497 3.70123 0
M  V30 10246 N 928.247 -1.18576 1.03814 0
M  V30 10247 C 929.179 -2.21607 0.585055 0
M  V30 10248 C 930.192 -1.59125 -0.343963 0
M  V30 10249 O 931.381 -1.77959 -0.138882 0
M  V30 10250 C 928.481 -3.38495 -0.165602 0
M  V30 10251 C 927.654 -4.30557 0.770662 0
M  V30 10252 C 926.713 -5.26161 0.0637534 0
M  V30 10253 O 925.739 -5.64961 0.693359 0
M  V30 10254 N 926.941 -5.67882 -1.20377 0
M  V30 10255 H 929.706 -2.61104 1.47121 0
M  V30 10256 H 927.267 -1.33336 0.918316 0
M  V30 10257 H 929.259 -3.99474 -0.648292 0
M  V30 10258 H 927.829 -2.97711 -0.953268 0
M  V30 10259 H 927.049 -3.67221 1.43326 0
M  V30 10260 H 928.337 -4.88969 1.40667 0
M  V30 10261 H 927.735 -5.38409 -1.73586 0
M  V30 10262 H 926.292 -6.31069 -1.63079 0
M  V30 10263 N 929.725 -0.817259 -1.34754 0
M  V30 10264 C 931.141 -0.502309 -1.51489 0
M  V30 10265 C 931.341 0.974568 -1.76364 0
M  V30 10266 O 930.397 1.75924 -1.81127 0
M  V30 10267 C 931.71 -1.35693 -2.68343 0
M  V30 10268 C 933.258 -1.35347 -2.82224 0
M  V30 10269 C 933.733 -2.19244 -4.02114 0
M  V30 10270 N 935.224 -2.16837 -4.09311 0
M  V30 10271 C 935.959 -2.78505 -5.01221 0
M  V30 10272 N 935.455 -3.4914 -5.98392 0
M  V30 10273 N 937.248 -2.68089 -4.94049 0
M  V30 10274 H 929.399 -1.77359 -1.16866 0
M  V30 10275 H 931.662 -0.755476 -0.572678 0
M  V30 10276 H 931.368 -2.40548 -2.56573 0
M  V30 10277 H 931.242 -1.01764 -3.63213 0
M  V30 10278 H 933.629 -0.312727 -2.93438 0
M  V30 10279 H 933.71 -1.7327 -1.88179 0
M  V30 10280 H 933.354 -3.23365 -3.9166 0
M  V30 10281 H 933.284 -1.78675 -4.95361 0
M  V30 10282 H 935.775 -1.65452 -3.39756 0
M  V30 10283 H 936.088 -3.93455 -6.65141 0
M  V30 10284 H 934.433 -3.53246 -5.98533 0
M  V30 10285 H 937.624 -2.12485 -4.17094 0
M  V30 10286 H 937.797 -3.16436 -5.65484 0
M  V30 10287 N 931.203 1.46865 -0.571711 0
M  V30 10288 C 932.135 2.28277 0.205479 0
M  V30 10289 C 933.148 1.37866 0.865835 0
M  V30 10290 O 934.337 1.62564 0.737247 0
M  V30 10291 C 931.437 3.12572 1.30965 0
M  V30 10292 C 930.61 4.31038 0.743328 0
M  V30 10293 C 929.669 4.96815 1.73382 0
M  V30 10294 O 928.695 5.54755 1.2742 0
M  V30 10295 N 929.897 4.92825 3.06764 0
M  V30 10296 H 932.662 2.95618 -0.49294 0
M  V30 10297 H 930.223 1.56655 -0.408744 0
M  V30 10298 H 932.215 3.53442 1.97131 0
M  V30 10299 H 930.785 2.47378 1.91109 0
M  V30 10300 H 930.005 3.94084 -0.0955004 0
M  V30 10301 H 931.293 5.07632 0.344556 0
M  V30 10302 H 930.691 4.46978 3.46738 0
M  V30 10303 H 929.248 5.3767 3.68449 0
M  V30 10304 N 932.681 0.308908 1.54543 0
M  V30 10305 C 934.092 -0.182144 1.85809 0
M  V30 10306 C 934.443 -1.52796 1.23076 0
M  V30 10307 O 933.568 -2.09775 0.531358 0
M  V30 10308 C 934.163 -0.337275 3.37117 0
M  V30 10309 C 932.722 -0.772545 3.68387 0
M  V30 10310 C 931.869 0.114451 2.77064 0
M  V30 10311 H 934.82 0.529671 1.496 0
M  V30 10312 H 934.841 -1.17058 3.62046 0
M  V30 10313 H 934.353 0.642382 3.82747 0
M  V30 10314 H 932.454 -1.76247 3.2828 0
M  V30 10315 H 932.567 -0.586453 4.75497 0
M  V30 10316 H 930.931 -0.407581 2.51418 0
M  V30 10317 H 931.714 1.09061 3.25516 0
M  V30 10318 N 934.159 -1.57557 0.0367827 0
M  V30 10319 C 935.405 -1.92399 -0.641133 0
M  V30 10320 C 935.738 -0.914191 -1.71336 0
M  V30 10321 O 935.013 0.0619616 -1.94401 0
M  V30 10322 C 935.296 -3.37689 -1.25052 0
M  V30 10323 C 935.149 -4.4941 -0.187326 0
M  V30 10324 C 936.468 -3.8309 -2.16634 0
M  V30 10325 H 933.587 -0.699666 -0.231597 0
M  V30 10326 H 936.229 -1.89759 0.0956083 0
M  V30 10327 H 934.379 -3.40069 -1.87843 0
M  V30 10328 H 936.051 -4.59161 0.443736 0
M  V30 10329 H 934.294 -4.31065 0.486313 0
M  V30 10330 H 934.965 -5.48119 -0.653459 0
M  V30 10331 H 937.441 -3.82494 -1.63821 0
M  V30 10332 H 936.317 -4.85429 -2.56222 0
M  V30 10333 H 936.578 -3.19028 -3.06062 0
M  V30 10334 N 935.637 0.236453 -1.55816 0
M  V30 10335 C 936.867 0.978873 -1.81939 0
M  V30 10336 C 937.275 1.79041 -0.611647 0
M  V30 10337 O 936.618 1.78616 0.429172 0
M  V30 10338 C 936.68 1.9569 -3.01572 0
M  V30 10339 C 936.344 1.33131 -4.37178 0
M  V30 10340 C 937.341 0.728585 -5.1477 0
M  V30 10341 C 935.026 1.34755 -4.83887 0
M  V30 10342 C 937.02 0.150427 -6.37222 0
M  V30 10343 C 934.707 0.765539 -6.06286 0
M  V30 10344 C 935.705 0.168017 -6.82793 0
M  V30 10345 O 935.393 -0.404976 -8.02879 0
M  V30 10346 H 935.125 0.293186 -0.609113 0
M  V30 10347 H 937.679 0.261384 -2.0373 0
M  V30 10348 H 935.909 2.71298 -2.75562 0
M  V30 10349 H 937.598 2.56362 -3.14695 0
M  V30 10350 H 938.364 0.708477 -4.79797 0
M  V30 10351 H 934.243 1.80202 -4.24321 0
M  V30 10352 H 937.787 -0.316586 -6.96881 0
M  V30 10353 H 933.684 0.78301 -6.40733 0
M  V30 10354 H 934.452 -0.29785 -8.17958 0
M  V30 10355 N 937.115 1.49373 0.502552 0
M  V30 10356 C 938.364 1.58028 1.25339 0
M  V30 10357 C 938.677 0.271494 1.93707 0
M  V30 10358 O 939.883 0.236584 2.70467 0
M  V30 10359 C 938.339 2.78817 2.27572 0
M  V30 10360 C 937.947 4.16448 1.65151 0
M  V30 10361 C 939.691 2.96802 3.03494 0
M  V30 10362 C 937.598 5.28461 2.65486 0
M  V30 10363 H 936.528 0.588396 0.471494 0
M  V30 10364 H 939.179 1.75756 0.52744 0
M  V30 10365 H 937.561 2.5458 3.03323 0
M  V30 10366 H 938.735 4.50816 0.954029 0
M  V30 10367 H 937.05 4.03809 1.01625 0
M  V30 10368 H 939.647 3.77656 3.78524 0
M  V30 10369 H 939.99 2.07303 3.61014 0
M  V30 10370 H 940.523 3.21071 2.34858 0
M  V30 10371 H 937.262 6.20015 2.12749 0
M  V30 10372 H 936.782 4.9855 3.33479 0
M  V30 10373 H 938.461 5.5773 3.27943 0
M  V30 10374 N 938.594 -0.753485 1.38421 0
M  V30 10375 C 939.843 -1.50797 1.33952 0
M  V30 10376 C 940.156 -1.95482 -0.0678464 0
M  V30 10377 O 941.362 -2.7048 -0.235078 0
M  V30 10378 C 939.818 -2.72393 2.35224 0
M  V30 10379 C 939.426 -2.34733 3.81582 0
M  V30 10380 C 941.17 -3.50281 2.39798 0
M  V30 10381 C 939.077 -3.52939 4.7454 0
M  V30 10382 H 938.007 -0.566211 0.497916 0
M  V30 10383 H 940.658 -0.823659 1.63976 0
M  V30 10384 H 939.04 -3.42806 1.98243 0
M  V30 10385 H 940.214 -1.71985 4.27502 0
M  V30 10386 H 938.529 -1.69978 3.80127 0
M  V30 10387 H 941.126 -4.38172 3.06447 0
M  V30 10388 H 941.469 -3.91444 1.41695 0
M  V30 10389 H 942.002 -2.86881 2.75579 0
M  V30 10390 H 938.741 -3.16843 5.73839 0
M  V30 10391 H 938.261 -4.1473 4.33312 0
M  V30 10392 H 939.94 -4.19519 4.92557 0
M  V30 10393 N 940.072 -1.23292 -0.981677 0
M  V30 10394 C 941.005 -0.956198 -2.07201 0
M  V30 10395 C 941.983 0.105027 -1.6226 0
M  V30 10396 O 943.167 -0.0289582 -1.88478 0
M  V30 10397 C 940.294 -0.44029 -3.35826 0
M  V30 10398 C 939.34 -1.48792 -3.99704 0
M  V30 10399 S 940.173 -3.06491 -4.39117 0
M  V30 10400 C 941.329 -2.56567 -5.70898 0
M  V30 10401 H 941.562 -1.87947 -2.30355 0
M  V30 10402 H 939.095 -1.06522 -1.1177 0
M  V30 10403 H 941.053 -0.149237 -4.10229 0
M  V30 10404 H 939.714 0.462045 -3.10683 0
M  V30 10405 H 938.907 -1.07706 -4.92357 0
M  V30 10406 H 938.509 -1.72826 -3.31673 0
M  V30 10407 H 940.801 -1.98508 -6.47766 0
M  V30 10408 H 941.744 -3.47755 -6.16824 0
M  V30 10409 H 942.152 -1.97465 -5.28836 0
M  V30 10410 N 941.55 1.18024 -1.04442 0
M  V30 10411 C 942.46 2.25436 -0.649276 0
M  V30 10412 C 943.476 1.70915 0.326189 0
M  V30 10413 O 944.652 2.00592 0.180174 0
M  V30 10414 C 941.717 3.46693 -0.0222558 0
M  V30 10415 C 940.778 4.16332 -1.0472 0
M  V30 10416 C 940.011 5.31799 -0.450011 0
M  V30 10417 O 940.234 5.65544 0.742717 0
M  V30 10418 O 939.168 5.90209 -1.18056 0
M  V30 10419 H 942.994 2.61508 -1.54426 0
M  V30 10420 H 940.579 1.25178 -0.81552 0
M  V30 10421 H 942.461 4.20132 0.326597 0
M  V30 10422 H 941.136 3.12436 0.84649 0
M  V30 10423 H 940.043 3.44944 -1.44792 0
M  V30 10424 H 941.376 4.54598 -1.88684 0
M  V30 10425 N 943.028 0.824394 1.34319 0
M  V30 10426 C 943.958 0.262077 2.32025 0
M  V30 10427 C 944.939 -0.622277 1.58309 0
M  V30 10428 O 946.124 -0.548848 1.86283 0
M  V30 10429 C 943.254 -0.57567 3.42496 0
M  V30 10430 C 942.208 0.21167 4.27476 0
M  V30 10431 C 941.534 -0.748913 5.29429 0
M  V30 10432 C 942.834 1.42068 5.02607 0
M  V30 10433 H 944.528 1.07842 2.79304 0
M  V30 10434 H 942.074 0.520022 1.34282 0
M  V30 10435 H 944.027 -0.979251 4.09864 0
M  V30 10436 H 942.751 -1.42508 2.93869 0
M  V30 10437 H 941.41 0.596636 3.61712 0
M  V30 10438 H 941.058 -1.59432 4.77064 0
M  V30 10439 H 940.758 -0.226313 5.87164 0
M  V30 10440 H 942.282 -1.15032 5.99667 0
M  V30 10441 H 943.696 1.09103 5.62823 0
M  V30 10442 H 942.093 1.87903 5.69923 0
M  V30 10443 H 943.163 2.1981 4.32217 0
M  V30 10444 N 944.506 -1.46559 0.579492 0
M  V30 10445 C 945.752 -2.02699 0.0639363 0
M  V30 10446 C 946.085 -1.4504 -1.29139 0
M  V30 10447 O 945.36 -0.614284 -1.84545 0
M  V30 10448 C 945.643 -3.601 -0.00528618 0
M  V30 10449 C 945.496 -4.28149 1.37871 0
M  V30 10450 C 946.815 -4.34375 -0.707537 0
M  V30 10451 H 943.934 -0.736586 0.0247085 0
M  V30 10452 H 946.576 -1.74739 0.746071 0
M  V30 10453 H 944.726 -3.84052 -0.586206 0
M  V30 10454 H 946.398 -4.1547 2.00455 0
M  V30 10455 H 944.641 -3.87636 1.94732 0
M  V30 10456 H 945.312 -5.36888 1.28278 0
M  V30 10457 H 947.788 -4.15549 -0.214064 0
M  V30 10458 H 946.664 -5.44091 -0.724992 0
M  V30 10459 H 946.925 -4.052 -1.7682 0
M  V30 10460 N 945.984 -0.3171 -1.54377 0
M  V30 10461 C 947.209 0.292311 -2.0533 0
M  V30 10462 C 947.634 1.45503 -1.19207 0
M  V30 10463 O 946.992 1.80197 -0.199721 0
M  V30 10464 C 947.04 0.710787 -3.53525 0
M  V30 10465 O 946.144 1.81387 -3.70368 0
M  V30 10466 H 945.485 0.0539976 -0.661801 0
M  V30 10467 H 948.015 -0.463629 -1.99278 0
M  V30 10468 H 948.025 0.995216 -3.95676 0
M  V30 10469 H 946.7 -0.139668 -4.15665 0
M  V30 10470 H 945.277 1.52875 -3.40123 0
M  V30 10471 N 947.462 1.57535 -0.0451378 0
M  V30 10472 C 948.71 1.92071 0.628743 0
M  V30 10473 C 949.031 0.923635 1.71738 0
M  V30 10474 O 948.301 -0.0324376 1.95873 0
M  V30 10475 H 946.881 0.708995 0.235233 0
M  V30 10476 H 949.543 1.9466 -0.0967177 0
M  V30 10477 H 948.639 2.9314 1.07123 0
M  V30 10478 N 948.94 -0.228186 1.55939 0
M  V30 10479 C 950.188 -0.951668 1.78291 0
M  V30 10480 C 950.509 -1.85132 0.612474 0
M  V30 10481 O 949.779 -1.92356 -0.370942 0
M  V30 10482 H 948.359 -0.354388 0.657585 0
M  V30 10483 H 951.021 -0.241635 1.93396 0
M  V30 10484 H 950.117 -1.56239 2.70177 0
M  V30 10485 N 950.418 -1.49637 -0.494624 0
M  V30 10486 C 951.695 -1.4995 -1.25596 0
M  V30 10487 C 952.075 -0.230805 -2.09834 0
M  V30 10488 O 951.423 0.786625 -2.14533 0
M  V30 10489 C 951.633 -2.78204 -2.10721 0
M  V30 10490 C 952.981 -3.27946 -2.69698 0
M  V30 10491 O 954.005 -2.79365 -2.20984 0
M  V30 10492 O 952.864 -4.12571 -3.58395 0
M  V30 10493 H 949.958 -0.60044 -0.568684 0
M  V30 10494 H 952.504 -1.61906 -0.508371 0
M  V30 10495 H 951.276 -3.62029 -1.48494 0
M  V30 10496 H 950.899 -2.69139 -2.92661 0
M  V30 10497 N 951.896 0.746133 -1.38819 0
M  V30 10498 C 953.143 1.50545 -1.35434 0
M  V30 10499 C 953.471 1.94427 0.0532669 0
M  V30 10500 O 952.726 1.66285 1.03188 0
M  V30 10501 C 953.025 2.76639 -2.26286 0
M  V30 10502 C 952.691 2.51682 -3.74122 0
M  V30 10503 C 951.353 2.44584 -4.14406 0
M  V30 10504 C 953.705 2.30071 -4.67672 0
M  V30 10505 C 951.033 2.13902 -5.46318 0
M  V30 10506 C 953.385 2.00907 -5.99849 0
M  V30 10507 C 952.049 1.92271 -6.39209 0
M  V30 10508 H 951.319 0.550883 -0.49559 0
M  V30 10509 H 953.966 0.857337 -1.71237 0
M  V30 10510 H 952.271 3.46138 -1.83564 0
M  V30 10511 H 953.968 3.34626 -2.20967 0
M  V30 10512 H 950.558 2.5808 -3.42188 0
M  V30 10513 H 954.742 2.34528 -4.3739 0
M  V30 10514 H 949.998 2.0573 -5.75748 0
M  V30 10515 H 954.172 1.83191 -6.71874 0
M  V30 10516 H 951.799 1.68261 -7.41345 0
M  V30 10517 N 953.375 1.23811 0.975125 0
M  V30 10518 C 954.305 1.04846 2.08638 0
M  V30 10519 C 955.286 -0.0362859 1.70061 0
M  V30 10520 O 956.471 0.12937 1.93769 0
M  V30 10521 C 953.601 0.644534 3.41267 0
M  V30 10522 C 952.555 1.67722 3.93768 0
M  V30 10523 C 951.881 1.12857 5.22654 0
M  V30 10524 C 953.181 3.07147 4.22443 0
M  V30 10525 H 954.875 1.97795 2.24761 0
M  V30 10526 H 952.421 0.952397 1.08006 0
M  V30 10527 H 954.374 0.498887 4.18436 0
M  V30 10528 H 953.098 -0.320641 3.25022 0
M  V30 10529 H 951.757 1.81095 3.18748 0
M  V30 10530 H 951.405 0.154227 5.02764 0
M  V30 10531 H 951.105 1.81862 5.58749 0
M  V30 10532 H 952.629 0.994891 6.0244 0
M  V30 10533 H 954.043 2.97045 4.90344 0
M  V30 10534 H 952.44 3.73437 4.6975 0
M  V30 10535 H 953.51 3.55743 3.29507 0
M  V30 10536 N 954.853 -1.17469 1.05066 0
M  V30 10537 C 956.081 -1.9162 0.780334 0
M  V30 10538 C 956.496 -1.76745 -0.663817 0
M  V30 10539 O 955.853 -1.10377 -1.45338 0
M  V30 10540 C 955.904 -3.42723 1.14992 0
M  V30 10541 O 955.625 -3.57139 2.53739 0
M  V30 10542 C 957.126 -4.33952 0.905549 0
M  V30 10543 H 954.346 -0.608022 0.283814 0
M  V30 10544 H 956.89 -1.4897 1.401 0
M  V30 10545 H 955.045 -3.83124 0.57403 0
M  V30 10546 H 955.459 -4.5075 2.68189 0
M  V30 10547 H 956.933 -5.38487 1.21391 0
M  V30 10548 H 957.41 -4.38911 -0.159295 0
M  V30 10549 H 958.016 -3.99263 1.46522 0
M  V30 10550 N 956.331 -0.831506 -1.3388 0
M  V30 10551 C 957.578 -0.423674 -1.98018 0
M  V30 10552 C 957.906 1.01533 -1.65895 0
M  V30 10553 O 957.161 1.72342 -0.927183 0
M  V30 10554 C 957.46 -0.582733 -3.52617 0
M  V30 10555 C 957.126 -1.98874 -4.04673 0
M  V30 10556 C 955.788 -2.37334 -4.186 0
M  V30 10557 C 958.14 -2.90745 -4.3257 0
M  V30 10558 C 955.468 -3.66984 -4.57755 0
M  V30 10559 C 957.82 -4.19868 -4.73174 0
M  V30 10560 C 956.484 -4.58294 -4.85307 0
M  V30 10561 H 955.754 -0.155033 -0.7246 0
M  V30 10562 H 958.401 -1.05711 -1.59679 0
M  V30 10563 H 956.706 0.134052 -3.91571 0
M  V30 10564 H 958.403 -0.247576 -4.00235 0
M  V30 10565 H 954.993 -1.68001 -3.94301 0
M  V30 10566 H 959.177 -2.62272 -4.2134 0
M  V30 10567 H 954.433 -3.9657 -4.65341 0
M  V30 10568 H 958.607 -4.91138 -4.93717 0
M  V30 10569 H 956.234 -5.58805 -5.15404 0
M  V30 10570 N 957.809 1.4625 -0.587256 0
M  V30 10571 C 958.739 2.33132 0.131076 0
M  V30 10572 C 959.72 1.45619 0.879158 0
M  V30 10573 O 960.905 1.74428 0.853723 0
M  V30 10574 C 958.035 3.27975 1.14236 0
M  V30 10575 C 956.989 4.24965 0.508819 0
M  V30 10576 C 956.315 5.09349 1.62689 0
M  V30 10577 C 957.615 5.19322 -0.55694 0
M  V30 10578 H 959.309 2.93442 -0.594333 0
M  V30 10579 H 956.855 1.41106 -0.287263 0
M  V30 10580 H 958.808 3.87614 1.65328 0
M  V30 10581 H 957.532 2.65781 1.8981 0
M  V30 10582 H 956.191 3.66595 0.0189337 0
M  V30 10583 H 955.839 4.43537 2.37242 0
M  V30 10584 H 955.539 5.75036 1.20861 0
M  V30 10585 H 957.063 5.71852 2.14049 0
M  V30 10586 H 958.477 5.73151 -0.130903 0
M  V30 10587 H 956.874 5.93376 -0.895801 0
M  V30 10588 H 957.944 4.62979 -1.44148 0
M  V30 10589 N 959.287 0.325282 1.54207 0
M  V30 10590 C 960.703 -0.0273036 1.59577 0
M  V30 10591 C 960.903 -1.50329 1.34177 0
M  V30 10592 O 959.959 -2.25951 1.12705 0
M  V30 10593 C 961.272 0.392468 2.98128 0
M  V30 10594 C 962.82 0.343269 3.11112 0
M  V30 10595 C 963.295 0.738229 4.52011 0
M  V30 10596 N 964.786 0.691701 4.58006 0
M  V30 10597 C 965.521 0.969479 5.65145 0
M  V30 10598 N 965.017 1.31448 6.80216 0
M  V30 10599 N 966.81 0.894926 5.5493 0
M  V30 10600 H 958.961 1.28692 1.68974 0
M  V30 10601 H 961.224 0.523399 0.790416 0
M  V30 10602 H 960.93 1.42089 3.2172 0
M  V30 10603 H 960.804 -0.241651 3.76425 0
M  V30 10604 H 963.191 -0.675946 2.87254 0
M  V30 10605 H 963.272 1.01235 2.34915 0
M  V30 10606 H 962.916 1.75537 4.76602 0
M  V30 10607 H 962.846 0.0468226 5.26579 0
M  V30 10608 H 965.337 0.436975 3.75365 0
M  V30 10609 H 965.65 1.51177 7.57869 0
M  V30 10610 H 963.995 1.35276 6.81708 0
M  V30 10611 H 967.186 0.624876 4.6391 0
M  V30 10612 H 967.359 1.11476 6.38339 0
M  V30 10613 N 960.765 -1.57509 0.0534917 0
M  V30 10614 C 962.181 -1.56696 -0.303067 0
M  V30 10615 C 962.381 -1.06135 -1.71282 0
M  V30 10616 O 961.437 -0.71899 -2.42047 0
M  V30 10617 C 962.75 -3.00421 -0.129418 0
M  V30 10618 C 964.298 -3.12358 -0.200346 0
M  V30 10619 C 964.773 -4.57967 -0.0551971 0
M  V30 10620 N 966.264 -4.63066 -0.111398 0
M  V30 10621 C 966.999 -5.73395 -0.0232344 0
M  V30 10622 N 966.495 -6.92701 0.11741 0
M  V30 10623 N 968.288 -5.62045 -0.078984 0
M  V30 10624 H 960.439 -1.88696 0.975064 0
M  V30 10625 H 962.702 -0.869072 0.378706 0
M  V30 10626 H 962.408 -3.41456 0.842653 0
M  V30 10627 H 962.282 -3.66563 -0.889476 0
M  V30 10628 H 964.669 -2.71221 -1.16289 0
M  V30 10629 H 964.75 -2.48891 0.590506 0
M  V30 10630 H 964.394 -4.9979 0.904034 0
M  V30 10631 H 964.324 -5.19443 -0.865223 0
M  V30 10632 H 966.815 -3.77263 -0.219256 0
M  V30 10633 H 967.128 -7.72597 0.177326 0
M  V30 10634 H 965.473 -6.94833 0.152526 0
M  V30 10635 H 968.664 -4.67725 -0.187434 0
M  V30 10636 H 968.837 -6.48 -0.00681731 0
M  V30 10637 N 962.243 0.219913 -1.56058 0
M  V30 10638 C 963.19 1.27254 -1.92549 0
M  V30 10639 C 964.16 1.46493 -0.782883 0
M  V30 10640 O 965.345 1.60035 -1.03892 0
M  V30 10641 C 962.485 2.61756 -2.24896 0
M  V30 10642 C 961.598 2.50302 -3.52098 0
M  V30 10643 C 960.733 3.77338 -3.73884 0
M  V30 10644 C 959.772 3.60613 -4.94595 0
M  V30 10645 N 958.909 4.79603 -5.12763 0
M  V30 10646 H 963.749 0.954352 -2.82305 0
M  V30 10647 H 961.286 0.459928 -1.39725 0
M  V30 10648 H 963.244 3.40082 -2.4166 0
M  V30 10649 H 961.874 2.91668 -1.38311 0
M  V30 10650 H 960.926 1.63401 -3.43517 0
M  V30 10651 H 962.238 2.33866 -4.40577 0
M  V30 10652 H 961.392 4.64108 -3.90754 0
M  V30 10653 H 960.131 3.96702 -2.83689 0
M  V30 10654 H 959.136 2.72228 -4.77674 0
M  V30 10655 H 960.361 3.42719 -5.86277 0
M  V30 10656 H 958.307 4.99277 -4.2551 0
M  V30 10657 H 958.224 4.65899 -5.95377 0
M  V30 10658 H 959.492 5.67794 -5.34069 0
M  V30 10659 N 963.721 1.49897 0.486681 0
M  V30 10660 C 964.668 1.67619 1.58658 0
M  V30 10661 C 965.638 0.517537 1.57831 0
M  V30 10662 O 966.823 0.746272 1.756 0
M  V30 10663 C 963.963 1.762 2.96728 0
M  V30 10664 C 963.076 3.03465 3.07462 0
M  V30 10665 C 962.211 3.02937 4.36351 0
M  V30 10666 C 961.25 4.24721 4.4077 0
M  V30 10667 N 960.387 4.22021 5.61108 0
M  V30 10668 H 965.227 2.61528 1.42853 0
M  V30 10669 H 962.764 1.29657 0.694807 0
M  V30 10670 H 964.722 1.79156 3.76774 0
M  V30 10671 H 963.352 0.857452 3.11203 0
M  V30 10672 H 962.404 3.10054 2.20387 0
M  V30 10673 H 963.716 3.93454 3.06586 0
M  V30 10674 H 962.87 3.04536 5.24731 0
M  V30 10675 H 961.609 2.10751 4.39813 0
M  V30 10676 H 960.614 4.23352 3.5079 0
M  V30 10677 H 961.839 5.18116 4.39013 0
M  V30 10678 H 959.785 3.3268 5.65385 0
M  V30 10679 H 959.702 5.05761 5.61909 0
M  V30 10680 H 960.97 4.27743 6.51656 0
M  V30 10681 N 965.199 -0.738761 1.39212 0
M  V30 10682 C 966.476 -1.48982 1.26742 0
M  V30 10683 C 966.856 -2.10732 -0.12466 0
M  V30 10684 O 966.204 -1.98287 -1.13554 0
M  V30 10685 C 966.414 -2.54427 2.38889 0
M  V30 10686 C 967.762 -3.20915 2.78027 0
M  V30 10687 O 968.786 -2.64738 2.38311 0
M  V30 10688 O 967.645 -4.22558 3.46565 0
M  V30 10689 H 964.739 -0.661395 0.496473 0
M  V30 10690 H 967.285 -0.772907 1.51077 0
M  V30 10691 H 966.057 -2.07151 3.3197 0
M  V30 10692 H 965.68 -3.33682 2.162 0
M  V30 10693 N 966.677 -1.24326 -0.968545 0
M  V30 10694 C 967.587 -1.05194 -2.09694 0
M  V30 10695 C 968.603 0.00701291 -1.73999 0
M  V30 10696 O 969.779 -0.190981 -2.00492 0
M  V30 10697 C 966.844 -0.658075 -3.40397 0
M  V30 10698 C 965.905 -1.79341 -3.90045 0
M  V30 10699 C 965.138 -1.41824 -5.14511 0
M  V30 10700 O 965.361 -0.307693 -5.69569 0
M  V30 10701 O 964.295 -2.24358 -5.58522 0
M  V30 10702 H 968.121 -1.99791 -2.2873 0
M  V30 10703 H 965.706 -1.03138 -1.08088 0
M  V30 10704 H 967.588 -0.449911 -4.18991 0
M  V30 10705 H 966.263 0.258782 -3.22664 0
M  V30 10706 H 965.17 -2.05632 -3.12516 0
M  V30 10707 H 966.503 -2.68901 -4.12254 0
M  V30 10708 N 968.156 1.1691 -1.05688 0
M  V30 10709 C 969.086 2.23275 -0.683402 0
M  V30 10710 C 970.067 1.6704 0.321206 0
M  V30 10711 O 971.252 1.93191 0.197691 0
M  V30 10712 C 968.382 3.47244 -0.0626006 0
M  V30 10713 C 967.336 4.16333 -0.992513 0
M  V30 10714 C 966.662 5.34182 -0.23533 0
M  V30 10715 C 967.962 4.68002 -2.31886 0
M  V30 10716 H 969.656 2.54771 -1.57264 0
M  V30 10717 H 967.202 1.2246 -0.757606 0
M  V30 10718 H 969.155 4.20874 0.210503 0
M  V30 10719 H 967.879 3.1503 0.861616 0
M  V30 10720 H 966.538 3.44622 -1.25026 0
M  V30 10721 H 966.186 4.9822 0.69181 0
M  V30 10722 H 965.886 5.81346 -0.855002 0
M  V30 10723 H 967.41 6.10592 0.0303717 0
M  V30 10724 H 968.824 5.33244 -2.10531 0
M  V30 10725 H 967.221 5.25764 -2.89296 0
M  V30 10726 H 968.291 3.84541 -2.95391 0
M  V30 10727 N 969.634 0.838594 1.33437 0
M  V30 10728 C 970.581 0.269609 2.2922 0
M  V30 10729 C 971.551 -0.614429 1.54318 0
M  V30 10730 O 972.736 -0.552756 1.82618 0
M  V30 10731 C 969.876 -0.549527 3.40697 0
M  V30 10732 C 968.989 0.358502 4.3051 0
M  V30 10733 C 968.124 -0.471709 5.29101 0
M  V30 10734 C 967.163 0.434728 6.10554 0
M  V30 10735 N 966.3 -0.357339 7.0119 0
M  V30 10736 H 971.14 1.09172 2.77282 0
M  V30 10737 H 968.677 0.549832 1.36438 0
M  V30 10738 H 970.635 -1.03992 4.04032 0
M  V30 10739 H 969.265 -1.33661 2.93828 0
M  V30 10740 H 968.317 0.967204 3.67899 0
M  V30 10741 H 969.629 1.05483 4.87519 0
M  V30 10742 H 968.783 -1.02594 5.97963 0
M  V30 10743 H 967.522 -1.20147 4.72669 0
M  V30 10744 H 966.527 1.00097 5.40611 0
M  V30 10745 H 967.752 1.16285 6.6907 0
M  V30 10746 H 965.698 -1.07049 6.47207 0
M  V30 10747 H 965.615 0.280277 7.5548 0
M  V30 10748 H 966.883 -0.893814 7.74359 0
M  V30 10749 N 971.112 -1.45937 0.595003 0
M  V30 10750 C 972.042 -2.33198 -0.11871 0
M  V30 10751 C 973.023 -1.46083 -0.871423 0
M  V30 10752 O 974.208 -1.74879 -0.844461 0
M  V30 10753 C 971.338 -3.28576 -1.12495 0
M  V30 10754 C 970.292 -4.25229 -0.486275 0
M  V30 10755 C 969.618 -5.10204 -1.59986 0
M  V30 10756 C 970.918 -5.19019 0.584473 0
M  V30 10757 H 972.612 -2.93122 0.609886 0
M  V30 10758 H 970.158 -1.40951 0.294742 0
M  V30 10759 H 972.111 -3.88485 -1.6327 0
M  V30 10760 H 970.835 -2.66784 -1.88398 0
M  V30 10761 H 969.494 -3.666 0.000507962 0
M  V30 10762 H 969.142 -4.44789 -2.34886 0
M  V30 10763 H 968.842 -5.75669 -1.1781 0
M  V30 10764 H 970.366 -5.7298 -2.11014 0
M  V30 10765 H 971.78 -5.73073 0.161297 0
M  V30 10766 H 970.177 -5.92893 0.927256 0
M  V30 10767 H 971.247 -4.62208 1.46601 0
M  V30 10768 N 972.59 -0.333456 -1.54032 0
M  V30 10769 C 973.537 0.527981 -2.2468 0
M  V30 10770 C 974.507 1.10371 -1.24127 0
M  V30 10771 O 975.692 1.14221 -1.52834 0
M  V30 10772 C 972.832 1.67808 -3.01553 0
M  V30 10773 C 971.945 1.13064 -4.16942 0
M  V30 10774 C 971.08 2.24722 -4.81325 0
M  V30 10775 C 970.119 1.67277 -5.88799 0
M  V30 10776 N 969.256 2.72638 -6.47003 0
M  V30 10777 H 974.096 -0.0810308 -2.9789 0
M  V30 10778 H 971.633 -0.051761 -1.47009 0
M  V30 10779 H 973.591 2.35502 -3.44376 0
M  V30 10780 H 972.221 2.25823 -2.30659 0
M  V30 10781 H 971.273 0.344948 -3.78833 0
M  V30 10782 H 972.585 0.670373 -4.94275 0
M  V30 10783 H 971.739 3.00301 -5.27166 0
M  V30 10784 H 970.478 2.74089 -4.03394 0
M  V30 10785 H 969.483 0.902002 -5.4235 0
M  V30 10786 H 970.708 1.18775 -6.68632 0
M  V30 10787 H 968.654 3.21277 -5.71941 0
M  V30 10788 H 968.571 2.31204 -7.19778 0
M  V30 10789 H 969.839 3.48015 -6.97499 0
M  V30 10790 N 974.068 1.57479 -0.061844 0
M  V30 10791 C 975 2.09116 0.938245 0
M  V30 10792 C 976.013 1.0212 1.26788 0
M  V30 10793 O 977.202 1.2966 1.22681 0
M  V30 10794 C 974.302 2.52822 2.25686 0
M  V30 10795 C 973.475 3.83277 2.10755 0
M  V30 10796 C 972.534 4.13182 3.25833 0
M  V30 10797 O 971.56 4.82937 3.01265 0
M  V30 10798 N 972.762 3.65938 4.50633 0
M  V30 10799 H 975.527 2.95543 0.497433 0
M  V30 10800 H 973.088 1.61423 0.124134 0
M  V30 10801 H 975.08 2.69896 3.01559 0
M  V30 10802 H 973.65 1.71586 2.61299 0
M  V30 10803 H 972.87 3.7568 1.19409 0
M  V30 10804 H 974.158 4.68686 1.98018 0
M  V30 10805 H 973.556 3.09566 4.73482 0
M  V30 10806 H 972.113 3.8823 5.23565 0
M  V30 10807 N 975.546 -0.211634 1.56173 0
M  V30 10808 C 976.476 -1.26533 1.96244 0
M  V30 10809 C 977.457 -1.48362 0.832028 0
M  V30 10810 O 978.642 -1.60378 1.0951 0
M  V30 10811 C 975.772 -2.61307 2.2877 0
M  V30 10812 C 974.726 -2.54119 3.44395 0
M  V30 10813 C 974.052 -3.93014 3.62552 0
M  V30 10814 C 975.352 -2.08046 4.79076 0
M  V30 10815 H 977.046 -0.932407 2.84511 0
M  V30 10816 H 974.592 -0.447084 1.36884 0
M  V30 10817 H 976.545 -3.35188 2.55396 0
M  V30 10818 H 975.269 -2.96307 1.37367 0
M  V30 10819 H 973.928 -1.82694 3.17834 0
M  V30 10820 H 973.576 -4.25338 2.68508 0
M  V30 10821 H 973.276 -3.89083 4.40327 0
M  V30 10822 H 974.8 -4.68542 3.91537 0
M  V30 10823 H 976.214 -2.71676 5.04842 0
M  V30 10824 H 974.611 -2.15154 5.60204 0
M  V30 10825 H 975.681 -1.03306 4.73768 0
M  V30 10826 N 977.024 -1.50153 -0.478725 0
M  V30 10827 C 978.27 -1.60998 -1.23318 0
M  V30 10828 C 978.603 -0.305868 -1.91776 0
M  V30 10829 O 977.878 0.692158 -1.81767 0
M  V30 10830 C 978.161 -2.78495 -2.28282 0
M  V30 10831 C 978.014 -4.18767 -1.64178 0
M  V30 10832 C 979.333 -2.91569 -3.2966 0
M  V30 10833 H 976.452 -0.585983 -0.446982 0
M  V30 10834 H 979.094 -1.82514 -0.528063 0
M  V30 10835 H 977.244 -2.60281 -2.8842 0
M  V30 10836 H 978.916 -4.48552 -1.07696 0
M  V30 10837 H 977.159 -4.23379 -0.94514 0
M  V30 10838 H 977.83 -4.96894 -2.40417 0
M  V30 10839 H 980.306 -3.08219 -2.79536 0
M  V30 10840 H 979.182 -3.75419 -4.0044 0
M  V30 10841 H 979.443 -2.01859 -3.93326 0
M  V30 10842 N 978.502 0.731368 -1.39602 0
M  V30 10843 C 979.449 1.84541 -1.38612 0
M  V30 10844 C 980.419 1.64279 -0.245287 0
M  V30 10845 O 981.604 1.85635 -0.440954 0
M  V30 10846 C 978.744 3.22092 -1.23897 0
M  V30 10847 C 977.857 3.54034 -2.47555 0
M  V30 10848 C 976.992 4.81007 -2.25402 0
M  V30 10849 C 976.031 5.05804 -3.44716 0
M  V30 10850 N 975.168 6.23981 -3.21857 0
M  V30 10851 H 980.008 1.84722 -2.33841 0
M  V30 10852 H 977.545 0.902569 -1.16156 0
M  V30 10853 H 979.503 4.01499 -1.13376 0
M  V30 10854 H 978.133 3.2118 -0.322958 0
M  V30 10855 H 977.185 2.69301 -2.68665 0
M  V30 10856 H 978.497 3.68275 -3.36415 0
M  V30 10857 H 977.651 5.68401 -2.12143 0
M  V30 10858 H 976.39 4.68946 -1.33943 0
M  V30 10859 H 975.395 4.1687 -3.58468 0
M  V30 10860 H 976.62 5.19747 -4.37081 0
M  V30 10861 H 974.566 6.13202 -2.33065 0
M  V30 10862 H 974.483 6.38826 -4.04274 0
M  V30 10863 H 975.751 7.14205 -3.123 0
M  V30 10864 N 979.98 1.24838 0.961938 0
M  V30 10865 C 981.227 1.09151 1.70564 0
M  V30 10866 C 981.555 -0.368719 1.90973 0
M  V30 10867 O 980.81 -1.28854 1.47293 0
M  V30 10868 C 981.109 1.78289 3.09754 0
M  V30 10869 C 980.775 3.28216 3.09169 0
M  V30 10870 C 979.437 3.69118 3.08716 0
M  V30 10871 C 981.789 4.24035 3.03058 0
M  V30 10872 C 979.117 5.04263 2.99892 0
M  V30 10873 C 981.469 5.59195 2.95776 0
M  V30 10874 C 980.133 5.99436 2.93655 0
M  V30 10875 H 979.403 0.399414 0.624139 0
M  V30 10876 H 982.05 1.55016 1.12438 0
M  V30 10877 H 980.355 1.24835 3.7138 0
M  V30 10878 H 982.052 1.63612 3.66104 0
M  V30 10879 H 978.642 2.95667 3.10289 0
M  V30 10880 H 982.826 3.93431 3.02532 0
M  V30 10881 H 978.082 5.3463 2.96615 0
M  V30 10882 H 982.256 6.33142 2.90007 0
M  V30 10883 H 979.883 7.04116 2.86573 0
M  V30 10884 N 981.458 -1.16348 1.06306 0
M  V30 10885 C 982.683 -1.91323 0.800636 0
M  V30 10886 C 983.108 -1.7691 -0.639105 0
M  V30 10887 O 982.466 -1.0945 -1.44535 0
M  V30 10888 C 982.514 -3.40038 1.20027 0
M  V30 10889 O 981.618 -4.11003 0.339142 0
M  V30 10890 H 980.959 -0.596057 0.292595 0
M  V30 10891 H 983.489 -1.47406 1.41889 0
M  V30 10892 H 983.499 -3.90808 1.17188 0
M  V30 10893 H 982.174 -3.49848 2.24898 0
M  V30 10894 H 980.751 -3.70423 0.42911 0
M  V30 10895 N 982.937 -0.845659 -1.3299 0
M  V30 10896 C 983.867 -0.298957 -2.31578 0
M  V30 10897 C 984.848 0.597012 -1.59279 0
M  V30 10898 O 986.033 0.519142 -1.87132 0
M  V30 10899 C 983.163 0.521109 -3.43368 0
M  V30 10900 C 982.117 -0.279651 -4.27085 0
M  V30 10901 C 981.443 0.664591 -5.30554 0
M  V30 10902 C 982.743 -1.50046 -5.00283 0
M  V30 10903 H 984.437 -1.12272 -2.77552 0
M  V30 10904 H 981.983 -0.54132 -1.33438 0
M  V30 10905 H 983.936 0.913921 -4.1137 0
M  V30 10906 H 982.66 1.37815 -2.96099 0
M  V30 10907 H 981.319 -0.654106 -3.60717 0
M  V30 10908 H 980.967 1.51822 -4.79541 0
M  V30 10909 H 980.667 0.132871 -5.8745 0
M  V30 10910 H 982.191 1.05477 -6.01421 0
M  V30 10911 H 983.605 -1.18044 -5.61016 0
M  V30 10912 H 982.002 -1.96946 -5.66862 0
M  V30 10913 H 983.072 -2.26659 -4.28665 0
M  V30 10914 N 984.415 1.45619 -0.602734 0
M  V30 10915 C 985.692 1.9558 -0.0282472 0
M  V30 10916 C 986.072 1.54523 1.43826 0
M  V30 10917 O 985.42 0.805456 2.13833 0
M  V30 10918 C 985.63 3.48298 -0.221263 0
M  V30 10919 C 986.978 4.24483 -0.0995249 0
M  V30 10920 O 988.002 3.55879 -0.151132 0
M  V30 10921 O 986.861 5.46497 0.0194454 0
M  V30 10922 H 983.955 0.826104 0.0384897 0
M  V30 10923 H 986.501 1.55808 -0.672456 0
M  V30 10924 H 985.273 3.71134 -1.23997 0
M  V30 10925 H 984.896 3.94948 0.458437 0
M  V30 10926 N 985.893 0.34162 1.53853 0
M  V30 10927 C 986.856 -0.503541 2.236 0
M  V30 10928 C 987.856 -1.02912 1.23554 0
M  V30 10929 O 989.046 -0.918678 1.48007 0
M  V30 10930 C 986.178 -1.70126 2.95415 0
M  V30 10931 H 987.371 0.106437 2.99711 0
M  V30 10932 H 984.924 0.0929408 1.56023 0
M  V30 10933 H 985.659 -2.34999 2.23486 0
M  V30 10934 H 985.444 -1.33161 3.68796 0
M  V30 10935 H 986.934 -2.30077 3.48503 0
M  V30 10936 N 987.371 -1.57444 0.0701946 0
M  V30 10937 C 988.334 -2.11511 -0.882923 0
M  V30 10938 C 989.334 -1.03879 -1.22743 0
M  V30 10939 O 990.524 -1.29874 -1.16097 0
M  V30 10940 C 987.656 -2.61514 -2.18686 0
M  V30 10941 H 988.849 -2.9703 -0.413873 0
M  V30 10942 H 986.402 -1.55278 -0.178488 0
M  V30 10943 H 987.137 -1.79443 -2.70131 0
M  V30 10944 H 986.922 -3.40185 -1.94978 0
M  V30 10945 H 988.412 -3.03425 -2.86919 0
M  V30 10946 N 988.849 0.203349 -1.56283 0
M  V30 10947 C 989.812 1.23566 -1.93039 0
M  V30 10948 C 990.812 1.38869 -0.810687 0
M  V30 10949 O 992.002 1.36822 -1.07821 0
M  V30 10950 C 989.134 2.60645 -2.1972 0
M  V30 10951 H 990.327 0.921692 -2.85385 0
M  V30 10952 H 987.88 0.44453 -1.49845 0
M  V30 10953 H 988.615 2.9711 -1.29985 0
M  V30 10954 H 988.4 2.50911 -3.01307 0
M  V30 10955 H 989.89 3.35103 -2.4919 0
M  V30 10956 N 990.327 1.50405 0.470755 0
M  V30 10957 C 991.575 1.61092 1.2204 0
M  V30 10958 C 991.896 0.313487 1.92464 0
M  V30 10959 O 991.166 -0.669043 1.84121 0
M  V30 10960 H 989.746 0.593618 0.45346 0
M  V30 10961 H 992.408 1.87184 0.542985 0
M  V30 10962 H 991.504 2.42222 1.96812 0
M  V30 10963 N 991.805 -0.723954 1.39988 0
M  V30 10964 C 992.738 -1.84725 1.33985 0
M  V30 10965 C 993.716 -1.61217 0.211623 0
M  V30 10966 O 994.9 -1.84338 0.393905 0
M  V30 10967 C 992.027 -3.20913 1.08317 0
M  V30 10968 C 991.073 -3.63262 2.23478 0
M  V30 10969 S 991.906 -3.71346 3.85827 0
M  V30 10970 C 993.062 -5.10307 3.62405 0
M  V30 10971 H 993.295 -1.89535 2.2905 0
M  V30 10972 H 990.828 -0.889911 1.26174 0
M  V30 10973 H 992.786 -3.99547 0.941921 0
M  V30 10974 H 991.447 -3.13745 0.149203 0
M  V30 10975 H 990.64 -4.62124 2.01139 0
M  V30 10976 H 990.242 -2.91863 2.33863 0
M  V30 10977 H 992.534 -5.96975 3.20354 0
M  V30 10978 H 993.477 -5.37679 4.60768 0
M  V30 10979 H 993.885 -4.80505 2.96269 0
M  V30 10980 N 993.283 -1.25346 -0.955304 0
M  V30 10981 C 994.213 -1.08152 -2.06943 0
M  V30 10982 C 995.194 0.00922598 -1.70097 0
M  V30 10983 O 996.379 -0.160181 -1.93538 0
M  V30 10984 C 993.509 -0.698745 -3.40198 0
M  V30 10985 C 992.463 -1.73965 -3.9105 0
M  V30 10986 C 991.789 -1.21158 -5.20792 0
M  V30 10987 C 993.089 -3.13829 -4.17503 0
M  V30 10988 H 994.783 -2.01345 -2.21586 0
M  V30 10989 H 992.329 -0.969459 -1.06478 0
M  V30 10990 H 994.282 -0.565394 -4.1759 0
M  V30 10991 H 993.006 0.268892 -3.25491 0
M  V30 10992 H 991.665 -1.86143 -3.15827 0
M  V30 10993 H 991.313 -0.234193 -5.02455 0
M  V30 10994 H 991.013 -1.90728 -5.55785 0
M  V30 10995 H 992.537 -1.09061 -6.00781 0
M  V30 10996 H 993.951 -3.04809 -4.85556 0
M  V30 10997 H 992.348 -3.80863 -4.63749 0
M  V30 10998 H 993.418 -3.6094 -3.23806 0
M  V30 10999 N 994.761 1.15782 -1.06922 0
M  V30 11000 C 995.991 1.90079 -0.809545 0
M  V30 11001 C 996.399 1.78028 0.640523 0
M  V30 11002 O 995.742 1.12692 1.45073 0
M  V30 11003 C 995.804 3.41179 -1.13302 0
M  V30 11004 C 995.468 3.77015 -2.5828 0
M  V30 11005 C 996.465 3.78403 -3.56521 0
M  V30 11006 C 994.15 4.07455 -2.93745 0
M  V30 11007 C 996.144 4.09729 -4.88264 0
M  V30 11008 C 993.831 4.38446 -4.25686 0
M  V30 11009 C 994.829 4.39564 -5.22755 0
M  V30 11010 O 994.517 4.69814 -6.52326 0
M  V30 11011 H 994.249 0.609397 -0.292595 0
M  V30 11012 H 996.803 1.47654 -1.42784 0
M  V30 11013 H 995.033 3.83982 -0.457676 0
M  V30 11014 H 996.722 3.96759 -0.856586 0
M  V30 11015 H 997.488 3.54991 -3.30464 0
M  V30 11016 H 993.367 4.05746 -2.1884 0
M  V30 11017 H 996.911 4.10516 -5.64023 0
M  V30 11018 H 992.808 4.61325 -4.51497 0
M  V30 11019 H 993.576 4.87598 -6.57412 0
M  V30 11020 N 996.239 0.8527 1.3254 0
M  V30 11021 C 997.169 0.311234 2.31416 0
M  V30 11022 C 998.15 -0.588557 1.59593 0
M  V30 11023 O 999.335 -0.509211 1.87405 0
M  V30 11024 C 996.465 -0.502892 3.4364 0
M  V30 11025 C 995.419 0.302296 4.26931 0
M  V30 11026 C 994.745 -0.636445 5.30899 0
M  V30 11027 C 996.045 1.52697 4.99481 0
M  V30 11028 H 997.739 1.13742 2.76953 0
M  V30 11029 H 995.285 0.548389 1.33149 0
M  V30 11030 H 997.238 -0.892092 4.11849 0
M  V30 11031 H 995.962 -1.36242 2.96826 0
M  V30 11032 H 994.621 0.673226 3.60365 0
M  V30 11033 H 994.269 -1.49277 4.80339 0
M  V30 11034 H 993.969 -0.101716 5.87512 0
M  V30 11035 H 995.493 -1.02286 6.01972 0
M  V30 11036 H 996.907 1.21017 5.60382 0
M  V30 11037 H 995.304 1.9995 5.65809 0
M  V30 11038 H 996.374 2.28929 4.27457 0
M  V30 11039 N 997.718 -1.45297 0.610449 0
M  V30 11040 C 998.628 -2.34349 -0.108475 0
M  V30 11041 C 999.644 -1.51409 -0.857397 0
M  V30 11042 O 1000.82 -1.84202 -0.814337 0
M  V30 11043 C 997.885 -3.29072 -1.09144 0
M  V30 11044 C 996.946 -4.27918 -0.344165 0
M  V30 11045 C 996.179 -5.18116 -1.28031 0
M  V30 11046 O 996.402 -5.11802 -2.51824 0
M  V30 11047 O 995.336 -5.96879 -0.775821 0
M  V30 11048 H 999.162 -2.97232 0.623421 0
M  V30 11049 H 996.747 -1.44728 0.3707 0
M  V30 11050 H 998.629 -3.87433 -1.65751 0
M  V30 11051 H 997.304 -2.68749 -1.80431 0
M  V30 11052 H 996.211 -3.73164 0.264437 0
M  V30 11053 H 997.544 -4.91104 0.328275 0
M  V30 11054 N 999.196 -0.349774 -1.5367 0
M  V30 11055 C 1000.42 0.248692 -2.05904 0
M  V30 11056 C 1000.85 1.42942 -1.22267 0
M  V30 11057 O 1000.2 1.79732 -0.237899 0
M  V30 11058 C 1000.25 0.635639 -3.54953 0
M  V30 11059 O 999.356 1.7349 -3.74132 0
M  V30 11060 H 998.697 0.0399477 -0.662797 0
M  V30 11061 H 1001.23 -0.505795 -1.9825 0
M  V30 11062 H 1001.24 0.911064 -3.97698 0
M  V30 11063 H 999.912 -0.227805 -4.15276 0
M  V30 11064 H 998.489 1.45626 -3.43289 0
M  V30 11065 N 1000.67 1.57404 -0.0785433 0
M  V30 11066 C 1001.62 2.13104 0.88631 0
M  V30 11067 C 1002.59 1.04527 1.29086 0
M  V30 11068 O 1003.78 1.32226 1.37553 0
M  V30 11069 C 1000.92 2.70252 2.14611 0
M  V30 11070 C 1000.03 3.93007 1.79358 0
M  V30 11071 C 999.164 4.38376 3 0
M  V30 11072 C 998.203 5.53761 2.60796 0
M  V30 11073 N 997.34 5.94058 3.74219 0
M  V30 11074 H 1002.18 2.95243 0.404452 0
M  V30 11075 H 999.717 1.45894 0.187982 0
M  V30 11076 H 1001.67 3.01497 2.88367 0
M  V30 11077 H 1000.3 1.90868 2.60326 0
M  V30 11078 H 999.357 3.68181 0.956384 0
M  V30 11079 H 1000.67 4.76795 1.4652 0
M  V30 11080 H 999.823 4.71317 3.82027 0
M  V30 11081 H 998.562 3.53455 3.36037 0
M  V30 11082 H 997.567 5.20464 1.77192 0
M  V30 11083 H 998.792 6.40419 2.25922 0
M  V30 11084 H 996.738 5.12085 4.10005 0
M  V30 11085 H 996.655 6.72602 3.45171 0
M  V30 11086 H 997.923 6.31624 4.56805 0
M  V30 11087 N 1002.15 -0.195058 1.56388 0
M  V30 11088 C 1003.1 -1.26122 1.95438 0
M  V30 11089 C 1004.09 -1.47117 0.839818 0
M  V30 11090 O 1005.3 -1.47978 1.02482 0
M  V30 11091 H 1001.67 -0.423422 0.621464 0
M  V30 11092 H 1003.65 -0.904854 2.8435 0
M  V30 11093 C 1002.39 -2.59858 2.31017 0
M  V30 11094 H 1001.72 -2.44519 3.16308 0
M  V30 11095 H 1003.16 -3.33205 2.62203 0
M  V30 11096 C 1001.62 -3.16853 1.14481 0
M  V30 11097 O 1002.15 -3.995 0.419853 0
M  V30 11098 N 1000.35 -2.75599 0.921604 0
M  V30 11099 H 999.9 -2.08495 1.51287 0
M  V30 11100 H 999.858 -3.14072 0.143663 0
M  V30 11101 N 1003.63 -1.50653 -0.462772 0
M  V30 11102 C 1004.87 -1.637 -1.22399 0
M  V30 11103 C 1005.23 -0.333847 -1.89075 0
M  V30 11104 O 1006.43 -0.339837 -2.66643 0
M  V30 11105 C 1004.71 -2.79018 -2.23347 0
M  V30 11106 S 1006.26 -3.12248 -3.08296 0
M  V30 11107 H 1003.08 -0.576998 -0.415444 0
M  V30 11108 H 1005.68 -1.88468 -0.519631 0
M  V30 11109 H 1004.39 -3.72174 -1.72958 0
M  V30 11110 H 1003.92 -2.56362 -2.98399 0
M  V30 11111 H 1005.93 -2.56716 -4.24631 0
M  V30 11112 N 1005.11 0.71652 -1.4037 0
M  V30 11113 C 1006.36 1.47193 -1.37903 0
M  V30 11114 C 1006.67 1.95593 0.0159939 0
M  V30 11115 O 1007.88 2.71009 0.163282 0
M  V30 11116 C 1006.33 2.6606 -2.42363 0
M  V30 11117 C 1005.94 2.24533 -3.87671 0
M  V30 11118 C 1007.68 3.438 -2.49001 0
M  V30 11119 C 1005.59 3.40234 -4.8373 0
M  V30 11120 H 1004.52 0.552811 -0.512753 0
M  V30 11121 H 1007.17 0.779894 -1.66102 0
M  V30 11122 H 1005.55 3.37429 -2.07262 0
M  V30 11123 H 1006.73 1.6059 -4.31911 0
M  V30 11124 H 1005.04 1.59839 -3.845 0
M  V30 11125 H 1007.64 4.29893 -3.17956 0
M  V30 11126 H 1007.98 3.8755 -1.52023 0
M  V30 11127 H 1008.52 2.79474 -2.83088 0
M  V30 11128 H 1005.26 3.01517 -5.82037 0
M  V30 11129 H 1004.78 4.03095 -4.44156 0
M  V30 11130 H 1006.45 4.06312 -5.03507 0
M  V30 11131 N 1006.59 1.25851 0.948643 0
M  V30 11132 C 1007.54 1.03437 2.03187 0
M  V30 11133 C 1008.52 -0.0307632 1.60871 0
M  V30 11134 O 1009.71 0.185296 1.76027 0
M  V30 11135 C 1006.84 0.661426 3.36868 0
M  V30 11136 C 1005.93 1.76363 3.8569 0
M  V30 11137 N 1006.32 2.9998 4.07241 0
M  V30 11138 C 1004.62 1.64552 4.14534 0
M  V30 11139 C 1005.32 3.71564 4.47566 0
M  V30 11140 N 1004.29 2.99214 4.53841 0
M  V30 11141 H 1008.1 1.97277 2.17851 0
M  V30 11142 H 1005.61 1.16258 1.13392 0
M  V30 11143 H 1007.61 0.482021 4.14104 0
M  V30 11144 H 1006.27 -0.269582 3.23579 0
M  V30 11145 H 1007.28 3.35963 3.94143 0
M  V30 11146 H 1003.95 0.783891 4.10075 0
M  V30 11147 H 1005.34 4.77702 4.72494 0
M  V30 11148 N 1008.06 -1.15214 1.07534 0
M  V30 11149 C 1009.48 -1.38031 0.801228 0
M  V30 11150 C 1009.68 -1.92556 -0.593672 0
M  V30 11151 O 1008.74 -2.1325 -1.35206 0
M  V30 11152 C 1010.05 -2.34958 1.87657 0
M  V30 11153 C 1011.6 -2.48617 1.90154 0
M  V30 11154 C 1012.07 -3.48837 2.96777 0
M  V30 11155 N 1013.56 -3.56374 2.95892 0
M  V30 11156 C 1014.3 -4.33746 3.75036 0
M  V30 11157 N 1013.79 -5.14435 4.64036 0
M  V30 11158 N 1015.59 -4.28853 3.63375 0
M  V30 11159 H 1007.74 -0.781639 1.97495 0
M  V30 11160 H 1010 -0.406243 0.856546 0
M  V30 11161 H 1009.71 -2.02013 2.87895 0
M  V30 11162 H 1009.58 -3.3476 1.73827 0
M  V30 11163 H 1011.97 -2.80859 0.905666 0
M  V30 11164 H 1012.05 -1.48808 2.08062 0
M  V30 11165 H 1011.69 -3.1733 3.96565 0
M  V30 11166 H 1011.62 -4.48406 2.76116 0
M  V30 11167 H 1014.11 -2.98784 2.31379 0
M  V30 11168 H 1014.43 -5.70722 5.21053 0
M  V30 11169 H 1012.77 -5.13734 4.68084 0
M  V30 11170 H 1015.96 -3.64882 2.93221 0
M  V30 11171 H 1016.14 -4.88903 4.25298 0
M  V30 11172 N 1009.54 -0.859717 -1.32086 0
M  V30 11173 C 1010.82 -0.386665 -1.9174 0
M  V30 11174 C 1011.2 1.13028 -1.78292 0
M  V30 11175 O 1010.55 1.95422 -1.18417 0
M  V30 11176 C 1010.76 -0.856648 -3.38323 0
M  V30 11177 C 1012.11 -0.87678 -4.15449 0
M  V30 11178 O 1013.13 -0.80162 -3.47063 0
M  V30 11179 O 1011.99 -0.98373 -5.37573 0
M  V30 11180 H 1009.08 -0.113758 -0.819139 0
M  V30 11181 H 1011.63 -0.946952 -1.40822 0
M  V30 11182 H 1010.4 -1.89996 -3.42078 0
M  V30 11183 H 1010.02 -0.274095 -3.96654 0
M  V30 11184 N 1011.02 1.44971 -0.618145 0
M  V30 11185 C 1011.95 2.33357 0.0815955 0
M  V30 11186 C 1012.93 1.47451 0.848072 0
M  V30 11187 O 1014.12 1.762 0.816532 0
M  V30 11188 C 1011.25 3.30324 1.07253 0
M  V30 11189 C 1010.2 4.25948 0.418563 0
M  V30 11190 C 1009.53 5.12685 1.51849 0
M  V30 11191 C 1010.83 5.18024 -0.66697 0
M  V30 11192 H 1012.52 2.92115 -0.656442 0
M  V30 11193 H 1010.07 1.40465 -0.317129 0
M  V30 11194 H 1012.02 3.91033 1.57069 0
M  V30 11195 H 1010.74 2.69748 1.8413 0
M  V30 11196 H 1009.4 3.66553 -0.0588308 0
M  V30 11197 H 1009.05 4.4847 2.2778 0
M  V30 11198 H 1008.75 5.7747 1.08637 0
M  V30 11199 H 1010.27 5.76264 2.01871 0
M  V30 11200 H 1011.69 5.72744 -0.252448 0
M  V30 11201 H 1010.09 5.91343 -1.02146 0
M  V30 11202 H 1011.16 4.59817 -1.53936 0
M  V30 11203 N 1012.5 0.357919 1.53482 0
M  V30 11204 C 1013.46 -0.479797 2.24122 0
M  V30 11205 C 1014.46 -1.01596 1.24639 0
M  V30 11206 O 1015.65 -0.902928 1.48973 0
M  V30 11207 C 1012.78 -1.66983 2.97203 0
M  V30 11208 H 1013.98 0.138219 2.99581 0
M  V30 11209 H 1011.53 0.109484 1.55916 0
M  V30 11210 H 1012.26 -2.32615 2.25966 0
M  V30 11211 H 1012.05 -1.29242 3.70188 0
M  V30 11212 H 1013.54 -2.26367 3.50924 0
M  V30 11213 N 1013.98 -1.5736 0.0868897 0
M  V30 11214 C 1014.94 -2.12436 -0.860439 0
M  V30 11215 C 1015.94 -1.05175 -1.21634 0
M  V30 11216 O 1017.13 -1.31098 -1.14713 0
M  V30 11217 C 1014.26 -2.63818 -2.159 0
M  V30 11218 H 1015.45 -2.97453 -0.382346 0
M  V30 11219 H 1013.01 -1.55458 -0.162009 0
M  V30 11220 H 1013.74 -1.82298 -2.68212 0
M  V30 11221 H 1013.53 -3.42234 -1.91359 0
M  V30 11222 H 1015.02 -3.06452 -2.83685 0
M  V30 11223 N 1015.45 0.186762 -1.56489 0
M  V30 11224 C 1016.87 0.537933 -1.50261 0
M  V30 11225 C 1017.07 1.85435 -0.788414 0
M  V30 11226 O 1016.13 2.50168 -0.342377 0
M  V30 11227 C 1017.44 0.584965 -2.94955 0
M  V30 11228 C 1018.99 0.673228 -3.05674 0
M  V30 11229 C 1019.46 0.751294 -4.51796 0
M  V30 11230 N 1020.95 0.814599 -4.55981 0
M  V30 11231 C 1021.69 0.895313 -5.66367 0
M  V30 11232 N 1021.18 0.937814 -6.86423 0
M  V30 11233 N 1022.98 0.933145 -5.543 0
M  V30 11234 H 1015.13 -0.676636 -2.01334 0
M  V30 11235 H 1017.39 -0.242079 -0.916571 0
M  V30 11236 H 1017.1 -0.313361 -3.50301 0
M  V30 11237 H 1016.97 1.4368 -3.48763 0
M  V30 11238 H 1019.36 1.56198 -2.50372 0
M  V30 11239 H 1019.44 -0.204976 -2.54977 0
M  V30 11240 H 1019.08 -0.133143 -5.07725 0
M  V30 11241 H 1019.01 1.64542 -5.00233 0
M  V30 11242 H 1021.5 0.790662 -3.69536 0
M  V30 11243 H 1021.82 1.00015 -7.66301 0
M  V30 11244 H 1020.16 0.906351 -6.89065 0
M  V30 11245 H 1023.35 0.896836 -4.59428 0
M  V30 11246 H 1023.53 0.992588 -6.40353 0
M  V30 11247 N 1016.93 1.50896 0.454776 0
M  V30 11248 C 1017.88 1.71497 1.57136 0
M  V30 11249 C 1018.87 0.58098 1.59126 0
M  V30 11250 O 1020.08 0.761916 1.63079 0
M  V30 11251 H 1016.46 0.54158 0.521724 0
M  V30 11252 H 1018.43 2.65129 1.36928 0
M  V30 11253 C 1017.18 1.84125 2.94947 0
M  V30 11254 H 1016.5 2.7078 2.9414 0
M  V30 11255 H 1017.94 2.02558 3.72487 0
M  V30 11256 C 1016.4 0.596752 3.31573 0
M  V30 11257 O 1016.93 -0.256632 4.00879 0
M  V30 11258 N 1015.13 0.445958 2.87158 0
M  V30 11259 H 1014.68 1.14146 2.30929 0
M  V30 11260 H 1014.64 -0.385519 3.12027 0
M  V30 11261 N 1018.41 -0.709066 1.40748 0
M  V30 11262 C 1019.65 -1.48139 1.40834 0
M  V30 11263 C 1020.01 -1.91996 0.0117625 0
M  V30 11264 O 1021.22 -2.68564 -0.112524 0
M  V30 11265 C 1019.49 -2.67009 2.37573 0
M  V30 11266 S 1021.05 -3.56331 2.56073 0
M  V30 11267 H 1017.86 -0.506396 0.499084 0
M  V30 11268 H 1020.47 -0.828588 1.77072 0
M  V30 11269 H 1019.17 -2.32971 3.37865 0
M  V30 11270 H 1018.7 -3.37195 2.02641 0
M  V30 11271 H 1020.72 -4.61695 1.81803 0
M  V30 11272 N 1019.89 -1.26353 -0.941956 0
M  V30 11273 C 1020.82 -1.10341 -2.05784 0
M  V30 11274 C 1021.8 -0.00881565 -1.70098 0
M  V30 11275 O 1022.99 -0.180699 -1.93357 0
M  V30 11276 C 1020.12 -0.734788 -3.39438 0
M  V30 11277 C 1019.07 -1.78103 -3.89183 0
M  V30 11278 C 1018.4 -1.26675 -5.19478 0
M  V30 11279 C 1019.7 -3.1824 -4.14151 0
M  V30 11280 H 1021.39 -2.03684 -2.19438 0
M  V30 11281 H 1018.94 -0.980698 -1.05443 0
M  V30 11282 H 1020.89 -0.609653 -4.16967 0
M  V30 11283 H 1019.61 0.234354 -3.25758 0
M  V30 11284 H 1018.27 -1.89482 -3.13835 0
M  V30 11285 H 1017.92 -0.287472 -5.02178 0
M  V30 11286 H 1017.62 -1.96612 -5.53731 0
M  V30 11287 H 1019.14 -1.15427 -5.99591 0
M  V30 11288 H 1020.56 -3.09942 -4.82296 0
M  V30 11289 H 1018.95 -3.8576 -4.59684 0
M  V30 11290 H 1020.02 -3.64354 -3.19959 0
M  V30 11291 N 1021.37 1.14642 -1.08144 0
M  V30 11292 C 1022.61 1.85892 -0.810683 0
M  V30 11293 C 1022.95 1.82575 0.661821 0
M  V30 11294 O 1022.22 1.25454 1.48632 0
M  V30 11295 C 1022.5 3.34647 -1.32979 0
M  V30 11296 C 1022.36 3.46551 -2.86744 0
M  V30 11297 C 1023.68 4.29661 -0.952864 0
M  V30 11298 H 1020.8 0.674963 -0.295963 0
M  V30 11299 H 1023.44 1.3464 -1.3406 0
M  V30 11300 H 1021.59 3.78425 -0.87903 0
M  V30 11301 H 1023.26 3.11579 -3.40171 0
M  V30 11302 H 1021.5 2.87849 -3.24539 0
M  V30 11303 H 1022.17 4.51101 -3.18138 0
M  V30 11304 H 1024.65 3.93885 -1.34141 0
M  V30 11305 H 1023.53 5.32209 -1.34331 0
M  V30 11306 H 1023.79 4.41877 0.140392 0
M  V30 11307 N 1022.85 0.866709 1.31628 0
M  V30 11308 C 1024.09 0.475086 1.96437 0
M  V30 11309 C 1024.41 -0.975179 1.68865 0
M  V30 11310 O 1023.68 -1.68317 1.0023 0
M  V30 11311 H 1022.26 0.172695 0.726764 0
M  V30 11312 H 1024.93 1.10578 1.60494 0
M  V30 11313 H 1024.02 0.630123 3.05673 0
M  V30 11314 N 1024.32 -1.44642 0.625825 0
M  V30 11315 C 1025.23 -2.34451 -0.0836134 0
M  V30 11316 C 1026.25 -1.5231 -0.841289 0
M  V30 11317 O 1027.43 -1.85056 -0.794754 0
M  V30 11318 C 1024.49 -3.30211 -1.05648 0
M  V30 11319 C 1023.55 -4.28259 -0.298759 0
M  V30 11320 C 1022.78 -5.19444 -1.22528 0
M  V30 11321 O 1023.01 -5.14444 -2.46382 0
M  V30 11322 O 1021.94 -5.97668 -0.71247 0
M  V30 11323 H 1025.77 -2.96555 0.654912 0
M  V30 11324 H 1023.35 -1.44327 0.386029 0
M  V30 11325 H 1025.23 -3.8917 -1.61632 0
M  V30 11326 H 1023.91 -2.70648 -1.77571 0
M  V30 11327 H 1022.82 -3.72863 0.304001 0
M  V30 11328 H 1024.15 -4.90728 0.380345 0
M  V30 11329 N 1025.8 -0.366053 -1.5329 0
M  V30 11330 C 1026.75 0.495319 -2.27265 0
M  V30 11331 C 1027.74 1.08298 -1.30261 0
M  V30 11332 O 1028.95 1.02613 -1.47887 0
M  V30 11333 H 1025.32 0.178454 -0.730519 0
M  V30 11334 H 1027.3 -0.150354 -2.98021 0
M  V30 11335 C 1026.04 1.62283 -3.07505 0
M  V30 11336 H 1025.37 1.17993 -3.81992 0
M  V30 11337 H 1026.81 2.20024 -3.62444 0
M  V30 11338 C 1025.27 2.56542 -2.18375 0
M  V30 11339 O 1025.8 3.59371 -1.79486 0
M  V30 11340 N 1024 2.25742 -1.82999 0
M  V30 11341 H 1023.55 1.42159 -2.14822 0
M  V30 11342 H 1023.51 2.89064 -1.2365 0
M  V30 11343 N 1027.28 1.57312 -0.0952337 0
M  V30 11344 C 1028.23 2.15263 0.881167 0
M  V30 11345 C 1029.22 1.09552 1.29208 0
M  V30 11346 O 1030.43 1.27897 1.26659 0
M  V30 11347 H 1026.8 0.688611 0.302191 0
M  V30 11348 H 1028.77 2.96126 0.367694 0
M  V30 11349 C 1027.52 2.74779 2.13053 0
M  V30 11350 H 1026.85 3.55807 1.82323 0
M  V30 11351 H 1028.29 3.18895 2.79431 0
M  V30 11352 C 1026.74 1.7068 2.90465 0
M  V30 11353 O 1027.27 1.14582 3.85011 0
M  V30 11354 N 1025.48 1.41169 2.54007 0
M  V30 11355 H 1025.03 1.86977 1.77193 0
M  V30 11356 H 1024.99 0.717559 3.06102 0
M  V30 11357 N 1028.76 -0.17846 1.56586 0
M  V30 11358 C 1030 -0.897562 1.81856 0
M  V30 11359 C 1030.34 -1.82204 0.671955 0
M  V30 11360 O 1029.61 -1.91739 -0.326535 0
M  V30 11361 C 1029.89 -1.69942 3.17477 0
M  V30 11362 C 1029.75 -0.798545 4.42655 0
M  V30 11363 C 1031.07 -2.66861 3.49962 0
M  V30 11364 H 1028.19 -0.324863 0.661539 0
M  V30 11365 H 1030.83 -0.164106 1.8929 0
M  V30 11366 H 1028.98 -2.32471 3.11271 0
M  V30 11367 H 1030.65 -0.18668 4.60922 0
M  V30 11368 H 1028.89 -0.106181 4.3367 0
M  V30 11369 H 1029.56 -1.39496 5.34083 0
M  V30 11370 H 1032.04 -2.1446 3.56576 0
M  V30 11371 H 1030.92 -3.20037 4.45946 0
M  V30 11372 H 1031.18 -3.46715 2.74301 0
M  V30 11373 N 1030.24 -1.51135 -0.446768 0
M  V30 11374 C 1031.17 -1.74709 -1.54916 0
M  V30 11375 C 1032.15 -0.596628 -1.59293 0
M  V30 11376 O 1033.33 -0.838356 -1.75172 0
M  V30 11377 C 1030.46 -1.86353 -2.9307 0
M  V30 11378 C 1029.42 -3.01725 -3.03556 0
M  V30 11379 C 1028.74 -2.9854 -4.43597 0
M  V30 11380 C 1030.04 -4.41848 -2.7851 0
M  V30 11381 H 1031.74 -2.67014 -1.3544 0
M  V30 11382 H 1029.28 -1.28489 -0.650131 0
M  V30 11383 H 1031.23 -2.01428 -3.70141 0
M  V30 11384 H 1029.96 -0.906887 -3.13756 0
M  V30 11385 H 1028.62 -2.86339 -2.28922 0
M  V30 11386 H 1028.27 -2.00673 -4.61237 0
M  V30 11387 H 1027.97 -3.76008 -4.51544 0
M  V30 11388 H 1029.49 -3.15696 -5.22655 0
M  V30 11389 H 1030.9 -4.57633 -3.45319 0
M  V30 11390 H 1029.3 -5.2095 -2.97877 0
M  V30 11391 H 1030.37 -4.52536 -1.74182 0
M  V30 11392 N 1031.71 0.701592 -1.41122 0
M  V30 11393 C 1032.66 1.81559 -1.42495 0
M  V30 11394 C 1033.63 1.63722 -0.280078 0
M  V30 11395 O 1034.82 1.84658 -0.480231 0
M  V30 11396 C 1031.96 3.19392 -1.30702 0
M  V30 11397 C 1031.07 3.48704 -2.55009 0
M  V30 11398 C 1030.2 4.76118 -2.35554 0
M  V30 11399 C 1029.24 4.98378 -3.55367 0
M  V30 11400 N 1028.38 6.17014 -3.3502 0
M  V30 11401 H 1033.22 1.7972 -2.37707 0
M  V30 11402 H 1030.76 0.877727 -1.18044 0
M  V30 11403 H 1032.71 3.99004 -1.21867 0
M  V30 11404 H 1031.34 3.20423 -0.391012 0
M  V30 11405 H 1030.4 2.63542 -2.74317 0
M  V30 11406 H 1031.71 3.61057 -3.44151 0
M  V30 11407 H 1030.86 5.63774 -2.24152 0
M  V30 11408 H 1029.6 4.66 -1.43859 0
M  V30 11409 H 1028.61 4.09172 -3.6723 0
M  V30 11410 H 1029.83 5.10359 -4.48007 0
M  V30 11411 H 1027.78 6.0812 -2.4602 0
M  V30 11412 H 1027.69 6.30107 -4.17733 0
M  V30 11413 H 1028.96 7.0742 -3.27379 0
M  V30 11414 N 1033.19 1.2685 0.935242 0
M  V30 11415 C 1034.44 1.12132 1.67658 0
M  V30 11416 C 1034.75 -0.333839 1.9273 0
M  V30 11417 O 1035.96 -0.601801 2.64746 0
M  V30 11418 C 1034.42 1.95873 3.0193 0
M  V30 11419 C 1034.02 3.46 2.84584 0
M  V30 11420 C 1035.77 1.89781 3.79715 0
M  V30 11421 C 1033.67 4.21966 4.14365 0
M  V30 11422 H 1032.6 0.416035 0.628833 0
M  V30 11423 H 1035.26 1.51209 1.03962 0
M  V30 11424 H 1033.64 1.49633 3.66641 0
M  V30 11425 H 1034.81 4.00049 2.28687 0
M  V30 11426 H 1033.13 3.53391 2.20236 0
M  V30 11427 H 1035.72 2.43819 4.75875 0
M  V30 11428 H 1036.07 0.869797 4.07112 0
M  V30 11429 H 1036.6 2.33875 3.21788 0
M  V30 11430 H 1033.34 5.2526 3.9215 0
M  V30 11431 H 1032.86 3.72696 4.69955 0
M  V30 11432 H 1034.54 4.30734 4.82781 0
M  V30 11433 N 1034.67 -1.14067 1.0875 0
M  V30 11434 C 1035.9 -1.89582 0.841038 0
M  V30 11435 C 1036.32 -1.78226 -0.601436 0
M  V30 11436 O 1035.68 -1.12491 -1.42181 0
M  V30 11437 C 1035.73 -3.37415 1.27213 0
M  V30 11438 O 1034.83 -4.10191 0.426246 0
M  V30 11439 H 1034.17 -0.589716 0.305173 0
M  V30 11440 H 1036.7 -1.44364 1.44984 0
M  V30 11441 H 1036.71 -3.88234 1.25451 0
M  V30 11442 H 1035.39 -3.44999 2.32268 0
M  V30 11443 H 1033.96 -3.69429 0.507585 0
M  V30 11444 N 1036.15 -0.873678 -1.31166 0
M  V30 11445 C 1037.43 -0.40698 -1.91319 0
M  V30 11446 C 1037.81 1.1113 -1.79481 0
M  V30 11447 O 1037.15 1.94155 -1.20483 0
M  V30 11448 C 1037.36 -0.892484 -3.37396 0
M  V30 11449 C 1038.71 -0.920795 -4.14496 0
M  V30 11450 O 1039.74 -0.838386 -3.46193 0
M  V30 11451 O 1038.59 -1.04069 -5.365 0
M  V30 11452 H 1035.69 -0.122439 -0.817886 0
M  V30 11453 H 1038.23 -0.961835 -1.3981 0
M  V30 11454 H 1037.01 -1.93613 -3.40044 0
M  V30 11455 H 1036.63 -0.31615 -3.96341 0
M  V30 11456 N 1037.63 1.44308 -0.633487 0
M  V30 11457 C 1038.87 2.02023 -0.138917 0
M  V30 11458 C 1039.2 1.49841 1.24008 0
M  V30 11459 O 1038.46 0.673718 1.83738 0
M  V30 11460 C 1038.76 3.57316 -0.0773886 0
M  V30 11461 C 1038.42 4.28762 -1.39548 0
M  V30 11462 C 1037.08 4.47997 -1.75648 0
M  V30 11463 C 1039.44 4.69391 -2.26542 0
M  V30 11464 C 1036.76 5.05121 -2.98445 0
M  V30 11465 C 1039.12 5.27876 -3.48612 0
M  V30 11466 C 1037.78 5.45329 -3.84932 0
M  V30 11467 H 1037.05 0.739254 -0.0508333 0
M  V30 11468 H 1039.7 1.73043 -0.820271 0
M  V30 11469 H 1038 3.85724 0.687345 0
M  V30 11470 H 1039.7 3.99706 0.321837 0
M  V30 11471 H 1036.29 4.14122 -1.10456 0
M  V30 11472 H 1040.47 4.54241 -1.99946 0
M  V30 11473 H 1035.73 5.16821 -3.26658 0
M  V30 11474 H 1039.9 5.58307 -4.16253 0
M  V30 11475 H 1037.53 5.8936 -4.80166 0
M  V30 11476 N 1039.1 0.374177 1.53094 0
M  V30 11477 C 1040.35 -0.212396 2.00981 0
M  V30 11478 C 1040.67 -1.48576 1.26293 0
M  V30 11479 O 1039.94 -1.92206 0.378642 0
M  V30 11480 H 1038.52 -0.0814763 0.742543 0
M  V30 11481 H 1041.19 0.502389 1.88314 0
M  V30 11482 H 1040.28 -0.433316 3.09077 0
M  V30 11483 N 1040.58 -1.57259 0.103575 0
M  V30 11484 C 1041.52 -2.10165 -0.889141 0
M  V30 11485 C 1042.49 -1.01426 -1.27089 0
M  V30 11486 O 1043.68 -1.2898 -1.37465 0
M  V30 11487 C 1040.8 -2.58564 -2.18774 0
M  V30 11488 C 1039.85 -3.79043 -1.95522 0
M  V30 11489 S 1040.68 -5.22213 -1.18551 0
M  V30 11490 C 1041.84 -5.73968 -2.49623 0
M  V30 11491 H 1042.07 -2.9404 -0.439083 0
M  V30 11492 H 1039.61 -1.54008 -0.10989 0
M  V30 11493 H 1041.56 -2.87106 -2.93395 0
M  V30 11494 H 1040.22 -1.749 -2.609 0
M  V30 11495 H 1039.42 -4.11004 -2.91705 0
M  V30 11496 H 1039.02 -3.51038 -1.29028 0
M  V30 11497 H 1041.31 -5.82752 -3.45553 0
M  V30 11498 H 1042.25 -6.72324 -2.22229 0
M  V30 11499 H 1042.66 -5.01946 -2.58284 0
M  V30 11500 N 1042.06 0.170153 -1.56679 0
M  V30 11501 C 1043.29 0.90618 -1.86556 0
M  V30 11502 C 1043.71 1.74986 -0.690044 0
M  V30 11503 O 1043.07 1.77672 0.360862 0
M  V30 11504 C 1043.12 1.75777 -3.14857 0
M  V30 11505 O 1042.22 2.85952 -2.97162 0
M  V30 11506 H 1041.56 0.253781 -0.613589 0
M  V30 11507 H 1044.09 0.167943 -2.0391 0
M  V30 11508 H 1044.1 2.15747 -3.46291 0
M  V30 11509 H 1042.78 1.13807 -4.00026 0
M  V30 11510 H 1041.35 2.49557 -2.77084 0
M  V30 11511 N 1043.54 1.5137 0.438746 0
M  V30 11512 C 1044.95 1.39514 0.775116 0
M  V30 11513 C 1045.15 0.47638 1.95788 0
M  V30 11514 O 1044.21 -0.0689832 2.52406 0
M  V30 11515 C 1045.52 2.81517 1.05681 0
M  V30 11516 C 1047.07 2.90658 1.16133 0
M  V30 11517 C 1047.55 4.33566 1.47597 0
M  V30 11518 N 1049.04 4.36665 1.54524 0
M  V30 11519 C 1049.77 5.4427 1.80438 0
M  V30 11520 N 1049.27 6.62037 2.04154 0
M  V30 11521 N 1051.06 5.31749 1.82208 0
M  V30 11522 H 1043.21 2.09657 -0.340237 0
M  V30 11523 H 1045.48 0.943736 -0.0898115 0
M  V30 11524 H 1045.18 3.50734 0.260441 0
M  V30 11525 H 1045.06 3.20757 1.98481 0
M  V30 11526 H 1047.44 2.2164 1.94833 0
M  V30 11527 H 1047.52 2.54917 0.212376 0
M  V30 11528 H 1047.17 5.03133 0.694251 0
M  V30 11529 H 1047.1 4.66819 2.43696 0
M  V30 11530 H 1049.59 3.51761 1.38105 0
M  V30 11531 H 1049.9 7.39838 2.23293 0
M  V30 11532 H 1048.25 6.65155 2.01479 0
M  V30 11533 H 1051.44 4.3873 1.63198 0
M  V30 11534 H 1051.61 6.15689 2.02067 0
M  V30 11535 N 1045.02 -0.694098 1.41492 0
M  V30 11536 C 1045.95 -1.81943 1.39389 0
M  V30 11537 C 1046.96 -1.6009 0.295836 0
M  V30 11538 O 1048.15 -1.69565 0.557658 0
M  V30 11539 C 1045.25 -3.18731 1.15167 0
M  V30 11540 C 1044.42 -3.67601 2.37041 0
M  V30 11541 C 1043.48 -4.83063 2.08654 0
M  V30 11542 O 1042.51 -4.94603 2.81704 0
M  V30 11543 N 1043.71 -5.70409 1.0777 0
M  V30 11544 H 1046.48 -1.84239 2.36381 0
M  V30 11545 H 1044.04 -0.876475 1.36123 0
M  V30 11546 H 1046.03 -3.93602 0.941264 0
M  V30 11547 H 1044.6 -3.11452 0.267673 0
M  V30 11548 H 1043.82 -2.83622 2.73774 0
M  V30 11549 H 1045.11 -3.96991 3.18239 0
M  V30 11550 H 1044.5 -5.63718 0.473123 0
M  V30 11551 H 1043.06 -6.45172 0.927177 0
M  V30 11552 N 1046.49 -1.27344 -0.928501 0
M  V30 11553 C 1047.4 -1.11812 -2.06241 0
M  V30 11554 C 1048.42 -0.048347 -1.73933 0
M  V30 11555 O 1049.6 -0.25467 -1.99783 0
M  V30 11556 C 1046.66 -0.766036 -3.38131 0
M  V30 11557 C 1045.72 -1.91659 -3.84142 0
M  V30 11558 C 1044.96 -1.58121 -5.09738 0
M  V30 11559 O 1045.18 -0.488742 -5.68302 0
M  V30 11560 O 1044.11 -2.42013 -5.51102 0
M  V30 11561 H 1047.94 -2.06967 -2.22258 0
M  V30 11562 H 1045.52 -1.06524 -1.04752 0
M  V30 11563 H 1047.41 -0.582982 -4.17348 0
M  V30 11564 H 1046.08 0.155998 -3.23324 0
M  V30 11565 H 1044.99 -2.1547 -3.05816 0
M  V30 11566 H 1046.32 -2.8188 -4.0349 0
M  V30 11567 N 1047.97 1.13488 -1.09353 0
M  V30 11568 C 1049.25 1.80998 -0.741559 0
M  V30 11569 C 1049.63 1.96418 0.773505 0
M  V30 11570 O 1048.98 1.53168 1.69563 0
M  V30 11571 C 1049.19 3.16078 -1.47972 0
M  V30 11572 C 1050.54 3.91438 -1.64504 0
M  V30 11573 O 1051.56 3.25699 -1.44218 0
M  V30 11574 O 1050.42 5.0935 -1.98054 0
M  V30 11575 H 1047.51 0.782953 -0.266297 0
M  V30 11576 H 1050.06 1.20422 -1.19569 0
M  V30 11577 H 1048.83 3.00076 -2.51137 0
M  V30 11578 H 1048.45 3.84354 -1.01772 0
M  V30 11579 N 1049.45 0.880621 1.30701 0
M  V30 11580 C 1050.7 0.495894 1.95922 0
M  V30 11581 C 1051.02 -0.957214 1.69889 0
M  V30 11582 O 1050.29 -1.67245 1.0201 0
M  V30 11583 H 1048.87 0.180394 0.724891 0
M  V30 11584 H 1051.53 1.12274 1.59313 0
M  V30 11585 H 1050.63 0.662508 3.04987 0
M  V30 11586 N 1050.93 -1.4397 0.641131 0
M  V30 11587 C 1052.18 -2.01548 0.149333 0
M  V30 11588 C 1052.5 -1.50759 -1.23679 0
M  V30 11589 O 1051.77 -0.715257 -1.82376 0
M  V30 11590 H 1050.35 -0.745173 0.0522161 0
M  V30 11591 H 1053.01 -1.7634 0.830082 0
M  V30 11592 H 1052.11 -3.11851 0.124676 0
M  V30 11593 N 1052.41 -0.382291 -1.52893 0
M  V30 11594 C 1053.65 0.202433 -2.01787 0
M  V30 11595 C 1053.99 1.47044 -1.26853 0
M  V30 11596 O 1053.26 1.91007 -0.366969 0
M  V30 11597 C 1053.54 0.477471 -3.5692 0
M  V30 11598 C 1053.4 -0.805339 -4.42532 0
M  V30 11599 C 1054.72 1.27106 -4.21346 0
M  V30 11600 H 1051.84 0.0720998 -0.733465 0
M  V30 11601 H 1054.48 -0.510478 -1.83014 0
M  V30 11602 H 1052.63 1.08478 -3.73048 0
M  V30 11603 H 1054.3 -1.4424 -4.3817 0
M  V30 11604 H 1052.54 -1.42216 -4.09826 0
M  V30 11605 H 1053.21 -0.567635 -5.49074 0
M  V30 11606 H 1055.69 0.757161 -4.09153 0
M  V30 11607 H 1054.57 1.43225 -5.29885 0
M  V30 11608 H 1054.83 2.28431 -3.78513 0
M  V30 11609 N 1053.89 1.57202 -0.111913 0
M  V30 11610 C 1055.12 1.99008 0.554907 0
M  V30 11611 C 1055.52 0.990323 1.61212 0
M  V30 11612 O 1054.87 -0.0259612 1.83682 0
M  V30 11613 C 1054.93 3.37218 1.24598 0
M  V30 11614 C 1054.59 4.55752 0.337549 0
M  V30 11615 C 1055.59 5.18192 -0.421026 0
M  V30 11616 C 1053.27 5.01674 0.25069 0
M  V30 11617 C 1055.27 6.24938 -1.25426 0
M  V30 11618 C 1052.96 6.08282 -0.586186 0
M  V30 11619 C 1053.95 6.6978 -1.3373 0
M  V30 11620 O 1053.64 7.7433 -2.16029 0
M  V30 11621 H 1053.37 0.658669 0.152091 0
M  V30 11622 H 1055.93 2.04492 -0.192937 0
M  V30 11623 H 1054.16 3.28467 2.04074 0
M  V30 11624 H 1055.85 3.63359 1.809 0
M  V30 11625 H 1056.61 4.83634 -0.363752 0
M  V30 11626 H 1052.49 4.53558 0.825005 0
M  V30 11627 H 1056.04 6.72869 -1.84102 0
M  V30 11628 H 1051.93 6.42271 -0.64488 0
M  V30 11629 H 1052.7 7.91395 -2.08894 0
M  V30 11630 N 1055.36 -0.161842 1.56767 0
M  V30 11631 C 1056.59 -0.896274 1.87034 0
M  V30 11632 C 1057.01 -1.74617 0.699314 0
M  V30 11633 O 1056.37 -1.77861 -0.351435 0
M  V30 11634 C 1056.42 -1.74105 3.15784 0
M  V30 11635 O 1055.52 -2.84372 2.98674 0
M  V30 11636 H 1054.86 -0.250523 0.614926 0
M  V30 11637 H 1057.39 -0.157127 2.03996 0
M  V30 11638 H 1057.4 -2.13907 3.4743 0
M  V30 11639 H 1056.08 -1.11684 4.00624 0
M  V30 11640 H 1054.66 -2.48084 2.78404 0
M  V30 11641 N 1056.84 -1.516 -0.430713 0
M  V30 11642 C 1058.07 -1.687 -1.20644 0
M  V30 11643 C 1058.49 -0.386555 -1.84085 0
M  V30 11644 O 1057.85 0.653952 -1.69095 0
M  V30 11645 C 1057.9 -2.80887 -2.2613 0
M  V30 11646 O 1057 -2.44952 -3.31772 0
M  V30 11647 H 1056.34 -0.562289 -0.353167 0
M  V30 11648 H 1058.87 -1.98198 -0.507807 0
M  V30 11649 H 1058.88 -3.05167 -2.70809 0
M  V30 11650 H 1057.56 -3.75249 -1.79334 0
M  V30 11651 H 1056.13 -2.31267 -2.92523 0
M  V30 11652 N 1058.32 0.686584 -1.41858 0
M  V30 11653 C 1059.54 1.4802 -1.45275 0
M  V30 11654 C 1059.97 1.87997 -0.0621297 0
M  V30 11655 O 1059.33 1.55226 0.936733 0
M  V30 11656 C 1059.38 2.7133 -2.37513 0
M  V30 11657 O 1058.48 3.69159 -1.83836 0
M  V30 11658 H 1057.82 0.445152 -0.492682 0
M  V30 11659 H 1060.35 0.843161 -1.86419 0
M  V30 11660 H 1060.36 3.19537 -2.53693 0
M  V30 11661 H 1059.04 2.41571 -3.3855 0
M  V30 11662 H 1057.61 3.28134 -1.77151 0
M  V30 11663 N 1059.8 1.27835 0.921735 0
M  V30 11664 C 1061.05 1.14296 1.66676 0
M  V30 11665 C 1061.37 -0.310493 1.92512 0
M  V30 11666 O 1060.64 -1.21637 1.53562 0
M  V30 11667 H 1059.22 0.419994 0.617749 0
M  V30 11668 H 1061.88 1.60449 1.10644 0
M  V30 11669 H 1060.97 1.67654 2.63246 0
M  V30 11670 N 1061.28 -1.12907 1.09954 0
M  V30 11671 C 1062.21 -2.20585 0.765799 0
M  V30 11672 C 1063.19 -1.68117 -0.258989 0
M  V30 11673 O 1064.37 -1.93792 -0.125853 0
M  V30 11674 C 1061.5 -3.46772 0.191435 0
M  V30 11675 C 1060.46 -4.12363 1.14635 0
M  V30 11676 C 1059.78 -5.3294 0.433426 0
M  V30 11677 C 1061.08 -4.59073 2.49096 0
M  V30 11678 H 1062.78 -2.48759 1.66612 0
M  V30 11679 H 1060.32 -1.19563 0.802534 0
M  V30 11680 H 1062.27 -4.21365 -0.0541535 0
M  V30 11681 H 1061 -3.18011 -0.744101 0
M  V30 11682 H 1059.66 -3.39744 1.37731 0
M  V30 11683 H 1059.31 -5.00444 -0.506422 0
M  V30 11684 H 1059.01 -5.77772 1.07018 0
M  V30 11685 H 1060.53 -6.10284 0.196267 0
M  V30 11686 H 1061.94 -5.25063 2.30177 0
M  V30 11687 H 1060.34 -5.14665 3.0861 0
M  V30 11688 H 1061.41 -3.73313 3.0946 0
M  V30 11689 N 1062.75 -0.88754 -1.30232 0
M  V30 11690 C 1063.7 -0.354497 -2.28061 0
M  V30 11691 C 1064.67 0.556732 -1.56492 0
M  V30 11692 O 1065.86 0.484597 -1.84543 0
M  V30 11693 C 1063 0.422701 -3.42501 0
M  V30 11694 C 1062.11 -0.518036 -4.28883 0
M  V30 11695 C 1061.24 0.275011 -5.30488 0
M  V30 11696 C 1060.28 -0.661032 -6.0852 0
M  V30 11697 N 1059.42 0.0968509 -7.02033 0
M  V30 11698 H 1064.26 -1.19388 -2.73039 0
M  V30 11699 H 1061.8 -0.600091 -1.34303 0
M  V30 11700 H 1063.75 0.889249 -4.07613 0
M  V30 11701 H 1062.38 1.22664 -2.98586 0
M  V30 11702 H 1061.44 -1.10308 -3.64055 0
M  V30 11703 H 1062.75 -1.23504 -4.83268 0
M  V30 11704 H 1061.9 0.803301 -6.01358 0
M  V30 11705 H 1060.64 1.02522 -4.76802 0
M  V30 11706 H 1059.65 -1.20093 -5.36524 0
M  V30 11707 H 1060.87 -1.41037 -6.64293 0
M  V30 11708 H 1058.82 0.829548 -6.50734 0
M  V30 11709 H 1058.73 -0.560476 -7.5392 0
M  V30 11710 H 1060 0.6058 -7.77142 0
M  V30 11711 N 1064.23 1.43628 -0.648757 0
M  V30 11712 C 1065.16 2.29045 0.0841858 0
M  V30 11713 C 1066.18 1.42262 0.791537 0
M  V30 11714 O 1067.37 1.66243 0.650039 0
M  V30 11715 C 1064.47 3.19075 1.14212 0
M  V30 11716 C 1063.64 4.34372 0.513799 0
M  V30 11717 C 1062.7 5.05307 1.46803 0
M  V30 11718 O 1061.72 5.60729 0.978346 0
M  V30 11719 N 1062.93 5.08393 2.80209 0
M  V30 11720 H 1065.69 2.9259 -0.648948 0
M  V30 11721 H 1063.25 1.54268 -0.491209 0
M  V30 11722 H 1065.24 3.63395 1.78119 0
M  V30 11723 H 1063.81 2.57161 1.77728 0
M  V30 11724 H 1063.03 3.93024 -0.304262 0
M  V30 11725 H 1064.32 5.08745 0.0749871 0
M  V30 11726 H 1063.72 4.64729 3.22557 0
M  V30 11727 H 1062.28 5.56445 3.3943 0
M  V30 11728 N 1065.71 0.390394 1.52688 0
M  V30 11729 C 1066.96 -0.192697 2.00777 0
M  V30 11730 C 1067.27 -1.4781 1.28108 0
M  V30 11731 O 1068.48 -2.1413 1.66914 0
M  V30 11732 C 1066.93 -0.393955 3.57737 0
M  V30 11733 C 1066.54 0.878259 4.39307 0
M  V30 11734 C 1068.29 -0.933352 4.14112 0
M  V30 11735 C 1066.19 0.645218 5.8787 0
M  V30 11736 H 1065.12 -0.0757862 0.750182 0
M  V30 11737 H 1067.77 0.512961 1.76184 0
M  V30 11738 H 1066.16 -1.16149 3.78583 0
M  V30 11739 H 1067.33 1.65049 4.30227 0
M  V30 11740 H 1065.65 1.34269 3.94158 0
M  V30 11741 H 1068.24 -1.12343 5.22765 0
M  V30 11742 H 1068.59 -1.90272 3.70273 0
M  V30 11743 H 1069.12 -0.225361 3.97161 0
M  V30 11744 H 1065.86 1.58562 6.36033 0
M  V30 11745 H 1065.38 -0.0880609 5.99735 0
M  V30 11746 H 1067.06 0.280178 6.46393 0
M  V30 11747 N 1067.19 -1.57141 0.120249 0
M  V30 11748 C 1068.6 -1.82256 -0.404931 0
M  V30 11749 C 1068.95 -1.03748 -1.66526 0
M  V30 11750 O 1068.08 -0.274456 -2.14653 0
M  V30 11751 C 1068.67 -3.30588 -0.741431 0
M  V30 11752 C 1067.23 -3.56379 -1.21124 0
M  V30 11753 C 1066.38 -2.76421 -0.220569 0
M  V30 11754 H 1069.33 -1.54897 0.345361 0
M  V30 11755 H 1069.35 -3.45284 -1.59872 0
M  V30 11756 H 1068.86 -3.87701 0.176036 0
M  V30 11757 H 1066.96 -3.04625 -2.14556 0
M  V30 11758 H 1067.07 -4.64952 -1.1557 0
M  V30 11759 H 1065.44 -2.44666 -0.707857 0
M  V30 11760 H 1066.22 -3.36294 0.690018 0
M  V30 11761 N 1068.67 0.153526 -1.5685 0
M  V30 11762 C 1069.92 0.865628 -1.82181 0
M  V30 11763 C 1070.23 1.82629 -0.700434 0
M  V30 11764 O 1071.43 2.58206 -0.839155 0
M  V30 11765 C 1069.89 1.58993 -3.22877 0
M  V30 11766 C 1069.5 0.672006 -4.42931 0
M  V30 11767 C 1071.24 2.2892 -3.57486 0
M  V30 11768 C 1069.15 1.39755 -5.7465 0
M  V30 11769 H 1068.08 0.326993 -0.679406 0
M  V30 11770 H 1070.73 0.118403 -1.83118 0
M  V30 11771 H 1069.11 2.38255 -3.16308 0
M  V30 11772 H 1070.29 -0.0849226 -4.60722 0
M  V30 11773 H 1068.6 0.0814825 -4.1632 0
M  V30 11774 H 1071.2 2.8383 -4.5315 0
M  V30 11775 H 1071.54 3.05105 -2.83226 0
M  V30 11776 H 1072.07 1.56583 -3.65686 0
M  V30 11777 H 1068.81 0.677686 -6.51987 0
M  V30 11778 H 1068.33 2.12736 -5.60806 0
M  V30 11779 H 1070.01 1.94024 -6.17223 0
M  V30 11780 N 1070.14 1.51827 0.422667 0
M  V30 11781 C 1071.09 1.74198 1.51406 0
M  V30 11782 C 1072.06 0.584013 1.55494 0
M  V30 11783 O 1073.25 0.820079 1.72277 0
M  V30 11784 C 1070.39 1.88627 2.88988 0
M  V30 11785 C 1069.5 3.16233 2.94314 0
M  V30 11786 C 1068.63 3.21172 4.2311 0
M  V30 11787 C 1067.67 4.43033 4.2236 0
M  V30 11788 N 1066.81 4.4544 5.42704 0
M  V30 11789 H 1071.65 2.67352 1.31632 0
M  V30 11790 H 1069.19 1.32487 0.63919 0
M  V30 11791 H 1071.15 1.94976 3.68837 0
M  V30 11792 H 1069.78 0.988673 3.07287 0
M  V30 11793 H 1068.83 3.19123 2.07039 0
M  V30 11794 H 1070.14 4.06104 2.89623 0
M  V30 11795 H 1069.29 3.26517 5.11343 0
M  V30 11796 H 1068.03 2.29216 4.30478 0
M  V30 11797 H 1067.04 4.37849 3.32518 0
M  V30 11798 H 1068.26 5.3627 4.16643 0
M  V30 11799 H 1066.21 3.56361 5.50766 0
M  V30 11800 H 1066.13 5.29138 5.39953 0
M  V30 11801 H 1067.39 4.54997 6.32928 0
M  V30 11802 N 1071.62 -0.679052 1.4222 0
M  V30 11803 C 1072.87 -1.43978 1.43673 0
M  V30 11804 C 1073.22 -1.92333 0.0506711 0
M  V30 11805 O 1072.52 -1.67715 -0.926406 0
M  V30 11806 C 1072.71 -2.65528 2.39227 0
M  V30 11807 C 1072.54 -2.29065 3.86987 0
M  V30 11808 C 1071.31 -2.1863 4.55553 0
M  V30 11809 C 1073.51 -1.90983 4.77525 0
M  V30 11810 N 1071.49 -1.75227 5.88361 0
M  V30 11811 C 1072.86 -1.58465 5.99407 0
M  V30 11812 C 1074.92 -1.77938 4.65019 0
M  V30 11813 C 1073.62 -1.14212 7.10175 0
M  V30 11814 C 1075.64 -1.35089 5.75765 0
M  V30 11815 C 1075.01 -1.03493 6.96756 0
M  V30 11816 H 1071.11 -0.523503 0.58092 0
M  V30 11817 H 1073.69 -0.784043 1.78216 0
M  V30 11818 H 1071.86 -3.28797 2.06753 0
M  V30 11819 H 1073.59 -3.32096 2.31288 0
M  V30 11820 H 1070.35 -2.37562 4.09709 0
M  V30 11821 H 1070.77 -1.5596 6.58791 0
M  V30 11822 H 1075.41 -2.01013 3.71959 0
M  V30 11823 H 1073.13 -0.89882 8.03086 0
M  V30 11824 H 1076.72 -1.25522 5.68098 0
M  V30 11825 H 1075.6 -0.708396 7.80994 0
M  V30 11826 N 1073.1 -1.28322 -0.914942 0
M  V30 11827 C 1074.33 -1.18254 -1.69775 0
M  V30 11828 C 1074.74 0.258978 -1.87015 0
M  V30 11829 O 1074.1 1.17514 -1.3963 0
M  V30 11830 C 1074.15 -1.8753 -3.09054 0
M  V30 11831 O 1073.87 -3.26051 -2.92613 0
M  V30 11832 C 1075.37 -1.83749 -4.03424 0
M  V30 11833 H 1072.59 -0.41055 -0.530744 0
M  V30 11834 H 1075.14 -1.69425 -1.14523 0
M  V30 11835 H 1073.29 -1.40233 -3.61128 0
M  V30 11836 H 1073.71 -3.60729 -3.80756 0
M  V30 11837 H 1075.18 -2.36813 -4.98622 0
M  V30 11838 H 1075.66 -0.809601 -4.31674 0
M  V30 11839 H 1076.26 -2.3072 -3.57279 0
M  V30 11840 N 1074.58 1.12322 -1.10551 0
M  V30 11841 C 1075.54 2.16273 -0.758844 0
M  V30 11842 C 1076.54 1.59325 0.217294 0
M  V30 11843 O 1077.73 1.74199 -0.00601346 0
M  V30 11844 C 1074.86 3.40674 -0.124238 0
M  V30 11845 H 1076.06 2.48454 -1.6796 0
M  V30 11846 H 1073.61 1.2735 -0.906188 0
M  V30 11847 H 1074.34 3.14094 0.807194 0
M  V30 11848 H 1074.13 3.83284 -0.826772 0
M  V30 11849 H 1075.62 4.17474 0.102502 0
M  V30 11850 N 1076.06 0.894434 1.2976 0
M  V30 11851 C 1077.47 0.566892 1.77885 0
M  V30 11852 C 1077.82 -0.917289 1.73437 0
M  V30 11853 O 1076.94 -1.71707 1.31703 0
M  V30 11854 C 1077.54 1.02227 3.2301 0
M  V30 11855 C 1076.1 0.745978 3.68934 0
M  V30 11856 C 1075.24 1.19993 2.49994 0
M  V30 11857 H 1078.2 1.0777 1.16496 0
M  V30 11858 H 1078.22 0.355281 3.78838 0
M  V30 11859 H 1077.73 2.1025 3.26215 0
M  V30 11860 H 1075.83 -0.321866 3.71207 0
M  V30 11861 H 1075.94 1.34017 4.59974 0
M  V30 11862 H 1074.31 0.619047 2.47063 0
M  V30 11863 H 1075.09 2.28811 2.55931 0
M  V30 11864 N 1077.53 -1.43282 0.656365 0
M  V30 11865 C 1078.44 -2.34576 -0.033864 0
M  V30 11866 C 1079.46 -1.5406 -0.808793 0
M  V30 11867 O 1080.64 -1.867 -0.755322 0
M  V30 11868 C 1077.7 -3.32378 -0.986197 0
M  V30 11869 C 1076.76 -4.28797 -0.207851 0
M  V30 11870 C 1076 -5.21927 -1.11482 0
M  V30 11871 O 1076.22 -5.19554 -2.35414 0
M  V30 11872 O 1075.15 -5.99045 -0.585536 0
M  V30 11873 H 1078.98 -2.95099 0.717668 0
M  V30 11874 H 1076.56 -1.43475 0.416556 0
M  V30 11875 H 1078.45 -3.9251 -1.53341 0
M  V30 11876 H 1077.12 -2.74354 -1.7179 0
M  V30 11877 H 1076.03 -3.72134 0.383022 0
M  V30 11878 H 1077.36 -4.89811 0.48435 0
M  V30 11879 N 1079.01 -0.398486 -1.52479 0
M  V30 11880 C 1079.98 0.420206 -2.25315 0
M  V30 11881 C 1080.98 0.982559 -1.27289 0
M  V30 11882 O 1082.17 0.863113 -1.51314 0
M  V30 11883 C 1079.3 1.59045 -3.01525 0
M  V30 11884 H 1080.49 -0.217599 -2.9911 0
M  V30 11885 H 1078.04 -0.150784 -1.55571 0
M  V30 11886 H 1078.78 2.26542 -2.32054 0
M  V30 11887 H 1078.56 1.19382 -3.73484 0
M  V30 11888 H 1080.05 2.16984 -3.56802 0
M  V30 11889 N 1080.49 1.57075 -0.12858 0
M  V30 11890 C 1081.42 2.18833 0.814519 0
M  V30 11891 C 1082.4 1.13114 1.2704 0
M  V30 11892 O 1083.59 1.41387 1.33129 0
M  V30 11893 C 1080.72 2.79535 2.06101 0
M  V30 11894 C 1079.67 3.9092 1.74257 0
M  V30 11895 C 1079 4.38473 3.06015 0
M  V30 11896 C 1080.3 5.1257 1.00345 0
M  V30 11897 H 1081.99 2.97895 0.299862 0
M  V30 11898 H 1079.54 1.4329 0.14279 0
M  V30 11899 H 1081.49 3.21401 2.72543 0
M  V30 11900 H 1080.21 1.97777 2.59907 0
M  V30 11901 H 1078.87 3.49645 1.102 0
M  V30 11902 H 1078.52 3.53561 3.57776 0
M  V30 11903 H 1078.22 5.13591 2.85479 0
M  V30 11904 H 1079.75 4.82997 3.7356 0
M  V30 11905 H 1081.16 5.51395 1.56959 0
M  V30 11906 H 1079.56 5.93333 0.898693 0
M  V30 11907 H 1080.63 4.84899 -0.0081335 0
M  V30 11908 N 1081.97 -0.145205 1.5693 0
M  V30 11909 C 1082.92 -1.19841 1.99351 0
M  V30 11910 C 1083.91 -1.44371 0.886197 0
M  V30 11911 O 1085.12 -1.44642 1.07138 0
M  V30 11912 H 1081.49 -0.403437 0.63462 0
M  V30 11913 H 1083.46 -0.813932 2.87085 0
M  V30 11914 C 1082.21 -2.52377 2.39167 0
M  V30 11915 H 1081.54 -2.34332 3.23927 0
M  V30 11916 H 1082.98 -3.24694 2.72671 0
M  V30 11917 C 1081.43 -3.1305 1.24503 0
M  V30 11918 O 1081.96 -3.97962 0.546739 0
M  V30 11919 N 1080.17 -2.72528 1.00882 0
M  V30 11920 H 1079.72 -2.03576 1.57843 0
M  V30 11921 H 1079.68 -3.13456 0.24351 0
M  V30 11922 N 1083.45 -1.52049 -0.414609 0
M  V30 11923 C 1084.68 -1.69433 -1.18221 0
M  V30 11924 C 1085.09 -0.40104 -1.84901 0
M  V30 11925 O 1084.43 0.632342 -1.72474 0
M  V30 11926 C 1084.49 -2.76986 -2.2917 0
M  V30 11927 C 1084.15 -4.18903 -1.82671 0
M  V30 11928 C 1085.15 -5.02929 -1.31751 0
M  V30 11929 C 1082.84 -4.65113 -1.89672 0
M  V30 11930 C 1084.83 -6.31234 -0.884461 0
M  V30 11931 C 1082.52 -5.93408 -1.45978 0
M  V30 11932 C 1083.52 -6.76297 -0.9545 0
M  V30 11933 O 1083.2 -8.02191 -0.523852 0
M  V30 11934 H 1082.94 -0.571228 -0.36149 0
M  V30 11935 H 1085.49 -1.99355 -0.494643 0
M  V30 11936 H 1083.72 -2.42428 -3.01273 0
M  V30 11937 H 1085.41 -2.83023 -2.90951 0
M  V30 11938 H 1086.17 -4.68422 -1.2572 0
M  V30 11939 H 1082.05 -4.00702 -2.27945 0
M  V30 11940 H 1085.6 -6.95881 -0.489383 0
M  V30 11941 H 1081.49 -6.27424 -1.51687 0
M  V30 11942 H 1082.26 -8.15934 -0.647656 0
M  V30 11943 N 1084.93 0.6715 -1.42579 0
M  V30 11944 C 1086.17 1.42871 -1.42941 0
M  V30 11945 C 1086.49 1.94941 -0.0480483 0
M  V30 11946 O 1085.76 1.73275 0.913921 0
M  V30 11947 H 1084.34 0.530189 -0.526221 0
M  V30 11948 H 1087.01 0.793219 -1.78028 0
M  V30 11949 H 1086.1 2.2801 -2.13114 0
M  V30 11950 N 1086.4 1.28806 0.908124 0
M  V30 11951 C 1087.82 1.06634 1.18749 0
M  V30 11952 C 1088.02 -0.187729 2.00624 0
M  V30 11953 O 1087.08 -0.88784 2.36376 0
M  V30 11954 C 1088.39 2.31703 1.91661 0
M  V30 11955 C 1089.94 2.36939 2.04521 0
M  V30 11956 C 1090.41 3.61789 2.80843 0
M  V30 11957 N 1091.9 3.62462 2.88402 0
M  V30 11958 C 1092.64 4.55746 3.47971 0
M  V30 11959 N 1092.13 5.59353 4.08774 0
M  V30 11960 N 1093.93 4.43331 3.45564 0
M  V30 11961 H 1086.08 2.09299 0.36164 0
M  V30 11962 H 1088.34 0.921479 0.222668 0
M  V30 11963 H 1088.05 3.23096 1.38931 0
M  V30 11964 H 1087.92 2.38556 2.92183 0
M  V30 11965 H 1090.31 1.4604 2.5643 0
M  V30 11966 H 1090.39 2.34077 1.03159 0
M  V30 11967 H 1090.03 4.53035 2.29612 0
M  V30 11968 H 1089.96 3.61907 3.82532 0
M  V30 11969 H 1092.45 2.87544 2.45208 0
M  V30 11970 H 1092.77 6.26668 4.52224 0
M  V30 11971 H 1091.11 5.63173 4.07261 0
M  V30 11972 H 1094.3 3.61587 2.97276 0
M  V30 11973 H 1094.48 5.16216 3.91695 0
M  V30 11974 N 1087.88 -1.11734 1.11145 0
M  V30 11975 C 1089.11 -1.86943 0.879534 0
M  V30 11976 C 1089.52 -1.80283 -0.574007 0
M  V30 11977 O 1088.86 -1.17998 -1.40791 0
M  V30 11978 C 1088.92 -3.36738 1.25887 0
M  V30 11979 C 1088.59 -3.67169 2.72095 0
M  V30 11980 C 1089.59 -3.6491 3.7032 0
M  V30 11981 C 1087.27 -3.96272 3.08665 0
M  V30 11982 C 1089.26 -3.91325 5.03134 0
M  V30 11983 C 1086.95 -4.22345 4.41665 0
M  V30 11984 C 1087.95 -4.19859 5.38709 0
M  V30 11985 O 1087.64 -4.4528 6.69314 0
M  V30 11986 H 1087.37 -0.598117 0.315011 0
M  V30 11987 H 1089.92 -1.42253 1.48166 0
M  V30 11988 H 1088.15 -3.82019 0.599873 0
M  V30 11989 H 1089.84 -3.93306 1.00325 0
M  V30 11990 H 1090.61 -3.42481 3.43412 0
M  V30 11991 H 1086.49 -3.97344 2.33749 0
M  V30 11992 H 1090.03 -3.893 5.78871 0
M  V30 11993 H 1085.93 -4.4425 4.68308 0
M  V30 11994 H 1086.7 -4.62863 6.75056 0
M  V30 11995 N 1089.36 -0.901303 -1.29284 0
M  V30 11996 C 1090.58 -0.542823 -2.0017 0
M  V30 11997 C 1091.01 0.865583 -1.67001 0
M  V30 11998 O 1090.37 1.5764 -0.895502 0
M  V30 11999 C 1090.42 -0.743987 -3.52842 0
M  V30 12000 O 1089.52 0.202771 -4.11901 0
M  V30 12001 H 1088.86 -0.211903 -0.62928 0
M  V30 12002 H 1091.39 -1.21333 -1.64741 0
M  V30 12003 H 1091.4 -0.64926 -4.02801 0
M  V30 12004 H 1090.08 -1.77077 -3.7632 0
M  V30 12005 H 1088.65 0.0603637 -3.72851 0
M  V30 12006 N 1090.84 1.42931 -0.663954 0
M  V30 12007 C 1092.06 2.06544 -0.188201 0
M  V30 12008 C 1092.49 1.495 1.14155 0
M  V30 12009 O 1091.85 0.609164 1.7076 0
M  V30 12010 C 1091.89 3.60393 -0.122105 0
M  V30 12011 O 1091 4.02176 0.91258 0
M  V30 12012 H 1090.34 0.656458 -0.0997967 0
M  V30 12013 H 1092.87 1.83253 -0.909909 0
M  V30 12014 H 1092.88 4.07959 0.0576568 0
M  V30 12015 H 1091.55 4.01287 -1.09276 0
M  V30 12016 H 1090.13 3.6618 0.704738 0
M  V30 12017 N 1092.32 0.406567 1.52266 0
M  V30 12018 C 1093.23 -0.4271 2.30679 0
M  V30 12019 C 1094.24 -1.0559 1.383 0
M  V30 12020 O 1095.42 -1.05797 1.71374 0
M  V30 12021 C 1092.48 -1.53008 3.1111 0
M  V30 12022 C 1091.54 -0.924604 4.19225 0
M  V30 12023 C 1090.78 -1.97502 4.95811 0
M  V30 12024 O 1091 -3.19277 4.72671 0
M  V30 12025 O 1089.93 -1.58268 5.80719 0
M  V30 12026 H 1093.76 0.212187 3.02958 0
M  V30 12027 H 1091.34 0.169835 1.48432 0
M  V30 12028 H 1093.23 -2.17046 3.61205 0
M  V30 12029 H 1091.9 -2.15401 2.41628 0
M  V30 12030 H 1090.81 -0.247009 3.73284 0
M  V30 12031 H 1092.14 -0.34463 4.90992 0
M  V30 12032 N 1093.79 -1.57004 0.136909 0
M  V30 12033 C 1095.02 -2.00587 -0.527209 0
M  V30 12034 C 1095.44 -1.01628 -1.58283 0
M  V30 12035 O 1094.8 0.00946934 -1.81298 0
M  V30 12036 C 1094.85 -3.42967 -1.11384 0
M  V30 12037 O 1093.95 -3.46973 -2.22898 0
M  V30 12038 H 1093.3 -0.651155 -0.129976 0
M  V30 12039 H 1095.83 -2.03296 0.230667 0
M  V30 12040 H 1095.84 -3.81555 -1.44499 0
M  V30 12041 H 1094.51 -4.14502 -0.340736 0
M  V30 12042 H 1093.09 -3.20219 -1.91087 0
M  V30 12043 N 1095.27 0.136881 -1.57004 0
M  V30 12044 C 1096.55 0.87705 -1.74835 0
M  V30 12045 C 1096.93 1.98886 -0.707639 0
M  V30 12046 O 1096.28 2.26879 0.271652 0
M  V30 12047 C 1096.49 1.41021 -3.1924 0
M  V30 12048 C 1097.84 1.86963 -3.81222 0
M  V30 12049 O 1098.86 1.5074 -3.22732 0
M  V30 12050 O 1097.72 2.53798 -4.83993 0
M  V30 12051 H 1094.81 0.415192 -0.715223 0
M  V30 12052 H 1097.36 0.122016 -1.69261 0
M  V30 12053 H 1096.13 0.611677 -3.8649 0
M  V30 12054 H 1095.75 2.22846 -3.2928 0
M  V30 12055 N 1096.75 1.52266 0.40654 0
M  V30 12056 C 1098 1.66699 1.15496 0
M  V30 12057 C 1098.33 0.397019 1.90098 0
M  V30 12058 O 1097.6 -0.604646 1.84863 0
M  V30 12059 C 1097.89 2.8907 2.14734 0
M  V30 12060 C 1097.74 4.26123 1.44012 0
M  V30 12061 C 1099.06 3.06966 3.15373 0
M  V30 12062 H 1096.18 0.606642 0.418515 0
M  V30 12063 H 1098.82 1.84826 0.440381 0
M  V30 12064 H 1096.97 2.73745 2.75673 0
M  V30 12065 H 1098.64 4.5318 0.861722 0
M  V30 12066 H 1096.89 4.27406 0.742064 0
M  V30 12067 H 1097.56 5.07799 2.16436 0
M  V30 12068 H 1100.03 3.21205 2.64512 0
M  V30 12069 H 1098.91 3.94097 3.82072 0
M  V30 12070 H 1099.17 2.20395 3.83247 0
M  V30 12071 N 1098.23 -0.663929 1.42933 0
M  V30 12072 C 1099.47 -1.42446 1.45192 0
M  V30 12073 C 1099.83 -1.92269 0.0710678 0
M  V30 12074 O 1099.12 -1.68688 -0.908565 0
M  V30 12075 C 1099.32 -2.62976 2.4203 0
M  V30 12076 C 1099.15 -2.24948 3.89395 0
M  V30 12077 C 1097.92 -2.13786 4.57847 0
M  V30 12078 C 1100.11 -1.85907 4.79524 0
M  V30 12079 N 1098.1 -1.68976 5.90187 0
M  V30 12080 C 1099.47 -1.52099 6.01054 0
M  V30 12081 C 1101.52 -1.72995 4.6688 0
M  V30 12082 C 1100.22 -1.06673 7.11346 0
M  V30 12083 C 1102.25 -1.28975 5.77165 0
M  V30 12084 C 1101.61 -0.960968 6.97814 0
M  V30 12085 H 1097.71 -0.517312 0.58644 0
M  V30 12086 H 1100.3 -0.765097 1.79037 0
M  V30 12087 H 1098.47 -3.26586 2.10229 0
M  V30 12088 H 1100.2 -3.29624 2.34798 0
M  V30 12089 H 1096.95 -2.33203 4.12206 0
M  V30 12090 H 1097.38 -1.48964 6.60408 0
M  V30 12091 H 1102.02 -1.97057 3.7407 0
M  V30 12092 H 1099.74 -0.813591 8.03994 0
M  V30 12093 H 1103.32 -1.19489 5.69398 0
M  V30 12094 H 1102.2 -0.625522 7.81701 0
M  V30 12095 N 1099.71 -1.29285 -0.901281 0
M  V30 12096 C 1100.93 -1.20169 -1.69039 0
M  V30 12097 C 1101.36 0.234509 -1.86632 0
M  V30 12098 O 1100.71 1.16935 -1.38549 0
M  V30 12099 C 1100.76 -1.91852 -3.05328 0
M  V30 12100 O 1099.87 -1.23448 -3.9349 0
M  V30 12101 H 1099.21 -0.416486 -0.517141 0
M  V30 12102 H 1101.74 -1.70826 -1.12603 0
M  V30 12103 H 1101.75 -2.00244 -3.5548 0
M  V30 12104 H 1100.42 -2.96313 -2.91841 0
M  V30 12105 H 1099 -1.23303 -3.51924 0
M  V30 12106 N 1101.18 1.11143 -1.11736 0
M  V30 12107 C 1102.43 1.82948 -0.868127 0
M  V30 12108 C 1102.76 1.84813 0.606182 0
M  V30 12109 O 1102.01 1.29901 1.4637 0
M  V30 12110 C 1102.31 3.29733 -1.3788 0
M  V30 12111 C 1101.98 3.48025 -2.86687 0
M  V30 12112 C 1100.64 3.52725 -3.2732 0
M  V30 12113 C 1102.99 3.54024 -3.82513 0
M  V30 12114 C 1100.32 3.60983 -4.62502 0
M  V30 12115 C 1102.67 3.63814 -5.17515 0
M  V30 12116 C 1101.34 3.66776 -5.57702 0
M  V30 12117 H 1100.61 0.669452 -0.31767 0
M  V30 12118 H 1103.25 1.31057 -1.3963 0
M  V30 12119 H 1101.56 3.8414 -0.77093 0
M  V30 12120 H 1103.26 3.83787 -1.16225 0
M  V30 12121 H 1099.85 3.45039 -2.54256 0
M  V30 12122 H 1104.03 3.4965 -3.52219 0
M  V30 12123 H 1099.29 3.61554 -4.9304 0
M  V30 12124 H 1103.46 3.674 -5.916 0
M  V30 12125 H 1101.09 3.72927 -6.62442 0
M  V30 12126 N 1102.66 0.908147 1.28804 0
M  V30 12127 C 1103.91 0.53734 1.94826 0
M  V30 12128 C 1104.23 -0.920962 1.71882 0
M  V30 12129 O 1103.5 -1.65043 1.05534 0
M  V30 12130 H 1102.08 0.195729 0.720902 0
M  V30 12131 H 1104.74 1.15628 1.56895 0
M  V30 12132 H 1103.84 0.727052 3.03513 0
M  V30 12133 N 1104.14 -1.42577 0.671525 0
M  V30 12134 C 1105.39 -2.00806 0.189663 0
M  V30 12135 C 1105.7 -1.537 -1.20978 0
M  V30 12136 O 1106.91 -2.04325 -1.78784 0
M  V30 12137 C 1105.36 -3.58744 0.288227 0
M  V30 12138 C 1104.97 -4.14839 1.69152 0
M  V30 12139 C 1106.72 -4.24285 -0.13509 0
M  V30 12140 C 1104.62 -5.65131 1.74302 0
M  V30 12141 H 1103.55 -0.751004 0.067146 0
M  V30 12142 H 1106.2 -1.63338 0.83623 0
M  V30 12143 H 1104.59 -3.937 -0.426175 0
M  V30 12144 H 1105.76 -3.91349 2.43274 0
M  V30 12145 H 1104.08 -3.61738 2.0624 0
M  V30 12146 H 1106.67 -5.34573 -0.116709 0
M  V30 12147 H 1107.02 -3.99527 -1.16977 0
M  V30 12148 H 1107.55 -3.94278 0.528191 0
M  V30 12149 H 1104.29 -5.94682 2.75742 0
M  V30 12150 H 1103.81 -5.90621 1.04531 0
M  V30 12151 H 1105.49 -6.29491 1.49498 0
M  V30 12152 N 1105.62 -0.414636 -1.52048 0
M  V30 12153 C 1106.55 0.399119 -2.30064 0
M  V30 12154 C 1107.53 1.04126 -1.34506 0
M  V30 12155 O 1108.71 1.04923 -1.63416 0
M  V30 12156 C 1105.84 1.51305 -3.12608 0
M  V30 12157 C 1104.8 0.995621 -4.16259 0
M  V30 12158 C 1104.12 2.20357 -4.87183 0
M  V30 12159 C 1105.42 0.0458178 -5.2228 0
M  V30 12160 H 1107.12 -0.251879 -2.98339 0
M  V30 12161 H 1104.66 -0.122579 -1.43477 0
M  V30 12162 H 1106.62 2.08936 -3.65956 0
M  V30 12163 H 1105.34 2.19201 -2.42113 0
M  V30 12164 H 1104 0.441676 -3.6393 0
M  V30 12165 H 1103.65 2.8682 -4.13211 0
M  V30 12166 H 1103.35 1.86385 -5.57256 0
M  V30 12167 H 1104.87 2.78584 -5.43345 0
M  V30 12168 H 1106.29 0.531102 -5.70835 0
M  V30 12169 H 1104.68 -0.20536 -5.99749 0
M  V30 12170 H 1105.75 -0.897807 -4.76516 0
M  V30 12171 N 1107.1 1.56929 -0.145233 0
M  V30 12172 C 1108.03 2.19685 0.791263 0
M  V30 12173 C 1109.01 1.14455 1.25833 0
M  V30 12174 O 1110.19 1.42791 1.31622 0
M  V30 12175 C 1107.32 2.81705 2.03124 0
M  V30 12176 C 1106.28 3.92746 1.70101 0
M  V30 12177 C 1105.6 4.41694 3.01347 0
M  V30 12178 C 1106.9 5.13606 0.949025 0
M  V30 12179 H 1108.6 2.98196 0.26825 0
M  V30 12180 H 1106.14 1.43434 0.127584 0
M  V30 12181 H 1108.1 3.24273 2.69119 0
M  V30 12182 H 1106.82 2.00523 2.57795 0
M  V30 12183 H 1105.48 3.50794 1.06486 0
M  V30 12184 H 1105.13 3.57336 3.54006 0
M  V30 12185 H 1104.83 5.1659 2.80016 0
M  V30 12186 H 1106.35 4.86931 3.68416 0
M  V30 12187 H 1107.76 5.53029 1.51102 0
M  V30 12188 H 1106.16 5.94252 0.835711 0
M  V30 12189 H 1107.23 4.84863 -0.0595631 0
M  V30 12190 N 1108.58 -0.128553 1.57075 0
M  V30 12191 C 1109.82 -0.834322 1.85501 0
M  V30 12192 C 1110.18 -1.77943 0.731725 0
M  V30 12193 O 1109.47 -1.89702 -0.269003 0
M  V30 12194 C 1109.66 -1.63027 3.18052 0
M  V30 12195 C 1109.49 -0.763737 4.43167 0
M  V30 12196 C 1108.26 -0.42224 5.03533 0
M  V30 12197 C 1110.46 -0.0856773 5.14229 0
M  V30 12198 N 1108.44 0.455954 6.12204 0
M  V30 12199 C 1109.81 0.651902 6.16563 0
M  V30 12200 C 1111.87 -0.00826404 4.97899 0
M  V30 12201 C 1110.57 1.45961 7.04335 0
M  V30 12202 C 1112.6 0.786239 5.8615 0
M  V30 12203 C 1111.96 1.51204 6.8798 0
M  V30 12204 H 1108.06 -0.282535 0.729176 0
M  V30 12205 H 1110.64 -0.0985924 1.9445 0
M  V30 12206 H 1108.81 -2.3371 3.10216 0
M  V30 12207 H 1110.55 -2.28063 3.34319 0
M  V30 12208 H 1107.3 -0.76229 4.67425 0
M  V30 12209 H 1107.72 0.886619 6.71169 0
M  V30 12210 H 1112.37 -0.555051 4.19141 0
M  V30 12211 H 1110.08 2.01759 7.82508 0
M  V30 12212 H 1113.67 0.848372 5.75581 0
M  V30 12213 H 1112.55 2.11694 7.55086 0
M  V30 12214 N 1110.05 -1.5248 -0.398459 0
M  V30 12215 C 1110.96 -1.79492 -1.51062 0
M  V30 12216 C 1111.98 -0.681101 -1.60116 0
M  V30 12217 O 1113.16 -0.967671 -1.7663 0
M  V30 12218 C 1110.22 -1.94958 -2.86692 0
M  V30 12219 C 1109.28 -3.1887 -2.87438 0
M  V30 12220 C 1108.51 -3.33588 -4.16599 0
M  V30 12221 O 1108.74 -2.53327 -5.11059 0
M  V30 12222 O 1107.67 -4.26795 -4.24416 0
M  V30 12223 H 1111.5 -2.73913 -1.31169 0
M  V30 12224 H 1109.08 -1.37455 -0.585372 0
M  V30 12225 H 1110.96 -2.06891 -3.67116 0
M  V30 12226 H 1109.64 -1.03726 -3.06631 0
M  V30 12227 H 1108.55 -3.12386 -2.0583 0
M  V30 12228 H 1109.88 -4.09917 -2.7245 0
M  V30 12229 N 1111.53 0.65634 -1.43283 0
M  V30 12230 C 1112.76 1.44408 -1.48168 0
M  V30 12231 C 1113.17 1.88542 -0.0986016 0
M  V30 12232 O 1112.53 1.59298 0.890527 0
M  V30 12233 C 1112.58 2.68111 -2.42484 0
M  V30 12234 O 1112.3 2.25824 -3.75413 0
M  V30 12235 C 1113.8 3.61499 -2.56579 0
M  V30 12236 H 1111.02 0.443731 -0.503333 0
M  V30 12237 H 1113.57 0.804917 -1.87993 0
M  V30 12238 H 1111.72 3.28175 -2.05863 0
M  V30 12239 H 1112.14 3.05839 -4.26102 0
M  V30 12240 H 1113.61 4.44972 -3.26655 0
M  V30 12241 H 1114.09 4.08639 -1.60969 0
M  V30 12242 H 1114.69 3.07319 -2.93998 0
M  V30 12243 N 1113.01 1.29761 0.894412 0
M  V30 12244 C 1114.26 1.18039 1.64539 0
M  V30 12245 C 1114.58 -0.26697 1.92659 0
M  V30 12246 O 1113.84 -1.20865 1.53916 0
M  V30 12247 C 1114.14 1.94458 2.99868 0
M  V30 12248 C 1113.8 3.44143 2.91336 0
M  V30 12249 C 1112.47 3.84963 2.88716 0
M  V30 12250 C 1114.82 4.39503 2.80154 0
M  V30 12251 C 1112.15 5.19451 2.72741 0
M  V30 12252 C 1114.5 5.74088 2.65718 0
M  V30 12253 C 1113.16 6.14159 2.61467 0
M  V30 12254 H 1112.43 0.431936 0.60209 0
M  V30 12255 H 1115.08 1.60758 1.04063 0
M  V30 12256 H 1113.38 1.44346 3.64241 0
M  V30 12257 H 1115.08 1.82788 3.56917 0
M  V30 12258 H 1111.67 3.11699 2.9418 0
M  V30 12259 H 1115.86 4.08915 2.81251 0
M  V30 12260 H 1111.11 5.49602 2.67858 0
M  V30 12261 H 1115.29 6.47625 2.56038 0
M  V30 12262 H 1112.91 7.18317 2.48847 0
M  V30 12263 N 1114.49 -1.10549 1.12324 0
M  V30 12264 C 1115.71 -1.8681 0.900927 0
M  V30 12265 C 1116.14 -1.80049 -0.54443 0
M  V30 12266 O 1115.5 -1.16957 -1.38531 0
M  V30 12267 C 1115.54 -3.33197 1.37883 0
M  V30 12268 O 1114.65 -4.08628 0.556529 0
M  V30 12269 H 1113.99 -0.579709 0.32378 0
M  V30 12270 H 1116.52 -1.39678 1.49503 0
M  V30 12271 H 1116.53 -3.84047 1.37739 0
M  V30 12272 H 1115.2 -3.37435 2.43127 0
M  V30 12273 H 1113.78 -3.67627 0.62486 0
M  V30 12274 N 1115.97 -0.914965 -1.28321 0
M  V30 12275 C 1116.9 -0.421292 -2.29668 0
M  V30 12276 C 1117.88 0.511743 -1.6222 0
M  V30 12277 O 1119.06 0.419218 -1.89621 0
M  V30 12278 C 1116.19 0.338364 -3.45648 0
M  V30 12279 C 1115.15 -0.505646 -4.25003 0
M  V30 12280 C 1114.47 0.382421 -5.33331 0
M  V30 12281 C 1115.77 -1.76354 -4.91626 0
M  V30 12282 H 1117.47 -1.26826 -2.71211 0
M  V30 12283 H 1115.01 -0.611291 -1.30381 0
M  V30 12284 H 1116.96 0.694578 -4.15636 0
M  V30 12285 H 1115.69 1.21925 -3.02988 0
M  V30 12286 H 1114.35 -0.844395 -3.56743 0
M  V30 12287 H 1114 1.26189 -4.86914 0
M  V30 12288 H 1113.7 -0.17871 -5.87328 0
M  V30 12289 H 1115.22 0.73449 -6.06166 0
M  V30 12290 H 1116.63 -1.47616 -5.5397 0
M  V30 12291 H 1115.03 -2.26717 -5.55625 0
M  V30 12292 H 1116.1 -2.49063 -4.16048 0
M  V30 12293 N 1117.44 1.42219 -0.679077 0
M  V30 12294 C 1118.69 2.01081 -0.202718 0
M  V30 12295 C 1119.01 1.53986 1.19639 0
M  V30 12296 O 1118.28 0.763359 1.80415 0
M  V30 12297 H 1116.86 0.743526 -0.0719547 0
M  V30 12298 H 1119.52 1.74077 -0.876544 0
M  V30 12299 H 1118.62 3.11411 -0.207314 0
M  V30 12300 N 1118.92 0.422693 1.51826 0
M  V30 12301 C 1120.17 -0.148861 2.02253 0
M  V30 12302 C 1120.5 -1.43629 1.30707 0
M  V30 12303 O 1119.78 -1.89967 0.417482 0
M  V30 12304 C 1120.06 -0.382672 3.58061 0
M  V30 12305 C 1119.91 0.922386 4.40241 0
M  V30 12306 C 1121.23 -1.1589 4.24567 0
M  V30 12307 H 1118.35 -0.0526279 0.735119 0
M  V30 12308 H 1120.99 0.558821 1.81596 0
M  V30 12309 H 1119.14 -0.985495 3.75793 0
M  V30 12310 H 1120.81 1.55806 4.34191 0
M  V30 12311 H 1119.06 1.53032 4.05911 0
M  V30 12312 H 1119.73 0.713012 5.47376 0
M  V30 12313 H 1122.2 -0.648415 4.11017 0
M  V30 12314 H 1121.08 -1.29125 5.33496 0
M  V30 12315 H 1121.34 -2.18315 3.84436 0
M  V30 12316 N 1120.4 -1.5685 0.153553 0
M  V30 12317 C 1121.64 -1.98226 -0.498586 0
M  V30 12318 C 1122 -1.03671 -1.61605 0
M  V30 12319 O 1123.2 -1.34117 -2.32951 0
M  V30 12320 C 1121.48 -3.43539 -0.985678 0
M  V30 12321 S 1123.03 -4.0694 -1.6415 0
M  V30 12322 H 1119.85 -0.692533 -0.160993 0
M  V30 12323 H 1122.45 -1.93936 0.246817 0
M  V30 12324 H 1121.16 -4.10081 -0.161708 0
M  V30 12325 H 1120.69 -3.51557 -1.76555 0
M  V30 12326 H 1122.7 -4.0053 -2.929 0
M  V30 12327 N 1121.88 0.120221 -1.57141 0
M  V30 12328 C 1123.29 0.677497 -1.73974 0
M  V30 12329 C 1123.64 1.80371 -0.772055 0
M  V30 12330 O 1122.76 2.16329 0.0553062 0
M  V30 12331 C 1123.36 1.23575 -3.1546 0
M  V30 12332 C 1121.92 1.73933 -3.33803 0
M  V30 12333 C 1121.07 0.638542 -2.69848 0
M  V30 12334 H 1124.02 -0.105685 -1.58348 0
M  V30 12335 H 1124.04 2.10542 -3.16942 0
M  V30 12336 H 1123.55 0.415851 -3.85866 0
M  V30 12337 H 1121.65 2.58404 -2.68437 0
M  V30 12338 H 1121.76 1.84961 -4.41957 0
M  V30 12339 H 1120.13 1.07185 -2.31049 0
M  V30 12340 H 1120.91 -0.170356 -3.42877 0
M  V30 12341 N 1123.36 1.52689 0.390367 0
M  V30 12342 C 1124.59 1.71292 1.1551 0
M  V30 12343 C 1124.99 0.430405 1.84239 0
M  V30 12344 O 1124.34 -0.604823 1.73458 0
M  V30 12345 C 1124.4 2.80597 2.24735 0
M  V30 12346 C 1124.06 4.21757 1.75984 0
M  V30 12347 C 1125.06 5.04961 1.23733 0
M  V30 12348 C 1122.75 4.68071 1.82248 0
M  V30 12349 C 1124.74 6.32561 0.783926 0
M  V30 12350 C 1122.43 5.95656 1.36519 0
M  V30 12351 C 1123.42 6.7773 0.846786 0
M  V30 12352 O 1123.11 8.02923 0.396164 0
M  V30 12353 H 1122.84 0.576906 0.352356 0
M  V30 12354 H 1125.4 2.00117 0.462865 0
M  V30 12355 H 1123.63 2.4719 2.97378 0
M  V30 12356 H 1125.32 2.87616 2.86412 0
M  V30 12357 H 1126.08 4.70363 1.18251 0
M  V30 12358 H 1121.96 4.04278 2.21541 0
M  V30 12359 H 1125.51 6.96572 0.378612 0
M  V30 12360 H 1121.4 6.29758 1.41686 0
M  V30 12361 H 1122.17 8.16861 0.517766 0
M  V30 12362 N 1124.83 -0.648732 1.43629 0
M  V30 12363 C 1126.25 -1.23001 1.40455 0
M  V30 12364 C 1126.6 -1.95886 0.110897 0
M  V30 12365 O 1125.72 -2.01485 -0.789487 0
M  V30 12366 C 1126.32 -2.23716 2.54434 0
M  V30 12367 C 1124.88 -2.77311 2.54511 0
M  V30 12368 C 1124.02 -1.52024 2.31914 0
M  V30 12369 H 1126.97 -0.440473 1.52465 0
M  V30 12370 H 1126.99 -3.05979 2.26179 0
M  V30 12371 H 1126.51 -1.7064 3.48574 0
M  V30 12372 H 1124.61 -3.34437 1.64263 0
M  V30 12373 H 1124.72 -3.2455 3.52426 0
M  V30 12374 H 1123.08 -1.79531 1.80667 0
M  V30 12375 H 1123.87 -1.00876 3.28145 0
M  V30 12376 N 1126.31 -1.30234 -0.887518 0
M  V30 12377 C 1127.56 -1.18675 -1.63587 0
M  V30 12378 C 1127.88 0.259342 -1.93268 0
M  V30 12379 O 1127.15 1.17523 -1.56733 0
M  V30 12380 H 1125.73 -0.436224 -0.606397 0
M  V30 12381 H 1128.39 -1.63326 -1.06351 0
M  V30 12382 H 1127.49 -1.74575 -2.58708 0
M  V30 12383 N 1127.79 1.09952 -1.12909 0
M  V30 12384 C 1128.72 2.15689 -0.745217 0
M  V30 12385 C 1129.7 1.60409 0.266007 0
M  V30 12386 O 1130.89 1.8783 0.158783 0
M  V30 12387 C 1128.01 3.38541 -0.103846 0
M  V30 12388 C 1127.06 4.12529 -1.0827 0
M  V30 12389 S 1127.89 4.67442 -2.61262 0
M  V30 12390 C 1129.05 5.936 -1.9847 0
M  V30 12391 H 1129.28 2.47918 -1.64086 0
M  V30 12392 H 1126.81 1.21817 -0.948682 0
M  V30 12393 H 1128.77 4.09677 0.259816 0
M  V30 12394 H 1127.43 3.04541 0.768982 0
M  V30 12395 H 1126.63 5.00632 -0.581653 0
M  V30 12396 H 1126.23 3.47228 -1.38955 0
M  V30 12397 H 1128.52 6.64308 -1.33048 0
M  V30 12398 H 1129.46 6.48374 -2.84634 0
M  V30 12399 H 1129.87 5.45864 -1.43848 0
M  V30 12400 N 1129.27 0.921757 1.27833 0
M  V30 12401 C 1130.5 0.575202 1.98744 0
M  V30 12402 C 1130.91 -0.845405 1.68815 0
M  V30 12403 O 1130.27 -1.56106 0.94536 0
M  V30 12404 C 1130.32 0.784389 3.52888 0
M  V30 12405 O 1130.04 2.1491 3.81766 0
M  V30 12406 C 1131.54 0.445744 4.41053 0
M  V30 12407 H 1128.76 0.218525 0.634419 0
M  V30 12408 H 1131.31 1.23715 1.62834 0
M  V30 12409 H 1129.46 0.169323 3.8703 0
M  V30 12410 H 1129.87 2.19469 4.76375 0
M  V30 12411 H 1131.35 0.64284 5.48244 0
M  V30 12412 H 1131.83 -0.618433 4.34824 0
M  V30 12413 H 1132.43 1.03869 4.12421 0
M  V30 12414 N 1130.75 -1.41857 0.686609 0
M  V30 12415 C 1131.69 -2.326 0.0041351 0
M  V30 12416 C 1132.69 -1.50474 -0.778077 0
M  V30 12417 O 1133.89 -1.66468 -0.684709 0
M  V30 12418 H 1130.27 -0.751797 -0.0174615 0
M  V30 12419 H 1132.24 -2.87844 0.786656 0
M  V30 12420 C 1130.99 -3.35175 -0.924819 0
M  V30 12421 H 1130.31 -3.98416 -0.332339 0
M  V30 12422 H 1131.75 -4.01229 -1.37082 0
M  V30 12423 C 1130.21 -2.68359 -2.03679 0
M  V30 12424 O 1130.74 -2.52453 -3.12459 0
M  V30 12425 N 1128.95 -2.27196 -1.81192 0
M  V30 12426 H 1128.49 -2.40333 -0.92725 0
M  V30 12427 H 1128.45 -1.82824 -2.55778 0
M  V30 12428 N 1132.22 -0.430739 -1.51599 0
M  V30 12429 C 1133.16 0.419726 -2.25324 0
M  V30 12430 C 1134.17 0.991925 -1.29092 0
M  V30 12431 O 1135.36 0.887188 -1.54891 0
M  V30 12432 C 1132.46 1.59844 -2.98836 0
M  V30 12433 C 1131.63 1.14629 -4.22112 0
M  V30 12434 C 1130.69 2.19437 -4.78261 0
M  V30 12435 O 1129.72 1.79141 -5.40275 0
M  V30 12436 N 1130.92 3.51849 -4.61717 0
M  V30 12437 H 1133.68 -0.212112 -2.98948 0
M  V30 12438 H 1131.24 -0.259269 -1.59811 0
M  V30 12439 H 1133.24 2.29567 -3.33288 0
M  V30 12440 H 1131.81 2.13575 -2.28264 0
M  V30 12441 H 1131.03 0.276367 -3.9323 0
M  V30 12442 H 1132.31 0.821488 -5.02124 0
M  V30 12443 H 1131.71 3.87324 -4.12306 0
M  V30 12444 H 1130.27 4.17486 -5.00548 0
M  V30 12445 N 1133.7 1.56767 -0.161869 0
M  V30 12446 C 1134.63 2.1466 0.803356 0
M  V30 12447 C 1135.65 1.09977 1.20037 0
M  V30 12448 O 1136.84 1.37199 1.14187 0
M  V30 12449 C 1133.94 2.66663 2.09151 0
M  V30 12450 C 1133.11 3.95904 1.85953 0
M  V30 12451 C 1132.17 4.33067 2.98897 0
M  V30 12452 O 1131.19 5.01119 2.69942 0
M  V30 12453 N 1132.4 3.93856 4.26448 0
M  V30 12454 H 1135.16 2.98108 0.308472 0
M  V30 12455 H 1132.72 1.61886 0.0212238 0
M  V30 12456 H 1134.71 2.88528 2.83784 0
M  V30 12457 H 1133.28 1.87856 2.49857 0
M  V30 12458 H 1132.5 3.82513 0.952751 0
M  V30 12459 H 1133.79 4.8033 1.67811 0
M  V30 12460 H 1133.19 3.39051 4.52836 0
M  V30 12461 H 1131.75 4.20741 4.97815 0
M  V30 12462 N 1135.18 -0.111886 1.57202 0
M  V30 12463 C 1136.14 -1.12101 1.99915 0
M  V30 12464 C 1137.14 -1.33906 0.890272 0
M  V30 12465 O 1138.33 -1.30303 1.15615 0
M  V30 12466 C 1135.47 -2.47392 2.34543 0
M  V30 12467 H 1136.66 -0.753736 2.90274 0
M  V30 12468 H 1134.21 -0.35641 1.52182 0
M  V30 12469 H 1134.95 -2.89026 1.47086 0
M  V30 12470 H 1134.73 -2.32917 3.15423 0
M  V30 12471 H 1136.22 -3.20004 2.68304 0
M  V30 12472 N 1136.66 -1.52894 -0.382264 0
M  V30 12473 C 1138.07 -1.42295 -0.722802 0
M  V30 12474 C 1138.27 -0.548717 -1.93885 0
M  V30 12475 O 1137.33 -0.0247431 -2.52488 0
M  V30 12476 C 1138.64 -2.85246 -0.9516 0
M  V30 12477 C 1140.19 -2.94768 -1.05265 0
M  V30 12478 C 1140.67 -4.38745 -1.31404 0
M  V30 12479 N 1142.16 -4.421 -1.38211 0
M  V30 12480 C 1142.89 -5.50592 -1.60113 0
M  V30 12481 N 1142.39 -6.69158 -1.79442 0
M  V30 12482 N 1144.18 -5.38145 -1.62347 0
M  V30 12483 H 1136.33 -2.0825 0.417816 0
M  V30 12484 H 1138.6 -0.939753 0.124776 0
M  V30 12485 H 1138.3 -3.51459 -0.130088 0
M  V30 12486 H 1138.18 -3.27903 -1.86439 0
M  V30 12487 H 1140.56 -2.28718 -1.86472 0
M  V30 12488 H 1140.64 -2.55529 -0.117619 0
M  V30 12489 H 1140.29 -5.05363 -0.507038 0
M  V30 12490 H 1140.22 -4.75542 -2.26202 0
M  V30 12491 H 1142.71 -3.56644 -1.24954 0
M  V30 12492 H 1143.02 -7.47615 -1.95681 0
M  V30 12493 H 1141.37 -6.72175 -1.76653 0
M  V30 12494 H 1144.56 -4.44485 -1.46803 0
M  V30 12495 H 1144.73 -6.22764 -1.79077 0
M  V30 12496 N 1138.14 0.641106 -1.43971 0
M  V30 12497 C 1139.05 1.78239 -1.52538 0
M  V30 12498 C 1140.06 1.6906 -0.411668 0
M  V30 12499 O 1141.24 1.90014 -0.66757 0
M  V30 12500 C 1138.3 3.14579 -1.45743 0
M  V30 12501 C 1137.37 3.35464 -2.67885 0
M  V30 12502 C 1136.6 4.65299 -2.61404 0
M  V30 12503 O 1136.82 5.45451 -1.66851 0
M  V30 12504 O 1135.76 4.8817 -3.521 0
M  V30 12505 H 1139.58 1.73965 -2.48937 0
M  V30 12506 H 1137.17 0.801098 -1.26106 0
M  V30 12507 H 1139.05 3.95873 -1.4444 0
M  V30 12508 H 1137.72 3.19417 -0.524837 0
M  V30 12509 H 1136.63 2.53888 -2.74758 0
M  V30 12510 H 1137.96 3.35481 -3.60157 0
M  V30 12511 N 1139.62 1.30703 0.880598 0
M  V30 12512 C 1140.55 1.1327 1.99255 0
M  V30 12513 C 1141.56 0.0747186 1.62628 0
M  V30 12514 O 1142.75 0.321169 1.75587 0
M  V30 12515 C 1139.85 0.706179 3.31461 0
M  V30 12516 C 1139.02 1.84687 3.96497 0
M  V30 12517 C 1138.08 1.40817 5.07008 0
M  V30 12518 O 1137.11 2.1161 5.28403 0
M  V30 12519 N 1138.31 0.289619 5.79777 0
M  V30 12520 H 1141.07 2.09043 2.14759 0
M  V30 12521 H 1138.64 1.22896 1.05395 0
M  V30 12522 H 1140.63 0.395617 4.02762 0
M  V30 12523 H 1139.2 -0.159631 3.12192 0
M  V30 12524 H 1138.42 2.32531 3.18312 0
M  V30 12525 H 1139.71 2.61117 4.36687 0
M  V30 12526 H 1139.1 -0.300177 5.64903 0
M  V30 12527 H 1137.66 0.0385346 6.51789 0
M  V30 12528 N 1141.09 -1.09351 1.1349 0
M  V30 12529 C 1142.34 -1.81812 0.898452 0
M  V30 12530 C 1142.67 -1.85525 -0.573959 0
M  V30 12531 O 1141.95 -1.32403 -1.42477 0
M  V30 12532 C 1142.23 -3.27921 1.48794 0
M  V30 12533 C 1142.08 -3.32476 3.02952 0
M  V30 12534 C 1143.4 -4.24625 1.15678 0
M  V30 12535 H 1140.52 -0.660074 0.327829 0
M  V30 12536 H 1143.16 -1.28091 1.40331 0
M  V30 12537 H 1141.31 -3.738 1.05858 0
M  V30 12538 H 1142.99 -2.94994 3.54649 0
M  V30 12539 H 1141.23 -2.72037 3.37903 0
M  V30 12540 H 1141.9 -4.35409 3.39298 0
M  V30 12541 H 1144.38 -3.87036 1.52781 0
M  V30 12542 H 1143.25 -5.25194 1.59571 0
M  V30 12543 H 1143.51 -4.42044 0.0705933 0
M  V30 12544 N 1142.57 -0.928524 -1.27343 0
M  V30 12545 C 1143.48 -0.433901 -2.30553 0
M  V30 12546 C 1144.5 0.485832 -1.6708 0
M  V30 12547 O 1145.67 0.36844 -1.98001 0
M  V30 12548 C 1142.74 0.304617 -3.45359 0
M  V30 12549 C 1141.8 -0.650131 -4.24349 0
M  V30 12550 C 1141.03 0.0532372 -5.33673 0
M  V30 12551 O 1141.26 1.27246 -5.56026 0
M  V30 12552 O 1140.19 -0.619009 -5.98709 0
M  V30 12553 H 1144.02 -1.2909 -2.74899 0
M  V30 12554 H 1141.6 -0.693903 -1.32308 0
M  V30 12555 H 1143.48 0.721137 -4.15184 0
M  V30 12556 H 1142.16 1.13721 -3.03066 0
M  V30 12557 H 1141.06 -1.11635 -3.57055 0
M  V30 12558 H 1142.4 -1.44996 -4.70358 0
M  V30 12559 N 1144.05 1.41491 -0.694123 0
M  V30 12560 C 1145.47 1.55358 -0.365532 0
M  V30 12561 C 1145.67 1.66994 1.12762 0
M  V30 12562 O 1144.72 1.64756 1.91342 0
M  V30 12563 C 1146.03 2.79352 -1.11279 0
M  V30 12564 C 1147.58 2.93147 -1.097 0
M  V30 12565 C 1148.06 4.20027 -1.82597 0
M  V30 12566 N 1149.55 4.26981 -1.7956 0
M  V30 12567 C 1150.28 5.24013 -2.32805 0
M  V30 12568 N 1149.78 6.27083 -2.94515 0
M  V30 12569 N 1151.57 5.15943 -2.23069 0
M  V30 12570 H 1143.72 1.32183 -1.66257 0
M  V30 12571 H 1145.99 0.637624 -0.701527 0
M  V30 12572 H 1145.69 2.76958 -2.16765 0
M  V30 12573 H 1145.57 3.70827 -0.690439 0
M  V30 12574 H 1147.95 2.95057 -0.0504037 0
M  V30 12575 H 1148.03 2.02849 -1.55839 0
M  V30 12576 H 1147.68 4.18878 -2.87235 0
M  V30 12577 H 1147.61 5.09294 -1.33893 0
M  V30 12578 H 1150.1 3.53129 -1.34567 0
M  V30 12579 H 1150.41 6.97511 -3.32714 0
M  V30 12580 H 1148.76 6.27589 -2.98592 0
M  V30 12581 H 1151.95 4.34346 -1.74532 0
M  V30 12582 H 1152.12 5.91396 -2.64868 0
M  V30 12583 N 1145.53 0.438773 1.51369 0
M  V30 12584 C 1146.78 -0.126962 2.01701 0
M  V30 12585 C 1147.1 -1.43086 1.32481 0
M  V30 12586 O 1146.37 -1.90427 0.459823 0
M  V30 12587 H 1144.95 -0.0499092 0.745331 0
M  V30 12588 H 1147.61 0.581808 1.86013 0
M  V30 12589 H 1146.7 -0.301836 3.10637 0
M  V30 12590 N 1147.01 -1.56678 0.170181 0
M  V30 12591 C 1148.24 -2.00931 -0.480664 0
M  V30 12592 C 1148.64 -1.04947 -1.57425 0
M  V30 12593 O 1147.99 -0.042229 -1.83651 0
M  V30 12594 C 1148.05 -3.4161 -1.11996 0
M  V30 12595 C 1147.71 -4.5669 -0.168167 0
M  V30 12596 C 1148.71 -5.16273 0.613059 0
M  V30 12597 C 1146.39 -5.02259 -0.0643243 0
M  V30 12598 C 1148.39 -6.19852 1.48534 0
M  V30 12599 C 1146.08 -6.05687 0.811542 0
M  V30 12600 C 1147.07 -6.64355 1.58496 0
M  V30 12601 O 1146.76 -7.65778 2.44619 0
M  V30 12602 H 1146.49 -0.66386 -0.12754 0
M  V30 12603 H 1149.05 -2.03635 0.2687 0
M  V30 12604 H 1147.28 -3.35815 -1.91743 0
M  V30 12605 H 1148.97 -3.69823 -1.67289 0
M  V30 12606 H 1149.73 -4.81951 0.542999 0
M  V30 12607 H 1145.61 -4.56307 -0.656102 0
M  V30 12608 H 1149.16 -6.65572 2.08948 0
M  V30 12609 H 1145.05 -6.39435 0.88281 0
M  V30 12610 H 1145.82 -7.83096 2.38122 0
M  V30 12611 N 1148.48 0.103547 -1.57259 0
M  V30 12612 C 1149.9 0.457527 -1.52901 0
M  V30 12613 C 1150.1 1.80995 -0.8856 0
M  V30 12614 O 1149.16 2.48001 -0.474504 0
M  V30 12615 C 1150.47 0.427793 -2.97641 0
M  V30 12616 C 1152.02 0.51025 -3.08813 0
M  V30 12617 C 1152.49 0.51075 -4.55143 0
M  V30 12618 N 1153.98 0.571748 -4.59658 0
M  V30 12619 C 1154.72 0.593836 -5.70317 0
M  V30 12620 N 1154.21 0.572638 -6.90429 0
M  V30 12621 N 1156.01 0.638011 -5.58467 0
M  V30 12622 H 1148.16 -0.782408 -1.97464 0
M  V30 12623 H 1150.42 -0.290324 -0.90245 0
M  V30 12624 H 1150.13 -0.498608 -3.48148 0
M  V30 12625 H 1150 1.24991 -3.55889 0
M  V30 12626 H 1152.39 1.42707 -2.583 0
M  V30 12627 H 1152.47 -0.339846 -2.53532 0
M  V30 12628 H 1152.11 -0.40209 -5.06306 0
M  V30 12629 H 1152.04 1.37794 -5.08252 0
M  V30 12630 H 1154.53 0.593668 -3.73208 0
M  V30 12631 H 1154.85 0.592542 -7.70525 0
M  V30 12632 H 1153.19 0.539818 -6.929 0
M  V30 12633 H 1156.38 0.652042 -4.63536 0
M  V30 12634 H 1156.56 0.651756 -6.44714 0
M  V30 12635 N 1149.96 1.53094 0.37415 0
M  V30 12636 C 1150.89 1.73697 1.48002 0
M  V30 12637 C 1151.87 0.585109 1.51708 0
M  V30 12638 O 1153.06 0.816688 1.6989 0
M  V30 12639 C 1150.18 1.80802 2.86406 0
M  V30 12640 C 1149.23 3.02696 3.00462 0
M  V30 12641 S 1150.06 4.62386 2.70109 0
M  V30 12642 C 1151.22 4.72328 4.10679 0
M  V30 12643 H 1151.45 2.67223 1.30303 0
M  V30 12644 H 1148.98 1.43574 0.567957 0
M  V30 12645 H 1150.94 1.85581 3.66155 0
M  V30 12646 H 1149.6 0.883425 3.01421 0
M  V30 12647 H 1148.8 3.04252 4.01804 0
M  V30 12648 H 1148.4 2.95985 2.28624 0
M  V30 12649 H 1150.69 4.51856 5.04809 0
M  V30 12650 H 1151.63 5.7437 4.14131 0
M  V30 12651 H 1152.04 4.01035 3.9728 0
M  V30 12652 N 1151.44 -0.633461 1.44309 0
M  V30 12653 C 1152.66 -1.42527 1.50668 0
M  V30 12654 C 1153.09 -1.87637 0.131861 0
M  V30 12655 O 1152.45 -1.58595 -0.878477 0
M  V30 12656 C 1152.5 -2.62328 2.47419 0
M  V30 12657 O 1151.6 -3.62081 1.97411 0
M  V30 12658 H 1150.94 -0.426559 0.508864 0
M  V30 12659 H 1153.47 -0.773392 1.8942 0
M  V30 12660 H 1153.48 -3.09901 2.65378 0
M  V30 12661 H 1152.16 -2.2884 3.47283 0
M  V30 12662 H 1150.73 -3.21333 1.89208 0
M  V30 12663 N 1152.92 -1.31168 -0.873655 0
M  V30 12664 C 1153.88 -1.18471 -1.96207 0
M  V30 12665 C 1154.88 -0.112814 -1.60404 0
M  V30 12666 O 1156.07 -0.3618 -1.70401 0
M  V30 12667 C 1153.2 -0.817662 -3.30949 0
M  V30 12668 H 1154.4 -2.1518 -2.08896 0
M  V30 12669 H 1151.95 -1.14727 -1.06149 0
M  V30 12670 H 1152.68 0.148428 -3.2396 0
M  V30 12671 H 1152.47 -1.59244 -3.58307 0
M  V30 12672 H 1153.96 -0.75262 -4.10762 0
M  V30 12673 N 1154.4 1.08748 -1.14068 0
M  V30 12674 C 1155.81 1.62551 -0.918379 0
M  V30 12675 C 1156.16 1.8852 0.543583 0
M  V30 12676 O 1155.28 1.64007 1.41176 0
M  V30 12677 C 1155.88 2.95309 -1.66066 0
M  V30 12678 C 1154.44 3.4591 -1.48403 0
M  V30 12679 C 1153.58 2.20204 -1.6854 0
M  V30 12680 H 1156.54 0.920196 -1.29298 0
M  V30 12681 H 1156.56 3.63587 -1.12181 0
M  V30 12682 H 1156.07 2.76377 -2.72465 0
M  V30 12683 H 1154.17 3.69953 -0.443353 0
M  V30 12684 H 1154.28 4.2289 -2.25169 0
M  V30 12685 H 1152.65 2.29203 -1.11077 0
M  V30 12686 H 1153.43 2.03783 -2.76274 0
M  V30 12687 N 1155.87 0.935264 1.26849 0
M  V30 12688 C 1156.81 0.397539 2.25726 0
M  V30 12689 C 1157.82 -0.475928 1.55688 0
M  V30 12690 O 1159.01 -0.287329 1.76172 0
M  V30 12691 C 1156.11 -0.448308 3.35922 0
M  V30 12692 C 1155.28 0.407624 4.35496 0
M  V30 12693 C 1154.34 -0.376815 5.24849 0
M  V30 12694 O 1153.37 0.218109 5.68782 0
M  V30 12695 N 1154.57 -1.67481 5.55815 0
M  V30 12696 H 1157.33 1.24753 2.72501 0
M  V30 12697 H 1154.89 0.803505 1.40554 0
M  V30 12698 H 1156.89 -0.980338 3.92647 0
M  V30 12699 H 1155.46 -1.19908 2.88688 0
M  V30 12700 H 1154.68 1.12091 3.77928 0
M  V30 12701 H 1155.96 0.992512 4.99026 0
M  V30 12702 H 1155.36 -2.18037 5.21993 0
M  V30 12703 H 1153.92 -2.15321 6.15207 0
M  V30 12704 N 1157.35 -1.41121 0.701616 0
M  V30 12705 C 1158.3 -2.27994 0.0168361 0
M  V30 12706 C 1159.29 -1.42523 -0.746733 0
M  V30 12707 O 1160.48 -1.6574 -0.621232 0
M  V30 12708 C 1157.61 -3.30898 -0.914417 0
M  V30 12709 C 1156.69 -4.23846 -0.146776 0
M  V30 12710 N 1157.08 -4.9839 0.862624 0
M  V30 12711 C 1155.38 -4.44366 -0.38138 0
M  V30 12712 C 1156.08 -5.66463 1.32266 0
M  V30 12713 N 1155.06 -5.39731 0.647433 0
M  V30 12714 H 1158.86 -2.83065 0.790675 0
M  V30 12715 H 1156.38 -1.53405 0.532977 0
M  V30 12716 H 1158.37 -3.91964 -1.4202 0
M  V30 12717 H 1157.03 -2.77387 -1.68779 0
M  V30 12718 H 1158.04 -5.02761 1.24305 0
M  V30 12719 H 1154.72 -4.01856 -1.13216 0
M  V30 12720 H 1156.11 -6.36213 2.16061 0
M  V30 12721 N 1158.83 -0.446794 -1.51134 0
M  V30 12722 C 1160.07 0.115546 -2.04073 0
M  V30 12723 C 1160.43 1.39137 -1.32306 0
M  V30 12724 O 1161.64 2.03455 -1.75668 0
M  V30 12725 C 1159.91 0.319657 -3.55968 0
M  V30 12726 S 1161.47 0.844045 -4.30606 0
M  V30 12727 H 1158.28 0.0274089 -0.710471 0
M  V30 12728 H 1160.89 -0.608368 -1.85793 0
M  V30 12729 H 1159.59 -0.615082 -4.05765 0
M  V30 12730 H 1159.12 1.07038 -3.78558 0
M  V30 12731 H 1161.14 2.12051 -4.48608 0
M  V30 12732 N 1160.31 1.56586 -0.178487 0
M  V30 12733 C 1161.72 1.83633 0.337009 0
M  V30 12734 C 1162.07 1.09857 1.6256 0
M  V30 12735 O 1161.2 0.353933 2.13486 0
M  V30 12736 C 1161.79 3.33112 0.618225 0
M  V30 12737 C 1160.35 3.60629 1.07814 0
M  V30 12738 C 1159.5 2.7705 0.117825 0
M  V30 12739 H 1162.45 1.53508 -0.402612 0
M  V30 12740 H 1162.47 3.5098 1.46947 0
M  V30 12741 H 1161.98 3.8678 -0.319808 0
M  V30 12742 H 1160.08 3.12378 2.03103 0
M  V30 12743 H 1160.19 4.68921 0.982339 0
M  V30 12744 H 1158.56 2.47125 0.616563 0
M  V30 12745 H 1159.34 3.33501 -0.814356 0
M  V30 12746 N 1161.79 -0.095206 1.57312 0
M  V30 12747 C 1162.7 -1.13388 2.05379 0
M  V30 12748 C 1163.71 -1.43868 0.978668 0
M  V30 12749 O 1164.89 -1.54512 1.29182 0
M  V30 12750 C 1161.95 -2.43444 2.46852 0
M  V30 12751 C 1161.01 -2.20146 3.68557 0
M  V30 12752 C 1160.25 -3.44001 4.08043 0
M  V30 12753 O 1160.47 -4.52233 3.47623 0
M  V30 12754 O 1159.4 -3.33596 5.00997 0
M  V30 12755 H 1163.23 -0.755622 2.9415 0
M  V30 12756 H 1160.82 -0.307707 1.46197 0
M  V30 12757 H 1162.7 -3.20027 2.74155 0
M  V30 12758 H 1161.37 -2.80696 1.61219 0
M  V30 12759 H 1160.28 -1.41345 3.46371 0
M  V30 12760 H 1161.61 -1.87787 4.54969 0
M  V30 12761 N 1163.26 -1.53291 -0.366026 0
M  V30 12762 C 1164.54 -1.60055 -1.12436 0
M  V30 12763 C 1164.92 -0.407811 -2.07123 0
M  V30 12764 O 1164.27 0.601977 -2.20428 0
M  V30 12765 C 1164.48 -2.95062 -1.86385 0
M  V30 12766 C 1165.83 -3.49623 -2.40934 0
M  V30 12767 O 1166.85 -2.97088 -1.96512 0
M  V30 12768 O 1165.71 -4.41461 -3.2214 0
M  V30 12769 H 1162.8 -0.646476 -0.51575 0
M  V30 12770 H 1165.35 -1.65632 -0.369326 0
M  V30 12771 H 1164.12 -3.73312 -1.17277 0
M  V30 12772 H 1163.75 -2.92973 -2.68798 0
M  V30 12773 N 1164.74 0.6258 -1.44643 0
M  V30 12774 C 1165.99 1.38125 -1.46984 0
M  V30 12775 C 1166.3 1.95299 -0.108429 0
M  V30 12776 O 1167.51 2.71498 -0.00940005 0
M  V30 12777 C 1165.97 2.50108 -2.58793 0
M  V30 12778 C 1165.57 1.99424 -4.01166 0
M  V30 12779 C 1167.32 3.27269 -2.70361 0
M  V30 12780 C 1165.23 3.08781 -5.04389 0
M  V30 12781 H 1164.16 0.519083 -0.546872 0
M  V30 12782 H 1166.81 0.67268 -1.70726 0
M  V30 12783 H 1165.19 3.23565 -2.28302 0
M  V30 12784 H 1166.36 1.32797 -4.4125 0
M  V30 12785 H 1164.68 1.35063 -3.93887 0
M  V30 12786 H 1167.27 4.08802 -3.44652 0
M  V30 12787 H 1167.62 3.77097 -1.76362 0
M  V30 12788 H 1168.15 2.60905 -3.00289 0
M  V30 12789 H 1164.89 2.63891 -6.00035 0
M  V30 12790 H 1164.41 3.74033 -4.68892 0
M  V30 12791 H 1166.09 3.73469 -5.28328 0
M  V30 12792 N 1166.22 1.31629 0.866686 0
M  V30 12793 C 1167.45 1.24609 1.65793 0
M  V30 12794 C 1167.87 -0.184944 1.87189 0
M  V30 12795 O 1167.23 -1.1322 1.41601 0
M  V30 12796 C 1167.28 1.9988 3.00134 0
M  V30 12797 O 1166.38 1.33838 3.90079 0
M  V30 12798 H 1165.72 0.430051 0.505917 0
M  V30 12799 H 1168.25 1.73752 1.08035 0
M  V30 12800 H 1168.26 2.09599 3.50046 0
M  V30 12801 H 1166.94 3.03947 2.83882 0
M  V30 12802 H 1165.51 1.3259 3.48532 0
M  V30 12803 N 1167.7 -1.08142 1.14644 0
M  V30 12804 C 1168.65 -2.15133 0.835845 0
M  V30 12805 C 1169.62 -1.64795 -0.207785 0
M  V30 12806 O 1170.8 -1.90644 -0.07711 0
M  V30 12807 C 1167.94 -3.4359 0.322456 0
M  V30 12808 C 1167.05 -4.07761 1.42671 0
M  V30 12809 C 1166.19 -5.24022 0.870281 0
M  V30 12810 C 1165.23 -5.8014 1.95202 0
M  V30 12811 N 1164.37 -6.87743 1.41257 0
M  V30 12812 H 1169.21 -2.41042 1.75222 0
M  V30 12813 H 1166.74 -1.18288 0.874428 0
M  V30 12814 H 1168.7 -4.17199 0.00657059 0
M  V30 12815 H 1167.33 -3.17958 -0.557014 0
M  V30 12816 H 1166.38 -3.31885 1.85893 0
M  V30 12817 H 1167.69 -4.45485 2.24375 0
M  V30 12818 H 1166.85 -6.04582 0.506459 0
M  V30 12819 H 1165.59 -4.87695 0.0223118 0
M  V30 12820 H 1164.59 -4.98232 2.32476 0
M  V30 12821 H 1165.82 -6.18525 2.80363 0
M  V30 12822 H 1163.76 -6.5337 0.586826 0
M  V30 12823 H 1163.68 -7.24308 2.16596 0
M  V30 12824 H 1164.95 -7.72028 1.07674 0
M  V30 12825 N 1169.18 -0.941978 -1.26351 0
M  V30 12826 C 1170.43 -0.585711 -1.93009 0
M  V30 12827 C 1170.74 0.879507 -1.74711 0
M  V30 12828 O 1171.95 1.34518 -2.35833 0
M  V30 12829 C 1170.4 -0.996787 -3.45821 0
M  V30 12830 C 1170.01 -2.48367 -3.72851 0
M  V30 12831 C 1171.75 -0.712452 -4.18479 0
M  V30 12832 C 1169.66 -2.83341 -5.19107 0
M  V30 12833 H 1168.59 -0.215342 -0.722595 0
M  V30 12834 H 1171.24 -1.14472 -1.43417 0
M  V30 12835 H 1169.62 -0.366295 -3.94302 0
M  V30 12836 H 1170.8 -3.16328 -3.35072 0
M  V30 12837 H 1169.11 -2.74139 -3.13427 0
M  V30 12838 H 1171.71 -0.95007 -5.26192 0
M  V30 12839 H 1172.05 0.350811 -4.14819 0
M  V30 12840 H 1172.59 -1.3027 -3.75865 0
M  V30 12841 H 1169.32 -3.88633 -5.27868 0
M  V30 12842 H 1168.84 -2.20043 -5.5798 0
M  V30 12843 H 1170.52 -2.71849 -5.87118 0
M  V30 12844 N 1170.66 1.40747 -0.709091 0
M  V30 12845 C 1171.59 2.282 -0.00156906 0
M  V30 12846 C 1172.57 1.42981 0.774279 0
M  V30 12847 O 1173.75 1.724 0.762276 0
M  V30 12848 C 1170.88 3.23441 1.00517 0
M  V30 12849 C 1169.92 4.25291 0.320904 0
M  V30 12850 S 1170.76 5.27069 -0.946518 0
M  V30 12851 C 1171.91 6.25873 0.0582856 0
M  V30 12852 H 1172.15 2.87859 -0.743271 0
M  V30 12853 H 1169.68 1.46085 -0.499866 0
M  V30 12854 H 1171.64 3.78841 1.58082 0
M  V30 12855 H 1170.3 2.62851 1.71954 0
M  V30 12856 H 1169.49 4.92255 1.08173 0
M  V30 12857 H 1169.09 3.73557 -0.18202 0
M  V30 12858 H 1171.38 6.71398 0.907233 0
M  V30 12859 H 1172.33 7.05739 -0.577787 0
M  V30 12860 H 1172.74 5.62942 0.419108 0
M  V30 12861 N 1172.13 0.454803 1.50895 0
M  V30 12862 C 1173.07 -0.393395 2.24784 0
M  V30 12863 C 1174.04 -1.01005 1.27424 0
M  V30 12864 O 1175.23 -1.04914 1.56605 0
M  V30 12865 C 1172.36 -1.54978 3.01164 0
M  V30 12866 C 1171.4 -1.0521 4.1332 0
M  V30 12867 S 1172.23 0.0200486 5.35496 0
M  V30 12868 C 1173.39 -1.14059 6.1542 0
M  V30 12869 H 1173.62 0.233864 2.96379 0
M  V30 12870 H 1171.16 0.239498 1.52531 0
M  V30 12871 H 1173.11 -2.21262 3.45765 0
M  V30 12872 H 1171.78 -2.1485 2.29125 0
M  V30 12873 H 1170.97 -1.91734 4.66105 0
M  V30 12874 H 1170.57 -0.467234 3.7107 0
M  V30 12875 H 1172.86 -2.05552 6.45565 0
M  V30 12876 H 1173.81 -0.652339 7.05089 0
M  V30 12877 H 1174.21 -1.38705 5.47194 0
M  V30 12878 N 1173.61 -1.56489 0.186789 0
M  V30 12879 C 1174.56 -2.18703 -0.737402 0
M  V30 12880 C 1175.53 -1.13171 -1.21579 0
M  V30 12881 O 1176.71 -1.41388 -1.28118 0
M  V30 12882 C 1173.85 -2.84394 -1.95484 0
M  V30 12883 C 1172.97 -4.04429 -1.51859 0
M  V30 12884 C 1172.1 -4.58001 -2.69089 0
M  V30 12885 C 1171.14 -5.70412 -2.22029 0
M  V30 12886 N 1170.28 -6.18425 -3.32407 0
M  V30 12887 H 1175.12 -2.97327 -0.200105 0
M  V30 12888 H 1172.65 -1.46842 -0.087032 0
M  V30 12889 H 1174.61 -3.20646 -2.66912 0
M  V30 12890 H 1173.24 -2.08347 -2.46559 0
M  V30 12891 H 1172.29 -3.73895 -0.70048 0
M  V30 12892 H 1173.61 -4.85756 -1.13327 0
M  V30 12893 H 1172.76 -4.96515 -3.48652 0
M  V30 12894 H 1171.5 -3.75764 -3.1089 0
M  V30 12895 H 1170.5 -5.31434 -1.40918 0
M  V30 12896 H 1171.73 -6.54461 -1.81268 0
M  V30 12897 H 1169.68 -5.39113 -3.73755 0
M  V30 12898 H 1169.59 -6.94782 -2.98017 0
M  V30 12899 H 1170.86 -6.61592 -4.12209 0
M  V30 12900 N 1175.09 0.086862 -1.5736 0
M  V30 12901 C 1176.33 0.794358 -1.88333 0
M  V30 12902 C 1176.69 1.75496 -0.778783 0
M  V30 12903 O 1177.89 2.50643 -0.971152 0
M  V30 12904 C 1176.17 1.49686 -3.24544 0
M  V30 12905 S 1177.72 2.2415 -3.7723 0
M  V30 12906 H 1174.54 0.264479 -0.659979 0
M  V30 12907 H 1177.14 0.0511046 -1.95433 0
M  V30 12908 H 1175.85 0.783713 -4.02847 0
M  V30 12909 H 1175.38 2.27984 -3.20604 0
M  V30 12910 H 1177.39 3.50426 -3.51306 0
M  V30 12911 N 1176.57 1.53483 0.357892 0
M  V30 12912 C 1177.81 1.71233 1.09776 0
M  V30 12913 C 1178.17 0.462401 1.86761 0
M  V30 12914 O 1177.46 -0.544746 1.83693 0
M  V30 12915 C 1177.66 2.90654 2.07978 0
M  V30 12916 C 1177.48 4.27141 1.40644 0
M  V30 12917 C 1176.25 4.91868 1.15732 0
M  V30 12918 C 1178.45 5.07392 0.840118 0
M  V30 12919 N 1176.43 6.12261 0.448282 0
M  V30 12920 C 1177.81 6.19451 0.260863 0
M  V30 12921 C 1179.86 4.92377 0.739558 0
M  V30 12922 C 1178.56 7.18135 -0.409153 0
M  V30 12923 C 1180.59 5.91341 0.0833084 0
M  V30 12924 C 1179.95 7.02728 -0.485038 0
M  V30 12925 H 1176.05 0.679764 0.386582 0
M  V30 12926 H 1178.63 1.90893 0.383158 0
M  V30 12927 H 1176.81 2.7252 2.76744 0
M  V30 12928 H 1178.54 2.97192 2.74698 0
M  V30 12929 H 1175.29 4.51157 1.44064 0
M  V30 12930 H 1175.72 6.76912 0.108905 0
M  V30 12931 H 1180.36 4.06441 1.16472 0
M  V30 12932 H 1178.08 8.03657 -0.846247 0
M  V30 12933 H 1181.66 5.818 0.00632482 0
M  V30 12934 H 1180.54 7.77992 -0.984802 0
M  V30 12935 N 1178.05 -0.61812 1.44973 0
M  V30 12936 C 1179.32 -1.37705 1.38913 0
M  V30 12937 C 1179.7 -2.1103 0.054385 0
M  V30 12938 O 1179.05 -2.07197 -0.963409 0
M  V30 12939 C 1179.26 -2.33265 2.59593 0
M  V30 12940 C 1180.61 -2.96197 3.04224 0
M  V30 12941 O 1181.63 -2.43589 2.59891 0
M  V30 12942 O 1180.49 -3.91666 3.8113 0
M  V30 12943 H 1177.59 -0.61694 0.55074 0
M  V30 12944 H 1180.13 -0.642088 1.57084 0
M  V30 12945 H 1178.9 -1.78271 3.48332 0
M  V30 12946 H 1178.53 -3.14158 2.43702 0
M  V30 12947 N 1179.52 -1.32087 -0.859693 0
M  V30 12948 C 1180.75 -1.25167 -1.64368 0
M  V30 12949 C 1181.16 0.183572 -1.88307 0
M  V30 12950 O 1180.5 1.12945 -1.44876 0
M  V30 12951 C 1180.57 -1.93641 -3.02892 0
M  V30 12952 C 1180.23 -3.4298 -3.02017 0
M  V30 12953 C 1181.23 -4.38551 -2.79229 0
M  V30 12954 C 1178.91 -3.84835 -3.22812 0
M  V30 12955 C 1180.91 -5.73952 -2.77232 0
M  V30 12956 C 1178.59 -5.20346 -3.20442 0
M  V30 12957 C 1179.59 -6.14716 -2.97681 0
M  V30 12958 O 1179.28 -7.47748 -2.95175 0
M  V30 12959 H 1179.01 -0.433327 -0.518848 0
M  V30 12960 H 1181.57 -1.7468 -1.08055 0
M  V30 12961 H 1179.8 -1.3869 -3.60974 0
M  V30 12962 H 1181.48 -1.80497 -3.63559 0
M  V30 12963 H 1182.25 -4.07542 -2.62935 0
M  V30 12964 H 1178.13 -3.11806 -3.39555 0
M  V30 12965 H 1181.67 -6.47584 -2.59385 0
M  V30 12966 H 1177.57 -5.50987 -3.36279 0
M  V30 12967 H 1178.34 -7.57046 -3.11165 0
M  V30 12968 N 1181 1.07532 -1.15215 0
M  V30 12969 C 1181.95 2.14687 -0.847243 0
M  V30 12970 C 1182.92 1.64903 0.199043 0
M  V30 12971 O 1184.1 1.90682 0.0669986 0
M  V30 12972 C 1181.24 3.43414 -0.340673 0
M  V30 12973 C 1180.36 4.06999 -1.44831 0
M  V30 12974 C 1179.49 5.23554 -0.898059 0
M  V30 12975 C 1178.53 5.79097 -1.98276 0
M  V30 12976 N 1177.67 6.86985 -1.44902 0
M  V30 12977 H 1182.51 2.4011 -1.76498 0
M  V30 12978 H 1180.04 1.17823 -0.880689 0
M  V30 12979 H 1182 4.1719 -0.0286956 0
M  V30 12980 H 1180.63 3.18249 0.540144 0
M  V30 12981 H 1179.68 3.30895 -1.87651 0
M  V30 12982 H 1181 4.44289 -2.26735 0
M  V30 12983 H 1180.15 6.04305 -0.538514 0
M  V30 12984 H 1178.89 4.87676 -0.0481752 0
M  V30 12985 H 1177.89 4.96992 -2.35115 0
M  V30 12986 H 1179.12 6.1703 -2.83639 0
M  V30 12987 H 1177.07 6.5305 -0.621468 0
M  V30 12988 H 1176.98 7.23149 -2.20434 0
M  V30 12989 H 1178.25 7.71446 -1.11767 0
M  V30 12990 N 1182.48 0.948665 1.2585 0
M  V30 12991 C 1183.89 0.641829 1.75321 0
M  V30 12992 C 1184.24 -0.842903 1.77171 0
M  V30 12993 O 1183.37 -1.65967 1.38867 0
M  V30 12994 C 1183.96 1.15835 3.18383 0
M  V30 12995 C 1182.52 0.901784 3.65438 0
M  V30 12996 C 1181.67 1.30489 2.44679 0
M  V30 12997 H 1184.62 1.12614 1.1182 0
M  V30 12998 H 1184.64 0.515639 3.7699 0
M  V30 12999 H 1184.15 2.23897 3.17004 0
M  V30 13000 H 1182.25 -0.164135 3.72238 0
M  V30 13001 H 1182.37 1.53405 4.53876 0
M  V30 13002 H 1180.73 0.723278 2.44215 0
M  V30 13003 H 1181.51 2.3946 2.45996 0
M  V30 13004 N 1183.96 -1.40369 0.716545 0
M  V30 13005 C 1184.87 -2.34508 0.065658 0
M  V30 13006 C 1185.88 -1.57352 -0.742723 0
M  V30 13007 O 1187.06 -1.89735 -0.675456 0
M  V30 13008 C 1184.13 -3.36262 -0.844337 0
M  V30 13009 C 1183.19 -4.29292 -0.0257971 0
M  V30 13010 C 1182.42 -5.26185 -0.892452 0
M  V30 13011 O 1182.64 -5.29071 -2.13166 0
M  V30 13012 O 1181.58 -6.0099 -0.330933 0
M  V30 13013 H 1185.4 -2.91789 0.842184 0
M  V30 13014 H 1182.99 -1.41579 0.477034 0
M  V30 13015 H 1184.87 -3.98661 -1.36555 0
M  V30 13016 H 1183.54 -2.81393 -1.59999 0
M  V30 13017 H 1182.45 -3.70175 0.540512 0
M  V30 13018 H 1183.78 -4.87316 0.69166 0
M  V30 13019 N 1185.44 -0.462799 -1.50652 0
M  V30 13020 C 1186.38 0.349784 -2.29955 0
M  V30 13021 C 1187.38 0.997947 -1.36885 0
M  V30 13022 O 1188.58 0.93 -1.54114 0
M  V30 13023 H 1184.96 0.131635 -0.740389 0
M  V30 13024 H 1186.93 -0.33958 -2.96461 0
M  V30 13025 C 1185.68 1.42398 -3.17204 0
M  V30 13026 H 1185 0.934611 -3.88722 0
M  V30 13027 H 1186.44 1.96528 -3.75703 0
M  V30 13028 C 1184.9 2.42135 -2.34248 0
M  V30 13029 O 1185.43 3.47229 -2.01978 0
M  V30 13030 N 1183.64 2.13647 -1.96985 0
M  V30 13031 H 1183.18 1.28209 -2.23428 0
M  V30 13032 H 1183.14 2.80615 -1.41783 0
M  V30 13033 N 1186.91 1.56388 -0.195085 0
M  V30 13034 C 1188.33 1.58788 0.160758 0
M  V30 13035 C 1188.53 1.21125 1.61031 0
M  V30 13036 O 1187.59 0.933994 2.34591 0
M  V30 13037 C 1188.9 3.00366 -0.141588 0
M  V30 13038 C 1190.45 3.12893 -0.0816947 0
M  V30 13039 C 1190.92 4.56604 -0.35735 0
M  V30 13040 N 1192.41 4.62188 -0.305968 0
M  V30 13041 C 1193.15 5.71276 -0.493108 0
M  V30 13042 N 1192.64 6.8883 -0.740595 0
M  V30 13043 N 1194.44 5.60473 -0.427365 0
M  V30 13044 H 1186.59 1.79151 -1.14099 0
M  V30 13045 H 1188.85 0.831446 -0.455413 0
M  V30 13046 H 1188.56 3.32483 -1.14666 0
M  V30 13047 H 1188.43 3.73082 0.555834 0
M  V30 13048 H 1190.82 2.80589 0.913978 0
M  V30 13049 H 1190.9 2.42564 -0.812193 0
M  V30 13050 H 1190.54 4.8962 -1.35034 0
M  V30 13051 H 1190.47 5.25124 0.394036 0
M  V30 13052 H 1192.96 3.77705 -0.121298 0
M  V30 13053 H 1193.28 7.67862 -0.872201 0
M  V30 13054 H 1191.62 6.90637 -0.777488 0
M  V30 13055 H 1194.81 4.67513 -0.234436 0
M  V30 13056 H 1194.99 6.45429 -0.576627 0
M  V30 13057 N 1188.39 -0.0785156 1.57404 0
M  V30 13058 C 1189.8 -0.631132 1.75709 0
M  V30 13059 C 1190.15 -1.78261 0.819605 0
M  V30 13060 O 1189.28 -2.164 0.00206912 0
M  V30 13061 C 1189.87 -1.15168 3.18625 0
M  V30 13062 C 1188.43 -1.65021 3.38297 0
M  V30 13063 C 1187.58 -0.566773 2.71446 0
M  V30 13064 H 1190.53 0.147631 1.58012 0
M  V30 13065 H 1190.55 -2.02065 3.22413 0
M  V30 13066 H 1190.06 -0.313399 3.86833 0
M  V30 13067 H 1188.17 -2.51196 2.75194 0
M  V30 13068 H 1188.28 -1.73179 4.46706 0
M  V30 13069 H 1186.64 -1.01021 2.33809 0
M  V30 13070 H 1187.43 0.261204 3.42305 0
M  V30 13071 N 1189.87 -1.5367 -0.349747 0
M  V30 13072 C 1190.82 -1.81223 -1.42922 0
M  V30 13073 C 1191.79 -0.657536 -1.52531 0
M  V30 13074 O 1192.97 -0.90134 -1.68168 0
M  V30 13075 C 1190.11 -2.022 -2.79659 0
M  V30 13076 C 1189.23 -3.29915 -2.78891 0
M  V30 13077 C 1188.36 -3.40993 -4.07305 0
M  V30 13078 C 1187.4 -4.6268 -4.00741 0
M  V30 13079 N 1186.54 -4.70826 -5.20833 0
M  V30 13080 H 1191.38 -2.73328 -1.18727 0
M  V30 13081 H 1188.91 -1.35386 -0.57525 0
M  V30 13082 H 1190.87 -2.12351 -3.59114 0
M  V30 13083 H 1189.5 -1.13416 -3.0222 0
M  V30 13084 H 1188.55 -3.28637 -1.91577 0
M  V30 13085 H 1189.87 -4.19459 -2.69917 0
M  V30 13086 H 1189.02 -3.50542 -4.95182 0
M  V30 13087 H 1187.76 -2.49493 -4.19052 0
M  V30 13088 H 1186.76 -4.53215 -3.11249 0
M  V30 13089 H 1187.99 -5.55538 -3.90582 0
M  V30 13090 H 1185.93 -3.82233 -5.33136 0
M  V30 13091 H 1185.85 -5.54297 -5.14092 0
M  V30 13092 H 1187.12 -4.84677 -6.10499 0
M  V30 13093 N 1191.35 0.610423 -1.45298 0
M  V30 13094 C 1192.6 1.36951 -1.49167 0
M  V30 13095 C 1192.92 1.9405 -0.132292 0
M  V30 13096 O 1192.18 1.75363 0.868686 0
M  V30 13097 C 1192.48 2.53812 -2.51623 0
M  V30 13098 C 1192.14 2.14877 -3.96407 0
M  V30 13099 C 1190.81 2.03972 -4.35831 0
M  V30 13100 C 1193.16 1.84448 -4.87472 0
M  V30 13101 C 1190.49 1.60856 -5.64218 0
M  V30 13102 C 1192.84 1.42818 -6.16268 0
M  V30 13103 C 1191.5 1.3047 -6.54625 0
M  V30 13104 H 1190.77 0.501138 -0.54584 0
M  V30 13105 H 1193.42 0.690221 -1.78629 0
M  V30 13106 H 1191.72 3.27066 -2.1572 0
M  V30 13107 H 1193.42 3.12041 -2.51856 0
M  V30 13108 H 1190.01 2.2429 -3.65229 0
M  V30 13109 H 1194.19 1.91771 -4.57753 0
M  V30 13110 H 1189.45 1.49916 -5.92735 0
M  V30 13111 H 1193.62 1.18318 -6.86275 0
M  V30 13112 H 1191.25 0.968347 -7.54007 0
M  V30 13113 N 1192.83 1.32541 0.852676 0
M  V30 13114 C 1194.05 1.2636 1.64462 0
M  V30 13115 C 1194.48 -0.16508 1.87374 0
M  V30 13116 O 1193.83 -1.11712 1.42794 0
M  V30 13117 C 1193.88 2.03052 2.97997 0
M  V30 13118 O 1192.99 1.37967 3.88637 0
M  V30 13119 H 1192.33 0.435393 0.501327 0
M  V30 13120 H 1194.86 1.74888 1.06186 0
M  V30 13121 H 1194.87 2.133 3.47803 0
M  V30 13122 H 1193.54 3.06941 2.80642 0
M  V30 13123 H 1192.12 1.36279 3.47106 0
M  V30 13124 N 1194.3 -1.0692 1.15784 0
M  V30 13125 C 1195.21 -2.17762 0.872753 0
M  V30 13126 C 1196.23 -1.73329 -0.152608 0
M  V30 13127 O 1197.41 -2.01387 0.022519 0
M  V30 13128 C 1194.47 -3.4471 0.370887 0
M  V30 13129 C 1193.53 -4.03686 1.46069 0
M  V30 13130 C 1192.77 -5.24575 0.982675 0
M  V30 13131 O 1192.99 -5.70146 -0.17006 0
M  V30 13132 O 1191.92 -5.7534 1.76828 0
M  V30 13133 H 1195.75 -2.44648 1.79948 0
M  V30 13134 H 1193.33 -1.1634 0.937303 0
M  V30 13135 H 1195.22 -4.21287 0.0976779 0
M  V30 13136 H 1193.89 -3.19366 -0.527912 0
M  V30 13137 H 1192.8 -3.28629 1.78756 0
M  V30 13138 H 1194.13 -4.33312 2.33456 0
M  V30 13139 N 1195.78 -0.955326 -1.25345 0
M  V30 13140 C 1196.71 -0.494145 -2.28211 0
M  V30 13141 C 1197.69 0.459875 -1.63766 0
M  V30 13142 O 1198.88 0.358679 -1.90859 0
M  V30 13143 C 1196.01 0.228228 -3.46549 0
M  V30 13144 C 1194.96 -0.640601 -4.23179 0
M  V30 13145 C 1194.29 0.212553 -5.34277 0
M  V30 13146 C 1195.59 -1.91906 -4.85767 0
M  V30 13147 H 1197.28 -1.35391 -2.67039 0
M  V30 13148 H 1194.83 -0.652462 -1.2837 0
M  V30 13149 H 1196.78 0.561995 -4.17636 0
M  V30 13150 H 1195.51 1.12224 -3.06714 0
M  V30 13151 H 1194.16 -0.957462 -3.53876 0
M  V30 13152 H 1193.81 1.10634 -4.90682 0
M  V30 13153 H 1193.51 -0.365473 -5.86462 0
M  V30 13154 H 1195.04 0.541271 -6.08196 0
M  V30 13155 H 1196.45 -1.65165 -5.48993 0
M  V30 13156 H 1194.85 -2.44279 -5.48131 0
M  V30 13157 H 1195.92 -2.62173 -4.07914 0
M  V30 13158 N 1197.26 1.39987 -0.723979 0
M  V30 13159 C 1198.19 2.2917 -0.0373445 0
M  V30 13160 C 1199.21 1.46258 0.715015 0
M  V30 13161 O 1200.4 1.69455 0.561003 0
M  V30 13162 C 1197.5 3.2468 0.971384 0
M  V30 13163 C 1196.67 4.36485 0.282826 0
M  V30 13164 C 1195.73 5.12379 1.19811 0
M  V30 13165 O 1194.75 5.65127 0.67974 0
M  V30 13166 N 1195.96 5.22531 2.52866 0
M  V30 13167 H 1198.72 2.88738 -0.803131 0
M  V30 13168 H 1196.28 1.51448 -0.572292 0
M  V30 13169 H 1198.27 3.72326 1.58606 0
M  V30 13170 H 1196.84 2.6622 1.63846 0
M  V30 13171 H 1196.06 3.90859 -0.512167 0
M  V30 13172 H 1197.35 5.08427 -0.194793 0
M  V30 13173 H 1196.75 4.81174 2.97469 0
M  V30 13174 H 1195.31 5.73655 3.09457 0
M  V30 13175 N 1198.74 0.470782 1.50404 0
M  V30 13176 C 1199.69 -0.32355 2.28521 0
M  V30 13177 C 1200.66 -0.987472 1.3356 0
M  V30 13178 O 1201.84 -0.999969 1.62497 0
M  V30 13179 C 1198.98 -1.39977 3.15437 0
M  V30 13180 C 1198.09 -0.750656 4.25428 0
M  V30 13181 C 1197.23 -1.80474 4.99602 0
M  V30 13182 C 1196.27 -1.13586 6.01469 0
M  V30 13183 N 1195.41 -2.13279 6.68922 0
M  V30 13184 H 1200.25 0.348902 2.9595 0
M  V30 13185 H 1197.78 0.183908 1.45946 0
M  V30 13186 H 1199.74 -2.0354 3.6418 0
M  V30 13187 H 1198.37 -2.04139 2.50054 0
M  V30 13188 H 1197.42 -0.00247092 3.804 0
M  V30 13189 H 1198.73 -0.222638 4.98303 0
M  V30 13190 H 1197.89 -2.51619 5.52062 0
M  V30 13191 H 1196.63 -2.36657 4.26433 0
M  V30 13192 H 1195.63 -0.410042 5.48269 0
M  V30 13193 H 1196.86 -0.580935 6.76611 0
M  V30 13194 H 1194.8 -2.68479 5.98544 0
M  V30 13195 H 1194.72 -1.65461 7.37671 0
M  V30 13196 H 1195.99 -2.83804 7.26 0
M  V30 13197 N 1200.22 -1.56282 0.203376 0
M  V30 13198 C 1201.13 -2.23086 -0.725922 0
M  V30 13199 C 1202.14 -1.23258 -1.22814 0
M  V30 13200 O 1203.32 -1.5602 -1.27357 0
M  V30 13201 C 1200.38 -2.88358 -1.92485 0
M  V30 13202 C 1199.45 -4.03479 -1.46639 0
M  V30 13203 C 1198.68 -4.65629 -2.60816 0
M  V30 13204 O 1198.9 -4.2672 -3.78506 0
M  V30 13205 O 1197.84 -5.54949 -2.33056 0
M  V30 13206 H 1201.66 -3.03124 -0.18694 0
M  V30 13207 H 1199.25 -1.49377 -0.0262829 0
M  V30 13208 H 1201.13 -3.29623 -2.62539 0
M  V30 13209 H 1199.8 -2.11294 -2.45228 0
M  V30 13210 H 1198.71 -3.66821 -0.734396 0
M  V30 13211 H 1200.04 -4.82232 -0.985535 0
M  V30 13212 N 1201.7 0.070167 -1.57444 0
M  V30 13213 C 1202.63 1.08351 -2.06839 0
M  V30 13214 C 1203.61 1.40269 -0.962224 0
M  V30 13215 O 1204.79 1.49867 -1.23505 0
M  V30 13216 C 1201.92 2.39649 -2.51368 0
M  V30 13217 C 1200.88 2.22079 -3.65875 0
M  V30 13218 C 1200.2 3.58776 -3.96464 0
M  V30 13219 C 1201.5 1.64069 -4.95862 0
M  V30 13220 H 1203.2 0.672465 -2.9175 0
M  V30 13221 H 1200.74 0.322027 -1.40353 0
M  V30 13222 H 1202.69 3.10833 -2.84537 0
M  V30 13223 H 1201.42 2.82736 -1.63487 0
M  V30 13224 H 1200.08 1.53337 -3.32992 0
M  V30 13225 H 1199.73 3.99436 -3.05712 0
M  V30 13226 H 1199.43 3.47859 -4.7357 0
M  V30 13227 H 1200.95 4.31387 -4.32131 0
M  V30 13228 H 1202.36 2.2512 -5.27251 0
M  V30 13229 H 1200.76 1.63843 -5.773 0
M  V30 13230 H 1201.83 0.60232 -4.81145 0
M  V30 13231 N 1203.17 1.53854 0.341593 0
M  V30 13232 C 1204.4 1.75134 1.10162 0
M  V30 13233 C 1204.82 0.491415 1.82292 0
M  V30 13234 O 1204.17 -0.53703 1.7442 0
M  V30 13235 C 1204.22 2.93273 2.1136 0
M  V30 13236 O 1203.95 4.14393 1.42162 0
M  V30 13237 C 1205.45 3.26621 2.99723 0
M  V30 13238 H 1202.67 0.585126 0.328434 0
M  V30 13239 H 1205.21 2.00684 0.393204 0
M  V30 13240 H 1203.37 2.70048 2.77764 0
M  V30 13241 H 1203.78 4.8072 2.09783 0
M  V30 13242 H 1205.25 4.12629 3.66662 0
M  V30 13243 H 1205.73 2.43008 3.65847 0
M  V30 13244 H 1206.34 3.51858 2.38906 0
M  V30 13245 N 1204.65 -0.602709 1.4562 0
M  V30 13246 C 1205.9 -1.35769 1.49163 0
M  V30 13247 C 1206.21 -1.95102 0.139485 0
M  V30 13248 O 1207.42 -2.71449 0.0525919 0
M  V30 13249 C 1205.88 -2.45959 2.62739 0
M  V30 13250 C 1205.48 -1.93017 4.04288 0
M  V30 13251 C 1207.23 -3.22926 2.75534 0
M  V30 13252 C 1205.13 -3.00718 5.09237 0
M  V30 13253 H 1204.06 -0.510317 0.555061 0
M  V30 13254 H 1206.72 -0.645434 1.71774 0
M  V30 13255 H 1205.1 -3.19892 2.3342 0
M  V30 13256 H 1206.27 -1.2576 4.43307 0
M  V30 13257 H 1204.59 -1.2878 3.95986 0
M  V30 13258 H 1207.18 -4.03267 3.51112 0
M  V30 13259 H 1207.53 -3.74243 1.82339 0
M  V30 13260 H 1208.06 -2.56095 3.04402 0
M  V30 13261 H 1204.8 -2.54312 6.04157 0
M  V30 13262 H 1204.32 -3.66526 4.74783 0
M  V30 13263 H 1206 -3.65016 5.34202 0
M  V30 13264 N 1206.13 -1.32992 -0.845635 0
M  V30 13265 C 1207.38 -1.23415 -1.59536 0
M  V30 13266 C 1207.69 0.200278 -1.94572 0
M  V30 13267 O 1208.9 0.417993 -2.68263 0
M  V30 13268 C 1207.35 -2.16207 -2.8772 0
M  V30 13269 C 1206.96 -3.64782 -2.60073 0
M  V30 13270 C 1208.71 -2.15488 -3.65739 0
M  V30 13271 C 1206.61 -4.49508 -3.84313 0
M  V30 13272 H 1205.54 -0.458366 -0.598679 0
M  V30 13273 H 1208.19 -1.58012 -0.932981 0
M  V30 13274 H 1206.58 -1.74535 -3.55462 0
M  V30 13275 H 1207.75 -4.14852 -2.00585 0
M  V30 13276 H 1206.06 -3.67723 -1.95369 0
M  V30 13277 H 1208.66 -2.76021 -4.57948 0
M  V30 13278 H 1209 -1.14818 -4.00153 0
M  V30 13279 H 1209.54 -2.55487 -3.04912 0
M  V30 13280 H 1206.28 -5.51027 -3.55035 0
M  V30 13281 H 1205.8 -4.04185 -4.43165 0
M  V30 13282 H 1207.48 -4.62969 -4.51961 0
M  V30 13283 N 1207.61 1.06304 -1.1635 0
M  V30 13284 C 1208.55 2.13776 -0.869965 0
M  V30 13285 C 1209.52 1.65105 0.181541 0
M  V30 13286 O 1210.71 1.90743 0.0467705 0
M  V30 13287 C 1207.85 3.43034 -0.377077 0
M  V30 13288 C 1206.96 4.0544 -1.4914 0
M  V30 13289 C 1206.1 5.22572 -0.953538 0
M  V30 13290 C 1205.14 5.76961 -2.04407 0
M  V30 13291 N 1204.27 6.85409 -1.52181 0
M  V30 13292 H 1209.11 2.38224 -1.79034 0
M  V30 13293 H 1206.65 1.16882 -0.893136 0
M  V30 13294 H 1208.61 4.17136 -0.0729426 0
M  V30 13295 H 1207.24 3.18804 0.506359 0
M  V30 13296 H 1206.29 3.28886 -1.9115 0
M  V30 13297 H 1207.6 4.41859 -2.31434 0
M  V30 13298 H 1206.76 6.037 -0.602579 0
M  V30 13299 H 1205.5 4.87598 -0.099897 0
M  V30 13300 H 1204.5 4.9447 -2.40373 0
M  V30 13301 H 1205.73 6.13987 -2.90167 0
M  V30 13302 H 1203.67 6.52354 -0.690697 0
M  V30 13303 H 1203.59 7.2077 -2.28092 0
M  V30 13304 H 1204.86 7.70217 -1.19942 0
M  V30 13305 N 1209.09 0.96196 1.24836 0
M  V30 13306 C 1210.5 0.667561 1.44968 0
M  V30 13307 C 1210.7 -0.772521 1.86103 0
M  V30 13308 O 1209.76 -1.54704 1.99557 0
M  V30 13309 C 1211.07 1.64675 2.516 0
M  V30 13310 C 1212.62 1.65874 2.65433 0
M  V30 13311 C 1213.09 2.62576 3.75257 0
M  V30 13312 N 1214.58 2.60984 3.82677 0
M  V30 13313 C 1215.32 3.32484 4.67163 0
M  V30 13314 N 1214.82 4.13482 5.55882 0
M  V30 13315 N 1216.61 3.21336 4.61193 0
M  V30 13316 H 1208.76 1.89248 0.964307 0
M  V30 13317 H 1211.02 0.814443 0.485167 0
M  V30 13318 H 1210.73 2.67572 2.2825 0
M  V30 13319 H 1210.6 1.415 3.49653 0
M  V30 13320 H 1212.99 0.636912 2.88145 0
M  V30 13321 H 1213.07 1.9311 1.67756 0
M  V30 13322 H 1212.71 3.6489 3.53295 0
M  V30 13323 H 1212.64 2.32622 4.72435 0
M  V30 13324 H 1215.14 2.02187 3.19263 0
M  V30 13325 H 1215.45 4.6494 6.17293 0
M  V30 13326 H 1213.79 4.17578 5.55566 0
M  V30 13327 H 1216.98 2.57524 3.90895 0
M  V30 13328 H 1217.16 3.77323 5.26812 0
M  V30 13329 N 1210.56 -1.39601 0.731392 0
M  V30 13330 C 1211.51 -2.30628 0.0890606 0
M  V30 13331 C 1212.48 -1.49025 -0.73353 0
M  V30 13332 O 1213.67 -1.77722 -0.694234 0
M  V30 13333 C 1210.81 -3.35339 -0.814956 0
M  V30 13334 C 1209.92 -4.31995 0.0198606 0
M  V30 13335 C 1209.05 -5.23774 -0.885095 0
M  V30 13336 C 1208.09 -6.12083 -0.045311 0
M  V30 13337 N 1207.23 -6.9623 -0.906002 0
M  V30 13338 H 1212.07 -2.84988 0.870958 0
M  V30 13339 H 1209.61 -1.40329 0.441166 0
M  V30 13340 H 1211.56 -3.94634 -1.3535 0
M  V30 13341 H 1210.19 -2.82443 -1.56287 0
M  V30 13342 H 1209.25 -3.74349 0.675778 0
M  V30 13343 H 1210.56 -4.94289 0.669346 0
M  V30 13344 H 1209.71 -5.88078 -1.49161 0
M  V30 13345 H 1208.45 -4.61794 -1.56837 0
M  V30 13346 H 1207.46 -5.46795 0.574028 0
M  V30 13347 H 1208.68 -6.76128 0.634692 0
M  V30 13348 H 1206.63 -6.36821 -1.57463 0
M  V30 13349 H 1206.54 -7.55352 -0.312914 0
M  V30 13350 H 1207.81 -7.64967 -1.49819 0
M  V30 13351 N 1212.04 -0.478751 -1.50152 0
M  V30 13352 C 1212.97 0.301182 -2.31549 0
M  V30 13353 C 1213.95 0.983276 -1.38801 0
M  V30 13354 O 1215.14 0.978973 -1.67719 0
M  V30 13355 C 1212.27 1.3791 -3.18745 0
M  V30 13356 C 1211.22 0.818175 -4.20107 0
M  V30 13357 C 1210.55 1.99496 -4.9609 0
M  V30 13358 C 1211.85 -0.17574 -5.22004 0
M  V30 13359 H 1213.54 -0.378188 -2.97002 0
M  V30 13360 H 1211.09 -0.183323 -1.42828 0
M  V30 13361 H 1213.04 1.93227 -3.74488 0
M  V30 13362 H 1211.77 2.08735 -2.51192 0
M  V30 13363 H 1210.42 0.286924 -3.65475 0
M  V30 13364 H 1210.07 2.69036 -4.25004 0
M  V30 13365 H 1209.77 1.62582 -5.6466 0
M  V30 13366 H 1211.3 2.55288 -5.54671 0
M  V30 13367 H 1212.71 0.288513 -5.72574 0
M  V30 13368 H 1211.11 -0.459549 -5.98338 0
M  V30 13369 H 1212.18 -1.09911 -4.72279 0
M  V30 13370 N 1213.52 1.56172 -0.211661 0
M  V30 13371 C 1214.75 2.02428 0.427843 0
M  V30 13372 C 1215.16 1.09162 1.54043 0
M  V30 13373 O 1214.52 0.0994249 1.82229 0
M  V30 13374 C 1214.57 3.48279 0.968728 0
M  V30 13375 O 1214.29 4.37987 -0.0994841 0
M  V30 13376 C 1215.79 4.10132 1.68246 0
M  V30 13377 H 1213.01 0.662611 0.10577 0
M  V30 13378 H 1215.56 2.01897 -0.32522 0
M  V30 13379 H 1213.71 3.49456 1.6721 0
M  V30 13380 H 1214.13 5.23609 0.305558 0
M  V30 13381 H 1215.6 5.13985 2.01304 0
M  V30 13382 H 1216.08 3.54552 2.5921 0
M  V30 13383 H 1216.68 4.12775 1.02453 0
M  V30 13384 O 1215.04 0.0750807 1.61325 0
M  V30 13385 H 1215.73 -0.530633 1.8629 0
M  V30 END ATOM
M  V30 BEGIN BOND
M  V30 END BOND
M  V30 END CTAB
M  END
$$$$
