drugbank_target|P16640 Putidaredoxin reductase (DB03147)
 OpenBabel12092120263D

  0  0  0     0  0            999 V3000
M  V30 BEGIN CTAB
M  V30 COUNTS 6442 6496 0 0 0
M  V30 BEGIN ATOM
M  V30 1 H -0.908 1.98254 -0.117106 0
M  V30 2 N 0 1.576 0 0
M  V30 3 C 0.933 2.03868 1.02534 0
M  V30 4 C 1.911 0.928543 1.3348 0
M  V30 5 O 3.095 1.19667 1.45644 0
M  V30 6 C 0.222 2.43627 2.35294 0
M  V30 7 C -0.732 3.65373 2.2001 0
M  V30 8 S 0.101 5.13292 1.52614 0
M  V30 9 C 1.257 5.56322 2.86805 0
M  V30 10 H 1.49 2.90518 0.631377 0
M  V30 11 H -0.977 1.52953 0.210867 0
M  V30 12 H 0.981 2.67203 3.11629 0
M  V30 13 H -0.358 1.57376 2.7183 0
M  V30 14 H -1.165 3.90944 3.18086 0
M  V30 15 H -1.563 3.418 1.51819 0
M  V30 16 H 0.729 5.58782 3.83104 0
M  V30 17 H 1.672 6.56266 2.65933 0
M  V30 18 H 2.08 4.83886 2.90714 0
M  V30 19 N 1.4781 -0.272755 1.55222 0
M  V30 20 C 2.4261 -1.35705 1.88909 0
M  V30 21 C 3.4201 -1.5112 0.765456 0
M  V30 22 O 4.6261 -1.52901 0.949802 0
M  V30 23 H 1.0011 -0.453868 0.59959 0
M  V30 24 H 2.9721 -1.04544 2.79487 0
M  V30 25 C 1.7211 -2.71049 2.17779 0
M  V30 26 H 1.0441 -2.59979 3.03728 0
M  V30 27 H 2.4841 -3.45858 2.45272 0
M  V30 28 C 0.9431 -3.22165 0.985473 0
M  V30 29 O 1.4731 -4.01096 0.220233 0
M  V30 30 N -0.3209 -2.7985 0.783108 0
M  V30 31 H -0.7739 -2.15775 1.40708 0
M  V30 32 H -0.8159 -3.14397 -0.0130392 0
M  V30 33 N 2.9562 -1.48159 -0.537278 0
M  V30 34 C 3.9192 -1.61665 -1.62472 0
M  V30 35 C 4.9192 -0.490395 -1.5314 0
M  V30 36 O 6.1092 -0.755998 -1.5694 0
M  V30 37 C 3.2412 -1.57997 -3.02076 0
M  V30 38 H 4.4342 -2.58621 -1.51839 0
M  V30 39 H 1.9872 -1.36647 -0.758771 0
M  V30 40 H 2.7222 -0.624913 -3.18222 0
M  V30 41 H 2.5072 -2.39755 -3.10258 0
M  V30 42 H 3.9972 -1.70627 -3.81151 0
M  V30 43 N 4.4343 0.785586 -1.36625 0
M  V30 44 C 5.3823 1.91978 -1.31329 0
M  V30 45 C 6.3763 1.68162 -0.204416 0
M  V30 46 O 7.5823 1.76122 -0.371645 0
M  V30 47 H 3.9573 0.631087 -0.408942 0
M  V30 48 H 5.9283 1.93562 -2.27104 0
M  V30 49 C 4.6773 3.29055 -1.12329 0
M  V30 50 H 4.0003 3.4795 -1.96903 0
M  V30 51 H 5.4403 4.08756 -1.12671 0
M  V30 52 C 3.8993 3.36461 0.171861 0
M  V30 53 O 4.4293 3.84576 1.16035 0
M  V30 54 N 2.6353 2.89782 0.217846 0
M  V30 55 H 2.1823 2.50819 -0.587183 0
M  V30 56 H 2.1403 2.95119 1.08408 0
M  V30 57 N 5.9124 1.20967 1.01018 0
M  V30 58 C 7.1894 0.93264 1.71934 0
M  V30 59 C 7.5694 -0.55692 2.03621 0
M  V30 60 O 6.9174 -1.52035 1.7058 0
M  V30 61 C 7.1274 1.81233 2.98254 0
M  V30 62 C 8.4754 2.05804 3.71389 0
M  V30 63 O 9.4994 1.78539 3.08225 0
M  V30 64 O 8.3584 2.51888 4.84989 0
M  V30 65 H 5.4524 0.349272 0.749625 0
M  V30 66 H 7.9984 1.31871 1.06808 0
M  V30 67 H 6.7704 2.82067 2.71208 0
M  V30 68 H 6.3934 1.42674 3.7112 0
M  V30 69 N 7.3905 -1.2043 1.01659 0
M  V30 70 C 8.3385 -2.25249 0.580143 0
M  V30 71 C 9.3325 -1.65057 -0.381115 0
M  V30 72 O 10.5385 -1.78241 -0.251039 0
M  V30 73 H 6.9135 -0.732695 0.169299 0
M  V30 74 H 8.8845 -2.59389 1.47512 0
M  V30 75 C 7.6335 -3.47638 -0.065788 0
M  V30 76 H 6.9565 -3.94233 0.664874 0
M  V30 77 H 8.3965 -4.2268 -0.334282 0
M  V30 78 C 6.8555 -3.10447 -1.3086 0
M  V30 79 O 7.3855 -3.21981 -2.4019 0
M  V30 80 N 5.5915 -2.64996 -1.1927 0
M  V30 81 H 5.1385 -2.55811 -0.303064 0
M  V30 82 H 5.0965 -2.40482 -2.02523 0
M  V30 83 N 8.8686 -0.792821 -1.36206 0
M  V30 84 C 10.1146 -0.36733 -1.99446 0
M  V30 85 C 10.4476 1.05917 -1.62774 0
M  V30 86 O 9.7226 1.7324 -0.88421 0
M  V30 87 C 10.0056 -0.535044 -3.56103 0
M  V30 88 C 9.8586 -2.00548 -4.02617 0
M  V30 89 C 11.1776 0.0478191 -4.40074 0
M  V30 90 H 8.2966 -0.134941 -0.724541 0
M  V30 91 H 10.9386 -0.999794 -1.61568 0
M  V30 92 H 9.0886 0.00336329 -3.885 0
M  V30 93 H 10.7606 -2.60521 -3.80692 0
M  V30 94 H 9.0036 -2.50686 -3.54032 0
M  V30 95 H 9.6746 -2.07377 -5.11565 0
M  V30 96 H 12.1506 -0.411822 -4.14057 0
M  V30 97 H 11.0266 -0.0995336 -5.4881 0
M  V30 98 H 11.2876 1.14025 -4.27142 0
M  V30 99 N 10.3467 1.47872 -0.545128 0
M  V30 100 C 11.5927 2.02793 -0.0166104 0
M  V30 101 C 11.9257 1.41987 1.32489 0
M  V30 102 O 11.2007 0.571045 1.85928 0
M  V30 103 C 11.4837 3.59989 0.0893294 0
M  V30 104 C 11.3367 4.3125 -1.27841 0
M  V30 105 C 12.6557 4.32606 0.808724 0
M  V30 106 H 9.7747 0.736962 -0.00751035 0
M  V30 107 H 12.4167 1.76433 -0.705085 0
M  V30 108 H 10.5667 3.82579 0.675681 0
M  V30 109 H 12.2387 4.20035 -1.90704 0
M  V30 110 H 10.4817 3.92076 -1.85632 0
M  V30 111 H 11.1527 5.39736 -1.15713 0
M  V30 112 H 13.6287 4.14936 0.310992 0
M  V30 113 H 12.5047 5.42251 0.851782 0
M  V30 114 H 12.7657 4.00963 1.86229 0
M  V30 115 N 11.8248 0.280983 1.55075 0
M  V30 116 C 13.0738 -0.334784 1.98902 0
M  V30 117 C 13.3868 -1.56534 1.17288 0
M  V30 118 O 14.5928 -2.25443 1.51287 0
M  V30 119 C 13.0488 -0.646994 3.54037 0
M  V30 120 C 12.6568 0.564085 4.44435 0
M  V30 121 C 14.4008 -1.22506 4.06439 0
M  V30 122 C 12.3078 0.226137 5.90967 0
M  V30 123 H 11.2378 -0.128866 0.742906 0
M  V30 124 H 13.8888 0.386556 1.79382 0
M  V30 125 H 12.2708 -1.42739 3.6938 0
M  V30 126 H 13.4448 1.34082 4.40861 0
M  V30 127 H 11.7598 1.0594 4.02698 0
M  V30 128 H 14.3568 -1.49182 5.13468 0
M  V30 129 H 14.6998 -2.16085 3.55827 0
M  V30 130 H 15.2328 -0.50682 3.94558 0
M  V30 131 H 11.9718 1.12996 6.45687 0
M  V30 132 H 11.4918 -0.513717 5.97596 0
M  V30 133 H 13.1708 -0.179539 6.46751 0
M  V30 134 N 13.3029 -1.57598 0.00835791 0
M  V30 135 C 14.5489 -1.91211 -0.675732 0
M  V30 136 C 14.8819 -0.883139 -1.72958 0
M  V30 137 O 14.1569 0.097016 -1.94258 0
M  V30 138 C 14.4399 -3.35379 -1.31123 0
M  V30 139 C 14.2929 -4.48999 -0.268356 0
M  V30 140 C 15.6119 -3.7912 -2.23508 0
M  V30 141 H 12.7309 -0.695374 -0.244179 0
M  V30 142 H 15.3729 -1.89901 0.0613655 0
M  V30 143 H 13.5229 -3.36626 -1.93946 0
M  V30 144 H 15.1949 -4.59887 0.360844 0
M  V30 145 H 13.4379 -4.31873 0.408482 0
M  V30 146 H 14.1089 -5.46851 -0.752218 0
M  V30 147 H 16.5849 -3.79477 -1.70693 0
M  V30 148 H 15.4609 -4.80729 -2.64936 0
M  V30 149 H 15.7219 -3.13455 -3.11766 0
M  V30 150 N 14.781 0.264519 -1.55364 0
M  V30 151 C 16.029 0.993021 -1.76021 0
M  V30 152 C 16.35 1.86511 -0.569099 0
M  V30 153 O 15.62 1.91438 0.415735 0
M  V30 154 H 14.2 0.369639 -0.649135 0
M  V30 155 H 16.862 0.286707 -1.9278 0
M  V30 156 H 15.958 1.62502 -2.66457 0
M  V30 157 N 16.2591 1.48442 0.529413 0
M  V30 158 C 17.4871 1.60151 1.30994 0
M  V30 159 C 17.9021 0.261985 1.86973 0
M  V30 160 O 17.2591 -0.748805 1.66431 0
M  V30 161 C 17.3101 2.64854 2.46038 0
M  V30 162 O 17.0311 3.93608 1.92365 0
M  V30 163 C 18.5321 2.87007 3.37849 0
M  V30 164 H 15.7521 0.539971 0.398338 0
M  V30 165 H 18.2961 1.94273 0.638597 0
M  V30 166 H 16.4511 2.33589 3.09055 0
M  V30 167 H 16.8651 4.51055 2.67675 0
M  V30 168 H 18.3391 3.64068 4.14919 0
M  V30 169 H 18.8161 1.95852 3.93114 0
M  V30 170 H 19.4221 3.19579 2.80623 0
M  V30 171 N 17.7372 -0.778329 1.37039 0
M  V30 172 C 18.9852 -1.53361 1.31623 0
M  V30 173 C 19.3062 -1.94739 -0.100831 0
M  V30 174 O 18.5762 -1.65797 -1.04347 0
M  V30 175 H 17.1562 -0.568794 0.484234 0
M  V30 176 H 19.8182 -0.926742 1.71457 0
M  V30 177 H 18.9142 -2.43606 1.95096 0
M  V30 178 N 19.2153 -1.21501 -1.00376 0
M  V30 179 C 20.1453 -0.999478 -2.11028 0
M  V30 180 C 21.1263 0.0759671 -1.6993 0
M  V30 181 O 22.3113 -0.0841106 -1.94018 0
M  V30 182 C 19.4413 -0.564709 -3.42678 0
M  V30 183 C 18.3953 -1.58486 -3.97576 0
M  V30 184 C 17.7213 -1.00628 -5.25146 0
M  V30 185 C 19.0213 -2.97204 -4.29496 0
M  V30 186 H 20.7153 -1.92495 -2.29317 0
M  V30 187 H 18.2613 -0.92693 -1.102 0
M  V30 188 H 20.2143 -0.401091 -4.19487 0
M  V30 189 H 18.9383 0.396411 -3.24185 0
M  V30 190 H 17.5973 -1.73606 -3.22888 0
M  V30 191 H 17.2453 -0.0368439 -5.02987 0
M  V30 192 H 16.9453 -1.68771 -5.62841 0
M  V30 193 H 18.4693 -0.854015 -6.04598 0
M  V30 194 H 19.8833 -2.8552 -4.97143 0
M  V30 195 H 18.2803 -3.62372 -4.78338 0
M  V30 196 H 19.3503 -3.47956 -3.3772 0
M  V30 197 N 20.6934 1.19889 -1.02296 0
M  V30 198 C 21.6564 2.21116 -0.603351 0
M  V30 199 C 22.6564 1.5738 0.329884 0
M  V30 200 O 23.8464 1.73802 0.117702 0
M  V30 201 C 20.9784 3.40696 0.117992 0
M  V30 202 H 22.1714 2.59754 -1.49893 0
M  V30 203 H 19.7244 1.33463 -0.813468 0
M  V30 204 H 20.4594 3.07569 1.0282 0
M  V30 205 H 20.2444 3.88188 -0.552511 0
M  V30 206 H 21.7344 4.15692 0.398696 0
M  V30 207 N 22.1715 0.800033 1.35784 0
M  V30 208 C 23.4195 0.376597 1.9856 0
M  V30 209 C 23.7405 -1.05812 1.63795 0
M  V30 210 O 23.0105 -1.73103 0.917171 0
M  V30 211 H 21.5905 0.136261 0.734467 0
M  V30 212 H 24.2525 1.02442 1.65806 0
M  V30 213 H 23.3485 0.477002 3.08433 0
M  V30 214 N 23.6496 -1.47581 0.552962 0
M  V30 215 C 24.8956 -2.02782 0.0273648 0
M  V30 216 C 25.2286 -1.42687 -1.31734 0
M  V30 217 O 24.5036 -0.580897 -1.85623 0
M  V30 218 C 24.7866 -3.60031 -0.0702371 0
M  V30 219 C 24.6396 -4.30566 1.30126 0
M  V30 220 C 25.9586 -4.33028 -0.785771 0
M  V30 221 H 23.0776 -0.736912 0.0114185 0
M  V30 222 H 25.7196 -1.76056 0.714432 0
M  V30 223 H 23.8696 -3.82932 -0.655382 0
M  V30 224 H 25.5416 -4.19018 1.92929 0
M  V30 225 H 23.7846 -3.91086 1.87709 0
M  V30 226 H 24.4556 -5.39114 1.18573 0
M  V30 227 H 26.9316 -4.15095 -0.288982 0
M  V30 228 H 25.8076 -5.42695 -0.823013 0
M  V30 229 H 26.0686 -4.01945 -1.841 0
M  V30 230 N 25.1277 -0.289203 -1.54924 0
M  V30 231 C 26.0377 0.601863 -2.26748 0
M  V30 232 C 27.0537 1.15834 -1.2984 0
M  V30 233 O 28.2297 1.18564 -1.62802 0
M  V30 234 C 25.2947 1.76299 -2.98529 0
M  V30 235 C 24.3557 1.24178 -4.10948 0
M  V30 236 C 23.5887 2.34757 -4.79296 0
M  V30 237 O 23.8117 3.54411 -4.46933 0
M  V30 238 O 22.7457 2.02115 -5.66951 0
M  V30 239 H 26.5717 0.0195879 -3.03694 0
M  V30 240 H 24.1567 -0.0560868 -1.49295 0
M  V30 241 H 26.0387 2.43973 -3.43592 0
M  V30 242 H 24.7137 2.33209 -2.24488 0
M  V30 243 H 23.6207 0.531104 -3.70311 0
M  V30 244 H 24.9537 0.718252 -4.86931 0
M  V30 245 N 26.6058 1.57591 -0.0167156 0
M  V30 246 C 27.8518 1.91567 0.665582 0
M  V30 247 C 28.1848 0.892298 1.72487 0
M  V30 248 O 27.4598 -0.0867127 1.94307 0
M  V30 249 C 27.7428 3.36069 1.29342 0
M  V30 250 C 27.5958 4.49135 0.244541 0
M  V30 251 C 28.9148 3.803 2.21495 0
M  V30 252 H 26.0338 0.69666 0.240488 0
M  V30 253 H 28.6758 1.89866 -0.0714356 0
M  V30 254 H 26.8258 3.3765 1.92158 0
M  V30 255 H 28.4978 4.59689 -0.385228 0
M  V30 256 H 26.7408 4.3165 -0.431379 0
M  V30 257 H 27.4118 5.47242 0.723207 0
M  V30 258 H 29.8878 3.80377 1.68678 0
M  V30 259 H 28.7638 4.82127 2.62382 0
M  V30 260 H 29.0248 3.15104 3.101 0
M  V30 261 N 28.0839 -0.256276 1.55502 0
M  V30 262 C 29.0469 -1.30047 1.88734 0
M  V30 263 C 30.0469 -1.4154 0.763086 0
M  V30 264 O 31.2369 -1.40403 1.03115 0
M  V30 265 C 28.3689 -2.67953 2.10747 0
M  V30 266 H 29.5619 -1.01802 2.82093 0
M  V30 267 H 27.1149 -0.495134 1.4825 0
M  V30 268 H 27.8499 -3.01351 1.19825 0
M  V30 269 H 27.6349 -2.60993 2.92617 0
M  V30 270 H 29.1249 -3.43368 2.37673 0
M  V30 271 N 29.562 -1.4872 -0.521534 0
M  V30 272 C 30.809 -1.57168 -1.27689 0
M  V30 273 C 31.137 -0.249275 -1.92896 0
M  V30 274 O 30.392 0.761162 -1.80291 0
M  V30 275 C 30.691 -2.66497 -2.38148 0
M  V30 276 C 30.357 -4.08664 -1.90538 0
M  V30 277 C 29.019 -4.47357 -1.77271 0
M  V30 278 C 31.371 -4.97724 -1.54663 0
M  V30 279 C 28.699 -5.72905 -1.26478 0
M  V30 280 C 31.051 -6.2377 -1.05329 0
M  V30 281 C 29.715 -6.61311 -0.906861 0
M  V30 282 H 28.985 -0.575117 -0.467249 0
M  V30 283 H 31.632 -1.82472 -0.581051 0
M  V30 284 H 29.937 -2.35085 -3.13437 0
M  V30 285 H 31.634 -2.70246 -2.96257 0
M  V30 286 H 28.224 -3.78111 -2.01816 0
M  V30 287 H 32.408 -4.68501 -1.63768 0
M  V30 288 H 27.664 -6.00709 -1.13835 0
M  V30 289 H 31.838 -6.9217 -0.76644 0
M  V30 290 H 29.465 -7.5848 -0.511083 0
M  V30 291 N 31.0401 0.771051 -1.3745 0
M  V30 292 C 32.2881 1.52661 -1.32435 0
M  V30 293 C 32.6091 1.9479 0.0905024 0
M  V30 294 O 31.8791 1.66348 1.03466 0
M  V30 295 H 30.4591 0.566218 -0.487244 0
M  V30 296 H 33.1211 0.917636 -1.71946 0
M  V30 297 H 32.2171 2.42568 -1.96385 0
M  V30 298 N 32.5182 1.22032 0.997298 0
M  V30 299 C 33.4482 1.01065 2.10495 0
M  V30 300 C 34.4292 -0.0669542 1.69968 0
M  V30 301 O 35.6142 0.0943987 1.9397 0
M  V30 302 C 32.7442 0.582874 3.42374 0
M  V30 303 C 31.6982 1.60592 3.96729 0
M  V30 304 C 31.0242 1.03412 5.24605 0
M  V30 305 C 32.3242 2.99478 4.27914 0
M  V30 306 H 34.0182 1.93708 2.28292 0
M  V30 307 H 31.5642 0.932761 1.09707 0
M  V30 308 H 33.5172 0.423332 4.19268 0
M  V30 309 H 32.2412 -0.379213 3.24391 0
M  V30 310 H 30.9002 1.75316 3.21963 0
M  V30 311 H 30.5482 0.063518 5.0296 0
M  V30 312 H 30.2482 1.71754 5.61938 0
M  V30 313 H 31.7722 0.886066 6.04137 0
M  V30 314 H 33.1862 2.88153 4.95622 0
M  V30 315 H 31.5832 3.64903 4.76409 0
M  V30 316 H 32.6532 3.49742 3.3587 0
M  V30 317 N 33.9963 -1.19345 1.0293 0
M  V30 318 C 35.4123 -1.41069 0.746446 0
M  V30 319 C 35.6123 -1.90078 -0.668776 0
M  V30 320 O 34.6683 -2.0778 -1.4347 0
M  V30 321 C 35.9813 -2.42141 1.78292 0
M  V30 322 C 37.5293 -2.55887 1.80252 0
M  V30 323 C 38.0043 -3.60214 2.8286 0
M  V30 324 N 39.4953 -3.67711 2.81679 0
M  V30 325 C 40.2303 -4.48128 3.57727 0
M  V30 326 N 39.7263 -5.32248 4.43491 0
M  V30 327 N 41.5193 -4.42782 3.46267 0
M  V30 328 H 33.6703 -0.858536 1.94275 0
M  V30 329 H 35.9333 -0.439541 0.839945 0
M  V30 330 H 35.6393 -2.13155 2.79746 0
M  V30 331 H 35.5133 -3.41323 1.60557 0
M  V30 332 H 37.9003 -2.84196 0.794757 0
M  V30 333 H 37.9813 -1.56858 2.02062 0
M  V30 334 H 37.6253 -3.32647 3.83807 0
M  V30 335 H 37.5553 -4.58895 2.58307 0
M  V30 336 H 40.0463 -3.07634 2.19476 0
M  V30 337 H 40.3593 -5.90729 4.98256 0
M  V30 338 H 38.7043 -5.31707 4.47564 0
M  V30 339 H 41.8953 -3.76107 2.78677 0
M  V30 340 H 42.0683 -5.05215 4.05785 0
M  V30 341 N 35.4744 -0.807222 -1.35358 0
M  V30 342 C 36.4374 -0.223665 -2.28106 0
M  V30 343 C 37.4374 0.589354 -1.4961 0
M  V30 344 O 38.6274 0.407745 -1.69361 0
M  V30 345 C 35.7594 0.688149 -3.33882 0
M  V30 346 H 36.9524 -1.04169 -2.81227 0
M  V30 347 H 34.5054 -0.577921 -1.45223 0
M  V30 348 H 35.2404 1.52984 -2.85948 0
M  V30 349 H 35.0254 0.10687 -3.91954 0
M  V30 350 H 36.5154 1.09075 -4.03104 0
M  V30 351 N 36.9525 1.47285 -0.560781 0
M  V30 352 C 38.1775 2.07359 -0.0410566 0
M  V30 353 C 38.6025 1.41017 1.24483 0
M  V30 354 O 37.9605 0.486368 1.74654 0
M  V30 355 C 38.0085 3.6035 0.134123 0
M  V30 356 O 37.1125 3.94681 1.19587 0
M  V30 357 H 36.4535 0.661887 -0.0529291 0
M  V30 358 H 38.9835 1.89252 -0.777482 0
M  V30 359 H 38.9935 4.0652 0.347207 0
M  V30 360 H 37.6685 4.08034 -0.805047 0
M  V30 361 H 36.2455 3.60251 0.962987 0
M  V30 362 N 38.4306 0.297415 1.54768 0
M  V30 363 C 39.6786 -0.312295 1.99673 0
M  V30 364 C 39.9996 -1.54686 1.18732 0
M  V30 365 O 39.2696 -1.93854 0.282382 0
M  V30 366 H 37.8496 -0.118381 0.73756 0
M  V30 367 H 40.5116 0.407915 1.90583 0
M  V30 368 H 39.6076 -0.586813 3.06534 0
M  V30 369 N 39.9087 -1.5758 0.0250728 0
M  V30 370 C 41.1547 -1.92746 -0.649648 0
M  V30 371 C 41.5097 -0.901588 -1.69968 0
M  V30 372 O 40.8027 0.0829251 -1.9142 0
M  V30 373 C 40.9967 -3.32421 -1.31268 0
M  V30 374 C 40.8257 -4.48499 -0.328394 0
M  V30 375 C 39.5957 -5.05251 0.070284 0
M  V30 376 C 41.7937 -5.12618 0.415665 0
M  V30 377 N 39.7757 -6.04851 1.05016 0
M  V30 378 C 41.1467 -6.0728 1.24943 0
M  V30 379 C 43.2017 -4.95612 0.476803 0
M  V30 380 C 41.9047 -6.86766 2.1388 0
M  V30 381 C 43.9307 -5.75703 1.3535 0
M  V30 382 C 43.2927 -6.69978 2.17504 0
M  V30 383 H 39.3917 -0.753231 -0.210159 0
M  V30 384 H 41.9757 -1.94486 0.0912999 0
M  V30 385 H 40.1467 -3.31508 -2.02379 0
M  V30 386 H 41.8787 -3.54946 -1.94411 0
M  V30 387 H 38.6337 -4.72628 -0.303323 0
M  V30 388 H 39.0577 -6.5934 1.53622 0
M  V30 389 H 43.6997 -4.22554 -0.144105 0
M  V30 390 H 41.4177 -7.59132 2.77027 0
M  V30 391 H 45.0037 -5.64579 1.40504 0
M  V30 392 H 43.8837 -7.30873 2.84244 0
M  V30 393 N 41.3868 0.248026 -1.55636 0
M  V30 394 C 42.2968 1.32859 -1.93354 0
M  V30 395 C 43.3128 1.52719 -0.833838 0
M  V30 396 O 44.4888 1.66363 -1.13513 0
M  V30 397 C 41.5538 2.66337 -2.21958 0
M  V30 398 C 40.6148 2.55008 -3.45354 0
M  V30 399 C 39.8478 3.82121 -3.72584 0
M  V30 400 O 40.0708 4.83951 -3.01907 0
M  V30 401 O 39.0048 3.80822 -4.6611 0
M  V30 402 H 42.8308 1.03862 -2.85388 0
M  V30 403 H 40.4158 0.448686 -1.42503 0
M  V30 404 H 42.2978 3.45216 -2.4167 0
M  V30 405 H 40.9728 2.95068 -1.33103 0
M  V30 406 H 39.8798 1.7442 -3.30951 0
M  V30 407 H 41.2128 2.31222 -4.34508 0
M  V30 408 N 42.8649 1.48995 0.513639 0
M  V30 409 C 44.1129 1.57531 1.26604 0
M  V30 410 C 44.4339 0.258236 1.93283 0
M  V30 411 O 43.7039 -0.721502 1.8213 0
M  V30 412 H 42.2839 0.580387 0.470276 0
M  V30 413 H 44.9459 1.85552 0.596373 0
M  V30 414 H 44.0419 2.36486 2.03669 0
M  V30 415 N 44.343 -0.763751 1.37857 0
M  V30 416 C 45.291 -1.89864 1.34367 0
M  V30 417 C 46.285 -1.67816 0.231143 0
M  V30 418 O 47.491 -1.75508 0.399617 0
M  V30 419 H 43.866 -0.624501 0.41893 0
M  V30 420 H 45.837 -1.89925 2.30155 0
M  V30 421 C 44.586 -3.27227 1.1755 0
M  V30 422 H 43.909 -3.44773 2.02414 0
M  V30 423 H 45.349 -4.06911 1.1916 0
M  V30 424 C 43.808 -3.36692 -0.118311 0
M  V30 425 O 44.338 -3.86374 -1.09902 0
M  V30 426 N 42.544 -2.90092 -0.171717 0
M  V30 427 H 42.091 -2.49853 0.627012 0
M  V30 428 H 42.049 -2.96806 -1.03699 0
M  V30 429 N 45.8211 -1.22559 -0.990812 0
M  V30 430 C 47.0701 -1.04553 -1.72486 0
M  V30 431 C 47.3831 0.419349 -1.91052 0
M  V30 432 O 48.5891 0.719121 -2.61803 0
M  V30 433 C 47.0451 -1.82231 -3.10355 0
M  V30 434 C 46.6531 -3.32981 -2.99713 0
M  V30 435 C 48.3971 -1.7268 -3.87791 0
M  V30 436 C 46.3041 -4.03091 -4.32748 0
M  V30 437 H 45.2341 -0.387614 -0.646739 0
M  V30 438 H 47.8851 -1.46429 -1.10593 0
M  V30 439 H 46.2671 -1.33155 -3.72942 0
M  V30 440 H 47.4411 -3.89466 -2.46278 0
M  V30 441 H 45.7561 -3.43231 -2.35758 0
M  V30 442 H 48.3531 -2.22381 -4.86262 0
M  V30 443 H 48.6961 -0.687607 -4.10582 0
M  V30 444 H 49.2291 -2.1931 -3.31885 0
M  V30 445 H 45.9681 -5.07273 -4.15156 0
M  V30 446 H 45.4881 -3.51394 -4.86089 0
M  V30 447 H 47.1671 -4.08804 -5.01486 0
M  V30 448 N 47.2992 1.18797 -1.03562 0
M  V30 449 C 48.7152 1.40671 -0.753917 0
M  V30 450 C 48.9152 1.9043 0.658686 0
M  V30 451 O 47.9712 2.08538 1.42366 0
M  V30 452 C 49.2842 2.41192 -1.79574 0
M  V30 453 C 50.8322 2.54928 -1.81606 0
M  V30 454 C 51.3072 3.58709 -2.84766 0
M  V30 455 N 52.7982 3.66212 -2.83625 0
M  V30 456 C 53.5332 4.46225 -3.60098 0
M  V30 457 N 53.0292 5.29888 -4.46308 0
M  V30 458 N 54.8222 4.40939 -3.4861 0
M  V30 459 H 46.9732 0.848221 -1.94728 0
M  V30 460 H 49.2362 0.435081 -0.842264 0
M  V30 461 H 48.9422 2.11669 -2.80872 0
M  V30 462 H 48.8162 3.40467 -1.62365 0
M  V30 463 H 51.2032 2.83771 -0.809817 0
M  V30 464 H 51.2842 1.55784 -2.02891 0
M  V30 465 H 50.9282 3.30607 -3.85566 0
M  V30 466 H 50.8582 4.57519 -2.60737 0
M  V30 467 H 53.3492 3.06466 -2.21105 0
M  V30 468 H 53.6622 5.88078 -5.01382 0
M  V30 469 H 52.0072 5.29326 -4.50377 0
M  V30 470 H 55.1982 3.74624 -2.80668 0
M  V30 471 H 55.3712 5.03056 -4.08459 0
M  V30 472 N 48.7773 0.814389 1.34928 0
M  V30 473 C 49.7073 0.244827 2.32213 0
M  V30 474 C 50.6883 -0.634024 1.57842 0
M  V30 475 O 51.8733 -0.562676 1.8587 0
M  V30 476 C 49.0033 -0.601106 3.42058 0
M  V30 477 C 47.9573 0.179896 4.27622 0
M  V30 478 C 47.2833 -0.788237 5.28858 0
M  V30 479 C 48.5833 1.38329 5.03649 0
M  V30 480 H 50.2773 1.05763 2.80097 0
M  V30 481 H 47.8233 0.510029 1.34665 0
M  V30 482 H 49.7763 -1.00968 4.09125 0
M  V30 483 H 48.5003 -1.44688 2.92802 0
M  V30 484 H 47.1593 0.569739 3.62146 0
M  V30 485 H 46.8073 -1.62973 4.75866 0
M  V30 486 H 46.5073 -0.269942 5.8698 0
M  V30 487 H 48.0313 -1.19485 5.98795 0
M  V30 488 H 49.4453 1.04918 5.63618 0
M  V30 489 H 47.8423 1.83662 5.71304 0
M  V30 490 H 48.9123 2.16592 4.33839 0
M  V30 491 N 50.2554 -1.46986 0.568584 0
M  V30 492 C 51.5014 -2.02741 0.0488709 0
M  V30 493 C 51.8344 -1.44077 -1.30214 0
M  V30 494 O 51.1094 -0.600552 -1.84996 0
M  V30 495 C 51.3924 -3.60086 -0.032047 0
M  V30 496 C 51.2454 -4.29162 1.34686 0
M  V30 497 C 52.5644 -4.33838 -0.739798 0
M  V30 498 H 49.6834 -0.736749 0.0192338 0
M  V30 499 H 52.3254 -1.75289 0.733065 0
M  V30 500 H 50.4754 -3.83606 -0.61473 0
M  V30 501 H 52.1474 -4.16948 1.97362 0
M  V30 502 H 50.3904 -3.89073 1.91846 0
M  V30 503 H 51.0614 -5.37826 1.24285 0
M  V30 504 H 53.5374 -4.15378 -0.244939 0
M  V30 505 H 52.4134 -5.43537 -0.765406 0
M  V30 506 H 52.6744 -4.03875 -1.79827 0
M  V30 507 N 51.7335 -0.305618 -1.54608 0
M  V30 508 C 52.9815 0.301701 -1.99835 0
M  V30 509 C 53.3025 1.54054 -1.19551 0
M  V30 510 O 52.5725 1.93702 -0.292658 0
M  V30 511 H 51.1525 0.114468 -0.738178 0
M  V30 512 H 53.8145 -0.418016 -1.90364 0
M  V30 513 H 52.9105 0.570548 -3.06841 0
M  V30 514 N 53.2116 1.57565 -0.0334293 0
M  V30 515 C 54.4886 1.83282 0.683163 0
M  V30 516 C 54.8686 0.91823 1.90084 0
M  V30 517 O 54.2166 -0.025113 2.28486 0
M  V30 518 C 54.4266 3.32599 1.0573 0
M  V30 519 C 55.7746 3.99179 1.44711 0
M  V30 520 O 56.7986 3.3712 1.15015 0
M  V30 521 O 55.6576 5.08565 2.0006 0
M  V30 522 H 52.7516 0.755869 0.335546 0
M  V30 523 H 55.2976 1.69589 -0.0614402 0
M  V30 524 H 54.0696 3.90834 0.190828 0
M  V30 525 H 53.6926 3.51415 1.85993 0
M  V30 526 N 54.6897 -0.239769 1.55765 0
M  V30 527 C 55.6527 -1.28038 1.90103 0
M  V30 528 C 56.6527 -1.40723 0.778055 0
M  V30 529 O 57.8427 -1.39301 1.04599 0
M  V30 530 C 54.9747 -2.65702 2.13577 0
M  V30 531 H 56.1677 -0.988048 2.83157 0
M  V30 532 H 53.7207 -0.479382 1.48767 0
M  V30 533 H 54.4557 -3.00063 1.23015 0
M  V30 534 H 54.2407 -2.57875 2.95369 0
M  V30 535 H 55.7307 -3.40828 2.41301 0
M  V30 536 N 56.1678 -1.49265 -0.50573 0
M  V30 537 C 57.3958 -1.62215 -1.28429 0
M  V30 538 C 57.8108 -0.291697 -1.86533 0
M  V30 539 O 57.1678 0.722233 -1.67601 0
M  V30 540 C 57.2188 -2.68735 -2.41793 0
M  V30 541 O 56.9398 -3.96619 -1.86078 0
M  V30 542 C 58.4408 -2.92346 -3.3324 0
M  V30 543 H 55.6608 -0.546239 -0.389697 0
M  V30 544 H 58.2048 -1.95265 -0.607609 0
M  V30 545 H 56.3598 -2.38476 -3.053 0
M  V30 546 H 56.7738 -4.55256 -2.60465 0
M  V30 547 H 58.2478 -3.70623 -4.09075 0
M  V30 548 H 58.7248 -2.02081 -3.89948 0
M  V30 549 H 59.3308 -3.24003 -2.75503 0
M  V30 550 N 57.6459 0.756429 -1.3826 0
M  V30 551 C 58.8919 1.51772 -1.34511 0
M  V30 552 C 59.2249 1.94089 0.0656691 0
M  V30 553 O 58.4999 1.65221 1.02626 0
M  V30 554 C 58.7829 2.77226 -2.29821 0
M  V30 555 C 58.6359 2.41065 -3.79747 0
M  V30 556 C 59.9549 3.79236 -2.23312 0
M  V30 557 H 57.0739 0.550578 -0.489931 0
M  V30 558 H 59.7159 0.866607 -1.69086 0
M  V30 559 H 57.8659 3.32784 -2.00467 0
M  V30 560 H 59.5379 1.91303 -4.19763 0
M  V30 561 H 57.7809 1.7356 -3.97567 0
M  V30 562 H 58.4519 3.3081 -4.41892 0
M  V30 563 H 60.9279 3.3321 -2.49219 0
M  V30 564 H 59.8039 4.64714 -2.92116 0
M  V30 565 H 60.0649 4.24615 -1.23102 0
M  V30 566 N 59.124 1.23083 0.984299 0
M  V30 567 C 60.373 1.05466 1.71929 0
M  V30 568 C 60.686 -0.409211 1.91272 0
M  V30 569 O 61.892 -0.705226 2.62181 0
M  V30 570 C 60.348 1.83874 3.09384 0
M  V30 571 C 59.956 3.34566 2.97943 0
M  V30 572 C 61.7 1.74734 3.8687 0
M  V30 573 C 59.607 4.05381 4.30605 0
M  V30 574 H 58.537 0.391039 0.644674 0
M  V30 575 H 61.188 1.47013 1.09815 0
M  V30 576 H 59.57 1.35131 3.72231 0
M  V30 577 H 60.744 3.90767 2.44209 0
M  V30 578 H 59.059 3.44476 2.33934 0
M  V30 579 H 61.656 2.24957 4.85076 0
M  V30 580 H 61.999 0.709372 4.10212 0
M  V30 581 H 62.532 2.21067 3.30717 0
M  V30 582 H 59.271 5.09467 4.1246 0
M  V30 583 H 58.791 3.53967 4.84218 0
M  V30 584 H 60.47 4.11458 4.99311 0
M  V30 585 N 60.6021 -1.18246 1.0419 0
M  V30 586 C 62.0131 -1.69914 0.773698 0
M  V30 587 C 62.3641 -1.83085 -0.705297 0
M  V30 588 O 61.4891 -1.51123 -1.5489 0
M  V30 589 C 62.0841 -3.08619 1.39784 0
M  V30 590 C 60.6431 -3.57494 1.17792 0
M  V30 591 C 59.7901 -2.34013 1.48773 0
M  V30 592 H 62.7411 -1.02904 1.20816 0
M  V30 593 H 62.7621 -3.71958 0.801714 0
M  V30 594 H 62.2741 -2.99001 2.47426 0
M  V30 595 H 60.3751 -3.72406 0.120295 0
M  V30 596 H 60.4881 -4.40852 1.87581 0
M  V30 597 H 58.8521 -2.37986 0.907463 0
M  V30 598 H 59.6351 -2.27013 2.57527 0
M  V30 599 N 62.0802 -0.821533 -1.34494 0
M  V30 600 C 63.0302 -0.214793 -2.26986 0
M  V30 601 C 64.0142 0.620125 -1.4847 0
M  V30 602 O 65.2062 0.474933 -1.70509 0
M  V30 603 C 62.3352 0.623566 -3.37589 0
M  V30 604 C 61.4212 -0.221904 -4.23519 0
M  V30 605 N 61.8122 -1.29223 -4.89014 0
M  V30 606 C 60.1102 -0.00600922 -4.46 0
M  V30 607 C 60.8112 -1.80965 -5.52835 0
M  V30 608 N 59.7872 -1.11376 -5.32068 0
M  V30 609 H 63.5892 -1.03354 -2.75128 0
M  V30 610 H 61.1032 -0.6642 -1.48196 0
M  V30 611 H 63.1002 1.0744 -4.02818 0
M  V30 612 H 61.7602 1.44049 -2.90998 0
M  V30 613 H 62.7712 -1.67502 -4.90065 0
M  V30 614 H 59.4482 0.77886 -4.10171 0
M  V30 615 H 60.8382 -2.70502 -6.15043 0
M  V30 616 N 63.5583 1.46682 -0.576371 0
M  V30 617 C 64.5083 2.27278 0.181288 0
M  V30 618 C 65.4923 1.35497 0.867721 0
M  V30 619 O 66.6843 1.59717 0.762863 0
M  V30 620 C 63.8133 3.21703 1.19841 0
M  V30 621 C 62.8993 4.20969 0.51442 0
M  V30 622 N 63.2903 5.03999 -0.426407 0
M  V30 623 C 61.5883 4.39373 0.765963 0
M  V30 624 C 62.2893 5.75812 -0.825565 0
M  V30 625 N 61.2653 5.43315 -0.176116 0
M  V30 626 H 65.0673 2.88863 -0.541785 0
M  V30 627 H 62.5813 1.57455 -0.397697 0
M  V30 628 H 64.5783 3.78145 1.75533 0
M  V30 629 H 63.2383 2.61677 1.92238 0
M  V30 630 H 64.2493 5.11659 -0.8016 0
M  V30 631 H 60.9263 3.90502 1.47698 0
M  V30 632 H 62.3163 6.52577 -1.59976 0
M  V30 633 N 65.0364 0.313813 1.54444 0
M  V30 634 C 65.9664 -0.549454 2.26943 0
M  V30 635 C 66.9474 -1.12741 1.27372 0
M  V30 636 O 68.1324 -1.15436 1.56167 0
M  V30 637 C 65.2624 -1.71523 3.01989 0
M  V30 638 C 64.2164 -1.26703 4.08816 0
M  V30 639 C 63.5424 -2.51898 4.71647 0
M  V30 640 C 64.8424 -0.388962 5.2085 0
M  V30 641 H 66.5364 0.0552661 2.99349 0
M  V30 642 H 64.0824 0.0280207 1.43973 0
M  V30 643 H 66.0354 -2.32535 3.51433 0
M  V30 644 H 64.7594 -2.34639 2.27183 0
M  V30 645 H 63.4184 -0.679896 3.6024 0
M  V30 646 H 63.0664 -3.13356 3.93468 0
M  V30 647 H 62.7664 -2.22605 5.43802 0
M  V30 648 H 64.2904 -3.1369 5.23861 0
M  V30 649 H 65.7044 -0.905107 5.6611 0
M  V30 650 H 64.1014 -0.18924 5.99802 0
M  V30 651 H 65.1714 0.582699 4.81386 0
M  V30 652 N 66.5145 -1.57545 0.0417849 0
M  V30 653 C 67.9255 -1.80011 -0.495259 0
M  V30 654 C 68.2765 -0.953199 -1.71489 0
M  V30 655 O 67.4015 -0.167138 -2.15754 0
M  V30 656 C 67.9965 -3.26482 -0.905265 0
M  V30 657 C 66.5555 -3.499 -1.38734 0
M  V30 658 C 65.7025 -2.74979 -0.358056 0
M  V30 659 H 68.6535 -1.56425 0.267736 0
M  V30 660 H 68.6745 -3.36887 -1.76882 0
M  V30 661 H 68.1865 -3.88096 -0.017401 0
M  V30 662 H 66.2875 -2.93553 -2.29471 0
M  V30 663 H 66.4005 -4.58615 -1.38598 0
M  V30 664 H 64.7645 -2.40834 -0.828912 0
M  V30 665 H 65.5475 -3.39315 0.521561 0
M  V30 666 N 67.9926 0.231505 -1.5589 0
M  V30 667 C 69.4036 0.799327 -1.68724 0
M  V30 668 C 69.7546 1.85398 -0.642022 0
M  V30 669 O 68.8796 2.1539 0.208784 0
M  V30 670 C 69.4746 1.45664 -3.05888 0
M  V30 671 C 68.0336 1.97197 -3.20609 0
M  V30 672 C 67.1806 0.828552 -2.64632 0
M  V30 673 H 70.1316 0.00702616 -1.58698 0
M  V30 674 H 70.1526 2.32517 -3.01191 0
M  V30 675 H 69.6646 0.688808 -3.81939 0
M  V30 676 H 67.7656 2.76813 -2.4941 0
M  V30 677 H 67.8786 2.15878 -4.27707 0
M  V30 678 H 66.2426 1.23321 -2.22854 0
M  V30 679 H 67.0256 0.0735544 -3.43221 0
M  V30 680 N 69.4707 1.49531 0.497807 0
M  V30 681 C 70.4007 1.6935 1.60757 0
M  V30 682 C 71.3817 0.542218 1.61227 0
M  V30 683 O 72.5667 0.778417 1.77917 0
M  V30 684 C 69.6967 1.76298 2.99226 0
M  V30 685 C 68.6507 2.91248 3.13622 0
M  V30 686 C 67.9767 2.83312 4.53474 0
M  V30 687 C 69.2767 4.3214 2.93346 0
M  V30 688 H 70.9707 2.62263 1.44425 0
M  V30 689 H 68.5167 1.26208 0.693367 0
M  V30 690 H 70.4697 1.88749 3.76765 0
M  V30 691 H 69.1937 0.799871 3.16654 0
M  V30 692 H 67.8527 2.78404 2.38509 0
M  V30 693 H 67.5007 1.84902 4.67782 0
M  V30 694 H 67.2007 3.60465 4.64046 0
M  V30 695 H 68.7247 2.97775 5.33069 0
M  V30 696 H 70.1387 4.45649 3.60652 0
M  V30 697 H 68.5357 5.1054 3.15387 0
M  V30 698 H 69.6057 4.46363 1.89441 0
M  V30 699 N 70.9488 -0.749086 1.3866 0
M  V30 700 C 72.1738 -1.54344 1.38538 0
M  V30 701 C 72.5988 -1.88088 -0.0216655 0
M  V30 702 O 71.9568 -1.50899 -1.00494 0
M  V30 703 C 72.0048 -2.8164 2.25192 0
M  V30 704 O 71.1088 -3.7698 1.67212 0
M  V30 705 H 70.4498 -0.466654 0.472367 0
M  V30 706 H 72.9798 -0.925355 1.82478 0
M  V30 707 H 72.9898 -3.30519 2.3921 0
M  V30 708 H 71.6648 -2.56411 3.27454 0
M  V30 709 H 70.2418 -3.35699 1.6236 0
M  V30 710 N 72.4269 -1.23603 -0.977757 0
M  V30 711 C 73.3739 -1.01954 -2.07061 0
M  V30 712 C 74.3439 0.0638697 -1.65977 0
M  V30 713 O 75.5289 -0.0887624 -1.90593 0
M  V30 714 C 72.6689 -0.619658 -3.39491 0
M  V30 715 C 71.7819 -1.77547 -3.93829 0
M  V30 716 C 70.9169 -1.32212 -5.14484 0
M  V30 717 C 69.9559 -2.44852 -5.60994 0
M  V30 718 N 69.0929 -2.00456 -6.72876 0
M  V30 719 H 73.9329 -1.95495 -2.24913 0
M  V30 720 H 71.4699 -0.973861 -1.10247 0
M  V30 721 H 73.4279 -0.368898 -4.15566 0
M  V30 722 H 72.0579 0.278752 -3.21594 0
M  V30 723 H 71.1099 -2.14016 -3.14486 0
M  V30 724 H 72.4219 -2.62219 -4.24314 0
M  V30 725 H 71.5759 -1.02965 -5.97899 0
M  V30 726 H 70.3149 -0.445808 -4.85658 0
M  V30 727 H 69.3199 -2.74871 -4.76157 0
M  V30 728 H 70.5449 -3.33024 -5.91837 0
M  V30 729 H 68.4909 -1.15208 -6.45804 0
M  V30 730 H 68.4079 -2.78687 -7.02759 0
M  V30 731 H 69.6759 -1.7432 -7.59758 0
M  V30 732 N 73.905 1.17692 -1.04816 0
M  V30 733 C 74.868 2.19787 -0.650117 0
M  V30 734 C 75.868 1.58044 0.296427 0
M  V30 735 O 77.058 1.74012 0.0808097 0
M  V30 736 C 74.19 3.40869 0.0456987 0
M  V30 737 H 75.383 2.56516 -1.5537 0
M  V30 738 H 72.936 1.31708 -0.841594 0
M  V30 739 H 73.671 3.09681 0.962726 0
M  V30 740 H 73.456 3.86928 -0.634727 0
M  V30 741 H 74.946 4.16445 0.310432 0
M  V30 742 N 75.3831 0.828654 1.34056 0
M  V30 743 C 76.6131 0.431993 2.02033 0
M  V30 744 C 77.0211 -0.96844 1.62536 0
M  V30 745 O 76.3641 -1.6391 0.829408 0
M  V30 746 C 76.4261 0.461224 3.56529 0
M  V30 747 C 76.0901 1.81599 4.1937 0
M  V30 748 C 77.0871 2.7777 4.39477 0
M  V30 749 C 74.7721 2.10604 4.56017 0
M  V30 750 C 76.7661 4.01115 4.95364 0
M  V30 751 C 74.4531 3.34207 5.11614 0
M  V30 752 C 75.4511 4.2928 5.31232 0
M  V30 753 O 75.1391 5.50699 5.8565 0
M  V30 754 H 74.8711 0.170943 0.654029 0
M  V30 755 H 77.4251 1.11988 1.72185 0
M  V30 756 H 75.6551 -0.283388 3.8566 0
M  V30 757 H 77.3441 0.0838149 4.05813 0
M  V30 758 H 78.1101 2.56659 4.11523 0
M  V30 759 H 73.9891 1.37402 4.40047 0
M  V30 760 H 77.5331 4.75333 5.10592 0
M  V30 761 H 73.4301 3.55179 5.38997 0
M  V30 762 H 74.1981 5.52298 6.04077 0
M  V30 763 N 76.8612 -1.46375 0.584142 0
M  V30 764 C 77.7912 -2.33103 -0.136037 0
M  V30 765 C 78.7722 -1.45431 -0.882255 0
M  V30 766 O 79.9572 -1.74246 -0.857434 0
M  V30 767 C 77.0872 -3.27731 -1.14933 0
M  V30 768 C 76.0412 -4.24855 -0.517862 0
M  V30 769 C 75.3672 -5.09001 -1.63773 0
M  V30 770 C 76.6672 -5.19439 0.545886 0
M  V30 771 H 78.3612 -2.93568 0.588086 0
M  V30 772 H 75.9072 -1.41166 0.284259 0
M  V30 773 H 77.8602 -3.87261 -1.66153 0
M  V30 774 H 76.5842 -2.65377 -1.90375 0
M  V30 775 H 75.2432 -3.6659 -0.0267361 0
M  V30 776 H 74.8912 -4.43031 -2.38185 0
M  V30 777 H 74.5912 -5.74777 -1.22085 0
M  V30 778 H 76.1152 -5.71396 -2.15266 0
M  V30 779 H 77.5292 -5.73177 0.118704 0
M  V30 780 H 75.9262 -5.93566 0.88317 0
M  V30 781 H 76.9962 -4.63285 1.43162 0
M  V30 782 N 78.3393 -0.321999 -1.54275 0
M  V30 783 C 79.3023 0.531975 -2.22941 0
M  V30 784 C 80.3023 1.04478 -1.22234 0
M  V30 785 O 81.4923 0.937452 -1.46825 0
M  V30 786 C 78.6243 1.73874 -2.93224 0
M  V30 787 H 79.8173 -0.0682612 -2.99822 0
M  V30 788 H 77.3703 -0.0730644 -1.56129 0
M  V30 789 H 78.1053 2.37825 -2.20476 0
M  V30 790 H 77.8903 1.37847 -3.6707 0
M  V30 791 H 79.3803 2.34496 -3.45545 0
M  V30 792 N 79.8174 1.5752 -0.0501392 0
M  V30 793 C 81.0654 1.9227 0.622642 0
M  V30 794 C 81.3864 0.929083 1.71444 0
M  V30 795 O 80.6564 -0.0262186 1.95882 0
M  V30 796 H 79.2364 0.709739 0.232981 0
M  V30 797 H 81.8984 1.94628 -0.102898 0
M  V30 798 H 80.9944 2.93479 1.06191 0
M  V30 799 N 81.2955 -0.223234 1.56011 0
M  V30 800 C 82.2425 -1.27664 1.92277 0
M  V30 801 C 83.2125 -1.46659 0.779763 0
M  V30 802 O 84.3975 -1.60256 1.03551 0
M  V30 803 C 81.5375 -2.62234 2.24338 0
M  V30 804 C 80.6505 -2.51051 3.51564 0
M  V30 805 C 79.7855 -3.78133 3.7308 0
M  V30 806 C 78.8245 -3.61665 4.93827 0
M  V30 807 N 77.9615 -4.80693 5.11741 0
M  V30 808 H 82.8015 -0.960358 2.82101 0
M  V30 809 H 80.3385 -0.462901 1.39627 0
M  V30 810 H 82.2965 -3.40596 2.40936 0
M  V30 811 H 80.9265 -2.91961 1.3769 0
M  V30 812 H 79.9785 -1.64132 3.43169 0
M  V30 813 H 81.2905 -2.34803 4.40079 0
M  V30 814 H 80.4445 -4.64938 3.89766 0
M  V30 815 H 79.1835 -3.97304 2.82844 0
M  V30 816 H 78.1885 -2.73244 4.77093 0
M  V30 817 H 79.4135 -3.43966 5.85546 0
M  V30 818 H 77.3595 -5.00181 4.24446 0
M  V30 819 H 77.2765 -4.67165 5.94384 0
M  V30 820 H 78.5445 -5.6893 5.3286 0
M  V30 821 N 82.7736 -1.49793 -0.48987 0
M  V30 822 C 83.7366 -1.66752 -1.57246 0
M  V30 823 C 84.7366 -0.538867 -1.51502 0
M  V30 824 O 85.9266 -0.805545 -1.54456 0
M  V30 825 C 83.0586 -1.67528 -2.96896 0
M  V30 826 H 84.2516 -2.63321 -1.43534 0
M  V30 827 H 81.8046 -1.38992 -0.714914 0
M  V30 828 H 82.5396 -0.725837 -3.16073 0
M  V30 829 H 82.3246 -2.49504 -3.02473 0
M  V30 830 H 83.8146 -1.82667 -3.7553 0
M  V30 831 N 84.2517 0.741722 -1.39055 0
M  V30 832 C 85.4797 1.53098 -1.39171 0
M  V30 833 C 85.8947 1.88794 0.0155099 0
M  V30 834 O 85.2517 1.53626 0.985159 0
M  V30 835 C 85.3027 2.82274 -2.2584 0
M  V30 836 O 85.0237 2.48097 -3.61081 0
M  V30 837 C 86.5247 3.76343 -2.34266 0
M  V30 838 H 83.7447 0.473335 -0.4756 0
M  V30 839 H 86.2887 0.917045 -1.82785 0
M  V30 840 H 84.4437 3.40015 -1.85656 0
M  V30 841 H 84.8577 3.31029 -4.06842 0
M  V30 842 H 86.3317 4.63898 -2.9917 0
M  V30 843 H 86.8087 4.17619 -1.35982 0
M  V30 844 H 87.4147 3.24523 -2.74891 0
M  V30 845 N 85.7298 1.2412 0.971189 0
M  V30 846 C 86.6928 1.03156 2.04674 0
M  V30 847 C 87.6928 -0.00990322 1.60797 0
M  V30 848 O 88.8828 0.230729 1.72665 0
M  V30 849 C 86.0148 0.562765 3.36223 0
M  V30 850 H 87.2078 1.98614 2.24705 0
M  V30 851 H 84.7608 1.06293 1.14593 0
M  V30 852 H 85.4958 -0.395176 3.21883 0
M  V30 853 H 85.2808 1.31441 3.69413 0
M  V30 854 H 86.7708 0.437015 4.15307 0
M  V30 855 N 87.2079 -1.17134 1.05439 0
M  V30 856 C 88.1179 -2.24878 0.668365 0
M  V30 857 C 89.1339 -1.71186 -0.311687 0
M  V30 858 O 90.3099 -2.00738 -0.163161 0
M  V30 859 C 87.3749 -3.46662 0.051648 0
M  V30 860 C 86.4359 -4.15429 1.08246 0
M  V30 861 C 85.6689 -5.31399 0.495082 0
M  V30 862 O 85.8919 -5.66153 -0.694743 0
M  V30 863 O 84.8259 -5.89187 1.23056 0
M  V30 864 H 88.6519 -2.60189 1.56637 0
M  V30 865 H 86.2369 -1.24482 0.826104 0
M  V30 866 H 88.1189 -4.20394 -0.290966 0
M  V30 867 H 86.7939 -3.13142 -0.819971 0
M  V30 868 H 85.7009 -3.43704 1.47711 0
M  V30 869 H 87.0339 -4.52982 1.92532 0
M  V30 870 N 88.686 -0.835752 -1.33615 0
M  V30 871 C 89.911 -0.442389 -2.02627 0
M  V30 872 C 90.336 0.947735 -1.62479 0
M  V30 873 O 89.694 1.61907 -0.815826 0
M  V30 874 C 89.742 -0.567216 -3.56111 0
M  V30 875 O 88.846 0.407799 -4.10379 0
M  V30 876 H 88.187 -0.180278 -0.639059 0
M  V30 877 H 90.717 -1.12972 -1.70583 0
M  V30 878 H 90.727 -0.447708 -4.05536 0
M  V30 879 H 89.402 -1.58103 -3.84677 0
M  V30 880 H 87.979 0.246107 -3.72087 0
M  V30 881 N 90.1641 1.46063 -0.591896 0
M  V30 882 C 91.0941 2.33172 0.123673 0
M  V30 883 C 92.0751 1.45897 0.87453 0
M  V30 884 O 93.2601 1.74698 0.848181 0
M  V30 885 C 90.3901 3.28336 1.13194 0
M  V30 886 C 89.3441 4.25124 0.495324 0
M  V30 887 C 88.6701 5.09863 1.61071 0
M  V30 888 C 89.9701 5.19143 -0.573425 0
M  V30 889 H 91.6641 2.93252 -0.603646 0
M  V30 890 H 89.2101 1.41014 -0.291741 0
M  V30 891 H 91.1631 3.88137 1.64097 0
M  V30 892 H 89.8871 2.66383 1.88965 0
M  V30 893 H 88.5461 3.66599 0.00729452 0
M  V30 894 H 88.1941 4.44288 2.35832 0
M  V30 895 H 87.8941 5.75417 1.19035 0
M  V30 896 H 89.4181 5.72529 2.12233 0
M  V30 897 H 90.8321 5.73106 -0.1491 0
M  V30 898 H 89.2291 5.93089 -0.914636 0
M  V30 899 H 90.2991 4.62519 -1.45617 0
M  V30 900 N 91.6422 0.330177 1.54103 0
M  V30 901 C 92.8722 -0.271784 2.04805 0
M  V30 902 C 93.2802 -1.45816 1.20559 0
M  V30 903 O 92.6232 -1.82247 0.2306 0
M  V30 904 C 92.6852 -0.763238 3.51305 0
M  V30 905 C 92.3492 0.301705 4.56003 0
M  V30 906 C 93.3462 1.13999 5.07248 0
M  V30 907 C 91.0312 0.451793 5.00264 0
M  V30 908 C 93.0252 2.11402 6.01322 0
M  V30 909 C 90.7122 1.42924 5.94151 0
M  V30 910 C 91.7102 2.25882 6.44567 0
M  V30 911 O 91.3982 3.21965 7.3661 0
M  V30 912 H 91.1302 -0.058693 0.673447 0
M  V30 913 H 93.6842 0.476395 1.99799 0
M  V30 914 H 91.9142 -1.56244 3.5373 0
M  V30 915 H 93.6032 -1.28427 3.85047 0
M  V30 916 H 94.3692 1.03505 4.73827 0
M  V30 917 H 90.2482 -0.184044 4.60632 0
M  V30 918 H 93.7922 2.76192 6.40596 0
M  V30 919 H 89.6892 1.53479 6.26988 0
M  V30 920 H 90.4572 3.17281 7.54503 0
M  V30 921 N 93.1203 -1.57491 0.0584922 0
M  V30 922 C 94.0503 -2.14988 -0.911178 0
M  V30 923 C 95.0313 -1.07343 -1.31952 0
M  V30 924 O 96.2163 -1.35318 -1.39294 0
M  V30 925 C 93.3463 -2.70078 -2.18347 0
M  V30 926 C 92.3003 -3.82771 -1.91495 0
M  V30 927 C 91.6263 -4.24408 -3.25241 0
M  V30 928 C 92.9263 -5.07592 -1.23075 0
M  V30 929 H 94.6203 -2.96263 -0.432246 0
M  V30 930 H 92.1663 -1.42512 -0.206469 0
M  V30 931 H 94.1193 -3.08943 -2.86587 0
M  V30 932 H 92.8433 -1.86005 -2.68458 0
M  V30 933 H 91.5023 -3.44389 -1.25664 0
M  V30 934 H 91.1503 -3.37275 -3.73168 0
M  V30 935 H 90.8503 -5.00366 -3.08071 0
M  V30 936 H 92.3743 -4.65879 -3.94701 0
M  V30 937 H 93.7883 -5.43857 -1.81362 0
M  V30 938 H 92.1853 -5.88741 -1.16207 0
M  V30 939 H 93.2553 -4.84454 -0.207847 0
M  V30 940 N 94.5984 0.214957 -1.56127 0
M  V30 941 C 96.0144 0.564948 -1.49267 0
M  V30 942 C 96.2144 1.86827 -0.754838 0
M  V30 943 O 95.2704 2.50745 -0.297198 0
M  V30 944 C 96.5834 0.638071 -2.93852 0
M  V30 945 C 98.1314 0.728253 -3.0441 0
M  V30 946 C 98.6064 0.832663 -4.50367 0
M  V30 947 N 100.097 0.896712 -4.54437 0
M  V30 948 C 100.832 0.997324 -5.6466 0
M  V30 949 N 100.328 1.06147 -6.8462 0
M  V30 950 N 102.121 1.03297 -5.52527 0
M  V30 951 H 94.2724 -0.640211 -2.02522 0
M  V30 952 H 96.5354 -0.225507 -0.920788 0
M  V30 953 H 96.2414 -0.250126 -3.50809 0
M  V30 954 H 96.1154 1.49947 -3.46115 0
M  V30 955 H 98.5024 1.60689 -2.47514 0
M  V30 956 H 98.5834 -0.158952 -2.55306 0
M  V30 957 H 98.2274 -0.0415417 -5.07883 0
M  V30 958 H 98.1574 1.73538 -4.97184 0
M  V30 959 H 100.648 0.857188 -3.6805 0
M  V30 960 H 100.961 1.1382 -7.64372 0
M  V30 961 H 99.3064 1.03049 -6.87318 0
M  V30 962 H 102.497 0.979558 -4.57736 0
M  V30 963 H 102.67 1.10793 -6.38458 0
M  V30 964 N 96.0765 1.50051 0.48192 0
M  V30 965 C 97.3045 1.64237 1.25832 0
M  V30 966 C 97.7195 0.321336 1.86045 0
M  V30 967 O 97.0765 -0.695478 1.68729 0
M  V30 968 C 97.1275 2.72548 2.37487 0
M  V30 969 O 96.8485 3.99529 1.79745 0
M  V30 970 C 98.3495 2.9761 3.28547 0
M  V30 971 H 95.5695 0.55237 0.380957 0
M  V30 972 H 98.1135 1.96207 0.576467 0
M  V30 973 H 96.2685 2.43303 3.01467 0
M  V30 974 H 96.6825 4.59342 2.5319 0
M  V30 975 H 98.1565 3.77084 4.03127 0
M  V30 976 H 98.6335 2.0826 3.86684 0
M  V30 977 H 99.2395 3.28345 2.70314 0
M  V30 978 N 97.5546 -0.734337 1.39446 0
M  V30 979 C 98.9656 -1.31264 1.32766 0
M  V30 980 C 99.3166 -1.96198 -0.00767497 0
M  V30 981 O 98.4416 -1.96346 -0.909796 0
M  V30 982 C 99.0366 -2.38682 2.4045 0
M  V30 983 C 97.5956 -2.92184 2.37288 0
M  V30 984 C 96.7426 -1.6576 2.22304 0
M  V30 985 H 99.6936 -0.531799 1.49525 0
M  V30 986 H 99.7146 -3.19087 2.07276 0
M  V30 987 H 99.2266 -1.91392 3.37625 0
M  V30 988 H 97.3276 -3.43752 1.43754 0
M  V30 989 H 97.4406 -3.45253 3.3217 0
M  V30 990 H 95.8046 -1.9012 1.69489 0
M  V30 991 H 96.5876 -1.20521 3.21449 0
M  V30 992 N 99.0327 -1.24633 -0.964593 0
M  V30 993 C 100.31 -0.995809 -1.68354 0
M  V30 994 C 100.69 0.480964 -2.05548 0
M  V30 995 O 100.038 1.45599 -1.76105 0
M  V30 996 C 100.248 -1.92177 -2.91323 0
M  V30 997 C 101.596 -2.19446 -3.63495 0
M  V30 998 O 102.62 -1.89855 -3.01386 0
M  V30 999 O 101.479 -2.69714 -4.75307 0
M  V30 1000 H 98.5727 -0.376854 -0.736146 0
M  V30 1001 H 101.119 -1.35745 -1.0184 0
M  V30 1002 H 99.8907 -2.91938 -2.60553 0
M  V30 1003 H 99.5137 -1.56349 -3.65569 0
M  V30 1004 N 100.511 1.16574 -1.06058 0
M  V30 1005 C 101.474 2.19085 -0.673392 0
M  V30 1006 C 102.474 1.5835 0.279648 0
M  V30 1007 O 103.664 1.74088 0.0623488 0
M  V30 1008 C 100.796 3.40899 0.00954234 0
M  V30 1009 H 101.989 2.54853 -1.58081 0
M  V30 1010 H 99.5418 1.30808 -0.855516 0
M  V30 1011 H 100.277 3.10684 0.929826 0
M  V30 1012 H 100.062 3.86233 -0.67573 0
M  V30 1013 H 101.552 4.1675 0.266245 0
M  V30 1014 N 101.989 0.842826 1.3317 0
M  V30 1015 C 103.219 0.453397 2.01564 0
M  V30 1016 C 103.627 -0.951147 1.63554 0
M  V30 1017 O 102.97 -1.63021 0.846746 0
M  V30 1018 C 103.032 0.499013 3.5602 0
M  V30 1019 C 102.696 1.86037 4.1742 0
M  V30 1020 C 103.693 2.82416 4.36506 0
M  V30 1021 C 101.378 2.15428 4.53757 0
M  V30 1022 C 103.372 4.06346 4.91082 0
M  V30 1023 C 101.059 3.39615 5.0804 0
M  V30 1024 C 102.057 4.3489 5.26649 0
M  V30 1025 O 101.745 5.5688 5.79776 0
M  V30 1026 H 101.477 0.177871 0.652179 0
M  V30 1027 H 104.031 1.13808 1.70988 0
M  V30 1028 H 102.261 -0.242467 3.85939 0
M  V30 1029 H 103.95 0.126852 4.05702 0
M  V30 1030 H 104.716 2.6101 4.08777 0
M  V30 1031 H 100.595 1.42061 4.38565 0
M  V30 1032 H 104.139 4.80722 5.05522 0
M  V30 1033 H 100.036 3.60876 5.352 0
M  V30 1034 H 100.804 5.58674 5.98185 0
M  V30 1035 N 103.467 -1.45747 0.599634 0
M  V30 1036 C 104.43 -2.28917 -0.113835 0
M  V30 1037 C 105.43 -1.3933 -0.802729 0
M  V30 1038 O 106.62 -1.61534 -0.652103 0
M  V30 1039 C 103.752 -3.20152 -1.17114 0
M  V30 1040 H 104.945 -2.93478 0.617289 0
M  V30 1041 H 102.498 -1.52137 0.358327 0
M  V30 1042 H 103.233 -2.60374 -1.93329 0
M  V30 1043 H 103.018 -3.86133 -0.681468 0
M  V30 1044 H 104.508 -3.82708 -1.67105 0
M  V30 1045 N 104.945 -0.338344 -1.53925 0
M  V30 1046 C 105.908 0.508299 -2.23493 0
M  V30 1047 C 106.908 1.03175 -1.23335 0
M  V30 1048 O 108.098 0.921826 -1.47811 0
M  V30 1049 C 105.23 1.70754 -2.95052 0
M  V30 1050 H 106.423 -0.100058 -2.99733 0
M  V30 1051 H 103.976 -0.0896198 -1.56043 0
M  V30 1052 H 104.711 2.35474 -2.22986 0
M  V30 1053 H 104.496 1.33946 -3.68512 0
M  V30 1054 H 105.986 2.30818 -3.48013 0
M  V30 1055 N 106.423 1.57458 -0.0668435 0
M  V30 1056 C 107.355 2.09413 0.931601 0
M  V30 1057 C 108.368 1.02522 1.26464 0
M  V30 1058 O 109.557 1.30049 1.22269 0
M  V30 1059 C 106.657 2.53537 2.24882 0
M  V30 1060 C 105.83 3.83944 2.09537 0
M  V30 1061 C 104.889 4.14214 3.2452 0
M  V30 1062 O 103.915 4.83891 2.9973 0
M  V30 1063 N 105.117 3.67367 4.49469 0
M  V30 1064 H 107.882 2.95699 0.488048 0
M  V30 1065 H 105.443 1.61462 0.119009 0
M  V30 1066 H 107.435 2.70853 3.00701 0
M  V30 1067 H 106.005 1.72415 2.60753 0
M  V30 1068 H 105.225 3.76057 1.18215 0
M  V30 1069 H 106.513 4.69312 1.96529 0
M  V30 1070 H 105.911 3.11068 4.72497 0
M  V30 1071 H 104.468 3.89891 5.2233 0
M  V30 1072 N 107.901 -0.206675 1.56239 0
M  V30 1073 C 108.849 -1.27571 1.94495 0
M  V30 1074 C 109.843 -1.47737 0.828862 0
M  V30 1075 O 111.049 -1.48735 1.0138 0
M  V30 1076 H 107.424 -0.428029 0.6183 0
M  V30 1077 H 109.395 -0.925961 2.8367 0
M  V30 1078 C 108.144 -2.61568 2.29079 0
M  V30 1079 H 107.467 -2.46863 3.14482 0
M  V30 1080 H 108.907 -3.35144 2.5972 0
M  V30 1081 C 107.366 -3.17695 1.12123 0
M  V30 1082 O 107.896 -3.99801 0.390153 0
M  V30 1083 N 106.102 -2.76276 0.901097 0
M  V30 1084 H 105.649 -2.09613 1.49733 0
M  V30 1085 H 105.607 -3.1417 0.120319 0
M  V30 1086 N 109.379 -1.50304 -0.473955 0
M  V30 1087 C 110.628 -1.60392 -1.22301 0
M  V30 1088 C 110.941 -0.308411 -1.93153 0
M  V30 1089 O 112.147 -0.288156 -2.69966 0
M  V30 1090 C 110.603 -2.83109 -2.2221 0
M  V30 1091 C 110.211 -4.19524 -1.57173 0
M  V30 1092 C 111.955 -3.0254 -2.97775 0
M  V30 1093 C 109.862 -5.33431 -2.55353 0
M  V30 1094 H 108.792 -0.597286 -0.460179 0
M  V30 1095 H 111.443 -1.76731 -0.493803 0
M  V30 1096 H 109.825 -2.60322 -2.9841 0
M  V30 1097 H 110.999 -4.52554 -0.867824 0
M  V30 1098 H 109.314 -4.05674 -0.939002 0
M  V30 1099 H 111.911 -3.84811 -3.71248 0
M  V30 1100 H 112.254 -2.14154 -3.56992 0
M  V30 1101 H 112.787 -3.25494 -2.28688 0
M  V30 1102 H 109.526 -6.23962 -2.00878 0
M  V30 1103 H 109.046 -5.04823 -3.23904 0
M  V30 1104 H 110.725 -5.63887 -3.17239 0
M  V30 1105 N 110.857 0.726932 -1.39834 0
M  V30 1106 C 111.789 1.85147 -1.35104 0
M  V30 1107 C 112.802 1.60736 -0.258392 0
M  V30 1108 O 113.991 1.70821 -0.517931 0
M  V30 1109 C 111.091 3.21332 -1.07697 0
M  V30 1110 C 110.264 3.73033 -2.28396 0
M  V30 1111 C 109.323 4.87802 -1.97322 0
M  V30 1112 O 108.349 5.01043 -2.70083 0
M  V30 1113 N 109.551 5.72768 -0.944273 0
M  V30 1114 H 112.316 1.89706 -2.32017 0
M  V30 1115 H 109.877 0.908006 -1.3404 0
M  V30 1116 H 111.869 3.95691 -0.849144 0
M  V30 1117 H 110.439 3.11992 -0.194909 0
M  V30 1118 H 109.659 2.89934 -2.6708 0
M  V30 1119 H 110.947 4.0431 -3.08887 0
M  V30 1120 H 110.345 5.64669 -0.341427 0
M  V30 1121 H 108.902 6.4716 -0.776346 0
M  V30 1122 N 112.336 1.25143 0.95797 0
M  V30 1123 C 113.266 1.07711 2.07173 0
M  V30 1124 C 114.247 -0.0128462 1.70095 0
M  V30 1125 O 115.432 0.156061 1.93572 0
M  V30 1126 C 112.562 0.691503 3.40346 0
M  V30 1127 C 111.516 1.73132 3.9142 0
M  V30 1128 C 110.842 1.20049 5.21049 0
M  V30 1129 C 112.142 3.1294 4.1817 0
M  V30 1130 H 113.836 2.00873 2.22014 0
M  V30 1131 H 111.382 0.967191 1.06684 0
M  V30 1132 H 113.335 0.556505 4.17709 0
M  V30 1133 H 112.059 -0.275819 3.25433 0
M  V30 1134 H 110.718 1.8547 3.16222 0
M  V30 1135 H 110.366 0.223499 5.02503 0
M  V30 1136 H 110.066 1.89545 5.56189 0
M  V30 1137 H 111.59 1.07782 6.01012 0
M  V30 1138 H 113.004 3.03775 4.86203 0
M  V30 1139 H 111.401 3.79875 4.64559 0
M  V30 1140 H 112.471 3.6025 3.24573 0
M  V30 1141 N 113.814 -1.1601 1.06675 0
M  V30 1142 C 114.744 -2.22688 0.702307 0
M  V30 1143 C 115.725 -1.67306 -0.307032 0
M  V30 1144 O 116.91 -1.93352 -0.181305 0
M  V30 1145 C 114.04 -3.47178 0.092038 0
M  V30 1146 C 112.994 -4.15477 1.02777 0
M  V30 1147 C 112.32 -5.33963 0.28061 0
M  V30 1148 C 113.62 -4.66019 2.35846 0
M  V30 1149 H 115.314 -2.53429 1.59419 0
M  V30 1150 H 112.86 -1.21813 0.767961 0
M  V30 1151 H 114.813 -4.21037 -0.174814 0
M  V30 1152 H 113.537 -3.15749 -0.834877 0
M  V30 1153 H 112.196 -3.43549 1.27944 0
M  V30 1154 H 111.844 -4.98788 -0.649545 0
M  V30 1155 H 111.544 -5.806 0.904258 0
M  V30 1156 H 113.068 -6.10596 0.021396 0
M  V30 1157 H 114.482 -5.3144 2.15045 0
M  V30 1158 H 112.879 -5.23293 2.93743 0
M  V30 1159 H 113.949 -3.82023 2.98641 0
M  V30 1160 N 115.292 -0.849877 -1.32721 0
M  V30 1161 C 116.54 -0.450032 -1.97026 0
M  V30 1162 C 116.861 0.996604 -1.67609 0
M  V30 1163 O 116.131 1.6958 -0.980786 0
M  V30 1164 H 114.711 -0.163426 -0.728904 0
M  V30 1165 H 117.373 -1.08526 -1.6189 0
M  V30 1166 H 116.469 -0.591146 -3.0645 0
M  V30 1167 N 116.77 1.45427 -0.607355 0
M  V30 1168 C 118.018 2.01841 -0.102253 0
M  V30 1169 C 118.339 1.47832 1.27164 0
M  V30 1170 O 117.609 0.672497 1.83995 0
M  V30 1171 H 116.189 0.746188 -0.0348101 0
M  V30 1172 H 118.851 1.78229 -0.7887 0
M  V30 1173 H 117.947 3.12057 -0.0518585 0
M  V30 1174 N 118.248 0.346503 1.53744 0
M  V30 1175 C 119.476 -0.25041 2.05379 0
M  V30 1176 C 119.891 -1.43979 1.22129 0
M  V30 1177 O 119.248 -1.80677 0.257321 0
M  V30 1178 C 119.299 -0.662575 3.55376 0
M  V30 1179 O 119.02 0.479515 4.35468 0
M  V30 1180 C 120.521 -1.31989 4.23195 0
M  V30 1181 H 117.741 -0.0478198 0.669294 0
M  V30 1182 H 120.285 0.499346 1.9831 0
M  V30 1183 H 118.44 -1.36227 3.62658 0
M  V30 1184 H 118.854 0.15037 5.24284 0
M  V30 1185 H 120.328 -1.55902 5.29527 0
M  V30 1186 H 120.805 -2.27436 3.75725 0
M  V30 1187 H 121.411 -0.662154 4.20114 0
M  V30 1188 N 119.726 -1.57421 0.075193 0
M  V30 1189 C 120.658 -2.09904 -0.920483 0
M  V30 1190 C 121.671 -1.03191 -1.25918 0
M  V30 1191 O 122.86 -1.30695 -1.21577 0
M  V30 1192 C 119.96 -2.54726 -2.23534 0
M  V30 1193 C 119.133 -3.8505 -2.07498 0
M  V30 1194 C 118.192 -4.15929 -3.22319 0
M  V30 1195 O 117.218 -4.85474 -2.9716 0
M  V30 1196 N 118.42 -3.69745 -4.47514 0
M  V30 1197 H 121.185 -2.95954 -0.472359 0
M  V30 1198 H 118.746 -1.61523 -0.110444 0
M  V30 1199 H 120.738 -2.72443 -2.9926 0
M  V30 1200 H 119.308 -1.73795 -2.59835 0
M  V30 1201 H 118.528 -3.76679 -1.16219 0
M  V30 1202 H 119.816 -4.70348 -1.94038 0
M  V30 1203 H 119.214 -3.13569 -4.7084 0
M  V30 1204 H 117.771 -3.92655 -5.20255 0
M  V30 1205 N 121.204 0.198386 -1.56346 0
M  V30 1206 C 122.45 0.920648 -1.80698 0
M  V30 1207 C 122.783 1.83045 -0.648697 0
M  V30 1208 O 122.058 1.91308 0.350925 0
M  V30 1209 C 122.341 1.73971 -3.15287 0
M  V30 1210 C 122.194 0.85485 -4.41602 0
M  V30 1211 C 123.513 2.71296 -3.46535 0
M  V30 1212 H 120.632 0.333261 -0.657348 0
M  V30 1213 H 123.274 0.188198 -1.89066 0
M  V30 1214 H 121.424 2.36416 -3.08285 0
M  V30 1215 H 123.096 0.245362 -4.60647 0
M  V30 1216 H 121.339 0.161398 -4.335 0
M  V30 1217 H 122.01 1.46286 -5.32264 0
M  V30 1218 H 124.486 2.18983 -3.53816 0
M  V30 1219 H 123.362 3.2569 -4.41834 0
M  V30 1220 H 123.623 3.5018 -2.69864 0
M  V30 1221 N 122.682 1.50554 0.465978 0
M  V30 1222 C 123.91 1.65563 1.24083 0
M  V30 1223 C 124.325 0.341051 1.85694 0
M  V30 1224 O 123.682 -0.677543 1.69457 0
M  V30 1225 C 123.733 2.75051 2.34583 0
M  V30 1226 O 123.454 4.01413 1.75497 0
M  V30 1227 C 124.955 3.01078 3.25372 0
M  V30 1228 H 122.175 0.55638 0.375077 0
M  V30 1229 H 124.719 1.96807 0.555624 0
M  V30 1230 H 122.874 2.46486 2.9887 0
M  V30 1231 H 123.288 4.62002 2.48303 0
M  V30 1232 H 124.762 3.81339 3.99105 0
M  V30 1233 H 125.239 2.12349 3.84453 0
M  V30 1234 H 125.845 3.31194 2.66816 0
M  V30 1235 N 124.16 -0.719506 1.40217 0
M  V30 1236 C 125.123 -1.8153 1.39927 0
M  V30 1237 C 126.123 -1.58095 0.293723 0
M  V30 1238 O 127.313 -1.65209 0.552429 0
M  V30 1239 C 124.445 -3.19561 1.18716 0
M  V30 1240 H 125.638 -1.83186 2.37451 0
M  V30 1241 H 123.191 -0.924746 1.26008 0
M  V30 1242 H 123.926 -3.23557 0.219366 0
M  V30 1243 H 123.711 -3.3797 1.98793 0
M  V30 1244 H 125.201 -3.99598 1.21291 0
M  V30 1245 N 125.638 -1.25649 -0.95132 0
M  V30 1246 C 126.887 -1.09988 -1.69073 0
M  V30 1247 C 127.2 0.358355 -1.92289 0
M  V30 1248 O 128.406 0.635466 -2.63958 0
M  V30 1249 C 126.862 -1.92012 -3.044 0
M  V30 1250 C 126.47 -3.42347 -2.88968 0
M  V30 1251 C 128.214 -1.8493 -3.82101 0
M  V30 1252 C 126.121 -4.16655 -4.19705 0
M  V30 1253 H 125.051 -0.407993 -0.63408 0
M  V30 1254 H 127.702 -1.49873 -1.05879 0
M  V30 1255 H 126.084 -1.44952 -3.68517 0
M  V30 1256 H 127.258 -3.97104 -2.33762 0
M  V30 1257 H 125.573 -3.50557 -2.24719 0
M  V30 1258 H 128.17 -2.37739 -4.78941 0
M  V30 1259 H 128.513 -0.817883 -4.08187 0
M  V30 1260 H 129.046 -2.29758 -3.2474 0
M  V30 1261 H 125.785 -5.20224 -3.98807 0
M  V30 1262 H 125.305 -3.66681 -4.74663 0
M  V30 1263 H 126.984 -4.24551 -4.88227 0
M  V30 1264 N 127.117 1.15442 -1.07289 0
M  V30 1265 C 128.065 2.22225 -0.686952 0
M  V30 1266 C 129.059 1.66688 0.30193 0
M  V30 1267 O 130.265 1.79236 0.165712 0
M  V30 1268 H 126.64 0.723783 -0.204064 0
M  V30 1269 H 128.611 2.52056 -1.5972 0
M  V30 1270 C 127.36 3.47556 -0.100149 0
M  V30 1271 H 126.683 3.90612 -0.852211 0
M  V30 1272 H 128.123 4.23794 0.132235 0
M  V30 1273 C 126.582 3.16337 1.159 0
M  V30 1274 O 127.112 3.33074 2.24555 0
M  V30 1275 N 125.318 2.70385 1.06491 0
M  V30 1276 H 124.865 2.56966 0.180668 0
M  V30 1277 H 124.823 2.49871 1.90819 0
M  V30 1278 N 128.595 0.856903 1.32268 0
M  V30 1279 C 130.011 0.547061 1.49931 0
M  V30 1280 C 130.211 -0.921781 1.7918 0
M  V30 1281 O 129.267 -1.70469 1.8627 0
M  V30 1282 C 130.58 1.43599 2.64196 0
M  V30 1283 C 132.128 1.43665 2.78081 0
M  V30 1284 C 132.603 2.31085 3.95428 0
M  V30 1285 N 134.094 2.28893 4.02694 0
M  V30 1286 C 134.829 2.93262 4.92732 0
M  V30 1287 N 134.325 3.66751 5.87763 0
M  V30 1288 N 136.118 2.82638 4.85873 0
M  V30 1289 H 128.269 1.8075 1.11549 0
M  V30 1290 H 130.532 0.772144 0.549997 0
M  V30 1291 H 130.238 2.48058 2.49319 0
M  V30 1292 H 130.112 1.12502 3.60032 0
M  V30 1293 H 132.499 0.399701 2.92381 0
M  V30 1294 H 132.58 1.7878 1.82952 0
M  V30 1295 H 132.224 3.34849 3.81888 0
M  V30 1296 H 132.154 1.93302 4.89839 0
M  V30 1297 H 134.645 1.75466 3.34694 0
M  V30 1298 H 134.958 4.13027 6.53168 0
M  V30 1299 H 133.303 3.70859 5.87783 0
M  V30 1300 H 136.494 2.24774 4.10602 0
M  V30 1301 H 136.667 3.33084 5.55841 0
M  V30 1302 N 130.073 -1.45103 0.615059 0
M  V30 1303 C 131.35 -1.95549 0.0448276 0
M  V30 1304 C 131.73 -1.55737 -1.4251 0
M  V30 1305 O 131.078 -0.823556 -2.13143 0
M  V30 1306 C 131.288 -3.48098 0.250785 0
M  V30 1307 C 132.636 -4.24384 0.135509 0
M  V30 1308 O 133.66 -3.55738 0.181299 0
M  V30 1309 O 132.519 -5.46493 0.0268878 0
M  V30 1310 H 129.613 -0.8264 -0.0314845 0
M  V30 1311 H 132.159 -1.55232 0.685642 0
M  V30 1312 H 130.931 -3.7007 1.27139 0
M  V30 1313 H 130.554 -3.95323 -0.424937 0
M  V30 1314 N 131.551 -0.354651 -1.53558 0
M  V30 1315 C 132.967 -0.00315426 -1.596 0
M  V30 1316 C 133.167 1.47741 -1.37021 0
M  V30 1317 O 132.223 2.23759 -1.16996 0
M  V30 1318 C 133.536 -0.44929 -2.97325 0
M  V30 1319 C 135.084 -0.402578 -3.104 0
M  V30 1320 C 135.559 -0.824355 -4.5052 0
M  V30 1321 N 137.05 -0.778979 -4.56603 0
M  V30 1322 C 137.785 -1.07715 -5.63192 0
M  V30 1323 N 137.281 -1.44405 -6.77583 0
M  V30 1324 N 139.074 -1.00066 -5.53121 0
M  V30 1325 H 131.225 -1.31893 -1.66487 0
M  V30 1326 H 133.488 -0.538388 -0.780284 0
M  V30 1327 H 133.194 -1.48202 -3.1895 0
M  V30 1328 H 133.068 0.169772 -3.76818 0
M  V30 1329 H 135.455 0.621004 -2.88492 0
M  V30 1330 H 135.536 -1.05699 -2.32941 0
M  V30 1331 H 135.18 -1.846 -4.73165 0
M  V30 1332 H 135.11 -0.147304 -5.26394 0
M  V30 1333 H 137.601 -0.508528 -3.74463 0
M  V30 1334 H 137.914 -1.65612 -7.54846 0
M  V30 1335 H 136.259 -1.4826 -6.79002 0
M  V30 1336 H 139.45 -0.713293 -4.62633 0
M  V30 1337 H 139.623 -1.23638 -6.36096 0
M  V30 1338 N 133.029 1.57378 -0.0835403 0
M  V30 1339 C 133.961 2.10389 0.909338 0
M  V30 1340 C 134.974 1.03858 1.25369 0
M  V30 1341 O 136.163 1.31338 1.20882 0
M  V30 1342 C 133.263 2.55908 2.2218 0
M  V30 1343 C 132.436 3.86145 2.05453 0
M  V30 1344 C 131.495 4.17633 3.20108 0
M  V30 1345 O 130.521 4.87043 2.94581 0
M  V30 1346 N 131.723 3.72113 4.45547 0
M  V30 1347 H 134.488 2.962 0.456657 0
M  V30 1348 H 132.049 1.61579 0.101877 0
M  V30 1349 H 134.041 2.74027 2.97811 0
M  V30 1350 H 132.611 1.75171 2.58909 0
M  V30 1351 H 131.831 3.7729 1.1422 0
M  V30 1352 H 133.119 4.7137 1.91541 0
M  V30 1353 H 132.517 3.16062 4.69171 0
M  V30 1354 H 131.074 3.95409 5.18165 0
M  V30 1355 N 134.507 -0.190092 1.56449 0
M  V30 1356 C 135.439 -1.25973 1.91477 0
M  V30 1357 C 136.452 -1.41452 0.805931 0
M  V30 1358 O 137.641 -1.41789 1.08435 0
M  V30 1359 C 134.741 -2.63117 2.13594 0
M  V30 1360 C 133.914 -2.69182 3.4476 0
M  V30 1361 C 132.973 -3.87557 3.5593 0
M  V30 1362 O 131.999 -3.74427 4.28711 0
M  V30 1363 N 133.201 -5.03224 2.89388 0
M  V30 1364 H 135.966 -0.962394 2.83828 0
M  V30 1365 H 133.527 -0.379981 1.57378 0
M  V30 1366 H 135.519 -3.40742 2.1835 0
M  V30 1367 H 134.089 -2.85319 1.27719 0
M  V30 1368 H 133.309 -1.77793 3.51828 0
M  V30 1369 H 134.597 -2.70229 4.31107 0
M  V30 1370 H 133.995 -5.16791 2.30094 0
M  V30 1371 H 132.552 -5.78778 2.99764 0
M  V30 1372 N 135.985 -1.50799 -0.457987 0
M  V30 1373 C 137.231 -1.62683 -1.21088 0
M  V30 1374 C 137.564 -0.332268 -1.91336 0
M  V30 1375 O 136.839 0.667043 -1.82704 0
M  V30 1376 C 137.122 -2.81615 -2.24422 0
M  V30 1377 C 136.975 -4.20989 -1.58392 0
M  V30 1378 C 138.294 -2.96085 -3.2561 0
M  V30 1379 H 135.413 -0.592087 -0.438864 0
M  V30 1380 H 138.055 -1.83225 -0.50286 0
M  V30 1381 H 136.205 -2.64231 -2.84806 0
M  V30 1382 H 137.877 -4.49994 -1.01504 0
M  V30 1383 H 136.12 -4.24641 -0.886704 0
M  V30 1384 H 136.791 -5.0016 -2.33547 0
M  V30 1385 H 139.267 -3.12042 -2.75262 0
M  V30 1386 H 138.143 -3.80902 -3.95228 0
M  V30 1387 H 138.404 -2.0726 -3.90507 0
M  V30 1388 N 137.463 0.71206 -1.40597 0
M  V30 1389 C 138.712 1.46754 -1.38369 0
M  V30 1390 C 139.025 1.95598 0.0097839 0
M  V30 1391 O 140.231 2.71059 0.154677 0
M  V30 1392 C 138.687 2.65289 -2.43207 0
M  V30 1393 C 138.295 2.23301 -3.88382 0
M  V30 1394 C 140.039 3.43008 -2.50091 0
M  V30 1395 C 137.946 3.38696 -4.84808 0
M  V30 1396 H 136.876 0.55118 -0.514506 0
M  V30 1397 H 139.527 0.774616 -1.66349 0
M  V30 1398 H 137.909 3.36769 -2.08332 0
M  V30 1399 H 139.083 1.59218 -4.32419 0
M  V30 1400 H 137.398 1.58618 -3.85006 0
M  V30 1401 H 139.995 4.28881 -3.1932 0
M  V30 1402 H 140.338 3.87065 -1.53253 0
M  V30 1403 H 140.871 2.78574 -2.83974 0
M  V30 1404 H 137.61 2.99668 -5.82992 0
M  V30 1405 H 137.13 4.01683 -4.45433 0
M  V30 1406 H 138.809 4.04712 -5.04794 0
M  V30 1407 N 138.941 1.26152 0.944643 0
M  V30 1408 C 139.871 1.09902 2.06019 0
M  V30 1409 C 140.852 0.00519538 1.70099 0
M  V30 1410 O 142.037 0.176583 1.93396 0
M  V30 1411 C 139.167 0.727562 3.39594 0
M  V30 1412 C 138.121 1.77274 3.89561 0
M  V30 1413 C 137.447 1.25569 5.19747 0
M  V30 1414 C 138.747 3.17357 4.14827 0
M  V30 1415 H 140.441 2.03217 2.19871 0
M  V30 1416 H 137.987 0.978452 1.05652 0
M  V30 1417 H 139.94 0.600777 4.17095 0
M  V30 1418 H 138.664 -0.241287 3.25707 0
M  V30 1419 H 137.323 1.88814 3.14237 0
M  V30 1420 H 136.971 0.276783 5.02238 0
M  V30 1421 H 136.671 1.95433 5.54148 0
M  V30 1422 H 138.195 1.1415 5.99835 0
M  V30 1423 H 139.609 3.08914 4.82954 0
M  V30 1424 H 138.006 3.84781 4.60504 0
M  V30 1425 H 139.076 3.63673 3.20734 0
M  V30 1426 N 140.419 -1.14872 1.07899 0
M  V30 1427 C 141.644 -1.90202 0.826926 0
M  V30 1428 C 142.069 -1.77774 -0.614664 0
M  V30 1429 O 141.427 -1.11431 -1.43013 0
M  V30 1430 C 141.475 -3.38352 1.24702 0
M  V30 1431 O 140.579 -4.10497 0.39575 0
M  V30 1432 H 139.92 -0.591968 0.300782 0
M  V30 1433 H 142.45 -1.45437 1.43907 0
M  V30 1434 H 142.46 -3.89156 1.22563 0
M  V30 1435 H 141.135 -3.46715 2.29698 0
M  V30 1436 H 139.712 -3.69796 0.480117 0
M  V30 1437 N 141.898 -0.863906 -1.31812 0
M  V30 1438 C 143.175 -0.39275 -1.91616 0
M  V30 1439 C 143.555 1.12461 -1.7865 0
M  V30 1440 O 142.903 1.95045 -1.19037 0
M  V30 1441 C 143.113 -0.867385 -3.38049 0
M  V30 1442 C 144.461 -0.889966 -4.15168 0
M  V30 1443 O 145.485 -0.812635 -3.46806 0
M  V30 1444 O 144.344 -1.00079 -5.37258 0
M  V30 1445 H 141.438 -0.116358 -0.818773 0
M  V30 1446 H 143.984 -0.951418 -1.40521 0
M  V30 1447 H 142.756 -1.91081 -3.41473 0
M  V30 1448 H 142.379 -0.286687 -3.96565 0
M  V30 1449 N 143.376 1.44774 -0.622745 0
M  V30 1450 C 144.624 2.01721 -0.123655 0
M  V30 1451 C 144.945 1.49172 1.25589 0
M  V30 1452 O 144.215 0.691974 1.83272 0
M  V30 1453 H 142.795 0.745777 -0.0427225 0
M  V30 1454 H 145.457 1.77382 -0.807559 0
M  V30 1455 H 144.553 3.11984 -0.0849534 0
M  V30 1456 N 144.854 0.36279 1.53368 0
M  V30 1457 C 146.27 0.0116182 1.59596 0
M  V30 1458 C 146.47 -1.47012 1.37803 0
M  V30 1459 O 145.526 -2.23136 1.18181 0
M  V30 1460 C 146.839 0.465052 2.97082 0
M  V30 1461 C 148.387 0.419033 3.10182 0
M  V30 1462 C 148.862 0.848235 4.50077 0
M  V30 1463 N 150.353 0.803183 4.56183 0
M  V30 1464 C 151.088 1.107 5.62613 0
M  V30 1465 N 150.584 1.47996 6.76808 0
M  V30 1466 N 152.377 1.02998 5.52583 0
M  V30 1467 H 144.528 1.32775 1.65785 0
M  V30 1468 H 146.791 0.542518 0.777417 0
M  V30 1469 H 146.497 1.49892 3.18159 0
M  V30 1470 H 146.371 -0.149786 3.76902 0
M  V30 1471 H 148.758 -0.605696 2.88817 0
M  V30 1472 H 148.839 1.06933 2.32377 0
M  V30 1473 H 148.483 1.87107 4.7218 0
M  V30 1474 H 148.413 0.175218 5.26308 0
M  V30 1475 H 150.904 0.52838 3.74188 0
M  V30 1476 H 151.217 1.69613 7.53957 0
M  V30 1477 H 149.562 1.51859 6.78206 0
M  V30 1478 H 152.753 0.737817 4.62249 0
M  V30 1479 H 152.926 1.2701 6.35431 0
M  V30 1480 N 146.332 -1.57332 0.0918853 0
M  V30 1481 C 147.295 -2.12708 -0.85369 0
M  V30 1482 C 148.295 -1.05561 -1.213 0
M  V30 1483 O 149.485 -1.31461 -1.14296 0
M  V30 1484 C 146.617 -2.64503 -2.15061 0
M  V30 1485 H 147.81 -2.97573 -0.3729 0
M  V30 1486 H 145.363 -1.55509 -0.157072 0
M  V30 1487 H 146.098 -1.83149 -2.67632 0
M  V30 1488 H 145.883 -3.4284 -1.90272 0
M  V30 1489 H 147.373 -3.07351 -2.82711 0
M  V30 1490 N 147.81 0.181792 -1.56548 0
M  V30 1491 C 148.74 1.22765 -1.98623 0
M  V30 1492 C 149.721 1.46747 -0.860189 0
M  V30 1493 O 150.906 1.58259 -1.12551 0
M  V30 1494 C 148.036 2.56894 -2.33715 0
M  V30 1495 C 146.99 2.475 -3.49182 0
M  V30 1496 C 146.316 3.86023 -3.69986 0
M  V30 1497 C 147.616 1.98866 -4.82959 0
M  V30 1498 H 149.31 0.877942 -2.86239 0
M  V30 1499 H 146.856 0.42088 -1.37712 0
M  V30 1500 H 148.809 3.30253 -2.61746 0
M  V30 1501 H 147.533 2.93632 -1.42997 0
M  V30 1502 H 146.192 1.76596 -3.21262 0
M  V30 1503 H 145.84 4.20136 -2.76576 0
M  V30 1504 H 145.54 3.80609 -4.47672 0
M  V30 1505 H 147.064 4.60984 -4.00407 0
M  V30 1506 H 148.478 2.61992 -5.09934 0
M  V30 1507 H 146.875 2.04424 -5.64208 0
M  V30 1508 H 147.945 0.942465 -4.75653 0
M  V30 1509 N 149.288 1.51039 0.449983 0
M  V30 1510 C 150.565 1.53612 1.21089 0
M  V30 1511 C 150.945 0.292997 2.09057 0
M  V30 1512 O 150.293 -0.72259 2.16774 0
M  V30 1513 C 150.503 2.84337 2.0237 0
M  V30 1514 C 151.851 3.35807 2.59843 0
M  V30 1515 O 152.875 2.85802 2.12593 0
M  V30 1516 O 151.734 4.23029 3.45989 0
M  V30 1517 H 148.828 0.617057 0.550608 0
M  V30 1518 H 151.374 1.63344 0.460082 0
M  V30 1519 H 150.146 3.66278 1.37681 0
M  V30 1520 H 149.769 2.77708 2.84542 0
M  V30 1521 N 150.766 -0.704594 1.40972 0
M  V30 1522 C 151.996 -1.49138 1.42974 0
M  V30 1523 C 152.404 -1.89175 0.0308406 0
M  V30 1524 O 151.747 -1.56734 -0.958138 0
M  V30 1525 C 151.809 -2.79016 2.26694 0
M  V30 1526 C 151.473 -2.61236 3.74973 0
M  V30 1527 C 152.47 -2.27773 4.67349 0
M  V30 1528 C 150.155 -2.77158 4.18914 0
M  V30 1529 C 152.149 -2.10457 6.01653 0
M  V30 1530 C 149.836 -2.59459 5.53285 0
M  V30 1531 C 150.834 -2.26158 6.4447 0
M  V30 1532 O 150.522 -2.08605 7.76363 0
M  V30 1533 H 150.254 -0.466443 0.489292 0
M  V30 1534 H 152.808 -0.8758 1.85793 0
M  V30 1535 H 151.038 -3.42947 1.78673 0
M  V30 1536 H 152.727 -3.40782 2.20504 0
M  V30 1537 H 153.493 -2.15095 4.34694 0
M  V30 1538 H 149.372 -3.02064 3.48251 0
M  V30 1539 H 152.916 -1.84387 6.72791 0
M  V30 1540 H 148.813 -2.71725 5.85522 0
M  V30 1541 H 149.581 -2.23439 7.87412 0
M  V30 1542 N 152.244 -1.26651 -0.937939 0
M  V30 1543 C 153.521 -1.0313 -1.66204 0
M  V30 1544 C 153.901 0.437256 -2.06522 0
M  V30 1545 O 153.249 1.41831 -1.79154 0
M  V30 1546 C 153.459 -1.98314 -2.87181 0
M  V30 1547 C 154.807 -2.27107 -3.58758 0
M  V30 1548 O 155.831 -1.96205 -2.97291 0
M  V30 1549 O 154.69 -2.79736 -4.69479 0
M  V30 1550 H 151.784 -0.392384 -0.727986 0
M  V30 1551 H 154.33 -1.37874 -0.989382 0
M  V30 1552 H 153.102 -2.97399 -2.54302 0
M  V30 1553 H 152.725 -1.64068 -3.6217 0
M  V30 1554 N 153.722 1.14298 -1.08507 0
M  V30 1555 C 155.138 1.37347 -0.812901 0
M  V30 1556 C 155.338 1.93052 0.577325 0
M  V30 1557 O 154.394 2.14389 1.33393 0
M  V30 1558 C 155.707 2.33359 -1.89642 0
M  V30 1559 C 157.255 2.46996 -1.92255 0
M  V30 1560 C 157.73 3.46309 -2.99724 0
M  V30 1561 N 159.221 3.53853 -2.98902 0
M  V30 1562 C 159.956 4.3055 -3.787 0
M  V30 1563 N 159.452 5.10482 -4.6838 0
M  V30 1564 N 161.245 4.25757 -3.66998 0
M  V30 1565 H 153.396 0.764867 -1.9815 0
M  V30 1566 H 155.659 0.398966 -0.859959 0
M  V30 1567 H 155.365 1.99565 -2.89597 0
M  V30 1568 H 155.239 3.33274 -1.76659 0
M  V30 1569 H 157.626 2.80081 -0.929445 0
M  V30 1570 H 157.707 1.47039 -2.09316 0
M  V30 1571 H 157.351 3.13957 -3.99241 0
M  V30 1572 H 157.281 4.46049 -2.79907 0
M  V30 1573 H 159.772 2.96812 -2.33904 0
M  V30 1574 H 160.085 5.66284 -5.25873 0
M  V30 1575 H 158.43 5.09747 -4.72422 0
M  V30 1576 H 161.621 3.62383 -2.96304 0
M  V30 1577 H 161.794 4.85279 -4.29427 0
M  V30 1578 N 155.201 0.870884 1.31352 0
M  V30 1579 C 156.131 0.343096 2.30966 0
M  V30 1580 C 157.112 -0.566507 1.60389 0
M  V30 1581 O 158.297 -0.483336 1.88089 0
M  V30 1582 C 155.427 -0.455487 3.443 0
M  V30 1583 C 154.381 0.361103 4.26474 0
M  V30 1584 C 153.707 -0.563221 5.31725 0
M  V30 1585 C 155.007 1.59566 4.97329 0
M  V30 1586 H 156.701 1.17548 2.75359 0
M  V30 1587 H 154.247 0.566686 1.32381 0
M  V30 1588 H 156.2 -0.83525 4.13039 0
M  V30 1589 H 154.924 -1.32139 2.98675 0
M  V30 1590 H 153.583 0.722825 3.59403 0
M  V30 1591 H 153.231 -1.42643 4.82351 0
M  V30 1592 H 152.931 -0.0207409 5.87596 0
M  V30 1593 H 154.455 -0.939808 6.03324 0
M  V30 1594 H 155.869 1.28728 5.58661 0
M  V30 1595 H 154.266 2.07728 5.63 0
M  V30 1596 H 155.336 2.34798 4.24262 0
M  V30 1597 N 156.679 -1.44442 0.630414 0
M  V30 1598 C 157.925 -2.02351 0.134816 0
M  V30 1599 C 158.258 -1.4947 -1.23986 0
M  V30 1600 O 157.533 -0.678475 -1.82283 0
M  V30 1601 C 157.816 -3.59898 0.120707 0
M  V30 1602 C 157.669 -4.23063 1.52767 0
M  V30 1603 C 158.988 -4.36585 -0.555127 0
M  V30 1604 H 156.107 -0.73527 0.0504646 0
M  V30 1605 H 158.749 -1.72022 0.806751 0
M  V30 1606 H 156.899 -3.85868 -0.451477 0
M  V30 1607 H 158.571 -4.08202 2.14869 0
M  V30 1608 H 156.814 -3.80586 2.08175 0
M  V30 1609 H 157.485 -5.32071 1.46984 0
M  V30 1610 H 159.961 -4.16044 -0.0685429 0
M  V30 1611 H 158.837 -5.46294 -0.534185 0
M  V30 1612 H 159.098 -4.11138 -1.62535 0
M  V30 1613 N 158.157 -0.370918 -1.53173 0
M  V30 1614 C 159.087 0.464847 -2.28826 0
M  V30 1615 C 160.068 1.07936 -1.31468 0
M  V30 1616 O 161.253 1.0956 -1.60344 0
M  V30 1617 C 158.383 1.60196 -3.08147 0
M  V30 1618 C 157.337 1.11443 -4.13237 0
M  V30 1619 C 156.663 2.3422 -4.80672 0
M  V30 1620 C 157.963 0.195384 -5.21934 0
M  V30 1621 H 159.657 -0.166329 -2.98938 0
M  V30 1622 H 157.203 -0.0814359 -1.4377 0
M  V30 1623 H 159.156 2.19332 -3.59822 0
M  V30 1624 H 157.88 2.26045 -2.35735 0
M  V30 1625 H 156.539 0.545727 -3.62515 0
M  V30 1626 H 156.187 2.98537 -4.04827 0
M  V30 1627 H 155.887 2.02269 -5.51689 0
M  V30 1628 H 157.411 2.94032 -5.35143 0
M  V30 1629 H 158.825 0.694375 -5.69079 0
M  V30 1630 H 157.222 -0.0335027 -6.00091 0
M  V30 1631 H 158.292 -0.760961 -4.78892 0
M  V30 1632 N 159.635 1.57281 -0.100228 0
M  V30 1633 C 160.598 2.13158 0.842398 0
M  V30 1634 C 161.598 1.06202 1.20738 0
M  V30 1635 O 162.788 1.32066 1.13597 0
M  V30 1636 C 159.92 2.65639 2.13655 0
M  V30 1637 H 161.113 2.97766 0.357114 0
M  V30 1638 H 158.666 1.5559 0.148823 0
M  V30 1639 H 159.401 1.84566 2.66657 0
M  V30 1640 H 159.186 3.43844 1.88451 0
M  V30 1641 H 160.676 3.08846 2.81077 0
M  V30 1642 N 161.113 -0.173488 1.56642 0
M  V30 1643 C 162.341 -0.906095 1.86004 0
M  V30 1644 C 162.756 -1.75921 0.685355 0
M  V30 1645 O 162.113 -1.79198 -0.345578 0
M  V30 1646 C 162.164 -1.78462 3.14378 0
M  V30 1647 O 161.885 -0.965914 4.27319 0
M  V30 1648 C 163.386 -2.62707 3.57071 0
M  V30 1649 H 160.606 -0.263341 0.617165 0
M  V30 1650 H 163.15 -0.174236 2.03756 0
M  V30 1651 H 161.305 -2.46984 2.98459 0
M  V30 1652 H 161.719 -1.56655 5.00559 0
M  V30 1653 H 163.193 -3.19969 4.49804 0
M  V30 1654 H 163.67 -3.37472 2.81086 0
M  V30 1655 H 164.276 -1.99521 3.75595 0
M  V30 1656 N 162.591 -1.51276 -0.441967 0
M  V30 1657 C 163.839 -1.63392 -1.18943 0
M  V30 1658 C 164.16 -0.350159 -1.9183 0
M  V30 1659 O 163.43 0.633784 -1.85364 0
M  V30 1660 H 162.01 -0.602164 -0.442049 0
M  V30 1661 H 164.672 -1.88186 -0.507165 0
M  V30 1662 H 163.768 -2.45934 -1.92154 0
M  V30 1663 N 164.069 0.697108 -1.41344 0
M  V30 1664 C 165.317 1.45426 -1.40341 0
M  V30 1665 C 165.638 1.94996 -0.0128787 0
M  V30 1666 O 164.908 1.71599 0.945027 0
M  V30 1667 H 163.488 0.539594 -0.516573 0
M  V30 1668 H 166.15 0.825201 -1.76569 0
M  V30 1669 H 165.246 2.31817 -2.08967 0
M  V30 1670 N 165.547 1.27147 0.931209 0
M  V30 1671 C 166.963 1.04475 1.20653 0
M  V30 1672 C 167.163 -0.223885 2.00252 0
M  V30 1673 O 166.219 -0.930332 2.34736 0
M  V30 1674 C 167.532 2.28209 1.95809 0
M  V30 1675 C 169.08 2.33211 2.08762 0
M  V30 1676 C 169.555 3.56665 2.87323 0
M  V30 1677 N 171.046 3.57201 2.94892 0
M  V30 1678 C 171.781 4.49395 3.56134 0
M  V30 1679 N 171.277 5.51889 4.18796 0
M  V30 1680 N 173.07 4.37026 3.53504 0
M  V30 1681 H 165.221 2.08612 0.399333 0
M  V30 1682 H 167.484 0.917312 0.239253 0
M  V30 1683 H 167.19 3.20538 1.44736 0
M  V30 1684 H 167.064 2.33247 2.96438 0
M  V30 1685 H 169.451 1.41391 2.59023 0
M  V30 1686 H 169.532 2.32178 1.07364 0
M  V30 1687 H 169.176 4.4882 2.37746 0
M  V30 1688 H 169.106 3.54948 3.88998 0
M  V30 1689 H 171.597 2.83074 2.50354 0
M  V30 1690 H 171.91 6.18409 4.63454 0
M  V30 1691 H 170.255 5.55735 4.17353 0
M  V30 1692 H 173.446 3.56166 3.03749 0
M  V30 1693 H 173.619 5.09067 4.00942 0
M  V30 1694 N 167.025 -1.13721 1.09112 0
M  V30 1695 C 168.436 -1.6648 0.845068 0
M  V30 1696 C 168.787 -1.85911 -0.62701 0
M  V30 1697 O 167.912 -1.57556 -1.48341 0
M  V30 1698 C 168.507 -3.02413 1.52748 0
M  V30 1699 C 167.066 -3.52176 1.32849 0
M  V30 1700 C 166.213 -2.27492 1.58564 0
M  V30 1701 H 169.164 -0.976872 1.25072 0
M  V30 1702 H 169.185 -3.68223 0.958752 0
M  V30 1703 H 168.697 -2.88238 2.59885 0
M  V30 1704 H 166.798 -3.7156 0.278137 0
M  V30 1705 H 166.911 -4.32499 2.0611 0
M  V30 1706 H 165.275 -2.33923 1.00758 0
M  V30 1707 H 166.058 -2.15886 2.66924 0
M  V30 1708 N 168.503 -0.877838 -1.30888 0
M  V30 1709 C 169.919 -0.570844 -1.49042 0
M  V30 1710 C 170.119 0.893159 -1.80624 0
M  V30 1711 O 169.175 1.67485 -1.88958 0
M  V30 1712 C 170.488 -1.47784 -2.61878 0
M  V30 1713 C 172.036 -1.48071 -2.75761 0
M  V30 1714 C 172.511 -2.37347 -3.91702 0
M  V30 1715 N 174.002 -2.35271 -3.99001 0
M  V30 1716 C 174.737 -3.01063 -4.88004 0
M  V30 1717 N 174.233 -3.76055 -5.81854 0
M  V30 1718 N 176.026 -2.90332 -4.81315 0
M  V30 1719 H 168.177 -1.82502 -1.0866 0
M  V30 1720 H 170.44 -0.780797 -0.537644 0
M  V30 1721 H 170.146 -2.51993 -2.45341 0
M  V30 1722 H 170.02 -1.18215 -3.58197 0
M  V30 1723 H 172.407 -0.446166 -2.91708 0
M  V30 1724 H 172.488 -1.81668 -1.80085 0
M  V30 1725 H 172.132 -3.40883 -3.76512 0
M  V30 1726 H 172.062 -2.01071 -4.86701 0
M  V30 1727 H 174.553 -1.80768 -3.3186 0
M  V30 1728 H 174.866 -4.23366 -6.46514 0
M  V30 1729 H 173.211 -3.80163 -5.81808 0
M  V30 1730 H 176.402 -2.31278 -4.06974 0
M  V30 1731 H 176.575 -3.41885 -5.50471 0
M  V30 1732 N 169.982 1.44106 -0.638065 0
M  V30 1733 C 171.393 1.85316 -0.226894 0
M  V30 1734 C 171.744 1.53399 1.22324 0
M  V30 1735 O 170.869 0.975463 1.93167 0
M  V30 1736 C 171.464 3.3637 -0.405013 0
M  V30 1737 C 170.023 3.76369 -0.0482902 0
M  V30 1738 C 169.17 2.67921 -0.715108 0
M  V30 1739 H 172.121 1.34474 -0.842764 0
M  V30 1740 H 172.142 3.7885 0.354 0
M  V30 1741 H 171.654 3.59569 -1.46053 0
M  V30 1742 H 169.755 3.58784 1.00522 0
M  V30 1743 H 169.868 4.76856 -0.463187 0
M  V30 1744 H 168.232 2.54259 -0.149753 0
M  V30 1745 H 169.015 2.93951 -1.77335 0
M  V30 1746 N 171.46 0.379036 1.52974 0
M  V30 1747 C 172.39 -0.452706 2.29069 0
M  V30 1748 C 173.371 -1.07237 1.32039 0
M  V30 1749 O 174.556 -1.08708 1.60923 0
M  V30 1750 C 171.686 -1.5856 3.08992 0
M  V30 1751 C 170.64 -1.0925 4.13822 0
M  V30 1752 C 169.966 -2.31668 4.81907 0
M  V30 1753 C 171.266 -0.167702 5.22031 0
M  V30 1754 H 172.96 0.182181 2.98845 0
M  V30 1755 H 170.506 0.0890592 1.43724 0
M  V30 1756 H 172.459 -2.1742 3.6098 0
M  V30 1757 H 171.183 -2.24792 2.36931 0
M  V30 1758 H 169.842 -0.526494 3.628 0
M  V30 1759 H 169.49 -2.96386 4.06404 0
M  V30 1760 H 169.19 -1.9934 5.52754 0
M  V30 1761 H 170.714 -2.91189 5.36695 0
M  V30 1762 H 172.128 -0.664186 5.6944 0
M  V30 1763 H 170.525 0.0653265 6.00064 0
M  V30 1764 H 171.595 0.786347 4.78482 0
M  V30 1765 N 172.938 -1.57226 0.108567 0
M  V30 1766 C 174.349 -1.8195 -0.418464 0
M  V30 1767 C 174.7 -1.02508 -1.67292 0
M  V30 1768 O 173.825 -0.258496 -2.14851 0
M  V30 1769 C 174.42 -3.30028 -0.765979 0
M  V30 1770 C 172.979 -3.55469 -1.23769 0
M  V30 1771 C 172.126 -2.7625 -0.241106 0
M  V30 1772 H 175.077 -1.55149 0.33384 0
M  V30 1773 H 175.098 -3.44086 -1.62434 0
M  V30 1774 H 174.61 -3.87821 0.147219 0
M  V30 1775 H 172.711 -3.03022 -2.16814 0
M  V30 1776 H 172.824 -4.6408 -1.19022 0
M  V30 1777 H 171.188 -2.44133 -0.72602 0
M  V30 1778 H 171.971 -3.36797 0.665007 0
M  V30 1779 N 174.416 0.165178 -1.56732 0
M  V30 1780 C 175.662 0.882112 -1.82611 0
M  V30 1781 C 175.995 1.81628 -0.687378 0
M  V30 1782 O 175.27 1.92009 0.310267 0
M  V30 1783 C 175.553 1.67245 -3.18906 0
M  V30 1784 C 175.406 0.760987 -4.43316 0
M  V30 1785 C 176.725 2.63884 -3.52212 0
M  V30 1786 H 173.844 0.319242 -0.664269 0
M  V30 1787 H 176.486 0.148052 -1.89422 0
M  V30 1788 H 174.636 2.29824 -3.1323 0
M  V30 1789 H 176.308 0.147596 -4.61064 0
M  V30 1790 H 174.551 0.0694102 -4.33744 0
M  V30 1791 H 175.222 1.34962 -5.35247 0
M  V30 1792 H 177.698 2.11429 -3.58381 0
M  V30 1793 H 176.574 3.16245 -4.48643 0
M  V30 1794 H 176.835 3.44377 -2.77231 0
M  V30 1795 N 175.894 1.51508 0.433938 0
M  V30 1796 C 176.857 1.72473 1.50949 0
M  V30 1797 C 177.857 0.594725 1.49398 0
M  V30 1798 O 179.047 0.862315 1.5136 0
M  V30 1799 C 176.179 1.78431 2.90474 0
M  V30 1800 H 177.372 2.68467 1.33662 0
M  V30 1801 H 174.925 1.41549 0.662836 0
M  V30 1802 H 175.66 0.842645 3.13161 0
M  V30 1803 H 175.445 2.60558 2.93005 0
M  V30 1804 H 176.935 1.96479 3.68491 0
M  V30 1805 N 177.372 -0.689602 1.41712 0
M  V30 1806 C 178.597 -1.48329 1.44959 0
M  V30 1807 C 179.022 -1.8801 0.0581283 0
M  V30 1808 O 178.38 -1.55026 -0.940035 0
M  V30 1809 C 178.428 -2.71835 2.36935 0
M  V30 1810 O 177.532 -3.69549 1.8305 0
M  V30 1811 H 176.873 -0.446199 0.491734 0
M  V30 1812 H 179.403 -0.847127 1.86239 0
M  V30 1813 H 179.413 -3.20076 2.53013 0
M  V30 1814 H 178.088 -2.42291 3.38035 0
M  V30 1815 H 176.665 -3.2851 1.76452 0
M  V30 1816 N 178.85 -1.27639 -0.924453 0
M  V30 1817 C 180.098 -1.13941 -1.66918 0
M  V30 1818 C 180.419 0.314589 -1.92446 0
M  V30 1819 O 179.689 1.21964 -1.53303 0
M  V30 1820 H 178.269 -0.418678 -0.618642 0
M  V30 1821 H 180.931 -1.60213 -1.10985 0
M  V30 1822 H 180.027 -1.67094 -2.63602 0
M  V30 1823 N 180.328 1.1314 -1.09713 0
M  V30 1824 C 181.291 2.16831 -0.742751 0
M  V30 1825 C 182.291 1.59159 0.229129 0
M  V30 1826 O 183.481 1.74199 0.00693237 0
M  V30 1827 C 180.613 3.40756 -0.0989168 0
M  V30 1828 H 181.806 2.49695 -1.66109 0
M  V30 1829 H 179.359 1.2802 -0.896699 0
M  V30 1830 H 180.094 3.13485 0.830514 0
M  V30 1831 H 179.879 3.83888 -0.798265 0
M  V30 1832 H 181.369 4.17386 0.133524 0
M  V30 1833 N 181.806 0.884767 1.30421 0
M  V30 1834 C 183.052 0.503851 1.96441 0
M  V30 1835 C 183.385 -0.944518 1.69684 0
M  V30 1836 O 182.66 -1.66737 1.00145 0
M  V30 1837 C 182.943 0.779085 3.51571 0
M  V30 1838 C 182.796 2.27807 3.87846 0
M  V30 1839 C 184.115 0.255452 4.39358 0
M  V30 1840 H 181.234 0.184533 0.713524 0
M  V30 1841 H 183.876 1.10872 1.54297 0
M  V30 1842 H 182.026 0.264274 3.876 0
M  V30 1843 H 183.698 2.86127 3.61841 0
M  V30 1844 H 181.941 2.74479 3.35922 0
M  V30 1845 H 182.612 2.42125 4.96064 0
M  V30 1846 H 185.088 0.696079 4.10236 0
M  V30 1847 H 183.964 0.477361 5.4682 0
M  V30 1848 H 184.225 -0.843293 4.33983 0
M  V30 1849 N 183.284 -1.43765 0.645699 0
M  V30 1850 C 184.532 -2.01499 0.155731 0
M  V30 1851 C 184.853 -1.51151 -1.232 0
M  V30 1852 O 184.123 -0.721044 -1.82148 0
M  V30 1853 H 182.703 -0.745003 0.0545817 0
M  V30 1854 H 185.365 -1.76075 0.835677 0
M  V30 1855 H 184.461 -3.1181 0.134577 0
M  V30 1856 N 184.763 -0.387143 -1.52771 0
M  V30 1857 C 185.71 0.449048 -2.26389 0
M  V30 1858 C 186.68 1.05961 -1.27912 0
M  V30 1859 O 187.865 1.08804 -1.56737 0
M  V30 1860 C 185.005 1.57155 -3.0724 0
M  V30 1861 C 184.118 0.984066 -4.20643 0
M  V30 1862 C 183.253 2.07745 -4.88892 0
M  V30 1863 C 182.292 1.46574 -5.94292 0
M  V30 1864 N 181.429 2.49834 -6.56146 0
M  V30 1865 H 186.269 -0.185205 -2.97424 0
M  V30 1866 H 183.806 -0.103164 -1.46738 0
M  V30 1867 H 185.764 2.23309 -3.52405 0
M  V30 1868 H 184.394 2.17615 -2.38419 0
M  V30 1869 H 183.446 0.212193 -3.79808 0
M  V30 1870 H 184.758 0.497029 -4.96318 0
M  V30 1871 H 183.912 2.81673 -5.3735 0
M  V30 1872 H 182.651 2.59807 -4.12737 0
M  V30 1873 H 181.656 0.711696 -5.45174 0
M  V30 1874 H 182.881 0.953088 -6.72379 0
M  V30 1875 H 180.827 3.0107 -5.82832 0
M  V30 1876 H 180.744 2.05879 -7.27427 0
M  V30 1877 H 182.012 3.23399 -7.09249 0
M  V30 1878 N 186.241 1.57166 -0.116904 0
M  V30 1879 C 187.204 2.14039 0.819742 0
M  V30 1880 C 188.204 1.07477 1.19605 0
M  V30 1881 O 189.394 1.33263 1.1219 0
M  V30 1882 C 186.526 2.67891 2.10826 0
M  V30 1883 H 187.719 2.98128 0.325511 0
M  V30 1884 H 185.272 1.55739 0.132312 0
M  V30 1885 H 186.007 1.87384 2.64685 0
M  V30 1886 H 185.792 3.45823 1.84793 0
M  V30 1887 H 187.282 3.11809 2.77785 0
M  V30 1888 N 187.719 -0.156864 1.56817 0
M  V30 1889 C 188.667 -1.21319 1.98455 0
M  V30 1890 C 189.661 -1.45025 0.875444 0
M  V30 1891 O 190.867 -1.45435 1.0606 0
M  V30 1892 H 187.242 -0.408142 0.631605 0
M  V30 1893 H 189.213 -0.835244 2.86472 0
M  V30 1894 C 187.962 -2.54148 2.37285 0
M  V30 1895 H 187.285 -2.36733 3.22176 0
M  V30 1896 H 188.725 -3.26712 2.70251 0
M  V30 1897 C 187.184 -3.13967 1.22173 0
M  V30 1898 O 187.714 -3.98357 0.517149 0
M  V30 1899 N 185.92 -2.7327 0.988536 0
M  V30 1900 H 185.467 -2.04744 1.56326 0
M  V30 1901 H 185.425 -3.13628 0.220209 0
M  V30 1902 N 189.197 -1.51736 -0.425897 0
M  V30 1903 C 190.145 -1.74464 -1.53834 0
M  V30 1904 C 191.139 -0.611241 -1.57988 0
M  V30 1905 O 192.345 -0.792899 -1.61596 0
M  V30 1906 H 188.72 -0.551437 -0.511293 0
M  V30 1907 H 190.691 -2.67694 -1.31843 0
M  V30 1908 C 189.44 -1.8972 -2.91379 0
M  V30 1909 H 188.763 -2.76344 -2.88919 0
M  V30 1910 H 190.203 -2.09629 -3.68553 0
M  V30 1911 C 188.662 -0.65992 -3.30374 0
M  V30 1912 O 189.192 0.180083 -4.01296 0
M  V30 1913 N 187.398 -0.500677 -2.86254 0
M  V30 1914 H 186.945 -1.18532 -2.28709 0
M  V30 1915 H 186.903 0.325903 -3.12706 0
M  V30 1916 N 190.675 0.682077 -1.42076 0
M  V30 1917 C 191.922 1.44215 -1.42156 0
M  V30 1918 C 192.25 1.94468 -0.0354186 0
M  V30 1919 O 191.505 1.70816 0.955002 0
M  V30 1920 C 191.804 2.66036 -2.38662 0
M  V30 1921 C 191.47 2.34366 -3.85206 0
M  V30 1922 C 190.132 2.25439 -4.25124 0
M  V30 1923 C 192.484 2.08513 -4.77673 0
M  V30 1924 C 189.812 1.88775 -5.55501 0
M  V30 1925 C 192.164 1.73354 -6.08384 0
M  V30 1926 C 190.828 1.62933 -6.47309 0
M  V30 1927 H 190.098 0.527718 -0.520187 0
M  V30 1928 H 192.745 0.778387 -1.74967 0
M  V30 1929 H 191.05 3.3741 -1.99152 0
M  V30 1930 H 192.747 3.24205 -2.35991 0
M  V30 1931 H 189.337 2.42213 -3.53597 0
M  V30 1932 H 193.521 2.14346 -4.47626 0
M  V30 1933 H 188.777 1.7927 -5.84527 0
M  V30 1934 H 192.951 1.52373 -6.79526 0
M  V30 1935 H 190.578 1.34292 -7.48244 0
M  V30 1936 N 192.153 1.28127 0.917671 0
M  V30 1937 C 193.569 1.05749 1.19538 0
M  V30 1938 C 193.769 -0.202633 2.00479 0
M  V30 1939 O 192.825 -0.905382 2.3571 0
M  V30 1940 C 194.138 2.30273 1.93378 0
M  V30 1941 C 195.686 2.35412 2.06277 0
M  V30 1942 C 196.161 3.59692 2.83524 0
M  V30 1943 N 197.652 3.60309 2.91087 0
M  V30 1944 C 198.387 4.53147 3.51348 0
M  V30 1945 N 197.883 5.563 4.12919 0
M  V30 1946 N 199.676 4.40751 3.48849 0
M  V30 1947 H 191.827 2.09024 0.377184 0
M  V30 1948 H 194.09 0.919798 0.22951 0
M  V30 1949 H 193.796 3.22055 1.41328 0
M  V30 1950 H 193.67 2.36378 2.93947 0
M  V30 1951 H 196.057 1.4413 2.57508 0
M  V30 1952 H 196.138 2.33304 1.04895 0
M  V30 1953 H 195.782 4.51316 2.32973 0
M  V30 1954 H 195.712 3.59054 3.85211 0
M  V30 1955 H 198.203 2.85714 2.47338 0
M  V30 1956 H 198.516 6.2329 4.56869 0
M  V30 1957 H 196.861 5.60131 4.11435 0
M  V30 1958 H 200.052 3.59367 2.99955 0
M  V30 1959 H 200.225 5.13291 3.9552 0
M  V30 1960 N 193.631 -1.12557 1.10312 0
M  V30 1961 C 194.861 -1.87592 0.865617 0
M  V30 1962 C 195.269 -1.79851 -0.587389 0
M  V30 1963 O 194.612 -1.16949 -1.41664 0
M  V30 1964 C 194.674 -3.37665 1.23381 0
M  V30 1965 C 194.338 -3.69181 2.69359 0
M  V30 1966 C 195.335 -3.67652 3.67597 0
M  V30 1967 C 193.02 -3.98555 3.05711 0
M  V30 1968 C 195.014 -3.95053 5.00212 0
M  V30 1969 C 192.701 -4.25616 4.38514 0
M  V30 1970 C 193.699 -4.23851 5.35574 0
M  V30 1971 O 193.387 -4.50242 6.65986 0
M  V30 1972 H 193.119 -0.600442 0.310557 0
M  V30 1973 H 195.673 -1.4335 1.47105 0
M  V30 1974 H 193.903 -3.82454 0.571467 0
M  V30 1975 H 195.592 -3.94041 0.973994 0
M  V30 1976 H 196.358 -3.45024 3.40857 0
M  V30 1977 H 192.237 -3.99071 2.30789 0
M  V30 1978 H 195.781 -3.93591 5.75962 0
M  V30 1979 H 191.678 -4.47718 4.64994 0
M  V30 1980 H 192.446 -4.67867 6.71597 0
M  V30 1981 N 195.109 -0.891671 -1.2995 0
M  V30 1982 C 196.039 -0.379797 -2.30391 0
M  V30 1983 C 197.02 0.540919 -1.6127 0
M  V30 1984 O 198.205 0.453352 -1.88834 0
M  V30 1985 C 195.335 0.400654 -3.44981 0
M  V30 1986 C 194.289 -0.428905 -4.25846 0
M  V30 1987 C 193.615 0.478557 -5.32554 0
M  V30 1988 C 194.915 -1.67458 -4.94727 0
M  V30 1989 H 196.609 -1.21914 -2.73454 0
M  V30 1990 H 194.155 -0.587675 -1.31462 0
M  V30 1991 H 196.108 0.769434 -4.14316 0
M  V30 1992 H 194.832 1.27371 -3.0074 0
M  V30 1993 H 193.491 -0.779911 -3.58208 0
M  V30 1994 H 193.139 1.34951 -4.84559 0
M  V30 1995 H 192.839 -0.0727433 -5.87555 0
M  V30 1996 H 194.363 0.843705 -6.04743 0
M  V30 1997 H 195.777 -1.376 -5.56542 0
M  V30 1998 H 194.174 -2.16659 -5.59624 0
M  V30 1999 H 195.244 -2.41518 -4.20473 0
M  V30 2000 N 196.587 1.43421 -0.653314 0
M  V30 2001 C 198.003 1.56341 -0.320886 0
M  V30 2002 C 198.203 1.63696 1.17499 0
M  V30 2003 O 197.259 1.59208 1.95982 0
M  V30 2004 C 198.572 2.82424 -1.03233 0
M  V30 2005 C 200.12 2.96168 -1.01259 0
M  V30 2006 C 200.595 4.25084 -1.70492 0
M  V30 2007 N 202.086 4.31948 -1.67257 0
M  V30 2008 C 202.821 5.30466 -2.17701 0
M  V30 2009 N 202.317 6.35261 -2.76434 0
M  V30 2010 N 204.11 5.2212 -2.082 0
M  V30 2011 H 196.261 1.3689 -1.62403 0
M  V30 2012 H 198.524 0.657455 -0.682977 0
M  V30 2013 H 198.23 2.83053 -2.08744 0
M  V30 2014 H 198.104 3.72653 -0.583948 0
M  V30 2015 H 200.491 2.9508 0.0341235 0
M  V30 2016 H 200.572 2.07229 -1.49966 0
M  V30 2017 H 200.216 4.26932 -2.7512 0
M  V30 2018 H 200.146 5.1292 -1.19251 0
M  V30 2019 H 202.637 3.56838 -1.24398 0
M  V30 2020 H 202.95 7.06754 -3.12601 0
M  V30 2021 H 201.295 6.35884 -2.80495 0
M  V30 2022 H 204.486 4.39166 -1.62021 0
M  V30 2023 H 204.659 5.98739 -2.47822 0
M  V30 2024 N 198.065 0.39524 1.52563 0
M  V30 2025 C 199.293 -0.184943 2.06072 0
M  V30 2026 C 199.708 -1.40021 1.26647 0
M  V30 2027 O 199.065 -1.79767 0.314672 0
M  V30 2028 C 199.116 -0.549179 3.57304 0
M  V30 2029 O 198.837 0.617813 4.33722 0
M  V30 2030 C 200.338 -1.18459 4.2718 0
M  V30 2031 H 197.558 -0.0265025 0.670476 0
M  V30 2032 H 200.102 0.562184 1.96621 0
M  V30 2033 H 198.257 -1.2462 3.66809 0
M  V30 2034 H 198.671 0.317091 5.23541 0
M  V30 2035 H 200.145 -1.38976 5.34219 0
M  V30 2036 H 200.622 -2.15368 3.82771 0
M  V30 2037 H 201.228 -0.528163 4.22008 0
M  V30 2038 N 199.544 -1.57102 0.125237 0
M  V30 2039 C 200.474 -2.18659 -0.819174 0
M  V30 2040 C 201.455 -1.12843 -1.27281 0
M  V30 2041 O 202.64 -1.41104 -1.33429 0
M  V30 2042 C 199.77 -2.79096 -2.06695 0
M  V30 2043 C 198.724 -3.90548 -1.75088 0
M  V30 2044 C 198.05 -4.37821 -3.06948 0
M  V30 2045 C 199.35 -5.12356 -1.01435 0
M  V30 2046 H 201.044 -2.9783 -0.306202 0
M  V30 2047 H 198.59 -1.4326 -0.145839 0
M  V30 2048 H 200.543 -3.2082 -2.73226 0
M  V30 2049 H 199.267 -1.97223 -2.60328 0
M  V30 2050 H 197.926 -3.49409 -1.10944 0
M  V30 2051 H 197.574 -3.52799 -3.58527 0
M  V30 2052 H 197.274 -5.12982 -2.86571 0
M  V30 2053 H 198.798 -4.822 -3.74587 0
M  V30 2054 H 200.212 -5.5106 -1.58132 0
M  V30 2055 H 198.609 -5.9314 -0.911319 0
M  V30 2056 H 199.679 -4.849 -0.00218681 0
M  V30 2057 N 201.022 0.148545 -1.56898 0
M  V30 2058 C 201.932 1.20293 -2.01412 0
M  V30 2059 C 202.948 1.47107 -0.929273 0
M  V30 2060 O 204.124 1.58807 -1.23863 0
M  V30 2061 C 201.189 2.51682 -2.38447 0
M  V30 2062 C 200.25 2.32529 -3.60872 0
M  V30 2063 C 199.483 3.57653 -3.96132 0
M  V30 2064 O 199.706 4.63771 -3.32073 0
M  V30 2065 O 198.64 3.50408 -4.89385 0
M  V30 2066 H 202.466 0.855025 -2.91416 0
M  V30 2067 H 200.051 0.357151 -1.45068 0
M  V30 2068 H 201.933 3.29147 -2.63135 0
M  V30 2069 H 200.608 2.86006 -1.51599 0
M  V30 2070 H 199.515 1.53019 -3.41373 0
M  V30 2071 H 200.848 2.03121 -4.48333 0
M  V30 2072 N 202.5 1.5196 0.417844 0
M  V30 2073 C 203.777 1.56146 1.17803 0
M  V30 2074 C 204.157 0.337275 2.08388 0
M  V30 2075 O 203.505 -0.676447 2.18258 0
M  V30 2076 C 203.715 2.88566 1.96293 0
M  V30 2077 C 205.063 3.41244 2.52662 0
M  V30 2078 O 206.087 2.90247 2.06483 0
M  V30 2079 O 204.946 4.30273 3.36938 0
M  V30 2080 H 202.04 0.628598 0.537395 0
M  V30 2081 H 204.586 1.64283 0.425331 0
M  V30 2082 H 203.358 3.69116 1.2988 0
M  V30 2083 H 202.981 2.83681 2.78587 0
M  V30 2084 N 203.978 -0.674533 1.42435 0
M  V30 2085 C 204.941 -1.76986 1.45632 0
M  V30 2086 C 205.941 -1.5708 0.343871 0
M  V30 2087 O 207.131 -1.63367 0.604709 0
M  V30 2088 C 204.263 -3.15623 1.28822 0
M  V30 2089 H 205.456 -1.75539 2.43158 0
M  V30 2090 H 203.009 -0.884189 1.28887 0
M  V30 2091 H 203.744 -3.22696 0.322193 0
M  V30 2092 H 203.529 -3.31475 2.09444 0
M  V30 2093 H 205.019 -3.95537 1.33942 0
M  V30 2094 N 205.456 -1.28612 -0.910864 0
M  V30 2095 C 206.366 -1.14643 -2.0468 0
M  V30 2096 C 207.382 -0.0723121 -1.7385 0
M  V30 2097 O 208.558 -0.282178 -1.99413 0
M  V30 2098 C 205.623 -0.812561 -3.37044 0
M  V30 2099 C 204.684 -1.96935 -3.81465 0
M  V30 2100 C 203.917 -1.65131 -5.07511 0
M  V30 2101 O 204.14 -0.567013 -5.67575 0
M  V30 2102 O 203.074 -2.49585 -5.47714 0
M  V30 2103 H 206.9 -2.1001 -2.19384 0
M  V30 2104 H 204.485 -1.07958 -1.03274 0
M  V30 2105 H 206.367 -0.640441 -4.16505 0
M  V30 2106 H 205.042 0.111426 -3.23508 0
M  V30 2107 H 203.949 -2.19664 -3.02818 0
M  V30 2108 H 205.282 -2.87414 -3.99567 0
M  V30 2109 N 206.934 1.1197 -1.10907 0
M  V30 2110 C 208.174 1.85224 -0.864378 0
M  V30 2111 C 208.538 1.82411 0.599178 0
M  V30 2112 O 209.739 2.51057 0.960416 0
M  V30 2113 C 208.01 3.2868 -1.40371 0
M  V30 2114 S 209.569 4.1925 -1.29518 0
M  V30 2115 H 206.387 0.63878 -0.312219 0
M  V30 2116 H 208.989 1.3485 -1.41548 0
M  V30 2117 H 207.693 3.28289 -2.46281 0
M  V30 2118 H 207.224 3.84121 -0.849402 0
M  V30 2119 H 209.239 4.95539 -0.256059 0
M  V30 2120 N 208.412 0.89855 1.29475 0
M  V30 2121 C 209.661 0.519863 1.94885 0
M  V30 2122 C 209.974 -0.9383 1.71625 0
M  V30 2123 O 211.18 -1.42445 2.31131 0
M  V30 2124 C 209.636 0.878836 3.49005 0
M  V30 2125 C 209.244 2.35569 3.81066 0
M  V30 2126 C 210.988 0.570004 4.20656 0
M  V30 2127 C 208.895 2.65558 5.28425 0
M  V30 2128 H 207.825 0.190692 0.729488 0
M  V30 2129 H 210.476 1.09539 1.47219 0
M  V30 2130 H 208.858 0.232253 3.95318 0
M  V30 2131 H 210.032 3.04773 3.45616 0
M  V30 2132 H 208.347 2.63343 3.22552 0
M  V30 2133 H 210.944 0.770925 5.29113 0
M  V30 2134 H 211.287 -0.491404 4.1339 0
M  V30 2135 H 211.82 1.17438 3.8007 0
M  V30 2136 H 208.559 3.70493 5.40754 0
M  V30 2137 H 208.079 2.00977 5.65127 0
M  V30 2138 H 209.758 2.51765 5.96006 0
M  V30 2139 N 209.89 -1.43072 0.660911 0
M  V30 2140 C 211.306 -1.56169 0.329173 0
M  V30 2141 C 211.506 -1.64317 -1.16629 0
M  V30 2142 O 210.562 -1.60245 -1.95135 0
M  V30 2143 C 211.875 -2.81873 1.04729 0
M  V30 2144 C 213.423 -2.95627 1.02828 0
M  V30 2145 C 213.898 -4.24174 1.72744 0
M  V30 2146 N 215.389 -4.31055 1.69545 0
M  V30 2147 C 216.124 -5.29304 2.20511 0
M  V30 2148 N 215.62 -6.33786 2.79799 0
M  V30 2149 N 217.413 -5.21008 2.10966 0
M  V30 2150 H 209.564 -1.36027 1.63127 0
M  V30 2151 H 211.827 -0.653823 0.686454 0
M  V30 2152 H 211.533 -2.81942 2.10242 0
M  V30 2153 H 211.407 -3.72338 0.603702 0
M  V30 2154 H 213.794 -2.95094 -0.0184742 0
M  V30 2155 H 213.875 -2.06431 1.51063 0
M  V30 2156 H 213.519 -4.25467 2.7738 0
M  V30 2157 H 213.449 -5.1228 1.2197 0
M  V30 2158 H 215.94 -3.56174 1.26288 0
M  V30 2159 H 216.253 -7.05086 3.16344 0
M  V30 2160 H 214.598 -6.34387 2.83863 0
M  V30 2161 H 217.789 -4.38301 1.64347 0
M  V30 2162 H 217.962 -5.97416 2.50993 0
M  V30 2163 N 211.368 -0.403325 -1.52352 0
M  V30 2164 C 212.784 -0.0539281 -1.59509 0
M  V30 2165 C 212.984 1.43307 -1.41652 0
M  V30 2166 O 212.04 2.19924 -1.24056 0
M  V30 2167 C 213.353 -0.543654 -2.95745 0
M  V30 2168 C 214.901 -0.501125 -3.08962 0
M  V30 2169 C 215.376 -0.967267 -4.47669 0
M  V30 2170 N 216.867 -0.923849 -4.53893 0
M  V30 2171 C 217.602 -1.25578 -5.5948 0
M  V30 2172 N 217.098 -1.65889 -6.72646 0
M  V30 2173 N 218.891 -1.17613 -5.49658 0
M  V30 2174 H 211.042 -1.37123 -1.62206 0
M  V30 2175 H 213.305 -0.56294 -0.76276 0
M  V30 2176 H 213.011 -1.58275 -3.14073 0
M  V30 2177 H 212.885 0.0498042 -3.77167 0
M  V30 2178 H 215.272 0.528909 -2.90321 0
M  V30 2179 H 215.353 -1.13056 -2.2946 0
M  V30 2180 H 214.997 -1.9956 -4.67053 0
M  V30 2181 H 214.927 -0.314698 -5.25659 0
M  V30 2182 H 217.418 -0.627403 -3.72655 0
M  V30 2183 H 217.731 -1.89543 -7.49195 0
M  V30 2184 H 216.076 -1.69787 -6.73942 0
M  V30 2185 H 219.267 -0.860115 -4.6013 0
M  V30 2186 H 219.44 -1.43812 -6.3184 0
M  V30 2187 N 212.846 1.57033 -0.133567 0
M  V30 2188 C 213.778 2.13176 0.841944 0
M  V30 2189 C 214.791 1.07794 1.22001 0
M  V30 2190 O 215.98 1.35117 1.16643 0
M  V30 2191 C 213.08 2.62847 2.13926 0
M  V30 2192 C 212.253 3.92486 1.93064 0
M  V30 2193 C 211.312 4.27605 3.0666 0
M  V30 2194 O 210.338 4.96168 2.78937 0
M  V30 2195 N 211.54 3.861 4.33483 0
M  V30 2196 H 214.305 2.97503 0.362192 0
M  V30 2197 H 211.866 1.61821 0.05042 0
M  V30 2198 H 213.858 2.83363 2.88942 0
M  V30 2199 H 212.428 1.83319 2.53205 0
M  V30 2200 H 211.648 3.80732 1.02159 0
M  V30 2201 H 212.936 4.77225 1.76447 0
M  V30 2202 H 212.334 3.30828 4.58878 0
M  V30 2203 H 210.891 4.11694 5.05323 0
M  V30 2204 N 214.325 -0.140222 1.56975 0
M  V30 2205 C 215.255 -1.17456 2.01808 0
M  V30 2206 C 216.236 -1.44415 0.898794 0
M  V30 2207 O 217.421 -1.5522 1.16707 0
M  V30 2208 C 214.551 -2.50607 2.40444 0
M  V30 2209 C 213.505 -2.38155 3.55621 0
M  V30 2210 C 212.831 -3.76078 3.80091 0
M  V30 2211 C 214.131 -1.85991 4.88062 0
M  V30 2212 H 215.825 -0.801743 2.88466 0
M  V30 2213 H 213.371 -0.38422 1.38779 0
M  V30 2214 H 215.324 -3.23197 2.7041 0
M  V30 2215 H 214.048 -2.89737 1.50732 0
M  V30 2216 H 212.707 -1.68016 3.25832 0
M  V30 2217 H 212.355 -4.12656 2.87618 0
M  V30 2218 H 212.055 -3.68606 4.57606 0
M  V30 2219 H 213.579 -4.50206 4.12488 0
M  V30 2220 H 214.993 -2.4838 5.16701 0
M  V30 2221 H 213.39 -1.89393 5.6943 0
M  V30 2222 H 214.46 -0.816023 4.77984 0
M  V30 2223 N 215.803 -1.52179 -0.40978 0
M  V30 2224 C 217.052 -1.65434 -1.15388 0
M  V30 2225 C 217.365 -0.390056 -1.91671 0
M  V30 2226 O 218.571 -0.402399 -2.68501 0
M  V30 2227 C 217.027 -2.92279 -2.10003 0
M  V30 2228 C 216.635 -4.25813 -1.39239 0
M  V30 2229 C 218.379 -3.14897 -2.84675 0
M  V30 2230 C 216.286 -5.43782 -2.32498 0
M  V30 2231 H 215.216 -0.616267 -0.434432 0
M  V30 2232 H 217.867 -1.78666 -0.418401 0
M  V30 2233 H 216.249 -2.72744 -2.871 0
M  V30 2234 H 217.423 -4.55828 -0.675099 0
M  V30 2235 H 215.738 -4.09292 -0.766097 0
M  V30 2236 H 218.335 -4.0021 -3.54593 0
M  V30 2237 H 218.678 -2.29103 -3.47588 0
M  V30 2238 H 219.211 -3.34901 -2.14677 0
M  V30 2239 H 215.95 -6.3192 -1.74233 0
M  V30 2240 H 215.47 -5.18106 -3.02201 0
M  V30 2241 H 217.149 -5.76834 -2.93038 0
M  V30 2242 N 217.281 0.66697 -1.42791 0
M  V30 2243 C 218.244 1.76211 -1.46568 0
M  V30 2244 C 219.244 1.56896 -0.352196 0
M  V30 2245 O 220.434 1.63044 -0.613364 0
M  V30 2246 C 217.566 3.14935 -1.30494 0
M  V30 2247 H 218.759 1.74247 -2.44086 0
M  V30 2248 H 216.312 0.877342 -1.29354 0
M  V30 2249 H 217.047 3.2252 -0.339301 0
M  V30 2250 H 216.832 3.30359 -2.11199 0
M  V30 2251 H 218.322 3.94821 -1.36038 0
M  V30 2252 N 218.759 1.29093 0.90403 0
M  V30 2253 C 220.036 1.075 1.63411 0
M  V30 2254 C 220.416 -0.382346 2.07609 0
M  V30 2255 O 219.764 -1.37031 1.82851 0
M  V30 2256 C 219.974 2.05858 2.81822 0
M  V30 2257 C 221.322 2.36539 3.52611 0
M  V30 2258 O 222.346 2.04019 2.91984 0
M  V30 2259 O 221.205 2.92085 4.61897 0
M  V30 2260 H 218.299 0.411547 0.717327 0
M  V30 2261 H 220.845 1.40449 0.952479 0
M  V30 2262 H 219.617 3.04037 2.46327 0
M  V30 2263 H 219.24 1.73613 3.57693 0
M  V30 2264 N 220.237 -1.11381 1.11499 0
M  V30 2265 C 221.185 -2.19522 0.768956 0
M  V30 2266 C 222.179 -1.67693 -0.239857 0
M  V30 2267 O 223.385 -1.79727 -0.0990755 0
M  V30 2268 H 219.76 -0.715711 0.230786 0
M  V30 2269 H 221.731 -2.45954 1.68964 0
M  V30 2270 C 220.48 -3.46945 0.229073 0
M  V30 2271 H 219.803 -3.8718 0.996596 0
M  V30 2272 H 221.243 -4.23993 0.0251441 0
M  V30 2273 C 219.702 -3.2042 -1.04079 0
M  V30 2274 O 220.232 -3.41178 -2.12038 0
M  V30 2275 N 218.438 -2.74151 -0.963823 0
M  V30 2276 H 217.985 -2.57459 -0.0851722 0
M  V30 2277 H 217.943 -2.56781 -1.81414 0
M  V30 2278 N 221.715 -0.905404 -1.28997 0
M  V30 2279 C 223.131 -0.60233 -1.47798 0
M  V30 2280 C 223.331 0.854645 -1.82478 0
M  V30 2281 O 222.387 1.63439 -1.92468 0
M  V30 2282 C 223.7 -1.53306 -2.58685 0
M  V30 2283 C 225.248 -1.53887 -2.72558 0
M  V30 2284 C 225.723 -2.45602 -3.86579 0
M  V30 2285 N 227.214 -2.43681 -3.93921 0
M  V30 2286 C 227.949 -3.11347 -4.81509 0
M  V30 2287 N 227.445 -3.88313 -5.73746 0
M  V30 2288 N 229.238 -3.00476 -4.75048 0
M  V30 2289 H 221.389 -1.84765 -1.04764 0
M  V30 2290 H 223.652 -0.792025 -0.520961 0
M  V30 2291 H 223.358 -2.57141 -2.39941 0
M  V30 2292 H 223.232 -1.25787 -3.55609 0
M  V30 2293 H 225.619 -0.507941 -2.90696 0
M  V30 2294 H 225.7 -1.85447 -1.76191 0
M  V30 2295 H 225.344 -3.48792 -3.69197 0
M  V30 2296 H 225.274 -2.11349 -4.82327 0
M  V30 2297 H 227.765 -1.87767 -3.27951 0
M  V30 2298 H 228.078 -4.36985 -6.37389 0
M  V30 2299 H 226.423 -3.92419 -5.73614 0
M  V30 2300 H 229.614 -2.39858 -4.01977 0
M  V30 2301 H 229.787 -3.53485 -5.43095 0
M  V30 2302 N 223.193 1.4272 -0.668489 0
M  V30 2303 C 224.123 2.335 -0.000100175 0
M  V30 2304 C 225.104 1.50328 0.795964 0
M  V30 2305 O 226.289 1.78949 0.754385 0
M  V30 2306 C 223.419 3.33874 0.956302 0
M  V30 2307 C 222.373 4.27152 0.269278 0
M  V30 2308 C 221.699 5.17684 1.33818 0
M  V30 2309 C 222.999 5.15373 -0.847805 0
M  V30 2310 H 224.693 2.89639 -0.758244 0
M  V30 2311 H 222.239 1.39269 -0.366079 0
M  V30 2312 H 224.192 3.9629 1.43292 0
M  V30 2313 H 222.916 2.76025 1.74579 0
M  V30 2314 H 221.575 3.66123 -0.187042 0
M  V30 2315 H 221.223 4.56165 2.1195 0
M  V30 2316 H 220.923 5.80918 0.883659 0
M  V30 2317 H 222.447 5.82974 1.81586 0
M  V30 2318 H 223.861 5.7151 -0.452681 0
M  V30 2319 H 222.258 5.87407 -1.22773 0
M  V30 2320 H 223.328 4.5415 -1.69929 0
M  V30 2321 N 224.671 0.411399 1.52136 0
M  V30 2322 C 225.917 -0.163888 2.02137 0
M  V30 2323 C 226.25 -1.44597 1.29636 0
M  V30 2324 O 225.525 -1.90272 0.403353 0
M  V30 2325 C 225.808 -0.40927 3.57767 0
M  V30 2326 C 225.661 0.889643 4.40914 0
M  V30 2327 C 226.98 -1.19042 4.23694 0
M  V30 2328 H 224.099 -0.0580896 0.734707 0
M  V30 2329 H 226.741 0.54531 1.82007 0
M  V30 2330 H 224.891 -1.0134 3.7505 0
M  V30 2331 H 226.563 1.52575 4.35337 0
M  V30 2332 H 224.806 1.50011 4.07037 0
M  V30 2333 H 225.477 0.672314 5.4789 0
M  V30 2334 H 227.953 -0.678942 4.10524 0
M  V30 2335 H 226.829 -1.33086 5.32522 0
M  V30 2336 H 227.09 -2.21166 3.82803 0
M  V30 2337 N 226.149 -1.5696 0.141893 0
M  V30 2338 C 227.395 -1.9625 -0.511248 0
M  V30 2339 C 227.728 -1.02654 -1.64851 0
M  V30 2340 O 227.003 -0.0679676 -1.94381 0
M  V30 2341 C 227.286 -3.45285 -1.02227 0
M  V30 2342 C 227.139 -4.49658 0.113138 0
M  V30 2343 C 228.458 -3.96698 -1.90574 0
M  V30 2344 H 225.577 -0.713567 -0.184367 0
M  V30 2345 H 228.219 -1.88698 0.222087 0
M  V30 2346 H 226.369 -3.51852 -1.64719 0
M  V30 2347 H 228.041 -4.55174 0.749302 0
M  V30 2348 H 226.284 -4.26857 0.773026 0
M  V30 2349 H 226.955 -5.51258 -0.286053 0
M  V30 2350 H 229.431 -3.92578 -1.37918 0
M  V30 2351 H 228.307 -5.01453 -2.2324 0
M  V30 2352 H 228.568 -3.3875 -2.84079 0
M  V30 2353 N 227.627 0.131896 -1.57047 0
M  V30 2354 C 228.876 0.84044 -1.83356 0
M  V30 2355 C 229.189 1.81646 -0.725535 0
M  V30 2356 O 230.395 2.57025 -0.874659 0
M  V30 2357 C 228.851 1.54528 -3.25037 0
M  V30 2358 C 228.459 0.610902 -4.43815 0
M  V30 2359 C 230.203 2.23972 -3.60606 0
M  V30 2360 C 228.11 1.31823 -5.76521 0
M  V30 2361 H 227.04 0.317599 -0.683847 0
M  V30 2362 H 229.691 0.0931561 -1.83263 0
M  V30 2363 H 228.073 2.33873 -3.19561 0
M  V30 2364 H 229.247 -0.148407 -4.60561 0
M  V30 2365 H 227.562 0.0241016 -4.16393 0
M  V30 2366 H 230.159 2.77558 -4.57018 0
M  V30 2367 H 230.502 3.01173 -2.87403 0
M  V30 2368 H 231.035 1.51529 -3.6781 0
M  V30 2369 H 227.774 0.587771 -6.52859 0
M  V30 2370 H 227.294 2.04987 -5.63685 0
M  V30 2371 H 228.973 1.855 -6.19838 0
M  V30 2372 N 229.106 1.52395 0.401703 0
M  V30 2373 C 230.354 1.66488 1.14569 0
M  V30 2374 C 230.675 0.400897 1.90835 0
M  V30 2375 O 229.945 -0.584415 1.8698 0
M  V30 2376 H 228.525 0.613672 0.425929 0
M  V30 2377 H 231.187 1.89464 0.457093 0
M  V30 2378 H 230.283 2.50942 1.85566 0
M  V30 2379 N 230.584 -0.659388 1.43143 0
M  V30 2380 C 231.832 -1.41654 1.44147 0
M  V30 2381 C 232.153 -1.94893 0.0645739 0
M  V30 2382 O 231.423 -1.74044 -0.899198 0
M  V30 2383 H 230.003 -0.525708 0.530697 0
M  V30 2384 H 232.665 -0.778097 1.78694 0
M  V30 2385 H 231.761 -2.26195 2.1504 0
M  V30 2386 N 232.062 -1.29571 -0.897171 0
M  V30 2387 C 233.31 -1.17456 -1.64464 0
M  V30 2388 C 233.631 0.273698 -1.9307 0
M  V30 2389 O 232.901 1.18684 -1.55855 0
M  V30 2390 H 231.481 -0.431706 -0.609622 0
M  V30 2391 H 234.143 -1.62531 -1.07562 0
M  V30 2392 H 233.239 -1.72648 -2.59998 0
M  V30 2393 N 233.54 1.10788 -1.12088 0
M  V30 2394 C 234.77 1.86191 -0.895351 0
M  V30 2395 C 235.178 1.80763 0.558702 0
M  V30 2396 O 234.521 1.19188 1.39785 0
M  V30 2397 C 234.583 3.35659 -1.28737 0
M  V30 2398 C 234.247 3.64849 -2.75198 0
M  V30 2399 C 235.244 3.61757 -3.734 0
M  V30 2400 C 232.929 3.93641 -3.12013 0
M  V30 2401 C 234.923 3.87045 -5.06434 0
M  V30 2402 C 232.61 4.18585 -4.4523 0
M  V30 2403 C 233.608 4.15277 -5.42249 0
M  V30 2404 O 233.296 4.3959 -6.73065 0
M  V30 2405 H 233.028 0.595425 -0.32007 0
M  V30 2406 H 235.582 1.40992 -1.49367 0
M  V30 2407 H 233.812 3.81497 -0.63224 0
M  V30 2408 H 235.501 3.92441 -1.03656 0
M  V30 2409 H 236.267 3.39557 -3.46303 0
M  V30 2410 H 232.146 3.95348 -2.37109 0
M  V30 2411 H 235.69 3.84378 -5.82151 0
M  V30 2412 H 231.587 4.40264 -4.72057 0
M  V30 2413 H 232.355 4.57123 -6.78956 0
M  V30 2414 N 235.018 0.912232 1.28515 0
M  V30 2415 C 236.267 0.540504 1.94323 0
M  V30 2416 C 236.58 -0.920044 1.72611 0
M  V30 2417 O 237.786 -1.39986 2.32629 0
M  V30 2418 C 236.242 0.915803 3.48053 0
M  V30 2419 C 235.85 2.39598 3.78546 0
M  V30 2420 C 237.594 0.614588 4.20027 0
M  V30 2421 C 235.501 2.71148 5.25578 0
M  V30 2422 H 234.431 0.198418 0.727424 0
M  V30 2423 H 237.082 1.11094 1.46049 0
M  V30 2424 H 235.464 0.274168 3.9505 0
M  V30 2425 H 236.638 3.08422 3.42364 0
M  V30 2426 H 234.953 2.66749 3.1974 0
M  V30 2427 H 237.55 0.827002 5.28266 0
M  V30 2428 H 237.893 -0.447531 4.13887 0
M  V30 2429 H 238.426 1.21462 3.78803 0
M  V30 2430 H 235.165 3.76207 5.36794 0
M  V30 2431 H 234.685 2.0696 5.62963 0
M  V30 2432 H 236.364 2.58072 5.93302 0
M  V30 2433 N 236.496 -1.42363 0.676048 0
M  V30 2434 C 237.744 -2.01123 0.198437 0
M  V30 2435 C 238.065 -1.53731 -1.19966 0
M  V30 2436 O 237.335 -0.759518 -1.80577 0
M  V30 2437 H 235.915 -0.743678 0.0703721 0
M  V30 2438 H 238.577 -1.74263 0.872837 0
M  V30 2439 H 237.673 -3.11454 0.200686 0
M  V30 2440 N 237.974 -0.419461 -1.51915 0
M  V30 2441 C 238.904 0.391813 -2.30189 0
M  V30 2442 C 239.885 1.03699 -1.34836 0
M  V30 2443 O 241.07 1.04403 -1.63748 0
M  V30 2444 C 238.2 1.50312 -3.13087 0
M  V30 2445 C 237.154 0.9824 -4.16573 0
M  V30 2446 C 236.48 2.18809 -4.8788 0
M  V30 2447 C 237.78 0.0292356 -5.22292 0
M  V30 2448 H 239.474 -0.26135 -2.98257 0
M  V30 2449 H 237.02 -0.127134 -1.43438 0
M  V30 2450 H 238.973 2.07773 -3.66617 0
M  V30 2451 H 237.697 2.18431 -2.42807 0
M  V30 2452 H 236.356 0.430119 -3.64068 0
M  V30 2453 H 236.004 2.85507 -4.14119 0
M  V30 2454 H 235.704 1.84615 -5.57845 0
M  V30 2455 H 237.228 2.76858 -5.44226 0
M  V30 2456 H 238.642 0.512976 -5.71 0
M  V30 2457 H 237.039 -0.2244 -5.9968 0
M  V30 2458 H 238.109 -0.912931 -4.76228 0
M  V30 2459 N 239.452 1.56882 -0.150215 0
M  V30 2460 C 240.362 2.20494 0.801222 0
M  V30 2461 C 241.378 1.19019 1.26927 0
M  V30 2462 O 242.554 1.51607 1.32579 0
M  V30 2463 C 239.619 2.81659 2.02161 0
M  V30 2464 C 238.68 3.9827 1.60249 0
M  V30 2465 C 237.913 4.56508 2.7647 0
M  V30 2466 O 238.136 4.13627 3.92771 0
M  V30 2467 O 237.07 5.46719 2.51757 0
M  V30 2468 H 240.896 3.02315 0.289717 0
M  V30 2469 H 238.481 1.49202 0.0769684 0
M  V30 2470 H 240.363 3.20522 2.73576 0
M  V30 2471 H 239.038 2.02849 2.52258 0
M  V30 2472 H 237.945 3.64117 0.858477 0
M  V30 2473 H 239.278 4.78609 1.14864 0
M  V30 2474 N 240.93 -0.123565 1.57115 0
M  V30 2475 C 242.176 -0.833386 1.84885 0
M  V30 2476 C 242.509 -1.79742 0.735292 0
M  V30 2477 O 241.784 -1.92764 -0.25925 0
M  V30 2478 C 242.067 -1.5873 3.23228 0
M  V30 2479 C 241.92 -0.643183 4.45178 0
M  V30 2480 C 243.239 -2.54453 3.59085 0
M  V30 2481 H 240.358 -0.301518 0.6725 0
M  V30 2482 H 243 -0.097778 1.89748 0
M  V30 2483 H 241.15 -2.21438 3.19214 0
M  V30 2484 H 242.822 -0.0253015 4.61293 0
M  V30 2485 H 241.065 0.0456139 4.33776 0
M  V30 2486 H 241.736 -1.20724 5.38637 0
M  V30 2487 H 244.212 -2.01853 3.63861 0
M  V30 2488 H 243.088 -3.04238 4.5687 0
M  V30 2489 H 243.349 -3.36906 2.86264 0
M  V30 2490 N 242.408 -1.52605 -0.393616 0
M  V30 2491 C 243.371 -1.76415 -1.46323 0
M  V30 2492 C 244.371 -0.634126 -1.47768 0
M  V30 2493 O 245.561 -0.902142 -1.4902 0
M  V30 2494 C 242.693 -1.8607 -2.85641 0
M  V30 2495 H 243.886 -2.71916 -1.26498 0
M  V30 2496 H 241.439 -1.43257 -0.625073 0
M  V30 2497 H 242.174 -0.925378 -3.10817 0
M  V30 2498 H 241.959 -2.68235 -2.85993 0
M  V30 2499 H 243.449 -2.06179 -3.63153 0
M  V30 2500 N 243.887 0.651787 -1.4349 0
M  V30 2501 C 244.85 1.74647 -1.48429 0
M  V30 2502 C 245.85 1.56513 -0.368817 0
M  V30 2503 O 247.04 1.62385 -0.630623 0
M  V30 2504 C 244.172 3.13533 -1.33827 0
M  V30 2505 H 245.365 1.71649 -2.4592 0
M  V30 2506 H 242.918 0.863573 -1.30277 0
M  V30 2507 H 243.653 3.22142 -0.37349 0
M  V30 2508 H 243.438 3.28101 -2.14691 0
M  V30 2509 H 244.928 3.93356 -1.40218 0
M  V30 2510 N 245.365 1.30045 0.890287 0
M  V30 2511 C 246.593 1.21472 1.67487 0
M  V30 2512 C 247.008 -0.223241 1.87476 0
M  V30 2513 O 246.365 -1.14828 1.41847 0
M  V30 2514 C 246.416 1.93394 3.05419 0
M  V30 2515 O 246.137 3.31576 2.86337 0
M  V30 2516 C 247.638 1.91414 3.99844 0
M  V30 2517 H 244.858 0.420604 0.522813 0
M  V30 2518 H 247.402 1.7158 1.11268 0
M  V30 2519 H 245.557 1.47099 3.58386 0
M  V30 2520 H 245.971 3.67929 3.73802 0
M  V30 2521 H 247.445 2.46285 4.94012 0
M  V30 2522 H 247.922 0.891833 4.3005 0
M  V30 2523 H 248.528 2.37496 3.52811 0
M  V30 2524 N 246.843 -1.10192 1.12674 0
M  V30 2525 C 247.806 -2.14786 0.799979 0
M  V30 2526 C 248.806 -1.59711 -0.18685 0
M  V30 2527 O 249.996 -1.74156 0.0392558 0
M  V30 2528 C 247.128 -3.40374 0.189228 0
M  V30 2529 H 248.321 -2.45203 1.72671 0
M  V30 2530 H 245.874 -1.25597 0.930326 0
M  V30 2531 H 246.609 -3.15577 -0.747107 0
M  V30 2532 H 246.394 -3.81637 0.899766 0
M  V30 2533 H 247.884 -4.17594 -0.0228143 0
M  V30 2534 N 248.321 -0.919034 -1.28029 0
M  V30 2535 C 249.57 -0.550802 -1.94034 0
M  V30 2536 C 249.883 0.910877 -1.73096 0
M  V30 2537 O 251.089 1.3875 -2.33368 0
M  V30 2538 C 249.545 -0.934249 -3.47563 0
M  V30 2539 C 249.153 -2.41602 -3.7727 0
M  V30 2540 C 250.897 -0.636854 -4.19696 0
M  V30 2541 C 248.804 -2.73932 -5.24133 0
M  V30 2542 H 247.734 -0.202273 -0.726362 0
M  V30 2543 H 250.385 -1.11867 -1.45458 0
M  V30 2544 H 248.767 -0.295115 -3.94899 0
M  V30 2545 H 249.941 -3.10233 -3.40723 0
M  V30 2546 H 248.256 -2.68441 -3.18321 0
M  V30 2547 H 250.853 -0.855005 -5.2782 0
M  V30 2548 H 251.196 0.425575 -4.14119 0
M  V30 2549 H 251.729 -1.23469 -3.78154 0
M  V30 2550 H 248.468 -3.79049 -5.34792 0
M  V30 2551 H 247.988 -2.09942 -5.61858 0
M  V30 2552 H 249.667 -2.61215 -5.91925 0
M  V30 2553 N 249.799 1.42003 -0.683588 0
M  V30 2554 C 250.746 2.30798 -0.0107309 0
M  V30 2555 C 251.716 1.4645 0.783688 0
M  V30 2556 O 252.901 1.75263 0.754156 0
M  V30 2557 C 250.041 3.3238 0.928306 0
M  V30 2558 C 249.154 4.31814 0.126776 0
M  V30 2559 C 248.289 5.20468 1.06236 0
M  V30 2560 C 247.328 6.11577 0.253035 0
M  V30 2561 N 246.465 6.92754 1.14179 0
M  V30 2562 H 251.305 2.8778 -0.773727 0
M  V30 2563 H 248.842 1.41745 -0.393283 0
M  V30 2564 H 250.8 3.89813 1.48666 0
M  V30 2565 H 249.43 2.76976 1.65783 0
M  V30 2566 H 248.482 3.76427 -0.54833 0
M  V30 2567 H 249.794 4.96276 -0.501192 0
M  V30 2568 H 248.948 5.82677 1.69035 0
M  V30 2569 H 247.687 4.56204 1.7242 0
M  V30 2570 H 246.692 5.48428 -0.388108 0
M  V30 2571 H 247.917 6.77892 -0.404839 0
M  V30 2572 H 245.863 6.3111 1.78987 0
M  V30 2573 H 245.78 7.53855 0.569111 0
M  V30 2574 H 247.048 7.59441 1.75697 0
M  V30 2575 N 251.277 0.427512 1.51691 0
M  V30 2576 C 252.24 -0.377132 2.26076 0
M  V30 2577 C 253.24 -0.958089 1.29141 0
M  V30 2578 O 254.43 -0.83408 1.52934 0
M  V30 2579 C 251.562 -1.53262 3.04506 0
M  V30 2580 H 252.755 0.27464 2.9864 0
M  V30 2581 H 250.308 0.180445 1.55255 0
M  V30 2582 H 251.043 -2.22072 2.36335 0
M  V30 2583 H 250.828 -1.12232 3.75694 0
M  V30 2584 H 252.318 -2.10135 3.60878 0
M  V30 2585 N 252.755 -1.56801 0.158532 0
M  V30 2586 C 253.703 -2.18638 -0.793729 0
M  V30 2587 C 254.697 -1.14669 -1.24689 0
M  V30 2588 O 255.903 -1.32895 -1.21403 0
M  V30 2589 H 252.278 -0.700226 -0.274204 0
M  V30 2590 H 254.249 -2.97367 -0.248095 0
M  V30 2591 C 252.998 -2.83139 -2.0181 0
M  V30 2592 H 252.321 -3.62863 -1.67841 0
M  V30 2593 H 253.761 -3.29894 -2.66357 0
M  V30 2594 C 252.22 -1.82244 -2.83353 0
M  V30 2595 O 252.75 -1.3 -3.80083 0
M  V30 2596 N 250.956 -1.51288 -2.48114 0
M  V30 2597 H 250.503 -1.93964 -1.69516 0
M  V30 2598 H 250.461 -0.840296 -3.02963 0
M  V30 2599 N 254.233 0.115231 -1.57178 0
M  V30 2600 C 255.166 1.17166 -1.95825 0
M  V30 2601 C 256.144 1.39912 -0.828463 0
M  V30 2602 O 257.328 1.54004 -1.08697 0
M  V30 2603 C 254.455 2.52478 -2.25771 0
M  V30 2604 C 253.501 2.46136 -3.48309 0
M  V30 2605 S 254.334 1.89736 -5.0076 0
M  V30 2606 C 255.49 3.26713 -5.33863 0
M  V30 2607 H 255.723 0.842103 -2.85124 0
M  V30 2608 H 253.256 0.322136 -1.51002 0
M  V30 2609 H 255.214 3.30332 -2.43702 0
M  V30 2610 H 253.875 2.82609 -1.37079 0
M  V30 2611 H 253.068 3.45819 -3.66641 0
M  V30 2612 H 252.67 1.76404 -3.29784 0
M  V30 2613 H 254.962 4.22935 -5.29275 0
M  V30 2614 H 255.905 3.13205 -6.35065 0
M  V30 2615 H 256.313 3.25316 -4.61335 0
M  V30 2616 N 255.711 1.52812 0.385517 0
M  V30 2617 C 256.661 1.74219 1.47078 0
M  V30 2618 C 257.645 0.59632 1.49442 0
M  V30 2619 O 258.837 0.85428 1.5502 0
M  V30 2620 C 255.966 1.9176 2.84751 0
M  V30 2621 C 255.052 3.12289 2.86943 0
M  V30 2622 N 255.443 4.34575 2.58802 0
M  V30 2623 C 253.741 3.12605 3.1811 0
M  V30 2624 C 254.442 5.162 2.68166 0
M  V30 2625 N 253.418 4.51964 3.02043 0
M  V30 2626 H 257.22 2.6639 1.24152 0
M  V30 2627 H 254.734 1.51166 0.593504 0
M  V30 2628 H 256.731 2.05218 3.62893 0
M  V30 2629 H 255.391 1.00805 3.08656 0
M  V30 2630 H 256.402 4.62649 2.32759 0
M  V30 2631 H 253.079 2.31472 3.47458 0
M  V30 2632 H 254.469 6.23689 2.49923 0
M  V30 2633 N 257.189 -0.644168 1.43834 0
M  V30 2634 C 258.435 -1.40603 1.46146 0
M  V30 2635 C 258.768 -1.93997 0.0887717 0
M  V30 2636 O 258.043 -1.72854 -0.891724 0
M  V30 2637 C 258.326 -2.58086 2.51124 0
M  V30 2638 C 258.179 -2.10126 3.97702 0
M  V30 2639 C 259.498 -3.60291 2.52742 0
M  V30 2640 H 256.617 -0.509905 0.532134 0
M  V30 2641 H 259.259 -0.729502 1.75437 0
M  V30 2642 H 257.409 -3.15801 2.26278 0
M  V30 2643 H 259.081 -1.57342 4.33637 0
M  V30 2644 H 257.324 -1.41419 4.10101 0
M  V30 2645 H 257.995 -2.94649 4.66783 0
M  V30 2646 H 260.471 -3.12352 2.7491 0
M  V30 2647 H 259.347 -4.40032 3.28121 0
M  V30 2648 H 259.608 -4.1349 1.56455 0
M  V30 2649 N 258.668 -1.30515 -0.883378 0
M  V30 2650 C 259.896 -1.22359 -1.66841 0
M  V30 2651 C 260.311 0.213296 -1.87591 0
M  V30 2652 O 259.668 1.14075 -1.42454 0
M  V30 2653 C 259.719 -1.95011 -3.04389 0
M  V30 2654 O 259.44 -3.3309 -2.84575 0
M  V30 2655 C 260.941 -1.93532 -3.98824 0
M  V30 2656 H 258.161 -0.423371 -0.520575 0
M  V30 2657 H 260.705 -1.72167 -1.10357 0
M  V30 2658 H 258.86 -1.48997 -3.57601 0
M  V30 2659 H 259.274 -3.69907 -3.71846 0
M  V30 2660 H 260.748 -2.48902 -4.92699 0
M  V30 2661 H 261.225 -0.914627 -4.29571 0
M  V30 2662 H 261.831 -2.39364 -3.51547 0
M  V30 2663 N 260.146 1.09593 -1.13257 0
M  V30 2664 C 261.076 2.18214 -0.830946 0
M  V30 2665 C 262.057 1.68812 0.208966 0
M  V30 2666 O 263.242 1.9408 0.0682666 0
M  V30 2667 C 260.372 3.46051 -0.294296 0
M  V30 2668 C 259.326 4.08778 -1.26826 0
M  V30 2669 C 258.652 5.31419 -0.591449 0
M  V30 2670 C 259.952 4.51476 -2.62615 0
M  V30 2671 H 261.646 2.43703 -1.73923 0
M  V30 2672 H 259.192 1.17128 -0.837675 0
M  V30 2673 H 261.145 4.2134 -0.0709606 0
M  V30 2674 H 259.869 3.20079 0.649366 0
M  V30 2675 H 258.528 3.35505 -1.47756 0
M  V30 2676 H 258.176 5.01727 0.357633 0
M  V30 2677 H 257.876 5.74341 -1.24123 0
M  V30 2678 H 259.4 6.09433 -0.377355 0
M  V30 2679 H 260.814 5.17999 -2.45663 0
M  V30 2680 H 259.211 5.05277 -3.23752 0
M  V30 2681 H 260.281 3.63962 -3.20406 0
M  V30 2682 N 261.624 0.925811 1.2754 0
M  V30 2683 C 262.554 0.440748 2.29303 0
M  V30 2684 C 263.535 -0.497971 1.62648 0
M  V30 2685 O 264.72 -0.403126 1.8997 0
M  V30 2686 C 261.85 -0.309048 3.45922 0
M  V30 2687 C 260.804 0.54166 4.24559 0
M  V30 2688 C 260.13 -0.337191 5.33636 0
M  V30 2689 C 261.43 1.80516 4.90114 0
M  V30 2690 H 263.124 1.29121 2.70126 0
M  V30 2691 H 260.67 0.622323 1.29858 0
M  V30 2692 H 262.623 -0.659315 4.1621 0
M  V30 2693 H 261.347 -1.19352 3.04011 0
M  V30 2694 H 260.006 0.874609 3.56014 0
M  V30 2695 H 259.654 -1.22056 4.87966 0
M  V30 2696 H 259.354 0.228497 5.87156 0
M  V30 2697 H 260.878 -0.683072 6.06767 0
M  V30 2698 H 262.292 1.52307 5.52698 0
M  V30 2699 H 260.689 2.3142 5.53683 0
M  V30 2700 H 261.759 2.52581 4.13921 0
M  V30 2701 N 263.102 -1.41638 0.69111 0
M  V30 2702 C 264.379 -1.95036 0.148421 0
M  V30 2703 C 264.759 -1.63072 -1.34055 0
M  V30 2704 O 264.107 -0.93538 -2.08478 0
M  V30 2705 C 264.317 -3.46279 0.434951 0
M  V30 2706 C 265.665 -4.23069 0.360275 0
M  V30 2707 O 266.689 -3.54277 0.369613 0
M  V30 2708 O 265.548 -5.45583 0.316534 0
M  V30 2709 H 262.642 -0.826908 0.0123654 0
M  V30 2710 H 265.188 -1.5138 0.766963 0
M  V30 2711 H 263.96 -3.6281 1.46576 0
M  V30 2712 H 263.583 -3.97019 -0.214787 0
M  V30 2713 N 264.58 -0.43555 -1.51462 0
M  V30 2714 C 265.808 0.130242 -2.0649 0
M  V30 2715 C 266.223 1.36614 -1.30315 0
M  V30 2716 O 265.58 1.78869 -0.362223 0
M  V30 2717 C 265.631 0.454253 -3.58635 0
M  V30 2718 O 265.352 -0.73259 -4.31931 0
M  V30 2719 C 266.853 1.07091 -4.3017 0
M  V30 2720 H 264.073 0.00871669 -0.670943 0
M  V30 2721 H 266.617 -0.614117 -1.95061 0
M  V30 2722 H 264.772 1.14851 -3.69984 0
M  V30 2723 H 265.186 -0.455787 -5.22516 0
M  V30 2724 H 266.66 1.24764 -5.37716 0
M  V30 2725 H 267.137 2.05144 -3.88346 0
M  V30 2726 H 267.743 0.416089 -4.2326 0
M  V30 2727 N 266.058 1.56714 -0.166846 0
M  V30 2728 C 267.021 2.16539 0.751232 0
M  V30 2729 C 268.021 1.11228 1.16125 0
M  V30 2730 O 269.211 1.36765 1.07894 0
M  V30 2731 C 266.343 2.74462 2.02196 0
M  V30 2732 H 267.536 2.99013 0.230499 0
M  V30 2733 H 265.089 1.56081 0.0826982 0
M  V30 2734 H 265.824 1.95709 2.58589 0
M  V30 2735 H 265.609 3.51527 1.73698 0
M  V30 2736 H 267.099 3.20489 2.67725 0
M  V30 2737 N 267.536 -0.106894 1.57237 0
M  V30 2738 C 268.499 -1.11466 2.0027 0
M  V30 2739 C 269.499 -1.33623 0.894519 0
M  V30 2740 O 270.689 -1.29935 1.16028 0
M  V30 2741 C 267.821 -2.46646 2.35327 0
M  V30 2742 H 269.014 -0.744516 2.90512 0
M  V30 2743 H 266.567 -0.351576 1.52295 0
M  V30 2744 H 267.302 -2.88558 1.48003 0
M  V30 2745 H 267.087 -2.31915 3.16161 0
M  V30 2746 H 268.577 -3.19151 2.69318 0
M  V30 2747 N 269.014 -1.53014 -0.377408 0
M  V30 2748 C 270.43 -1.42523 -0.718281 0
M  V30 2749 C 270.63 -0.55487 -1.9371 0
M  V30 2750 O 269.686 -0.0327593 -2.52479 0
M  V30 2751 C 270.999 -2.85546 -0.942539 0
M  V30 2752 C 272.547 -2.95101 -1.04329 0
M  V30 2753 C 273.022 -4.3916 -1.3001 0
M  V30 2754 N 274.513 -4.42536 -1.36806 0
M  V30 2755 C 275.248 -5.51097 -1.58364 0
M  V30 2756 N 274.744 -6.69724 -1.77317 0
M  V30 2757 N 276.537 -5.38657 -1.60638 0
M  V30 2758 H 268.688 -2.08116 0.424426 0
M  V30 2759 H 270.951 -0.939352 0.127759 0
M  V30 2760 H 270.657 -3.51499 -0.118929 0
M  V30 2761 H 270.531 -3.28493 -1.85397 0
M  V30 2762 H 272.918 -2.29309 -1.85745 0
M  V30 2763 H 272.999 -2.55566 -0.109505 0
M  V30 2764 H 272.643 -5.05521 -0.490991 0
M  V30 2765 H 272.573 -4.76258 -2.24691 0
M  V30 2766 H 275.064 -3.57039 -1.23821 0
M  V30 2767 H 275.377 -7.48233 -1.93306 0
M  V30 2768 H 273.722 -6.72732 -1.74518 0
M  V30 2769 H 276.913 -4.44948 -1.45391 0
M  V30 2770 H 277.086 -6.2333 -1.77098 0
M  V30 2771 N 270.492 0.636531 -1.44174 0
M  V30 2772 C 271.738 1.39826 -1.4689 0
M  V30 2773 C 272.071 1.93947 -0.0990585 0
M  V30 2774 O 271.346 1.73325 0.882544 0
M  V30 2775 C 271.629 2.56751 -2.5249 0
M  V30 2776 C 271.482 2.08014 -3.98811 0
M  V30 2777 C 272.801 3.58946 -2.54649 0
M  V30 2778 H 269.92 0.507075 -0.53483 0
M  V30 2779 H 272.562 0.720188 -1.75822 0
M  V30 2780 H 270.712 3.14597 -2.2795 0
M  V30 2781 H 272.384 1.5504 -4.34466 0
M  V30 2782 H 270.627 1.39242 -4.10846 0
M  V30 2783 H 271.298 2.92169 -4.68339 0
M  V30 2784 H 273.774 3.1089 -2.76563 0
M  V30 2785 H 272.65 4.38286 -3.3045 0
M  V30 2786 H 272.911 4.12655 -1.58646 0
M  V30 2787 N 271.97 1.30982 0.876444 0
M  V30 2788 C 272.9 1.20668 1.99903 0
M  V30 2789 C 273.881 0.095354 1.69833 0
M  V30 2790 O 275.066 0.27885 1.92188 0
M  V30 2791 C 272.196 0.90655 3.3526 0
M  V30 2792 C 271.15 1.97675 3.79617 0
M  V30 2793 C 270.476 1.52943 5.1236 0
M  V30 2794 C 271.776 3.389 3.97422 0
M  V30 2795 H 273.47 2.14586 2.0879 0
M  V30 2796 H 271.016 1.03308 1.00317 0
M  V30 2797 H 272.969 0.821025 4.13324 0
M  V30 2798 H 271.693 -0.0682969 3.26529 0
M  V30 2799 H 270.352 2.05205 3.03787 0
M  V30 2800 H 270 0.54262 5.00065 0
M  V30 2801 H 269.7 2.24532 5.43009 0
M  V30 2802 H 271.224 1.45786 5.92941 0
M  V30 2803 H 272.638 3.34081 4.659 0
M  V30 2804 H 271.035 4.0865 4.3946 0
M  V30 2805 H 272.105 3.80163 3.01006 0
M  V30 2806 N 273.449 -1.08991 1.13837 0
M  V30 2807 C 274.359 -2.19301 0.833333 0
M  V30 2808 C 275.375 -1.73026 -0.183847 0
M  V30 2809 O 276.551 -2.01395 -0.0138092 0
M  V30 2810 C 273.616 -3.45323 0.308651 0
M  V30 2811 C 272.677 -4.06255 1.38764 0
M  V30 2812 C 271.91 -5.26262 0.887896 0
M  V30 2813 O 272.133 -5.69747 -0.27287 0
M  V30 2814 O 271.067 -5.78435 1.66421 0
M  V30 2815 H 274.893 -2.47854 1.75506 0
M  V30 2816 H 272.478 -1.18012 0.916166 0
M  V30 2817 H 274.36 -4.21394 0.0216739 0
M  V30 2818 H 273.035 -3.18362 -0.585431 0
M  V30 2819 H 271.942 -3.318 1.72799 0
M  V30 2820 H 273.275 -4.37452 2.25602 0
M  V30 2821 N 274.927 -0.932562 -1.27047 0
M  V30 2822 C 276.343 -0.633544 -1.46487 0
M  V30 2823 C 276.543 0.815746 -1.84249 0
M  V30 2824 O 275.599 1.59319 -1.95892 0
M  V30 2825 C 276.912 -1.58758 -2.55375 0
M  V30 2826 C 278.46 -1.59634 -2.69232 0
M  V30 2827 C 278.935 -2.53747 -3.81283 0
M  V30 2828 N 280.426 -2.51982 -3.88664 0
M  V30 2829 C 281.161 -3.21491 -4.74796 0
M  V30 2830 N 280.657 -4.00395 -5.65381 0
M  V30 2831 N 282.45 -3.10485 -4.68568 0
M  V30 2832 H 274.601 -1.86946 -1.00821 0
M  V30 2833 H 276.864 -0.802897 -0.504044 0
M  V30 2834 H 276.57 -2.62172 -2.34432 0
M  V30 2835 H 276.444 -1.33301 -3.52861 0
M  V30 2836 H 278.831 -0.569488 -2.89553 0
M  V30 2837 H 278.912 -1.89142 -1.72218 0
M  V30 2838 H 278.556 -3.56545 -3.61715 0
M  V30 2839 H 278.486 -2.21532 -4.77735 0
M  V30 2840 H 280.977 -1.94681 -3.23895 0
M  V30 2841 H 281.29 -4.50406 -6.27976 0
M  V30 2842 H 279.635 -4.04498 -5.65161 0
M  V30 2843 H 282.826 -2.48331 -3.96799 0
M  V30 2844 H 282.999 -3.64925 -5.35475 0
M  V30 2845 N 276.405 1.4127 -0.698611 0
M  V30 2846 C 277.651 2.01478 -0.231207 0
M  V30 2847 C 277.984 1.55215 1.16713 0
M  V30 2848 O 277.259 0.764672 1.78838 0
M  V30 2849 C 277.542 3.58912 -0.292281 0
M  V30 2850 C 277.395 4.15293 -1.72778 0
M  V30 2851 C 278.714 4.38736 0.346194 0
M  V30 2852 H 275.833 0.732025 -0.0854878 0
M  V30 2853 H 278.475 1.67977 -0.887906 0
M  V30 2854 H 276.625 3.87582 0.26686 0
M  V30 2855 H 278.297 3.97486 -2.341 0
M  V30 2856 H 276.54 3.7022 -2.26096 0
M  V30 2857 H 277.211 5.24452 -1.72202 0
M  V30 2858 H 279.687 4.15897 -0.130035 0
M  V30 2859 H 278.563 5.48221 0.272932 0
M  V30 2860 H 278.824 4.18425 1.42734 0
M  V30 2861 N 277.883 0.443576 1.51229 0
M  V30 2862 C 279.111 -0.11929 2.06556 0
M  V30 2863 C 279.526 -1.35921 1.31038 0
M  V30 2864 O 278.883 -1.78675 0.371704 0
M  V30 2865 C 278.934 -0.435228 3.5887 0
M  V30 2866 O 278.655 0.755486 4.31537 0
M  V30 2867 C 280.156 -1.04808 4.30732 0
M  V30 2868 H 277.376 -0.0051584 0.67098 0
M  V30 2869 H 279.92 0.624453 1.94733 0
M  V30 2870 H 278.075 -1.12887 3.70588 0
M  V30 2871 H 278.489 0.483491 5.22267 0
M  V30 2872 H 279.963 -1.2191 5.3837 0
M  V30 2873 H 280.44 -2.03081 3.89429 0
M  V30 2874 H 281.046 -0.393637 4.23474 0
M  V30 2875 N 279.361 -1.56624 0.175154 0
M  V30 2876 C 280.324 -2.16934 -0.739738 0
M  V30 2877 C 281.324 -1.11842 -1.15533 0
M  V30 2878 O 282.514 -1.37335 -1.07167 0
M  V30 2879 C 279.646 -2.75531 -2.00738 0
M  V30 2880 H 280.839 -2.99131 -0.214639 0
M  V30 2881 H 278.392 -1.56123 -0.0744197 0
M  V30 2882 H 279.127 -1.97078 -2.57548 0
M  V30 2883 H 278.912 -3.52444 -1.71831 0
M  V30 2884 H 280.402 -3.21904 -2.66021 0
M  V30 2885 N 280.839 0.0985539 -1.57292 0
M  V30 2886 C 282.25 0.653457 -1.74891 0
M  V30 2887 C 282.601 1.7929 -0.796838 0
M  V30 2888 O 281.726 2.16385 0.0254886 0
M  V30 2889 C 282.321 1.19216 -3.17133 0
M  V30 2890 C 280.88 1.69316 -3.36168 0
M  V30 2891 C 280.027 0.601294 -2.70702 0
M  V30 2892 H 282.978 -0.127497 -1.58187 0
M  V30 2893 H 282.999 2.06154 -3.19814 0
M  V30 2894 H 282.511 0.362635 -3.86402 0
M  V30 2895 H 280.612 2.5468 -2.71972 0
M  V30 2896 H 280.725 1.78853 -4.44464 0
M  V30 2897 H 279.089 1.0399 -2.32504 0
M  V30 2898 H 279.872 -0.217592 -3.4261 0
M  V30 2899 N 282.317 1.53212 0.369288 0
M  V30 2900 C 283.728 1.60943 0.946276 0
M  V30 2901 C 284.079 0.47452 1.90375 0
M  V30 2902 O 283.204 -0.399597 2.12679 0
M  V30 2903 C 283.799 2.91715 1.72302 0
M  V30 2904 C 282.358 3.01792 2.24941 0
M  V30 2905 C 281.505 2.56211 1.06072 0
M  V30 2906 H 284.456 1.58007 0.148198 0
M  V30 2907 H 284.477 2.79309 2.58393 0
M  V30 2908 H 283.989 3.74295 1.0259 0
M  V30 2909 H 282.09 2.23791 2.97906 0
M  V30 2910 H 282.203 4.06803 2.53077 0
M  V30 2911 H 280.567 2.10998 1.4266 0
M  V30 2912 H 281.35 3.41206 0.378639 0
M  V30 2913 N 283.795 -0.628877 1.44509 0
M  V30 2914 C 285.041 -1.39045 1.47629 0
M  V30 2915 C 285.374 -1.93892 0.109343 0
M  V30 2916 O 284.649 -1.7379 -0.87334 0
M  V30 2917 C 284.932 -2.55408 2.53848 0
M  V30 2918 C 284.785 -2.05896 3.99909 0
M  V30 2919 C 286.104 -3.5759 2.56549 0
M  V30 2920 H 283.223 -0.504232 0.537512 0
M  V30 2921 H 285.865 -0.710854 1.76201 0
M  V30 2922 H 284.015 -3.13384 2.29615 0
M  V30 2923 H 285.687 -1.52734 4.35282 0
M  V30 2924 H 283.93 -1.37061 4.11578 0
M  V30 2925 H 284.601 -2.89681 4.69882 0
M  V30 2926 H 287.077 -3.09419 2.78207 0
M  V30 2927 H 285.953 -4.36527 3.32769 0
M  V30 2928 H 286.214 -4.11808 1.60832 0
M  V30 2929 N 285.273 -1.31445 -0.869486 0
M  V30 2930 C 286.498 -1.24256 -1.66058 0
M  V30 2931 C 286.923 0.188928 -1.87149 0
M  V30 2932 O 286.281 1.13522 -1.4136 0
M  V30 2933 C 286.329 -1.9924 -3.00559 0
M  V30 2934 O 285.433 -1.33007 -3.90362 0
M  V30 2935 H 284.774 -0.428973 -0.506831 0
M  V30 2936 H 287.304 -1.73521 -1.08404 0
M  V30 2937 H 287.314 -2.08854 -3.50491 0
M  V30 2938 H 285.989 -3.03342 -2.84528 0
M  V30 2939 H 284.566 -1.31848 -3.48813 0
M  V30 2940 N 286.751 1.08385 -1.14413 0
M  V30 2941 C 287.714 2.13486 -0.834048 0
M  V30 2942 C 288.714 1.59988 0.161418 0
M  V30 2943 O 289.904 1.74071 -0.0669575 0
M  V30 2944 C 287.036 3.4003 -0.243354 0
M  V30 2945 H 288.229 2.42425 -1.7655 0
M  V30 2946 H 285.782 1.24101 -0.950189 0
M  V30 2947 H 286.517 3.16726 0.696807 0
M  V30 2948 H 286.302 3.80157 -0.960367 0
M  V30 2949 H 287.792 4.17577 -0.0436242 0
M  V30 2950 N 288.23 0.939286 1.26551 0
M  V30 2951 C 289.477 0.585847 1.9384 0
M  V30 2952 C 289.805 -0.874784 1.73718 0
M  V30 2953 O 289.06 -1.64092 1.06642 0
M  V30 2954 C 289.359 0.872106 3.46596 0
M  V30 2955 C 289.025 2.31632 3.86856 0
M  V30 2956 C 287.687 2.71111 3.97558 0
M  V30 2957 C 290.039 3.25494 4.07066 0
M  V30 2958 C 287.367 4.03553 4.25866 0
M  V30 2959 C 289.719 4.57531 4.36862 0
M  V30 2960 C 288.383 4.96828 4.45778 0
M  V30 2961 H 287.653 0.214377 0.709312 0
M  V30 2962 H 290.3 1.18544 1.50398 0
M  V30 2963 H 288.605 0.18996 3.91339 0
M  V30 2964 H 290.302 0.577442 3.96821 0
M  V30 2965 H 286.892 2.00008 3.79071 0
M  V30 2966 H 291.076 2.9619 3.98227 0
M  V30 2967 H 286.332 4.33665 4.30981 0
M  V30 2968 H 290.506 5.30254 4.51446 0
M  V30 2969 H 288.133 5.99482 4.67468 0
M  V30 2970 N 289.708 -1.40897 0.706093 0
M  V30 2971 C 290.938 -2.05075 0.250523 0
M  V30 2972 C 291.346 -1.53275 -1.10921 0
M  V30 2973 O 290.689 -0.680281 -1.7064 0
M  V30 2974 C 290.751 -3.59219 0.142178 0
M  V30 2975 C 290.415 -4.33864 1.43566 0
M  V30 2976 C 291.412 -4.62448 2.37566 0
M  V30 2977 C 289.097 -4.72946 1.69195 0
M  V30 2978 C 291.091 -5.29088 3.5545 0
M  V30 2979 C 288.778 -5.3932 2.87362 0
M  V30 2980 C 289.776 -5.6732 3.80312 0
M  V30 2981 O 289.464 -6.32325 4.96408 0
M  V30 2982 H 289.196 -0.666645 0.112074 0
M  V30 2983 H 291.75 -1.81467 0.962239 0
M  V30 2984 H 289.98 -3.81609 -0.6254 0
M  V30 2985 H 291.669 -4.0495 -0.277584 0
M  V30 2986 H 292.435 -4.32727 2.19027 0
M  V30 2987 H 288.314 -4.50527 0.977042 0
M  V30 2988 H 291.858 -5.50859 4.28018 0
M  V30 2989 H 287.755 -5.68461 3.05814 0
M  V30 2990 H 288.523 -6.50821 4.9636 0
M  V30 2991 N 291.186 -0.45159 -1.50991 0
M  V30 2992 C 292.096 0.358431 -2.31846 0
M  V30 2993 C 293.112 1.01438 -1.41373 0
M  V30 2994 O 294.288 1.00663 -1.74439 0
M  V30 2995 C 291.353 1.43704 -3.15515 0
M  V30 2996 C 290.414 0.799742 -4.21785 0
M  V30 2997 C 289.647 1.82696 -5.01456 0
M  V30 2998 O 289.87 3.05105 -4.81941 0
M  V30 2999 O 288.804 1.40958 -5.85162 0
M  V30 3000 H 292.63 -0.302032 -3.02194 0
M  V30 3001 H 290.215 -0.213825 -1.47862 0
M  V30 3002 H 292.097 2.06227 -3.67489 0
M  V30 3003 H 290.772 2.08133 -2.47916 0
M  V30 3004 H 289.679 0.136084 -3.73852 0
M  V30 3005 H 291.012 0.198718 -4.91799 0
M  V30 3006 N 292.664 1.56529 -0.183458 0
M  V30 3007 C 293.614 2.1515 0.754605 0
M  V30 3008 C 294.598 1.08904 1.18443 0
M  V30 3009 O 295.79 1.34997 1.14476 0
M  V30 3010 C 292.919 2.80531 1.97881 0
M  V30 3011 C 292.005 3.93952 1.57043 0
M  V30 3012 N 292.396 4.98221 0.87231 0
M  V30 3013 C 290.694 4.05338 1.86057 0
M  V30 3014 C 291.395 5.77836 0.669377 0
M  V30 3015 N 290.371 5.29858 1.21454 0
M  V30 3016 H 294.173 2.93132 0.212387 0
M  V30 3017 H 291.687 1.62391 0.0167725 0
M  V30 3018 H 293.684 3.20914 2.6612 0
M  V30 3019 H 292.344 2.04035 2.52586 0
M  V30 3020 H 293.355 5.15191 0.529033 0
M  V30 3021 H 290.032 3.39957 2.42354 0
M  V30 3022 H 291.422 6.71799 0.116422 0
M  V30 3023 N 294.142 -0.090211 1.57342 0
M  V30 3024 C 295.072 -1.10976 2.05443 0
M  V30 3025 C 296.053 -1.41482 0.944284 0
M  V30 3026 O 297.238 -1.51428 1.21586 0
M  V30 3027 C 294.368 -2.42831 2.48295 0
M  V30 3028 C 293.322 -2.26721 3.63018 0
M  V30 3029 C 292.648 -3.63796 3.91863 0
M  V30 3030 C 293.948 -1.7037 4.93732 0
M  V30 3031 H 295.642 -0.709564 2.9087 0
M  V30 3032 H 293.188 -0.339874 1.39932 0
M  V30 3033 H 295.141 -3.14431 2.80555 0
M  V30 3034 H 293.865 -2.84795 1.59873 0
M  V30 3035 H 292.524 -1.57565 3.31012 0
M  V30 3036 H 292.172 -4.03297 3.00601 0
M  V30 3037 H 291.872 -3.53861 4.69101 0
M  V30 3038 H 293.396 -4.36855 4.26603 0
M  V30 3039 H 294.81 -2.31816 5.24342 0
M  V30 3040 H 293.207 -1.71181 5.75167 0
M  V30 3041 H 294.277 -0.663542 4.80339 0
M  V30 3042 N 295.62 -1.53406 -0.361157 0
M  V30 3043 C 296.57 -1.76536 -1.44287 0
M  V30 3044 C 297.554 -0.620019 -1.48474 0
M  V30 3045 O 298.746 -0.878834 -1.53641 0
M  V30 3046 C 295.875 -1.96266 -2.81664 0
M  V30 3047 C 294.961 -3.16815 -2.81938 0
M  V30 3048 N 295.352 -4.38637 -2.51855 0
M  V30 3049 C 293.65 -3.17627 -3.13096 0
M  V30 3050 C 294.351 -5.20401 -2.59919 0
M  V30 3051 N 293.327 -4.56712 -2.94814 0
M  V30 3052 H 297.129 -2.68331 -1.19899 0
M  V30 3053 H 294.643 -1.52091 -0.56938 0
M  V30 3054 H 296.64 -2.10966 -3.59582 0
M  V30 3055 H 295.3 -1.05702 -3.07013 0
M  V30 3056 H 296.311 -4.66293 -2.25369 0
M  V30 3057 H 292.988 -2.36971 -3.43731 0
M  V30 3058 H 294.378 -6.27586 -2.39969 0
M  V30 3059 N 297.098 0.621204 -1.44841 0
M  V30 3060 C 298.514 0.94048 -1.28946 0
M  V30 3061 C 298.714 2.00154 -0.23249 0
M  V30 3062 O 297.77 2.49651 0.378237 0
M  V30 3063 C 299.083 1.39433 -2.66419 0
M  V30 3064 C 300.631 1.50927 -2.74208 0
M  V30 3065 C 301.106 1.99692 -4.12174 0
M  V30 3066 N 302.597 2.06947 -4.144 0
M  V30 3067 C 303.332 2.45871 -5.1801 0
M  V30 3068 N 302.828 2.83862 -6.31977 0
M  V30 3069 N 304.621 2.46092 -5.05366 0
M  V30 3070 H 296.772 -0.0803548 -2.12248 0
M  V30 3071 H 299.035 0.0266913 -0.947624 0
M  V30 3072 H 298.741 0.688925 -3.44887 0
M  V30 3073 H 298.615 2.36347 -2.93973 0
M  V30 3074 H 301.002 2.20561 -1.96053 0
M  V30 3075 H 301.083 0.523627 -2.50383 0
M  V30 3076 H 300.727 1.30649 -4.90809 0
M  V30 3077 H 300.657 2.99146 -4.33381 0
M  V30 3078 H 303.148 1.80232 -3.32152 0
M  V30 3079 H 303.461 3.12405 -7.0684 0
M  V30 3080 H 301.806 2.8159 -6.35399 0
M  V30 3081 H 304.997 2.1581 -4.15384 0
M  V30 3082 H 305.17 2.76102 -5.86235 0
M  V30 3083 N 298.576 1.31904 0.862503 0
M  V30 3084 C 299.486 1.22161 2.00285 0
M  V30 3085 C 300.502 0.136785 1.73462 0
M  V30 3086 O 301.678 0.355994 1.98229 0
M  V30 3087 C 298.743 0.937093 3.33796 0
M  V30 3088 C 297.804 2.10957 3.73893 0
M  V30 3089 C 297.037 1.83853 5.01033 0
M  V30 3090 O 297.26 0.777274 5.65079 0
M  V30 3091 O 296.194 2.69741 5.38074 0
M  V30 3092 H 300.02 2.18008 2.11439 0
M  V30 3093 H 297.605 1.11716 0.991957 0
M  V30 3094 H 299.487 0.794583 4.13841 0
M  V30 3095 H 298.162 0.00871894 3.23699 0
M  V30 3096 H 297.069 2.30752 2.94456 0
M  V30 3097 H 298.402 3.02046 3.88625 0
M  V30 3098 N 300.054 -1.07777 1.14986 0
M  V30 3099 C 301.017 -2.13041 0.845358 0
M  V30 3100 C 302.017 -1.60071 -0.152931 0
M  V30 3101 O 303.207 -1.74033 0.0761879 0
M  V30 3102 C 300.339 -3.39896 0.261383 0
M  V30 3103 H 301.532 -2.41485 1.77834 0
M  V30 3104 H 299.085 -1.23595 0.956757 0
M  V30 3105 H 299.82 -3.17091 -0.68 0
M  V30 3106 H 299.605 -3.79642 0.980514 0
M  V30 3107 H 301.095 -4.17548 0.0657687 0
M  V30 3108 N 301.532 -0.945985 -1.26051 0
M  V30 3109 C 302.78 -0.594941 -1.93145 0
M  V30 3110 C 303.101 0.86953 -1.7454 0
M  V30 3111 O 302.371 1.61838 -1.10387 0
M  V30 3112 H 300.951 -0.217044 -0.714773 0
M  V30 3113 H 303.613 -1.20235 -1.53393 0
M  V30 3114 H 302.709 -0.816835 -3.01221 0
M  V30 3115 N 303.011 1.40521 -0.713556 0
M  V30 3116 C 304.257 2.01221 -0.252564 0
M  V30 3117 C 304.59 1.56444 1.1506 0
M  V30 3118 O 303.865 0.783597 1.78017 0
M  V30 3119 C 304.148 3.58582 -0.330332 0
M  V30 3120 C 304.001 4.13437 -1.77173 0
M  V30 3121 C 305.32 4.39079 0.299641 0
M  V30 3122 H 302.439 0.731077 -0.0932471 0
M  V30 3123 H 305.081 1.67026 -0.905673 0
M  V30 3124 H 303.231 3.87844 0.225737 0
M  V30 3125 H 304.903 3.9498 -2.38303 0
M  V30 3126 H 303.146 3.67801 -2.3001 0
M  V30 3127 H 303.817 5.22597 -1.77755 0
M  V30 3128 H 306.293 4.15735 -0.174139 0
M  V30 3129 H 305.169 5.4848 0.214771 0
M  V30 3130 H 305.43 4.19915 1.38288 0
M  V30 3131 N 304.489 0.459591 1.5075 0
M  V30 3132 C 305.766 -0.160371 1.94941 0
M  V30 3133 C 306.146 -1.58048 1.39943 0
M  V30 3134 O 305.494 -2.206 0.595629 0
M  V30 3135 C 305.704 -0.115432 3.48809 0
M  V30 3136 C 307.052 -0.310026 4.23467 0
M  V30 3137 O 308.076 -0.192543 3.55679 0
M  V30 3138 O 306.935 -0.546031 5.43765 0
M  V30 3139 H 304.029 -0.117925 0.818549 0
M  V30 3140 H 306.575 0.519169 1.61563 0
M  V30 3141 H 305.347 0.87652 3.81357 0
M  V30 3142 H 304.97 -0.836928 3.88692 0
M  V30 3143 N 305.967 -1.56429 0.191757 0
M  V30 3144 C 307.216 -1.9666 -0.448088 0
M  V30 3145 C 307.529 -1.08136 -1.62991 0
M  V30 3146 O 308.735 -1.38135 -2.33733 0
M  V30 3147 C 307.191 -3.49753 -0.848585 0
M  V30 3148 C 306.799 -4.46935 0.308764 0
M  V30 3149 C 308.543 -3.9876 -1.4557 0
M  V30 3150 C 306.45 -5.91293 -0.112506 0
M  V30 3151 H 305.38 -0.734312 -0.171179 0
M  V30 3152 H 308.031 -1.81301 0.283242 0
M  V30 3153 H 306.413 -3.60604 -1.63649 0
M  V30 3154 H 307.587 -4.47813 1.08627 0
M  V30 3155 H 305.902 -4.08102 0.827158 0
M  V30 3156 H 308.499 -5.04086 -1.78328 0
M  V30 3157 H 308.842 -3.42875 -2.36099 0
M  V30 3158 H 309.375 -3.9101 -0.731836 0
M  V30 3159 H 306.114 -6.51097 0.758514 0
M  V30 3160 H 305.634 -5.93676 -0.854941 0
M  V30 3161 H 307.313 -6.44663 -0.549448 0
M  V30 3162 N 307.445 0.0818655 -1.57387 0
M  V30 3163 C 308.861 0.436412 -1.53517 0
M  V30 3164 C 309.061 1.79758 -0.910459 0
M  V30 3165 O 308.117 2.47324 -0.508636 0
M  V30 3166 C 309.43 0.386734 -2.98203 0
M  V30 3167 C 310.978 0.467644 -3.09487 0
M  V30 3168 C 311.453 0.447978 -4.55804 0
M  V30 3169 N 312.944 0.508348 -4.60402 0
M  V30 3170 C 313.679 0.515184 -5.71081 0
M  V30 3171 N 313.175 0.477435 -6.91153 0
M  V30 3172 N 314.968 0.560988 -5.59294 0
M  V30 3173 H 307.119 -0.809546 -1.96367 0
M  V30 3174 H 309.382 -0.302733 -0.898363 0
M  V30 3175 H 309.088 -0.546539 -3.47427 0
M  V30 3176 H 308.962 1.20075 -3.57578 0
M  V30 3177 H 311.349 1.39134 -2.60242 0
M  V30 3178 H 311.43 -0.374753 -2.5304 0
M  V30 3179 H 311.074 -0.471826 -5.05704 0
M  V30 3180 H 311.004 1.30777 -5.10103 0
M  V30 3181 H 313.495 0.54218 -3.7399 0
M  V30 3182 H 313.808 0.486299 -7.71268 0
M  V30 3183 H 312.153 0.444278 -6.93579 0
M  V30 3184 H 315.344 0.5881 -4.64391 0
M  V30 3185 H 315.517 0.562846 -6.45551 0
M  V30 3186 N 308.923 1.53595 0.353017 0
M  V30 3187 C 310.151 1.74311 1.1146 0
M  V30 3188 C 310.566 0.477854 1.82653 0
M  V30 3189 O 309.923 -0.549977 1.74016 0
M  V30 3190 C 309.974 2.91694 2.13534 0
M  V30 3191 O 309.695 4.13325 1.45238 0
M  V30 3192 C 311.196 3.24384 3.02142 0
M  V30 3193 H 308.416 0.582669 0.332773 0
M  V30 3194 H 310.96 2.00386 0.408107 0
M  V30 3195 H 309.115 2.67977 2.79763 0
M  V30 3196 H 309.529 4.79148 2.13349 0
M  V30 3197 H 311.003 4.09893 3.69718 0
M  V30 3198 H 311.48 2.40282 3.67643 0
M  V30 3199 H 312.086 3.50073 2.41514 0
M  V30 3200 N 310.401 -0.613514 1.45168 0
M  V30 3201 C 311.649 -1.36997 1.48581 0
M  V30 3202 C 311.97 -1.94589 0.126545 0
M  V30 3203 O 311.24 -1.76816 -0.843372 0
M  V30 3204 H 309.82 -0.508558 0.547154 0
M  V30 3205 H 312.482 -0.720853 1.81079 0
M  V30 3206 H 311.578 -2.1924 2.22127 0
M  V30 3207 N 311.879 -1.3236 -0.855495 0
M  V30 3208 C 313.107 -1.2587 -1.64208 0
M  V30 3209 C 313.522 0.173457 -1.88002 0
M  V30 3210 O 312.879 1.11027 -1.44842 0
M  V30 3211 C 312.93 -2.01424 -3.00184 0
M  V30 3212 O 312.651 -3.39051 -2.77445 0
M  V30 3213 C 314.152 -2.01948 -3.94629 0
M  V30 3214 H 311.372 -0.434318 -0.511477 0
M  V30 3215 H 313.916 -1.74469 -1.0668 0
M  V30 3216 H 312.071 -1.56549 -3.5436 0
M  V30 3217 H 312.485 -3.77711 -3.63916 0
M  V30 3218 H 313.959 -2.59297 -4.87308 0
M  V30 3219 H 314.436 -1.00554 -4.27534 0
M  V30 3220 H 315.042 -2.46767 -3.4639 0
M  V30 3221 N 313.357 1.07166 -1.15556 0
M  V30 3222 C 314.289 2.14341 -0.811815 0
M  V30 3223 C 315.302 1.61835 0.177015 0
M  V30 3224 O 316.491 1.78439 -0.0464996 0
M  V30 3225 C 313.591 3.38387 -0.186481 0
M  V30 3226 C 312.764 4.20238 -1.21321 0
M  V30 3227 C 311.823 5.2266 -0.609302 0
M  V30 3228 O 310.849 5.54719 -1.27576 0
M  V30 3229 N 312.051 5.77306 0.608099 0
M  V30 3230 H 314.816 2.44431 -1.73417 0
M  V30 3231 H 312.377 1.23089 -1.0517 0
M  V30 3232 H 314.369 4.04044 0.230339 0
M  V30 3233 H 312.939 3.05994 0.639249 0
M  V30 3234 H 312.159 3.50369 -1.80652 0
M  V30 3235 H 313.447 4.71736 -1.90638 0
M  V30 3236 H 312.845 5.53513 1.1679 0
M  V30 3237 H 311.402 6.44583 0.96725 0
M  V30 3238 N 314.835 0.952656 1.25548 0
M  V30 3239 C 316.081 0.607272 1.93494 0
M  V30 3240 C 316.414 -0.853245 1.74452 0
M  V30 3241 O 315.689 -1.61194 1.08843 0
M  V30 3242 C 315.972 0.96435 3.46947 0
M  V30 3243 C 315.825 2.48045 3.75225 0
M  V30 3244 C 317.144 0.487987 4.37386 0
M  V30 3245 H 314.263 0.222096 0.702739 0
M  V30 3246 H 316.905 1.18895 1.48203 0
M  V30 3247 H 315.055 0.469361 3.85654 0
M  V30 3248 H 316.727 3.04905 3.46166 0
M  V30 3249 H 314.97 2.919 3.209 0
M  V30 3250 H 315.641 2.6808 4.82532 0
M  V30 3251 H 318.117 0.912558 4.0597 0
M  V30 3252 H 316.993 0.766547 5.43521 0
M  V30 3253 H 317.254 -0.612063 4.37843 0
M  V30 3254 N 316.313 -1.40141 0.720998 0
M  V30 3255 C 317.553 -2.02644 0.267335 0
M  V30 3256 C 317.917 -1.55948 -1.12001 0
M  V30 3257 O 319.118 -2.10552 -1.67097 0
M  V30 3258 C 317.389 -3.55679 0.350281 0
M  V30 3259 S 318.948 -4.38793 -0.0256004 0
M  V30 3260 H 315.766 -0.703105 0.105664 0
M  V30 3261 H 318.368 -1.71175 0.944416 0
M  V30 3262 H 317.072 -3.87157 1.36153 0
M  V30 3263 H 316.603 -3.91883 -0.345096 0
M  V30 3264 H 318.618 -4.803 -1.24604 0
M  V30 3265 N 317.792 -0.46758 -1.50504 0
M  V30 3266 C 319.04 0.0884469 -2.01906 0
M  V30 3267 C 319.361 1.40532 -1.35188 0
M  V30 3268 O 318.631 1.89515 -0.496079 0
M  V30 3269 H 317.211 0.0356765 -0.746148 0
M  V30 3270 H 319.873 -0.6172 -1.84869 0
M  V30 3271 H 318.969 0.2425 -3.11156 0
M  V30 3272 N 319.27 1.56325 -0.20005 0
M  V30 3273 C 320.517 1.97719 0.437411 0
M  V30 3274 C 320.845 1.08709 1.61284 0
M  V30 3275 O 320.1 0.127261 1.95286 0
M  V30 3276 C 320.399 3.4495 0.935103 0
M  V30 3277 C 320.065 4.5072 -0.12749 0
M  V30 3278 C 318.727 4.79368 -0.419451 0
M  V30 3279 C 321.079 5.14268 -0.847231 0
M  V30 3280 C 318.407 5.68854 -1.43604 0
M  V30 3281 C 320.759 6.04852 -1.85301 0
M  V30 3282 C 319.423 6.31855 -2.15211 0
M  V30 3283 H 318.693 0.723507 0.16006 0
M  V30 3284 H 321.34 1.89166 -0.298056 0
M  V30 3285 H 319.645 3.50599 1.74894 0
M  V30 3286 H 321.342 3.74337 1.43781 0
M  V30 3287 H 317.932 4.28458 0.11023 0
M  V30 3288 H 322.116 4.92222 -0.634901 0
M  V30 3289 H 317.372 5.88047 -1.67364 0
M  V30 3290 H 321.546 6.53152 -2.41591 0
M  V30 3291 H 319.173 7.00994 -2.94129 0
M  V30 3292 N 320.748 -0.0735177 1.57428 0
M  V30 3293 C 321.658 -1.10547 2.06922 0
M  V30 3294 C 322.674 -1.42506 0.998402 0
M  V30 3295 O 323.85 -1.52717 1.31299 0
M  V30 3296 C 320.915 -2.40019 2.50184 0
M  V30 3297 C 319.976 -2.15046 3.71556 0
M  V30 3298 C 319.209 -3.38345 4.12745 0
M  V30 3299 O 319.432 -4.47399 3.53822 0
M  V30 3300 O 318.366 -3.2666 5.05546 0
M  V30 3301 H 322.192 -0.715013 2.95163 0
M  V30 3302 H 319.777 -0.287531 1.46607 0
M  V30 3303 H 321.659 -3.16218 2.78539 0
M  V30 3304 H 320.334 -2.78447 1.65072 0
M  V30 3305 H 319.241 -1.36558 3.48285 0
M  V30 3306 H 320.574 -1.81499 4.57514 0
M  V30 3307 N 322.226 -1.5378 -0.344866 0
M  V30 3308 C 323.159 -1.7649 -1.4466 0
M  V30 3309 C 324.137 -0.613954 -1.50563 0
M  V30 3310 O 325.321 -0.84896 -1.683 0
M  V30 3311 C 322.448 -1.86235 -2.82903 0
M  V30 3312 C 321.494 -3.08375 -2.94631 0
M  V30 3313 S 322.327 -4.67457 -2.61236 0
M  V30 3314 C 323.483 -4.80079 -4.0159 0
M  V30 3315 H 323.716 -2.69661 -1.2518 0
M  V30 3316 H 321.249 -1.44632 -0.540455 0
M  V30 3317 H 323.207 -1.92535 -3.62547 0
M  V30 3318 H 321.868 -0.940786 -2.9968 0
M  V30 3319 H 321.061 -3.11865 -3.95925 0
M  V30 3320 H 320.663 -3.00294 -2.22934 0
M  V30 3321 H 322.955 -4.61407 -4.96094 0
M  V30 3322 H 323.898 -5.82168 -4.03095 0
M  V30 3323 H 324.306 -4.08544 -3.89554 0
M  V30 3324 N 323.704 0.605807 -1.45491 0
M  V30 3325 C 324.929 1.39625 -1.53361 0
M  V30 3326 C 325.354 1.87351 -0.167645 0
M  V30 3327 O 324.712 1.60243 0.848051 0
M  V30 3328 C 324.76 2.57559 -2.5238 0
M  V30 3329 O 323.864 3.58248 -2.04285 0
M  V30 3330 H 323.205 0.416771 -0.516912 0
M  V30 3331 H 325.735 0.737103 -1.90861 0
M  V30 3332 H 325.745 3.0478 -2.71244 0
M  V30 3333 H 324.42 2.22171 -3.51586 0
M  V30 3334 H 322.997 3.17664 -1.95305 0
M  V30 3335 N 325.182 1.32811 0.848464 0
M  V30 3336 C 326.41 1.26739 1.63538 0
M  V30 3337 C 326.825 -0.163484 1.88091 0
M  V30 3338 O 326.182 -1.10258 1.45429 0
M  V30 3339 C 326.233 2.03013 2.99112 0
M  V30 3340 O 325.954 3.40518 2.75643 0
M  V30 3341 C 327.455 2.04038 3.93552 0
M  V30 3342 H 324.675 0.437024 0.509167 0
M  V30 3343 H 327.219 1.75033 1.05753 0
M  V30 3344 H 325.374 1.58426 3.53525 0
M  V30 3345 H 325.788 3.79635 3.61908 0
M  V30 3346 H 327.262 2.61877 4.85926 0
M  V30 3347 H 327.739 1.0282 4.26995 0
M  V30 3348 H 328.345 2.486 3.45077 0
M  V30 3349 N 326.66 -1.06551 1.16123 0
M  V30 3350 C 327.937 -1.76097 0.85142 0
M  V30 3351 C 328.317 -2.00802 -0.6513 0
M  V30 3352 O 327.665 -1.63302 -1.59827 0
M  V30 3353 C 327.875 -3.06384 1.67122 0
M  V30 3354 C 329.223 -3.80585 1.88255 0
M  V30 3355 O 330.247 -3.16218 1.63966 0
M  V30 3356 O 329.106 -4.96212 2.2899 0
M  V30 3357 H 326.2 -0.765102 0.313923 0
M  V30 3358 H 328.746 -1.12844 1.26745 0
M  V30 3359 H 327.518 -2.84071 2.69108 0
M  V30 3360 H 327.141 -3.77371 1.25206 0
M  V30 3361 N 328.138 -0.959301 -1.25041 0
M  V30 3362 C 329.07 -0.440543 -2.24926 0
M  V30 3363 C 330.083 0.446131 -1.56568 0
M  V30 3364 O 331.272 0.253657 -1.76689 0
M  V30 3365 C 328.372 0.38412 -3.36716 0
M  V30 3366 C 327.545 -0.490658 -4.34639 0
M  V30 3367 C 326.604 0.276587 -5.25473 0
M  V30 3368 O 325.63 -0.326614 -5.68262 0
M  V30 3369 N 326.832 1.56844 -5.5891 0
M  V30 3370 H 329.597 -1.29931 -2.70071 0
M  V30 3371 H 327.158 -0.830181 -1.38995 0
M  V30 3372 H 329.15 0.905228 -3.94446 0
M  V30 3373 H 327.72 1.14377 -2.90924 0
M  V30 3374 H 326.94 -1.19282 -3.7572 0
M  V30 3375 H 328.228 -1.08756 -4.97041 0
M  V30 3376 H 327.626 2.08036 -5.26059 0
M  V30 3377 H 326.183 2.03541 -6.19205 0
M  V30 3378 N 329.616 1.39756 -0.72842 0
M  V30 3379 C 330.548 2.29157 -0.0446202 0
M  V30 3380 C 331.561 1.46484 0.710367 0
M  V30 3381 O 332.75 1.69632 0.55562 0
M  V30 3382 C 329.85 3.24987 0.961071 0
M  V30 3383 C 329.023 4.36572 0.268967 0
M  V30 3384 C 328.082 5.12756 1.18184 0
M  V30 3385 O 327.108 5.6534 0.661794 0
M  V30 3386 N 328.31 5.23331 2.51206 0
M  V30 3387 H 331.075 2.88482 -0.812295 0
M  V30 3388 H 328.636 1.51265 -0.577098 0
M  V30 3389 H 330.628 3.72827 1.57423 0
M  V30 3390 H 329.198 2.66739 1.63 0
M  V30 3391 H 328.418 3.90694 -0.524574 0
M  V30 3392 H 329.706 5.08363 -0.210934 0
M  V30 3393 H 329.104 4.82116 2.9594 0
M  V30 3394 H 327.661 5.74634 3.07634 0
M  V30 3395 N 331.094 0.475555 1.50254 0
M  V30 3396 C 332.041 -0.316293 2.28622 0
M  V30 3397 C 333.011 -0.983227 1.33873 0
M  V30 3398 O 334.196 -0.994805 1.62814 0
M  V30 3399 C 331.336 -1.38975 3.1588 0
M  V30 3400 C 330.449 -0.737146 4.25664 0
M  V30 3401 C 329.584 -1.78887 5.00173 0
M  V30 3402 C 328.623 -1.11676 6.01826 0
M  V30 3403 N 327.76 -2.11154 6.69596 0
M  V30 3404 H 332.6 0.358297 2.95838 0
M  V30 3405 H 330.137 0.188541 1.45887 0
M  V30 3406 H 332.095 -2.02383 3.64825 0
M  V30 3407 H 330.725 -2.03344 2.50701 0
M  V30 3408 H 329.777 0.0096065 3.80399 0
M  V30 3409 H 331.089 -0.206816 4.98371 0
M  V30 3410 H 330.243 -2.49865 5.52859 0
M  V30 3411 H 328.982 -2.35302 4.27182 0
M  V30 3412 H 327.987 -0.392633 5.48396 0
M  V30 3413 H 329.212 -0.55945 6.76792 0
M  V30 3414 H 327.158 -2.66577 5.99394 0
M  V30 3415 H 327.075 -1.63118 7.38193 0
M  V30 3416 H 328.343 -2.81497 7.26897 0
M  V30 3417 N 332.573 -1.56217 0.208337 0
M  V30 3418 C 333.819 -1.98242 -0.427552 0
M  V30 3419 C 334.152 -1.09554 -1.60348 0
M  V30 3420 O 333.427 -0.15035 -1.93918 0
M  V30 3421 C 333.71 -3.4931 -0.874907 0
M  V30 3422 C 333.563 -4.48773 0.303751 0
M  V30 3423 C 334.882 -4.04424 -1.73577 0
M  V30 3424 H 332.001 -0.720744 -0.153936 0
M  V30 3425 H 334.643 -1.87586 0.30192 0
M  V30 3426 H 332.793 -3.58522 -1.49648 0
M  V30 3427 H 334.465 -4.51586 0.941682 0
M  V30 3428 H 332.708 -4.23194 0.953375 0
M  V30 3429 H 333.379 -5.51976 -0.0519883 0
M  V30 3430 H 335.855 -3.98075 -1.21143 0
M  V30 3431 H 334.731 -5.1047 -2.01771 0
M  V30 3432 H 334.992 -3.50494 -2.69456 0
M  V30 3433 N 334.051 0.0651679 -1.57465 0
M  V30 3434 C 335.279 0.775808 -1.91804 0
M  V30 3435 C 335.694 1.70782 -0.804916 0
M  V30 3436 O 335.051 1.81153 0.221311 0
M  V30 3437 C 335.102 1.56381 -3.25925 0
M  V30 3438 O 334.823 0.669248 -4.32958 0
M  V30 3439 C 336.324 2.37485 -3.7432 0
M  V30 3440 H 333.544 0.2202 -0.63384 0
M  V30 3441 H 336.088 0.0334587 -2.04473 0
M  V30 3442 H 334.243 2.25837 -3.14764 0
M  V30 3443 H 334.657 1.21801 -5.10162 0
M  V30 3444 H 336.131 2.88223 -4.70778 0
M  V30 3445 H 336.608 3.17307 -3.03666 0
M  V30 3446 H 337.214 1.73173 -3.88447 0
M  V30 3447 N 335.529 1.53961 0.336706 0
M  V30 3448 C 336.492 1.81724 1.39675 0
M  V30 3449 C 337.492 0.688532 1.45313 0
M  V30 3450 O 338.682 0.956829 1.45569 0
M  V30 3451 C 335.814 1.96543 2.78538 0
M  V30 3452 H 337.007 2.76424 1.16318 0
M  V30 3453 H 334.56 1.45478 0.571474 0
M  V30 3454 H 335.295 1.0401 3.07168 0
M  V30 3455 H 335.08 2.78665 2.75841 0
M  V30 3456 H 336.57 2.19516 3.5525 0
M  V30 3457 N 337.007 -0.598083 1.45811 0
M  V30 3458 C 338.253 -1.35882 1.50545 0
M  V30 3459 C 338.586 -1.93616 0.150445 0
M  V30 3460 O 337.861 -1.75604 -0.83628 0
M  V30 3461 C 338.144 -2.49966 2.59208 0
M  V30 3462 C 337.997 -1.97367 4.04186 0
M  V30 3463 C 339.316 -3.52068 2.64076 0
M  V30 3464 H 336.435 -0.492717 0.548087 0
M  V30 3465 H 339.077 -0.673319 1.77669 0
M  V30 3466 H 337.227 -3.08443 2.3621 0
M  V30 3467 H 338.899 -1.43466 4.38423 0
M  V30 3468 H 337.142 -1.283 4.14393 0
M  V30 3469 H 337.813 -2.79649 4.75921 0
M  V30 3470 H 340.289 -3.03448 2.84708 0
M  V30 3471 H 339.165 -4.2937 3.41954 0
M  V30 3472 H 339.426 -4.08304 1.69531 0
M  V30 3473 N 338.485 -1.33259 -0.841409 0
M  V30 3474 C 339.415 -1.25926 -1.96634 0
M  V30 3475 C 340.396 -0.140349 -1.6952 0
M  V30 3476 O 341.581 -0.329707 -1.91381 0
M  V30 3477 C 338.711 -0.99512 -3.32738 0
M  V30 3478 C 337.665 -2.0767 -3.74242 0
M  V30 3479 C 336.991 -1.66474 -5.08125 0
M  V30 3480 C 338.291 -3.49318 -3.88297 0
M  V30 3481 H 339.985 -2.20046 -2.03027 0
M  V30 3482 H 337.531 -1.05931 -0.975425 0
M  V30 3483 H 339.484 -0.930323 -4.11002 0
M  V30 3484 H 338.208 -0.0183004 -3.26595 0
M  V30 3485 H 336.867 -2.13187 -2.98239 0
M  V30 3486 H 336.515 -0.675012 -4.9845 0
M  V30 3487 H 336.215 -2.3885 -5.36865 0
M  V30 3488 H 337.739 -1.61455 -5.88867 0
M  V30 3489 H 339.153 -3.46316 -4.56879 0
M  V30 3490 H 337.55 -4.20158 -4.28471 0
M  V30 3491 H 338.62 -3.8801 -2.9082 0
M  V30 3492 N 339.963 1.05934 -1.16686 0
M  V30 3493 C 341.203 1.80382 -0.961345 0
M  V30 3494 C 341.567 1.85331 0.501643 0
M  V30 3495 O 342.768 2.55795 0.825986 0
M  V30 3496 C 341.039 3.20777 -1.57596 0
M  V30 3497 S 342.598 4.11795 -1.51559 0
M  V30 3498 H 339.416 0.621332 -0.345641 0
M  V30 3499 H 342.018 1.27157 -1.48497 0
M  V30 3500 H 340.722 3.14773 -2.63337 0
M  V30 3501 H 340.253 3.79078 -1.05182 0
M  V30 3502 H 342.268 4.93485 -0.518374 0
M  V30 3503 N 341.441 0.965919 1.2453 0
M  V30 3504 C 342.351 0.502154 2.29163 0
M  V30 3505 C 343.367 -0.436017 1.68448 0
M  V30 3506 O 344.543 -0.309497 1.99008 0
M  V30 3507 C 341.608 -0.201956 3.46111 0
M  V30 3508 C 340.669 0.775821 4.22232 0
M  V30 3509 C 339.902 0.105217 5.33596 0
M  V30 3510 O 340.125 -1.10683 5.59558 0
M  V30 3511 O 339.059 0.796475 5.96607 0
M  V30 3512 H 342.885 1.37194 2.70946 0
M  V30 3513 H 340.47 0.732875 1.30189 0
M  V30 3514 H 342.352 -0.597564 4.17142 0
M  V30 3515 H 341.027 -1.04673 3.06309 0
M  V30 3516 H 339.934 1.22185 3.53584 0
M  V30 3517 H 341.267 1.58896 4.65846 0
M  V30 3518 N 342.919 -1.39368 0.735821 0
M  V30 3519 C 344.196 -1.94465 0.210395 0
M  V30 3520 C 344.576 -1.67254 -1.28799 0
M  V30 3521 O 343.924 -1.00123 -2.05396 0
M  V30 3522 C 344.134 -3.4472 0.544897 0
M  V30 3523 C 345.482 -4.21708 0.494689 0
M  V30 3524 O 346.506 -3.52922 0.482136 0
M  V30 3525 O 345.365 -5.44299 0.489947 0
M  V30 3526 H 342.459 -0.826096 0.0386666 0
M  V30 3527 H 345.005 -1.48863 0.814735 0
M  V30 3528 H 343.777 -3.57963 1.58045 0
M  V30 3529 H 343.4 -3.97502 -0.08837 0
M  V30 3530 N 344.397 -0.483516 -1.5 0
M  V30 3531 C 345.645 0.067027 -2.01989 0
M  V30 3532 C 345.966 1.3909 -1.36671 0
M  V30 3533 O 345.236 1.88978 -0.516152 0
M  V30 3534 H 343.816 0.0277606 -0.746484 0
M  V30 3535 H 346.478 -0.636773 -1.84204 0
M  V30 3536 H 345.574 0.209484 -3.11396 0
M  V30 3537 N 345.875 1.56104 -0.216619 0
M  V30 3538 C 347.103 2.02563 0.421413 0
M  V30 3539 C 347.518 1.0965 1.53695 0
M  V30 3540 O 346.875 0.10521 1.82196 0
M  V30 3541 C 346.926 3.48584 0.957665 0
M  V30 3542 O 346.647 4.37953 -0.113389 0
M  V30 3543 C 348.148 4.10664 1.66943 0
M  V30 3544 H 345.368 0.662944 0.103665 0
M  V30 3545 H 347.912 2.01793 -0.331629 0
M  V30 3546 H 346.067 3.49985 1.661 0
M  V30 3547 H 346.481 5.23704 0.288932 0
M  V30 3548 H 347.955 5.14622 1.99671 0
M  V30 3549 H 348.432 3.55373 2.58083 0
M  V30 3550 H 349.038 4.13098 1.01142 0
M  V30 3551 N 347.353 -0.0568162 1.57498 0
M  V30 3552 C 348.769 -0.411933 1.54192 0
M  V30 3553 C 348.969 -1.78287 0.938942 0
M  V30 3554 O 348.025 -2.46483 0.547919 0
M  V30 3555 C 349.338 -0.339244 2.9878 0
M  V30 3556 C 350.886 -0.418348 3.10192 0
M  V30 3557 C 351.361 -0.375407 4.56459 0
M  V30 3558 N 352.852 -0.435038 4.61153 0
M  V30 3559 C 353.587 -0.424265 5.71828 0
M  V30 3560 N 353.083 -0.367418 6.91825 0
M  V30 3561 N 354.876 -0.471938 5.60115 0
M  V30 3562 H 347.027 0.840684 1.95055 0
M  V30 3563 H 349.29 0.316987 0.893433 0
M  V30 3564 H 348.996 0.601742 3.46514 0
M  V30 3565 H 348.87 -1.14371 3.59443 0
M  V30 3566 H 351.257 -1.34976 2.62422 0
M  V30 3567 H 351.338 0.414962 2.52412 0
M  V30 3568 H 350.982 0.552219 5.04889 0
M  V30 3569 H 350.912 -1.22645 5.12119 0
M  V30 3570 H 353.403 -0.482612 3.74806 0
M  V30 3571 H 353.716 -0.363535 7.71944 0
M  V30 3572 H 352.061 -0.333879 6.94198 0
M  V30 3573 H 355.252 -0.514145 4.65268 0
M  V30 3574 H 355.425 -0.460073 6.46365 0
M  V30 3575 N 348.832 -1.54138 -0.328536 0
M  V30 3576 C 349.762 -1.86167 -1.40939 0
M  V30 3577 C 350.743 -0.718044 -1.54202 0
M  V30 3578 O 351.928 -0.971328 -1.68163 0
M  V30 3579 C 349.058 -2.08461 -2.77779 0
M  V30 3580 C 348.012 -3.24299 -2.7931 0
M  V30 3581 C 347.338 -3.31955 -4.19178 0
M  V30 3582 C 348.638 -4.62065 -2.43502 0
M  V30 3583 H 350.332 -2.76689 -1.14383 0
M  V30 3584 H 347.878 -1.33132 -0.548806 0
M  V30 3585 H 349.831 -2.29453 -3.53454 0
M  V30 3586 H 348.555 -1.14684 -3.05802 0
M  V30 3587 H 347.214 -3.03187 -2.0609 0
M  V30 3588 H 346.862 -2.35745 -4.44335 0
M  V30 3589 H 346.562 -4.09805 -4.2111 0
M  V30 3590 H 348.086 -3.55175 -4.96672 0
M  V30 3591 H 349.5 -4.8297 -3.08889 0
M  V30 3592 H 347.897 -5.42429 -2.56693 0
M  V30 3593 H 348.967 -4.64652 -1.38659 0
M  V30 3594 N 350.31 0.590341 -1.46126 0
M  V30 3595 C 351.721 1.17243 -1.45296 0
M  V30 3596 C 352.072 1.95281 -0.189723 0
M  V30 3597 O 351.197 2.04502 0.707674 0
M  V30 3598 C 351.792 2.13284 -2.6324 0
M  V30 3599 C 350.351 2.66832 -2.65476 0
M  V30 3600 C 349.498 1.42557 -2.3785 0
M  V30 3601 H 352.449 0.378692 -1.54116 0
M  V30 3602 H 352.47 2.96619 -2.38323 0
M  V30 3603 H 351.982 1.56459 -3.55165 0
M  V30 3604 H 350.083 3.27548 -1.77603 0
M  V30 3605 H 350.196 3.10088 -3.65215 0
M  V30 3606 H 348.56 1.72107 -1.87753 0
M  V30 3607 H 349.343 0.875741 -3.31942 0
M  V30 3608 N 351.788 1.33704 0.83433 0
M  V30 3609 C 352.751 1.24244 1.92603 0
M  V30 3610 C 353.751 0.160383 1.59998 0
M  V30 3611 O 354.941 0.412228 1.69252 0
M  V30 3612 C 352.073 0.91555 3.28376 0
M  V30 3613 H 353.266 2.21287 2.02416 0
M  V30 3614 H 350.819 1.17827 1.02696 0
M  V30 3615 H 351.554 -0.0521886 3.24258 0
M  V30 3616 H 351.339 1.69811 3.53422 0
M  V30 3617 H 352.829 0.874231 4.08347 0
M  V30 3618 N 353.266 -1.05314 1.17247 0
M  V30 3619 C 354.543 -1.75184 0.87005 0
M  V30 3620 C 354.923 -2.01481 -0.629965 0
M  V30 3621 O 354.271 -1.64988 -1.58086 0
M  V30 3622 C 354.481 -3.04594 1.70363 0
M  V30 3623 C 355.829 -3.78567 1.92281 0
M  V30 3624 O 356.853 -3.14461 1.67311 0
M  V30 3625 O 355.712 -4.93755 2.3424 0
M  V30 3626 H 352.806 -0.761729 0.322021 0
M  V30 3627 H 355.352 -1.11493 1.27935 0
M  V30 3628 H 354.124 -2.81201 2.72106 0
M  V30 3629 H 353.747 -3.76022 1.29202 0
M  V30 3630 N 354.744 -0.972509 -1.24016 0
M  V30 3631 C 355.674 -0.525548 -2.27509 0
M  V30 3632 C 356.655 0.437262 -1.64384 0
M  V30 3633 O 357.84 0.332343 -1.91335 0
M  V30 3634 C 354.97 0.180448 -3.46831 0
M  V30 3635 C 353.924 -0.698859 -4.22256 0
M  V30 3636 C 353.25 0.138903 -5.3452 0
M  V30 3637 C 354.55 -1.98582 -4.83076 0
M  V30 3638 H 356.244 -1.39058 -2.65148 0
M  V30 3639 H 353.79 -0.67009 -1.27459 0
M  V30 3640 H 355.743 0.504387 -4.18371 0
M  V30 3641 H 354.467 1.07987 -3.08231 0
M  V30 3642 H 353.126 -1.00614 -3.52523 0
M  V30 3643 H 352.774 1.03862 -4.9216 0
M  V30 3644 H 352.474 -0.446259 -5.85903 0
M  V30 3645 H 353.998 0.457404 -6.08884 0
M  V30 3646 H 355.412 -1.72715 -5.46665 0
M  V30 3647 H 353.809 -2.5181 -5.44713 0
M  V30 3648 H 354.879 -2.67769 -4.04262 0
M  V30 3649 N 356.222 1.38976 -0.743202 0
M  V30 3650 C 357.468 2.0064 -0.295189 0
M  V30 3651 C 357.801 1.5885 1.11716 0
M  V30 3652 O 357.076 0.821181 1.76315 0
M  V30 3653 C 357.359 3.578 -0.406318 0
M  V30 3654 C 357.212 4.09586 -1.85903 0
M  V30 3655 C 358.531 4.39616 0.206439 0
M  V30 3656 H 355.65 0.728935 -0.108733 0
M  V30 3657 H 358.292 1.65067 -0.940897 0
M  V30 3658 H 356.442 3.88235 0.143419 0
M  V30 3659 H 358.114 3.89837 -2.46627 0
M  V30 3660 H 356.357 3.6284 -2.3776 0
M  V30 3661 H 357.028 5.18708 -1.888 0
M  V30 3662 H 359.504 4.15273 -0.262283 0
M  V30 3663 H 358.38 5.48812 0.0983819 0
M  V30 3664 H 358.641 4.22754 1.2935 0
M  V30 3665 N 357.7 0.491464 1.49741 0
M  V30 3666 C 358.949 -0.0582189 2.01616 0
M  V30 3667 C 359.262 -1.38927 1.3769 0
M  V30 3668 O 360.468 -2.02509 1.80838 0
M  V30 3669 C 358.924 -0.154235 3.59569 0
M  V30 3670 C 358.532 1.1696 4.32463 0
M  V30 3671 C 360.276 -0.65479 4.1942 0
M  V30 3672 C 358.183 1.03627 5.8225 0
M  V30 3673 H 357.113 -0.0255317 0.753568 0
M  V30 3674 H 359.764 0.629445 1.72367 0
M  V30 3675 H 358.146 -0.906138 3.85493 0
M  V30 3676 H 359.32 1.93405 4.18248 0
M  V30 3677 H 357.635 1.60285 3.84315 0
M  V30 3678 H 360.232 -0.771903 5.29099 0
M  V30 3679 H 360.575 -1.65127 3.8215 0
M  V30 3680 H 361.108 0.040304 3.9778 0
M  V30 3681 H 357.847 2.00672 6.24028 0
M  V30 3682 H 357.367 0.312546 5.98985 0
M  V30 3683 H 359.046 0.711114 6.4308 0
M  V30 3684 N 359.178 -1.55987 0.224894 0
M  V30 3685 C 360.141 -2.19178 -0.670348 0
M  V30 3686 C 361.141 -1.15461 -1.11917 0
M  V30 3687 O 362.331 -1.40675 -1.02743 0
M  V30 3688 C 359.463 -2.81777 -1.9187 0
M  V30 3689 H 360.656 -2.99662 -0.119364 0
M  V30 3690 H 358.209 -1.5628 -0.0247128 0
M  V30 3691 H 358.944 -2.05172 -2.51147 0
M  V30 3692 H 358.729 -3.57732 -1.60531 0
M  V30 3693 H 360.219 -3.30205 -2.55645 0
M  V30 3694 N 360.656 0.0484629 -1.57525 0
M  V30 3695 C 361.904 0.741657 -1.88 0
M  V30 3696 C 362.225 1.76918 -0.820054 0
M  V30 3697 O 361.495 1.95335 0.148661 0
M  V30 3698 H 360.075 0.276908 -0.69378 0
M  V30 3699 H 362.737 0.019013 -1.94891 0
M  V30 3700 H 361.833 1.24336 -2.86264 0
M  V30 3701 N 362.134 1.5431 0.320358 0
M  V30 3702 C 363.383 1.7188 1.05546 0
M  V30 3703 C 363.696 0.501143 1.89071 0
M  V30 3704 O 364.902 0.558258 2.65699 0
M  V30 3705 C 363.358 3.04025 1.92605 0
M  V30 3706 C 362.966 4.33207 1.14176 0
M  V30 3707 C 364.71 3.30959 2.65832 0
M  V30 3708 C 362.617 5.56412 2.00399 0
M  V30 3709 H 361.547 0.640547 0.397763 0
M  V30 3710 H 364.198 1.80802 0.313522 0
M  V30 3711 H 362.58 2.89019 2.7071 0
M  V30 3712 H 363.754 4.58989 0.40819 0
M  V30 3713 H 362.069 4.13062 0.526165 0
M  V30 3714 H 364.666 4.20203 3.30656 0
M  V30 3715 H 365.009 2.48979 3.33639 0
M  V30 3716 H 365.542 3.46847 1.94787 0
M  V30 3717 H 362.281 6.41004 1.37094 0
M  V30 3718 H 361.801 5.34844 2.7148 0
M  V30 3719 H 363.48 5.92938 2.58908 0
M  V30 3720 N 363.613 -0.582584 1.46437 0
M  V30 3721 C 364.861 -1.33814 1.51453 0
M  V30 3722 C 365.182 -1.94277 0.167792 0
M  V30 3723 O 364.452 -1.78566 -0.805677 0
M  V30 3724 H 363.032 -0.496838 0.557818 0
M  V30 3725 H 365.694 -0.682281 1.82568 0
M  V30 3726 H 364.79 -2.14479 2.26728 0
M  V30 3727 N 365.091 -1.34144 -0.827227 0
M  V30 3728 C 366.021 -1.28005 -1.95287 0
M  V30 3729 C 367.002 -0.158321 -1.69362 0
M  V30 3730 O 368.187 -0.349987 -1.9102 0
M  V30 3731 C 365.317 -1.03036 -3.31664 0
M  V30 3732 C 364.271 -2.11628 -3.72019 0
M  V30 3733 C 363.597 -1.71854 -5.0633 0
M  V30 3734 C 364.897 -3.53417 -3.8457 0
M  V30 3735 H 366.591 -2.22187 -2.00682 0
M  V30 3736 H 364.137 -1.0696 -0.964135 0
M  V30 3737 H 366.09 -0.973863 -4.09993 0
M  V30 3738 H 364.814 -0.0529391 -3.26557 0
M  V30 3739 H 363.473 -2.16339 -2.95961 0
M  V30 3740 H 363.121 -0.727841 -4.97706 0
M  V30 3741 H 362.821 -2.44531 -5.34302 0
M  V30 3742 H 364.345 -1.67692 -5.87122 0
M  V30 3743 H 365.759 -3.51142 -4.5318 0
M  V30 3744 H 364.156 -4.24679 -4.2399 0
M  V30 3745 H 365.226 -3.91072 -2.86689 0
M  V30 3746 N 366.569 1.04691 -1.17803 0
M  V30 3747 C 367.818 1.77176 -0.963931 0
M  V30 3748 C 368.131 1.88888 0.508015 0
M  V30 3749 O 369.337 2.58164 0.840465 0
M  V30 3750 C 367.793 3.18518 -1.67555 0
M  V30 3751 C 367.401 3.14919 -3.18637 0
M  V30 3752 C 369.145 3.95424 -1.54402 0
M  V30 3753 C 367.052 4.51081 -3.82466 0
M  V30 3754 H 365.982 0.664116 -0.357023 0
M  V30 3755 H 368.633 1.17303 -1.4111 0
M  V30 3756 H 367.015 3.78748 -1.15613 0
M  V30 3757 H 368.189 2.64178 -3.77554 0
M  V30 3758 H 366.504 2.51512 -3.31859 0
M  V30 3759 H 369.101 4.96106 -1.99456 0
M  V30 3760 H 369.444 4.13343 -0.495329 0
M  V30 3761 H 369.977 3.41754 -2.0359 0
M  V30 3762 H 366.716 4.38368 -4.87354 0
M  V30 3763 H 366.236 5.01951 -3.28337 0
M  V30 3764 H 367.915 5.2001 -3.84965 0
M  V30 3765 N 368.047 0.979072 1.23499 0
M  V30 3766 C 369.458 0.684391 1.73704 0
M  V30 3767 C 369.809 -0.799448 1.79174 0
M  V30 3768 O 368.934 -1.62531 1.42873 0
M  V30 3769 C 369.529 1.23564 3.15464 0
M  V30 3770 C 368.088 0.99063 3.6313 0
M  V30 3771 C 367.235 1.36416 2.41425 0
M  V30 3772 H 370.186 1.15307 1.09041 0
M  V30 3773 H 370.207 0.607417 3.7562 0
M  V30 3774 H 369.719 2.31561 3.1145 0
M  V30 3775 H 367.82 -0.0733136 3.72528 0
M  V30 3776 H 367.933 1.64427 4.5 0
M  V30 3777 H 366.297 0.782616 2.42378 0
M  V30 3778 H 367.08 2.45387 2.40083 0
M  V30 3779 N 369.525 -1.3858 0.750561 0
M  V30 3780 C 370.473 -2.32339 0.110162 0
M  V30 3781 C 371.467 -1.53864 -0.708674 0
M  V30 3782 O 372.673 -1.69417 -0.608112 0
M  V30 3783 H 369.048 -0.751812 0.0168275 0
M  V30 3784 H 371.019 -2.83959 0.917053 0
M  V30 3785 C 369.768 -3.39043 -0.771067 0
M  V30 3786 H 369.091 -3.99517 -0.150374 0
M  V30 3787 H 370.531 -4.07061 -1.1865 0
M  V30 3788 C 368.99 -2.77365 -1.91234 0
M  V30 3789 O 369.52 -2.66434 -3.00626 0
M  V30 3790 N 367.726 -2.35219 -1.70646 0
M  V30 3791 H 367.273 -2.4431 -0.81673 0
M  V30 3792 H 367.231 -1.94294 -2.47178 0
M  V30 3793 N 371.003 -0.499398 -1.49478 0
M  V30 3794 C 372.243 0.0440751 -2.04352 0
M  V30 3795 C 372.607 1.34423 -1.37093 0
M  V30 3796 O 373.808 1.97184 -1.82679 0
M  V30 3797 C 372.079 0.194918 -3.56868 0
M  V30 3798 S 373.638 0.69287 -4.33295 0
M  V30 3799 H 370.456 0.00253458 -0.710995 0
M  V30 3800 H 373.058 -0.673 -1.83551 0
M  V30 3801 H 371.762 -0.756672 -4.03364 0
M  V30 3802 H 371.293 0.93728 -3.82071 0
M  V30 3803 H 373.308 1.96226 -4.55752 0
M  V30 3804 N 372.481 1.55866 -0.233164 0
M  V30 3805 C 373.391 2.24431 0.683217 0
M  V30 3806 C 374.407 1.2558 1.2044 0
M  V30 3807 O 375.583 1.58422 1.24356 0
M  V30 3808 C 372.648 2.91979 1.86947 0
M  V30 3809 C 371.709 4.06204 1.38912 0
M  V30 3810 C 370.942 4.70522 2.51883 0
M  V30 3811 O 371.165 4.33865 3.70293 0
M  V30 3812 O 370.099 5.59296 2.22423 0
M  V30 3813 H 373.925 3.03426 0.129059 0
M  V30 3814 H 371.51 1.494 -0.0022283 0
M  V30 3815 H 373.392 3.34573 2.56201 0
M  V30 3816 H 372.067 2.15935 2.41151 0
M  V30 3817 H 370.974 3.68155 0.664259 0
M  V30 3818 H 372.307 4.84025 0.893328 0
M  V30 3819 N 373.959 -0.0401083 1.57549 0
M  V30 3820 C 374.889 -1.04384 2.08869 0
M  V30 3821 C 375.87 -1.38407 0.988817 0
M  V30 3822 O 377.055 -1.47483 1.26342 0
M  V30 3823 C 374.185 -2.34808 2.55895 0
M  V30 3824 C 373.139 -2.15057 3.70047 0
M  V30 3825 C 372.465 -3.51145 4.03239 0
M  V30 3826 C 373.765 -1.54576 4.98902 0
M  V30 3827 H 375.459 -0.616666 2.92981 0
M  V30 3828 H 373.005 -0.295184 1.40942 0
M  V30 3829 H 374.958 -3.05346 2.90417 0
M  V30 3830 H 373.682 -2.79565 1.68853 0
M  V30 3831 H 372.341 -1.46954 3.35857 0
M  V30 3832 H 371.989 -3.93529 3.13279 0
M  V30 3833 H 371.689 -3.38758 4.80122 0
M  V30 3834 H 373.213 -4.23062 4.40285 0
M  V30 3835 H 374.627 -2.15017 5.31451 0
M  V30 3836 H 373.024 -1.52796 5.80322 0
M  V30 3837 H 374.094 -0.51039 4.82206 0
M  V30 3838 N 375.437 -1.54477 -0.31217 0
M  V30 3839 C 376.4 -1.83923 -1.36766 0
M  V30 3840 C 377.4 -0.711563 -1.44199 0
M  V30 3841 O 378.59 -0.979866 -1.44029 0
M  V30 3842 C 375.722 -2.0095 -2.75376 0
M  V30 3843 H 376.915 -2.78239 -1.11906 0
M  V30 3844 H 374.468 -1.46369 -0.548257 0
M  V30 3845 H 375.203 -1.08883 -3.05475 0
M  V30 3846 H 374.988 -2.83018 -2.71373 0
M  V30 3847 H 376.478 -2.2514 -3.51713 0
M  V30 3848 N 376.915 0.57481 -1.46744 0
M  V30 3849 C 378.14 1.36341 -1.56288 0
M  V30 3850 C 378.565 1.86954 -0.207347 0
M  V30 3851 O 377.923 1.62006 0.813871 0
M  V30 3852 C 377.971 2.52147 -2.57787 0
M  V30 3853 O 377.075 3.53834 -2.11838 0
M  V30 3854 H 376.416 0.405713 -0.525636 0
M  V30 3855 H 378.946 0.696453 -1.92382 0
M  V30 3856 H 378.956 2.98958 -2.77648 0
M  V30 3857 H 377.631 2.14663 -3.5622 0
M  V30 3858 H 376.208 3.1345 -2.01999 0
M  V30 3859 N 378.394 1.34581 0.820102 0
M  V30 3860 C 379.357 1.2628 1.91275 0
M  V30 3861 C 380.357 0.177344 1.59819 0
M  V30 3862 O 381.547 0.430156 1.68806 0
M  V30 3863 C 378.679 0.950327 3.27386 0
M  V30 3864 H 379.872 2.23421 2.00057 0
M  V30 3865 H 377.425 1.1891 1.0144 0
M  V30 3866 H 378.16 -0.0177938 3.24295 0
M  V30 3867 H 377.945 1.73549 3.51601 0
M  V30 3868 H 379.435 0.917492 4.07396 0
M  V30 3869 N 379.872 -1.04064 1.18357 0
M  V30 3870 C 380.835 -2.10243 0.912707 0
M  V30 3871 C 381.835 -1.60477 -0.101928 0
M  V30 3872 O 383.025 -1.73703 0.131517 0
M  V30 3873 C 380.157 -3.38893 0.369387 0
M  V30 3874 H 381.35 -2.35706 1.85426 0
M  V30 3875 H 378.903 -1.20489 0.995594 0
M  V30 3876 H 379.638 -3.19094 -0.578776 0
M  V30 3877 H 379.423 -3.76331 1.1008 0
M  V30 3878 H 380.913 -4.17128 0.198575 0
M  V30 3879 N 381.35 -0.985608 -1.22978 0
M  V30 3880 C 382.598 -0.656087 -1.91154 0
M  V30 3881 C 382.919 0.813561 -1.77218 0
M  V30 3882 O 382.189 1.58244 -1.1548 0
M  V30 3883 H 380.769 -0.239674 -0.707506 0
M  V30 3884 H 383.431 -1.25054 -1.49491 0
M  V30 3885 H 382.527 -0.912253 -2.9847 0
M  V30 3886 N 382.828 1.3818 -0.7579 0
M  V30 3887 C 383.758 2.33027 -0.148597 0
M  V30 3888 C 384.739 1.55085 0.69875 0
M  V30 3889 O 385.924 1.83384 0.639053 0
M  V30 3890 C 383.054 3.3928 0.742034 0
M  V30 3891 C 382.008 4.28 -0.00291946 0
M  V30 3892 C 381.334 5.25146 1.00625 0
M  V30 3893 C 382.634 5.08938 -1.17385 0
M  V30 3894 H 384.328 2.84231 -0.940909 0
M  V30 3895 H 381.874 1.36659 -0.453908 0
M  V30 3896 H 383.827 4.046 1.17799 0
M  V30 3897 H 382.551 2.86569 1.56671 0
M  V30 3898 H 381.21 3.64192 -0.419504 0
M  V30 3899 H 380.858 4.68721 1.8251 0
M  V30 3900 H 380.558 5.85361 0.512428 0
M  V30 3901 H 382.082 5.93342 1.44143 0
M  V30 3902 H 383.496 5.67474 -0.815224 0
M  V30 3903 H 381.893 5.7841 -1.59882 0
M  V30 3904 H 382.963 4.42424 -1.98468 0
M  V30 3905 N 384.306 0.507319 1.49211 0
M  V30 3906 C 385.238 -0.304532 2.27168 0
M  V30 3907 C 386.251 -0.924956 1.33972 0
M  V30 3908 O 387.44 -0.807227 1.59205 0
M  V30 3909 C 384.54 -1.44431 3.06583 0
M  V30 3910 C 383.713 -0.930026 4.27398 0
M  V30 3911 C 382.772 -1.94817 4.88807 0
M  V30 3912 O 381.798 -1.51418 5.4869 0
M  V30 3913 N 383 -3.279 4.79022 0
M  V30 3914 H 385.765 0.36395 2.97482 0
M  V30 3915 H 383.326 0.340249 1.58284 0
M  V30 3916 H 385.318 -2.12311 3.44537 0
M  V30 3917 H 383.888 -2.01684 2.38835 0
M  V30 3918 H 383.108 -0.0759244 3.94127 0
M  V30 3919 H 384.396 -0.564932 5.05654 0
M  V30 3920 H 383.794 -3.65843 4.3148 0
M  V30 3921 H 382.351 -3.91476 5.21142 0
M  V30 3922 N 385.784 -1.5574 0.241426 0
M  V30 3923 C 387.03 -1.99104 -0.385406 0
M  V30 3924 C 387.363 -1.1293 -1.57988 0
M  V30 3925 O 386.638 -0.191449 -1.93555 0
M  V30 3926 C 386.921 -3.51087 -0.800616 0
M  V30 3927 C 386.774 -4.48028 0.398874 0
M  V30 3928 C 388.093 -4.08015 -1.64959 0
M  V30 3929 H 385.212 -0.723848 -0.138614 0
M  V30 3930 H 387.854 -1.86903 0.341642 0
M  V30 3931 H 386.004 -3.61615 -1.4201 0
M  V30 3932 H 387.676 -4.49487 1.03726 0
M  V30 3933 H 385.919 -4.21077 1.04293 0
M  V30 3934 H 386.59 -5.51962 0.0651056 0
M  V30 3935 H 389.066 -4.00555 -1.12672 0
M  V30 3936 H 387.942 -5.14635 -1.90898 0
M  V30 3937 H 388.203 -3.56131 -2.61961 0
M  V30 3938 N 387.262 0.0317525 -1.57568 0
M  V30 3939 C 388.539 0.758366 -1.803 0
M  V30 3940 C 388.919 1.93718 -0.838845 0
M  V30 3941 O 388.267 2.28187 0.119571 0
M  V30 3942 C 388.477 1.19392 -3.27943 0
M  V30 3943 C 389.825 1.61094 -3.92854 0
M  V30 3944 O 390.849 1.28857 -3.32076 0
M  V30 3945 O 389.708 2.20918 -4.99858 0
M  V30 3946 H 386.802 0.366514 -0.741348 0
M  V30 3947 H 389.348 0.00873765 -1.69698 0
M  V30 3948 H 388.12 0.352275 -3.89711 0
M  V30 3949 H 387.743 2.00365 -3.43424 0
M  V30 3950 N 388.74 1.54641 0.303973 0
M  V30 3951 C 389.688 1.86137 1.39484 0
M  V30 3952 C 390.682 0.734854 1.52631 0
M  V30 3953 O 391.888 0.918803 1.54784 0
M  V30 3954 H 388.263 0.590324 0.465856 0
M  V30 3955 H 390.234 2.77324 1.10154 0
M  V30 3956 C 388.983 2.12274 2.75382 0
M  V30 3957 H 388.306 2.98429 2.66046 0
M  V30 3958 H 389.746 2.38254 3.5073 0
M  V30 3959 C 388.205 0.920365 3.24085 0
M  V30 3960 O 388.735 0.139377 4.01458 0
M  V30 3961 N 386.941 0.726566 2.81371 0
M  V30 3962 H 386.488 1.36332 2.18567 0
M  V30 3963 H 386.446 -0.0763799 3.14307 0
M  V30 3964 N 390.218 -0.567019 1.47046 0
M  V30 3965 C 391.466 -1.322 1.52864 0
M  V30 3966 C 391.787 -1.94088 0.188388 0
M  V30 3967 O 391.057 -1.7941 -0.786693 0
M  V30 3968 H 389.637 -0.490894 0.563056 0
M  V30 3969 H 392.299 -0.662879 1.83281 0
M  V30 3970 H 391.395 -2.12062 2.2899 0
M  V30 3971 N 391.696 -1.35014 -0.812953 0
M  V30 3972 C 392.945 -1.27269 -1.56479 0
M  V30 3973 C 393.258 0.152771 -1.95002 0
M  V30 3974 O 394.464 0.352451 -2.69203 0
M  V30 3975 C 392.92 -2.23159 -2.82362 0
M  V30 3976 C 392.528 -3.71016 -2.511 0
M  V30 3977 C 394.272 -2.24342 -3.60376 0
M  V30 3978 C 392.179 -4.58746 -3.73237 0
M  V30 3979 H 391.109 -0.472829 -0.587324 0
M  V30 3980 H 393.76 -1.6024 -0.894171 0
M  V30 3981 H 392.142 -1.83151 -3.51101 0
M  V30 3982 H 393.316 -4.1962 -1.90409 0
M  V30 3983 H 391.631 -3.72378 -1.86343 0
M  V30 3984 H 394.228 -2.87107 -4.51081 0
M  V30 3985 H 394.571 -1.24542 -3.97234 0
M  V30 3986 H 395.104 -2.62846 -2.98591 0
M  V30 3987 H 391.843 -5.59521 -3.41492 0
M  V30 3988 H 391.363 -4.14871 -4.33176 0
M  V30 3989 H 393.042 -4.73852 -4.40537 0
M  V30 3990 N 393.175 1.03435 -1.18907 0
M  V30 3991 C 394.421 1.77005 -0.989798 0
M  V30 3992 C 394.754 1.88205 0.478816 0
M  V30 3993 O 394.029 1.39481 1.35556 0
M  V30 3994 C 394.312 3.19925 -1.65287 0
M  V30 3995 C 394.165 3.1663 -3.19477 0
M  V30 3996 C 395.484 4.18189 -1.37134 0
M  V30 3997 H 392.603 0.642538 -0.360991 0
M  V30 3998 H 395.245 1.20784 -1.46667 0
M  V30 3999 H 393.395 3.67929 -1.24741 0
M  V30 4000 H 395.067 2.76567 -3.692 0
M  V30 4001 H 393.31 2.54491 -3.51307 0
M  V30 4002 H 393.981 4.1758 -3.61013 0
M  V30 4003 H 396.457 3.78761 -1.72276 0
M  V30 4004 H 395.333 5.16394 -1.86087 0
M  V30 4005 H 395.594 4.41112 -0.295424 0
M  V30 4006 N 394.653 0.992116 1.22453 0
M  V30 4007 C 395.902 0.662992 1.90492 0
M  V30 4008 C 396.215 -0.808407 1.78113 0
M  V30 4009 O 397.421 -1.24908 2.41061 0
M  V30 4010 C 395.877 1.1353 3.41524 0
M  V30 4011 C 395.485 2.63187 3.62542 0
M  V30 4012 C 397.229 0.880465 4.15269 0
M  V30 4013 C 395.136 3.04024 5.0727 0
M  V30 4014 H 394.066 0.244278 0.713333 0
M  V30 4015 H 396.717 1.20157 1.38688 0
M  V30 4016 H 395.099 0.52485 3.92506 0
M  V30 4017 H 396.273 3.2957 3.22056 0
M  V30 4018 H 394.588 2.86543 3.02129 0
M  V30 4019 H 397.185 1.16128 5.21937 0
M  V30 4020 H 397.528 -0.183408 4.15896 0
M  V30 4021 H 398.061 1.45307 3.70312 0
M  V30 4022 H 394.8 4.09584 5.11782 0
M  V30 4023 H 394.32 2.42343 5.48662 0
M  V30 4024 H 395.999 2.95282 5.75689 0
M  V30 4025 N 396.131 -1.37776 0.765217 0
M  V30 4026 C 397.079 -2.32209 0.134798 0
M  V30 4027 C 398.073 -1.54607 -0.692315 0
M  V30 4028 O 399.279 -1.70052 -0.590109 0
M  V30 4029 H 395.654 -0.751591 0.0248005 0
M  V30 4030 H 397.625 -2.8297 0.947119 0
M  V30 4031 C 396.374 -3.39841 -0.735063 0
M  V30 4032 H 395.697 -3.99654 -0.107991 0
M  V30 4033 H 397.137 -4.08296 -1.14326 0
M  V30 4034 C 395.596 -2.79378 -1.88281 0
M  V30 4035 O 396.126 -2.69608 -2.97783 0
M  V30 4036 N 394.332 -2.37016 -1.68142 0
M  V30 4037 H 393.879 -2.45162 -0.790772 0
M  V30 4038 H 393.837 -1.96905 -2.45104 0
M  V30 4039 N 397.609 -0.515225 -1.4894 0
M  V30 4040 C 398.519 0.259774 -2.33157 0
M  V30 4041 C 399.535 0.953501 -1.45548 0
M  V30 4042 O 400.711 0.931735 -1.78552 0
M  V30 4043 C 397.776 1.30193 -3.21326 0
M  V30 4044 C 396.837 0.620129 -4.24797 0
M  V30 4045 C 396.07 1.61263 -5.08753 0
M  V30 4046 O 396.293 2.84389 -4.94448 0
M  V30 4047 O 395.227 1.16013 -5.90614 0
M  V30 4048 H 399.053 -0.429932 -3.00641 0
M  V30 4049 H 396.638 -0.276346 -1.46822 0
M  V30 4050 H 398.52 1.90455 -3.75905 0
M  V30 4051 H 397.195 1.97431 -2.56521 0
M  V30 4052 H 396.102 -0.0226019 -3.74093 0
M  V30 4053 H 397.435 -0.0100493 -4.92199 0
M  V30 4054 N 399.087 1.5561 -0.249682 0
M  V30 4055 C 400.037 2.18157 0.662673 0
M  V30 4056 C 401.021 1.1383 1.13717 0
M  V30 4057 O 402.213 1.39731 1.08648 0
M  V30 4058 C 399.342 2.88672 1.85805 0
M  V30 4059 C 398.428 4.00258 1.40193 0
M  V30 4060 N 398.819 5.01473 0.660213 0
M  V30 4061 C 397.117 4.12864 1.68698 0
M  V30 4062 C 397.818 5.80155 0.423695 0
M  V30 4063 N 396.794 5.34533 0.988721 0
M  V30 4064 H 400.596 2.93769 0.0878688 0
M  V30 4065 H 398.11 1.62316 -0.0521183 0
M  V30 4066 H 400.107 3.31912 2.5227 0
M  V30 4067 H 398.767 2.14564 2.43705 0
M  V30 4068 H 399.778 5.16971 0.310047 0
M  V30 4069 H 396.455 3.4993 2.27717 0
M  V30 4070 H 397.845 6.71688 -0.168616 0
M  V30 4071 N 400.565 -0.0233959 1.57583 0
M  V30 4072 C 401.498 -1.05549 2.02323 0
M  V30 4073 C 402.476 -1.34843 0.908626 0
M  V30 4074 O 403.66 -1.47404 1.17491 0
M  V30 4075 C 400.787 -2.38885 2.40108 0
M  V30 4076 C 399.833 -2.2541 3.62067 0
M  V30 4077 S 400.666 -1.60217 5.1097 0
M  V30 4078 C 401.822 -2.95032 5.52003 0
M  V30 4079 H 402.055 -0.674435 2.89549 0
M  V30 4080 H 399.588 -0.23355 1.52623 0
M  V30 4081 H 401.546 -3.15562 2.62547 0
M  V30 4082 H 400.207 -2.74137 1.53323 0
M  V30 4083 H 399.4 -3.23854 3.86179 0
M  V30 4084 H 399.002 -1.56876 3.39508 0
M  V30 4085 H 401.294 -3.91357 5.53033 0
M  V30 4086 H 402.237 -2.75646 6.52246 0
M  V30 4087 H 402.645 -2.97865 4.79517 0
M  V30 4088 N 402.043 -1.548 -0.295768 0
M  V30 4089 C 402.975 -1.82492 -1.3867 0
M  V30 4090 C 403.988 -0.708134 -1.46592 0
M  V30 4091 O 405.177 -0.985686 -1.48817 0
M  V30 4092 C 402.277 -1.95256 -2.76999 0
M  V30 4093 C 401.45 -3.25709 -2.91946 0
M  V30 4094 C 400.509 -3.28824 -4.10806 0
M  V30 4095 O 399.535 -4.02328 -4.02643 0
M  V30 4096 N 400.737 -2.5459 -5.21694 0
M  V30 4097 H 403.502 -2.76646 -1.15269 0
M  V30 4098 H 401.063 -1.54438 -0.485849 0
M  V30 4099 H 403.055 -1.94736 -3.54768 0
M  V30 4100 H 401.625 -1.08072 -2.93324 0
M  V30 4101 H 400.845 -3.38959 -2.01247 0
M  V30 4102 H 402.133 -4.11786 -2.98847 0
M  V30 4103 H 401.531 -1.94512 -5.31208 0
M  V30 4104 H 400.088 -2.59818 -5.97778 0
M  V30 4105 N 403.521 0.559213 -1.47345 0
M  V30 4106 C 404.749 1.34194 -1.57479 0
M  V30 4107 C 405.164 1.87463 -0.224261 0
M  V30 4108 O 404.521 1.64888 0.782185 0
M  V30 4109 C 404.572 2.51324 -2.59843 0
M  V30 4110 O 404.293 2.00256 -3.89653 0
M  V30 4111 C 405.794 3.43563 -2.80142 0
M  V30 4112 H 403.014 0.409136 -0.531835 0
M  V30 4113 H 405.558 0.677609 -1.92947 0
M  V30 4114 H 403.713 3.13699 -2.27314 0
M  V30 4115 H 404.127 2.76708 -4.4557 0
M  V30 4116 H 405.601 4.2217 -3.55635 0
M  V30 4117 H 406.078 3.9698 -1.87892 0
M  V30 4118 H 406.684 2.87005 -3.1386 0
M  V30 4119 N 404.999 1.35443 0.805782 0
M  V30 4120 C 406.224 1.32037 1.59941 0
M  V30 4121 C 406.649 -0.0994215 1.87837 0
M  V30 4122 O 406.007 -1.06648 1.46615 0
M  V30 4123 C 406.055 2.13354 2.90711 0
M  V30 4124 O 405.159 1.5148 3.83572 0
M  V30 4125 H 404.5 0.452666 0.485787 0
M  V30 4126 H 407.03 1.78496 1.00002 0
M  V30 4127 H 407.04 2.25338 3.40128 0
M  V30 4128 H 405.715 3.16572 2.69732 0
M  V30 4129 H 404.292 1.4834 3.42125 0
M  V30 4130 N 406.477 -1.02803 1.19454 0
M  V30 4131 C 407.754 -1.73299 0.907013 0
M  V30 4132 C 408.134 -2.02772 -0.587086 0
M  V30 4133 O 407.482 -1.68304 -1.54551 0
M  V30 4134 C 407.692 -3.00912 1.76785 0
M  V30 4135 C 409.04 -3.74403 2.00268 0
M  V30 4136 O 410.064 -3.10841 1.73943 0
M  V30 4137 O 408.923 -4.88675 2.4466 0
M  V30 4138 H 406.017 -0.754727 0.338106 0
M  V30 4139 H 408.563 -1.08754 1.30271 0
M  V30 4140 H 407.335 -2.75366 2.7801 0
M  V30 4141 H 406.958 -3.73197 1.37149 0
M  V30 4142 N 407.956 -0.998596 -1.21925 0
M  V30 4143 C 409.367 -0.711939 -1.72593 0
M  V30 4144 C 409.718 0.770842 -1.80423 0
M  V30 4145 O 408.843 1.60237 -1.4544 0
M  V30 4146 C 409.438 -1.28567 -3.13458 0
M  V30 4147 C 407.997 -1.04828 -3.61508 0
M  V30 4148 C 407.144 -1.4024 -2.39224 0
M  V30 4149 H 410.095 -1.17027 -1.07193 0
M  V30 4150 H 410.116 -0.667098 -3.74607 0
M  V30 4151 H 409.628 -2.36486 -3.07727 0
M  V30 4152 H 407.729 0.0140383 -3.72597 0
M  V30 4153 H 407.842 -1.71566 -4.47328 0
M  V30 4154 H 406.206 -0.821077 -2.41103 0
M  V30 4155 H 406.989 -2.49176 -2.36149 0
M  V30 4156 N 409.434 1.37368 -0.772513 0
M  V30 4157 C 410.364 2.32856 -0.173304 0
M  V30 4158 C 411.345 1.55818 0.682262 0
M  V30 4159 O 412.53 1.84052 0.619566 0
M  V30 4160 C 409.66 3.40048 0.706007 0
M  V30 4161 C 408.614 4.27973 -0.0483144 0
M  V30 4162 C 407.94 5.26184 0.950491 0
M  V30 4163 C 409.24 5.07665 -1.22776 0
M  V30 4164 H 410.934 2.83217 -0.971002 0
M  V30 4165 H 408.48 1.3617 -0.468377 0
M  V30 4166 H 410.433 4.05827 1.13501 0
M  V30 4167 H 409.157 2.88214 1.53623 0
M  V30 4168 H 407.816 3.63726 -0.458107 0
M  V30 4169 H 407.464 4.7063 1.77529 0
M  V30 4170 H 407.164 5.85872 0.450314 0
M  V30 4171 H 408.688 5.94838 1.37842 0
M  V30 4172 H 410.102 5.66578 -0.875366 0
M  V30 4173 H 408.499 5.76681 -1.66007 0
M  V30 4174 H 409.569 4.40294 -2.03149 0
M  V30 4175 N 410.912 0.523116 1.48665 0
M  V30 4176 C 412.161 -0.01544 2.01694 0
M  V30 4177 C 412.474 -1.35975 1.40606 0
M  V30 4178 O 413.68 -1.98627 1.85093 0
M  V30 4179 C 412.136 -0.0779303 3.59816 0
M  V30 4180 C 411.744 1.26107 4.29885 0
M  V30 4181 C 413.488 -0.565678 4.20714 0
M  V30 4182 C 411.395 1.15954 5.79921 0
M  V30 4183 H 410.325 -0.00954163 0.75394 0
M  V30 4184 H 412.976 0.665865 1.70993 0
M  V30 4185 H 411.358 -0.824165 3.87329 0
M  V30 4186 H 412.532 2.02233 4.14051 0
M  V30 4187 H 410.847 1.68401 3.80828 0
M  V30 4188 H 413.444 -0.6595 5.30617 0
M  V30 4189 H 413.787 -1.56984 3.85567 0
M  V30 4190 H 414.32 0.12467 3.97605 0
M  V30 4191 H 411.059 2.13864 6.19631 0
M  V30 4192 H 410.579 0.439529 5.98187 0
M  V30 4193 H 412.258 0.847361 6.41427 0
M  V30 4194 N 412.39 -1.55475 0.257931 0
M  V30 4195 C 413.323 -2.179 -0.677862 0
M  V30 4196 C 414.301 -1.13448 -1.16483 0
M  V30 4197 O 415.485 -1.41889 -1.24095 0
M  V30 4198 C 412.612 -2.78851 -1.92249 0
M  V30 4199 C 411.658 -3.96454 -1.57246 0
M  V30 4200 S 412.491 -5.31349 -0.665501 0
M  V30 4201 C 413.647 -5.9576 -1.91889 0
M  V30 4202 H 413.88 -2.96934 -0.147396 0
M  V30 4203 H 411.413 -1.54342 0.0423023 0
M  V30 4204 H 413.371 -3.14602 -2.63697 0
M  V30 4205 H 412.032 -1.99742 -2.42409 0
M  V30 4206 H 411.225 -4.37731 -2.49814 0
M  V30 4207 H 410.827 -3.62038 -0.938325 0
M  V30 4208 H 413.119 -6.13947 -2.86487 0
M  V30 4209 H 414.062 -6.9094 -1.54942 0
M  V30 4210 H 414.47 -5.2494 -2.076 0
M  V30 4211 N 413.868 0.0150385 -1.57593 0
M  V30 4212 C 414.831 0.995996 -2.06428 0
M  V30 4213 C 415.831 1.2818 -0.970903 0
M  V30 4214 O 417.021 1.22949 -1.23406 0
M  V30 4215 C 414.153 2.32506 -2.49307 0
M  V30 4216 H 415.346 0.573873 -2.94358 0
M  V30 4217 H 412.899 0.262186 -1.54085 0
M  V30 4218 H 413.634 2.79438 -1.64575 0
M  V30 4219 H 413.419 2.13087 -3.29145 0
M  V30 4220 H 414.909 3.02906 -2.87468 0
M  V30 4221 N 415.346 1.54954 0.287554 0
M  V30 4222 C 416.592 1.75132 1.02257 0
M  V30 4223 C 416.925 0.542858 1.86458 0
M  V30 4224 O 416.2 -0.459856 1.88986 0
M  V30 4225 C 416.483 3.04812 1.91733 0
M  V30 4226 C 416.336 4.35985 1.10622 0
M  V30 4227 C 417.655 3.30438 2.90687 0
M  V30 4228 H 414.774 0.637194 0.370341 0
M  V30 4229 H 417.416 1.87678 0.296111 0
M  V30 4230 H 415.566 2.94247 2.53675 0
M  V30 4231 H 417.238 4.58487 0.508636 0
M  V30 4232 H 415.481 4.31865 0.409271 0
M  V30 4233 H 416.152 5.23017 1.76513 0
M  V30 4234 H 418.628 3.40701 2.38877 0
M  V30 4235 H 417.504 4.22467 3.50447 0
M  V30 4236 H 417.765 2.49377 3.65053 0
M  V30 4237 N 416.824 -0.551391 1.4764 0
M  V30 4238 C 418.072 -1.30572 1.54258 0
M  V30 4239 C 418.393 -1.93877 0.208963 0
M  V30 4240 O 417.663 -1.80234 -0.767619 0
M  V30 4241 H 416.243 -0.484894 0.568231 0
M  V30 4242 H 418.905 -0.643402 1.83974 0
M  V30 4243 H 418.001 -2.09621 2.31226 0
M  V30 4244 N 418.302 -1.35869 -0.798587 0
M  V30 4245 C 419.579 -1.20145 -1.54352 0
M  V30 4246 C 419.959 0.216161 -2.0999 0
M  V30 4247 O 419.307 1.22068 -1.93162 0
M  V30 4248 C 419.517 -2.27602 -2.64572 0
M  V30 4249 C 420.865 -2.63811 -3.32699 0
M  V30 4250 O 421.889 -2.26576 -2.74849 0
M  V30 4251 O 420.748 -3.27866 -4.37226 0
M  V30 4252 H 417.842 -0.467248 -0.682355 0
M  V30 4253 H 420.388 -1.47574 -0.837859 0
M  V30 4254 H 419.16 -3.2265 -2.21388 0
M  V30 4255 H 418.783 -2.01488 -3.42766 0
M  V30 4256 N 419.78 1.02168 -1.19998 0
M  V30 4257 C 421.02 1.77232 -1.01825 0
M  V30 4258 C 421.384 1.86833 0.442428 0
M  V30 4259 O 422.585 2.58293 0.744189 0
M  V30 4260 C 420.856 3.15601 -1.67722 0
M  V30 4261 S 422.415 4.06765 -1.64584 0
M  V30 4262 H 419.233 0.610021 -0.365233 0
M  V30 4263 H 421.835 1.22368 -1.52467 0
M  V30 4264 H 420.539 3.06235 -2.73218 0
M  V30 4265 H 420.07 3.7554 -1.17189 0
M  V30 4266 H 422.085 4.91586 -0.67511 0
M  V30 4267 N 421.258 1.00505 1.21394 0
M  V30 4268 C 422.221 0.570459 2.21987 0
M  V30 4269 C 423.221 -0.353211 1.56873 0
M  V30 4270 O 424.411 -0.14349 1.73608 0
M  V30 4271 C 421.543 -0.168555 3.40483 0
M  V30 4272 H 422.736 1.46021 2.6195 0
M  V30 4273 H 420.289 0.793565 1.34656 0
M  V30 4274 H 421.024 -1.07374 3.06009 0
M  V30 4275 H 420.809 0.494823 3.88965 0
M  V30 4276 H 422.299 -0.460362 4.15055 0
M  V30 4277 N 422.737 -1.36956 0.779787 0
M  V30 4278 C 424.153 -1.52817 0.460342 0
M  V30 4279 C 424.353 -1.7361 -1.02283 0
M  V30 4280 O 423.409 -1.76207 -1.80852 0
M  V30 4281 C 424.722 -2.71983 1.28241 0
M  V30 4282 C 426.27 -2.85849 1.27512 0
M  V30 4283 C 426.745 -4.08008 2.08072 0
M  V30 4284 N 428.236 -4.15135 2.05467 0
M  V30 4285 C 428.971 -5.08711 2.64577 0
M  V30 4286 N 428.467 -6.07792 3.32506 0
M  V30 4287 N 430.26 -5.01254 2.54363 0
M  V30 4288 H 422.411 -1.21713 1.74068 0
M  V30 4289 H 424.674 -0.593294 0.739396 0
M  V30 4290 H 424.38 -2.63109 2.33381 0
M  V30 4291 H 424.254 -3.65882 0.917088 0
M  V30 4292 H 426.641 -2.94189 0.231686 0
M  V30 4293 H 426.722 -1.92886 1.68014 0
M  V30 4294 H 426.366 -4.00429 3.12441 0
M  V30 4295 H 426.296 -5.001 1.64947 0
M  V30 4296 H 428.787 -3.44189 1.5602 0
M  V30 4297 H 429.1 -6.75739 3.74963 0
M  V30 4298 H 427.445 -6.08047 3.36606 0
M  V30 4299 H 430.636 -4.22795 2.00902 0
M  V30 4300 H 430.809 -5.73995 3.00722 0
M  V30 4301 N 424.215 -0.530993 -1.48385 0
M  V30 4302 C 425.462 0.0027373 -2.025 0
M  V30 4303 C 425.79 1.34186 -1.40799 0
M  V30 4304 O 425.045 1.88 -0.543544 0
M  V30 4305 C 425.344 0.172742 -3.56982 0
M  V30 4306 C 425.01 -1.09215 -4.37473 0
M  V30 4307 C 423.672 -1.43881 -4.59186 0
M  V30 4308 C 426.024 -1.93153 -4.84088 0
M  V30 4309 C 423.352 -2.62381 -5.2476 0
M  V30 4310 C 425.704 -3.10833 -5.50968 0
M  V30 4311 C 424.368 -3.45843 -5.70919 0
M  V30 4312 H 423.638 0.00100165 -0.740999 0
M  V30 4313 H 426.285 -0.697219 -1.78357 0
M  V30 4314 H 424.59 0.955473 -3.79971 0
M  V30 4315 H 426.287 0.600642 -3.96476 0
M  V30 4316 H 422.877 -0.812177 -4.20834 0
M  V30 4317 H 427.061 -1.67683 -4.67115 0
M  V30 4318 H 422.317 -2.89707 -5.38405 0
M  V30 4319 H 426.491 -3.7618 -5.86056 0
M  V30 4320 H 424.118 -4.37764 -6.21503 0
M  V30 4321 N 425.693 1.55336 -0.266172 0
M  V30 4322 C 426.643 2.18848 0.639497 0
M  V30 4323 C 427.627 1.1503 1.12503 0
M  V30 4324 O 428.819 1.40875 1.0716 0
M  V30 4325 C 425.948 2.90626 1.82733 0
M  V30 4326 C 425.034 4.01723 1.35939 0
M  V30 4327 N 425.425 5.02145 0.606988 0
M  V30 4328 C 423.723 4.1463 1.6431 0
M  V30 4329 C 424.424 5.80572 0.362138 0
M  V30 4330 N 423.4 5.35551 0.931971 0
M  V30 4331 H 427.202 2.93845 0.0567057 0
M  V30 4332 H 424.716 1.62252 -0.0693312 0
M  V30 4333 H 426.713 3.34569 2.48735 0
M  V30 4334 H 425.373 2.17137 2.41416 0
M  V30 4335 H 426.384 5.17271 0.255198 0
M  V30 4336 H 423.061 3.52326 2.23993 0
M  V30 4337 H 424.451 6.71472 -0.239848 0
M  V30 4338 N 427.171 -0.0066808 1.57599 0
M  V30 4339 C 428.396 -0.707738 1.94951 0
M  V30 4340 C 428.821 -1.66882 0.867868 0
M  V30 4341 O 428.179 -1.80457 -0.17458 0
M  V30 4342 C 428.227 -1.42162 3.31394 0
M  V30 4343 O 427.331 -2.53578 3.25226 0
M  V30 4344 H 426.672 -0.188752 0.636607 0
M  V30 4345 H 429.202 0.0445193 2.04552 0
M  V30 4346 H 429.212 -1.78655 3.66806 0
M  V30 4347 H 427.887 -0.716903 4.09675 0
M  V30 4348 H 426.464 -2.19463 3.01481 0
M  V30 4349 N 428.649 -1.55105 -0.279332 0
M  V30 4350 C 429.581 -1.83952 -1.36727 0
M  V30 4351 C 430.594 -0.723642 -1.45833 0
M  V30 4352 O 431.783 -1.00141 -1.47763 0
M  V30 4353 C 428.883 -1.98183 -2.74912 0
M  V30 4354 C 428.056 -3.28787 -2.88475 0
M  V30 4355 C 427.115 -3.33162 -4.07295 0
M  V30 4356 O 426.141 -4.06576 -3.98353 0
M  V30 4357 N 427.343 -2.60109 -5.18964 0
M  V30 4358 H 430.108 -2.77853 -1.12328 0
M  V30 4359 H 427.669 -1.54945 -0.469442 0
M  V30 4360 H 429.661 -1.98488 -3.52682 0
M  V30 4361 H 428.231 -1.11177 -2.92162 0
M  V30 4362 H 427.451 -3.41075 -1.97641 0
M  V30 4363 H 428.739 -4.14933 -2.94463 0
M  V30 4364 H 428.137 -2.00136 -5.29115 0
M  V30 4365 H 426.694 -2.66143 -5.94988 0
M  V30 4366 N 430.127 0.543554 -1.4793 0
M  V30 4367 C 431.057 1.65888 -1.64327 0
M  V30 4368 C 432.038 1.62818 -0.492383 0
M  V30 4369 O 433.223 1.80226 -0.723338 0
M  V30 4370 C 430.353 3.04506 -1.67013 0
M  V30 4371 C 429.307 3.2243 -2.81466 0
M  V30 4372 C 428.633 4.61972 -2.69233 0
M  V30 4373 C 429.933 3.06496 -4.22915 0
M  V30 4374 H 431.627 1.52421 -2.57698 0
M  V30 4375 H 429.173 0.731849 -1.24016 0
M  V30 4376 H 431.126 3.82391 -1.77074 0
M  V30 4377 H 429.85 3.18964 -0.70212 0
M  V30 4378 H 428.509 2.46957 -2.70938 0
M  V30 4379 H 428.157 4.73247 -1.7043 0
M  V30 4380 H 427.857 4.74911 -3.46025 0
M  V30 4381 H 429.381 5.41974 -2.81242 0
M  V30 4382 H 430.795 3.74186 -4.34348 0
M  V30 4383 H 429.192 3.30938 -5.006 0
M  V30 4384 H 430.262 2.03077 -4.40327 0
M  V30 4385 N 431.605 1.3629 0.791371 0
M  V30 4386 C 432.835 1.33368 1.57786 0
M  V30 4387 C 433.243 -0.0875188 1.88997 0
M  V30 4388 O 432.586 -1.05427 1.50435 0
M  V30 4389 C 432.648 2.08802 2.92646 0
M  V30 4390 C 432.312 3.57903 2.84174 0
M  V30 4391 C 433.309 4.52191 2.56553 0
M  V30 4392 C 430.994 4.00762 3.02812 0
M  V30 4393 C 432.988 5.87315 2.47669 0
M  V30 4394 C 430.675 5.35977 2.93551 0
M  V30 4395 C 431.673 6.29066 2.66017 0
M  V30 4396 O 431.361 7.61798 2.56746 0
M  V30 4397 H 431.093 0.459166 0.496128 0
M  V30 4398 H 433.647 1.79952 0.990269 0
M  V30 4399 H 431.877 1.56878 3.53449 0
M  V30 4400 H 433.566 1.98762 3.53904 0
M  V30 4401 H 434.332 4.20393 2.41858 0
M  V30 4402 H 430.211 3.2868 3.2325 0
M  V30 4403 H 433.755 6.59943 2.26099 0
M  V30 4404 H 429.652 5.67384 3.07808 0
M  V30 4405 H 430.42 7.71898 2.72242 0
M  V30 4406 N 433.083 -1.0153 1.20538 0
M  V30 4407 C 434.36 -1.72327 0.925343 0
M  V30 4408 C 434.74 -2.03383 -0.565547 0
M  V30 4409 O 434.088 -1.69934 -1.52757 0
M  V30 4410 C 434.298 -2.9902 1.79967 0
M  V30 4411 C 435.646 -3.72258 2.04228 0
M  V30 4412 O 436.67 -3.08979 1.77231 0
M  V30 4413 O 435.529 -4.86053 2.4983 0
M  V30 4414 H 432.623 -0.751099 0.346092 0
M  V30 4415 H 435.169 -1.07366 1.31417 0
M  V30 4416 H 433.941 -2.72402 2.80915 0
M  V30 4417 H 433.564 -3.71721 1.41099 0
M  V30 4418 N 434.561 -1.01147 -1.20859 0
M  V30 4419 C 435.977 -0.725422 -1.42161 0
M  V30 4420 C 436.177 0.696919 -1.89064 0
M  V30 4421 O 435.233 1.46539 -2.05627 0
M  V30 4422 C 436.546 -1.74678 -2.44761 0
M  V30 4423 C 438.094 -1.76433 -2.58535 0
M  V30 4424 C 438.569 -2.77481 -3.64374 0
M  V30 4425 N 440.06 -2.76189 -3.71852 0
M  V30 4426 C 440.795 -3.51035 -4.53389 0
M  V30 4427 N 440.291 -4.35541 -5.38773 0
M  V30 4428 N 442.084 -3.39655 -4.47873 0
M  V30 4429 H 434.235 -1.92979 -0.887282 0
M  V30 4430 H 436.498 -0.833327 -0.451962 0
M  V30 4431 H 436.204 -2.76551 -2.17285 0
M  V30 4432 H 436.078 -1.55472 -3.43669 0
M  V30 4433 H 438.465 -0.75248 -2.85345 0
M  V30 4434 H 438.546 -1.99712 -1.5984 0
M  V30 4435 H 438.19 -3.78827 -3.38308 0
M  V30 4436 H 438.12 -2.51466 -4.6268 0
M  V30 4437 H 440.611 -2.14885 -3.10858 0
M  V30 4438 H 440.924 -4.89432 -5.98061 0
M  V30 4439 H 439.269 -4.39621 -5.38292 0
M  V30 4440 H 442.46 -2.73063 -3.80203 0
M  V30 4441 H 442.633 -3.9824 -5.11184 0
M  V30 4442 N 436.039 1.36541 -0.78704 0
M  V30 4443 C 437.285 2.00044 -0.367938 0
M  V30 4444 C 437.64 1.61345 1.04812 0
M  V30 4445 O 436.933 0.856936 1.71368 0
M  V30 4446 C 437.127 3.54343 -0.466485 0
M  V30 4447 C 436.956 4.08029 -1.89058 0
M  V30 4448 C 435.726 4.38284 -2.51466 0
M  V30 4449 C 437.924 4.27954 -2.85236 0
M  V30 4450 N 435.906 4.77778 -3.85488 0
M  V30 4451 C 437.277 4.70227 -4.04088 0
M  V30 4452 C 439.332 4.10119 -2.82324 0
M  V30 4453 C 438.035 4.96532 -5.20432 0
M  V30 4454 C 440.061 4.37569 -3.97854 0
M  V30 4455 C 439.423 4.80095 -5.15449 0
M  V30 4456 H 435.522 0.760525 -0.182004 0
M  V30 4457 H 438.106 1.65589 -1.02413 0
M  V30 4458 H 436.277 3.88072 0.159606 0
M  V30 4459 H 438.009 4.04693 -0.0238577 0
M  V30 4460 H 434.764 4.27905 -2.02965 0
M  V30 4461 H 435.188 5.01813 -4.54437 0
M  V30 4462 H 439.83 3.76399 -1.92571 0
M  V30 4463 H 437.548 5.29134 -6.10773 0
M  V30 4464 H 441.134 4.25341 -3.96958 0
M  V30 4465 H 440.014 5.00925 -6.0336 0
M  V30 4466 N 437.518 0.538854 1.48102 0
M  V30 4467 C 438.764 0.00801365 2.02798 0
M  V30 4468 C 439.097 -1.3309 1.41424 0
M  V30 4469 O 438.372 -1.86169 0.563158 0
M  V30 4470 C 438.655 -0.104589 3.59948 0
M  V30 4471 C 438.508 1.26012 4.31788 0
M  V30 4472 C 439.827 -0.827055 4.32259 0
M  V30 4473 H 436.946 0.00438624 0.736987 0
M  V30 4474 H 439.588 0.6976 1.7673 0
M  V30 4475 H 437.738 -0.691893 3.82289 0
M  V30 4476 H 439.41 1.88922 4.2084 0
M  V30 4477 H 437.653 1.83968 3.92859 0
M  V30 4478 H 438.324 1.13424 5.40221 0
M  V30 4479 H 440.8 -0.328578 4.14801 0
M  V30 4480 H 439.676 -0.87476 5.41885 0
M  V30 4481 H 439.937 -1.87927 4.0017 0
M  V30 4482 N 438.996 -1.55193 0.274407 0
M  V30 4483 C 440.412 -1.59401 -0.0797543 0
M  V30 4484 C 440.612 -1.29162 -1.54659 0
M  V30 4485 O 439.668 -1.05215 -2.29534 0
M  V30 4486 C 440.981 -2.99257 0.294238 0
M  V30 4487 C 442.529 -3.12072 0.240796 0
M  V30 4488 C 443.004 -4.54194 0.589218 0
M  V30 4489 N 444.495 -4.60033 0.540744 0
M  V30 4490 C 445.23 -5.68027 0.783147 0
M  V30 4491 N 444.726 -6.8417 1.09013 0
M  V30 4492 N 446.519 -5.57572 0.711993 0
M  V30 4493 H 438.67 -1.73113 1.23067 0
M  V30 4494 H 440.933 -0.807197 0.497129 0
M  V30 4495 H 440.639 -3.26217 1.31435 0
M  V30 4496 H 440.513 -3.75427 -0.365281 0
M  V30 4497 H 442.9 -2.84877 -0.770024 0
M  V30 4498 H 442.981 -2.38117 0.934563 0
M  V30 4499 H 442.625 -4.82115 1.59772 0
M  V30 4500 H 442.555 -5.26448 -0.126331 0
M  V30 4501 H 445.046 -3.76599 0.313327 0
M  V30 4502 H 445.359 -7.6243 1.26178 0
M  V30 4503 H 443.704 -6.85787 1.12789 0
M  V30 4504 H 446.895 -4.65714 0.472014 0
M  V30 4505 H 447.068 -6.41659 0.90429 0
M  V30 4506 N 440.474 -0.00167713 -1.576 0
M  V30 4507 C 441.723 0.682021 -1.89819 0
M  V30 4508 C 442.036 1.74844 -0.876871 0
M  V30 4509 O 443.242 2.48688 -1.08934 0
M  V30 4510 C 441.698 1.26425 -3.36964 0
M  V30 4511 C 441.306 0.232568 -4.47396 0
M  V30 4512 C 443.05 1.92604 -3.78291 0
M  V30 4513 C 440.957 0.824882 -5.85619 0
M  V30 4514 H 439.887 0.258499 -0.708304 0
M  V30 4515 H 442.538 -0.0624957 -1.83394 0
M  V30 4516 H 440.92 2.05949 -3.38232 0
M  V30 4517 H 442.094 -0.5382 -4.57646 0
M  V30 4518 H 440.409 -0.32888 -4.15099 0
M  V30 4519 H 443.006 2.37827 -4.78897 0
M  V30 4520 H 443.349 2.75732 -3.11894 0
M  V30 4521 H 443.882 1.19812 -3.79328 0
M  V30 4522 H 440.621 0.0323542 -6.55492 0
M  V30 4523 H 440.141 1.56477 -5.79029 0
M  V30 4524 H 441.82 1.32301 -6.33329 0
M  V30 4525 N 441.952 1.55251 0.271103 0
M  V30 4526 C 442.862 1.9136 1.35714 0
M  V30 4527 C 443.878 0.811075 1.5394 0
M  V30 4528 O 445.054 1.11031 1.6803 0
M  V30 4529 C 442.119 2.1798 2.69603 0
M  V30 4530 C 441.18 3.4153 2.60107 0
M  V30 4531 C 440.413 3.66871 3.8761 0
M  V30 4532 O 440.636 2.94689 4.8838 0
M  V30 4533 O 439.57 4.60405 3.87699 0
M  V30 4534 H 443.396 2.83815 1.08088 0
M  V30 4535 H 440.981 1.41821 0.469792 0
M  V30 4536 H 442.863 2.36518 3.48765 0
M  V30 4537 H 441.538 1.28708 2.97012 0
M  V30 4538 H 440.445 3.28325 1.79314 0
M  V30 4539 H 441.778 4.31027 2.37647 0
M  V30 4540 N 443.43 -0.535701 1.48216 0
M  V30 4541 C 444.655 -1.32149 1.59848 0
M  V30 4542 C 445.08 -1.86338 0.256842 0
M  V30 4543 O 444.438 -1.64107 -0.770632 0
M  V30 4544 C 444.486 -2.45224 2.64381 0
M  V30 4545 O 443.59 -3.48093 2.21144 0
M  V30 4546 H 442.931 -0.391634 0.536208 0
M  V30 4547 H 445.461 -0.645202 1.94161 0
M  V30 4548 H 445.471 -2.91491 2.85476 0
M  V30 4549 H 444.146 -2.05143 3.61786 0
M  V30 4550 H 442.723 -3.07984 2.10239 0
M  V30 4551 N 444.908 -1.36708 -0.784132 0
M  V30 4552 C 446.154 -1.31426 -1.54451 0
M  V30 4553 C 446.487 0.10476 -1.93917 0
M  V30 4554 O 445.762 1.05934 -1.6312 0
M  V30 4555 C 446.045 -2.24189 -2.818 0
M  V30 4556 C 445.898 -3.74813 -2.48667 0
M  V30 4557 C 447.217 -2.15626 -3.83658 0
M  V30 4558 H 444.336 -0.478739 -0.560337 0
M  V30 4559 H 446.978 -1.67305 -0.900498 0
M  V30 4560 H 445.128 -1.93722 -3.36755 0
M  V30 4561 H 446.8 -4.15823 -1.99722 0
M  V30 4562 H 445.043 -3.93989 -1.81535 0
M  V30 4563 H 445.714 -4.35138 -3.39646 0
M  V30 4564 H 448.19 -2.42456 -3.38163 0
M  V30 4565 H 447.066 -2.82694 -4.70506 0
M  V30 4566 H 447.327 -1.14522 -4.27009 0
M  V30 4567 N 446.386 1.0089 -1.21074 0
M  V30 4568 C 447.797 1.56056 -1.02486 0
M  V30 4569 C 448.148 1.91728 0.416506 0
M  V30 4570 O 447.273 1.73066 1.29912 0
M  V30 4571 C 447.868 2.83563 -1.85411 0
M  V30 4572 C 446.427 3.3523 -1.71166 0
M  V30 4573 C 445.574 2.0846 -1.82865 0
M  V30 4574 H 448.525 0.831818 -1.35154 0
M  V30 4575 H 448.546 3.55286 -1.36205 0
M  V30 4576 H 448.058 2.57569 -2.9031 0
M  V30 4577 H 446.159 3.66167 -0.689361 0
M  V30 4578 H 446.272 4.06913 -2.52901 0
M  V30 4579 H 444.636 2.21275 -1.26132 0
M  V30 4580 H 445.419 1.84883 -2.89263 0
M  V30 4581 N 447.864 1.01787 1.20321 0
M  V30 4582 C 448.812 0.58254 2.25187 0
M  V30 4583 C 449.806 -0.379359 1.65098 0
M  V30 4584 O 451.012 -0.249142 1.78267 0
M  V30 4585 H 447.387 0.170078 0.732514 0
M  V30 4586 H 449.358 1.47788 2.59232 0
M  V30 4587 C 448.107 -0.0620885 3.47645 0
M  V30 4588 H 447.43 0.669069 3.94162 0
M  V30 4589 H 448.87 -0.329784 4.22716 0
M  V30 4590 C 447.329 -1.3053 3.10586 0
M  V30 4591 O 447.859 -2.39848 3.22236 0
M  V30 4592 N 446.065 -1.18988 2.65123 0
M  V30 4593 H 445.612 -0.300341 2.55843 0
M  V30 4594 H 445.57 -2.02267 2.40698 0
M  V30 4595 N 449.342 -1.36122 0.79427 0
M  V30 4596 C 450.305 -2.28309 0.201889 0
M  V30 4597 C 451.305 -1.49041 -0.603603 0
M  V30 4598 O 452.495 -1.68964 -0.423888 0
M  V30 4599 C 449.627 -3.3321 -0.719978 0
M  V30 4600 H 450.82 -2.82208 1.01481 0
M  V30 4601 H 448.373 -1.45768 0.564037 0
M  V30 4602 H 449.108 -2.84475 -1.55706 0
M  V30 4603 H 448.893 -3.91835 -0.144266 0
M  V30 4604 H 450.383 -4.02044 -1.12916 0
M  V30 4605 N 450.82 -0.546701 -1.47814 0
M  V30 4606 C 451.75 0.195317 -2.32682 0
M  V30 4607 C 452.731 0.918981 -1.43139 0
M  V30 4608 O 453.916 0.901501 -1.72008 0
M  V30 4609 C 451.046 1.23237 -3.247 0
M  V30 4610 C 450 0.625818 -4.234 0
M  V30 4611 C 449.326 1.76674 -5.04669 0
M  V30 4612 C 450.626 -0.413515 -5.2066 0
M  V30 4613 H 452.32 -0.513184 -2.94969 0
M  V30 4614 H 449.866 -0.248241 -1.41844 0
M  V30 4615 H 451.819 1.75955 -3.82907 0
M  V30 4616 H 450.543 1.97067 -2.60446 0
M  V30 4617 H 449.202 0.120023 -3.66403 0
M  V30 4618 H 448.85 2.49383 -4.36826 0
M  V30 4619 H 448.55 1.36673 -5.71484 0
M  V30 4620 H 450.074 2.29738 -5.65732 0
M  V30 4621 H 451.488 0.0272042 -5.73294 0
M  V30 4622 H 449.885 -0.731825 -5.95621 0
M  V30 4623 H 450.955 -1.31325 -4.66778 0
M  V30 4624 N 452.299 1.55045 -0.282633 0
M  V30 4625 C 453.209 2.26491 0.61147 0
M  V30 4626 C 454.225 1.29348 1.16384 0
M  V30 4627 O 455.401 1.62298 1.19253 0
M  V30 4628 C 452.466 2.97779 1.77563 0
M  V30 4629 C 451.527 4.10418 1.25919 0
M  V30 4630 C 450.76 4.78297 2.36786 0
M  V30 4631 O 450.983 4.45426 3.56303 0
M  V30 4632 O 449.917 5.66089 2.04517 0
M  V30 4633 H 453.743 3.03683 0.0324615 0
M  V30 4634 H 451.328 1.49317 -0.0497576 0
M  V30 4635 H 453.21 3.42554 2.45427 0
M  V30 4636 H 451.885 2.23498 2.34159 0
M  V30 4637 H 450.792 3.70082 0.546797 0
M  V30 4638 H 452.125 4.86622 0.738887 0
M  V30 4639 N 453.777 0.010035 1.57597 0
M  V30 4640 C 454.709 -1.00649 2.05918 0
M  V30 4641 C 455.722 -1.30077 0.978964 0
M  V30 4642 O 456.911 -1.26878 1.25556 0
M  V30 4643 C 454.011 -2.33876 2.45265 0
M  V30 4644 C 453.184 -2.23242 3.7614 0
M  V30 4645 C 452.243 -3.39242 4.02245 0
M  V30 4646 O 451.269 -3.1698 4.72771 0
M  V30 4647 N 452.471 -4.6242 3.50924 0
M  V30 4648 H 455.236 -0.594333 2.93748 0
M  V30 4649 H 452.797 -0.17714 1.60928 0
M  V30 4650 H 454.789 -3.1027 2.59836 0
M  V30 4651 H 453.359 -2.66799 1.62902 0
M  V30 4652 H 452.579 -1.31696 3.71551 0
M  V30 4653 H 453.867 -2.13321 4.61922 0
M  V30 4654 H 453.265 -4.83404 2.93832 0
M  V30 4655 H 451.822 -5.36046 3.70807 0
M  V30 4656 N 455.255 -1.55392 -0.262866 0
M  V30 4657 C 456.218 -1.88181 -1.30846 0
M  V30 4658 C 457.218 -0.757079 -1.41862 0
M  V30 4659 O 458.408 -1.02519 -1.40838 0
M  V30 4660 C 455.54 -2.09609 -2.68844 0
M  V30 4661 H 456.733 -2.81659 -1.02997 0
M  V30 4662 H 454.286 -1.48039 -0.501414 0
M  V30 4663 H 455.021 -1.18547 -3.01856 0
M  V30 4664 H 454.806 -2.91508 -2.62231 0
M  V30 4665 H 456.296 -2.36215 -3.44372 0
M  V30 4666 N 456.733 0.527833 -1.48498 0
M  V30 4667 C 458.149 0.856571 -1.34666 0
M  V30 4668 C 458.349 1.98271 -0.35931 0
M  V30 4669 O 457.405 2.51551 0.218703 0
M  V30 4670 C 458.718 1.22207 -2.74747 0
M  V30 4671 C 460.266 1.33183 -2.83251 0
M  V30 4672 C 460.741 1.73075 -4.24039 0
M  V30 4673 N 462.232 1.80174 -4.26722 0
M  V30 4674 C 462.967 2.1243 -5.32598 0
M  V30 4675 N 462.463 2.43096 -6.4875 0
M  V30 4676 N 464.256 2.13454 -5.19994 0
M  V30 4677 H 456.407 -0.215174 -2.11307 0
M  V30 4678 H 458.67 -0.0336281 -0.947403 0
M  V30 4679 H 458.376 0.468195 -3.4857 0
M  V30 4680 H 458.25 2.17173 -3.08409 0
M  V30 4681 H 460.637 2.07647 -2.09683 0
M  V30 4682 H 460.718 0.363333 -2.53206 0
M  V30 4683 H 460.362 0.991712 -4.98124 0
M  V30 4684 H 460.292 2.70979 -4.51529 0
M  V30 4685 H 462.783 1.58744 -3.42942 0
M  V30 4686 H 463.096 2.6682 -7.25277 0
M  V30 4687 H 461.441 2.40611 -6.52021 0
M  V30 4688 H 464.632 1.88956 -4.28268 0
M  V30 4689 H 464.805 2.38261 -6.02608 0
M  V30 4690 N 458.211 1.37122 0.776871 0
M  V30 4691 C 459.158 1.3247 1.88998 0
M  V30 4692 C 460.128 0.191143 1.64997 0
M  V30 4693 O 461.313 0.379683 1.86984 0
M  V30 4694 C 458.453 1.13241 3.25992 0
M  V30 4695 C 457.566 2.35782 3.61982 0
M  V30 4696 C 456.701 2.09465 4.88158 0
M  V30 4697 C 455.74 3.279 5.16864 0
M  V30 4698 N 454.877 3.01167 6.34226 0
M  V30 4699 H 459.717 2.27642 1.9231 0
M  V30 4700 H 457.254 1.13125 0.94027 0
M  V30 4701 H 459.212 1.00115 4.0501 0
M  V30 4702 H 457.842 0.217186 3.22069 0
M  V30 4703 H 456.894 2.59666 2.77989 0
M  V30 4704 H 458.206 3.24125 3.79137 0
M  V30 4705 H 457.36 1.93341 5.75069 0
M  V30 4706 H 456.099 1.18452 4.73097 0
M  V30 4707 H 455.104 3.44569 4.2843 0
M  V30 4708 H 456.329 4.19757 5.33836 0
M  V30 4709 H 454.275 2.12779 6.20533 0
M  V30 4710 H 454.192 3.83052 6.51772 0
M  V30 4711 H 455.46 2.88649 7.24087 0
M  V30 4712 N 459.689 -1.00246 1.21608 0
M  V30 4713 C 460.938 -1.73476 1.02902 0
M  V30 4714 C 461.251 -1.90643 -0.437561 0
M  V30 4715 O 462.457 -2.61105 -0.74407 0
M  V30 4716 C 460.913 -3.12079 1.79261 0
M  V30 4717 C 460.521 -3.02877 3.30106 0
M  V30 4718 C 462.265 -3.89421 1.68972 0
M  V30 4719 C 460.172 -4.36575 3.98944 0
M  V30 4720 H 459.102 -0.650408 0.381425 0
M  V30 4721 H 461.753 -1.11985 1.45367 0
M  V30 4722 H 460.135 -3.74196 1.2959 0
M  V30 4723 H 461.309 -2.49983 3.87098 0
M  V30 4724 H 459.624 -2.39022 3.40965 0
M  V30 4725 H 462.221 -4.88362 2.17731 0
M  V30 4726 H 462.564 -4.1122 0.648397 0
M  V30 4727 H 463.097 -3.33963 2.16133 0
M  V30 4728 H 459.836 -4.19978 5.03288 0
M  V30 4729 H 459.356 -4.8942 3.4674 0
M  V30 4730 H 461.035 -5.05364 4.04 0
M  V30 4731 N 461.167 -1.02423 -1.1978 0
M  V30 4732 C 462.13 -0.605703 -2.21052 0
M  V30 4733 C 463.13 0.328209 -1.57415 0
M  V30 4734 O 464.32 0.115853 -1.73814 0
M  V30 4735 C 461.452 0.114366 -3.40708 0
M  V30 4736 H 462.645 -1.5017 -2.59594 0
M  V30 4737 H 460.198 -0.814888 -1.33376 0
M  V30 4738 H 460.933 1.02492 -3.07678 0
M  V30 4739 H 460.718 -0.556641 -3.88129 0
M  V30 4740 H 462.208 0.394272 -4.15735 0
M  V30 4741 N 462.645 1.35699 -0.801477 0
M  V30 4742 C 463.608 2.28199 -0.213994 0
M  V30 4743 C 464.608 1.49359 0.595691 0
M  V30 4744 O 465.798 1.69186 0.414921 0
M  V30 4745 C 462.93 3.33587 0.702297 0
M  V30 4746 H 464.123 2.81666 -1.02976 0
M  V30 4747 H 461.676 1.45467 -0.571759 0
M  V30 4748 H 462.411 2.85297 1.54195 0
M  V30 4749 H 462.196 3.91906 0.123484 0
M  V30 4750 H 463.686 4.02638 1.10783 0
M  V30 4751 N 464.123 0.554532 1.47522 0
M  V30 4752 C 465.372 0.0273458 2.01681 0
M  V30 4753 C 465.685 -1.32962 1.43459 0
M  V30 4754 O 466.891 -1.94657 1.89265 0
M  V30 4755 C 465.347 -0.00159057 3.599 0
M  V30 4756 C 464.955 1.35197 4.27113 0
M  V30 4757 C 466.699 -0.476311 4.21819 0
M  V30 4758 C 464.606 1.28229 5.77331 0
M  V30 4759 H 463.536 0.00645269 0.753972 0
M  V30 4760 H 466.187 0.701985 1.69542 0
M  V30 4761 H 464.569 -0.741821 3.8899 0
M  V30 4762 H 465.743 2.1097 4.09668 0
M  V30 4763 H 464.058 1.76441 3.77171 0
M  V30 4764 H 466.655 -0.5468 5.31897 0
M  V30 4765 H 466.998 -1.4877 3.8881 0
M  V30 4766 H 467.531 0.20898 3.97251 0
M  V30 4767 H 464.27 2.26959 6.14955 0
M  V30 4768 H 463.79 0.566314 5.97121 0
M  V30 4769 H 465.469 0.983226 6.39485 0
M  V30 4770 N 465.601 -1.54893 0.290851 0
M  V30 4771 C 466.531 -2.26103 -0.583084 0
M  V30 4772 C 467.512 -1.25684 -1.14619 0
M  V30 4773 O 468.697 -1.54436 -1.17741 0
M  V30 4774 C 465.827 -2.99409 -1.75987 0
M  V30 4775 C 464.781 -4.0689 -1.32758 0
M  V30 4776 C 464.107 -4.67856 -2.58872 0
M  V30 4777 C 465.407 -5.20215 -0.46624 0
M  V30 4778 H 467.101 -2.99398 0.0108214 0
M  V30 4779 H 464.647 -1.43998 0.00664468 0
M  V30 4780 H 466.6 -3.47943 -2.37727 0
M  V30 4781 H 465.324 -2.23675 -2.37985 0
M  V30 4782 H 463.983 -3.59191 -0.733299 0
M  V30 4783 H 463.631 -3.88772 -3.19163 0
M  V30 4784 H 463.331 -5.40438 -2.30653 0
M  V30 4785 H 464.855 -5.19147 -3.21433 0
M  V30 4786 H 466.269 -5.64704 -0.989047 0
M  V30 4787 H 464.666 -5.99455 -0.27826 0
M  V30 4788 H 465.736 -4.82198 0.511173 0
M  V30 4789 N 467.08 -0.0183926 -1.57589 0
M  V30 4790 C 468.32 0.666846 -1.93216 0
M  V30 4791 C 468.684 1.69905 -0.894215 0
M  V30 4792 O 469.885 2.436 -1.13633 0
M  V30 4793 C 468.156 1.27684 -3.33814 0
M  V30 4794 S 469.715 1.98464 -3.91353 0
M  V30 4795 H 466.533 0.219826 -0.676164 0
M  V30 4796 H 469.135 -0.0794893 -1.95338 0
M  V30 4797 H 467.839 0.513006 -4.07181 0
M  V30 4798 H 467.37 2.06071 -3.3511 0
M  V30 4799 H 469.385 3.26189 -3.73918 0
M  V30 4800 N 468.558 1.5553 0.254621 0
M  V30 4801 C 469.806 1.7665 0.981793 0
M  V30 4802 C 470.127 0.580963 1.86145 0
M  V30 4803 O 469.397 -0.403537 1.91699 0
M  V30 4804 H 467.977 0.651475 0.365498 0
M  V30 4805 H 470.639 1.92958 0.274426 0
M  V30 4806 H 469.735 2.67486 1.60802 0
M  V30 4807 N 470.036 -0.519951 1.48776 0
M  V30 4808 C 470.983 -1.62352 1.64044 0
M  V30 4809 C 471.953 -1.58945 0.482251 0
M  V30 4810 O 473.138 -1.77219 0.706971 0
M  V30 4811 C 470.278 -3.00579 1.69547 0
M  V30 4812 C 469.391 -3.14145 2.96541 0
M  V30 4813 C 468.526 -4.42991 2.93142 0
M  V30 4814 C 467.565 -4.50122 4.14797 0
M  V30 4815 N 466.702 -5.7037 4.09418 0
M  V30 4816 H 471.542 -1.48643 2.58281 0
M  V30 4817 H 469.079 -0.723516 1.28077 0
M  V30 4818 H 471.037 -3.80671 1.70719 0
M  V30 4819 H 469.667 -3.13036 0.787918 0
M  V30 4820 H 468.719 -2.27239 3.05068 0
M  V30 4821 H 470.031 -3.15275 3.86527 0
M  V30 4822 H 469.185 -5.31385 2.92772 0
M  V30 4823 H 467.924 -4.44398 2.00902 0
M  V30 4824 H 466.929 -3.60133 4.15433 0
M  V30 4825 H 468.154 -4.50445 5.08208 0
M  V30 4826 H 466.1 -5.72655 3.20004 0
M  V30 4827 H 466.017 -5.73036 4.93119 0
M  V30 4828 H 467.285 -6.61023 4.13121 0
M  V30 4829 N 471.514 -1.37532 -0.769588 0
M  V30 4830 C 472.76 -1.33057 -1.53048 0
M  V30 4831 C 473.093 0.0841865 -1.94017 0
M  V30 4832 O 472.368 1.04198 -1.64235 0
M  V30 4833 C 472.651 -2.27166 -2.79406 0
M  V30 4834 C 472.504 -3.77429 -2.44677 0
M  V30 4835 C 473.823 -2.19683 -3.81349 0
M  V30 4836 H 470.942 -0.484655 -0.555228 0
M  V30 4837 H 473.584 -1.68251 -0.882702 0
M  V30 4838 H 471.734 -1.97283 -3.34682 0
M  V30 4839 H 473.406 -4.17918 -1.953 0
M  V30 4840 H 471.649 -3.95892 -1.77346 0
M  V30 4841 H 472.32 -4.38716 -3.35011 0
M  V30 4842 H 474.796 -2.46029 -3.35573 0
M  V30 4843 H 473.672 -2.87668 -4.67481 0
M  V30 4844 H 473.933 -1.19045 -4.25771 0
M  V30 4845 N 472.992 0.995999 -1.22138 0
M  V30 4846 C 474.403 1.54961 -1.04135 0
M  V30 4847 C 474.754 1.92159 0.396147 0
M  V30 4848 O 473.879 1.74435 1.28069 0
M  V30 4849 C 474.474 2.81581 -1.88408 0
M  V30 4850 C 473.033 3.33396 -1.74712 0
M  V30 4851 C 472.18 2.06509 -1.85066 0
M  V30 4852 H 475.131 0.817436 -1.36028 0
M  V30 4853 H 475.152 3.53822 -1.39966 0
M  V30 4854 H 474.664 2.54476 -2.93025 0
M  V30 4855 H 472.765 3.65416 -0.728159 0
M  V30 4856 H 472.878 4.04208 -2.57202 0
M  V30 4857 H 471.242 2.19925 -1.28472 0
M  V30 4858 H 472.025 1.81804 -2.91208 0
M  V30 4859 N 474.47 1.03057 1.19235 0
M  V30 4860 C 475.886 0.747947 1.40989 0
M  V30 4861 C 476.086 -0.666752 1.90149 0
M  V30 4862 O 475.142 -1.43249 2.07933 0
M  V30 4863 C 476.455 1.7855 2.41951 0
M  V30 4864 C 478.003 1.80524 2.55695 0
M  V30 4865 C 478.478 2.83243 3.59913 0
M  V30 4866 N 479.969 2.8207 3.67411 0
M  V30 4867 C 480.704 3.58204 4.47747 0
M  V30 4868 N 480.2 4.44057 5.31775 0
M  V30 4869 N 481.993 3.46738 4.42413 0
M  V30 4870 H 474.144 1.94367 0.856468 0
M  V30 4871 H 476.407 0.840412 0.438647 0
M  V30 4872 H 476.113 2.79973 2.12857 0
M  V30 4873 H 475.987 1.6092 3.41152 0
M  V30 4874 H 478.374 0.79778 2.84112 0
M  V30 4875 H 478.455 2.02229 1.56643 0
M  V30 4876 H 478.099 3.84161 3.32239 0
M  V30 4877 H 478.029 2.58795 4.5862 0
M  V30 4878 H 480.52 2.19803 3.074 0
M  V30 4879 H 480.833 4.98884 5.90199 0
M  V30 4880 H 479.178 4.48129 5.3123 0
M  V30 4881 H 482.369 2.79077 3.75811 0
M  V30 4882 H 482.542 4.06322 5.04783 0
M  V30 4883 N 475.948 -1.35272 0.808662 0
M  V30 4884 C 477.225 -1.93077 0.313181 0
M  V30 4885 C 477.605 -1.73847 -1.19752 0
M  V30 4886 O 476.953 -1.1087 -1.998 0
M  V30 4887 C 477.163 -3.41347 0.726859 0
M  V30 4888 C 478.511 -4.18493 0.717532 0
M  V30 4889 O 479.535 -3.4987 0.668535 0
M  V30 4890 O 478.394 -5.40937 0.777779 0
M  V30 4891 H 475.488 -0.822885 0.0824018 0
M  V30 4892 H 478.034 -1.44335 0.892499 0
M  V30 4893 H 476.806 -3.49082 1.76797 0
M  V30 4894 H 476.429 -3.97411 0.122461 0
M  V30 4895 N 477.426 -0.562348 -1.47226 0
M  V30 4896 C 478.336 0.185466 -2.33866 0
M  V30 4897 C 479.352 0.906713 -1.48508 0
M  V30 4898 O 480.528 0.874458 -1.81425 0
M  V30 4899 C 477.593 1.19904 -3.25306 0
M  V30 4900 C 476.654 0.484669 -4.26555 0
M  V30 4901 C 475.887 1.44996 -5.13626 0
M  V30 4902 O 476.11 2.68515 -5.03245 0
M  V30 4903 O 475.044 0.971642 -5.94006 0
M  V30 4904 H 478.87 -0.525361 -2.99121 0
M  V30 4905 H 476.455 -0.322916 -1.45868 0
M  V30 4906 H 478.337 1.78399 -3.81774 0
M  V30 4907 H 477.012 1.8917 -2.62672 0
M  V30 4908 H 475.919 -0.141605 -3.73832 0
M  V30 4909 H 477.252 -0.166634 -4.91918 0
M  V30 4910 N 478.904 1.54736 -0.299062 0
M  V30 4911 C 479.867 2.22127 0.565012 0
M  V30 4912 C 480.867 1.20669 1.06281 0
M  V30 4913 O 482.057 1.45417 0.959145 0
M  V30 4914 C 479.189 2.90611 1.78208 0
M  V30 4915 H 480.382 2.99891 -0.0237448 0
M  V30 4916 H 477.935 1.5622 -0.0498788 0
M  V30 4917 H 478.67 2.16921 2.41072 0
M  V30 4918 H 478.455 3.64984 1.43281 0
M  V30 4919 H 479.945 3.42026 2.396 0
M  V30 4920 N 480.382 0.0267497 1.57577 0
M  V30 4921 C 481.345 -0.940916 2.08996 0
M  V30 4922 C 482.345 -1.25561 1.00455 0
M  V30 4923 O 483.535 -1.19634 1.26623 0
M  V30 4924 C 480.667 -2.25814 2.55384 0
M  V30 4925 H 481.86 -0.495628 2.95776 0
M  V30 4926 H 479.413 -0.221241 1.54726 0
M  V30 4927 H 480.148 -2.74976 1.71926 0
M  V30 4928 H 479.933 -2.04285 3.34679 0
M  V30 4929 H 481.423 -2.95178 2.95398 0
M  V30 4930 N 481.861 -1.55662 -0.24637 0
M  V30 4931 C 483.272 -1.67953 -0.81539 0
M  V30 4932 C 483.623 -0.624302 -1.86002 0
M  V30 4933 O 482.748 0.229328 -2.15181 0
M  V30 4934 C 483.343 -3.04484 -1.48576 0
M  V30 4935 C 481.902 -3.18713 -2.00248 0
M  V30 4936 C 481.049 -2.6383 -0.853766 0
M  V30 4937 H 484 -1.58685 -0.0221692 0
M  V30 4938 H 484.021 -2.98959 -2.3538 0
M  V30 4939 H 483.533 -3.81264 -0.725222 0
M  V30 4940 H 481.634 -2.46757 -2.79181 0
M  V30 4941 H 481.747 -4.25628 -2.1995 0
M  V30 4942 H 480.111 -2.21667 -1.25442 0
M  V30 4943 H 480.894 -3.43135 -0.106302 0
M  V30 4944 N 483.339 0.512053 -1.4905 0
M  V30 4945 C 484.585 1.26613 -1.59187 0
M  V30 4946 C 484.94 1.90494 -0.270163 0
M  V30 4947 O 484.233 1.77204 0.728648 0
M  V30 4948 C 484.427 2.36446 -2.68008 0
M  V30 4949 C 484.256 1.83334 -4.10632 0
M  V30 4950 C 483.026 1.65131 -4.77556 0
M  V30 4951 C 485.224 1.35153 -4.96224 0
M  V30 4952 N 483.206 1.06833 -6.04533 0
M  V30 4953 C 484.577 0.889186 -6.13591 0
M  V30 4954 C 486.632 1.23623 -4.82309 0
M  V30 4955 C 485.335 0.322953 -7.18575 0
M  V30 4956 C 487.361 0.683978 -5.87431 0
M  V30 4957 C 486.723 0.2318 -7.04018 0
M  V30 4958 H 482.822 0.453678 -0.636946 0
M  V30 4959 H 485.406 0.575217 -1.86009 0
M  V30 4960 H 483.577 3.03012 -2.42978 0
M  V30 4961 H 485.309 3.03485 -2.67729 0
M  V30 4962 H 482.064 1.89178 -4.34176 0
M  V30 4963 H 482.488 0.796425 -6.72299 0
M  V30 4964 H 487.13 1.57184 -3.92496 0
M  V30 4965 H 484.848 -0.024943 -8.08096 0
M  V30 4966 H 488.434 0.597694 -5.78722 0
M  V30 4967 H 487.314 -0.188869 -7.83973 0
M  V30 4968 N 484.817 1.37938 0.762283 0
M  V30 4969 C 486.064 1.33668 1.52115 0
M  V30 4970 C 486.392 -0.0759538 1.94352 0
M  V30 4971 O 485.647 -1.05121 1.6507 0
M  V30 4972 C 485.946 2.23042 2.79261 0
M  V30 4973 C 485.612 3.71159 2.56031 0
M  V30 4974 C 484.274 4.11523 2.49404 0
M  V30 4975 C 486.626 4.64955 2.35513 0
M  V30 4976 C 483.954 5.43784 2.20263 0
M  V30 4977 C 486.306 5.97464 2.07894 0
M  V30 4978 C 484.97 6.36922 1.99718 0
M  V30 4979 H 484.24 0.489127 0.556629 0
M  V30 4980 H 486.887 1.70224 0.877262 0
M  V30 4981 H 485.192 1.79512 3.48256 0
M  V30 4982 H 486.889 2.17047 3.37182 0
M  V30 4983 H 483.479 3.39153 2.62056 0
M  V30 4984 H 487.663 4.34623 2.39617 0
M  V30 4985 H 482.919 5.73307 2.12435 0
M  V30 4986 H 487.093 6.6969 1.91019 0
M  V30 4987 H 484.72 7.39331 1.76902 0
M  V30 4988 N 486.295 -0.989507 1.22664 0
M  V30 4989 C 487.541 -1.73298 1.06487 0
M  V30 4990 C 487.896 -1.88292 -0.395438 0
M  V30 4991 O 487.189 -1.41748 -1.28911 0
M  V30 4992 C 487.383 -3.13649 1.71345 0
M  V30 4993 C 487.212 -3.12341 3.23532 0
M  V30 4994 C 485.982 -3.18044 3.92653 0
M  V30 4995 C 488.18 -2.96226 4.20422 0
M  V30 4996 N 486.162 -3.06526 5.31898 0
M  V30 4997 C 487.533 -2.92773 5.4652 0
M  V30 4998 C 489.588 -2.80642 4.11271 0
M  V30 4999 C 488.291 -2.75332 6.64519 0
M  V30 5000 C 490.317 -2.64563 5.28924 0
M  V30 5001 C 489.679 -2.618 6.53942 0
M  V30 5002 H 485.778 -0.643643 0.444126 0
M  V30 5003 H 488.362 -1.17489 1.55256 0
M  V30 5004 H 486.533 -3.67694 1.25122 0
M  V30 5005 H 488.265 -3.76577 1.48229 0
M  V30 5006 H 485.02 -3.25861 3.43673 0
M  V30 5007 H 485.444 -3.04067 6.04874 0
M  V30 5008 H 490.086 -2.81574 3.15398 0
M  V30 5009 H 487.804 -2.73145 7.60538 0
M  V30 5010 H 491.39 -2.53482 5.23677 0
M  V30 5011 H 490.27 -2.49511 7.43447 0
M  V30 5012 N 487.773 -1.03688 -1.18687 0
M  V30 5013 C 488.998 -0.757819 -1.93059 0
M  V30 5014 C 489.423 0.678353 -1.75442 0
M  V30 5015 O 488.781 1.46938 -1.06203 0
M  V30 5016 C 488.829 -1.12423 -3.42627 0
M  V30 5017 O 487.933 -0.247505 -4.11657 0
M  V30 5018 H 487.274 -0.279245 -0.602427 0
M  V30 5019 H 489.804 -1.3857 -1.5053 0
M  V30 5020 H 489.814 -1.08454 -3.93322 0
M  V30 5021 H 488.489 -2.17049 -3.54771 0
M  V30 5022 H 487.066 -0.34649 -3.71287 0
M  V30 5023 N 489.251 1.34841 -0.815825 0
M  V30 5024 C 490.528 1.92908 -0.323416 0
M  V30 5025 C 490.908 1.74479 1.18828 0
M  V30 5026 O 490.256 1.11928 1.99209 0
M  V30 5027 C 490.466 3.40957 -0.744952 0
M  V30 5028 C 491.814 4.18107 -0.739716 0
M  V30 5029 O 492.838 3.49511 -0.68708 0
M  V30 5030 O 491.697 5.40517 -0.806456 0
M  V30 5031 H 488.791 0.822436 -0.0867646 0
M  V30 5032 H 491.337 1.4386 -0.90014 0
M  V30 5033 H 490.109 3.4814 -1.78646 0
M  V30 5034 H 489.732 3.97341 -0.143535 0
M  V30 5035 N 490.729 0.570148 1.46925 0
M  V30 5036 C 491.661 -0.207909 2.28255 0
M  V30 5037 C 492.674 -0.867301 1.37774 0
M  V30 5038 O 493.863 -0.738976 1.62485 0
M  V30 5039 C 490.963 -1.31298 3.12433 0
M  V30 5040 C 490.136 -0.747915 4.30958 0
M  V30 5041 C 489.195 -1.7391 4.9663 0
M  V30 5042 O 488.221 -1.2801 5.54619 0
M  V30 5043 N 489.423 -3.07288 4.92498 0
M  V30 5044 H 492.188 0.489794 2.95671 0
M  V30 5045 H 489.749 0.407076 1.56699 0
M  V30 5046 H 491.741 -1.97507 3.53232 0
M  V30 5047 H 490.311 -1.91373 2.47175 0
M  V30 5048 H 489.531 0.0913066 3.94094 0
M  V30 5049 H 490.819 -0.349958 5.07595 0
M  V30 5050 H 490.217 -3.47213 4.46609 0
M  V30 5051 H 488.774 -3.69021 5.37277 0
M  V30 5052 N 492.207 -1.54576 0.307264 0
M  V30 5053 C 493.437 -2.04378 -0.302158 0
M  V30 5054 C 493.845 -1.18381 -1.47589 0
M  V30 5055 O 493.188 -0.20352 -1.82569 0
M  V30 5056 C 493.25 -3.50133 -0.815305 0
M  V30 5057 C 492.914 -4.56401 0.233977 0
M  V30 5058 C 493.911 -5.08884 1.06456 0
M  V30 5059 C 491.596 -5.0088 0.377478 0
M  V30 5060 C 493.59 -6.04394 2.02452 0
M  V30 5061 C 491.277 -5.96208 1.34088 0
M  V30 5062 C 492.275 -6.47849 2.16288 0
M  V30 5063 O 491.963 -7.41308 3.10994 0
M  V30 5064 H 491.695 -0.672502 -0.0686839 0
M  V30 5065 H 494.249 -2.00484 0.446682 0
M  V30 5066 H 492.479 -3.51371 -1.61478 0
M  V30 5067 H 494.168 -3.83098 -1.34129 0
M  V30 5068 H 494.934 -4.75311 0.964596 0
M  V30 5069 H 490.813 -4.60309 -0.252405 0
M  V30 5070 H 494.357 -6.44626 2.66652 0
M  V30 5071 H 490.254 -6.29198 1.44154 0
M  V30 5072 H 491.022 -7.5913 3.06045 0
M  V30 5073 N 493.685 -0.035106 -1.57561 0
M  V30 5074 C 494.595 0.960295 -2.14046 0
M  V30 5075 C 495.611 1.3529 -1.0942 0
M  V30 5076 O 496.787 1.43309 -1.41508 0
M  V30 5077 C 493.852 2.22214 -2.66124 0
M  V30 5078 C 492.913 1.8894 -3.85487 0
M  V30 5079 C 492.146 3.09109 -4.35072 0
M  V30 5080 O 492.369 4.21963 -3.83802 0
M  V30 5081 O 491.303 2.91058 -5.26848 0
M  V30 5082 H 495.129 0.509983 -2.99387 0
M  V30 5083 H 492.714 0.185853 -1.48239 0
M  V30 5084 H 494.596 2.96279 -2.99661 0
M  V30 5085 H 493.271 2.66414 -1.83862 0
M  V30 5086 H 492.178 1.12241 -3.56865 0
M  V30 5087 H 493.511 1.49551 -4.6893 0
M  V30 5088 N 495.163 1.55791 0.238111 0
M  V30 5089 C 496.412 1.77234 0.962868 0
M  V30 5090 C 496.725 0.600661 1.86149 0
M  V30 5091 O 497.931 0.698315 2.62366 0
M  V30 5092 C 496.387 3.13808 1.76218 0
M  V30 5093 C 495.995 4.3865 0.910518 0
M  V30 5094 C 497.739 3.44585 2.47914 0
M  V30 5095 C 495.646 5.66252 1.70623 0
M  V30 5096 H 494.576 0.660731 0.36325 0
M  V30 5097 H 497.227 1.8221 0.217242 0
M  V30 5098 H 495.609 3.02963 2.55009 0
M  V30 5099 H 496.783 4.60507 0.164316 0
M  V30 5100 H 495.098 4.15271 0.30647 0
M  V30 5101 H 497.695 4.3714 3.07917 0
M  V30 5102 H 498.038 2.66314 3.19973 0
M  V30 5103 H 498.571 3.56685 1.76127 0
M  V30 5104 H 495.31 6.47369 1.02923 0
M  V30 5105 H 494.83 5.48483 2.42748 0
M  V30 5106 H 496.509 6.05829 2.27114 0
M  V30 5107 N 496.642 -0.504142 1.49319 0
M  V30 5108 C 497.89 -1.25598 1.58334 0
M  V30 5109 C 498.211 -1.93114 0.270538 0
M  V30 5110 O 497.481 -1.82585 -0.709891 0
M  V30 5111 H 496.061 -0.466571 0.58337 0
M  V30 5112 H 498.723 -0.584547 1.85928 0
M  V30 5113 H 497.819 -2.02159 2.37778 0
M  V30 5114 N 498.12 -1.38341 -0.754957 0
M  V30 5115 C 499.05 -1.38176 -1.88227 0
M  V30 5116 C 500.031 -0.247873 -1.68284 0
M  V30 5117 O 501.216 -0.45075 -1.88896 0
M  V30 5118 C 498.346 -1.20471 -3.25736 0
M  V30 5119 C 497.3 -2.3105 -3.60278 0
M  V30 5120 C 496.626 -1.98452 -4.96509 0
M  V30 5121 C 497.926 -3.73305 -3.65295 0
M  V30 5122 H 499.62 -2.32512 -1.88622 0
M  V30 5123 H 497.166 -1.1192 -0.906082 0
M  V30 5124 H 499.119 -1.18982 -4.04254 0
M  V30 5125 H 497.843 -0.225965 -3.25817 0
M  V30 5126 H 496.502 -2.31723 -2.84078 0
M  V30 5127 H 496.15 -0.990641 -4.93148 0
M  V30 5128 H 495.85 -2.7251 -5.20588 0
M  V30 5129 H 497.374 -1.98578 -5.77407 0
M  V30 5130 H 498.788 -3.7467 -4.3393 0
M  V30 5131 H 497.185 -4.46557 -4.00883 0
M  V30 5132 H 498.255 -4.05719 -2.65556 0
M  V30 5133 N 499.598 0.982988 -1.23187 0
M  V30 5134 C 500.545 2.07491 -1.01075 0
M  V30 5135 C 501.515 1.65949 0.070905 0
M  V30 5136 O 502.7 1.90629 -0.0806822 0
M  V30 5137 C 499.84 3.39751 -0.605261 0
M  V30 5138 C 498.953 3.94578 -1.75876 0
M  V30 5139 C 498.088 5.15039 -1.3003 0
M  V30 5140 C 497.127 5.62027 -2.42472 0
M  V30 5141 N 496.264 6.73719 -1.97602 0
M  V30 5142 H 501.104 2.25739 -1.9454 0
M  V30 5143 H 498.641 1.10659 -0.969179 0
M  V30 5144 H 500.599 4.15719 -0.351279 0
M  V30 5145 H 499.229 3.21473 0.292382 0
M  V30 5146 H 498.281 3.1539 -2.12681 0
M  V30 5147 H 499.593 4.25422 -2.60418 0
M  V30 5148 H 498.747 5.9833 -1.00429 0
M  V30 5149 H 497.486 4.85843 -0.425216 0
M  V30 5150 H 496.491 4.77318 -2.7285 0
M  V30 5151 H 497.716 5.93244 -3.30512 0
M  V30 5152 H 495.662 6.46287 -1.1247 0
M  V30 5153 H 495.579 7.03934 -2.75705 0
M  V30 5154 H 496.847 7.6049 -1.71098 0
M  V30 5155 N 501.076 1.04316 1.18135 0
M  V30 5156 C 502.009 0.580823 2.20685 0
M  V30 5157 C 502.987 -0.385943 1.57953 0
M  V30 5158 O 504.171 -0.299654 1.86103 0
M  V30 5159 C 501.298 -0.151162 3.38363 0
M  V30 5160 C 500.344 0.769247 4.19505 0
M  V30 5161 S 501.177 2.25352 4.85774 0
M  V30 5162 C 502.333 1.53246 6.0685 0
M  V30 5163 H 502.566 1.44968 2.5956 0
M  V30 5164 H 500.099 0.85434 1.28609 0
M  V30 5165 H 502.057 -0.567315 4.06561 0
M  V30 5166 H 500.718 -0.995936 2.97892 0
M  V30 5167 H 499.911 0.203335 5.0359 0
M  V30 5168 H 499.513 1.12436 3.56699 0
M  V30 5169 H 501.805 0.82689 6.72435 0
M  V30 5170 H 502.748 2.35044 6.67952 0
M  V30 5171 H 503.156 1.0237 5.5514 0
M  V30 5172 N 502.554 -1.34406 0.822964 0
M  V30 5173 C 503.8 -1.98578 0.411666 0
M  V30 5174 C 504.133 -1.65093 -1.02264 0
M  V30 5175 O 503.408 -0.92258 -1.71227 0
M  V30 5176 C 503.691 -3.54823 0.614235 0
M  V30 5177 C 503.544 -3.9805 2.09466 0
M  V30 5178 C 504.863 -4.40071 0.050221 0
M  V30 5179 H 501.982 -0.721355 0.151047 0
M  V30 5180 H 504.624 -1.59301 1.03554 0
M  V30 5181 H 502.774 -3.88411 0.0831774 0
M  V30 5182 H 504.446 -3.74795 2.68936 0
M  V30 5183 H 502.689 -3.4836 2.5851 0
M  V30 5184 H 503.36 -5.06819 2.18721 0
M  V30 5185 H 505.836 -4.13037 0.503953 0
M  V30 5186 H 504.712 -5.48452 0.221759 0
M  V30 5187 H 504.973 -4.29576 -1.04482 0
M  V30 5188 N 504.032 -0.577932 -1.46621 0
M  V30 5189 C 505.28 -0.061566 -2.02006 0
M  V30 5190 C 505.601 1.30117 -1.4524 0
M  V30 5191 O 504.871 1.85313 -0.63529 0
M  V30 5192 H 503.451 -0.0197692 -0.746738 0
M  V30 5193 H 506.113 -0.752631 -1.79782 0
M  V30 5194 H 505.209 0.0110238 -3.12098 0
M  V30 5195 N 505.51 1.54411 -0.315457 0
M  V30 5196 C 506.44 2.27002 0.547039 0
M  V30 5197 C 507.421 1.27492 1.12605 0
M  V30 5198 O 508.606 1.5629 1.15269 0
M  V30 5199 C 505.736 3.02171 1.71201 0
M  V30 5200 C 504.69 4.0895 1.26268 0
M  V30 5201 C 504.016 4.71915 2.51396 0
M  V30 5202 C 505.316 5.20891 0.383419 0
M  V30 5203 H 507.01 2.99343 -0.0584517 0
M  V30 5204 H 504.556 1.4397 -0.0295527 0
M  V30 5205 H 506.509 3.51681 2.32161 0
M  V30 5206 H 505.233 2.27433 2.34397 0
M  V30 5207 H 503.892 3.60312 0.676062 0
M  V30 5208 H 503.54 3.93801 3.12937 0
M  V30 5209 H 503.24 5.44039 2.22026 0
M  V30 5210 H 504.764 5.24195 3.13133 0
M  V30 5211 H 506.178 5.66206 0.899082 0
M  V30 5212 H 504.575 5.99821 0.182857 0
M  V30 5213 H 505.645 4.81324 -0.587821 0
M  V30 5214 N 506.988 0.0434614 1.5754 0
M  V30 5215 C 508.213 -0.645358 1.97104 0
M  V30 5216 C 508.638 -1.64037 0.920521 0
M  V30 5217 O 507.996 -1.80922 -0.11708 0
M  V30 5218 C 508.044 -1.31547 3.35749 0
M  V30 5219 O 507.148 -2.43103 3.33129 0
M  V30 5220 H 506.489 -0.168403 0.64229 0
M  V30 5221 H 509.019 0.109573 2.04306 0
M  V30 5222 H 509.029 -1.66895 3.72304 0
M  V30 5223 H 507.704 -0.586205 4.11748 0
M  V30 5224 H 506.281 -2.0976 3.0831 0
M  V30 5225 N 508.466 -1.55915 -0.229846 0
M  V30 5226 C 509.376 -1.94891 -1.30593 0
M  V30 5227 C 510.392 -0.851604 -1.51736 0
M  V30 5228 O 511.568 -1.15447 -1.65027 0
M  V30 5229 C 508.633 -2.25052 -2.63728 0
M  V30 5230 C 507.694 -3.48306 -2.5096 0
M  V30 5231 C 506.927 -3.77019 -3.77747 0
M  V30 5232 O 507.15 -3.07534 -4.80395 0
M  V30 5233 O 506.084 -4.70523 -3.75356 0
M  V30 5234 H 509.91 -2.86581 -1.00525 0
M  V30 5235 H 507.495 -1.43017 -0.432025 0
M  V30 5236 H 509.377 -2.45682 -3.42372 0
M  V30 5237 H 508.052 -1.36538 -2.93495 0
M  V30 5238 H 506.959 -3.32964 -1.70546 0
M  V30 5239 H 508.292 -4.37177 -2.26136 0
M  V30 5240 N 509.944 0.496216 -1.49584 0
M  V30 5241 C 511.192 1.24756 -1.58998 0
M  V30 5242 C 511.513 1.92968 -0.280775 0
M  V30 5243 O 510.783 1.82959 0.700198 0
M  V30 5244 H 509.363 0.463471 -0.585836 0
M  V30 5245 H 512.025 0.574678 -1.86235 0
M  V30 5246 H 511.121 2.00895 -2.38847 0
M  V30 5247 N 511.423 1.38739 0.74761 0
M  V30 5248 C 512.653 1.3832 1.53464 0
M  V30 5249 C 513.061 -0.0273464 1.8918 0
M  V30 5250 O 512.404 -1.00588 1.53713 0
M  V30 5251 C 512.466 2.18007 2.85855 0
M  V30 5252 C 512.13 3.66762 2.72644 0
M  V30 5253 C 513.127 4.60124 2.42037 0
M  V30 5254 C 510.812 4.10193 2.89909 0
M  V30 5255 C 512.806 5.94897 2.28859 0
M  V30 5256 C 510.493 5.45045 2.7635 0
M  V30 5257 C 511.491 6.37211 2.45869 0
M  V30 5258 O 511.179 7.69581 2.3238 0
M  V30 5259 H 510.911 0.474718 0.481268 0
M  V30 5260 H 513.465 1.83012 0.932518 0
M  V30 5261 H 511.695 1.68043 3.48279 0
M  V30 5262 H 513.384 2.09921 3.47402 0
M  V30 5263 H 514.15 4.27874 2.28361 0
M  V30 5264 H 510.029 3.38797 3.1263 0
M  V30 5265 H 513.573 6.66802 2.04989 0
M  V30 5266 H 509.47 5.76889 2.89601 0
M  V30 5267 H 510.238 7.80169 2.47546 0
M  V30 5268 N 512.901 -0.976442 1.23707 0
M  V30 5269 C 514.178 -1.69296 0.979699 0
M  V30 5270 C 514.558 -2.0508 -0.500555 0
M  V30 5271 O 513.906 -1.74708 -1.47273 0
M  V30 5272 C 514.116 -2.93143 1.89389 0
M  V30 5273 C 515.464 -3.65572 2.15968 0
M  V30 5274 O 516.488 -3.03184 1.86971 0
M  V30 5275 O 515.347 -4.77859 2.65167 0
M  V30 5276 H 512.441 -0.739708 0.369812 0
M  V30 5277 H 514.987 -1.03131 1.34767 0
M  V30 5278 H 513.759 -2.63327 2.89439 0
M  V30 5279 H 513.382 -3.67044 1.52854 0
M  V30 5280 N 514.379 -1.04941 -1.1758 0
M  V30 5281 C 515.795 -0.770282 -1.39781 0
M  V30 5282 C 515.995 0.636417 -1.91186 0
M  V30 5283 O 515.051 1.39923 -2.10185 0
M  V30 5284 C 516.364 -1.82376 -2.3908 0
M  V30 5285 C 517.912 -1.84569 -2.52791 0
M  V30 5286 C 518.387 -2.88933 -3.55361 0
M  V30 5287 N 519.878 -2.8788 -3.62877 0
M  V30 5288 C 520.613 -3.65282 -4.41992 0
M  V30 5289 N 520.109 -4.52461 -5.24643 0
M  V30 5290 N 521.902 -3.53732 -4.36841 0
M  V30 5291 H 514.053 -1.95705 -0.825438 0
M  V30 5292 H 516.316 -0.847284 -0.425222 0
M  V30 5293 H 516.022 -2.83323 -2.08376 0
M  V30 5294 H 515.896 -1.66327 -3.38549 0
M  V30 5295 H 518.283 -0.842879 -2.82807 0
M  V30 5296 H 518.364 -2.04696 -1.53406 0
M  V30 5297 H 518.008 -3.89398 -3.26085 0
M  V30 5298 H 517.938 -2.66059 -4.54445 0
M  V30 5299 H 520.429 -2.24666 -3.03864 0
M  V30 5300 H 520.742 -5.08211 -5.82187 0
M  V30 5301 H 519.087 -4.56524 -5.24033 0
M  V30 5302 H 522.278 -2.85021 -3.71323 0
M  V30 5303 H 522.451 -4.14302 -4.98255 0
M  V30 5304 N 515.857 1.33968 -0.830081 0
M  V30 5305 C 517.106 1.97323 -0.417928 0
M  V30 5306 C 517.419 1.6652 1.02618 0
M  V30 5307 O 518.625 2.2342 1.54259 0
M  V30 5308 C 517.081 3.53099 -0.696359 0
M  V30 5309 C 516.689 3.92788 -2.15457 0
M  V30 5310 C 518.433 4.23049 -0.350724 0
M  V30 5311 C 516.34 5.41506 -2.37751 0
M  V30 5312 H 515.27 0.738409 -0.152541 0
M  V30 5313 H 517.921 1.52711 -1.01744 0
M  V30 5314 H 516.303 3.95991 -0.0265904 0
M  V30 5315 H 517.477 3.6098 -2.86408 0
M  V30 5316 H 515.792 3.35795 -2.46232 0
M  V30 5317 H 518.389 5.32403 -0.495036 0
M  V30 5318 H 518.732 4.10279 0.705476 0
M  V30 5319 H 519.265 3.85657 -0.975362 0
M  V30 5320 H 516.004 5.5927 -3.41903 0
M  V30 5321 H 515.524 5.74804 -1.7135 0
M  V30 5322 H 517.203 6.0828 -2.20465 0
M  V30 5323 N 517.335 0.585699 1.46312 0
M  V30 5324 C 518.584 0.0701192 2.01578 0
M  V30 5325 C 518.897 -1.29889 1.46247 0
M  V30 5326 O 520.103 -1.90598 1.93351 0
M  V30 5327 C 518.559 0.0747499 3.59822 0
M  V30 5328 C 518.167 1.44226 4.24149 0
M  V30 5329 C 519.911 -0.38673 4.22735 0
M  V30 5330 C 517.818 1.40446 5.74481 0
M  V30 5331 H 516.748 0.0224441 0.753666 0
M  V30 5332 H 519.399 0.737789 1.68015 0
M  V30 5333 H 517.781 -0.659144 3.90476 0
M  V30 5334 H 518.955 2.19612 4.05101 0
M  V30 5335 H 517.27 1.84401 3.73343 0
M  V30 5336 H 519.867 -0.433853 5.32937 0
M  V30 5337 H 520.21 -1.40489 3.91878 0
M  V30 5338 H 520.743 0.293195 3.96718 0
M  V30 5339 H 517.482 2.39952 6.10003 0
M  V30 5340 H 517.002 0.692845 5.95785 0
M  V30 5341 H 518.681 1.11865 6.37256 0
M  V30 5342 N 518.813 -1.54241 0.323641 0
M  V30 5343 C 520.059 -2.00867 -0.279323 0
M  V30 5344 C 520.392 -1.21146 -1.5178 0
M  V30 5345 O 519.667 -0.29378 -1.92269 0
M  V30 5346 C 519.95 -3.54837 -0.613387 0
M  V30 5347 C 519.803 -4.45284 0.635803 0
M  V30 5348 C 521.122 -4.16186 -1.43099 0
M  V30 5349 H 518.241 -0.730177 -0.100049 0
M  V30 5350 H 520.883 -1.84829 0.440235 0
M  V30 5351 H 519.033 -3.68634 -1.22641 0
M  V30 5352 H 520.705 -4.43357 1.27406 0
M  V30 5353 H 518.948 -4.14956 1.26466 0
M  V30 5354 H 519.619 -5.5084 0.357597 0
M  V30 5355 H 522.095 -4.05964 -0.912814 0
M  V30 5356 H 520.971 -5.24031 -1.6335 0
M  V30 5357 H 521.232 -3.69516 -2.42715 0
M  V30 5358 N 520.291 -0.0518155 -1.57515 0
M  V30 5359 C 521.707 0.304735 -1.56664 0
M  V30 5360 C 521.907 1.71395 -1.05953 0
M  V30 5361 O 520.963 2.42123 -0.716414 0
M  V30 5362 C 522.276 0.132614 -3.00407 0
M  V30 5363 C 523.824 0.20367 -3.12337 0
M  V30 5364 C 524.299 0.0600706 -4.57961 0
M  V30 5365 N 525.79 0.116326 -4.63054 0
M  V30 5366 C 526.525 0.0293363 -5.73392 0
M  V30 5367 N 526.021 -0.110038 -6.92713 0
M  V30 5368 N 527.814 0.0849651 -5.62036 0
M  V30 5369 H 519.965 -0.973056 -1.888 0
M  V30 5370 H 522.228 -0.377781 -0.869474 0
M  V30 5371 H 521.934 -0.839019 -3.41546 0
M  V30 5372 H 521.808 0.893376 -3.66468 0
M  V30 5373 H 524.195 1.16578 -2.71097 0
M  V30 5374 H 524.276 -0.587857 -2.48954 0
M  V30 5375 H 523.92 -0.898715 -4.99886 0
M  V30 5376 H 523.85 0.87075 -5.19351 0
M  V30 5377 H 526.341 0.22327 -3.7724 0
M  V30 5378 H 526.654 -0.169104 -7.72615 0
M  V30 5379 H 524.999 -0.145132 -6.94848 0
M  V30 5380 H 528.19 0.192411 -4.67704 0
M  V30 5381 H 528.363 0.0137131 -6.47999 0
M  V30 5382 N 521.769 1.56035 0.221574 0
M  V30 5383 C 523.017 1.78693 0.944102 0
M  V30 5384 C 523.338 0.620317 1.8487 0
M  V30 5385 O 522.608 -0.362784 1.92512 0
M  V30 5386 H 521.188 0.659082 0.351597 0
M  V30 5387 H 523.85 1.93497 0.233435 0
M  V30 5388 H 522.946 2.70837 1.55093 0
M  V30 5389 N 523.247 -0.488276 1.49845 0
M  V30 5390 C 524.472 -1.26997 1.63971 0
M  V30 5391 C 524.897 -1.85427 0.315994 0
M  V30 5392 O 524.255 -1.66475 -0.718032 0
M  V30 5393 C 524.303 -2.36689 2.72049 0
M  V30 5394 O 523.407 -3.40882 2.32107 0
M  V30 5395 H 522.748 -0.374376 0.548396 0
M  V30 5396 H 525.278 -0.583104 1.96115 0
M  V30 5397 H 525.288 -2.82262 2.94605 0
M  V30 5398 H 523.963 -1.93529 3.68129 0
M  V30 5399 H 522.54 -3.01139 2.19931 0
M  V30 5400 N 524.725 -1.39134 -0.740242 0
M  V30 5401 C 525.655 -1.40165 -1.86751 0
M  V30 5402 C 526.636 -0.265708 -1.68012 0
M  V30 5403 O 527.821 -0.47076 -1.88408 0
M  V30 5404 C 524.951 -1.2392 -3.2444 0
M  V30 5405 C 523.905 -2.34858 -3.57807 0
M  V30 5406 C 523.231 -2.03707 -4.94376 0
M  V30 5407 C 524.531 -3.77159 -3.61315 0
M  V30 5408 H 526.225 -2.345 -1.86145 0
M  V30 5409 H 523.771 -1.12875 -0.89416 0
M  V30 5410 H 525.724 -1.23263 -4.02969 0
M  V30 5411 H 524.448 -0.26051 -3.25559 0
M  V30 5412 H 523.107 -2.34723 -2.81604 0
M  V30 5413 H 522.755 -1.04289 -4.9207 0
M  V30 5414 H 522.455 -2.78016 -5.17669 0
M  V30 5415 H 523.979 -2.04691 -5.75268 0
M  V30 5416 H 525.393 -3.79252 -4.29931 0
M  V30 5417 H 523.79 -4.50784 -3.96124 0
M  V30 5418 H 524.86 -4.08513 -2.61238 0
M  V30 5419 N 526.204 0.969867 -1.24223 0
M  V30 5420 C 527.167 2.04564 -1.03373 0
M  V30 5421 C 528.167 1.60798 0.00819206 0
M  V30 5422 O 529.357 1.72641 -0.232567 0
M  V30 5423 C 526.489 3.36163 -0.566343 0
M  V30 5424 H 527.682 2.24494 -1.98853 0
M  V30 5425 H 525.235 1.1448 -1.06415 0
M  V30 5426 H 525.97 3.21925 0.391751 0
M  V30 5427 H 525.755 3.69273 -1.31834 0
M  V30 5428 H 527.245 4.1526 -0.441435 0
M  V30 5429 N 527.682 1.05563 1.17022 0
M  V30 5430 C 528.614 0.617888 2.20714 0
M  V30 5431 C 529.627 -0.320303 1.59618 0
M  V30 5432 O 530.816 -0.112449 1.78145 0
M  V30 5433 C 527.916 -0.115333 3.38704 0
M  V30 5434 C 527.089 0.834493 4.29366 0
M  V30 5435 C 526.148 0.141855 5.26009 0
M  V30 5436 O 525.174 0.777151 5.6387 0
M  V30 5437 N 526.376 -1.11934 5.69606 0
M  V30 5438 H 529.141 1.50981 2.58892 0
M  V30 5439 H 526.702 0.938008 1.31958 0
M  V30 5440 H 528.694 -0.588918 4.00392 0
M  V30 5441 H 527.264 -0.908967 2.99093 0
M  V30 5442 H 526.484 1.48762 3.65053 0
M  V30 5443 H 527.772 1.4791 4.86827 0
M  V30 5444 H 527.17 -1.65574 5.40927 0
M  V30 5445 H 525.727 -1.53692 6.33421 0
M  V30 5446 N 529.16 -1.33526 0.837174 0
M  V30 5447 C 530.571 -1.80182 0.489017 0
M  V30 5448 C 530.922 -1.69285 -0.991826 0
M  V30 5449 O 530.047 -1.24113 -1.77271 0
M  V30 5450 C 530.642 -3.27149 0.880866 0
M  V30 5451 C 529.201 -3.71828 0.584872 0
M  V30 5452 C 528.348 -2.54974 1.09011 0
M  V30 5453 H 531.299 -1.21071 1.02603 0
M  V30 5454 H 531.32 -3.80024 0.190239 0
M  V30 5455 H 530.832 -3.35048 1.95869 0
M  V30 5456 H 528.933 -3.69457 -0.48295 0
M  V30 5457 H 529.046 -4.65366 1.13892 0
M  V30 5458 H 527.41 -2.4952 0.511047 0
M  V30 5459 H 528.193 -2.65637 2.17467 0
M  V30 5460 N 530.638 -0.59345 -1.46 0
M  V30 5461 C 531.915 -0.0157933 -1.95594 0
M  V30 5462 C 532.295 1.44807 -1.53604 0
M  V30 5463 O 531.643 2.14342 -0.791824 0
M  V30 5464 C 531.853 -0.199081 -3.48432 0
M  V30 5465 C 533.201 -0.0724943 -4.24538 0
M  V30 5466 O 534.225 -0.128469 -3.55968 0
M  V30 5467 O 533.084 0.0542426 -5.46473 0
M  V30 5468 H 530.178 0.043749 -0.825842 0
M  V30 5469 H 532.724 -0.662522 -1.56233 0
M  V30 5470 H 531.496 -1.21631 -3.71916 0
M  V30 5471 H 531.119 0.483576 -3.94648 0
M  V30 5472 N 532.116 1.54067 -0.331816 0
M  V30 5473 C 533.363 2.00715 0.268269 0
M  V30 5474 C 533.691 1.21986 1.51491 0
M  V30 5475 O 532.946 0.292309 1.93505 0
M  V30 5476 C 533.245 3.51634 0.639392 0
M  V30 5477 C 532.911 4.48018 -0.509019 0
M  V30 5478 C 531.573 4.74089 -0.824209 0
M  V30 5479 C 533.925 5.05237 -1.28003 0
M  V30 5480 C 531.253 5.54637 -1.91298 0
M  V30 5481 C 533.605 5.86972 -2.35895 0
M  V30 5482 C 532.269 6.11342 -2.67987 0
M  V30 5483 H 531.539 0.734469 0.0981667 0
M  V30 5484 H 534.186 1.8596 -0.457304 0
M  V30 5485 H 532.491 3.6416 1.44551 0
M  V30 5486 H 534.188 3.85175 1.11539 0
M  V30 5487 H 530.778 4.27851 -0.253287 0
M  V30 5488 H 534.962 4.8507 -1.04978 0
M  V30 5489 H 530.218 5.71747 -2.16599 0
M  V30 5490 H 534.392 6.30327 -2.96076 0
M  V30 5491 H 532.019 6.73544 -3.5248 0
M  V30 5492 N 533.594 0.0601682 1.57485 0
M  V30 5493 C 534.819 -0.624416 1.97777 0
M  V30 5494 C 535.244 -1.63051 0.937867 0
M  V30 5495 O 534.602 -1.81036 -0.0978845 0
M  V30 5496 C 534.65 -1.27979 3.37126 0
M  V30 5497 O 533.754 -2.39556 3.35688 0
M  V30 5498 H 533.095 -0.161581 0.64404 0
M  V30 5499 H 535.625 0.131237 2.04179 0
M  V30 5500 H 535.635 -1.62937 3.74053 0
M  V30 5501 H 534.31 -0.542501 4.12347 0
M  V30 5502 H 532.887 -2.06478 3.10517 0
M  V30 5503 N 535.072 -1.5615 -0.213296 0
M  V30 5504 C 536.318 -1.79812 -0.937849 0
M  V30 5505 C 536.651 -0.631201 -1.83656 0
M  V30 5506 O 535.926 0.369165 -1.90964 0
M  V30 5507 C 536.209 -3.13613 -1.76972 0
M  V30 5508 C 536.062 -4.40766 -0.89695 0
M  V30 5509 C 537.381 -3.43931 -2.7459 0
M  V30 5510 H 534.5 -0.654138 -0.339518 0
M  V30 5511 H 537.142 -1.88877 -0.20623 0
M  V30 5512 H 535.292 -3.06015 -2.39347 0
M  V30 5513 H 536.964 -4.60392 -0.289306 0
M  V30 5514 H 535.207 -4.33326 -0.202756 0
M  V30 5515 H 535.878 -5.30843 -1.51358 0
M  V30 5516 H 538.354 -3.5171 -2.22349 0
M  V30 5517 H 537.23 -4.38706 -3.29891 0
M  V30 5518 H 537.491 -2.6651 -3.52739 0
M  V30 5519 N 536.55 0.480323 -1.50102 0
M  V30 5520 C 537.797 1.23307 -1.60629 0
M  V30 5521 C 538.125 1.92135 -0.302375 0
M  V30 5522 O 537.38 1.82321 0.711154 0
M  V30 5523 C 537.679 2.30708 -2.72963 0
M  V30 5524 C 537.345 1.79195 -4.13763 0
M  V30 5525 C 536.007 1.64867 -4.52076 0
M  V30 5526 C 538.359 1.40878 -5.018 0
M  V30 5527 C 535.687 1.10631 -5.76175 0
M  V30 5528 C 538.039 0.880872 -6.26437 0
M  V30 5529 C 536.703 0.724146 -6.6356 0
M  V30 5530 H 535.973 0.451211 -0.587784 0
M  V30 5531 H 538.62 0.53051 -1.84005 0
M  V30 5532 H 536.925 3.06834 -2.43639 0
M  V30 5533 H 538.622 2.88692 -2.78313 0
M  V30 5534 H 535.212 1.91313 -3.83533 0
M  V30 5535 H 539.396 1.50786 -4.7284 0
M  V30 5536 H 534.652 0.972263 -6.0362 0
M  V30 5537 H 538.826 0.575269 -6.9402 0
M  V30 5538 H 536.453 0.301722 -7.59601 0
M  V30 5539 N 538.028 1.39524 0.732853 0
M  V30 5540 C 539.258 1.3994 1.51988 0
M  V30 5541 C 539.666 -0.00727973 1.89199 0
M  V30 5542 O 539.009 -0.989521 1.54771 0
M  V30 5543 C 539.071 2.21026 2.83527 0
M  V30 5544 C 538.735 3.69633 2.68738 0
M  V30 5545 C 539.732 4.62665 2.37143 0
M  V30 5546 C 537.417 4.13244 2.85542 0
M  V30 5547 C 539.411 5.97291 2.22536 0
M  V30 5548 C 537.098 5.47945 2.70554 0
M  V30 5549 C 538.096 6.39783 2.39097 0
M  V30 5550 O 537.784 7.72002 2.24204 0
M  V30 5551 H 537.516 0.479795 0.476206 0
M  V30 5552 H 540.07 1.8399 0.913054 0
M  V30 5553 H 538.3 1.71728 3.46477 0
M  V30 5554 H 539.989 2.13594 3.45156 0
M  V30 5555 H 540.755 4.30272 2.2381 0
M  V30 5556 H 536.634 3.42094 3.09019 0
M  V30 5557 H 540.178 6.68939 1.97905 0
M  V30 5558 H 536.075 5.79928 2.83466 0
M  V30 5559 H 536.843 7.8275 2.39258 0
M  V30 5560 N 539.506 -0.963266 1.24736 0
M  V30 5561 C 540.436 -2.07628 1.06832 0
M  V30 5562 C 541.417 -1.70088 -0.0200566 0
M  V30 5563 O 542.602 -1.93636 0.147854 0
M  V30 5564 C 539.732 -3.40636 0.677069 0
M  V30 5565 C 538.686 -3.9215 1.71471 0
M  V30 5566 C 538.012 -5.21553 1.1784 0
M  V30 5567 C 539.312 -4.19493 3.11164 0
M  V30 5568 H 541.006 -2.22864 1.9993 0
M  V30 5569 H 538.552 -1.07093 0.96266 0
M  V30 5570 H 540.505 -4.17941 0.538792 0
M  V30 5571 H 539.229 -3.25313 -0.289612 0
M  V30 5572 H 537.888 -3.17005 1.84128 0
M  V30 5573 H 537.536 -5.02593 0.202195 0
M  V30 5574 H 537.236 -5.56988 1.87185 0
M  V30 5575 H 538.76 -6.01463 1.05233 0
M  V30 5576 H 540.174 -4.87487 3.01711 0
M  V30 5577 H 538.571 -4.66165 3.77902 0
M  V30 5578 H 539.641 -3.26097 3.58871 0
M  V30 5579 N 540.985 -1.06182 -1.16461 0
M  V30 5580 C 541.917 -0.629584 -2.20383 0
M  V30 5581 C 542.93 0.311834 -1.59786 0
M  V30 5582 O 544.119 0.103 -1.78203 0
M  V30 5583 C 541.219 0.0973695 -3.3876 0
M  V30 5584 C 540.392 -0.857252 -4.28917 0
M  V30 5585 C 539.451 -0.169749 -5.25926 0
M  V30 5586 O 538.477 -0.807044 -5.6345 0
M  V30 5587 N 539.679 1.08911 -5.70192 0
M  V30 5588 H 542.444 -1.52352 -2.58087 0
M  V30 5589 H 540.005 -0.944993 -1.31459 0
M  V30 5590 H 541.997 0.567676 -4.00699 0
M  V30 5591 H 540.567 0.893093 -2.99571 0
M  V30 5592 H 539.787 -1.50696 -3.64259 0
M  V30 5593 H 541.075 -1.50489 -4.86035 0
M  V30 5594 H 540.473 1.62703 -5.41797 0
M  V30 5595 H 539.03 1.50331 -6.34227 0
M  V30 5596 N 542.463 1.3308 -0.844243 0
M  V30 5597 C 543.711 1.97215 -0.441676 0
M  V30 5598 C 544.032 1.67185 1.0037 0
M  V30 5599 O 543.302 0.973588 1.69994 0
M  V30 5600 H 541.882 0.72959 -0.160335 0
M  V30 5601 H 544.544 1.62348 -1.07838 0
M  V30 5602 H 543.64 3.06698 -0.57815 0
M  V30 5603 N 543.941 0.601185 1.45683 0
M  V30 5604 C 545.218 0.0261659 1.95582 0
M  V30 5605 C 545.598 -1.4399 1.5437 0
M  V30 5606 O 544.946 -2.13919 0.80318 0
M  V30 5607 C 545.156 0.217557 3.48321 0
M  V30 5608 C 546.504 0.0950076 4.24494 0
M  V30 5609 O 547.528 0.147345 3.55895 0
M  V30 5610 O 546.387 -0.025261 5.46494 0
M  V30 5611 H 543.481 -0.0393688 0.826062 0
M  V30 5612 H 546.027 0.670798 1.55879 0
M  V30 5613 H 544.799 1.23601 3.71266 0
M  V30 5614 H 544.422 -0.46264 3.94899 0
M  V30 5615 N 545.419 -1.53889 0.339982 0
M  V30 5616 C 546.835 -1.59595 -0.0120752 0
M  V30 5617 C 547.035 -1.35605 -1.49042 0
M  V30 5618 O 546.091 -1.14856 -2.24865 0
M  V30 5619 C 547.404 -2.9774 0.420898 0
M  V30 5620 C 548.952 -3.1077 0.37294 0
M  V30 5621 C 549.427 -4.51286 0.781327 0
M  V30 5622 N 550.918 -4.57325 0.735374 0
M  V30 5623 C 551.653 -5.64194 1.02336 0
M  V30 5624 N 551.149 -6.7893 1.37933 0
M  V30 5625 N 552.942 -5.54051 0.947838 0
M  V30 5626 H 545.093 -1.67738 1.30299 0
M  V30 5627 H 547.356 -0.785385 0.530918 0
M  V30 5628 H 547.062 -3.20349 1.45152 0
M  V30 5629 H 546.936 -3.76639 -0.205721 0
M  V30 5630 H 549.323 -2.87886 -0.648505 0
M  V30 5631 H 549.404 -2.33939 1.03472 0
M  V30 5632 H 549.048 -4.74905 1.80077 0
M  V30 5633 H 548.978 -5.26511 0.0970679 0
M  V30 5634 H 551.469 -3.74931 0.472773 0
M  V30 5635 H 551.782 -7.56392 1.58402 0
M  V30 5636 H 550.127 -6.80386 1.41774 0
M  V30 5637 H 553.318 -4.63293 0.669115 0
M  V30 5638 H 553.491 -6.37246 1.17563 0
M  V30 5639 N 546.897 -0.0685191 -1.57451 0
M  V30 5640 C 548.143 0.602239 -1.93652 0
M  V30 5641 C 548.476 1.6946 -0.948526 0
M  V30 5642 O 547.751 1.94487 0.022782 0
M  V30 5643 C 548.034 1.18223 -3.4014 0
M  V30 5644 C 547.887 0.0967431 -4.49696 0
M  V30 5645 C 549.206 2.08872 -3.87377 0
M  V30 5646 H 546.325 0.217453 -0.70419 0
M  V30 5647 H 548.967 -0.133821 -1.89528 0
M  V30 5648 H 547.117 1.80953 -3.43785 0
M  V30 5649 H 548.789 -0.536155 -4.58174 0
M  V30 5650 H 547.032 -0.573063 -4.29998 0
M  V30 5651 H 547.703 0.542894 -5.49324 0
M  V30 5652 H 550.179 1.56081 -3.85717 0
M  V30 5653 H 549.055 2.46389 -4.90493 0
M  V30 5654 H 549.316 2.99572 -3.25129 0
M  V30 5655 N 548.375 1.56261 0.205012 0
M  V30 5656 C 549.305 1.96779 1.257 0
M  V30 5657 C 550.286 0.838309 1.48008 0
M  V30 5658 O 551.471 1.10189 1.59913 0
M  V30 5659 C 548.601 2.29876 2.60335 0
M  V30 5660 C 547.555 3.45469 2.52656 0
M  V30 5661 C 546.881 3.64215 3.91473 0
M  V30 5662 C 548.181 4.79954 2.06014 0
M  V30 5663 H 549.875 2.84904 0.920338 0
M  V30 5664 H 547.421 1.37072 0.441277 0
M  V30 5665 H 549.374 2.56814 3.34102 0
M  V30 5666 H 548.098 1.38622 2.95722 0
M  V30 5667 H 546.757 3.18605 1.81345 0
M  V30 5668 H 546.405 2.70309 4.24196 0
M  V30 5669 H 546.105 4.41973 3.87213 0
M  V30 5670 H 547.629 3.93519 4.66878 0
M  V30 5671 H 549.043 5.05989 2.69533 0
M  V30 5672 H 547.44 5.61111 2.12777 0
M  V30 5673 H 548.51 4.74201 1.01297 0
M  V30 5674 N 549.853 -0.472356 1.50355 0
M  V30 5675 C 550.816 -1.5529 1.68576 0
M  V30 5676 C 551.816 -1.50863 0.556511 0
M  V30 5677 O 553.006 -1.53505 0.823516 0
M  V30 5678 C 550.138 -2.94921 1.70981 0
M  V30 5679 H 551.331 -1.40451 2.64978 0
M  V30 5680 H 548.884 -0.698645 1.39816 0
M  V30 5681 H 549.619 -3.15204 0.762675 0
M  V30 5682 H 549.404 -2.99541 2.53017 0
M  V30 5683 H 550.894 -3.73372 1.87037 0
M  V30 5684 N 551.331 -1.39911 -0.725443 0
M  V30 5685 C 552.577 -1.37858 -1.48738 0
M  V30 5686 C 552.91 0.0224187 -1.94187 0
M  V30 5687 O 552.185 0.989204 -1.67466 0
M  V30 5688 C 552.468 -2.3594 -2.72038 0
M  V30 5689 C 552.321 -3.85023 -2.32546 0
M  V30 5690 C 553.64 -2.31704 -3.74167 0
M  V30 5691 H 550.759 -0.502074 -0.539528 0
M  V30 5692 H 553.401 -1.70974 -0.828728 0
M  V30 5693 H 551.551 -2.0783 -3.28236 0
M  V30 5694 H 553.223 -4.2392 -1.81905 0
M  V30 5695 H 551.466 -4.01334 -1.64661 0
M  V30 5696 H 552.137 -4.49152 -3.20884 0
M  V30 5697 H 554.613 -2.5658 -3.27576 0
M  V30 5698 H 553.489 -3.02395 -4.58092 0
M  V30 5699 H 553.75 -1.3253 -4.21768 0
M  V30 5700 N 552.809 0.956637 -1.25245 0
M  V30 5701 C 554.086 1.67716 -1.00651 0
M  V30 5702 C 554.466 2.0585 0.467866 0
M  V30 5703 O 553.814 1.77029 1.44475 0
M  V30 5704 C 554.024 2.90093 -1.94028 0
M  V30 5705 C 555.372 3.6209 -2.21756 0
M  V30 5706 O 556.396 3.00171 -1.9177 0
M  V30 5707 O 555.255 4.7358 -2.72735 0
M  V30 5708 H 552.349 0.733731 -0.381533 0
M  V30 5709 H 554.895 1.00974 -1.3639 0
M  V30 5710 H 553.667 2.58689 -2.93591 0
M  V30 5711 H 553.29 3.64566 -1.58674 0
M  V30 5712 N 554.287 1.06798 1.15896 0
M  V30 5713 C 555.515 0.808694 1.90441 0
M  V30 5714 C 555.93 -0.637506 1.77711 0
M  V30 5715 O 555.287 -1.43684 1.12522 0
M  V30 5716 C 555.338 1.20068 3.40978 0
M  V30 5717 O 555.059 2.59013 3.53333 0
M  V30 5718 C 556.56 0.96987 4.3256 0
M  V30 5719 H 553.78 0.292809 0.603742 0
M  V30 5720 H 556.324 1.42296 1.46874 0
M  V30 5721 H 554.479 0.630842 3.82229 0
M  V30 5722 H 554.893 2.7485 4.46719 0
M  V30 5723 H 556.367 1.29371 5.36626 0
M  V30 5724 H 556.844 -0.0941209 4.39099 0
M  V30 5725 H 557.45 1.52433 3.97044 0
M  V30 5726 N 555.766 -1.3263 0.851289 0
M  V30 5727 C 557.012 -1.9766 0.453694 0
M  V30 5728 C 557.345 -1.67225 -0.987396 0
M  V30 5729 O 556.62 -0.958693 -1.69232 0
M  V30 5730 C 556.903 -3.5344 0.68936 0
M  V30 5731 C 556.756 -3.93517 2.17862 0
M  V30 5732 C 558.075 -4.39866 0.143555 0
M  V30 5733 H 555.194 -0.717989 0.166314 0
M  V30 5734 H 557.836 -1.57068 1.06909 0
M  V30 5735 H 555.986 -3.88147 0.165546 0
M  V30 5736 H 557.658 -3.69006 2.76826 0
M  V30 5737 H 555.901 -3.42798 2.65841 0
M  V30 5738 H 556.572 -5.02065 2.29422 0
M  V30 5739 H 559.048 -4.11875 0.591451 0
M  V30 5740 H 557.924 -5.47858 0.338043 0
M  V30 5741 H 558.185 -4.31696 -0.953466 0
M  V30 5742 N 557.244 -0.608902 -1.45362 0
M  V30 5743 C 558.192 0.121639 -2.32282 0
M  V30 5744 C 559.186 0.858301 -1.46046 0
M  V30 5745 O 560.392 0.773718 -1.62523 0
M  V30 5746 H 556.767 0.058086 -0.749753 0
M  V30 5747 H 558.738 -0.629866 -2.91677 0
M  V30 5748 C 557.487 1.1047 -3.29684 0
M  V30 5749 H 556.81 0.547278 -3.96036 0
M  V30 5750 H 558.25 1.58576 -3.9323 0
M  V30 5751 C 556.709 2.17891 -2.56954 0
M  V30 5752 O 557.239 3.25652 -2.35189 0
M  V30 5753 N 555.445 1.93211 -2.17066 0
M  V30 5754 H 554.992 1.05584 -2.34967 0
M  V30 5755 H 554.95 2.6529 -1.68727 0
M  V30 5756 N 558.722 1.53707 -0.348139 0
M  V30 5757 C 560.138 1.596 0.00361134 0
M  V30 5758 C 560.338 1.36394 1.4832 0
M  V30 5759 O 559.394 1.16046 2.24253 0
M  V30 5760 C 560.707 2.97512 -0.436682 0
M  V30 5761 C 562.255 3.10568 -0.389416 0
M  V30 5762 C 562.73 4.50866 -0.805249 0
M  V30 5763 N 564.221 4.56929 -0.759616 0
M  V30 5764 C 564.956 5.63643 -1.05327 0
M  V30 5765 N 564.452 6.78189 -1.41531 0
M  V30 5766 N 566.245 5.5354 -0.977207 0
M  V30 5767 H 558.396 1.67044 -1.31187 0
M  V30 5768 H 560.659 0.782559 -0.535075 0
M  V30 5769 H 560.365 3.19575 -1.46849 0
M  V30 5770 H 560.239 3.76742 0.185744 0
M  V30 5771 H 562.626 2.88226 0.633228 0
M  V30 5772 H 562.707 2.33387 -1.04711 0
M  V30 5773 H 562.351 4.73943 -1.82593 0
M  V30 5774 H 562.281 5.26452 -0.124989 0
M  V30 5775 H 564.772 3.74675 -0.49265 0
M  V30 5776 H 565.085 7.55541 -1.62411 0
M  V30 5777 H 563.43 6.79624 -1.45381 0
M  V30 5778 H 566.621 4.62932 -0.693675 0
M  V30 5779 H 566.794 6.36614 -1.2094 0
M  V30 5780 N 560.2 0.0768682 1.57412 0
M  V30 5781 C 561.611 -0.455037 1.8107 0
M  V30 5782 C 561.962 -1.69323 0.991162 0
M  V30 5783 O 561.087 -2.15328 0.215156 0
M  V30 5784 C 561.682 -0.832316 3.28417 0
M  V30 5785 C 560.241 -1.30906 3.52903 0
M  V30 5786 C 559.388 -0.296714 2.75708 0
M  V30 5787 H 562.339 0.302514 1.5579 0
M  V30 5788 H 562.36 -1.69333 3.40744 0
M  V30 5789 H 561.872 0.0690532 3.88039 0
M  V30 5790 H 559.973 -2.22875 2.98592 0
M  V30 5791 H 560.086 -1.28348 4.61588 0
M  V30 5792 H 558.45 -0.775059 2.42621 0
M  V30 5793 H 559.233 0.597015 3.38069 0
M  V30 5794 N 561.678 -1.56367 -0.196722 0
M  V30 5795 C 562.924 -1.80796 -0.918725 0
M  V30 5796 C 563.257 -0.650645 -1.82976 0
M  V30 5797 O 562.532 0.348889 -1.91345 0
M  V30 5798 C 562.815 -3.15472 -1.73636 0
M  V30 5799 C 562.668 -4.41693 -0.85015 0
M  V30 5800 C 563.987 -3.46824 -2.70927 0
M  V30 5801 H 561.106 -0.657702 -0.332561 0
M  V30 5802 H 563.748 -1.89086 -0.186186 0
M  V30 5803 H 561.898 -3.08536 -2.36088 0
M  V30 5804 H 563.57 -4.60673 -0.240459 0
M  V30 5805 H 561.813 -4.33517 -0.156785 0
M  V30 5806 H 562.484 -5.32419 -1.45719 0
M  V30 5807 H 564.96 -3.54049 -2.18607 0
M  V30 5808 H 563.836 -4.4218 -3.25219 0
M  V30 5809 H 564.097 -2.70236 -3.49893 0
M  V30 5810 N 563.156 0.464375 -1.50603 0
M  V30 5811 C 564.066 1.58723 -1.72754 0
M  V30 5812 C 565.082 1.62925 -0.610844 0
M  V30 5813 O 566.258 1.8067 -0.889963 0
M  V30 5814 C 563.323 2.94897 -1.82309 0
M  V30 5815 C 562.384 3.0103 -3.06071 0
M  V30 5816 C 561.617 4.30708 -3.1516 0
M  V30 5817 O 561.84 5.2159 -2.30868 0
M  V30 5818 O 560.774 4.42571 -4.0794 0
M  V30 5819 H 564.6 1.42954 -2.67951 0
M  V30 5820 H 562.185 0.644579 -1.3478 0
M  V30 5821 H 564.067 3.75764 -1.90735 0
M  V30 5822 H 562.742 3.10851 -0.902967 0
M  V30 5823 H 561.649 2.19217 -3.03142 0
M  V30 5824 H 562.982 2.90014 -3.97684 0
M  V30 5825 N 564.634 1.40294 0.718013 0
M  V30 5826 C 565.881 1.3844 1.47786 0
M  V30 5827 C 566.209 -0.0140838 1.94495 0
M  V30 5828 O 565.464 -0.998165 1.68331 0
M  V30 5829 C 565.763 2.31814 2.72024 0
M  V30 5830 C 565.429 3.79117 2.44093 0
M  V30 5831 C 564.091 4.19249 2.36185 0
M  V30 5832 C 566.443 4.72212 2.20602 0
M  V30 5833 C 563.771 5.50516 2.02851 0
M  V30 5834 C 566.123 6.03775 1.88781 0
M  V30 5835 C 564.787 6.42953 1.79354 0
M  V30 5836 H 564.057 0.506588 0.540786 0
M  V30 5837 H 566.704 1.72929 0.822663 0
M  V30 5838 H 565.009 1.90501 3.42369 0
M  V30 5839 H 566.706 2.27664 3.30106 0
M  V30 5840 H 563.296 3.47318 2.51133 0
M  V30 5841 H 567.48 4.42026 2.25669 0
M  V30 5842 H 562.736 5.79776 1.94088 0
M  V30 5843 H 566.91 6.75428 1.69617 0
M  V30 5844 H 564.537 7.44584 1.53291 0
M  V30 5845 N 566.112 -0.949982 1.2575 0
M  V30 5846 C 567.06 -2.06869 1.06339 0
M  V30 5847 C 568.054 -1.69399 -0.00708901 0
M  V30 5848 O 569.26 -1.79383 0.148897 0
M  V30 5849 H 565.635 -0.677197 0.326969 0
M  V30 5850 H 567.606 -2.20396 2.01167 0
M  V30 5851 C 566.355 -3.40503 0.703769 0
M  V30 5852 H 565.678 -3.69807 1.51931 0
M  V30 5853 H 567.118 -4.19623 0.607677 0
M  V30 5854 C 565.577 -3.31685 -0.5905 0
M  V30 5855 O 566.107 -3.67085 -1.63131 0
M  V30 5856 N 564.313 -2.84797 -0.577859 0
M  V30 5857 H 563.86 -2.56186 0.26951 0
M  V30 5858 H 563.818 -2.79279 -1.44398 0
M  V30 5859 N 567.59 -1.07411 -1.15328 0
M  V30 5860 C 568.522 -0.652924 -2.19703 0
M  V30 5861 C 569.535 0.294869 -1.60107 0
M  V30 5862 O 570.724 0.0840932 -1.78302 0
M  V30 5863 C 567.824 0.061434 -3.38844 0
M  V30 5864 C 566.997 -0.902696 -4.27984 0
M  V30 5865 C 566.056 -0.225521 -5.25717 0
M  V30 5866 O 565.082 -0.86676 -5.62562 0
M  V30 5867 N 566.284 1.02858 -5.71315 0
M  V30 5868 H 569.049 -1.55081 -2.56457 0
M  V30 5869 H 566.61 -0.958883 -1.30449 0
M  V30 5870 H 568.602 0.525145 -4.01278 0
M  V30 5871 H 567.172 0.861269 -3.00501 0
M  V30 5872 H 566.392 -1.54551 -3.6264 0
M  V30 5873 H 567.68 -1.55636 -4.84412 0
M  V30 5874 H 567.078 1.56948 -5.43492 0
M  V30 5875 H 565.635 1.43596 -6.35786 0
M  V30 5876 N 569.068 1.32177 -0.85831 0
M  V30 5877 C 570.293 2.01847 -0.476718 0
M  V30 5878 C 570.718 1.64065 0.920021 0
M  V30 5879 O 570.076 0.843189 1.60499 0
M  V30 5880 C 570.124 3.55097 -0.627578 0
M  V30 5881 O 569.228 4.11012 0.338086 0
M  V30 5882 H 568.569 0.635907 -0.191099 0
M  V30 5883 H 571.099 1.68641 -1.15851 0
M  V30 5884 H 571.109 4.04718 -0.516476 0
M  V30 5885 H 569.784 3.81938 -1.64609 0
M  V30 5886 H 568.361 3.72451 0.182917 0
M  V30 5887 N 570.547 0.616602 1.45037 0
M  V30 5888 C 571.494 -0.0969439 2.30596 0
M  V30 5889 C 572.464 -0.851151 1.42635 0
M  V30 5890 O 573.649 -0.835092 1.71554 0
M  V30 5891 C 570.789 -1.08234 3.27688 0
M  V30 5892 C 569.902 -0.328072 4.30752 0
M  V30 5893 C 569.037 -1.30399 5.14946 0
M  V30 5894 C 568.076 -0.538049 6.09731 0
M  V30 5895 N 567.213 -1.46371 6.86673 0
M  V30 5896 H 572.053 0.63864 2.91076 0
M  V30 5897 H 569.59 0.326733 1.43425 0
M  V30 5898 H 571.548 -1.66688 3.82454 0
M  V30 5899 H 570.178 -1.78523 2.68941 0
M  V30 5900 H 569.23 0.372136 3.78575 0
M  V30 5901 H 570.542 0.269142 4.98073 0
M  V30 5902 H 569.696 -1.96032 5.74157 0
M  V30 5903 H 568.435 -1.93514 4.47665 0
M  V30 5904 H 567.44 0.131852 5.49642 0
M  V30 5905 H 568.665 0.0881732 6.79043 0
M  V30 5906 H 566.611 -2.08233 6.22073 0
M  V30 5907 H 566.528 -0.920152 7.50379 0
M  V30 5908 H 567.796 -2.10932 7.50418 0
M  V30 5909 N 572.025 -1.5352 0.356285 0
M  V30 5910 C 572.957 -2.23009 -0.529127 0
M  V30 5911 C 573.97 -1.241 -1.05371 0
M  V30 5912 O 575.159 -1.50379 -0.961679 0
M  V30 5913 C 572.259 -2.90685 -1.74229 0
M  V30 5914 C 571.432 -4.16019 -1.35081 0
M  V30 5915 C 570.491 -4.66989 -2.42502 0
M  V30 5916 O 569.517 -5.30895 -2.05279 0
M  V30 5917 N 570.719 -4.44006 -3.7395 0
M  V30 5918 H 573.484 -2.99627 0.0660501 0
M  V30 5919 H 571.045 -1.60885 0.181014 0
M  V30 5920 H 573.037 -3.21695 -2.4555 0
M  V30 5921 H 571.607 -2.17575 -2.24454 0
M  V30 5922 H 570.827 -3.91414 -0.467833 0
M  V30 5923 H 572.115 -4.9752 -1.06542 0
M  V30 5924 H 571.513 -3.92924 -4.06973 0
M  V30 5925 H 570.07 -4.7959 -4.41403 0
M  V30 5926 N 573.503 -0.0852151 -1.57369 0
M  V30 5927 C 574.752 0.580443 -1.93168 0
M  V30 5928 C 575.065 1.6995 -0.968319 0
M  V30 5929 O 576.271 2.42564 -1.21963 0
M  V30 5930 C 574.727 1.08386 -3.43192 0
M  V30 5931 C 574.335 -0.00491388 -4.48 0
M  V30 5932 C 576.079 1.72281 -3.87968 0
M  V30 5933 C 573.986 0.513299 -5.89168 0
M  V30 5934 H 572.916 0.22059 -0.72101 0
M  V30 5935 H 575.567 -0.159621 -1.82804 0
M  V30 5936 H 573.949 1.8773 -3.48674 0
M  V30 5937 H 575.123 -0.780032 -4.5415 0
M  V30 5938 H 573.438 -0.548453 -4.12772 0
M  V30 5939 H 576.035 2.12108 -4.9083 0
M  V30 5940 H 576.378 2.58811 -3.26071 0
M  V30 5941 H 576.911 0.995359 -3.85146 0
M  V30 5942 H 573.65 -0.315153 -6.54742 0
M  V30 5943 H 573.17 1.25564 -5.8651 0
M  V30 5944 H 574.849 0.985433 -6.39451 0
M  V30 5945 N 574.981 1.5647 0.188427 0
M  V30 5946 C 576.23 1.80207 0.905995 0
M  V30 5947 C 576.543 0.659579 1.84144 0
M  V30 5948 O 577.749 0.781431 2.60011 0
M  V30 5949 C 576.205 3.19255 1.66145 0
M  V30 5950 C 575.813 4.41324 0.770504 0
M  V30 5951 C 577.557 3.52298 2.36826 0
M  V30 5952 C 575.464 5.71394 1.52521 0
M  V30 5953 H 574.394 0.671953 0.342045 0
M  V30 5954 H 577.045 1.82808 0.159164 0
M  V30 5955 H 575.427 3.10922 2.45242 0
M  V30 5956 H 576.601 4.60797 0.0177261 0
M  V30 5957 H 574.916 4.16035 0.174199 0
M  V30 5958 H 577.513 4.46715 2.93854 0
M  V30 5959 H 577.856 2.76359 3.11338 0
M  V30 5960 H 578.389 3.62108 1.6469 0
M  V30 5961 H 575.128 6.50316 0.82275 0
M  V30 5962 H 574.648 5.55928 2.25175 0
M  V30 5963 H 576.327 6.12747 2.07725 0
M  V30 5964 N 576.459 -0.456382 1.50847 0
M  V30 5965 C 577.687 -1.23026 1.66349 0
M  V30 5966 C 578.102 -1.85473 0.352868 0
M  V30 5967 O 577.459 -1.69885 -0.666739 0
M  V30 5968 C 577.51 -2.32827 2.76539 0
M  V30 5969 O 577.231 -1.72938 4.02522 0
M  V30 5970 C 578.732 -3.23448 3.03144 0
M  V30 5971 H 575.952 -0.371527 0.558756 0
M  V30 5972 H 578.496 -0.543082 1.97157 0
M  V30 5973 H 576.651 -2.97294 2.48384 0
M  V30 5974 H 577.065 -2.45357 4.63573 0
M  V30 5975 H 578.539 -3.96669 3.83872 0
M  V30 5976 H 579.016 -3.83094 2.14793 0
M  V30 5977 H 579.622 -2.64702 3.32886 0
M  V30 5978 N 577.937 -1.40673 -0.710563 0
M  V30 5979 C 579.214 -1.29718 -1.46398 0
M  V30 5980 C 579.594 0.082177 -2.1094 0
M  V30 5981 O 578.942 1.09536 -2.00534 0
M  V30 5982 C 579.152 -2.43967 -2.49562 0
M  V30 5983 C 580.5 -2.84436 -3.15248 0
M  V30 5984 O 581.524 -2.43597 -2.59883 0
M  V30 5985 O 580.383 -3.55008 -4.1549 0
M  V30 5986 H 577.477 -0.509697 -0.651258 0
M  V30 5987 H 580.023 -1.52603 -0.742312 0
M  V30 5988 H 578.795 -3.36076 -2.0042 0
M  V30 5989 H 578.418 -2.22879 -3.29258 0
M  V30 5990 N 579.415 0.9433 -1.26252 0
M  V30 5991 C 580.831 1.21644 -1.03319 0
M  V30 5992 C 581.031 2.0003 0.242983 0
M  V30 5993 O 580.087 2.33838 0.952688 0
M  V30 5994 C 581.4 1.97978 -2.2633 0
M  V30 5995 C 582.948 2.10978 -2.31209 0
M  V30 5996 C 583.423 2.90713 -3.53907 0
M  V30 5997 N 584.914 2.98287 -3.54371 0
M  V30 5998 C 585.649 3.60406 -4.45976 0
M  V30 5999 N 585.145 4.24043 -5.47868 0
M  V30 6000 N 586.938 3.57658 -4.33633 0
M  V30 6001 H 579.089 0.419221 -2.08222 0
M  V30 6002 H 581.352 0.247995 -0.914988 0
M  V30 6003 H 581.058 1.47788 -3.19142 0
M  V30 6004 H 580.932 2.9865 -2.30408 0
M  V30 6005 H 583.319 2.6036 -1.38913 0
M  V30 6006 H 583.4 1.09575 -2.31143 0
M  V30 6007 H 583.044 2.42018 -4.46531 0
M  V30 6008 H 582.974 3.92367 -3.5122 0
M  V30 6009 H 585.465 2.53044 -2.80673 0
M  V30 6010 H 585.778 4.69334 -6.13959 0
M  V30 6011 H 584.123 4.22637 -5.51728 0
M  V30 6012 H 587.314 3.07134 -3.53251 0
M  V30 6013 H 587.487 4.05782 -5.05218 0
M  V30 6014 N 580.893 1.08022 1.14757 0
M  V30 6015 C 581.823 0.728248 2.21853 0
M  V30 6016 C 582.804 -0.287486 1.67653 0
M  V30 6017 O 583.989 -0.158727 1.9355 0
M  V30 6018 C 581.119 0.132549 3.47047 0
M  V30 6019 C 580.073 1.07619 4.14249 0
M  V30 6020 C 579.399 0.342907 5.33599 0
M  V30 6021 C 580.699 2.41268 4.63235 0
M  V30 6022 H 582.393 1.62365 2.51551 0
M  V30 6023 H 579.939 0.782125 1.20908 0
M  V30 6024 H 581.892 -0.125665 4.21213 0
M  V30 6025 H 580.616 -0.797971 3.16702 0
M  V30 6026 H 579.275 1.31944 3.42033 0
M  V30 6027 H 578.923 -0.59129 4.99513 0
M  V30 6028 H 578.623 0.971955 5.79506 0
M  V30 6029 H 580.147 0.0926538 6.1053 0
M  V30 6030 H 581.561 2.21232 5.28894 0
M  V30 6031 H 579.958 2.9983 5.19829 0
M  V30 6032 H 581.028 3.03079 3.78512 0
M  V30 6033 N 582.371 -1.3172 0.865308 0
M  V30 6034 C 583.782 -1.79104 0.527126 0
M  V30 6035 C 584.133 -1.7135 -0.955695 0
M  V30 6036 O 583.258 -1.27845 -1.74598 0
M  V30 6037 C 583.853 -3.25207 0.950061 0
M  V30 6038 C 582.412 -3.70504 0.663611 0
M  V30 6039 C 581.559 -2.52605 1.14395 0
M  V30 6040 H 584.51 -1.18868 1.05148 0
M  V30 6041 H 584.531 -3.79535 0.270805 0
M  V30 6042 H 584.043 -3.30818 2.02931 0
M  V30 6043 H 582.144 -3.70398 -0.404474 0
M  V30 6044 H 582.257 -4.62845 1.23737 0
M  V30 6045 H 580.621 -2.4838 0.563859 0
M  V30 6046 H 581.404 -2.60964 2.23053 0
M  V30 6047 N 583.85 -0.624285 -1.44708 0
M  V30 6048 C 585.096 -0.126237 -2.02407 0
M  V30 6049 C 585.428 1.24618 -1.48943 0
M  V30 6050 O 584.704 1.82569 -0.670742 0
M  V30 6051 C 584.986 -0.105449 -3.59946 0
M  V30 6052 C 584.84 -1.50972 -4.23707 0
M  V30 6053 C 586.159 0.573629 -4.36346 0
M  V30 6054 H 583.278 -0.0473472 -0.735478 0
M  V30 6055 H 585.92 -0.799452 -1.72362 0
M  V30 6056 H 584.07 0.46783 -3.85673 0
M  V30 6057 H 585.742 -2.13136 -4.0911 0
M  V30 6058 H 583.985 -2.0656 -3.81465 0
M  V30 6059 H 584.656 -1.44727 -5.32689 0
M  V30 6060 H 587.132 0.0861787 -4.16011 0
M  V30 6061 H 586.008 0.557338 -5.46063 0
M  V30 6062 H 586.269 1.64276 -4.10446 0
M  V30 6063 N 585.328 1.53329 -0.364422 0
M  V30 6064 C 586.238 2.29414 0.490552 0
M  V30 6065 C 587.254 1.35335 1.09363 0
M  V30 6066 O 588.43 1.68391 1.10483 0
M  V30 6067 C 585.495 3.06772 1.61529 0
M  V30 6068 C 584.556 4.16516 1.03986 0
M  V30 6069 C 583.789 4.90176 2.111 0
M  V30 6070 O 584.012 4.63687 3.32191 0
M  V30 6071 O 582.946 5.76134 1.74222 0
M  V30 6072 H 586.772 3.03428 -0.12856 0
M  V30 6073 H 584.357 1.48843 -0.128837 0
M  V30 6074 H 586.239 3.55082 2.26924 0
M  V30 6075 H 584.914 2.35596 2.21983 0
M  V30 6076 H 583.821 3.7246 0.349856 0
M  V30 6077 H 585.154 4.89855 0.4799 0
M  V30 6078 N 586.806 0.0935595 1.57322 0
M  V30 6079 C 588.217 -0.435807 1.81542 0
M  V30 6080 C 588.568 -1.68263 1.00907 0
M  V30 6081 O 587.693 -2.15087 0.237983 0
M  V30 6082 C 588.288 -0.797436 3.29282 0
M  V30 6083 C 586.847 -1.27155 3.54272 0
M  V30 6084 C 585.994 -0.267455 2.76007 0
M  V30 6085 H 588.945 0.31902 1.5546 0
M  V30 6086 H 588.966 -1.6571 3.42521 0
M  V30 6087 H 588.478 0.110206 3.87943 0
M  V30 6088 H 586.579 -2.19696 3.00939 0
M  V30 6089 H 586.692 -1.23445 4.62923 0
M  V30 6090 H 585.056 -0.749282 2.43429 0
M  V30 6091 H 585.839 0.632839 3.37417 0
M  V30 6092 N 588.284 -1.56567 -0.180126 0
M  V30 6093 C 589.232 -1.96632 -1.24251 0
M  V30 6094 C 590.226 -0.853818 -1.46309 0
M  V30 6095 O 591.432 -1.0389 -1.46993 0
M  V30 6096 H 587.807 -0.625476 -0.417473 0
M  V30 6097 H 589.778 -2.85201 -0.877679 0
M  V30 6098 C 588.527 -2.33486 -2.57642 0
M  V30 6099 H 587.85 -3.18626 -2.4149 0
M  V30 6100 H 589.29 -2.65371 -3.30688 0
M  V30 6101 C 587.749 -1.17499 -3.15746 0
M  V30 6102 O 588.279 -0.457956 -3.99081 0
M  V30 6103 N 586.485 -0.94786 -2.74707 0
M  V30 6104 H 586.032 -1.53269 -2.07042 0
M  V30 6105 H 585.99 -0.173626 -3.1392 0
M  V30 6106 N 589.762 0.448376 -1.51087 0
M  V30 6107 C 590.692 1.55102 -1.74544 0
M  V30 6108 C 591.673 1.59357 -0.594932 0
M  V30 6109 O 592.858 1.75261 -0.836491 0
M  V30 6110 C 589.988 2.93268 -1.86041 0
M  V30 6111 C 588.942 3.03877 -3.01402 0
M  V30 6112 C 588.268 4.43914 -2.98068 0
M  V30 6113 C 589.568 2.7898 -4.41551 0
M  V30 6114 H 591.262 1.35724 -2.66869 0
M  V30 6115 H 588.808 0.651498 -1.28419 0
M  V30 6116 H 590.761 3.70356 -2.01034 0
M  V30 6117 H 589.485 3.13853 -0.903548 0
M  V30 6118 H 588.144 2.29227 -2.86096 0
M  V30 6119 H 587.792 4.6145 -2.00182 0
M  V30 6120 H 587.492 4.51944 -3.75527 0
M  V30 6121 H 589.016 5.22991 -3.1514 0
M  V30 6122 H 590.43 3.45805 -4.57265 0
M  V30 6123 H 588.827 2.98431 -5.20633 0
M  V30 6124 H 589.897 1.74663 -4.5235 0
M  V30 6125 N 591.24 1.41047 0.703093 0
M  V30 6126 C 592.17 1.45067 1.82969 0
M  V30 6127 C 593.151 0.31016 1.67248 0
M  V30 6128 O 594.336 0.520548 1.87093 0
M  V30 6129 C 591.466 1.32478 3.2104 0
M  V30 6130 C 590.42 2.44262 3.51454 0
M  V30 6131 C 589.746 2.16742 4.88801 0
M  V30 6132 C 591.046 3.86606 3.51189 0
M  V30 6133 H 592.74 2.39353 1.79863 0
M  V30 6134 H 590.286 1.15206 0.863919 0
M  V30 6135 H 592.239 1.33904 3.99559 0
M  V30 6136 H 590.963 0.346735 3.24754 0
M  V30 6137 H 589.622 2.42107 2.75282 0
M  V30 6138 H 589.27 1.17299 4.89132 0
M  V30 6139 H 588.97 2.91643 5.10116 0
M  V30 6140 H 590.494 2.19872 5.69639 0
M  V30 6141 H 591.908 3.90517 4.19725 0
M  V30 6142 H 590.305 4.61128 3.84033 0
M  V30 6143 H 591.375 4.15296 2.50315 0
M  V30 6144 N 592.718 -0.936591 1.26751 0
M  V30 6145 C 593.966 -1.67998 1.12343 0
M  V30 6146 C 594.287 -1.92137 -0.332938 0
M  V30 6147 O 593.557 -1.52132 -1.23421 0
M  V30 6148 H 592.137 -0.622609 0.412756 0
M  V30 6149 H 594.799 -1.12509 1.59147 0
M  V30 6150 H 593.895 -2.65185 1.64571 0
M  V30 6151 N 594.196 -1.08629 -1.14182 0
M  V30 6152 C 595.473 -0.73002 -1.81466 0
M  V30 6153 C 595.853 0.785996 -1.95922 0
M  V30 6154 O 595.201 1.70535 -1.52086 0
M  V30 6155 C 595.411 -1.45957 -3.17014 0
M  V30 6156 C 596.759 -1.62008 -3.92477 0
M  V30 6157 O 597.783 -1.42141 -3.26611 0
M  V30 6158 O 596.642 -1.94806 -5.106 0
M  V30 6159 H 593.736 -0.261307 -0.784632 0
M  V30 6160 H 596.282 -1.188 -1.2118 0
M  V30 6161 H 595.054 -2.49221 -3.01669 0
M  V30 6162 H 594.677 -0.993222 -3.84995 0
M  V30 6163 N 595.674 1.31259 -0.872281 0
M  V30 6164 C 596.584 2.32221 -0.333255 0
M  V30 6165 C 597.6 1.6481 0.558013 0
M  V30 6166 O 598.776 1.96212 0.454175 0
M  V30 6167 C 595.841 3.43708 0.454479 0
M  V30 6168 C 594.902 4.26774 -0.465024 0
M  V30 6169 C 594.135 5.32937 0.28521 0
M  V30 6170 O 594.358 5.49968 1.513 0
M  V30 6171 O 593.292 6.00834 -0.358126 0
M  V30 6172 H 597.118 2.80252 -1.17016 0
M  V30 6173 H 594.703 1.352 -0.635724 0
M  V30 6174 H 596.585 4.11656 0.900963 0
M  V30 6175 H 595.26 2.97836 1.26789 0
M  V30 6176 H 594.167 3.61571 -0.960055 0
M  V30 6177 H 595.5 4.76217 -1.2441 0
M  V30 6178 N 597.152 0.631951 1.44375 0
M  V30 6179 C 598.377 0.142146 2.06912 0
M  V30 6180 C 598.802 -1.17456 1.4692 0
M  V30 6181 O 598.16 -1.72074 0.570975 0
M  V30 6182 C 598.208 0.0417952 3.60576 0
M  V30 6183 O 597.312 -1.00194 4.00044 0
M  V30 6184 H 596.653 0.0851491 0.658518 0
M  V30 6185 H 599.183 0.868863 1.85235 0
M  V30 6186 H 599.193 -0.148517 4.0773 0
M  V30 6187 H 597.868 1.0031 4.03622 0
M  V30 6188 H 596.445 -0.786131 3.64519 0
M  V30 6189 N 598.631 -1.53133 0.372548 0
M  V30 6190 C 599.877 -2.01654 -0.215277 0
M  V30 6191 C 600.21 -1.25914 -1.47849 0
M  V30 6192 O 599.485 -0.3548 -1.91237 0
M  V30 6193 C 599.768 -3.56609 -0.500187 0
M  V30 6194 C 599.621 -4.43036 0.777145 0
M  V30 6195 C 600.94 -4.20528 -1.29786 0
M  V30 6196 H 598.059 -0.732991 -0.0767686 0
M  V30 6197 H 600.701 -1.83335 0.498814 0
M  V30 6198 H 598.851 -3.7235 -1.10852 0
M  V30 6199 H 600.523 -4.39079 1.41447 0
M  V30 6200 H 598.766 -4.10723 1.39604 0
M  V30 6201 H 599.437 -5.49424 0.532662 0
M  V30 6202 H 601.913 -4.08663 -0.783198 0
M  V30 6203 H 600.789 -5.28962 -1.46596 0
M  V30 6204 H 601.05 -3.77051 -2.30836 0
M  V30 6205 N 600.109 -0.101901 -1.5727 0
M  V30 6206 C 601.52 0.426173 -1.81771 0
M  V30 6207 C 601.871 1.67725 -1.01797 0
M  V30 6208 O 600.996 2.14958 -0.249386 0
M  V30 6209 C 601.591 0.779962 -3.297 0
M  V30 6210 C 600.15 1.25275 -3.54941 0
M  V30 6211 C 599.297 0.252814 -2.76145 0
M  V30 6212 H 602.248 -0.32726 -1.55289 0
M  V30 6213 H 602.269 1.63891 -3.43395 0
M  V30 6214 H 601.781 -0.130778 -3.8788 0
M  V30 6215 H 599.882 2.18097 -3.021 0
M  V30 6216 H 599.995 1.20988 -4.63572 0
M  V30 6217 H 598.359 0.736362 -2.43823 0
M  V30 6218 H 599.142 -0.650724 -3.37076 0
M  V30 6219 N 601.587 1.56661 0.17182 0
M  V30 6220 C 602.517 1.99401 1.21498 0
M  V30 6221 C 603.498 0.869516 1.46197 0
M  V30 6222 O 604.683 1.13556 1.57539 0
M  V30 6223 C 601.813 2.35346 2.55401 0
M  V30 6224 C 600.767 3.5075 2.45272 0
M  V30 6225 C 600.093 3.72437 3.8366 0
M  V30 6226 C 601.393 4.84216 1.95787 0
M  V30 6227 H 603.087 2.86792 0.859699 0
M  V30 6228 H 600.633 1.37977 0.412103 0
M  V30 6229 H 602.586 2.63843 3.2858 0
M  V30 6230 H 601.31 1.44864 2.92715 0
M  V30 6231 H 599.969 3.2238 1.74547 0
M  V30 6232 H 599.617 2.79246 4.18367 0
M  V30 6233 H 599.317 4.50087 3.77751 0
M  V30 6234 H 600.841 4.03334 4.58426 0
M  V30 6235 H 602.255 5.11592 2.5874 0
M  V30 6236 H 600.652 5.65498 2.00827 0
M  V30 6237 H 601.722 4.76243 0.912159 0
M  V30 6238 N 603.065 -0.440357 1.51323 0
M  V30 6239 C 604.012 -1.53429 1.72419 0
M  V30 6240 C 604.982 -1.56165 0.565826 0
M  V30 6241 O 606.167 -1.73222 0.799917 0
M  V30 6242 C 603.307 -2.91169 1.85242 0
M  V30 6243 C 602.42 -2.97985 3.12777 0
M  V30 6244 C 601.555 -4.26829 3.16212 0
M  V30 6245 C 600.594 -4.27501 4.38074 0
M  V30 6246 N 599.731 -5.47866 4.39076 0
M  V30 6247 H 604.571 -1.34743 2.65797 0
M  V30 6248 H 602.108 -0.654608 1.31732 0
M  V30 6249 H 604.066 -3.71087 1.90658 0
M  V30 6250 H 602.696 -3.0842 0.952744 0
M  V30 6251 H 601.748 -2.10749 3.16685 0
M  V30 6252 H 603.06 -2.94342 4.02696 0
M  V30 6253 H 602.214 -5.15118 3.20527 0
M  V30 6254 H 600.953 -4.33124 2.24176 0
M  V30 6255 H 599.958 -3.37606 4.33938 0
M  V30 6256 H 601.183 -4.22873 5.31371 0
M  V30 6257 H 599.129 -5.54887 3.49909 0
M  V30 6258 H 599.046 -5.46091 5.22801 0
M  V30 6259 H 600.314 -6.38195 4.4758 0
M  V30 6260 N 604.543 -1.41418 -0.695603 0
M  V30 6261 C 605.453 -1.45622 -1.83933 0
M  V30 6262 C 606.469 -0.346825 -1.70508 0
M  V30 6263 O 607.645 -0.59454 -1.92424 0
M  V30 6264 C 604.71 -1.33627 -3.19914 0
M  V30 6265 C 603.771 -2.54882 -3.45447 0
M  V30 6266 C 603.004 -2.43449 -4.7494 0
M  V30 6267 O 603.227 -1.45905 -5.51424 0
M  V30 6268 O 602.161 -3.33206 -5.01256 0
M  V30 6269 H 605.987 -2.42114 -1.83342 0
M  V30 6270 H 603.572 -1.22956 -0.848658 0
M  V30 6271 H 605.454 -1.29221 -4.01098 0
M  V30 6272 H 604.129 -0.402508 -3.21188 0
M  V30 6273 H 603.036 -2.64865 -2.64192 0
M  V30 6274 H 604.369 -3.47087 -3.48987 0
M  V30 6275 N 606.021 0.929856 -1.27246 0
M  V30 6276 C 607.27 1.67182 -1.12842 0
M  V30 6277 C 607.583 1.9287 0.325666 0
M  V30 6278 O 608.789 2.64999 0.590572 0
M  V30 6279 C 607.245 3.01097 -1.97151 0
M  V30 6280 C 606.853 2.83115 -3.47203 0
M  V30 6281 C 608.597 3.78907 -1.91389 0
M  V30 6282 C 606.504 4.12573 -4.23719 0
M  V30 6283 H 605.434 0.627064 -0.418697 0
M  V30 6284 H 608.085 1.0332 -1.51649 0
M  V30 6285 H 606.467 3.66004 -1.51186 0
M  V30 6286 H 607.641 2.26989 -4.01015 0
M  V30 6287 H 605.956 2.18736 -3.54321 0
M  V30 6288 H 608.553 4.74837 -2.45834 0
M  V30 6289 H 608.896 4.0674 -0.887047 0
M  V30 6290 H 609.429 3.20794 -2.35237 0
M  V30 6291 H 606.168 3.8992 -5.26918 0
M  V30 6292 H 605.688 4.68371 -3.74685 0
M  V30 6293 H 607.367 4.8095 -4.32777 0
M  V30 6294 N 607.499 1.09233 1.13605 0
M  V30 6295 C 608.748 0.82205 1.84188 0
M  V30 6296 C 609.061 -0.654548 1.84323 0
M  V30 6297 O 610.267 -1.04029 2.50779 0
M  V30 6298 C 608.723 1.42066 3.30674 0
M  V30 6299 C 608.331 2.92965 3.38933 0
M  V30 6300 C 610.075 1.22924 4.06313 0
M  V30 6301 C 607.982 3.45922 4.79679 0
M  V30 6302 H 606.912 0.303854 0.690064 0
M  V30 6303 H 609.563 1.31479 1.28006 0
M  V30 6304 H 607.945 0.855613 3.86646 0
M  V30 6305 H 609.119 3.55679 2.92966 0
M  V30 6306 H 607.434 3.11118 2.76757 0
M  V30 6307 H 610.031 1.59945 5.10217 0
M  V30 6308 H 610.374 0.169726 4.15954 0
M  V30 6309 H 610.907 1.76168 3.56665 0
M  V30 6310 H 607.646 4.51484 4.75229 0
M  V30 6311 H 607.166 2.87971 5.26149 0
M  V30 6312 H 608.845 3.43009 5.48592 0
M  V30 6313 N 608.977 -1.30795 0.87923 0
M  V30 6314 C 609.94 -2.26563 0.346676 0
M  V30 6315 C 610.94 -1.52578 -0.507597 0
M  V30 6316 O 612.13 -1.71318 -0.315575 0
M  V30 6317 C 609.262 -3.37115 -0.506611 0
M  V30 6318 H 610.455 -2.75183 1.19223 0
M  V30 6319 H 608.008 -1.41886 0.655598 0
M  V30 6320 H 608.743 -2.93802 -1.37299 0
M  V30 6321 H 608.528 -3.91959 0.105218 0
M  V30 6322 H 610.018 -4.08412 -0.871192 0
M  V30 6323 N 610.455 -0.639598 -1.44038 0
M  V30 6324 C 611.418 0.0506628 -2.29144 0
M  V30 6325 C 612.418 0.764001 -1.41491 0
M  V30 6326 O 613.608 0.607309 -1.63271 0
M  V30 6327 C 610.74 1.0824 -3.2326 0
M  V30 6328 H 611.933 -0.697987 -2.91664 0
M  V30 6329 H 609.486 -0.400146 -1.51091 0
M  V30 6330 H 610.221 1.86075 -2.65606 0
M  V30 6331 H 610.006 0.574725 -3.87865 0
M  V30 6332 H 611.496 1.56487 -3.87171 0
M  V30 6333 N 611.933 1.52934 -0.380664 0
M  V30 6334 C 612.896 2.24809 0.446473 0
M  V30 6335 C 613.896 1.26133 0.997347 0
M  V30 6336 O 615.086 1.50297 0.880714 0
M  V30 6337 C 612.218 2.99649 1.62553 0
M  V30 6338 H 613.411 2.99343 -0.182677 0
M  V30 6339 H 610.964 1.55736 -0.132618 0
M  V30 6340 H 611.699 2.29395 2.29235 0
M  V30 6341 H 611.484 3.72066 1.23732 0
M  V30 6342 H 612.974 3.54246 2.21133 0
M  V30 6343 N 613.412 0.11024 1.57214 0
M  V30 6344 C 614.359 -0.843195 2.14846 0
M  V30 6345 C 615.329 -1.26954 1.07107 0
M  V30 6346 O 616.514 -1.34861 1.34971 0
M  V30 6347 C 613.654 -2.09123 2.74521 0
M  V30 6348 C 612.767 -1.71404 3.96541 0
M  V30 6349 C 611.902 -2.91107 4.44331 0
M  V30 6350 C 610.941 -2.49586 5.58903 0
M  V30 6351 N 610.078 -3.62175 6.01477 0
M  V30 6352 H 614.918 -0.344886 2.95998 0
M  V30 6353 H 612.455 -0.15855 1.46243 0
M  V30 6354 H 614.413 -2.82234 3.07246 0
M  V30 6355 H 613.043 -2.56427 1.96074 0
M  V30 6356 H 612.095 -0.88201 3.70033 0
M  V30 6357 H 613.407 -1.36884 4.7965 0
M  V30 6358 H 612.561 -3.72454 4.78919 0
M  V30 6359 H 611.3 -3.28848 3.60153 0
M  V30 6360 H 610.305 -1.6667 5.23929 0
M  V30 6361 H 611.53 -2.12973 6.4484 0
M  V30 6362 H 609.476 -3.99605 5.20242 0
M  V30 6363 H 609.393 -3.3155 6.79419 0
M  V30 6364 H 610.661 -4.43987 6.407 0
M  V30 6365 N 614.89 -1.56749 -0.16351 0
M  V30 6366 C 615.853 -1.96121 -1.18613 0
M  V30 6367 C 616.853 -0.845765 -1.36761 0
M  V30 6368 O 618.043 -1.11268 -1.34033 0
M  V30 6369 C 615.175 -2.26282 -2.54969 0
M  V30 6370 H 616.368 -2.87639 -0.848764 0
M  V30 6371 H 613.921 -1.50928 -0.406251 0
M  V30 6372 H 614.656 -1.37504 -2.93706 0
M  V30 6373 H 614.441 -3.07595 -2.43162 0
M  V30 6374 H 615.931 -2.57638 -3.28653 0
M  V30 6375 N 616.368 0.432326 -1.51554 0
M  V30 6376 C 617.278 1.55023 -1.76082 0
M  V30 6377 C 618.294 1.61593 -0.645265 0
M  V30 6378 O 619.47 1.78742 -0.928086 0
M  V30 6379 C 616.535 2.90964 -1.88523 0
M  V30 6380 C 615.596 2.9447 -3.12388 0
M  V30 6381 C 614.829 4.23926 -3.24225 0
M  V30 6382 O 615.052 5.16576 -2.4188 0
M  V30 6383 O 613.986 4.33818 -4.17235 0
M  V30 6384 H 617.812 1.37238 -2.70923 0
M  V30 6385 H 615.397 0.615845 -1.36117 0
M  V30 6386 H 617.279 3.71633 -1.98662 0
M  V30 6387 H 615.954 3.08865 -0.9687 0
M  V30 6388 H 614.861 2.12737 -3.07723 0
M  V30 6389 H 616.194 2.81514 -4.03746 0
M  V30 6390 N 617.846 1.41785 0.688094 0
M  V30 6391 C 618.776 1.47 1.8142 0
M  V30 6392 C 619.757 0.327881 1.6691 0
M  V30 6393 O 620.942 0.540362 1.86531 0
M  V30 6394 C 618.072 1.35876 3.19617 0
M  V30 6395 C 617.026 2.47976 3.48844 0
M  V30 6396 C 616.352 2.21915 4.86475 0
M  V30 6397 C 617.652 3.90309 3.47068 0
M  V30 6398 H 619.346 2.41247 1.77314 0
M  V30 6399 H 616.892 1.16116 0.851651 0
M  V30 6400 H 618.845 1.38134 3.98117 0
M  V30 6401 H 617.569 0.38116 3.24368 0
M  V30 6402 H 616.228 2.45013 2.72698 0
M  V30 6403 H 615.876 1.2248 4.8786 0
M  V30 6404 H 615.576 2.97037 5.06994 0
M  V30 6405 H 617.1 2.25901 5.67275 0
M  V30 6406 H 618.514 3.94947 4.1556 0
M  V30 6407 H 616.911 4.65175 3.7912 0
M  V30 6408 H 617.981 4.17927 2.45896 0
M  V30 6409 N 619.324 -0.923095 1.27737 0
M  V30 6410 C 620.549 -1.71054 1.17283 0
M  V30 6411 C 620.974 -1.86208 -0.266153 0
M  V30 6412 O 620.332 -1.36545 -1.1927 0
M  V30 6413 C 620.38 -3.0854 1.86642 0
M  V30 6414 O 619.484 -3.95528 1.16752 0
M  V30 6415 H 618.825 -0.524136 0.407649 0
M  V30 6416 H 621.355 -1.15487 1.6889 0
M  V30 6417 H 621.365 -3.58828 1.94182 0
M  V30 6418 H 620.04 -2.96828 2.91317 0
M  V30 6419 H 618.617 -3.53967 1.17312 0
M  V30 6420 N 620.802 -1.09834 -1.13024 0
M  V30 6421 C 622.027 -0.85909 -1.88771 0
M  V30 6422 C 622.452 0.584402 -1.78791 0
M  V30 6423 O 621.81 1.41101 -1.13842 0
M  V30 6424 C 621.858 -1.30427 -3.36186 0
M  V30 6425 O 620.962 -0.465368 -4.09766 0
M  V30 6426 H 620.303 -0.310786 -0.586778 0
M  V30 6427 H 622.833 -1.46355 -1.42973 0
M  V30 6428 H 622.843 -1.2915 -3.8702 0
M  V30 6429 H 621.518 -2.3555 -3.42767 0
M  V30 6430 H 620.095 -0.542814 -3.68928 0
M  V30 6431 N 622.28 1.30327 -0.886154 0
M  V30 6432 C 623.243 2.26376 -0.358687 0
M  V30 6433 C 624.243 1.52845 0.499498 0
M  V30 6434 O 625.433 1.71483 0.306485 0
M  V30 6435 C 622.565 3.37379 0.488726 0
M  V30 6436 H 623.758 2.74547 -1.20681 0
M  V30 6437 H 621.311 1.41536 -0.663113 0
M  V30 6438 H 622.046 2.94526 1.35739 0
M  V30 6439 H 621.831 3.91897 -0.126003 0
M  V30 6440 H 623.321 4.08868 0.84952 0
M  V30 6441 O 623.797 0.786908 1.41032 0
M  V30 6442 H 624.488 0.356185 1.90397 0
M  V30 END ATOM
M  V30 BEGIN BOND
M  V30 END BOND
M  V30 END CTAB
M  END
$$$$
