drugbank_target|P16860 Natriuretic peptides B (DB01136; DB06412)
 OpenBabel12092119443D

  0  0  0     0  0            999 V3000
M  V30 BEGIN CTAB
M  V30 COUNTS 2091 2110 0 0 0
M  V30 BEGIN ATOM
M  V30 1 H -0.908 1.98254 -0.117106 0
M  V30 2 N 0 1.576 0 0
M  V30 3 C 0.933 2.03868 1.02534 0
M  V30 4 C 1.911 0.928543 1.3348 0
M  V30 5 O 3.095 1.19667 1.45644 0
M  V30 6 C 0.222 2.43627 2.35294 0
M  V30 7 C -0.732 3.65373 2.2001 0
M  V30 8 S 0.101 5.13292 1.52614 0
M  V30 9 C 1.257 5.56322 2.86805 0
M  V30 10 H 1.49 2.90518 0.631377 0
M  V30 11 H -0.977 1.52953 0.210867 0
M  V30 12 H 0.981 2.67203 3.11629 0
M  V30 13 H -0.358 1.57376 2.7183 0
M  V30 14 H -1.165 3.90944 3.18086 0
M  V30 15 H -1.563 3.418 1.51819 0
M  V30 16 H 0.729 5.58782 3.83104 0
M  V30 17 H 1.672 6.56266 2.65933 0
M  V30 18 H 2.08 4.83886 2.90714 0
M  V30 19 N 1.4781 -0.272755 1.55222 0
M  V30 20 C 2.7551 -1.02562 1.66555 0
M  V30 21 C 3.1351 -2.04282 0.532189 0
M  V30 22 O 2.4831 -2.23662 -0.467717 0
M  V30 23 C 2.6931 -1.6822 3.05782 0
M  V30 24 C 4.0411 -2.19373 3.63539 0
M  V30 25 O 5.0651 -1.78206 3.08417 0
M  V30 26 O 3.9241 -2.94883 4.60115 0
M  V30 27 H 1.0181 -0.475755 0.676451 0
M  V30 28 H 3.5641 -0.268593 1.67561 0
M  V30 29 H 2.3361 -0.945112 3.79715 0
M  V30 30 H 1.9591 -2.50609 3.08676 0
M  V30 31 N 2.9562 -1.48159 -0.537278 0
M  V30 32 C 4.3672 -1.49429 -1.11928 0
M  V30 33 C 4.7182 -0.26 -1.9447 0
M  V30 34 O 3.8432 0.633489 -2.0692 0
M  V30 35 C 4.4382 -2.70758 -2.03656 0
M  V30 36 C 2.9972 -2.74923 -2.57088 0
M  V30 37 C 2.1442 -2.42835 -1.3389 0
M  V30 38 H 5.0952 -1.55381 -0.322886 0
M  V30 39 H 5.1162 -2.48861 -2.87834 0
M  V30 40 H 4.6282 -3.60575 -1.43553 0
M  V30 41 H 2.7292 -1.89296 -3.20933 0
M  V30 42 H 2.8422 -3.76157 -2.9672 0
M  V30 43 H 1.2062 -1.93836 -1.65226 0
M  V30 44 H 1.9892 -3.34884 -0.755504 0
M  V30 45 N 4.4343 0.785586 -1.36625 0
M  V30 46 C 5.3663 1.90711 -1.2713 0
M  V30 47 C 6.3793 1.61688 -0.189986 0
M  V30 48 O 7.5683 1.72864 -0.445014 0
M  V30 49 C 4.6683 3.25611 -0.939713 0
M  V30 50 C 3.8413 3.82385 -2.12369 0
M  V30 51 C 2.9003 4.95732 -1.76456 0
M  V30 52 O 1.9263 5.12047 -2.48589 0
M  V30 53 N 3.1283 5.76258 -0.700492 0
M  V30 54 H 5.8933 1.99376 -2.23762 0
M  V30 55 H 3.4543 0.964041 -1.30069 0
M  V30 56 H 5.4463 3.98937 -0.680554 0
M  V30 57 H 4.0163 3.12538 -0.0624074 0
M  V30 58 H 3.2363 3.01001 -2.54543 0
M  V30 59 H 4.5243 4.17047 -2.9146 0
M  V30 60 H 3.9223 5.65609 -0.101624 0
M  V30 61 H 2.4793 6.4987 -0.501165 0
M  V30 62 N 5.9124 1.20967 1.01018 0
M  V30 63 C 7.1404 1.04956 1.78303 0
M  V30 64 C 7.5554 -0.400915 1.84494 0
M  V30 65 O 6.9124 -1.27826 1.30257 0
M  V30 66 C 6.9634 1.63403 3.22462 0
M  V30 67 O 6.6844 3.02775 3.16637 0
M  V30 68 C 8.1854 1.52432 4.16268 0
M  V30 69 H 5.4054 0.368858 0.560522 0
M  V30 70 H 7.9494 1.60193 1.27116 0
M  V30 71 H 6.1044 1.1227 3.70775 0
M  V30 72 H 6.5184 3.30626 4.07169 0
M  V30 73 H 7.9924 1.98078 5.15237 0
M  V30 74 H 8.4694 0.477875 4.36592 0
M  V30 75 H 9.0754 2.02787 3.73841 0
M  V30 76 N 7.3905 -1.2043 1.01659 0
M  V30 77 C 8.3535 -2.21433 0.591616 0
M  V30 78 C 9.3535 -1.57203 -0.338226 0
M  V30 79 O 10.5435 -1.73737 -0.126918 0
M  V30 80 C 7.6755 -3.40628 -0.136058 0
M  V30 81 H 8.8685 -2.60545 1.48514 0
M  V30 82 H 6.4215 -1.33893 0.806379 0
M  V30 83 H 7.1565 -3.07019 -1.04449 0
M  V30 84 H 6.9415 -3.88475 0.531917 0
M  V30 85 H 8.4315 -4.15475 -0.420735 0
M  V30 86 N 8.8686 -0.792821 -1.36206 0
M  V30 87 C 10.2796 -0.429513 -1.81692 0
M  V30 88 C 10.6306 1.04695 -1.65932 0
M  V30 89 O 9.7556 1.81256 -1.18218 0
M  V30 90 C 10.3506 -0.772831 -3.29868 0
M  V30 91 C 8.9096 -0.462307 -3.7355 0
M  V30 92 C 8.0566 -1.00569 -2.5842 0
M  V30 93 H 11.0076 -0.985672 -1.24379 0
M  V30 94 H 11.0286 -0.0651928 -3.80444 0
M  V30 95 H 10.5406 -1.84747 -3.41307 0
M  V30 96 H 8.6416 0.604158 -3.67669 0
M  V30 97 H 8.7546 -0.985299 -4.68859 0
M  V30 98 H 7.1186 -0.428734 -2.51066 0
M  V30 99 H 7.9016 -2.08616 -2.72643 0
M  V30 100 N 10.3467 1.47872 -0.545128 0
M  V30 101 C 11.5717 2.07391 -0.0190611 0
M  V30 102 C 11.9967 1.39688 1.25971 0
M  V30 103 O 11.3547 0.467816 1.7516 0
M  V30 104 C 11.4027 3.60188 0.172335 0
M  V30 105 O 10.5067 3.9339 1.23766 0
M  V30 106 H 9.8477 0.662411 -0.0459059 0
M  V30 107 H 12.3777 1.90066 -0.757365 0
M  V30 108 H 12.3877 4.06129 0.390305 0
M  V30 109 H 11.0627 4.08865 -0.761725 0
M  V30 110 H 9.6397 3.5921 1.00114 0
M  V30 111 N 11.8248 0.280983 1.55075 0
M  V30 112 C 13.2408 -0.0729964 1.59433 0
M  V30 113 C 13.4408 -1.5411 1.29817 0
M  V30 114 O 12.4968 -2.29086 1.06187 0
M  V30 115 C 13.8098 0.306921 2.9913 0
M  V30 116 C 15.3578 0.254023 3.11968 0
M  V30 117 C 15.8328 0.608467 4.5394 0
M  V30 118 N 17.3238 0.560241 4.59799 0
M  V30 119 C 18.0588 0.80722 5.6769 0
M  V30 120 N 17.5548 1.11912 6.83701 0
M  V30 121 N 19.3478 0.735623 5.57266 0
M  V30 122 H 11.4988 1.238 1.7259 0
M  V30 123 H 13.7618 0.500547 0.805082 0
M  V30 124 H 13.4678 1.32816 3.25657 0
M  V30 125 H 13.3418 -0.349363 3.75579 0
M  V30 126 H 15.7288 -0.75794 2.852 0
M  V30 127 H 15.8098 0.944649 2.37718 0
M  V30 128 H 15.4538 1.61814 4.81434 0
M  V30 129 H 15.3838 -0.104013 5.26497 0
M  V30 130 H 17.8748 0.329288 3.76463 0
M  V30 131 H 18.1878 1.29409 7.61888 0
M  V30 132 H 16.5328 1.15695 6.85303 0
M  V30 133 H 19.7238 0.491752 4.6551 0
M  V30 134 H 19.8968 0.931482 6.4127 0
M  V30 135 N 13.3029 -1.57598 0.00835791 0
M  V30 136 C 14.2659 -2.07884 -0.965242 0
M  V30 137 C 15.2659 -0.989825 -1.26725 0
M  V30 138 O 16.4559 -1.25218 -1.21104 0
M  V30 139 C 13.5879 -2.52731 -2.28779 0
M  V30 140 H 14.7809 -2.95178 -0.530112 0
M  V30 141 H 12.3339 -1.54458 -0.239283 0
M  V30 142 H 13.0689 -1.68705 -2.76964 0
M  V30 143 H 12.8539 -3.32272 -2.08177 0
M  V30 144 H 14.3439 -2.91933 -2.98605 0
M  V30 145 N 14.781 0.264519 -1.55364 0
M  V30 146 C 15.711 1.33121 -1.91836 0
M  V30 147 C 16.692 1.51101 -0.781192 0
M  V30 148 O 17.877 1.64003 -1.04003 0
M  V30 149 C 15.007 2.68921 -2.19769 0
M  V30 150 C 13.961 2.65661 -3.35571 0
M  V30 151 C 13.287 4.05093 -3.49004 0
M  V30 152 C 14.587 2.24187 -4.71739 0
M  V30 153 H 16.281 1.02844 -2.81182 0
M  V30 154 H 13.827 0.493286 -1.35287 0
M  V30 155 H 15.78 3.43663 -2.43872 0
M  V30 156 H 14.504 3.00799 -1.27231 0
M  V30 157 H 13.163 1.93377 -3.1145 0
M  V30 158 H 12.811 4.34206 -2.53917 0
M  V30 159 H 12.511 4.03804 -4.26868 0
M  V30 160 H 14.035 4.81561 -3.75408 0
M  V30 161 H 15.449 2.88654 -4.9533 0
M  V30 162 H 13.846 2.34044 -5.52579 0
M  V30 163 H 14.916 1.19327 -4.69988 0
M  V30 164 N 16.2591 1.48442 0.529413 0
M  V30 165 C 17.1891 1.65902 1.64313 0
M  V30 166 C 18.1701 0.507897 1.6234 0
M  V30 167 O 19.3551 0.740503 1.79528 0
M  V30 168 C 16.4851 1.69911 3.02898 0
M  V30 169 C 15.4391 2.8453 3.19729 0
M  V30 170 C 14.7651 2.73629 4.59381 0
M  V30 171 C 16.0651 4.25821 3.02447 0
M  V30 172 H 17.7591 2.5914 1.49955 0
M  V30 173 H 15.3051 1.24709 0.719982 0
M  V30 174 H 17.2581 1.80715 3.80684 0
M  V30 175 H 15.9821 0.732524 3.18279 0
M  V30 176 H 14.6411 2.73283 2.44361 0
M  V30 177 H 14.2891 1.74938 4.71599 0
M  V30 178 H 13.9891 3.50541 4.71588 0
M  V30 179 H 15.5131 2.86401 5.39265 0
M  V30 180 H 16.9271 4.37898 3.70024 0
M  V30 181 H 15.3241 5.03735 3.26146 0
M  V30 182 H 16.3941 4.42244 1.98867 0
M  V30 183 N 17.7372 -0.778329 1.37039 0
M  V30 184 C 18.6672 -1.90546 1.34962 0
M  V30 185 C 19.6482 -1.68681 0.219274 0
M  V30 186 O 20.8332 -1.89634 0.418624 0
M  V30 187 C 17.9632 -3.27734 1.14925 0
M  V30 188 C 16.9172 -3.64147 2.24902 0
M  V30 189 C 16.2432 -4.99806 1.89996 0
M  V30 190 C 17.5432 -3.71579 3.67051 0
M  V30 191 H 19.2372 -1.92541 2.29277 0
M  V30 192 H 16.7832 -0.924948 1.10366 0
M  V30 193 H 18.7362 -4.06215 1.12104 0
M  V30 194 H 17.4602 -3.26154 0.170631 0
M  V30 195 H 16.1192 -2.8797 2.26868 0
M  V30 196 H 15.7672 -4.94759 0.906796 0
M  V30 197 H 15.4672 -5.25139 2.63634 0
M  V30 198 H 16.9912 -5.80694 1.88749 0
M  V30 199 H 18.4052 -4.40227 3.67251 0
M  V30 200 H 16.8022 -4.08405 4.39688 0
M  V30 201 H 17.8722 -2.72404 4.01154 0
M  V30 202 N 19.2153 -1.21501 -1.00376 0
M  V30 203 C 20.1453 -0.999478 -2.11028 0
M  V30 204 C 21.1263 0.0759671 -1.6993 0
M  V30 205 O 22.3113 -0.0841106 -1.94018 0
M  V30 206 C 19.4413 -0.564709 -3.42678 0
M  V30 207 C 18.3953 -1.58486 -3.97576 0
M  V30 208 C 17.7213 -1.00628 -5.25146 0
M  V30 209 C 19.0213 -2.97204 -4.29496 0
M  V30 210 H 20.7153 -1.92495 -2.29317 0
M  V30 211 H 18.2613 -0.92693 -1.102 0
M  V30 212 H 20.2143 -0.401091 -4.19487 0
M  V30 213 H 18.9383 0.396411 -3.24185 0
M  V30 214 H 17.5973 -1.73606 -3.22888 0
M  V30 215 H 17.2453 -0.0368439 -5.02987 0
M  V30 216 H 16.9453 -1.68771 -5.62841 0
M  V30 217 H 18.4693 -0.854015 -6.04598 0
M  V30 218 H 19.8833 -2.8552 -4.97143 0
M  V30 219 H 18.2803 -3.62372 -4.78338 0
M  V30 220 H 19.3503 -3.47956 -3.3772 0
M  V30 221 N 20.6934 1.19889 -1.02296 0
M  V30 222 C 21.6234 2.25141 -0.619174 0
M  V30 223 C 22.6044 1.66051 0.368915 0
M  V30 224 O 23.7894 1.92546 0.252941 0
M  V30 225 C 20.9194 3.4728 0.0368783 0
M  V30 226 C 19.8734 4.19005 -0.872865 0
M  V30 227 C 19.1994 5.34637 -0.0822402 0
M  V30 228 C 20.4994 4.74452 -2.18387 0
M  V30 229 H 22.1934 2.59171 -1.49903 0
M  V30 230 H 19.7394 1.24579 -0.722222 0
M  V30 231 H 21.6924 4.20098 0.330958 0
M  V30 232 H 20.4164 3.12433 0.95149 0
M  V30 233 H 19.0754 3.48061 -1.15105 0
M  V30 234 H 18.7234 4.96034 0.83422 0
M  V30 235 H 18.4234 5.83557 -0.688149 0
M  V30 236 H 19.9474 6.10255 0.205238 0
M  V30 237 H 21.3614 5.39055 -1.95172 0
M  V30 238 H 19.7584 5.33834 -2.74119 0
M  V30 239 H 20.8284 3.92844 -2.84257 0
M  V30 240 N 22.1715 0.800033 1.35784 0
M  V30 241 C 23.4185 0.377342 1.98953 0
M  V30 242 C 23.7465 -1.05378 1.6348 0
M  V30 243 O 23.0015 -1.74459 0.886707 0
M  V30 244 C 23.3005 0.500276 3.53881 0
M  V30 245 C 22.9665 1.89375 4.09204 0
M  V30 246 C 21.6285 2.27499 4.24025 0
M  V30 247 C 23.9805 2.8057 4.39238 0
M  V30 248 C 21.3085 3.562 4.66195 0
M  V30 249 C 23.6605 4.0871 4.82844 0
M  V30 250 C 22.3245 4.46843 4.95871 0
M  V30 251 H 21.5945 0.138079 0.728021 0
M  V30 252 H 24.2415 1.01955 1.62103 0
M  V30 253 H 22.5465 -0.225405 3.91151 0
M  V30 254 H 24.2435 0.154097 4.00704 0
M  V30 255 H 20.8335 1.58753 3.98115 0
M  V30 256 H 25.0175 2.52367 4.27346 0
M  V30 257 H 20.2735 3.85602 4.74469 0
M  V30 258 H 24.4475 4.79481 5.05046 0
M  V30 259 H 22.0745 5.46623 5.28306 0
M  V30 260 N 23.6496 -1.47581 0.552962 0
M  V30 261 C 24.5796 -2.32762 -0.185451 0
M  V30 262 C 25.5606 -1.43527 -0.912905 0
M  V30 263 O 26.7456 -1.72388 -0.894201 0
M  V30 264 C 23.8756 -3.25219 -1.21859 0
M  V30 265 C 22.8296 -4.23661 -0.607864 0
M  V30 266 C 22.1556 -5.05413 -1.74533 0
M  V30 267 C 23.4556 -5.20481 0.435582 0
M  V30 268 H 25.1496 -2.94749 0.525684 0
M  V30 269 H 22.6956 -1.41738 0.254251 0
M  V30 270 H 24.6486 -3.8365 -1.7433 0
M  V30 271 H 23.3726 -2.61279 -1.95961 0
M  V30 272 H 22.0316 -3.66451 -0.104489 0
M  V30 273 H 21.6796 -4.3788 -2.47529 0
M  V30 274 H 21.3796 -5.72059 -1.34249 0
M  V30 275 H 22.9036 -5.66701 -2.27338 0
M  V30 276 H 24.3176 -5.733 -0.00290157 0
M  V30 277 H 22.7146 -5.95305 0.757067 0
M  V30 278 H 23.7846 -4.66217 1.33303 0
M  V30 279 N 25.1277 -0.289203 -1.54924 0
M  V30 280 C 26.0777 0.606939 -2.19773 0
M  V30 281 C 27.0617 1.10783 -1.16687 0
M  V30 282 O 28.2537 1.05057 -1.4245 0
M  V30 283 C 25.3827 1.78398 -2.93307 0
M  V30 284 C 24.4687 1.29961 -4.03697 0
M  V30 285 N 24.8597 0.532377 -5.0299 0
M  V30 286 C 23.1577 1.58136 -4.17024 0
M  V30 287 C 23.8587 0.275912 -5.81045 0
M  V30 288 N 22.8347 0.852365 -5.36876 0
M  V30 289 H 26.6367 0.0130779 -2.93897 0
M  V30 290 H 24.1507 -0.09341 -1.62131 0
M  V30 291 H 26.1477 2.43741 -3.38225 0
M  V30 292 H 24.8077 2.38166 -2.20697 0
M  V30 293 H 25.8187 0.17838 -5.17593 0
M  V30 294 H 22.4957 2.18738 -3.55612 0
M  V30 295 H 23.8857 -0.339502 -6.71042 0
M  V30 296 N 26.6058 1.57591 -0.0167156 0
M  V30 297 C 27.5358 2.12496 0.967858 0
M  V30 298 C 28.5168 1.03807 1.34752 0
M  V30 299 O 29.7018 1.31577 1.42833 0
M  V30 300 C 26.8318 2.64194 2.25431 0
M  V30 301 C 25.7858 3.77559 2.01576 0
M  V30 302 C 25.1118 4.15636 3.36379 0
M  V30 303 C 26.4118 5.04151 1.36489 0
M  V30 304 H 28.1058 2.95013 0.510643 0
M  V30 305 H 25.6518 1.41915 0.244181 0
M  V30 306 H 27.6048 3.01236 2.94678 0
M  V30 307 H 26.3288 1.78821 2.73296 0
M  V30 308 H 24.9878 3.40937 1.34751 0
M  V30 309 H 24.6358 3.27263 3.81979 0
M  V30 310 H 24.3358 4.92022 3.21229 0
M  V30 311 H 25.8598 4.5525 4.06915 0
M  V30 312 H 27.2738 5.38857 1.95718 0
M  V30 313 H 25.6708 5.85453 1.31776 0
M  V30 314 H 26.7408 4.83733 0.336219 0
M  V30 315 N 28.0839 -0.256276 1.55502 0
M  V30 316 C 29.0469 -1.30047 1.88734 0
M  V30 317 C 30.0469 -1.4154 0.763086 0
M  V30 318 O 31.2369 -1.40403 1.03115 0
M  V30 319 C 28.3689 -2.67953 2.10747 0
M  V30 320 H 29.5619 -1.01802 2.82093 0
M  V30 321 H 27.1149 -0.495134 1.4825 0
M  V30 322 H 27.8499 -3.01351 1.19825 0
M  V30 323 H 27.6349 -2.60993 2.92617 0
M  V30 324 H 29.1249 -3.43368 2.37673 0
M  V30 325 N 29.562 -1.4872 -0.521534 0
M  V30 326 C 30.809 -1.57168 -1.27689 0
M  V30 327 C 31.137 -0.249275 -1.92896 0
M  V30 328 O 30.392 0.761162 -1.80291 0
M  V30 329 C 30.691 -2.66497 -2.38148 0
M  V30 330 C 30.357 -4.08664 -1.90538 0
M  V30 331 C 29.019 -4.47357 -1.77271 0
M  V30 332 C 31.371 -4.97724 -1.54663 0
M  V30 333 C 28.699 -5.72905 -1.26478 0
M  V30 334 C 31.051 -6.2377 -1.05329 0
M  V30 335 C 29.715 -6.61311 -0.906861 0
M  V30 336 H 28.985 -0.575117 -0.467249 0
M  V30 337 H 31.632 -1.82472 -0.581051 0
M  V30 338 H 29.937 -2.35085 -3.13437 0
M  V30 339 H 31.634 -2.70246 -2.96257 0
M  V30 340 H 28.224 -3.78111 -2.01816 0
M  V30 341 H 32.408 -4.68501 -1.63768 0
M  V30 342 H 27.664 -6.00709 -1.13835 0
M  V30 343 H 31.838 -6.9217 -0.76644 0
M  V30 344 H 29.465 -7.5848 -0.511083 0
M  V30 345 N 31.0401 0.771051 -1.3745 0
M  V30 346 C 31.9701 1.89827 -1.3597 0
M  V30 347 C 32.9511 1.68562 -0.228216 0
M  V30 348 O 34.1361 1.8941 -0.428675 0
M  V30 349 C 31.2661 3.2712 -1.16662 0
M  V30 350 C 30.2201 3.6295 -2.2683 0
M  V30 351 C 29.5461 4.98791 -1.92644 0
M  V30 352 C 30.8461 3.69627 -3.69017 0
M  V30 353 H 32.5401 1.91323 -2.30295 0
M  V30 354 H 30.0861 0.919082 -1.10855 0
M  V30 355 H 32.0391 4.05615 -1.14256 0
M  V30 356 H 30.7631 3.26059 -0.187926 0
M  V30 357 H 29.4221 2.86763 -2.28392 0
M  V30 358 H 29.0701 4.94271 -0.933021 0
M  V30 359 H 28.7701 5.23733 -2.66416 0
M  V30 360 H 30.2941 5.79685 -1.91826 0
M  V30 361 H 31.7081 4.38273 -3.69581 0
M  V30 362 H 30.1051 4.06067 -4.41848 0
M  V30 363 H 31.1751 2.70273 -4.02592 0
M  V30 364 N 32.5182 1.22032 0.997298 0
M  V30 365 C 33.7662 1.04016 1.73278 0
M  V30 366 C 34.0872 -0.426255 1.90284 0
M  V30 367 O 33.3572 -1.30694 1.45931 0
M  V30 368 H 31.9372 0.381897 0.642 0
M  V30 369 H 34.5992 1.5347 1.20137 0
M  V30 370 H 33.6952 1.51441 2.72896 0
M  V30 371 N 33.9963 -1.19345 1.0293 0
M  V30 372 C 35.2443 -1.88665 0.724574 0
M  V30 373 C 35.5653 -1.80036 -0.749144 0
M  V30 374 O 34.8353 -1.2111 -1.53978 0
M  V30 375 H 33.4153 -0.698406 0.265025 0
M  V30 376 H 36.0773 -1.44885 1.30362 0
M  V30 377 H 35.1733 -2.94987 1.01926 0
M  V30 378 N 35.4744 -0.807222 -1.35358 0
M  V30 379 C 36.8904 -0.491038 -1.51858 0
M  V30 380 C 37.0904 0.987648 -1.75635 0
M  V30 381 O 36.1464 1.77265 -1.79815 0
M  V30 382 C 37.4594 -1.33695 -2.69344 0
M  V30 383 C 39.0074 -1.33246 -2.83222 0
M  V30 384 C 39.4824 -2.1625 -4.03733 0
M  V30 385 N 40.9734 -2.1379 -4.10911 0
M  V30 386 C 41.7084 -2.74772 -5.03277 0
M  V30 387 N 41.2044 -3.44684 -6.0097 0
M  V30 388 N 42.9974 -2.6441 -4.96028 0
M  V30 389 H 35.1484 -1.76485 -1.18181 0
M  V30 390 H 37.4114 -0.751199 -0.578276 0
M  V30 391 H 37.1174 -2.38634 -2.58354 0
M  V30 392 H 36.9914 -0.990618 -3.6396 0
M  V30 393 H 39.3784 -0.290911 -2.93663 0
M  V30 394 H 39.4594 -1.71866 -1.89461 0
M  V30 395 H 39.1034 -3.20445 -3.94052 0
M  V30 396 H 39.0334 -1.74989 -4.96675 0
M  V30 397 H 41.5244 -1.62923 -3.40976 0
M  V30 398 H 41.8374 -3.88501 -6.68047 0
M  V30 399 H 40.1824 -3.48788 -6.01142 0
M  V30 400 H 43.3734 -2.0938 -4.18662 0
M  V30 401 H 43.5464 -3.12225 -5.6782 0
M  V30 402 N 36.9525 1.47285 -0.560781 0
M  V30 403 C 38.1775 2.07359 -0.0410566 0
M  V30 404 C 38.6025 1.41017 1.24483 0
M  V30 405 O 37.9605 0.486368 1.74654 0
M  V30 406 C 38.0085 3.6035 0.134123 0
M  V30 407 O 37.1125 3.94681 1.19587 0
M  V30 408 H 36.4535 0.661887 -0.0529291 0
M  V30 409 H 38.9835 1.89252 -0.777482 0
M  V30 410 H 38.9935 4.0652 0.347207 0
M  V30 411 H 37.6685 4.08034 -0.805047 0
M  V30 412 H 36.2455 3.60251 0.962987 0
M  V30 413 N 38.4306 0.297415 1.54768 0
M  V30 414 C 39.3806 -0.595275 2.20092 0
M  V30 415 C 40.3646 -1.10163 1.17273 0
M  V30 416 O 41.5566 -1.043 1.43006 0
M  V30 417 C 38.6856 -1.7684 2.94249 0
M  V30 418 C 37.7716 -1.27818 4.0438 0
M  V30 419 N 38.1626 -0.505695 5.03266 0
M  V30 420 C 36.4606 -1.55923 4.17857 0
M  V30 421 C 37.1616 -0.245094 5.81183 0
M  V30 422 N 36.1376 -0.823881 5.3732 0
M  V30 423 H 39.9396 0.00250837 2.939 0
M  V30 424 H 37.4536 0.102007 1.62079 0
M  V30 425 H 39.4506 -2.41944 3.39513 0
M  V30 426 H 38.1106 -2.36992 2.21957 0
M  V30 427 H 39.1216 -0.150928 5.1768 0
M  V30 428 H 35.7986 -2.16849 3.56767 0
M  V30 429 H 37.1886 0.375084 6.70852 0
M  V30 430 N 39.9087 -1.5758 0.0250728 0
M  V30 431 C 41.3197 -1.79476 -0.514323 0
M  V30 432 C 41.6707 -0.934956 -1.72491 0
M  V30 433 O 40.7957 -0.144245 -2.15919 0
M  V30 434 C 41.3907 -3.25503 -0.939842 0
M  V30 435 C 39.9497 -3.48408 -1.42438 0
M  V30 436 C 39.0967 -2.74583 -0.387201 0
M  V30 437 H 42.0477 -1.567 0.25113 0
M  V30 438 H 42.0687 -3.34992 -1.80445 0
M  V30 439 H 41.5807 -3.88056 -0.0585628 0
M  V30 440 H 39.6817 -2.91103 -2.32572 0
M  V30 441 H 39.7947 -4.57119 -1.43455 0
M  V30 442 H 38.1587 -2.39942 -0.854409 0
M  V30 443 H 38.9417 -3.39849 0.485543 0
M  V30 444 N 41.3868 0.248026 -1.55636 0
M  V30 445 C 42.3168 1.31079 -1.93237 0
M  V30 446 C 43.2978 1.50264 -0.797174 0
M  V30 447 O 44.4828 1.62891 -1.05737 0
M  V30 448 C 41.6128 2.66575 -2.22609 0
M  V30 449 C 40.5668 2.62087 -3.3837 0
M  V30 450 C 39.8928 4.01369 -3.53281 0
M  V30 451 C 41.1928 2.19171 -4.7409 0
M  V30 452 H 42.8868 0.998556 -2.82257 0
M  V30 453 H 40.4328 0.47891 -1.35803 0
M  V30 454 H 42.3858 3.41057 -2.47503 0
M  V30 455 H 41.1098 2.99432 -1.30414 0
M  V30 456 H 39.7688 1.90063 -3.13483 0
M  V30 457 H 39.4168 4.31489 -2.58508 0
M  V30 458 H 39.1168 3.99254 -4.31127 0
M  V30 459 H 40.6408 4.77552 -3.80495 0
M  V30 460 H 42.0548 2.83384 -4.98363 0
M  V30 461 H 40.4518 2.2817 -5.5503 0
M  V30 462 H 41.5218 1.14336 -4.71227 0
M  V30 463 N 42.8649 1.48995 0.513639 0
M  V30 464 C 44.1129 1.57531 1.26604 0
M  V30 465 C 44.4339 0.258236 1.93283 0
M  V30 466 O 43.7039 -0.721502 1.8213 0
M  V30 467 H 42.2839 0.580387 0.470276 0
M  V30 468 H 44.9459 1.85552 0.596373 0
M  V30 469 H 44.0419 2.36486 2.03669 0
M  V30 470 N 44.343 -0.763751 1.37857 0
M  V30 471 C 45.568 -1.55805 1.36893 0
M  V30 472 C 45.993 -1.88054 -0.0416135 0
M  V30 473 O 45.351 -1.49825 -1.02089 0
M  V30 474 C 45.399 -2.84012 2.22192 0
M  V30 475 O 44.503 -3.78732 1.63204 0
M  V30 476 H 43.844 -0.471638 0.46739 0
M  V30 477 H 46.374 -0.944657 1.81487 0
M  V30 478 H 46.384 -3.33037 2.35691 0
M  V30 479 H 45.059 -2.59869 3.24716 0
M  V30 480 H 43.636 -3.37402 1.58791 0
M  V30 481 N 45.8211 -1.22559 -0.990812 0
M  V30 482 C 47.2321 -1.04791 -1.54518 0
M  V30 483 C 47.5831 0.387998 -1.92325 0
M  V30 484 O 46.7081 1.27328 -1.74976 0
M  V30 485 C 47.3031 -1.896 -2.80779 0
M  V30 486 C 45.8621 -1.76124 -3.32652 0
M  V30 487 C 45.0091 -1.8594 -2.05722 0
M  V30 488 H 47.9601 -1.36374 -0.811662 0
M  V30 489 H 47.9811 -1.41464 -3.53225 0
M  V30 490 H 47.4931 -2.94101 -2.53231 0
M  V30 491 H 45.5941 -0.743643 -3.65104 0
M  V30 492 H 45.7071 -2.58913 -4.03114 0
M  V30 493 H 44.0711 -1.29403 -2.19379 0
M  V30 494 H 44.8541 -2.91976 -1.80568 0
M  V30 495 N 47.2992 1.18797 -1.03562 0
M  V30 496 C 48.5472 1.88278 -0.734569 0
M  V30 497 C 48.8682 1.8043 0.739586 0
M  V30 498 O 48.1382 1.21925 1.53333 0
M  V30 499 H 46.7182 0.696991 -0.268725 0
M  V30 500 H 49.3802 1.44192 -1.31129 0
M  V30 501 H 48.4762 2.94443 -1.03489 0
M  V30 502 N 48.7773 0.814389 1.34928 0
M  V30 503 C 50.0023 0.410097 2.03305 0
M  V30 504 C 50.4273 -0.973464 1.60951 0
M  V30 505 O 49.7853 -1.63185 0.789964 0
M  V30 506 C 49.8333 0.51049 3.56968 0
M  V30 507 O 48.9373 -0.473035 4.09678 0
M  V30 508 H 48.2783 0.170088 0.641846 0
M  V30 509 H 50.8083 1.10244 1.72358 0
M  V30 510 H 50.8183 0.383135 4.06197 0
M  V30 511 H 49.4933 1.51963 3.87144 0
M  V30 512 H 48.0703 -0.305272 3.71648 0
M  V30 513 N 50.2554 -1.46986 0.568584 0
M  V30 514 C 51.2184 -2.28624 -0.162366 0
M  V30 515 C 52.2184 -1.37596 -0.832103 0
M  V30 516 O 53.4084 -1.60115 -0.68622 0
M  V30 517 C 50.5404 -3.17596 -1.23878 0
M  V30 518 H 51.7334 -2.94722 0.554899 0
M  V30 519 H 49.2864 -1.52863 0.325976 0
M  V30 520 H 50.0214 -2.56214 -1.98808 0
M  V30 521 H 49.8064 -3.846 -0.763219 0
M  V30 522 H 51.2964 -3.79078 -1.75185 0
M  V30 523 N 51.7335 -0.305618 -1.54608 0
M  V30 524 C 52.9585 0.307562 -2.05107 0
M  V30 525 C 53.3835 1.46385 -1.18123 0
M  V30 526 O 52.7415 1.8034 -0.186324 0
M  V30 527 C 52.7895 0.73704 -3.52987 0
M  V30 528 O 51.8935 1.84134 -3.6901 0
M  V30 529 H 51.2345 0.0589143 -0.661381 0
M  V30 530 H 53.7645 -0.448807 -1.99617 0
M  V30 531 H 53.7745 1.02459 -3.94925 0
M  V30 532 H 52.4495 -0.108773 -4.15758 0
M  V30 533 H 51.0265 1.55398 -3.38978 0
M  V30 534 N 53.2116 1.57565 -0.0334293 0
M  V30 535 C 54.4886 1.83282 0.683163 0
M  V30 536 C 54.8686 0.91823 1.90084 0
M  V30 537 O 54.2166 -0.025113 2.28486 0
M  V30 538 C 54.4266 3.32599 1.0573 0
M  V30 539 C 55.7746 3.99179 1.44711 0
M  V30 540 O 56.7986 3.3712 1.15015 0
M  V30 541 O 55.6576 5.08565 2.0006 0
M  V30 542 H 52.7516 0.755869 0.335546 0
M  V30 543 H 55.2976 1.69589 -0.0614402 0
M  V30 544 H 54.0696 3.90834 0.190828 0
M  V30 545 H 53.6926 3.51415 1.85993 0
M  V30 546 N 54.6897 -0.239769 1.55765 0
M  V30 547 C 55.6197 -1.30052 1.9393 0
M  V30 548 C 56.6007 -1.49839 0.805132 0
M  V30 549 O 57.7857 -1.62328 1.06599 0
M  V30 550 C 54.9157 -2.65391 2.2402 0
M  V30 551 C 53.8697 -2.60289 3.39755 0
M  V30 552 C 53.1957 -3.99489 3.55405 0
M  V30 553 C 54.4957 -2.16654 4.75246 0
M  V30 554 H 56.1897 -0.983573 2.82783 0
M  V30 555 H 53.7357 -0.471701 1.36055 0
M  V30 556 H 55.6887 -3.3974 2.49308 0
M  V30 557 H 54.4127 -2.98736 1.32 0
M  V30 558 H 53.0717 -1.88398 3.14487 0
M  V30 559 H 52.7197 -4.30112 2.60793 0
M  V30 560 H 52.4197 -3.96962 4.33238 0
M  V30 561 H 53.9437 -4.75528 3.83022 0
M  V30 562 H 55.3577 -2.80737 4.99859 0
M  V30 563 H 53.7547 -2.25223 5.56232 0
M  V30 564 H 54.8247 -1.11835 4.71827 0
M  V30 565 N 56.1678 -1.49265 -0.50573 0
M  V30 566 C 57.0778 -1.68312 -1.63427 0
M  V30 567 C 58.0938 -0.565682 -1.64548 0
M  V30 568 O 59.2698 -0.839801 -1.83055 0
M  V30 569 C 56.3348 -1.74107 -2.99813 0
M  V30 570 C 55.3958 -2.97653 -3.09356 0
M  V30 571 C 54.6288 -3.03163 -4.39236 0
M  V30 572 O 54.8518 -2.16396 -5.27758 0
M  V30 573 O 53.7858 -3.9558 -4.53652 0
M  V30 574 H 57.6118 -2.63907 -1.50289 0
M  V30 575 H 55.1968 -1.32951 -0.681502 0
M  V30 576 H 57.0788 -1.803 -3.80881 0
M  V30 577 H 55.7538 -0.816901 -3.13223 0
M  V30 578 H 54.6608 -2.96981 -2.27493 0
M  V30 579 H 55.9938 -3.89535 -3.00871 0
M  V30 580 N 57.6459 0.756429 -1.3826 0
M  V30 581 C 58.8739 1.54565 -1.3754 0
M  V30 582 C 59.2889 1.88767 0.0355331 0
M  V30 583 O 58.6459 1.52572 1.0014 0
M  V30 584 C 58.6969 2.84654 -2.22833 0
M  V30 585 O 58.4179 2.51912 -3.5843 0
M  V30 586 C 59.9189 3.78807 -2.30261 0
M  V30 587 H 57.1389 0.478353 -0.470553 0
M  V30 588 H 59.6829 0.936381 -1.81803 0
M  V30 589 H 57.8379 3.41965 -1.8204 0
M  V30 590 H 58.2519 3.35325 -4.03308 0
M  V30 591 H 59.7259 4.67045 -2.94233 0
M  V30 592 H 60.2029 4.19038 -1.31545 0
M  V30 593 H 60.8089 3.2742 -2.71433 0
M  V30 594 N 59.124 1.23083 0.984299 0
M  V30 595 C 60.349 1.088 1.76571 0
M  V30 596 C 60.774 -0.356657 1.84688 0
M  V30 597 O 60.132 -1.25788 1.30565 0
M  V30 598 C 60.18 1.71371 3.17277 0
M  V30 599 O 59.284 0.973213 4.00752 0
M  V30 600 H 58.625 0.381599 0.543395 0
M  V30 601 H 61.155 1.63057 1.23587 0
M  V30 602 H 61.165 1.76449 3.67872 0
M  V30 603 H 59.84 2.76493 3.10684 0
M  V30 604 H 58.417 0.999078 3.59267 0
M  V30 605 N 60.6021 -1.18246 1.0419 0
M  V30 606 C 61.8501 -1.87886 0.744543 0
M  V30 607 C 62.1711 -1.8082 -0.730006 0
M  V30 608 O 61.4411 -1.22736 -1.52685 0
M  V30 609 H 60.0211 -0.695556 0.272417 0
M  V30 610 H 62.6831 -1.43494 1.31892 0
M  V30 611 H 61.7791 -2.9389 1.05049 0
M  V30 612 N 62.0802 -0.821533 -1.34494 0
M  V30 613 C 63.0102 -0.257138 -2.3208 0
M  V30 614 C 63.9912 0.625645 -1.58176 0
M  V30 615 O 65.1762 0.552811 -1.86166 0
M  V30 616 C 62.3062 0.582958 -3.42372 0
M  V30 617 C 61.2602 -0.202571 -4.2752 0
M  V30 618 C 60.5862 0.760179 -5.29269 0
M  V30 619 C 61.8862 -1.40998 -5.02908 0
M  V30 620 H 63.5802 -1.07247 -2.79532 0
M  V30 621 H 61.1262 -0.517163 -1.34393 0
M  V30 622 H 63.0792 0.987972 -4.09655 0
M  V30 623 H 61.8032 1.43133 -2.93565 0
M  V30 624 H 60.4622 -0.588936 -3.61838 0
M  V30 625 H 60.1102 1.60447 -4.76724 0
M  V30 626 H 59.8102 0.238809 -5.87115 0
M  V30 627 H 61.3342 1.16308 -5.9942 0
M  V30 628 H 62.7482 -1.07905 -5.63054 0
M  V30 629 H 61.1452 -1.86689 -5.70322 0
M  V30 630 H 62.2152 -2.1889 -4.32684 0
M  V30 631 N 63.5583 1.46682 -0.576371 0
M  V30 632 C 64.4903 2.28341 0.198231 0
M  V30 633 C 65.5033 1.38141 0.861453 0
M  V30 634 O 66.6923 1.62797 0.732082 0
M  V30 635 C 63.7923 3.12986 1.29972 0
M  V30 636 C 62.9653 4.31271 0.729639 0
M  V30 637 C 62.0243 4.97363 1.71803 0
M  V30 638 O 61.0503 5.55156 1.25658 0
M  V30 639 N 62.2523 4.93796 3.05198 0
M  V30 640 H 65.0173 2.9546 -0.502324 0
M  V30 641 H 62.5783 1.56525 -0.413715 0
M  V30 642 H 64.5703 3.54066 1.96008 0
M  V30 643 H 63.1403 2.47984 1.90323 0
M  V30 644 H 62.3603 3.94052 -0.108012 0
M  V30 645 H 63.6483 5.07739 0.328438 0
M  V30 646 H 63.0463 4.48077 3.45317 0
M  V30 647 H 61.6033 5.38837 3.6674 0
M  V30 648 N 65.0364 0.313813 1.54444 0
M  V30 649 C 65.9464 -0.565714 2.27677 0
M  V30 650 C 66.9624 -1.13754 1.31666 0
M  V30 651 O 68.1384 -1.15959 1.64668 0
M  V30 652 C 65.2034 -1.71528 3.01296 0
M  V30 653 C 64.2644 -1.17624 4.12872 0
M  V30 654 C 63.4974 -2.27102 4.8297 0
M  V30 655 O 63.7204 -3.47256 4.52514 0
M  V30 656 O 62.6544 -1.9307 5.70094 0
M  V30 657 H 66.4804 0.0287296 3.03686 0
M  V30 658 H 64.0654 0.0798312 1.49187 0
M  V30 659 H 65.9474 -2.38476 3.4743 0
M  V30 660 H 64.6224 -2.29608 2.2817 0
M  V30 661 H 63.5294 -0.472124 3.71109 0
M  V30 662 H 64.8624 -0.640695 4.88012 0
M  V30 663 N 66.5145 -1.57545 0.0417849 0
M  V30 664 C 67.4465 -2.07904 -0.964799 0
M  V30 665 C 68.4595 -1.00497 -1.28079 0
M  V30 666 O 69.6485 -1.28087 -1.24322 0
M  V30 667 C 66.7485 -2.49928 -2.28887 0
M  V30 668 C 65.9215 -3.80562 -2.15619 0
M  V30 669 C 64.9805 -4.08999 -3.31069 0
M  V30 670 O 64.0065 -4.79061 -3.0739 0
M  V30 671 N 65.2085 -3.6017 -4.55256 0
M  V30 672 H 67.9735 -2.94886 -0.535029 0
M  V30 673 H 65.5345 -1.61252 -0.144681 0
M  V30 674 H 67.5265 -2.66034 -3.04972 0
M  V30 675 H 66.0965 -1.68245 -2.63463 0
M  V30 676 H 65.3165 -3.74129 -1.24183 0
M  V30 677 H 66.6045 -4.66126 -2.03971 0
M  V30 678 H 66.0025 -3.03512 -4.77386 0
M  V30 679 H 64.5595 -3.81532 -5.28466 0
M  V30 680 N 67.9926 0.231505 -1.5589 0
M  V30 681 C 69.4086 0.580748 -1.48659 0
M  V30 682 C 69.6086 1.87617 -0.73498 0
M  V30 683 O 68.6646 2.51046 -0.270586 0
M  V30 684 C 69.9776 0.669202 -2.93159 0
M  V30 685 C 71.5256 0.760499 -3.03621 0
M  V30 686 C 72.0006 0.880383 -4.49459 0
M  V30 687 N 73.4916 0.944861 -4.53461 0
M  V30 688 C 74.2266 1.05716 -5.63571 0
M  V30 689 N 73.7226 1.13403 -6.83456 0
M  V30 690 N 75.5156 1.09152 -5.514 0
M  V30 691 H 67.6666 -0.618695 -2.03189 0
M  V30 692 H 69.9296 -0.215728 -0.923128 0
M  V30 693 H 69.6356 -0.212904 -3.51055 0
M  V30 694 H 69.5096 1.5361 -3.44505 0
M  V30 695 H 71.8966 1.63305 -2.45796 0
M  V30 696 H 71.9776 -0.131864 -2.5546 0
M  V30 697 H 71.6216 0.0123284 -5.07899 0
M  V30 698 H 71.5516 1.78802 -4.95316 0
M  V30 699 H 74.0426 0.896176 -3.6712 0
M  V30 700 H 74.3556 1.21921 -7.63122 0
M  V30 701 H 72.7006 1.10333 -6.86186 0
M  V30 702 H 75.8916 1.02805 -4.56671 0
M  V30 703 H 76.0646 1.17558 -6.37247 0
M  V30 704 N 69.4707 1.49531 0.497807 0
M  V30 705 C 70.4187 1.66926 1.61983 0
M  V30 706 C 71.4127 0.535167 1.60724 0
M  V30 707 O 72.6187 0.714896 1.65195 0
M  V30 708 H 68.9937 0.526415 0.537021 0
M  V30 709 H 70.9647 2.61098 1.44465 0
M  V30 710 C 69.7137 1.75602 3.00099 0
M  V30 711 H 69.0367 2.62244 3.01775 0
M  V30 712 H 70.4767 1.91807 3.78135 0
M  V30 713 C 68.9357 0.501543 3.33146 0
M  V30 714 O 69.4657 -0.371342 3.9998 0
M  V30 715 N 67.6717 0.363531 2.88317 0
M  V30 716 H 67.2187 1.07485 2.34104 0
M  V30 717 H 67.1767 -0.474728 3.10795 0
M  V30 718 N 70.9488 -0.749086 1.3866 0
M  V30 719 C 71.8988 -1.85368 1.32751 0
M  V30 720 C 72.8828 -1.59511 0.210945 0
M  V30 721 O 74.0748 -1.71255 0.447299 0
M  V30 722 C 71.2038 -3.23131 1.15935 0
M  V30 723 C 70.2898 -3.54864 2.32233 0
M  V30 724 N 70.6808 -3.57625 3.57684 0
M  V30 725 C 68.9788 -3.85154 2.24883 0
M  V30 726 C 69.6798 -3.86753 4.34508 0
M  V30 727 N 68.6558 -4.03812 3.63918 0
M  V30 728 H 72.4578 -1.85787 2.27729 0
M  V30 729 H 69.9718 -0.946658 1.31955 0
M  V30 730 H 71.9688 -4.02185 1.09786 0
M  V30 731 H 70.6288 -3.23961 0.218947 0
M  V30 732 H 71.6398 -3.39276 3.91295 0
M  V30 733 H 68.3168 -3.93672 1.39027 0
M  V30 734 H 69.7068 -3.95474 5.43185 0
M  V30 735 N 72.4269 -1.23603 -0.977757 0
M  V30 736 C 73.3569 -1.04401 -2.0886 0
M  V30 737 C 74.3379 0.0399052 -1.70053 0
M  V30 738 O 75.5229 -0.125246 -1.93796 0
M  V30 739 C 72.6529 -0.637269 -3.41403 0
M  V30 740 C 71.6069 -1.66883 -3.94124 0
M  V30 741 C 70.9329 -1.11745 -5.22893 0
M  V30 742 C 72.2329 -3.06247 -4.23096 0
M  V30 743 H 73.9269 -1.97316 -2.25182 0
M  V30 744 H 71.4729 -0.950096 -1.08209 0
M  V30 745 H 73.4259 -0.48998 -4.18542 0
M  V30 746 H 72.1499 0.327557 -3.24953 0
M  V30 747 H 70.8089 -1.80416 -3.19133 0
M  V30 748 H 70.4569 -0.143527 -5.02795 0
M  V30 749 H 70.1569 -1.80672 -5.59134 0
M  V30 750 H 71.6809 -0.982067 -6.02651 0
M  V30 751 H 73.0949 -2.96001 -4.90975 0
M  V30 752 H 71.4919 -3.72436 -4.70544 0
M  V30 753 H 72.5619 -3.55041 -3.30263 0
M  V30 754 N 73.905 1.17692 -1.04816 0
M  V30 755 C 74.837 2.21103 -0.603822 0
M  V30 756 C 75.85 1.59411 0.33046 0
M  V30 757 O 77.039 1.7807 0.12379 0
M  V30 758 C 74.139 3.38623 0.136898 0
M  V30 759 C 73.312 4.29888 -0.807137 0
M  V30 760 C 72.371 5.26088 -0.10836 0
M  V30 761 O 71.397 5.64353 -0.741232 0
M  V30 762 N 72.599 5.68882 1.15558 0
M  V30 763 H 75.364 2.59848 -1.49329 0
M  V30 764 H 72.925 1.32553 -0.929587 0
M  V30 765 H 74.917 4.00009 0.614401 0
M  V30 766 H 73.487 2.98508 0.927993 0
M  V30 767 H 72.707 3.65993 -1.46434 0
M  V30 768 H 73.995 4.87759 -1.44807 0
M  V30 769 H 73.393 5.39861 1.69015 0
M  V30 770 H 71.95 6.32429 1.57722 0
M  V30 771 N 75.3831 0.828654 1.34056 0
M  V30 772 C 76.6311 0.41863 1.97717 0
M  V30 773 C 76.9521 -1.02314 1.66002 0
M  V30 774 O 76.2221 -1.71119 0.953683 0
M  V30 775 H 74.8021 0.151809 0.731412 0
M  V30 776 H 77.4641 1.05936 1.63596 0
M  V30 777 H 76.5601 0.542318 3.07352 0
M  V30 778 N 76.8612 -1.46375 0.584142 0
M  V30 779 C 77.8082 -2.30323 -0.148286 0
M  V30 780 C 78.7782 -1.40703 -0.882713 0
M  V30 781 O 79.9632 -1.69651 -0.873099 0
M  V30 782 C 77.1032 -3.25196 -1.15507 0
M  V30 783 C 76.2162 -4.29915 -0.423943 0
M  V30 784 C 75.3512 -5.11914 -1.41838 0
M  V30 785 C 74.3902 -6.08381 -0.673736 0
M  V30 786 N 73.5272 -6.83242 -1.6163 0
M  V30 787 H 78.3672 -2.92427 0.573644 0
M  V30 788 H 75.9042 -1.44118 0.294703 0
M  V30 789 H 77.8622 -3.78646 -1.75166 0
M  V30 790 H 76.4922 -2.64898 -1.8447 0
M  V30 791 H 75.5442 -3.7931 0.287714 0
M  V30 792 H 76.8562 -4.98549 0.158128 0
M  V30 793 H 76.0102 -5.69648 -2.08773 0
M  V30 794 H 74.7492 -4.43243 -2.03438 0
M  V30 795 H 73.7542 -5.49799 0.00938483 0
M  V30 796 H 74.9792 -6.79071 -0.0631082 0
M  V30 797 H 72.9252 -6.1728 -2.22038 0
M  V30 798 H 72.8422 -7.48144 -1.08707 0
M  V30 799 H 74.1102 -7.45534 -2.27596 0
M  V30 800 N 78.3393 -0.321999 -1.54275 0
M  V30 801 C 79.2693 0.537411 -2.27231 0
M  V30 802 C 80.2503 1.12064 -1.27968 0
M  V30 803 O 81.4353 1.14606 -1.56777 0
M  V30 804 C 78.5653 1.69919 -3.02894 0
M  V30 805 C 77.5193 1.24534 -4.09482 0
M  V30 806 C 76.8453 2.49394 -4.72977 0
M  V30 807 C 78.1453 0.361335 -5.21049 0
M  V30 808 H 79.8393 -0.0711406 -2.99315 0
M  V30 809 H 77.3853 -0.0356555 -1.43956 0
M  V30 810 H 79.3383 2.30668 -3.52662 0
M  V30 811 H 78.0623 2.33431 -2.28424 0
M  V30 812 H 76.7213 0.660782 -3.60596 0
M  V30 813 H 76.3693 3.11265 -3.95124 0
M  V30 814 H 76.0693 2.19718 -5.44975 0
M  V30 815 H 77.5933 3.10908 -5.25517 0
M  V30 816 H 79.0073 0.875072 -5.66582 0
M  V30 817 H 77.4043 0.157428 -5.99893 0
M  V30 818 H 78.4743 -0.60822 -4.8107 0
M  V30 819 N 79.8174 1.5752 -0.0501392 0
M  V30 820 C 81.0424 1.97376 0.636997 0
M  V30 821 C 81.4674 0.927466 1.63645 0
M  V30 822 O 80.8254 -0.10941 1.8097 0
M  V30 823 C 80.8734 3.36304 1.30123 0
M  V30 824 O 79.9774 3.34156 2.41689 0
M  V30 825 H 79.3184 0.642998 0.165679 0
M  V30 826 H 81.8484 2.04258 -0.118233 0
M  V30 827 H 81.8584 3.73008 1.65315 0
M  V30 828 H 80.5334 4.11993 0.568746 0
M  V30 829 H 79.1104 3.09196 2.08451 0
M  V30 830 N 81.2955 -0.223234 1.56011 0
M  V30 831 C 82.2055 -1.29766 1.95443 0
M  V30 832 C 83.2215 -1.51373 0.858028 0
M  V30 833 O 84.3975 -1.64536 1.16146 0
M  V30 834 C 81.4625 -2.62772 2.26167 0
M  V30 835 C 80.5235 -2.49482 3.49367 0
M  V30 836 C 79.7565 -3.76145 3.78616 0
M  V30 837 O 79.9795 -4.79087 3.09568 0
M  V30 838 O 78.9135 -3.73358 4.72109 0
M  V30 839 H 82.7395 -0.99309 2.87004 0
M  V30 840 H 80.3245 -0.425958 1.43199 0
M  V30 841 H 82.2065 -3.41327 2.47131 0
M  V30 842 H 80.8815 -2.92913 1.37781 0
M  V30 843 H 79.7885 -1.69133 3.33684 0
M  V30 844 H 81.1215 -2.2428 4.38131 0
M  V30 845 N 82.7736 -1.49793 -0.48987 0
M  V30 846 C 83.7036 -1.70201 -1.59856 0
M  V30 847 C 84.6846 -0.55076 -1.60937 0
M  V30 848 O 85.8696 -0.787841 -1.77501 0
M  V30 849 C 82.9996 -1.77882 -2.98287 0
M  V30 850 C 81.9536 -2.92907 -3.12073 0
M  V30 851 C 81.2796 -2.85712 -4.51965 0
M  V30 852 C 82.5796 -4.3369 -2.91051 0
M  V30 853 H 84.2736 -2.63025 -1.43032 0
M  V30 854 H 81.8196 -1.26574 -0.686664 0
M  V30 855 H 83.7726 -1.90744 -3.75759 0
M  V30 856 H 82.4966 -0.816653 -3.16225 0
M  V30 857 H 81.1556 -2.79665 -2.37029 0
M  V30 858 H 80.8036 -1.8738 -4.66795 0
M  V30 859 H 80.5036 -3.62921 -4.62128 0
M  V30 860 H 82.0276 -3.00598 -5.31482 0
M  V30 861 H 83.4416 -4.47555 -3.58284 0
M  V30 862 H 81.8386 -5.12205 -3.12675 0
M  V30 863 H 82.9086 -4.47362 -1.87071 0
M  V30 864 N 84.2517 0.741722 -1.39055 0
M  V30 865 C 85.1837 1.8657 -1.33133 0
M  V30 866 C 86.1967 1.61001 -0.241329 0
M  V30 867 O 87.3857 1.7136 -0.499784 0
M  V30 868 C 84.4857 3.22457 -1.04283 0
M  V30 869 C 83.6587 3.75435 -2.24427 0
M  V30 870 C 82.7177 4.89867 -1.92138 0
M  V30 871 O 81.7437 5.03879 -2.64754 0
M  V30 872 N 82.9457 5.73738 -0.88347 0
M  V30 873 H 85.7107 1.92156 -2.29991 0
M  V30 874 H 83.2717 0.922172 -1.3307 0
M  V30 875 H 85.2637 3.9657 -0.807128 0
M  V30 876 H 83.8337 3.12181 -0.161807 0
M  V30 877 H 83.0537 2.92751 -2.6399 0
M  V30 878 H 84.3417 4.07563 -3.04581 0
M  V30 879 H 83.7397 5.64999 -0.281517 0
M  V30 880 H 82.2967 6.47947 -0.707662 0
M  V30 881 N 85.7298 1.2412 0.971189 0
M  V30 882 C 86.9758 1.08041 1.71625 0
M  V30 883 C 87.3088 -0.380407 1.90438 0
M  V30 884 O 86.5838 -1.28127 1.46334 0
M  V30 885 C 86.8668 1.81682 3.10908 0
M  V30 886 C 86.7198 3.35493 2.99608 0
M  V30 887 C 88.0388 1.58671 4.10501 0
M  V30 888 H 85.1578 0.39388 0.622919 0
M  V30 889 H 87.7998 1.52743 1.13003 0
M  V30 890 H 85.9498 1.43684 3.60953 0
M  V30 891 H 87.6218 3.83068 2.57015 0
M  V30 892 H 85.8648 3.64052 2.35899 0
M  V30 893 H 86.5358 3.82217 3.98264 0
M  V30 894 H 89.0118 1.91719 3.69301 0
M  V30 895 H 87.8878 2.1266 5.06031 0
M  V30 896 H 88.1488 0.524161 4.38982 0
M  V30 897 N 87.2079 -1.17134 1.05439 0
M  V30 898 C 88.1179 -2.24878 0.668365 0
M  V30 899 C 89.1339 -1.71186 -0.311687 0
M  V30 900 O 90.3099 -2.00738 -0.163161 0
M  V30 901 C 87.3749 -3.46662 0.051648 0
M  V30 902 C 86.4359 -4.15429 1.08246 0
M  V30 903 C 85.6689 -5.31399 0.495082 0
M  V30 904 O 85.8919 -5.66153 -0.694743 0
M  V30 905 O 84.8259 -5.89187 1.23056 0
M  V30 906 H 88.6519 -2.60189 1.56637 0
M  V30 907 H 86.2369 -1.24482 0.826104 0
M  V30 908 H 88.1189 -4.20394 -0.290966 0
M  V30 909 H 86.7939 -3.13142 -0.819971 0
M  V30 910 H 85.7009 -3.43704 1.47711 0
M  V30 911 H 87.0339 -4.52982 1.92532 0
M  V30 912 N 88.686 -0.835752 -1.33615 0
M  V30 913 C 89.618 -0.224151 -2.28101 0
M  V30 914 C 90.631 0.593331 -1.51603 0
M  V30 915 O 91.82 0.420911 -1.73466 0
M  V30 916 C 88.92 0.703309 -3.31522 0
M  V30 917 C 88.093 -0.0741528 -4.37337 0
M  V30 918 C 87.152 0.776176 -5.20444 0
M  V30 919 O 86.178 0.216506 -5.68788 0
M  V30 920 N 87.38 2.09401 -5.41416 0
M  V30 921 H 90.145 -1.03598 -2.81225 0
M  V30 922 H 87.706 -0.69392 -1.46275 0
M  V30 923 H 89.698 1.27707 -3.84022 0
M  V30 924 H 88.268 1.41585 -2.78698 0
M  V30 925 H 87.488 -0.82928 -3.85378 0
M  V30 926 H 88.776 -0.608863 -5.05144 0
M  V30 927 H 88.174 2.57229 -5.03835 0
M  V30 928 H 86.731 2.61633 -5.96985 0
M  V30 929 N 90.1641 1.46063 -0.591896 0
M  V30 930 C 91.3921 2.06717 -0.0868936 0
M  V30 931 C 91.8071 1.43916 1.22203 0
M  V30 932 O 91.1641 0.547698 1.74088 0
M  V30 933 C 91.2151 3.6142 0.0758725 0
M  V30 934 O 90.9361 4.21874 -1.18126 0
M  V30 935 C 92.4371 4.39025 0.61416 0
M  V30 936 H 89.6571 0.668162 -0.0616518 0
M  V30 937 H 92.2011 1.8755 -0.815175 0
M  V30 938 H 90.3561 3.79983 0.754413 0
M  V30 939 H 90.7701 5.14861 -1.00092 0
M  V30 940 H 92.2441 5.4783 0.677193 0
M  V30 941 H 92.7211 4.07708 1.63312 0
M  V30 942 H 93.3271 4.2529 -0.0298142 0
M  V30 943 N 91.6422 0.330177 1.54103 0
M  V30 944 C 92.8672 -0.274893 2.0557 0
M  V30 945 C 93.2922 -1.44487 1.20437 0
M  V30 946 O 92.6502 -1.80021 0.214991 0
M  V30 947 C 92.6982 -0.68079 3.54115 0
M  V30 948 O 91.8022 -1.7824 3.71893 0
M  V30 949 H 91.1432 -0.0483849 0.662235 0
M  V30 950 H 93.6732 0.480508 1.98878 0
M  V30 951 H 93.6832 -0.961635 3.96505 0
M  V30 952 H 92.3582 0.174903 4.15532 0
M  V30 953 H 90.9352 -1.49985 3.41407 0
M  V30 954 N 93.1203 -1.57491 0.0584922 0
M  V30 955 C 94.0503 -2.14988 -0.911178 0
M  V30 956 C 95.0313 -1.07343 -1.31952 0
M  V30 957 O 96.2163 -1.35318 -1.39294 0
M  V30 958 C 93.3463 -2.70078 -2.18347 0
M  V30 959 C 92.3003 -3.82771 -1.91495 0
M  V30 960 C 91.6263 -4.24408 -3.25241 0
M  V30 961 C 92.9263 -5.07592 -1.23075 0
M  V30 962 H 94.6203 -2.96263 -0.432246 0
M  V30 963 H 92.1663 -1.42512 -0.206469 0
M  V30 964 H 94.1193 -3.08943 -2.86587 0
M  V30 965 H 92.8433 -1.86005 -2.68458 0
M  V30 966 H 91.5023 -3.44389 -1.25664 0
M  V30 967 H 91.1503 -3.37275 -3.73168 0
M  V30 968 H 90.8503 -5.00366 -3.08071 0
M  V30 969 H 92.3743 -4.65879 -3.94701 0
M  V30 970 H 93.7883 -5.43857 -1.81362 0
M  V30 971 H 92.1853 -5.88741 -1.16207 0
M  V30 972 H 93.2553 -4.84454 -0.207847 0
M  V30 973 N 94.5984 0.214957 -1.56127 0
M  V30 974 C 95.5084 1.28727 -1.96129 0
M  V30 975 C 96.5244 1.50916 -0.866044 0
M  V30 976 O 97.7004 1.63918 -1.17016 0
M  V30 977 C 94.7654 2.61569 -2.27558 0
M  V30 978 C 93.8264 2.47625 -3.50685 0
M  V30 979 C 93.0594 3.74132 -3.80606 0
M  V30 980 O 93.2824 4.77438 -3.12104 0
M  V30 981 O 92.2164 3.70849 -4.74083 0
M  V30 982 H 96.0424 0.977855 -2.87527 0
M  V30 983 H 93.6274 0.418358 -1.43423 0
M  V30 984 H 95.5094 3.40012 -2.48938 0
M  V30 985 H 94.1844 2.92178 -1.39332 0
M  V30 986 H 93.0914 1.67361 -3.34576 0
M  V30 987 H 94.4244 2.21954 -4.39315 0
M  V30 988 N 96.0765 1.50051 0.48192 0
M  V30 989 C 97.4875 1.5348 1.06305 0
M  V30 990 C 97.8385 0.331997 1.93371 0
M  V30 991 O 96.9635 -0.556256 2.09129 0
M  V30 992 C 97.5585 2.7813 1.93466 0
M  V30 993 C 96.1175 2.84275 2.46707 0
M  V30 994 C 95.2645 2.47637 1.24785 0
M  V30 995 H 98.2155 1.56472 0.264995 0
M  V30 996 H 98.2365 2.59372 2.78399 0
M  V30 997 H 97.7485 3.65654 1.30072 0
M  V30 998 H 95.8495 2.01077 3.13686 0
M  V30 999 H 95.9625 3.8691 2.82555 0
M  V30 1000 H 94.3265 1.99835 1.57918 0
M  V30 1001 H 95.1095 3.37457 0.630694 0
M  V30 1002 N 97.5546 -0.734337 1.39446 0
M  V30 1003 C 98.4846 -1.86155 1.40955 0
M  V30 1004 C 99.4656 -1.67898 0.272827 0
M  V30 1005 O 100.651 -1.88207 0.478743 0
M  V30 1006 C 97.7806 -3.23912 1.25294 0
M  V30 1007 C 96.7346 -3.56808 2.36373 0
M  V30 1008 C 96.0606 -4.93508 2.058 0
M  V30 1009 C 97.3606 -3.59713 3.78687 0
M  V30 1010 H 99.0546 -1.8515 2.35287 0
M  V30 1011 H 96.6006 -0.889367 1.13253 0
M  V30 1012 H 98.5536 -4.02443 1.2497 0
M  V30 1013 H 97.2776 -3.25446 0.274308 0
M  V30 1014 H 95.9366 -2.80606 2.35914 0
M  V30 1015 H 95.5846 -4.91623 1.06374 0
M  V30 1016 H 95.2846 -5.16486 2.80208 0
M  V30 1017 H 96.8086 -5.74396 2.07128 0
M  V30 1018 H 98.2226 -4.2832 3.81071 0
M  V30 1019 H 96.6196 -3.94209 4.52459 0
M  V30 1020 H 97.6896 -2.59504 4.09617 0
M  V30 1021 N 99.0327 -1.24633 -0.964593 0
M  V30 1022 C 99.9647 -0.999302 -2.06268 0
M  V30 1023 C 100.978 0.0323226 -1.62768 0
M  V30 1024 O 102.167 -0.205079 -1.77318 0
M  V30 1025 C 99.2667 -0.486816 -3.35385 0
M  V30 1026 C 98.4397 -1.5823 -4.07777 0
M  V30 1027 C 97.4987 -1.07191 -5.15166 0
M  V30 1028 O 96.5247 -1.76426 -5.41168 0
M  V30 1029 N 97.7267 0.0920373 -5.80427 0
M  V30 1030 H 100.492 -1.94477 -2.28033 0
M  V30 1031 H 98.0527 -1.15704 -1.13244 0
M  V30 1032 H 100.045 -0.130066 -4.04491 0
M  V30 1033 H 98.6147 0.364459 -3.10468 0
M  V30 1034 H 97.8347 -2.11109 -3.32906 0
M  V30 1035 H 99.1227 -2.31854 -4.52903 0
M  V30 1036 H 98.5207 0.670784 -5.61709 0
M  V30 1037 H 97.0777 0.389905 -6.50633 0
M  V30 1038 N 100.511 1.16574 -1.06058 0
M  V30 1039 C 101.421 2.2452 -0.680282 0
M  V30 1040 C 102.437 1.71348 0.302604 0
M  V30 1041 O 103.613 2.00822 0.152513 0
M  V30 1042 C 100.678 3.46629 -0.0700315 0
M  V30 1043 C 99.7388 4.14849 -1.10448 0
M  V30 1044 C 98.9718 5.31129 -0.523256 0
M  V30 1045 O 99.1948 5.66514 0.664709 0
M  V30 1046 O 98.1288 5.88526 -1.26179 0
M  V30 1047 H 101.955 2.59355 -1.58015 0
M  V30 1048 H 99.5398 1.24043 -0.832694 0
M  V30 1049 H 101.422 4.20543 0.268667 0
M  V30 1050 H 100.097 3.13573 0.803353 0
M  V30 1051 H 99.0038 3.42916 -1.49532 0
M  V30 1052 H 100.337 4.51954 -1.94931 0
M  V30 1053 N 101.989 0.842826 1.3317 0
M  V30 1054 C 103.214 0.453129 2.02389 0
M  V30 1055 C 103.639 -0.939105 1.6298 0
M  V30 1056 O 102.997 -1.61472 0.8244 0
M  V30 1057 C 103.045 0.586094 3.55805 0
M  V30 1058 O 102.149 -0.386029 4.10589 0
M  V30 1059 H 101.49 0.183664 0.638094 0
M  V30 1060 H 104.02 1.13875 1.69981 0
M  V30 1061 H 104.03 0.469209 4.05293 0
M  V30 1062 H 102.705 1.6014 3.83833 0
M  V30 1063 H 101.282 -0.226371 3.72212 0
M  V30 1064 N 103.467 -1.45747 0.599634 0
M  V30 1065 C 104.878 -1.85853 0.177681 0
M  V30 1066 C 105.229 -1.50102 -1.26348 0
M  V30 1067 O 104.354 -0.923905 -1.95686 0
M  V30 1068 C 104.949 -3.37326 0.315688 0
M  V30 1069 C 103.508 -3.76365 -0.0515144 0
M  V30 1070 C 102.655 -2.69722 0.643822 0
M  V30 1071 H 105.606 -1.36661 0.806814 0
M  V30 1072 H 105.627 -3.77778 -0.454321 0
M  V30 1073 H 105.139 -3.63315 1.36468 0
M  V30 1074 H 103.24 -3.55993 -1.09999 0
M  V30 1075 H 103.353 -4.77916 0.336594 0
M  V30 1076 H 101.717 -2.54567 0.0822881 0
M  V30 1077 H 102.5 -2.98549 1.6948 0
M  V30 1078 N 104.945 -0.338344 -1.53925 0
M  V30 1079 C 106.361 0.0137736 -1.59594 0
M  V30 1080 C 106.561 1.49186 -1.35447 0
M  V30 1081 O 105.617 2.24987 -1.14616 0
M  V30 1082 C 106.93 -0.41773 -2.97784 0
M  V30 1083 C 108.478 -0.369633 -3.1081 0
M  V30 1084 C 108.953 -0.776524 -4.51369 0
M  V30 1085 N 110.444 -0.730506 -4.57403 0
M  V30 1086 C 111.179 -1.01736 -5.64303 0
M  V30 1087 N 110.675 -1.3721 -6.79077 0
M  V30 1088 N 112.468 -0.941942 -5.54151 0
M  V30 1089 H 104.619 -1.3012 -1.67876 0
M  V30 1090 H 106.882 -0.530082 -0.78595 0
M  V30 1091 H 106.588 -1.44811 -3.20504 0
M  V30 1092 H 106.462 0.209729 -3.76616 0
M  V30 1093 H 108.849 0.651568 -2.87817 0
M  V30 1094 H 108.93 -1.03223 -2.34049 0
M  V30 1095 H 108.574 -1.79571 -4.75096 0
M  V30 1096 H 108.504 -0.0914649 -5.26521 0
M  V30 1097 H 110.995 -0.468783 -3.74981 0
M  V30 1098 H 111.308 -1.57597 -7.5656 0
M  V30 1099 H 109.653 -1.4105 -6.80536 0
M  V30 1100 H 112.844 -0.664184 -4.63364 0
M  V30 1101 H 113.017 -1.16884 -6.37371 0
M  V30 1102 N 106.423 1.57458 -0.0668435 0
M  V30 1103 C 107.834 1.80776 0.466558 0
M  V30 1104 C 108.185 0.980361 1.69951 0
M  V30 1105 O 107.31 0.201441 2.1546 0
M  V30 1106 C 107.905 3.27881 0.85321 0
M  V30 1107 C 106.464 3.52062 1.3315 0
M  V30 1108 C 105.611 2.75513 0.314264 0
M  V30 1109 H 108.562 1.5598 -0.292588 0
M  V30 1110 H 108.583 3.39659 1.715 0
M  V30 1111 H 108.095 3.88075 -0.0443439 0
M  V30 1112 H 106.196 2.97167 2.24772 0
M  V30 1113 H 106.309 4.60762 1.31285 0
M  V30 1114 H 104.673 2.42123 0.790492 0
M  V30 1115 H 105.456 3.38442 -0.575477 0
M  V30 1116 N 107.901 -0.206675 1.56239 0
M  V30 1117 C 109.129 -0.945345 1.8404 0
M  V30 1118 C 109.544 -1.77336 0.647885 0
M  V30 1119 O 108.901 -1.78425 -0.383511 0
M  V30 1120 C 108.952 -1.8509 3.10522 0
M  V30 1121 O 108.673 -1.05634 4.25174 0
M  V30 1122 C 110.174 -2.70222 3.51418 0
M  V30 1123 H 107.394 -0.276372 0.61144 0
M  V30 1124 H 109.938 -0.217417 2.03341 0
M  V30 1125 H 108.093 -2.53259 2.93153 0
M  V30 1126 H 108.507 -1.67238 4.97124 0
M  V30 1127 H 109.981 -3.29438 4.42916 0
M  V30 1128 H 110.458 -3.43358 2.73864 0
M  V30 1129 H 111.064 -2.07443 3.71278 0
M  V30 1130 N 109.379 -1.50304 -0.473955 0
M  V30 1131 C 110.627 -1.60832 -1.22382 0
M  V30 1132 C 110.948 -0.30939 -1.9253 0
M  V30 1133 O 110.218 0.67296 -1.83978 0
M  V30 1134 H 108.798 -0.592652 -0.454723 0
M  V30 1135 H 111.46 -1.87068 -0.546968 0
M  V30 1136 H 110.556 -2.41803 -1.97327 0
M  V30 1137 N 110.857 0.726932 -1.39834 0
M  V30 1138 C 112.103 1.48884 -1.377 0
M  V30 1139 C 112.436 1.94185 0.0244852 0
M  V30 1140 O 111.711 1.67361 0.990986 0
M  V30 1141 C 111.994 2.72288 -2.3565 0
M  V30 1142 C 111.847 2.32956 -3.84775 0
M  V30 1143 C 113.166 3.74414 -2.31306 0
M  V30 1144 H 110.285 0.540062 -0.5015 0
M  V30 1145 H 112.927 0.830547 -1.70886 0
M  V30 1146 H 111.077 3.28457 -2.07481 0
M  V30 1147 H 112.749 1.82356 -4.23726 0
M  V30 1148 H 110.992 1.65088 -4.01159 0
M  V30 1149 H 111.663 3.21362 -4.4881 0
M  V30 1150 H 114.139 3.27849 -2.56231 0
M  V30 1151 H 113.015 4.58414 -3.01907 0
M  V30 1152 H 113.276 4.21909 -1.32081 0
M  V30 1153 N 112.336 1.25143 0.95797 0
M  V30 1154 C 113.582 1.10863 1.70531 0
M  V30 1155 C 113.937 -0.347391 1.89238 0
M  V30 1156 O 113.23 -1.25262 1.44983 0
M  V30 1157 C 113.424 1.79272 3.09187 0
M  V30 1158 C 113.253 3.31376 3.04006 0
M  V30 1159 C 112.023 4.0062 3.07948 0
M  V30 1160 C 114.221 4.27825 2.8543 0
M  V30 1161 N 112.203 5.39526 2.9289 0
M  V30 1162 C 113.574 5.53794 2.78769 0
M  V30 1163 C 115.629 4.1828 2.70085 0
M  V30 1164 C 114.332 6.7131 2.58331 0
M  V30 1165 C 116.358 5.35485 2.51017 0
M  V30 1166 C 115.72 6.60393 2.45073 0
M  V30 1167 H 111.819 0.460362 0.632132 0
M  V30 1168 H 114.403 1.58196 1.13499 0
M  V30 1169 H 112.574 1.34439 3.64391 0
M  V30 1170 H 114.306 1.57764 3.72683 0
M  V30 1171 H 111.061 3.51855 3.17009 0
M  V30 1172 H 111.485 6.12416 2.88574 0
M  V30 1173 H 116.127 3.22461 2.73457 0
M  V30 1174 H 113.845 7.67243 2.53701 0
M  V30 1175 H 117.431 5.29959 2.40073 0
M  V30 1176 H 116.311 7.49557 2.30509 0
M  V30 1177 N 113.814 -1.1601 1.06675 0
M  V30 1178 C 114.761 -2.20525 0.680967 0
M  V30 1179 C 115.731 -1.62904 -0.324283 0
M  V30 1180 O 116.916 -1.89615 -0.212294 0
M  V30 1181 C 114.056 -3.45013 0.0776551 0
M  V30 1182 C 113.169 -4.16863 1.13355 0
M  V30 1183 C 112.304 -5.2888 0.49597 0
M  V30 1184 C 111.343 -5.92537 1.53513 0
M  V30 1185 N 110.48 -6.96038 0.920631 0
M  V30 1186 H 115.32 -2.52876 1.57663 0
M  V30 1187 H 112.857 -1.24199 0.788223 0
M  V30 1188 H 114.815 -4.16193 -0.289704 0
M  V30 1189 H 113.445 -3.132 -0.781393 0
M  V30 1190 H 112.497 -3.44248 1.61857 0
M  V30 1191 H 113.809 -4.60294 1.92174 0
M  V30 1192 H 112.963 -6.06653 0.0758604 0
M  V30 1193 H 111.702 -4.86622 -0.324062 0
M  V30 1194 H 110.707 -5.13482 1.9651 0
M  V30 1195 H 111.932 -6.36873 2.35733 0
M  V30 1196 H 109.878 -6.55888 0.12138 0
M  V30 1197 H 109.795 -7.3786 1.64616 0
M  V30 1198 H 111.063 -7.77725 0.525795 0
M  V30 1199 N 115.292 -0.849877 -1.32721 0
M  V30 1200 C 116.517 -0.463856 -2.02146 0
M  V30 1201 C 116.942 0.930449 -1.63476 0
M  V30 1202 O 116.3 1.61033 -0.832952 0
M  V30 1203 C 116.348 -0.604955 -3.55489 0
M  V30 1204 O 115.452 0.36425 -4.10788 0
M  V30 1205 H 114.793 -0.187046 -0.637111 0
M  V30 1206 H 117.323 -1.14775 -1.69375 0
M  V30 1207 H 117.333 -0.490696 -4.05038 0
M  V30 1208 H 116.008 -1.62174 -3.82978 0
M  V30 1209 H 114.585 0.206628 -3.72327 0
M  V30 1210 N 116.77 1.45427 -0.607355 0
M  V30 1211 C 118.186 1.57283 -0.270985 0
M  V30 1212 C 118.386 1.59875 1.22647 0
M  V30 1213 O 117.442 1.52893 2.00948 0
M  V30 1214 C 118.755 2.85566 -0.941952 0
M  V30 1215 C 120.303 2.9924 -0.917849 0
M  V30 1216 C 120.778 4.30293 -1.56882 0
M  V30 1217 N 122.269 4.37051 -1.5343 0
M  V30 1218 C 123.004 5.37123 -2.00715 0
M  V30 1219 N 122.5 6.43734 -2.56084 0
M  V30 1220 N 124.293 5.28479 -1.91484 0
M  V30 1221 H 116.444 1.41988 -1.57966 0
M  V30 1222 H 118.707 0.67885 -0.661715 0
M  V30 1223 H 118.413 2.8955 -1.99633 0
M  V30 1224 H 118.287 3.74322 -0.465096 0
M  V30 1225 H 120.674 2.94822 0.127984 0
M  V30 1226 H 120.755 2.11895 -1.43297 0
M  V30 1227 H 120.399 4.35469 -2.61398 0
M  V30 1228 H 120.329 5.16454 -1.02873 0
M  V30 1229 H 122.82 3.60615 -1.12982 0
M  V30 1230 H 123.133 7.16341 -2.89958 0
M  V30 1231 H 121.478 6.44485 -2.60122 0
M  V30 1232 H 124.669 4.44098 -1.47967 0
M  V30 1233 H 124.842 6.0632 -2.28648 0
M  V30 1234 N 118.248 0.346503 1.53744 0
M  V30 1235 C 119.158 -0.517293 2.28826 0
M  V30 1236 C 120.174 -1.10935 1.3405 0
M  V30 1237 O 121.35 -1.1244 1.6709 0
M  V30 1238 C 118.415 -1.65098 3.04866 0
M  V30 1239 C 117.476 -1.0884 4.15274 0
M  V30 1240 C 116.709 -2.16806 4.87679 0
M  V30 1241 O 116.932 -3.3758 4.59778 0
M  V30 1242 O 115.866 -1.80934 5.74061 0
M  V30 1243 H 119.692 0.0931396 3.03557 0
M  V30 1244 H 117.277 0.111458 1.48984 0
M  V30 1245 H 119.159 -2.31053 3.5241 0
M  V30 1246 H 117.834 -2.24717 2.32989 0
M  V30 1247 H 116.741 -0.3933 3.72027 0
M  V30 1248 H 118.074 -0.537036 4.89261 0
M  V30 1249 N 119.726 -1.57421 0.075193 0
M  V30 1250 C 120.972 -1.93905 -0.594025 0
M  V30 1251 C 121.305 -0.955701 -1.69056 0
M  V30 1252 O 120.58 0.0145373 -1.94495 0
M  V30 1253 C 120.863 -3.40638 -1.1678 0
M  V30 1254 C 120.716 -4.49733 -0.0776792 0
M  V30 1255 C 122.035 -3.88259 -2.07228 0
M  V30 1256 H 119.154 -0.705105 -0.214466 0
M  V30 1257 H 121.796 -1.8947 0.141854 0
M  V30 1258 H 119.946 -3.44549 -1.79494 0
M  V30 1259 H 121.618 -4.57942 0.555573 0
M  V30 1260 H 119.861 -4.29751 0.591286 0
M  V30 1261 H 120.532 -5.49549 -0.519603 0
M  V30 1262 H 123.008 -3.86376 -1.54445 0
M  V30 1263 H 121.884 -4.91533 -2.44308 0
M  V30 1264 H 122.145 -3.26396 -2.98191 0
M  V30 1265 N 121.204 0.198386 -1.56346 0
M  V30 1266 C 122.167 1.22952 -1.93431 0
M  V30 1267 C 123.167 1.38611 -0.815092 0
M  V30 1268 O 124.357 1.36479 -1.08255 0
M  V30 1269 C 121.489 2.59946 -2.20546 0
M  V30 1270 H 122.682 0.912626 -2.85677 0
M  V30 1271 H 120.235 0.43977 -1.49986 0
M  V30 1272 H 120.97 2.96696 -1.30927 0
M  V30 1273 H 120.755 2.49953 -3.02102 0
M  V30 1274 H 122.245 3.3431 -2.50253 0
M  V30 1275 N 122.682 1.50554 0.465978 0
M  V30 1276 C 123.91 1.65563 1.24083 0
M  V30 1277 C 124.325 0.341051 1.85694 0
M  V30 1278 O 123.682 -0.677543 1.69457 0
M  V30 1279 C 123.733 2.75051 2.34583 0
M  V30 1280 O 123.454 4.01413 1.75497 0
M  V30 1281 C 124.955 3.01078 3.25372 0
M  V30 1282 H 122.175 0.55638 0.375077 0
M  V30 1283 H 124.719 1.96807 0.555624 0
M  V30 1284 H 122.874 2.46486 2.9887 0
M  V30 1285 H 123.288 4.62002 2.48303 0
M  V30 1286 H 124.762 3.81339 3.99105 0
M  V30 1287 H 125.239 2.12349 3.84453 0
M  V30 1288 H 125.845 3.31194 2.66816 0
M  V30 1289 N 124.16 -0.719506 1.40217 0
M  V30 1290 C 125.07 -1.86378 1.42479 0
M  V30 1291 C 126.086 -1.71073 0.317834 0
M  V30 1292 O 127.262 -1.93406 0.561794 0
M  V30 1293 C 124.327 -3.22136 1.28178 0
M  V30 1294 C 123.388 -3.49723 2.48982 0
M  V30 1295 C 122.621 -4.79004 2.35353 0
M  V30 1296 O 122.844 -5.53821 1.36524 0
M  V30 1297 O 121.778 -5.06839 3.2465 0
M  V30 1298 H 125.604 -1.87425 2.38968 0
M  V30 1299 H 123.189 -0.869405 1.21498 0
M  V30 1300 H 125.071 -4.03234 1.22395 0
M  V30 1301 H 123.746 -3.21825 0.347934 0
M  V30 1302 H 122.653 -2.6865 2.60342 0
M  V30 1303 H 123.986 -3.54828 3.41113 0
M  V30 1304 N 125.638 -1.25649 -0.95132 0
M  V30 1305 C 126.886 -1.10375 -1.69298 0
M  V30 1306 C 127.207 0.355339 -1.91735 0
M  V30 1307 O 126.477 1.25188 -1.50681 0
M  V30 1308 H 125.057 -0.405461 -0.627384 0
M  V30 1309 H 127.719 -1.57823 -1.14358 0
M  V30 1310 H 126.815 -1.61465 -2.67087 0
M  V30 1311 N 127.117 1.15442 -1.07289 0
M  V30 1312 C 128.366 1.85557 -0.790669 0
M  V30 1313 C 128.679 1.83186 0.685739 0
M  V30 1314 O 129.885 2.48977 1.0827 0
M  V30 1315 C 128.341 3.33038 -1.36433 0
M  V30 1316 C 127.949 3.43856 -2.8717 0
M  V30 1317 C 129.693 4.0834 -1.1601 0
M  V30 1318 C 127.6 4.85482 -3.3773 0
M  V30 1319 H 126.53 0.695122 -0.292098 0
M  V30 1320 H 129.181 1.30219 -1.29287 0
M  V30 1321 H 127.563 3.88043 -0.789864 0
M  V30 1322 H 128.737 2.98961 -3.50655 0
M  V30 1323 H 127.052 2.81998 -3.06376 0
M  V30 1324 H 129.649 5.12859 -1.51262 0
M  V30 1325 H 129.992 4.16182 -0.0991007 0
M  V30 1326 H 130.525 3.59603 -1.70089 0
M  V30 1327 H 127.264 4.82823 -4.43353 0
M  V30 1328 H 126.784 5.30961 -2.78999 0
M  V30 1329 H 128.463 5.54335 -3.33648 0
M  V30 1330 N 128.595 0.856903 1.32268 0
M  V30 1331 C 130.011 0.547061 1.49931 0
M  V30 1332 C 130.211 -0.921781 1.7918 0
M  V30 1333 O 129.267 -1.70469 1.8627 0
M  V30 1334 C 130.58 1.43599 2.64196 0
M  V30 1335 C 132.128 1.43665 2.78081 0
M  V30 1336 C 132.603 2.31085 3.95428 0
M  V30 1337 N 134.094 2.28893 4.02694 0
M  V30 1338 C 134.829 2.93262 4.92732 0
M  V30 1339 N 134.325 3.66751 5.87763 0
M  V30 1340 N 136.118 2.82638 4.85873 0
M  V30 1341 H 128.269 1.8075 1.11549 0
M  V30 1342 H 130.532 0.772144 0.549997 0
M  V30 1343 H 130.238 2.48058 2.49319 0
M  V30 1344 H 130.112 1.12502 3.60032 0
M  V30 1345 H 132.499 0.399701 2.92381 0
M  V30 1346 H 132.58 1.7878 1.82952 0
M  V30 1347 H 132.224 3.34849 3.81888 0
M  V30 1348 H 132.154 1.93302 4.89839 0
M  V30 1349 H 134.645 1.75466 3.34694 0
M  V30 1350 H 134.958 4.13027 6.53168 0
M  V30 1351 H 133.303 3.70859 5.87783 0
M  V30 1352 H 136.494 2.24774 4.10602 0
M  V30 1353 H 136.667 3.33084 5.55841 0
M  V30 1354 N 130.073 -1.45103 0.615059 0
M  V30 1355 C 131.321 -2.01784 0.112955 0
M  V30 1356 C 131.642 -1.48504 -1.26378 0
M  V30 1357 O 130.912 -0.682245 -1.83636 0
M  V30 1358 H 129.492 -0.745993 0.0387668 0
M  V30 1359 H 132.154 -1.77808 0.798141 0
M  V30 1360 H 131.25 -3.12025 0.0684069 0
M  V30 1361 N 131.551 -0.354651 -1.53558 0
M  V30 1362 C 132.501 0.513179 -2.2215 0
M  V30 1363 C 133.485 1.05734 -1.21281 0
M  V30 1364 O 134.677 0.989202 -1.46778 0
M  V30 1365 C 131.806 1.65798 -3.00609 0
M  V30 1366 C 130.892 1.12722 -4.08845 0
M  V30 1367 N 131.283 0.318563 -5.04796 0
M  V30 1368 C 129.581 1.40307 -4.23356 0
M  V30 1369 C 130.282 0.0292224 -5.81693 0
M  V30 1370 N 129.258 0.623891 -5.40008 0
M  V30 1371 H 133.06 -0.111586 -2.93688 0
M  V30 1372 H 130.574 -0.162091 -1.61589 0
M  V30 1373 H 132.571 2.29176 -3.48258 0
M  V30 1374 H 131.231 2.28591 -2.306 0
M  V30 1375 H 132.242 -0.0413091 -5.17884 0
M  V30 1376 H 128.919 2.03458 -3.6457 0
M  V30 1377 H 130.309 -0.623808 -6.68998 0
M  V30 1378 N 133.029 1.57378 -0.0835403 0
M  V30 1379 C 134.445 1.57246 0.273109 0
M  V30 1380 C 134.645 1.09385 1.69225 0
M  V30 1381 O 133.701 0.765051 2.40631 0
M  V30 1382 C 135.014 3.00614 0.0720628 0
M  V30 1383 C 136.562 3.12684 0.1407 0
M  V30 1384 C 137.037 4.57989 -0.0322094 0
M  V30 1385 N 138.528 4.63194 0.0230085 0
M  V30 1386 C 139.263 5.73335 -0.0861941 0
M  V30 1387 N 138.759 6.9235 -0.24958 0
M  V30 1388 N 140.552 5.62093 -0.0282886 0
M  V30 1389 H 132.703 1.86801 -1.0109 0
M  V30 1390 H 134.966 0.861687 -0.395222 0
M  V30 1391 H 134.672 3.39786 -0.907662 0
M  V30 1392 H 134.546 3.68193 0.81936 0
M  V30 1393 H 136.933 2.73391 1.11092 0
M  V30 1394 H 137.014 2.47719 -0.637896 0
M  V30 1395 H 136.658 4.97973 -0.999247 0
M  V30 1396 H 136.588 5.21 0.765937 0
M  V30 1397 H 139.079 3.77613 0.14722 0
M  V30 1398 H 139.392 7.72117 -0.324733 0
M  V30 1399 H 137.737 6.94415 -0.285097 0
M  V30 1400 H 140.928 4.67997 0.0981408 0
M  V30 1401 H 141.101 6.47895 -0.116845 0
M  V30 1402 N 134.507 -0.190092 1.56449 0
M  V30 1403 C 135.454 -1.23557 1.94942 0
M  V30 1404 C 136.424 -1.44972 0.810696 0
M  V30 1405 O 137.609 -1.58023 1.06927 0
M  V30 1406 C 134.749 -2.57416 2.2985 0
M  V30 1407 C 133.862 -2.43537 3.5681 0
M  V30 1408 C 132.997 -3.70134 3.81017 0
M  V30 1409 C 132.036 -3.51109 5.01387 0
M  V30 1410 N 131.173 -4.6973 5.21822 0
M  V30 1411 H 136.013 -0.900304 2.84075 0
M  V30 1412 H 133.55 -0.43318 1.40577 0
M  V30 1413 H 135.508 -3.35409 2.48106 0
M  V30 1414 H 134.138 -2.88975 1.43852 0
M  V30 1415 H 133.19 -1.56816 3.46573 0
M  V30 1416 H 134.502 -2.25415 4.4496 0
M  V30 1417 H 133.656 -4.56566 3.9954 0
M  V30 1418 H 132.395 -3.91215 2.91207 0
M  V30 1419 H 131.4 -2.63063 4.82782 0
M  V30 1420 H 132.625 -3.31468 5.9271 0
M  V30 1421 H 130.571 -4.91065 4.34961 0
M  V30 1422 H 130.488 -4.54452 6.0416 0
M  V30 1423 H 131.756 -5.57499 5.44808 0
M  V30 1424 N 135.985 -1.50799 -0.457987 0
M  V30 1425 C 136.918 -1.65273 -1.57353 0
M  V30 1426 C 137.896 -0.500578 -1.54703 0
M  V30 1427 O 139.08 -0.721781 -1.74134 0
M  V30 1428 C 136.207 -1.64737 -2.95938 0
M  V30 1429 C 135.253 -2.8567 -3.16693 0
M  V30 1430 S 136.086 -4.46791 -2.95191 0
M  V30 1431 C 137.242 -4.48968 -4.36095 0
M  V30 1432 H 137.475 -2.59633 -1.44838 0
M  V30 1433 H 135.008 -1.40225 -0.64625 0
M  V30 1434 H 136.966 -1.65112 -3.7583 0
M  V30 1435 H 135.627 -0.715899 -3.05833 0
M  V30 1436 H 134.82 -2.81637 -4.17967 0
M  V30 1437 H 134.422 -2.8293 -2.44594 0
M  V30 1438 H 136.714 -4.23337 -5.28954 0
M  V30 1439 H 137.657 -5.50664 -4.45168 0
M  V30 1440 H 138.065 -3.78522 -4.18786 0
M  V30 1441 N 137.463 0.71206 -1.40597 0
M  V30 1442 C 138.709 1.47416 -1.39271 0
M  V30 1443 C 139.042 1.942 0.00388791 0
M  V30 1444 O 138.317 1.68403 0.973179 0
M  V30 1445 C 138.6 2.69774 -2.38525 0
M  V30 1446 C 138.453 2.28861 -3.87224 0
M  V30 1447 C 139.772 3.71939 -2.35264 0
M  V30 1448 H 136.891 0.534713 -0.5072 0
M  V30 1449 H 139.533 0.812375 -1.71757 0
M  V30 1450 H 137.683 3.26238 -2.10953 0
M  V30 1451 H 139.355 1.77852 -4.25636 0
M  V30 1452 H 137.598 1.60824 -4.02887 0
M  V30 1453 H 138.269 3.16584 -4.52193 0
M  V30 1454 H 140.745 3.25113 -2.59694 0
M  V30 1455 H 139.621 4.55186 -3.06753 0
M  V30 1456 H 139.882 4.20484 -1.36549 0
M  V30 1457 N 138.941 1.26152 0.944643 0
M  V30 1458 C 139.871 1.09902 2.06019 0
M  V30 1459 C 140.852 0.00519538 1.70099 0
M  V30 1460 O 142.037 0.176583 1.93396 0
M  V30 1461 C 139.167 0.727562 3.39594 0
M  V30 1462 C 138.121 1.77274 3.89561 0
M  V30 1463 C 137.447 1.25569 5.19747 0
M  V30 1464 C 138.747 3.17357 4.14827 0
M  V30 1465 H 140.441 2.03217 2.19871 0
M  V30 1466 H 137.987 0.978452 1.05652 0
M  V30 1467 H 139.94 0.600777 4.17095 0
M  V30 1468 H 138.664 -0.241287 3.25707 0
M  V30 1469 H 137.323 1.88814 3.14237 0
M  V30 1470 H 136.971 0.276783 5.02238 0
M  V30 1471 H 136.671 1.95433 5.54148 0
M  V30 1472 H 138.195 1.1415 5.99835 0
M  V30 1473 H 139.609 3.08914 4.82954 0
M  V30 1474 H 138.006 3.84781 4.60504 0
M  V30 1475 H 139.076 3.63673 3.20734 0
M  V30 1476 N 140.419 -1.14872 1.07899 0
M  V30 1477 C 141.649 -1.89386 0.825631 0
M  V30 1478 C 142.057 -1.78565 -0.625406 0
M  V30 1479 O 141.4 -1.13918 -1.44113 0
M  V30 1480 C 141.462 -3.40206 1.16191 0
M  V30 1481 C 141.126 -3.74812 2.61467 0
M  V30 1482 C 142.123 -3.75367 3.59716 0
M  V30 1483 C 139.808 -4.0495 2.97189 0
M  V30 1484 C 141.802 -4.05574 4.9172 0
M  V30 1485 C 139.489 -4.34821 4.29388 0
M  V30 1486 C 140.487 -4.35116 5.26463 0
M  V30 1487 O 140.175 -4.64267 6.56286 0
M  V30 1488 H 139.907 -0.606894 0.297751 0
M  V30 1489 H 142.461 -1.46438 1.44031 0
M  V30 1490 H 140.691 -3.8358 0.490214 0
M  V30 1491 H 142.38 -3.96018 0.890193 0
M  V30 1492 H 143.146 -3.52176 3.33462 0
M  V30 1493 H 139.025 -4.03876 2.22273 0
M  V30 1494 H 142.569 -4.05719 5.67484 0
M  V30 1495 H 138.466 -4.5748 4.55392 0
M  V30 1496 H 139.234 -4.82007 6.61522 0
M  V30 1497 N 141.898 -0.863906 -1.31812 0
M  V30 1498 C 143.126 -0.486111 -2.01108 0
M  V30 1499 C 143.541 0.919755 -1.64882 0
M  V30 1500 O 142.898 1.60162 -0.874893 0
M  V30 1501 C 142.949 -0.626435 -3.56031 0
M  V30 1502 O 142.67 -1.97693 -3.90959 0
M  V30 1503 C 144.171 -0.248857 -4.42601 0
M  V30 1504 H 141.391 -0.190052 -0.643523 0
M  V30 1505 H 143.935 -1.1634 -1.68182 0
M  V30 1506 H 142.09 0.00322717 -3.874 0
M  V30 1507 H 142.504 -1.98034 -4.85678 0
M  V30 1508 H 143.978 -0.398016 -5.50563 0
M  V30 1509 H 144.455 0.811489 -4.31638 0
M  V30 1510 H 145.061 -0.853971 -4.16638 0
M  V30 1511 N 143.376 1.44774 -0.622745 0
M  V30 1512 C 144.306 2.33382 0.0741861 0
M  V30 1513 C 145.287 1.47719 0.843387 0
M  V30 1514 O 146.472 1.76458 0.810934 0
M  V30 1515 C 143.602 3.30663 1.06204 0
M  V30 1516 C 142.556 4.26079 0.405037 0
M  V30 1517 C 141.882 5.13165 1.5022 0
M  V30 1518 C 143.182 5.1781 -0.683414 0
M  V30 1519 H 144.876 2.91905 -0.665713 0
M  V30 1520 H 142.422 1.40363 -0.321587 0
M  V30 1521 H 144.375 3.9153 1.55827 0
M  V30 1522 H 143.099 2.70331 1.83272 0
M  V30 1523 H 141.758 3.66532 -0.0704683 0
M  V30 1524 H 141.406 4.49191 2.26355 0
M  V30 1525 H 141.106 5.77812 1.06803 0
M  V30 1526 H 142.63 5.76902 2.00041 0
M  V30 1527 H 144.044 5.72661 -0.270631 0
M  V30 1528 H 142.441 5.91015 -1.04023 0
M  V30 1529 H 143.511 4.59326 -1.55395 0
M  V30 1530 N 144.854 0.36279 1.53368 0
M  V30 1531 C 146.27 0.0116182 1.59596 0
M  V30 1532 C 146.47 -1.47012 1.37803 0
M  V30 1533 O 145.526 -2.23136 1.18181 0
M  V30 1534 C 146.839 0.465052 2.97082 0
M  V30 1535 C 148.387 0.419033 3.10182 0
M  V30 1536 C 148.862 0.848235 4.50077 0
M  V30 1537 N 150.353 0.803183 4.56183 0
M  V30 1538 C 151.088 1.107 5.62613 0
M  V30 1539 N 150.584 1.47996 6.76808 0
M  V30 1540 N 152.377 1.02998 5.52583 0
M  V30 1541 H 144.528 1.32775 1.65785 0
M  V30 1542 H 146.791 0.542518 0.777417 0
M  V30 1543 H 146.497 1.49892 3.18159 0
M  V30 1544 H 146.371 -0.149786 3.76902 0
M  V30 1545 H 148.758 -0.605696 2.88817 0
M  V30 1546 H 148.839 1.06933 2.32377 0
M  V30 1547 H 148.483 1.87107 4.7218 0
M  V30 1548 H 148.413 0.175218 5.26308 0
M  V30 1549 H 150.904 0.52838 3.74188 0
M  V30 1550 H 151.217 1.69613 7.53957 0
M  V30 1551 H 149.562 1.51859 6.78206 0
M  V30 1552 H 152.753 0.737817 4.62249 0
M  V30 1553 H 152.926 1.2701 6.35431 0
M  V30 1554 N 146.332 -1.57332 0.0918853 0
M  V30 1555 C 147.295 -2.12708 -0.85369 0
M  V30 1556 C 148.295 -1.05561 -1.213 0
M  V30 1557 O 149.485 -1.31461 -1.14296 0
M  V30 1558 C 146.617 -2.64503 -2.15061 0
M  V30 1559 H 147.81 -2.97573 -0.3729 0
M  V30 1560 H 145.363 -1.55509 -0.157072 0
M  V30 1561 H 146.098 -1.83149 -2.67632 0
M  V30 1562 H 145.883 -3.4284 -1.90272 0
M  V30 1563 H 147.373 -3.07351 -2.82711 0
M  V30 1564 N 147.81 0.181792 -1.56548 0
M  V30 1565 C 149.221 0.745244 -1.71181 0
M  V30 1566 C 149.572 1.83262 -0.70068 0
M  V30 1567 O 148.697 2.15946 0.140154 0
M  V30 1568 C 149.292 1.35859 -3.10367 0
M  V30 1569 C 147.851 1.86898 -3.2672 0
M  V30 1570 C 146.998 0.743942 -2.67134 0
M  V30 1571 H 149.949 -0.0434661 -1.5864 0
M  V30 1572 H 149.97 2.22817 -3.08436 0
M  V30 1573 H 149.482 0.566948 -3.83937 0
M  V30 1574 H 147.583 2.68738 -2.5809 0
M  V30 1575 H 147.696 2.02162 -4.34359 0
M  V30 1576 H 146.06 1.16169 -2.26665 0
M  V30 1577 H 146.843 -0.035676 -3.43281 0
M  V30 1578 N 149.288 1.51039 0.449983 0
M  V30 1579 C 150.704 1.38934 0.785462 0
M  V30 1580 C 150.904 0.461817 1.96136 0
M  V30 1581 O 149.96 -0.0877389 2.52348 0
M  V30 1582 C 151.273 2.80724 1.0777 0
M  V30 1583 C 152.821 2.89787 1.1829 0
M  V30 1584 C 153.296 4.32457 1.50815 0
M  V30 1585 N 154.787 4.35505 1.57764 0
M  V30 1586 C 155.522 5.42914 1.84477 0
M  V30 1587 N 155.018 6.60502 2.09068 0
M  V30 1588 N 156.811 5.3038 1.86155 0
M  V30 1589 H 148.962 2.09904 -0.324647 0
M  V30 1590 H 151.225 0.944378 -0.0827957 0
M  V30 1591 H 150.931 3.50531 0.286498 0
M  V30 1592 H 150.805 3.19273 2.00859 0
M  V30 1593 H 153.192 2.20186 1.96474 0
M  V30 1594 H 153.273 2.54752 0.231314 0
M  V30 1595 H 152.917 5.02603 0.731622 0
M  V30 1596 H 152.847 4.64995 2.47158 0
M  V30 1597 H 155.338 3.50724 1.40715 0
M  V30 1598 H 155.651 7.38158 2.28785 0
M  V30 1599 H 153.996 6.63639 2.06416 0
M  V30 1600 H 157.187 4.37505 1.66454 0
M  V30 1601 H 157.36 6.1417 2.06637 0
M  V30 1602 N 150.766 -0.704594 1.40972 0
M  V30 1603 C 151.991 -1.49858 1.43378 0
M  V30 1604 C 152.416 -1.88061 0.038184 0
M  V30 1605 O 151.774 -1.5402 -0.956425 0
M  V30 1606 C 151.822 -2.74333 2.34038 0
M  V30 1607 O 150.926 -3.7147 1.7912 0
M  V30 1608 H 150.267 -0.45139 0.486974 0
M  V30 1609 H 152.797 -0.866832 1.8533 0
M  V30 1610 H 152.807 -3.22741 2.49604 0
M  V30 1611 H 151.482 -2.45863 3.35446 0
M  V30 1612 H 150.059 -3.30363 1.72958 0
M  V30 1613 N 152.244 -1.26651 -0.937939 0
M  V30 1614 C 153.655 -1.1125 -1.49934 0
M  V30 1615 C 154.006 0.306077 -1.93798 0
M  V30 1616 O 153.131 1.19792 -1.80219 0
M  V30 1617 C 153.726 -2.01339 -2.72485 0
M  V30 1618 C 152.285 -1.90074 -3.24883 0
M  V30 1619 C 151.432 -1.94498 -1.97651 0
M  V30 1620 H 154.383 -1.39693 -0.753091 0
M  V30 1621 H 154.404 -1.56319 -3.46907 0
M  V30 1622 H 153.916 -3.04577 -2.40529 0
M  V30 1623 H 152.017 -0.897827 -3.61621 0
M  V30 1624 H 152.13 -2.75778 -3.9177 0
M  V30 1625 H 150.494 -1.38591 -2.13693 0
M  V30 1626 H 151.277 -2.99372 -1.68022 0
M  V30 1627 N 153.722 1.14298 -1.08507 0
M  V30 1628 C 154.669 2.19414 -0.715965 0
M  V30 1629 C 155.639 1.63399 0.298326 0
M  V30 1630 O 156.824 1.89929 0.182101 0
M  V30 1631 C 153.964 3.44845 -0.132534 0
M  V30 1632 C 153.077 4.15007 -1.19973 0
M  V30 1633 C 152.212 5.28024 -0.580048 0
M  V30 1634 C 151.251 5.9002 -1.62921 0
M  V30 1635 N 150.388 6.94485 -1.03125 0
M  V30 1636 H 155.228 2.50336 -1.61666 0
M  V30 1637 H 152.765 1.2293 -0.807882 0
M  V30 1638 H 154.723 4.16601 0.223454 0
M  V30 1639 H 153.353 3.14403 0.731467 0
M  V30 1640 H 152.405 3.41629 -1.67313 0
M  V30 1641 H 153.717 4.57178 -1.99473 0
M  V30 1642 H 152.871 6.06455 -0.172364 0
M  V30 1643 H 151.61 4.87076 0.246603 0
M  V30 1644 H 150.615 5.10291 -2.04654 0
M  V30 1645 H 151.84 6.33042 -2.45835 0
M  V30 1646 H 149.786 6.55612 -0.225711 0
M  V30 1647 H 149.703 7.35148 -1.76334 0
M  V30 1648 H 150.971 7.7679 -0.649458 0
M  V30 1649 N 155.201 0.870884 1.31352 0
M  V30 1650 C 156.134 0.271983 2.26573 0
M  V30 1651 C 157.112 -0.599385 1.51149 0
M  V30 1652 O 158.296 -0.552605 1.80218 0
M  V30 1653 C 155.423 -0.614801 3.33073 0
M  V30 1654 C 154.469 0.185342 4.26097 0
M  V30 1655 S 155.302 1.56444 5.12138 0
M  V30 1656 C 156.458 0.683807 6.22153 0
M  V30 1657 H 156.691 1.07916 2.77023 0
M  V30 1658 H 154.224 0.669459 1.39132 0
M  V30 1659 H 156.182 -1.12074 3.94905 0
M  V30 1660 H 154.843 -1.39593 2.81376 0
M  V30 1661 H 154.036 -0.490771 5.01605 0
M  V30 1662 H 153.638 0.623415 3.68768 0
M  V30 1663 H 155.93 -0.10521 6.77418 0
M  V30 1664 H 156.873 1.41004 6.93919 0
M  V30 1665 H 157.281 0.250952 5.63942 0
M  V30 1666 N 156.679 -1.44442 0.630414 0
M  V30 1667 C 157.925 -2.02351 0.134816 0
M  V30 1668 C 158.258 -1.4947 -1.23986 0
M  V30 1669 O 157.533 -0.678475 -1.82283 0
M  V30 1670 C 157.816 -3.59898 0.120707 0
M  V30 1671 C 157.669 -4.23063 1.52767 0
M  V30 1672 C 158.988 -4.36585 -0.555127 0
M  V30 1673 H 156.107 -0.73527 0.0504646 0
M  V30 1674 H 158.749 -1.72022 0.806751 0
M  V30 1675 H 156.899 -3.85868 -0.451477 0
M  V30 1676 H 158.571 -4.08202 2.14869 0
M  V30 1677 H 156.814 -3.80586 2.08175 0
M  V30 1678 H 157.485 -5.32071 1.46984 0
M  V30 1679 H 159.961 -4.16044 -0.0685429 0
M  V30 1680 H 158.837 -5.46294 -0.534185 0
M  V30 1681 H 159.098 -4.11138 -1.62535 0
M  V30 1682 N 158.157 -0.370918 -1.53173 0
M  V30 1683 C 159.089 0.507823 -2.23503 0
M  V30 1684 C 160.102 1.04182 -1.251 0
M  V30 1685 O 161.291 0.947286 -1.5129 0
M  V30 1686 C 158.391 1.71447 -2.92334 0
M  V30 1687 C 157.564 1.31105 -4.17289 0
M  V30 1688 C 156.623 2.38035 -4.69282 0
M  V30 1689 O 155.649 2.00204 -5.32829 0
M  V30 1690 N 156.851 3.69697 -4.47554 0
M  V30 1691 H 159.616 -0.0946382 -2.99551 0
M  V30 1692 H 157.177 -0.196358 -1.60705 0
M  V30 1693 H 159.169 2.42469 -3.24023 0
M  V30 1694 H 157.739 2.22368 -2.19707 0
M  V30 1695 H 156.959 0.430462 -3.91843 0
M  V30 1696 H 158.247 1.0179 -4.98514 0
M  V30 1697 H 157.645 4.03205 -3.9679 0
M  V30 1698 H 156.202 4.36807 -4.8378 0
M  V30 1699 N 159.635 1.57281 -0.100228 0
M  V30 1700 C 160.883 1.94153 0.561157 0
M  V30 1701 C 161.204 0.983157 1.68401 0
M  V30 1702 O 160.474 0.0361132 1.95867 0
M  V30 1703 H 159.054 0.716791 0.210283 0
M  V30 1704 H 161.716 1.94202 -0.164765 0
M  V30 1705 H 160.812 2.96709 0.968008 0
M  V30 1706 N 161.113 -0.173488 1.56642 0
M  V30 1707 C 162.338 -0.910149 1.86363 0
M  V30 1708 C 162.763 -1.75132 0.686318 0
M  V30 1709 O 162.121 -1.77595 -0.364643 0
M  V30 1710 C 162.169 -1.76447 3.14482 0
M  V30 1711 O 161.273 -2.86584 2.96553 0
M  V30 1712 H 160.614 -0.255086 0.613047 0
M  V30 1713 H 163.144 -0.172283 2.03873 0
M  V30 1714 H 163.154 -2.16483 3.45831 0
M  V30 1715 H 161.829 -1.14658 3.99783 0
M  V30 1716 H 160.406 -2.50146 2.76553 0
M  V30 1717 N 162.591 -1.51276 -0.441967 0
M  V30 1718 C 163.839 -1.63392 -1.18943 0
M  V30 1719 C 164.16 -0.350159 -1.9183 0
M  V30 1720 O 163.43 0.633784 -1.85364 0
M  V30 1721 H 162.01 -0.602164 -0.442049 0
M  V30 1722 H 164.672 -1.88186 -0.507165 0
M  V30 1723 H 163.768 -2.45934 -1.92154 0
M  V30 1724 N 164.069 0.697108 -1.41344 0
M  V30 1725 C 165.309 1.46939 -1.42085 0
M  V30 1726 C 165.673 1.9198 -0.0280397 0
M  V30 1727 O 166.874 2.6865 0.0897504 0
M  V30 1728 C 165.145 2.64985 -2.39828 0
M  V30 1729 S 166.704 3.54147 -2.59085 0
M  V30 1730 H 163.522 0.502146 -0.503359 0
M  V30 1731 H 166.124 0.813546 -1.77769 0
M  V30 1732 H 164.828 2.30098 -3.39828 0
M  V30 1733 H 164.359 3.35464 -2.05493 0
M  V30 1734 H 166.374 4.60137 -1.85711 0
M  V30 1735 N 165.547 1.27147 0.931209 0
M  V30 1736 C 166.794 1.13278 1.67852 0
M  V30 1737 C 167.122 -0.32204 1.91815 0
M  V30 1738 O 166.377 -1.25224 1.50391 0
M  V30 1739 C 166.676 1.8579 3.05314 0
M  V30 1740 C 166.342 3.35657 3.01073 0
M  V30 1741 C 165.004 3.76536 2.99623 0
M  V30 1742 C 167.356 4.31299 2.92627 0
M  V30 1743 C 164.684 5.11426 2.87506 0
M  V30 1744 C 167.036 5.66242 2.82051 0
M  V30 1745 C 165.7 6.06418 2.7895 0
M  V30 1746 H 164.97 0.414515 0.614214 0
M  V30 1747 H 167.617 1.57712 1.08624 0
M  V30 1748 H 165.922 1.33854 3.68226 0
M  V30 1749 H 167.619 1.72491 3.62005 0
M  V30 1750 H 164.209 3.03146 3.02986 0
M  V30 1751 H 168.393 4.00692 2.92848 0
M  V30 1752 H 163.649 5.41705 2.83489 0
M  V30 1753 H 167.823 6.40026 2.74481 0
M  V30 1754 H 165.45 7.10895 2.69318 0
M  V30 1755 N 167.025 -1.13721 1.09112 0
M  V30 1756 C 168.273 -1.84559 0.823562 0
M  V30 1757 C 168.594 -1.83754 -0.652658 0
M  V30 1758 O 167.864 -1.29102 -1.47342 0
M  V30 1759 H 166.444 -0.683376 0.301673 0
M  V30 1760 H 169.106 -1.37771 1.37859 0
M  V30 1761 H 168.202 -2.8917 1.17419 0
M  V30 1762 N 168.503 -0.877838 -1.30888 0
M  V30 1763 C 169.919 -0.570844 -1.49042 0
M  V30 1764 C 170.119 0.893159 -1.80624 0
M  V30 1765 O 169.175 1.67485 -1.88958 0
M  V30 1766 C 170.488 -1.47784 -2.61878 0
M  V30 1767 C 172.036 -1.48071 -2.75761 0
M  V30 1768 C 172.511 -2.37347 -3.91702 0
M  V30 1769 N 174.002 -2.35271 -3.99001 0
M  V30 1770 C 174.737 -3.01063 -4.88004 0
M  V30 1771 N 174.233 -3.76055 -5.81854 0
M  V30 1772 N 176.026 -2.90332 -4.81315 0
M  V30 1773 H 168.177 -1.82502 -1.0866 0
M  V30 1774 H 170.44 -0.780797 -0.537644 0
M  V30 1775 H 170.146 -2.51993 -2.45341 0
M  V30 1776 H 170.02 -1.18215 -3.58197 0
M  V30 1777 H 172.407 -0.446166 -2.91708 0
M  V30 1778 H 172.488 -1.81668 -1.80085 0
M  V30 1779 H 172.132 -3.40883 -3.76512 0
M  V30 1780 H 172.062 -2.01071 -4.86701 0
M  V30 1781 H 174.553 -1.80768 -3.3186 0
M  V30 1782 H 174.866 -4.23366 -6.46514 0
M  V30 1783 H 173.211 -3.80163 -5.81808 0
M  V30 1784 H 176.402 -2.31278 -4.06974 0
M  V30 1785 H 176.575 -3.41885 -5.50471 0
M  V30 1786 N 169.982 1.44106 -0.638065 0
M  V30 1787 C 170.929 2.30715 0.062701 0
M  V30 1788 C 171.899 1.43882 0.829883 0
M  V30 1789 O 173.084 1.72775 0.809532 0
M  V30 1790 C 170.224 3.29258 1.03358 0
M  V30 1791 C 169.337 4.31192 0.26409 0
M  V30 1792 C 168.472 5.16825 1.22741 0
M  V30 1793 C 167.511 6.10462 0.447475 0
M  V30 1794 N 166.648 6.8877 1.36161 0
M  V30 1795 H 171.488 2.90096 -0.681781 0
M  V30 1796 H 169.025 1.42925 -0.347988 0
M  V30 1797 H 170.983 3.84886 1.60992 0
M  V30 1798 H 169.613 2.71562 1.74511 0
M  V30 1799 H 168.665 3.77981 -0.428295 0
M  V30 1800 H 169.977 4.97619 -0.343052 0
M  V30 1801 H 169.131 5.77004 1.87487 0
M  V30 1802 H 167.87 4.50488 1.86847 0
M  V30 1803 H 166.875 5.49386 -0.213433 0
M  V30 1804 H 168.1 6.78837 -0.188968 0
M  V30 1805 H 166.046 6.25096 1.98975 0
M  V30 1806 H 165.963 7.51663 0.808656 0
M  V30 1807 H 167.231 7.53467 1.99769 0
M  V30 1808 N 171.46 0.379036 1.52974 0
M  V30 1809 C 172.393 -0.504932 2.22544 0
M  V30 1810 C 173.371 -1.0723 1.22231 0
M  V30 1811 O 174.555 -1.12589 1.51182 0
M  V30 1812 C 171.682 -1.69794 2.93066 0
M  V30 1813 C 170.728 -1.25678 4.07563 0
M  V30 1814 S 171.561 -0.246852 5.34931 0
M  V30 1815 C 172.717 -1.44588 6.08971 0
M  V30 1816 H 172.95 0.0858666 2.97176 0
M  V30 1817 H 170.483 0.163183 1.53535 0
M  V30 1818 H 172.441 -2.38219 3.34308 0
M  V30 1819 H 171.102 -2.26002 2.18133 0
M  V30 1820 H 170.295 -2.14725 4.5597 0
M  V30 1821 H 169.897 -0.651584 3.6828 0
M  V30 1822 H 172.189 -2.37469 6.34519 0
M  V30 1823 H 173.132 -1.00292 7.00962 0
M  V30 1824 H 173.54 -1.65804 5.39601 0
M  V30 1825 N 172.938 -1.57226 0.108567 0
M  V30 1826 C 174.215 -1.86333 -0.594939 0
M  V30 1827 C 174.595 -1.00788 -1.85486 0
M  V30 1828 O 173.943 -0.0839293 -2.28346 0
M  V30 1829 C 174.153 -3.37265 -0.897405 0
M  V30 1830 C 175.501 -4.05629 -1.25501 0
M  V30 1831 O 176.525 -3.42224 -0.987998 0
M  V30 1832 O 175.384 -5.17531 -1.75567 0
M  V30 1833 H 172.478 -0.771018 -0.2991 0
M  V30 1834 H 175.024 -1.69102 0.142283 0
M  V30 1835 H 173.796 -3.913 -0.00413806 0
M  V30 1836 H 173.419 -3.59889 -1.69014 0
M  V30 1837 N 174.416 0.165178 -1.56732 0
M  V30 1838 C 175.832 0.517174 -1.50988 0
M  V30 1839 C 176.032 1.84331 -0.813894 0
M  V30 1840 O 175.088 2.49672 -0.37682 0
M  V30 1841 C 176.401 0.544261 -2.95733 0
M  V30 1842 C 177.949 0.631039 -3.06573 0
M  V30 1843 C 178.424 0.68896 -4.52788 0
M  V30 1844 N 179.915 0.751683 -4.5706 0
M  V30 1845 C 180.65 0.817177 -5.67547 0
M  V30 1846 N 180.146 0.843129 -6.8765 0
M  V30 1847 N 181.939 0.856668 -5.55534 0
M  V30 1848 H 174.09 -0.704318 -2.00382 0
M  V30 1849 H 176.353 -0.254687 -0.913148 0
M  V30 1850 H 176.059 -0.361607 -3.49836 0
M  V30 1851 H 175.933 1.3886 -3.5071 0
M  V30 1852 H 178.32 1.52733 -2.52501 0
M  V30 1853 H 178.401 -0.240095 -2.54671 0
M  V30 1854 H 178.045 -0.2031 -5.07494 0
M  V30 1855 H 177.975 1.57633 -5.02454 0
M  V30 1856 H 180.466 0.739661 -3.70591 0
M  V30 1857 H 180.779 0.894448 -7.67606 0
M  V30 1858 H 179.124 0.811304 -6.90248 0
M  V30 1859 H 182.315 0.833437 -4.60621 0
M  V30 1860 H 182.488 0.904247 -6.4166 0
M  V30 1861 N 175.894 1.51508 0.433938 0
M  V30 1862 C 177.143 1.63578 1.18005 0
M  V30 1863 C 177.456 0.359514 1.92268 0
M  V30 1864 O 178.662 0.359632 2.69108 0
M  V30 1865 C 177.118 2.88901 2.14626 0
M  V30 1866 C 176.726 4.23544 1.45995 0
M  V30 1867 C 178.47 3.10328 2.89649 0
M  V30 1868 C 176.377 5.40014 2.4112 0
M  V30 1869 H 175.307 0.609277 0.444182 0
M  V30 1870 H 177.958 1.77978 0.446773 0
M  V30 1871 H 176.34 2.68142 2.91403 0
M  V30 1872 H 177.514 4.54696 0.747532 0
M  V30 1873 H 175.829 4.08021 0.831115 0
M  V30 1874 H 178.426 3.94518 3.60915 0
M  V30 1875 H 178.769 2.23544 3.51189 0
M  V30 1876 H 179.302 3.31443 2.19978 0
M  V30 1877 H 176.041 6.29068 1.84264 0
M  V30 1878 H 175.561 5.13233 3.10406 0
M  V30 1879 H 177.24 5.72099 3.02177 0
M  V30 1880 N 177.372 -0.689602 1.41712 0
M  V30 1881 C 178.597 -1.48329 1.44959 0
M  V30 1882 C 179.022 -1.8801 0.0581283 0
M  V30 1883 O 178.38 -1.55026 -0.940035 0
M  V30 1884 C 178.428 -2.71835 2.36935 0
M  V30 1885 O 177.532 -3.69549 1.8305 0
M  V30 1886 H 176.873 -0.446199 0.491734 0
M  V30 1887 H 179.403 -0.847127 1.86239 0
M  V30 1888 H 179.413 -3.20076 2.53013 0
M  V30 1889 H 178.088 -2.42291 3.38035 0
M  V30 1890 H 176.665 -3.2851 1.76452 0
M  V30 1891 N 178.85 -1.27639 -0.924453 0
M  V30 1892 C 180.075 -1.17101 -1.71179 0
M  V30 1893 C 180.5 0.268134 -1.86179 0
M  V30 1894 O 179.858 1.19415 -1.36418 0
M  V30 1895 C 179.906 -1.86313 -3.08739 0
M  V30 1896 O 179.01 -1.16331 -3.95652 0
M  V30 1897 H 178.351 -0.407091 -0.524569 0
M  V30 1898 H 180.881 -1.68767 -1.15666 0
M  V30 1899 H 180.891 -1.938 -3.59034 0
M  V30 1900 H 179.566 -2.91001 -2.97138 0
M  V30 1901 H 178.143 -1.16935 -3.54091 0
M  V30 1902 N 180.328 1.1314 -1.09713 0
M  V30 1903 C 181.553 1.88862 -0.857081 0
M  V30 1904 C 181.978 1.78729 0.586304 0
M  V30 1905 O 181.336 1.13692 1.41222 0
M  V30 1906 C 181.384 3.36325 -1.30069 0
M  V30 1907 O 180.488 4.09815 -0.461007 0
M  V30 1908 H 179.829 0.587108 -0.310162 0
M  V30 1909 H 182.359 1.43129 -1.46203 0
M  V30 1910 H 182.369 3.87157 -1.28738 0
M  V30 1911 H 181.044 3.43017 -2.35185 0
M  V30 1912 H 179.621 3.68986 -0.538888 0
M  V30 1913 N 181.806 0.884767 1.30421 0
M  V30 1914 C 183.031 0.517288 2.00845 0
M  V30 1915 C 183.456 -0.886779 1.65885 0
M  V30 1916 O 182.814 -1.58768 0.875354 0
M  V30 1917 C 182.862 0.698994 3.5376 0
M  V30 1918 O 181.966 -0.255208 4.1161 0
M  V30 1919 H 181.307 0.203872 0.631927 0
M  V30 1920 H 183.837 1.19225 1.66272 0
M  V30 1921 H 183.847 0.597912 4.03595 0
M  V30 1922 H 182.522 1.72271 3.78544 0
M  V30 1923 H 181.099 -0.10784 3.72744 0
M  V30 1924 N 183.284 -1.43765 0.645699 0
M  V30 1925 C 184.532 -2.01499 0.155731 0
M  V30 1926 C 184.853 -1.51151 -1.232 0
M  V30 1927 O 184.123 -0.721044 -1.82148 0
M  V30 1928 H 182.703 -0.745003 0.0545817 0
M  V30 1929 H 185.365 -1.76075 0.835677 0
M  V30 1930 H 184.461 -3.1181 0.134577 0
M  V30 1931 N 184.763 -0.387143 -1.52771 0
M  V30 1932 C 185.693 0.440551 -2.29306 0
M  V30 1933 C 186.674 1.06535 -1.32606 0
M  V30 1934 O 187.859 1.07853 -1.61497 0
M  V30 1935 C 184.989 1.56919 -3.09829 0
M  V30 1936 C 183.943 1.07054 -4.14395 0
M  V30 1937 C 183.269 2.29109 -4.83129 0
M  V30 1938 C 184.569 0.140015 -5.22112 0
M  V30 1939 H 186.263 -0.198026 -2.98744 0
M  V30 1940 H 183.809 -0.09668 -1.43675 0
M  V30 1941 H 185.762 2.15503 -3.62128 0
M  V30 1942 H 184.486 2.23532 -2.3812 0
M  V30 1943 H 183.145 0.507247 -3.63074 0
M  V30 1944 H 182.793 2.94227 -4.0797 0
M  V30 1945 H 182.493 1.96406 -5.53804 0
M  V30 1946 H 184.017 2.88339 -5.38231 0
M  V30 1947 H 185.431 0.633978 -5.69784 0
M  V30 1948 H 183.828 -0.0971485 -6.00021 0
M  V30 1949 H 184.898 -0.811711 -4.78058 0
M  V30 1950 N 186.241 1.57166 -0.116904 0
M  V30 1951 C 187.489 1.94737 0.540533 0
M  V30 1952 C 187.81 1.00096 1.67349 0
M  V30 1953 O 187.08 0.0568854 1.95817 0
M  V30 1954 H 185.66 0.718981 0.202669 0
M  V30 1955 H 188.322 1.94017 -0.185353 0
M  V30 1956 H 187.418 2.97719 0.936483 0
M  V30 1957 N 187.719 -0.156864 1.56817 0
M  V30 1958 C 188.959 -0.877453 1.84608 0
M  V30 1959 C 189.323 -1.78791 0.699845 0
M  V30 1960 O 190.524 -2.5472 0.858553 0
M  V30 1961 C 188.795 -1.63992 3.17555 0
M  V30 1962 S 190.354 -2.40729 3.66872 0
M  V30 1963 H 187.172 -0.293612 0.647544 0
M  V30 1964 H 189.774 -0.138099 1.95012 0
M  V30 1965 H 188.478 -0.962363 3.98957 0
M  V30 1966 H 188.009 -2.42038 3.10131 0
M  V30 1967 H 190.024 -3.65725 3.3535 0
M  V30 1968 N 189.197 -1.51736 -0.425897 0
M  V30 1969 C 190.144 -1.73875 -1.51776 0
M  V30 1970 C 191.114 -0.580702 -1.55618 0
M  V30 1971 O 192.299 -0.81641 -1.72451 0
M  V30 1972 C 189.439 -1.88012 -2.89388 0
M  V30 1973 C 188.552 -3.15606 -2.94986 0
M  V30 1974 C 187.687 -3.20271 -4.23793 0
M  V30 1975 C 186.726 -4.42134 -4.23302 0
M  V30 1976 N 185.863 -4.44284 -5.43651 0
M  V30 1977 H 190.703 -2.67071 -1.32201 0
M  V30 1978 H 188.24 -1.32351 -0.642008 0
M  V30 1979 H 190.198 -1.9419 -3.69251 0
M  V30 1980 H 188.828 -0.98213 -3.07496 0
M  V30 1981 H 187.88 -3.18681 -2.07717 0
M  V30 1982 H 189.192 -4.05486 -2.90486 0
M  V30 1983 H 188.346 -3.25428 -5.12036 0
M  V30 1984 H 187.085 -2.28299 -4.30965 0
M  V30 1985 H 186.09 -4.3714 -3.3345 0
M  V30 1986 H 187.315 -5.35382 -4.17783 0
M  V30 1987 H 185.261 -3.55188 -5.51523 0
M  V30 1988 H 185.178 -5.27988 -5.41078 0
M  V30 1989 H 186.446 -4.53649 -6.33895 0
M  V30 1990 N 190.675 0.682077 -1.42076 0
M  V30 1991 C 191.921 1.44428 -1.42367 0
M  V30 1992 C 192.254 1.94164 -0.0373056 0
M  V30 1993 O 191.529 1.70429 0.937239 0
M  V30 1994 C 191.812 2.64654 -2.44194 0
M  V30 1995 C 191.665 2.20596 -3.91991 0
M  V30 1996 C 192.984 3.66865 -2.431 0
M  V30 1997 H 190.103 0.523834 -0.518428 0
M  V30 1998 H 192.745 0.77576 -1.73442 0
M  V30 1999 H 190.895 3.2169 -2.17826 0
M  V30 2000 H 192.567 1.68783 -4.29313 0
M  V30 2001 H 190.81 1.52242 -4.06208 0
M  V30 2002 H 191.481 3.06921 -4.58807 0
M  V30 2003 H 193.957 3.19531 -2.66532 0
M  V30 2004 H 192.833 4.48577 -3.16339 0
M  V30 2005 H 193.094 4.17493 -1.45437 0
M  V30 2006 N 192.153 1.28127 0.917671 0
M  V30 2007 C 193.083 1.14248 2.03641 0
M  V30 2008 C 194.064 0.0412748 1.7005 0
M  V30 2009 O 195.249 0.217566 1.92977 0
M  V30 2010 C 192.379 0.799431 3.37974 0
M  V30 2011 C 191.333 1.85497 3.85713 0
M  V30 2012 C 190.659 1.36565 5.16966 0
M  V30 2013 C 191.959 3.26085 4.08002 0
M  V30 2014 H 193.653 2.07835 2.15511 0
M  V30 2015 H 191.199 1.00064 1.03553 0
M  V30 2016 H 193.152 0.689114 4.15727 0
M  V30 2017 H 191.876 -0.172145 3.26146 0
M  V30 2018 H 190.535 1.95437 3.10161 0
M  V30 2019 H 190.183 0.383253 5.01538 0
M  V30 2020 H 189.883 2.07143 5.49878 0
M  V30 2021 H 191.407 1.26848 5.97279 0
M  V30 2022 H 192.821 3.19089 4.76293 0
M  V30 2023 H 191.218 3.94462 4.52238 0
M  V30 2024 H 192.288 3.70394 3.12948 0
M  V30 2025 N 193.631 -1.12557 1.10312 0
M  V30 2026 C 195.047 -1.36036 0.834649 0
M  V30 2027 C 195.247 -1.93946 -0.546539 0
M  V30 2028 O 194.303 -2.16484 -1.29966 0
M  V30 2029 C 195.616 -2.30312 1.9333 0
M  V30 2030 C 197.164 -2.43906 1.9616 0
M  V30 2031 C 197.639 -3.41496 3.05195 0
M  V30 2032 N 199.13 -3.49053 3.04494 0
M  V30 2033 C 199.865 -4.24471 3.85502 0
M  V30 2034 N 199.361 -5.02966 4.76442 0
M  V30 2035 N 201.154 -4.19864 3.73725 0
M  V30 2036 H 193.305 -0.733246 1.99342 0
M  V30 2037 H 195.568 -0.385234 0.866198 0
M  V30 2038 H 195.274 -1.94933 2.92735 0
M  V30 2039 H 195.148 -3.30421 1.81939 0
M  V30 2040 H 197.535 -2.78567 0.973886 0
M  V30 2041 H 197.616 -1.4369 2.11629 0
M  V30 2042 H 197.26 -3.07565 4.04186 0
M  V30 2043 H 197.19 -4.41539 2.86968 0
M  V30 2044 H 199.681 -2.93053 2.38596 0
M  V30 2045 H 199.994 -5.57846 5.34815 0
M  V30 2046 H 198.339 -5.02167 4.80472 0
M  V30 2047 H 201.53 -3.57623 3.02032 0
M  V30 2048 H 201.703 -4.78386 4.37093 0
M  V30 2049 N 195.109 -0.891671 -1.2995 0
M  V30 2050 C 196.525 -0.58662 -1.48428 0
M  V30 2051 C 196.725 0.873951 -1.81561 0
M  V30 2052 O 195.781 1.65471 -1.90724 0
M  V30 2053 C 197.094 -1.50553 -2.60296 0
M  V30 2054 C 198.642 -1.50988 -2.74175 0
M  V30 2055 C 199.117 -2.41488 -3.89163 0
M  V30 2056 N 200.608 -2.39489 -3.96483 0
M  V30 2057 C 201.343 -3.06223 -4.84784 0
M  V30 2058 N 200.839 -3.82206 -5.77833 0
M  V30 2059 N 202.632 -2.95421 -4.78208 0
M  V30 2060 H 194.783 -1.83644 -1.06718 0
M  V30 2061 H 197.046 -0.786455 -0.529332 0
M  V30 2062 H 196.752 -2.54581 -2.42654 0
M  V30 2063 H 196.626 -1.22008 -3.56923 0
M  V30 2064 H 199.013 -0.47708 -2.91218 0
M  V30 2065 H 199.094 -1.83567 -1.78148 0
M  V30 2066 H 198.738 -3.44857 -3.72876 0
M  V30 2067 H 198.668 -2.06222 -4.84541 0
M  V30 2068 H 201.159 -1.84278 -3.29924 0
M  V30 2069 H 201.472 -4.302 -6.41988 0
M  V30 2070 H 199.817 -3.86313 -5.77743 0
M  V30 2071 H 203.008 -2.35581 -4.04499 0
M  V30 2072 H 203.181 -3.47704 -5.46814 0
M  V30 2073 N 196.587 1.43421 -0.653314 0
M  V30 2074 C 197.537 2.2792 0.060558 0
M  V30 2075 C 198.521 1.39906 0.794677 0
M  V30 2076 O 199.713 1.63536 0.677128 0
M  V30 2077 C 196.842 3.27603 1.0262 0
M  V30 2078 C 195.928 4.23104 0.290551 0
M  V30 2079 N 196.319 5.01031 -0.692967 0
M  V30 2080 C 194.617 4.42816 0.531984 0
M  V30 2081 C 195.318 5.70626 -1.12963 0
M  V30 2082 N 194.294 5.41617 -0.463867 0
M  V30 2083 H 198.096 2.85585 -0.694143 0
M  V30 2084 H 195.61 1.55126 -0.480602 0
M  V30 2085 H 197.607 3.86918 1.55242 0
M  V30 2086 H 196.267 2.71499 1.78096 0
M  V30 2087 H 197.278 5.0669 -1.07169 0
M  V30 2088 H 193.955 3.97782 1.26791 0
M  V30 2089 H 195.345 6.4318 -1.94343 0
M  V30 2090 O 198.104 0.537413 1.52296 0
M  V30 2091 H 198.795 0.0295046 1.93678 0
M  V30 END ATOM
M  V30 BEGIN BOND
M  V30 END BOND
M  V30 END CTAB
M  END
$$$$
