drugbank_target|P16870 Carboxypeptidase E (DB00030; DB00071)
 OpenBabel12092119483D

  0  0  0     0  0            999 V3000
M  V30 BEGIN CTAB
M  V30 COUNTS 7344 7436 0 0 0
M  V30 BEGIN ATOM
M  V30 1 H -0.908 1.98254 -0.117106 0
M  V30 2 N 0 1.576 0 0
M  V30 3 C 0.933 2.03868 1.02534 0
M  V30 4 C 1.911 0.928543 1.3348 0
M  V30 5 O 3.095 1.19667 1.45644 0
M  V30 6 C 0.222 2.43627 2.35294 0
M  V30 7 C -0.732 3.65373 2.2001 0
M  V30 8 S 0.101 5.13292 1.52614 0
M  V30 9 C 1.257 5.56322 2.86805 0
M  V30 10 H 1.49 2.90518 0.631377 0
M  V30 11 H -0.977 1.52953 0.210867 0
M  V30 12 H 0.981 2.67203 3.11629 0
M  V30 13 H -0.358 1.57376 2.7183 0
M  V30 14 H -1.165 3.90944 3.18086 0
M  V30 15 H -1.563 3.418 1.51819 0
M  V30 16 H 0.729 5.58782 3.83104 0
M  V30 17 H 1.672 6.56266 2.65933 0
M  V30 18 H 2.08 4.83886 2.90714 0
M  V30 19 N 1.4781 -0.272755 1.55222 0
M  V30 20 C 2.4411 -1.32041 1.87344 0
M  V30 21 C 3.4411 -1.42342 0.74803 0
M  V30 22 O 4.6311 -1.41488 1.0162 0
M  V30 23 C 1.7631 -2.70173 2.07893 0
M  V30 24 H 2.9561 -1.04789 2.80997 0
M  V30 25 H 0.5091 -0.51083 1.47717 0
M  V30 26 H 1.2441 -3.02605 1.16622 0
M  V30 27 H 1.0291 -2.64082 2.89833 0
M  V30 28 H 2.5191 -3.45869 2.34017 0
M  V30 29 N 2.9562 -1.48159 -0.537278 0
M  V30 30 C 4.2042 -1.55497 -1.29094 0
M  V30 31 C 4.5252 -0.227454 -1.93669 0
M  V30 32 O 3.7952 0.750386 -1.80959 0
M  V30 33 H 2.3752 -0.572832 -0.47945 0
M  V30 34 H 5.0372 -1.84579 -0.625818 0
M  V30 35 H 4.1332 -2.33216 -2.07405 0
M  V30 36 N 4.4343 0.785586 -1.36625 0
M  V30 37 C 5.8503 1.08419 -1.17122 0
M  V30 38 C 6.0503 2.015 0.00208491 0
M  V30 39 O 5.1063 2.43551 0.666278 0
M  V30 40 C 6.4193 1.69498 -2.48377 0
M  V30 41 C 7.9673 1.81821 -2.54775 0
M  V30 42 C 8.4423 2.46315 -3.86126 0
M  V30 43 N 9.9333 2.53779 -3.87492 0
M  V30 44 C 10.6683 3.045 -4.85868 0
M  V30 45 N 10.1643 3.55499 -5.94637 0
M  V30 46 N 11.9573 3.03247 -4.73284 0
M  V30 47 H 4.1083 0.167264 -2.1174 0
M  V30 48 H 6.3713 0.13682 -0.938075 0
M  V30 49 H 6.0773 1.08571 -3.34522 0
M  V30 50 H 5.9513 2.6896 -2.64462 0
M  V30 51 H 8.3383 2.41884 -1.69045 0
M  V30 52 H 8.4193 0.811532 -2.42586 0
M  V30 53 H 8.0633 1.86895 -4.72263 0
M  V30 54 H 7.9933 3.47561 -3.95612 0
M  V30 55 H 10.4843 2.17672 -3.08913 0
M  V30 56 H 10.7973 3.92562 -6.65669 0
M  V30 57 H 9.1423 3.5364 -5.98301 0
M  V30 58 H 12.3333 2.62696 -3.87438 0
M  V30 59 H 12.5063 3.42467 -5.50109 0
M  V30 60 N 5.9124 1.20967 1.01018 0
M  V30 61 C 7.1604 1.02172 1.74371 0
M  V30 62 C 7.4814 -0.446414 1.89821 0
M  V30 63 O 6.7514 -1.32234 1.44537 0
M  V30 64 H 5.3314 0.375066 0.646014 0
M  V30 65 H 7.9934 1.52187 1.21758 0
M  V30 66 H 7.0894 1.48538 2.74487 0
M  V30 67 N 7.3905 -1.2043 1.01659 0
M  V30 68 C 8.6385 -1.89423 0.704522 0
M  V30 69 C 8.9595 -1.79231 -0.768197 0
M  V30 70 O 8.2295 -1.1947 -1.55254 0
M  V30 71 H 6.8095 -0.701178 0.257602 0
M  V30 72 H 9.4715 -1.4626 1.28818 0
M  V30 73 H 8.5675 -2.96052 0.987916 0
M  V30 74 N 8.8686 -0.792821 -1.36206 0
M  V30 75 C 10.0936 -0.377701 -2.03932 0
M  V30 76 C 10.5186 0.998947 -1.59382 0
M  V30 77 O 9.8766 1.64421 -0.763903 0
M  V30 78 C 9.9246 -0.453635 -3.57735 0
M  V30 79 O 9.0286 0.538151 -4.08874 0
M  V30 80 H 8.3696 -0.159855 -0.644471 0
M  V30 81 H 10.8996 -1.07488 -1.7409 0
M  V30 82 H 10.9096 -0.318464 -4.06755 0
M  V30 83 H 9.5846 -1.45784 -3.89512 0
M  V30 84 H 8.1616 0.364359 -3.71116 0
M  V30 85 N 10.3467 1.47872 -0.545128 0
M  V30 86 C 11.3097 2.28337 0.198717 0
M  V30 87 C 12.3097 1.36255 0.853888 0
M  V30 88 O 13.4997 1.59003 0.711606 0
M  V30 89 C 10.6317 3.15585 1.28915 0
M  V30 90 H 11.8247 2.95567 -0.507941 0
M  V30 91 H 9.3777 1.53362 -0.301616 0
M  V30 92 H 10.1127 2.53019 2.02859 0
M  V30 93 H 9.8977 3.83337 0.824309 0
M  V30 94 H 11.3877 3.76243 1.81194 0
M  V30 95 N 11.8248 0.280983 1.55075 0
M  V30 96 C 12.7548 -0.597469 2.25727 0
M  V30 97 C 13.7358 -1.15417 1.24952 0
M  V30 98 O 14.9208 -1.18722 1.53684 0
M  V30 99 C 12.0508 -1.7789 2.98283 0
M  V30 100 C 11.0048 -1.35347 4.06036 0
M  V30 101 C 10.3308 -2.61846 4.66198 0
M  V30 102 C 11.6308 -0.499354 5.19907 0
M  V30 103 H 13.3248 -0.00824265 2.99399 0
M  V30 104 H 10.8708 -0.0025244 1.44 0
M  V30 105 H 12.8238 -2.39937 3.46422 0
M  V30 106 H 11.5478 -2.39405 2.22155 0
M  V30 107 H 10.2068 -0.756156 3.58717 0
M  V30 108 H 9.8548 -3.21632 3.86732 0
M  V30 109 H 9.5548 -2.3409 5.38958 0
M  V30 110 H 11.0788 -3.24732 5.1709 0
M  V30 111 H 12.4928 -1.02498 5.64063 0
M  V30 112 H 10.8898 -0.316424 5.99265 0
M  V30 113 H 11.9598 0.480459 4.82514 0
M  V30 114 N 13.3029 -1.57598 0.00835791 0
M  V30 115 C 14.2329 -2.1198 -0.979113 0
M  V30 116 C 15.2139 -1.03091 -1.35301 0
M  V30 117 O 16.3989 -1.30818 -1.43528 0
M  V30 118 C 13.5289 -2.62995 -2.26828 0
M  V30 119 C 12.4829 -3.76485 -2.03576 0
M  V30 120 C 11.8089 -4.13846 -3.38579 0
M  V30 121 C 13.1089 -5.0342 -1.39161 0
M  V30 122 H 14.8029 -2.94738 -0.526281 0
M  V30 123 H 12.3489 -1.41783 -0.251704 0
M  V30 124 H 14.3019 -2.99669 -2.96271 0
M  V30 125 H 13.0259 -1.7737 -2.7424 0
M  V30 126 H 11.6849 -3.40217 -1.36557 0
M  V30 127 H 11.3329 -3.25232 -3.83709 0
M  V30 128 H 11.0329 -4.90312 -3.23834 0
M  V30 129 H 12.5569 -4.53086 -4.09323 0
M  V30 130 H 13.9709 -5.37812 -1.98573 0
M  V30 131 H 12.3679 -5.84746 -1.34878 0
M  V30 132 H 13.4379 -4.83548 -0.361868 0
M  V30 133 N 14.781 0.264519 -1.55364 0
M  V30 134 C 15.744 1.31046 -1.88042 0
M  V30 135 C 16.744 1.41943 -0.755569 0
M  V30 136 O 17.934 1.40947 -1.02369 0
M  V30 137 C 15.066 2.69067 -2.09323 0
M  V30 138 H 16.259 1.03297 -2.81549 0
M  V30 139 H 13.812 0.502989 -1.47986 0
M  V30 140 H 14.547 3.01982 -1.18226 0
M  V30 141 H 14.332 2.62542 -2.91229 0
M  V30 142 H 15.822 3.44623 -2.35848 0
M  V30 143 N 16.2591 1.48442 0.529413 0
M  V30 144 C 17.1891 1.65902 1.64313 0
M  V30 145 C 18.1701 0.507897 1.6234 0
M  V30 146 O 19.3551 0.740503 1.79528 0
M  V30 147 C 16.4851 1.69911 3.02898 0
M  V30 148 C 15.4391 2.8453 3.19729 0
M  V30 149 C 14.7651 2.73629 4.59381 0
M  V30 150 C 16.0651 4.25821 3.02447 0
M  V30 151 H 17.7591 2.5914 1.49955 0
M  V30 152 H 15.3051 1.24709 0.719982 0
M  V30 153 H 17.2581 1.80715 3.80684 0
M  V30 154 H 15.9821 0.732524 3.18279 0
M  V30 155 H 14.6411 2.73283 2.44361 0
M  V30 156 H 14.2891 1.74938 4.71599 0
M  V30 157 H 13.9891 3.50541 4.71588 0
M  V30 158 H 15.5131 2.86401 5.39265 0
M  V30 159 H 16.9271 4.37898 3.70024 0
M  V30 160 H 15.3241 5.03735 3.26146 0
M  V30 161 H 16.3941 4.42244 1.98867 0
M  V30 162 N 17.7372 -0.778329 1.37039 0
M  V30 163 C 18.9772 -1.54973 1.33276 0
M  V30 164 C 19.3412 -1.91816 -0.0839376 0
M  V30 165 O 20.5422 -2.6767 -0.246228 0
M  V30 166 C 18.8132 -2.78517 2.23971 0
M  V30 167 S 20.3722 -3.6865 2.37997 0
M  V30 168 H 17.1902 -0.530639 0.473226 0
M  V30 169 H 19.7922 -0.915806 1.72723 0
M  V30 170 H 18.4962 -2.4952 3.25835 0
M  V30 171 H 18.0272 -3.46875 1.85584 0
M  V30 172 H 20.0422 -4.70182 1.58567 0
M  V30 173 N 19.2153 -1.21501 -1.00376 0
M  V30 174 C 20.4633 -1.03095 -1.73827 0
M  V30 175 C 20.7843 0.436341 -1.90055 0
M  V30 176 O 20.0543 1.31466 -1.45236 0
M  V30 177 H 18.6343 -0.378487 -0.644016 0
M  V30 178 H 21.2963 -1.52831 -1.20949 0
M  V30 179 H 20.3923 -1.49991 -2.73695 0
M  V30 180 N 20.6934 1.19889 -1.02296 0
M  V30 181 C 21.6564 2.21116 -0.603351 0
M  V30 182 C 22.6564 1.5738 0.329884 0
M  V30 183 O 23.8464 1.73802 0.117702 0
M  V30 184 C 20.9784 3.40696 0.117992 0
M  V30 185 H 22.1714 2.59754 -1.49893 0
M  V30 186 H 19.7244 1.33463 -0.813468 0
M  V30 187 H 20.4594 3.07569 1.0282 0
M  V30 188 H 20.2444 3.88188 -0.552511 0
M  V30 189 H 21.7344 4.15692 0.398696 0
M  V30 190 N 22.1715 0.800033 1.35784 0
M  V30 191 C 23.1015 0.220184 2.3246 0
M  V30 192 C 24.0825 -0.65073 1.57161 0
M  V30 193 O 25.2675 -0.582359 1.85263 0
M  V30 194 C 22.3975 -0.637353 3.41402 0
M  V30 195 C 21.3515 0.134531 4.27789 0
M  V30 196 C 20.6775 -0.844285 5.27992 0
M  V30 197 C 21.9775 1.32979 5.05088 0
M  V30 198 H 23.6715 1.02787 2.81203 0
M  V30 199 H 21.2175 0.495717 1.35199 0
M  V30 200 H 23.1705 -1.05302 4.08031 0
M  V30 201 H 21.8945 -1.47785 2.91251 0
M  V30 202 H 20.5535 0.531296 3.6273 0
M  V30 203 H 20.2015 -1.68011 4.74111 0
M  V30 204 H 19.9015 -0.332184 5.8666 0
M  V30 205 H 21.4255 -1.2583 5.97494 0
M  V30 206 H 22.8395 0.98934 5.64699 0
M  V30 207 H 21.2365 1.77593 5.7322 0
M  V30 208 H 22.3065 2.11978 4.36111 0
M  V30 209 N 23.6496 -1.47581 0.552962 0
M  V30 210 C 24.6126 -2.28439 -0.186605 0
M  V30 211 C 25.6126 -1.36706 -0.84665 0
M  V30 212 O 26.8026 -1.59378 -0.703164 0
M  V30 213 C 23.9346 -3.16264 -1.2724 0
M  V30 214 H 25.1276 -2.95294 0.523609 0
M  V30 215 H 22.6806 -1.532 0.309745 0
M  V30 216 H 23.4156 -2.54091 -2.01514 0
M  V30 217 H 23.2006 -3.83769 -0.803968 0
M  V30 218 H 24.6906 -3.77198 -1.79196 0
M  V30 219 N 25.1277 -0.289203 -1.54924 0
M  V30 220 C 26.0907 0.579144 -2.21762 0
M  V30 221 C 27.0907 1.07047 -1.1999 0
M  V30 222 O 28.2807 0.968384 -1.44803 0
M  V30 223 C 25.4127 1.80055 -2.8947 0
M  V30 224 H 26.6057 -0.00464908 -2.999 0
M  V30 225 H 24.1587 -0.0399306 -1.56249 0
M  V30 226 H 24.8937 2.42449 -2.15381 0
M  V30 227 H 24.6787 1.45602 -3.64064 0
M  V30 228 H 26.1687 2.41773 -3.40493 0
M  V30 229 N 26.6058 1.57591 -0.0167156 0
M  V30 230 C 27.8458 1.93145 0.668902 0
M  V30 231 C 28.2098 0.892406 1.7 0
M  V30 232 O 29.4108 1.13373 2.43721 0
M  V30 233 C 27.6818 3.33678 1.28039 0
M  V30 234 S 29.2408 3.91142 1.9888 0
M  V30 235 H 26.0588 0.67593 0.220545 0
M  V30 236 H 28.6608 1.95347 -0.0774105 0
M  V30 237 H 27.3648 4.07126 0.517339 0
M  V30 238 H 26.8958 3.3489 2.06427 0
M  V30 239 H 28.9108 3.73571 3.26587 0
M  V30 240 N 28.0839 -0.256276 1.55502 0
M  V30 241 C 29.3319 -0.983672 1.76545 0
M  V30 242 C 29.6529 -1.86206 0.578982 0
M  V30 243 O 28.9229 -1.91656 -0.405577 0
M  V30 244 H 27.5029 -0.366191 0.651086 0
M  V30 245 H 30.1649 -0.276479 1.92929 0
M  V30 246 H 29.2609 -1.61087 2.67315 0
M  V30 247 N 29.562 -1.4872 -0.521534 0
M  V30 248 C 30.808 -1.58378 -1.27624 0
M  V30 249 C 31.163 -0.258028 -1.90662 0
M  V30 250 O 30.456 0.739917 -1.76736 0
M  V30 251 C 30.65 -2.66497 -2.38148 0
M  V30 252 C 30.479 -4.09456 -1.85945 0
M  V30 253 C 29.249 -4.76495 -1.68168 0
M  V30 254 C 31.447 -4.95353 -1.3831 0
M  V30 255 N 29.429 -6.0384 -1.1068 0
M  V30 256 C 30.8 -6.13012 -0.928238 0
M  V30 257 C 32.855 -4.81512 -1.26692 0
M  V30 258 C 31.558 -7.18354 -0.368701 0
M  V30 259 C 33.584 -5.86984 -0.721368 0
M  V30 260 C 32.946 -7.03857 -0.276623 0
M  V30 261 H 29.045 -0.634045 -0.457724 0
M  V30 262 H 31.629 -1.85639 -0.587049 0
M  V30 263 H 29.8 -2.41043 -3.04553 0
M  V30 264 H 31.532 -2.65791 -3.05184 0
M  V30 265 H 28.287 -4.32962 -1.91939 0
M  V30 266 H 28.711 -6.71778 -0.839217 0
M  V30 267 H 33.353 -3.91487 -1.5968 0
M  V30 268 H 31.071 -8.08096 -0.0265122 0
M  V30 269 H 34.657 -5.78329 -0.634531 0
M  V30 270 H 33.537 -7.84077 0.138947 0
M  V30 271 N 31.0401 0.771051 -1.3745 0
M  V30 272 C 31.9701 1.89827 -1.3597 0
M  V30 273 C 32.9511 1.68562 -0.228216 0
M  V30 274 O 34.1361 1.8941 -0.428675 0
M  V30 275 C 31.2661 3.2712 -1.16662 0
M  V30 276 C 30.2201 3.6295 -2.2683 0
M  V30 277 C 29.5461 4.98791 -1.92644 0
M  V30 278 C 30.8461 3.69627 -3.69017 0
M  V30 279 H 32.5401 1.91323 -2.30295 0
M  V30 280 H 30.0861 0.919082 -1.10855 0
M  V30 281 H 32.0391 4.05615 -1.14256 0
M  V30 282 H 30.7631 3.26059 -0.187926 0
M  V30 283 H 29.4221 2.86763 -2.28392 0
M  V30 284 H 29.0701 4.94271 -0.933021 0
M  V30 285 H 28.7701 5.23733 -2.66416 0
M  V30 286 H 30.2941 5.79685 -1.91826 0
M  V30 287 H 31.7081 4.38273 -3.69581 0
M  V30 288 H 30.1051 4.06067 -4.41848 0
M  V30 289 H 31.1751 2.70273 -4.02592 0
M  V30 290 N 32.5182 1.22032 0.997298 0
M  V30 291 C 33.4482 1.01065 2.10495 0
M  V30 292 C 34.4292 -0.0669542 1.69968 0
M  V30 293 O 35.6142 0.0943987 1.9397 0
M  V30 294 C 32.7442 0.582874 3.42374 0
M  V30 295 C 31.6982 1.60592 3.96729 0
M  V30 296 C 31.0242 1.03412 5.24605 0
M  V30 297 C 32.3242 2.99478 4.27914 0
M  V30 298 H 34.0182 1.93708 2.28292 0
M  V30 299 H 31.5642 0.932761 1.09707 0
M  V30 300 H 33.5172 0.423332 4.19268 0
M  V30 301 H 32.2412 -0.379213 3.24391 0
M  V30 302 H 30.9002 1.75316 3.21963 0
M  V30 303 H 30.5482 0.063518 5.0296 0
M  V30 304 H 30.2482 1.71754 5.61938 0
M  V30 305 H 31.7722 0.886066 6.04137 0
M  V30 306 H 33.1862 2.88153 4.95622 0
M  V30 307 H 31.5832 3.64903 4.76409 0
M  V30 308 H 32.6532 3.49742 3.3587 0
M  V30 309 N 33.9963 -1.19345 1.0293 0
M  V30 310 C 35.2443 -1.88665 0.724574 0
M  V30 311 C 35.5653 -1.80036 -0.749144 0
M  V30 312 O 34.8353 -1.2111 -1.53978 0
M  V30 313 H 33.4153 -0.698406 0.265025 0
M  V30 314 H 36.0773 -1.44885 1.30362 0
M  V30 315 H 35.1733 -2.94987 1.01926 0
M  V30 316 N 35.4744 -0.807222 -1.35358 0
M  V30 317 C 36.4374 -0.223665 -2.28106 0
M  V30 318 C 37.4374 0.589354 -1.4961 0
M  V30 319 O 38.6274 0.407745 -1.69361 0
M  V30 320 C 35.7594 0.688149 -3.33882 0
M  V30 321 H 36.9524 -1.04169 -2.81227 0
M  V30 322 H 34.5054 -0.577921 -1.45223 0
M  V30 323 H 35.2404 1.52984 -2.85948 0
M  V30 324 H 35.0254 0.10687 -3.91954 0
M  V30 325 H 36.5154 1.09075 -4.03104 0
M  V30 326 N 36.9525 1.47285 -0.560781 0
M  V30 327 C 37.8625 2.33846 0.187954 0
M  V30 328 C 38.8785 1.48412 0.908293 0
M  V30 329 O 40.0545 1.81332 0.876388 0
M  V30 330 C 37.1195 3.25178 1.2025 0
M  V30 331 C 36.1805 4.26504 0.489208 0
M  V30 332 C 35.4135 5.13472 1.45542 0
M  V30 333 O 35.6365 5.02959 2.6905 0
M  V30 334 O 34.5705 5.93902 0.977963 0
M  V30 335 H 38.3965 2.99177 -0.522177 0
M  V30 336 H 35.9815 1.45903 -0.321364 0
M  V30 337 H 37.8635 3.81584 1.78805 0
M  V30 338 H 36.5385 2.6247 1.89449 0
M  V30 339 H 35.4455 3.73847 -0.137627 0
M  V30 340 H 36.7785 4.91935 -0.161399 0
M  V30 341 N 38.4306 0.297415 1.54768 0
M  V30 342 C 39.3936 -0.567375 2.22066 0
M  V30 343 C 40.3936 -1.06409 1.20556 0
M  V30 344 O 41.5836 -0.960691 1.45315 0
M  V30 345 C 38.7156 -1.78517 2.90421 0
M  V30 346 H 39.9086 0.0205534 2.99893 0
M  V30 347 H 37.4616 0.0482163 1.56226 0
M  V30 348 H 38.1966 -2.41303 2.16664 0
M  V30 349 H 37.9816 -1.43669 3.64831 0
M  V30 350 H 39.4716 -2.39964 3.41771 0
M  V30 351 N 39.9087 -1.5758 0.0250728 0
M  V30 352 C 40.8407 -2.06869 -0.986796 0
M  V30 353 C 41.8537 -0.991332 -1.29137 0
M  V30 354 O 43.0427 -1.26761 -1.25674 0
M  V30 355 C 40.1427 -2.47486 -2.31525 0
M  V30 356 C 39.3157 -3.78253 -2.19643 0
M  V30 357 C 38.3747 -4.05464 -3.35388 0
M  V30 358 O 37.4007 -4.75774 -3.12454 0
M  V30 359 N 38.6027 -3.55321 -4.59051 0
M  V30 360 H 41.3677 -2.94302 -0.566276 0
M  V30 361 H 38.9287 -1.6109 -0.161776 0
M  V30 362 H 40.9207 -2.62785 -3.07776 0
M  V30 363 H 39.4907 -1.65441 -2.65232 0
M  V30 364 H 38.7107 -3.7279 -1.28144 0
M  V30 365 H 39.9987 -4.63936 -2.08903 0
M  V30 366 H 39.3967 -2.98431 -4.80578 0
M  V30 367 H 37.9537 -3.75905 -5.32483 0
M  V30 368 N 41.3868 0.248026 -1.55636 0
M  V30 369 C 42.2968 1.32859 -1.93354 0
M  V30 370 C 43.3128 1.52719 -0.833838 0
M  V30 371 O 44.4888 1.66363 -1.13513 0
M  V30 372 C 41.5538 2.66337 -2.21958 0
M  V30 373 C 40.6148 2.55008 -3.45354 0
M  V30 374 C 39.8478 3.82121 -3.72584 0
M  V30 375 O 40.0708 4.83951 -3.01907 0
M  V30 376 O 39.0048 3.80822 -4.6611 0
M  V30 377 H 42.8308 1.03862 -2.85388 0
M  V30 378 H 40.4158 0.448686 -1.42503 0
M  V30 379 H 42.2978 3.45216 -2.4167 0
M  V30 380 H 40.9728 2.95068 -1.33103 0
M  V30 381 H 39.8798 1.7442 -3.30951 0
M  V30 382 H 41.2128 2.31222 -4.34508 0
M  V30 383 N 42.8649 1.48995 0.513639 0
M  V30 384 C 44.2759 1.5119 1.09537 0
M  V30 385 C 44.6269 0.290906 1.94031 0
M  V30 386 O 43.7519 -0.60049 2.07902 0
M  V30 387 C 44.3469 2.73964 1.99322 0
M  V30 388 C 42.9059 2.78978 2.52682 0
M  V30 389 C 42.0529 2.44934 1.30009 0
M  V30 390 H 45.0039 1.55875 0.298125 0
M  V30 391 H 45.0249 2.53409 2.83838 0
M  V30 392 H 44.5369 3.62813 1.37799 0
M  V30 393 H 42.6379 1.94378 3.1788 0
M  V30 394 H 42.7509 3.8083 2.90698 0
M  V30 395 H 41.1149 1.9644 1.62122 0
M  V30 396 H 41.8979 3.36043 0.702131 0
M  V30 397 N 44.343 -0.763751 1.37857 0
M  V30 398 C 45.591 -1.51957 1.33243 0
M  V30 399 C 45.912 -1.94835 -0.0801709 0
M  V30 400 O 45.182 -1.66894 -1.02582 0
M  V30 401 H 43.762 -0.563626 0.49024 0
M  V30 402 H 46.424 -0.908504 1.7243 0
M  V30 403 H 45.52 -2.41523 1.97669 0
M  V30 404 N 45.8211 -1.22559 -0.990812 0
M  V30 405 C 46.7841 -0.998863 -2.0629 0
M  V30 406 C 47.7841 0.0354834 -1.60761 0
M  V30 407 O 48.9741 -0.203231 -1.7301 0
M  V30 408 C 46.1061 -0.509203 -3.37076 0
M  V30 409 H 47.2991 -1.95014 -2.27837 0
M  V30 410 H 44.8521 -1.04456 -1.16269 0
M  V30 411 H 45.5871 0.446335 -3.21214 0
M  V30 412 H 45.3721 -1.25547 -3.71457 0
M  V30 413 H 46.8621 -0.370888 -4.1595 0
M  V30 414 N 47.2992 1.18797 -1.03562 0
M  V30 415 C 48.7102 1.70322 -0.764676 0
M  V30 416 C 49.0612 1.82708 0.714996 0
M  V30 417 O 48.1862 1.50299 1.55689 0
M  V30 418 C 48.7812 3.09356 -1.38145 0
M  V30 419 C 47.3402 3.58114 -1.15895 0
M  V30 420 C 46.4872 2.34798 -1.4753 0
M  V30 421 H 49.4382 1.03543 -1.20268 0
M  V30 422 H 49.4592 3.72378 -0.781977 0
M  V30 423 H 48.9712 3.00309 -2.45837 0
M  V30 424 H 47.0722 3.72464 -0.100544 0
M  V30 425 H 47.1852 4.4184 -1.8524 0
M  V30 426 H 45.5492 2.38464 -0.894829 0
M  V30 427 H 46.3322 2.28375 -2.56319 0
M  V30 428 N 48.7773 0.814389 1.34928 0
M  V30 429 C 49.7403 0.235759 2.27984 0
M  V30 430 C 50.7403 -0.581412 1.49921 0
M  V30 431 O 51.9303 -0.398758 1.69575 0
M  V30 432 C 49.0623 -0.670433 3.34242 0
M  V30 433 H 50.2553 1.05659 2.80671 0
M  V30 434 H 47.8083 0.585614 1.44915 0
M  V30 435 H 48.5433 -1.51466 2.86755 0
M  V30 436 H 48.3283 -0.0860822 3.92005 0
M  V30 437 H 49.8183 -1.06935 4.03676 0
M  V30 438 N 50.2554 -1.46986 0.568584 0
M  V30 439 C 51.2184 -2.28624 -0.162366 0
M  V30 440 C 52.2184 -1.37596 -0.832103 0
M  V30 441 O 53.4084 -1.60115 -0.68622 0
M  V30 442 C 50.5404 -3.17596 -1.23878 0
M  V30 443 H 51.7334 -2.94722 0.554899 0
M  V30 444 H 49.2864 -1.52863 0.325976 0
M  V30 445 H 50.0214 -2.56214 -1.98808 0
M  V30 446 H 49.8064 -3.846 -0.763219 0
M  V30 447 H 51.2964 -3.79078 -1.75185 0
M  V30 448 N 51.7335 -0.305618 -1.54608 0
M  V30 449 C 52.9815 0.301701 -1.99835 0
M  V30 450 C 53.3025 1.54054 -1.19551 0
M  V30 451 O 52.5725 1.93702 -0.292658 0
M  V30 452 H 51.1525 0.114468 -0.738178 0
M  V30 453 H 53.8145 -0.418016 -1.90364 0
M  V30 454 H 52.9105 0.570548 -3.06841 0
M  V30 455 N 53.2116 1.57565 -0.0334293 0
M  V30 456 C 54.1446 2.05997 0.981866 0
M  V30 457 C 55.1226 0.956647 1.3148 0
M  V30 458 O 56.3066 1.22729 1.43073 0
M  V30 459 C 53.4336 2.48564 2.30074 0
M  V30 460 C 52.4796 3.69958 2.12211 0
M  V30 461 S 53.3126 5.16414 1.41692 0
M  V30 462 C 54.4686 5.6228 2.7494 0
M  V30 463 H 54.7016 2.91792 0.569612 0
M  V30 464 H 52.2346 1.53366 0.178376 0
M  V30 465 H 54.1926 2.73753 3.05892 0
M  V30 466 H 52.8536 1.63106 2.68431 0
M  V30 467 H 52.0466 3.97603 3.09722 0
M  V30 468 H 51.6486 3.44943 1.44535 0
M  V30 469 H 53.9406 5.66783 3.71165 0
M  V30 470 H 54.8836 6.61759 2.51953 0
M  V30 471 H 55.2916 4.89944 2.80384 0
M  V30 472 N 54.6897 -0.239769 1.55765 0
M  V30 473 C 56.1057 -0.588624 1.48349 0
M  V30 474 C 56.3057 -1.88005 0.72502 0
M  V30 475 O 55.3617 -2.51186 0.257269 0
M  V30 476 C 56.6747 -0.68474 2.928 0
M  V30 477 C 58.2227 -0.77659 3.03213 0
M  V30 478 C 58.6977 -0.904207 4.48986 0
M  V30 479 N 60.1887 -0.968896 4.52953 0
M  V30 480 C 60.9237 -1.08703 5.63002 0
M  V30 481 N 60.4197 -1.17026 6.82845 0
M  V30 482 N 62.2127 -1.12074 5.50814 0
M  V30 483 H 54.3637 0.607911 2.03515 0
M  V30 484 H 56.6267 0.21083 0.924259 0
M  V30 485 H 56.3327 0.194284 3.51163 0
M  V30 486 H 56.2067 -1.55435 3.43686 0
M  V30 487 H 58.5937 -1.64606 2.44926 0
M  V30 488 H 58.6747 0.118315 2.55526 0
M  V30 489 H 58.3187 -0.0392633 5.07885 0
M  V30 490 H 58.2487 -1.81426 4.9436 0
M  V30 491 H 60.7397 -0.915633 3.6664 0
M  V30 492 H 61.0527 -1.25966 7.62465 0
M  V30 493 H 59.3977 -1.13971 6.85591 0
M  V30 494 H 62.5887 -1.05226 4.5612 0
M  V30 495 H 62.7617 -1.20936 6.36615 0
M  V30 496 N 56.1678 -1.49265 -0.50573 0
M  V30 497 C 57.5838 -1.35923 -0.836486 0
M  V30 498 C 57.7838 -0.388704 -1.97715 0
M  V30 499 O 56.8398 0.181336 -2.51848 0
M  V30 500 C 58.1528 -2.76531 -1.18115 0
M  V30 501 C 59.7008 -2.85197 -1.28964 0
M  V30 502 C 60.1758 -4.26561 -1.66761 0
M  V30 503 N 61.6668 -4.2935 -1.73819 0
M  V30 504 C 62.4018 -5.35693 -2.045 0
M  V30 505 N 61.8978 -6.52287 -2.33438 0
M  V30 506 N 63.6908 -5.23105 -2.05711 0
M  V30 507 H 55.8418 -2.10965 0.246519 0
M  V30 508 H 58.1048 -0.9468 0.0476887 0
M  V30 509 H 57.8108 -3.49226 -0.416398 0
M  V30 510 H 57.6848 -3.11599 -2.1257 0
M  V30 511 H 60.0718 -2.12742 -2.04511 0
M  V30 512 H 60.1528 -2.53718 -0.325704 0
M  V30 513 H 59.7968 -4.99541 -0.917656 0
M  V30 514 H 59.7268 -4.55502 -2.64246 0
M  V30 515 H 62.2178 -3.4526 -1.53635 0
M  V30 516 H 62.5308 -7.29158 -2.56024 0
M  V30 517 H 60.8758 -6.55521 -2.30905 0
M  V30 518 H 64.0668 -4.31026 -1.82577 0
M  V30 519 H 64.2398 -6.06078 -2.29289 0
M  V30 520 N 57.6459 0.756429 -1.3826 0
M  V30 521 C 59.0619 1.0591 -1.19395 0
M  V30 522 C 59.2619 2.01459 -0.0406567 0
M  V30 523 O 58.3179 2.44909 0.614467 0
M  V30 524 C 59.6309 1.64191 -2.51916 0
M  V30 525 C 61.1789 1.76376 -2.58574 0
M  V30 526 C 61.6539 2.38069 -3.91264 0
M  V30 527 N 63.1449 2.45503 -3.92788 0
M  V30 528 C 63.8799 2.94126 -4.92217 0
M  V30 529 N 63.3759 3.42805 -6.02043 0
M  V30 530 N 65.1689 2.9314 -4.7961 0
M  V30 531 H 57.3199 0.122313 -2.12048 0
M  V30 532 H 59.5829 0.116892 -0.940766 0
M  V30 533 H 59.2889 1.01451 -3.3675 0
M  V30 534 H 59.1629 2.6329 -2.70108 0
M  V30 535 H 61.5499 2.38244 -1.74137 0
M  V30 536 H 61.6309 0.759894 -2.44252 0
M  V30 537 H 61.2749 1.76835 -4.76121 0
M  V30 538 H 61.2049 3.39091 -4.02895 0
M  V30 539 H 63.6959 2.1107 -3.13461 0
M  V30 540 H 64.0089 3.78354 -6.73846 0
M  V30 541 H 62.3539 3.4087 -6.05667 0
M  V30 542 H 65.5449 2.54419 -3.92923 0
M  V30 543 H 65.7179 3.30721 -5.5725 0
M  V30 544 N 59.124 1.23083 0.984299 0
M  V30 545 C 60.54 0.992637 1.24975 0
M  V30 546 C 60.74 -0.308618 1.99123 0
M  V30 547 O 59.796 -1.02905 2.30579 0
M  V30 548 C 61.109 2.19698 2.05312 0
M  V30 549 C 62.657 2.24147 2.18465 0
M  V30 550 C 63.132 3.44157 3.02192 0
M  V30 551 N 64.623 3.44372 3.09777 0
M  V30 552 C 65.358 4.33886 3.74874 0
M  V30 553 N 64.854 5.3363 4.41827 0
M  V30 554 N 66.647 4.21639 3.71721 0
M  V30 555 H 58.798 2.06731 0.487453 0
M  V30 556 H 61.061 0.906339 0.277944 0
M  V30 557 H 60.767 3.1411 1.58201 0
M  V30 558 H 60.641 2.20465 3.06064 0
M  V30 559 H 63.028 1.30277 2.64786 0
M  V30 560 H 63.109 2.27415 1.17115 0
M  V30 561 H 62.753 4.38332 2.56568 0
M  V30 562 H 62.683 3.3813 4.03702 0
M  V30 563 H 65.174 2.72201 2.62135 0
M  V30 564 H 65.487 5.98196 4.89266 0
M  V30 565 H 63.832 5.37534 4.40548 0
M  V30 566 H 67.023 3.42962 3.18582 0
M  V30 567 H 67.196 4.91604 4.22173 0
M  V30 568 N 60.6021 -1.18246 1.0419 0
M  V30 569 C 62.0181 -1.40269 0.761366 0
M  V30 570 C 62.2181 -1.90777 -0.648578 0
M  V30 571 O 61.2741 -2.0929 -1.41258 0
M  V30 572 C 62.5871 -2.40237 1.8085 0
M  V30 573 C 64.1351 -2.53961 1.82955 0
M  V30 574 C 64.6101 -3.57194 2.86664 0
M  V30 575 N 66.1011 -3.64702 2.85563 0
M  V30 576 C 66.8361 -4.44309 3.6246 0
M  V30 577 N 66.3321 -5.27514 4.49111 0
M  V30 578 N 68.1251 -4.39084 3.50944 0
M  V30 579 H 60.2761 -0.837882 1.95175 0
M  V30 580 H 62.5391 -0.430608 0.84456 0
M  V30 581 H 62.2451 -2.10176 2.81991 0
M  V30 582 H 62.1191 -3.39601 1.64168 0
M  V30 583 H 64.5061 -2.83338 0.824855 0
M  V30 584 H 64.5871 -1.54706 2.03715 0
M  V30 585 H 64.2311 -3.28558 3.87314 0
M  V30 586 H 64.1611 -4.5613 2.6316 0
M  V30 587 H 66.6521 -3.05289 2.22727 0
M  V30 588 H 66.9651 -5.85411 5.04493 0
M  V30 589 H 65.3101 -5.2693 4.53178 0
M  V30 590 H 68.5011 -3.7313 2.82651 0
M  V30 591 H 68.6741 -5.00883 4.11121 0
M  V30 592 N 62.0802 -0.821533 -1.34494 0
M  V30 593 C 63.0102 -0.257138 -2.3208 0
M  V30 594 C 63.9912 0.625645 -1.58176 0
M  V30 595 O 65.1762 0.552811 -1.86166 0
M  V30 596 C 62.3062 0.582958 -3.42372 0
M  V30 597 C 61.2602 -0.202571 -4.2752 0
M  V30 598 C 60.5862 0.760179 -5.29269 0
M  V30 599 C 61.8862 -1.40998 -5.02908 0
M  V30 600 H 63.5802 -1.07247 -2.79532 0
M  V30 601 H 61.1262 -0.517163 -1.34393 0
M  V30 602 H 63.0792 0.987972 -4.09655 0
M  V30 603 H 61.8032 1.43133 -2.93565 0
M  V30 604 H 60.4622 -0.588936 -3.61838 0
M  V30 605 H 60.1102 1.60447 -4.76724 0
M  V30 606 H 59.8102 0.238809 -5.87115 0
M  V30 607 H 61.3342 1.16308 -5.9942 0
M  V30 608 H 62.7482 -1.07905 -5.63054 0
M  V30 609 H 61.1452 -1.86689 -5.70322 0
M  V30 610 H 62.2152 -2.1889 -4.32684 0
M  V30 611 N 63.5583 1.46682 -0.576371 0
M  V30 612 C 64.4903 2.28341 0.198231 0
M  V30 613 C 65.5033 1.38141 0.861453 0
M  V30 614 O 66.6923 1.62797 0.732082 0
M  V30 615 C 63.7923 3.12986 1.29972 0
M  V30 616 C 62.9653 4.31271 0.729639 0
M  V30 617 C 62.0243 4.97363 1.71803 0
M  V30 618 O 61.0503 5.55156 1.25658 0
M  V30 619 N 62.2523 4.93796 3.05198 0
M  V30 620 H 65.0173 2.9546 -0.502324 0
M  V30 621 H 62.5783 1.56525 -0.413715 0
M  V30 622 H 64.5703 3.54066 1.96008 0
M  V30 623 H 63.1403 2.47984 1.90323 0
M  V30 624 H 62.3603 3.94052 -0.108012 0
M  V30 625 H 63.6483 5.07739 0.328438 0
M  V30 626 H 63.0463 4.48077 3.45317 0
M  V30 627 H 61.6033 5.38837 3.6674 0
M  V30 628 N 65.0364 0.313813 1.54444 0
M  V30 629 C 65.9684 -0.590425 2.21465 0
M  V30 630 C 66.9814 -1.08753 1.21147 0
M  V30 631 O 68.1704 -1.00278 1.4767 0
M  V30 632 C 65.2704 -1.82179 2.85769 0
M  V30 633 C 64.4434 -1.46502 4.12136 0
M  V30 634 C 63.5024 -2.55288 4.60124 0
M  V30 635 O 62.5284 -2.19842 5.25032 0
M  V30 636 N 63.7304 -3.86053 4.33525 0
M  V30 637 H 66.4954 -0.0166033 2.99695 0
M  V30 638 H 64.0564 0.136578 1.61323 0
M  V30 639 H 66.0484 -2.54328 3.14801 0
M  V30 640 H 64.6184 -2.30369 2.11303 0
M  V30 641 H 63.8384 -0.575595 3.89975 0
M  V30 642 H 65.1264 -1.20221 4.94393 0
M  V30 643 H 64.5244 -4.17654 3.81552 0
M  V30 644 H 63.0814 -4.54461 4.67235 0
M  V30 645 N 66.5145 -1.57545 0.0417849 0
M  V30 646 C 67.4245 -2.14451 -0.951213 0
M  V30 647 C 68.4405 -1.09992 -1.34825 0
M  V30 648 O 69.6165 -1.42114 -1.42708 0
M  V30 649 C 66.6815 -2.67063 -2.21084 0
M  V30 650 C 65.7425 -3.86284 -1.87304 0
M  V30 651 C 64.9755 -4.36378 -3.07261 0
M  V30 652 O 65.1985 -3.85587 -4.20332 0
M  V30 653 O 64.1325 -5.28077 -2.88822 0
M  V30 654 H 67.9585 -2.99601 -0.497287 0
M  V30 655 H 65.5435 -1.48317 -0.179567 0
M  V30 656 H 67.4255 -3.00914 -2.95006 0
M  V30 657 H 66.1005 -1.84989 -2.65633 0
M  V30 658 H 65.0075 -3.57338 -1.10727 0
M  V30 659 H 66.3405 -4.6956 -1.47562 0
M  V30 660 N 67.9926 0.231505 -1.5589 0
M  V30 661 C 69.2696 0.981096 -1.69215 0
M  V30 662 C 69.6496 2.02799 -0.586164 0
M  V30 663 O 68.9976 2.24823 0.408253 0
M  V30 664 C 69.2076 1.60054 -3.10135 0
M  V30 665 C 70.5556 2.09658 -3.69227 0
M  V30 666 O 71.5796 1.69967 -3.13033 0
M  V30 667 O 70.4386 2.8258 -4.67772 0
M  V30 668 H 67.5326 0.457653 -0.688827 0
M  V30 669 H 70.0786 0.224073 -1.68214 0
M  V30 670 H 68.8506 0.844105 -3.82087 0
M  V30 671 H 68.4736 2.42336 -3.15212 0
M  V30 672 N 69.4707 1.49531 0.497807 0
M  V30 673 C 70.7187 1.58865 1.24926 0
M  V30 674 C 71.0397 0.278721 1.92998 0
M  V30 675 O 70.3097 -0.702144 1.82885 0
M  V30 676 H 68.8897 0.585343 0.464094 0
M  V30 677 H 71.5517 1.86174 0.57666 0
M  V30 678 H 70.6477 2.38633 2.01149 0
M  V30 679 N 70.9488 -0.749086 1.3866 0
M  V30 680 C 72.1978 -1.50371 1.3443 0
M  V30 681 C 72.5108 -1.95503 -0.0616397 0
M  V30 682 O 73.7168 -2.70554 -0.226489 0
M  V30 683 C 72.1728 -2.71644 2.36088 0
M  V30 684 C 71.7808 -2.3352 3.82325 0
M  V30 685 C 73.5248 -3.49518 2.40909 0
M  V30 686 C 71.4318 -3.51431 4.75658 0
M  V30 687 H 70.3618 -0.564628 0.499712 0
M  V30 688 H 73.0128 -0.818449 1.64237 0
M  V30 689 H 71.3948 -3.42175 1.9933 0
M  V30 690 H 72.5688 -1.70627 4.28046 0
M  V30 691 H 70.8838 -1.6877 3.80665 0
M  V30 692 H 73.4808 -4.37197 3.07836 0
M  V30 693 H 73.8238 -3.90992 1.42937 0
M  V30 694 H 74.3568 -2.86005 2.76489 0
M  V30 695 H 71.0958 -3.15019 5.74842 0
M  V30 696 H 70.6158 -4.13352 4.34627 0
M  V30 697 H 72.2948 -4.17953 4.93887 0
M  V30 698 N 72.4269 -1.23603 -0.977757 0
M  V30 699 C 73.6519 -1.09735 -1.75991 0
M  V30 700 C 74.0769 0.346858 -1.84874 0
M  V30 701 O 73.4349 1.25093 -1.3123 0
M  V30 702 C 73.4829 -1.73051 -3.16363 0
M  V30 703 O 72.5869 -0.994452 -4.0023 0
M  V30 704 H 71.9279 -0.384476 -0.541364 0
M  V30 705 H 74.4579 -1.6371 -1.2272 0
M  V30 706 H 74.4679 -1.78398 -3.66931 0
M  V30 707 H 73.1429 -2.78137 -3.09213 0
M  V30 708 H 71.7199 -1.01812 -3.58732 0
M  V30 709 N 73.905 1.17692 -1.04816 0
M  V30 710 C 75.152 1.87859 -0.75599 0
M  V30 711 C 75.48 1.80812 0.716752 0
M  V30 712 O 74.735 1.20819 1.53952 0
M  V30 713 C 75.034 3.37462 -1.17703 0
M  V30 714 C 74.7 3.64713 -2.65133 0
M  V30 715 C 73.362 3.71859 -3.05408 0
M  V30 716 C 75.714 3.76492 -3.60421 0
M  V30 717 C 73.042 3.88271 -4.39843 0
M  V30 718 C 75.394 3.94421 -4.94585 0
M  V30 719 C 74.058 3.99806 -5.3452 0
M  V30 720 H 73.328 0.687425 -0.276636 0
M  V30 721 H 75.975 1.39255 -1.31455 0
M  V30 722 H 74.28 3.88097 -0.537395 0
M  V30 723 H 75.977 3.90109 -0.928218 0
M  V30 724 H 72.567 3.59772 -2.32942 0
M  V30 725 H 76.751 3.70295 -3.30447 0
M  V30 726 H 72.007 3.90687 -4.70291 0
M  V30 727 H 76.181 4.02477 -5.68318 0
M  V30 728 H 73.808 4.12276 -6.38696 0
M  V30 729 N 75.3831 0.828654 1.34056 0
M  V30 730 C 76.2931 0.256725 2.33191 0
M  V30 731 C 77.3091 -0.611898 1.62886 0
M  V30 732 O 78.4851 -0.51844 1.94613 0
M  V30 733 C 75.5501 -0.567238 3.42028 0
M  V30 734 C 74.6111 0.324458 4.28072 0
M  V30 735 C 73.8441 -0.460274 5.31712 0
M  V30 736 O 74.0671 -1.693 5.44696 0
M  V30 737 O 73.0011 0.160391 6.01686 0
M  V30 738 H 76.8271 1.07739 2.83947 0
M  V30 739 H 74.4121 0.59093 1.37217 0
M  V30 740 H 76.2941 -1.03582 4.08471 0
M  V30 741 H 74.9691 -1.36513 2.93506 0
M  V30 742 H 73.8761 0.840659 3.64532 0
M  V30 743 H 75.2091 1.08685 4.8005 0
M  V30 744 N 76.8612 -1.46375 0.584142 0
M  V30 745 C 78.0912 -2.06461 0.0758195 0
M  V30 746 C 78.4992 -1.43322 -1.23512 0
M  V30 747 O 77.8422 -0.533216 -1.75791 0
M  V30 748 C 77.9042 -3.59131 -0.162773 0
M  V30 749 C 77.5682 -4.4447 1.06279 0
M  V30 750 C 78.5652 -4.80918 1.97519 0
M  V30 751 C 76.2502 -4.85584 1.28504 0
M  V30 752 C 78.2442 -5.57309 3.09331 0
M  V30 753 C 75.9312 -5.61734 2.4062 0
M  V30 754 C 76.9292 -5.9751 3.30863 0
M  V30 755 O 76.6172 -6.72121 4.41032 0
M  V30 756 H 76.3492 -0.673745 0.0551725 0
M  V30 757 H 78.9032 -1.88969 0.804984 0
M  V30 758 H 77.1332 -3.74936 -0.946565 0
M  V30 759 H 78.8222 -4.0114 -0.619782 0
M  V30 760 H 79.5882 -4.49732 1.81565 0
M  V30 761 H 75.4672 -4.57187 0.591702 0
M  V30 762 H 79.0112 -5.85152 3.79793 0
M  V30 763 H 74.9082 -5.92334 2.56537 0
M  V30 764 H 75.6762 -6.90547 4.39417 0
M  V30 765 N 78.3393 -0.321999 -1.54275 0
M  V30 766 C 79.2893 0.560185 -2.21011 0
M  V30 767 C 80.2733 1.08283 -1.19011 0
M  V30 768 O 81.4653 1.02011 -1.44647 0
M  V30 769 C 78.5943 1.72137 -2.97025 0
M  V30 770 C 77.6803 1.21369 -4.06363 0
M  V30 771 N 78.0713 0.425566 -5.04007 0
M  V30 772 C 76.3693 1.49255 -4.20284 0
M  V30 773 C 77.0703 0.152601 -5.815 0
M  V30 774 N 76.0463 0.738294 -5.38563 0
M  V30 775 H 79.8483 -0.049265 -2.93859 0
M  V30 776 H 77.3623 -0.127779 -1.61897 0
M  V30 777 H 79.3593 2.36512 -3.43319 0
M  V30 778 H 78.0193 2.33431 -2.25699 0
M  V30 779 H 79.0303 0.068551 -5.17855 0
M  V30 780 H 75.7073 2.11145 -3.60172 0
M  V30 781 H 77.0973 -0.481764 -6.70171 0
M  V30 782 N 79.8174 1.5752 -0.0501392 0
M  V30 783 C 81.2334 1.56631 0.306402 0
M  V30 784 C 81.4334 1.0577 1.71508 0
M  V30 785 O 80.4894 0.713837 2.422 0
M  V30 786 C 81.8024 3.00393 0.135811 0
M  V30 787 C 83.3504 3.12315 0.206993 0
M  V30 788 C 83.8254 4.57954 0.064944 0
M  V30 789 N 85.3164 4.63041 0.121254 0
M  V30 790 C 86.0514 5.73389 0.0354381 0
M  V30 791 N 85.5474 6.92724 -0.102666 0
M  V30 792 N 87.3404 5.62026 0.090946 0
M  V30 793 H 79.4914 1.88903 -0.971046 0
M  V30 794 H 81.7544 0.869876 -0.376855 0
M  V30 795 H 81.4604 3.41635 -0.835384 0
M  V30 796 H 81.3344 3.66373 0.897275 0
M  V30 797 H 83.7214 2.70973 1.16866 0
M  V30 798 H 83.8024 2.49016 -0.585208 0
M  V30 799 H 83.4464 4.99981 -0.893394 0
M  V30 800 H 83.3764 5.19258 0.876277 0
M  V30 801 H 85.8674 3.77216 0.227284 0
M  V30 802 H 86.1804 7.72633 -0.160882 0
M  V30 803 H 84.5254 6.94864 -0.137737 0
M  V30 804 H 87.7164 4.67684 0.197388 0
M  V30 805 H 87.8894 6.47997 0.0206089 0
M  V30 806 N 81.2955 -0.223234 1.56011 0
M  V30 807 C 82.5255 -0.963413 1.82762 0
M  V30 808 C 82.9335 -1.78516 0.626804 0
M  V30 809 O 82.2765 -1.78974 -0.414014 0
M  V30 810 C 82.3385 -1.93126 3.0322 0
M  V30 811 C 82.0025 -1.2942 4.38291 0
M  V30 812 C 82.9995 -0.684916 5.15369 0
M  V30 813 C 80.6845 -1.30647 4.85012 0
M  V30 814 C 82.6785 -0.0963971 6.37327 0
M  V30 815 C 80.3655 -0.71411 6.06913 0
M  V30 816 C 81.3635 -0.110123 6.82911 0
M  V30 817 O 81.0515 0.47303 8.02507 0
M  V30 818 H 80.7835 -0.288011 0.611576 0
M  V30 819 H 83.3375 -0.244103 2.03944 0
M  V30 820 H 81.5675 -2.68952 2.77852 0
M  V30 821 H 83.2565 -2.53685 3.16857 0
M  V30 822 H 84.0225 -0.667774 4.80381 0
M  V30 823 H 79.9015 -1.76598 4.25833 0
M  V30 824 H 83.4455 0.375657 6.96588 0
M  V30 825 H 79.3425 -0.728659 6.41374 0
M  V30 826 H 80.1105 0.367186 8.17676 0
M  V30 827 N 82.7736 -1.49793 -0.48987 0
M  V30 828 C 84.1846 -1.52914 -1.07118 0
M  V30 829 C 84.5356 -0.321738 -1.93544 0
M  V30 830 O 83.6606 0.567338 -2.08831 0
M  V30 831 C 84.2556 -2.771 -1.94938 0
M  V30 832 C 82.8146 -2.82963 -2.48212 0
M  V30 833 C 81.9616 -2.46972 -1.26096 0
M  V30 834 H 84.9126 -1.56329 -0.273289 0
M  V30 835 H 84.9336 -2.57892 -2.79771 0
M  V30 836 H 84.4456 -3.64959 -1.32009 0
M  V30 837 H 82.5466 -1.99411 -3.14748 0
M  V30 838 H 82.6596 -3.85406 -2.84603 0
M  V30 839 H 81.0236 -1.98994 -1.58976 0
M  V30 840 H 81.8066 -3.37118 -0.648581 0
M  V30 841 N 84.2517 0.741722 -1.39055 0
M  V30 842 C 85.1617 1.88621 -1.39496 0
M  V30 843 C 86.1777 1.71557 -0.290578 0
M  V30 844 O 87.3537 1.94275 -0.530954 0
M  V30 845 C 84.4187 3.24134 -1.23037 0
M  V30 846 C 83.4797 3.5364 -2.43387 0
M  V30 847 C 82.7127 4.82687 -2.27703 0
M  V30 848 O 82.9357 5.55922 -1.27696 0
M  V30 849 O 81.8697 5.1194 -3.16545 0
M  V30 850 H 85.6957 1.91203 -2.35956 0
M  V30 851 H 83.2807 0.888625 -1.20099 0
M  V30 852 H 85.1627 4.0513 -1.15964 0
M  V30 853 H 83.8377 3.22337 -0.296691 0
M  V30 854 H 82.7447 2.72758 -2.56035 0
M  V30 855 H 84.0777 3.60209 -3.35425 0
M  V30 856 N 85.7298 1.2412 0.971189 0
M  V30 857 C 86.6598 1.05508 2.08304 0
M  V30 858 C 87.6408 -0.0308864 1.70072 0
M  V30 859 O 88.8258 0.135521 1.93727 0
M  V30 860 C 85.9558 0.655365 3.4106 0
M  V30 861 C 84.9098 1.68971 3.93234 0
M  V30 862 C 84.2358 1.14516 5.22293 0
M  V30 863 C 85.5358 3.08487 4.21465 0
M  V30 864 H 87.2298 1.98507 2.24132 0
M  V30 865 H 84.7758 0.955821 1.07704 0
M  V30 866 H 86.7288 0.51217 4.18276 0
M  V30 867 H 85.4528 -0.31032 3.25122 0
M  V30 868 H 84.1118 1.82106 3.18171 0
M  V30 869 H 83.7598 0.170189 5.02712 0
M  V30 870 H 83.4598 1.83635 5.58168 0
M  V30 871 H 84.9838 1.01401 6.02121 0
M  V30 872 H 86.3978 2.98601 4.89398 0
M  V30 873 H 84.7948 3.74926 4.68562 0
M  V30 874 H 85.8648 3.56787 3.28376 0
M  V30 875 N 87.2079 -1.17134 1.05439 0
M  V30 876 C 88.6239 -1.39454 0.776201 0
M  V30 877 C 88.8239 -1.91454 -0.628307 0
M  V30 878 O 87.8799 -2.10777 -1.39031 0
M  V30 879 C 89.1929 -2.38305 1.83388 0
M  V30 880 C 90.7409 -2.52006 1.85639 0
M  V30 881 C 91.2159 -3.54133 2.90437 0
M  V30 882 N 92.7069 -3.61653 2.89415 0
M  V30 883 C 93.4419 -4.4044 3.67152 0
M  V30 884 N 92.9379 -5.22721 4.54681 0
M  V30 885 N 94.7309 -4.35337 3.55581 0
M  V30 886 H 86.8819 -0.817134 1.96053 0
M  V30 887 H 89.1449 -0.421626 0.849079 0
M  V30 888 H 88.8509 -2.07173 2.84204 0
M  V30 889 H 88.7249 -3.37841 1.67761 0
M  V30 890 H 91.1119 -2.82447 0.85486 0
M  V30 891 H 91.1929 -1.52537 2.05344 0
M  V30 892 H 90.8369 -3.24431 3.90777 0
M  V30 893 H 90.7669 -4.53313 2.67983 0
M  V30 894 H 93.2579 -3.02909 2.25952 0
M  V30 895 H 93.5709 -5.80027 5.10674 0
M  V30 896 H 91.9159 -5.22093 4.58741 0
M  V30 897 H 95.1069 -3.70112 2.86592 0
M  V30 898 H 95.2799 -4.96494 4.1641 0
M  V30 899 N 88.686 -0.835752 -1.33615 0
M  V30 900 C 89.596 -0.269088 -2.33052 0
M  V30 901 C 90.612 0.603251 -1.63208 0
M  V30 902 O 91.788 0.508112 -1.94885 0
M  V30 903 C 88.853 0.549091 -3.42324 0
M  V30 904 C 87.914 -0.347156 -4.27894 0
M  V30 905 C 87.147 0.43207 -5.31948 0
M  V30 906 O 87.37 1.66409 -5.45586 0
M  V30 907 O 86.304 -0.192298 -6.01593 0
M  V30 908 H 90.13 -1.09243 -2.83372 0
M  V30 909 H 87.715 -0.598198 -1.36901 0
M  V30 910 H 89.597 1.01414 -4.09015 0
M  V30 911 H 88.272 1.34955 -2.94226 0
M  V30 912 H 87.179 -0.859979 -3.64081 0
M  V30 913 H 88.512 -1.1123 -4.79467 0
M  V30 914 N 90.1641 1.46063 -0.591896 0
M  V30 915 C 91.1271 2.28854 0.125973 0
M  V30 916 C 92.1271 1.38903 0.810107 0
M  V30 917 O 93.3171 1.61186 0.66066 0
M  V30 918 C 90.4491 3.19526 1.1881 0
M  V30 919 H 91.6421 2.93802 -0.601717 0
M  V30 920 H 89.1951 1.52325 -0.350254 0
M  V30 921 H 89.9301 2.59345 1.94707 0
M  V30 922 H 89.7151 3.85766 0.701936 0
M  V30 923 H 91.2051 3.81817 1.69132 0
M  V30 924 N 91.6422 0.330177 1.54103 0
M  V30 925 C 92.5722 -0.525353 2.27513 0
M  V30 926 C 93.5532 -1.11383 1.2856 0
M  V30 927 O 94.7382 -1.13773 1.57383 0
M  V30 928 C 91.8682 -1.6831 3.03791 0
M  V30 929 C 90.8222 -1.2236 4.10137 0
M  V30 930 C 90.1482 -2.46882 4.74293 0
M  V30 931 C 91.4482 -0.333697 5.21233 0
M  V30 932 H 93.1422 0.087013 2.99274 0
M  V30 933 H 90.6882 0.0432893 1.43935 0
M  V30 934 H 92.6412 -2.28795 3.5388 0
M  V30 935 H 91.3652 -2.32216 2.29659 0
M  V30 936 H 90.0242 -0.64165 3.60941 0
M  V30 937 H 89.6722 -3.09165 3.96769 0
M  V30 938 H 89.3722 -2.16825 5.46133 0
M  V30 939 H 90.8962 -3.08117 5.27159 0
M  V30 940 H 92.3102 -0.845013 5.67038 0
M  V30 941 H 90.7072 -0.125612 5.99969 0
M  V30 942 H 91.7772 0.633724 4.80741 0
M  V30 943 N 93.1203 -1.57491 0.0584922 0
M  V30 944 C 94.3663 -1.93264 -0.614558 0
M  V30 945 C 94.6993 -0.937717 -1.7006 0
M  V30 946 O 93.9743 0.0351652 -1.94468 0
M  V30 947 C 94.2573 -3.3938 -1.20386 0
M  V30 948 C 94.1103 -4.49625 -0.125375 0
M  V30 949 C 95.4293 -3.86039 -2.11334 0
M  V30 950 H 92.5483 -0.702791 -0.221933 0
M  V30 951 H 95.1903 -1.8961 0.12175 0
M  V30 952 H 93.3403 -3.42626 -1.83139 0
M  V30 953 H 95.0123 -4.58506 0.506971 0
M  V30 954 H 93.2553 -4.30354 0.545672 0
M  V30 955 H 93.9263 -5.48967 -0.577861 0
M  V30 956 H 96.4023 -3.84716 -1.58534 0
M  V30 957 H 95.2783 -4.88914 -2.49507 0
M  V30 958 H 95.5393 -3.23215 -3.01636 0
M  V30 959 N 94.5984 0.214957 -1.56127 0
M  V30 960 C 95.8234 0.95924 -1.83884 0
M  V30 961 C 96.2484 1.7689 -0.639644 0
M  V30 962 O 95.6064 1.76566 0.411601 0
M  V30 963 C 95.6544 1.84723 -3.09693 0
M  V30 964 O 94.7584 2.94346 -2.8885 0
M  V30 965 H 94.0994 0.27125 -0.606069 0
M  V30 966 H 96.6294 0.226276 -2.03345 0
M  V30 967 H 96.6394 2.25576 -3.39969 0
M  V30 968 H 95.3144 1.25218 -3.96602 0
M  V30 969 H 93.8914 2.57391 -2.69823 0
M  V30 970 N 96.0765 1.50051 0.48192 0
M  V30 971 C 97.3225 1.60736 1.2366 0
M  V30 972 C 97.6555 0.301786 1.91841 0
M  V30 973 O 96.9305 -0.696025 1.8162 0
M  V30 974 C 97.2135 2.78009 2.28874 0
M  V30 975 C 97.0665 4.18416 1.65069 0
M  V30 976 C 98.3855 2.90867 3.30279 0
M  V30 977 H 95.5045 0.585031 0.448228 0
M  V30 978 H 98.1465 1.82402 0.531946 0
M  V30 979 H 96.2965 2.59667 2.88973 0
M  V30 980 H 97.9685 4.48322 1.0865 0
M  V30 981 H 96.2115 4.23177 0.954148 0
M  V30 982 H 96.8825 4.96381 2.41474 0
M  V30 983 H 99.3585 3.07623 2.80191 0
M  V30 984 H 98.2345 3.74566 4.01238 0
M  V30 985 H 98.4955 2.01021 3.93755 0
M  V30 986 N 97.5546 -0.734337 1.39446 0
M  V30 987 C 98.8006 -1.49505 1.37913 0
M  V30 988 C 99.1556 -1.92384 -0.0248416 0
M  V30 989 O 98.4486 -1.6395 -0.991506 0
M  V30 990 C 98.6426 -2.74711 2.28623 0
M  V30 991 C 98.4716 -2.44075 3.777 0
M  V30 992 C 97.2416 -2.36338 4.46623 0
M  V30 993 C 99.4396 -2.09574 4.69663 0
M  V30 994 N 97.4216 -1.9818 5.81032 0
M  V30 995 C 98.7926 -1.81865 5.92727 0
M  V30 996 C 100.848 -1.96048 4.57678 0
M  V30 997 C 99.5506 -1.41992 7.05146 0
M  V30 998 C 101.577 -1.57579 5.7002 0
M  V30 999 C 100.939 -1.30754 6.92158 0
M  V30 1000 H 97.0376 -0.545896 0.55993 0
M  V30 1001 H 99.6216 -0.853373 1.75002 0
M  V30 1002 H 97.7926 -3.36657 1.93692 0
M  V30 1003 H 99.5246 -3.40916 2.18078 0
M  V30 1004 H 96.2796 -2.53456 4.00071 0
M  V30 1005 H 96.7036 -1.81691 6.52163 0
M  V30 1006 H 101.346 -2.15455 3.63784 0
M  V30 1007 H 99.0636 -1.21327 7.9894 0
M  V30 1008 H 102.65 -1.47718 5.62735 0
M  V30 1009 H 101.53 -1.01432 7.77612 0
M  V30 1010 N 99.0327 -1.24633 -0.964593 0
M  V30 1011 C 99.9627 -1.06611 -2.07741 0
M  V30 1012 C 100.944 0.0218666 -1.70086 0
M  V30 1013 O 102.129 -0.145793 -1.93652 0
M  V30 1014 C 99.2587 -0.673444 -3.40708 0
M  V30 1015 C 98.2127 -1.71054 -3.92332 0
M  V30 1016 C 97.5387 -1.17285 -5.21678 0
M  V30 1017 C 98.8387 -3.10718 -4.19824 0
M  V30 1018 H 100.533 -1.99693 -2.23076 0
M  V30 1019 H 98.0787 -0.96152 -1.07195 0
M  V30 1020 H 100.032 -0.534345 -4.17998 0
M  V30 1021 H 98.7557 0.293073 -3.25282 0
M  V30 1022 H 97.4147 -1.83791 -3.17201 0
M  V30 1023 H 97.0627 -0.196847 -5.02615 0
M  V30 1024 H 96.7627 -1.86592 -5.57187 0
M  V30 1025 H 98.2867 -1.04593 -6.01575 0
M  V30 1026 H 99.7007 -3.01192 -4.87808 0
M  V30 1027 H 98.0977 -3.77406 -4.66567 0
M  V30 1028 H 99.1677 -3.58524 -3.26479 0
M  V30 1029 N 100.511 1.16574 -1.06058 0
M  V30 1030 C 101.443 2.2045 -0.627239 0
M  V30 1031 C 102.456 1.59752 0.313534 0
M  V30 1032 O 103.645 1.78192 0.104896 0
M  V30 1033 C 100.745 3.3875 0.100974 0
M  V30 1034 C 99.9178 4.29008 -0.852687 0
M  V30 1035 C 98.9768 5.25944 -0.164152 0
M  V30 1036 O 98.0028 5.63535 -0.801047 0
M  V30 1037 N 99.2048 5.70075 1.09518 0
M  V30 1038 H 101.97 2.58249 -1.52077 0
M  V30 1039 H 99.5308 1.3156 -0.943594 0
M  V30 1040 H 101.523 4.00638 0.57194 0
M  V30 1041 H 100.093 2.99476 0.89628 0
M  V30 1042 H 99.3128 3.64419 -1.50308 0
M  V30 1043 H 100.601 4.86195 -1.49972 0
M  V30 1044 H 99.9988 5.41624 1.6328 0
M  V30 1045 H 98.5558 6.34067 1.51006 0
M  V30 1046 N 101.989 0.842826 1.3317 0
M  V30 1047 C 103.229 0.446574 1.99462 0
M  V30 1048 C 103.593 -0.976818 1.65295 0
M  V30 1049 O 104.794 -1.477 2.24584 0
M  V30 1050 C 103.065 0.665353 3.51152 0
M  V30 1051 S 104.624 0.364911 4.3728 0
M  V30 1052 H 101.442 0.167803 0.690915 0
M  V30 1053 H 104.044 1.09297 1.62094 0
M  V30 1054 H 102.748 1.7006 3.73507 0
M  V30 1055 H 102.279 0.00494568 3.934 0
M  V30 1056 H 104.294 -0.813761 4.89482 0
M  V30 1057 N 103.467 -1.45747 0.599634 0
M  V30 1058 C 104.695 -2.06668 0.0978551 0
M  V30 1059 C 105.11 -1.44562 -1.21439 0
M  V30 1060 O 104.467 -0.556923 -1.73795 0
M  V30 1061 C 104.518 -3.61456 -0.0567044 0
M  V30 1062 O 104.239 -4.21242 1.20361 0
M  V30 1063 C 105.74 -4.39345 -0.590869 0
M  V30 1064 H 102.96 -0.667825 0.0651943 0
M  V30 1065 H 105.504 -1.87115 0.82511 0
M  V30 1066 H 103.659 -3.80378 -0.734251 0
M  V30 1067 H 104.073 -5.14323 1.02821 0
M  V30 1068 H 105.547 -5.48182 -0.648131 0
M  V30 1069 H 106.024 -4.08568 -1.61147 0
M  V30 1070 H 106.63 -4.25268 0.0523679 0
M  V30 1071 N 104.945 -0.338344 -1.53925 0
M  V30 1072 C 105.908 0.508299 -2.23493 0
M  V30 1073 C 106.908 1.03175 -1.23335 0
M  V30 1074 O 108.098 0.921826 -1.47811 0
M  V30 1075 C 105.23 1.70754 -2.95052 0
M  V30 1076 H 106.423 -0.100058 -2.99733 0
M  V30 1077 H 103.976 -0.0896198 -1.56043 0
M  V30 1078 H 104.711 2.35474 -2.22986 0
M  V30 1079 H 104.496 1.33946 -3.68512 0
M  V30 1080 H 105.986 2.30818 -3.48013 0
M  V30 1081 N 106.423 1.57458 -0.0668435 0
M  V30 1082 C 107.672 1.92477 0.602947 0
M  V30 1083 C 107.985 0.948419 1.71068 0
M  V30 1084 O 109.191 1.19124 2.43971 0
M  V30 1085 C 107.647 3.41903 1.12383 0
M  V30 1086 C 107.255 4.47975 0.04737 0
M  V30 1087 C 108.999 3.85931 1.76797 0
M  V30 1088 C 106.906 5.88529 0.582022 0
M  V30 1089 H 105.836 0.718387 0.22899 0
M  V30 1090 H 108.487 1.82978 -0.138276 0
M  V30 1091 H 106.869 3.46459 1.91787 0
M  V30 1092 H 108.043 4.55029 -0.726978 0
M  V30 1093 H 106.358 4.13384 -0.500243 0
M  V30 1094 H 108.955 4.88322 2.17821 0
M  V30 1095 H 109.298 3.23029 2.62599 0
M  V30 1096 H 109.831 3.83958 1.04024 0
M  V30 1097 H 106.57 6.55065 -0.238721 0
M  V30 1098 H 106.09 5.85004 1.324 0
M  V30 1099 H 107.769 6.38258 1.05999 0
M  V30 1100 N 107.901 -0.206675 1.56239 0
M  V30 1101 C 109.126 -0.949474 1.8439 0
M  V30 1102 C 109.551 -1.76549 0.649016 0
M  V30 1103 O 108.909 -1.76782 -0.402231 0
M  V30 1104 C 108.957 -1.83078 3.10668 0
M  V30 1105 O 108.061 -2.9281 2.90407 0
M  V30 1106 H 107.402 -0.268033 0.607499 0
M  V30 1107 H 109.932 -0.215488 2.03462 0
M  V30 1108 H 109.942 -2.2377 3.41161 0
M  V30 1109 H 108.617 -1.23112 3.97261 0
M  V30 1110 H 107.194 -2.55956 2.71184 0
M  V30 1111 N 109.379 -1.50304 -0.473955 0
M  V30 1112 C 110.795 -1.37667 -0.807466 0
M  V30 1113 C 110.995 -0.430555 -1.96846 0
M  V30 1114 O 110.051 0.127874 -2.52176 0
M  V30 1115 C 111.364 -2.78974 -1.12223 0
M  V30 1116 C 112.912 -2.87868 -1.22885 0
M  V30 1117 C 113.387 -4.30003 -1.57676 0
M  V30 1118 N 114.878 -4.3294 -1.64673 0
M  V30 1119 C 115.613 -5.3991 -1.93091 0
M  V30 1120 N 115.109 -6.57092 -2.1955 0
M  V30 1121 N 116.902 -5.27351 -1.94569 0
M  V30 1122 H 109.053 -2.10394 0.291212 0
M  V30 1123 H 111.316 -0.945575 0.0677609 0
M  V30 1124 H 111.022 -3.50031 -0.342229 0
M  V30 1125 H 110.896 -3.16038 -2.05913 0
M  V30 1126 H 113.283 -2.17032 -1.99953 0
M  V30 1127 H 113.364 -2.54352 -0.271814 0
M  V30 1128 H 113.008 -5.01375 -0.81149 0
M  V30 1129 H 112.938 -4.61004 -2.54525 0
M  V30 1130 H 115.429 -3.48441 -1.46277 0
M  V30 1131 H 115.742 -7.34425 -2.405 0
M  V30 1132 H 114.087 -6.60272 -2.16948 0
M  V30 1133 H 117.278 -4.34801 -1.73394 0
M  V30 1134 H 117.451 -6.10805 -2.16381 0
M  V30 1135 N 110.857 0.726932 -1.39834 0
M  V30 1136 C 112.106 1.48214 -1.36805 0
M  V30 1137 C 112.419 1.95576 0.0305291 0
M  V30 1138 O 113.625 2.7088 0.183417 0
M  V30 1139 C 112.081 2.67854 -2.40379 0
M  V30 1140 C 111.689 2.27408 -3.85992 0
M  V30 1141 C 113.433 3.45641 -2.46439 0
M  V30 1142 C 111.34 3.43819 -4.81189 0
M  V30 1143 H 110.27 0.556606 -0.508631 0
M  V30 1144 H 112.921 0.792216 -1.65518 0
M  V30 1145 H 111.303 3.3896 -2.04749 0
M  V30 1146 H 112.477 1.63795 -4.30706 0
M  V30 1147 H 110.792 1.62692 -3.83302 0
M  V30 1148 H 113.389 4.32244 -3.14753 0
M  V30 1149 H 113.732 3.88669 -1.49139 0
M  V30 1150 H 114.265 2.8157 -2.81004 0
M  V30 1151 H 111.004 3.05834 -5.79781 0
M  V30 1152 H 110.524 4.06385 -4.41148 0
M  V30 1153 H 112.203 4.10043 -5.00474 0
M  V30 1154 N 112.336 1.25143 0.95797 0
M  V30 1155 C 113.566 1.12261 1.73439 0
M  V30 1156 C 113.974 -0.326715 1.86358 0
M  V30 1157 O 113.317 -1.2367 1.35836 0
M  V30 1158 C 113.379 1.69966 3.16784 0
M  V30 1159 C 113.043 3.18936 3.27305 0
M  V30 1160 C 114.04 4.15968 3.11877 0
M  V30 1161 C 111.725 3.59083 3.51234 0
M  V30 1162 C 113.719 5.51126 3.20217 0
M  V30 1163 C 111.406 4.9438 3.5921 0
M  V30 1164 C 112.404 5.90211 3.43716 0
M  V30 1165 O 112.092 7.23046 3.51368 0
M  V30 1166 H 111.824 0.392476 0.550399 0
M  V30 1167 H 114.378 1.65927 1.21068 0
M  V30 1168 H 112.608 1.10744 3.70503 0
M  V30 1169 H 114.297 1.52232 3.76272 0
M  V30 1170 H 115.063 3.86292 2.93264 0
M  V30 1171 H 110.942 2.84989 3.62356 0
M  V30 1172 H 114.486 6.25905 3.0804 0
M  V30 1173 H 110.383 5.23723 3.77339 0
M  V30 1174 H 111.151 7.31097 3.6802 0
M  V30 1175 N 113.814 -1.1601 1.06675 0
M  V30 1176 C 115.042 -1.90527 0.806667 0
M  V30 1177 C 115.457 -1.77643 -0.639396 0
M  V30 1178 O 114.814 -1.12369 -1.43803 0
M  V30 1179 C 114.865 -3.41106 1.19705 0
M  V30 1180 O 114.586 -3.53608 2.58636 0
M  V30 1181 C 116.087 -4.32663 0.965266 0
M  V30 1182 H 113.307 -0.604053 0.292166 0
M  V30 1183 H 115.851 -1.47026 1.4214 0
M  V30 1184 H 114.006 -3.82296 0.626774 0
M  V30 1185 H 114.42 -4.47011 2.74375 0
M  V30 1186 H 115.894 -5.36763 1.288 0
M  V30 1187 H 116.371 -4.39089 -0.0987936 0
M  V30 1188 H 116.977 -3.97206 1.52011 0
M  V30 1189 N 115.292 -0.849877 -1.32721 0
M  V30 1190 C 116.538 -0.451591 -1.97708 0
M  V30 1191 C 116.871 0.989175 -1.6712 0
M  V30 1192 O 116.146 1.69334 -0.956891 0
M  V30 1193 C 116.429 -0.685598 -3.53513 0
M  V30 1194 C 116.282 -2.17444 -3.93749 0
M  V30 1195 C 117.601 -0.138874 -4.39881 0
M  V30 1196 H 114.72 -0.16555 -0.718166 0
M  V30 1197 H 117.362 -1.06742 -1.57182 0
M  V30 1198 H 115.512 -0.161416 -3.88165 0
M  V30 1199 H 117.184 -2.76433 -3.693 0
M  V30 1200 H 115.427 -2.65476 -3.43081 0
M  V30 1201 H 116.098 -2.28888 -5.02309 0
M  V30 1202 H 118.574 -0.587068 -4.11938 0
M  V30 1203 H 117.45 -0.332213 -5.47894 0
M  V30 1204 H 117.711 0.95806 -4.31594 0
M  V30 1205 N 116.77 1.45427 -0.607355 0
M  V30 1206 C 118.018 2.01841 -0.102253 0
M  V30 1207 C 118.339 1.47832 1.27164 0
M  V30 1208 O 117.609 0.672497 1.83995 0
M  V30 1209 H 116.189 0.746188 -0.0348101 0
M  V30 1210 H 118.851 1.78229 -0.7887 0
M  V30 1211 H 117.947 3.12057 -0.0518585 0
M  V30 1212 N 118.248 0.346503 1.53744 0
M  V30 1213 C 119.664 -0.00530975 1.59599 0
M  V30 1214 C 119.864 -1.48465 1.36236 0
M  V30 1215 O 118.92 -2.24376 1.15808 0
M  V30 1216 C 120.233 0.433516 2.97559 0
M  V30 1217 C 121.781 0.386111 3.10609 0
M  V30 1218 C 122.256 0.800451 4.50951 0
M  V30 1219 N 123.747 0.754753 4.5701 0
M  V30 1220 C 124.482 1.04727 5.63755 0
M  V30 1221 N 123.978 1.4081 6.7834 0
M  V30 1222 N 125.771 0.971316 5.53644 0
M  V30 1223 H 117.922 1.31009 1.67184 0
M  V30 1224 H 120.185 0.534242 0.783128 0
M  V30 1225 H 119.891 1.46509 3.19731 0
M  V30 1226 H 119.765 -0.189753 3.76722 0
M  V30 1227 H 122.152 -0.636295 2.88158 0
M  V30 1228 H 122.233 1.04462 2.33498 0
M  V30 1229 H 121.877 1.82088 4.74137 0
M  V30 1230 H 121.807 0.119386 5.26465 0
M  V30 1231 H 124.298 0.488662 3.74727 0
M  V30 1232 H 124.611 1.61607 7.55714 0
M  V30 1233 H 122.956 1.44657 6.79779 0
M  V30 1234 H 126.147 0.688748 4.63005 0
M  V30 1235 H 126.32 1.20263 6.36742 0
M  V30 1236 N 119.726 -1.57421 0.075193 0
M  V30 1237 C 120.951 -1.98364 -0.605515 0
M  V30 1238 C 121.376 -0.953383 -1.62149 0
M  V30 1239 O 120.734 0.0806053 -1.81121 0
M  V30 1240 C 120.782 -3.38332 -1.24756 0
M  V30 1241 O 119.886 -3.37959 -2.36342 0
M  V30 1242 H 119.227 -0.645553 -0.155428 0
M  V30 1243 H 121.757 -2.04044 0.150714 0
M  V30 1244 H 121.767 -3.75591 -1.5936 0
M  V30 1245 H 120.442 -4.12846 -0.503129 0
M  V30 1246 H 119.019 -3.12474 -2.03506 0
M  V30 1247 N 121.204 0.198386 -1.56346 0
M  V30 1248 C 122.451 0.919286 -1.80431 0
M  V30 1249 C 122.779 1.83393 -0.647866 0
M  V30 1250 O 122.034 1.92236 0.366556 0
M  V30 1251 C 122.333 1.77031 -3.10475 0
M  V30 1252 C 121.999 1.00693 -4.39513 0
M  V30 1253 C 120.661 0.796145 -4.74568 0
M  V30 1254 C 123.013 0.469559 -5.19081 0
M  V30 1255 C 120.341 0.0364588 -5.86689 0
M  V30 1256 C 122.693 -0.2769 -6.31994 0
M  V30 1257 C 121.357 -0.49873 -6.65634 0
M  V30 1258 H 120.627 0.336391 -0.660244 0
M  V30 1259 H 123.274 0.185872 -1.90596 0
M  V30 1260 H 121.579 2.5723 -2.95533 0
M  V30 1261 H 123.276 2.33065 -3.26315 0
M  V30 1262 H 119.866 1.18122 -4.12001 0
M  V30 1263 H 124.05 0.619816 -4.92414 0
M  V30 1264 H 119.306 -0.145412 -6.11227 0
M  V30 1265 H 123.48 -0.700684 -6.92866 0
M  V30 1266 H 121.107 -1.0893 -7.52355 0
M  V30 1267 N 122.682 1.50554 0.465978 0
M  V30 1268 C 123.592 1.72585 1.58907 0
M  V30 1269 C 124.608 0.60911 1.6299 0
M  V30 1270 O 125.784 0.88804 1.80765 0
M  V30 1271 C 122.849 1.81995 2.95091 0
M  V30 1272 C 121.91 3.05751 3.01355 0
M  V30 1273 C 121.143 3.14702 4.31043 0
M  V30 1274 O 121.366 2.30313 5.21835 0
M  V30 1275 O 120.3 4.07468 4.43005 0
M  V30 1276 H 124.126 2.67799 1.43239 0
M  V30 1277 H 121.711 1.34711 0.646013 0
M  V30 1278 H 123.593 1.90335 3.75966 0
M  V30 1279 H 122.268 0.899659 3.10947 0
M  V30 1280 H 121.175 3.02908 2.19539 0
M  V30 1281 H 122.508 3.97375 2.90437 0
M  V30 1282 N 124.16 -0.719506 1.40217 0
M  V30 1283 C 125.408 -1.47641 1.3801 0
M  V30 1284 C 125.729 -1.94992 -0.018145 0
M  V30 1285 O 124.999 -1.70073 -0.972207 0
M  V30 1286 H 123.579 -0.547744 0.507923 0
M  V30 1287 H 126.241 -0.853187 1.75233 0
M  V30 1288 H 125.337 -2.35112 2.05253 0
M  V30 1289 N 125.638 -1.25649 -0.95132 0
M  V30 1290 C 127.054 -1.02542 -1.223 0
M  V30 1291 C 127.254 0.255715 -1.99871 0
M  V30 1292 O 126.31 0.967558 -2.33226 0
M  V30 1293 C 127.623 -2.25065 -1.99415 0
M  V30 1294 C 129.171 -2.29861 -2.12446 0
M  V30 1295 C 129.646 -3.52048 -2.92961 0
M  V30 1296 N 131.137 -3.52465 -3.00538 0
M  V30 1297 C 131.872 -4.43672 -3.63239 0
M  V30 1298 N 131.368 -5.45157 -4.27523 0
M  V30 1299 N 133.161 -4.31346 -3.60412 0
M  V30 1300 H 125.312 -2.07951 -0.432471 0
M  V30 1301 H 127.575 -0.91339 -0.253816 0
M  V30 1302 H 127.281 -3.18194 -1.49817 0
M  V30 1303 H 127.155 -2.28502 -3.00111 0
M  V30 1304 H 129.542 -1.37252 -2.61239 0
M  V30 1305 H 129.623 -2.3044 -1.11044 0
M  V30 1306 H 129.267 -4.44981 -2.44856 0
M  V30 1307 H 129.197 -3.48715 -3.94596 0
M  V30 1308 H 131.688 -2.79056 -2.54826 0
M  V30 1309 H 132.001 -6.10958 -4.73234 0
M  V30 1310 H 130.346 -5.49025 -4.26141 0
M  V30 1311 H 133.537 -3.51288 -3.09377 0
M  V30 1312 H 133.71 -5.02624 -4.0899 0
M  V30 1313 N 127.117 1.15442 -1.07289 0
M  V30 1314 C 128.027 2.23786 -0.704057 0
M  V30 1315 C 129.043 1.7166 0.284413 0
M  V30 1316 O 130.219 2.00972 0.131205 0
M  V30 1317 C 127.284 3.46535 -0.106792 0
M  V30 1318 C 126.345 4.13654 -1.14842 0
M  V30 1319 C 125.578 5.30544 -0.57956 0
M  V30 1320 O 125.801 5.67187 0.604585 0
M  V30 1321 O 124.735 5.87154 -1.32414 0
M  V30 1322 H 128.561 2.57664 -1.60757 0
M  V30 1323 H 126.146 1.23152 -0.845803 0
M  V30 1324 H 128.028 4.20804 0.224048 0
M  V30 1325 H 126.703 3.14407 0.770049 0
M  V30 1326 H 125.61 3.4131 -1.5316 0
M  V30 1327 H 126.943 4.49861 -1.99714 0
M  V30 1328 N 128.595 0.856903 1.32268 0
M  V30 1329 C 129.525 0.31858 2.31316 0
M  V30 1330 C 130.506 -0.583487 1.59779 0
M  V30 1331 O 131.691 -0.503259 1.87566 0
M  V30 1332 C 128.821 -0.491979 3.43798 0
M  V30 1333 C 127.775 0.315849 4.26833 0
M  V30 1334 C 127.101 -0.619586 5.31098 0
M  V30 1335 C 128.401 1.54282 4.98993 0
M  V30 1336 H 130.095 1.14621 2.76591 0
M  V30 1337 H 127.641 0.552613 1.32974 0
M  V30 1338 H 129.594 -0.879012 4.1213 0
M  V30 1339 H 128.318 -1.35299 2.97257 0
M  V30 1340 H 126.977 0.684664 3.6015 0
M  V30 1341 H 126.625 -1.47751 4.8081 0
M  V30 1342 H 126.325 -0.0830621 5.87541 0
M  V30 1343 H 127.849 -1.00375 6.02293 0
M  V30 1344 H 129.263 1.22796 5.59995 0
M  V30 1345 H 127.66 2.01745 5.65172 0
M  V30 1346 H 128.73 2.30285 4.26728 0
M  V30 1347 N 130.073 -1.45103 0.615059 0
M  V30 1348 C 131.003 -2.33339 -0.0865619 0
M  V30 1349 C 131.984 -1.4727 -0.851209 0
M  V30 1350 O 133.169 -1.76026 -0.820281 0
M  V30 1351 C 130.299 -3.30095 -1.07956 0
M  V30 1352 C 129.253 -4.25858 -0.427628 0
M  V30 1353 C 128.579 -5.12361 -1.5294 0
M  V30 1354 C 129.879 -5.18165 0.655944 0
M  V30 1355 H 131.573 -2.92254 0.650224 0
M  V30 1356 H 129.119 -1.40532 0.314138 0
M  V30 1357 H 131.072 -3.90698 -1.57901 0
M  V30 1358 H 129.796 -2.69355 -1.84703 0
M  V30 1359 H 128.455 -3.66564 0.0510292 0
M  V30 1360 H 128.103 -4.47984 -2.28734 0
M  V30 1361 H 127.803 -5.77238 -1.09865 0
M  V30 1362 H 129.327 -5.75833 -2.03098 0
M  V30 1363 H 130.741 -5.72796 0.240257 0
M  V30 1364 H 129.138 -5.91559 1.00888 0
M  V30 1365 H 130.208 -4.60144 1.52957 0
M  V30 1366 N 131.551 -0.354651 -1.53558 0
M  V30 1367 C 132.797 0.238797 -2.01389 0
M  V30 1368 C 133.13 1.49309 -1.2418 0
M  V30 1369 O 132.405 1.91638 -0.332457 0
M  V30 1370 C 132.688 0.541771 -3.56001 0
M  V30 1371 C 132.541 -0.725388 -4.43912 0
M  V30 1372 C 133.86 1.34685 -4.18984 0
M  V30 1373 H 130.979 0.0853177 -0.732045 0
M  V30 1374 H 133.621 -0.477384 -1.83905 0
M  V30 1375 H 131.771 1.15189 -3.71031 0
M  V30 1376 H 133.443 -1.36313 -4.407 0
M  V30 1377 H 131.686 -1.34801 -4.12324 0
M  V30 1378 H 132.357 -0.468505 -5.50008 0
M  V30 1379 H 134.833 0.830837 -4.07721 0
M  V30 1380 H 133.709 1.52759 -5.27215 0
M  V30 1381 H 133.97 2.35221 -3.74331 0
M  V30 1382 N 133.029 1.57378 -0.0835403 0
M  V30 1383 C 134.278 1.93106 0.582498 0
M  V30 1384 C 134.591 0.96651 1.70053 0
M  V30 1385 O 135.797 1.21705 2.42693 0
M  V30 1386 C 134.253 3.43076 1.08751 0
M  V30 1387 C 133.861 4.48 -0.000146404 0
M  V30 1388 C 135.605 3.87785 1.72694 0
M  V30 1389 C 133.512 5.89113 0.519568 0
M  V30 1390 H 132.442 0.720775 0.221358 0
M  V30 1391 H 135.093 1.82821 -0.157675 0
M  V30 1392 H 133.475 3.48474 1.88101 0
M  V30 1393 H 134.649 4.54233 -0.775199 0
M  V30 1394 H 132.964 4.1283 -0.54406 0
M  V30 1395 H 135.561 4.90604 2.1263 0
M  V30 1396 H 135.904 3.25796 2.59158 0
M  V30 1397 H 136.437 3.8504 0.999457 0
M  V30 1398 H 133.176 6.54775 -0.308186 0
M  V30 1399 H 132.696 5.86376 1.26188 0
M  V30 1400 H 134.375 6.39346 0.992237 0
M  V30 1401 N 134.507 -0.190092 1.56449 0
M  V30 1402 C 135.417 -1.25591 1.98152 0
M  V30 1403 C 136.433 -1.49519 0.889944 0
M  V30 1404 O 137.609 -1.62036 1.19609 0
M  V30 1405 C 134.674 -2.57916 2.3169 0
M  V30 1406 C 133.735 -2.42015 3.5458 0
M  V30 1407 C 132.968 -3.6803 3.8651 0
M  V30 1408 O 133.191 -4.72413 3.1966 0
M  V30 1409 O 132.125 -3.6326 4.79923 0
M  V30 1410 H 135.951 -0.931988 2.89046 0
M  V30 1411 H 133.536 -0.395488 1.4407 0
M  V30 1412 H 135.418 -3.36008 2.54316 0
M  V30 1413 H 134.093 -2.89925 1.43963 0
M  V30 1414 H 133 -1.62017 3.37196 0
M  V30 1415 H 134.333 -2.14937 4.4279 0
M  V30 1416 N 135.985 -1.50799 -0.457987 0
M  V30 1417 C 136.915 -1.73553 -1.5621 0
M  V30 1418 C 137.896 -0.584774 -1.59732 0
M  V30 1419 O 139.081 -0.825314 -1.7579 0
M  V30 1420 C 136.211 -1.84169 -2.94447 0
M  V30 1421 C 135.165 -2.99461 -3.0579 0
M  V30 1422 C 134.491 -2.95235 -4.45803 0
M  V30 1423 C 135.791 -4.39766 -2.81786 0
M  V30 1424 H 137.485 -2.66 -1.37421 0
M  V30 1425 H 135.031 -1.28002 -0.659662 0
M  V30 1426 H 136.984 -1.98672 -3.71628 0
M  V30 1427 H 135.708 -0.883545 -3.14422 0
M  V30 1428 H 134.367 -2.8463 -2.31044 0
M  V30 1429 H 134.015 -1.97239 -4.62715 0
M  V30 1430 H 133.715 -3.72642 -4.54326 0
M  V30 1431 H 135.239 -3.11803 -5.24987 0
M  V30 1432 H 136.653 -4.55054 -3.4871 0
M  V30 1433 H 135.05 -5.18722 -3.0174 0
M  V30 1434 H 136.12 -4.51229 -1.7754 0
M  V30 1435 N 137.463 0.71206 -1.40597 0
M  V30 1436 C 138.688 1.50617 -1.42581 0
M  V30 1437 C 139.113 1.88079 -0.0282102 0
M  V30 1438 O 138.471 1.53511 0.964579 0
M  V30 1439 C 138.519 2.7557 -2.3258 0
M  V30 1440 O 137.623 3.72414 -1.77148 0
M  V30 1441 H 136.964 0.453966 -0.484573 0
M  V30 1442 H 139.494 0.876649 -1.84868 0
M  V30 1443 H 139.504 3.2406 -2.47889 0
M  V30 1444 H 138.179 2.47639 -3.34138 0
M  V30 1445 H 136.756 3.31276 -1.71204 0
M  V30 1446 N 138.941 1.26152 0.944643 0
M  V30 1447 C 140.218 1.02247 1.66748 0
M  V30 1448 C 140.598 -0.448202 2.06287 0
M  V30 1449 O 139.946 -1.42779 1.78399 0
M  V30 1450 C 140.156 1.96788 2.88228 0
M  V30 1451 C 141.504 2.25201 3.59958 0
M  V30 1452 O 142.528 1.94626 2.98327 0
M  V30 1453 O 141.387 2.77242 4.70956 0
M  V30 1454 H 138.481 0.388517 0.730057 0
M  V30 1455 H 141.027 1.37348 0.99668 0
M  V30 1456 H 139.799 2.96047 2.55875 0
M  V30 1457 H 139.422 1.62145 3.63035 0
M  V30 1458 N 140.419 -1.14872 1.07899 0
M  V30 1459 C 141.367 -2.21857 0.698727 0
M  V30 1460 C 142.361 -1.66845 -0.293086 0
M  V30 1461 O 143.567 -1.79321 -0.156204 0
M  V30 1462 H 139.942 -0.722691 0.207899 0
M  V30 1463 H 141.913 -2.51205 1.61054 0
M  V30 1464 C 140.662 -3.47498 0.11858 0
M  V30 1465 H 139.985 -3.90154 0.872914 0
M  V30 1466 H 141.425 -4.23858 -0.109759 0
M  V30 1467 C 139.884 -3.16947 -1.1422 0
M  V30 1468 O 140.414 -3.3426 -2.22785 0
M  V30 1469 N 138.62 -2.70946 -1.05055 0
M  V30 1470 H 138.167 -2.57058 -0.167038 0
M  V30 1471 H 138.125 -2.50879 -1.89491 0
M  V30 1472 N 141.898 -0.863906 -1.31812 0
M  V30 1473 C 143.309 -0.52522 -1.7916 0
M  V30 1474 C 143.66 0.957518 -1.71248 0
M  V30 1475 O 142.785 1.74734 -1.27659 0
M  V30 1476 C 143.38 -0.9466 -3.25307 0
M  V30 1477 C 141.939 -0.659668 -3.70574 0
M  V30 1478 C 141.086 -1.14126 -2.52726 0
M  V30 1479 H 144.037 -1.05022 -1.1898 0
M  V30 1480 H 144.058 -0.266766 -3.79564 0
M  V30 1481 H 143.57 -2.02579 -3.31034 0
M  V30 1482 H 141.671 0.408416 -3.70355 0
M  V30 1483 H 141.784 -1.23245 -4.62977 0
M  V30 1484 H 140.148 -0.561216 -2.4844 0
M  V30 1485 H 140.931 -2.22775 -2.61201 0
M  V30 1486 N 143.376 1.44774 -0.622745 0
M  V30 1487 C 144.624 2.01721 -0.123655 0
M  V30 1488 C 144.945 1.49172 1.25589 0
M  V30 1489 O 144.215 0.691974 1.83272 0
M  V30 1490 H 142.795 0.745777 -0.0427225 0
M  V30 1491 H 145.457 1.77382 -0.807559 0
M  V30 1492 H 144.553 3.11984 -0.0849534 0
M  V30 1493 N 144.854 0.36279 1.53368 0
M  V30 1494 C 146.1 -0.228113 2.01513 0
M  V30 1495 C 146.433 -1.48648 1.2497 0
M  V30 1496 O 145.708 -1.91459 0.342616 0
M  V30 1497 C 145.991 -0.522884 3.56284 0
M  V30 1498 C 145.844 0.74892 4.43521 0
M  V30 1499 C 147.163 -1.32461 4.19693 0
M  V30 1500 H 144.282 -0.0814343 0.732487 0
M  V30 1501 H 146.924 0.48713 1.83649 0
M  V30 1502 H 145.074 -1.1322 3.71636 0
M  V30 1503 H 146.746 1.38648 4.39971 0
M  V30 1504 H 144.989 1.36986 4.11603 0
M  V30 1505 H 145.66 0.497667 5.49752 0
M  V30 1506 H 148.136 -0.809203 4.08156 0
M  V30 1507 H 147.012 -1.49961 5.28018 0
M  V30 1508 H 147.273 -2.33232 3.75573 0
M  V30 1509 N 146.332 -1.57332 0.0918853 0
M  V30 1510 C 147.282 -2.10385 -0.87876 0
M  V30 1511 C 148.266 -1.01814 -1.24591 0
M  V30 1512 O 149.458 -1.28093 -1.22152 0
M  V30 1513 C 146.587 -2.68517 -2.13901 0
M  V30 1514 C 145.673 -3.84126 -1.79744 0
M  V30 1515 N 146.064 -4.92288 -1.1613 0
M  V30 1516 C 144.362 -3.93801 -2.09373 0
M  V30 1517 C 145.063 -5.7295 -1.00513 0
M  V30 1518 N 144.039 -5.21876 -1.5214 0
M  V30 1519 H 147.841 -2.91395 -0.38293 0
M  V30 1520 H 145.355 -1.62017 -0.111423 0
M  V30 1521 H 147.352 -3.04852 -2.84378 0
M  V30 1522 H 146.012 -1.88961 -2.64053 0
M  V30 1523 H 147.023 -5.1123 -0.828504 0
M  V30 1524 H 143.7 -3.25249 -2.61762 0
M  V30 1525 H 145.09 -6.69978 -0.507902 0
M  V30 1526 N 147.81 0.181792 -1.56548 0
M  V30 1527 C 148.72 1.24538 -1.98815 0
M  V30 1528 C 149.736 1.49045 -0.897861 0
M  V30 1529 O 150.912 1.61399 -1.20467 0
M  V30 1530 C 147.977 2.56683 -2.33055 0
M  V30 1531 C 147.038 2.40131 -3.55859 0
M  V30 1532 C 146.271 3.65975 -3.88456 0
M  V30 1533 O 146.494 4.70711 -3.22161 0
M  V30 1534 O 145.428 3.6071 -4.81842 0
M  V30 1535 H 149.254 0.916647 -2.89536 0
M  V30 1536 H 146.839 0.387842 -1.44278 0
M  V30 1537 H 148.721 3.34655 -2.56094 0
M  V30 1538 H 147.396 2.89157 -1.45498 0
M  V30 1539 H 146.303 1.60226 -3.38051 0
M  V30 1540 H 147.636 2.12585 -4.43924 0
M  V30 1541 N 149.288 1.51039 0.449983 0
M  V30 1542 C 150.699 1.557 1.03026 0
M  V30 1543 C 151.05 0.372939 1.92623 0
M  V30 1544 O 150.175 -0.511771 2.10261 0
M  V30 1545 C 150.77 2.82171 1.87523 0
M  V30 1546 C 149.329 2.89444 2.40622 0
M  V30 1547 C 148.476 2.50228 1.19504 0
M  V30 1548 H 151.427 1.56999 0.231745 0
M  V30 1549 H 151.448 2.65219 2.72835 0
M  V30 1550 H 150.96 3.68331 1.22286 0
M  V30 1551 H 149.061 2.07685 3.0935 0
M  V30 1552 H 149.174 3.92816 2.74285 0
M  V30 1553 H 147.538 2.03139 1.53644 0
M  V30 1554 H 148.321 3.38719 0.558972 0
M  V30 1555 N 150.766 -0.704594 1.40972 0
M  V30 1556 C 152.014 -1.46169 1.39568 0
M  V30 1557 C 152.335 -1.95 0.00253745 0
M  V30 1558 O 151.605 -1.71095 -0.954114 0
M  V30 1559 H 150.185 -0.542326 0.513704 0
M  V30 1560 H 152.847 -0.834553 1.76128 0
M  V30 1561 H 151.943 -2.32922 2.07735 0
M  V30 1562 N 152.244 -1.26651 -0.937939 0
M  V30 1563 C 153.154 -1.10276 -2.07066 0
M  V30 1564 C 154.17 -0.0354197 -1.73964 0
M  V30 1565 O 155.346 -0.239816 -1.99967 0
M  V30 1566 C 152.411 -0.740887 -3.38691 0
M  V30 1567 C 151.472 -1.88799 -3.85556 0
M  V30 1568 C 150.705 -1.54329 -5.10899 0
M  V30 1569 O 150.928 -0.446494 -5.6865 0
M  V30 1570 O 149.862 -2.37911 -5.52885 0
M  V30 1571 H 153.688 -2.05309 -2.23789 0
M  V30 1572 H 151.273 -1.05743 -1.0554 0
M  V30 1573 H 153.155 -0.55195 -4.1777 0
M  V30 1574 H 151.83 0.180022 -3.23199 0
M  V30 1575 H 150.737 -2.13191 -3.07409 0
M  V30 1576 H 152.07 -2.78874 -4.05574 0
M  V30 1577 N 153.722 1.14298 -1.08507 0
M  V30 1578 C 155.133 1.66926 -0.836227 0
M  V30 1579 C 155.484 1.85576 0.63686 0
M  V30 1580 O 154.609 1.56767 1.49175 0
M  V30 1581 C 155.204 3.03219 -1.51142 0
M  V30 1582 C 153.763 3.52876 -1.30979 0
M  V30 1583 C 152.91 2.2833 -1.57356 0
M  V30 1584 H 155.861 0.983491 -1.24552 0
M  V30 1585 H 155.882 3.68726 -0.939211 0
M  V30 1586 H 155.394 2.89612 -2.58353 0
M  V30 1587 H 153.495 3.71703 -0.258429 0
M  V30 1588 H 153.608 4.33586 -2.03814 0
M  V30 1589 H 151.972 2.34454 -0.995164 0
M  V30 1590 H 152.755 2.17298 -2.65775 0
M  V30 1591 N 155.201 0.870884 1.31352 0
M  V30 1592 C 156.111 0.330783 2.32256 0
M  V30 1593 C 157.127 -0.559767 1.6475 0
M  V30 1594 O 158.303 -0.456263 1.96164 0
M  V30 1595 C 155.368 -0.458137 3.4366 0
M  V30 1596 C 154.429 0.460482 4.26823 0
M  V30 1597 C 153.662 -0.290881 5.32907 0
M  V30 1598 O 153.885 -1.51885 5.49806 0
M  V30 1599 O 152.819 0.351732 6.00871 0
M  V30 1600 H 156.645 1.16718 2.80376 0
M  V30 1601 H 154.23 0.634285 1.35267 0
M  V30 1602 H 156.112 -0.905343 4.1156 0
M  V30 1603 H 154.787 -1.27106 2.97701 0
M  V30 1604 H 153.694 0.956207 3.61673 0
M  V30 1605 H 155.027 1.23903 4.7635 0
M  V30 1606 N 156.679 -1.44442 0.630414 0
M  V30 1607 C 157.926 -2.02052 0.134617 0
M  V30 1608 C 158.254 -1.49576 -1.24327 0
M  V30 1609 O 157.509 -0.669806 -1.83881 0
M  V30 1610 C 157.808 -3.57332 0.0697835 0
M  V30 1611 C 157.474 -4.29058 1.38635 0
M  V30 1612 C 156.136 -4.4837 1.74694 0
M  V30 1613 C 158.488 -4.69872 2.25543 0
M  V30 1614 C 155.816 -5.05756 2.97369 0
M  V30 1615 C 158.168 -5.28616 3.47487 0
M  V30 1616 C 156.832 -5.46147 3.8377 0
M  V30 1617 H 156.102 -0.739361 0.0492598 0
M  V30 1618 H 158.749 -1.73217 0.816586 0
M  V30 1619 H 157.054 -3.85577 -0.695553 0
M  V30 1620 H 158.751 -3.99637 -0.330344 0
M  V30 1621 H 155.341 -4.14357 1.09574 0
M  V30 1622 H 159.525 -4.54666 1.98979 0
M  V30 1623 H 154.781 -5.17515 3.25558 0
M  V30 1624 H 158.955 -5.59192 4.15063 0
M  V30 1625 H 156.582 -5.9038 4.7891 0
M  V30 1626 N 158.157 -0.370918 -1.53173 0
M  V30 1627 C 159.104 0.473035 -2.259 0
M  V30 1628 C 160.074 1.07311 -1.26781 0
M  V30 1629 O 161.259 1.1046 -1.55574 0
M  V30 1630 C 158.399 1.60405 -3.05556 0
M  V30 1631 C 157.512 1.02863 -4.19575 0
M  V30 1632 C 156.647 2.12918 -4.86661 0
M  V30 1633 C 155.686 1.52869 -5.92704 0
M  V30 1634 N 154.823 2.56779 -6.53459 0
M  V30 1635 H 159.663 -0.153649 -2.97604 0
M  V30 1636 H 157.2 -0.0875946 -1.46839 0
M  V30 1637 H 159.158 2.27034 -3.50016 0
M  V30 1638 H 157.788 2.20131 -2.36097 0
M  V30 1639 H 156.84 0.252465 -3.79561 0
M  V30 1640 H 158.152 0.549642 -4.95762 0
M  V30 1641 H 157.306 2.87356 -5.34333 0
M  V30 1642 H 156.045 2.6417 -4.09958 0
M  V30 1643 H 155.05 0.769479 -5.44389 0
M  V30 1644 H 156.275 1.02435 -6.7133 0
M  V30 1645 H 154.221 3.07235 -5.79606 0
M  V30 1646 H 154.138 2.13583 -7.25202 0
M  V30 1647 H 155.406 3.30903 -7.05779 0
M  V30 1648 N 159.635 1.57281 -0.100228 0
M  V30 1649 C 160.865 1.98591 0.569681 0
M  V30 1650 C 161.273 0.978315 1.61943 0
M  V30 1651 O 160.616 -0.0396108 1.83657 0
M  V30 1652 C 160.678 3.36282 1.271 0
M  V30 1653 C 160.342 4.55488 0.371409 0
M  V30 1654 C 161.339 5.18491 -0.382504 0
M  V30 1655 C 159.024 5.01474 0.287965 0
M  V30 1656 C 161.018 6.25852 -1.20779 0
M  V30 1657 C 158.705 6.08701 -0.540965 0
M  V30 1658 C 159.703 6.70755 -1.28749 0
M  V30 1659 O 159.391 7.75914 -2.10269 0
M  V30 1660 H 159.123 0.65752 0.156982 0
M  V30 1661 H 161.677 2.0463 -0.177734 0
M  V30 1662 H 159.907 3.26941 2.0651 0
M  V30 1663 H 161.596 3.62005 1.83595 0
M  V30 1664 H 162.362 4.83891 -0.3278 0
M  V30 1665 H 158.241 4.52932 0.858689 0
M  V30 1666 H 161.785 6.74218 -1.79096 0
M  V30 1667 H 157.682 6.42732 -0.597131 0
M  V30 1668 H 158.45 7.92925 -2.03007 0
M  V30 1669 N 161.113 -0.173488 1.56642 0
M  V30 1670 C 162.362 -0.888758 1.81063 0
M  V30 1671 C 162.675 -1.83506 0.67712 0
M  V30 1672 O 163.881 -2.59254 0.806206 0
M  V30 1673 C 162.337 -1.63091 3.20826 0
M  V30 1674 C 161.945 -0.728357 4.4204 0
M  V30 1675 C 163.689 -2.33454 3.54541 0
M  V30 1676 C 161.596 -1.47062 5.72823 0
M  V30 1677 H 160.526 -0.335618 0.675186 0
M  V30 1678 H 163.177 -0.141712 1.82952 0
M  V30 1679 H 161.559 -2.42263 3.13248 0
M  V30 1680 H 162.733 0.0262449 4.60793 0
M  V30 1681 H 161.048 -0.134492 4.16183 0
M  V30 1682 H 163.645 -2.89578 4.49498 0
M  V30 1683 H 163.988 -3.08687 2.79317 0
M  V30 1684 H 164.521 -1.61227 3.63663 0
M  V30 1685 H 161.26 -0.760658 6.51072 0
M  V30 1686 H 160.78 -2.1986 5.58052 0
M  V30 1687 H 162.459 -2.01868 6.14702 0
M  V30 1688 N 162.591 -1.51276 -0.441967 0
M  V30 1689 C 163.839 -1.63392 -1.18943 0
M  V30 1690 C 164.16 -0.350159 -1.9183 0
M  V30 1691 O 163.43 0.633784 -1.85364 0
M  V30 1692 H 162.01 -0.602164 -0.442049 0
M  V30 1693 H 164.672 -1.88186 -0.507165 0
M  V30 1694 H 163.768 -2.45934 -1.92154 0
M  V30 1695 N 164.069 0.697108 -1.41344 0
M  V30 1696 C 165.017 1.83237 -1.43272 0
M  V30 1697 C 166.011 1.66522 -0.310947 0
M  V30 1698 O 167.217 1.73402 -0.482899 0
M  V30 1699 H 163.592 0.603802 -0.448249 0
M  V30 1700 H 165.563 1.78727 -2.38954 0
M  V30 1701 C 164.312 3.21245 -1.33029 0
M  V30 1702 H 163.635 3.34723 -2.18633 0
M  V30 1703 H 165.075 4.00763 -1.38439 0
M  V30 1704 C 163.534 3.36873 -0.0424635 0
M  V30 1705 O 164.064 3.91177 0.913421 0
M  V30 1706 N 162.27 2.90581 0.0331145 0
M  V30 1707 H 161.817 2.46577 -0.745506 0
M  V30 1708 H 161.775 3.01416 0.894199 0
M  V30 1709 N 165.547 1.27147 0.931209 0
M  V30 1710 C 166.48 1.0389 2.0318 0
M  V30 1711 C 167.458 -0.0395716 1.62552 0
M  V30 1712 O 168.642 0.104867 1.88208 0
M  V30 1713 C 165.769 0.575227 3.3378 0
M  V30 1714 C 164.815 1.64774 3.93385 0
M  V30 1715 S 165.648 3.23933 4.26413 0
M  V30 1716 C 166.804 2.79358 5.60098 0
M  V30 1717 H 167.037 1.97075 2.22596 0
M  V30 1718 H 164.57 1.10938 1.07387 0
M  V30 1719 H 166.528 0.314385 4.09294 0
M  V30 1720 H 165.189 -0.336505 3.12292 0
M  V30 1721 H 164.382 1.27454 4.87618 0
M  V30 1722 H 163.984 1.86048 3.24441 0
M  V30 1723 H 166.276 2.24443 6.39243 0
M  V30 1724 H 167.219 3.72322 6.02314 0
M  V30 1725 H 167.627 2.1861 5.20452 0
M  V30 1726 N 167.025 -1.13721 1.09112 0
M  V30 1727 C 167.975 -2.17082 0.697091 0
M  V30 1728 C 168.959 -1.58321 -0.286923 0
M  V30 1729 O 170.151 -1.7673 -0.0978008 0
M  V30 1730 C 167.28 -3.43105 0.115729 0
M  V30 1731 C 166.366 -4.0888 1.12596 0
M  V30 1732 N 166.757 -4.4987 2.31195 0
M  V30 1733 C 165.055 -4.35471 0.963366 0
M  V30 1734 C 165.756 -5.01094 2.95431 0
M  V30 1735 N 164.732 -4.95751 2.23006 0
M  V30 1736 H 168.534 -2.46524 1.6001 0
M  V30 1737 H 166.048 -1.30481 0.966869 0
M  V30 1738 H 168.045 -4.16491 -0.184555 0
M  V30 1739 H 166.705 -3.15138 -0.78217 0
M  V30 1740 H 167.716 -4.42678 2.68806 0
M  V30 1741 H 164.393 -4.17328 0.119878 0
M  V30 1742 H 165.783 -5.4263 3.96236 0
M  V30 1743 N 168.503 -0.877838 -1.30888 0
M  V30 1744 C 169.751 -0.491723 -1.96027 0
M  V30 1745 C 170.072 0.960827 -1.69685 0
M  V30 1746 O 169.342 1.67462 -1.01654 0
M  V30 1747 H 167.922 -0.17885 -0.725273 0
M  V30 1748 H 170.584 -1.11935 -1.59551 0
M  V30 1749 H 169.68 -0.656016 -3.05128 0
M  V30 1750 N 169.982 1.44106 -0.638065 0
M  V30 1751 C 170.93 2.3248 0.0748149 0
M  V30 1752 C 171.924 1.47746 0.828702 0
M  V30 1753 O 173.13 1.64049 0.740816 0
M  V30 1754 H 169.505 0.750771 0.0429686 0
M  V30 1755 H 171.476 2.90348 -0.688504 0
M  V30 1756 C 170.225 3.31843 1.03805 0
M  V30 1757 H 169.548 3.97059 0.467375 0
M  V30 1758 H 170.988 3.96345 1.50622 0
M  V30 1759 C 169.447 2.61291 2.1267 0
M  V30 1760 O 169.977 2.41702 3.20847 0
M  V30 1761 N 168.183 2.20915 1.88798 0
M  V30 1762 H 167.73 2.37047 1.00829 0
M  V30 1763 H 167.688 1.74038 2.61836 0
M  V30 1764 N 171.46 0.379036 1.52974 0
M  V30 1765 C 172.37 -0.468639 2.29872 0
M  V30 1766 C 173.386 -1.08067 1.36373 0
M  V30 1767 O 174.562 -1.08871 1.69438 0
M  V30 1768 C 171.627 -1.58594 3.083 0
M  V30 1769 C 170.688 -1.00007 4.17489 0
M  V30 1770 C 169.921 -2.06413 4.92168 0
M  V30 1771 O 170.144 -3.27751 4.66835 0
M  V30 1772 O 169.078 -1.68717 5.7777 0
M  V30 1773 H 172.904 0.157508 3.03291 0
M  V30 1774 H 170.489 0.143035 1.48714 0
M  V30 1775 H 172.371 -2.23525 3.57232 0
M  V30 1776 H 171.046 -2.19724 2.37703 0
M  V30 1777 H 169.953 -0.314299 3.72777 0
M  V30 1778 H 171.286 -0.433135 4.90291 0
M  V30 1779 N 172.938 -1.57226 0.108567 0
M  V30 1780 C 173.901 -2.13602 -0.831082 0
M  V30 1781 C 174.901 -1.06841 -1.20173 0
M  V30 1782 O 176.091 -1.32666 -1.12895 0
M  V30 1783 C 173.223 -2.66769 -2.12243 0
M  V30 1784 H 174.416 -2.97951 -0.341317 0
M  V30 1785 H 171.969 -1.55667 -0.14057 0
M  V30 1786 H 172.704 -1.85977 -2.65675 0
M  V30 1787 H 172.489 -3.44839 -1.86625 0
M  V30 1788 H 173.979 -3.10332 -2.79435 0
M  V30 1789 N 174.416 0.165178 -1.56732 0
M  V30 1790 C 175.662 0.882112 -1.82611 0
M  V30 1791 C 175.995 1.81628 -0.687378 0
M  V30 1792 O 175.27 1.92009 0.310267 0
M  V30 1793 C 175.553 1.67245 -3.18906 0
M  V30 1794 C 175.406 0.760987 -4.43316 0
M  V30 1795 C 176.725 2.63884 -3.52212 0
M  V30 1796 H 173.844 0.319242 -0.664269 0
M  V30 1797 H 176.486 0.148052 -1.89422 0
M  V30 1798 H 174.636 2.29824 -3.1323 0
M  V30 1799 H 176.308 0.147596 -4.61064 0
M  V30 1800 H 174.551 0.0694102 -4.33744 0
M  V30 1801 H 175.222 1.34962 -5.35247 0
M  V30 1802 H 177.698 2.11429 -3.58381 0
M  V30 1803 H 176.574 3.16245 -4.48643 0
M  V30 1804 H 176.835 3.44377 -2.77231 0
M  V30 1805 N 175.894 1.51508 0.433938 0
M  V30 1806 C 177.142 1.6402 1.18075 0
M  V30 1807 C 177.463 0.360328 1.91642 0
M  V30 1808 O 176.733 -0.623945 1.85698 0
M  V30 1809 H 175.313 0.6045 0.43885 0
M  V30 1810 H 177.975 1.88452 0.497178 0
M  V30 1811 H 177.071 2.46949 1.90847 0
M  V30 1812 N 177.372 -0.689602 1.41712 0
M  V30 1813 C 178.788 -1.00093 1.24312 0
M  V30 1814 C 178.988 -2.01036 0.136729 0
M  V30 1815 O 178.044 -2.47562 -0.496918 0
M  V30 1816 C 179.357 -1.51985 2.59463 0
M  V30 1817 C 180.905 -1.63838 2.66695 0
M  V30 1818 C 181.38 -2.1913 4.02177 0
M  V30 1819 N 182.871 -2.26483 4.04054 0
M  V30 1820 C 183.606 -2.70306 5.0569 0
M  V30 1821 N 183.102 -3.13691 6.17713 0
M  V30 1822 N 184.895 -2.69923 4.9305 0
M  V30 1823 H 177.046 -0.0210029 2.1239 0
M  V30 1824 H 179.309 -0.0718733 0.945272 0
M  V30 1825 H 179.015 -0.85269 3.41207 0
M  V30 1826 H 178.889 -2.50103 2.82362 0
M  V30 1827 H 181.276 -2.29664 1.85306 0
M  V30 1828 H 181.357 -0.642492 2.476 0
M  V30 1829 H 181.001 -1.53918 4.84016 0
M  V30 1830 H 180.931 -3.19482 4.18615 0
M  V30 1831 H 183.422 -1.95874 3.23174 0
M  V30 1832 H 183.735 -3.45773 6.9113 0
M  V30 1833 H 182.08 -3.11585 6.21241 0
M  V30 1834 H 185.271 -2.35382 4.04614 0
M  V30 1835 H 185.444 -3.03758 5.72394 0
M  V30 1836 N 178.85 -1.27639 -0.924453 0
M  V30 1837 C 179.76 -1.12466 -2.05885 0
M  V30 1838 C 180.776 -0.053869 -1.73917 0
M  V30 1839 O 181.952 -0.261012 -1.99702 0
M  V30 1840 C 179.017 -0.776768 -3.37886 0
M  V30 1841 C 178.078 -1.92878 -3.83532 0
M  V30 1842 C 177.311 -1.59739 -5.09234 0
M  V30 1843 O 177.534 -0.506782 -5.68144 0
M  V30 1844 O 176.468 -2.43761 -5.50331 0
M  V30 1845 H 180.294 -2.07671 -2.21599 0
M  V30 1846 H 177.879 -1.06857 -1.04413 0
M  V30 1847 H 179.761 -0.596229 -4.17161 0
M  V30 1848 H 178.436 0.145732 -3.23372 0
M  V30 1849 H 177.343 -2.1644 -3.0513 0
M  V30 1850 H 178.676 -2.8316 -4.02593 0
M  V30 1851 N 180.328 1.1314 -1.09713 0
M  V30 1852 C 181.258 2.20748 -0.761102 0
M  V30 1853 C 182.239 1.68061 0.262566 0
M  V30 1854 O 183.424 1.93765 0.129977 0
M  V30 1855 C 180.554 3.46812 -0.184054 0
M  V30 1856 C 179.508 4.12606 -1.13757 0
M  V30 1857 C 178.834 5.33031 -0.422083 0
M  V30 1858 C 180.134 4.59603 -2.48118 0
M  V30 1859 H 181.828 2.49113 -1.66082 0
M  V30 1860 H 179.374 1.19734 -0.799987 0
M  V30 1861 H 181.327 4.21353 0.0631215 0
M  V30 1862 H 180.051 3.17851 0.750868 0
M  V30 1863 H 178.71 3.40036 -1.37007 0
M  V30 1864 H 178.358 5.00335 0.517072 0
M  V30 1865 H 178.058 5.77999 -1.05788 0
M  V30 1866 H 179.582 6.10325 -0.183277 0
M  V30 1867 H 180.996 5.25552 -2.29059 0
M  V30 1868 H 179.393 5.15321 -3.07514 0
M  V30 1869 H 180.463 3.73971 -3.08665 0
M  V30 1870 N 181.806 0.884767 1.30421 0
M  V30 1871 C 182.736 0.367574 2.30589 0
M  V30 1872 C 183.717 -0.549464 1.60981 0
M  V30 1873 O 184.902 -0.46336 1.88591 0
M  V30 1874 C 182.032 -0.418944 3.44764 0
M  V30 1875 C 180.986 0.406316 4.26067 0
M  V30 1876 C 180.312 -0.506793 5.32293 0
M  V30 1877 C 181.612 1.64832 4.95608 0
M  V30 1878 H 183.306 1.20462 2.74097 0
M  V30 1879 H 180.852 0.580695 1.31772 0
M  V30 1880 H 182.805 -0.791395 4.13902 0
M  V30 1881 H 181.529 -1.28964 3.0006 0
M  V30 1882 H 180.188 0.760903 3.58617 0
M  V30 1883 H 179.836 -1.37519 4.83836 0
M  V30 1884 H 179.536 0.0415828 5.87585 0
M  V30 1885 H 181.06 -0.875764 6.04287 0
M  V30 1886 H 182.474 1.34646 5.57264 0
M  V30 1887 H 180.871 2.13688 5.60765 0
M  V30 1888 H 181.941 2.39284 4.21748 0
M  V30 1889 N 183.284 -1.43765 0.645699 0
M  V30 1890 C 184.533 -2.01116 0.153412 0
M  V30 1891 C 184.846 -1.51493 -1.23731 0
M  V30 1892 O 186.052 -2.01067 -1.8244 0
M  V30 1893 C 184.508 -3.59206 0.223473 0
M  V30 1894 C 184.116 -4.17823 1.61642 0
M  V30 1895 C 185.86 -4.23972 -0.211597 0
M  V30 1896 C 183.767 -5.68183 1.64081 0
M  V30 1897 H 182.697 -0.752093 0.0535891 0
M  V30 1898 H 185.348 -1.6482 0.806633 0
M  V30 1899 H 183.73 -3.92867 -0.497118 0
M  V30 1900 H 184.904 -3.95674 2.36176 0
M  V30 1901 H 183.219 -3.65399 1.99681 0
M  V30 1902 H 185.816 -5.34275 -0.213112 0
M  V30 1903 H 186.159 -3.97352 -1.24165 0
M  V30 1904 H 186.692 -3.95166 0.456988 0
M  V30 1905 H 183.431 -5.99559 2.64971 0
M  V30 1906 H 182.951 -5.9241 0.938611 0
M  V30 1907 H 184.63 -6.32085 1.3812 0
M  V30 1908 N 184.763 -0.387143 -1.52771 0
M  V30 1909 C 186.01 0.195735 -2.01552 0
M  V30 1910 C 186.338 1.46995 -1.27369 0
M  V30 1911 O 185.593 1.92325 -0.361879 0
M  V30 1912 C 185.892 0.512209 -3.53711 0
M  V30 1913 C 185.558 -0.670202 -4.45891 0
M  V30 1914 C 184.22 -0.994586 -4.70809 0
M  V30 1915 C 186.572 -1.46134 -5.00294 0
M  V30 1916 C 183.9 -2.11169 -5.4738 0
M  V30 1917 C 186.252 -2.56903 -5.78086 0
M  V30 1918 C 184.916 -2.89852 -6.01284 0
M  V30 1919 H 184.186 0.0716246 -0.73753 0
M  V30 1920 H 186.833 -0.524046 -1.8419 0
M  V30 1921 H 185.138 1.31329 -3.69134 0
M  V30 1922 H 186.835 0.975804 -3.88946 0
M  V30 1923 H 183.425 -0.407366 -4.2666 0
M  V30 1924 H 187.609 -1.22397 -4.80971 0
M  V30 1925 H 182.865 -2.3707 -5.63567 0
M  V30 1926 H 187.039 -3.18608 -6.19243 0
M  V30 1927 H 184.666 -3.76533 -6.60399 0
M  V30 1928 N 186.241 1.57166 -0.116904 0
M  V30 1929 C 187.171 2.18222 0.830759 0
M  V30 1930 C 188.152 1.12167 1.27877 0
M  V30 1931 O 189.337 1.40394 1.34176 0
M  V30 1932 C 186.467 2.77996 2.08172 0
M  V30 1933 C 185.421 3.89614 1.77157 0
M  V30 1934 C 184.747 4.36187 3.09265 0
M  V30 1935 C 186.047 5.1181 1.04151 0
M  V30 1936 H 187.741 2.97664 0.321992 0
M  V30 1937 H 185.287 1.4318 0.153434 0
M  V30 1938 H 187.24 3.19366 2.74924 0
M  V30 1939 H 185.964 1.9584 2.6137 0
M  V30 1940 H 184.623 3.48816 1.12796 0
M  V30 1941 H 184.271 3.50893 3.60393 0
M  V30 1942 H 183.971 5.11455 2.89288 0
M  V30 1943 H 185.495 4.80207 3.77139 0
M  V30 1944 H 186.909 5.50214 1.61052 0
M  V30 1945 H 185.306 5.92648 0.942762 0
M  V30 1946 H 186.376 4.84892 0.0279022 0
M  V30 1947 N 187.719 -0.156864 1.56817 0
M  V30 1948 C 188.682 -1.17781 1.96622 0
M  V30 1949 C 189.682 -1.36401 0.851555 0
M  V30 1950 O 190.872 -1.33561 1.11836 0
M  V30 1951 C 188.004 -2.54008 2.27361 0
M  V30 1952 H 189.197 -0.836564 2.87996 0
M  V30 1953 H 186.75 -0.39985 1.51099 0
M  V30 1954 H 187.485 -2.9312 1.38748 0
M  V30 1955 H 187.27 -2.41856 3.08623 0
M  V30 1956 H 188.76 -3.27558 2.59029 0
M  V30 1957 N 189.197 -1.51736 -0.425897 0
M  V30 1958 C 190.129 -1.70083 -1.53638 0
M  V30 1959 C 191.142 -0.581349 -1.52066 0
M  V30 1960 O 192.331 -0.856017 -1.56635 0
M  V30 1961 C 189.431 -1.71078 -2.9255 0
M  V30 1962 C 188.604 -2.99795 -3.185 0
M  V30 1963 C 187.663 -2.92825 -4.37196 0
M  V30 1964 O 186.689 -3.66756 -4.35291 0
M  V30 1965 N 187.891 -2.0946 -5.41393 0
M  V30 1966 H 190.656 -2.65882 -1.383 0
M  V30 1967 H 188.217 -1.49765 -0.614988 0
M  V30 1968 H 190.209 -1.63969 -3.69995 0
M  V30 1969 H 188.779 -0.828242 -3.01428 0
M  V30 1970 H 187.999 -3.20684 -2.2925 0
M  V30 1971 H 189.287 -3.84977 -3.32671 0
M  V30 1972 H 188.685 -1.48792 -5.45781 0
M  V30 1973 H 187.242 -2.08221 -6.17647 0
M  V30 1974 N 190.675 0.682077 -1.42076 0
M  V30 1975 C 191.905 1.46844 -1.45329 0
M  V30 1976 C 192.313 1.89102 -0.0609328 0
M  V30 1977 O 191.656 1.58238 0.933082 0
M  V30 1978 C 191.718 2.75375 -2.31104 0
M  V30 1979 C 191.382 2.55238 -3.79081 0
M  V30 1980 C 192.379 2.20309 -4.70914 0
M  V30 1981 C 190.064 2.70459 -4.2327 0
M  V30 1982 C 192.058 2.00859 -6.04925 0
M  V30 1983 C 189.745 2.50624 -5.57343 0
M  V30 1984 C 190.743 2.15876 -6.47986 0
M  V30 1985 O 190.431 1.96227 -7.79583 0
M  V30 1986 H 190.163 0.4586 -0.496651 0
M  V30 1987 H 192.717 0.846131 -1.87162 0
M  V30 1988 H 190.947 3.40061 -1.84107 0
M  V30 1989 H 192.636 3.37231 -2.25898 0
M  V30 1990 H 193.402 2.08153 -4.38061 0
M  V30 1991 H 189.281 2.96485 -3.53012 0
M  V30 1992 H 192.825 1.7366 -6.75639 0
M  V30 1993 H 188.722 2.62375 -5.89771 0
M  V30 1994 H 189.49 2.10883 -7.90867 0
M  V30 1995 N 192.153 1.28127 0.917671 0
M  V30 1996 C 193.083 1.14248 2.03641 0
M  V30 1997 C 194.064 0.0412748 1.7005 0
M  V30 1998 O 195.249 0.217566 1.92977 0
M  V30 1999 C 192.379 0.799431 3.37974 0
M  V30 2000 C 191.333 1.85497 3.85713 0
M  V30 2001 C 190.659 1.36565 5.16966 0
M  V30 2002 C 191.959 3.26085 4.08002 0
M  V30 2003 H 193.653 2.07835 2.15511 0
M  V30 2004 H 191.199 1.00064 1.03553 0
M  V30 2005 H 193.152 0.689114 4.15727 0
M  V30 2006 H 191.876 -0.172145 3.26146 0
M  V30 2007 H 190.535 1.95437 3.10161 0
M  V30 2008 H 190.183 0.383253 5.01538 0
M  V30 2009 H 189.883 2.07143 5.49878 0
M  V30 2010 H 191.407 1.26848 5.97279 0
M  V30 2011 H 192.821 3.19089 4.76293 0
M  V30 2012 H 191.218 3.94462 4.52238 0
M  V30 2013 H 192.288 3.70394 3.12948 0
M  V30 2014 N 193.631 -1.12557 1.10312 0
M  V30 2015 C 194.871 -1.8568 0.854543 0
M  V30 2016 C 195.235 -1.82091 -0.608843 0
M  V30 2017 O 196.436 -2.50544 -0.973717 0
M  V30 2018 C 194.707 -3.2942 1.38626 0
M  V30 2019 S 196.266 -4.19931 1.27293 0
M  V30 2020 H 193.084 -0.640427 0.308827 0
M  V30 2021 H 195.686 -1.35599 1.40831 0
M  V30 2022 H 194.39 -3.2959 2.44537 0
M  V30 2023 H 193.921 -3.84566 0.82902 0
M  V30 2024 H 195.936 -4.95668 0.229776 0
M  V30 2025 N 195.109 -0.891671 -1.2995 0
M  V30 2026 C 196.057 -0.353066 -2.29905 0
M  V30 2027 C 197.051 0.543509 -1.60444 0
M  V30 2028 O 198.257 0.4272 -1.74857 0
M  V30 2029 H 194.632 -0.095531 -0.745907 0
M  V30 2030 H 196.603 -1.20961 -2.72784 0
M  V30 2031 C 195.352 0.411475 -3.45257 0
M  V30 2032 H 194.675 -0.269182 -3.98893 0
M  V30 2033 H 196.115 0.753328 -4.17254 0
M  V30 2034 C 194.574 1.6111 -2.9588 0
M  V30 2035 O 195.104 2.71045 -2.96475 0
M  V30 2036 N 193.31 1.45054 -2.51809 0
M  V30 2037 H 192.857 0.556175 -2.51524 0
M  V30 2038 H 192.815 2.25453 -2.1913 0
M  V30 2039 N 196.587 1.43421 -0.653314 0
M  V30 2040 C 197.497 2.34568 0.0388565 0
M  V30 2041 C 198.513 1.53888 0.81207 0
M  V30 2042 O 199.689 1.86539 0.759294 0
M  V30 2043 C 196.754 3.32167 0.993269 0
M  V30 2044 C 195.815 4.28751 0.216977 0
M  V30 2045 C 195.048 5.21688 1.12593 0
M  V30 2046 O 195.271 5.19052 2.36519 0
M  V30 2047 O 194.205 5.98919 0.598284 0
M  V30 2048 H 198.031 2.95251 -0.711386 0
M  V30 2049 H 195.616 1.43564 -0.413502 0
M  V30 2050 H 197.498 3.92183 1.54176 0
M  V30 2051 H 196.173 2.73987 1.72374 0
M  V30 2052 H 195.08 3.72215 -0.375101 0
M  V30 2053 H 196.413 4.89913 -0.473924 0
M  V30 2054 N 198.065 0.39524 1.52563 0
M  V30 2055 C 199.295 -0.184675 2.05773 0
M  V30 2056 C 199.703 -1.40571 1.26635 0
M  V30 2057 O 199.046 -1.81105 0.30769 0
M  V30 2058 C 199.108 -0.613551 3.54226 0
M  V30 2059 C 198.772 0.49484 4.54313 0
M  V30 2060 C 199.769 1.3541 5.01956 0
M  V30 2061 C 197.454 0.663565 4.97898 0
M  V30 2062 C 199.448 2.36716 5.91814 0
M  V30 2063 C 197.135 1.67996 5.87555 0
M  V30 2064 C 198.133 2.53017 6.34406 0
M  V30 2065 O 197.821 3.52917 7.22291 0
M  V30 2066 H 197.553 -0.030077 0.675331 0
M  V30 2067 H 200.107 0.560708 1.97599 0
M  V30 2068 H 198.337 -1.411 3.60038 0
M  V30 2069 H 200.026 -1.11981 3.90148 0
M  V30 2070 H 200.792 1.23509 4.6901 0
M  V30 2071 H 196.671 0.0114913 4.60999 0
M  V30 2072 H 200.215 3.03113 6.28306 0
M  V30 2073 H 196.112 1.79933 6.19915 0
M  V30 2074 H 196.88 3.48996 7.40367 0
M  V30 2075 N 199.544 -1.57102 0.125237 0
M  V30 2076 C 200.476 -2.12726 -0.853237 0
M  V30 2077 C 201.489 -1.07145 -1.22571 0
M  V30 2078 O 202.678 -1.34497 -1.17358 0
M  V30 2079 C 199.778 -2.61709 -2.15317 0
M  V30 2080 C 198.951 -3.91456 -1.95143 0
M  V30 2081 C 198.01 -4.25973 -3.08923 0
M  V30 2082 O 197.036 -4.94682 -2.81564 0
M  V30 2083 N 198.238 -3.83795 -4.35524 0
M  V30 2084 H 201.003 -2.97307 -0.377964 0
M  V30 2085 H 198.564 -1.61792 -0.0590011 0
M  V30 2086 H 200.556 -2.81826 -2.90441 0
M  V30 2087 H 199.126 -1.81974 -2.54174 0
M  V30 2088 H 198.346 -3.80185 -1.04177 0
M  V30 2089 H 199.634 -4.76283 -1.78976 0
M  V30 2090 H 199.032 -3.2839 -4.60626 0
M  V30 2091 H 197.589 -4.09008 -5.07499 0
M  V30 2092 N 201.022 0.148545 -1.56898 0
M  V30 2093 C 201.969 1.18345 -1.98149 0
M  V30 2094 C 202.939 1.42772 -0.848848 0
M  V30 2095 O 204.124 1.55132 -1.11079 0
M  V30 2096 C 201.264 2.51231 -2.36594 0
M  V30 2097 C 200.377 2.33991 -3.63142 0
M  V30 2098 C 199.512 3.59902 -3.90697 0
M  V30 2099 C 198.551 3.37692 -5.1052 0
M  V30 2100 N 197.688 4.5573 -5.34092 0
M  V30 2101 H 202.528 0.82467 -2.86362 0
M  V30 2102 H 200.065 0.395756 -1.41676 0
M  V30 2103 H 202.023 3.28713 -2.56912 0
M  V30 2104 H 200.653 2.85059 -1.51463 0
M  V30 2105 H 199.705 1.47572 -3.50609 0
M  V30 2106 H 201.017 2.13539 -4.5078 0
M  V30 2107 H 200.171 4.45813 -4.11505 0
M  V30 2108 H 198.91 3.83357 -3.01477 0
M  V30 2109 H 197.915 2.5017 -4.89587 0
M  V30 2110 H 199.14 3.15637 -6.0129 0
M  V30 2111 H 197.086 4.79361 -4.47827 0
M  V30 2112 H 197.003 4.38274 -6.15996 0
M  V30 2113 H 198.271 5.42858 -5.59397 0
M  V30 2114 N 202.5 1.5196 0.417844 0
M  V30 2115 C 203.748 1.65263 1.16329 0
M  V30 2116 C 204.069 0.380634 1.91249 0
M  V30 2117 O 203.339 -0.604214 1.86349 0
M  V30 2118 H 201.919 0.60912 0.432414 0
M  V30 2119 H 204.581 1.88969 0.477162 0
M  V30 2120 H 203.677 2.4896 1.88217 0
M  V30 2121 N 203.978 -0.674533 1.42435 0
M  V30 2122 C 204.926 -1.80934 1.46169 0
M  V30 2123 C 205.92 -1.66006 0.3374 0
M  V30 2124 O 207.126 -1.72611 0.510425 0
M  V30 2125 H 203.501 -0.596594 0.457798 0
M  V30 2126 H 205.472 -1.74903 2.41767 0
M  V30 2127 C 204.221 -3.19088 1.38123 0
M  V30 2128 H 203.544 -3.31203 2.23931 0
M  V30 2129 H 204.984 -3.9851 1.44797 0
M  V30 2130 C 203.443 -3.36763 0.0960517 0
M  V30 2131 O 203.973 -3.92581 -0.851073 0
M  V30 2132 N 202.179 -2.90597 0.0131186 0
M  V30 2133 H 201.726 -2.45359 0.784639 0
M  V30 2134 H 201.684 -3.028 -0.846133 0
M  V30 2135 N 205.456 -1.28612 -0.910864 0
M  V30 2136 C 206.366 -1.14643 -2.0468 0
M  V30 2137 C 207.382 -0.0723121 -1.7385 0
M  V30 2138 O 208.558 -0.282178 -1.99413 0
M  V30 2139 C 205.623 -0.812561 -3.37044 0
M  V30 2140 C 204.684 -1.96935 -3.81465 0
M  V30 2141 C 203.917 -1.65131 -5.07511 0
M  V30 2142 O 204.14 -0.567013 -5.67575 0
M  V30 2143 O 203.074 -2.49585 -5.47714 0
M  V30 2144 H 206.9 -2.1001 -2.19384 0
M  V30 2145 H 204.485 -1.07958 -1.03274 0
M  V30 2146 H 206.367 -0.640441 -4.16505 0
M  V30 2147 H 205.042 0.111426 -3.23508 0
M  V30 2148 H 203.949 -2.19664 -3.02818 0
M  V30 2149 H 205.282 -2.87414 -3.99567 0
M  V30 2150 N 206.934 1.1197 -1.10907 0
M  V30 2151 C 208.162 1.87402 -0.876824 0
M  V30 2152 C 208.577 1.79894 0.573025 0
M  V30 2153 O 207.934 1.17629 1.39534 0
M  V30 2154 C 207.985 3.36428 -1.32282 0
M  V30 2155 O 207.706 3.43765 -2.71582 0
M  V30 2156 C 209.207 4.28783 -1.12518 0
M  V30 2157 H 206.427 0.592793 -0.314384 0
M  V30 2158 H 208.971 1.41649 -1.47499 0
M  V30 2159 H 207.126 3.79706 -0.768229 0
M  V30 2160 H 207.54 4.3652 -2.90776 0
M  V30 2161 H 209.014 5.31613 -1.48633 0
M  V30 2162 H 209.491 4.39153 -0.0642394 0
M  V30 2163 H 210.097 3.91291 -1.66648 0
M  V30 2164 N 208.412 0.89855 1.29475 0
M  V30 2165 C 209.661 0.519863 1.94885 0
M  V30 2166 C 209.974 -0.9383 1.71625 0
M  V30 2167 O 211.18 -1.42445 2.31131 0
M  V30 2168 C 209.636 0.878836 3.49005 0
M  V30 2169 C 209.244 2.35569 3.81066 0
M  V30 2170 C 210.988 0.570004 4.20656 0
M  V30 2171 C 208.895 2.65558 5.28425 0
M  V30 2172 H 207.825 0.190692 0.729488 0
M  V30 2173 H 210.476 1.09539 1.47219 0
M  V30 2174 H 208.858 0.232253 3.95318 0
M  V30 2175 H 210.032 3.04773 3.45616 0
M  V30 2176 H 208.347 2.63343 3.22552 0
M  V30 2177 H 210.944 0.770925 5.29113 0
M  V30 2178 H 211.287 -0.491404 4.1339 0
M  V30 2179 H 211.82 1.17438 3.8007 0
M  V30 2180 H 208.559 3.70493 5.40754 0
M  V30 2181 H 208.079 2.00977 5.65127 0
M  V30 2182 H 209.758 2.51765 5.96006 0
M  V30 2183 N 209.89 -1.43072 0.660911 0
M  V30 2184 C 211.136 -2.0202 0.177708 0
M  V30 2185 C 211.469 -1.52066 -1.20787 0
M  V30 2186 O 210.744 -0.716987 -1.80802 0
M  V30 2187 C 211.027 -3.59561 0.197019 0
M  V30 2188 C 210.88 -4.19727 1.61706 0
M  V30 2189 C 212.199 -4.37664 -0.462396 0
M  V30 2190 H 209.318 -0.734034 0.0660494 0
M  V30 2191 H 211.96 -1.70272 0.843058 0
M  V30 2192 H 210.11 -3.86739 -0.369527 0
M  V30 2193 H 211.782 -4.03553 2.23479 0
M  V30 2194 H 210.025 -3.76084 2.16201 0
M  V30 2195 H 210.696 -5.28834 1.58237 0
M  V30 2196 H 213.172 -4.16095 0.0197215 0
M  V30 2197 H 212.048 -5.47305 -0.418188 0
M  V30 2198 H 212.309 -4.14493 -1.53778 0
M  V30 2199 N 211.368 -0.403325 -1.52352 0
M  V30 2200 C 212.316 0.439752 -2.28405 0
M  V30 2201 C 213.31 1.05089 -1.32863 0
M  V30 2202 O 214.516 0.989759 -1.50345 0
M  V30 2203 H 210.891 0.160587 -0.734653 0
M  V30 2204 H 212.862 -0.222983 -2.97566 0
M  V30 2205 C 211.611 1.54736 -3.11371 0
M  V30 2206 H 210.934 1.08643 -3.84755 0
M  V30 2207 H 212.374 2.1112 -3.67701 0
M  V30 2208 C 210.833 2.51141 -2.24566 0
M  V30 2209 O 211.363 3.54887 -1.88196 0
M  V30 2210 N 209.569 2.21213 -1.8845 0
M  V30 2211 H 209.116 1.36878 -2.18225 0
M  V30 2212 H 209.074 2.85963 -1.30662 0
M  V30 2213 N 212.846 1.57033 -0.133567 0
M  V30 2214 C 213.776 2.1909 0.807567 0
M  V30 2215 C 214.757 1.13517 1.26681 0
M  V30 2216 O 215.942 1.41809 1.32679 0
M  V30 2217 C 213.072 2.80188 2.05212 0
M  V30 2218 C 212.026 3.91471 1.73015 0
M  V30 2219 C 211.352 4.39443 3.04622 0
M  V30 2220 C 212.652 5.12886 0.987168 0
M  V30 2221 H 214.346 2.97988 0.290403 0
M  V30 2222 H 211.892 1.43335 0.138239 0
M  V30 2223 H 213.845 3.22264 2.71521 0
M  V30 2224 H 212.569 1.98601 2.59278 0
M  V30 2225 H 211.228 3.49993 1.0909 0
M  V30 2226 H 210.876 3.54695 3.56651 0
M  V30 2227 H 210.576 5.14495 2.83847 0
M  V30 2228 H 212.1 4.8418 3.72024 0
M  V30 2229 H 213.514 5.51891 1.55208 0
M  V30 2230 H 211.911 5.93615 0.87985 0
M  V30 2231 H 212.981 4.84894 -0.0235286 0
M  V30 2232 N 214.325 -0.140222 1.56975 0
M  V30 2233 C 215.574 -0.850152 1.82908 0
M  V30 2234 C 215.887 -1.82028 0.715892 0
M  V30 2235 O 217.093 -2.57485 0.861016 0
M  V30 2236 C 215.549 -1.5625 3.24213 0
M  V30 2237 C 215.157 -0.63443 4.43485 0
M  V30 2238 C 216.901 -2.25881 3.59413 0
M  V30 2239 C 214.808 -1.34879 5.75814 0
M  V30 2240 H 213.738 -0.321221 0.682153 0
M  V30 2241 H 216.389 -0.102874 1.83211 0
M  V30 2242 H 214.771 -2.35565 3.18316 0
M  V30 2243 H 215.945 0.12398 4.60633 0
M  V30 2244 H 214.26 -0.0461836 4.16374 0
M  V30 2245 H 216.857 -2.79978 4.5554 0
M  V30 2246 H 217.2 -3.02693 2.85802 0
M  V30 2247 H 217.733 -1.53477 3.67001 0
M  V30 2248 H 214.472 -0.622385 6.52539 0
M  V30 2249 H 213.992 -2.07974 5.6259 0
M  V30 2250 H 215.671 -1.88784 6.18845 0
M  V30 2251 N 215.803 -1.52179 -0.40978 0
M  V30 2252 C 216.753 -1.71857 -1.49831 0
M  V30 2253 C 217.737 -0.572469 -1.50372 0
M  V30 2254 O 218.929 -0.829509 -1.56359 0
M  V30 2255 C 216.058 -1.87206 -2.87765 0
M  V30 2256 C 215.144 -3.07685 -2.91875 0
M  V30 2257 N 215.535 -4.30403 -2.65683 0
M  V30 2258 C 213.833 -3.07505 -3.23043 0
M  V30 2259 C 214.534 -5.11868 -2.76344 0
M  V30 2260 N 213.51 -4.47101 -3.09195 0
M  V30 2261 H 217.312 -2.64381 -1.28375 0
M  V30 2262 H 214.826 -1.50203 -0.617479 0
M  V30 2263 H 216.823 -1.99419 -3.66111 0
M  V30 2264 H 215.483 -0.958814 -3.10221 0
M  V30 2265 H 216.494 -4.58887 -2.4009 0
M  V30 2266 H 213.171 -2.25915 -3.51096 0
M  V30 2267 H 214.561 -6.19634 -2.59814 0
M  V30 2268 N 217.281 0.66697 -1.42791 0
M  V30 2269 C 218.506 1.46004 -1.47301 0
M  V30 2270 C 218.931 1.87894 -0.0880317 0
M  V30 2271 O 218.289 1.56502 0.915253 0
M  V30 2272 C 218.337 2.68031 -2.41229 0
M  V30 2273 O 217.441 3.6659 -1.88906 0
M  V30 2274 H 216.782 0.43832 -0.49877 0
M  V30 2275 H 219.312 0.817391 -1.87563 0
M  V30 2276 H 219.322 3.1601 -2.58073 0
M  V30 2277 H 217.997 2.36883 -3.41847 0
M  V30 2278 H 216.574 3.25661 -1.81656 0
M  V30 2279 N 218.759 1.29093 0.90403 0
M  V30 2280 C 219.987 1.19689 1.68766 0
M  V30 2281 C 220.402 -0.243113 1.87228 0
M  V30 2282 O 219.759 -1.16326 1.40621 0
M  V30 2283 C 219.81 1.90144 3.07453 0
M  V30 2284 O 219.531 3.2852 2.89838 0
M  V30 2285 C 221.032 1.87162 4.01852 0
M  V30 2286 H 218.252 0.415035 0.527244 0
M  V30 2287 H 220.796 1.7039 1.13082 0
M  V30 2288 H 218.951 1.43289 3.59926 0
M  V30 2289 H 219.365 3.63944 3.77684 0
M  V30 2290 H 220.839 2.41032 4.96596 0
M  V30 2291 H 221.316 0.84617 4.30972 0
M  V30 2292 H 221.922 2.33741 3.5531 0
M  V30 2293 N 220.237 -1.11381 1.11499 0
M  V30 2294 C 221.653 -1.35143 0.849031 0
M  V30 2295 C 221.853 -1.94515 -0.525938 0
M  V30 2296 O 220.909 -2.1785 -1.27662 0
M  V30 2297 C 222.222 -2.28249 1.95762 0
M  V30 2298 C 223.77 -2.41812 1.98736 0
M  V30 2299 C 224.245 -3.3824 3.088 0
M  V30 2300 N 225.736 -3.45803 3.08179 0
M  V30 2301 C 226.471 -4.20358 3.89982 0
M  V30 2302 N 225.967 -4.97884 4.8175 0
M  V30 2303 N 227.76 -4.15877 3.78157 0
M  V30 2304 H 219.911 -0.712062 2.00109 0
M  V30 2305 H 222.174 -0.376025 0.870235 0
M  V30 2306 H 221.88 -1.91817 2.94787 0
M  V30 2307 H 221.754 -3.28473 1.85433 0
M  V30 2308 H 224.141 -2.77518 1.00338 0
M  V30 2309 H 224.222 -1.41437 2.13141 0
M  V30 2310 H 223.866 -3.03261 4.07425 0
M  V30 2311 H 223.796 -4.38471 2.91635 0
M  V30 2312 H 226.287 -2.90506 2.41691 0
M  V30 2313 H 226.6 -5.52142 5.40702 0
M  V30 2314 H 224.945 -4.97043 4.85771 0
M  V30 2315 H 228.136 -3.544 3.05808 0
M  V30 2316 H 228.309 -4.73723 4.42143 0
M  V30 2317 N 221.715 -0.905404 -1.28997 0
M  V30 2318 C 222.964 -0.530191 -1.94607 0
M  V30 2319 C 223.277 0.929185 -1.72121 0
M  V30 2320 O 224.483 1.41218 -2.31883 0
M  V30 2321 C 222.939 -0.897333 -3.48534 0
M  V30 2322 C 222.547 -2.37587 -3.79811 0
M  V30 2323 C 224.291 -0.592304 -4.20347 0
M  V30 2324 C 222.198 -2.68357 -5.27009 0
M  V30 2325 H 221.128 -0.194558 -0.728466 0
M  V30 2326 H 223.779 -1.10318 -1.46636 0
M  V30 2327 H 222.161 -0.253214 -3.9519 0
M  V30 2328 H 223.335 -3.06602 -3.43994 0
M  V30 2329 H 221.65 -2.6505 -3.2115 0
M  V30 2330 H 224.247 -0.798975 -5.28697 0
M  V30 2331 H 224.59 0.469474 -4.13644 0
M  V30 2332 H 225.123 -1.19452 -3.79442 0
M  V30 2333 H 221.862 -3.73355 -5.38782 0
M  V30 2334 H 221.382 -2.03971 -5.64053 0
M  V30 2335 H 223.061 -2.54922 -5.94663 0
M  V30 2336 N 223.193 1.4272 -0.668489 0
M  V30 2337 C 224.143 2.27971 0.0363806 0
M  V30 2338 C 225.127 1.40741 0.779794 0
M  V30 2339 O 226.319 1.64245 0.659745 0
M  V30 2340 C 223.448 3.28673 0.991398 0
M  V30 2341 C 222.534 4.23388 0.245658 0
M  V30 2342 N 222.925 5.00267 -0.746069 0
M  V30 2343 C 221.223 4.43355 0.484988 0
M  V30 2344 C 221.924 5.69396 -1.19009 0
M  V30 2345 N 220.9 5.41095 -0.521287 0
M  V30 2346 H 224.702 2.84833 -0.724394 0
M  V30 2347 H 222.216 1.54607 -0.497028 0
M  V30 2348 H 224.213 3.88543 1.51129 0
M  V30 2349 H 222.873 2.73373 1.75207 0
M  V30 2350 H 223.884 5.05525 -1.12537 0
M  V30 2351 H 220.561 3.99104 1.22565 0
M  V30 2352 H 221.951 6.41083 -2.01153 0
M  V30 2353 N 224.671 0.411399 1.52136 0
M  V30 2354 C 225.92 -0.165009 2.01024 0
M  V30 2355 C 226.233 -1.4603 1.30133 0
M  V30 2356 O 227.439 -2.1181 1.69849 0
M  V30 2357 C 225.895 -0.344618 3.58246 0
M  V30 2358 C 225.503 0.938716 4.38055 0
M  V30 2359 C 227.247 -0.876195 4.15359 0
M  V30 2360 C 225.154 0.726172 5.86925 0
M  V30 2361 H 224.084 -0.0654407 0.751155 0
M  V30 2362 H 226.735 0.537192 1.75461 0
M  V30 2363 H 225.117 -1.10921 3.80148 0
M  V30 2364 H 226.291 1.70963 4.27912 0
M  V30 2365 H 224.606 1.39688 3.92271 0
M  V30 2366 H 227.203 -1.05128 5.24263 0
M  V30 2367 H 227.546 -1.85152 3.7286 0
M  V30 2368 H 228.079 -0.170607 3.97434 0
M  V30 2369 H 224.818 1.67312 6.33788 0
M  V30 2370 H 224.338 -0.00540283 5.998 0
M  V30 2371 H 226.017 0.369231 6.45946 0
M  V30 2372 N 226.149 -1.5696 0.141893 0
M  V30 2373 C 227.082 -2.12271 -0.837627 0
M  V30 2374 C 228.06 -1.04495 -1.24578 0
M  V30 2375 O 229.244 -1.32293 -1.34278 0
M  V30 2376 C 226.371 -2.63822 -2.12404 0
M  V30 2377 C 225.417 -3.83698 -1.86221 0
M  V30 2378 S 226.25 -5.24948 -1.05781 0
M  V30 2379 C 227.406 -5.79884 -2.35552 0
M  V30 2380 H 227.639 -2.95023 -0.367249 0
M  V30 2381 H 225.172 -1.54231 -0.0723014 0
M  V30 2382 H 227.13 -2.94175 -2.86307 0
M  V30 2383 H 225.791 -1.8121 -2.56557 0
M  V30 2384 H 224.984 -4.17995 -2.81596 0
M  V30 2385 H 224.586 -3.5408 -1.20429 0
M  V30 2386 H 226.878 -5.91005 -3.31239 0
M  V30 2387 H 227.821 -6.77544 -2.05767 0
M  V30 2388 H 228.229 -5.08095 -2.45967 0
M  V30 2389 N 227.627 0.131896 -1.57047 0
M  V30 2390 C 229.038 0.690407 -1.73465 0
M  V30 2391 C 229.389 1.8094 -0.758629 0
M  V30 2392 O 228.514 2.16282 0.0713813 0
M  V30 2393 C 229.109 1.25916 -3.14532 0
M  V30 2394 C 227.668 1.76409 -3.32501 0
M  V30 2395 C 226.815 0.658579 -2.69366 0
M  V30 2396 H 229.766 -0.0939144 -1.58422 0
M  V30 2397 H 229.787 2.12892 -3.15369 0
M  V30 2398 H 229.299 0.444515 -3.85546 0
M  V30 2399 H 227.4 2.60391 -2.66509 0
M  V30 2400 H 227.513 1.88241 -4.4057 0
M  V30 2401 H 225.877 1.08899 -2.30246 0
M  V30 2402 H 226.66 -0.14487 -3.42994 0
M  V30 2403 N 229.106 1.52395 0.401703 0
M  V30 2404 C 230.331 1.70972 1.17403 0
M  V30 2405 C 230.756 0.421615 1.83314 0
M  V30 2406 O 230.114 -0.621564 1.70312 0
M  V30 2407 C 230.162 2.85151 2.20728 0
M  V30 2408 O 229.266 2.51238 3.27037 0
M  V30 2409 H 228.607 0.568927 0.342372 0
M  V30 2410 H 231.137 1.99131 0.469891 0
M  V30 2411 H 231.147 3.10279 2.64936 0
M  V30 2412 H 229.822 3.78603 1.7214 0
M  V30 2413 H 228.399 2.36808 2.88057 0
M  V30 2414 N 230.584 -0.659388 1.43143 0
M  V30 2415 C 231.514 -1.78422 1.50625 0
M  V30 2416 C 232.495 -1.66216 0.361443 0
M  V30 2417 O 233.68 -1.85404 0.577834 0
M  V30 2418 C 230.81 -3.16815 1.42287 0
M  V30 2419 C 229.764 -3.43777 2.54954 0
M  V30 2420 C 229.09 -4.81905 2.31671 0
M  V30 2421 C 230.39 -3.39134 3.97222 0
M  V30 2422 H 232.084 -1.72417 2.44771 0
M  V30 2423 H 229.63 -0.828084 1.17808 0
M  V30 2424 H 231.583 -3.95253 1.46127 0
M  V30 2425 H 230.307 -3.23534 0.446435 0
M  V30 2426 H 228.966 -2.67707 2.50457 0
M  V30 2427 H 228.614 -4.85294 1.32284 0
M  V30 2428 H 228.314 -5.00906 3.07192 0
M  V30 2429 H 229.838 -5.62609 2.37284 0
M  V30 2430 H 231.252 -4.07518 4.03239 0
M  V30 2431 H 229.649 -3.69671 4.72719 0
M  V30 2432 H 230.719 -2.37426 4.22797 0
M  V30 2433 N 232.062 -1.29571 -0.897171 0
M  V30 2434 C 233.01 -1.14802 -2.02295 0
M  V30 2435 C 234.004 -0.0629637 -1.69283 0
M  V30 2436 O 235.21 -0.222945 -1.78614 0
M  V30 2437 H 231.585 -0.354692 -0.663097 0
M  V30 2438 H 233.556 -2.10108 -2.11889 0
M  V30 2439 C 232.305 -0.843966 -3.37302 0
M  V30 2440 H 231.628 -1.67093 -3.63208 0
M  V30 2441 H 233.068 -0.780672 -4.16751 0
M  V30 2442 C 231.527 0.452843 -3.33843 0
M  V30 2443 O 232.057 1.47813 -3.73516 0
M  V30 2444 N 230.263 0.459601 -2.86943 0
M  V30 2445 H 229.81 -0.375213 -2.54853 0
M  V30 2446 H 229.768 1.32726 -2.85011 0
M  V30 2447 N 233.54 1.10788 -1.12088 0
M  V30 2448 C 234.951 1.64181 -0.88891 0
M  V30 2449 C 235.302 1.87508 0.577498 0
M  V30 2450 O 234.427 1.61434 1.44112 0
M  V30 2451 C 235.022 2.98257 -1.60712 0
M  V30 2452 C 233.581 3.4853 -1.42139 0
M  V30 2453 C 232.728 2.23208 -1.6454 0
M  V30 2454 H 235.679 0.943368 -1.27618 0
M  V30 2455 H 235.7 3.65552 -1.05604 0
M  V30 2456 H 235.212 2.81246 -2.67436 0
M  V30 2457 H 233.313 3.70692 -0.376552 0
M  V30 2458 H 233.426 4.26882 -2.17505 0
M  V30 2459 H 231.79 2.31169 -1.06925 0
M  V30 2460 H 232.573 2.08733 -2.72554 0
M  V30 2461 N 235.018 0.912232 1.28515 0
M  V30 2462 C 236.295 0.463597 1.90027 0
M  V30 2463 C 236.675 -1.05753 1.82701 0
M  V30 2464 O 236.023 -1.90492 1.26194 0
M  V30 2465 C 236.233 0.992253 3.34597 0
M  V30 2466 C 237.581 1.04344 4.11579 0
M  V30 2467 O 238.605 0.94079 3.43551 0
M  V30 2468 O 237.464 1.1995 5.33174 0
M  V30 2469 H 234.558 0.146666 0.813891 0
M  V30 2470 H 237.104 1.00292 1.36893 0
M  V30 2471 H 235.876 2.03623 3.34146 0
M  V30 2472 H 235.499 0.433672 3.95228 0
M  V30 2473 N 236.496 -1.42363 0.676048 0
M  V30 2474 C 237.744 -2.01123 0.198437 0
M  V30 2475 C 238.065 -1.53731 -1.19966 0
M  V30 2476 O 237.335 -0.759518 -1.80577 0
M  V30 2477 H 235.915 -0.743678 0.0703721 0
M  V30 2478 H 238.577 -1.74263 0.872837 0
M  V30 2479 H 237.673 -3.11454 0.200686 0
M  V30 2480 N 237.974 -0.419461 -1.51915 0
M  V30 2481 C 239.221 0.152939 -2.01922 0
M  V30 2482 C 239.549 1.4426 -1.30458 0
M  V30 2483 O 238.804 1.91514 -0.402593 0
M  V30 2484 C 239.103 0.437067 -3.54717 0
M  V30 2485 C 238.769 -0.764632 -4.44369 0
M  V30 2486 C 237.431 -1.09423 -4.68594 0
M  V30 2487 C 239.783 -1.56713 -4.97082 0
M  V30 2488 C 237.111 -2.22732 -5.42777 0
M  V30 2489 C 239.463 -2.69107 -5.72507 0
M  V30 2490 C 238.127 -3.02541 -5.95 0
M  V30 2491 H 237.397 0.0559644 -0.738884 0
M  V30 2492 H 240.044 -0.562998 -1.83037 0
M  V30 2493 H 238.349 1.23469 -3.71837 0
M  V30 2494 H 240.046 0.893083 -3.90928 0
M  V30 2495 H 236.636 -0.497775 -4.257 0
M  V30 2496 H 240.82 -1.32571 -4.78266 0
M  V30 2497 H 236.076 -2.48971 -5.58411 0
M  V30 2498 H 240.25 -3.31671 -6.12346 0
M  V30 2499 H 237.877 -3.90457 -6.52264 0
M  V30 2500 N 239.452 1.56882 -0.150215 0
M  V30 2501 C 240.362 2.20494 0.801222 0
M  V30 2502 C 241.378 1.19019 1.26927 0
M  V30 2503 O 242.554 1.51607 1.32579 0
M  V30 2504 C 239.619 2.81659 2.02161 0
M  V30 2505 C 238.68 3.9827 1.60249 0
M  V30 2506 C 237.913 4.56508 2.7647 0
M  V30 2507 O 238.136 4.13627 3.92771 0
M  V30 2508 O 237.07 5.46719 2.51757 0
M  V30 2509 H 240.896 3.02315 0.289717 0
M  V30 2510 H 238.481 1.49202 0.0769684 0
M  V30 2511 H 240.363 3.20522 2.73576 0
M  V30 2512 H 239.038 2.02849 2.52258 0
M  V30 2513 H 237.945 3.64117 0.858477 0
M  V30 2514 H 239.278 4.78609 1.14864 0
M  V30 2515 N 240.93 -0.123565 1.57115 0
M  V30 2516 C 241.877 -1.15177 2.00007 0
M  V30 2517 C 242.847 -1.41403 0.871454 0
M  V30 2518 O 244.032 -1.53346 1.13533 0
M  V30 2519 C 241.172 -2.47436 2.40561 0
M  V30 2520 C 240.285 -2.28184 3.66819 0
M  V30 2521 C 239.42 -3.53641 3.96373 0
M  V30 2522 C 238.459 -3.29528 5.15827 0
M  V30 2523 N 237.596 -4.47175 5.41275 0
M  V30 2524 H 242.436 -0.779008 2.87638 0
M  V30 2525 H 239.973 -0.373166 1.42288 0
M  V30 2526 H 241.931 -3.24584 2.62109 0
M  V30 2527 H 240.561 -2.82614 1.55978 0
M  V30 2528 H 239.613 -1.41976 3.52912 0
M  V30 2529 H 240.925 -2.0634 4.5412 0
M  V30 2530 H 240.079 -4.39209 4.18545 0
M  V30 2531 H 238.818 -3.78512 3.07538 0
M  V30 2532 H 237.823 -2.42349 4.93505 0
M  V30 2533 H 239.048 -3.06031 6.06236 0
M  V30 2534 H 236.994 -4.72175 4.55397 0
M  V30 2535 H 236.911 -4.28419 6.22891 0
M  V30 2536 H 238.179 -5.3389 5.67963 0
M  V30 2537 N 242.408 -1.52605 -0.393616 0
M  V30 2538 C 243.371 -1.76415 -1.46323 0
M  V30 2539 C 244.371 -0.634126 -1.47768 0
M  V30 2540 O 245.561 -0.902142 -1.4902 0
M  V30 2541 C 242.693 -1.8607 -2.85641 0
M  V30 2542 H 243.886 -2.71916 -1.26498 0
M  V30 2543 H 241.439 -1.43257 -0.625073 0
M  V30 2544 H 242.174 -0.925378 -3.10817 0
M  V30 2545 H 241.959 -2.68235 -2.85993 0
M  V30 2546 H 243.449 -2.06179 -3.63153 0
M  V30 2547 N 243.887 0.651787 -1.4349 0
M  V30 2548 C 244.85 1.74647 -1.48429 0
M  V30 2549 C 245.85 1.56513 -0.368817 0
M  V30 2550 O 247.04 1.62385 -0.630623 0
M  V30 2551 C 244.172 3.13533 -1.33827 0
M  V30 2552 H 245.365 1.71649 -2.4592 0
M  V30 2553 H 242.918 0.863573 -1.30277 0
M  V30 2554 H 243.653 3.22142 -0.37349 0
M  V30 2555 H 243.438 3.28101 -2.14691 0
M  V30 2556 H 244.928 3.93356 -1.40218 0
M  V30 2557 N 245.365 1.30045 0.890287 0
M  V30 2558 C 246.59 1.21598 1.68014 0
M  V30 2559 C 247.015 -0.218678 1.86825 0
M  V30 2560 O 246.373 -1.15756 1.39536 0
M  V30 2561 C 246.421 1.94434 3.03691 0
M  V30 2562 O 245.525 1.2678 3.92429 0
M  V30 2563 H 244.866 0.420856 0.513592 0
M  V30 2564 H 247.396 1.71775 1.11151 0
M  V30 2565 H 247.406 2.03251 3.5377 0
M  V30 2566 H 246.081 2.98777 2.89318 0
M  V30 2567 H 244.658 1.26282 3.50866 0
M  V30 2568 N 246.843 -1.10192 1.12674 0
M  V30 2569 C 247.775 -2.16418 0.754701 0
M  V30 2570 C 248.788 -1.61309 -0.21986 0
M  V30 2571 O 249.977 -1.785 -0.000826841 0
M  V30 2572 C 247.077 -3.38762 0.096698 0
M  V30 2573 C 246.25 -4.23307 1.10136 0
M  V30 2574 C 245.309 -5.24092 0.470513 0
M  V30 2575 O 244.335 -5.57906 1.12824 0
M  V30 2576 N 245.537 -5.75491 -0.760948 0
M  V30 2577 H 248.302 -2.48943 1.66875 0
M  V30 2578 H 245.863 -1.25834 1.01869 0
M  V30 2579 H 247.855 -4.03291 -0.337384 0
M  V30 2580 H 246.425 -3.04192 -0.720153 0
M  V30 2581 H 245.645 -3.55036 1.71299 0
M  V30 2582 H 246.933 -4.76624 1.78064 0
M  V30 2583 H 246.331 -5.50222 -1.31424 0
M  V30 2584 H 244.888 -6.41792 -1.13781 0
M  V30 2585 N 248.321 -0.919034 -1.28029 0
M  V30 2586 C 249.732 -0.600735 -1.76771 0
M  V30 2587 C 250.083 0.884024 -1.75156 0
M  V30 2588 O 249.208 1.69163 -1.34956 0
M  V30 2589 C 249.803 -1.08372 -3.21 0
M  V30 2590 C 248.362 -0.816248 -3.67443 0
M  V30 2591 C 247.509 -1.24742 -2.47658 0
M  V30 2592 H 250.46 -1.09974 -1.14418 0
M  V30 2593 H 250.481 -0.427512 -3.78091 0
M  V30 2594 H 249.993 -2.16437 -3.22144 0
M  V30 2595 H 248.094 0.250968 -3.71754 0
M  V30 2596 H 248.207 -1.4277 -4.57333 0
M  V30 2597 H 246.571 -0.666083 -2.45836 0
M  V30 2598 H 247.354 -2.33653 -2.51518 0
M  V30 2599 N 249.799 1.42003 -0.683588 0
M  V30 2600 C 251.047 2.01015 -0.209101 0
M  V30 2601 C 251.368 1.54365 1.19149 0
M  V30 2602 O 250.638 0.769083 1.80172 0
M  V30 2603 H 249.218 0.743294 -0.074315 0
M  V30 2604 H 251.88 1.73798 -0.882066 0
M  V30 2605 H 250.976 3.11343 -0.2172 0
M  V30 2606 N 251.277 0.427512 1.51691 0
M  V30 2607 C 252.187 -0.39527 2.31246 0
M  V30 2608 C 253.203 -1.03674 1.39742 0
M  V30 2609 O 254.379 -1.03425 1.72816 0
M  V30 2610 C 251.444 -1.48706 3.13189 0
M  V30 2611 C 250.505 -0.866743 4.20459 0
M  V30 2612 C 249.738 -1.90651 4.98486 0
M  V30 2613 O 249.961 -3.12733 4.77026 0
M  V30 2614 O 248.895 -1.5025 5.82845 0
M  V30 2615 H 252.721 0.253918 3.02637 0
M  V30 2616 H 250.306 0.190274 1.48183 0
M  V30 2617 H 252.188 -2.12047 3.64162 0
M  V30 2618 H 250.863 -2.12051 2.44573 0
M  V30 2619 H 249.77 -0.195544 3.73589 0
M  V30 2620 H 251.103 -0.276934 4.9142 0
M  V30 2621 N 252.755 -1.56801 0.158532 0
M  V30 2622 C 253.685 -2.20347 -0.772609 0
M  V30 2623 C 254.666 -1.15518 -1.24859 0
M  V30 2624 O 255.851 -1.43902 -1.30406 0
M  V30 2625 C 252.981 -2.83417 -2.00729 0
M  V30 2626 C 251.935 -3.94174 -1.66765 0
M  V30 2627 C 251.261 -4.44233 -2.97592 0
M  V30 2628 C 252.561 -5.14392 -0.905447 0
M  V30 2629 H 254.255 -2.98413 -0.242959 0
M  V30 2630 H 251.801 -1.43537 -0.115419 0
M  V30 2631 H 253.754 -3.26543 -2.6636 0
M  V30 2632 H 252.478 -2.02701 -2.56086 0
M  V30 2633 H 251.137 -3.51684 -1.03508 0
M  V30 2634 H 250.785 -3.60325 -3.50963 0
M  V30 2635 H 250.485 -5.18945 -2.75626 0
M  V30 2636 H 252.009 -4.90037 -3.64274 0
M  V30 2637 H 253.423 -5.5429 -1.46408 0
M  V30 2638 H 251.82 -5.9494 -0.7853 0
M  V30 2639 H 252.89 -4.84795 0.100668 0
M  V30 2640 N 254.233 0.115231 -1.57178 0
M  V30 2641 C 255.18 1.14115 -2.00615 0
M  V30 2642 C 256.15 1.40939 -0.878941 0
M  V30 2643 O 257.335 1.52741 -1.14345 0
M  V30 2644 C 254.475 2.46156 -2.4187 0
M  V30 2645 C 253.588 2.26236 -3.68024 0
M  V30 2646 C 252.723 3.51534 -3.98243 0
M  V30 2647 C 251.762 3.26787 -5.17568 0
M  V30 2648 N 250.899 4.44298 -5.43639 0
M  V30 2649 H 255.739 0.763743 -2.88047 0
M  V30 2650 H 253.276 0.365615 -1.42484 0
M  V30 2651 H 255.234 3.23189 -2.63827 0
M  V30 2652 H 253.864 2.81783 -1.57475 0
M  V30 2653 H 252.916 1.40102 -3.5366 0
M  V30 2654 H 254.228 2.03929 -4.55208 0
M  V30 2655 H 253.382 4.36984 -4.20868 0
M  V30 2656 H 252.121 3.76876 -3.09541 0
M  V30 2657 H 251.126 2.39729 -4.94783 0
M  V30 2658 H 252.351 3.02812 -6.0785 0
M  V30 2659 H 250.297 4.69754 -4.57895 0
M  V30 2660 H 250.214 4.25109 -6.25154 0
M  V30 2661 H 251.482 5.3087 -5.70786 0
M  V30 2662 N 255.711 1.52812 0.385517 0
M  V30 2663 C 256.988 1.5861 1.14465 0
M  V30 2664 C 257.368 0.381402 2.07626 0
M  V30 2665 O 256.716 -0.629999 2.19643 0
M  V30 2666 C 256.926 2.92664 1.90128 0
M  V30 2667 C 258.274 3.46526 2.45367 0
M  V30 2668 O 259.298 2.94562 2.0028 0
M  V30 2669 O 258.157 4.37323 3.27736 0
M  V30 2670 H 255.251 0.639855 0.523941 0
M  V30 2671 H 257.797 1.65149 0.390389 0
M  V30 2672 H 256.569 3.71788 1.22022 0
M  V30 2673 H 256.192 2.89527 2.72507 0
M  V30 2674 N 257.189 -0.644168 1.43834 0
M  V30 2675 C 258.435 -1.40431 1.47141 0
M  V30 2676 C 258.79 -1.92153 0.0975577 0
M  V30 2677 O 258.083 -1.69924 -0.885232 0
M  V30 2678 C 258.277 -2.59615 2.45631 0
M  V30 2679 C 258.106 -2.1956 3.92458 0
M  V30 2680 C 256.876 -2.07456 4.60749 0
M  V30 2681 C 259.074 -1.79281 4.8204 0
M  V30 2682 N 257.056 -1.60827 5.92459 0
M  V30 2683 C 258.427 -1.43801 6.03093 0
M  V30 2684 C 260.482 -1.66545 4.6922 0
M  V30 2685 C 259.185 -0.968599 7.12749 0
M  V30 2686 C 261.211 -1.21008 5.78888 0
M  V30 2687 C 260.573 -0.864711 6.99072 0
M  V30 2688 H 256.672 -0.509182 0.593513 0
M  V30 2689 H 259.256 -0.740351 1.80075 0
M  V30 2690 H 257.427 -3.23658 2.1471 0
M  V30 2691 H 259.159 -3.26357 2.39318 0
M  V30 2692 H 255.914 -2.275 4.1538 0
M  V30 2693 H 256.338 -1.39848 6.62398 0
M  V30 2694 H 260.98 -1.91883 3.7675 0
M  V30 2695 H 258.698 -0.702715 8.05039 0
M  V30 2696 H 262.284 -1.11631 5.7099 0
M  V30 2697 H 261.164 -0.517736 7.82489 0
M  V30 2698 N 258.668 -1.30515 -0.883378 0
M  V30 2699 C 259.915 -1.1943 -1.63532 0
M  V30 2700 C 260.243 0.250627 -1.92878 0
M  V30 2701 O 259.498 1.19556 -1.54935 0
M  V30 2702 C 259.797 -1.96994 -2.98209 0
M  V30 2703 C 259.463 -3.466 -2.88408 0
M  V30 2704 C 258.125 -3.87397 -2.85442 0
M  V30 2705 C 260.477 -4.41863 -2.76418 0
M  V30 2706 C 257.805 -5.21745 -2.68327 0
M  V30 2707 C 260.157 -5.7632 -2.60841 0
M  V30 2708 C 258.821 -6.16354 -2.56251 0
M  V30 2709 H 258.091 -0.437025 -0.598406 0
M  V30 2710 H 260.738 -1.61635 -1.02696 0
M  V30 2711 H 259.043 -1.47429 -3.63004 0
M  V30 2712 H 260.74 -1.85808 -3.55354 0
M  V30 2713 H 257.33 -3.14182 -2.91527 0
M  V30 2714 H 261.514 -4.11285 -2.77775 0
M  V30 2715 H 256.77 -5.51853 -2.63189 0
M  V30 2716 H 260.944 -6.49772 -2.50538 0
M  V30 2717 H 258.571 -7.20401 -2.42748 0
M  V30 2718 N 260.146 1.09593 -1.13257 0
M  V30 2719 C 261.392 1.82003 -0.89458 0
M  V30 2720 C 261.725 1.85402 0.577906 0
M  V30 2721 O 261 1.32099 1.42759 0
M  V30 2722 C 261.283 3.28237 -1.48096 0
M  V30 2723 C 261.136 3.3312 -3.02244 0
M  V30 2724 C 262.455 4.24871 -1.14774 0
M  V30 2725 H 259.574 0.66077 -0.326424 0
M  V30 2726 H 262.216 1.28389 -1.40058 0
M  V30 2727 H 260.366 3.74024 -1.05062 0
M  V30 2728 H 262.038 2.95748 -3.54021 0
M  V30 2729 H 260.281 2.72756 -3.37323 0
M  V30 2730 H 260.952 4.3613 -3.38371 0
M  V30 2731 H 263.428 3.87361 -1.51957 0
M  V30 2732 H 262.304 5.25532 -1.58452 0
M  V30 2733 H 262.565 4.42058 -0.0611849 0
M  V30 2734 N 261.624 0.925811 1.2754 0
M  V30 2735 C 262.872 0.564138 1.94067 0
M  V30 2736 C 263.193 -0.897188 1.73134 0
M  V30 2737 O 262.463 -1.63573 1.07799 0
M  V30 2738 H 261.043 0.205645 0.718136 0
M  V30 2739 H 263.705 1.1778 1.55287 0
M  V30 2740 H 262.801 0.76881 3.02483 0
M  V30 2741 N 263.102 -1.41638 0.69111 0
M  V30 2742 C 264.518 -1.55435 0.362224 0
M  V30 2743 C 264.718 -1.66754 -1.13117 0
M  V30 2744 O 263.774 -1.64348 -1.91692 0
M  V30 2745 C 265.087 -2.79588 1.10684 0
M  V30 2746 C 266.635 -2.9338 1.09075 0
M  V30 2747 C 267.11 -4.20414 1.81703 0
M  V30 2748 N 268.601 -4.27362 1.7865 0
M  V30 2749 C 269.336 -5.24507 2.31689 0
M  V30 2750 N 268.832 -6.27708 2.93179 0
M  V30 2751 N 270.625 -5.16416 2.2197 0
M  V30 2752 H 262.776 -1.32536 1.65976 0
M  V30 2753 H 265.039 -0.639115 0.700168 0
M  V30 2754 H 264.745 -2.77419 2.16175 0
M  V30 2755 H 264.619 -3.70973 0.682545 0
M  V30 2756 H 267.006 -2.95067 0.0441238 0
M  V30 2757 H 267.087 -2.0318 1.55407 0
M  V30 2758 H 266.731 -4.19488 2.86343 0
M  V30 2759 H 266.661 -5.09578 1.32808 0
M  V30 2760 H 269.152 -3.53415 1.33815 0
M  V30 2761 H 269.465 -6.98217 3.31229 0
M  V30 2762 H 267.81 -6.28223 2.97255 0
M  V30 2763 H 271.001 -4.34716 1.73607 0
M  V30 2764 H 271.174 -5.91958 2.63609 0
M  V30 2765 N 264.58 -0.43555 -1.51462 0
M  V30 2766 C 265.805 0.132627 -2.06976 0
M  V30 2767 C 266.23 1.35848 -1.30104 0
M  V30 2768 O 265.588 1.78112 -0.338493 0
M  V30 2769 C 265.636 0.43523 -3.57964 0
M  V30 2770 O 264.74 1.52198 -3.83288 0
M  V30 2771 H 264.081 0.00265 -0.663995 0
M  V30 2772 H 266.611 -0.616369 -1.95095 0
M  V30 2773 H 266.621 0.686206 -4.02188 0
M  V30 2774 H 265.296 -0.460739 -4.1334 0
M  V30 2775 H 263.873 1.2611 -3.50928 0
M  V30 2776 N 266.058 1.56714 -0.166846 0
M  V30 2777 C 267.006 2.19056 0.782123 0
M  V30 2778 C 268 1.15328 1.24079 0
M  V30 2779 O 269.206 1.33537 1.20697 0
M  V30 2780 H 265.581 0.70167 0.270486 0
M  V30 2781 H 267.552 2.97494 0.232322 0
M  V30 2782 C 266.301 2.84206 2.00306 0
M  V30 2783 H 265.624 3.63748 1.65914 0
M  V30 2784 H 267.064 3.31302 2.64604 0
M  V30 2785 C 265.523 1.83744 2.82382 0
M  V30 2786 O 266.053 1.32014 3.79388 0
M  V30 2787 N 264.259 1.52601 2.47308 0
M  V30 2788 H 263.806 1.9486 1.68485 0
M  V30 2789 H 263.764 0.856351 3.02513 0
M  V30 2790 N 267.536 -0.106894 1.57237 0
M  V30 2791 C 268.499 -1.11466 2.0027 0
M  V30 2792 C 269.499 -1.33623 0.894519 0
M  V30 2793 O 270.689 -1.29935 1.16028 0
M  V30 2794 C 267.821 -2.46646 2.35327 0
M  V30 2795 H 269.014 -0.744516 2.90512 0
M  V30 2796 H 266.567 -0.351576 1.52295 0
M  V30 2797 H 267.302 -2.88558 1.48003 0
M  V30 2798 H 267.087 -2.31915 3.16161 0
M  V30 2799 H 268.577 -3.19151 2.69318 0
M  V30 2800 N 269.014 -1.53014 -0.377408 0
M  V30 2801 C 269.946 -1.74884 -1.48149 0
M  V30 2802 C 270.959 -0.629433 -1.5014 0
M  V30 2803 O 272.148 -0.905416 -1.53833 0
M  V30 2804 C 269.248 -1.80299 -2.86959 0
M  V30 2805 C 268.421 -3.09776 -3.08801 0
M  V30 2806 C 267.48 -3.06586 -4.27658 0
M  V30 2807 O 266.506 -3.80419 -4.23403 0
M  V30 2808 N 267.708 -2.26578 -5.34455 0
M  V30 2809 H 270.473 -2.70147 -1.29771 0
M  V30 2810 H 268.034 -1.51646 -0.56703 0
M  V30 2811 H 270.026 -1.75657 -3.64591 0
M  V30 2812 H 268.596 -0.92372 -2.98641 0
M  V30 2813 H 267.816 -3.27815 -2.18931 0
M  V30 2814 H 269.104 -3.95366 -3.20255 0
M  V30 2815 H 268.502 -1.66081 -5.40771 0
M  V30 2816 H 267.059 -2.27766 -6.10709 0
M  V30 2817 N 270.492 0.636531 -1.44174 0
M  V30 2818 C 271.74 1.39343 -1.46383 0
M  V30 2819 C 272.061 1.94766 -0.0955715 0
M  V30 2820 O 271.331 1.75452 0.871395 0
M  V30 2821 H 269.911 0.517199 -0.538994 0
M  V30 2822 H 272.573 0.74957 -1.7991 0
M  V30 2823 H 271.669 2.22746 -2.18611 0
M  V30 2824 N 271.97 1.30982 0.876444 0
M  V30 2825 C 273.219 1.19658 1.62373 0
M  V30 2826 C 273.532 -0.245636 1.94052 0
M  V30 2827 O 274.738 -0.48049 2.67214 0
M  V30 2828 C 273.194 2.09433 2.92687 0
M  V30 2829 C 272.802 3.58613 2.68516 0
M  V30 2830 C 274.546 2.06893 3.70669 0
M  V30 2831 C 272.453 4.40416 3.94699 0
M  V30 2832 H 271.383 0.444268 0.609214 0
M  V30 2833 H 274.034 1.55791 0.969605 0
M  V30 2834 H 272.416 1.66191 3.59439 0
M  V30 2835 H 273.59 4.10058 2.10212 0
M  V30 2836 H 271.905 3.63063 2.03898 0
M  V30 2837 H 274.502 2.65258 4.64265 0
M  V30 2838 H 274.845 1.05448 4.02724 0
M  V30 2839 H 275.378 2.48301 3.10792 0
M  V30 2840 H 272.117 5.42591 3.67798 0
M  V30 2841 H 271.637 3.93731 4.52477 0
M  V30 2842 H 273.316 4.52294 4.62644 0
M  V30 2843 N 273.449 -1.08991 1.13837 0
M  V30 2844 C 274.726 -1.77863 0.813876 0
M  V30 2845 C 275.106 -1.99375 -0.693746 0
M  V30 2846 O 274.454 -1.59875 -1.63255 0
M  V30 2847 C 274.664 -3.0986 1.60586 0
M  V30 2848 C 276.012 -3.84493 1.8014 0
M  V30 2849 O 277.036 -3.19624 1.57222 0
M  V30 2850 O 275.895 -5.00957 2.18413 0
M  V30 2851 H 272.989 -0.771589 0.297624 0
M  V30 2852 H 275.535 -1.15507 1.24323 0
M  V30 2853 H 274.307 -2.89715 2.63022 0
M  V30 2854 H 273.93 -3.79942 1.17173 0
M  V30 2855 N 274.927 -0.932562 -1.27047 0
M  V30 2856 C 275.857 -0.452902 -2.29066 0
M  V30 2857 C 276.838 0.489338 -1.62909 0
M  V30 2858 O 278.023 0.393046 -1.90181 0
M  V30 2859 C 275.153 0.290698 -3.46081 0
M  V30 2860 C 274.107 -0.564168 -4.24265 0
M  V30 2861 C 273.433 0.308886 -5.33807 0
M  V30 2862 C 274.733 -1.83112 -4.89149 0
M  V30 2863 H 276.427 -1.30552 -2.69437 0
M  V30 2864 H 273.973 -0.629201 -1.29526 0
M  V30 2865 H 275.926 0.637233 -4.16554 0
M  V30 2866 H 274.65 1.17738 -3.0464 0
M  V30 2867 H 273.309 -0.893477 -3.55545 0
M  V30 2868 H 272.957 1.19467 -4.88607 0
M  V30 2869 H 272.657 -0.259633 -5.87026 0
M  V30 2870 H 274.181 0.650884 -6.07121 0
M  V30 2871 H 275.595 -1.55236 -5.51883 0
M  V30 2872 H 273.992 -2.34353 -5.52448 0
M  V30 2873 H 275.062 -2.54772 -4.12576 0
M  V30 2874 N 276.405 1.4127 -0.698611 0
M  V30 2875 C 277.353 2.32588 -0.023855 0
M  V30 2876 C 278.347 1.51128 0.765292 0
M  V30 2877 O 279.553 1.67043 0.670571 0
M  V30 2878 H 275.928 0.751918 0.0110871 0
M  V30 2879 H 277.899 2.87167 -0.811031 0
M  V30 2880 C 276.648 3.35947 0.896369 0
M  V30 2881 H 275.971 3.98684 0.298548 0
M  V30 2882 H 277.411 4.02376 1.33676 0
M  V30 2883 C 275.87 2.70076 2.01396 0
M  V30 2884 O 276.4 2.55093 3.10307 0
M  V30 2885 N 274.606 2.28724 1.79259 0
M  V30 2886 H 274.153 2.4111 0.906841 0
M  V30 2887 H 274.111 1.84986 2.54219 0
M  V30 2888 N 277.883 0.443576 1.51229 0
M  V30 2889 C 279.299 0.0962001 1.5931 0
M  V30 2890 C 279.499 -1.39501 1.45402 0
M  V30 2891 O 278.555 -2.16557 1.29843 0
M  V30 2892 C 279.868 0.621875 2.94199 0
M  V30 2893 C 281.416 0.582865 3.07525 0
M  V30 2894 C 281.891 1.08562 4.44948 0
M  V30 2895 N 283.382 1.04387 4.51284 0
M  V30 2896 C 284.117 1.40368 5.55954 0
M  V30 2897 N 283.613 1.83664 6.68011 0
M  V30 2898 N 285.406 1.32145 5.46346 0
M  V30 2899 H 277.557 1.41376 1.58514 0
M  V30 2900 H 279.82 0.582965 0.747567 0
M  V30 2901 H 279.526 1.66546 3.09767 0
M  V30 2902 H 279.4 0.0502125 3.77167 0
M  V30 2903 H 281.787 -0.451749 2.91622 0
M  V30 2904 H 281.868 1.191 2.26382 0
M  V30 2905 H 281.512 2.11873 4.61598 0
M  V30 2906 H 281.442 0.453956 5.2464 0
M  V30 2907 H 283.933 0.725986 3.70861 0
M  V30 2908 H 284.246 2.0934 7.43906 0
M  V30 2909 H 282.591 1.87596 6.69203 0
M  V30 2910 H 285.782 0.981808 4.57688 0
M  V30 2911 H 285.955 1.60514 6.27805 0
M  V30 2912 N 279.361 -1.56624 0.175154 0
M  V30 2913 C 280.309 -2.19468 -0.770495 0
M  V30 2914 C 281.303 -1.15985 -1.23466 0
M  V30 2915 O 282.509 -1.34176 -1.19987 0
M  V30 2916 H 278.884 -0.703095 -0.266761 0
M  V30 2917 H 280.855 -2.97613 -0.216542 0
M  V30 2918 C 279.604 -2.85264 -1.98796 0
M  V30 2919 H 278.927 -3.64623 -1.63983 0
M  V30 2920 H 280.367 -3.327 -2.62843 0
M  V30 2921 C 278.826 -1.85239 -2.81404 0
M  V30 2922 O 279.356 -1.34024 -3.78682 0
M  V30 2923 N 277.562 -1.53911 -2.46495 0
M  V30 2924 H 277.109 -1.95751 -1.67449 0
M  V30 2925 H 277.067 -0.872382 -3.02054 0
M  V30 2926 N 280.839 0.0985539 -1.57292 0
M  V30 2927 C 282.086 0.802678 -1.85912 0
M  V30 2928 C 282.414 1.78901 -0.763186 0
M  V30 2929 O 281.669 1.94178 0.243559 0
M  V30 2930 C 281.968 1.56927 -3.21105 0
M  V30 2931 C 281.634 0.725376 -4.45027 0
M  V30 2932 C 280.296 0.492726 -4.78671 0
M  V30 2933 C 282.648 0.138493 -5.21016 0
M  V30 2934 C 279.976 -0.336727 -5.85733 0
M  V30 2935 C 282.328 -0.678264 -6.28953 0
M  V30 2936 C 280.992 -0.921039 -6.61115 0
M  V30 2937 H 280.262 0.293721 -0.680301 0
M  V30 2938 H 282.909 0.0642841 -1.91392 0
M  V30 2939 H 281.214 2.37914 -3.11294 0
M  V30 2940 H 282.911 2.11841 -3.40477 0
M  V30 2941 H 279.501 0.916815 -4.18679 0
M  V30 2942 H 283.685 0.305404 -4.95359 0
M  V30 2943 H 278.941 -0.533836 -6.09065 0
M  V30 2944 H 283.115 -1.1399 -6.87007 0
M  V30 2945 H 280.742 -1.56556 -7.43905 0
M  V30 2946 N 282.317 1.53212 0.369288 0
M  V30 2947 C 283.728 1.60943 0.946276 0
M  V30 2948 C 284.079 0.47452 1.90375 0
M  V30 2949 O 283.204 -0.399597 2.12679 0
M  V30 2950 C 283.799 2.91715 1.72302 0
M  V30 2951 C 282.358 3.01792 2.24941 0
M  V30 2952 C 281.505 2.56211 1.06072 0
M  V30 2953 H 284.456 1.58007 0.148198 0
M  V30 2954 H 284.477 2.79309 2.58393 0
M  V30 2955 H 283.989 3.74295 1.0259 0
M  V30 2956 H 282.09 2.23791 2.97906 0
M  V30 2957 H 282.203 4.06803 2.53077 0
M  V30 2958 H 280.567 2.10998 1.4266 0
M  V30 2959 H 281.35 3.41206 0.378639 0
M  V30 2960 N 283.795 -0.628877 1.44509 0
M  V30 2961 C 285.072 -1.38733 1.37886 0
M  V30 2962 C 285.452 -2.11065 0.0387008 0
M  V30 2963 O 284.8 -2.06476 -0.97878 0
M  V30 2964 C 285.01 -2.35188 2.57852 0
M  V30 2965 C 286.358 -2.9845 3.02014 0
M  V30 2966 O 287.382 -2.45513 2.58073 0
M  V30 2967 O 286.241 -3.94487 3.78209 0
M  V30 2968 H 283.335 -0.621015 0.54614 0
M  V30 2969 H 285.881 -0.653744 1.56602 0
M  V30 2970 H 284.653 -1.80855 3.46998 0
M  V30 2971 H 284.276 -3.1596 2.4136 0
M  V30 2972 N 285.273 -1.31445 -0.869486 0
M  V30 2973 C 286.203 -1.21727 -1.99261 0
M  V30 2974 C 287.184 -0.104359 -1.6978 0
M  V30 2975 O 288.369 -0.289038 -1.92037 0
M  V30 2976 C 285.499 -0.924317 -3.34774 0
M  V30 2977 C 284.453 -1.99685 -3.78563 0
M  V30 2978 C 283.779 -1.55658 -5.11541 0
M  V30 2979 C 285.079 -3.41003 -3.95619 0
M  V30 2980 H 286.773 -2.1569 -2.07649 0
M  V30 2981 H 284.319 -1.03839 -0.997675 0
M  V30 2982 H 286.272 -0.842934 -4.12883 0
M  V30 2983 H 284.996 0.0509793 -3.2656 0
M  V30 2984 H 283.655 -2.06813 -3.02694 0
M  V30 2985 H 283.303 -0.569132 -4.9977 0
M  V30 2986 H 283.003 -2.27409 -5.41811 0
M  V30 2987 H 284.527 -1.48928 -5.92159 0
M  V30 2988 H 285.941 -3.36547 -4.64122 0
M  V30 2989 H 284.338 -4.10975 -4.37286 0
M  V30 2990 H 285.408 -3.81754 -2.98985 0
M  V30 2991 N 286.751 1.08385 -1.14413 0
M  V30 2992 C 288.028 1.77429 -0.823297 0
M  V30 2993 C 288.408 1.9974 0.683163 0
M  V30 2994 O 287.756 1.60739 1.62405 0
M  V30 2995 C 287.966 3.09004 -1.62227 0
M  V30 2996 C 289.314 3.83532 -1.82177 0
M  V30 2997 O 290.338 3.18786 -1.58915 0
M  V30 2998 O 289.197 4.99792 -2.21067 0
M  V30 2999 H 286.291 0.769999 -0.301712 0
M  V30 3000 H 288.837 1.14846 -1.24934 0
M  V30 3001 H 287.609 2.88316 -2.64555 0
M  V30 3002 H 287.232 3.79316 -1.19187 0
M  V30 3003 N 288.23 0.939286 1.26551 0
M  V30 3004 C 289.646 0.641304 1.46149 0
M  V30 3005 C 289.846 -0.805964 1.84679 0
M  V30 3006 O 288.902 -1.58278 1.96734 0
M  V30 3007 C 290.215 1.6011 2.54529 0
M  V30 3008 C 291.763 1.6106 2.68382 0
M  V30 3009 C 292.238 2.55765 3.79932 0
M  V30 3010 N 293.729 2.5404 3.87322 0
M  V30 3011 C 294.464 3.24004 4.73085 0
M  V30 3012 N 293.96 4.03388 5.63249 0
M  V30 3013 N 295.753 3.12965 4.66914 0
M  V30 3014 H 287.904 1.87478 0.998285 0
M  V30 3015 H 290.167 0.805559 0.499779 0
M  V30 3016 H 289.873 2.63412 2.33039 0
M  V30 3017 H 289.747 1.35171 3.52149 0
M  V30 3018 H 292.134 0.584835 2.89247 0
M  V30 3019 H 292.215 1.90053 1.71212 0
M  V30 3020 H 291.859 3.58458 3.5982 0
M  V30 3021 H 291.789 2.24063 4.76554 0
M  V30 3022 H 294.28 1.96396 3.22858 0
M  V30 3023 H 294.593 4.5373 6.25579 0
M  V30 3024 H 292.938 4.07489 5.63008 0
M  V30 3025 H 296.129 2.50432 3.95476 0
M  V30 3026 H 296.302 3.67759 5.33533 0
M  V30 3027 N 289.708 -1.40897 0.706093 0
M  V30 3028 C 290.957 -2.00284 0.238574 0
M  V30 3029 C 291.27 -1.56604 -1.17194 0
M  V30 3030 O 292.476 -2.08624 -1.73748 0
M  V30 3031 C 290.932 -3.57934 0.375623 0
M  V30 3032 C 290.54 -4.10591 1.79217 0
M  V30 3033 C 292.284 -4.24488 -0.0315857 0
M  V30 3034 C 290.191 -5.60712 1.88032 0
M  V30 3035 H 289.121 -0.749144 0.0854398 0
M  V30 3036 H 291.772 -1.61251 0.875813 0
M  V30 3037 H 290.154 -3.94622 -0.330042 0
M  V30 3038 H 291.328 -3.85301 2.52745 0
M  V30 3039 H 289.643 -3.56601 2.15 0
M  V30 3040 H 292.24 -5.34698 0.0136842 0
M  V30 3041 H 292.583 -4.02261 -1.072 0
M  V30 3042 H 293.116 -3.92873 0.624181 0
M  V30 3043 H 289.855 -5.87781 2.90161 0
M  V30 3044 H 289.375 -5.87896 1.18903 0
M  V30 3045 H 291.054 -6.25658 1.64805 0
M  V30 3046 N 291.186 -0.45159 -1.50991 0
M  V30 3047 C 292.432 0.110237 -2.025 0
M  V30 3048 C 292.765 1.41109 -1.33424 0
M  V30 3049 O 292.04 1.89135 -0.453659 0
M  V30 3050 C 292.323 0.314271 -3.58726 0
M  V30 3051 C 292.176 -1.00623 -4.38401 0
M  V30 3052 C 293.495 1.07767 -4.26702 0
M  V30 3053 H 290.614 0.0385897 -0.735989 0
M  V30 3054 H 293.256 -0.593374 -1.80497 0
M  V30 3055 H 291.406 0.913601 -3.77605 0
M  V30 3056 H 293.078 -1.64064 -4.31139 0
M  V30 3057 H 291.321 -1.6075 -4.02917 0
M  V30 3058 H 291.992 -0.817341 -5.45915 0
M  V30 3059 H 294.468 0.56986 -4.12179 0
M  V30 3060 H 293.344 1.18921 -5.35863 0
M  V30 3061 H 293.605 2.10939 -3.88532 0
M  V30 3062 N 292.664 1.56529 -0.183458 0
M  V30 3063 C 293.894 2.01331 0.463612 0
M  V30 3064 C 294.302 1.06278 1.5653 0
M  V30 3065 O 293.645 0.0577976 1.83609 0
M  V30 3066 C 293.707 3.42547 1.09096 0
M  V30 3067 C 293.371 4.56817 0.129442 0
M  V30 3068 C 294.368 5.15734 -0.656807 0
M  V30 3069 C 292.053 5.02295 0.02174 0
M  V30 3070 C 294.047 6.1857 -1.53784 0
M  V30 3071 C 291.734 6.04978 -0.862864 0
M  V30 3072 C 292.732 6.62988 -1.64123 0
M  V30 3073 O 292.42 7.63677 -2.51103 0
M  V30 3074 H 292.152 0.664917 0.121907 0
M  V30 3075 H 294.706 2.034 -0.285954 0
M  V30 3076 H 292.936 3.37428 1.88889 0
M  V30 3077 H 294.625 3.71228 1.64148 0
M  V30 3078 H 295.391 4.81473 -0.583839 0
M  V30 3079 H 291.27 4.56847 0.617392 0
M  V30 3080 H 294.814 6.63777 -2.14583 0
M  V30 3081 H 290.711 6.38663 -0.93699 0
M  V30 3082 H 291.479 7.81049 -2.44753 0
M  V30 3083 N 294.142 -0.090211 1.57342 0
M  V30 3084 C 295.388 -0.793982 1.86611 0
M  V30 3085 C 295.721 -1.78142 0.773252 0
M  V30 3086 O 294.996 -1.93271 -0.218304 0
M  V30 3087 C 295.279 -1.51839 3.26523 0
M  V30 3088 C 295.132 -0.548609 4.46442 0
M  V30 3089 C 296.451 -2.46779 3.64401 0
M  V30 3090 H 293.57 -0.287186 0.678744 0
M  V30 3091 H 296.212 -0.0575076 1.89913 0
M  V30 3092 H 294.362 -2.14617 3.23839 0
M  V30 3093 H 296.034 0.0725513 4.61243 0
M  V30 3094 H 294.277 0.137614 4.33582 0
M  V30 3095 H 294.948 -1.09271 5.41076 0
M  V30 3096 H 297.424 -1.94089 3.68061 0
M  V30 3097 H 296.3 -2.94479 4.63221 0
M  V30 3098 H 296.561 -3.30758 2.93346 0
M  V30 3099 N 295.62 -1.53406 -0.361157 0
M  V30 3100 C 296.568 -1.80832 -1.46296 0
M  V30 3101 C 297.562 -0.677699 -1.55253 0
M  V30 3102 O 298.768 -0.860723 -1.58087 0
M  V30 3103 H 295.143 -0.572627 -0.487445 0
M  V30 3104 H 297.114 -2.73045 -1.20371 0
M  V30 3105 C 295.863 -2.01907 -2.8307 0
M  V30 3106 H 295.186 -2.88349 -2.76938 0
M  V30 3107 H 296.626 -2.25072 -3.59331 0
M  V30 3108 C 295.085 -0.799449 -3.27277 0
M  V30 3109 O 295.615 0.00971761 -4.01699 0
M  V30 3110 N 293.821 -0.621637 -2.83873 0
M  V30 3111 H 293.368 -1.28126 -2.23476 0
M  V30 3112 H 293.326 0.19298 -3.13807 0
M  V30 3113 N 297.098 0.621204 -1.44841 0
M  V30 3114 C 298.008 1.7612 -1.5498 0
M  V30 3115 C 299.024 1.68477 -0.434927 0
M  V30 3116 O 300.2 1.89076 -0.693693 0
M  V30 3117 C 297.265 3.1254 -1.50065 0
M  V30 3118 C 296.326 3.31741 -2.72482 0
M  V30 3119 C 295.559 4.61653 -2.67792 0
M  V30 3120 O 295.782 5.431 -1.74352 0
M  V30 3121 O 294.716 4.83271 -3.58794 0
M  V30 3122 H 298.542 1.70518 -2.51311 0
M  V30 3123 H 296.127 0.783643 -1.27198 0
M  V30 3124 H 298.009 3.93844 -1.49882 0
M  V30 3125 H 296.684 3.18663 -0.568806 0
M  V30 3126 H 295.591 2.50077 -2.7823 0
M  V30 3127 H 296.924 3.30486 -3.64746 0
M  V30 3128 N 298.576 1.31904 0.862503 0
M  V30 3129 C 299.523 1.20182 1.9704 0
M  V30 3130 C 300.493 0.0858247 1.65878 0
M  V30 3131 O 301.678 0.26 1.8902 0
M  V30 3132 C 298.818 0.922797 3.32533 0
M  V30 3133 C 297.931 2.12284 3.76244 0
M  V30 3134 C 297.066 1.77996 5.00491 0
M  V30 3135 C 296.105 2.94366 5.36671 0
M  V30 3136 N 295.242 2.60223 6.52095 0
M  V30 3137 H 300.082 2.14951 2.06398 0
M  V30 3138 H 297.619 1.06917 1.01031 0
M  V30 3139 H 299.577 0.741548 4.10557 0
M  V30 3140 H 298.207 0.0119227 3.22798 0
M  V30 3141 H 297.259 2.41461 2.9394 0
M  V30 3142 H 298.571 2.99357 3.98982 0
M  V30 3143 H 297.725 1.56377 5.862 0
M  V30 3144 H 296.464 0.881252 4.79672 0
M  V30 3145 H 295.469 3.16625 4.49476 0
M  V30 3146 H 296.694 3.84957 5.59451 0
M  V30 3147 H 294.64 1.72884 6.32809 0
M  V30 3148 H 294.557 3.40827 6.74814 0
M  V30 3149 H 295.825 2.42016 7.40978 0
M  V30 3150 N 300.054 -1.07777 1.14986 0
M  V30 3151 C 300.964 -2.18404 0.856546 0
M  V30 3152 C 301.98 -1.73211 -0.165485 0
M  V30 3153 O 303.156 -2.01399 0.00755219 0
M  V30 3154 C 300.221 -3.44977 0.34526 0
M  V30 3155 C 299.282 -4.0476 1.43065 0
M  V30 3156 C 298.515 -5.25291 0.943663 0
M  V30 3157 O 298.738 -5.70004 -0.212426 0
M  V30 3158 O 297.672 -5.76638 1.72547 0
M  V30 3159 H 301.498 -2.45978 1.78125 0
M  V30 3160 H 299.083 -1.17033 0.928631 0
M  V30 3161 H 300.965 -4.21348 0.0663671 0
M  V30 3162 H 299.64 -3.18965 -0.551631 0
M  V30 3163 H 298.547 -3.29949 1.76309 0
M  V30 3164 H 299.88 -4.35035 2.30229 0
M  V30 3165 N 301.532 -0.945985 -1.26051 0
M  V30 3166 C 302.78 -0.594941 -1.93145 0
M  V30 3167 C 303.101 0.86953 -1.7454 0
M  V30 3168 O 302.371 1.61838 -1.10387 0
M  V30 3169 H 300.951 -0.217044 -0.714773 0
M  V30 3170 H 303.613 -1.20235 -1.53393 0
M  V30 3171 H 302.709 -0.816835 -3.01221 0
M  V30 3172 N 303.011 1.40521 -0.713556 0
M  V30 3173 C 304.259 2.00527 -0.251692 0
M  V30 3174 C 304.58 1.56857 1.15848 0
M  V30 3175 O 303.85 0.807127 1.785 0
M  V30 3176 H 302.43 0.741551 -0.0900646 0
M  V30 3177 H 305.092 1.71887 -0.918733 0
M  V30 3178 H 304.188 3.10813 -0.283192 0
M  V30 3179 N 304.489 0.459591 1.5075 0
M  V30 3180 C 305.9 0.00171547 1.867 0
M  V30 3181 C 306.251 -1.39934 1.37525 0
M  V30 3182 O 305.376 -2.03523 0.735349 0
M  V30 3183 C 305.971 -0.00366298 3.388 0
M  V30 3184 C 304.53 -0.406026 3.74204 0
M  V30 3185 C 303.677 0.38673 2.7459 0
M  V30 3186 H 306.628 0.674413 1.43657 0
M  V30 3187 H 306.649 -0.808371 3.71814 0
M  V30 3188 H 306.161 1.01617 3.74561 0
M  V30 3189 H 304.262 -1.43063 3.4404 0
M  V30 3190 H 304.375 -0.115362 4.78961 0
M  V30 3191 H 302.739 -0.158019 2.54209 0
M  V30 3192 H 303.522 1.40585 3.13194 0
M  V30 3193 N 305.967 -1.56429 0.191757 0
M  V30 3194 C 306.915 -2.20273 -0.747174 0
M  V30 3195 C 307.909 -1.17288 -1.22229 0
M  V30 3196 O 309.115 -1.35441 -1.18557 0
M  V30 3197 H 305.49 -0.705885 -0.259289 0
M  V30 3198 H 307.461 -2.97826 -0.184963 0
M  V30 3199 C 306.21 -2.87356 -1.95759 0
M  V30 3200 H 305.533 -3.66341 -1.60106 0
M  V30 3201 H 306.973 -3.3547 -2.59299 0
M  V30 3202 C 305.432 -1.88213 -2.79423 0
M  V30 3203 O 305.962 -1.38033 -3.7724 0
M  V30 3204 N 304.168 -1.56516 -2.44849 0
M  V30 3205 H 303.715 -1.97516 -1.65364 0
M  V30 3206 H 303.673 -0.904369 -3.01112 0
M  V30 3207 N 307.445 0.0818655 -1.57387 0
M  V30 3208 C 308.393 1.11712 -2.04018 0
M  V30 3209 C 309.387 1.40683 -0.94364 0
M  V30 3210 O 310.593 1.40209 -1.12878 0
M  V30 3211 H 306.968 0.377542 -0.650358 0
M  V30 3212 H 308.939 0.697614 -2.90131 0
M  V30 3213 C 307.688 2.42537 -2.49141 0
M  V30 3214 H 307.011 2.21092 -3.33104 0
M  V30 3215 H 308.451 3.13446 -2.85531 0
M  V30 3216 C 306.91 3.0778 -1.37014 0
M  V30 3217 O 307.44 3.95436 -0.706621 0
M  V30 3218 N 305.646 2.68242 -1.11779 0
M  V30 3219 H 305.193 1.97052 -1.65917 0
M  V30 3220 H 305.151 3.1222 -0.369594 0
M  V30 3221 N 308.923 1.53595 0.353017 0
M  V30 3222 C 309.873 1.77299 1.43349 0
M  V30 3223 C 310.857 0.627884 1.48143 0
M  V30 3224 O 312.049 0.88697 1.53173 0
M  V30 3225 C 309.178 1.97757 2.80619 0
M  V30 3226 C 308.264 3.18305 2.80254 0
M  V30 3227 N 308.655 4.39967 2.49526 0
M  V30 3228 C 306.953 3.19283 3.11407 0
M  V30 3229 C 307.654 5.21772 2.57156 0
M  V30 3230 N 306.63 4.58269 2.92388 0
M  V30 3231 H 310.432 2.68963 1.18474 0
M  V30 3232 H 307.946 1.52391 0.561306 0
M  V30 3233 H 309.943 2.1287 3.58458 0
M  V30 3234 H 308.603 1.07329 3.06448 0
M  V30 3235 H 309.614 4.67482 2.22893 0
M  V30 3236 H 306.291 2.3879 3.4247 0
M  V30 3237 H 307.681 6.2885 2.36638 0
M  V30 3238 N 310.401 -0.613514 1.45168 0
M  V30 3239 C 311.331 -1.7354 1.56225 0
M  V30 3240 C 312.312 -1.64981 0.41414 0
M  V30 3241 O 313.497 -1.83472 0.636526 0
M  V30 3242 C 310.627 -3.12128 1.52295 0
M  V30 3243 C 309.581 -3.35491 2.65762 0
M  V30 3244 C 308.907 -4.74291 2.46885 0
M  V30 3245 C 310.207 -3.26325 4.0781 0
M  V30 3246 H 311.901 -1.64543 2.50132 0
M  V30 3247 H 309.447 -0.790185 1.20383 0
M  V30 3248 H 311.4 -3.90404 1.58628 0
M  V30 3249 H 310.124 -3.2195 0.549139 0
M  V30 3250 H 308.783 -2.59603 2.58847 0
M  V30 3251 H 308.431 -4.80839 1.47657 0
M  V30 3252 H 308.131 -4.9088 3.22972 0
M  V30 3253 H 309.655 -5.54775 2.55063 0
M  V30 3254 H 311.069 -3.94483 4.16 0
M  V30 3255 H 309.466 -3.54445 4.8424 0
M  V30 3256 H 310.536 -2.23855 4.30136 0
M  V30 3257 N 311.879 -1.3236 -0.855495 0
M  V30 3258 C 312.809 -1.23833 -1.97958 0
M  V30 3259 C 313.79 -0.122361 -1.69659 0
M  V30 3260 O 314.975 -0.30939 -1.9172 0
M  V30 3261 C 312.105 -0.959772 -3.33775 0
M  V30 3262 C 311.059 -2.03689 -3.76424 0
M  V30 3263 C 310.385 -1.61075 -5.09862 0
M  V30 3264 C 311.685 -3.4518 -3.9198 0
M  V30 3265 H 313.379 -2.1788 -2.0535 0
M  V30 3266 H 310.925 -1.04891 -0.986605 0
M  V30 3267 H 312.878 -0.886678 -4.11966 0
M  V30 3268 H 311.602 0.0163404 -3.26596 0
M  V30 3269 H 310.261 -2.10012 -3.00484 0
M  V30 3270 H 309.909 -0.622107 -4.99138 0
M  V30 3271 H 309.609 -2.33143 -5.39368 0
M  V30 3272 H 311.133 -1.55201 -5.90546 0
M  V30 3273 H 312.547 -3.4145 -4.60526 0
M  V30 3274 H 310.944 -4.1559 -4.32903 0
M  V30 3275 H 312.014 -3.84903 -2.94919 0
M  V30 3276 N 313.357 1.07166 -1.15556 0
M  V30 3277 C 314.304 2.14417 -0.854055 0
M  V30 3278 C 315.274 1.64965 0.193806 0
M  V30 3279 O 316.459 1.90703 0.0609443 0
M  V30 3280 C 313.599 3.43304 -0.351574 0
M  V30 3281 C 312.712 4.06537 -1.46123 0
M  V30 3282 C 311.847 5.23266 -0.914677 0
M  V30 3283 C 310.886 5.78464 -2.00114 0
M  V30 3284 N 310.023 6.86521 -1.47083 0
M  V30 3285 H 314.863 2.39548 -1.77259 0
M  V30 3286 H 312.4 1.17543 -0.884425 0
M  V30 3287 H 314.358 4.17179 -0.0419409 0
M  V30 3288 H 312.988 3.18419 0.530037 0
M  V30 3289 H 312.04 3.30297 -1.88701 0
M  V30 3290 H 313.352 4.43567 -2.28144 0
M  V30 3291 H 312.506 6.04131 -0.557698 0
M  V30 3292 H 311.245 4.87658 -0.0636583 0
M  V30 3293 H 310.25 4.96243 -2.36692 0
M  V30 3294 H 311.475 6.16126 -2.85597 0
M  V30 3295 H 309.421 6.52849 -0.642198 0
M  V30 3296 H 309.338 7.22446 -2.22729 0
M  V30 3297 H 310.606 7.71087 -1.14215 0
M  V30 3298 N 314.835 0.952656 1.25548 0
M  V30 3299 C 315.783 0.462354 2.27958 0
M  V30 3300 C 316.777 -0.46634 1.62855 0
M  V30 3301 O 317.983 -0.343287 1.76696 0
M  V30 3302 H 314.358 0.13101 0.7405 0
M  V30 3303 H 316.329 1.33839 2.66702 0
M  V30 3304 C 315.078 -0.24628 3.46827 0
M  V30 3305 H 314.401 0.459192 3.97154 0
M  V30 3306 H 315.841 -0.553393 4.20373 0
M  V30 3307 C 314.3 -1.4681 3.0323 0
M  V30 3308 O 314.83 -2.56591 3.09069 0
M  V30 3309 N 313.036 -1.32874 2.58443 0
M  V30 3310 H 312.583 -0.435536 2.53891 0
M  V30 3311 H 312.541 -2.14742 2.29637 0
M  V30 3312 N 316.313 -1.40141 0.720998 0
M  V30 3313 C 317.246 -2.2819 0.020916 0
M  V30 3314 C 318.224 -1.43633 -0.762129 0
M  V30 3315 O 319.408 -1.7304 -0.747633 0
M  V30 3316 C 316.535 -3.24281 -0.977715 0
M  V30 3317 C 315.581 -4.25548 -0.284836 0
M  V30 3318 S 316.414 -5.26247 0.991169 0
M  V30 3319 C 317.57 -6.259 -0.0052214 0
M  V30 3320 H 317.803 -2.87218 0.767649 0
M  V30 3321 H 315.336 -1.45656 0.512233 0
M  V30 3322 H 317.294 -3.80167 -1.54865 0
M  V30 3323 H 315.955 -2.643 -1.69719 0
M  V30 3324 H 315.148 -4.93154 -1.03996 0
M  V30 3325 H 314.75 -3.73389 0.213684 0
M  V30 3326 H 317.042 -6.72143 -0.850279 0
M  V30 3327 H 317.985 -7.05224 0.637599 0
M  V30 3328 H 318.393 -5.63277 -0.371366 0
M  V30 3329 N 317.792 -0.46758 -1.50504 0
M  V30 3330 C 318.739 0.328413 -2.28452 0
M  V30 3331 C 319.709 0.990313 -1.33349 0
M  V30 3332 O 320.894 1.00343 -1.62284 0
M  V30 3333 C 318.034 1.40648 -3.15138 0
M  V30 3334 C 317.147 0.759709 -4.25267 0
M  V30 3335 C 316.282 1.81537 -4.99217 0
M  V30 3336 C 315.321 1.14866 -6.01226 0
M  V30 3337 N 314.458 2.14702 -6.68467 0
M  V30 3338 H 319.298 -0.342603 -2.96024 0
M  V30 3339 H 316.835 -0.180801 -1.45985 0
M  V30 3340 H 318.793 2.04315 -3.63746 0
M  V30 3341 H 317.423 2.04671 -2.49619 0
M  V30 3342 H 316.475 0.0105671 -3.80399 0
M  V30 3343 H 317.787 0.233243 -4.98254 0
M  V30 3344 H 316.941 2.52793 -5.51526 0
M  V30 3345 H 315.68 2.37564 -4.25928 0
M  V30 3346 H 314.685 0.42171 -5.4818 0
M  V30 3347 H 315.91 0.595334 -6.76485 0
M  V30 3348 H 313.856 2.69752 -5.97972 0
M  V30 3349 H 313.773 1.6703 -7.37317 0
M  V30 3350 H 315.041 2.85348 -7.25394 0
M  V30 3351 N 319.27 1.56325 -0.20005 0
M  V30 3352 C 320.217 2.1932 0.718833 0
M  V30 3353 C 321.187 1.14198 1.20615 0
M  V30 3354 O 322.372 1.42469 1.26914 0
M  V30 3355 C 319.512 2.86041 1.93066 0
M  V30 3356 C 318.625 4.05702 1.48425 0
M  V30 3357 C 317.76 4.60266 2.65196 0
M  V30 3358 C 316.799 5.72273 2.17185 0
M  V30 3359 N 315.936 6.21221 3.27152 0
M  V30 3360 H 320.776 2.97486 0.17489 0
M  V30 3361 H 318.313 1.46911 0.0745794 0
M  V30 3362 H 320.271 3.22897 2.64184 0
M  V30 3363 H 318.901 2.1043 2.44783 0
M  V30 3364 H 317.953 3.74475 0.668755 0
M  V30 3365 H 319.265 4.86699 1.09204 0
M  V30 3366 H 318.419 4.99453 3.4443 0
M  V30 3367 H 317.158 3.78386 3.07693 0
M  V30 3368 H 316.163 5.3261 1.36407 0
M  V30 3369 H 317.388 6.55974 1.75713 0
M  V30 3370 H 315.334 5.42263 3.69171 0
M  V30 3371 H 315.251 6.97284 2.92116 0
M  V30 3372 H 316.519 6.65063 4.06585 0
M  V30 3373 N 320.748 -0.0735177 1.57428 0
M  V30 3374 C 321.997 -0.771809 1.86349 0
M  V30 3375 C 322.31 -1.78828 0.792452 0
M  V30 3376 O 323.516 -2.53602 0.96945 0
M  V30 3377 C 321.972 -1.42358 3.30548 0
M  V30 3378 C 321.58 -0.445761 4.45777 0
M  V30 3379 C 323.324 -2.10434 3.6867 0
M  V30 3380 C 321.231 -1.10335 5.81016 0
M  V30 3381 H 320.161 -0.291999 0.695164 0
M  V30 3382 H 322.812 -0.0250749 1.83483 0
M  V30 3383 H 321.194 -2.21852 3.28021 0
M  V30 3384 H 322.368 0.319239 4.59693 0
M  V30 3385 H 320.683 0.130457 4.16196 0
M  V30 3386 H 323.28 -2.60405 4.67004 0
M  V30 3387 H 323.623 -2.90298 2.98383 0
M  V30 3388 H 324.156 -1.37773 3.7318 0
M  V30 3389 H 320.895 -0.345061 6.54591 0
M  V30 3390 H 320.415 -1.83925 5.70904 0
M  V30 3391 H 322.094 -1.62367 6.26295 0
M  V30 3392 N 322.226 -1.5378 -0.344866 0
M  V30 3393 C 323.472 -1.71216 -1.08687 0
M  V30 3394 C 323.805 -0.473281 -1.88345 0
M  V30 3395 O 323.08 0.52968 -1.87149 0
M  V30 3396 C 323.363 -2.97486 -2.02914 0
M  V30 3397 C 323.216 -4.31579 -1.26727 0
M  V30 3398 C 324.535 -3.19422 -3.0275 0
M  V30 3399 H 321.654 -0.62301 -0.393735 0
M  V30 3400 H 324.296 -1.8645 -0.365563 0
M  V30 3401 H 322.446 -2.84629 -2.64421 0
M  V30 3402 H 324.118 -4.56284 -0.67845 0
M  V30 3403 H 322.361 -4.30049 -0.569273 0
M  V30 3404 H 323.032 -5.16106 -1.95803 0
M  V30 3405 H 325.508 -3.316 -2.51357 0
M  V30 3406 H 324.384 -4.09169 -3.65885 0
M  V30 3407 H 324.645 -2.35656 -3.74057 0
M  V30 3408 N 323.704 0.605807 -1.45491 0
M  V30 3409 C 324.981 1.36522 -1.40075 0
M  V30 3410 C 325.361 2.10976 -0.0722744 0
M  V30 3411 O 324.709 2.08007 0.945808 0
M  V30 3412 C 324.919 2.31056 -2.61561 0
M  V30 3413 C 326.267 2.93608 -3.06724 0
M  V30 3414 O 327.291 2.41376 -2.61946 0
M  V30 3415 O 326.15 3.88421 -3.84437 0
M  V30 3416 H 323.244 0.612248 -0.555951 0
M  V30 3417 H 325.79 0.628747 -1.57623 0
M  V30 3418 H 324.562 1.75311 -3.49831 0
M  V30 3419 H 324.185 3.12081 -2.46356 0
M  V30 3420 N 325.182 1.32811 0.848464 0
M  V30 3421 C 326.114 1.18095 1.96433 0
M  V30 3422 C 327.127 0.114354 1.62398 0
M  V30 3423 O 328.316 0.363892 1.74751 0
M  V30 3424 C 325.416 0.786798 3.2964 0
M  V30 3425 C 324.589 1.943 3.91875 0
M  V30 3426 C 323.648 1.53138 5.03423 0
M  V30 3427 O 322.674 2.24432 5.23086 0
M  V30 3428 N 323.876 0.430915 5.78898 0
M  V30 3429 H 326.641 2.14218 2.09597 0
M  V30 3430 H 324.202 1.2543 1.02367 0
M  V30 3431 H 326.194 0.493715 4.01677 0
M  V30 3432 H 324.764 -0.0834541 3.12489 0
M  V30 3433 H 323.984 2.40224 3.12547 0
M  V30 3434 H 325.272 2.71689 4.30189 0
M  V30 3435 H 324.67 -0.162333 5.65467 0
M  V30 3436 H 323.227 0.197466 6.51501 0
M  V30 3437 N 326.66 -1.06551 1.16123 0
M  V30 3438 C 327.608 -2.16063 0.861371 0
M  V30 3439 C 328.602 -1.6856 -0.168517 0
M  V30 3440 O 329.808 -1.79986 -0.0227579 0
M  V30 3441 H 326.183 -0.705278 0.260934 0
M  V30 3442 H 328.154 -2.38567 1.79244 0
M  V30 3443 C 326.903 -3.45661 0.376018 0
M  V30 3444 H 326.226 -3.82604 1.15992 0
M  V30 3445 H 327.666 -4.23504 0.204951 0
M  V30 3446 C 326.125 -3.24546 -0.903954 0
M  V30 3447 O 326.655 -3.49865 -1.97377 0
M  V30 3448 N 324.861 -2.77992 -0.846679 0
M  V30 3449 H 324.408 -2.57589 0.0241017 0
M  V30 3450 H 324.366 -2.64244 -1.70359 0
M  V30 3451 N 328.138 -0.959301 -1.25041 0
M  V30 3452 C 329.366 -0.633949 -1.96948 0
M  V30 3453 C 329.781 0.794916 -1.7125 0
M  V30 3454 O 329.138 1.53231 -0.991287 0
M  V30 3455 C 329.189 -0.888805 -3.50403 0
M  V30 3456 O 328.91 -2.26149 -3.75218 0
M  V30 3457 C 330.411 -0.576482 -4.39536 0
M  V30 3458 H 327.631 -0.237263 -0.627652 0
M  V30 3459 H 330.175 -1.28495 -1.59089 0
M  V30 3460 H 328.33 -0.284145 -3.86357 0
M  V30 3461 H 328.744 -2.33514 -4.6965 0
M  V30 3462 H 330.218 -0.805314 -5.46094 0
M  V30 3463 H 330.695 0.489075 -4.36468 0
M  V30 3464 H 331.301 -1.16067 -4.09156 0
M  V30 3465 N 329.616 1.39756 -0.72842 0
M  V30 3466 C 330.563 2.30647 -0.0841519 0
M  V30 3467 C 331.533 1.48869 0.7367 0
M  V30 3468 O 332.718 1.77574 0.698015 0
M  V30 3469 C 329.858 3.35165 0.822091 0
M  V30 3470 C 328.971 4.31999 -0.0106663 0
M  V30 3471 C 328.106 5.23585 0.896241 0
M  V30 3472 C 327.145 6.12072 0.0583381 0
M  V30 3473 N 326.282 6.96035 0.920818 0
M  V30 3474 H 331.122 2.85173 -0.864891 0
M  V30 3475 H 328.659 1.40422 -0.438179 0
M  V30 3476 H 330.617 3.94345 1.36189 0
M  V30 3477 H 329.247 2.8211 1.56888 0
M  V30 3478 H 328.299 3.74492 -0.66781 0
M  V30 3479 H 329.611 4.9443 -0.658825 0
M  V30 3480 H 328.765 5.87759 1.50412 0
M  V30 3481 H 327.504 4.61459 1.57819 0
M  V30 3482 H 326.509 5.46916 -0.562389 0
M  V30 3483 H 327.734 6.76261 -0.6203 0
M  V30 3484 H 325.68 6.36485 1.58818 0
M  V30 3485 H 325.597 7.55284 0.32899 0
M  V30 3486 H 326.865 7.64646 1.51447 0
M  V30 3487 N 331.094 0.475555 1.50254 0
M  V30 3488 C 332.024 -0.30611 2.31485 0
M  V30 3489 C 333.005 -0.986228 1.38591 0
M  V30 3490 O 334.19 -0.982541 1.67511 0
M  V30 3491 C 331.32 -1.38588 3.1845 0
M  V30 3492 C 330.274 -0.827115 4.19932 0
M  V30 3493 C 329.6 -2.00551 4.95665 0
M  V30 3494 C 330.9 0.16463 5.2204 0
M  V30 3495 H 332.594 0.371866 2.97082 0
M  V30 3496 H 330.14 0.180282 1.42867 0
M  V30 3497 H 332.093 -1.94023 3.74076 0
M  V30 3498 H 330.817 -2.09269 2.50747 0
M  V30 3499 H 329.476 -0.294702 3.65414 0
M  V30 3500 H 329.124 -2.6994 4.2443 0
M  V30 3501 H 328.824 -1.63784 5.64313 0
M  V30 3502 H 330.348 -2.56468 5.54127 0
M  V30 3503 H 331.762 -0.300699 5.72511 0
M  V30 3504 H 330.159 0.446813 5.98434 0
M  V30 3505 H 331.229 1.08905 4.72512 0
M  V30 3506 N 332.573 -1.56217 0.208337 0
M  V30 3507 C 333.536 -2.18455 -0.693557 0
M  V30 3508 C 334.536 -1.14268 -1.13135 0
M  V30 3509 O 335.726 -1.39577 -1.0423 0
M  V30 3510 C 332.858 -2.79727 -1.94848 0
M  V30 3511 H 334.051 -2.99519 -0.15114 0
M  V30 3512 H 331.604 -1.56245 -0.041287 0
M  V30 3513 H 332.339 -2.02497 -2.53309 0
M  V30 3514 H 332.124 -3.56009 -1.64316 0
M  V30 3515 H 333.614 -3.27475 -2.59133 0
M  V30 3516 N 334.051 0.0651679 -1.57465 0
M  V30 3517 C 335.462 0.616213 -1.76238 0
M  V30 3518 C 335.813 1.7756 -0.834689 0
M  V30 3519 O 334.938 2.1639 -0.0204156 0
M  V30 3520 C 335.533 1.12462 -3.1959 0
M  V30 3521 C 334.092 1.62147 -3.39684 0
M  V30 3522 C 333.239 0.543739 -2.71917 0
M  V30 3523 H 336.19 -0.161022 -1.57881 0
M  V30 3524 H 336.211 1.99324 -3.24114 0
M  V30 3525 H 335.723 0.280592 -3.87084 0
M  V30 3526 H 333.824 2.48854 -2.77313 0
M  V30 3527 H 333.937 1.69385 -4.48158 0
M  V30 3528 H 332.301 0.990352 -2.34657 0
M  V30 3529 H 333.084 -0.290216 -3.42071 0
M  V30 3530 N 335.529 1.53961 0.336706 0
M  V30 3531 C 336.439 1.85432 1.43708 0
M  V30 3532 C 337.455 0.745053 1.57242 0
M  V30 3533 O 338.631 1.03804 1.72588 0
M  V30 3534 C 335.696 2.06349 2.78605 0
M  V30 3535 C 334.757 3.30191 2.74358 0
M  V30 3536 C 333.99 3.50101 4.02822 0
M  V30 3537 O 334.213 2.7371 5.00439 0
M  V30 3538 O 333.147 4.43547 4.06878 0
M  V30 3539 H 336.973 2.78975 1.20028 0
M  V30 3540 H 334.558 1.39701 0.52952 0
M  V30 3541 H 336.44 2.21513 3.58483 0
M  V30 3542 H 335.115 1.15995 3.02203 0
M  V30 3543 H 334.022 3.20425 1.93078 0
M  V30 3544 H 335.355 4.2056 2.55715 0
M  V30 3545 N 337.007 -0.598083 1.45811 0
M  V30 3546 C 338.235 -1.38322 1.53866 0
M  V30 3547 C 338.65 -1.87992 0.174479 0
M  V30 3548 O 338.007 -1.62756 -0.825627 0
M  V30 3549 C 338.058 -2.58125 2.53089 0
M  V30 3550 O 337.779 -2.10516 3.84206 0
M  V30 3551 C 339.28 -3.50869 2.70935 0
M  V30 3552 H 336.5 -0.423093 0.520801 0
M  V30 3553 H 339.044 -0.728527 1.91083 0
M  V30 3554 H 337.199 -3.19615 2.18917 0
M  V30 3555 H 337.613 -2.88425 4.38077 0
M  V30 3556 H 339.087 -4.31451 3.44317 0
M  V30 3557 H 339.564 -4.01822 1.77301 0
M  V30 3558 H 340.17 -2.95225 3.06141 0
M  V30 3559 N 338.485 -1.33259 -0.841409 0
M  V30 3560 C 339.432 -1.23302 -1.95103 0
M  V30 3561 C 340.402 -0.112204 -1.65721 0
M  V30 3562 O 341.587 -0.290038 -1.88583 0
M  V30 3563 C 338.727 -0.975583 -3.31023 0
M  V30 3564 C 337.84 -2.18243 -3.72819 0
M  V30 3565 C 336.975 -1.85936 -4.97595 0
M  V30 3566 C 336.014 -3.02866 -5.3192 0
M  V30 3567 N 335.151 -2.70565 -6.47873 0
M  V30 3568 H 339.991 -2.18207 -2.02952 0
M  V30 3569 H 337.528 -1.0851 -0.993173 0
M  V30 3570 H 339.486 -0.80677 -4.09325 0
M  V30 3571 H 338.116 -0.0632755 -3.22738 0
M  V30 3572 H 337.168 -2.46107 -2.90061 0
M  V30 3573 H 338.48 -3.05666 -3.94169 0
M  V30 3574 H 337.634 -1.65684 -5.83638 0
M  V30 3575 H 336.373 -0.957452 -4.78209 0
M  V30 3576 H 335.378 -3.23736 -4.44382 0
M  V30 3577 H 336.603 -3.93809 -5.53255 0
M  V30 3578 H 334.549 -1.8293 -6.29978 0
M  V30 3579 H 334.466 -3.51519 -6.69306 0
M  V30 3580 H 335.734 -2.53774 -7.37034 0
M  V30 3581 N 339.963 1.05934 -1.16686 0
M  V30 3582 C 340.926 2.11669 -0.879144 0
M  V30 3583 C 341.926 1.60294 0.127445 0
M  V30 3584 O 343.116 1.7389 -0.103865 0
M  V30 3585 C 340.248 3.39438 -0.315425 0
M  V30 3586 H 341.441 2.38626 -1.81653 0
M  V30 3587 H 338.994 1.22058 -0.976299 0
M  V30 3588 H 339.729 3.18132 0.629468 0
M  V30 3589 H 339.514 3.78034 -1.04079 0
M  V30 3590 H 341.004 4.17391 -0.132189 0
M  V30 3591 N 341.441 0.965919 1.2453 0
M  V30 3592 C 342.687 0.62776 1.92839 0
M  V30 3593 C 343.02 -0.834694 1.75347 0
M  V30 3594 O 342.295 -1.60031 1.10546 0
M  V30 3595 C 342.578 1.00109 3.45905 0
M  V30 3596 C 342.431 2.52011 3.72573 0
M  V30 3597 C 343.75 0.53435 4.36844 0
M  V30 3598 H 340.869 0.229537 0.700344 0
M  V30 3599 H 343.511 1.2046 1.46933 0
M  V30 3600 H 341.661 0.510238 3.85135 0
M  V30 3601 H 343.333 3.08559 3.42912 0
M  V30 3602 H 341.576 2.95287 3.17786 0
M  V30 3603 H 342.247 2.73183 4.79661 0
M  V30 3604 H 344.723 0.955565 4.04979 0
M  V30 3605 H 343.599 0.824152 5.42678 0
M  V30 3606 H 343.86 -0.565589 4.38467 0
M  V30 3607 N 342.919 -1.39368 0.735821 0
M  V30 3608 C 344.168 -1.99733 0.281004 0
M  V30 3609 C 344.481 -1.59055 -1.13846 0
M  V30 3610 O 345.687 -2.12262 -1.69284 0
M  V30 3611 C 344.143 -3.57057 0.451462 0
M  V30 3612 C 343.751 -4.06697 1.87886 0
M  V30 3613 C 345.495 -4.2446 0.0584616 0
M  V30 3614 C 343.402 -5.56598 1.99883 0
M  V30 3615 H 342.332 -0.747163 0.101311 0
M  V30 3616 H 344.983 -1.59357 0.909819 0
M  V30 3617 H 343.365 -3.95234 -0.246263 0
M  V30 3618 H 344.539 -3.79853 2.60861 0
M  V30 3619 H 342.854 -3.5196 2.22515 0
M  V30 3620 H 345.451 -5.34549 0.127099 0
M  V30 3621 H 345.794 -4.04444 -0.986433 0
M  V30 3622 H 346.327 -3.9146 0.707374 0
M  V30 3623 H 343.066 -5.81494 3.02564 0
M  V30 3624 H 342.586 -5.85242 1.31346 0
M  V30 3625 H 344.265 -6.22022 1.78039 0
M  V30 3626 N 344.397 -0.483516 -1.5 0
M  V30 3627 C 345.347 0.32306 -2.257 0
M  V30 3628 C 346.331 0.950755 -1.29805 0
M  V30 3629 O 347.523 0.861247 -1.54634 0
M  V30 3630 C 344.652 1.39724 -3.13579 0
M  V30 3631 C 343.738 0.776663 -4.16928 0
M  V30 3632 N 344.129 -0.1104 -5.0568 0
M  V30 3633 C 342.427 1.03922 -4.33724 0
M  V30 3634 C 343.128 -0.46387 -5.79848 0
M  V30 3635 N 342.104 0.163987 -5.43353 0
M  V30 3636 H 345.906 -0.360086 -2.91686 0
M  V30 3637 H 343.42 -0.298456 -1.59634 0
M  V30 3638 H 345.417 1.98837 -3.66428 0
M  V30 3639 H 344.077 2.08225 -2.49143 0
M  V30 3640 H 345.088 -0.480069 -5.1567 0
M  V30 3641 H 341.765 1.71829 -3.80501 0
M  V30 3642 H 343.155 -1.18854 -6.61304 0
M  V30 3643 N 345.875 1.56104 -0.216619 0
M  V30 3644 C 347.121 1.99219 0.410301 0
M  V30 3645 C 347.476 1.10169 1.57735 0
M  V30 3646 O 346.769 0.150598 1.91007 0
M  V30 3647 C 346.963 3.45923 0.898464 0
M  V30 3648 C 346.792 4.49163 -0.219748 0
M  V30 3649 C 345.562 5.00642 -0.684516 0
M  V30 3650 C 347.76 5.03751 -1.03629 0
M  V30 3651 N 345.742 5.87579 -1.7783 0
M  V30 3652 C 347.113 5.87566 -1.97904 0
M  V30 3653 C 349.168 4.86128 -1.07629 0
M  V30 3654 C 347.871 6.5564 -2.95851 0
M  V30 3655 C 349.897 5.54958 -2.04392 0
M  V30 3656 C 349.259 6.38536 -2.97407 0
M  V30 3657 H 345.358 0.773206 0.11695 0
M  V30 3658 H 347.942 1.9193 -0.327258 0
M  V30 3659 H 346.113 3.53669 1.6054 0
M  V30 3660 H 347.845 3.75963 1.49779 0
M  V30 3661 H 344.6 4.72807 -0.27399 0
M  V30 3662 H 345.024 6.3575 -2.32705 0
M  V30 3663 H 349.666 4.21168 -0.371099 0
M  V30 3664 H 347.384 7.19785 -3.67335 0
M  V30 3665 H 350.97 5.43289 -2.08154 0
M  V30 3666 H 349.85 6.90858 -3.71059 0
M  V30 3667 N 347.353 -0.0568162 1.57498 0
M  V30 3668 C 348.602 -0.752001 1.87157 0
M  V30 3669 C 348.915 -1.77978 0.811375 0
M  V30 3670 O 350.121 -2.52559 0.996293 0
M  V30 3671 C 348.577 -1.38844 3.3204 0
M  V30 3672 C 348.185 -0.398456 4.46225 0
M  V30 3673 C 349.929 -2.06512 3.70882 0
M  V30 3674 C 347.836 -1.04166 5.82154 0
M  V30 3675 H 346.766 -0.28461 0.698222 0
M  V30 3676 H 349.417 -0.00561272 1.83499 0
M  V30 3677 H 347.799 -2.1836 3.30356 0
M  V30 3678 H 348.973 0.367977 4.59328 0
M  V30 3679 H 347.288 0.174592 4.16034 0
M  V30 3680 H 349.885 -2.55437 4.6974 0
M  V30 3681 H 350.228 -2.87117 3.01445 0
M  V30 3682 H 350.761 -1.33808 3.7462 0
M  V30 3683 H 347.5 -0.275614 6.5492 0
M  V30 3684 H 347.02 -1.7786 5.72823 0
M  V30 3685 H 348.699 -1.55715 6.27982 0
M  V30 3686 N 348.832 -1.54138 -0.328536 0
M  V30 3687 C 349.765 -1.78014 -1.4278 0
M  V30 3688 C 350.743 -0.629889 -1.49904 0
M  V30 3689 O 351.927 -0.866763 -1.6739 0
M  V30 3690 C 349.054 -1.89225 -2.80912 0
M  V30 3691 C 348.1 -3.11483 -2.91343 0
M  V30 3692 S 348.933 -4.70201 -2.56263 0
M  V30 3693 C 350.089 -4.84312 -3.96476 0
M  V30 3694 H 350.322 -2.70974 -1.22313 0
M  V30 3695 H 347.855 -1.45197 -0.525084 0
M  V30 3696 H 349.813 -1.9637 -3.60485 0
M  V30 3697 H 348.474 -0.972518 -2.98665 0
M  V30 3698 H 347.667 -3.16046 -3.92595 0
M  V30 3699 H 347.269 -3.02642 -2.19736 0
M  V30 3700 H 349.561 -4.66643 -4.91173 0
M  V30 3701 H 350.504 -5.86411 -3.96898 0
M  V30 3702 H 350.912 -4.12652 -3.85199 0
M  V30 3703 N 350.31 0.590341 -1.46126 0
M  V30 3704 C 351.587 1.35029 -1.41515 0
M  V30 3705 C 351.967 2.10888 -0.0946472 0
M  V30 3706 O 351.315 2.08998 0.923693 0
M  V30 3707 C 351.525 2.28269 -2.63997 0
M  V30 3708 C 352.873 2.90338 -3.09821 0
M  V30 3709 O 353.897 2.38585 -2.64492 0
M  V30 3710 O 352.756 3.84321 -3.88535 0
M  V30 3711 H 349.85 0.606317 -0.562413 0
M  V30 3712 H 352.396 0.611994 -1.58281 0
M  V30 3713 H 351.168 1.71591 -3.51671 0
M  V30 3714 H 350.791 3.0945 -2.49652 0
M  V30 3715 N 351.788 1.33704 0.83433 0
M  V30 3716 C 353.037 1.24763 1.58484 0
M  V30 3717 C 353.35 -0.183775 1.94735 0
M  V30 3718 O 354.556 -0.395234 2.68608 0
M  V30 3719 C 353.012 2.18638 2.85876 0
M  V30 3720 C 352.62 3.66974 2.56971 0
M  V30 3721 C 354.364 2.18581 3.63899 0
M  V30 3722 C 352.271 4.5275 3.80488 0
M  V30 3723 H 351.201 0.463425 0.594772 0
M  V30 3724 H 353.852 1.58797 0.919551 0
M  V30 3725 H 352.234 1.77542 3.5397 0
M  V30 3726 H 353.408 4.16538 1.9706 0
M  V30 3727 H 351.723 3.69366 1.92244 0
M  V30 3728 H 354.32 2.79894 4.55591 0
M  V30 3729 H 354.663 1.18207 3.99165 0
M  V30 3730 H 355.196 2.58062 3.02735 0
M  V30 3731 H 351.935 5.54017 3.5035 0
M  V30 3732 H 351.455 4.07927 4.39722 0
M  V30 3733 H 353.134 4.66784 4.4802 0
M  V30 3734 N 353.266 -1.05314 1.17247 0
M  V30 3735 C 354.677 -1.59753 0.96623 0
M  V30 3736 C 355.028 -1.9005 -0.487378 0
M  V30 3737 O 354.153 -1.68126 -1.36245 0
M  V30 3738 C 354.748 -2.90249 1.74759 0
M  V30 3739 C 353.307 -3.41352 1.58606 0
M  V30 3740 C 352.454 -2.15103 1.75002 0
M  V30 3741 H 355.405 -0.881406 1.31973 0
M  V30 3742 H 355.426 -3.60097 1.22925 0
M  V30 3743 H 354.938 -2.68166 2.8055 0
M  V30 3744 H 353.039 -3.68474 0.552985 0
M  V30 3745 H 353.152 -4.16019 2.37624 0
M  V30 3746 H 351.516 -2.25804 1.17833 0
M  V30 3747 H 352.299 -1.95491 2.82202 0
M  V30 3748 N 354.744 -0.972509 -1.24016 0
M  V30 3749 C 355.991 -0.637034 -1.92219 0
M  V30 3750 C 356.319 0.828418 -1.75976 0
M  V30 3751 O 355.574 1.61206 -1.10955 0
M  V30 3752 C 355.873 -0.963694 -3.44162 0
M  V30 3753 C 355.539 -2.41807 -3.80579 0
M  V30 3754 C 354.201 -2.81556 -3.9023 0
M  V30 3755 C 356.553 -3.36172 -3.98293 0
M  V30 3756 C 353.881 -4.14702 -4.15017 0
M  V30 3757 C 356.233 -4.68952 -4.24578 0
M  V30 3758 C 354.897 -5.08472 -4.32449 0
M  V30 3759 H 354.167 -0.233107 -0.703379 0
M  V30 3760 H 356.814 -1.2249 -1.47202 0
M  V30 3761 H 355.119 -0.29365 -3.90698 0
M  V30 3762 H 356.816 -0.682449 -3.9515 0
M  V30 3763 H 353.406 -2.09988 -3.73635 0
M  V30 3764 H 357.59 -3.06644 -3.90234 0
M  V30 3765 H 352.846 -4.4494 -4.19331 0
M  V30 3766 H 357.02 -5.42037 -4.37229 0
M  V30 3767 H 354.647 -6.11665 -4.51409 0
M  V30 3768 N 356.222 1.38976 -0.743202 0
M  V30 3769 C 357.468 2.0064 -0.295189 0
M  V30 3770 C 357.801 1.5885 1.11716 0
M  V30 3771 O 357.076 0.821181 1.76315 0
M  V30 3772 C 357.359 3.578 -0.406318 0
M  V30 3773 C 357.212 4.09586 -1.85903 0
M  V30 3774 C 358.531 4.39616 0.206439 0
M  V30 3775 H 355.65 0.728935 -0.108733 0
M  V30 3776 H 358.292 1.65067 -0.940897 0
M  V30 3777 H 356.442 3.88235 0.143419 0
M  V30 3778 H 358.114 3.89837 -2.46627 0
M  V30 3779 H 356.357 3.6284 -2.3776 0
M  V30 3780 H 357.028 5.18708 -1.888 0
M  V30 3781 H 359.504 4.15273 -0.262283 0
M  V30 3782 H 358.38 5.48812 0.0983819 0
M  V30 3783 H 358.641 4.22754 1.2935 0
M  V30 3784 N 357.7 0.491464 1.49741 0
M  V30 3785 C 358.63 -0.28154 2.31796 0
M  V30 3786 C 359.611 -0.971473 1.3963 0
M  V30 3787 O 360.796 -0.964719 1.68543 0
M  V30 3788 C 357.926 -1.35203 3.19902 0
M  V30 3789 C 356.88 -0.782529 4.20786 0
M  V30 3790 C 356.206 -1.95283 4.97764 0
M  V30 3791 C 357.506 0.21999 5.21837 0
M  V30 3792 H 359.2 0.403355 2.96671 0
M  V30 3793 H 356.746 0.195425 1.42668 0
M  V30 3794 H 358.699 -1.90045 3.76113 0
M  V30 3795 H 357.423 -2.06598 2.52953 0
M  V30 3796 H 356.082 -0.255928 3.65706 0
M  V30 3797 H 355.73 -2.65423 4.2727 0
M  V30 3798 H 355.43 -1.57789 5.66018 0
M  V30 3799 H 356.954 -2.50577 5.56816 0
M  V30 3800 H 358.368 -0.23996 5.72798 0
M  V30 3801 H 356.765 0.51026 5.97927 0
M  V30 3802 H 357.835 1.13911 4.7133 0
M  V30 3803 N 359.178 -1.55987 0.224894 0
M  V30 3804 C 360.403 -2.03232 -0.41369 0
M  V30 3805 C 360.828 -1.10359 -1.52323 0
M  V30 3806 O 360.186 -0.092395 -1.81064 0
M  V30 3807 C 360.234 -3.48682 -0.919405 0
M  V30 3808 O 359.338 -3.58947 -2.03054 0
M  V30 3809 H 358.679 -0.657428 -0.0931903 0
M  V30 3810 H 361.209 -2.01679 0.34451 0
M  V30 3811 H 361.219 -3.8907 -1.22835 0
M  V30 3812 H 359.894 -4.15761 -0.107339 0
M  V30 3813 H 358.471 -3.30448 -1.72796 0
M  V30 3814 N 360.656 0.0484629 -1.57525 0
M  V30 3815 C 361.619 1.03956 -2.04269 0
M  V30 3816 C 362.619 1.30211 -0.943496 0
M  V30 3817 O 363.809 1.25539 -1.20771 0
M  V30 3818 C 360.941 2.37742 -2.44319 0
M  V30 3819 H 362.134 0.636182 -2.93075 0
M  V30 3820 H 359.687 0.294811 -1.53494 0
M  V30 3821 H 360.422 2.82866 -1.5861 0
M  V30 3822 H 360.207 2.20021 -3.24551 0
M  V30 3823 H 361.697 3.08936 -2.80978 0
M  V30 3824 N 362.134 1.5431 0.320358 0
M  V30 3825 C 363.082 1.84647 1.4145 0
M  V30 3826 C 364.076 0.718624 1.53402 0
M  V30 3827 O 365.282 0.902335 1.5575 0
M  V30 3828 H 361.657 0.585349 0.472091 0
M  V30 3829 H 363.628 2.7614 1.13089 0
M  V30 3830 C 362.377 2.09341 2.77617 0
M  V30 3831 H 361.7 2.9559 2.69196 0
M  V30 3832 H 363.14 2.3452 3.53237 0
M  V30 3833 C 361.599 0.885939 3.25043 0
M  V30 3834 O 362.129 0.0967891 4.01583 0
M  V30 3835 N 360.335 0.696682 2.82125 0
M  V30 3836 H 359.882 1.34006 2.2 0
M  V30 3837 H 359.84 -0.109712 3.14209 0
M  V30 3838 N 363.613 -0.582584 1.46437 0
M  V30 3839 C 364.543 -1.70187 1.59871 0
M  V30 3840 C 365.524 -1.64066 0.449042 0
M  V30 3841 O 366.709 -1.82081 0.6753 0
M  V30 3842 C 363.839 -3.08827 1.58881 0
M  V30 3843 C 362.793 -3.29779 2.72819 0
M  V30 3844 C 362.119 -4.68947 2.5689 0
M  V30 3845 C 363.419 -3.17601 4.1464 0
M  V30 3846 H 365.113 -1.592 2.53566 0
M  V30 3847 H 362.659 -0.764472 1.22032 0
M  V30 3848 H 364.612 -3.86951 1.66873 0
M  V30 3849 H 363.336 -3.20713 0.617306 0
M  V30 3850 H 361.995 -2.54054 2.64296 0
M  V30 3851 H 361.643 -4.77599 1.57823 0
M  V30 3852 H 361.343 -4.83919 3.33312 0
M  V30 3853 H 362.867 -5.4924 2.66773 0
M  V30 3854 H 364.281 -3.8557 4.24274 0
M  V30 3855 H 362.678 -3.44094 4.9165 0
M  V30 3856 H 363.748 -2.14681 4.34788 0
M  V30 3857 N 365.091 -1.34144 -0.827227 0
M  V30 3858 C 366.041 -1.21923 -1.92663 0
M  V30 3859 C 367.025 -0.119294 -1.60457 0
M  V30 3860 O 368.217 -0.348539 -1.73534 0
M  V30 3861 C 365.346 -0.972492 -3.29238 0
M  V30 3862 C 364.432 -2.1154 -3.67576 0
M  V30 3863 N 364.823 -3.36627 -3.77512 0
M  V30 3864 C 363.121 -2.02468 -3.97395 0
M  V30 3865 C 363.822 -4.11658 -4.1099 0
M  V30 3866 N 362.798 -3.40207 -4.23981 0
M  V30 3867 H 366.6 -2.16721 -1.98517 0
M  V30 3868 H 364.114 -1.2632 -1.02064 0
M  V30 3869 H 366.111 -0.865847 -4.0781 0
M  V30 3870 H 364.771 -0.0331509 -3.24683 0
M  V30 3871 H 365.782 -3.71234 -3.61118 0
M  V30 3872 H 362.459 -1.16265 -4.00985 0
M  V30 3873 H 363.849 -5.19657 -4.25918 0
M  V30 3874 N 366.569 1.04691 -1.17803 0
M  V30 3875 C 367.817 1.7743 -0.967617 0
M  V30 3876 C 368.138 1.88359 0.504574 0
M  V30 3877 O 367.408 1.40402 1.36617 0
M  V30 3878 H 365.988 0.657242 -0.355024 0
M  V30 3879 H 368.65 1.2638 -1.48371 0
M  V30 3880 H 367.746 2.78924 -1.40027 0
M  V30 3881 N 368.047 0.979072 1.23499 0
M  V30 3882 C 369.295 0.645941 1.91499 0
M  V30 3883 C 369.616 -0.822948 1.76784 0
M  V30 3884 O 368.886 -1.58854 1.14639 0
M  V30 3885 H 367.466 0.235919 0.708767 0
M  V30 3886 H 370.128 1.2426 1.50152 0
M  V30 3887 H 369.224 0.896411 2.9895 0
M  V30 3888 N 369.525 -1.3858 0.750561 0
M  V30 3889 C 370.802 -1.94231 0.231009 0
M  V30 3890 C 371.182 -1.68611 -1.27018 0
M  V30 3891 O 370.53 -1.02296 -2.04323 0
M  V30 3892 C 370.74 -3.44123 0.581428 0
M  V30 3893 C 372.088 -4.2116 0.539389 0
M  V30 3894 O 373.112 -3.52391 0.519541 0
M  V30 3895 O 371.971 -5.43749 0.54765 0
M  V30 3896 H 369.065 -0.825639 0.0474263 0
M  V30 3897 H 371.611 -1.4799 0.830478 0
M  V30 3898 H 370.383 -3.56267 1.61833 0
M  V30 3899 H 370.006 -3.97573 -0.0462047 0
M  V30 3900 N 371.003 -0.499398 -1.49478 0
M  V30 3901 C 371.933 0.269244 -2.31943 0
M  V30 3902 C 372.914 0.964054 -1.40143 0
M  V30 3903 O 374.099 0.955767 -1.69052 0
M  V30 3904 C 371.229 1.33504 -3.20615 0
M  V30 3905 C 370.183 0.760202 -4.21195 0
M  V30 3906 C 369.509 1.9264 -4.98792 0
M  V30 3907 C 370.809 -0.247661 -5.21712 0
M  V30 3908 H 372.503 -0.419082 -2.96452 0
M  V30 3909 H 370.049 -0.202988 -1.42562 0
M  V30 3910 H 372.002 1.88048 -3.77115 0
M  V30 3911 H 370.726 2.05253 -2.54045 0
M  V30 3912 H 369.385 0.23653 -3.65836 0
M  V30 3913 H 369.033 2.63154 -4.28671 0
M  V30 3914 H 368.733 1.54785 -5.66847 0
M  V30 3915 H 370.257 2.4762 -5.58137 0
M  V30 3916 H 371.671 0.209579 -5.72917 0
M  V30 3917 H 370.068 -0.541962 -5.97648 0
M  V30 3918 H 371.138 -1.16409 -4.7072 0
M  V30 3919 N 372.481 1.55866 -0.233164 0
M  V30 3920 C 373.727 1.98897 0.395959 0
M  V30 3921 C 374.06 1.12091 1.58585 0
M  V30 3922 O 373.335 0.181182 1.93654 0
M  V30 3923 C 373.618 3.50658 0.819224 0
M  V30 3924 C 373.471 4.48233 -0.375109 0
M  V30 3925 C 374.79 4.07135 1.67121 0
M  V30 3926 H 371.909 0.723102 0.142451 0
M  V30 3927 H 374.551 1.87082 -0.331725 0
M  V30 3928 H 372.701 3.60857 1.43925 0
M  V30 3929 H 374.373 4.50031 -1.01341 0
M  V30 3930 H 372.616 4.21624 -1.02058 0
M  V30 3931 H 373.287 5.51988 -0.0358328 0
M  V30 3932 H 375.763 3.99952 1.14795 0
M  V30 3933 H 374.639 5.13615 1.93625 0
M  V30 3934 H 374.9 3.54736 2.63846 0
M  V30 3935 N 373.959 -0.0401083 1.57549 0
M  V30 3936 C 374.922 -1.02871 2.04817 0
M  V30 3937 C 375.922 -1.29708 0.950388 0
M  V30 3938 O 377.112 -1.24897 1.21435 0
M  V30 3939 C 374.244 -2.36443 2.45576 0
M  V30 3940 H 375.437 -0.620631 2.93408 0
M  V30 3941 H 372.99 -0.286667 1.53649 0
M  V30 3942 H 373.725 -2.82021 1.60108 0
M  V30 3943 H 373.51 -2.18296 3.25713 0
M  V30 3944 H 375 -3.07441 2.82612 0
M  V30 3945 N 375.437 -1.54477 -0.31217 0
M  V30 3946 C 376.385 -1.85395 -1.40469 0
M  V30 3947 C 377.379 -0.726749 -1.53019 0
M  V30 3948 O 378.585 -0.910582 -1.55269 0
M  V30 3949 H 374.96 -0.587845 -0.46898 0
M  V30 3950 H 376.931 -2.76736 -1.11623 0
M  V30 3951 C 375.68 -2.10811 -2.76503 0
M  V30 3952 H 375.003 -2.97014 -2.67625 0
M  V30 3953 H 376.443 -2.3639 -3.51988 0
M  V30 3954 C 374.902 -0.903165 -3.24568 0
M  V30 3955 O 375.432 -0.118085 -4.01526 0
M  V30 3956 N 373.638 -0.711634 -2.81752 0
M  V30 3957 H 373.185 -1.35171 -2.19286 0
M  V30 3958 H 373.143 0.0930473 -3.14262 0
M  V30 3959 N 376.915 0.57481 -1.46744 0
M  V30 3960 C 378.145 1.35659 -1.55821 0
M  V30 3961 C 378.553 1.88129 -0.201036 0
M  V30 3962 O 377.896 1.64723 0.813134 0
M  V30 3963 C 377.958 2.57473 -2.50894 0
M  V30 3964 C 377.622 2.26415 -3.9697 0
M  V30 3965 C 378.619 1.84771 -4.85958 0
M  V30 3966 C 376.304 2.38316 -4.42166 0
M  V30 3967 C 378.298 1.55434 -6.18158 0
M  V30 3968 C 375.985 2.08591 -5.74398 0
M  V30 3969 C 376.983 1.67216 -6.62214 0
M  V30 3970 O 376.671 1.37859 -7.91991 0
M  V30 3971 H 376.403 0.420496 -0.529301 0
M  V30 3972 H 378.957 0.704967 -1.92923 0
M  V30 3973 H 377.187 3.25468 -2.08824 0
M  V30 3974 H 378.876 3.19546 -2.50291 0
M  V30 3975 H 379.642 1.75085 -4.52295 0
M  V30 3976 H 375.521 2.69483 -3.74032 0
M  V30 3977 H 379.065 1.23065 -6.86659 0
M  V30 3978 H 374.962 2.17905 -6.07608 0
M  V30 3979 H 375.73 1.51638 -8.04331 0
M  V30 3980 N 378.394 1.34581 0.820102 0
M  V30 3981 C 379.805 1.24298 1.39309 0
M  V30 3982 C 380.156 -0.130351 1.95767 0
M  V30 3983 O 379.281 -1.0308 1.90272 0
M  V30 3984 C 379.876 2.25054 2.53251 0
M  V30 3985 C 378.435 2.18552 3.0645 0
M  V30 3986 C 377.582 2.11503 1.79337 0
M  V30 3987 H 380.533 1.45906 0.624262 0
M  V30 3988 H 380.554 1.86917 3.31425 0
M  V30 3989 H 380.066 3.24996 2.1213 0
M  V30 3990 H 378.167 1.21976 3.52069 0
M  V30 3991 H 378.28 3.0993 3.65349 0
M  V30 3992 H 376.644 1.57268 2.00347 0
M  V30 3993 H 377.427 3.13284 1.40386 0
M  V30 3994 N 379.872 -1.04064 1.18357 0
M  V30 3995 C 381.102 -1.80654 1.00238 0
M  V30 3996 C 381.51 -1.83713 -0.452362 0
M  V30 3997 O 380.853 -1.27135 -1.32599 0
M  V30 3998 C 380.915 -3.27582 1.48088 0
M  V30 3999 C 380.579 -3.48184 2.96002 0
M  V30 4000 C 381.576 -3.39372 3.93856 0
M  V30 4001 C 379.261 -3.7478 3.34433 0
M  V30 4002 C 381.255 -3.5686 5.28138 0
M  V30 4003 C 378.942 -3.91915 4.68877 0
M  V30 4004 C 379.94 -3.82956 5.65539 0
M  V30 4005 O 379.628 -3.996 6.97549 0
M  V30 4006 H 379.36 -0.575751 0.354241 0
M  V30 4007 H 381.914 -1.32044 1.57333 0
M  V30 4008 H 380.144 -3.77161 0.853588 0
M  V30 4009 H 381.833 -3.8573 1.2636 0
M  V30 4010 H 382.599 -3.18789 3.65511 0
M  V30 4011 H 378.478 -3.80852 2.59756 0
M  V30 4012 H 382.022 -3.49783 6.03571 0
M  V30 4013 H 377.919 -4.11992 4.96923 0
M  V30 4014 H 378.687 -4.1676 7.04452 0
M  V30 4015 N 381.35 -0.985608 -1.22978 0
M  V30 4016 C 382.627 -0.573599 -1.87001 0
M  V30 4017 C 383.007 0.949213 -1.88555 0
M  V30 4018 O 382.355 1.82811 -1.37086 0
M  V30 4019 C 382.565 -1.18564 -3.28243 0
M  V30 4020 C 383.913 -1.28163 -4.04796 0
M  V30 4021 O 384.937 -1.13949 -3.37482 0
M  V30 4022 O 383.796 -1.50832 -5.25273 0
M  V30 4023 H 380.89 -0.193868 -0.803955 0
M  V30 4024 H 383.436 -1.08102 -1.30813 0
M  V30 4025 H 382.208 -2.22758 -3.21706 0
M  V30 4026 H 381.831 -0.663363 -3.92027 0
M  V30 4027 N 382.828 1.3818 -0.7579 0
M  V30 4028 C 383.738 2.3421 -0.135247 0
M  V30 4029 C 384.754 1.59487 0.695683 0
M  V30 4030 O 385.93 1.91657 0.618832 0
M  V30 4031 C 382.995 3.3862 0.744139 0
M  V30 4032 C 382.056 4.2918 -0.101658 0
M  V30 4033 C 381.289 5.28603 0.735851 0
M  V30 4034 O 381.512 5.35166 1.97366 0
M  V30 4035 O 380.446 6.01707 0.152372 0
M  V30 4036 H 384.272 2.8916 -0.928436 0
M  V30 4037 H 381.857 1.40101 -0.518855 0
M  V30 4038 H 383.739 4.02539 1.2466 0
M  V30 4039 H 382.414 2.86019 1.51575 0
M  V30 4040 H 381.321 3.68407 -0.650167 0
M  V30 4041 H 382.654 4.85048 -0.836024 0
M  V30 4042 N 384.306 0.507319 1.49211 0
M  V30 4043 C 385.534 -0.0315749 2.06876 0
M  V30 4044 C 385.949 -1.30241 1.36685 0
M  V30 4045 O 385.306 -1.76937 0.447152 0
M  V30 4046 C 385.357 -0.282627 3.60393 0
M  V30 4047 O 385.078 0.937835 4.27944 0
M  V30 4048 C 386.579 -0.864453 4.3479 0
M  V30 4049 H 383.799 0.0233048 0.670595 0
M  V30 4050 H 386.343 0.706484 1.91909 0
M  V30 4051 H 384.498 -0.97068 3.75042 0
M  V30 4052 H 384.912 0.704567 5.19746 0
M  V30 4053 H 386.386 -0.989664 5.43056 0
M  V30 4054 H 386.863 -1.86382 3.97692 0
M  V30 4055 H 387.469 -0.213672 4.24763 0
M  V30 4056 N 385.784 -1.5574 0.241426 0
M  V30 4057 C 387.2 -1.59196 -0.113548 0
M  V30 4058 C 387.4 -1.25852 -1.57364 0
M  V30 4059 O 386.456 -1.00322 -2.31715 0
M  V30 4060 C 387.769 -2.99814 0.230695 0
M  V30 4061 C 389.317 -3.12513 0.174547 0
M  V30 4062 C 389.792 -4.55342 0.492744 0
M  V30 4063 N 391.283 -4.61076 0.443043 0
M  V30 4064 C 392.018 -5.6956 0.662484 0
M  V30 4065 N 391.514 -6.86328 0.944761 0
M  V30 4066 N 393.307 -5.58957 0.593564 0
M  V30 4067 H 385.458 -1.75685 1.19368 0
M  V30 4068 H 387.721 -0.81756 0.479896 0
M  V30 4069 H 387.427 -3.28932 1.24485 0
M  V30 4070 H 387.301 -3.74568 -0.444833 0
M  V30 4071 H 389.688 -2.83179 -0.830277 0
M  V30 4072 H 389.769 -2.40045 0.883845 0
M  V30 4073 H 389.413 -4.85396 1.4951 0
M  V30 4074 H 389.343 -5.26062 -0.23797 0
M  V30 4075 H 391.834 -3.77179 0.233374 0
M  V30 4076 H 392.147 -7.64935 1.09977 0
M  V30 4077 H 390.492 -6.88025 0.982175 0
M  V30 4078 H 393.683 -4.66611 0.373123 0
M  V30 4079 H 393.856 -6.43433 0.767981 0
M  V30 4080 N 387.262 0.0317525 -1.57568 0
M  V30 4081 C 388.487 0.738664 -1.938 0
M  V30 4082 C 388.912 1.68242 -0.841208 0
M  V30 4083 O 388.27 1.80157 0.203267 0
M  V30 4084 C 388.318 1.47417 -3.29091 0
M  V30 4085 O 387.422 2.5872 -3.2115 0
M  V30 4086 H 386.763 0.198856 -0.633524 0
M  V30 4087 H 389.293 -0.0119713 -2.04596 0
M  V30 4088 H 389.303 1.84468 -3.63917 0
M  V30 4089 H 387.978 0.781988 -4.08482 0
M  V30 4090 H 386.555 2.24231 -2.97951 0
M  V30 4091 N 388.74 1.54641 0.303973 0
M  V30 4092 C 389.988 1.73437 1.0375 0
M  V30 4093 C 390.309 0.521449 1.87899 0
M  V30 4094 O 389.579 -0.46432 1.90318 0
M  V30 4095 H 388.159 0.639518 0.386039 0
M  V30 4096 H 390.821 1.91988 0.335675 0
M  V30 4097 H 389.917 2.62235 1.69231 0
M  V30 4098 N 390.218 -0.567019 1.47046 0
M  V30 4099 C 391.443 -1.3551 1.57009 0
M  V30 4100 C 391.868 -1.86841 0.217259 0
M  V30 4101 O 391.226 -1.62435 -0.805268 0
M  V30 4102 C 391.274 -2.50777 2.5912 0
M  V30 4103 O 390.378 -3.52706 2.13711 0
M  V30 4104 H 389.719 -0.402919 0.52778 0
M  V30 4105 H 392.249 -0.686241 1.92748 0
M  V30 4106 H 392.259 -2.97481 2.79229 0
M  V30 4107 H 390.934 -2.12771 3.57353 0
M  V30 4108 H 389.511 -3.12374 2.03659 0
M  V30 4109 N 391.696 -1.35014 -0.812953 0
M  V30 4110 C 392.659 -1.27292 -1.90602 0
M  V30 4111 C 393.659 -0.185817 -1.59723 0
M  V30 4112 O 394.849 -0.439102 -1.68575 0
M  V30 4113 C 391.981 -0.967676 -3.26877 0
M  V30 4114 H 393.174 -2.24479 -1.9887 0
M  V30 4115 H 390.727 -1.19446 -1.00808 0
M  V30 4116 H 391.462 0.0005954 -3.243 0
M  V30 4117 H 391.247 -1.75412 -3.50675 0
M  V30 4118 H 392.737 -0.939085 -4.06904 0
M  V30 4119 N 393.175 1.03435 -1.18907 0
M  V30 4120 C 394.125 2.09924 -0.889706 0
M  V30 4121 C 395.109 1.60261 0.143216 0
M  V30 4122 O 396.301 1.76892 -0.0617122 0
M  V30 4123 C 393.43 3.40669 -0.424168 0
M  V30 4124 C 392.516 3.97082 -1.48952 0
M  V30 4125 N 392.907 4.27227 -2.70759 0
M  V30 4126 C 391.205 4.25029 -1.35152 0
M  V30 4127 C 391.906 4.7246 -3.39347 0
M  V30 4128 N 390.882 4.7366 -2.66735 0
M  V30 4129 H 394.684 2.31116 -1.81555 0
M  V30 4130 H 392.198 1.21246 -1.08042 0
M  V30 4131 H 394.195 4.16461 -0.191176 0
M  V30 4132 H 392.855 3.20901 0.495263 0
M  V30 4133 H 393.866 4.16678 -3.0757 0
M  V30 4134 H 390.543 4.14554 -0.495126 0
M  V30 4135 H 391.933 5.04751 -4.43481 0
M  V30 4136 N 394.653 0.992116 1.22453 0
M  V30 4137 C 395.563 0.55065 2.28046 0
M  V30 4138 C 396.579 -0.400189 1.69335 0
M  V30 4139 O 397.755 -0.267215 1.99619 0
M  V30 4140 C 394.82 -0.128496 3.46462 0
M  V30 4141 C 393.881 0.865208 4.20491 0
M  V30 4142 C 393.114 0.218377 5.33253 0
M  V30 4143 O 393.337 -0.987894 5.6178 0
M  V30 4144 O 392.271 0.922845 5.94783 0
M  V30 4145 H 396.097 1.4291 2.67975 0
M  V30 4146 H 393.682 0.760326 1.28606 0
M  V30 4147 H 395.564 -0.508947 4.18315 0
M  V30 4148 H 394.239 -0.981526 3.0846 0
M  V30 4149 H 393.146 1.29658 3.50913 0
M  V30 4150 H 394.479 1.68741 4.62371 0
M  V30 4151 N 396.131 -1.37776 0.765217 0
M  V30 4152 C 397.361 -2.03828 0.337277 0
M  V30 4153 C 397.769 -1.57841 -1.04321 0
M  V30 4154 O 397.112 -0.752043 -1.67601 0
M  V30 4155 C 397.174 -3.58292 0.294407 0
M  V30 4156 C 396.838 -4.27384 1.61838 0
M  V30 4157 C 397.835 -4.51956 2.56967 0
M  V30 4158 C 395.52 -4.65345 1.89102 0
M  V30 4159 C 397.514 -5.13536 3.77571 0
M  V30 4160 C 395.201 -5.26647 3.09978 0
M  V30 4161 C 396.199 -5.50679 4.04032 0
M  V30 4162 O 395.887 -6.10702 5.2278 0
M  V30 4163 H 395.619 -0.661292 0.140248 0
M  V30 4164 H 398.173 -1.77222 1.03834 0
M  V30 4165 H 396.403 -3.83918 -0.462983 0
M  V30 4166 H 398.092 -4.05763 -0.105581 0
M  V30 4167 H 398.858 -4.23048 2.37183 0
M  V30 4168 H 394.737 -4.45978 1.16725 0
M  V30 4169 H 398.281 -5.3221 4.50997 0
M  V30 4170 H 394.178 -5.54979 3.29649 0
M  V30 4171 H 394.946 -6.29183 5.23517 0
M  V30 4172 N 397.609 -0.515225 -1.4894 0
M  V30 4173 C 398.834 0.022727 -2.07388 0
M  V30 4174 C 399.259 1.2876 -1.37122 0
M  V30 4175 O 398.617 1.76067 -0.432431 0
M  V30 4176 C 398.665 0.244869 -3.59768 0
M  V30 4177 O 397.769 1.31667 -3.90817 0
M  V30 4178 H 397.11 -0.0325506 -0.663202 0
M  V30 4179 H 399.64 -0.718918 -1.91553 0
M  V30 4180 H 399.65 0.47205 -4.0526 0
M  V30 4181 H 398.325 -0.679194 -4.10317 0
M  V30 4182 H 396.902 1.07331 -3.5712 0
M  V30 4183 N 399.087 1.5561 -0.249682 0
M  V30 4184 C 400.312 2.03865 0.381305 0
M  V30 4185 C 400.737 1.12769 1.50548 0
M  V30 4186 O 400.095 0.121189 1.80895 0
M  V30 4187 C 400.143 3.50101 0.863816 0
M  V30 4188 O 399.247 3.62132 1.97318 0
M  V30 4189 H 398.588 0.658827 0.0827194 0
M  V30 4190 H 401.118 2.01105 -0.376552 0
M  V30 4191 H 401.128 3.90975 1.1663 0
M  V30 4192 H 399.803 4.1588 0.0411816 0
M  V30 4193 H 398.38 3.33155 1.67517 0
M  V30 4194 N 400.565 -0.0233959 1.57583 0
M  V30 4195 C 401.79 -0.728376 1.94189 0
M  V30 4196 C 402.215 -1.67793 0.850119 0
M  V30 4197 O 401.573 -1.80262 -0.19371 0
M  V30 4198 C 401.621 -1.45669 3.29868 0
M  V30 4199 O 400.725 -2.57013 3.22518 0
M  V30 4200 H 400.066 -0.195493 0.63457 0
M  V30 4201 H 402.596 0.0228214 2.04587 0
M  V30 4202 H 402.606 -1.82535 3.6489 0
M  V30 4203 H 401.281 -0.760314 4.08891 0
M  V30 4204 H 399.858 -2.22648 2.99136 0
M  V30 4205 N 402.043 -1.548 -0.295768 0
M  V30 4206 C 403.454 -1.65274 -0.868411 0
M  V30 4207 C 403.805 -0.56481 -1.87894 0
M  V30 4208 O 402.93 0.29767 -2.14343 0
M  V30 4209 C 403.525 -2.99603 -1.58188 0
M  V30 4210 C 402.084 -3.12181 -2.10286 0
M  V30 4211 C 401.231 -2.6098 -0.93727 0
M  V30 4212 H 404.182 -1.58534 -0.0726422 0
M  V30 4213 H 404.203 -2.91319 -2.44772 0
M  V30 4214 H 403.715 -3.78764 -0.846151 0
M  V30 4215 H 401.816 -2.3775 -2.8689 0
M  V30 4216 H 401.929 -4.18415 -2.33379 0
M  V30 4217 H 400.293 -2.17564 -1.32431 0
M  V30 4218 H 401.076 -3.42623 -0.215414 0
M  V30 4219 N 403.521 0.559213 -1.47345 0
M  V30 4220 C 404.798 1.31997 -1.44348 0
M  V30 4221 C 405.178 2.1064 -0.139358 0
M  V30 4222 O 404.526 2.1091 0.879153 0
M  V30 4223 C 404.736 2.22618 -2.68779 0
M  V30 4224 C 406.084 2.83701 -3.1591 0
M  V30 4225 O 407.108 2.32921 -2.69493 0
M  V30 4226 O 405.967 3.75993 -3.966 0
M  V30 4227 H 403.061 0.594251 -0.575147 0
M  V30 4228 H 405.607 0.578282 -1.59543 0
M  V30 4229 H 404.379 1.64093 -3.55231 0
M  V30 4230 H 404.002 3.04085 -2.5616 0
M  V30 4231 N 404.999 1.35443 0.805782 0
M  V30 4232 C 406.276 1.19325 1.54987 0
M  V30 4233 C 406.656 -0.227294 2.09873 0
M  V30 4234 O 406.004 -1.2309 1.92512 0
M  V30 4235 C 406.214 2.26196 2.65775 0
M  V30 4236 C 407.562 2.62043 3.34094 0
M  V30 4237 O 408.586 2.25115 2.76046 0
M  V30 4238 O 407.445 3.25542 4.38958 0
M  V30 4239 H 404.539 0.463623 0.684823 0
M  V30 4240 H 407.085 1.47127 0.845674 0
M  V30 4241 H 405.857 3.21471 2.23096 0
M  V30 4242 H 405.48 1.99667 3.43829 0
M  V30 4243 N 406.477 -1.02803 1.19454 0
M  V30 4244 C 407.44 -2.09264 0.934955 0
M  V30 4245 C 408.44 -1.60576 -0.0849015 0
M  V30 4246 O 409.63 -1.73554 0.149933 0
M  V30 4247 C 406.762 -3.38482 0.40531 0
M  V30 4248 H 407.955 -2.33726 1.87916 0
M  V30 4249 H 405.508 -1.19426 1.00832 0
M  V30 4250 H 406.243 -3.19689 -0.544899 0
M  V30 4251 H 406.028 -3.75142 1.14065 0
M  V30 4252 H 407.518 -4.16894 0.242806 0
M  V30 4253 N 407.956 -0.998596 -1.21925 0
M  V30 4254 C 409.205 -0.673085 -1.90138 0
M  V30 4255 C 409.518 0.79895 -1.78539 0
M  V30 4256 O 410.724 1.23628 -2.4172 0
M  V30 4257 C 409.18 -1.15339 -3.40918 0
M  V30 4258 C 408.788 -2.65106 -3.61141 0
M  V30 4259 C 410.532 -0.902476 -4.14796 0
M  V30 4260 C 408.439 -3.0671 -5.05651 0
M  V30 4261 H 407.369 -0.248057 -0.712028 0
M  V30 4262 H 410.02 -1.20891 -1.38049 0
M  V30 4263 H 408.402 -0.545658 -3.92223 0
M  V30 4264 H 409.576 -3.31274 -3.20304 0
M  V30 4265 H 407.891 -2.88142 -3.00605 0
M  V30 4266 H 410.488 -1.18895 -5.21314 0
M  V30 4267 H 410.831 0.161349 -4.15987 0
M  V30 4268 H 411.364 -1.47269 -3.69536 0
M  V30 4269 H 408.103 -4.12292 -5.09603 0
M  V30 4270 H 407.623 -2.45249 -5.47369 0
M  V30 4271 H 409.302 -2.9833 -5.74115 0
M  V30 4272 N 409.434 1.37368 -0.772513 0
M  V30 4273 C 410.681 1.99673 -0.337182 0
M  V30 4274 C 411.009 1.61324 1.0865 0
M  V30 4275 O 410.264 0.851377 1.7621 0
M  V30 4276 C 410.563 3.54817 -0.428876 0
M  V30 4277 C 410.229 4.12936 -1.81092 0
M  V30 4278 C 408.891 4.28523 -2.1891 0
M  V30 4279 C 411.243 4.44801 -2.71664 0
M  V30 4280 C 408.571 4.73277 -3.46735 0
M  V30 4281 C 410.923 4.90981 -3.98899 0
M  V30 4282 C 409.587 5.04773 -4.36761 0
M  V30 4283 H 408.857 0.730656 -0.123384 0
M  V30 4284 H 411.504 1.64124 -0.986686 0
M  V30 4285 H 409.809 3.90618 0.304167 0
M  V30 4286 H 411.506 4.00933 -0.0733334 0
M  V30 4287 H 408.096 4.01233 -1.50699 0
M  V30 4288 H 412.28 4.32344 -2.43706 0
M  V30 4289 H 407.536 4.82142 -3.75964 0
M  V30 4290 H 411.71 5.14603 -4.69208 0
M  V30 4291 H 409.337 5.39211 -5.35868 0
M  V30 4292 N 410.912 0.523116 1.48665 0
M  V30 4293 C 411.844 -0.280421 2.27478 0
M  V30 4294 C 412.857 -0.910694 1.34945 0
M  V30 4295 O 414.046 -0.790295 1.60052 0
M  V30 4296 C 411.146 -1.41171 3.08097 0
M  V30 4297 C 410.319 -0.884642 4.28361 0
M  V30 4298 C 409.378 -1.89622 4.90846 0
M  V30 4299 O 408.404 -1.4559 5.50265 0
M  V30 4300 N 409.606 -3.22801 4.82472 0
M  V30 4301 H 412.371 0.395481 2.97079 0
M  V30 4302 H 409.932 0.357018 1.57915 0
M  V30 4303 H 411.924 -2.08645 3.4677 0
M  V30 4304 H 410.494 -1.99139 2.40961 0
M  V30 4305 H 409.714 -0.0341177 3.94185 0
M  V30 4306 H 411.002 -0.511268 5.06225 0
M  V30 4307 H 410.4 -3.61246 4.35336 0
M  V30 4308 H 408.957 -3.85927 5.25265 0
M  V30 4309 N 412.39 -1.55475 0.257931 0
M  V30 4310 C 413.615 -2.04064 -0.370488 0
M  V30 4311 C 414.04 -1.13565 -1.49948 0
M  V30 4312 O 413.398 -0.130781 -1.80828 0
M  V30 4313 C 413.446 -3.50554 -0.845237 0
M  V30 4314 O 412.55 -3.63173 -1.95394 0
M  V30 4315 H 411.891 -0.659257 -0.0792243 0
M  V30 4316 H 414.421 -2.00903 0.387212 0
M  V30 4317 H 414.431 -3.91588 -1.14555 0
M  V30 4318 H 413.106 -4.15896 -0.0191259 0
M  V30 4319 H 411.683 -3.34039 -1.65748 0
M  V30 4320 N 413.868 0.0150385 -1.57593 0
M  V30 4321 C 414.798 1.01047 -2.10503 0
M  V30 4322 C 415.779 1.36816 -1.01071 0
M  V30 4323 O 416.964 1.45455 -1.28672 0
M  V30 4324 C 414.094 2.30708 -2.59598 0
M  V30 4325 C 413.048 2.09142 -3.73421 0
M  V30 4326 C 412.374 3.44685 -4.08774 0
M  V30 4327 C 413.674 1.46619 -5.01298 0
M  V30 4328 H 415.368 0.569978 -2.93925 0
M  V30 4329 H 412.914 0.272724 -1.41394 0
M  V30 4330 H 414.867 3.00687 -2.95238 0
M  V30 4331 H 413.591 2.76843 -1.73279 0
M  V30 4332 H 412.25 1.41592 -3.38153 0
M  V30 4333 H 411.898 3.88495 -3.195 0
M  V30 4334 H 411.598 3.31077 -4.8545 0
M  V30 4335 H 413.122 4.16004 -4.4696 0
M  V30 4336 H 414.536 2.06535 -5.34805 0
M  V30 4337 H 412.933 1.43544 -5.82679 0
M  V30 4338 H 414.003 0.433611 -4.82957 0
M  V30 4339 N 415.346 1.54954 0.287554 0
M  V30 4340 C 416.309 1.86076 1.33823 0
M  V30 4341 C 417.309 0.734414 1.43049 0
M  V30 4342 O 418.499 1.00266 1.42452 0
M  V30 4343 C 415.631 2.05305 2.72144 0
M  V30 4344 H 416.824 2.79984 1.07465 0
M  V30 4345 H 414.377 1.47223 0.524902 0
M  V30 4346 H 415.112 1.1373 3.03704 0
M  V30 4347 H 414.897 2.873 2.66836 0
M  V30 4348 H 416.387 2.30706 3.48087 0
M  V30 4349 N 416.824 -0.551391 1.4764 0
M  V30 4350 C 418.24 -0.877887 1.33287 0
M  V30 4351 C 418.44 -1.98817 0.327721 0
M  V30 4352 O 417.496 -2.51171 -0.258695 0
M  V30 4353 C 418.809 -1.26563 2.72768 0
M  V30 4354 C 420.357 -1.37673 2.81097 0
M  V30 4355 C 420.832 -1.79799 4.21232 0
M  V30 4356 N 422.323 -1.8694 4.23802 0
M  V30 4357 C 423.058 -2.20876 5.29151 0
M  V30 4358 N 422.554 -2.53386 6.448 0
M  V30 4359 N 424.347 -2.217 5.16532 0
M  V30 4360 H 416.498 0.18153 2.11623 0
M  V30 4361 H 418.761 0.0185514 0.947818 0
M  V30 4362 H 418.467 -0.523591 3.47781 0
M  V30 4363 H 418.341 -2.22052 3.04915 0
M  V30 4364 H 420.728 -2.10956 2.06353 0
M  V30 4365 H 420.809 -0.40357 2.52596 0
M  V30 4366 H 420.453 -1.07083 4.96483 0
M  V30 4367 H 420.383 -2.78128 4.4716 0
M  V30 4368 H 422.874 -1.64179 3.40373 0
M  V30 4369 H 423.187 -2.78325 7.20941 0
M  V30 4370 H 421.532 -2.50953 6.48111 0
M  V30 4371 H 424.723 -1.95745 4.25207 0
M  V30 4372 H 424.896 -2.47818 5.98741 0
M  V30 4373 N 418.302 -1.35869 -0.798587 0
M  V30 4374 C 419.265 -1.29307 -1.89242 0
M  V30 4375 C 420.265 -0.202747 -1.59517 0
M  V30 4376 O 421.455 -0.456957 -1.681 0
M  V30 4377 C 418.587 -1.00229 -3.25833 0
M  V30 4378 H 419.78 -2.26576 -1.96478 0
M  V30 4379 H 417.333 -1.20509 -0.995358 0
M  V30 4380 H 418.068 -0.033801 -3.24282 0
M  V30 4381 H 417.853 -1.79121 -3.48795 0
M  V30 4382 H 419.343 -0.98219 -4.05885 0
M  V30 4383 N 419.78 1.02168 -1.19998 0
M  V30 4384 C 421.01 1.79036 -1.031 0
M  V30 4385 C 421.418 1.84409 0.423078 0
M  V30 4386 O 420.761 1.29228 1.30559 0
M  V30 4387 C 420.823 3.25185 -1.53281 0
M  V30 4388 C 420.487 3.43431 -3.01503 0
M  V30 4389 C 421.484 3.33063 -3.99206 0
M  V30 4390 C 419.169 3.69412 -3.40353 0
M  V30 4391 C 421.163 3.48413 -5.33748 0
M  V30 4392 C 418.85 3.84406 -4.75053 0
M  V30 4393 C 419.848 3.7391 -5.71559 0
M  V30 4394 O 419.536 3.88452 -7.03818 0
M  V30 4395 H 419.268 0.570043 -0.363355 0
M  V30 4396 H 421.822 1.29524 -1.59414 0
M  V30 4397 H 420.052 3.75756 -0.913483 0
M  V30 4398 H 421.741 3.83671 -1.32481 0
M  V30 4399 H 422.507 3.12934 -3.70537 0
M  V30 4400 H 418.386 3.76671 -2.65782 0
M  V30 4401 H 421.93 3.40137 -6.09059 0
M  V30 4402 H 417.827 4.04035 -5.03415 0
M  V30 4403 H 418.595 4.055 -7.10993 0
M  V30 4404 N 421.258 1.00505 1.21394 0
M  V30 4405 C 422.483 0.706367 1.95001 0
M  V30 4406 C 422.908 -0.72463 1.73582 0
M  V30 4407 O 422.266 -1.49702 1.0227 0
M  V30 4408 C 422.314 1.03299 3.45487 0
M  V30 4409 O 421.418 0.138275 4.12168 0
M  V30 4410 H 420.759 0.263175 0.609619 0
M  V30 4411 H 423.289 1.34531 1.54151 0
M  V30 4412 H 423.299 0.979872 3.96059 0
M  V30 4413 H 421.974 2.07567 3.60401 0
M  V30 4414 H 420.551 0.247928 3.72075 0
M  V30 4415 N 422.737 -1.36956 0.779787 0
M  V30 4416 C 423.962 -2.04283 0.358224 0
M  V30 4417 C 424.387 -1.58422 -1.01411 0
M  V30 4418 O 423.745 -0.748179 -1.65142 0
M  V30 4419 C 423.793 -3.58152 0.419479 0
M  V30 4420 O 422.897 -4.08342 -0.577142 0
M  V30 4421 H 422.238 -0.645967 0.153698 0
M  V30 4422 H 424.768 -1.75108 1.05822 0
M  V30 4423 H 424.778 -4.07041 0.279636 0
M  V30 4424 H 423.453 -3.90886 1.42061 0
M  V30 4425 H 422.03 -3.70751 -0.399755 0
M  V30 4426 N 424.215 -0.530993 -1.48385 0
M  V30 4427 C 425.462 0.0027373 -2.025 0
M  V30 4428 C 425.79 1.34186 -1.40799 0
M  V30 4429 O 425.045 1.88 -0.543544 0
M  V30 4430 C 425.344 0.172742 -3.56982 0
M  V30 4431 C 425.01 -1.09215 -4.37473 0
M  V30 4432 C 423.672 -1.43881 -4.59186 0
M  V30 4433 C 426.024 -1.93153 -4.84088 0
M  V30 4434 C 423.352 -2.62381 -5.2476 0
M  V30 4435 C 425.704 -3.10833 -5.50968 0
M  V30 4436 C 424.368 -3.45843 -5.70919 0
M  V30 4437 H 423.638 0.00100165 -0.740999 0
M  V30 4438 H 426.285 -0.697219 -1.78357 0
M  V30 4439 H 424.59 0.955473 -3.79971 0
M  V30 4440 H 426.287 0.600642 -3.96476 0
M  V30 4441 H 422.877 -0.812177 -4.20834 0
M  V30 4442 H 427.061 -1.67683 -4.67115 0
M  V30 4443 H 422.317 -2.89707 -5.38405 0
M  V30 4444 H 426.491 -3.7618 -5.86056 0
M  V30 4445 H 424.118 -4.37764 -6.21503 0
M  V30 4446 N 425.693 1.55336 -0.266172 0
M  V30 4447 C 426.641 2.23587 0.641228 0
M  V30 4448 C 427.635 1.22986 1.16494 0
M  V30 4449 O 428.841 1.40943 1.1196 0
M  V30 4450 H 425.216 0.717452 0.225315 0
M  V30 4451 H 427.187 2.9837 0.0426561 0
M  V30 4452 C 425.936 2.96369 1.81826 0
M  V30 4453 H 425.259 3.73563 1.42445 0
M  V30 4454 H 426.699 3.47459 2.42998 0
M  V30 4455 C 425.158 2.0133 2.70125 0
M  V30 4456 O 425.688 1.55875 3.70224 0
M  V30 4457 N 423.894 1.6802 2.37102 0
M  V30 4458 H 423.441 2.05181 1.55751 0
M  V30 4459 H 423.399 1.047 2.96454 0
M  V30 4460 N 427.171 -0.0066808 1.57599 0
M  V30 4461 C 428.582 -0.550379 1.78403 0
M  V30 4462 C 428.933 -1.74339 0.900014 0
M  V30 4463 O 428.058 -2.16166 0.100713 0
M  V30 4464 C 428.653 -1.00523 3.23544 0
M  V30 4465 C 427.212 -1.49428 3.45468 0
M  V30 4466 C 426.359 -0.442444 2.73748 0
M  V30 4467 H 429.31 0.219508 1.57175 0
M  V30 4468 H 429.331 -1.87157 3.31289 0
M  V30 4469 H 428.843 -0.136735 3.87859 0
M  V30 4470 H 426.944 -2.3839 2.86358 0
M  V30 4471 H 427.057 -1.52635 4.54136 0
M  V30 4472 H 425.421 -0.902578 2.38171 0
M  V30 4473 H 426.204 0.416973 3.40758 0
M  V30 4474 N 428.649 -1.55105 -0.279332 0
M  V30 4475 C 429.612 -1.86783 -1.32834 0
M  V30 4476 C 430.612 -0.74199 -1.42657 0
M  V30 4477 O 431.802 -1.0102 -1.41918 0
M  V30 4478 C 428.934 -2.06746 -2.71052 0
M  V30 4479 H 430.127 -2.8055 -1.05979 0
M  V30 4480 H 427.68 -1.47499 -0.517087 0
M  V30 4481 H 428.415 -1.15339 -3.03097 0
M  V30 4482 H 428.2 -2.88711 -2.65309 0
M  V30 4483 H 429.69 -2.32549 -3.46858 0
M  V30 4484 N 430.127 0.543554 -1.4793 0
M  V30 4485 C 431.06 1.66556 -1.55995 0
M  V30 4486 C 432.038 1.57315 -0.411205 0
M  V30 4487 O 433.222 1.7798 -0.620922 0
M  V30 4488 C 430.349 3.04883 -1.47527 0
M  V30 4489 C 429.395 3.32526 -2.67074 0
M  V30 4490 S 430.228 3.20282 -4.29162 0
M  V30 4491 C 431.384 4.61079 -4.23269 0
M  V30 4492 H 431.617 1.59462 -2.50917 0
M  V30 4493 H 429.15 0.725456 -1.36296 0
M  V30 4494 H 431.108 3.84665 -1.43328 0
M  V30 4495 H 429.769 3.09429 -0.539665 0
M  V30 4496 H 428.962 4.33403 -2.5725 0
M  V30 4497 H 428.564 2.60389 -2.68466 0
M  V30 4498 H 430.856 5.52318 -3.92365 0
M  V30 4499 H 431.799 4.75959 -5.24279 0
M  V30 4500 H 432.207 4.39766 -3.5393 0
M  V30 4501 N 431.605 1.3629 0.791371 0
M  V30 4502 C 432.83 1.33726 1.58531 0
M  V30 4503 C 433.255 -0.0794933 1.87932 0
M  V30 4504 O 432.613 -1.05087 1.47738 0
M  V30 4505 C 432.661 2.16425 2.88431 0
M  V30 4506 O 431.765 1.5554 3.81944 0
M  V30 4507 H 431.106 0.457793 0.480959 0
M  V30 4508 H 433.636 1.79547 0.981031 0
M  V30 4509 H 433.646 2.28933 3.37718 0
M  V30 4510 H 432.321 3.19415 2.66359 0
M  V30 4511 H 430.898 1.51961 3.40532 0
M  V30 4512 N 433.083 -1.0153 1.20538 0
M  V30 4513 C 434.36 -1.72327 0.925343 0
M  V30 4514 C 434.74 -2.03383 -0.565547 0
M  V30 4515 O 434.088 -1.69934 -1.52757 0
M  V30 4516 C 434.298 -2.9902 1.79967 0
M  V30 4517 C 435.646 -3.72258 2.04228 0
M  V30 4518 O 436.67 -3.08979 1.77231 0
M  V30 4519 O 435.529 -4.86053 2.4983 0
M  V30 4520 H 432.623 -0.751099 0.346092 0
M  V30 4521 H 435.169 -1.07366 1.31417 0
M  V30 4522 H 433.941 -2.72402 2.80915 0
M  V30 4523 H 433.564 -3.71721 1.41099 0
M  V30 4524 N 434.561 -1.01147 -1.20859 0
M  V30 4525 C 435.972 -0.730205 -1.71828 0
M  V30 4526 C 436.323 0.751662 -1.8123 0
M  V30 4527 O 435.448 1.58686 -1.47132 0
M  V30 4528 C 436.043 -1.31885 -3.12077 0
M  V30 4529 C 434.602 -1.08656 -3.60376 0
M  V30 4530 C 433.749 -1.42769 -2.37723 0
M  V30 4531 H 436.7 -1.18158 -1.05945 0
M  V30 4532 H 436.721 -0.706793 -3.73878 0
M  V30 4533 H 436.233 -2.39737 -3.05201 0
M  V30 4534 H 434.334 -0.0254814 -3.72591 0
M  V30 4535 H 434.447 -1.76301 -4.45483 0
M  V30 4536 H 432.811 -0.846603 -2.40218 0
M  V30 4537 H 433.594 -2.51666 -2.33493 0
M  V30 4538 N 436.039 1.36541 -0.78704 0
M  V30 4539 C 436.987 2.31965 -0.171724 0
M  V30 4540 C 437.981 1.55689 0.667631 0
M  V30 4541 O 439.187 1.70969 0.562981 0
M  V30 4542 H 435.562 0.751101 -0.0367545 0
M  V30 4543 H 437.533 2.81428 -0.992017 0
M  V30 4544 C 436.282 3.40968 0.680904 0
M  V30 4545 H 435.605 3.99775 0.0443961 0
M  V30 4546 H 437.045 4.10063 1.07815 0
M  V30 4547 C 435.504 2.82338 1.83813 0
M  V30 4548 O 436.034 2.74311 2.93456 0
M  V30 4549 N 434.24 2.39661 1.6435 0
M  V30 4550 H 433.787 2.46389 0.751668 0
M  V30 4551 H 433.745 2.00779 2.4194 0
M  V30 4552 N 437.518 0.538854 1.48102 0
M  V30 4553 C 438.934 0.19732 1.58376 0
M  V30 4554 C 439.134 -1.29971 1.5398 0
M  V30 4555 O 438.19 -2.07861 1.43352 0
M  V30 4556 C 439.503 0.807716 2.89649 0
M  V30 4557 C 441.051 0.77726 3.03196 0
M  V30 4558 C 441.526 1.36639 4.37143 0
M  V30 4559 N 443.017 1.32875 4.43732 0
M  V30 4560 C 443.752 1.7544 5.45901 0
M  V30 4561 N 443.248 2.25776 6.54979 0
M  V30 4562 N 445.041 1.66623 5.36836 0
M  V30 4563 H 437.192 1.5117 1.49202 0
M  V30 4564 H 439.455 0.629327 0.708979 0
M  V30 4565 H 439.161 1.85909 2.98548 0
M  V30 4566 H 439.035 0.289975 3.76084 0
M  V30 4567 H 441.422 -0.265374 2.93904 0
M  V30 4568 H 441.503 1.33256 2.18349 0
M  V30 4569 H 441.147 2.408 4.47189 0
M  V30 4570 H 441.077 0.786689 5.20691 0
M  V30 4571 H 443.568 0.96037 3.65493 0
M  V30 4572 H 443.881 2.56226 7.29087 0
M  V30 4573 H 442.226 2.29775 6.55918 0
M  V30 4574 H 445.417 1.27089 4.50517 0
M  V30 4575 H 445.59 2.00115 6.16326 0
M  V30 4576 N 438.996 -1.55193 0.274407 0
M  V30 4577 C 440.407 -1.85358 -0.223488 0
M  V30 4578 C 440.758 -1.19642 -1.555 0
M  V30 4579 O 439.883 -0.484498 -2.10907 0
M  V30 4580 C 440.478 -3.36282 -0.412285 0
M  V30 4581 C 439.037 -3.66574 -0.854413 0
M  V30 4582 C 438.184 -2.7725 0.0527056 0
M  V30 4583 H 441.135 -1.50743 0.496215 0
M  V30 4584 H 441.156 -3.59349 -1.25094 0
M  V30 4585 H 440.668 -3.84083 0.556965 0
M  V30 4586 H 438.769 -3.24273 -1.83516 0
M  V30 4587 H 438.882 -4.74073 -0.692226 0
M  V30 4588 H 437.246 -2.50447 -0.463484 0
M  V30 4589 H 438.029 -3.27865 1.01783 0
M  V30 4590 N 440.474 -0.00167713 -1.576 0
M  V30 4591 C 441.885 0.54091 -1.78693 0
M  V30 4592 C 442.236 1.7386 -0.909247 0
M  V30 4593 O 441.361 2.16109 -0.112176 0
M  V30 4594 C 441.956 0.98806 -3.24072 0
M  V30 4595 C 440.515 1.47594 -3.46256 0
M  V30 4596 C 439.662 0.42792 -2.73978 0
M  V30 4597 H 442.613 -0.22784 -1.57056 0
M  V30 4598 H 442.634 1.85398 -3.32277 0
M  V30 4599 H 442.146 0.116164 -3.87926 0
M  V30 4600 H 440.247 2.36868 -2.87618 0
M  V30 4601 H 440.36 1.50225 -4.54939 0
M  V30 4602 H 438.724 0.889934 -2.38647 0
M  V30 4603 H 439.507 -0.435038 -3.40532 0
M  V30 4604 N 441.952 1.55251 0.271103 0
M  V30 4605 C 443.192 1.77698 1.01008 0
M  V30 4606 C 443.556 0.567246 1.83429 0
M  V30 4607 O 444.757 0.670013 2.60316 0
M  V30 4608 C 443.028 3.04715 1.86772 0
M  V30 4609 S 444.587 3.48289 2.66909 0
M  V30 4610 H 441.405 0.624343 0.340172 0
M  V30 4611 H 444.007 1.9348 0.280315 0
M  V30 4612 H 442.711 3.90853 1.25149 0
M  V30 4613 H 442.242 2.91604 2.64066 0
M  V30 4614 H 444.257 3.07712 3.89266 0
M  V30 4615 N 443.43 -0.535701 1.48216 0
M  V30 4616 C 444.846 -0.863701 1.3421 0
M  V30 4617 C 445.046 -1.98458 0.34879 0
M  V30 4618 O 444.102 -2.51432 -0.23204 0
M  V30 4619 C 445.415 -1.23662 2.74095 0
M  V30 4620 C 446.963 -1.34683 2.82541 0
M  V30 4621 C 447.438 -1.75322 4.23115 0
M  V30 4622 N 448.929 -1.82434 4.2576 0
M  V30 4623 C 449.664 -2.15252 5.31464 0
M  V30 4624 N 449.16 -2.46533 6.47452 0
M  V30 4625 N 450.953 -2.16209 5.18855 0
M  V30 4626 H 443.104 0.203965 2.11418 0
M  V30 4627 H 445.367 0.0286033 0.947568 0
M  V30 4628 H 445.073 -0.486674 3.48316 0
M  V30 4629 H 444.947 -2.18805 3.07253 0
M  V30 4630 H 447.334 -2.08756 2.08579 0
M  V30 4631 H 447.415 -0.376756 2.5301 0
M  V30 4632 H 447.059 -1.01812 4.97591 0
M  V30 4633 H 446.989 -2.7337 4.50085 0
M  V30 4634 H 449.48 -1.6056 3.42095 0
M  V30 4635 H 449.793 -2.70662 7.23852 0
M  V30 4636 H 448.138 -2.44065 6.50736 0
M  V30 4637 H 451.329 -1.91224 4.2726 0
M  V30 4638 H 451.502 -2.41453 6.01335 0
M  V30 4639 N 444.908 -1.36708 -0.784132 0
M  V30 4640 C 445.855 -1.31466 -1.89698 0
M  V30 4641 C 446.825 -0.18239 -1.65096 0
M  V30 4642 O 448.01 -0.369762 -1.87183 0
M  V30 4643 C 445.15 -1.1151 -3.26588 0
M  V30 4644 C 444.263 -2.33859 -3.63227 0
M  V30 4645 C 443.398 -2.06873 -4.89262 0
M  V30 4646 C 442.437 -3.25154 -5.18595 0
M  V30 4647 N 441.574 -2.978 -6.35814 0
M  V30 4648 H 446.414 -2.26619 -1.93515 0
M  V30 4649 H 443.951 -1.12625 -0.946256 0
M  V30 4650 H 445.909 -0.979653 -4.05535 0
M  V30 4651 H 444.539 -0.200103 -3.22179 0
M  V30 4652 H 443.591 -2.58188 -2.79362 0
M  V30 4653 H 444.903 -3.22109 -3.8085 0
M  V30 4654 H 444.057 -1.90289 -5.76086 0
M  V30 4655 H 442.796 -1.15942 -4.73718 0
M  V30 4656 H 441.801 -3.42292 -4.30251 0
M  V30 4657 H 443.026 -4.1692 -5.36055 0
M  V30 4658 H 440.972 -2.09485 -6.21653 0
M  V30 4659 H 440.889 -3.7959 -6.53794 0
M  V30 4660 H 442.157 -2.84805 -7.25607 0
M  V30 4661 N 446.386 1.0089 -1.21074 0
M  V30 4662 C 447.334 2.11707 -0.963476 0
M  V30 4663 C 448.328 1.69172 0.0879032 0
M  V30 4664 O 449.534 1.79889 -0.0631415 0
M  V30 4665 H 445.909 0.692026 -0.294287 0
M  V30 4666 H 447.88 2.29743 -1.90422 0
M  V30 4667 C 446.629 3.43473 -0.540509 0
M  V30 4668 H 445.952 3.76634 -1.34114 0
M  V30 4669 H 447.392 4.22044 -0.406777 0
M  V30 4670 C 445.851 3.2849 0.748079 0
M  V30 4671 O 446.381 3.58883 1.8046 0
M  V30 4672 N 444.587 2.81715 0.713081 0
M  V30 4673 H 444.134 2.5718 -0.146973 0
M  V30 4674 H 444.092 2.72071 1.57558 0
M  V30 4675 N 447.864 1.01787 1.20321 0
M  V30 4676 C 449.141 0.622978 1.85414 0
M  V30 4677 C 449.521 -0.898887 1.91006 0
M  V30 4678 O 448.869 -1.79112 1.41884 0
M  V30 4679 C 449.079 1.27226 3.24984 0
M  V30 4680 C 450.427 1.3885 4.01255 0
M  V30 4681 O 451.451 1.22857 3.34342 0
M  V30 4682 O 450.31 1.64705 5.2109 0
M  V30 4683 H 447.404 0.215116 0.798533 0
M  V30 4684 H 449.95 1.11533 1.27901 0
M  V30 4685 H 448.722 2.31209 3.15687 0
M  V30 4686 H 448.345 0.767069 3.90131 0
M  V30 4687 N 449.342 -1.36122 0.79427 0
M  V30 4688 C 450.619 -1.93398 0.292685 0
M  V30 4689 C 450.999 -1.72567 -1.21589 0
M  V30 4690 O 450.347 -1.08745 -2.00965 0
M  V30 4691 C 450.557 -3.42099 0.690614 0
M  V30 4692 C 451.905 -4.19231 0.673105 0
M  V30 4693 O 452.929 -3.50559 0.631389 0
M  V30 4694 O 451.788 -5.41732 0.720362 0
M  V30 4695 H 448.882 -0.823712 0.0736693 0
M  V30 4696 H 451.428 -1.45273 0.87714 0
M  V30 4697 H 450.2 -3.50938 1.73085 0
M  V30 4698 H 449.823 -3.97519 0.0803036 0
M  V30 4699 N 450.82 -0.546701 -1.47814 0
M  V30 4700 C 452.097 0.0464413 -1.95545 0
M  V30 4701 C 452.477 1.4962 -1.48919 0
M  V30 4702 O 451.825 2.16752 -0.723232 0
M  V30 4703 C 452.035 -0.0881298 -3.48889 0
M  V30 4704 C 453.383 0.0626059 -4.24554 0
M  V30 4705 O 454.407 -0.0151555 -3.56197 0
M  V30 4706 O 453.266 0.228071 -5.46024 0
M  V30 4707 H 450.36 0.0700004 -0.824032 0
M  V30 4708 H 452.906 -0.612482 -1.58262 0
M  V30 4709 H 451.678 -1.09737 -3.75597 0
M  V30 4710 H 451.301 0.608886 -3.9291 0
M  V30 4711 N 452.299 1.55045 -0.282633 0
M  V30 4712 C 453.524 2.04628 0.337977 0
M  V30 4713 C 453.949 1.15937 1.48123 0
M  V30 4714 O 453.307 0.159532 1.80597 0
M  V30 4715 C 453.355 3.51854 0.78936 0
M  V30 4716 O 452.459 3.66236 1.89592 0
M  V30 4717 H 451.8 0.660434 0.0687261 0
M  V30 4718 H 454.33 2.00261 -0.419124 0
M  V30 4719 H 454.34 3.93361 1.08311 0
M  V30 4720 H 453.015 4.15873 -0.0470419 0
M  V30 4721 H 451.592 3.36633 1.60413 0
M  V30 4722 N 453.777 0.010035 1.57597 0
M  V30 4723 C 455.002 -0.687021 1.95691 0
M  V30 4724 C 455.427 -1.65952 0.885519 0
M  V30 4725 O 454.785 -1.80633 -0.15543 0
M  V30 4726 C 454.833 -1.3864 3.32884 0
M  V30 4727 O 453.937 -2.50115 3.27897 0
M  V30 4728 H 453.278 -0.181989 0.638573 0
M  V30 4729 H 455.808 0.0662122 2.04493 0
M  V30 4730 H 455.818 -1.74754 3.6868 0
M  V30 4731 H 454.493 -0.673411 4.10412 0
M  V30 4732 H 453.07 -2.16253 3.03791 0
M  V30 4733 N 455.255 -1.55392 -0.262866 0
M  V30 4734 C 456.502 -1.76476 -0.993109 0
M  V30 4735 C 456.83 -0.571479 -1.85915 0
M  V30 4736 O 456.085 0.445733 -1.90556 0
M  V30 4737 C 456.384 -3.02889 -1.89718 0
M  V30 4738 C 456.05 -4.34974 -1.18781 0
M  V30 4739 C 454.712 -4.7087 -0.991699 0
M  V30 4740 C 457.064 -5.16695 -0.683798 0
M  V30 4741 C 454.392 -5.86036 -0.279024 0
M  V30 4742 C 456.744 -6.32598 0.0153327 0
M  V30 4743 C 455.408 -6.67127 0.223062 0
M  V30 4744 H 454.678 -0.64577 -0.363404 0
M  V30 4745 H 457.325 -1.89664 -0.264525 0
M  V30 4746 H 455.63 -2.84644 -2.6923 0
M  V30 4747 H 457.327 -3.16399 -2.46359 0
M  V30 4748 H 453.917 -4.06765 -1.35058 0
M  V30 4749 H 458.101 -4.8943 -0.8229 0
M  V30 4750 H 453.357 -6.11306 -0.107456 0
M  V30 4751 H 457.531 -6.95171 0.413584 0
M  V30 4752 H 455.158 -7.56216 0.777265 0
M  V30 4753 N 456.733 0.527833 -1.48498 0
M  V30 4754 C 457.979 1.28545 -1.56857 0
M  V30 4755 C 458.312 1.92678 -0.242651 0
M  V30 4756 O 457.587 1.79394 0.751545 0
M  V30 4757 C 457.87 2.37314 -2.70839 0
M  V30 4758 C 457.723 1.77858 -4.13142 0
M  V30 4759 C 459.042 3.39068 -2.80573 0
M  V30 4760 H 456.161 0.466006 -0.570971 0
M  V30 4761 H 458.803 0.587784 -1.8068 0
M  V30 4762 H 456.953 2.96821 -2.50658 0
M  V30 4763 H 458.625 1.22385 -4.44769 0
M  V30 4764 H 456.868 1.08383 -4.20042 0
M  V30 4765 H 457.539 2.56624 -4.88721 0
M  V30 4766 H 460.015 2.89518 -2.98862 0
M  V30 4767 H 458.891 4.12566 -3.6205 0
M  V30 4768 H 459.152 3.9975 -1.88818 0
M  V30 4769 N 458.211 1.37122 0.776871 0
M  V30 4770 C 459.488 1.22586 1.52421 0
M  V30 4771 C 459.868 -0.182726 2.10308 0
M  V30 4772 O 459.216 -1.18979 1.9508 0
M  V30 4773 C 459.426 2.31782 2.60918 0
M  V30 4774 C 460.774 2.69071 3.2846 0
M  V30 4775 O 461.798 2.3092 2.71209 0
M  V30 4776 O 460.657 3.3478 4.31954 0
M  V30 4777 H 457.751 0.478045 0.674835 0
M  V30 4778 H 460.297 1.48888 0.814275 0
M  V30 4779 H 459.069 3.26131 2.16227 0
M  V30 4780 H 458.692 2.06916 3.39517 0
M  V30 4781 N 459.689 -1.00246 1.21608 0
M  V30 4782 C 460.937 -1.73717 1.0328 0
M  V30 4783 C 461.258 -1.90102 -0.434318 0
M  V30 4784 O 460.528 -1.45376 -1.31311 0
M  V30 4785 H 459.108 -0.643613 0.379172 0
M  V30 4786 H 461.77 -1.20787 1.52959 0
M  V30 4787 H 460.866 -2.73535 1.50283 0
M  V30 4788 N 461.167 -1.02423 -1.1978 0
M  V30 4789 C 462.395 -0.737456 -1.93311 0
M  V30 4790 C 462.81 0.703023 -1.75223 0
M  V30 4791 O 462.167 1.47761 -1.07112 0
M  V30 4792 C 462.218 -1.0733 -3.45199 0
M  V30 4793 O 461.939 -2.4572 -3.62702 0
M  V30 4794 C 463.44 -0.80866 -4.35862 0
M  V30 4795 H 460.66 -0.2702 -0.614193 0
M  V30 4796 H 463.204 -1.36747 -1.52054 0
M  V30 4797 H 461.359 -0.488545 -3.84307 0
M  V30 4798 H 461.773 -2.58081 -4.56612 0
M  V30 4799 H 463.247 -1.09365 -5.41057 0
M  V30 4800 H 463.724 0.257025 -4.38447 0
M  V30 4801 H 464.33 -1.37592 -4.02428 0
M  V30 4802 N 462.645 1.35699 -0.801477 0
M  V30 4803 C 463.873 2.03157 -0.391768 0
M  V30 4804 C 464.288 1.60412 0.995668 0
M  V30 4805 O 463.645 0.799228 1.64069 0
M  V30 4806 C 463.696 3.58566 -0.459671 0
M  V30 4807 O 463.417 3.99756 -1.7924 0
M  V30 4808 C 464.918 4.4328 -0.0421205 0
M  V30 4809 H 462.138 0.651688 -0.159825 0
M  V30 4810 H 464.682 1.73426 -1.08368 0
M  V30 4811 H 462.837 3.86963 0.183939 0
M  V30 4812 H 463.251 4.94387 -1.75162 0
M  V30 4813 H 464.725 5.51821 -0.140754 0
M  V30 4814 H 465.202 4.27383 1.01196 0
M  V30 4815 H 465.808 4.20168 -0.658687 0
M  V30 4816 N 464.123 0.554532 1.47522 0
M  V30 4817 C 465.071 -0.207765 2.3167 0
M  V30 4818 C 466.065 -0.911914 1.4276 0
M  V30 4819 O 467.271 -0.833504 1.59539 0
M  V30 4820 H 463.646 -0.0858726 0.747081 0
M  V30 4821 H 465.617 0.521178 2.93813 0
M  V30 4822 C 464.366 -1.2263 3.25357 0
M  V30 4823 H 463.689 -0.693887 3.93732 0
M  V30 4824 H 465.129 -1.73062 3.87073 0
M  V30 4825 C 463.588 -2.27278 2.4869 0
M  V30 4826 O 464.118 -3.34156 2.22941 0
M  V30 4827 N 462.324 -2.01134 2.09746 0
M  V30 4828 H 461.871 -1.14232 2.30887 0
M  V30 4829 H 461.829 -2.71369 1.58765 0
M  V30 4830 N 465.601 -1.54893 0.290851 0
M  V30 4831 C 466.849 -1.99538 -0.320756 0
M  V30 4832 C 467.17 -1.18075 -1.55188 0
M  V30 4833 O 466.44 -0.274162 -1.93972 0
M  V30 4834 H 465.02 -0.737052 -0.121507 0
M  V30 4835 H 467.682 -1.90755 0.399832 0
M  V30 4836 H 466.778 -3.06282 -0.599802 0
M  V30 4837 N 467.08 -0.0183926 -1.57589 0
M  V30 4838 C 468.328 0.661253 -1.90976 0
M  V30 4839 C 468.649 1.73281 -0.894353 0
M  V30 4840 O 467.919 1.9579 0.0656788 0
M  V30 4841 H 466.499 0.247233 -0.704901 0
M  V30 4842 H 469.161 -0.0636639 -1.94796 0
M  V30 4843 H 468.257 1.12083 -2.9128 0
M  V30 4844 N 468.558 1.5553 0.254621 0
M  V30 4845 C 469.521 1.88872 1.29846 0
M  V30 4846 C 470.521 0.764591 1.41459 0
M  V30 4847 O 471.711 1.03265 1.40293 0
M  V30 4848 C 468.843 2.11032 2.67728 0
M  V30 4849 H 470.036 2.82201 1.01502 0
M  V30 4850 H 467.589 1.48303 0.493556 0
M  V30 4851 H 468.324 1.20146 3.01223 0
M  V30 4852 H 468.109 2.92895 2.60682 0
M  V30 4853 H 469.599 2.38038 3.43115 0
M  V30 4854 N 470.036 -0.519951 1.48776 0
M  V30 4855 C 471.282 -1.27456 1.58514 0
M  V30 4856 C 471.637 -1.90634 0.260057 0
M  V30 4857 O 470.93 -1.76815 -0.738036 0
M  V30 4858 C 471.124 -2.37864 2.6675 0
M  V30 4859 C 470.953 -1.85509 4.09654 0
M  V30 4860 C 469.723 -1.67661 4.76674 0
M  V30 4861 C 471.921 -1.37783 4.955 0
M  V30 4862 N 469.903 -1.10037 6.03958 0
M  V30 4863 C 471.274 -0.921714 6.1311 0
M  V30 4864 C 473.329 -1.26179 4.81646 0
M  V30 4865 C 472.032 -0.361057 7.18393 0
M  V30 4866 C 474.058 -0.715121 5.8706 0
M  V30 4867 C 473.42 -0.269132 7.03886 0
M  V30 4868 H 469.519 -0.457049 0.634531 0
M  V30 4869 H 472.103 -0.585073 1.85701 0
M  V30 4870 H 470.274 -3.04296 2.41367 0
M  V30 4871 H 472.006 -3.04901 2.66116 0
M  V30 4872 H 468.761 -1.91478 4.33166 0
M  V30 4873 H 469.185 -0.832067 6.71867 0
M  V30 4874 H 473.827 -1.59263 3.91657 0
M  V30 4875 H 471.545 -0.0179127 8.08098 0
M  V30 4876 H 475.131 -0.628376 5.78397 0
M  V30 4877 H 474.011 0.14729 7.84062 0
M  V30 4878 N 471.514 -1.37532 -0.769588 0
M  V30 4879 C 472.744 -1.35861 -1.55645 0
M  V30 4880 C 473.152 0.0574398 -1.89113 0
M  V30 4881 O 472.495 1.03021 -1.52093 0
M  V30 4882 C 472.557 -2.13431 -2.89288 0
M  V30 4883 C 472.221 -3.62378 -2.78444 0
M  V30 4884 C 473.218 -4.56215 -2.49326 0
M  V30 4885 C 470.903 -4.05529 -2.96398 0
M  V30 4886 C 472.897 -5.91181 -2.38294 0
M  V30 4887 C 470.584 -5.40579 -2.84987 0
M  V30 4888 C 471.582 -6.33218 -2.55975 0
M  V30 4889 O 471.27 -7.65787 -2.44594 0
M  V30 4890 H 471.002 -0.467001 -0.48876 0
M  V30 4891 H 473.556 -1.81505 -0.961515 0
M  V30 4892 H 471.786 -1.62481 -3.50909 0
M  V30 4893 H 473.475 -2.04368 -3.50697 0
M  V30 4894 H 474.241 -4.24187 -2.35139 0
M  V30 4895 H 470.12 -3.33781 -3.1798 0
M  V30 4896 H 473.664 -6.63457 -2.15571 0
M  V30 4897 H 469.561 -5.72209 -2.98743 0
M  V30 4898 H 470.329 -7.76132 -2.59927 0
M  V30 4899 N 472.992 0.995999 -1.22138 0
M  V30 4900 C 474.217 1.77601 -1.0711 0
M  V30 4901 C 474.642 1.84339 0.374264 0
M  V30 4902 O 474 1.29359 1.27028 0
M  V30 4903 C 474.048 3.18897 -1.68336 0
M  V30 4904 O 473.152 4.01663 -0.934928 0
M  V30 4905 H 472.493 0.547011 -0.376397 0
M  V30 4906 H 475.023 1.25137 -1.6187 0
M  V30 4907 H 475.033 3.69539 -1.72931 0
M  V30 4908 H 473.708 3.13308 -2.73516 0
M  V30 4909 H 472.285 3.60204 -0.964751 0
M  V30 4910 N 474.47 1.03057 1.19235 0
M  V30 4911 C 475.716 0.729098 1.89241 0
M  V30 4912 C 476.049 -0.740573 1.79525 0
M  V30 4913 O 475.324 -1.53946 1.18874 0
M  V30 4914 C 475.607 1.18304 3.40112 0
M  V30 4915 C 475.46 2.71406 3.5869 0
M  V30 4916 C 476.779 0.765161 4.33397 0
M  V30 4917 H 473.898 0.266338 0.687192 0
M  V30 4918 H 476.54 1.28079 1.40341 0
M  V30 4919 H 474.69 0.713672 3.81889 0
M  V30 4920 H 476.362 3.26303 3.26074 0
M  V30 4921 H 474.605 3.11717 3.01687 0
M  V30 4922 H 475.276 2.98225 4.64506 0
M  V30 4923 H 477.752 1.16889 3.99345 0
M  V30 4924 H 476.628 1.11065 5.37546 0
M  V30 4925 H 476.889 -0.332372 4.40849 0
M  V30 4926 N 475.948 -1.35272 0.808662 0
M  V30 4927 C 477.359 -1.81179 0.450688 0
M  V30 4928 C 477.71 -1.67143 -1.02751 0
M  V30 4929 O 476.835 -1.20325 -1.79864 0
M  V30 4930 C 477.43 -3.28943 0.811275 0
M  V30 4931 C 475.989 -3.72985 0.505871 0
M  V30 4932 C 475.136 -2.57229 1.03578 0
M  V30 4933 H 478.087 -1.2322 1.00012 0
M  V30 4934 H 478.108 -3.80342 0.109588 0
M  V30 4935 H 477.62 -3.39127 1.88718 0
M  V30 4936 H 475.721 -3.68349 -0.561209 0
M  V30 4937 H 475.834 -4.67677 1.03995 0
M  V30 4938 H 474.198 -2.50548 0.458005 0
M  V30 4939 H 474.981 -2.7019 2.11784 0
M  V30 4940 N 477.426 -0.562348 -1.47226 0
M  V30 4941 C 478.674 -0.0401371 -2.0206 0
M  V30 4942 C 478.995 1.3165 -1.43852 0
M  V30 4943 O 478.265 1.85976 -0.615599 0
M  V30 4944 H 476.845 -0.0118479 -0.746906 0
M  V30 4945 H 479.507 -0.73352 -1.8057 0
M  V30 4946 H 478.603 0.0441254 -3.12069 0
M  V30 4947 N 478.904 1.54736 -0.299062 0
M  V30 4948 C 480.152 1.99706 0.31017 0
M  V30 4949 C 480.473 1.18896 1.54559 0
M  V30 4950 O 479.743 0.284445 1.93824 0
M  V30 4951 H 478.323 0.737686 0.117596 0
M  V30 4952 H 480.985 1.9054 -0.409943 0
M  V30 4953 H 480.081 3.06596 0.58355 0
M  V30 4954 N 480.382 0.0267497 1.57577 0
M  V30 4955 C 481.315 -0.99059 2.05579 0
M  V30 4956 C 482.293 -1.31884 0.951065 0
M  V30 4957 O 483.477 -1.43592 1.22121 0
M  V30 4958 C 480.604 -2.31125 2.47586 0
M  V30 4959 C 479.65 -2.13777 3.69055 0
M  V30 4960 S 480.483 -1.4388 5.15809 0
M  V30 4961 C 481.639 -2.77321 5.6111 0
M  V30 4962 H 481.872 -0.581976 2.91548 0
M  V30 4963 H 479.405 -0.184876 1.53289 0
M  V30 4964 H 481.363 -3.07049 2.72454 0
M  V30 4965 H 480.024 -2.6912 1.61967 0
M  V30 4966 H 479.217 -3.11405 3.96287 0
M  V30 4967 H 478.819 -1.45996 3.44327 0
M  V30 4968 H 481.111 -3.73565 5.65204 0
M  V30 4969 H 482.054 -2.54756 6.60685 0
M  V30 4970 H 482.462 -2.82459 4.88751 0
M  V30 4971 N 481.861 -1.55662 -0.24637 0
M  V30 4972 C 482.793 -1.86811 -1.32794 0
M  V30 4973 C 483.806 -0.754413 -1.44265 0
M  V30 4974 O 484.995 -1.03253 -1.45606 0
M  V30 4975 C 482.095 -2.0397 -2.70646 0
M  V30 4976 C 481.268 -3.34832 -2.81436 0
M  V30 4977 C 480.327 -3.41727 -4.00136 0
M  V30 4978 O 479.353 -4.14934 -3.89639 0
M  V30 4979 N 480.555 -2.71058 -5.1333 0
M  V30 4980 H 483.32 -2.80174 -1.06409 0
M  V30 4981 H 480.881 -1.55906 -0.43647 0
M  V30 4982 H 482.873 -2.05924 -3.48393 0
M  V30 4983 H 481.443 -1.1735 -2.89738 0
M  V30 4984 H 480.663 -3.4519 -1.90361 0
M  V30 4985 H 481.951 -4.21085 -2.85595 0
M  V30 4986 H 481.349 -2.11314 -5.2475 0
M  V30 4987 H 479.906 -2.78704 -5.89209 0
M  V30 4988 N 483.339 0.512053 -1.4905 0
M  V30 4989 C 484.616 1.27337 -1.48474 0
M  V30 4990 C 484.996 2.1009 -0.206301 0
M  V30 4991 O 484.344 2.136 0.811609 0
M  V30 4992 C 484.554 2.13954 -2.75726 0
M  V30 4993 C 485.902 2.73507 -3.24776 0
M  V30 4994 O 486.926 2.24229 -2.76767 0
M  V30 4995 O 485.785 3.63186 -4.08361 0
M  V30 4996 H 482.879 0.575652 -0.593762 0
M  V30 4997 H 485.425 0.527232 -1.61302 0
M  V30 4998 H 484.197 1.52709 -3.60272 0
M  V30 4999 H 483.82 2.95782 -2.65705 0
M  V30 5000 N 484.817 1.37938 0.762283 0
M  V30 5001 C 486.064 1.33668 1.52115 0
M  V30 5002 C 486.392 -0.0759538 1.94352 0
M  V30 5003 O 485.647 -1.05121 1.6507 0
M  V30 5004 C 485.946 2.23042 2.79261 0
M  V30 5005 C 485.612 3.71159 2.56031 0
M  V30 5006 C 484.274 4.11523 2.49404 0
M  V30 5007 C 486.626 4.64955 2.35513 0
M  V30 5008 C 483.954 5.43784 2.20263 0
M  V30 5009 C 486.306 5.97464 2.07894 0
M  V30 5010 C 484.97 6.36922 1.99718 0
M  V30 5011 H 484.24 0.489127 0.556629 0
M  V30 5012 H 486.887 1.70224 0.877262 0
M  V30 5013 H 485.192 1.79512 3.48256 0
M  V30 5014 H 486.889 2.17047 3.37182 0
M  V30 5015 H 483.479 3.39153 2.62056 0
M  V30 5016 H 487.663 4.34623 2.39617 0
M  V30 5017 H 482.919 5.73307 2.12435 0
M  V30 5018 H 487.093 6.6969 1.91019 0
M  V30 5019 H 484.72 7.39331 1.76902 0
M  V30 5020 N 486.295 -0.989507 1.22664 0
M  V30 5021 C 487.243 -2.10148 0.997035 0
M  V30 5022 C 488.237 -1.6929 -0.0609783 0
M  V30 5023 O 489.443 -1.79766 0.0917523 0
M  V30 5024 H 485.818 -0.687256 0.305259 0
M  V30 5025 H 487.789 -2.26685 1.94053 0
M  V30 5026 C 486.538 -3.4257 0.595085 0
M  V30 5027 H 485.861 -3.74453 1.40089 0
M  V30 5028 H 487.301 -4.21344 0.473869 0
M  V30 5029 C 485.76 -3.29638 -0.695725 0
M  V30 5030 O 486.29 -3.61709 -1.74727 0
M  V30 5031 N 484.496 -2.82814 -0.668173 0
M  V30 5032 H 484.043 -2.56914 0.18787 0
M  V30 5033 H 484.001 -2.74544 -1.5321 0
M  V30 5034 N 487.773 -1.03688 -1.18687 0
M  V30 5035 C 489.003 -0.756819 -1.92239 0
M  V30 5036 C 489.411 0.689374 -1.76194 0
M  V30 5037 O 488.754 1.48126 -1.08648 0
M  V30 5038 C 488.816 -1.03851 -3.44173 0
M  V30 5039 C 488.48 -2.47785 -3.83994 0
M  V30 5040 C 489.477 -3.4595 -3.88091 0
M  V30 5041 C 487.162 -2.82397 -4.154 0
M  V30 5042 C 489.156 -4.76779 -4.23038 0
M  V30 5043 C 486.843 -4.13433 -4.50018 0
M  V30 5044 C 487.841 -5.10434 -4.53813 0
M  V30 5045 O 487.529 -6.39122 -4.87625 0
M  V30 5046 H 487.261 -0.275678 -0.617234 0
M  V30 5047 H 489.815 -1.38658 -1.51536 0
M  V30 5048 H 488.045 -0.351612 -3.85098 0
M  V30 5049 H 489.734 -0.746846 -3.9897 0
M  V30 5050 H 490.5 -3.20549 -3.63969 0
M  V30 5051 H 486.379 -2.07568 -4.11627 0
M  V30 5052 H 489.923 -5.52488 -4.25914 0
M  V30 5053 H 485.82 -4.38604 -4.736 0
M  V30 5054 H 486.588 -6.43715 -5.05542 0
M  V30 5055 N 489.251 1.34841 -0.815825 0
M  V30 5056 C 490.181 2.32187 -0.247298 0
M  V30 5057 C 491.162 1.5791 0.632344 0
M  V30 5058 O 492.347 1.8593 0.560698 0
M  V30 5059 C 489.477 3.42122 0.597466 0
M  V30 5060 C 488.431 4.27602 -0.184446 0
M  V30 5061 C 487.757 5.28942 0.782609 0
M  V30 5062 C 489.057 5.03502 -1.38865 0
M  V30 5063 H 490.751 2.79985 -1.06061 0
M  V30 5064 H 488.297 1.34611 -0.511461 0
M  V30 5065 H 490.25 4.09232 1.00533 0
M  V30 5066 H 488.974 2.92956 1.44376 0
M  V30 5067 H 487.633 3.62085 -0.573592 0
M  V30 5068 H 487.281 4.7604 1.62466 0
M  V30 5069 H 486.981 5.87008 0.263695 0
M  V30 5070 H 488.505 5.98922 1.18848 0
M  V30 5071 H 489.919 5.63506 -1.05518 0
M  V30 5072 H 488.316 5.71108 -1.8427 0
M  V30 5073 H 489.386 4.33608 -2.17054 0
M  V30 5074 N 490.729 0.570148 1.46925 0
M  V30 5075 C 491.954 0.0542592 2.07329 0
M  V30 5076 C 492.379 -1.23582 1.41806 0
M  V30 5077 O 491.737 -1.74341 0.497479 0
M  V30 5078 C 491.785 -0.111175 3.60429 0
M  V30 5079 O 490.889 -1.17071 3.95434 0
M  V30 5080 H 490.23 0.0571425 0.661537 0
M  V30 5081 H 492.76 0.789516 1.88753 0
M  V30 5082 H 492.77 -0.321315 4.06733 0
M  V30 5083 H 491.445 0.831012 4.07513 0
M  V30 5084 H 490.022 -0.940029 3.60857 0
M  V30 5085 N 492.207 -1.54576 0.307264 0
M  V30 5086 C 493.432 -2.05139 -0.305379 0
M  V30 5087 C 493.857 -1.18278 -1.46259 0
M  V30 5088 O 493.215 -0.188243 -1.8032 0
M  V30 5089 C 493.263 -3.53066 -0.733283 0
M  V30 5090 O 492.367 -3.69206 -1.83741 0
M  V30 5091 H 491.708 -0.661444 -0.0582105 0
M  V30 5092 H 494.238 -1.99569 0.450931 0
M  V30 5093 H 494.248 -3.95034 -1.02039 0
M  V30 5094 H 492.923 -4.15746 0.113198 0
M  V30 5095 H 491.5 -3.39143 -1.55037 0
M  V30 5096 N 493.685 -0.035106 -1.57561 0
M  V30 5097 C 494.633 0.962707 -2.11742 0
M  V30 5098 C 495.627 1.33296 -1.0454 0
M  V30 5099 O 496.833 1.31449 -1.22968 0
M  V30 5100 H 493.208 0.32826 -0.676572 0
M  V30 5101 H 495.179 0.48048 -2.94506 0
M  V30 5102 C 493.928 2.23388 -2.66445 0
M  V30 5103 H 493.251 1.95774 -3.48587 0
M  V30 5104 H 494.691 2.91402 -3.07995 0
M  V30 5105 C 493.15 2.96769 -1.59467 0
M  V30 5106 O 493.68 3.89105 -0.998 0
M  V30 5107 N 491.886 2.59212 -1.31369 0
M  V30 5108 H 491.433 1.84202 -1.80076 0
M  V30 5109 H 491.391 3.08618 -0.600173 0
M  V30 5110 N 495.163 1.55791 0.238111 0
M  V30 5111 C 496.403 1.79801 0.972163 0
M  V30 5112 C 496.767 0.606027 1.82185 0
M  V30 5113 O 497.968 0.725079 2.58836 0
M  V30 5114 C 496.239 3.08608 1.80266 0
M  V30 5115 S 497.798 3.53872 2.59461 0
M  V30 5116 H 494.616 0.631418 0.326852 0
M  V30 5117 H 497.218 1.94031 0.239212 0
M  V30 5118 H 495.922 3.93419 1.1683 0
M  V30 5119 H 495.453 2.9714 2.57821 0
M  V30 5120 H 497.468 3.15899 3.82651 0
M  V30 5121 N 496.642 -0.504142 1.49319 0
M  V30 5122 C 497.889 -1.25846 1.58647 0
M  V30 5123 C 498.217 -1.92592 0.27177 0
M  V30 5124 O 497.472 -1.81167 -0.74007 0
M  V30 5125 C 497.771 -2.35021 2.69258 0
M  V30 5126 C 497.437 -1.85755 4.1086 0
M  V30 5127 C 496.099 -1.72038 4.49395 0
M  V30 5128 C 498.451 -1.48844 4.99495 0
M  V30 5129 C 495.779 -1.19783 5.74342 0
M  V30 5130 C 498.131 -0.980422 6.24956 0
M  V30 5131 C 496.795 -0.829622 6.62324 0
M  V30 5132 H 496.065 -0.460505 0.580531 0
M  V30 5133 H 498.712 -0.559716 1.83138 0
M  V30 5134 H 497.017 -3.10672 2.38726 0
M  V30 5135 H 498.714 -2.93083 2.73685 0
M  V30 5136 H 495.304 -1.9739 3.80441 0
M  V30 5137 H 499.488 -1.5829 4.70381 0
M  V30 5138 H 494.744 -1.06817 6.01997 0
M  V30 5139 H 498.918 -0.685608 6.93017 0
M  V30 5140 H 496.545 -0.42253 7.59025 0
M  V30 5141 N 498.12 -1.38341 -0.754957 0
M  V30 5142 C 499.03 -1.3769 -1.89944 0
M  V30 5143 C 500.046 -0.274194 -1.71826 0
M  V30 5144 O 501.222 -0.512391 -1.94773 0
M  V30 5145 C 498.287 -1.19938 -3.25293 0
M  V30 5146 C 497.348 -2.40001 -3.55946 0
M  V30 5147 C 496.581 -2.23087 -4.84838 0
M  V30 5148 O 496.804 -1.22386 -5.57116 0
M  V30 5149 O 495.738 -3.11646 -5.14937 0
M  V30 5150 H 499.564 -2.3412 -1.93446 0
M  V30 5151 H 497.149 -1.19246 -0.900044 0
M  V30 5152 H 499.031 -1.12093 -4.06218 0
M  V30 5153 H 497.706 -0.265919 -3.22606 0
M  V30 5154 H 496.613 -2.53421 -2.75188 0
M  V30 5155 H 497.946 -3.31973 -3.63394 0
M  V30 5156 N 499.598 0.982988 -1.23187 0
M  V30 5157 C 500.847 1.71817 -1.05649 0
M  V30 5158 C 501.16 1.91315 0.407176 0
M  V30 5159 O 502.366 2.62256 0.702436 0
M  V30 5160 C 500.822 3.09188 -1.84203 0
M  V30 5161 C 500.43 2.97586 -3.34882 0
M  V30 5162 C 502.174 3.86684 -1.75146 0
M  V30 5163 C 500.081 4.30173 -4.05839 0
M  V30 5164 H 499.011 0.644258 -0.391724 0
M  V30 5165 H 501.662 1.09659 -1.4713 0
M  V30 5166 H 500.044 3.72087 -1.35527 0
M  V30 5167 H 501.218 2.43793 -3.91026 0
M  V30 5168 H 499.533 2.33567 -3.44725 0
M  V30 5169 H 502.13 4.84836 -2.25473 0
M  V30 5170 H 502.473 4.10136 -0.713737 0
M  V30 5171 H 503.006 3.30482 -2.21419 0
M  V30 5172 H 499.745 4.11918 -5.09906 0
M  V30 5173 H 499.265 4.83841 -3.54482 0
M  V30 5174 H 500.944 4.98873 -4.11989 0
M  V30 5175 N 501.076 1.04316 1.18135 0
M  V30 5176 C 502.304 0.768117 1.92113 0
M  V30 5177 C 502.719 -0.675057 1.76319 0
M  V30 5178 O 502.076 -1.46038 1.09449 0
M  V30 5179 C 502.127 1.12808 3.43448 0
M  V30 5180 O 501.848 2.5146 3.58747 0
M  V30 5181 C 503.349 0.8779 4.3452 0
M  V30 5182 H 500.569 0.279937 0.609817 0
M  V30 5183 H 503.113 1.39149 1.49859 0
M  V30 5184 H 501.268 0.549623 3.83481 0
M  V30 5185 H 501.682 2.65313 4.52448 0
M  V30 5186 H 503.156 1.17959 5.39249 0
M  V30 5187 H 503.633 -0.187239 4.38801 0
M  V30 5188 H 504.239 1.43977 4.00188 0
M  V30 5189 N 502.554 -1.34406 0.822964 0
M  V30 5190 C 503.8 -1.98578 0.411666 0
M  V30 5191 C 504.133 -1.65093 -1.02264 0
M  V30 5192 O 503.408 -0.92258 -1.71227 0
M  V30 5193 C 503.691 -3.54823 0.614235 0
M  V30 5194 C 503.544 -3.9805 2.09466 0
M  V30 5195 C 504.863 -4.40071 0.050221 0
M  V30 5196 H 501.982 -0.721355 0.151047 0
M  V30 5197 H 504.624 -1.59301 1.03554 0
M  V30 5198 H 502.774 -3.88411 0.0831774 0
M  V30 5199 H 504.446 -3.74795 2.68936 0
M  V30 5200 H 502.689 -3.4836 2.5851 0
M  V30 5201 H 503.36 -5.06819 2.18721 0
M  V30 5202 H 505.836 -4.13037 0.503953 0
M  V30 5203 H 504.712 -5.48452 0.221759 0
M  V30 5204 H 504.973 -4.29576 -1.04482 0
M  V30 5205 N 504.032 -0.577932 -1.46621 0
M  V30 5206 C 504.942 0.160651 -2.34049 0
M  V30 5207 C 505.958 0.890911 -1.49462 0
M  V30 5208 O 507.134 0.855166 -1.82343 0
M  V30 5209 C 504.199 1.16447 -3.26559 0
M  V30 5210 C 503.26 0.4394 -4.27045 0
M  V30 5211 C 502.493 1.3954 -5.15135 0
M  V30 5212 O 502.716 2.63162 -5.06065 0
M  V30 5213 O 501.65 0.908585 -5.95003 0
M  V30 5214 H 505.476 -0.557057 -2.98547 0
M  V30 5215 H 503.061 -0.338369 -1.45518 0
M  V30 5216 H 504.943 1.7434 -3.83645 0
M  V30 5217 H 503.618 1.86373 -2.64663 0
M  V30 5218 H 502.525 -0.181247 -3.73661 0
M  V30 5219 H 503.858 -0.218799 -4.91713 0
M  V30 5220 N 505.51 1.54411 -0.315457 0
M  V30 5221 C 506.44 2.27002 0.547039 0
M  V30 5222 C 507.421 1.27492 1.12605 0
M  V30 5223 O 508.606 1.5629 1.15269 0
M  V30 5224 C 505.736 3.02171 1.71201 0
M  V30 5225 C 504.69 4.0895 1.26268 0
M  V30 5226 C 504.016 4.71915 2.51396 0
M  V30 5227 C 505.316 5.20891 0.383419 0
M  V30 5228 H 507.01 2.99343 -0.0584517 0
M  V30 5229 H 504.556 1.4397 -0.0295527 0
M  V30 5230 H 506.509 3.51681 2.32161 0
M  V30 5231 H 505.233 2.27433 2.34397 0
M  V30 5232 H 503.892 3.60312 0.676062 0
M  V30 5233 H 503.54 3.93801 3.12937 0
M  V30 5234 H 503.24 5.44039 2.22026 0
M  V30 5235 H 504.764 5.24195 3.13133 0
M  V30 5236 H 506.178 5.66206 0.899082 0
M  V30 5237 H 504.575 5.99821 0.182857 0
M  V30 5238 H 505.645 4.81324 -0.587821 0
M  V30 5239 N 506.988 0.0434614 1.5754 0
M  V30 5240 C 508.213 -0.645358 1.97104 0
M  V30 5241 C 508.638 -1.64037 0.920521 0
M  V30 5242 O 507.996 -1.80922 -0.11708 0
M  V30 5243 C 508.044 -1.31547 3.35749 0
M  V30 5244 O 507.148 -2.43103 3.33129 0
M  V30 5245 H 506.489 -0.168403 0.64229 0
M  V30 5246 H 509.019 0.109573 2.04306 0
M  V30 5247 H 509.029 -1.66895 3.72304 0
M  V30 5248 H 507.704 -0.586205 4.11748 0
M  V30 5249 H 506.281 -2.0976 3.0831 0
M  V30 5250 N 508.466 -1.55915 -0.229846 0
M  V30 5251 C 509.706 -1.80314 -0.962614 0
M  V30 5252 C 510.07 -0.61568 -1.81861 0
M  V30 5253 O 511.271 -0.738795 -2.58448 0
M  V30 5254 C 509.542 -3.0956 -1.78627 0
M  V30 5255 S 511.101 -3.55243 -2.57581 0
M  V30 5256 H 507.919 -0.633142 -0.323499 0
M  V30 5257 H 510.521 -1.94155 -0.228919 0
M  V30 5258 H 509.225 -3.94033 -1.14742 0
M  V30 5259 H 508.756 -2.98503 -2.56241 0
M  V30 5260 H 510.771 -3.17924 -3.80971 0
M  V30 5261 N 509.944 0.496216 -1.49584 0
M  V30 5262 C 510.854 1.62352 -1.69349 0
M  V30 5263 C 511.87 1.64184 -0.576147 0
M  V30 5264 O 513.046 1.82517 -0.85144 0
M  V30 5265 C 510.111 2.98698 -1.76013 0
M  V30 5266 C 509.172 3.07454 -2.99617 0
M  V30 5267 C 508.405 4.37296 -3.05953 0
M  V30 5268 O 508.628 5.2637 -2.19752 0
M  V30 5269 O 507.562 4.51124 -3.9846 0
M  V30 5270 H 511.388 1.48606 -2.64859 0
M  V30 5271 H 508.973 0.673022 -1.33382 0
M  V30 5272 H 510.855 3.79725 -1.82721 0
M  V30 5273 H 509.53 3.12696 -0.836828 0
M  V30 5274 H 508.437 2.25597 -2.98424 0
M  V30 5275 H 509.77 2.98385 -3.91443 0
M  V30 5276 N 511.423 1.38739 0.74761 0
M  V30 5277 C 512.37 1.36449 1.86146 0
M  V30 5278 C 513.34 0.226098 1.64554 0
M  V30 5279 O 514.525 0.41926 1.86137 0
M  V30 5280 C 511.665 1.2013 3.23516 0
M  V30 5281 C 510.778 2.43407 3.56899 0
M  V30 5282 C 509.913 2.19773 4.83605 0
M  V30 5283 C 508.952 3.3879 5.09792 0
M  V30 5284 N 508.089 3.14553 6.27695 0
M  V30 5285 H 512.929 2.3167 1.87438 0
M  V30 5286 H 510.466 1.15094 0.916063 0
M  V30 5287 H 512.424 1.08683 4.02795 0
M  V30 5288 H 511.054 0.285453 3.21535 0
M  V30 5289 H 510.106 2.65504 2.72418 0
M  V30 5290 H 511.418 3.32094 3.72176 0
M  V30 5291 H 510.572 2.05496 5.70838 0
M  V30 5292 H 509.311 1.28461 4.70478 0
M  V30 5293 H 508.316 3.53579 4.21025 0
M  V30 5294 H 509.541 4.30986 5.24812 0
M  V30 5295 H 507.487 2.25893 6.1588 0
M  V30 5296 H 507.404 3.96791 6.435 0
M  V30 5297 H 508.672 3.03943 7.17801 0
M  V30 5298 N 512.901 -0.976442 1.23707 0
M  V30 5299 C 514.148 -1.71827 1.07153 0
M  V30 5300 C 514.476 -1.9053 -0.390982 0
M  V30 5301 O 513.731 -1.45779 -1.30564 0
M  V30 5302 C 514.03 -3.11814 1.74662 0
M  V30 5303 C 513.696 -3.12978 3.24585 0
M  V30 5304 C 512.358 -3.13003 3.6549 0
M  V30 5305 C 514.71 -3.07986 4.20469 0
M  V30 5306 C 512.038 -3.05757 5.00729 0
M  V30 5307 C 514.39 -3.02282 5.55705 0
M  V30 5308 C 513.054 -3.00631 5.95968 0
M  V30 5309 H 512.324 -0.628758 0.392102 0
M  V30 5310 H 514.971 -1.14239 1.53693 0
M  V30 5311 H 513.276 -3.72812 1.20492 0
M  V30 5312 H 514.973 -3.67989 1.59328 0
M  V30 5313 H 511.563 -3.13718 2.92026 0
M  V30 5314 H 515.747 -3.07103 3.89874 0
M  V30 5315 H 511.003 -3.02834 5.31132 0
M  V30 5316 H 515.177 -2.97376 6.29714 0
M  V30 5317 H 512.804 -2.94771 7.00724 0
M  V30 5318 N 514.379 -1.04941 -1.1758 0
M  V30 5319 C 515.79 -0.784501 -1.69418 0
M  V30 5320 C 516.141 0.693625 -1.8353 0
M  V30 5321 O 515.266 1.53925 -1.52106 0
M  V30 5322 C 515.861 -1.41746 -3.07723 0
M  V30 5323 C 514.42 -1.20066 -3.56737 0
M  V30 5324 C 513.567 -1.5026 -2.33061 0
M  V30 5325 H 516.518 -1.21469 -1.02133 0
M  V30 5326 H 516.539 -0.825381 -3.7144 0
M  V30 5327 H 516.051 -2.49325 -2.9742 0
M  V30 5328 H 514.152 -0.144006 -3.72322 0
M  V30 5329 H 514.265 -1.90384 -4.39648 0
M  V30 5330 H 512.629 -0.922598 -2.37403 0
M  V30 5331 H 513.412 -2.58967 -2.25368 0
M  V30 5332 N 515.857 1.33968 -0.830081 0
M  V30 5333 C 517.268 1.80439 -0.479455 0
M  V30 5334 C 517.619 1.68756 1.00079 0
M  V30 5335 O 516.744 1.23171 1.77927 0
M  V30 5336 C 517.339 3.27611 -0.863505 0
M  V30 5337 C 515.898 3.72133 -0.565145 0
M  V30 5338 C 515.045 2.55549 -1.07657 0
M  V30 5339 H 517.996 1.21614 -1.0196 0
M  V30 5340 H 518.017 3.8012 -0.170083 0
M  V30 5341 H 517.529 3.36082 -1.94089 0
M  V30 5342 H 515.63 3.69196 0.502536 0
M  V30 5343 H 515.743 4.65963 -1.11422 0
M  V30 5344 H 514.107 2.49788 -0.497807 0
M  V30 5345 H 514.89 2.66786 -2.16055 0
M  V30 5346 N 517.335 0.585699 1.46312 0
M  V30 5347 C 518.245 -0.148236 2.34131 0
M  V30 5348 C 519.261 -0.882972 1.49932 0
M  V30 5349 O 520.437 -0.845484 1.82794 0
M  V30 5350 C 517.502 -1.14714 3.27172 0
M  V30 5351 C 516.563 -0.416746 4.27272 0
M  V30 5352 C 515.796 -1.36806 5.15868 0
M  V30 5353 O 516.019 -2.60475 5.07454 0
M  V30 5354 O 514.953 -0.877018 5.95476 0
M  V30 5355 H 518.779 0.572882 2.98248 0
M  V30 5356 H 516.364 0.346082 1.45336 0
M  V30 5357 H 518.246 -1.72303 3.84564 0
M  V30 5358 H 516.921 -1.84967 2.65648 0
M  V30 5359 H 515.828 0.201061 3.73559 0
M  V30 5360 H 517.161 0.244872 4.9159 0
M  V30 5361 N 518.813 -1.54241 0.323641 0
M  V30 5362 C 519.723 -2.28033 -0.551205 0
M  V30 5363 C 520.739 -1.32388 -1.12913 0
M  V30 5364 O 521.915 -1.65403 -1.14908 0
M  V30 5365 C 518.98 -3.02382 -1.69606 0
M  V30 5366 C 518.041 -4.13612 -1.14993 0
M  V30 5367 C 517.274 -4.84407 -2.24022 0
M  V30 5368 O 517.497 -4.54716 -3.44368 0
M  V30 5369 O 516.431 -5.71312 -1.89436 0
M  V30 5370 H 520.257 -3.03662 0.048066 0
M  V30 5371 H 517.842 -1.49133 0.0893289 0
M  V30 5372 H 519.724 -3.48941 -2.36259 0
M  V30 5373 H 518.399 -2.29628 -2.28151 0
M  V30 5374 H 517.306 -3.71402 -0.448484 0
M  V30 5375 H 518.639 -4.8841 -0.609608 0
M  V30 5376 N 520.291 -0.0518155 -1.57515 0
M  V30 5377 C 521.519 0.631395 -1.9703 0
M  V30 5378 C 521.934 1.64341 -0.92938 0
M  V30 5379 O 521.291 1.82296 0.0863266 0
M  V30 5380 C 521.342 1.31774 -3.36627 0
M  V30 5381 O 521.063 0.346247 -4.3673 0
M  V30 5382 C 522.564 2.09065 -3.90905 0
M  V30 5383 H 519.784 0.172576 -0.648428 0
M  V30 5384 H 522.328 -0.118306 -2.04158 0
M  V30 5385 H 520.483 2.01867 -3.30649 0
M  V30 5386 H 520.897 0.836226 -5.17791 0
M  V30 5387 H 522.371 2.52508 -4.9086 0
M  V30 5388 H 522.848 2.93908 -3.26366 0
M  V30 5389 H 523.454 1.43882 -4.00223 0
M  V30 5390 N 521.769 1.56035 0.221574 0
M  V30 5391 C 522.699 1.95434 1.2778 0
M  V30 5392 C 523.68 0.822564 1.48889 0
M  V30 5393 O 524.865 1.08486 1.61072 0
M  V30 5394 C 521.995 2.27102 2.62759 0
M  V30 5395 C 520.949 3.4277 2.56306 0
M  V30 5396 C 520.275 3.60043 3.95314 0
M  V30 5397 C 521.575 4.77742 2.11093 0
M  V30 5398 H 523.269 2.83912 0.950504 0
M  V30 5399 H 520.815 1.36596 0.455791 0
M  V30 5400 H 522.768 2.53256 3.36807 0
M  V30 5401 H 521.492 1.35478 2.97176 0
M  V30 5402 H 520.151 3.16664 1.84715 0
M  V30 5403 H 519.799 2.65794 4.27039 0
M  V30 5404 H 519.499 4.37841 3.91879 0
M  V30 5405 H 521.023 3.88545 4.71025 0
M  V30 5406 H 522.437 5.03102 2.74885 0
M  V30 5407 H 520.834 5.58823 2.18716 0
M  V30 5408 H 521.904 4.731 1.06321 0
M  V30 5409 N 523.247 -0.488276 1.49845 0
M  V30 5410 C 524.194 -1.58836 1.67451 0
M  V30 5411 C 525.164 -1.57886 0.515857 0
M  V30 5412 O 526.349 -1.75679 0.744403 0
M  V30 5413 C 523.489 -2.96915 1.75885 0
M  V30 5414 C 522.602 -3.07784 3.03138 0
M  V30 5415 C 521.737 -4.36673 3.02473 0
M  V30 5416 C 520.776 -4.41222 4.24252 0
M  V30 5417 N 519.913 -5.61557 4.21424 0
M  V30 5418 H 524.753 -1.43131 2.61376 0
M  V30 5419 H 522.29 -0.696186 1.29583 0
M  V30 5420 H 524.248 -3.76965 1.78755 0
M  V30 5421 H 522.878 -3.11295 0.85414 0
M  V30 5422 H 521.93 -2.20717 3.09819 0
M  V30 5423 H 523.242 -3.07005 3.93128 0
M  V30 5424 H 522.396 -5.25055 3.03977 0
M  V30 5425 H 521.135 -4.40037 2.10283 0
M  V30 5426 H 520.14 -3.5124 4.22978 0
M  V30 5427 H 521.365 -4.39564 5.17649 0
M  V30 5428 H 519.311 -5.65738 3.32078 0
M  V30 5429 H 519.228 -5.62447 5.05163 0
M  V30 5430 H 520.496 -6.52111 4.2705 0
M  V30 5431 N 524.725 -1.39134 -0.740242 0
M  V30 5432 C 525.953 -1.39334 -1.5295 0
M  V30 5433 C 526.368 0.0135008 -1.88795 0
M  V30 5434 O 525.725 0.983524 -1.5373 0
M  V30 5435 C 525.776 -2.2614 -2.82034 0
M  V30 5436 O 525.497 -3.61345 -2.47712 0
M  V30 5437 C 526.998 -2.34666 -3.76094 0
M  V30 5438 H 524.218 -0.476103 -0.472828 0
M  V30 5439 H 526.762 -1.82883 -0.9151 0
M  V30 5440 H 524.917 -1.86018 -3.39818 0
M  V30 5441 H 525.331 -4.07194 -3.30595 0
M  V30 5442 H 526.805 -2.99663 -4.63579 0
M  V30 5443 H 527.282 -1.36426 -4.17474 0
M  V30 5444 H 527.888 -2.75236 -3.2423 0
M  V30 5445 N 526.204 0.969867 -1.24223 0
M  V30 5446 C 527.434 1.74502 -1.106 0
M  V30 5447 C 527.842 1.86038 0.344483 0
M  V30 5448 O 527.185 1.3465 1.24961 0
M  V30 5449 C 527.247 3.18391 -1.66935 0
M  V30 5450 C 526.911 3.30334 -3.15798 0
M  V30 5451 C 527.908 3.15832 -4.12973 0
M  V30 5452 C 525.593 3.54644 -3.55715 0
M  V30 5453 C 527.587 3.25461 -5.48045 0
M  V30 5454 C 525.274 3.63912 -4.90929 0
M  V30 5455 C 526.272 3.49332 -5.86904 0
M  V30 5456 O 525.96 3.58251 -7.1966 0
M  V30 5457 H 525.692 0.554119 -0.387206 0
M  V30 5458 H 528.246 1.22646 -1.64764 0
M  V30 5459 H 526.476 3.71543 -1.07203 0
M  V30 5460 H 528.165 3.77707 -1.48634 0
M  V30 5461 H 528.931 2.96937 -3.83476 0
M  V30 5462 H 524.81 3.65059 -2.81519 0
M  V30 5463 H 528.354 3.13998 -6.22937 0
M  V30 5464 H 524.251 3.82319 -5.20098 0
M  V30 5465 H 525.019 3.7498 -7.27552 0
M  V30 5466 N 527.682 1.05563 1.17022 0
M  V30 5467 C 528.928 0.778872 1.87897 0
M  V30 5468 C 529.283 -0.686839 1.79723 0
M  V30 5469 O 528.576 -1.49612 1.19694 0
M  V30 5470 C 528.77 1.19849 3.36706 0
M  V30 5471 C 528.599 2.70345 3.59366 0
M  V30 5472 C 527.369 3.37707 3.75875 0
M  V30 5473 C 529.567 3.68564 3.58699 0
M  V30 5474 N 527.549 4.7703 3.86414 0
M  V30 5475 C 528.92 4.93634 3.75134 0
M  V30 5476 C 530.975 3.6198 3.4187 0
M  V30 5477 C 529.678 6.12907 3.76481 0
M  V30 5478 C 531.704 4.80697 3.44507 0
M  V30 5479 C 531.066 6.04592 3.61453 0
M  V30 5480 H 527.165 0.337297 0.705517 0
M  V30 5481 H 529.749 1.34832 1.40458 0
M  V30 5482 H 527.92 0.656958 3.82804 0
M  V30 5483 H 529.652 0.871172 3.95212 0
M  V30 5484 H 526.407 2.88108 3.75887 0
M  V30 5485 H 526.831 5.49483 3.95471 0
M  V30 5486 H 531.473 2.67154 3.27702 0
M  V30 5487 H 529.191 7.08073 3.89432 0
M  V30 5488 H 532.777 4.77259 3.32738 0
M  V30 5489 H 531.657 6.94916 3.63403 0
M  V30 5490 N 529.16 -1.33526 0.837174 0
M  V30 5491 C 530.07 -2.33023 0.271568 0
M  V30 5492 C 531.086 -1.63272 -0.601514 0
M  V30 5493 O 532.262 -1.94939 -0.506038 0
M  V30 5494 C 529.327 -3.42382 -0.545448 0
M  V30 5495 C 528.388 -4.27857 0.351709 0
M  V30 5496 C 527.621 -5.31994 -0.426409 0
M  V30 5497 O 527.844 -5.45763 -1.65828 0
M  V30 5498 O 526.778 -6.01572 0.1987 0
M  V30 5499 H 530.604 -2.83256 1.09545 0
M  V30 5500 H 528.189 -1.36837 0.599655 0
M  V30 5501 H 530.071 -4.09122 -1.00979 0
M  V30 5502 H 528.746 -2.94369 -1.34641 0
M  V30 5503 H 527.653 -3.6399 0.863853 0
M  V30 5504 H 528.986 -4.79349 1.1174 0
M  V30 5505 N 530.638 -0.59345 -1.46 0
M  V30 5506 C 531.915 -0.0157933 -1.95594 0
M  V30 5507 C 532.295 1.44807 -1.53604 0
M  V30 5508 O 531.643 2.14342 -0.791824 0
M  V30 5509 C 531.853 -0.199081 -3.48432 0
M  V30 5510 C 533.201 -0.0724943 -4.24538 0
M  V30 5511 O 534.225 -0.128469 -3.55968 0
M  V30 5512 O 533.084 0.0542426 -5.46473 0
M  V30 5513 H 530.178 0.043749 -0.825842 0
M  V30 5514 H 532.724 -0.662522 -1.56233 0
M  V30 5515 H 531.496 -1.21631 -3.71916 0
M  V30 5516 H 531.119 0.483576 -3.94648 0
M  V30 5517 N 532.116 1.54067 -0.331816 0
M  V30 5518 C 533.064 2.26105 0.54582 0
M  V30 5519 C 534.058 1.27816 1.11173 0
M  V30 5520 O 535.264 1.45565 1.05882 0
M  V30 5521 H 531.639 0.726363 0.194683 0
M  V30 5522 H 533.61 2.98282 -0.083931 0
M  V30 5523 C 532.359 3.03814 1.69092 0
M  V30 5524 H 531.682 3.79269 1.26473 0
M  V30 5525 H 533.122 3.57453 2.28043 0
M  V30 5526 C 531.581 2.12606 2.61343 0
M  V30 5527 O 532.111 1.71437 3.6328 0
M  V30 5528 N 530.317 1.77925 2.29763 0
M  V30 5529 H 529.864 2.11602 1.46909 0
M  V30 5530 H 529.822 1.1718 2.91747 0
M  V30 5531 N 533.594 0.0601682 1.57485 0
M  V30 5532 C 534.541 -0.91112 2.12055 0
M  V30 5533 C 535.511 -1.30298 1.03013 0
M  V30 5534 O 536.696 -1.39087 1.30612 0
M  V30 5535 C 533.836 -2.1775 2.67729 0
M  V30 5536 C 532.949 -1.83933 3.90887 0
M  V30 5537 C 532.084 -3.05096 4.34845 0
M  V30 5538 C 531.123 -2.67241 5.5068 0
M  V30 5539 N 530.26 -3.81127 5.8965 0
M  V30 5540 H 535.1 -0.43888 2.9475 0
M  V30 5541 H 532.637 -0.204995 1.45665 0
M  V30 5542 H 534.595 -2.91866 2.98111 0
M  V30 5543 H 533.225 -2.62535 1.87816 0
M  V30 5544 H 532.277 -0.999287 3.6704 0
M  V30 5545 H 533.589 -1.52074 4.75052 0
M  V30 5546 H 532.743 -3.87502 4.66827 0
M  V30 5547 H 531.482 -3.40139 3.49509 0
M  V30 5548 H 530.487 -1.83254 5.18361 0
M  V30 5549 H 531.712 -2.3338 6.37738 0
M  V30 5550 H 529.658 -4.15954 5.07266 0
M  V30 5551 H 529.575 -3.52997 6.68528 0
M  V30 5552 H 530.843 -4.64145 6.2625 0
M  V30 5553 N 535.072 -1.5615 -0.213296 0
M  V30 5554 C 536.02 -1.93953 -1.28394 0
M  V30 5555 C 537.014 -0.822592 -1.48087 0
M  V30 5556 O 538.22 -1.00748 -1.49164 0
M  V30 5557 H 534.595 -0.61648 -0.430646 0
M  V30 5558 H 536.566 -2.83275 -0.937977 0
M  V30 5559 C 535.315 -2.27969 -2.62537 0
M  V30 5560 H 534.638 -3.13432 -2.48194 0
M  V30 5561 H 536.078 -2.58297 -3.36242 0
M  V30 5562 C 534.537 -1.10775 -3.18167 0
M  V30 5563 O 535.067 -0.373201 -3.99963 0
M  V30 5564 N 533.273 -0.889377 -2.76656 0
M  V30 5565 H 532.82 -1.48843 -2.10246 0
M  V30 5566 H 532.778 -0.107 -3.14218 0
M  V30 5567 N 536.55 0.480323 -1.50102 0
M  V30 5568 C 537.775 1.26126 -1.64642 0
M  V30 5569 C 538.2 1.85257 -0.325823 0
M  V30 5570 O 537.558 1.66854 0.709194 0
M  V30 5571 C 537.606 2.35243 -2.73301 0
M  V30 5572 O 536.71 3.39646 -2.33911 0
M  V30 5573 H 536.051 0.371463 -0.550374 0
M  V30 5574 H 538.581 0.572696 -1.96421 0
M  V30 5575 H 538.591 2.80695 -2.96098 0
M  V30 5576 H 537.266 1.91574 -3.6915 0
M  V30 5577 H 535.843 2.99969 -2.21525 0
M  V30 5578 N 538.028 1.39524 0.732853 0
M  V30 5579 C 538.958 1.41153 1.86005 0
M  V30 5580 C 539.939 0.274614 1.67869 0
M  V30 5581 O 541.124 0.480745 1.88155 0
M  V30 5582 C 538.254 1.25638 3.23778 0
M  V30 5583 C 537.208 2.36752 3.56556 0
M  V30 5584 C 536.534 2.06326 4.93289 0
M  V30 5585 C 537.834 3.79069 3.5931 0
M  V30 5586 H 539.528 2.35484 1.84899 0
M  V30 5587 H 537.074 1.13348 0.888162 0
M  V30 5588 H 539.027 1.25398 4.0231 0
M  V30 5589 H 537.751 0.277772 3.25417 0
M  V30 5590 H 536.41 2.36213 2.80355 0
M  V30 5591 H 536.058 1.06897 4.9151 0
M  V30 5592 H 535.758 2.80757 5.16187 0
M  V30 5593 H 537.282 2.07739 5.74175 0
M  V30 5594 H 538.696 3.81526 4.27914 0
M  V30 5595 H 537.093 4.52878 3.93728 0
M  V30 5596 H 538.163 4.09893 2.59068 0
M  V30 5597 N 539.506 -0.963266 1.24736 0
M  V30 5598 C 540.755 -1.70115 1.08369 0
M  V30 5599 C 541.068 -1.91939 -0.376688 0
M  V30 5600 O 542.274 -2.6334 -0.660624 0
M  V30 5601 C 540.73 -3.06218 1.89099 0
M  V30 5602 C 540.338 -2.92221 3.39574 0
M  V30 5603 C 542.082 -3.83848 1.81275 0
M  V30 5604 C 539.989 -4.23662 4.12631 0
M  V30 5605 H 538.919 -0.637944 0.401924 0
M  V30 5606 H 541.57 -1.07304 1.48856 0
M  V30 5607 H 539.952 -3.69884 1.41429 0
M  V30 5608 H 541.126 -2.37541 3.94856 0
M  V30 5609 H 539.441 -2.28054 3.48397 0
M  V30 5610 H 542.038 -4.81188 2.33158 0
M  V30 5611 H 542.381 -4.08949 0.778895 0
M  V30 5612 H 542.914 -3.26918 2.26649 0
M  V30 5613 H 539.653 -4.03753 5.16395 0
M  V30 5614 H 539.173 -4.78141 3.62135 0
M  V30 5615 H 540.852 -4.92256 4.19873 0
M  V30 5616 N 540.985 -1.06182 -1.16461 0
M  V30 5617 C 542.21 -0.798599 -1.91408 0
M  V30 5618 C 542.635 0.640987 -1.76842 0
M  V30 5619 O 541.993 1.44652 -1.09296 0
M  V30 5620 C 542.041 -1.19665 -3.40165 0
M  V30 5621 O 541.145 -0.334768 -4.11039 0
M  V30 5622 H 540.486 -0.291961 -0.596368 0
M  V30 5623 H 543.016 -1.41732 -1.47557 0
M  V30 5624 H 543.026 -1.16772 -3.90933 0
M  V30 5625 H 541.701 -2.24526 -3.50087 0
M  V30 5626 H 540.278 -0.425168 -3.70468 0
M  V30 5627 N 542.463 1.3308 -0.844243 0
M  V30 5628 C 543.693 2.01515 -0.455541 0
M  V30 5629 C 544.101 1.63655 0.949406 0
M  V30 5630 O 543.444 0.84848 1.62931 0
M  V30 5631 C 543.506 3.55967 -0.502801 0
M  V30 5632 C 543.17 4.17222 -1.86481 0
M  V30 5633 C 544.167 4.36205 -2.8288 0
M  V30 5634 C 541.852 4.53528 -2.15911 0
M  V30 5635 C 543.846 4.90649 -4.06869 0
M  V30 5636 C 541.533 5.07679 -3.40155 0
M  V30 5637 C 542.531 5.26186 -4.35451 0
M  V30 5638 O 542.219 5.79183 -5.57496 0
M  V30 5639 H 541.951 0.65199 -0.178565 0
M  V30 5640 H 544.505 1.70867 -1.1399 0
M  V30 5641 H 542.735 3.85965 0.23836 0
M  V30 5642 H 544.424 4.05688 -0.131169 0
M  V30 5643 H 545.19 4.085 -2.61444 0
M  V30 5644 H 541.069 4.38414 -1.42528 0
M  V30 5645 H 544.613 5.0501 -4.81259 0
M  V30 5646 H 540.51 5.34815 -3.61446 0
M  V30 5647 H 541.278 5.97591 -5.5931 0
M  V30 5648 N 543.941 0.601185 1.45683 0
M  V30 5649 C 544.871 -0.108824 2.33246 0
M  V30 5650 C 545.852 -0.865223 1.46451 0
M  V30 5651 O 547.037 -0.83704 1.75235 0
M  V30 5652 C 544.167 -1.11101 3.2905 0
M  V30 5653 C 543.121 -0.468244 4.25431 0
M  V30 5654 C 542.447 -1.57822 5.10878 0
M  V30 5655 C 543.747 0.606469 5.18767 0
M  V30 5656 H 545.441 0.622306 2.92861 0
M  V30 5657 H 542.987 0.300714 1.40825 0
M  V30 5658 H 544.94 -1.61622 3.89174 0
M  V30 5659 H 543.664 -1.87265 2.67581 0
M  V30 5660 H 542.323 0.0160484 3.66596 0
M  V30 5661 H 541.971 -2.32998 4.45781 0
M  V30 5662 H 541.671 -1.15369 5.76163 0
M  V30 5663 H 543.195 -2.08583 5.73869 0
M  V30 5664 H 544.609 0.185589 5.73 0
M  V30 5665 H 543.006 0.952381 5.92494 0
M  V30 5666 H 544.076 1.48559 4.61582 0
M  V30 5667 N 545.419 -1.53889 0.339982 0
M  V30 5668 C 546.329 -2.28604 -0.526988 0
M  V30 5669 C 547.345 -1.33578 -1.11503 0
M  V30 5670 O 548.521 -1.66612 -1.13148 0
M  V30 5671 C 545.586 -3.04164 -1.66389 0
M  V30 5672 C 544.647 -4.14809 -1.10599 0
M  V30 5673 C 543.88 -4.86756 -2.18871 0
M  V30 5674 O 544.103 -4.58343 -3.39526 0
M  V30 5675 O 543.037 -5.73289 -1.83366 0
M  V30 5676 H 546.863 -3.03594 0.0802707 0
M  V30 5677 H 544.448 -1.4903 0.105141 0
M  V30 5678 H 546.33 -3.51427 -2.32544 0
M  V30 5679 H 545.005 -2.32035 -2.25703 0
M  V30 5680 H 543.912 -3.71857 -0.409067 0
M  V30 5681 H 545.245 -4.89029 -0.557771 0
M  V30 5682 N 546.897 -0.0685191 -1.57451 0
M  V30 5683 C 547.829 0.929372 -2.09512 0
M  V30 5684 C 548.842 1.26354 -1.02657 0
M  V30 5685 O 550.031 1.2213 -1.30179 0
M  V30 5686 C 547.131 2.24612 -2.53777 0
M  V30 5687 C 546.304 2.09128 -3.84167 0
M  V30 5688 C 545.363 3.24079 -4.14559 0
M  V30 5689 O 544.389 2.99215 -4.8421 0
M  V30 5690 N 545.591 4.49077 -3.67845 0
M  V30 5691 H 548.356 0.484901 -2.95751 0
M  V30 5692 H 545.917 0.11729 -1.61475 0
M  V30 5693 H 547.909 3.00412 -2.71172 0
M  V30 5694 H 546.479 2.60569 -1.72692 0
M  V30 5695 H 545.699 1.17815 -3.76182 0
M  V30 5696 H 546.987 1.9603 -4.69521 0
M  V30 5697 H 546.385 4.72165 -3.11571 0
M  V30 5698 H 544.942 5.21915 -3.90446 0
M  V30 5699 N 548.375 1.56261 0.205012 0
M  V30 5700 C 549.624 1.79236 0.925058 0
M  V30 5701 C 549.937 0.640011 1.84833 0
M  V30 5702 O 551.143 0.753809 2.60826 0
M  V30 5703 C 549.599 3.17475 1.69522 0
M  V30 5704 C 549.207 4.40482 0.817269 0
M  V30 5705 C 550.951 3.49766 2.4055 0
M  V30 5706 C 548.858 5.69744 1.58573 0
M  V30 5707 H 547.788 0.668287 0.349153 0
M  V30 5708 H 550.439 1.82629 0.178544 0
M  V30 5709 H 548.821 3.08304 2.48526 0
M  V30 5710 H 549.995 4.60752 0.0665988 0
M  V30 5711 H 548.31 4.15827 0.218316 0
M  V30 5712 H 550.907 4.43573 2.98575 0
M  V30 5713 H 551.25 2.73041 3.14252 0
M  V30 5714 H 551.783 3.60341 1.68522 0
M  V30 5715 H 548.522 6.49407 0.891679 0
M  V30 5716 H 548.042 5.53509 2.31059 0
M  V30 5717 H 549.721 6.1051 2.14212 0
M  V30 5718 N 549.853 -0.472356 1.50355 0
M  V30 5719 C 550.803 -1.56809 1.65514 0
M  V30 5720 C 551.787 -1.5261 0.509801 0
M  V30 5721 O 552.979 -1.59655 0.764145 0
M  V30 5722 C 550.108 -2.9526 1.75146 0
M  V30 5723 C 549.194 -3.04348 2.95353 0
M  V30 5724 N 549.585 -2.83253 4.19048 0
M  V30 5725 C 547.883 -3.35482 2.93884 0
M  V30 5726 C 548.584 -2.97273 5.00003 0
M  V30 5727 N 547.56 -3.27418 4.33934 0
M  V30 5728 H 551.362 -1.39197 2.58846 0
M  V30 5729 H 548.876 -0.67906 1.47521 0
M  V30 5730 H 550.873 -3.74044 1.8411 0
M  V30 5731 H 549.533 -3.1392 0.829717 0
M  V30 5732 H 550.544 -2.5886 4.48567 0
M  V30 5733 H 547.221 -3.60138 2.11204 0
M  V30 5734 H 548.611 -2.85214 6.08361 0
M  V30 5735 N 551.331 -1.39911 -0.725443 0
M  V30 5736 C 552.747 -1.21725 -1.03224 0
M  V30 5737 C 552.947 -0.0855224 -2.01318 0
M  V30 5738 O 552.003 0.55976 -2.46217 0
M  V30 5739 C 553.316 -2.55511 -1.58539 0
M  V30 5740 C 554.864 -2.62439 -1.70572 0
M  V30 5741 C 555.339 -3.9647 -2.29294 0
M  V30 5742 N 556.83 -3.98159 -2.36692 0
M  V30 5743 C 557.565 -4.98647 -2.83088 0
M  V30 5744 N 557.061 -6.0953 -3.2931 0
M  V30 5745 N 558.854 -4.8602 -2.82384 0
M  V30 5746 H 551.005 -2.12267 -0.075048 0
M  V30 5747 H 553.268 -0.943136 -0.0959066 0
M  V30 5748 H 552.974 -3.38926 -0.939249 0
M  V30 5749 H 552.848 -2.75905 -2.57208 0
M  V30 5750 H 555.235 -1.79401 -2.34306 0
M  V30 5751 H 555.316 -2.45885 -0.705297 0
M  V30 5752 H 554.96 -4.79942 -1.66186 0
M  V30 5753 H 554.89 -4.10349 -3.30032 0
M  V30 5754 H 557.381 -3.18085 -2.04035 0
M  V30 5755 H 557.694 -6.82106 -3.6325 0
M  V30 5756 H 556.039 -6.1311 -3.27294 0
M  V30 5757 H 559.23 -3.98493 -2.45603 0
M  V30 5758 H 559.403 -5.64478 -3.18226 0
M  V30 5759 N 552.809 0.956637 -1.25245 0
M  V30 5760 C 554.057 1.69764 -1.09657 0
M  V30 5761 C 554.378 1.91583 0.363464 0
M  V30 5762 O 553.648 1.50149 1.25825 0
M  V30 5763 H 552.228 0.629097 -0.402798 0
M  V30 5764 H 554.89 1.15026 -1.57337 0
M  V30 5765 H 553.986 2.67769 -1.60331 0
M  V30 5766 N 554.287 1.06798 1.15896 0
M  V30 5767 C 555.533 0.788934 1.86825 0
M  V30 5768 C 555.866 -0.683084 1.8179 0
M  V30 5769 O 555.141 -1.50086 1.23711 0
M  V30 5770 C 555.424 1.29065 3.36176 0
M  V30 5771 C 555.277 2.8268 3.49874 0
M  V30 5772 C 556.596 0.902655 4.30744 0
M  V30 5773 H 553.715 0.288066 0.678371 0
M  V30 5774 H 556.357 1.32479 1.36195 0
M  V30 5775 H 554.507 0.834806 3.79425 0
M  V30 5776 H 556.179 3.36511 3.15528 0
M  V30 5777 H 554.422 3.21157 2.91617 0
M  V30 5778 H 555.093 3.12852 4.54783 0
M  V30 5779 H 557.569 1.29535 3.95424 0
M  V30 5780 H 556.445 1.28111 5.3374 0
M  V30 5781 H 556.706 -0.191951 4.41683 0
M  V30 5782 N 555.766 -1.3263 0.851289 0
M  V30 5783 C 556.713 -2.28952 0.291469 0
M  V30 5784 C 557.683 -1.54897 -0.599676 0
M  V30 5785 O 558.868 -1.83137 -0.535305 0
M  V30 5786 C 556.008 -3.41206 -0.516992 0
M  V30 5787 C 555.121 -4.30148 0.399566 0
M  V30 5788 C 554.256 -5.29527 -0.4212 0
M  V30 5789 C 553.295 -6.10112 0.492969 0
M  V30 5790 N 552.432 -7.01499 -0.290414 0
M  V30 5791 H 557.272 -2.76228 1.11813 0
M  V30 5792 H 554.809 -1.35907 0.562826 0
M  V30 5793 H 556.767 -4.05005 -1.00132 0
M  V30 5794 H 555.397 -2.9509 -1.30851 0
M  V30 5795 H 554.449 -3.66959 1.00227 0
M  V30 5796 H 555.761 -4.8649 1.1013 0
M  V30 5797 H 554.915 -5.98914 -0.968832 0
M  V30 5798 H 553.654 -4.73794 -1.15632 0
M  V30 5799 H 552.659 -5.39632 1.05251 0
M  V30 5800 H 553.884 -6.6793 1.22664 0
M  V30 5801 H 551.83 -6.48199 -1.00868 0
M  V30 5802 H 551.747 -7.55178 0.352354 0
M  V30 5803 H 553.015 -7.75176 -0.819882 0
M  V30 5804 N 557.244 -0.608902 -1.45362 0
M  V30 5805 C 558.492 -0.104401 -2.0183 0
M  V30 5806 C 558.813 1.27007 -1.47967 0
M  V30 5807 O 558.083 1.83924 -0.674455 0
M  V30 5808 H 556.663 -0.0356042 -0.746151 0
M  V30 5809 H 559.325 -0.790596 -1.78145 0
M  V30 5810 H 558.421 -0.0551793 -3.12051 0
M  V30 5811 N 558.722 1.53707 -0.348139 0
M  V30 5812 C 559.969 2.00988 0.246966 0
M  V30 5813 C 560.297 1.23586 1.50189 0
M  V30 5814 O 559.552 0.312817 1.93184 0
M  V30 5815 C 559.851 3.52292 0.602061 0
M  V30 5816 C 559.517 4.47453 -0.556509 0
M  V30 5817 C 558.179 4.73188 -0.874446 0
M  V30 5818 C 560.531 5.03851 -1.33354 0
M  V30 5819 C 557.859 5.52577 -1.9717 0
M  V30 5820 C 560.211 5.84437 -2.42108 0
M  V30 5821 C 558.875 6.08465 -2.74456 0
M  V30 5822 H 558.145 0.735469 0.0903712 0
M  V30 5823 H 560.792 1.85464 -0.477001 0
M  V30 5824 H 559.097 3.65672 1.40681 0
M  V30 5825 H 560.794 3.86337 1.07447 0
M  V30 5826 H 557.384 4.27558 -0.298652 0
M  V30 5827 H 561.568 4.8393 -1.10117 0
M  V30 5828 H 556.824 5.69418 -2.22651 0
M  V30 5829 H 560.998 6.27151 -3.02745 0
M  V30 5830 H 558.625 6.69768 -3.59604 0
M  V30 5831 N 560.2 0.0768682 1.57412 0
M  V30 5832 C 561.446 -0.591961 1.93968 0
M  V30 5833 C 561.779 -1.68954 0.9575 0
M  V30 5834 O 561.054 -1.94496 -0.0124675 0
M  V30 5835 C 561.337 -1.16418 3.40762 0
M  V30 5836 C 561.19 -0.0728933 4.49741 0
M  V30 5837 C 562.509 -2.06814 3.88479 0
M  V30 5838 H 559.628 -0.213716 0.705333 0
M  V30 5839 H 562.27 0.14387 1.89455 0
M  V30 5840 H 560.42 -1.79128 3.4474 0
M  V30 5841 H 562.092 0.560446 4.57883 0
M  V30 5842 H 560.335 0.595859 4.29688 0
M  V30 5843 H 561.006 -0.513755 5.49604 0
M  V30 5844 H 563.482 -1.54033 3.8654 0
M  V30 5845 H 562.358 -2.43785 4.91793 0
M  V30 5846 H 562.619 -2.97844 3.26713 0
M  V30 5847 N 561.678 -1.56367 -0.196722 0
M  V30 5848 C 563.094 -1.49916 -0.54749 0
M  V30 5849 C 563.294 -0.77659 -1.85934 0
M  V30 5850 O 562.35 -0.32644 -2.50381 0
M  V30 5851 C 563.663 -2.94577 -0.603734 0
M  V30 5852 C 565.211 -3.05239 -0.692677 0
M  V30 5853 C 565.686 -4.51308 -0.780046 0
M  V30 5854 N 567.177 -4.55453 -0.843616 0
M  V30 5855 C 567.912 -5.65786 -0.931358 0
M  V30 5856 N 567.408 -6.85812 -0.981503 0
M  V30 5857 N 569.201 -5.53695 -0.968421 0
M  V30 5858 H 561.352 -2.01761 0.663803 0
M  V30 5859 H 563.615 -0.918094 0.236238 0
M  V30 5860 H 563.321 -3.50494 0.29105 0
M  V30 5861 H 563.195 -3.47841 -1.45898 0
M  V30 5862 H 565.582 -2.49372 -1.57789 0
M  V30 5863 H 565.663 -2.55103 0.188736 0
M  V30 5864 H 565.307 -5.078 0.100811 0
M  V30 5865 H 565.237 -4.99176 -1.67724 0
M  V30 5866 H 567.728 -3.69025 -0.814176 0
M  V30 5867 H 568.041 -7.65648 -1.04892 0
M  V30 5868 H 566.386 -6.88474 -0.950208 0
M  V30 5869 H 569.577 -4.58848 -0.926072 0
M  V30 5870 H 569.75 -6.39708 -1.03334 0
M  V30 5871 N 563.156 0.464375 -1.50603 0
M  V30 5872 C 564.433 1.22549 -1.5245 0
M  V30 5873 C 564.813 2.09327 -0.273035 0
M  V30 5874 O 564.161 2.16074 0.743242 0
M  V30 5875 C 564.371 2.05074 -2.82393 0
M  V30 5876 C 565.719 2.63036 -3.33313 0
M  V30 5877 O 566.743 2.1531 -2.8376 0
M  V30 5878 O 565.602 3.5001 -4.19709 0
M  V30 5879 H 562.696 0.556471 -0.611775 0
M  V30 5880 H 565.242 0.475648 -1.62898 0
M  V30 5881 H 564.014 1.41169 -3.64948 0
M  V30 5882 H 563.637 2.87179 -2.7498 0
M  V30 5883 N 564.634 1.40294 0.718013 0
M  V30 5884 C 565.564 1.43118 1.84498 0
M  V30 5885 C 566.545 0.292403 1.67568 0
M  V30 5886 O 567.73 0.500675 1.87635 0
M  V30 5887 C 564.86 1.29065 3.22427 0
M  V30 5888 C 563.814 2.40521 3.54025 0
M  V30 5889 C 563.14 2.11546 4.91073 0
M  V30 5890 C 564.44 3.82859 3.55269 0
M  V30 5891 H 566.134 2.37432 1.82391 0
M  V30 5892 H 563.68 1.14283 0.87609 0
M  V30 5893 H 565.633 1.29658 4.00957 0
M  V30 5894 H 564.357 0.312271 3.25104 0
M  V30 5895 H 563.016 2.39173 2.77834 0
M  V30 5896 H 562.664 1.12104 4.90348 0
M  V30 5897 H 562.364 2.86216 5.1318 0
M  V30 5898 H 563.888 2.13817 5.71939 0
M  V30 5899 H 565.302 3.86044 4.23843 0
M  V30 5900 H 563.699 4.57029 3.88902 0
M  V30 5901 H 564.769 4.12617 2.54706 0
M  V30 5902 N 566.112 -0.949982 1.2575 0
M  V30 5903 C 567.044 -2.05088 1.02331 0
M  V30 5904 C 568.057 -1.62795 -0.0133247 0
M  V30 5905 O 569.246 -1.77067 0.225759 0
M  V30 5906 C 566.346 -3.34794 0.525924 0
M  V30 5907 C 565.519 -4.05903 1.62978 0
M  V30 5908 C 564.578 -5.1388 1.13196 0
M  V30 5909 O 563.604 -5.39072 1.82729 0
M  V30 5910 N 564.806 -5.80495 -0.0242926 0
M  V30 5911 H 567.571 -2.25747 1.97125 0
M  V30 5912 H 565.132 -1.11886 1.17018 0
M  V30 5913 H 567.124 -4.04312 0.177263 0
M  V30 5914 H 565.694 -3.10872 -0.328202 0
M  V30 5915 H 564.914 -3.3042 2.1498 0
M  V30 5916 H 566.202 -4.50166 2.37124 0
M  V30 5917 H 565.6 -5.62454 -0.605184 0
M  V30 5918 H 564.157 -6.51043 -0.313947 0
M  V30 5919 N 567.59 -1.07411 -1.15328 0
M  V30 5920 C 568.838 -0.796073 -1.85761 0
M  V30 5921 C 569.159 0.679864 -1.82764 0
M  V30 5922 O 568.429 1.49242 -1.269 0
M  V30 5923 H 567.009 -0.291495 -0.687779 0
M  V30 5924 H 569.671 -1.35799 -1.39802 0
M  V30 5925 H 568.767 -1.13114 -2.90881 0
M  V30 5926 N 569.068 1.32177 -0.85831 0
M  V30 5927 C 570.016 2.30729 -0.294442 0
M  V30 5928 C 571.01 1.59009 0.584165 0
M  V30 5929 O 572.216 1.73713 0.471562 0
M  V30 5930 H 568.591 0.748097 -0.0765171 0
M  V30 5931 H 570.562 2.75774 -1.1398 0
M  V30 5932 C 569.311 3.44098 0.499208 0
M  V30 5933 H 568.634 3.99449 -0.167579 0
M  V30 5934 H 570.074 4.15202 0.859273 0
M  V30 5935 C 568.533 2.91684 1.68588 0
M  V30 5936 O 569.063 2.89481 2.78503 0
M  V30 5937 N 567.269 2.48036 1.51415 0
M  V30 5938 H 566.816 2.50027 0.620006 0
M  V30 5939 H 566.774 2.13322 2.30957 0
M  V30 5940 N 570.547 0.616602 1.45037 0
M  V30 5941 C 571.958 0.199359 1.85633 0
M  V30 5942 C 572.309 -1.24588 1.51566 0
M  V30 5943 O 571.434 -1.94594 0.94668 0
M  V30 5944 C 572.029 0.355033 3.36935 0
M  V30 5945 C 570.588 -0.00758748 3.76399 0
M  V30 5946 C 569.735 0.675256 2.68953 0
M  V30 5947 H 572.686 0.822708 1.3571 0
M  V30 5948 H 572.707 -0.410201 3.78282 0
M  V30 5949 H 572.219 1.40699 3.61698 0
M  V30 5950 H 570.32 -1.05837 3.57252 0
M  V30 5951 H 570.433 0.392346 4.77491 0
M  V30 5952 H 568.797 0.111992 2.54454 0
M  V30 5953 H 569.58 1.72952 2.96551 0
M  V30 5954 N 572.025 -1.5352 0.356285 0
M  V30 5955 C 573.274 -2.00298 -0.237373 0
M  V30 5956 C 573.587 -1.24784 -1.50627 0
M  V30 5957 O 574.793 -1.62103 -2.17795 0
M  V30 5958 C 573.249 -3.56771 -0.473545 0
M  V30 5959 C 572.857 -4.41154 0.780183 0
M  V30 5960 C 574.601 -4.1193 -1.02537 0
M  V30 5961 C 572.508 -5.89161 0.514108 0
M  V30 5962 H 571.438 -0.748307 -0.092478 0
M  V30 5963 H 574.089 -1.77283 0.473588 0
M  V30 5964 H 572.471 -3.75902 -1.24553 0
M  V30 5965 H 573.645 -4.33797 1.55425 0
M  V30 5966 H 571.96 -3.97052 1.25455 0
M  V30 5967 H 574.557 -5.20133 -1.2396 0
M  V30 5968 H 574.9 -3.65943 -1.98473 0
M  V30 5969 H 575.433 -3.96561 -0.313775 0
M  V30 5970 H 572.172 -6.39408 1.44355 0
M  V30 5971 H 571.692 -5.9939 -0.221632 0
M  V30 5972 H 573.371 -6.46857 0.136122 0
M  V30 5973 N 573.503 -0.0852151 -1.57369 0
M  V30 5974 C 574.466 0.8627 -2.12344 0
M  V30 5975 C 575.466 1.21746 -1.05046 0
M  V30 5976 O 576.656 1.14852 -1.30976 0
M  V30 5977 C 573.788 2.1618 -2.63589 0
M  V30 5978 H 574.981 0.385511 -2.97412 0
M  V30 5979 H 572.534 0.163663 -1.55441 0
M  V30 5980 H 573.269 2.68406 -1.82013 0
M  V30 5981 H 573.054 1.91723 -3.4203 0
M  V30 5982 H 574.544 2.84011 -3.06149 0
M  V30 5983 N 574.981 1.5647 0.188427 0
M  V30 5984 C 575.929 1.95971 1.25293 0
M  V30 5985 C 576.923 0.846047 1.4676 0
M  V30 5986 O 578.129 1.03109 1.47542 0
M  V30 5987 H 574.504 0.623253 0.420784 0
M  V30 5988 H 576.475 2.84731 0.892792 0
M  V30 5989 C 575.224 2.32116 2.58877 0
M  V30 5990 H 574.547 3.17341 2.43176 0
M  V30 5991 H 575.987 2.63613 3.3209 0
M  V30 5992 C 574.446 1.15823 3.16365 0
M  V30 5993 O 574.976 0.436785 3.99318 0
M  V30 5994 N 573.182 0.933278 2.75206 0
M  V30 5995 H 572.729 1.52169 2.07852 0
M  V30 5996 H 572.687 0.156976 3.14008 0
M  V30 5997 N 576.459 -0.456382 1.50847 0
M  V30 5998 C 577.422 -1.53493 1.70213 0
M  V30 5999 C 578.422 -1.50264 0.572481 0
M  V30 6000 O 579.612 -1.52623 0.839751 0
M  V30 6001 C 576.744 -2.93091 1.741 0
M  V30 6002 H 577.937 -1.37633 2.66453 0
M  V30 6003 H 575.49 -0.683776 1.4055 0
M  V30 6004 H 576.225 -3.14378 0.796063 0
M  V30 6005 H 576.01 -2.9684 2.5618 0
M  V30 6006 H 577.5 -3.71368 1.90987 0
M  V30 6007 N 577.937 -1.40673 -0.710563 0
M  V30 6008 C 579.165 -1.42547 -1.4996 0
M  V30 6009 C 579.58 -0.0265485 -1.88781 0
M  V30 6010 O 578.937 0.950694 -1.55782 0
M  V30 6011 C 578.988 -2.32071 -2.77173 0
M  V30 6012 O 578.709 -3.66518 -2.39992 0
M  V30 6013 C 580.21 -2.42591 -3.71032 0
M  V30 6014 H 577.43 -0.486025 -0.462623 0
M  V30 6015 H 579.974 -1.84783 -0.876102 0
M  V30 6016 H 578.129 -1.93184 -3.35795 0
M  V30 6017 H 578.543 -4.14115 -3.21884 0
M  V30 6018 H 580.017 -3.09429 -4.57119 0
M  V30 6019 H 580.494 -1.4525 -4.14486 0
M  V30 6020 H 581.1 -2.82051 -3.18319 0
M  V30 6021 N 579.415 0.9433 -1.26252 0
M  V30 6022 C 580.664 1.68369 -1.11062 0
M  V30 6023 C 580.977 1.92514 0.346104 0
M  V30 6024 O 582.183 2.64358 0.618646 0
M  V30 6025 C 580.639 3.03171 -1.93946 0
M  V30 6026 C 580.247 2.86782 -3.4418 0
M  V30 6027 C 581.991 3.80916 -1.87359 0
M  V30 6028 C 579.898 4.17044 -4.19319 0
M  V30 6029 H 578.828 0.631469 -0.412023 0
M  V30 6030 H 581.479 1.04922 -1.50544 0
M  V30 6031 H 579.861 3.67587 -1.47296 0
M  V30 6032 H 581.035 2.31229 -3.98585 0
M  V30 6033 H 579.35 2.22482 -3.51981 0
M  V30 6034 H 581.947 4.77417 -2.40784 0
M  V30 6035 H 582.29 4.07658 -0.843857 0
M  V30 6036 H 582.823 3.2327 -2.31821 0
M  V30 6037 H 579.562 3.95487 -5.22753 0
M  V30 6038 H 579.082 4.72319 -3.69696 0
M  V30 6039 H 580.761 4.85513 -4.27651 0
M  V30 6040 N 580.893 1.08022 1.14757 0
M  V30 6041 C 582.118 0.82895 1.90114 0
M  V30 6042 C 582.543 -0.612772 1.77839 0
M  V30 6043 O 581.901 -1.42895 1.11583 0
M  V30 6044 C 581.949 1.25062 3.38219 0
M  V30 6045 O 581.053 0.400119 4.10454 0
M  V30 6046 H 580.394 0.301412 0.591648 0
M  V30 6047 H 582.924 1.44062 1.45284 0
M  V30 6048 H 582.934 1.22977 3.89025 0
M  V30 6049 H 581.609 2.30067 3.46471 0
M  V30 6050 H 580.186 0.484052 3.69745 0
M  V30 6051 N 582.371 -1.3172 0.865308 0
M  V30 6052 C 583.617 -1.97168 0.474633 0
M  V30 6053 C 583.95 -1.68263 -0.969604 0
M  V30 6054 O 583.225 -0.976588 -1.68205 0
M  V30 6055 C 583.508 -3.52689 0.726808 0
M  V30 6056 C 583.361 -3.91185 2.22024 0
M  V30 6057 C 584.68 -4.39689 0.190201 0
M  V30 6058 H 581.799 -0.716185 0.17392 0
M  V30 6059 H 584.441 -1.55925 1.08569 0
M  V30 6060 H 582.591 -3.8795 0.206705 0
M  V30 6061 H 584.263 -3.66049 2.80724 0
M  V30 6062 H 582.506 -3.3996 2.69462 0
M  V30 6063 H 583.177 -4.99604 2.34735 0
M  V30 6064 H 585.653 -4.11225 0.635103 0
M  V30 6065 H 584.529 -5.47469 0.396132 0
M  V30 6066 H 584.79 -4.32683 -0.907625 0
M  V30 6067 N 583.85 -0.624285 -1.44708 0
M  V30 6068 C 584.76 0.0861083 -2.34442 0
M  V30 6069 C 585.776 0.84291 -1.5222 0
M  V30 6070 O 586.952 0.796723 -1.84971 0
M  V30 6071 C 584.017 1.05999 -3.30099 0
M  V30 6072 C 583.077 0.303316 -4.28227 0
M  V30 6073 C 582.311 1.23081 -5.19314 0
M  V30 6074 O 582.534 2.46929 -5.14181 0
M  V30 6075 O 581.468 0.71883 -5.97592 0
M  V30 6076 H 585.293 -0.651756 -2.96624 0
M  V30 6077 H 582.879 -0.384493 -1.44368 0
M  V30 6078 H 584.76 1.62046 -3.88997 0
M  V30 6079 H 583.436 1.77859 -2.70459 0
M  V30 6080 H 582.343 -0.300033 -3.72895 0
M  V30 6081 H 583.676 -0.375123 -4.90768 0
M  V30 6082 N 585.328 1.53329 -0.364422 0
M  V30 6083 C 586.576 2.00842 0.225189 0
M  V30 6084 C 586.897 1.25345 1.49378 0
M  V30 6085 O 586.167 0.366396 1.92443 0
M  V30 6086 H 584.747 0.742009 0.0862027 0
M  V30 6087 H 587.409 1.8863 -0.490389 0
M  V30 6088 H 586.505 3.08795 0.452987 0
M  V30 6089 N 586.806 0.0935595 1.57322 0
M  V30 6090 C 588.055 -0.570191 1.93473 0
M  V30 6091 C 588.368 -1.69434 0.977318 0
M  V30 6092 O 589.574 -2.41914 1.23248 0
M  V30 6093 C 588.03 -1.06564 3.43762 0
M  V30 6094 C 587.638 0.0286723 4.47991 0
M  V30 6095 C 589.382 -1.70221 3.88877 0
M  V30 6096 C 587.289 -0.482046 5.89432 0
M  V30 6097 H 586.219 -0.216764 0.72217 0
M  V30 6098 H 588.87 0.169313 1.82717 0
M  V30 6099 H 587.252 -1.85878 3.49664 0
M  V30 6100 H 588.426 0.804106 4.5373 0
M  V30 6101 H 586.741 0.570336 4.12476 0
M  V30 6102 H 589.338 -2.09502 4.91948 0
M  V30 6103 H 589.681 -2.57078 3.27439 0
M  V30 6104 H 590.214 -0.974919 3.85668 0
M  V30 6105 H 586.953 0.349871 6.54566 0
M  V30 6106 H 586.473 -1.22452 5.87167 0
M  V30 6107 H 588.152 -0.951508 6.39965 0
M  V30 6108 N 588.284 -1.56567 -0.180126 0
M  V30 6109 C 589.561 -1.7235 -0.924931 0
M  V30 6110 C 589.941 -0.652523 -2.00762 0
M  V30 6111 O 589.289 0.334115 -2.26044 0
M  V30 6112 C 589.499 -3.1523 -1.49771 0
M  V30 6113 C 590.847 -3.75921 -1.97405 0
M  V30 6114 O 591.871 -3.18452 -1.59583 0
M  V30 6115 O 590.73 -4.7681 -2.67048 0
M  V30 6116 H 587.824 -0.703502 -0.434758 0
M  V30 6117 H 590.37 -1.6886 -0.168647 0
M  V30 6118 H 589.142 -3.84656 -0.718027 0
M  V30 6119 H 588.765 -3.23009 -2.31842 0
M  V30 6120 N 589.762 0.448376 -1.51087 0
M  V30 6121 C 590.712 1.54156 -1.67988 0
M  V30 6122 C 591.696 1.5178 -0.534015 0
M  V30 6123 O 592.888 1.58419 -0.789448 0
M  V30 6124 C 590.017 2.92437 -1.79822 0
M  V30 6125 C 589.103 2.99611 -3.00157 0
M  V30 6126 N 589.494 2.7655 -4.23502 0
M  V30 6127 C 587.792 3.30764 -2.99184 0
M  V30 6128 C 588.493 2.89281 -5.0467 0
M  V30 6129 N 587.469 3.20473 -4.39088 0
M  V30 6130 H 591.271 1.35061 -2.61028 0
M  V30 6131 H 588.785 0.655504 -1.48583 0
M  V30 6132 H 590.782 3.71068 -1.90037 0
M  V30 6133 H 589.442 3.1256 -0.879554 0
M  V30 6134 H 590.453 2.5169 -4.52628 0
M  V30 6135 H 587.13 3.56732 -2.16907 0
M  V30 6136 H 588.52 2.75499 -6.12821 0
M  V30 6137 N 591.24 1.41047 0.703093 0
M  V30 6138 C 592.517 1.30493 1.45708 0
M  V30 6139 C 592.897 -0.0709892 2.10981 0
M  V30 6140 O 592.245 -1.08471 2.01113 0
M  V30 6141 C 592.455 2.45287 2.48265 0
M  V30 6142 C 593.803 2.86104 3.13735 0
M  V30 6143 O 594.827 2.44971 2.58587 0
M  V30 6144 O 593.686 3.57206 4.13601 0
M  V30 6145 H 590.78 0.513144 0.648546 0
M  V30 6146 H 593.326 1.52995 0.734208 0
M  V30 6147 H 592.098 3.37135 1.98635 0
M  V30 6148 H 591.721 2.24622 3.28071 0
M  V30 6149 N 592.718 -0.936591 1.26751 0
M  V30 6150 C 593.964 -1.6858 1.12733 0
M  V30 6151 C 594.297 -1.91414 -0.327745 0
M  V30 6152 O 593.572 -1.49812 -1.24043 0
M  V30 6153 C 593.855 -3.05779 1.90187 0
M  V30 6154 C 593.708 -2.90242 3.43627 0
M  V30 6155 C 595.027 -4.0597 1.69931 0
M  V30 6156 H 592.146 -0.61182 0.410908 0
M  V30 6157 H 594.788 -1.08747 1.55801 0
M  V30 6158 H 592.938 -3.56853 1.53584 0
M  V30 6159 H 594.61 -2.46354 3.9001 0
M  V30 6160 H 592.853 -2.2577 3.70419 0
M  V30 6161 H 593.524 -3.87572 3.93055 0
M  V30 6162 H 596 -3.63874 2.0183 0
M  V30 6163 H 594.876 -4.99974 2.26534 0
M  V30 6164 H 595.137 -4.37369 0.64502 0
M  V30 6165 N 594.196 -1.08629 -1.14182 0
M  V30 6166 C 595.424 -0.838889 -1.8913 0
M  V30 6167 C 595.839 0.609153 -1.78703 0
M  V30 6168 O 595.196 1.41876 -1.14794 0
M  V30 6169 C 595.247 -1.25477 -3.39025 0
M  V30 6170 O 594.968 -2.64601 -3.49167 0
M  V30 6171 C 596.469 -1.03856 -4.30963 0
M  V30 6172 H 593.689 -0.302377 -0.599007 0
M  V30 6173 H 596.233 -1.44615 -1.44592 0
M  V30 6174 H 594.388 -0.691571 -3.81177 0
M  V30 6175 H 594.802 -2.81922 -4.42289 0
M  V30 6176 H 596.276 -1.37892 -5.345 0
M  V30 6177 H 596.753 0.0242522 -4.39193 0
M  V30 6178 H 597.359 -1.58731 -3.94569 0
M  V30 6179 N 595.674 1.31259 -0.872281 0
M  V30 6180 C 596.899 2.0133 -0.498099 0
M  V30 6181 C 597.324 1.65031 0.902568 0
M  V30 6182 O 596.682 0.860164 1.59596 0
M  V30 6183 C 596.73 3.54411 -0.665205 0
M  V30 6184 O 595.834 4.11347 0.294473 0
M  V30 6185 H 595.175 0.633844 -0.197832 0
M  V30 6186 H 597.705 1.67402 -1.17633 0
M  V30 6187 H 597.715 4.04147 -0.559373 0
M  V30 6188 H 596.39 3.80171 -1.68651 0
M  V30 6189 H 594.967 3.72624 0.143403 0
M  V30 6190 N 597.152 0.631951 1.44375 0
M  V30 6191 C 598.115 -0.0628142 2.29114 0
M  V30 6192 C 599.115 -0.771494 1.41084 0
M  V30 6193 O 600.305 -0.615959 1.62947 0
M  V30 6194 C 597.437 -1.09953 3.22681 0
M  V30 6195 H 598.63 0.682509 2.92031 0
M  V30 6196 H 596.183 0.392128 1.51301 0
M  V30 6197 H 596.918 -1.87481 2.64616 0
M  V30 6198 H 596.703 -0.595286 3.87555 0
M  V30 6199 H 598.193 -1.58538 3.86336 0
M  V30 6200 N 598.631 -1.53133 0.372548 0
M  V30 6201 C 599.578 -2.25951 -0.470631 0
M  V30 6202 C 600.548 -1.26895 -1.07176 0
M  V30 6203 O 601.733 -1.55691 -1.10294 0
M  V30 6204 C 598.873 -3.05726 -1.6008 0
M  V30 6205 C 597.986 -4.19684 -1.02416 0
M  V30 6206 C 597.121 -4.86888 -2.124 0
M  V30 6207 C 596.16 -5.92866 -1.52238 0
M  V30 6208 N 595.297 -6.53732 -2.56084 0
M  V30 6209 H 600.137 -2.97587 0.156816 0
M  V30 6210 H 597.674 -1.4683 0.0891571 0
M  V30 6211 H 599.632 -3.50258 -2.26661 0
M  V30 6212 H 598.262 -2.36331 -2.1988 0
M  V30 6213 H 597.314 -3.79588 -0.248426 0
M  V30 6214 H 598.626 -4.95821 -0.544366 0
M  V30 6215 H 597.78 -5.34638 -2.86787 0
M  V30 6216 H 596.519 -4.10239 -2.63734 0
M  V30 6217 H 595.524 -5.4447 -0.763685 0
M  V30 6218 H 596.749 -6.71439 -1.0172 0
M  V30 6219 H 594.695 -5.79932 -3.06618 0
M  V30 6220 H 594.612 -7.25429 -2.12811 0
M  V30 6221 H 595.88 -7.0613 -3.30152 0
M  V30 6222 N 600.109 -0.101901 -1.5727 0
M  V30 6223 C 601.386 0.602832 -1.86079 0
M  V30 6224 C 601.766 1.85912 -1 0
M  V30 6225 O 601.114 2.28379 -0.0742488 0
M  V30 6226 C 601.324 0.911694 -3.36881 0
M  V30 6227 C 602.672 1.2722 -4.05093 0
M  V30 6228 O 603.696 1.0025 -3.41802 0
M  V30 6229 O 602.555 1.7776 -5.16782 0
M  V30 6230 H 599.649 0.302366 -0.769743 0
M  V30 6231 H 602.195 -0.135113 -1.69161 0
M  V30 6232 H 600.967 0.0207256 -3.91295 0
M  V30 6233 H 600.59 1.70538 -3.59169 0
M  V30 6234 N 601.587 1.56661 0.17182 0
M  V30 6235 C 602.835 1.81606 0.886774 0
M  V30 6236 C 603.156 0.678818 1.82803 0
M  V30 6237 O 602.426 -0.301354 1.93568 0
M  V30 6238 H 601.006 0.669934 0.330451 0
M  V30 6239 H 603.668 1.94142 0.171757 0
M  V30 6240 H 602.764 2.75634 1.46398 0
M  V30 6241 N 603.065 -0.440357 1.51323 0
M  V30 6242 C 604.342 -1.20109 1.5438 0
M  V30 6243 C 604.722 -2.08866 0.306303 0
M  V30 6244 O 604.07 -2.1723 -0.708773 0
M  V30 6245 C 604.28 -2.00555 2.8562 0
M  V30 6246 C 605.628 -2.577 3.37455 0
M  V30 6247 O 606.652 -2.10769 2.8715 0
M  V30 6248 O 605.511 -3.43289 4.25224 0
M  V30 6249 H 602.605 -0.546668 0.620551 0
M  V30 6250 H 605.151 -0.449672 1.63634 0
M  V30 6251 H 603.923 -1.35346 3.67147 0
M  V30 6252 H 603.546 -2.82768 2.79514 0
M  V30 6253 N 604.543 -1.41418 -0.695603 0
M  V30 6254 C 605.773 -1.43921 -1.48224 0
M  V30 6255 C 606.181 -0.0428855 -1.89151 0
M  V30 6256 O 605.524 0.948138 -1.5734 0
M  V30 6257 C 605.586 -2.28466 -2.77567 0
M  V30 6258 C 605.25 -3.76629 -2.58844 0
M  V30 6259 C 606.247 -4.6879 -2.24793 0
M  V30 6260 C 603.932 -4.2067 -2.74485 0
M  V30 6261 C 605.926 -6.02981 -2.06622 0
M  V30 6262 C 603.613 -5.54926 -2.55931 0
M  V30 6263 C 604.611 -6.45897 -2.2205 0
M  V30 6264 O 604.299 -7.77675 -2.03657 0
M  V30 6265 H 604.031 -0.492252 -0.463318 0
M  V30 6266 H 606.585 -1.86347 -0.863952 0
M  V30 6267 H 604.815 -1.80853 -3.41802 0
M  V30 6268 H 606.504 -2.2267 -3.39371 0
M  V30 6269 H 607.27 -4.36055 -2.12323 0
M  V30 6270 H 603.149 -3.50167 -2.9984 0
M  V30 6271 H 606.693 -6.73951 -1.80099 0
M  V30 6272 H 602.59 -5.8724 -2.67991 0
M  V30 6273 H 603.358 -7.88819 -2.1842 0
M  V30 6274 N 606.021 0.929856 -1.27246 0
M  V30 6275 C 607.267 1.6802 -1.14634 0
M  V30 6276 C 607.622 1.89965 0.305151 0
M  V30 6277 O 606.915 1.47737 1.22001 0
M  V30 6278 C 607.109 3.05116 -1.86115 0
M  V30 6279 C 606.938 2.96549 -3.38066 0
M  V30 6280 C 605.708 2.98947 -4.0738 0
M  V30 6281 C 607.906 2.7583 -4.34077 0
M  V30 6282 N 605.888 2.80799 -5.45917 0
M  V30 6283 C 607.259 2.66364 -5.59866 0
M  V30 6284 C 609.314 2.60701 -4.24193 0
M  V30 6285 C 608.017 2.43313 -6.76898 0
M  V30 6286 C 610.043 2.39026 -5.40944 0
M  V30 6287 C 609.405 2.30302 -6.65688 0
M  V30 6288 H 605.504 0.62172 -0.474329 0
M  V30 6289 H 608.088 1.09947 -1.60685 0
M  V30 6290 H 606.259 3.61306 -1.42522 0
M  V30 6291 H 607.991 3.69076 -1.66027 0
M  V30 6292 H 604.746 3.09093 -3.58829 0
M  V30 6293 H 605.17 2.74861 -6.18692 0
M  V30 6294 H 609.812 2.66206 -3.28473 0
M  V30 6295 H 607.53 2.36548 -7.72704 0
M  V30 6296 H 611.116 2.28208 -5.35175 0
M  V30 6297 H 609.996 2.13756 -7.54505 0
M  V30 6298 N 607.499 1.09233 1.13605 0
M  V30 6299 C 608.915 0.82163 1.36826 0
M  V30 6300 C 609.115 -0.565021 1.93416 0
M  V30 6301 O 608.171 -1.32026 2.15234 0
M  V30 6302 C 609.484 1.91124 2.32147 0
M  V30 6303 C 611.032 1.93824 2.45767 0
M  V30 6304 C 611.507 3.01923 3.44393 0
M  V30 6305 N 612.998 3.01149 3.51942 0
M  V30 6306 C 613.733 3.81434 4.2813 0
M  V30 6307 N 613.229 4.71621 5.07489 0
M  V30 6308 N 615.022 3.69702 4.23411 0
M  V30 6309 H 607.173 1.98633 0.752234 0
M  V30 6310 H 609.436 0.862482 0.393482 0
M  V30 6311 H 609.142 2.90862 1.97717 0
M  V30 6312 H 609.016 1.78777 3.32142 0
M  V30 6313 H 611.403 0.94726 2.79483 0
M  V30 6314 H 611.484 2.10248 1.45703 0
M  V30 6315 H 611.128 4.01232 3.11408 0
M  V30 6316 H 611.058 2.82742 4.44257 0
M  V30 6317 H 613.549 2.35789 2.95317 0
M  V30 6318 H 613.862 5.29468 5.62924 0
M  V30 6319 H 612.207 4.75658 5.06729 0
M  V30 6320 H 615.398 2.98606 3.60489 0
M  V30 6321 H 615.571 4.32509 4.82535 0
M  V30 6322 N 608.977 -1.30795 0.87923 0
M  V30 6323 C 609.907 -2.30742 0.357796 0
M  V30 6324 C 610.888 -1.60747 -0.556283 0
M  V30 6325 O 612.073 -1.88393 -0.47135 0
M  V30 6326 C 609.203 -3.44583 -0.433555 0
M  V30 6327 C 608.157 -4.26235 0.388251 0
M  V30 6328 C 607.483 -5.32073 -0.529352 0
M  V30 6329 C 608.783 -4.96303 1.62729 0
M  V30 6330 H 610.477 -2.74605 1.19299 0
M  V30 6331 H 608.023 -1.32017 0.575104 0
M  V30 6332 H 609.976 -4.13563 -0.808934 0
M  V30 6333 H 608.7 -2.99511 -1.30234 0
M  V30 6334 H 607.359 -3.58936 0.745695 0
M  V30 6335 H 607.007 -4.83249 -1.39569 0
M  V30 6336 H 606.707 -5.87598 0.0166741 0
M  V30 6337 H 608.231 -6.0391 -0.901373 0
M  V30 6338 H 609.645 -5.5783 1.32283 0
M  V30 6339 H 608.042 -5.61666 2.11309 0
M  V30 6340 H 609.112 -4.22758 2.37494 0
M  V30 6341 N 610.455 -0.639598 -1.44038 0
M  V30 6342 C 611.385 0.0469443 -2.33453 0
M  V30 6343 C 612.366 0.82609 -1.48694 0
M  V30 6344 O 613.551 0.790285 -1.77393 0
M  V30 6345 C 610.681 1.02338 -3.3188 0
M  V30 6346 C 609.635 0.355284 -4.26523 0
M  V30 6347 C 608.961 1.44221 -5.14883 0
M  V30 6348 C 610.261 -0.743798 -5.16977 0
M  V30 6349 H 611.955 -0.699735 -2.91108 0
M  V30 6350 H 609.501 -0.337946 -1.39978 0
M  V30 6351 H 611.454 1.51247 -3.93322 0
M  V30 6352 H 610.178 1.80105 -2.72451 0
M  V30 6353 H 608.837 -0.113239 -3.66425 0
M  V30 6354 H 608.485 2.21097 -4.51802 0
M  V30 6355 H 608.185 1.00052 -5.79019 0
M  V30 6356 H 609.709 1.93295 -5.79197 0
M  V30 6357 H 611.123 -0.337444 -5.72306 0
M  V30 6358 H 609.52 -1.10914 -5.89761 0
M  V30 6359 H 610.59 -1.60745 -4.57481 0
M  V30 6360 N 611.933 1.52934 -0.380664 0
M  V30 6361 C 613.182 2.00651 0.205477 0
M  V30 6362 C 613.495 1.27164 1.48623 0
M  V30 6363 O 614.701 1.65547 2.15189 0
M  V30 6364 C 613.157 3.57479 0.416726 0
M  V30 6365 C 612.765 4.39857 -0.850268 0
M  V30 6366 C 614.509 4.13509 0.959702 0
M  V30 6367 C 612.416 5.88269 -0.607773 0
M  V30 6368 H 611.346 0.749684 0.0805614 0
M  V30 6369 H 613.997 1.76508 -0.501732 0
M  V30 6370 H 612.379 3.77836 1.18557 0
M  V30 6371 H 613.553 4.31269 -1.62307 0
M  V30 6372 H 611.868 3.95005 -1.31756 0
M  V30 6373 H 614.465 5.22039 1.15669 0
M  V30 6374 H 614.808 3.69054 1.92626 0
M  V30 6375 H 615.341 3.9701 0.250645 0
M  V30 6376 H 612.08 6.3703 -1.54509 0
M  V30 6377 H 611.6 5.99667 0.126247 0
M  V30 6378 H 613.279 6.46558 -0.239014 0
M  V30 6379 N 613.412 0.11024 1.57214 0
M  V30 6380 C 614.823 -0.416527 1.81994 0
M  V30 6381 C 615.174 -1.67183 1.02686 0
M  V30 6382 O 614.299 -2.14823 0.260782 0
M  V30 6383 C 614.894 -0.762466 3.30109 0
M  V30 6384 C 613.453 -1.23391 3.556 0
M  V30 6385 C 612.6 -0.238166 2.76275 0
M  V30 6386 H 615.551 0.335491 1.55113 0
M  V30 6387 H 615.572 -1.62068 3.44259 0
M  V30 6388 H 615.084 0.151346 3.87805 0
M  V30 6389 H 613.185 -2.16492 3.03253 0
M  V30 6390 H 613.298 -1.18528 4.64207 0
M  V30 6391 H 611.662 -0.723421 2.4421 0
M  V30 6392 H 612.445 0.668591 3.36727 0
M  V30 6393 N 614.89 -1.56749 -0.16351 0
M  V30 6394 C 616.138 -1.82074 -0.87713 0
M  V30 6395 C 616.459 -0.688503 -1.82441 0
M  V30 6396 O 615.729 0.291085 -1.93725 0
M  V30 6397 H 614.309 -0.671677 -0.326893 0
M  V30 6398 H 616.971 -1.9423 -0.161459 0
M  V30 6399 H 616.067 -2.76407 -1.44934 0
M  V30 6400 N 616.368 0.432326 -1.51554 0
M  V30 6401 C 617.316 1.54572 -1.73811 0
M  V30 6402 C 618.31 1.58246 -0.604539 0
M  V30 6403 O 619.516 1.6193 -0.786041 0
M  V30 6404 H 615.891 0.513626 -0.549265 0
M  V30 6405 H 617.862 1.32977 -2.67132 0
M  V30 6406 C 616.611 2.92181 -1.88483 0
M  V30 6407 H 615.934 2.90088 -2.75116 0
M  V30 6408 H 617.374 3.69439 -2.08065 0
M  V30 6409 C 615.833 3.3065 -0.645909 0
M  V30 6410 O 616.363 4.01216 0.197093 0
M  V30 6411 N 614.569 2.86464 -0.488538 0
M  V30 6412 H 614.116 2.29209 -1.17562 0
M  V30 6413 H 614.074 3.12565 0.339156 0
M  V30 6414 N 617.846 1.41785 0.688094 0
M  V30 6415 C 619.076 1.44705 1.47459 0
M  V30 6416 C 619.484 0.052916 1.89126 0
M  V30 6417 O 618.827 -0.939781 1.57841 0
M  V30 6418 C 618.889 2.29935 2.76352 0
M  V30 6419 C 618.553 3.77996 2.56843 0
M  V30 6420 C 619.55 4.69976 2.22304 0
M  V30 6421 C 617.235 4.2212 2.7225 0
M  V30 6422 C 619.229 6.04068 2.03421 0
M  V30 6423 C 616.916 5.56275 2.52985 0
M  V30 6424 C 617.914 6.47065 2.18621 0
M  V30 6425 O 617.602 7.78744 1.9953 0
M  V30 6426 H 617.334 0.494703 0.460701 0
M  V30 6427 H 619.888 1.86802 0.854057 0
M  V30 6428 H 618.118 1.82664 3.40839 0
M  V30 6429 H 619.807 2.24467 3.38186 0
M  V30 6430 H 620.573 4.37175 2.10008 0
M  V30 6431 H 616.452 3.51752 2.97979 0
M  V30 6432 H 619.996 6.74897 1.76523 0
M  V30 6433 H 615.893 5.88653 2.64873 0
M  V30 6434 H 616.661 7.89966 2.14234 0
M  V30 6435 N 619.324 -0.923095 1.27737 0
M  V30 6436 C 620.271 -2.02432 1.1086 0
M  V30 6437 C 621.241 -1.66098 0.00835195 0
M  V30 6438 O 622.426 -1.90027 0.171542 0
M  V30 6439 C 619.566 -3.36476 0.766671 0
M  V30 6440 C 618.679 -3.85737 1.94501 0
M  V30 6441 C 617.814 -5.08249 1.54455 0
M  V30 6442 C 616.853 -5.49818 2.6901 0
M  V30 6443 N 615.99 -6.63524 2.29521 0
M  V30 6444 H 620.83 -2.16201 2.05089 0
M  V30 6445 H 618.367 -1.05909 1.02087 0
M  V30 6446 H 620.325 -4.13569 0.549223 0
M  V30 6447 H 618.955 -3.22502 -0.13867 0
M  V30 6448 H 618.007 -3.04883 2.27487 0
M  V30 6449 H 619.319 -4.12513 2.80419 0
M  V30 6450 H 618.473 -5.92857 1.28862 0
M  V30 6451 H 617.212 -4.83261 0.656534 0
M  V30 6452 H 616.217 -4.63757 2.95313 0
M  V30 6453 H 617.442 -5.76799 3.5844 0
M  V30 6454 H 615.388 -6.40185 1.43177 0
M  V30 6455 H 615.305 -6.89978 3.08977 0
M  V30 6456 H 616.573 -7.51461 2.07187 0
M  V30 6457 N 620.802 -1.09834 -1.13024 0
M  V30 6458 C 621.732 -0.763451 -2.20666 0
M  V30 6459 C 622.713 0.260778 -1.68089 0
M  V30 6460 O 623.898 0.127915 -1.93778 0
M  V30 6461 C 621.028 -0.187744 -3.46792 0
M  V30 6462 C 619.982 -1.14196 -4.12484 0
M  V30 6463 C 619.308 -0.427755 -5.32986 0
M  V30 6464 C 620.608 -2.48607 -4.59338 0
M  V30 6465 H 622.302 -1.66347 -2.48936 0
M  V30 6466 H 619.848 -0.801261 -1.19649 0
M  V30 6467 H 621.801 0.0586375 -4.21359 0
M  V30 6468 H 620.525 0.747485 -3.17931 0
M  V30 6469 H 619.184 -1.37369 -3.3989 0
M  V30 6470 H 618.832 0.511747 -5.0039 0
M  V30 6471 H 618.532 -1.06403 -5.77886 0
M  V30 6472 H 620.056 -0.189772 -6.10305 0
M  V30 6473 H 621.47 -2.29618 -5.25308 0
M  V30 6474 H 619.867 -3.08062 -5.14993 0
M  V30 6475 H 620.937 -3.09062 -3.73642 0
M  V30 6476 N 622.28 1.30327 -0.886154 0
M  V30 6477 C 623.508 2.00254 -0.520176 0
M  V30 6478 C 623.923 1.66419 0.891637 0
M  V30 6479 O 623.28 0.901951 1.58654 0
M  V30 6480 C 623.331 3.54916 -0.686775 0
M  V30 6481 O 623.052 3.87547 -2.04301 0
M  V30 6482 C 624.553 4.42115 -0.323945 0
M  V30 6483 H 621.773 0.640204 -0.200947 0
M  V30 6484 H 624.317 1.66183 -1.19178 0
M  V30 6485 H 622.472 3.8735 -0.0625273 0
M  V30 6486 H 622.886 4.82247 -2.06249 0
M  V30 6487 H 624.36 5.49808 -0.491407 0
M  V30 6488 H 624.837 4.32953 0.73811 0
M  V30 6489 H 625.443 4.15129 -0.924565 0
M  V30 6490 N 623.758 0.647228 1.43697 0
M  V30 6491 C 624.721 -0.0385101 2.29168 0
M  V30 6492 C 625.721 -0.756487 1.41894 0
M  V30 6493 O 626.911 -0.598641 1.63591 0
M  V30 6494 C 624.043 -1.06524 3.23829 0
M  V30 6495 H 625.236 0.713445 2.9129 0
M  V30 6496 H 622.789 0.408153 1.50877 0
M  V30 6497 H 623.524 -1.84664 2.66589 0
M  V30 6498 H 623.309 -0.554147 3.88164 0
M  V30 6499 H 624.799 -1.54432 3.87996 0
M  V30 6500 N 625.236 -1.5273 0.388769 0
M  V30 6501 C 626.461 -2.0647 -0.19621 0
M  V30 6502 C 626.886 -1.25865 -1.39784 0
M  V30 6503 O 626.244 -0.283562 -1.79069 0
M  V30 6504 C 626.292 -3.56456 -0.5451 0
M  V30 6505 O 625.396 -3.78426 -1.63912 0
M  V30 6506 H 624.737 -0.663599 -0.023067 0
M  V30 6507 H 627.267 -1.96898 0.556084 0
M  V30 6508 H 627.277 -3.99888 -0.809557 0
M  V30 6509 H 625.952 -4.14561 0.333417 0
M  V30 6510 H 624.529 -3.46884 -1.36842 0
M  V30 6511 N 626.714 -0.118576 -1.57153 0
M  V30 6512 C 627.677 0.817464 -2.14127 0
M  V30 6513 C 628.677 1.1949 -1.07604 0
M  V30 6514 O 629.867 1.12048 -1.33382 0
M  V30 6515 C 626.999 2.10541 -2.68115 0
M  V30 6516 H 628.192 0.322339 -2.98163 0
M  V30 6517 H 625.745 0.130655 -1.55753 0
M  V30 6518 H 626.48 2.64485 -1.87665 0
M  V30 6519 H 626.265 1.84425 -3.4602 0
M  V30 6520 H 627.755 2.77453 -3.12105 0
M  V30 6521 N 628.193 1.56834 0.155195 0
M  V30 6522 C 629.604 1.72421 0.716082 0
M  V30 6523 C 629.955 0.731685 1.82046 0
M  V30 6524 O 629.08 -0.103481 2.16152 0
M  V30 6525 C 629.675 3.12629 1.30571 0
M  V30 6526 C 628.234 3.29846 1.81325 0
M  V30 6527 C 627.381 2.68359 0.698494 0
M  V30 6528 H 630.332 1.58544 -0.0703861 0
M  V30 6529 H 630.353 3.12174 2.1755 0
M  V30 6530 H 629.865 3.84844 0.501701 0
M  V30 6531 H 627.966 2.62614 2.64319 0
M  V30 6532 H 628.079 4.37727 1.9476 0
M  V30 6533 H 626.443 2.28604 1.12305 0
M  V30 6534 H 627.226 3.43171 -0.0939366 0
M  V30 6535 N 629.671 -0.424282 1.51781 0
M  V30 6536 C 630.919 -1.17028 1.64769 0
M  V30 6537 C 631.24 -1.91409 0.372523 0
M  V30 6538 O 630.51 -1.86091 -0.612108 0
M  V30 6539 H 629.09 -0.434992 0.607282 0
M  V30 6540 H 631.752 -0.485169 1.88765 0
M  V30 6541 H 630.848 -1.8927 2.4816 0
M  V30 6542 N 631.149 -1.42148 -0.680565 0
M  V30 6543 C 632.379 -1.45485 -1.46689 0
M  V30 6544 C 632.787 -0.0629451 -1.89095 0
M  V30 6545 O 632.13 0.931397 -1.58337 0
M  V30 6546 C 632.192 -2.31397 -2.75129 0
M  V30 6547 C 631.856 -3.79353 -2.54834 0
M  V30 6548 C 632.853 -4.71148 -2.19808 0
M  V30 6549 C 630.538 -4.23557 -2.70008 0
M  V30 6550 C 632.532 -6.05139 -2.00215 0
M  V30 6551 C 630.219 -5.57609 -2.50031 0
M  V30 6552 C 631.217 -6.48216 -2.15187 0
M  V30 6553 O 630.905 -7.79792 -1.95397 0
M  V30 6554 H 630.637 -0.497139 -0.458071 0
M  V30 6555 H 633.191 -1.87252 -0.844139 0
M  V30 6556 H 631.421 -1.84468 -3.39865 0
M  V30 6557 H 633.11 -2.26257 -3.36991 0
M  V30 6558 H 633.876 -4.38282 -2.07686 0
M  V30 6559 H 629.755 -3.53327 -2.96109 0
M  V30 6560 H 633.299 -6.75823 -1.72941 0
M  V30 6561 H 629.196 -5.9005 -2.61748 0
M  V30 6562 H 629.964 -7.91091 -2.10042 0
M  V30 6563 N 632.627 0.916307 -1.28225 0
M  V30 6564 C 633.557 2.0352 -1.14464 0
M  V30 6565 C 634.538 1.70045 -0.0430844 0
M  V30 6566 O 635.723 1.92954 -0.219619 0
M  V30 6567 C 632.853 3.37889 -0.803027 0
M  V30 6568 C 631.807 3.85516 -1.85908 0
M  V30 6569 C 631.133 5.1682 -1.37116 0
M  V30 6570 C 632.433 4.07655 -3.26519 0
M  V30 6571 H 634.127 2.1529 -2.08064 0
M  V30 6572 H 631.673 1.03446 -1.00174 0
M  V30 6573 H 633.626 4.15654 -0.693537 0
M  V30 6574 H 632.35 3.26164 0.168674 0
M  V30 6575 H 631.009 3.09953 -1.95767 0
M  V30 6576 H 630.657 5.01497 -0.38859 0
M  V30 6577 H 630.357 5.49657 -2.07728 0
M  V30 6578 H 631.881 5.97143 -1.27484 0
M  V30 6579 H 633.295 4.75953 -3.19596 0
M  V30 6580 H 631.692 4.51818 -3.94943 0
M  V30 6581 H 632.762 3.12553 -3.70727 0
M  V30 6582 N 634.105 1.10431 1.1244 0
M  V30 6583 C 635.068 0.756542 2.16354 0
M  V30 6584 C 636.068 -0.21899 1.59302 0
M  V30 6585 O 637.258 0.00415969 1.742 0
M  V30 6586 C 634.39 0.120612 3.40687 0
M  V30 6587 H 635.583 1.67696 2.48632 0
M  V30 6588 H 633.136 0.904832 1.27446 0
M  V30 6589 H 633.871 -0.810536 3.14008 0
M  V30 6590 H 633.656 0.822693 3.83372 0
M  V30 6591 H 635.146 -0.106945 4.17463 0
M  V30 6592 N 635.583 -1.29855 0.893053 0
M  V30 6593 C 636.832 -1.95104 0.511597 0
M  V30 6594 C 637.145 -1.71226 -0.945567 0
M  V30 6595 O 638.351 -2.30525 -1.43424 0
M  V30 6596 C 636.807 -3.49374 0.864034 0
M  V30 6597 C 636.415 -3.82061 2.33952 0
M  V30 6598 C 638.159 -4.20894 0.552167 0
M  V30 6599 C 636.066 -5.29546 2.63316 0
M  V30 6600 H 634.996 -0.73029 0.187597 0
M  V30 6601 H 637.647 -1.47682 1.08914 0
M  V30 6602 H 636.029 -3.95413 0.215493 0
M  V30 6603 H 637.203 -3.46904 3.03305 0
M  V30 6604 H 635.518 -3.23665 2.61973 0
M  V30 6605 H 638.115 -5.29435 0.748489 0
M  V30 6606 H 638.458 -4.13178 -0.508924 0
M  V30 6607 H 638.991 -3.80564 1.15825 0
M  V30 6608 H 635.73 -5.4232 3.68197 0
M  V30 6609 H 635.25 -5.65974 1.9858 0
M  V30 6610 H 636.929 -5.97068 2.49236 0
M  V30 6611 N 637.061 -0.65484 -1.43351 0
M  V30 6612 C 638.289 -0.176685 -2.06144 0
M  V30 6613 C 638.704 1.15831 -1.49093 0
M  V30 6614 O 638.061 1.71542 -0.622868 0
M  V30 6615 C 638.112 -0.0813326 -3.61408 0
M  V30 6616 O 637.833 -1.36355 -4.1634 0
M  V30 6617 C 639.334 0.422706 -4.4128 0
M  V30 6618 H 636.554 -0.0906429 -0.66485 0
M  V30 6619 H 639.098 -0.895945 -1.83829 0
M  V30 6620 H 637.253 0.588496 -3.82904 0
M  V30 6621 H 637.667 -1.22381 -5.10023 0
M  V30 6622 H 639.141 0.438375 -5.50257 0
M  V30 6623 H 639.618 1.45432 -4.14423 0
M  V30 6624 H 640.224 -0.214687 -4.24758 0
M  V30 6625 N 638.539 1.52521 -0.396863 0
M  V30 6626 C 639.486 2.26671 0.434624 0
M  V30 6627 C 640.456 1.28584 1.05144 0
M  V30 6628 O 641.641 1.57426 1.07804 0
M  V30 6629 C 638.781 3.08234 1.55196 0
M  V30 6630 C 637.894 4.21261 0.957262 0
M  V30 6631 C 637.029 4.90205 2.04627 0
M  V30 6632 C 636.068 5.95213 1.42787 0
M  V30 6633 N 635.205 6.57723 2.45651 0
M  V30 6634 H 640.045 2.973 -0.204139 0
M  V30 6635 H 637.582 1.46669 -0.112505 0
M  V30 6636 H 639.54 3.53819 2.2106 0
M  V30 6637 H 638.17 2.398 2.16092 0
M  V30 6638 H 637.222 3.79935 0.188005 0
M  V30 6639 H 638.534 4.96624 0.465416 0
M  V30 6640 H 637.688 5.39133 2.78246 0
M  V30 6641 H 636.427 4.14383 2.57174 0
M  V30 6642 H 635.432 5.45616 0.676968 0
M  V30 6643 H 636.657 6.72972 0.910255 0
M  V30 6644 H 634.603 5.84737 2.97353 0
M  V30 6645 H 634.52 7.28723 2.01243 0
M  V30 6646 H 635.788 7.11293 3.18876 0
M  V30 6647 N 640.017 0.126909 1.57088 0
M  V30 6648 C 640.964 -0.82036 2.15728 0
M  V30 6649 C 641.934 -1.25811 1.08447 0
M  V30 6650 O 643.119 -1.33422 1.36393 0
M  V30 6651 C 640.259 -2.06199 2.76724 0
M  V30 6652 C 639.372 -1.67188 3.98337 0
M  V30 6653 C 638.507 -2.86378 4.47393 0
M  V30 6654 C 637.546 -2.43644 5.61519 0
M  V30 6655 N 636.683 -3.55775 6.05284 0
M  V30 6656 H 641.523 -0.313472 2.96347 0
M  V30 6657 H 639.06 -0.14303 1.46403 0
M  V30 6658 H 641.018 -2.78959 3.10222 0
M  V30 6659 H 639.648 -2.54333 1.98782 0
M  V30 6660 H 638.7 -0.842714 3.70948 0
M  V30 6661 H 640.012 -1.31789 4.81075 0
M  V30 6662 H 639.166 -3.67353 4.82842 0
M  V30 6663 H 637.905 -3.25009 3.63621 0
M  V30 6664 H 636.91 -1.61104 5.25667 0
M  V30 6665 H 638.135 -2.06122 6.47063 0
M  V30 6666 H 636.081 -3.94065 5.24451 0
M  V30 6667 H 635.998 -3.24325 6.82898 0
M  V30 6668 H 637.266 -4.37166 6.45373 0
M  V30 6669 N 641.495 -1.56914 -0.146875 0
M  V30 6670 C 642.741 -1.83628 -0.860741 0
M  V30 6671 C 643.074 -0.708528 -1.80813 0
M  V30 6672 O 642.349 0.287838 -1.92358 0
M  V30 6673 C 642.632 -3.20836 -1.63511 0
M  V30 6674 C 642.485 -4.44174 -0.709199 0
M  V30 6675 C 643.804 -3.55268 -2.59756 0
M  V30 6676 H 640.923 -0.667949 -0.311468 0
M  V30 6677 H 643.565 -1.89582 -0.125936 0
M  V30 6678 H 641.715 -3.15891 -2.26153 0
M  V30 6679 H 643.387 -4.61205 -0.0937781 0
M  V30 6680 H 641.63 -4.33796 -0.0187856 0
M  V30 6681 H 642.301 -5.36785 -1.28707 0
M  V30 6682 H 644.777 -3.60824 -2.07232 0
M  V30 6683 H 643.653 -4.52303 -3.10987 0
M  V30 6684 H 643.914 -2.81231 -3.41118 0
M  V30 6685 N 642.974 0.416227 -1.52004 0
M  V30 6686 C 643.937 1.48926 -1.74223 0
M  V30 6687 C 644.937 1.48693 -0.612119 0
M  V30 6688 O 646.127 1.50343 -0.879921 0
M  V30 6689 C 643.259 2.88372 -1.81809 0
M  V30 6690 H 644.452 1.3052 -2.70008 0
M  V30 6691 H 642.005 0.646271 -1.42313 0
M  V30 6692 H 642.74 3.12157 -0.879135 0
M  V30 6693 H 642.525 2.89944 -2.6396 0
M  V30 6694 H 644.015 3.66173 -2.00766 0
M  V30 6695 N 644.452 1.42507 0.673017 0
M  V30 6696 C 645.698 1.43284 1.43519 0
M  V30 6697 C 646.031 0.049668 1.94136 0
M  V30 6698 O 645.306 -0.926369 1.71022 0
M  V30 6699 C 645.589 2.45874 2.63093 0
M  V30 6700 C 645.442 3.93388 2.18096 0
M  V30 6701 C 646.761 2.45431 3.6531 0
M  V30 6702 H 643.88 0.521752 0.520522 0
M  V30 6703 H 646.522 1.73932 0.764701 0
M  V30 6704 H 644.672 2.19869 3.20296 0
M  V30 6705 H 646.344 4.30379 1.66046 0
M  V30 6706 H 644.587 4.07169 1.49652 0
M  V30 6707 H 645.258 4.60752 3.03993 0
M  V30 6708 H 647.734 2.68561 3.17827 0
M  V30 6709 H 646.61 3.19189 4.46553 0
M  V30 6710 H 646.871 1.48092 4.16559 0
M  V30 6711 N 645.93 -0.909495 1.28709 0
M  V30 6712 C 647.341 -1.47419 1.14563 0
M  V30 6713 C 647.692 -1.94432 -0.262832 0
M  V30 6714 O 646.817 -1.82842 -1.15748 0
M  V30 6715 C 647.412 -2.67933 2.07358 0
M  V30 6716 C 645.971 -3.20568 1.97264 0
M  V30 6717 C 645.118 -1.93269 1.98852 0
M  V30 6718 H 648.069 -0.721787 1.41336 0
M  V30 6719 H 648.09 -3.43339 1.64007 0
M  V30 6720 H 647.602 -2.33685 3.09859 0
M  V30 6721 H 645.703 -3.59531 0.978157 0
M  V30 6722 H 645.816 -3.85529 2.84436 0
M  V30 6723 H 644.18 -2.10553 1.43317 0
M  V30 6724 H 644.963 -1.61312 3.0304 0
M  V30 6725 N 647.408 -1.11026 -1.11852 0
M  V30 6726 C 648.638 -0.877544 -1.87037 0
M  V30 6727 C 649.046 0.575925 -1.80221 0
M  V30 6728 O 648.389 1.40916 -1.17849 0
M  V30 6729 C 648.451 -1.25529 -3.36872 0
M  V30 6730 C 648.115 -2.71704 -3.67459 0
M  V30 6731 C 649.112 -3.69931 -3.65304 0
M  V30 6732 C 646.797 -3.08243 -3.966 0
M  V30 6733 C 648.791 -5.02717 -3.9186 0
M  V30 6734 C 646.478 -4.41215 -4.22815 0
M  V30 6735 C 647.476 -5.38262 -4.20432 0
M  V30 6736 O 647.164 -6.68839 -4.45992 0
M  V30 6737 H 646.896 -0.314374 -0.598452 0
M  V30 6738 H 649.45 -1.48015 -1.42411 0
M  V30 6739 H 647.68 -0.595808 -3.82082 0
M  V30 6740 H 649.369 -0.999064 -3.93413 0
M  V30 6741 H 650.135 -3.43047 -3.42846 0
M  V30 6742 H 646.014 -2.33326 -3.97593 0
M  V30 6743 H 649.558 -5.78456 -3.89916 0
M  V30 6744 H 645.455 -4.67835 -4.44748 0
M  V30 6745 H 646.223 -6.74563 -4.63581 0
M  V30 6746 N 648.886 1.2938 -0.899927 0
M  V30 6747 C 650.111 2.00228 -0.540692 0
M  V30 6748 C 650.536 1.66909 0.867359 0
M  V30 6749 O 649.894 0.893824 1.57735 0
M  V30 6750 C 649.942 3.52921 -0.740232 0
M  V30 6751 O 649.046 4.11879 0.207154 0
M  V30 6752 H 648.387 0.629505 -0.211233 0
M  V30 6753 H 650.917 1.6487 -1.21158 0
M  V30 6754 H 650.927 4.0287 -0.644973 0
M  V30 6755 H 649.602 3.76508 -1.76677 0
M  V30 6756 H 648.179 3.72845 0.0643315 0
M  V30 6757 N 650.364 0.662433 1.43002 0
M  V30 6758 C 651.775 0.258315 1.84904 0
M  V30 6759 C 652.126 -1.19703 1.55453 0
M  V30 6760 O 651.251 -1.91484 1.00811 0
M  V30 6761 C 651.846 0.462047 3.35635 0
M  V30 6762 C 650.405 0.112165 3.76233 0
M  V30 6763 C 649.552 0.760479 2.66668 0
M  V30 6764 H 652.503 0.865467 1.33024 0
M  V30 6765 H 652.524 -0.289646 3.79396 0
M  V30 6766 H 652.036 1.52135 3.57039 0
M  V30 6767 H 650.137 -0.944179 3.60439 0
M  V30 6768 H 650.25 0.544058 4.76001 0
M  V30 6769 H 648.614 0.192887 2.53969 0
M  V30 6770 H 649.397 1.82299 2.90898 0
M  V30 6771 N 651.842 -1.52309 0.404946 0
M  V30 6772 C 652.805 -2.25491 -0.410651 0
M  V30 6773 C 653.805 -1.27704 -0.977154 0
M  V30 6774 O 654.995 -1.51679 -0.856691 0
M  V30 6775 C 652.127 -3.02197 -1.57765 0
M  V30 6776 H 653.32 -2.99015 0.230277 0
M  V30 6777 H 650.873 -1.55506 0.157377 0
M  V30 6778 H 651.608 -2.33013 -2.25556 0
M  V30 6779 H 651.393 -3.73987 -1.17797 0
M  V30 6780 H 652.883 -3.57719 -2.15469 0
M  V30 6781 N 653.32 -0.135238 -1.57019 0
M  V30 6782 C 654.283 0.794707 -2.14981 0
M  V30 6783 C 655.283 1.18342 -1.08866 0
M  V30 6784 O 656.473 1.10627 -1.34563 0
M  V30 6785 C 653.605 2.07685 -2.70333 0
M  V30 6786 H 654.798 0.290696 -2.98488 0
M  V30 6787 H 652.351 0.114128 -1.55883 0
M  V30 6788 H 653.086 2.6248 -1.9046 0
M  V30 6789 H 652.871 1.80745 -3.47957 0
M  V30 6790 H 654.361 2.74127 -3.1503 0
M  V30 6791 N 654.798 1.5699 0.138552 0
M  V30 6792 C 656.046 1.83446 0.848053 0
M  V30 6793 C 656.367 0.71744 1.81322 0
M  V30 6794 O 655.637 -0.260228 1.94164 0
M  V30 6795 H 654.217 0.676792 0.316166 0
M  V30 6796 H 656.879 1.94462 0.130538 0
M  V30 6797 H 655.975 2.78677 1.40518 0
M  V30 6798 N 656.276 -0.40816 1.52223 0
M  V30 6799 C 657.522 -1.15673 1.66576 0
M  V30 6800 C 657.855 -1.90141 0.394996 0
M  V30 6801 O 657.13 -1.84798 -0.606613 0
M  V30 6802 C 657.413 -2.15042 2.88841 0
M  V30 6803 C 657.266 -1.44465 4.25969 0
M  V30 6804 C 658.585 -3.15699 3.0663 0
M  V30 6805 H 655.704 -0.41916 0.606196 0
M  V30 6806 H 658.346 -0.442348 1.84779 0
M  V30 6807 H 656.496 -2.75964 2.73452 0
M  V30 6808 H 658.168 -0.866544 4.53088 0
M  V30 6809 H 656.411 -0.746612 4.27327 0
M  V30 6810 H 657.082 -2.16976 5.07568 0
M  V30 6811 H 659.558 -2.64854 3.20923 0
M  V30 6812 H 658.434 -3.82491 3.9369 0
M  V30 6813 H 658.695 -3.83481 2.19987 0
M  V30 6814 N 657.755 -1.42862 -0.66545 0
M  V30 6815 C 659.032 -1.3431 -1.42197 0
M  V30 6816 C 659.412 0.0150265 -2.11095 0
M  V30 6817 O 658.76 1.03101 -2.03918 0
M  V30 6818 C 658.97 -2.51783 -2.41674 0
M  V30 6819 C 660.318 -2.94321 -3.0604 0
M  V30 6820 O 661.342 -2.51741 -2.52001 0
M  V30 6821 O 660.201 -3.68047 -4.03985 0
M  V30 6822 H 657.295 -0.530159 -0.634713 0
M  V30 6823 H 659.841 -1.54888 -0.693386 0
M  V30 6824 H 658.613 -3.42282 -1.89627 0
M  V30 6825 H 658.236 -2.33241 -3.22001 0
M  V30 6826 N 659.233 0.902656 -1.29189 0
M  V30 6827 C 660.48 1.65287 -1.16989 0
M  V30 6828 C 660.808 1.92485 0.279232 0
M  V30 6829 O 660.063 1.53143 1.21843 0
M  V30 6830 C 660.362 3.011 -1.92545 0
M  V30 6831 C 660.028 2.93521 -3.42281 0
M  V30 6832 C 658.69 2.91161 -3.83117 0
M  V30 6833 C 661.042 2.82947 -4.3771 0
M  V30 6834 C 658.37 2.76043 -5.17704 0
M  V30 6835 C 660.722 2.69368 -5.72384 0
M  V30 6836 C 659.386 2.65373 -6.12482 0
M  V30 6837 H 658.656 0.604828 -0.428094 0
M  V30 6838 H 661.303 1.05084 -1.60092 0
M  V30 6839 H 659.608 3.65153 -1.42024 0
M  V30 6840 H 661.305 3.58073 -1.80512 0
M  V30 6841 H 657.895 2.96158 -3.09819 0
M  V30 6842 H 662.079 2.83849 -4.07116 0
M  V30 6843 H 657.335 2.71352 -5.47885 0
M  V30 6844 H 661.509 2.60156 -6.45981 0
M  V30 6845 H 659.136 2.53415 -7.16718 0
M  V30 6846 N 660.711 1.11618 1.11262 0
M  V30 6847 C 661.621 0.78898 2.20935 0
M  V30 6848 C 662.637 -0.21867 1.7262 0
M  V30 6849 O 663.813 -0.0543826 2.01327 0
M  V30 6850 C 660.878 0.239014 3.45875 0
M  V30 6851 C 659.939 1.3055 4.08968 0
M  V30 6852 C 659.172 0.781687 5.27944 0
M  V30 6853 O 659.395 -0.387605 5.69082 0
M  V30 6854 O 658.329 1.54734 5.81671 0
M  V30 6855 H 662.155 1.70477 2.51339 0
M  V30 6856 H 659.74 0.892203 1.19834 0
M  V30 6857 H 661.622 -0.0632312 4.21353 0
M  V30 6858 H 660.297 -0.649454 3.17118 0
M  V30 6859 H 659.204 1.66079 3.35214 0
M  V30 6860 H 660.537 2.16743 4.41909 0
M  V30 6861 N 662.189 -1.289 0.906776 0
M  V30 6862 C 663.119 -2.29932 0.406659 0
M  V30 6863 C 664.1 -1.6189 -0.522061 0
M  V30 6864 O 665.285 -1.8935 -0.431283 0
M  V30 6865 C 662.415 -3.45425 -0.360366 0
M  V30 6866 C 661.369 -4.25316 0.478574 0
M  V30 6867 C 660.695 -5.33076 -0.416373 0
M  V30 6868 C 661.995 -4.92739 1.7322 0
M  V30 6869 H 663.689 -2.72013 1.25097 0
M  V30 6870 H 661.235 -1.30768 0.602977 0
M  V30 6871 H 663.188 -4.15186 -0.721029 0
M  V30 6872 H 661.912 -3.02206 -1.23852 0
M  V30 6873 H 660.571 -3.57273 0.821662 0
M  V30 6874 H 660.219 -4.86101 -1.29287 0
M  V30 6875 H 659.919 -5.8743 0.141309 0
M  V30 6876 H 661.443 -6.05686 -0.773072 0
M  V30 6877 H 662.857 -5.54898 1.44086 0
M  V30 6878 H 661.254 -5.57057 2.23175 0
M  V30 6879 H 662.324 -4.17625 2.46408 0
M  V30 6880 N 663.667 -0.670007 -1.42649 0
M  V30 6881 C 664.577 0.0114788 -2.34597 0
M  V30 6882 C 665.593 0.794055 -1.54825 0
M  V30 6883 O 666.769 0.737472 -1.87412 0
M  V30 6884 C 663.834 0.954436 -3.33304 0
M  V30 6885 C 662.895 0.166925 -4.28975 0
M  V30 6886 C 662.128 1.06497 -5.22967 0
M  V30 6887 O 662.351 2.30446 -5.21777 0
M  V30 6888 O 661.285 0.528347 -5.99577 0
M  V30 6889 H 665.111 -0.745794 -2.944 0
M  V30 6890 H 662.696 -0.430228 -1.43071 0
M  V30 6891 H 664.578 1.49589 -3.93956 0
M  V30 6892 H 663.253 1.69164 -2.7598 0
M  V30 6893 H 662.16 -0.418515 -3.71752 0
M  V30 6894 H 663.493 -0.531067 -4.89327 0
M  V30 6895 N 665.145 1.52092 -0.413018 0
M  V30 6896 C 666.37 2.06756 0.163338 0
M  V30 6897 C 666.795 1.28073 1.37764 0
M  V30 6898 O 666.153 0.312015 1.78595 0
M  V30 6899 C 666.201 3.57278 0.488322 0
M  V30 6900 O 665.305 3.80986 1.57871 0
M  V30 6901 H 664.646 0.663882 0.0125068 0
M  V30 6902 H 667.176 1.95988 -0.587339 0
M  V30 6903 H 667.186 4.01125 0.745836 0
M  V30 6904 H 665.861 4.13978 -0.399327 0
M  V30 6905 H 664.438 3.49017 1.31306 0
M  V30 6906 N 666.623 0.143563 1.56945 0
M  V30 6907 C 667.87 -0.508407 1.96014 0
M  V30 6908 C 668.198 -1.65099 1.02824 0
M  V30 6909 O 667.453 -1.95618 0.0567764 0
M  V30 6910 C 667.752 -1.05885 3.41355 0
M  V30 6911 C 667.418 -0.0350809 4.50886 0
M  V30 6912 C 666.08 0.246362 4.80569 0
M  V30 6913 C 668.432 0.661282 5.16988 0
M  V30 6914 C 665.76 1.23003 5.73661 0
M  V30 6915 C 668.112 1.63375 6.11139 0
M  V30 6916 C 666.776 1.92292 6.39203 0
M  V30 6917 H 666.046 -0.186039 0.717266 0
M  V30 6918 H 668.693 0.229667 1.90118 0
M  V30 6919 H 666.998 -1.87419 3.44066 0
M  V30 6920 H 668.695 -1.57183 3.6891 0
M  V30 6921 H 665.285 -0.264622 4.27782 0
M  V30 6922 H 669.469 0.457038 4.94191 0
M  V30 6923 H 664.725 1.46056 5.93698 0
M  V30 6924 H 668.899 2.17887 6.61436 0
M  V30 6925 H 666.526 2.68666 7.11142 0
M  V30 6926 N 668.101 -1.57061 -0.130224 0
M  V30 6927 C 669.326 -1.88802 -0.858409 0
M  V30 6928 C 669.751 -0.734353 -1.73173 0
M  V30 6929 O 669.109 0.315529 -1.78533 0
M  V30 6930 C 669.157 -3.19228 -1.67708 0
M  V30 6931 O 668.261 -3.04343 -2.78297 0
M  V30 6932 H 667.602 -0.619849 -0.238083 0
M  V30 6933 H 670.132 -2.04271 -0.115995 0
M  V30 6934 H 670.142 -3.51669 -2.06864 0
M  V30 6935 H 668.817 -4.02793 -1.0359 0
M  V30 6936 H 667.394 -2.83346 -2.42425 0
M  V30 6937 N 669.579 0.400081 -1.52437 0
M  V30 6938 C 670.489 1.51253 -1.79331 0
M  V30 6939 C 671.505 1.60188 -0.679396 0
M  V30 6940 O 672.681 1.76733 -0.965791 0
M  V30 6941 C 669.746 2.869 -1.94652 0
M  V30 6942 C 668.807 2.87777 -3.18564 0
M  V30 6943 C 668.04 4.16954 -3.33145 0
M  V30 6944 O 668.263 5.11329 -2.52783 0
M  V30 6945 O 667.197 4.2487 -4.26343 0
M  V30 6946 H 671.023 1.31461 -2.73773 0
M  V30 6947 H 668.608 0.586834 -1.37392 0
M  V30 6948 H 670.49 3.67336 -2.065 0
M  V30 6949 H 669.165 3.06741 -1.034 0
M  V30 6950 H 668.072 2.06162 -3.12167 0
M  V30 6951 H 669.405 2.72886 -4.09627 0
M  V30 6952 N 671.057 1.43213 0.657864 0
M  V30 6953 C 672.473 1.26511 0.972992 0
M  V30 6954 C 672.673 0.181477 2.00681 0
M  V30 6955 O 671.729 -0.441649 2.48608 0
M  V30 6956 C 673.042 2.62784 1.46168 0
M  V30 6957 C 674.59 2.70278 1.57857 0
M  V30 6958 C 675.065 4.06958 2.10117 0
M  V30 6959 N 676.556 4.08999 2.17426 0
M  V30 6960 C 677.291 5.11585 2.58975 0
M  V30 6961 N 676.787 6.24548 2.99853 0
M  V30 6962 N 678.58 4.9894 2.58873 0
M  V30 6963 H 670.731 2.12384 -0.0263129 0
M  V30 6964 H 672.994 0.946638 0.0507992 0
M  V30 6965 H 672.7 3.43022 0.776474 0
M  V30 6966 H 672.574 2.87863 2.43751 0
M  V30 6967 H 674.961 1.90376 2.25479 0
M  V30 6968 H 675.042 2.4897 0.587179 0
M  V30 6969 H 674.686 4.87325 1.43098 0
M  V30 6970 H 674.616 4.25628 3.10078 0
M  V30 6971 H 677.107 3.27457 1.88627 0
M  V30 6972 H 677.42 6.98661 3.30292 0
M  V30 6973 H 675.765 6.28027 2.97669 0
M  V30 6974 H 678.956 4.09757 2.26311 0
M  V30 6975 H 679.129 5.79019 2.90932 0
M  V30 6976 N 672.536 -0.895792 1.29666 0
M  V30 6977 C 673.483 -2.00035 1.15129 0
M  V30 6978 C 674.453 -1.66043 0.0435819 0
M  V30 6979 O 675.638 -1.89621 0.211811 0
M  V30 6980 C 672.778 -3.34774 0.83787 0
M  V30 6981 C 671.891 -3.81525 2.0264 0
M  V30 6982 C 671.026 -5.04858 1.65201 0
M  V30 6983 C 670.065 -5.43988 2.80612 0
M  V30 6984 N 669.202 -6.58507 2.43544 0
M  V30 6985 H 674.042 -2.11802 2.09628 0
M  V30 6986 H 671.579 -1.03719 1.04311 0
M  V30 6987 H 673.537 -4.12311 0.636824 0
M  V30 6988 H 672.167 -3.22724 -0.0702314 0
M  V30 6989 H 671.219 -2.9999 2.33903 0
M  V30 6990 H 672.531 -4.06472 2.89106 0
M  V30 6991 H 671.685 -5.8999 1.41408 0
M  V30 6992 H 670.424 -4.81759 0.758893 0
M  V30 6993 H 669.429 -4.57388 3.05083 0
M  V30 6994 H 670.654 -5.69066 3.70595 0
M  V30 6995 H 668.6 -6.37004 1.56724 0
M  V30 6996 H 668.517 -6.83269 3.23542 0
M  V30 6997 H 669.785 -7.46897 2.2308 0
M  V30 6998 N 674.014 -1.12206 -1.10668 0
M  V30 6999 C 674.924 -0.800686 -2.20513 0
M  V30 7000 C 675.94 0.209512 -1.72734 0
M  V30 7001 O 677.116 0.043705 -2.01353 0
M  V30 7002 C 674.181 -0.257353 -3.45744 0
M  V30 7003 C 673.242 -1.32718 -4.0827 0
M  V30 7004 C 672.475 -0.809674 -5.27522 0
M  V30 7005 O 672.698 0.35742 -5.69279 0
M  V30 7006 O 671.632 -1.57816 -5.80842 0
M  V30 7007 H 675.458 -1.71807 -2.50432 0
M  V30 7008 H 673.043 -0.898546 -1.19359 0
M  V30 7009 H 674.925 0.0408849 -4.2138 0
M  V30 7010 H 673.6 0.632627 -3.17458 0
M  V30 7011 H 672.507 -1.67855 -3.34329 0
M  V30 7012 H 673.84 -2.19083 -4.40753 0
M  V30 7013 N 675.492 1.28418 -0.913599 0
M  V30 7014 C 676.402 2.31043 -0.406965 0
M  V30 7015 C 677.418 1.66501 0.505298 0
M  V30 7016 O 678.594 1.97558 0.391522 0
M  V30 7017 C 675.659 3.4498 0.344901 0
M  V30 7018 C 674.72 4.25078 -0.600563 0
M  V30 7019 C 673.953 5.33575 0.115516 0
M  V30 7020 O 674.176 5.54503 1.33727 0
M  V30 7021 O 673.11 5.9939 -0.549095 0
M  V30 7022 H 676.936 2.76387 -1.25873 0
M  V30 7023 H 674.521 1.33109 -0.678415 0
M  V30 7024 H 676.403 4.14314 0.769542 0
M  V30 7025 H 675.078 3.01719 1.1725 0
M  V30 7026 H 673.985 3.58334 -1.0746 0
M  V30 7027 H 675.318 4.72018 -1.39497 0
M  V30 7028 N 676.97 0.677563 1.42291 0
M  V30 7029 C 677.88 0.000962654 2.346 0
M  V30 7030 C 678.896 -0.785833 1.55244 0
M  V30 7031 O 680.072 -0.727523 1.87801 0
M  V30 7032 C 677.137 -0.936746 3.33805 0
M  V30 7033 C 676.198 -0.144173 4.29058 0
M  V30 7034 C 675.431 -1.03722 5.23524 0
M  V30 7035 O 675.654 -2.27675 5.22992 0
M  V30 7036 O 674.588 -0.496542 5.99848 0
M  V30 7037 H 678.414 0.761397 2.94001 0
M  V30 7038 H 675.999 0.43781 1.42841 0
M  V30 7039 H 677.881 -1.47497 3.94744 0
M  V30 7040 H 676.556 -1.67698 2.76874 0
M  V30 7041 H 675.463 0.438224 3.71524 0
M  V30 7042 H 676.796 0.55701 4.89038 0
M  V30 7043 N 678.448 -1.51871 0.421078 0
M  V30 7044 C 679.395 -2.27334 -0.398508 0
M  V30 7045 C 680.365 -1.30241 -1.03085 0
M  V30 7046 O 681.55 -1.59121 -1.05285 0
M  V30 7047 C 678.69 -3.10664 -1.50272 0
M  V30 7048 C 677.803 -4.2273 -0.890122 0
M  V30 7049 C 676.938 -4.93399 -1.96803 0
M  V30 7050 C 675.977 -5.97409 -1.333 0
M  V30 7051 N 675.114 -6.61548 -2.35156 0
M  V30 7052 H 679.954 -2.96938 0.251411 0
M  V30 7053 H 677.491 -1.46472 0.135825 0
M  V30 7054 H 679.449 -3.57292 -2.15403 0
M  V30 7055 H 678.079 -2.43207 -2.1225 0
M  V30 7056 H 677.131 -3.80186 -0.127537 0
M  V30 7057 H 678.443 -4.97302 -0.386349 0
M  V30 7058 H 677.597 -5.43491 -2.69633 0
M  V30 7059 H 676.336 -4.18421 -2.50549 0
M  V30 7060 H 675.341 -5.46624 -0.59008 0
M  V30 7061 H 676.566 -6.74335 -0.803076 0
M  V30 7062 H 674.512 -5.89394 -2.88012 0
M  V30 7063 H 674.429 -7.31832 -1.89624 0
M  V30 7064 H 675.697 -7.16276 -3.0752 0
M  V30 7065 N 679.926 -0.151884 -1.56866 0
M  V30 7066 C 680.836 0.798876 -2.20579 0
M  V30 7067 C 681.852 1.268 -1.19154 0
M  V30 7068 O 683.028 1.32418 -1.51748 0
M  V30 7069 C 680.093 2.01861 -2.81874 0
M  V30 7070 C 679.154 1.59825 -3.9844 0
M  V30 7071 C 678.387 2.75984 -4.56802 0
M  V30 7072 O 678.61 3.92331 -4.14044 0
M  V30 7073 O 677.544 2.51175 -5.46987 0
M  V30 7074 H 681.37 0.2865 -3.02346 0
M  V30 7075 H 678.955 0.0753806 -1.4921 0
M  V30 7076 H 680.837 2.73235 -3.20813 0
M  V30 7077 H 679.512 2.52042 -2.03117 0
M  V30 7078 H 678.419 0.854601 -3.64208 0
M  V30 7079 H 679.752 1.14355 -4.78731 0
M  V30 7080 N 681.404 1.57128 0.121893 0
M  V30 7081 C 682.314 2.03425 1.16857 0
M  V30 7082 C 683.33 0.954108 1.45509 0
M  V30 7083 O 684.506 1.26541 1.56682 0
M  V30 7084 C 681.571 2.42685 2.47599 0
M  V30 7085 C 680.632 3.64767 2.2637 0
M  V30 7086 C 679.865 4.02145 3.50878 0
M  V30 7087 O 680.088 3.39897 4.58068 0
M  V30 7088 O 679.022 4.95262 3.42051 0
M  V30 7089 H 682.848 2.92825 0.80544 0
M  V30 7090 H 680.433 1.45654 0.332477 0
M  V30 7091 H 682.315 2.68684 3.24634 0
M  V30 7092 H 680.99 1.56432 2.83392 0
M  V30 7093 H 679.897 3.43922 1.47203 0
M  V30 7094 H 681.23 4.51716 1.95482 0
M  V30 7095 N 682.882 -0.391992 1.52647 0
M  V30 7096 C 683.812 -1.48517 1.8018 0
M  V30 7097 C 684.793 -1.57039 0.653667 0
M  V30 7098 O 685.978 -1.72036 0.900962 0
M  V30 7099 C 683.108 -2.86161 1.96797 0
M  V30 7100 C 682.062 -2.92481 3.12472 0
M  V30 7101 C 681.388 -4.32546 3.14338 0
M  V30 7102 C 682.688 -2.624 4.51601 0
M  V30 7103 H 684.382 -1.25726 2.71723 0
M  V30 7104 H 681.928 -0.603387 1.30749 0
M  V30 7105 H 683.881 -3.62639 2.14641 0
M  V30 7106 H 682.605 -3.10283 1.01941 0
M  V30 7107 H 681.264 -2.18451 2.94406 0
M  V30 7108 H 680.912 -4.53703 2.1717 0
M  V30 7109 H 680.612 -4.37695 3.92042 0
M  V30 7110 H 682.136 -5.10934 3.34333 0
M  V30 7111 H 683.55 -3.28596 4.69785 0
M  V30 7112 H 681.947 -2.78903 5.3135 0
M  V30 7113 H 683.017 -1.57754 4.58521 0
M  V30 7114 N 684.36 -1.4356 -0.65026 0
M  V30 7115 C 685.293 -1.434 -1.77515 0
M  V30 7116 C 686.271 -0.295082 -1.599 0
M  V30 7117 O 687.455 -0.489128 -1.82043 0
M  V30 7118 C 684.582 -1.2484 -3.14853 0
M  V30 7119 C 683.628 -2.42046 -3.51163 0
M  V30 7120 S 684.461 -4.04595 -3.50803 0
M  V30 7121 C 685.617 -3.88424 -4.90793 0
M  V30 7122 H 685.85 -2.38586 -1.77381 0
M  V30 7123 H 683.383 -1.30627 -0.823169 0
M  V30 7124 H 685.341 -1.14819 -3.94115 0
M  V30 7125 H 684.002 -0.311977 -3.12547 0
M  V30 7126 H 683.195 -2.24873 -4.51052 0
M  V30 7127 H 682.797 -2.48708 -2.79321 0
M  V30 7128 H 685.089 -3.50932 -5.79528 0
M  V30 7129 H 686.032 -4.88076 -5.13018 0
M  V30 7130 H 686.44 -3.20829 -4.64467 0
M  V30 7131 N 685.838 0.888903 -1.30139 0
M  V30 7132 C 686.748 2.02705 -1.18101 0
M  V30 7133 C 687.764 1.73702 -0.101809 0
M  V30 7134 O 688.94 1.98906 -0.315984 0
M  V30 7135 C 686.005 3.35616 -0.869651 0
M  V30 7136 C 685.066 3.78067 -2.03381 0
M  V30 7137 C 684.299 5.04635 -1.73721 0
M  V30 7138 O 684.522 5.66531 -0.663267 0
M  V30 7139 O 683.456 5.43399 -2.58845 0
M  V30 7140 H 687.282 2.15788 -2.13704 0
M  V30 7141 H 684.867 1.01426 -1.09695 0
M  V30 7142 H 686.749 4.15358 -0.711043 0
M  V30 7143 H 685.424 3.23651 0.0565002 0
M  V30 7144 H 684.331 2.99046 -2.24772 0
M  V30 7145 H 685.664 3.94631 -2.94155 0
M  V30 7146 N 687.317 1.12792 1.10072 0
M  V30 7147 C 688.563 0.89679 1.82563 0
M  V30 7148 C 688.918 -0.571152 1.83727 0
M  V30 7149 O 688.211 -1.41697 1.28967 0
M  V30 7150 C 688.405 1.4102 3.28403 0
M  V30 7151 C 688.234 2.92652 3.41445 0
M  V30 7152 C 687.004 3.60928 3.53637 0
M  V30 7153 C 689.202 3.9063 3.34534 0
M  V30 7154 N 687.184 5.00638 3.55295 0
M  V30 7155 C 688.555 5.16492 3.42981 0
M  V30 7156 C 690.61 3.82989 3.18157 0
M  V30 7157 C 689.313 6.35609 3.3674 0
M  V30 7158 C 691.339 5.01633 3.13239 0
M  V30 7159 C 690.701 6.26355 3.22272 0
M  V30 7160 H 686.8 0.381482 0.682638 0
M  V30 7161 H 689.384 1.43491 1.31599 0
M  V30 7162 H 687.555 0.899077 3.77851 0
M  V30 7163 H 689.287 1.12075 3.88872 0
M  V30 7164 H 686.042 3.11429 3.56803 0
M  V30 7165 H 686.466 5.73521 3.59725 0
M  V30 7166 H 691.108 2.87454 3.10049 0
M  V30 7167 H 688.826 7.31407 3.43613 0
M  V30 7168 H 692.412 4.97454 3.01713 0
M  V30 7169 H 691.292 7.1662 3.18473 0
M  V30 7170 N 688.795 -1.27931 0.920396 0
M  V30 7171 C 690.041 -1.95329 0.5673 0
M  V30 7172 C 690.396 -1.7107 -0.880506 0
M  V30 7173 O 689.689 -1.02497 -1.61879 0
M  V30 7174 C 689.883 -3.47853 0.820558 0
M  V30 7175 C 689.712 -3.86941 2.29143 0
M  V30 7176 C 688.482 -4.10766 2.94278 0
M  V30 7177 C 690.68 -3.97091 3.26838 0
M  V30 7178 N 688.662 -4.36578 4.31594 0
M  V30 7179 C 690.033 -4.27194 4.49339 0
M  V30 7180 C 692.088 -3.79639 3.22147 0
M  V30 7181 C 690.791 -4.41662 5.67739 0
M  V30 7182 C 692.817 -3.95328 4.39852 0
M  V30 7183 C 692.179 -4.2581 5.61128 0
M  V30 7184 H 688.278 -0.73836 0.257583 0
M  V30 7185 H 690.862 -1.54447 1.1855 0
M  V30 7186 H 689.033 -3.87709 0.231571 0
M  V30 7187 H 690.765 -4.024 0.430824 0
M  V30 7188 H 687.52 -4.05318 2.44979 0
M  V30 7189 H 687.944 -4.53555 5.0261 0
M  V30 7190 H 692.586 -3.55119 2.29457 0
M  V30 7191 H 690.304 -4.65011 6.60901 0
M  V30 7192 H 693.89 -3.83253 4.37731 0
M  V30 7193 H 692.77 -4.37691 6.50689 0
M  V30 7194 N 690.273 -0.685099 -1.4193 0
M  V30 7195 C 691.22 -0.0131869 -2.30796 0
M  V30 7196 C 692.19 0.782129 -1.46533 0
M  V30 7197 O 693.375 0.75229 -1.75343 0
M  V30 7198 C 690.515 0.924768 -3.32479 0
M  V30 7199 C 689.628 0.122181 -4.31827 0
M  V30 7200 C 688.763 1.05682 -5.20581 0
M  V30 7201 C 687.802 0.246526 -6.11603 0
M  V30 7202 N 686.939 1.13442 -6.92875 0
M  V30 7203 H 691.779 -0.776789 -2.87698 0
M  V30 7204 H 689.316 -0.394791 -1.41703 0
M  V30 7205 H 691.274 1.48251 -3.89971 0
M  V30 7206 H 689.904 1.65488 -2.77152 0
M  V30 7207 H 688.956 -0.552335 -3.76369 0
M  V30 7208 H 690.268 -0.506473 -4.96222 0
M  V30 7209 H 689.422 1.68415 -5.82856 0
M  V30 7210 H 688.161 1.71935 -4.56388 0
M  V30 7211 H 687.166 -0.393944 -5.48387 0
M  V30 7212 H 688.391 -0.412053 -6.77849 0
M  V30 7213 H 686.337 1.78316 -6.313 0
M  V30 7214 H 686.254 0.561089 -7.53915 0
M  V30 7215 H 687.522 1.74889 -7.59628 0
M  V30 7216 N 691.751 1.51645 -0.429126 0
M  V30 7217 C 692.684 2.24083 0.431492 0
M  V30 7218 C 693.662 1.25691 1.03153 0
M  V30 7219 O 694.846 1.54802 1.07557 0
M  V30 7220 C 691.973 2.9849 1.60067 0
M  V30 7221 C 691.019 4.11474 1.12211 0
M  V30 7222 S 691.852 5.35453 0.0708449 0
M  V30 7223 C 693.008 6.13395 1.24488 0
M  V30 7224 H 693.241 2.96733 -0.183525 0
M  V30 7225 H 690.774 1.52916 -0.213574 0
M  V30 7226 H 692.732 3.4196 2.27099 0
M  V30 7227 H 691.393 2.25445 2.18708 0
M  V30 7228 H 690.586 4.62784 1.99618 0
M  V30 7229 H 690.188 3.70223 0.530149 0
M  V30 7230 H 692.48 6.41984 2.16479 0
M  V30 7231 H 693.423 7.0388 0.771921 0
M  V30 7232 H 693.831 5.44761 1.47973 0
M  V30 7233 N 693.229 0.160201 1.56784 0
M  V30 7234 C 694.162 -0.812797 2.13234 0
M  V30 7235 C 695.14 -1.2335 1.05942 0
M  V30 7236 O 696.324 -1.32725 1.33852 0
M  V30 7237 C 693.451 -2.09311 2.66283 0
M  V30 7238 C 692.497 -1.8173 3.85845 0
M  V30 7239 S 693.33 -0.996473 5.26147 0
M  V30 7240 C 694.486 -2.28769 5.82594 0
M  V30 7241 H 694.719 -0.332794 2.95432 0
M  V30 7242 H 692.252 -0.0542971 1.54304 0
M  V30 7243 H 694.21 -2.82854 2.97496 0
M  V30 7244 H 692.871 -2.54425 1.84192 0
M  V30 7245 H 692.064 -2.76699 4.21253 0
M  V30 7246 H 691.666 -1.16289 3.55462 0
M  V30 7247 H 693.958 -3.24319 5.9483 0
M  V30 7248 H 694.901 -1.97846 6.79899 0
M  V30 7249 H 695.309 -2.40021 5.10931 0
M  V30 7250 N 694.707 -1.5719 -0.113559 0
M  V30 7251 C 695.932 -1.89702 -0.838336 0
M  V30 7252 C 696.357 -0.752679 -1.72384 0
M  V30 7253 O 695.715 0.296575 -1.78858 0
M  V30 7254 C 695.763 -3.20989 -1.64312 0
M  V30 7255 O 694.867 -3.07278 -2.75053 0
M  V30 7256 H 694.208 -0.622339 -0.231496 0
M  V30 7257 H 696.738 -2.04382 -0.0943228 0
M  V30 7258 H 696.748 -3.53843 -2.03123 0
M  V30 7259 H 695.423 -4.03869 -0.993119 0
M  V30 7260 H 694 -2.85901 -2.39406 0
M  V30 7261 N 696.185 0.383891 -1.52853 0
M  V30 7262 C 697.095 1.49343 -1.80925 0
M  V30 7263 C 698.111 1.59458 -0.696348 0
M  V30 7264 O 699.287 1.75698 -0.984481 0
M  V30 7265 C 696.352 2.84819 -1.97684 0
M  V30 7266 C 695.413 2.84382 -3.21598 0
M  V30 7267 C 694.646 4.13397 -3.37548 0
M  V30 7268 O 694.869 5.08619 -2.58192 0
M  V30 7269 O 693.803 4.20325 -4.30826 0
M  V30 7270 H 697.629 1.2855 -2.75152 0
M  V30 7271 H 695.214 0.572229 -1.38007 0
M  V30 7272 H 697.096 3.65125 -2.10385 0
M  V30 7273 H 695.771 3.05627 -1.06647 0
M  V30 7274 H 694.678 2.0284 -3.14336 0
M  V30 7275 H 696.011 2.68526 -4.12498 0
M  V30 7276 N 697.663 1.43903 0.642637 0
M  V30 7277 C 698.891 1.4954 1.42988 0
M  V30 7278 C 699.306 0.116588 1.8844 0
M  V30 7279 O 698.663 -0.875285 1.60141 0
M  V30 7280 C 698.714 2.45031 2.65785 0
M  V30 7281 O 698.435 3.77551 2.22232 0
M  V30 7282 C 699.936 2.60017 3.59035 0
M  V30 7283 H 697.156 0.507544 0.438907 0
M  V30 7284 H 699.7 1.88752 0.786942 0
M  V30 7285 H 697.855 2.08985 3.26196 0
M  V30 7286 H 698.269 4.29001 3.01759 0
M  V30 7287 H 699.743 3.30887 4.41835 0
M  V30 7288 H 700.22 1.64861 4.07084 0
M  V30 7289 H 700.826 2.96918 3.045 0
M  V30 7290 N 699.141 -0.881989 1.30609 0
M  V30 7291 C 700.071 -2.00413 1.1982 0
M  V30 7292 C 701.052 -1.69871 0.0881538 0
M  V30 7293 O 702.237 -1.92304 0.2707 0
M  V30 7294 C 699.367 -3.35641 0.89233 0
M  V30 7295 C 698.321 -3.80451 1.96064 0
M  V30 7296 C 697.647 -5.13003 1.5077 0
M  V30 7297 C 698.947 -3.98855 3.37213 0
M  V30 7298 H 700.641 -2.09698 2.13699 0
M  V30 7299 H 698.187 -1.00754 1.02882 0
M  V30 7300 H 700.14 -4.13669 0.803497 0
M  V30 7301 H 698.864 -3.26497 -0.0821381 0
M  V30 7302 H 697.523 -3.04654 2.03916 0
M  V30 7303 H 697.171 -5.0029 0.521417 0
M  V30 7304 H 696.871 -5.43956 2.22229 0
M  V30 7305 H 698.395 -5.93554 1.43271 0
M  V30 7306 H 699.809 -4.67312 3.32103 0
M  V30 7307 H 698.206 -4.41188 4.06784 0
M  V30 7308 H 699.276 -3.02614 3.78883 0
M  V30 7309 N 700.619 -1.13374 -1.09472 0
M  V30 7310 C 701.567 -0.806105 -2.18185 0
M  V30 7311 C 702.561 0.21136 -1.68076 0
M  V30 7312 O 703.767 0.0685558 -1.79869 0
M  V30 7313 H 700.142 -0.242901 -0.71169 0
M  V30 7314 H 702.113 -1.73115 -2.43051 0
M  V30 7315 C 700.862 -0.287928 -3.46506 0
M  V30 7316 H 700.185 -1.06217 -3.85432 0
M  V30 7317 H 701.625 -0.0971054 -4.23889 0
M  V30 7318 C 700.084 0.986256 -3.22141 0
M  V30 7319 O 700.614 2.06217 -3.44728 0
M  V30 7320 N 698.82 0.917153 -2.75747 0
M  V30 7321 H 698.367 0.0414609 -2.57567 0
M  V30 7322 H 698.325 1.77029 -2.59823 0
M  V30 7323 N 702.098 1.27442 -0.927168 0
M  V30 7324 C 703.345 1.94391 -0.567324 0
M  V30 7325 C 703.673 1.72875 0.891321 0
M  V30 7326 O 702.928 1.05071 1.65102 0
M  V30 7327 C 703.227 3.47413 -0.838994 0
M  V30 7328 C 702.893 3.89049 -2.2793 0
M  V30 7329 C 701.555 4.00127 -2.67305 0
M  V30 7330 C 703.907 4.10154 -3.21595 0
M  V30 7331 C 701.235 4.29697 -3.99471 0
M  V30 7332 C 703.587 4.41208 -4.53341 0
M  V30 7333 C 702.251 4.50499 -4.92551 0
M  V30 7334 H 701.521 0.711325 -0.207598 0
M  V30 7335 H 704.168 1.51523 -1.17103 0
M  V30 7336 H 702.473 3.91503 -0.152609 0
M  V30 7337 H 704.17 3.97354 -0.53955 0
M  V30 7338 H 700.76 3.80962 -1.96381 0
M  V30 7339 H 704.944 4.01036 -2.92377 0
M  V30 7340 H 700.2 4.35099 -4.29533 0
M  V30 7341 H 704.374 4.56486 -5.25922 0
M  V30 7342 H 702.001 4.73167 -5.94994 0
M  V30 7343 O 703.615 0.831378 1.38457 0
M  V30 7344 H 704.306 0.416578 1.89167 0
M  V30 END ATOM
M  V30 BEGIN BOND
M  V30 END BOND
M  V30 END CTAB
M  END
$$$$
