drugbank_target|P17050 Alpha-N-acetylgalactosaminidase (DB09462)
 OpenBabel12092120563D

  0  0  0     0  0            999 V3000
M  V30 BEGIN CTAB
M  V30 COUNTS 6463 6549 0 0 0
M  V30 BEGIN ATOM
M  V30 1 H -0.908 1.98254 -0.117106 0
M  V30 2 N 0 1.576 0 0
M  V30 3 C 0.933 2.03868 1.02534 0
M  V30 4 C 1.911 0.928543 1.3348 0
M  V30 5 O 3.095 1.19667 1.45644 0
M  V30 6 C 0.222 2.43627 2.35294 0
M  V30 7 C -0.732 3.65373 2.2001 0
M  V30 8 S 0.101 5.13292 1.52614 0
M  V30 9 C 1.257 5.56322 2.86805 0
M  V30 10 H 1.49 2.90518 0.631377 0
M  V30 11 H -0.977 1.52953 0.210867 0
M  V30 12 H 0.981 2.67203 3.11629 0
M  V30 13 H -0.358 1.57376 2.7183 0
M  V30 14 H -1.165 3.90944 3.18086 0
M  V30 15 H -1.563 3.418 1.51819 0
M  V30 16 H 0.729 5.58782 3.83104 0
M  V30 17 H 1.672 6.56266 2.65933 0
M  V30 18 H 2.08 4.83886 2.90714 0
M  V30 19 N 1.4781 -0.272755 1.55222 0
M  V30 20 C 2.4081 -1.34136 1.91127 0
M  V30 21 C 3.3891 -1.51513 0.773168 0
M  V30 22 O 4.5741 -1.64552 1.03132 0
M  V30 23 C 1.7041 -2.70083 2.1834 0
M  V30 24 C 0.6581 -2.67437 3.34158 0
M  V30 25 C -0.0159 -4.06938 3.46851 0
M  V30 26 C 1.2841 -2.26686 4.70543 0
M  V30 27 H 2.9781 -1.04333 2.80633 0
M  V30 28 H 0.5241 -0.500454 1.35024 0
M  V30 29 H 2.4771 -3.44952 2.42046 0
M  V30 30 H 1.2011 -3.01469 1.25634 0
M  V30 31 H -0.1399 -1.95026 3.1042 0
M  V30 32 H -0.4919 -4.35547 2.51611 0
M  V30 33 H -0.7919 -4.06062 4.2472 0
M  V30 34 H 0.7321 -4.83545 3.72849 0
M  V30 35 H 2.1461 -2.91277 4.93792 0
M  V30 36 H 0.5431 -2.36971 5.5133 0
M  V30 37 H 1.6131 -1.21818 4.69349 0
M  V30 38 N 2.9562 -1.48159 -0.537278 0
M  V30 39 C 3.8862 -1.65029 -1.6519 0
M  V30 40 C 4.8672 -0.499281 -1.62607 0
M  V30 41 O 6.0522 -0.730972 -1.79918 0
M  V30 42 C 3.1822 -1.68303 -3.03795 0
M  V30 43 C 2.1362 -2.8283 -3.21234 0
M  V30 44 C 1.4622 -2.71189 -4.60826 0
M  V30 45 C 2.7622 -4.24211 -3.04701 0
M  V30 46 H 4.4562 -2.58341 -1.51328 0
M  V30 47 H 2.0022 -1.24325 -0.726585 0
M  V30 48 H 3.9552 -1.78693 -3.81637 0
M  V30 49 H 2.6792 -0.715635 -3.18663 0
M  V30 50 H 1.3382 -2.71983 -2.45807 0
M  V30 51 H 0.9862 -1.72435 -4.7252 0
M  V30 52 H 0.6862 -3.48035 -4.7344 0
M  V30 53 H 2.2102 -2.83537 -5.40777 0
M  V30 54 H 3.6242 -4.3593 -3.72341 0
M  V30 55 H 2.0212 -5.01998 -3.28813 0
M  V30 56 H 3.0912 -4.41184 -2.01209 0
M  V30 57 N 4.4343 0.785586 -1.36625 0
M  V30 58 C 5.3813 1.89838 -1.31264 0
M  V30 59 C 6.3513 1.65115 -0.180633 0
M  V30 60 O 7.5363 1.87222 -0.36777 0
M  V30 61 C 4.6763 3.26706 -1.11163 0
M  V30 62 C 3.7893 3.63476 -2.33472 0
M  V30 63 C 2.9243 4.89481 -2.06353 0
M  V30 64 C 1.9633 5.18941 -3.24602 0
M  V30 65 N 1.1003 6.36131 -2.97123 0
M  V30 66 H 5.9403 1.93756 -2.26413 0
M  V30 67 H 3.4773 0.947454 -1.12524 0
M  V30 68 H 5.4353 4.05639 -0.975337 0
M  V30 69 H 4.0653 3.222 -0.196674 0
M  V30 70 H 3.1173 2.79636 -2.57891 0
M  V30 71 H 4.4293 3.81193 -3.21704 0
M  V30 72 H 3.5833 5.76288 -1.89675 0
M  V30 73 H 2.3223 4.73841 -1.15437 0
M  V30 74 H 1.3273 4.30615 -3.41834 0
M  V30 75 H 2.5523 5.36498 -4.16349 0
M  V30 76 H 0.4983 6.21875 -2.08823 0
M  V30 77 H 0.4153 6.54198 -3.78894 0
M  V30 78 H 1.6833 7.2591 -2.84033 0
M  V30 79 N 5.9124 1.20967 1.01018 0
M  V30 80 C 7.1404 1.04956 1.78303 0
M  V30 81 C 7.5554 -0.400915 1.84494 0
M  V30 82 O 6.9124 -1.27826 1.30257 0
M  V30 83 C 6.9634 1.63403 3.22462 0
M  V30 84 O 6.6844 3.02775 3.16637 0
M  V30 85 C 8.1854 1.52432 4.16268 0
M  V30 86 H 5.4054 0.368858 0.560522 0
M  V30 87 H 7.9494 1.60193 1.27116 0
M  V30 88 H 6.1044 1.1227 3.70775 0
M  V30 89 H 6.5184 3.30626 4.07169 0
M  V30 90 H 7.9924 1.98078 5.15237 0
M  V30 91 H 8.4694 0.477875 4.36592 0
M  V30 92 H 9.0754 2.02787 3.73841 0
M  V30 93 N 7.3905 -1.2043 1.01659 0
M  V30 94 C 8.6365 -1.90079 0.706963 0
M  V30 95 C 8.9695 -1.78648 -0.761474 0
M  V30 96 O 8.2445 -1.17069 -1.55323 0
M  V30 97 C 8.5275 -3.41469 1.14327 0
M  V30 98 C 8.3805 -3.61833 2.67201 0
M  V30 99 C 9.6995 -4.34261 0.714529 0
M  V30 100 H 6.8185 -0.690254 0.2583 0
M  V30 101 H 9.4605 -1.41826 1.26433 0
M  V30 102 H 7.6105 -3.82696 0.669056 0
M  V30 103 H 9.2825 -3.2986 3.22475 0
M  V30 104 H 7.5255 -3.05304 3.08175 0
M  V30 105 H 8.1965 -4.67955 2.92783 0
M  V30 106 H 10.6725 -4.00682 1.12221 0
M  V30 107 H 9.5485 -5.38806 1.04784 0
M  V30 108 H 9.8095 -4.40431 -0.383799 0
M  V30 109 N 8.8686 -0.792821 -1.36206 0
M  V30 110 C 9.7986 -0.207853 -2.32573 0
M  V30 111 C 10.7796 0.659055 -1.56813 0
M  V30 112 O 11.9646 0.592176 -1.84951 0
M  V30 113 C 9.0946 0.655449 -3.41059 0
M  V30 114 C 8.0486 -0.111842 -4.27854 0
M  V30 115 C 7.3746 0.872274 -5.27537 0
M  V30 116 C 8.6746 -1.30299 -5.05786 0
M  V30 117 H 10.3686 -1.01294 -2.81744 0
M  V30 118 H 7.9146 -0.48854 -1.3546 0
M  V30 119 H 9.8676 1.07464 -4.07467 0
M  V30 120 H 8.5916 1.49328 -2.90463 0
M  V30 121 H 7.2506 -0.512053 -3.63006 0
M  V30 122 H 6.8986 1.70523 -4.73214 0
M  V30 123 H 6.5986 0.363291 -5.86476 0
M  V30 124 H 8.1226 1.28996 -5.96818 0
M  V30 125 H 9.5366 -0.959379 -5.65216 0
M  V30 126 H 7.9336 -1.7455 -5.74154 0
M  V30 127 H 9.0036 -2.09663 -4.37229 0
M  V30 128 N 10.3467 1.47872 -0.545128 0
M  V30 129 C 11.2767 2.32661 0.197793 0
M  V30 130 C 12.2577 1.43041 0.920504 0
M  V30 131 O 13.4427 1.71912 0.90333 0
M  V30 132 C 10.5727 3.24569 1.23582 0
M  V30 133 C 9.5267 4.23333 0.630323 0
M  V30 134 C 8.8527 5.0448 1.77211 0
M  V30 135 C 10.1527 5.20704 -0.407974 0
M  V30 136 H 11.8467 2.95024 -0.510045 0
M  V30 137 H 9.3927 1.4187 -0.246731 0
M  V30 138 H 11.3457 3.8272 1.76362 0
M  V30 139 H 10.0697 2.60236 1.97344 0
M  V30 140 H 8.7287 3.6639 0.123922 0
M  V30 141 H 8.3767 4.36561 2.49847 0
M  V30 142 H 8.0767 5.71339 1.37281 0
M  V30 143 H 9.6007 5.65487 2.3034 0
M  V30 144 H 11.0147 5.7329 0.033305 0
M  V30 145 H 9.4117 5.95699 -0.725486 0
M  V30 146 H 10.4817 4.66917 -1.30828 0
M  V30 147 N 11.8248 0.280983 1.55075 0
M  V30 148 C 12.7548 -0.597469 2.25727 0
M  V30 149 C 13.7358 -1.15417 1.24952 0
M  V30 150 O 14.9208 -1.18722 1.53684 0
M  V30 151 C 12.0508 -1.7789 2.98283 0
M  V30 152 C 11.0048 -1.35347 4.06036 0
M  V30 153 C 10.3308 -2.61846 4.66198 0
M  V30 154 C 11.6308 -0.499354 5.19907 0
M  V30 155 H 13.3248 -0.00824265 2.99399 0
M  V30 156 H 10.8708 -0.0025244 1.44 0
M  V30 157 H 12.8238 -2.39937 3.46422 0
M  V30 158 H 11.5478 -2.39405 2.22155 0
M  V30 159 H 10.2068 -0.756156 3.58717 0
M  V30 160 H 9.8548 -3.21632 3.86732 0
M  V30 161 H 9.5548 -2.3409 5.38958 0
M  V30 162 H 11.0788 -3.24732 5.1709 0
M  V30 163 H 12.4928 -1.02498 5.64063 0
M  V30 164 H 10.8898 -0.316424 5.99265 0
M  V30 165 H 11.9598 0.480459 4.82514 0
M  V30 166 N 13.3029 -1.57598 0.00835791 0
M  V30 167 C 14.5509 -1.90551 -0.6734 0
M  V30 168 C 14.8719 -0.883301 -1.73847 0
M  V30 169 O 14.1419 0.0781442 -1.95744 0
M  V30 170 H 12.7219 -0.703312 -0.251717 0
M  V30 171 H 15.3839 -1.94833 0.0512592 0
M  V30 172 H 14.4799 -2.9056 -1.13935 0
M  V30 173 N 14.781 0.264519 -1.55364 0
M  V30 174 C 15.731 1.32966 -1.85214 0
M  V30 175 C 16.715 1.44306 -0.711653 0
M  V30 176 O 17.907 1.47844 -0.973192 0
M  V30 177 C 15.036 2.68839 -2.13495 0
M  V30 178 C 14.122 2.61575 -3.33825 0
M  V30 179 N 14.513 2.23933 -4.53528 0
M  V30 180 C 12.811 2.92621 -3.36584 0
M  V30 181 C 13.512 2.26868 -5.35636 0
M  V30 182 N 12.488 2.65677 -4.74254 0
M  V30 183 H 16.29 1.02884 -2.75304 0
M  V30 184 H 13.804 0.473157 -1.55354 0
M  V30 185 H 15.801 3.45685 -2.33039 0
M  V30 186 H 14.461 2.99802 -1.24694 0
M  V30 187 H 15.472 1.95769 -4.79474 0
M  V30 188 H 12.149 3.2824 -2.58002 0
M  V30 189 H 13.539 2.00254 -6.41364 0
M  V30 190 N 16.2591 1.48442 0.529413 0
M  V30 191 C 17.5051 1.5672 1.28711 0
M  V30 192 C 17.8381 0.2406 1.92704 0
M  V30 193 O 17.1131 -0.753454 1.79313 0
M  V30 194 C 17.3961 2.70587 2.37603 0
M  V30 195 C 17.2491 4.12953 1.78297 0
M  V30 196 C 18.5681 2.80212 3.39366 0
M  V30 197 H 15.6871 0.570474 0.466613 0
M  V30 198 H 18.3291 1.80617 0.589706 0
M  V30 199 H 16.4791 2.50342 2.97088 0
M  V30 200 H 18.1511 4.44639 1.22858 0
M  V30 201 H 16.3941 4.19927 1.0883 0
M  V30 202 H 17.0651 4.88448 2.57144 0
M  V30 203 H 19.5411 2.98553 2.89836 0
M  V30 204 H 18.4171 3.61611 4.12951 0
M  V30 205 H 18.6781 1.88393 3.99951 0
M  V30 206 N 17.7372 -0.778329 1.37039 0
M  V30 207 C 18.7002 -1.87301 1.32102 0
M  V30 208 C 19.7002 -1.59198 0.226405 0
M  V30 209 O 20.8902 -1.67403 0.481861 0
M  V30 210 C 18.0222 -3.24309 1.05055 0
M  V30 211 H 19.2152 -1.93093 2.29467 0
M  V30 212 H 16.7682 -0.977358 1.21973 0
M  V30 213 H 17.5032 -3.24196 0.0819373 0
M  V30 214 H 17.2882 -3.46098 1.84279 0
M  V30 215 H 18.7782 -4.04382 1.04234 0
M  V30 216 N 19.2153 -1.21501 -1.00376 0
M  V30 217 C 20.1473 -0.933174 -2.09343 0
M  V30 218 C 21.1603 0.0840896 -1.62583 0
M  V30 219 O 22.3493 -0.148563 -1.77881 0
M  V30 220 C 19.4493 -0.379869 -3.36764 0
M  V30 221 C 18.6223 -1.45176 -4.12605 0
M  V30 222 C 17.6813 -0.907476 -5.18316 0
M  V30 223 O 16.7073 -1.5912 -5.46507 0
M  V30 224 N 17.9093 0.276649 -5.7984 0
M  V30 225 H 20.6743 -1.87124 -2.34104 0
M  V30 226 H 18.2353 -1.12043 -1.16867 0
M  V30 227 H 20.2273 -0.00131488 -4.047 0
M  V30 228 H 18.7973 0.463048 -3.09151 0
M  V30 229 H 18.0173 -2.00411 -3.39454 0
M  V30 230 H 19.3053 -2.17328 -4.6005 0
M  V30 231 H 18.7033 0.849147 -5.59291 0
M  V30 232 H 17.2603 0.596702 -6.49063 0
M  V30 233 N 20.6934 1.19889 -1.02296 0
M  V30 234 C 21.9394 1.89701 -0.717033 0
M  V30 235 C 22.2724 1.7905 0.751989 0
M  V30 236 O 21.5474 1.17891 1.547 0
M  V30 237 C 21.8304 3.40858 -1.16136 0
M  V30 238 C 21.6834 3.60411 -2.69117 0
M  V30 239 C 23.0024 4.33876 -0.737549 0
M  V30 240 H 20.1214 0.688874 -0.261957 0
M  V30 241 H 22.7634 1.41154 -1.27183 0
M  V30 242 H 20.9134 3.82335 -0.689342 0
M  V30 243 H 22.5854 3.28145 -3.2422 0
M  V30 244 H 20.8284 3.03665 -3.0979 0
M  V30 245 H 21.4994 4.66396 -2.95261 0
M  V30 246 H 23.9754 4.00081 -1.14344 0
M  V30 247 H 22.8514 5.38242 -1.0764 0
M  V30 248 H 23.1124 4.40628 0.360436 0
M  V30 249 N 22.1715 0.800033 1.35784 0
M  V30 250 C 23.1015 0.220184 2.3246 0
M  V30 251 C 24.0825 -0.65073 1.57161 0
M  V30 252 O 25.2675 -0.582359 1.85263 0
M  V30 253 C 22.3975 -0.637353 3.41402 0
M  V30 254 C 21.3515 0.134531 4.27789 0
M  V30 255 C 20.6775 -0.844285 5.27992 0
M  V30 256 C 21.9775 1.32979 5.05088 0
M  V30 257 H 23.6715 1.02787 2.81203 0
M  V30 258 H 21.2175 0.495717 1.35199 0
M  V30 259 H 23.1705 -1.05302 4.08031 0
M  V30 260 H 21.8945 -1.47785 2.91251 0
M  V30 261 H 20.5535 0.531296 3.6273 0
M  V30 262 H 20.2015 -1.68011 4.74111 0
M  V30 263 H 19.9015 -0.332184 5.8666 0
M  V30 264 H 21.4255 -1.2583 5.97494 0
M  V30 265 H 22.8395 0.98934 5.64699 0
M  V30 266 H 21.2365 1.77593 5.7322 0
M  V30 267 H 22.3065 2.11978 4.36111 0
M  V30 268 N 23.6496 -1.47581 0.552962 0
M  V30 269 C 24.5826 -2.26883 -0.244857 0
M  V30 270 C 25.5606 -1.33784 -0.924147 0
M  V30 271 O 26.7446 -1.6316 -0.943981 0
M  V30 272 C 23.8716 -3.10695 -1.34856 0
M  V30 273 C 22.9176 -4.19339 -0.778268 0
M  V30 274 S 23.7506 -5.34207 0.37184 0
M  V30 275 C 24.9066 -6.21584 -0.733779 0
M  V30 276 H 25.1396 -2.94202 0.428087 0
M  V30 277 H 22.6726 -1.50628 0.339197 0
M  V30 278 H 24.6306 -3.59555 -1.98066 0
M  V30 279 H 23.2916 -2.42746 -1.99332 0
M  V30 280 H 22.4846 -4.77695 -1.60696 0
M  V30 281 H 22.0866 -3.73338 -0.222422 0
M  V30 282 H 24.3786 -6.57676 -1.62692 0
M  V30 283 H 25.3216 -7.07851 -0.187668 0
M  V30 284 H 25.7296 -5.55125 -1.02454 0
M  V30 285 N 25.1277 -0.289203 -1.54924 0
M  V30 286 C 26.0577 0.58549 -2.2604 0
M  V30 287 C 27.0387 1.14753 -1.25562 0
M  V30 288 O 28.2237 1.17906 -1.54311 0
M  V30 289 C 25.3537 1.76305 -2.99222 0
M  V30 290 C 24.3077 1.33191 -4.06748 0
M  V30 291 C 23.6337 2.5937 -4.6758 0
M  V30 292 C 24.9337 0.471775 -5.20165 0
M  V30 293 H 26.6277 -0.00763532 -2.99399 0
M  V30 294 H 24.1737 -0.00511229 -1.43999 0
M  V30 295 H 26.1267 2.38097 -3.47689 0
M  V30 296 H 24.8507 2.38223 -2.23422 0
M  V30 297 H 23.5097 0.737121 -3.59113 0
M  V30 298 H 23.1577 3.19576 -3.88433 0
M  V30 299 H 22.8577 2.31228 -5.40192 0
M  V30 300 H 24.3817 3.21985 -5.18804 0
M  V30 301 H 25.7957 0.995056 -5.64599 0
M  V30 302 H 24.1927 0.284639 -5.99425 0
M  V30 303 H 25.2627 -0.506041 -4.82252 0
M  V30 304 N 26.6058 1.57591 -0.0167156 0
M  V30 305 C 27.8828 1.82547 0.702564 0
M  V30 306 C 28.2628 0.898018 1.91047 0
M  V30 307 O 27.6108 -0.0493456 2.28447 0
M  V30 308 C 27.8208 3.31459 1.09251 0
M  V30 309 C 29.1688 3.97622 1.48937 0
M  V30 310 O 30.1928 3.35881 1.18584 0
M  V30 311 O 29.0518 5.06415 2.05442 0
M  V30 312 H 26.1458 0.752268 0.343544 0
M  V30 313 H 28.6918 1.69644 -0.0434495 0
M  V30 314 H 27.4638 3.9061 0.23227 0
M  V30 315 H 27.0868 3.49422 1.89709 0
M  V30 316 N 28.0839 -0.256276 1.55502 0
M  V30 317 C 29.0319 -1.33694 1.90338 0
M  V30 318 C 30.0259 -1.50299 0.781441 0
M  V30 319 O 31.2319 -1.51885 0.965966 0
M  V30 320 H 27.6069 -0.447483 0.60437 0
M  V30 321 H 29.5779 -1.01574 2.8058 0
M  V30 322 C 28.3269 -2.68724 2.20642 0
M  V30 323 H 27.6499 -2.56743 3.06469 0
M  V30 324 H 29.0899 -3.43237 2.48926 0
M  V30 325 C 27.5489 -3.21101 1.01959 0
M  V30 326 O 28.0789 -4.0084 0.262762 0
M  V30 327 N 26.2849 -2.79003 0.812746 0
M  V30 328 H 25.8319 -2.14271 1.42989 0
M  V30 329 H 25.7899 -3.14393 0.0203076 0
M  V30 330 N 29.562 -1.4872 -0.521534 0
M  V30 331 C 30.81 -1.56857 -1.27437 0
M  V30 332 C 31.131 -0.247982 -1.93417 0
M  V30 333 O 30.401 0.731151 -1.81744 0
M  V30 334 H 28.981 -0.577885 -0.473347 0
M  V30 335 H 31.643 -1.85233 -0.606205 0
M  V30 336 H 30.739 -2.35402 -2.0492 0
M  V30 337 N 31.0401 0.771051 -1.3745 0
M  V30 338 C 31.9701 1.89827 -1.3597 0
M  V30 339 C 32.9511 1.68562 -0.228216 0
M  V30 340 O 34.1361 1.8941 -0.428675 0
M  V30 341 C 31.2661 3.2712 -1.16662 0
M  V30 342 C 30.2201 3.6295 -2.2683 0
M  V30 343 C 29.5461 4.98791 -1.92644 0
M  V30 344 C 30.8461 3.69627 -3.69017 0
M  V30 345 H 32.5401 1.91323 -2.30295 0
M  V30 346 H 30.0861 0.919082 -1.10855 0
M  V30 347 H 32.0391 4.05615 -1.14256 0
M  V30 348 H 30.7631 3.26059 -0.187926 0
M  V30 349 H 29.4221 2.86763 -2.28392 0
M  V30 350 H 29.0701 4.94271 -0.933021 0
M  V30 351 H 28.7701 5.23733 -2.66416 0
M  V30 352 H 30.2941 5.79685 -1.91826 0
M  V30 353 H 31.7081 4.38273 -3.69581 0
M  V30 354 H 30.1051 4.06067 -4.41848 0
M  V30 355 H 31.1751 2.70273 -4.02592 0
M  V30 356 N 32.5182 1.22032 0.997298 0
M  V30 357 C 33.4482 1.01065 2.10495 0
M  V30 358 C 34.4292 -0.0669542 1.69968 0
M  V30 359 O 35.6142 0.0943987 1.9397 0
M  V30 360 C 32.7442 0.582874 3.42374 0
M  V30 361 C 31.6982 1.60592 3.96729 0
M  V30 362 C 31.0242 1.03412 5.24605 0
M  V30 363 C 32.3242 2.99478 4.27914 0
M  V30 364 H 34.0182 1.93708 2.28292 0
M  V30 365 H 31.5642 0.932761 1.09707 0
M  V30 366 H 33.5172 0.423332 4.19268 0
M  V30 367 H 32.2412 -0.379213 3.24391 0
M  V30 368 H 30.9002 1.75316 3.21963 0
M  V30 369 H 30.5482 0.063518 5.0296 0
M  V30 370 H 30.2482 1.71754 5.61938 0
M  V30 371 H 31.7722 0.886066 6.04137 0
M  V30 372 H 33.1862 2.88153 4.95622 0
M  V30 373 H 31.5832 3.64903 4.76409 0
M  V30 374 H 32.6532 3.49742 3.3587 0
M  V30 375 N 33.9963 -1.19345 1.0293 0
M  V30 376 C 34.9283 -2.22036 0.56857 0
M  V30 377 C 35.9413 -1.58865 -0.355779 0
M  V30 378 O 37.1303 -1.77851 -0.152103 0
M  V30 379 C 34.2303 -3.38363 -0.190752 0
M  V30 380 C 33.4033 -4.31118 0.738643 0
M  V30 381 C 32.4623 -5.26194 0.0246497 0
M  V30 382 O 31.4883 -5.65461 0.651354 0
M  V30 383 N 32.6903 -5.66971 -1.24594 0
M  V30 384 H 35.4553 -2.6219 1.45177 0
M  V30 385 H 33.0163 -1.34015 0.908381 0
M  V30 386 H 35.0083 -3.98981 -0.677961 0
M  V30 387 H 33.5783 -2.96994 -0.975366 0
M  V30 388 H 32.7983 -3.68276 1.40593 0
M  V30 389 H 34.0863 -4.90001 1.37029 0
M  V30 390 H 33.4843 -5.37104 -1.77583 0
M  V30 391 H 32.0413 -6.2984 -1.67764 0
M  V30 392 N 35.4744 -0.807222 -1.35358 0
M  V30 393 C 36.7024 -0.400377 -2.02989 0
M  V30 394 C 37.1174 0.988859 -1.60832 0
M  V30 395 O 36.4744 1.63729 -0.806175 0
M  V30 396 C 36.5254 -0.474867 -3.58368 0
M  V30 397 O 36.2464 -1.80933 -3.98992 0
M  V30 398 C 37.7474 -0.0609112 -4.43258 0
M  V30 399 H 34.9674 -0.162587 -0.651004 0
M  V30 400 H 37.5114 -1.09102 -1.72965 0
M  V30 401 H 35.6664 0.167534 -3.87038 0
M  V30 402 H 36.0804 -1.77256 -4.9364 0
M  V30 403 H 37.5544 -0.164145 -5.51756 0
M  V30 404 H 38.0314 0.993831 -4.27808 0
M  V30 405 H 38.6374 -0.676492 -4.19885 0
M  V30 406 N 36.9525 1.47285 -0.560781 0
M  V30 407 C 38.3635 1.86258 -0.128343 0
M  V30 408 C 38.7145 1.46699 1.30284 0
M  V30 409 O 37.8395 0.871698 1.98067 0
M  V30 410 C 38.4345 3.38044 -0.22614 0
M  V30 411 C 36.9935 3.76096 0.151283 0
M  V30 412 C 36.1405 2.71335 -0.572084 0
M  V30 413 H 39.0915 1.38752 -0.770297 0
M  V30 414 H 39.1125 3.76441 0.554322 0
M  V30 415 H 38.6245 3.66806 -1.26788 0
M  V30 416 H 36.7255 3.52951 1.19399 0
M  V30 417 H 36.8385 4.78641 -0.209765 0
M  V30 418 H 35.2025 2.54696 -0.0147653 0
M  V30 419 H 35.9855 3.02938 -1.61504 0
M  V30 420 N 38.4306 0.297415 1.54768 0
M  V30 421 C 39.8416 -0.195947 1.85669 0
M  V30 422 C 40.1926 -1.53707 1.21937 0
M  V30 423 O 39.3176 -2.10164 0.515754 0
M  V30 424 C 39.9126 -0.362318 3.36857 0
M  V30 425 C 38.4716 -0.799901 3.67802 0
M  V30 426 C 37.6186 0.0938578 2.77141 0
M  V30 427 H 40.5696 0.518538 1.4999 0
M  V30 428 H 40.5906 -1.19745 3.61167 0
M  V30 429 H 40.1026 0.613921 3.83214 0
M  V30 430 H 38.2036 -1.78682 3.26961 0
M  V30 431 H 38.3166 -0.621773 4.75048 0
M  V30 432 H 36.6806 -0.426254 2.51108 0
M  V30 433 H 37.4636 1.06639 3.26318 0
M  V30 434 N 39.9087 -1.5758 0.0250728 0
M  V30 435 C 40.8417 -2.05473 -0.992777 0
M  V30 436 C 41.8197 -0.949661 -1.31986 0
M  V30 437 O 43.0037 -1.21969 -1.43722 0
M  V30 438 C 40.1307 -2.4734 -2.31389 0
M  V30 439 C 39.1767 -3.68827 -2.1417 0
M  V30 440 S 40.0097 -5.15655 -1.44429 0
M  V30 441 C 41.1657 -5.60814 -2.77918 0
M  V30 442 H 41.3987 -2.91486 -0.585078 0
M  V30 443 H 38.9317 -1.53269 -0.186507 0
M  V30 444 H 40.8897 -2.72127 -3.07339 0
M  V30 445 H 39.5507 -1.6168 -2.69292 0
M  V30 446 H 38.7437 -3.95955 -3.11826 0
M  V30 447 H 38.3457 -3.44172 -1.46362 0
M  V30 448 H 40.6377 -5.64806 -3.74166 0
M  V30 449 H 41.5807 -6.60414 -2.55459 0
M  V30 450 H 41.9887 -4.8845 -2.82979 0
M  V30 451 N 41.3868 0.248026 -1.55636 0
M  V30 452 C 42.6348 0.974295 -1.77065 0
M  V30 453 C 42.9558 1.85897 -0.588849 0
M  V30 454 O 42.2258 1.91868 0.395407 0
M  V30 455 H 40.8058 0.362733 -0.653019 0
M  V30 456 H 43.4678 0.266244 -1.93073 0
M  V30 457 H 42.5638 1.59667 -2.68166 0
M  V30 458 N 42.8649 1.48995 0.513639 0
M  V30 459 C 44.1109 1.59053 1.26783 0
M  V30 460 C 44.4659 0.268136 1.90522 0
M  V30 461 O 43.7589 -0.730534 1.77126 0
M  V30 462 C 43.9529 2.67756 2.36731 0
M  V30 463 C 43.7819 4.10437 1.83771 0
M  V30 464 C 42.5519 4.7738 1.65639 0
M  V30 465 C 44.7499 4.9608 1.35681 0
M  V30 466 N 42.7319 6.04419 1.07476 0
M  V30 467 C 44.1029 6.13496 0.895715 0
M  V30 468 C 46.1579 4.82177 1.24136 0
M  V30 469 C 44.8609 7.1854 0.3306 0
M  V30 470 C 46.8869 5.87358 0.690229 0
M  V30 471 C 46.2489 7.03993 0.239292 0
M  V30 472 H 42.3479 0.636463 0.454355 0
M  V30 473 H 44.9319 1.85948 0.577196 0
M  V30 474 H 43.1029 2.42655 3.03271 0
M  V30 475 H 44.8349 2.67406 3.0377 0
M  V30 476 H 41.5899 4.33974 1.8964 0
M  V30 477 H 42.0139 6.72214 0.803579 0
M  V30 478 H 46.6559 3.92329 1.57601 0
M  V30 479 H 44.3739 8.08098 -0.0163435 0
M  V30 480 H 47.9599 5.78658 0.603852 0
M  V30 481 H 46.8399 7.83992 -0.180526 0
M  V30 482 N 44.343 -0.763751 1.37857 0
M  V30 483 C 45.273 -1.89103 1.36975 0
M  V30 484 C 46.254 -1.68439 0.237152 0
M  V30 485 O 47.439 -1.8918 0.438713 0
M  V30 486 C 44.569 -3.26496 1.18395 0
M  V30 487 C 43.523 -3.61741 2.28751 0
M  V30 488 C 42.849 -4.97762 1.95286 0
M  V30 489 C 44.149 -3.67665 3.70972 0
M  V30 490 H 45.843 -1.90099 2.31307 0
M  V30 491 H 43.389 -0.91319 1.11341 0
M  V30 492 H 45.342 -4.05003 1.16406 0
M  V30 493 H 44.066 -3.25955 0.205215 0
M  V30 494 H 42.725 -2.85547 2.29909 0
M  V30 495 H 42.373 -4.93769 0.959221 0
M  V30 496 H 42.073 -5.22313 2.69189 0
M  V30 497 H 43.597 -5.7866 1.94898 0
M  V30 498 H 45.011 -4.36307 3.719 0
M  V30 499 H 43.408 -4.03718 4.43995 0
M  V30 500 H 44.478 -2.68134 4.0402 0
M  V30 501 N 45.8211 -1.22559 -0.990812 0
M  V30 502 C 46.7841 -0.998863 -2.0629 0
M  V30 503 C 47.7841 0.0354834 -1.60761 0
M  V30 504 O 48.9741 -0.203231 -1.7301 0
M  V30 505 C 46.1061 -0.509203 -3.37076 0
M  V30 506 H 47.2991 -1.95014 -2.27837 0
M  V30 507 H 44.8521 -1.04456 -1.16269 0
M  V30 508 H 45.5871 0.446335 -3.21214 0
M  V30 509 H 45.3721 -1.25547 -3.71457 0
M  V30 510 H 46.8621 -0.370888 -4.1595 0
M  V30 511 N 47.2992 1.18797 -1.03562 0
M  V30 512 C 48.5452 1.89192 -0.746867 0
M  V30 513 C 48.9002 1.78531 0.717245 0
M  V30 514 O 48.1932 1.17137 1.51622 0
M  V30 515 C 48.3872 3.38692 -1.14117 0
M  V30 516 C 48.2162 3.63902 -2.64207 0
M  V30 517 C 46.9862 3.81553 -3.31279 0
M  V30 518 C 49.1842 3.64903 -3.62423 0
M  V30 519 N 47.1662 3.94455 -4.70402 0
M  V30 520 C 48.5372 3.83458 -4.87196 0
M  V30 521 C 50.5922 3.47965 -3.56125 0
M  V30 522 C 49.2952 3.86829 -6.06429 0
M  V30 523 C 51.3212 3.52616 -4.7478 0
M  V30 524 C 50.6832 3.71663 -5.9837 0
M  V30 525 H 46.7822 0.711141 -0.325273 0
M  V30 526 H 49.3662 1.42727 -1.32428 0
M  V30 527 H 47.5372 3.83864 -0.591889 0
M  V30 528 H 49.2692 3.96634 -0.803966 0
M  V30 529 H 46.0242 3.80723 -2.81686 0
M  V30 530 H 46.4482 4.0474 -5.42692 0
M  V30 531 H 51.0902 3.32189 -2.61553 0
M  V30 532 H 48.8082 4.01395 -7.01362 0
M  V30 533 H 52.3942 3.40791 -4.71543 0
M  V30 534 H 51.2742 3.75145 -6.88648 0
M  V30 535 N 48.7773 0.814389 1.34928 0
M  V30 536 C 49.6873 0.231978 2.3345 0
M  V30 537 C 50.7033 -0.629139 1.62228 0
M  V30 538 O 51.8793 -0.539052 1.94052 0
M  V30 539 C 48.9443 -0.603482 3.41407 0
M  V30 540 C 48.0053 0.279037 4.28392 0
M  V30 541 C 47.2383 -0.516643 5.31193 0
M  V30 542 O 47.4613 -1.75068 5.4287 0
M  V30 543 O 46.3953 0.0965652 6.01823 0
M  V30 544 H 50.2213 1.04721 2.85074 0
M  V30 545 H 47.8063 0.576343 1.37836 0
M  V30 546 H 49.6883 -1.07908 4.0735 0
M  V30 547 H 48.3633 -1.39618 2.92042 0
M  V30 548 H 47.2703 0.801948 3.65403 0
M  V30 549 H 48.6033 1.03588 4.81176 0
M  V30 550 N 50.2554 -1.46986 0.568584 0
M  V30 551 C 51.6714 -1.57946 0.229189 0
M  V30 552 C 51.8714 -1.56567 -1.26843 0
M  V30 553 O 50.9274 -1.47511 -2.04931 0
M  V30 554 C 52.2404 -2.87963 0.865909 0
M  V30 555 C 53.7884 -3.01568 0.838188 0
M  V30 556 C 54.2634 -4.34301 1.45419 0
M  V30 557 N 55.7544 -4.40965 1.41788 0
M  V30 558 C 56.4894 -5.42256 1.86403 0
M  V30 559 N 55.9854 -6.50297 2.38926 0
M  V30 560 N 57.7784 -5.3337 1.77405 0
M  V30 561 H 49.9294 -1.46126 1.54146 0
M  V30 562 H 52.1924 -0.696156 0.643484 0
M  V30 563 H 51.8984 -2.94742 1.91886 0
M  V30 564 H 51.7724 -3.75423 0.365687 0
M  V30 565 H 54.1594 -2.94379 -0.206106 0
M  V30 566 H 54.2404 -2.1562 1.37629 0
M  V30 567 H 53.8844 -4.42247 2.49761 0
M  V30 568 H 53.8144 -5.19 0.891435 0
M  V30 569 H 56.3054 -3.63484 1.03381 0
M  V30 570 H 56.6184 -7.23777 2.70863 0
M  V30 571 H 54.9634 -6.51155 2.42944 0
M  V30 572 H 58.1544 -4.47865 1.3614 0
M  V30 573 H 58.3274 -6.12169 2.12492 0
M  V30 574 N 51.7335 -0.305618 -1.54608 0
M  V30 575 C 52.9805 0.302298 -2.00231 0
M  V30 576 C 53.3085 1.5354 -1.19398 0
M  V30 577 O 52.5635 1.93973 -0.259423 0
M  V30 578 C 52.8625 0.698983 -3.50498 0
M  V30 579 C 52.5285 -0.432903 -4.48817 0
M  V30 580 C 51.1905 -0.743622 -4.75419 0
M  V30 581 C 53.5425 -1.19409 -5.07337 0
M  V30 582 C 50.8705 -1.81857 -5.57804 0
M  V30 583 C 53.2225 -2.25899 -5.90891 0
M  V30 584 C 51.8865 -2.57572 -6.15803 0
M  V30 585 H 51.1565 0.110619 -0.732697 0
M  V30 586 H 53.8035 -0.425674 -1.86709 0
M  V30 587 H 52.1085 1.50711 -3.61654 0
M  V30 588 H 53.8055 1.1806 -3.83227 0
M  V30 589 H 50.3955 -0.18063 -4.28219 0
M  V30 590 H 54.5795 -0.967295 -4.86782 0
M  V30 591 H 49.8355 -2.06864 -5.75341 0
M  V30 592 H 54.0095 -2.85335 -6.35261 0
M  V30 593 H 51.6365 -3.40998 -6.7943 0
M  V30 594 N 53.2116 1.57565 -0.0334293 0
M  V30 595 C 54.6276 1.56297 0.322997 0
M  V30 596 C 54.8276 1.03945 1.7262 0
M  V30 597 O 53.8836 0.688109 2.42943 0
M  V30 598 C 55.1966 3.00232 0.167664 0
M  V30 599 C 56.7446 3.12078 0.240107 0
M  V30 600 C 57.2196 4.57859 0.113513 0
M  V30 601 N 58.7106 4.62887 0.170359 0
M  V30 602 C 59.4456 5.73319 0.0962517 0
M  V30 603 N 58.9416 6.92794 -0.0291881 0
M  V30 604 N 60.7346 5.61898 0.150551 0
M  V30 605 H 52.8856 1.89923 -0.950956 0
M  V30 606 H 55.1486 0.873824 -0.367608 0
M  V30 607 H 54.8546 3.42501 -0.799102 0
M  V30 608 H 54.7286 3.654 0.936083 0
M  V30 609 H 57.1156 2.69718 1.19733 0
M  V30 610 H 57.1966 2.49623 -0.558763 0
M  V30 611 H 56.8406 5.009 -0.840314 0
M  V30 612 H 56.7706 5.18299 0.931302 0
M  V30 613 H 59.2616 3.76954 0.26728 0
M  V30 614 H 59.5746 7.7276 -0.0789252 0
M  V30 615 H 57.9196 6.94971 -0.0640299 0
M  V30 616 H 61.1106 4.67448 0.246981 0
M  V30 617 H 61.2836 6.47938 0.0893365 0
M  V30 618 N 54.6897 -0.239769 1.55765 0
M  V30 619 C 55.9297 -0.974076 1.79697 0
M  V30 620 C 56.2937 -1.82249 0.604088 0
M  V30 621 O 57.4947 -2.58913 0.722324 0
M  V30 622 C 55.7657 -1.80595 3.08416 0
M  V30 623 S 57.3247 -2.59838 3.53596 0
M  V30 624 H 54.1427 -0.327524 0.63107 0
M  V30 625 H 56.7447 -0.241277 1.94005 0
M  V30 626 H 55.4487 -1.17249 3.93295 0
M  V30 627 H 54.9797 -2.58137 2.96865 0
M  V30 628 H 56.9947 -3.82987 3.15492 0
M  V30 629 N 56.1678 -1.49265 -0.50573 0
M  V30 630 C 57.1158 -1.66065 -1.62866 0
M  V30 631 C 58.1098 -0.526636 -1.61006 0
M  V30 632 O 59.3158 -0.706126 -1.65571 0
M  V30 633 H 55.6908 -0.52356 -0.539805 0
M  V30 634 H 57.6618 -2.60329 -1.45848 0
M  V30 635 C 56.4108 -1.74008 -3.01026 0
M  V30 636 H 55.7338 -2.6064 -3.03161 0
M  V30 637 H 57.1738 -1.89798 -3.79147 0
M  V30 638 C 55.6328 -0.483868 -3.33407 0
M  V30 639 O 56.1628 0.392548 -3.99777 0
M  V30 640 N 54.3688 -0.348236 -2.88506 0
M  V30 641 H 53.9158 -1.06242 -2.34671 0
M  V30 642 H 53.8738 0.491204 -3.10539 0
M  V30 643 N 57.6459 0.756429 -1.3826 0
M  V30 644 C 58.8949 1.51082 -1.3363 0
M  V30 645 C 59.2079 1.95467 0.0720068 0
M  V30 646 O 60.4139 2.7043 0.240834 0
M  V30 647 C 58.8699 2.72893 -2.34644 0
M  V30 648 C 58.4779 2.35544 -3.81081 0
M  V30 649 C 60.2219 3.50791 -2.39052 0
M  V30 650 C 58.1289 3.53948 -4.73787 0
M  V30 651 H 57.0589 0.56727 -0.49671 0
M  V30 652 H 59.7099 0.827147 -1.638 0
M  V30 653 H 58.0919 3.43227 -1.97513 0
M  V30 654 H 59.2659 1.72894 -4.27135 0
M  V30 655 H 57.5809 1.70786 -3.79764 0
M  V30 656 H 60.1779 4.38823 -3.05513 0
M  V30 657 H 60.5209 3.91745 -1.40861 0
M  V30 658 H 61.0539 2.87467 -2.74968 0
M  V30 659 H 57.7929 3.18064 -5.73163 0
M  V30 660 H 57.3129 4.15651 -4.32428 0
M  V30 661 H 58.9919 4.20566 -4.91663 0
M  V30 662 N 59.124 1.23083 0.984299 0
M  V30 663 C 60.072 1.00593 2.09723 0
M  V30 664 C 61.066 -0.0538014 1.69315 0
M  V30 665 O 62.272 0.0993719 1.79725 0
M  V30 666 H 58.647 0.30817 0.685956 0
M  V30 667 H 60.618 1.95012 2.2586 0
M  V30 668 C 59.367 0.609601 3.42314 0
M  V30 669 H 58.69 1.41675 3.73856 0
M  V30 670 H 60.13 0.491726 4.21139 0
M  V30 671 C 58.589 -0.681745 3.2993 0
M  V30 672 O 59.119 -1.73192 3.62446 0
M  V30 673 N 57.325 -0.656178 2.83095 0
M  V30 674 H 56.872 0.198759 2.56832 0
M  V30 675 H 56.83 -1.52044 2.75191 0
M  V30 676 N 60.6021 -1.18246 1.0419 0
M  V30 677 C 61.8421 -1.89948 0.754916 0
M  V30 678 C 62.2061 -1.78608 -0.70451 0
M  V30 679 O 63.4071 -2.4503 -1.10516 0
M  V30 680 C 61.6781 -3.36305 1.20969 0
M  V30 681 S 63.2371 -4.26088 1.04854 0
M  V30 682 H 60.0551 -0.655897 0.274446 0
M  V30 683 H 62.6571 -1.42873 1.33445 0
M  V30 684 H 61.3611 -3.42089 2.26722 0
M  V30 685 H 60.8921 -3.8842 0.624004 0
M  V30 686 H 62.9071 -4.96189 -0.0332896 0
M  V30 687 N 62.0802 -0.821533 -1.34494 0
M  V30 688 C 63.3572 -0.33159 -1.92769 0
M  V30 689 C 63.7372 1.18088 -1.74981 0
M  V30 690 O 63.0852 1.98733 -1.12772 0
M  V30 691 C 63.2952 -0.759398 -3.40638 0
M  V30 692 C 64.6432 -0.757433 -4.1779 0
M  V30 693 O 65.6672 -0.70189 -3.49216 0
M  V30 694 O 64.5262 -0.829361 -5.4017 0
M  V30 695 H 61.6202 -0.0902502 -0.822061 0
M  V30 696 H 64.1662 -0.906231 -1.43477 0
M  V30 697 H 62.9382 -1.8012 -3.47379 0
M  V30 698 H 62.5612 -0.160378 -3.97276 0
M  V30 699 N 63.5583 1.46682 -0.576371 0
M  V30 700 C 64.4683 2.34032 0.163141 0
M  V30 701 C 65.4843 1.49367 0.892501 0
M  V30 702 O 66.6603 1.82252 0.857106 0
M  V30 703 C 63.7253 3.26435 1.16795 0
M  V30 704 C 62.7863 4.26998 0.443944 0
M  V30 705 C 62.0193 5.14986 1.40088 0
M  V30 706 O 62.2423 5.05785 2.637 0
M  V30 707 O 61.1763 5.94906 0.914917 0
M  V30 708 H 65.0023 2.98607 -0.55388 0
M  V30 709 H 62.5873 1.45554 -0.336821 0
M  V30 710 H 64.4693 3.83459 1.74748 0
M  V30 711 H 63.1443 2.64465 1.86655 0
M  V30 712 H 62.0513 3.7368 -0.177271 0
M  V30 713 H 63.3843 4.91736 -0.213566 0
M  V30 714 N 65.0364 0.313813 1.54444 0
M  V30 715 C 66.3134 -0.345447 1.92525 0
M  V30 716 C 66.6934 -1.70667 1.24242 0
M  V30 717 O 66.0414 -2.25273 0.382654 0
M  V30 718 C 66.2514 -0.44737 3.46121 0
M  V30 719 C 67.5994 -0.712238 4.18584 0
M  V30 720 O 68.6234 -0.530678 3.52225 0
M  V30 721 O 67.4824 -1.06183 5.36085 0
M  V30 722 H 64.5764 -0.195407 0.803583 0
M  V30 723 H 67.1224 0.362813 1.65776 0
M  V30 724 H 65.8944 0.509043 3.87975 0
M  V30 725 H 65.5174 -1.20359 3.78945 0
M  V30 726 N 66.5145 -1.57545 0.0417849 0
M  V30 727 C 67.9255 -1.80011 -0.495259 0
M  V30 728 C 68.2765 -0.953199 -1.71489 0
M  V30 729 O 67.4015 -0.167138 -2.15754 0
M  V30 730 C 67.9965 -3.26482 -0.905265 0
M  V30 731 C 66.5555 -3.499 -1.38734 0
M  V30 732 C 65.7025 -2.74979 -0.358056 0
M  V30 733 H 68.6535 -1.56425 0.267736 0
M  V30 734 H 68.6745 -3.36887 -1.76882 0
M  V30 735 H 68.1865 -3.88096 -0.017401 0
M  V30 736 H 66.2875 -2.93553 -2.29471 0
M  V30 737 H 66.4005 -4.58615 -1.38598 0
M  V30 738 H 64.7645 -2.40834 -0.828912 0
M  V30 739 H 65.5475 -3.39315 0.521561 0
M  V30 740 N 67.9926 0.231505 -1.5589 0
M  V30 741 C 68.9396 1.28682 -1.91598 0
M  V30 742 C 69.9096 1.47071 -0.771974 0
M  V30 743 O 71.0946 1.60802 -1.027 0
M  V30 744 C 68.2346 2.6342 -2.22944 0
M  V30 745 C 67.3476 2.52912 -3.50228 0
M  V30 746 C 66.4826 3.80106 -3.7107 0
M  V30 747 C 65.5216 3.64279 -4.91902 0
M  V30 748 N 64.6586 4.834 -5.09184 0
M  V30 749 H 69.4986 0.975305 -2.81588 0
M  V30 750 H 67.0356 0.470299 -1.39379 0
M  V30 751 H 68.9936 3.41869 -2.39126 0
M  V30 752 H 67.6236 2.92687 -1.36139 0
M  V30 753 H 66.6756 1.6595 -3.42294 0
M  V30 754 H 67.9876 2.37133 -4.38827 0
M  V30 755 H 67.1416 4.66999 -3.87295 0
M  V30 756 H 65.8806 3.98799 -2.80733 0
M  V30 757 H 64.8856 2.7577 -4.75637 0
M  V30 758 H 66.1106 3.47067 -5.83714 0
M  V30 759 H 64.0566 5.02425 -4.21788 0
M  V30 760 H 63.9736 4.70311 -5.91898 0
M  V30 761 H 65.2416 5.71747 -5.29835 0
M  V30 762 N 69.4707 1.49531 0.497807 0
M  V30 763 C 70.4187 1.66926 1.61983 0
M  V30 764 C 71.4127 0.535167 1.60724 0
M  V30 765 O 72.6187 0.714896 1.65195 0
M  V30 766 H 68.9937 0.526415 0.537021 0
M  V30 767 H 70.9647 2.61098 1.44465 0
M  V30 768 C 69.7137 1.75602 3.00099 0
M  V30 769 H 69.0367 2.62244 3.01775 0
M  V30 770 H 70.4767 1.91807 3.78135 0
M  V30 771 C 68.9357 0.501543 3.33146 0
M  V30 772 O 69.4657 -0.371342 3.9998 0
M  V30 773 N 67.6717 0.363531 2.88317 0
M  V30 774 H 67.2187 1.07485 2.34104 0
M  V30 775 H 67.1767 -0.474728 3.10795 0
M  V30 776 N 70.9488 -0.749086 1.3866 0
M  V30 777 C 72.1888 -1.52112 1.36534 0
M  V30 778 C 72.5528 -1.91951 -0.0432316 0
M  V30 779 O 73.7538 -2.68132 -0.189396 0
M  V30 780 C 72.0248 -2.73704 2.29828 0
M  V30 781 S 73.5838 -3.63519 2.45763 0
M  V30 782 H 70.4018 -0.520482 0.484375 0
M  V30 783 H 73.0038 -0.878963 1.74627 0
M  V30 784 H 71.7078 -2.42552 3.31054 0
M  V30 785 H 71.2388 -3.4286 1.929 0
M  V30 786 H 73.2538 -4.66712 1.68505 0
M  V30 787 N 72.4269 -1.23603 -0.977757 0
M  V30 788 C 73.6759 -1.06377 -1.71368 0
M  V30 789 C 73.9889 0.399062 -1.91486 0
M  V30 790 O 75.1949 0.691312 -2.62551 0
M  V30 791 C 73.6509 -1.85512 -3.08404 0
M  V30 792 C 73.2589 -3.36141 -2.96164 0
M  V30 793 C 75.0029 -1.76783 -3.85938 0
M  V30 794 C 72.9099 -4.07659 -4.28449 0
M  V30 795 H 71.8399 -0.394452 -0.642591 0
M  V30 796 H 74.4909 -1.47594 -1.09034 0
M  V30 797 H 72.8729 -1.37103 -3.71509 0
M  V30 798 H 74.0469 -3.92056 -2.42133 0
M  V30 799 H 72.3619 -3.45712 -2.32104 0
M  V30 800 H 74.9589 -2.27526 -4.83876 0
M  V30 801 H 75.3019 -0.731116 -4.0983 0
M  V30 802 H 75.8349 -2.22818 -3.2954 0
M  V30 803 H 72.5739 -5.11648 -4.09752 0
M  V30 804 H 72.0939 -3.5653 -4.82334 0
M  V30 805 H 73.7729 -4.141 -4.97122 0
M  V30 806 N 73.905 1.17692 -1.04816 0
M  V30 807 C 75.13 1.92327 -0.776207 0
M  V30 808 C 75.555 1.76082 0.661581 0
M  V30 809 O 74.913 1.076 1.45917 0
M  V30 810 C 74.961 3.41539 -1.15687 0
M  V30 811 O 74.065 4.11402 -0.286775 0
M  V30 812 H 73.406 0.599735 -0.284981 0
M  V30 813 H 75.936 1.49201 -1.4 0
M  V30 814 H 75.946 3.92269 -1.12202 0
M  V30 815 H 74.621 3.52684 -2.20425 0
M  V30 816 H 73.198 3.70939 -0.381903 0
M  V30 817 N 75.3831 0.828654 1.34056 0
M  V30 818 C 76.2931 0.256725 2.33191 0
M  V30 819 C 77.3091 -0.611898 1.62886 0
M  V30 820 O 78.4851 -0.51844 1.94613 0
M  V30 821 C 75.5501 -0.567238 3.42028 0
M  V30 822 C 74.6111 0.324458 4.28072 0
M  V30 823 C 73.8441 -0.460274 5.31712 0
M  V30 824 O 74.0671 -1.693 5.44696 0
M  V30 825 O 73.0011 0.160391 6.01686 0
M  V30 826 H 76.8271 1.07739 2.83947 0
M  V30 827 H 74.4121 0.59093 1.37217 0
M  V30 828 H 76.2941 -1.03582 4.08471 0
M  V30 829 H 74.9691 -1.36513 2.93506 0
M  V30 830 H 73.8761 0.840659 3.64532 0
M  V30 831 H 75.2091 1.08685 4.8005 0
M  V30 832 N 76.8612 -1.46375 0.584142 0
M  V30 833 C 77.7932 -2.28443 -0.186119 0
M  V30 834 C 78.8062 -1.38596 -0.854115 0
M  V30 835 O 79.9952 -1.63183 -0.723438 0
M  V30 836 C 77.0952 -3.13671 -1.28311 0
M  V30 837 C 76.2682 -4.31652 -0.706758 0
M  V30 838 C 75.3272 -4.98267 -1.69163 0
M  V30 839 O 74.3532 -5.55815 -1.22712 0
M  V30 840 N 75.5552 -4.95408 -3.02575 0
M  V30 841 H 78.3202 -2.9519 0.517986 0
M  V30 842 H 75.8812 -1.56303 0.42201 0
M  V30 843 H 77.8732 -3.55101 -1.94128 0
M  V30 844 H 76.4432 -2.48989 -1.89005 0
M  V30 845 H 75.6632 -3.93989 0.128908 0
M  V30 846 H 76.9512 -5.07906 -0.301506 0
M  V30 847 H 76.3492 -4.49902 -3.42936 0
M  V30 848 H 74.9062 -5.40774 -3.63877 0
M  V30 849 N 78.3393 -0.321999 -1.54275 0
M  V30 850 C 79.2693 0.537411 -2.27231 0
M  V30 851 C 80.2503 1.12064 -1.27968 0
M  V30 852 O 81.4353 1.14606 -1.56777 0
M  V30 853 C 78.5653 1.69919 -3.02894 0
M  V30 854 C 77.5193 1.24534 -4.09482 0
M  V30 855 C 76.8453 2.49394 -4.72977 0
M  V30 856 C 78.1453 0.361335 -5.21049 0
M  V30 857 H 79.8393 -0.0711406 -2.99315 0
M  V30 858 H 77.3853 -0.0356555 -1.43956 0
M  V30 859 H 79.3383 2.30668 -3.52662 0
M  V30 860 H 78.0623 2.33431 -2.28424 0
M  V30 861 H 76.7213 0.660782 -3.60596 0
M  V30 862 H 76.3693 3.11265 -3.95124 0
M  V30 863 H 76.0693 2.19718 -5.44975 0
M  V30 864 H 77.5933 3.10908 -5.25517 0
M  V30 865 H 79.0073 0.875072 -5.66582 0
M  V30 866 H 77.4043 0.157428 -5.99893 0
M  V30 867 H 78.4743 -0.60822 -4.8107 0
M  V30 868 N 79.8174 1.5752 -0.0501392 0
M  V30 869 C 81.0644 1.9265 0.623874 0
M  V30 870 C 81.3924 0.928411 1.70912 0
M  V30 871 O 80.6474 -0.0594525 1.9561 0
M  V30 872 C 80.9464 3.34467 1.25963 0
M  V30 873 C 80.6124 4.49883 0.302689 0
M  V30 874 C 79.2744 4.81184 0.0393636 0
M  V30 875 C 81.6264 5.20002 -0.353205 0
M  V30 876 C 78.9544 5.79951 -0.887308 0
M  V30 877 C 81.3064 6.1976 -1.26806 0
M  V30 878 C 79.9704 6.49491 -1.54007 0
M  V30 879 H 79.2404 0.704957 0.228292 0
M  V30 880 H 81.8874 1.91146 -0.116398 0
M  V30 881 H 80.1924 3.32333 2.07514 0
M  V30 882 H 81.8894 3.58928 1.78806 0
M  V30 883 H 78.4794 4.25457 0.518109 0
M  V30 884 H 82.6634 4.96033 -0.162854 0
M  V30 885 H 77.9194 6.01322 -1.10553 0
M  V30 886 H 82.0934 6.73205 -1.78236 0
M  V30 887 H 79.7204 7.25837 -2.25976 0
M  V30 888 N 81.2955 -0.223234 1.56011 0
M  V30 889 C 82.2285 -1.30377 1.87289 0
M  V30 890 C 83.2065 -1.45286 0.730112 0
M  V30 891 O 84.3905 -1.61126 0.978302 0
M  V30 892 C 81.5175 -2.67431 2.07843 0
M  V30 893 C 80.5635 -2.69546 3.30526 0
M  V30 894 S 81.3965 -2.23781 4.865 0
M  V30 895 C 82.5525 -3.62714 5.10088 0
M  V30 896 H 82.7855 -1.03652 2.78646 0
M  V30 897 H 80.3185 -0.425393 1.48424 0
M  V30 898 H 82.2765 -3.46336 2.20368 0
M  V30 899 H 80.9375 -2.91381 1.17285 0
M  V30 900 H 80.1305 -3.70255 3.41947 0
M  V30 901 H 79.7325 -1.98703 3.16849 0
M  V30 902 H 82.0245 -4.58391 4.98883 0
M  V30 903 H 82.9675 -3.5621 6.11981 0
M  V30 904 H 83.3755 -3.56323 4.37829 0
M  V30 905 N 82.7736 -1.49793 -0.48987 0
M  V30 906 C 83.6836 -1.70036 -1.61632 0
M  V30 907 C 84.6996 -0.583102 -1.63939 0
M  V30 908 O 85.8756 -0.859169 -1.82154 0
M  V30 909 C 82.9406 -1.77277 -2.97949 0
M  V30 910 C 82.0016 -3.00918 -3.06181 0
M  V30 911 C 81.2346 -3.07804 -4.35996 0
M  V30 912 O 81.4576 -2.21982 -5.25433 0
M  V30 913 O 80.3916 -4.00369 -4.49431 0
M  V30 914 H 84.2176 -2.65486 -1.47482 0
M  V30 915 H 81.8026 -1.33666 -0.667362 0
M  V30 916 H 83.6846 -1.84329 -3.78947 0
M  V30 917 H 82.3596 -0.850076 -3.12339 0
M  V30 918 H 81.2666 -2.99377 -2.2433 0
M  V30 919 H 82.5996 -3.92704 -2.96723 0
M  V30 920 N 84.2517 0.741722 -1.39055 0
M  V30 921 C 85.1847 1.86416 -1.31622 0
M  V30 922 C 86.1627 1.61473 -0.191076 0
M  V30 923 O 87.3467 1.84825 -0.370399 0
M  V30 924 C 84.4737 3.22266 -1.04221 0
M  V30 925 C 83.5197 3.66079 -2.18834 0
M  V30 926 S 84.3527 3.7623 -3.81066 0
M  V30 927 C 85.5087 5.14881 -3.55877 0
M  V30 928 H 85.7417 1.92437 -2.26617 0
M  V30 929 H 83.2747 0.905907 -1.25031 0
M  V30 930 H 85.2327 4.00714 -0.890964 0
M  V30 931 H 83.8937 3.1391 -0.109237 0
M  V30 932 H 83.0867 4.64648 -1.95238 0
M  V30 933 H 82.6887 2.94817 -2.30128 0
M  V30 934 H 84.9807 6.01006 -3.12726 0
M  V30 935 H 85.9237 5.43503 -4.53884 0
M  V30 936 H 86.3317 4.84239 -2.90126 0
M  V30 937 N 85.7298 1.2412 0.971189 0
M  V30 938 C 86.6928 1.03156 2.04674 0
M  V30 939 C 87.6928 -0.00990322 1.60797 0
M  V30 940 O 88.8828 0.230729 1.72665 0
M  V30 941 C 86.0148 0.562765 3.36223 0
M  V30 942 H 87.2078 1.98614 2.24705 0
M  V30 943 H 84.7608 1.06293 1.14593 0
M  V30 944 H 85.4958 -0.395176 3.21883 0
M  V30 945 H 85.2808 1.31441 3.69413 0
M  V30 946 H 86.7708 0.437015 4.15307 0
M  V30 947 N 87.2079 -1.17134 1.05439 0
M  V30 948 C 88.4849 -1.83411 0.679699 0
M  V30 949 C 88.8649 -1.9368 -0.839726 0
M  V30 950 O 88.2129 -1.47325 -1.74664 0
M  V30 951 C 88.4229 -3.20918 1.37159 0
M  V30 952 C 89.7709 -3.96796 1.51123 0
M  V30 953 O 90.7949 -3.30406 1.3308 0
M  V30 954 O 89.6539 -5.15778 1.80651 0
M  V30 955 H 86.7479 -0.79154 0.239569 0
M  V30 956 H 89.2939 -1.24411 1.15413 0
M  V30 957 H 88.0659 -3.08428 2.40807 0
M  V30 958 H 87.6889 -3.87587 0.886674 0
M  V30 959 N 88.686 -0.835752 -1.33615 0
M  V30 960 C 90.102 -0.523139 -1.50783 0
M  V30 961 C 90.302 0.950171 -1.77691 0
M  V30 962 O 89.358 1.73411 -1.83534 0
M  V30 963 C 90.671 -1.39378 -2.66448 0
M  V30 964 C 92.219 -1.39223 -2.80332 0
M  V30 965 C 92.694 -2.24765 -3.99055 0
M  V30 966 N 94.185 -2.22458 -4.06284 0
M  V30 967 C 94.92 -2.85386 -4.97336 0
M  V30 968 N 94.416 -3.57354 -5.93523 0
M  V30 969 N 96.209 -2.74872 -4.90308 0
M  V30 970 H 88.36 -1.78952 -1.14411 0
M  V30 971 H 90.623 -0.763297 -0.562212 0
M  V30 972 H 90.329 -2.44061 -2.53234 0
M  V30 973 H 90.203 -1.0676 -3.61776 0
M  V30 974 H 92.59 -0.353136 -2.92979 0
M  V30 975 H 92.671 -1.75846 -1.85773 0
M  V30 976 H 92.315 -3.28732 -3.87167 0
M  V30 977 H 92.245 -1.85485 -4.92852 0
M  V30 978 H 94.736 -1.70119 -3.37443 0
M  V30 979 H 95.049 -4.02584 -6.59656 0
M  V30 980 H 93.394 -3.61461 -5.93608 0
M  V30 981 H 96.585 -2.18213 -4.14126 0
M  V30 982 H 96.758 -3.24199 -5.61069 0
M  V30 983 N 90.1641 1.46063 -0.591896 0
M  V30 984 C 91.0971 2.27452 0.184617 0
M  V30 985 C 92.0751 1.36188 0.888351 0
M  V30 986 O 93.2591 1.65606 0.90039 0
M  V30 987 C 90.3861 3.14162 1.26571 0
M  V30 988 C 89.4321 4.21255 0.666814 0
M  V30 989 S 90.2651 5.33034 -0.513345 0
M  V30 990 C 91.4211 6.23311 0.56872 0
M  V30 991 H 91.6541 2.92963 -0.505939 0
M  V30 992 H 89.1871 1.49676 -0.379014 0
M  V30 993 H 91.1451 3.6468 1.88463 0
M  V30 994 H 89.8061 2.47946 1.92826 0
M  V30 995 H 88.9991 4.81788 1.47974 0
M  V30 996 H 88.6011 3.73797 0.123359 0
M  V30 997 H 90.8931 6.61758 1.45198 0
M  V30 998 H 91.8361 7.081 -7.23824e-05 0
M  V30 999 H 92.2441 5.57646 0.876996 0
M  V30 1000 N 91.6422 0.330177 1.54103 0
M  V30 1001 C 92.6052 -0.520144 2.2322 0
M  V30 1002 C 93.6052 -1.03828 1.22786 0
M  V30 1003 O 94.7952 -0.929652 1.4732 0
M  V30 1004 C 91.9272 -1.72317 2.94142 0
M  V30 1005 H 93.1202 0.0841605 2.99782 0
M  V30 1006 H 90.6732 0.0813433 1.56088 0
M  V30 1007 H 91.4082 -2.36653 2.21734 0
M  V30 1008 H 91.1932 -1.35898 3.67796 0
M  V30 1009 H 92.6832 -2.3266 3.46784 0
M  V30 1010 N 93.1203 -1.57491 0.0584922 0
M  V30 1011 C 94.0523 -2.08916 -0.942694 0
M  V30 1012 C 95.0653 -1.0185 -1.27006 0
M  V30 1013 O 96.2543 -1.29398 -1.22957 0
M  V30 1014 C 93.3543 -2.52341 -2.26224 0
M  V30 1015 C 92.5273 -3.82827 -2.1157 0
M  V30 1016 C 91.5863 -4.12487 -3.26712 0
M  V30 1017 O 90.6123 -4.82295 -3.02292 0
M  V30 1018 N 91.8143 -3.64978 -4.5141 0
M  V30 1019 H 94.5793 -2.95437 -0.503722 0
M  V30 1020 H 92.1403 -1.61397 -0.12757 0
M  V30 1021 H 94.1323 -2.69254 -3.02133 0
M  V30 1022 H 92.7023 -1.7103 -2.61663 0
M  V30 1023 H 91.9223 -3.75425 -1.20208 0
M  V30 1024 H 93.2103 -4.68263 -1.99015 0
M  V30 1025 H 92.6083 -3.08558 -4.7414 0
M  V30 1026 H 91.1653 -3.87115 -5.2439 0
M  V30 1027 N 94.5984 0.214957 -1.56127 0
M  V30 1028 C 95.8754 0.963093 -1.70247 0
M  V30 1029 C 96.2554 2.02166 -0.60764 0
M  V30 1030 O 95.6034 2.25244 0.384385 0
M  V30 1031 C 95.8134 1.56756 -3.11815 0
M  V30 1032 C 97.1614 2.0573 -3.7143 0
M  V30 1033 O 98.1854 1.66637 -3.14818 0
M  V30 1034 O 97.0444 2.77603 -4.70743 0
M  V30 1035 H 94.1384 0.450321 -0.693643 0
M  V30 1036 H 96.6844 0.206219 -1.68442 0
M  V30 1037 H 95.4564 0.803533 -3.82961 0
M  V30 1038 H 95.0794 2.3898 -3.17765 0
M  V30 1039 N 96.0765 1.50051 0.48192 0
M  V30 1040 C 97.3245 1.60181 1.23234 0
M  V30 1041 C 97.6455 0.299176 1.92691 0
M  V30 1042 O 96.9155 -0.682708 1.83619 0
M  V30 1043 H 95.4955 0.590232 0.457859 0
M  V30 1044 H 98.1575 1.86775 0.556881 0
M  V30 1045 H 97.2535 2.40753 1.98607 0
M  V30 1046 N 97.5546 -0.734337 1.39446 0
M  V30 1047 C 98.8006 -1.49505 1.37913 0
M  V30 1048 C 99.1556 -1.92384 -0.0248416 0
M  V30 1049 O 98.4486 -1.6395 -0.991506 0
M  V30 1050 C 98.6426 -2.74711 2.28623 0
M  V30 1051 C 98.4716 -2.44075 3.777 0
M  V30 1052 C 97.2416 -2.36338 4.46623 0
M  V30 1053 C 99.4396 -2.09574 4.69663 0
M  V30 1054 N 97.4216 -1.9818 5.81032 0
M  V30 1055 C 98.7926 -1.81865 5.92727 0
M  V30 1056 C 100.848 -1.96048 4.57678 0
M  V30 1057 C 99.5506 -1.41992 7.05146 0
M  V30 1058 C 101.577 -1.57579 5.7002 0
M  V30 1059 C 100.939 -1.30754 6.92158 0
M  V30 1060 H 97.0376 -0.545896 0.55993 0
M  V30 1061 H 99.6216 -0.853373 1.75002 0
M  V30 1062 H 97.7926 -3.36657 1.93692 0
M  V30 1063 H 99.5246 -3.40916 2.18078 0
M  V30 1064 H 96.2796 -2.53456 4.00071 0
M  V30 1065 H 96.7036 -1.81691 6.52163 0
M  V30 1066 H 101.346 -2.15455 3.63784 0
M  V30 1067 H 99.0636 -1.21327 7.9894 0
M  V30 1068 H 102.65 -1.47718 5.62735 0
M  V30 1069 H 101.53 -1.01432 7.77612 0
M  V30 1070 N 99.0327 -1.24633 -0.964593 0
M  V30 1071 C 100.449 -1.01239 -1.2338 0
M  V30 1072 C 100.649 0.2769 -1.99588 0
M  V30 1073 O 99.7047 0.992241 -2.32187 0
M  V30 1074 C 101.018 -2.22937 -2.01791 0
M  V30 1075 C 102.566 -2.27594 -2.14872 0
M  V30 1076 C 103.041 -3.48921 -2.96678 0
M  V30 1077 N 104.532 -3.49257 -3.04259 0
M  V30 1078 C 105.267 -4.39795 -3.67924 0
M  V30 1079 N 104.763 -5.40591 -4.33281 0
M  V30 1080 N 106.556 -4.275 -3.64966 0
M  V30 1081 H 98.7067 -2.0748 -0.454502 0
M  V30 1082 H 100.97 -0.910647 -0.26349 0
M  V30 1083 H 100.676 -3.16587 -1.53184 0
M  V30 1084 H 100.55 -2.25306 -3.02518 0
M  V30 1085 H 102.937 -1.34473 -2.6268 0
M  V30 1086 H 103.018 -2.2925 -1.13482 0
M  V30 1087 H 102.662 -4.42359 -2.49562 0
M  V30 1088 H 102.592 -3.4451 -3.98272 0
M  V30 1089 H 105.083 -2.76337 -2.57771 0
M  V30 1090 H 105.396 -6.05904 -4.79687 0
M  V30 1091 H 103.741 -5.44475 -4.3194 0
M  V30 1092 H 106.932 -3.47987 -3.13086 0
M  V30 1093 H 107.105 -4.98258 -4.14298 0
M  V30 1094 N 100.511 1.16574 -1.06058 0
M  V30 1095 C 101.788 1.83048 -0.689416 0
M  V30 1096 C 102.168 1.94122 0.829443 0
M  V30 1097 O 101.516 1.48249 1.7388 0
M  V30 1098 C 101.726 3.20186 -1.38859 0
M  V30 1099 C 103.074 3.95989 -1.53226 0
M  V30 1100 O 104.098 3.29696 -1.3483 0
M  V30 1101 O 102.957 5.14813 -1.83384 0
M  V30 1102 H 100.051 0.790258 -0.243764 0
M  V30 1103 H 102.597 1.23797 -1.16071 0
M  V30 1104 H 101.369 3.07146 -2.4244 0
M  V30 1105 H 100.992 3.87112 -0.907216 0
M  V30 1106 N 101.989 0.842826 1.3317 0
M  V30 1107 C 102.922 0.223862 2.27099 0
M  V30 1108 C 103.9 -0.631311 1.49844 0
M  V30 1109 O 105.084 -0.590708 1.79005 0
M  V30 1110 C 102.211 -0.685313 3.31694 0
M  V30 1111 C 101.257 0.094919 4.26394 0
M  V30 1112 S 102.09 1.45546 5.15341 0
M  V30 1113 C 103.246 0.551685 6.23464 0
M  V30 1114 H 103.479 1.02015 2.79249 0
M  V30 1115 H 101.012 0.639797 1.4052 0
M  V30 1116 H 102.97 -1.20426 3.92438 0
M  V30 1117 H 101.631 -1.4553 2.78352 0
M  V30 1118 H 100.824 -0.597059 5.00451 0
M  V30 1119 H 100.426 0.545054 3.70007 0
M  V30 1120 H 102.718 -0.248877 6.77043 0
M  V30 1121 H 103.661 1.26253 6.96754 0
M  V30 1122 H 104.069 0.131275 5.64347 0
M  V30 1123 N 103.467 -1.45747 0.599634 0
M  V30 1124 C 104.715 -2.01893 0.0915472 0
M  V30 1125 C 105.036 -1.47155 -1.27946 0
M  V30 1126 O 104.306 -0.66273 -1.84349 0
M  V30 1127 H 102.886 -0.746363 0.0308524 0
M  V30 1128 H 105.548 -1.78645 0.779237 0
M  V30 1129 H 104.644 -3.1208 0.0353086 0
M  V30 1130 N 104.945 -0.338344 -1.53925 0
M  V30 1131 C 106.175 0.260919 -2.04946 0
M  V30 1132 C 106.583 1.45174 -1.2133 0
M  V30 1133 O 105.926 1.82122 -0.240262 0
M  V30 1134 C 105.988 0.744596 -3.51704 0
M  V30 1135 C 105.652 -0.325883 -4.55837 0
M  V30 1136 C 106.649 -1.16687 -5.06636 0
M  V30 1137 C 104.334 -0.478317 -5.00017 0
M  V30 1138 C 106.328 -2.14588 -6.00192 0
M  V30 1139 C 104.015 -1.46073 -5.93385 0
M  V30 1140 C 105.013 -2.29297 -6.4336 0
M  V30 1141 O 104.701 -3.25867 -7.34892 0
M  V30 1142 H 104.433 0.0551207 -0.673749 0
M  V30 1143 H 106.987 -0.486984 -1.99544 0
M  V30 1144 H 105.217 1.54366 -3.54553 0
M  V30 1145 H 106.906 1.26383 -3.85723 0
M  V30 1146 H 107.672 -1.06016 -4.73271 0
M  V30 1147 H 103.551 0.159613 -4.60724 0
M  V30 1148 H 107.095 -2.79585 -6.39123 0
M  V30 1149 H 102.992 -1.56802 -6.26166 0
M  V30 1150 H 103.76 -3.21278 -7.5281 0
M  V30 1151 N 106.423 1.57458 -0.0668435 0
M  V30 1152 C 107.651 1.97624 0.612565 0
M  V30 1153 C 108.066 0.94502 1.63447 0
M  V30 1154 O 107.423 -0.0689276 1.8237 0
M  V30 1155 C 107.474 3.37869 1.28555 0
M  V30 1156 O 107.195 4.3704 0.304557 0
M  V30 1157 C 108.696 3.92882 2.05325 0
M  V30 1158 H 105.916 0.650045 0.166381 0
M  V30 1159 H 108.46 2.04035 -0.137782 0
M  V30 1160 H 106.615 3.3256 1.98702 0
M  V30 1161 H 107.029 5.18565 0.786779 0
M  V30 1162 H 108.503 4.93247 2.47812 0
M  V30 1163 H 108.98 3.29156 2.9078 0
M  V30 1164 H 109.586 4.01577 1.40056 0
M  V30 1165 N 107.901 -0.206675 1.56239 0
M  V30 1166 C 109.131 -0.943975 1.83773 0
M  V30 1167 C 109.539 -1.77841 0.645703 0
M  V30 1168 O 108.882 -1.79403 -0.395008 0
M  V30 1169 C 108.944 -1.899 3.05251 0
M  V30 1170 C 108.608 -1.24764 4.39639 0
M  V30 1171 C 109.605 -0.630216 5.16066 0
M  V30 1172 C 107.29 -1.25496 4.8637 0
M  V30 1173 C 109.284 -0.0287946 6.37393 0
M  V30 1174 C 106.971 -0.649698 6.07637 0
M  V30 1175 C 107.969 -0.0376845 6.8299 0
M  V30 1176 O 107.657 0.55812 8.0196 0
M  V30 1177 H 107.389 -0.281508 0.614597 0
M  V30 1178 H 109.943 -0.222458 2.04192 0
M  V30 1179 H 108.173 -2.6599 2.80689 0
M  V30 1180 H 109.862 -2.5031 3.1953 0
M  V30 1181 H 110.628 -0.616785 4.81062 0
M  V30 1182 H 106.507 -1.72072 4.27683 0
M  V30 1183 H 110.051 0.449518 6.9615 0
M  V30 1184 H 105.948 -0.660592 6.42111 0
M  V30 1185 H 106.716 0.453891 8.17241 0
M  V30 1186 N 109.379 -1.50304 -0.473955 0
M  V30 1187 C 110.309 -1.71886 -1.58042 0
M  V30 1188 C 111.29 -0.567799 -1.60344 0
M  V30 1189 O 112.475 -0.806623 -1.76656 0
M  V30 1190 C 109.605 -1.81036 -2.96384 0
M  V30 1191 C 108.559 -2.962 -3.08949 0
M  V30 1192 C 107.885 -2.9049 -4.48909 0
M  V30 1193 C 109.185 -4.36752 -2.86434 0
M  V30 1194 H 110.879 -2.64527 -1.40234 0
M  V30 1195 H 108.425 -1.27295 -0.673201 0
M  V30 1196 H 110.378 -1.94719 -3.73714 0
M  V30 1197 H 109.102 -0.850147 -3.15341 0
M  V30 1198 H 107.761 -2.82164 -2.3405 0
M  V30 1199 H 107.409 -1.92321 -4.64781 0
M  V30 1200 H 107.109 -3.67802 -4.58253 0
M  V30 1201 H 108.633 -3.06218 -5.28264 0
M  V30 1202 H 110.047 -4.5133 -3.53517 0
M  V30 1203 H 108.444 -5.15493 -3.07225 0
M  V30 1204 H 109.514 -4.49321 -1.82316 0
M  V30 1205 N 110.857 0.726932 -1.39834 0
M  V30 1206 C 111.805 1.86235 -1.39353 0
M  V30 1207 C 112.799 1.67144 -0.275555 0
M  V30 1208 O 114.005 1.74387 -0.44601 0
M  V30 1209 H 110.38 0.613174 -0.43534 0
M  V30 1210 H 112.351 1.83756 -2.35109 0
M  V30 1211 C 111.1 3.23995 -1.26185 0
M  V30 1212 H 110.423 3.39285 -2.11484 0
M  V30 1213 H 111.863 4.03609 -1.29907 0
M  V30 1214 C 110.322 3.36888 0.0290018 0
M  V30 1215 O 110.852 3.89152 0.99619 0
M  V30 1216 N 109.058 2.90446 0.0947437 0
M  V30 1217 H 108.605 2.48102 -0.693035 0
M  V30 1218 H 108.563 2.99451 0.957932 0
M  V30 1219 N 112.336 1.25143 0.95797 0
M  V30 1220 C 113.585 1.0909 1.69654 0
M  V30 1221 C 113.898 -0.368548 1.92097 0
M  V30 1222 O 115.104 -0.649455 2.63618 0
M  V30 1223 C 113.56 1.90395 3.05414 0
M  V30 1224 C 113.168 3.4081 2.90779 0
M  V30 1225 C 114.912 1.82901 3.83076 0
M  V30 1226 C 112.819 4.14423 4.21909 0
M  V30 1227 H 111.749 0.404625 0.636235 0
M  V30 1228 H 114.4 1.4931 1.06672 0
M  V30 1229 H 112.782 1.42996 3.69281 0
M  V30 1230 H 113.956 3.95859 2.35865 0
M  V30 1231 H 112.271 3.49361 2.26575 0
M  V30 1232 H 114.868 2.35196 4.80195 0
M  V30 1233 H 115.211 0.796224 4.08615 0
M  V30 1234 H 115.744 2.28033 3.25954 0
M  V30 1235 H 112.483 5.18102 4.01561 0
M  V30 1236 H 112.003 3.64159 4.76601 0
M  V30 1237 H 113.682 4.21956 4.90471 0
M  V30 1238 N 113.814 -1.1601 1.06675 0
M  V30 1239 C 115.091 -1.82679 0.699114 0
M  V30 1240 C 115.471 -1.94559 -0.819137 0
M  V30 1241 O 114.819 -1.49169 -1.73092 0
M  V30 1242 C 115.029 -3.19445 1.40555 0
M  V30 1243 C 116.377 -3.95171 1.55323 0
M  V30 1244 O 117.401 -3.28976 1.36577 0
M  V30 1245 O 116.26 -5.13833 1.86112 0
M  V30 1246 H 113.354 -0.788954 0.247951 0
M  V30 1247 H 115.9 -1.23179 1.16726 0
M  V30 1248 H 114.672 -3.05856 2.44065 0
M  V30 1249 H 114.295 -3.86625 0.927733 0
M  V30 1250 N 115.292 -0.849877 -1.32721 0
M  V30 1251 C 116.569 -0.372405 -1.92022 0
M  V30 1252 C 116.949 1.1435 -1.77447 0
M  V30 1253 O 116.297 1.96296 -1.16962 0
M  V30 1254 C 116.507 -0.831482 -3.3895 0
M  V30 1255 C 117.855 -0.845882 -4.16089 0
M  V30 1256 O 118.879 -0.775806 -3.47649 0
M  V30 1257 O 117.738 -0.943753 -5.38289 0
M  V30 1258 H 114.832 -0.107667 -0.819961 0
M  V30 1259 H 117.378 -0.93646 -1.41522 0
M  V30 1260 H 116.15 -1.87448 -3.4348 0
M  V30 1261 H 115.773 -0.24461 -3.96847 0
M  V30 1262 N 116.77 1.45427 -0.607355 0
M  V30 1263 C 118.01 2.04128 -0.105458 0
M  V30 1264 C 118.374 1.46555 1.24039 0
M  V30 1265 O 119.575 1.96608 1.833 0
M  V30 1266 C 117.846 3.57338 -0.0665324 0
M  V30 1267 S 119.405 4.37201 0.374207 0
M  V30 1268 H 116.223 0.709278 -0.0494575 0
M  V30 1269 H 118.825 1.78139 -0.805404 0
M  V30 1270 H 117.529 3.96752 -1.04957 0
M  V30 1271 H 117.06 3.87902 0.655415 0
M  V30 1272 H 119.075 4.6888 1.62377 0
M  V30 1273 N 118.248 0.346503 1.53744 0
M  V30 1274 C 119.494 -0.242135 2.01954 0
M  V30 1275 C 119.849 -1.47962 1.22984 0
M  V30 1276 O 119.142 -1.89077 0.309924 0
M  V30 1277 C 119.336 -0.605809 3.52228 0
M  V30 1278 C 119.165 0.594882 4.45748 0
M  V30 1279 C 117.935 1.1011 4.93157 0
M  V30 1280 C 120.133 1.45425 4.93311 0
M  V30 1281 N 118.115 2.26381 5.70636 0
M  V30 1282 C 119.486 2.46383 5.68942 0
M  V30 1283 C 121.541 1.47935 4.75415 0
M  V30 1284 C 120.244 3.49684 6.28581 0
M  V30 1285 C 122.27 2.50119 5.35905 0
M  V30 1286 C 121.632 3.49803 6.11406 0
M  V30 1287 H 117.731 -0.0518296 0.780281 0
M  V30 1288 H 120.315 0.486736 1.88518 0
M  V30 1289 H 118.486 -1.30378 3.65864 0
M  V30 1290 H 120.218 -1.17789 3.87179 0
M  V30 1291 H 116.973 0.668721 4.68855 0
M  V30 1292 H 117.397 2.85094 6.14044 0
M  V30 1293 H 122.039 0.722274 4.16585 0
M  V30 1294 H 119.757 4.26285 6.86518 0
M  V30 1295 H 123.343 2.52892 5.23963 0
M  V30 1296 H 122.223 4.27576 6.5738 0
M  V30 1297 N 119.726 -1.57421 0.075193 0
M  V30 1298 C 120.975 -1.92794 -0.592731 0
M  V30 1299 C 121.288 -0.957478 -1.70563 0
M  V30 1300 O 122.494 -1.20417 -2.43335 0
M  V30 1301 C 120.95 -3.42495 -1.10569 0
M  V30 1302 C 120.558 -4.47994 -0.0236121 0
M  V30 1303 C 122.302 -3.86864 -1.74748 0
M  V30 1304 C 120.209 -5.88829 -0.550803 0
M  V30 1305 H 119.139 -0.719591 -0.225177 0
M  V30 1306 H 121.79 -1.82902 0.147978 0
M  V30 1307 H 120.172 -3.47471 -1.89947 0
M  V30 1308 H 121.346 -4.54637 0.751099 0
M  V30 1309 H 119.661 -4.13113 0.522159 0
M  V30 1310 H 122.258 -4.8947 -2.15229 0
M  V30 1311 H 122.601 -3.24417 -2.60882 0
M  V30 1312 H 123.134 -3.84504 -1.01986 0
M  V30 1313 H 119.873 -6.54929 0.273457 0
M  V30 1314 H 119.393 -5.85698 -1.29296 0
M  V30 1315 H 121.072 -6.38811 -1.02613 0
M  V30 1316 N 121.204 0.198386 -1.56346 0
M  V30 1317 C 122.452 0.91747 -1.80075 0
M  V30 1318 C 122.773 1.83929 -0.647692 0
M  V30 1319 O 122.043 1.93029 0.334166 0
M  V30 1320 H 120.623 0.341774 -0.664228 0
M  V30 1321 H 123.285 0.204684 -1.93822 0
M  V30 1322 H 122.381 1.51055 -2.7311 0
M  V30 1323 N 122.682 1.50554 0.465978 0
M  V30 1324 C 123.93 1.61479 1.21528 0
M  V30 1325 C 124.251 0.319596 1.92363 0
M  V30 1326 O 123.521 -0.663194 1.84333 0
M  V30 1327 H 122.101 0.595055 0.451573 0
M  V30 1328 H 124.763 1.87355 0.53704 0
M  V30 1329 H 123.859 2.42846 1.96042 0
M  V30 1330 N 124.16 -0.719506 1.40217 0
M  V30 1331 C 125.576 -1.02707 1.22161 0
M  V30 1332 C 125.776 -2.0128 0.0940557 0
M  V30 1333 O 124.832 -2.46452 -0.549318 0
M  V30 1334 C 126.145 -1.57454 2.56181 0
M  V30 1335 C 127.693 -1.69458 2.63159 0
M  V30 1336 C 128.168 -2.27611 3.97438 0
M  V30 1337 N 129.659 -2.35002 3.99159 0
M  V30 1338 C 130.394 -2.80972 4.99842 0
M  V30 1339 N 129.89 -3.26723 6.10921 0
M  V30 1340 N 131.683 -2.80321 4.87213 0
M  V30 1341 H 123.834 -0.0660492 2.12297 0
M  V30 1342 H 126.097 -0.0919077 0.943534 0
M  V30 1343 H 125.803 -0.924873 3.39321 0
M  V30 1344 H 125.677 -2.56036 2.76993 0
M  V30 1345 H 128.064 -2.33543 1.80393 0
M  V30 1346 H 128.145 -0.694867 2.46181 0
M  V30 1347 H 127.789 -1.6415 4.80643 0
M  V30 1348 H 127.719 -3.2829 4.11744 0
M  V30 1349 H 130.21 -2.02685 3.18947 0
M  V30 1350 H 130.523 -3.60355 6.8364 0
M  V30 1351 H 128.868 -3.24692 6.14492 0
M  V30 1352 H 132.059 -2.43912 3.9953 0
M  V30 1353 H 132.232 -3.15831 5.65822 0
M  V30 1354 N 125.638 -1.25649 -0.95132 0
M  V30 1355 C 126.915 -1.01361 -1.67288 0
M  V30 1356 C 127.295 0.459135 -2.06046 0
M  V30 1357 O 126.643 1.43723 -1.7764 0
M  V30 1358 C 126.853 -1.95256 -2.89268 0
M  V30 1359 C 128.201 -2.23289 -3.61147 0
M  V30 1360 O 129.225 -1.93041 -2.99355 0
M  V30 1361 O 128.084 -2.74741 -4.72419 0
M  V30 1362 H 125.178 -0.38464 -0.732107 0
M  V30 1363 H 127.724 -1.36817 -1.00395 0
M  V30 1364 H 126.496 -2.94685 -2.57442 0
M  V30 1365 H 126.119 -1.60218 -3.6389 0
M  V30 1366 N 127.117 1.15442 -1.07289 0
M  V30 1367 C 128.08 2.18358 -0.696591 0
M  V30 1368 C 129.08 1.58637 0.262837 0
M  V30 1369 O 130.27 1.74145 0.0438809 0
M  V30 1370 C 127.402 3.4089 -0.0266151 0
M  V30 1371 H 128.595 2.53162 -1.60776 0
M  V30 1372 H 126.148 1.29893 -0.869342 0
M  V30 1373 H 126.883 3.11653 0.896822 0
M  V30 1374 H 126.668 3.85495 -0.716657 0
M  V30 1375 H 128.158 4.17009 0.222028 0
M  V30 1376 N 128.595 0.856903 1.32268 0
M  V30 1377 C 129.82 0.474569 2.01897 0
M  V30 1378 C 130.245 -0.921766 1.63967 0
M  V30 1379 O 129.603 -1.60589 0.84148 0
M  V30 1380 C 129.651 0.623799 3.55164 0
M  V30 1381 O 128.755 -0.342459 4.10976 0
M  V30 1382 H 128.096 0.190422 0.63611 0
M  V30 1383 H 130.626 1.15672 1.68764 0
M  V30 1384 H 130.636 0.512169 4.04773 0
M  V30 1385 H 129.311 1.64202 3.82113 0
M  V30 1386 H 127.888 -0.18688 3.72431 0
M  V30 1387 N 130.073 -1.45103 0.615059 0
M  V30 1388 C 131.321 -2.01784 0.112955 0
M  V30 1389 C 131.642 -1.48504 -1.26378 0
M  V30 1390 O 130.912 -0.682245 -1.83636 0
M  V30 1391 H 129.492 -0.745993 0.0387668 0
M  V30 1392 H 132.154 -1.77808 0.798141 0
M  V30 1393 H 131.25 -3.12025 0.0684069 0
M  V30 1394 N 131.551 -0.354651 -1.53558 0
M  V30 1395 C 132.967 -0.00315426 -1.596 0
M  V30 1396 C 133.167 1.47741 -1.37021 0
M  V30 1397 O 132.223 2.23759 -1.16996 0
M  V30 1398 C 133.536 -0.44929 -2.97325 0
M  V30 1399 C 135.084 -0.402578 -3.104 0
M  V30 1400 C 135.559 -0.824355 -4.5052 0
M  V30 1401 N 137.05 -0.778979 -4.56603 0
M  V30 1402 C 137.785 -1.07715 -5.63192 0
M  V30 1403 N 137.281 -1.44405 -6.77583 0
M  V30 1404 N 139.074 -1.00066 -5.53121 0
M  V30 1405 H 131.225 -1.31893 -1.66487 0
M  V30 1406 H 133.488 -0.538388 -0.780284 0
M  V30 1407 H 133.194 -1.48202 -3.1895 0
M  V30 1408 H 133.068 0.169772 -3.76818 0
M  V30 1409 H 135.455 0.621004 -2.88492 0
M  V30 1410 H 135.536 -1.05699 -2.32941 0
M  V30 1411 H 135.18 -1.846 -4.73165 0
M  V30 1412 H 135.11 -0.147304 -5.26394 0
M  V30 1413 H 137.601 -0.508528 -3.74463 0
M  V30 1414 H 137.914 -1.65612 -7.54846 0
M  V30 1415 H 136.259 -1.4826 -6.79002 0
M  V30 1416 H 139.45 -0.713293 -4.62633 0
M  V30 1417 H 139.623 -1.23638 -6.36096 0
M  V30 1418 N 133.029 1.57378 -0.0835403 0
M  V30 1419 C 133.959 2.1641 0.87686 0
M  V30 1420 C 134.94 1.09429 1.30228 0
M  V30 1421 O 136.125 1.37516 1.37124 0
M  V30 1422 C 133.255 2.73517 2.14022 0
M  V30 1423 C 132.209 3.85769 1.85381 0
M  V30 1424 C 131.535 4.29529 3.18448 0
M  V30 1425 C 132.835 5.09486 1.14984 0
M  V30 1426 H 134.529 2.96914 0.385059 0
M  V30 1427 H 132.075 1.42823 0.18377 0
M  V30 1428 H 134.028 3.13463 2.81636 0
M  V30 1429 H 132.752 1.90252 2.65465 0
M  V30 1430 H 131.411 3.46345 1.20169 0
M  V30 1431 H 131.059 3.43169 3.67755 0
M  V30 1432 H 130.759 5.05204 3.00071 0
M  V30 1433 H 132.283 4.72099 3.8724 0
M  V30 1434 H 133.697 5.46674 1.72687 0
M  V30 1435 H 132.094 5.90515 1.06826 0
M  V30 1436 H 133.164 4.84724 0.130749 0
M  V30 1437 N 134.507 -0.190092 1.56449 0
M  V30 1438 C 135.44 -1.26375 1.90012 0
M  V30 1439 C 136.418 -1.43705 0.760765 0
M  V30 1440 O 137.602 -1.59014 1.01226 0
M  V30 1441 C 134.729 -2.62962 2.13468 0
M  V30 1442 C 133.775 -2.62474 3.36169 0
M  V30 1443 S 134.608 -2.13412 4.91137 0
M  V30 1444 C 135.764 -3.51812 5.17667 0
M  V30 1445 H 135.997 -0.977181 2.80782 0
M  V30 1446 H 133.53 -0.393814 1.49293 0
M  V30 1447 H 135.488 -3.41583 2.27664 0
M  V30 1448 H 134.149 -2.88828 1.23439 0
M  V30 1449 H 133.342 -3.62918 3.49723 0
M  V30 1450 H 132.944 -1.91937 3.20992 0
M  V30 1451 H 135.236 -4.47706 5.08494 0
M  V30 1452 H 136.179 -3.43148 6.19399 0
M  V30 1453 H 136.587 -3.46956 4.45288 0
M  V30 1454 N 135.985 -1.50799 -0.457987 0
M  V30 1455 C 137.396 -1.55152 -1.0385 0
M  V30 1456 C 137.747 -0.362719 -1.92818 0
M  V30 1457 O 136.872 0.522915 -2.09987 0
M  V30 1458 C 137.467 -2.81173 -1.89017 0
M  V30 1459 C 136.026 -2.88164 -2.42154 0
M  V30 1460 C 135.173 -2.49591 -1.20829 0
M  V30 1461 H 138.124 -1.56874 -0.240068 0
M  V30 1462 H 138.145 -2.63769 -2.74238 0
M  V30 1463 H 137.657 -3.67677 -1.24238 0
M  V30 1464 H 135.758 -2.06042 -3.10447 0
M  V30 1465 H 135.871 -3.91356 -2.76364 0
M  V30 1466 H 134.235 -2.02322 -1.54719 0
M  V30 1467 H 135.018 -3.38418 -0.576927 0
M  V30 1468 N 137.463 0.71206 -1.40597 0
M  V30 1469 C 138.74 1.46536 -1.29563 0
M  V30 1470 C 139.12 2.10931 0.0844217 0
M  V30 1471 O 138.468 2.00418 1.0975 0
M  V30 1472 C 138.678 2.49821 -2.43701 0
M  V30 1473 C 140.026 3.15551 -2.841 0
M  V30 1474 O 141.05 2.60142 -2.4332 0
M  V30 1475 O 139.909 4.15867 -3.54566 0
M  V30 1476 H 137.003 0.651801 -0.509004 0
M  V30 1477 H 139.549 0.743935 -1.52524 0
M  V30 1478 H 138.321 2.00778 -3.35863 0
M  V30 1479 H 137.944 3.29495 -2.22528 0
M  V30 1480 N 138.941 1.26152 0.944643 0
M  V30 1481 C 140.352 1.10454 1.50522 0
M  V30 1482 C 140.703 -0.31635 1.93633 0
M  V30 1483 O 139.828 -1.20746 1.79581 0
M  V30 1484 C 140.423 1.99891 2.73549 0
M  V30 1485 C 138.982 1.88348 3.25886 0
M  V30 1486 C 138.129 1.93447 1.9868 0
M  V30 1487 H 141.08 1.39292 0.760489 0
M  V30 1488 H 141.101 1.54477 3.47732 0
M  V30 1489 H 140.613 3.03297 2.42141 0
M  V30 1490 H 138.714 0.878636 3.62092 0
M  V30 1491 H 138.827 2.73696 3.93227 0
M  V30 1492 H 137.191 1.37456 2.14425 0
M  V30 1493 H 137.974 2.98476 1.69607 0
M  V30 1494 N 140.419 -1.14872 1.07899 0
M  V30 1495 C 141.366 -2.19791 0.704319 0
M  V30 1496 C 142.336 -1.63238 -0.306987 0
M  V30 1497 O 143.521 -1.8983 -0.192171 0
M  V30 1498 C 140.661 -3.44911 0.114244 0
M  V30 1499 C 139.774 -4.15637 1.1777 0
M  V30 1500 C 138.909 -5.28324 0.552037 0
M  V30 1501 C 137.948 -5.90875 1.59789 0
M  V30 1502 N 137.085 -6.95022 0.994404 0
M  V30 1503 H 141.925 -2.5119 1.60336 0
M  V30 1504 H 139.462 -1.23356 0.801352 0
M  V30 1505 H 141.42 -4.16477 -0.245544 0
M  V30 1506 H 140.05 -3.14011 -0.74813 0
M  V30 1507 H 139.102 -3.42512 1.65499 0
M  V30 1508 H 140.414 -4.5823 1.97046 0
M  V30 1509 H 139.568 -6.06538 0.1402 0
M  V30 1510 H 138.307 -4.86939 -0.272431 0
M  V30 1511 H 137.312 -5.11369 2.01945 0
M  V30 1512 H 138.537 -6.34337 2.42474 0
M  V30 1513 H 136.483 -6.55722 0.190939 0
M  V30 1514 H 136.4 -7.36073 1.72432 0
M  V30 1515 H 137.668 -7.77123 0.608253 0
M  V30 1516 N 141.898 -0.863906 -1.31812 0
M  V30 1517 C 143.314 -0.555004 -1.49639 0
M  V30 1518 C 143.514 0.912266 -1.79666 0
M  V30 1519 O 142.57 1.69479 -1.87171 0
M  V30 1520 C 143.883 -1.44998 -2.63431 0
M  V30 1521 C 145.431 -1.45138 -2.77316 0
M  V30 1522 C 145.906 -2.33179 -3.94197 0
M  V30 1523 N 147.397 -2.31025 -4.01474 0
M  V30 1524 C 148.132 -2.95871 -4.9117 0
M  V30 1525 N 147.628 -3.69863 -5.8581 0
M  V30 1526 N 149.421 -2.85211 -4.84367 0
M  V30 1527 H 141.572 -1.81339 -1.10589 0
M  V30 1528 H 143.835 -0.77505 -0.545895 0
M  V30 1529 H 143.541 -2.49377 -2.48 0
M  V30 1530 H 143.415 -1.14409 -3.59431 0
M  V30 1531 H 145.802 -0.415201 -2.92164 0
M  V30 1532 H 145.883 -1.79747 -1.82001 0
M  V30 1533 H 145.527 -3.3687 -3.80107 0
M  V30 1534 H 145.457 -1.95897 -4.88807 0
M  V30 1535 H 147.948 -1.77238 -3.33759 0
M  V30 1536 H 148.261 -4.16486 -6.50968 0
M  V30 1537 H 146.606 -3.73971 -5.85808 0
M  V30 1538 H 149.797 -2.26948 -4.09405 0
M  V30 1539 H 149.97 -3.36027 -5.54066 0
M  V30 1540 N 143.376 1.44774 -0.622745 0
M  V30 1541 C 144.623 2.02121 -0.1239 0
M  V30 1542 C 144.951 1.48915 1.25118 0
M  V30 1543 O 144.206 0.660045 1.84233 0
M  V30 1544 C 144.505 3.57364 -0.0508323 0
M  V30 1545 C 144.171 4.29787 -1.36358 0
M  V30 1546 C 142.833 4.4929 -1.72314 0
M  V30 1547 C 145.185 4.71062 -2.23048 0
M  V30 1548 C 142.513 5.07325 -2.94682 0
M  V30 1549 C 144.865 5.30452 -3.44679 0
M  V30 1550 C 143.529 5.48175 -3.80868 0
M  V30 1551 H 142.799 0.739612 -0.0453381 0
M  V30 1552 H 145.446 1.73648 -0.807389 0
M  V30 1553 H 143.751 3.85202 0.715991 0
M  V30 1554 H 145.448 3.99456 0.351533 0
M  V30 1555 H 142.038 4.14932 -1.07375 0
M  V30 1556 H 146.222 4.55715 -1.96565 0
M  V30 1557 H 141.478 5.19235 -3.22809 0
M  V30 1558 H 145.652 5.61385 -4.12092 0
M  V30 1559 H 143.279 5.92912 -4.75773 0
M  V30 1560 N 144.854 0.36279 1.53368 0
M  V30 1561 C 146.265 -0.117022 1.86333 0
M  V30 1562 C 146.616 -1.48397 1.28347 0
M  V30 1563 O 145.741 -2.07787 0.604428 0
M  V30 1564 C 146.336 -0.21912 3.38091 0
M  V30 1565 C 144.895 -0.643184 3.70864 0
M  V30 1566 C 144.042 0.211318 2.76494 0
M  V30 1567 H 146.993 0.581687 1.47655 0
M  V30 1568 H 147.014 -1.04319 3.6592 0
M  V30 1569 H 146.526 0.775902 3.80265 0
M  V30 1570 H 144.627 -1.64654 3.34245 0
M  V30 1571 H 144.74 -0.41973 4.77258 0
M  V30 1572 H 143.104 -0.319367 2.5269 0
M  V30 1573 H 143.887 1.20383 3.21501 0
M  V30 1574 N 146.332 -1.57332 0.0918853 0
M  V30 1575 C 147.282 -2.10385 -0.87876 0
M  V30 1576 C 148.266 -1.01814 -1.24591 0
M  V30 1577 O 149.458 -1.28093 -1.22152 0
M  V30 1578 C 146.587 -2.68517 -2.13901 0
M  V30 1579 C 145.673 -3.84126 -1.79744 0
M  V30 1580 N 146.064 -4.92288 -1.1613 0
M  V30 1581 C 144.362 -3.93801 -2.09373 0
M  V30 1582 C 145.063 -5.7295 -1.00513 0
M  V30 1583 N 144.039 -5.21876 -1.5214 0
M  V30 1584 H 147.841 -2.91395 -0.38293 0
M  V30 1585 H 145.355 -1.62017 -0.111423 0
M  V30 1586 H 147.352 -3.04852 -2.84378 0
M  V30 1587 H 146.012 -1.88961 -2.64053 0
M  V30 1588 H 147.023 -5.1123 -0.828504 0
M  V30 1589 H 143.7 -3.25249 -2.61762 0
M  V30 1590 H 145.09 -6.69978 -0.507902 0
M  V30 1591 N 147.81 0.181792 -1.56548 0
M  V30 1592 C 149.058 0.89832 -1.81038 0
M  V30 1593 C 149.379 1.83232 -0.667164 0
M  V30 1594 O 148.649 1.93372 0.313673 0
M  V30 1595 H 147.229 0.33471 -0.667816 0
M  V30 1596 H 149.891 0.184116 -1.94028 0
M  V30 1597 H 148.987 1.4815 -2.74696 0
M  V30 1598 N 149.288 1.51039 0.449983 0
M  V30 1599 C 150.537 1.62317 1.19733 0
M  V30 1600 C 150.85 0.339101 1.92638 0
M  V30 1601 O 152.056 0.331069 2.69474 0
M  V30 1602 C 150.512 2.86608 2.17678 0
M  V30 1603 C 150.12 4.21972 1.50479 0
M  V30 1604 C 151.864 3.07239 2.92924 0
M  V30 1605 C 149.771 5.37426 2.46834 0
M  V30 1606 H 148.701 0.604532 0.450619 0
M  V30 1607 H 151.352 1.77494 0.465625 0
M  V30 1608 H 149.734 2.65037 2.94231 0
M  V30 1609 H 150.908 4.53878 0.795716 0
M  V30 1610 H 149.223 4.07117 0.874344 0
M  V30 1611 H 151.82 3.90668 3.65079 0
M  V30 1612 H 152.163 2.19807 3.5354 0
M  V30 1613 H 152.696 3.29091 2.23481 0
M  V30 1614 H 149.435 6.27079 1.90926 0
M  V30 1615 H 148.955 5.09912 3.15832 0
M  V30 1616 H 150.634 5.68862 3.08228 0
M  V30 1617 N 150.766 -0.704594 1.40972 0
M  V30 1618 C 152.177 -1.28418 1.3552 0
M  V30 1619 C 152.528 -1.96171 0.0339434 0
M  V30 1620 O 151.653 -1.98231 -0.867944 0
M  V30 1621 C 152.248 -2.33528 2.45459 0
M  V30 1622 C 150.807 -2.87085 2.43433 0
M  V30 1623 C 149.954 -1.61007 2.2577 0
M  V30 1624 H 152.905 -0.499963 1.50619 0
M  V30 1625 H 152.926 -3.14619 2.13998 0
M  V30 1626 H 152.438 -1.84187 3.41609 0
M  V30 1627 H 150.539 -3.40626 1.51013 0
M  V30 1628 H 150.652 -3.3813 3.39419 0
M  V30 1629 H 149.016 -1.86482 1.73483 0
M  V30 1630 H 149.799 -1.13675 3.23933 0
M  V30 1631 N 152.244 -1.26651 -0.937939 0
M  V30 1632 C 153.491 -1.12387 -1.6845 0
M  V30 1633 C 153.819 0.332208 -1.91642 0
M  V30 1634 O 153.074 1.2602 -1.49725 0
M  V30 1635 C 153.373 -1.84168 -3.06295 0
M  V30 1636 C 153.039 -3.34056 -3.02849 0
M  V30 1637 C 151.701 -3.74942 -3.01616 0
M  V30 1638 C 154.053 -4.29741 -2.9491 0
M  V30 1639 C 151.381 -5.09894 -2.90215 0
M  V30 1640 C 153.733 -5.64738 -2.8505 0
M  V30 1641 C 152.397 -6.0493 -2.82162 0
M  V30 1642 H 151.667 -0.411252 -0.616403 0
M  V30 1643 H 154.314 -1.57134 -1.09459 0
M  V30 1644 H 152.619 -1.319 -3.6893 0
M  V30 1645 H 154.316 -1.70569 -3.62915 0
M  V30 1646 H 150.906 -3.01534 -3.0459 0
M  V30 1647 H 155.09 -3.99133 -2.94969 0
M  V30 1648 H 150.346 -5.40194 -2.86358 0
M  V30 1649 H 154.52 -6.38561 -2.77872 0
M  V30 1650 H 152.147 -7.09457 -2.73084 0
M  V30 1651 N 153.722 1.14298 -1.08507 0
M  V30 1652 C 154.652 2.21542 -0.737646 0
M  V30 1653 C 155.633 1.67773 0.280377 0
M  V30 1654 O 156.818 1.93616 0.150521 0
M  V30 1655 C 153.948 3.46988 -0.147259 0
M  V30 1656 C 152.902 4.13789 -1.09374 0
M  V30 1657 C 152.228 5.33449 -0.365524 0
M  V30 1658 C 153.528 4.62208 -2.4323 0
M  V30 1659 H 155.222 2.5086 -1.6343 0
M  V30 1660 H 152.768 1.20576 -0.787243 0
M  V30 1661 H 154.721 4.21262 0.107808 0
M  V30 1662 H 153.445 3.17037 0.784538 0
M  V30 1663 H 152.104 3.4147 -1.33393 0
M  V30 1664 H 151.752 4.99759 0.57011 0
M  V30 1665 H 151.452 5.79088 -0.996512 0
M  V30 1666 H 152.976 6.10485 -0.118534 0
M  V30 1667 H 154.39 5.27952 -2.23472 0
M  V30 1668 H 152.787 5.18553 -3.02031 0
M  V30 1669 H 153.857 3.77224 -3.04681 0
M  V30 1670 N 155.201 0.870884 1.31352 0
M  V30 1671 C 156.164 0.332243 2.26779 0
M  V30 1672 C 157.164 -0.517302 1.52252 0
M  V30 1673 O 158.354 -0.326477 1.71113 0
M  V30 1674 C 155.486 -0.528066 3.36785 0
M  V30 1675 H 156.679 1.17469 2.75937 0
M  V30 1676 H 154.232 0.64655 1.423 0
M  V30 1677 H 154.967 -1.39167 2.92922 0
M  V30 1678 H 154.752 0.0802582 3.92018 0
M  V30 1679 H 156.242 -0.897179 4.07849 0
M  V30 1680 N 156.679 -1.44442 0.630414 0
M  V30 1681 C 157.956 -1.9549 0.0655657 0
M  V30 1682 C 158.336 -1.5724 -1.40851 0
M  V30 1683 O 157.684 -0.846116 -2.12257 0
M  V30 1684 C 157.894 -3.47812 0.287691 0
M  V30 1685 C 159.242 -4.24216 0.180513 0
M  V30 1686 O 160.266 -3.55526 0.219019 0
M  V30 1687 O 159.125 -5.46434 0.0848493 0
M  V30 1688 H 156.219 -0.826688 -0.0227177 0
M  V30 1689 H 158.765 -1.54496 0.702068 0
M  V30 1690 H 157.537 -3.687 1.31056 0
M  V30 1691 H 157.16 -3.95751 -0.382984 0
M  V30 1692 N 158.157 -0.370918 -1.53173 0
M  V30 1693 C 159.387 0.217389 -2.05453 0
M  V30 1694 C 159.795 1.42568 -1.24382 0
M  V30 1695 O 159.138 1.81571 -0.278839 0
M  V30 1696 C 159.2 0.669827 -3.53205 0
M  V30 1697 C 158.864 -0.4225 -4.55043 0
M  V30 1698 C 159.861 -1.27407 -5.04047 0
M  V30 1699 C 157.546 -0.58427 -4.9889 0
M  V30 1700 C 159.54 -2.27271 -5.95505 0
M  V30 1701 C 157.227 -1.58627 -5.90153 0
M  V30 1702 C 158.225 -2.42892 -6.38351 0
M  V30 1703 O 157.913 -3.41382 -7.27814 0
M  V30 1704 H 157.645 0.0408171 -0.674767 0
M  V30 1705 H 160.199 -0.5292 -1.98466 0
M  V30 1706 H 158.429 1.4681 -3.57748 0
M  V30 1707 H 160.118 1.18173 -3.88317 0
M  V30 1708 H 160.884 -1.16031 -4.70916 0
M  V30 1709 H 156.763 0.061851 -4.60959 0
M  V30 1710 H 160.307 -2.93079 -6.33049 0
M  V30 1711 H 156.204 -1.70048 -6.22699 0
M  V30 1712 H 156.972 -3.37173 -7.45826 0
M  V30 1713 N 159.635 1.57281 -0.100228 0
M  V30 1714 C 160.881 1.94826 0.563101 0
M  V30 1715 C 161.214 0.982475 1.67514 0
M  V30 1716 O 160.489 0.0164069 1.94493 0
M  V30 1717 C 160.772 3.42453 1.11346 0
M  V30 1718 C 160.625 4.498 0.00612081 0
M  V30 1719 C 161.944 3.91506 2.01024 0
M  V30 1720 H 159.063 0.708428 0.203221 0
M  V30 1721 H 161.705 1.8922 -0.171979 0
M  V30 1722 H 159.855 3.47361 1.7399 0
M  V30 1723 H 161.527 4.57 -0.628357 0
M  V30 1724 H 159.77 4.28756 -0.659581 0
M  V30 1725 H 160.441 5.50306 0.432109 0
M  V30 1726 H 162.917 3.88784 1.48278 0
M  V30 1727 H 161.793 4.95358 2.36457 0
M  V30 1728 H 162.054 3.31099 2.92961 0
M  V30 1729 N 161.113 -0.173488 1.56642 0
M  V30 1730 C 162.063 -1.21941 1.92651 0
M  V30 1731 C 163.047 -1.39912 0.794577 0
M  V30 1732 O 164.239 -1.41919 1.05773 0
M  V30 1733 C 161.368 -2.55935 2.28806 0
M  V30 1734 C 160.454 -2.41667 3.48508 0
M  V30 1735 N 160.845 -1.9711 4.65813 0
M  V30 1736 C 159.143 -2.72499 3.53072 0
M  V30 1737 C 159.844 -1.95253 5.47952 0
M  V30 1738 N 158.82 -2.37575 4.88937 0
M  V30 1739 H 162.622 -0.866581 2.80834 0
M  V30 1740 H 160.136 -0.381776 1.57849 0
M  V30 1741 H 162.133 -3.31511 2.52797 0
M  V30 1742 H 160.793 -2.92022 1.41961 0
M  V30 1743 H 161.804 -1.67481 4.90072 0
M  V30 1744 H 158.481 -3.12639 2.767 0
M  V30 1745 H 159.871 -1.6252 6.51948 0
M  V30 1746 N 162.591 -1.51276 -0.441967 0
M  V30 1747 C 163.816 -1.67799 -1.21895 0
M  V30 1748 C 164.241 -0.372864 -1.84367 0
M  V30 1749 O 163.599 0.666501 -1.68604 0
M  V30 1750 C 163.647 -2.79199 -2.28211 0
M  V30 1751 O 162.751 -2.42479 -3.33583 0
M  V30 1752 H 162.092 -0.559649 -0.357336 0
M  V30 1753 H 164.622 -1.97815 -0.522522 0
M  V30 1754 H 164.632 -3.03146 -2.73069 0
M  V30 1755 H 163.307 -3.73906 -1.82118 0
M  V30 1756 H 161.884 -2.29087 -2.94234 0
M  V30 1757 N 164.069 0.697108 -1.41344 0
M  V30 1758 C 164.999 1.82353 -1.45841 0
M  V30 1759 C 165.98 1.67115 -0.317247 0
M  V30 1760 O 167.165 1.86871 -0.528474 0
M  V30 1761 C 164.295 3.20476 -1.33838 0
M  V30 1762 C 163.249 3.50415 -2.4575 0
M  V30 1763 C 162.575 4.87878 -2.18813 0
M  V30 1764 C 163.875 3.49546 -3.88091 0
M  V30 1765 H 165.569 1.78846 -2.40113 0
M  V30 1766 H 163.115 0.859028 -1.15571 0
M  V30 1767 H 165.068 3.98988 -1.35596 0
M  V30 1768 H 163.792 3.24604 -0.360498 0
M  V30 1769 H 162.451 2.74253 -2.43271 0
M  V30 1770 H 162.099 4.8863 -1.19371 0
M  V30 1771 H 161.799 5.08875 -2.93803 0
M  V30 1772 H 163.323 5.68702 -2.22284 0
M  V30 1773 H 164.737 4.18066 -3.92293 0
M  V30 1774 H 163.134 3.82075 -4.62751 0
M  V30 1775 H 164.204 2.48552 -4.16353 0
M  V30 1776 N 165.547 1.27147 0.931209 0
M  V30 1777 C 166.795 1.13055 1.6752 0
M  V30 1778 C 167.116 -0.324791 1.92276 0
M  V30 1779 O 166.386 -1.22775 1.52654 0
M  V30 1780 H 164.966 0.415391 0.620854 0
M  V30 1781 H 167.628 1.59623 1.11833 0
M  V30 1782 H 166.724 1.65694 2.64485 0
M  V30 1783 N 167.025 -1.13721 1.09112 0
M  V30 1784 C 167.955 -2.21148 0.749385 0
M  V30 1785 C 168.936 -1.6792 -0.271475 0
M  V30 1786 O 170.121 -1.93693 -0.140251 0
M  V30 1787 C 167.251 -3.46905 0.165659 0
M  V30 1788 C 166.205 -4.13203 1.11567 0
M  V30 1789 C 165.531 -5.33248 0.393809 0
M  V30 1790 C 166.831 -4.60912 2.45678 0
M  V30 1791 H 168.525 -2.4999 1.64758 0
M  V30 1792 H 166.071 -1.20156 0.793626 0
M  V30 1793 H 168.024 -4.21313 -0.085466 0
M  V30 1794 H 166.748 -3.17449 -0.767714 0
M  V30 1795 H 165.407 -3.40758 1.35202 0
M  V30 1796 H 165.055 -5.00054 -0.543599 0
M  V30 1797 H 164.755 -5.78552 1.02721 0
M  V30 1798 H 166.279 -6.10413 0.150908 0
M  V30 1799 H 167.693 -5.26759 2.26269 0
M  V30 1800 H 166.09 -5.16944 3.04776 0
M  V30 1801 H 167.16 -3.75603 3.06677 0
M  V30 1802 N 168.503 -0.877838 -1.30888 0
M  V30 1803 C 169.45 -0.337538 -2.28318 0
M  V30 1804 C 170.42 0.568346 -1.56074 0
M  V30 1805 O 171.605 0.498298 -1.84178 0
M  V30 1806 C 168.745 0.448142 -3.42178 0
M  V30 1807 C 167.858 -0.48615 -4.29256 0
M  V30 1808 C 166.993 0.314427 -5.30269 0
M  V30 1809 C 166.032 -0.615791 -6.08995 0
M  V30 1810 N 165.169 0.14902 -7.01942 0
M  V30 1811 H 170.009 -1.17356 -2.73919 0
M  V30 1812 H 167.546 -0.590094 -1.34745 0
M  V30 1813 H 169.504 0.919517 -4.06941 0
M  V30 1814 H 168.134 1.24879 -2.97666 0
M  V30 1815 H 167.186 -1.076 -3.64865 0
M  V30 1816 H 168.498 -1.19909 -4.84173 0
M  V30 1817 H 167.652 0.847969 -6.00745 0
M  V30 1818 H 166.391 1.06062 -4.76027 0
M  V30 1819 H 165.396 -1.16102 -5.37401 0
M  V30 1820 H 166.621 -1.36097 -6.65323 0
M  V30 1821 H 164.567 0.877884 -6.50099 0
M  V30 1822 H 164.484 -0.504433 -7.54315 0
M  V30 1823 H 165.752 0.663537 -7.76671 0
M  V30 1824 N 169.982 1.44106 -0.638065 0
M  V30 1825 C 170.912 2.33448 0.0494287 0
M  V30 1826 C 171.893 1.48606 0.827672 0
M  V30 1827 O 173.078 1.77308 0.792173 0
M  V30 1828 C 170.208 3.31771 1.02691 0
M  V30 1829 C 169.162 4.26485 0.359823 0
M  V30 1830 C 168.488 5.14729 1.44769 0
M  V30 1831 C 169.788 5.17056 -0.738296 0
M  V30 1832 H 171.482 2.91183 -0.696636 0
M  V30 1833 H 169.028 1.40014 -0.336456 0
M  V30 1834 H 170.981 3.93161 1.51666 0
M  V30 1835 H 169.705 2.7226 1.80395 0
M  V30 1836 H 168.364 3.66437 -0.10934 0
M  V30 1837 H 168.012 4.51566 2.21578 0
M  V30 1838 H 167.712 5.78913 1.00668 0
M  V30 1839 H 169.236 5.78991 1.93911 0
M  V30 1840 H 170.65 5.72342 -0.331354 0
M  V30 1841 H 169.047 5.89879 -1.10286 0
M  V30 1842 H 170.117 4.57652 -1.60258 0
M  V30 1843 N 171.46 0.379036 1.52974 0
M  V30 1844 C 172.708 -0.206014 2.01047 0
M  V30 1845 C 173.029 -1.48175 1.26765 0
M  V30 1846 O 172.299 -1.92085 0.384743 0
M  V30 1847 H 170.879 -0.0791184 0.742798 0
M  V30 1848 H 173.541 0.508366 1.88153 0
M  V30 1849 H 172.637 -0.423501 3.09213 0
M  V30 1850 N 172.938 -1.57226 0.108567 0
M  V30 1851 C 174.187 -1.94008 -0.551703 0
M  V30 1852 C 174.5 -0.993442 -1.68494 0
M  V30 1853 O 175.706 -1.25551 -2.40726 0
M  V30 1854 C 174.162 -3.44763 -1.03279 0
M  V30 1855 C 173.77 -4.47943 0.0714193 0
M  V30 1856 C 175.514 -3.90483 -1.66503 0
M  V30 1857 C 173.421 -5.89865 -0.425779 0
M  V30 1858 H 172.351 -0.724206 -0.209863 0
M  V30 1859 H 175.002 -1.82547 0.186741 0
M  V30 1860 H 173.384 -3.51422 -1.82533 0
M  V30 1861 H 174.558 -4.52942 0.847365 0
M  V30 1862 H 172.873 -4.11913 0.609669 0
M  V30 1863 H 175.47 -4.93925 -2.04798 0
M  V30 1864 H 175.813 -3.29877 -2.53942 0
M  V30 1865 H 176.346 -3.86581 -0.938074 0
M  V30 1866 H 173.085 -6.54202 0.412316 0
M  V30 1867 H 172.605 -5.88309 -1.16843 0
M  V30 1868 H 174.284 -6.40844 -0.890397 0
M  V30 1869 N 174.416 0.165178 -1.56732 0
M  V30 1870 C 175.646 0.894919 -1.86212 0
M  V30 1871 C 176.054 1.76066 -0.692627 0
M  V30 1872 O 175.397 1.80387 0.347303 0
M  V30 1873 C 175.459 1.8174 -3.10179 0
M  V30 1874 C 175.123 1.13064 -4.42793 0
M  V30 1875 C 176.12 0.493169 -5.17556 0
M  V30 1876 C 173.805 1.12556 -4.89527 0
M  V30 1877 C 175.799 -0.140209 -6.37246 0
M  V30 1878 C 173.486 0.488366 -6.09145 0
M  V30 1879 C 174.484 -0.143411 -6.82849 0
M  V30 1880 O 174.172 -0.77055 -8.00199 0
M  V30 1881 H 173.904 0.265114 -0.621844 0
M  V30 1882 H 176.458 0.168242 -2.0471 0
M  V30 1883 H 174.688 2.58455 -2.87642 0
M  V30 1884 H 176.377 2.4175 -3.26055 0
M  V30 1885 H 177.143 0.489023 -4.82528 0
M  V30 1886 H 173.022 1.60672 -4.32094 0
M  V30 1887 H 176.566 -0.633932 -6.94714 0
M  V30 1888 H 172.463 0.490116 -6.43637 0
M  V30 1889 H 173.231 -0.670408 -8.1575 0
M  V30 1890 N 175.894 1.51508 0.433938 0
M  V30 1891 C 176.857 1.72473 1.50949 0
M  V30 1892 C 177.857 0.594725 1.49398 0
M  V30 1893 O 179.047 0.862315 1.5136 0
M  V30 1894 C 176.179 1.78431 2.90474 0
M  V30 1895 H 177.372 2.68467 1.33662 0
M  V30 1896 H 174.925 1.41549 0.662836 0
M  V30 1897 H 175.66 0.842645 3.13161 0
M  V30 1898 H 175.445 2.60558 2.93005 0
M  V30 1899 H 176.935 1.96479 3.68491 0
M  V30 1900 N 177.372 -0.689602 1.41712 0
M  V30 1901 C 178.649 -1.44457 1.31877 0
M  V30 1902 C 179.029 -2.11039 -0.0508537 0
M  V30 1903 O 178.377 -2.02138 -1.06547 0
M  V30 1904 C 178.587 -2.45913 2.47645 0
M  V30 1905 C 179.935 -3.10991 2.89084 0
M  V30 1906 O 180.959 -2.56238 2.47428 0
M  V30 1907 O 179.818 -4.10174 3.61137 0
M  V30 1908 H 176.912 -0.64362 0.519309 0
M  V30 1909 H 179.458 -0.719576 1.53689 0
M  V30 1910 H 178.23 -1.95409 3.39015 0
M  V30 1911 H 177.853 -3.25913 2.27742 0
M  V30 1912 N 178.85 -1.27639 -0.924453 0
M  V30 1913 C 179.783 -1.04966 -2.02626 0
M  V30 1914 C 180.761 0.0309505 -1.62571 0
M  V30 1915 O 181.945 -0.114846 -1.8815 0
M  V30 1916 C 179.072 -0.59292 -3.3347 0
M  V30 1917 C 178.118 -1.66858 -3.92506 0
M  V30 1918 S 178.951 -3.2619 -4.24689 0
M  V30 1919 C 180.107 -2.82325 -5.58609 0
M  V30 1920 H 180.34 -1.98252 -2.21547 0
M  V30 1921 H 177.873 -1.11506 -1.06798 0
M  V30 1922 H 179.831 -0.336086 -4.09122 0
M  V30 1923 H 178.492 0.319939 -3.12466 0
M  V30 1924 H 177.685 -1.30038 -4.86935 0
M  V30 1925 H 177.287 -1.87766 -3.2345 0
M  V30 1926 H 179.579 -2.2783 -6.38044 0
M  V30 1927 H 180.522 -3.75511 -6.00331 0
M  V30 1928 H 180.93 -2.21367 -5.19285 0
M  V30 1929 N 180.328 1.1314 -1.09713 0
M  V30 1930 C 181.576 1.84119 -0.833338 0
M  V30 1931 C 181.897 1.84097 0.642904 0
M  V30 1932 O 181.167 1.29881 1.46655 0
M  V30 1933 H 179.747 0.681766 -0.305293 0
M  V30 1934 H 182.409 1.37038 -1.38588 0
M  V30 1935 H 181.505 2.88543 -1.18951 0
M  V30 1936 N 181.806 0.884767 1.30421 0
M  V30 1937 C 182.754 0.340869 2.30089 0
M  V30 1938 C 183.748 -0.55201 1.60154 0
M  V30 1939 O 184.954 -0.436467 1.74628 0
M  V30 1940 H 181.329 0.0915739 0.746404 0
M  V30 1941 H 183.3 1.19513 2.73421 0
M  V30 1942 C 182.049 -0.429779 3.45034 0
M  V30 1943 H 181.372 0.248024 3.9903 0
M  V30 1944 H 182.812 -0.775445 4.16849 0
M  V30 1945 C 181.271 -1.62677 2.95022 0
M  V30 1946 O 181.801 -2.72614 2.95033 0
M  V30 1947 N 180.007 -1.46387 2.51036 0
M  V30 1948 H 179.554 -0.569506 2.51226 0
M  V30 1949 H 179.512 -2.26612 2.17932 0
M  V30 1950 N 183.284 -1.43765 0.645699 0
M  V30 1951 C 184.531 -2.01898 0.15604 0
M  V30 1952 C 184.859 -1.50887 -1.22733 0
M  V30 1953 O 184.114 -0.689271 -1.8316 0
M  V30 1954 C 184.413 -3.57238 0.107679 0
M  V30 1955 C 184.079 -4.27564 1.43178 0
M  V30 1956 C 182.741 -4.46492 1.7944 0
M  V30 1957 C 185.093 -4.67454 2.30513 0
M  V30 1958 C 182.421 -5.02573 3.02716 0
M  V30 1959 C 184.773 -5.24901 3.53074 0
M  V30 1960 C 183.437 -5.42046 3.89541 0
M  V30 1961 H 182.707 -0.738797 0.057099 0
M  V30 1962 H 185.354 -1.72341 0.834912 0
M  V30 1963 H 183.659 -3.86293 -0.654618 0
M  V30 1964 H 185.356 -3.99965 -0.287938 0
M  V30 1965 H 181.946 -4.13171 1.13963 0
M  V30 1966 H 186.13 -4.5253 2.0379 0
M  V30 1967 H 181.386 -5.14033 3.31028 0
M  V30 1968 H 185.56 -5.54758 4.20971 0
M  V30 1969 H 183.187 -5.85268 4.85145 0
M  V30 1970 N 184.763 -0.387143 -1.52771 0
M  V30 1971 C 185.991 0.195869 -2.05971 0
M  V30 1972 C 186.406 1.40691 -1.25903 0
M  V30 1973 O 185.763 1.79931 -0.305134 0
M  V30 1974 C 185.814 0.56812 -3.57008 0
M  V30 1975 O 185.535 -0.594803 -4.34043 0
M  V30 1976 C 187.036 1.20723 -4.26545 0
M  V30 1977 H 184.256 0.0300578 -0.670326 0
M  V30 1978 H 186.8 -0.551749 -1.96916 0
M  V30 1979 H 184.955 1.26564 -3.66143 0
M  V30 1980 H 185.369 -0.289322 -5.23701 0
M  V30 1981 H 186.843 1.41807 -5.33474 0
M  V30 1982 H 187.32 2.17395 -3.81623 0
M  V30 1983 H 187.926 0.550535 -4.21722 0
M  V30 1984 N 186.241 1.57166 -0.116904 0
M  V30 1985 C 187.481 1.97008 0.544715 0
M  V30 1986 C 187.845 0.998713 1.63981 0
M  V30 1987 O 189.046 1.28644 2.36018 0
M  V30 1988 C 187.317 3.41145 1.06559 0
M  V30 1989 S 188.876 4.02998 1.73603 0
M  V30 1990 H 185.694 0.688587 0.177112 0
M  V30 1991 H 188.296 1.94459 -0.201487 0
M  V30 1992 H 187 4.09592 0.257374 0
M  V30 1993 H 186.531 3.4734 1.84712 0
M  V30 1994 H 188.546 3.93585 3.02168 0
M  V30 1995 N 187.719 -0.156864 1.56817 0
M  V30 1996 C 188.652 -1.22316 1.9265 0
M  V30 1997 C 189.63 -1.42059 0.791076 0
M  V30 1998 O 190.814 -1.56831 1.04576 0
M  V30 1999 C 187.941 -2.58375 2.18998 0
M  V30 2000 C 186.987 -2.55284 3.41661 0
M  V30 2001 S 187.82 -2.02946 4.95553 0
M  V30 2002 C 188.976 -3.40753 5.25013 0
M  V30 2003 H 189.209 -0.917403 2.82791 0
M  V30 2004 H 186.742 -0.362059 1.50095 0
M  V30 2005 H 188.7 -3.36677 2.34859 0
M  V30 2006 H 187.361 -2.86145 1.29538 0
M  V30 2007 H 186.554 -3.55418 3.57343 0
M  V30 2008 H 186.156 -1.85086 3.24991 0
M  V30 2009 H 188.448 -4.36819 5.17876 0
M  V30 2010 H 189.391 -3.29933 6.26538 0
M  V30 2011 H 189.799 -3.37433 4.52548 0
M  V30 2012 N 189.197 -1.51736 -0.425897 0
M  V30 2013 C 190.445 -1.64644 -1.17204 0
M  V30 2014 C 190.766 -0.370486 -1.91448 0
M  V30 2015 O 190.036 0.614088 -1.86026 0
M  V30 2016 H 188.616 -0.606819 -0.435638 0
M  V30 2017 H 191.278 -1.88713 -0.487177 0
M  V30 2018 H 190.374 -2.47958 -1.89534 0
M  V30 2019 N 190.675 0.682077 -1.42076 0
M  V30 2020 C 191.905 1.46844 -1.45329 0
M  V30 2021 C 192.313 1.89102 -0.0609328 0
M  V30 2022 O 191.656 1.58238 0.933082 0
M  V30 2023 C 191.718 2.75375 -2.31104 0
M  V30 2024 C 191.382 2.55238 -3.79081 0
M  V30 2025 C 192.379 2.20309 -4.70914 0
M  V30 2026 C 190.064 2.70459 -4.2327 0
M  V30 2027 C 192.058 2.00859 -6.04925 0
M  V30 2028 C 189.745 2.50624 -5.57343 0
M  V30 2029 C 190.743 2.15876 -6.47986 0
M  V30 2030 O 190.431 1.96227 -7.79583 0
M  V30 2031 H 190.163 0.4586 -0.496651 0
M  V30 2032 H 192.717 0.846131 -1.87162 0
M  V30 2033 H 190.947 3.40061 -1.84107 0
M  V30 2034 H 192.636 3.37231 -2.25898 0
M  V30 2035 H 193.402 2.08153 -4.38061 0
M  V30 2036 H 189.281 2.96485 -3.53012 0
M  V30 2037 H 192.825 1.7366 -6.75639 0
M  V30 2038 H 188.722 2.62375 -5.89771 0
M  V30 2039 H 189.49 2.10883 -7.90867 0
M  V30 2040 N 192.153 1.28127 0.917671 0
M  V30 2041 C 193.564 1.13622 1.48145 0
M  V30 2042 C 193.915 -0.275207 1.9426 0
M  V30 2043 O 193.04 -1.1691 1.82102 0
M  V30 2044 C 193.635 2.05648 2.69248 0
M  V30 2045 C 192.194 1.95219 3.21818 0
M  V30 2046 C 191.341 1.97618 1.94532 0
M  V30 2047 H 194.292 1.40874 0.730772 0
M  V30 2048 H 194.313 1.61818 3.44377 0
M  V30 2049 H 193.825 3.08365 2.35653 0
M  V30 2050 H 191.926 0.955244 3.60147 0
M  V30 2051 H 192.039 2.81976 3.87333 0
M  V30 2052 H 190.403 1.41973 2.11461 0
M  V30 2053 H 191.186 3.02007 1.63238 0
M  V30 2054 N 193.631 -1.12557 1.10312 0
M  V30 2055 C 194.879 -1.83675 0.843091 0
M  V30 2056 C 195.2 -1.84435 -0.633131 0
M  V30 2057 O 194.47 -1.30657 -1.45964 0
M  V30 2058 H 193.05 -0.680138 0.308904 0
M  V30 2059 H 195.712 -1.36301 1.39313 0
M  V30 2060 H 194.808 -2.87908 1.2048 0
M  V30 2061 N 195.109 -0.891671 -1.2995 0
M  V30 2062 C 196.337 -0.52866 -2.00032 0
M  V30 2063 C 196.752 0.884574 -1.66795 0
M  V30 2064 O 196.109 1.5827 -0.908669 0
M  V30 2065 C 196.16 -0.701814 -3.54622 0
M  V30 2066 O 195.881 -2.05942 -3.86678 0
M  V30 2067 C 197.382 -0.342683 -4.41973 0
M  V30 2068 H 194.602 -0.203659 -0.639347 0
M  V30 2069 H 197.146 -1.19881 -1.65677 0
M  V30 2070 H 195.301 -0.0789468 -3.8732 0
M  V30 2071 H 195.715 -2.08291 -4.81368 0
M  V30 2072 H 197.189 -0.514709 -5.49595 0
M  V30 2073 H 197.666 0.71975 -4.33262 0
M  V30 2074 H 198.272 -0.942154 -4.14733 0
M  V30 2075 N 196.587 1.43421 -0.653314 0
M  V30 2076 C 197.815 2.06163 -0.174491 0
M  V30 2077 C 198.23 1.48969 1.1599 0
M  V30 2078 O 197.587 0.621042 1.71608 0
M  V30 2079 C 197.638 3.61417 -0.0774865 0
M  V30 2080 O 197.359 4.16485 -1.35912 0
M  V30 2081 C 198.86 4.41235 0.427402 0
M  V30 2082 H 196.08 0.664946 -0.0899353 0
M  V30 2083 H 198.624 1.83924 -0.893988 0
M  V30 2084 H 196.779 3.82841 0.59257 0
M  V30 2085 H 197.193 5.10153 -1.21839 0
M  V30 2086 H 198.667 5.5021 0.44423 0
M  V30 2087 H 199.144 4.14268 1.45873 0
M  V30 2088 H 199.75 4.2478 -0.210167 0
M  V30 2089 N 198.065 0.39524 1.52563 0
M  V30 2090 C 198.995 -0.428384 2.29537 0
M  V30 2091 C 199.976 -1.05831 1.33169 0
M  V30 2092 O 201.161 -1.06995 1.62067 0
M  V30 2093 C 198.291 -1.55274 3.10656 0
M  V30 2094 C 197.245 -1.04855 4.14957 0
M  V30 2095 C 196.571 -2.26543 4.84337 0
M  V30 2096 C 197.871 -0.112324 5.22179 0
M  V30 2097 H 199.565 0.213867 2.98635 0
M  V30 2098 H 197.111 0.104298 1.43622 0
M  V30 2099 H 199.064 -2.1358 3.63265 0
M  V30 2100 H 197.788 -2.22266 2.39302 0
M  V30 2101 H 196.447 -0.487985 3.63338 0
M  V30 2102 H 196.095 -2.92059 4.09525 0
M  V30 2103 H 195.795 -1.93466 5.54837 0
M  V30 2104 H 197.319 -2.85481 5.39753 0
M  V30 2105 H 198.733 -0.603752 5.70112 0
M  V30 2106 H 197.13 0.128968 5.99961 0
M  V30 2107 H 198.2 0.837052 4.77621 0
M  V30 2108 N 199.544 -1.57102 0.125237 0
M  V30 2109 C 200.821 -1.86953 -0.575142 0
M  V30 2110 C 201.201 -1.02749 -1.84407 0
M  V30 2111 O 200.549 -0.108144 -2.28244 0
M  V30 2112 C 200.759 -3.38198 -0.861583 0
M  V30 2113 C 202.107 -4.06937 -1.21192 0
M  V30 2114 O 203.131 -3.43252 -0.951645 0
M  V30 2115 O 201.99 -5.19364 -1.70068 0
M  V30 2116 H 199.084 -0.774147 -0.290906 0
M  V30 2117 H 201.63 -1.68942 0.160211 0
M  V30 2118 H 200.402 -3.91282 0.0373647 0
M  V30 2119 H 200.025 -3.61661 -1.65188 0
M  V30 2120 N 201.022 0.148545 -1.56898 0
M  V30 2121 C 201.969 1.18345 -1.98149 0
M  V30 2122 C 202.939 1.42772 -0.848848 0
M  V30 2123 O 204.124 1.55132 -1.11079 0
M  V30 2124 C 201.264 2.51231 -2.36594 0
M  V30 2125 C 200.377 2.33991 -3.63142 0
M  V30 2126 C 199.512 3.59902 -3.90697 0
M  V30 2127 C 198.551 3.37692 -5.1052 0
M  V30 2128 N 197.688 4.5573 -5.34092 0
M  V30 2129 H 202.528 0.82467 -2.86362 0
M  V30 2130 H 200.065 0.395756 -1.41676 0
M  V30 2131 H 202.023 3.28713 -2.56912 0
M  V30 2132 H 200.653 2.85059 -1.51463 0
M  V30 2133 H 199.705 1.47572 -3.50609 0
M  V30 2134 H 201.017 2.13539 -4.5078 0
M  V30 2135 H 200.171 4.45813 -4.11505 0
M  V30 2136 H 198.91 3.83357 -3.01477 0
M  V30 2137 H 197.915 2.5017 -4.89587 0
M  V30 2138 H 199.14 3.15637 -6.0129 0
M  V30 2139 H 197.086 4.79361 -4.47827 0
M  V30 2140 H 197.003 4.38274 -6.15996 0
M  V30 2141 H 198.271 5.42858 -5.59397 0
M  V30 2142 N 202.5 1.5196 0.417844 0
M  V30 2143 C 203.746 1.65836 1.16732 0
M  V30 2144 C 204.079 0.382881 1.90388 0
M  V30 2145 O 203.354 -0.618368 1.84408 0
M  V30 2146 C 203.637 2.87466 2.16876 0
M  V30 2147 C 203.49 4.25041 1.47174 0
M  V30 2148 C 204.809 3.04613 3.17646 0
M  V30 2149 H 201.928 0.603515 0.423011 0
M  V30 2150 H 204.57 1.84494 0.454105 0
M  V30 2151 H 202.72 2.71689 2.777 0
M  V30 2152 H 204.392 4.52527 0.895376 0
M  V30 2153 H 202.635 4.26843 0.773806 0
M  V30 2154 H 203.306 5.06176 2.20204 0
M  V30 2155 H 205.782 3.1923 2.66892 0
M  V30 2156 H 204.658 3.91247 3.8499 0
M  V30 2157 H 204.919 2.17541 3.84874 0
M  V30 2158 N 203.978 -0.674533 1.42435 0
M  V30 2159 C 205.224 -1.43671 1.43131 0
M  V30 2160 C 205.557 -1.94142 0.0476021 0
M  V30 2161 O 204.832 -1.70924 -0.928188 0
M  V30 2162 C 205.115 -2.63355 2.45594 0
M  V30 2163 C 204.968 -2.18514 3.93156 0
M  V30 2164 C 206.287 -3.65571 2.45043 0
M  V30 2165 H 203.406 -0.521077 0.521198 0
M  V30 2166 H 206.048 -0.766551 1.7385 0
M  V30 2167 H 204.198 -3.2053 2.19528 0
M  V30 2168 H 205.87 -1.66504 4.30202 0
M  V30 2169 H 204.113 -1.50086 4.07009 0
M  V30 2170 H 204.784 -3.04484 4.60428 0
M  V30 2171 H 207.26 -3.18113 2.68223 0
M  V30 2172 H 206.136 -4.46893 3.18713 0
M  V30 2173 H 206.397 -4.16716 1.47649 0
M  V30 2174 N 205.456 -1.28612 -0.910864 0
M  V30 2175 C 206.388 -1.08589 -2.01844 0
M  V30 2176 C 207.401 -0.0367419 -1.62759 0
M  V30 2177 O 208.59 -0.280101 -1.76289 0
M  V30 2178 C 205.69 -0.628626 -3.33019 0
M  V30 2179 C 204.863 -1.75382 -4.00699 0
M  V30 2180 C 203.922 -1.28945 -5.10156 0
M  V30 2181 O 202.948 -1.9922 -5.33198 0
M  V30 2182 N 204.15 -0.154224 -5.80295 0
M  V30 2183 H 206.915 -2.03973 -2.19579 0
M  V30 2184 H 204.476 -1.20403 -1.08234 0
M  V30 2185 H 206.468 -0.301508 -4.03575 0
M  V30 2186 H 205.038 0.232451 -3.11735 0
M  V30 2187 H 204.258 -2.25039 -3.23653 0
M  V30 2188 H 205.546 -2.50854 -4.42662 0
M  V30 2189 H 204.944 0.43194 -5.64049 0
M  V30 2190 H 203.501 0.113599 -6.51701 0
M  V30 2191 N 206.934 1.1197 -1.10907 0
M  V30 2192 C 208.211 1.79959 -0.766432 0
M  V30 2193 C 208.591 1.97466 0.746363 0
M  V30 2194 O 207.939 1.55491 1.67436 0
M  V30 2195 C 208.149 3.14009 -1.52314 0
M  V30 2196 C 209.497 3.89134 -1.69883 0
M  V30 2197 O 210.521 3.2368 -1.48692 0
M  V30 2198 O 209.38 5.06572 -2.05054 0
M  V30 2199 H 206.474 0.779208 -0.277062 0
M  V30 2200 H 209.02 1.18762 -1.21217 0
M  V30 2201 H 207.792 2.96587 -2.55249 0
M  V30 2202 H 207.415 3.82915 -1.07059 0
M  V30 2203 N 208.412 0.89855 1.29475 0
M  V30 2204 C 209.375 0.380272 2.26023 0
M  V30 2205 C 210.375 -0.484891 1.53315 0
M  V30 2206 O 211.565 -0.290108 1.71767 0
M  V30 2207 C 208.697 -0.45651 3.3783 0
M  V30 2208 H 209.89 1.23295 2.73383 0
M  V30 2209 H 207.443 0.676589 1.40897 0
M  V30 2210 H 208.178 -1.32922 2.95808 0
M  V30 2211 H 207.963 0.163393 3.91759 0
M  V30 2212 H 209.453 -0.810466 4.0966 0
M  V30 2213 N 209.89 -1.43072 0.660911 0
M  V30 2214 C 210.822 -2.29108 -0.0647641 0
M  V30 2215 C 211.835 -1.42928 -0.779448 0
M  V30 2216 O 213.024 -1.66788 -0.635921 0
M  V30 2217 C 210.124 -3.20032 -1.11503 0
M  V30 2218 C 209.297 -4.34792 -0.476955 0
M  V30 2219 C 208.356 -5.06534 -1.42513 0
M  V30 2220 O 207.382 -5.61538 -0.930771 0
M  V30 2221 N 208.584 -5.1075 -2.75889 0
M  V30 2222 H 211.349 -2.92029 0.673731 0
M  V30 2223 H 208.91 -1.53846 0.50427 0
M  V30 2224 H 210.902 -3.64892 -1.75032 0
M  V30 2225 H 209.472 -2.58658 -1.75541 0
M  V30 2226 H 208.692 -3.92752 0.337572 0
M  V30 2227 H 209.98 -5.0879 -0.0318525 0
M  V30 2228 H 209.378 -4.67447 -3.18606 0
M  V30 2229 H 207.935 -5.59302 -3.347 0
M  V30 2230 N 211.368 -0.403325 -1.52352 0
M  V30 2231 C 212.596 0.174012 -2.06167 0
M  V30 2232 C 213.011 1.39347 -1.27388 0
M  V30 2233 O 212.368 1.79597 -0.324201 0
M  V30 2234 C 212.419 0.530223 -3.5759 0
M  V30 2235 O 212.14 -0.640806 -4.33388 0
M  V30 2236 C 213.641 1.16192 -4.27802 0
M  V30 2237 H 210.861 0.0229464 -0.670608 0
M  V30 2238 H 213.405 -0.572604 -1.9632 0
M  V30 2239 H 211.56 1.22673 -3.67464 0
M  V30 2240 H 211.974 -0.344851 -5.23365 0
M  V30 2241 H 213.448 1.36141 -5.34948 0
M  V30 2242 H 213.925 2.13335 -3.83907 0
M  V30 2243 H 214.531 0.505775 -4.22282 0
M  V30 2244 N 212.846 1.57033 -0.133567 0
M  V30 2245 C 214.093 1.95686 0.520877 0
M  V30 2246 C 214.421 1.0177 1.6575 0
M  V30 2247 O 213.676 0.0443195 1.9565 0
M  V30 2248 C 213.975 3.40674 1.08057 0
M  V30 2249 C 213.641 4.50855 0.0637899 0
M  V30 2250 C 212.303 4.80716 -0.215757 0
M  V30 2251 C 214.655 5.17398 -0.62835 0
M  V30 2252 C 211.983 5.74433 -1.19348 0
M  V30 2253 C 214.335 6.12167 -1.5948 0
M  V30 2254 C 212.999 6.40414 -1.88218 0
M  V30 2255 H 212.269 0.716067 0.190602 0
M  V30 2256 H 214.916 1.9026 -0.217556 0
M  V30 2257 H 213.221 3.42865 1.89606 0
M  V30 2258 H 214.918 3.67902 1.59529 0
M  V30 2259 H 211.508 4.27605 0.291855 0
M  V30 2260 H 215.692 4.94472 -0.425562 0
M  V30 2261 H 210.948 5.94616 -1.42272 0
M  V30 2262 H 215.122 6.6281 -2.13671 0
M  V30 2263 H 212.749 7.12838 -2.64133 0
M  V30 2264 N 214.325 -0.140222 1.56975 0
M  V30 2265 C 215.288 -1.15689 1.97861 0
M  V30 2266 C 216.288 -1.3549 0.865974 0
M  V30 2267 O 217.478 -1.32367 1.13246 0
M  V30 2268 C 214.61 -2.51582 2.30042 0
M  V30 2269 H 215.803 -0.805971 2.88867 0
M  V30 2270 H 213.356 -0.383801 1.51515 0
M  V30 2271 H 214.091 -2.91632 1.41849 0
M  V30 2272 H 213.876 -2.38569 3.11171 0
M  V30 2273 H 215.366 -3.24792 2.62488 0
M  V30 2274 N 215.803 -1.52179 -0.40978 0
M  V30 2275 C 216.713 -1.78364 -1.52392 0
M  V30 2276 C 217.729 -0.669183 -1.60617 0
M  V30 2277 O 218.905 -0.954518 -1.77344 0
M  V30 2278 C 215.97 -1.92822 -2.88133 0
M  V30 2279 C 215.031 -3.16725 -2.898 0
M  V30 2280 C 214.264 -3.30483 -4.19067 0
M  V30 2281 O 214.487 -2.49522 -5.12928 0
M  V30 2282 O 213.421 -4.2363 -4.27576 0
M  V30 2283 H 217.247 -2.72931 -1.33201 0
M  V30 2284 H 214.832 -1.37016 -0.59557 0
M  V30 2285 H 216.714 -2.04157 -3.68643 0
M  V30 2286 H 215.389 -1.01444 -3.07393 0
M  V30 2287 H 214.296 -3.10848 -2.08146 0
M  V30 2288 H 215.629 -4.07881 -2.75489 0
M  V30 2289 N 217.281 0.66697 -1.42791 0
M  V30 2290 C 218.527 1.42754 -1.44889 0
M  V30 2291 C 218.882 1.92283 -0.0669755 0
M  V30 2292 O 218.175 1.68494 0.912154 0
M  V30 2293 C 218.369 2.6349 -2.4147 0
M  V30 2294 C 218.198 2.25776 -3.88915 0
M  V30 2295 C 216.968 2.1476 -4.57391 0
M  V30 2296 C 219.166 1.86927 -4.79127 0
M  V30 2297 N 217.148 1.70232 -5.89826 0
M  V30 2298 C 218.519 1.53378 -6.00729 0
M  V30 2299 C 220.574 1.73989 -4.66511 0
M  V30 2300 C 219.277 1.08187 -7.11117 0
M  V30 2301 C 221.303 1.30203 -5.76889 0
M  V30 2302 C 220.665 0.975818 -6.97608 0
M  V30 2303 H 216.764 0.518559 -0.585338 0
M  V30 2304 H 219.348 0.768906 -1.78874 0
M  V30 2305 H 217.519 3.27033 -2.09533 0
M  V30 2306 H 219.251 3.30123 -2.34096 0
M  V30 2307 H 216.006 2.3408 -4.11708 0
M  V30 2308 H 216.43 1.50369 -6.6009 0
M  V30 2309 H 221.072 1.97853 -3.7365 0
M  V30 2310 H 218.79 0.830701 -8.03819 0
M  V30 2311 H 222.376 1.20701 -5.69142 0
M  V30 2312 H 221.256 0.642157 -7.81566 0
M  V30 2313 N 218.759 1.29093 0.90403 0
M  V30 2314 C 219.706 1.13853 2.00764 0
M  V30 2315 C 220.676 0.0330084 1.66067 0
M  V30 2316 O 221.861 0.199733 1.89752 0
M  V30 2317 C 219.001 0.816537 3.35301 0
M  V30 2318 C 218.114 2.00206 3.82807 0
M  V30 2319 C 217.249 1.61983 5.059 0
M  V30 2320 C 216.288 2.77143 5.45764 0
M  V30 2321 N 215.425 2.39346 6.60044 0
M  V30 2322 H 220.265 2.08276 2.13132 0
M  V30 2323 H 217.802 1.03648 1.04381 0
M  V30 2324 H 219.76 0.610557 4.12708 0
M  V30 2325 H 218.39 -0.090779 3.22672 0
M  V30 2326 H 217.442 2.31988 3.01473 0
M  V30 2327 H 218.754 2.86512 4.08304 0
M  V30 2328 H 217.908 1.37649 5.90879 0
M  V30 2329 H 216.647 0.728202 4.82233 0
M  V30 2330 H 215.652 3.02165 4.59322 0
M  V30 2331 H 216.877 3.66964 5.71414 0
M  V30 2332 H 214.823 1.52665 6.37989 0
M  V30 2333 H 214.74 3.19185 6.85315 0
M  V30 2334 H 216.008 2.1832 7.48303 0
M  V30 2335 N 220.237 -1.11381 1.11499 0
M  V30 2336 C 221.483 -1.83403 0.865512 0
M  V30 2337 C 221.816 -1.84459 -0.607329 0
M  V30 2338 O 221.091 -1.29811 -1.44842 0
M  V30 2339 C 221.374 -3.30552 1.42855 0
M  V30 2340 C 221.227 -3.37886 2.96906 0
M  V30 2341 C 222.546 -4.26643 1.08 0
M  V30 2342 H 219.665 -0.665879 0.31587 0
M  V30 2343 H 222.307 -1.30601 1.37998 0
M  V30 2344 H 220.457 -3.75648 0.990985 0
M  V30 2345 H 222.129 -3.01343 3.49271 0
M  V30 2346 H 220.372 -2.78088 3.32941 0
M  V30 2347 H 221.043 -4.41458 3.31389 0
M  V30 2348 H 223.519 -3.89729 1.45775 0
M  V30 2349 H 222.395 -5.27986 1.50072 0
M  V30 2350 H 222.656 -4.42099 -0.00915037 0
M  V30 2351 N 221.715 -0.905404 -1.28997 0
M  V30 2352 C 222.992 -0.453513 -1.9027 0
M  V30 2353 C 223.372 1.06721 -1.82137 0
M  V30 2354 O 222.72 1.91159 -1.25182 0
M  V30 2355 C 222.93 -0.974494 -3.35119 0
M  V30 2356 C 224.278 -1.0216 -4.12127 0
M  V30 2357 O 225.302 -0.922557 -3.44046 0
M  V30 2358 O 224.161 -1.17121 -5.33802 0
M  V30 2359 H 221.255 -0.142347 -0.814657 0
M  V30 2360 H 223.801 -0.995642 -1.37423 0
M  V30 2361 H 222.573 -2.01848 -3.35221 0
M  V30 2362 H 222.196 -0.412706 -3.95452 0
M  V30 2363 N 223.193 1.4272 -0.668489 0
M  V30 2364 C 224.126 2.28111 0.0637898 0
M  V30 2365 C 225.104 1.40705 0.814912 0
M  V30 2366 O 226.288 1.70146 0.81134 0
M  V30 2367 C 223.415 3.20429 1.0974 0
M  V30 2368 C 222.461 4.24197 0.442579 0
M  V30 2369 S 223.294 5.29563 -0.795173 0
M  V30 2370 C 224.45 6.25449 0.237516 0
M  V30 2371 H 224.683 2.8987 -0.660521 0
M  V30 2372 H 222.216 1.47456 -0.457821 0
M  V30 2373 H 224.174 3.74158 1.68868 0
M  V30 2374 H 222.835 2.57818 1.79411 0
M  V30 2375 H 222.028 4.88954 1.22227 0
M  V30 2376 H 221.63 3.73925 -0.0749554 0
M  V30 2377 H 223.922 6.68524 1.09915 0
M  V30 2378 H 224.865 7.07104 -0.375421 0
M  V30 2379 H 225.273 5.61511 0.580167 0
M  V30 2380 N 224.671 0.411399 1.52136 0
M  V30 2381 C 225.601 -0.404015 2.29978 0
M  V30 2382 C 226.582 -1.04412 1.34284 0
M  V30 2383 O 227.767 -1.0527 1.63192 0
M  V30 2384 C 224.897 -1.5197 3.12286 0
M  V30 2385 C 223.851 -1.00448 4.16046 0
M  V30 2386 C 223.177 -2.21393 4.86712 0
M  V30 2387 C 224.477 -0.0569336 5.22269 0
M  V30 2388 H 226.171 0.245529 2.98392 0
M  V30 2389 H 223.717 0.119525 1.43503 0
M  V30 2390 H 225.67 -2.09715 3.6551 0
M  V30 2391 H 224.394 -2.19716 2.41646 0
M  V30 2392 H 223.053 -0.449421 3.63835 0
M  V30 2393 H 222.701 -2.87699 4.12599 0
M  V30 2394 H 222.401 -1.87571 5.56858 0
M  V30 2395 H 223.925 -2.7974 5.4275 0
M  V30 2396 H 225.339 -0.54325 5.7072 0
M  V30 2397 H 223.736 0.192594 5.99791 0
M  V30 2398 H 224.806 0.887663 4.76706 0
M  V30 2399 N 226.149 -1.5696 0.141893 0
M  V30 2400 C 227.096 -2.16501 -0.799737 0
M  V30 2401 C 228.066 -1.09643 -1.24771 0
M  V30 2402 O 229.251 -1.3766 -1.32115 0
M  V30 2403 C 226.391 -2.78679 -2.03549 0
M  V30 2404 C 225.504 -3.99914 -1.6338 0
M  V30 2405 C 224.639 -4.50106 -2.82096 0
M  V30 2406 C 223.678 -5.63819 -2.38275 0
M  V30 2407 N 222.815 -6.08651 -3.49983 0
M  V30 2408 H 227.655 -2.96632 -0.285179 0
M  V30 2409 H 225.192 -1.46533 -0.129053 0
M  V30 2410 H 227.15 -3.1287 -2.75986 0
M  V30 2411 H 225.78 -2.012 -2.52425 0
M  V30 2412 H 224.832 -3.71735 -0.807279 0
M  V30 2413 H 226.144 -4.82311 -1.27192 0
M  V30 2414 H 225.298 -4.86325 -3.62729 0
M  V30 2415 H 224.037 -3.66706 -3.21525 0
M  V30 2416 H 223.042 -5.2718 -1.56081 0
M  V30 2417 H 224.267 -6.49 -1.99938 0
M  V30 2418 H 222.213 -5.28188 -3.89042 0
M  V30 2419 H 222.13 -6.85961 -3.17794 0
M  V30 2420 H 223.398 -6.49515 -4.30988 0
M  V30 2421 N 227.627 0.131896 -1.57047 0
M  V30 2422 C 228.557 1.16384 -2.02428 0
M  V30 2423 C 229.538 1.43936 -0.90644 0
M  V30 2424 O 230.723 1.54599 -1.17528 0
M  V30 2425 C 227.853 2.49328 -2.4177 0
M  V30 2426 C 226.807 2.36266 -3.56879 0
M  V30 2427 C 226.133 3.74057 -3.8208 0
M  V30 2428 C 227.433 1.834 -4.89042 0
M  V30 2429 H 229.127 0.786433 -2.88887 0
M  V30 2430 H 226.673 0.376855 -1.38981 0
M  V30 2431 H 228.626 3.21759 -2.7212 0
M  V30 2432 H 227.35 2.88934 -1.52266 0
M  V30 2433 H 226.009 1.66286 -3.26718 0
M  V30 2434 H 225.657 4.11125 -2.89803 0
M  V30 2435 H 225.357 3.66174 -4.59554 0
M  V30 2436 H 226.881 4.48012 -4.1487 0
M  V30 2437 H 228.295 2.45636 -5.18011 0
M  V30 2438 H 226.692 1.8637 -5.70426 0
M  V30 2439 H 227.762 0.790662 -4.7841 0
M  V30 2440 N 229.106 1.52395 0.401703 0
M  V30 2441 C 230.383 1.57387 1.16141 0
M  V30 2442 C 230.763 0.359359 2.08019 0
M  V30 2443 O 230.111 -0.65326 2.18963 0
M  V30 2444 C 230.321 2.90631 1.93221 0
M  V30 2445 C 231.669 3.43904 2.49028 0
M  V30 2446 O 232.693 2.92421 2.03393 0
M  V30 2447 O 231.552 4.33823 3.32356 0
M  V30 2448 H 228.646 0.634262 0.530698 0
M  V30 2449 H 231.192 1.64725 0.407883 0
M  V30 2450 H 229.964 3.70473 1.25958 0
M  V30 2451 H 229.587 2.8662 2.75563 0
M  V30 2452 N 230.584 -0.659388 1.43143 0
M  V30 2453 C 231.832 -1.41654 1.44147 0
M  V30 2454 C 232.153 -1.94893 0.0645739 0
M  V30 2455 O 231.423 -1.74044 -0.899198 0
M  V30 2456 H 230.003 -0.525708 0.530697 0
M  V30 2457 H 232.665 -0.778097 1.78694 0
M  V30 2458 H 231.761 -2.26195 2.1504 0
M  V30 2459 N 232.062 -1.29571 -0.897171 0
M  V30 2460 C 233.302 -1.18959 -1.66217 0
M  V30 2461 C 233.666 0.254271 -1.90309 0
M  V30 2462 O 234.867 0.483407 -2.64417 0
M  V30 2463 C 233.138 -1.98302 -2.9734 0
M  V30 2464 S 234.697 -2.04253 -3.88364 0
M  V30 2465 H 231.515 -0.424137 -0.570639 0
M  V30 2466 H 234.117 -1.6389 -1.06585 0
M  V30 2467 H 232.821 -3.02342 -2.77521 0
M  V30 2468 H 232.352 -1.53986 -3.62011 0
M  V30 2469 H 234.367 -1.16105 -4.82425 0
M  V30 2470 N 233.54 1.10788 -1.12088 0
M  V30 2471 C 234.787 1.82671 -0.873931 0
M  V30 2472 C 235.115 1.85004 0.600311 0
M  V30 2473 O 234.37 1.30365 1.45957 0
M  V30 2474 C 234.669 3.29294 -1.38926 0
M  V30 2475 C 234.335 3.47113 -2.87791 0
M  V30 2476 C 232.997 3.51684 -3.28439 0
M  V30 2477 C 235.349 3.52808 -3.83635 0
M  V30 2478 C 232.677 3.59513 -4.63646 0
M  V30 2479 C 235.029 3.62169 -5.18668 0
M  V30 2480 C 233.693 3.65003 -5.58864 0
M  V30 2481 H 232.963 0.668441 -0.319794 0
M  V30 2482 H 235.61 1.30613 -1.40045 0
M  V30 2483 H 233.915 3.83894 -0.783122 0
M  V30 2484 H 235.612 3.83416 -1.17443 0
M  V30 2485 H 232.202 3.4423 -2.5535 0
M  V30 2486 H 236.386 3.4853 -3.53328 0
M  V30 2487 H 231.642 3.59987 -4.94185 0
M  V30 2488 H 235.816 3.6552 -5.92763 0
M  V30 2489 H 233.443 3.70822 -6.63623 0
M  V30 2490 N 235.018 0.912232 1.28515 0
M  V30 2491 C 236.243 0.559774 1.99703 0
M  V30 2492 C 236.668 -0.851393 1.67729 0
M  V30 2493 O 236.026 -1.56875 0.908834 0
M  V30 2494 C 236.074 0.773874 3.52198 0
M  V30 2495 O 235.178 -0.167842 4.12058 0
M  V30 2496 H 234.519 0.21723 0.627461 0
M  V30 2497 H 237.049 1.22725 1.63706 0
M  V30 2498 H 237.059 0.683386 4.02236 0
M  V30 2499 H 235.734 1.80261 3.74805 0
M  V30 2500 H 234.311 -0.0287509 3.72889 0
M  V30 2501 N 236.496 -1.42363 0.676048 0
M  V30 2502 C 237.724 -2.05859 0.207268 0
M  V30 2503 C 238.139 -1.50796 -1.13605 0
M  V30 2504 O 237.496 -0.648265 -1.70598 0
M  V30 2505 C 237.547 -3.61248 0.134975 0
M  V30 2506 O 237.268 -4.1427 1.42521 0
M  V30 2507 C 238.769 -4.41859 -0.357151 0
M  V30 2508 H 235.989 -0.663431 0.100503 0
M  V30 2509 H 238.533 -1.82479 0.923136 0
M  V30 2510 H 236.688 -3.83735 -0.531588 0
M  V30 2511 H 237.102 -5.0815 1.29939 0
M  V30 2512 H 238.576 -5.50847 -0.356641 0
M  V30 2513 H 239.053 -4.16536 -1.39264 0
M  V30 2514 H 239.659 -4.24392 0.27772 0
M  V30 2515 N 237.974 -0.419461 -1.51915 0
M  V30 2516 C 239.385 0.0477853 -1.86639 0
M  V30 2517 C 239.736 1.43531 -1.33766 0
M  V30 2518 O 238.861 2.05401 -0.68113 0
M  V30 2519 C 239.456 0.0934885 -3.38671 0
M  V30 2520 C 238.015 0.505097 -3.72996 0
M  V30 2521 C 237.162 -0.313792 -2.75519 0
M  V30 2522 H 240.113 -0.636088 -1.45395 0
M  V30 2523 H 240.134 0.906667 -3.6954 0
M  V30 2524 H 239.646 -0.916501 -3.77123 0
M  V30 2525 H 237.747 1.52135 -3.40126 0
M  V30 2526 H 237.86 0.242309 -4.78487 0
M  V30 2527 H 236.224 0.225363 -2.53701 0
M  V30 2528 H 237.007 -1.32232 -3.16812 0
M  V30 2529 N 239.452 1.56882 -0.150215 0
M  V30 2530 C 240.362 2.20494 0.801222 0
M  V30 2531 C 241.378 1.19019 1.26927 0
M  V30 2532 O 242.554 1.51607 1.32579 0
M  V30 2533 C 239.619 2.81659 2.02161 0
M  V30 2534 C 238.68 3.9827 1.60249 0
M  V30 2535 C 237.913 4.56508 2.7647 0
M  V30 2536 O 238.136 4.13627 3.92771 0
M  V30 2537 O 237.07 5.46719 2.51757 0
M  V30 2538 H 240.896 3.02315 0.289717 0
M  V30 2539 H 238.481 1.49202 0.0769684 0
M  V30 2540 H 240.363 3.20522 2.73576 0
M  V30 2541 H 239.038 2.02849 2.52258 0
M  V30 2542 H 237.945 3.64117 0.858477 0
M  V30 2543 H 239.278 4.78609 1.14864 0
M  V30 2544 N 240.93 -0.123565 1.57115 0
M  V30 2545 C 241.84 -1.17074 2.033 0
M  V30 2546 C 242.856 -1.4561 0.952559 0
M  V30 2547 O 244.032 -1.56817 1.26374 0
M  V30 2548 C 241.097 -2.47857 2.42421 0
M  V30 2549 C 240.158 -2.26758 3.64526 0
M  V30 2550 C 239.391 -3.51305 4.01771 0
M  V30 2551 O 239.614 -4.5843 3.39409 0
M  V30 2552 O 238.548 -3.42578 4.94898 0
M  V30 2553 H 242.374 -0.808555 2.92739 0
M  V30 2554 H 239.959 -0.334027 1.45618 0
M  V30 2555 H 241.841 -3.2492 2.68338 0
M  V30 2556 H 240.516 -2.83558 1.5613 0
M  V30 2557 H 239.423 -1.47569 3.43765 0
M  V30 2558 H 240.756 -1.95963 4.51508 0
M  V30 2559 N 242.408 -1.52605 -0.393616 0
M  V30 2560 C 243.824 -1.41753 -0.733357 0
M  V30 2561 C 244.024 -0.534293 -1.94287 0
M  V30 2562 O 243.08 -0.0059787 -2.52499 0
M  V30 2563 C 244.393 -2.84531 -0.972772 0
M  V30 2564 C 245.941 -2.93978 -1.07453 0
M  V30 2565 C 246.416 -4.37756 -1.3466 0
M  V30 2566 N 247.907 -4.4106 -1.41492 0
M  V30 2567 C 248.642 -5.49387 -1.642 0
M  V30 2568 N 248.138 -6.67806 -1.8441 0
M  V30 2569 N 249.931 -5.36923 -1.66342 0
M  V30 2570 H 242.082 -2.08555 0.402328 0
M  V30 2571 H 244.345 -0.940654 0.117789 0
M  V30 2572 H 244.051 -3.51353 -0.156204 0
M  V30 2573 H 243.925 -3.26508 -1.88871 0
M  V30 2574 H 246.312 -2.27326 -1.88167 0
M  V30 2575 H 246.393 -2.55435 -0.136605 0
M  V30 2576 H 246.037 -5.04972 -0.544581 0
M  V30 2577 H 245.967 -4.73848 -2.2973 0
M  V30 2578 H 248.458 -3.55705 -1.27601 0
M  V30 2579 H 248.771 -7.46141 -2.01231 0
M  V30 2580 H 247.116 -6.70843 -1.81644 0
M  V30 2581 H 250.307 -4.43381 -1.50102 0
M  V30 2582 H 250.48 -6.21416 -1.837 0
M  V30 2583 N 243.887 0.651787 -1.4349 0
M  V30 2584 C 244.85 1.74647 -1.48429 0
M  V30 2585 C 245.85 1.56513 -0.368817 0
M  V30 2586 O 247.04 1.62385 -0.630623 0
M  V30 2587 C 244.172 3.13533 -1.33827 0
M  V30 2588 H 245.365 1.71649 -2.4592 0
M  V30 2589 H 242.918 0.863573 -1.30277 0
M  V30 2590 H 243.653 3.22142 -0.37349 0
M  V30 2591 H 243.438 3.28101 -2.14691 0
M  V30 2592 H 244.928 3.93356 -1.40218 0
M  V30 2593 N 245.365 1.30045 0.890287 0
M  V30 2594 C 246.297 1.11786 2.00091 0
M  V30 2595 C 247.31 0.0626307 1.62679 0
M  V30 2596 O 248.499 0.308112 1.75821 0
M  V30 2597 C 245.599 0.681527 3.31977 0
M  V30 2598 C 244.772 1.81735 3.97858 0
M  V30 2599 C 243.831 1.37045 5.08041 0
M  V30 2600 O 242.857 2.07677 5.29961 0
M  V30 2601 N 244.059 0.246525 5.79976 0
M  V30 2602 H 246.824 2.07441 2.16306 0
M  V30 2603 H 244.385 1.2211 1.06305 0
M  V30 2604 H 246.377 0.365675 4.03045 0
M  V30 2605 H 244.947 -0.182828 3.12065 0
M  V30 2606 H 244.167 2.30159 3.20032 0
M  V30 2607 H 245.455 2.57865 4.38615 0
M  V30 2608 H 244.853 -0.34215 5.64664 0
M  V30 2609 H 243.41 -0.00990438 6.51799 0
M  V30 2610 N 246.843 -1.10192 1.12674 0
M  V30 2611 C 248.091 -1.81845 0.881861 0
M  V30 2612 C 248.412 -1.85737 -0.593867 0
M  V30 2613 O 247.682 -1.33724 -1.4316 0
M  V30 2614 H 246.262 -0.673432 0.323261 0
M  V30 2615 H 248.924 -1.33316 1.42172 0
M  V30 2616 H 248.02 -2.85288 1.2656 0
M  V30 2617 N 248.321 -0.919034 -1.28029 0
M  V30 2618 C 249.551 -0.570143 -1.98577 0
M  V30 2619 C 249.959 0.854172 -1.68821 0
M  V30 2620 O 249.302 1.57807 -0.940351 0
M  V30 2621 C 249.364 -0.705734 -3.52505 0
M  V30 2622 C 249.028 -2.10057 -4.05863 0
M  V30 2623 C 250.025 -3.07385 -4.19298 0
M  V30 2624 C 247.71 -2.41517 -4.40426 0
M  V30 2625 C 249.704 -4.34287 -4.66555 0
M  V30 2626 C 247.391 -3.68657 -4.87376 0
M  V30 2627 C 248.389 -4.64856 -5.00398 0
M  V30 2628 O 248.077 -5.89735 -5.46322 0
M  V30 2629 H 247.809 -0.215592 -0.6407 0
M  V30 2630 H 250.363 -1.23583 -1.64062 0
M  V30 2631 H 248.593 0.0170414 -3.86696 0
M  V30 2632 H 250.282 -0.363172 -4.04272 0
M  V30 2633 H 251.048 -2.84398 -3.92865 0
M  V30 2634 H 246.927 -1.67389 -4.29537 0
M  V30 2635 H 250.471 -5.09377 -4.76635 0
M  V30 2636 H 246.368 -3.91466 -5.13249 0
M  V30 2637 H 247.136 -5.92599 -5.64596 0
M  V30 2638 N 249.799 1.42003 -0.683588 0
M  V30 2639 C 251.21 1.84501 -0.285736 0
M  V30 2640 C 251.561 1.57213 1.17382 0
M  V30 2641 O 250.686 1.03642 1.89966 0
M  V30 2642 C 251.281 3.34912 -0.511821 0
M  V30 2643 C 249.84 3.76025 -0.168005 0
M  V30 2644 C 248.987 2.6551 -0.799983 0
M  V30 2645 H 251.938 1.31724 -0.885119 0
M  V30 2646 H 251.959 3.79784 0.233292 0
M  V30 2647 H 251.471 3.54741 -1.57418 0
M  V30 2648 H 249.572 3.61801 0.890567 0
M  V30 2649 H 249.685 4.75141 -0.614661 0
M  V30 2650 H 248.049 2.53654 -0.230568 0
M  V30 2651 H 248.832 2.8816 -1.86597 0
M  V30 2652 N 251.277 0.427512 1.51691 0
M  V30 2653 C 252.224 -0.388867 2.275 0
M  V30 2654 C 253.194 -1.02532 1.30677 0
M  V30 2655 O 254.379 -1.0461 1.59566 0
M  V30 2656 C 251.519 -1.48954 3.11298 0
M  V30 2657 C 250.632 -0.872194 4.23104 0
M  V30 2658 C 249.767 -1.94709 4.94228 0
M  V30 2659 C 248.806 -1.30766 5.97969 0
M  V30 2660 N 247.943 -2.32349 6.62539 0
M  V30 2661 H 252.783 0.263997 2.96828 0
M  V30 2662 H 250.32 0.142033 1.46413 0
M  V30 2663 H 252.278 -2.13887 3.58201 0
M  V30 2664 H 250.908 -2.11217 2.44105 0
M  V30 2665 H 249.96 -0.111419 3.80237 0
M  V30 2666 H 251.272 -0.365264 4.97461 0
M  V30 2667 H 250.426 -2.67327 5.44629 0
M  V30 2668 H 249.165 -2.48773 4.1948 0
M  V30 2669 H 248.17 -0.566902 5.4687 0
M  V30 2670 H 249.395 -0.774483 6.74669 0
M  V30 2671 H 247.341 -2.85511 5.90609 0
M  V30 2672 H 247.258 -1.8652 7.3263 0
M  V30 2673 H 248.526 -3.04481 7.17574 0
M  V30 2674 N 252.755 -1.56801 0.158532 0
M  V30 2675 C 253.688 -2.13148 -0.815065 0
M  V30 2676 C 254.666 -1.0581 -1.23462 0
M  V30 2677 O 255.85 -1.3371 -1.32868 0
M  V30 2678 C 252.977 -2.6606 -2.09594 0
M  V30 2679 C 252.023 -3.85651 -1.82141 0
M  V30 2680 S 252.856 -5.26041 -1.00207 0
M  V30 2681 C 254.012 -5.8235 -2.29389 0
M  V30 2682 H 254.245 -2.95396 -0.335937 0
M  V30 2683 H 251.778 -1.54299 -0.0559391 0
M  V30 2684 H 253.736 -2.97195 -2.8317 0
M  V30 2685 H 252.397 -1.83921 -2.54621 0
M  V30 2686 H 251.59 -4.20958 -2.77147 0
M  V30 2687 H 251.192 -3.55338 -1.16667 0
M  V30 2688 H 253.484 -5.94485 -3.24952 0
M  V30 2689 H 254.427 -6.79688 -1.9857 0
M  V30 2690 H 254.835 -5.10675 -2.40564 0
M  V30 2691 N 254.233 0.115231 -1.57178 0
M  V30 2692 C 255.196 1.12526 -1.99676 0
M  V30 2693 C 256.196 1.34095 -0.88742 0
M  V30 2694 O 257.386 1.30548 -1.15337 0
M  V30 2695 C 254.518 2.4789 -2.34015 0
M  V30 2696 H 255.711 0.759912 -2.90113 0
M  V30 2697 H 253.264 0.359648 -1.52106 0
M  V30 2698 H 253.999 2.89339 -1.4647 0
M  V30 2699 H 253.784 2.33588 -3.14927 0
M  V30 2700 H 255.274 3.20575 -2.67622 0
M  V30 2701 N 255.711 1.52812 0.385517 0
M  V30 2702 C 256.674 1.77188 1.45386 0
M  V30 2703 C 257.674 0.641953 1.4743 0
M  V30 2704 O 258.864 0.910033 1.4854 0
M  V30 2705 C 255.996 1.87582 2.8465 0
M  V30 2706 H 257.189 2.72583 1.25054 0
M  V30 2707 H 254.742 1.43586 0.617467 0
M  V30 2708 H 255.477 0.941849 3.10322 0
M  V30 2709 H 255.262 2.69748 2.84567 0
M  V30 2710 H 256.752 2.08102 3.62054 0
M  V30 2711 N 257.189 -0.644168 1.43834 0
M  V30 2712 C 258.152 -1.73857 1.49353 0
M  V30 2713 C 259.152 -1.56315 0.377112 0
M  V30 2714 O 260.342 -1.62048 0.639226 0
M  V30 2715 C 257.474 -3.12819 1.35488 0
M  V30 2716 H 258.667 -1.70342 2.46827 0
M  V30 2717 H 256.22 -0.856652 1.30733 0
M  V30 2718 H 256.955 -3.2194 0.390569 0
M  V30 2719 H 256.74 -3.26958 2.16428 0
M  V30 2720 H 258.23 -3.92606 1.42302 0
M  V30 2721 N 258.668 -1.30515 -0.883378 0
M  V30 2722 C 259.598 -1.19607 -2.00541 0
M  V30 2723 C 260.579 -0.086346 -1.69881 0
M  V30 2724 O 261.764 -0.268654 -1.92333 0
M  V30 2725 C 258.894 -0.888758 -3.35736 0
M  V30 2726 C 257.848 -1.95659 -3.8066 0
M  V30 2727 C 257.174 -1.50224 -5.13164 0
M  V30 2728 C 258.474 -3.36788 -3.99213 0
M  V30 2729 H 260.168 -2.13476 -2.09925 0
M  V30 2730 H 257.714 -1.02775 -1.00863 0
M  V30 2731 H 259.667 -0.799094 -4.13754 0
M  V30 2732 H 258.391 0.0856125 -3.26488 0
M  V30 2733 H 257.05 -2.03591 -3.04871 0
M  V30 2734 H 256.698 -0.516092 -5.00345 0
M  V30 2735 H 256.398 -2.2165 -5.44192 0
M  V30 2736 H 257.922 -1.42639 -5.93706 0
M  V30 2737 H 259.336 -3.31605 -4.67665 0
M  V30 2738 H 257.733 -4.06314 -4.41621 0
M  V30 2739 H 258.803 -3.78561 -3.03017 0
M  V30 2740 N 260.146 1.09593 -1.13257 0
M  V30 2741 C 261.094 2.18271 -0.803783 0
M  V30 2742 C 262.088 1.68054 0.213148 0
M  V30 2743 O 263.294 1.79862 0.0704699 0
M  V30 2744 H 259.669 0.711949 -0.242143 0
M  V30 2745 H 261.64 2.43235 -1.72856 0
M  V30 2746 C 260.389 3.46536 -0.28424 0
M  V30 2747 H 259.712 3.85545 -1.05807 0
M  V30 2748 H 261.152 4.23899 -0.0925945 0
M  V30 2749 C 259.611 3.22036 0.989684 0
M  V30 2750 O 260.141 3.44509 2.06584 0
M  V30 2751 N 258.347 2.7565 0.920086 0
M  V30 2752 H 257.894 2.57562 0.0442019 0
M  V30 2753 H 257.852 2.59635 1.77306 0
M  V30 2754 N 261.624 0.925811 1.2754 0
M  V30 2755 C 262.587 0.428129 2.25166 0
M  V30 2756 C 263.587 -0.452261 1.54309 0
M  V30 2757 O 264.777 -0.253608 1.72344 0
M  V30 2758 C 261.909 -0.384749 3.38722 0
M  V30 2759 H 263.102 1.29066 2.70706 0
M  V30 2760 H 260.655 0.706323 1.3943 0
M  V30 2761 H 261.39 -1.26618 2.98561 0
M  V30 2762 H 261.175 0.246454 3.91325 0
M  V30 2763 H 262.665 -0.723389 4.11287 0
M  V30 2764 N 263.102 -1.41638 0.69111 0
M  V30 2765 C 264.33 -2.05628 0.22909 0
M  V30 2766 C 264.745 -1.51992 -1.11999 0
M  V30 2767 O 264.102 -0.666322 -1.69901 0
M  V30 2768 C 264.153 -3.61084 0.173283 0
M  V30 2769 O 263.874 -4.12735 1.46907 0
M  V30 2770 C 265.375 -4.42213 -0.310266 0
M  V30 2771 H 262.595 -0.662327 0.107534 0
M  V30 2772 H 265.139 -1.81489 0.942438 0
M  V30 2773 H 263.294 -3.84278 -0.490858 0
M  V30 2774 H 263.708 -5.06743 1.35322 0
M  V30 2775 H 265.182 -5.51194 -0.298196 0
M  V30 2776 H 265.659 -4.1799 -1.34838 0
M  V30 2777 H 266.265 -4.24074 0.322716 0
M  V30 2778 N 264.58 -0.43555 -1.51462 0
M  V30 2779 C 265.828 0.131254 -2.01673 0
M  V30 2780 C 266.149 1.43368 -1.32177 0
M  V30 2781 O 265.419 1.90524 -0.455769 0
M  V30 2782 H 263.999 0.0514954 -0.745223 0
M  V30 2783 H 266.661 -0.577847 -1.86137 0
M  V30 2784 H 265.757 0.308446 -3.10572 0
M  V30 2785 N 266.058 1.56714 -0.166846 0
M  V30 2786 C 267.474 1.58473 0.189372 0
M  V30 2787 C 267.674 1.18201 1.63189 0
M  V30 2788 O 266.73 0.891528 2.36237 0
M  V30 2789 C 268.043 3.00573 -0.0873872 0
M  V30 2790 C 269.591 3.1299 -0.0252443 0
M  V30 2791 C 270.066 4.57174 -0.274934 0
M  V30 2792 N 271.557 4.62665 -0.222553 0
M  V30 2793 C 272.292 5.72072 -0.389985 0
M  V30 2794 N 271.788 6.90054 -0.616229 0
M  V30 2795 N 273.581 5.61153 -0.326202 0
M  V30 2796 H 265.732 1.8118 -1.10849 0
M  V30 2797 H 267.995 0.839525 -0.440342 0
M  V30 2798 H 267.701 3.34497 -1.0865 0
M  V30 2799 H 267.575 3.72019 0.623037 0
M  V30 2800 H 269.962 2.78895 0.96444 0
M  V30 2801 H 270.043 2.43989 -0.768309 0
M  V30 2802 H 269.687 4.91976 -1.26181 0
M  V30 2803 H 269.617 5.24328 0.48869 0
M  V30 2804 H 272.108 3.77863 -0.0531512 0
M  V30 2805 H 272.421 7.69311 -0.733559 0
M  V30 2806 H 270.766 6.91927 -0.652791 0
M  V30 2807 H 273.957 4.67859 -0.150072 0
M  V30 2808 H 274.13 6.46364 -0.460116 0
M  V30 2809 N 267.536 -0.106894 1.57237 0
M  V30 2810 C 268.947 -0.662723 1.74542 0
M  V30 2811 C 269.298 -1.7971 0.787319 0
M  V30 2812 O 268.423 -2.16368 -0.0369636 0
M  V30 2813 C 269.018 -1.20896 3.16496 0
M  V30 2814 C 267.577 -1.71096 3.35266 0
M  V30 2815 C 266.724 -0.615642 2.7038 0
M  V30 2816 H 269.675 0.119106 1.58252 0
M  V30 2817 H 269.696 -2.07847 3.18716 0
M  V30 2818 H 269.208 -0.383122 3.86204 0
M  V30 2819 H 267.309 -2.56119 2.70618 0
M  V30 2820 H 267.422 -1.81208 4.43509 0
M  V30 2821 H 265.786 -1.05222 2.31949 0
M  V30 2822 H 266.569 0.199419 3.4272 0
M  V30 2823 N 269.014 -1.53014 -0.377408 0
M  V30 2824 C 270.263 -1.67845 -1.11853 0
M  V30 2825 C 270.576 -0.430625 -1.90801 0
M  V30 2826 O 271.782 -0.459261 -2.67587 0
M  V30 2827 C 270.238 -2.96668 -2.03756 0
M  V30 2828 C 269.846 -4.28671 -1.30175 0
M  V30 2829 C 271.59 -3.20865 -2.77932 0
M  V30 2830 C 269.497 -5.48591 -2.20911 0
M  V30 2831 H 268.427 -0.625343 -0.421263 0
M  V30 2832 H 271.078 -1.79514 -0.380409 0
M  V30 2833 H 269.46 -2.78773 -2.8125 0
M  V30 2834 H 270.634 -4.57157 -0.578259 0
M  V30 2835 H 268.949 -4.10825 -0.679108 0
M  V30 2836 H 271.546 -4.07642 -3.46024 0
M  V30 2837 H 271.889 -2.36424 -3.4265 0
M  V30 2838 H 272.422 -3.39379 -2.07525 0
M  V30 2839 H 269.161 -6.35474 -1.6079 0
M  V30 2840 H 268.681 -5.244 -2.91144 0
M  V30 2841 H 270.36 -5.8292 -2.80736 0
M  V30 2842 N 270.492 0.636531 -1.44174 0
M  V30 2843 C 271.455 1.73063 -1.50273 0
M  V30 2844 C 272.455 1.56113 -0.385397 0
M  V30 2845 O 273.645 1.61707 -0.64781 0
M  V30 2846 C 270.777 3.12096 -1.37145 0
M  V30 2847 H 271.97 1.69031 -2.47727 0
M  V30 2848 H 269.523 0.849706 -1.31186 0
M  V30 2849 H 270.258 3.21728 -0.407636 0
M  V30 2850 H 270.043 3.25805 -2.18159 0
M  V30 2851 H 271.533 3.91846 -1.44382 0
M  V30 2852 N 271.97 1.30982 0.876444 0
M  V30 2853 C 273.217 1.20296 1.62896 0
M  V30 2854 C 273.545 -0.240395 1.93009 0
M  V30 2855 O 272.8 -1.18733 1.55567 0
M  V30 2856 C 273.099 1.98572 2.9716 0
M  V30 2857 C 272.765 3.48125 2.86566 0
M  V30 2858 C 271.427 3.88905 2.83383 0
M  V30 2859 C 273.779 4.43322 2.74071 0
M  V30 2860 C 271.107 5.2316 2.65556 0
M  V30 2861 C 273.459 5.77695 2.57781 0
M  V30 2862 C 272.123 6.17704 2.52979 0
M  V30 2863 H 271.393 0.440193 0.59608 0
M  V30 2864 H 274.04 1.62177 1.01837 0
M  V30 2865 H 272.345 1.49352 3.62217 0
M  V30 2866 H 274.042 1.8769 3.54364 0
M  V30 2867 H 270.632 3.15723 2.89856 0
M  V30 2868 H 274.816 4.12752 2.75589 0
M  V30 2869 H 270.072 5.53241 2.60259 0
M  V30 2870 H 274.246 6.51091 2.47089 0
M  V30 2871 H 271.873 7.21678 2.38924 0
M  V30 2872 N 273.449 -1.08991 1.13837 0
M  V30 2873 C 274.674 -1.85551 0.926585 0
M  V30 2874 C 275.099 -1.80782 -0.519566 0
M  V30 2875 O 274.457 -1.18855 -1.36906 0
M  V30 2876 C 274.505 -3.31266 1.42462 0
M  V30 2877 O 273.609 -4.07822 0.612789 0
M  V30 2878 H 272.95 -0.575192 0.331738 0
M  V30 2879 H 275.48 -1.37604 1.51414 0
M  V30 2880 H 275.49 -3.82112 1.43019 0
M  V30 2881 H 274.165 -3.34052 2.47754 0
M  V30 2882 H 272.742 -3.66731 0.675463 0
M  V30 2883 N 274.927 -0.932562 -1.27047 0
M  V30 2884 C 276.167 -0.582919 -1.95912 0
M  V30 2885 C 276.531 0.860629 -1.71631 0
M  V30 2886 O 277.732 1.31878 -2.34225 0
M  V30 2887 C 276.003 -0.905673 -3.45734 0
M  V30 2888 S 277.562 -0.665277 -4.33727 0
M  V30 2889 H 274.38 -0.215 -0.677714 0
M  V30 2890 H 276.982 -1.20204 -1.54179 0
M  V30 2891 H 275.686 -1.95386 -3.60905 0
M  V30 2892 H 275.217 -0.275939 -3.92431 0
M  V30 2893 H 277.232 0.474635 -4.93925 0
M  V30 2894 N 276.405 1.4127 -0.698611 0
M  V30 2895 C 277.63 2.06024 -0.238512 0
M  V30 2896 C 278.055 1.5224 1.10475 0
M  V30 2897 O 277.413 0.650623 1.69223 0
M  V30 2898 C 277.461 3.59988 -0.209952 0
M  V30 2899 O 276.565 4.04282 0.814235 0
M  V30 2900 H 275.906 0.653829 -0.115775 0
M  V30 2901 H 278.436 1.8098 -0.954326 0
M  V30 2902 H 278.446 4.07979 -0.0418436 0
M  V30 2903 H 277.121 3.98503 -1.1903 0
M  V30 2904 H 275.698 3.6779 0.615234 0
M  V30 2905 N 277.883 0.443576 1.51229 0
M  V30 2906 C 279.129 -0.11321 2.03085 0
M  V30 2907 C 279.484 -1.39841 1.32145 0
M  V30 2908 O 278.777 -1.86723 0.429542 0
M  V30 2909 C 278.971 -0.380579 3.55368 0
M  V30 2910 C 278.8 0.877157 4.41062 0
M  V30 2911 C 277.57 1.4125 4.85156 0
M  V30 2912 C 279.768 1.76503 4.83064 0
M  V30 2913 N 277.75 2.62213 5.55083 0
M  V30 2914 C 279.121 2.82067 5.52122 0
M  V30 2915 C 281.176 1.7787 4.65045 0
M  V30 2916 C 279.879 3.88952 6.05069 0
M  V30 2917 C 281.905 2.83694 5.18914 0
M  V30 2918 C 281.267 3.87978 5.87922 0
M  V30 2919 H 277.366 -0.00210178 0.781997 0
M  V30 2920 H 279.95 0.605641 1.85041 0
M  V30 2921 H 278.121 -1.06847 3.73414 0
M  V30 2922 H 279.853 -0.929274 3.93887 0
M  V30 2923 H 276.608 0.965542 4.63653 0
M  V30 2924 H 277.032 3.23568 5.9467 0
M  V30 2925 H 281.674 0.985744 4.11148 0
M  V30 2926 H 279.392 4.69082 6.58018 0
M  V30 2927 H 282.978 2.85702 5.06819 0
M  V30 2928 H 281.858 4.68517 6.28857 0
M  V30 2929 N 279.361 -1.56624 0.175154 0
M  V30 2930 C 280.772 -1.83561 -0.340916 0
M  V30 2931 C 281.123 -1.09511 -1.62794 0
M  V30 2932 O 280.248 -0.349389 -2.13561 0
M  V30 2933 C 280.843 -3.32979 -0.625313 0
M  V30 2934 C 279.402 -3.60399 -1.08581 0
M  V30 2935 C 278.549 -2.77024 -0.123722 0
M  V30 2936 H 281.5 -1.53593 0.399344 0
M  V30 2937 H 281.521 -3.50666 -1.47694 0
M  V30 2938 H 281.033 -3.86847 0.311575 0
M  V30 2939 H 279.134 -3.11945 -2.03767 0
M  V30 2940 H 279.247 -4.68711 -0.992317 0
M  V30 2941 H 277.611 -2.46993 -0.621821 0
M  V30 2942 H 278.394 -3.33674 0.807256 0
M  V30 2943 N 280.839 0.0985539 -1.57292 0
M  V30 2944 C 281.802 1.10402 -2.00858 0
M  V30 2945 C 282.802 1.33146 -0.901593 0
M  V30 2946 O 283.992 1.29318 -1.16716 0
M  V30 2947 C 281.124 2.45394 -2.36632 0
M  V30 2948 H 282.317 0.729099 -2.90902 0
M  V30 2949 H 279.87 0.343495 -1.52479 0
M  V30 2950 H 280.605 2.87769 -1.49531 0
M  V30 2951 H 280.39 2.30235 -3.17387 0
M  V30 2952 H 281.88 3.17718 -2.71007 0
M  V30 2953 N 282.317 1.53212 0.369288 0
M  V30 2954 C 283.547 1.72868 1.13139 0
M  V30 2955 C 283.955 0.455754 1.83629 0
M  V30 2956 O 283.298 -0.580861 1.74275 0
M  V30 2957 C 283.36 2.83667 2.20847 0
M  V30 2958 C 283.024 4.24142 1.70155 0
M  V30 2959 C 284.021 5.06619 1.16763 0
M  V30 2960 C 281.706 4.70539 1.7578 0
M  V30 2961 C 283.7 6.33581 0.696678 0
M  V30 2962 C 281.387 5.97481 1.28297 0
M  V30 2963 C 282.385 6.78833 0.753307 0
M  V30 2964 O 282.073 8.03393 0.285475 0
M  V30 2965 H 281.805 0.581707 0.344373 0
M  V30 2966 H 284.359 2.00736 0.435243 0
M  V30 2967 H 282.589 2.51265 2.93944 0
M  V30 2968 H 284.278 2.91536 2.82421 0
M  V30 2969 H 285.044 4.71948 1.11758 0
M  V30 2970 H 280.923 4.07293 2.15949 0
M  V30 2971 H 284.467 6.97027 0.282581 0
M  V30 2972 H 280.364 6.31651 1.32994 0
M  V30 2973 H 281.132 8.17497 0.405145 0
M  V30 2974 N 283.795 -0.628877 1.44509 0
M  V30 2975 C 284.705 -1.7694 1.54044 0
M  V30 2976 C 285.721 -1.68705 0.425987 0
M  V30 2977 O 286.897 -1.89442 0.683656 0
M  V30 2978 C 283.962 -3.13332 1.48405 0
M  V30 2979 C 283.023 -3.33181 2.70719 0
M  V30 2980 C 282.256 -4.63067 2.6534 0
M  V30 2981 O 282.479 -5.44017 1.71469 0
M  V30 2982 O 281.413 -4.85167 3.56226 0
M  V30 2983 H 285.239 -1.71848 2.50403 0
M  V30 2984 H 282.824 -0.790378 1.26781 0
M  V30 2985 H 284.706 -3.94634 1.47791 0
M  V30 2986 H 283.381 -3.1896 0.551898 0
M  V30 2987 H 282.288 -2.51549 2.769 0
M  V30 2988 H 283.621 -3.32416 3.62988 0
M  V30 2989 N 285.273 -1.31445 -0.869486 0
M  V30 2990 C 286.521 -1.20918 -1.61936 0
M  V30 2991 C 286.842 0.232683 -1.93607 0
M  V30 2992 O 286.112 1.15352 -1.58338 0
M  V30 2993 H 284.692 -0.44454 -0.600328 0
M  V30 2994 H 287.354 -1.64776 -1.0409 0
M  V30 2995 H 286.45 -1.78124 -2.56278 0
M  V30 2996 N 286.751 1.08385 -1.14413 0
M  V30 2997 C 287.999 1.80419 -0.910679 0
M  V30 2998 C 288.32 1.86658 0.564243 0
M  V30 2999 O 287.59 1.35985 1.41014 0
M  V30 3000 H 286.17 0.668204 -0.333934 0
M  V30 3001 H 288.832 1.31037 -1.44275 0
M  V30 3002 H 287.928 2.83238 -1.31082 0
M  V30 3003 N 288.23 0.939286 1.26551 0
M  V30 3004 C 289.16 0.465044 2.28822 0
M  V30 3005 C 290.141 -0.480692 1.63167 0
M  V30 3006 O 291.326 -0.382955 1.90387 0
M  V30 3007 C 288.456 -0.27234 3.46231 0
M  V30 3008 C 287.41 0.58666 4.2396 0
M  V30 3009 C 286.736 -0.280573 5.33963 0
M  V30 3010 C 288.036 1.85704 4.88171 0
M  V30 3011 H 289.73 1.31979 2.68741 0
M  V30 3012 H 287.276 0.636061 1.29191 0
M  V30 3013 H 289.229 -0.615133 4.16886 0
M  V30 3014 H 287.953 -1.16121 3.0526 0
M  V30 3015 H 286.612 0.91232 3.55067 0
M  V30 3016 H 286.26 -1.16874 4.89234 0
M  V30 3017 H 285.96 0.29076 5.8688 0
M  V30 3018 H 287.484 -0.618678 6.07458 0
M  V30 3019 H 288.898 1.58161 5.51052 0
M  V30 3020 H 287.295 2.37279 5.51197 0
M  V30 3021 H 288.365 2.56957 4.11219 0
M  V30 3022 N 289.708 -1.40897 0.706093 0
M  V30 3023 C 291.119 -1.84023 0.315052 0
M  V30 3024 C 291.47 -1.5906 -1.14866 0
M  V30 3025 O 290.595 -1.06651 -1.88293 0
M  V30 3026 C 291.19 -3.34055 0.565038 0
M  V30 3027 C 289.749 -3.7571 0.227806 0
M  V30 3028 C 288.896 -2.64204 0.842122 0
M  V30 3029 H 291.847 -1.303 0.905963 0
M  V30 3030 H 291.868 -3.80107 -0.172843 0
M  V30 3031 H 291.38 -3.52192 1.63042 0
M  V30 3032 H 289.481 -3.63172 -0.832895 0
M  V30 3033 H 289.594 -4.74103 0.690174 0
M  V30 3034 H 287.958 -2.53255 0.270893 0
M  V30 3035 H 288.741 -2.85155 1.91158 0
M  V30 3036 N 291.186 -0.45159 -1.50991 0
M  V30 3037 C 292.597 0.00818571 -1.86698 0
M  V30 3038 C 292.948 1.40661 -1.3678 0
M  V30 3039 O 292.073 2.0391 -0.724546 0
M  V30 3040 C 292.668 0.0216303 -3.38793 0
M  V30 3041 C 291.227 0.425865 -3.73983 0
M  V30 3042 C 290.374 -0.372163 -2.74791 0
M  V30 3043 H 293.325 -0.666785 -1.44013 0
M  V30 3044 H 293.346 0.828078 -3.7138 0
M  V30 3045 H 292.858 -0.996288 -3.75094 0
M  V30 3046 H 290.959 1.44886 -3.43277 0
M  V30 3047 H 291.072 0.140761 -4.78893 0
M  V30 3048 H 289.436 0.171498 -2.54122 0
M  V30 3049 H 290.219 -1.38922 -3.13935 0
M  V30 3050 N 292.664 1.56529 -0.183458 0
M  V30 3051 C 294.08 1.58664 0.172554 0
M  V30 3052 C 294.28 1.19925 1.61926 0
M  V30 3053 O 293.336 0.916534 2.35278 0
M  V30 3054 C 294.649 3.00463 -0.119262 0
M  V30 3055 C 296.197 3.12945 -0.0584396 0
M  V30 3056 C 296.672 4.56857 -0.323408 0
M  V30 3057 N 298.163 4.62403 -0.271612 0
M  V30 3058 C 298.898 5.71626 -0.450639 0
M  V30 3059 N 298.394 6.89362 -0.689384 0
M  V30 3060 N 300.187 5.60775 -0.385701 0
M  V30 3061 H 292.338 1.79994 -1.12765 0
M  V30 3062 H 294.601 0.834808 -0.449222 0
M  V30 3063 H 294.307 3.33326 -1.12192 0
M  V30 3064 H 294.181 3.72659 0.583544 0
M  V30 3065 H 296.568 2.79902 0.934805 0
M  V30 3066 H 296.649 2.4316 -0.794144 0
M  V30 3067 H 296.293 4.9061 -1.31392 0
M  V30 3068 H 296.223 5.24816 0.43305 0
M  V30 3069 H 298.714 3.77785 -0.0932256 0
M  V30 3070 H 299.027 7.68489 -0.815113 0
M  V30 3071 H 297.372 6.91196 -0.726142 0
M  V30 3072 H 300.563 4.67674 -0.199687 0
M  V30 3073 H 300.736 6.4584 -0.528646 0
M  V30 3074 N 294.142 -0.090211 1.57342 0
M  V30 3075 C 295.388 -0.793982 1.86611 0
M  V30 3076 C 295.721 -1.78142 0.773252 0
M  V30 3077 O 294.996 -1.93271 -0.218304 0
M  V30 3078 C 295.279 -1.51839 3.26523 0
M  V30 3079 C 295.132 -0.548609 4.46442 0
M  V30 3080 C 296.451 -2.46779 3.64401 0
M  V30 3081 H 293.57 -0.287186 0.678744 0
M  V30 3082 H 296.212 -0.0575076 1.89913 0
M  V30 3083 H 294.362 -2.14617 3.23839 0
M  V30 3084 H 296.034 0.0725513 4.61243 0
M  V30 3085 H 294.277 0.137614 4.33582 0
M  V30 3086 H 294.948 -1.09271 5.41076 0
M  V30 3087 H 297.424 -1.94089 3.68061 0
M  V30 3088 H 296.3 -2.94479 4.63221 0
M  V30 3089 H 296.561 -3.30758 2.93346 0
M  V30 3090 N 295.62 -1.53406 -0.361157 0
M  V30 3091 C 296.568 -1.80832 -1.46296 0
M  V30 3092 C 297.562 -0.677699 -1.55253 0
M  V30 3093 O 298.768 -0.860723 -1.58087 0
M  V30 3094 H 295.143 -0.572627 -0.487445 0
M  V30 3095 H 297.114 -2.73045 -1.20371 0
M  V30 3096 C 295.863 -2.01907 -2.8307 0
M  V30 3097 H 295.186 -2.88349 -2.76938 0
M  V30 3098 H 296.626 -2.25072 -3.59331 0
M  V30 3099 C 295.085 -0.799449 -3.27277 0
M  V30 3100 O 295.615 0.00971761 -4.01699 0
M  V30 3101 N 293.821 -0.621637 -2.83873 0
M  V30 3102 H 293.368 -1.28126 -2.23476 0
M  V30 3103 H 293.326 0.19298 -3.13807 0
M  V30 3104 N 297.098 0.621204 -1.44841 0
M  V30 3105 C 298.328 1.40548 -1.51426 0
M  V30 3106 C 298.736 1.88673 -0.141083 0
M  V30 3107 O 298.079 1.62053 0.865128 0
M  V30 3108 C 298.141 2.65325 -2.42576 0
M  V30 3109 C 297.805 2.3893 -3.89566 0
M  V30 3110 C 298.802 2.00138 -4.79834 0
M  V30 3111 C 296.487 2.52263 -4.3436 0
M  V30 3112 C 298.481 1.75021 -6.129 0
M  V30 3113 C 296.168 2.2676 -5.67471 0
M  V30 3114 C 297.166 1.88199 -6.56559 0
M  V30 3115 O 296.854 1.62986 -7.87204 0
M  V30 3116 H 296.586 0.437122 -0.515655 0
M  V30 3117 H 299.14 0.765987 -1.90583 0
M  V30 3118 H 297.37 3.31947 -1.98364 0
M  V30 3119 H 299.059 3.27347 -2.39998 0
M  V30 3120 H 299.825 1.89386 -4.46495 0
M  V30 3121 H 295.704 2.81246 -3.65269 0
M  V30 3122 H 299.248 1.44848 -6.82396 0
M  V30 3123 H 295.145 2.37125 -6.00368 0
M  V30 3124 H 295.913 1.7715 -7.991 0
M  V30 3125 N 298.576 1.31904 0.862503 0
M  V30 3126 C 299.801 1.25135 1.65397 0
M  V30 3127 C 300.226 -0.179 1.87246 0
M  V30 3128 O 299.584 -1.1277 1.4196 0
M  V30 3129 C 299.632 2.00832 2.99498 0
M  V30 3130 O 298.736 1.35075 3.89652 0
M  V30 3131 H 298.077 0.431655 0.504549 0
M  V30 3132 H 300.607 1.74094 1.07483 0
M  V30 3133 H 300.617 2.10709 3.49379 0
M  V30 3134 H 299.292 3.04847 2.82916 0
M  V30 3135 H 297.869 1.33696 3.48109 0
M  V30 3136 N 300.054 -1.07777 1.14986 0
M  V30 3137 C 300.984 -2.16865 0.865557 0
M  V30 3138 C 301.965 -1.69123 -0.182083 0
M  V30 3139 O 303.15 -1.94164 -0.0373815 0
M  V30 3140 C 300.28 -3.45539 0.349313 0
M  V30 3141 C 299.234 -4.06708 1.33313 0
M  V30 3142 C 298.56 -5.30411 0.675918 0
M  V30 3143 C 299.86 -4.47241 2.69764 0
M  V30 3144 H 301.554 -2.40905 1.77778 0
M  V30 3145 H 299.1 -1.15781 0.856203 0
M  V30 3146 H 301.053 -4.21174 0.137983 0
M  V30 3147 H 299.777 -3.21072 -0.598362 0
M  V30 3148 H 298.436 -3.33112 1.53075 0
M  V30 3149 H 298.084 -5.02232 -0.277767 0
M  V30 3150 H 297.784 -5.72293 1.33244 0
M  V30 3151 H 299.308 -6.08755 0.474262 0
M  V30 3152 H 300.722 -5.14025 2.53873 0
M  V30 3153 H 299.119 -5.00062 3.3175 0
M  V30 3154 H 300.189 -3.58818 3.26156 0
M  V30 3155 N 301.532 -0.945985 -1.26051 0
M  V30 3156 C 302.462 -0.477172 -2.28572 0
M  V30 3157 C 303.443 0.472032 -1.63419 0
M  V30 3158 O 304.628 0.372853 -1.90587 0
M  V30 3159 C 301.758 0.253975 -3.4637 0
M  V30 3160 C 300.712 -0.609135 -4.23643 0
M  V30 3161 C 300.038 0.252252 -5.34105 0
M  V30 3162 C 301.338 -1.8829 -4.8718 0
M  V30 3163 H 303.032 -1.33402 -2.68038 0
M  V30 3164 H 300.578 -0.642904 -1.28852 0
M  V30 3165 H 302.531 0.593016 -4.17207 0
M  V30 3166 H 301.255 1.145 -3.05871 0
M  V30 3167 H 299.914 -0.931138 -3.54578 0
M  V30 3168 H 299.562 1.14278 -4.89846 0
M  V30 3169 H 299.262 -0.32188 -5.86718 0
M  V30 3170 H 300.786 0.586454 -6.07777 0
M  V30 3171 H 302.2 -1.61081 -5.50205 0
M  V30 3172 H 300.597 -2.40199 -5.49931 0
M  V30 3173 H 301.667 -2.59134 -4.09851 0
M  V30 3174 N 303.011 1.40521 -0.713556 0
M  V30 3175 C 303.974 2.29098 -0.0684347 0
M  V30 3176 C 304.974 1.45268 0.689472 0
M  V30 3177 O 306.164 1.66205 0.521677 0
M  V30 3178 C 303.296 3.28446 0.913024 0
M  V30 3179 H 304.489 2.87645 -0.84855 0
M  V30 3180 H 302.042 1.48809 -0.47809 0
M  V30 3181 H 302.777 2.74913 1.72027 0
M  V30 3182 H 302.562 3.90327 0.372472 0
M  V30 3183 H 304.052 3.94777 1.36165 0
M  V30 3184 N 304.489 0.459591 1.5075 0
M  V30 3185 C 305.766 -0.160371 1.94941 0
M  V30 3186 C 306.146 -1.58048 1.39943 0
M  V30 3187 O 305.494 -2.206 0.595629 0
M  V30 3188 C 305.704 -0.115432 3.48809 0
M  V30 3189 C 307.052 -0.310026 4.23467 0
M  V30 3190 O 308.076 -0.192543 3.55679 0
M  V30 3191 O 306.935 -0.546031 5.43765 0
M  V30 3192 H 304.029 -0.117925 0.818549 0
M  V30 3193 H 306.575 0.519169 1.61563 0
M  V30 3194 H 305.347 0.87652 3.81357 0
M  V30 3195 H 304.97 -0.836928 3.88692 0
M  V30 3196 N 305.967 -1.56429 0.191757 0
M  V30 3197 C 307.216 -1.9666 -0.448088 0
M  V30 3198 C 307.529 -1.08136 -1.62991 0
M  V30 3199 O 308.735 -1.38135 -2.33733 0
M  V30 3200 C 307.191 -3.49753 -0.848585 0
M  V30 3201 C 306.799 -4.46935 0.308764 0
M  V30 3202 C 308.543 -3.9876 -1.4557 0
M  V30 3203 C 306.45 -5.91293 -0.112506 0
M  V30 3204 H 305.38 -0.734312 -0.171179 0
M  V30 3205 H 308.031 -1.81301 0.283242 0
M  V30 3206 H 306.413 -3.60604 -1.63649 0
M  V30 3207 H 307.587 -4.47813 1.08627 0
M  V30 3208 H 305.902 -4.08102 0.827158 0
M  V30 3209 H 308.499 -5.04086 -1.78328 0
M  V30 3210 H 308.842 -3.42875 -2.36099 0
M  V30 3211 H 309.375 -3.9101 -0.731836 0
M  V30 3212 H 306.114 -6.51097 0.758514 0
M  V30 3213 H 305.634 -5.93676 -0.854941 0
M  V30 3214 H 307.313 -6.44663 -0.549448 0
M  V30 3215 N 307.445 0.0818655 -1.57387 0
M  V30 3216 C 308.685 0.788375 -1.88584 0
M  V30 3217 C 309.049 1.75248 -0.784351 0
M  V30 3218 O 310.25 2.50334 -0.979105 0
M  V30 3219 C 308.521 1.48654 -3.25018 0
M  V30 3220 S 310.08 2.22951 -3.7794 0
M  V30 3221 H 306.898 0.262383 -0.660815 0
M  V30 3222 H 309.5 0.0448995 -1.95448 0
M  V30 3223 H 308.204 0.770919 -4.03094 0
M  V30 3224 H 307.735 2.26965 -3.21326 0
M  V30 3225 H 309.75 3.49309 -3.52417 0
M  V30 3226 N 308.923 1.53595 0.353017 0
M  V30 3227 C 309.871 1.81605 1.45335 0
M  V30 3228 C 310.865 0.685923 1.54892 0
M  V30 3229 O 312.071 0.869095 1.57628 0
M  V30 3230 H 308.446 0.575204 0.484401 0
M  V30 3231 H 310.417 2.73679 1.18921 0
M  V30 3232 C 309.166 2.03406 2.81995 0
M  V30 3233 H 308.489 2.89814 2.75405 0
M  V30 3234 H 309.929 2.26975 3.58132 0
M  V30 3235 C 308.388 0.816794 3.26849 0
M  V30 3236 O 308.918 0.0115856 4.01698 0
M  V30 3237 N 307.124 0.636682 2.8354 0
M  V30 3238 H 306.671 1.2931 2.22793 0
M  V30 3239 H 306.629 -0.176336 3.13905 0
M  V30 3240 N 310.401 -0.613514 1.45168 0
M  V30 3241 C 311.331 -1.7354 1.56225 0
M  V30 3242 C 312.312 -1.64981 0.41414 0
M  V30 3243 O 313.497 -1.83472 0.636526 0
M  V30 3244 C 310.627 -3.12128 1.52295 0
M  V30 3245 C 309.581 -3.35491 2.65762 0
M  V30 3246 C 308.907 -4.74291 2.46885 0
M  V30 3247 C 310.207 -3.26325 4.0781 0
M  V30 3248 H 311.901 -1.64543 2.50132 0
M  V30 3249 H 309.447 -0.790185 1.20383 0
M  V30 3250 H 311.4 -3.90404 1.58628 0
M  V30 3251 H 310.124 -3.2195 0.549139 0
M  V30 3252 H 308.783 -2.59603 2.58847 0
M  V30 3253 H 308.431 -4.80839 1.47657 0
M  V30 3254 H 308.131 -4.9088 3.22972 0
M  V30 3255 H 309.655 -5.54775 2.55063 0
M  V30 3256 H 311.069 -3.94483 4.16 0
M  V30 3257 H 309.466 -3.54445 4.8424 0
M  V30 3258 H 310.536 -2.23855 4.30136 0
M  V30 3259 N 311.879 -1.3236 -0.855495 0
M  V30 3260 C 313.125 -1.24064 -1.61182 0
M  V30 3261 C 313.48 0.195914 -1.914 0
M  V30 3262 O 312.773 1.13345 -1.54478 0
M  V30 3263 C 312.967 -2.03275 -2.93963 0
M  V30 3264 C 312.796 -3.54486 -2.76712 0
M  V30 3265 C 311.566 -4.23824 -2.75139 0
M  V30 3266 C 313.764 -4.49154 -2.50531 0
M  V30 3267 N 311.746 -5.61095 -2.4909 0
M  V30 3268 C 313.117 -5.74195 -2.3388 0
M  V30 3269 C 315.172 -4.3842 -2.35992 0
M  V30 3270 C 313.875 -6.89716 -2.04168 0
M  V30 3271 C 315.901 -5.53739 -2.0767 0
M  V30 3272 C 315.263 -6.77779 -1.9182 0
M  V30 3273 H 311.362 -0.509139 -0.59355 0
M  V30 3274 H 313.946 -1.66715 -1.00569 0
M  V30 3275 H 312.117 -1.6297 -3.52555 0
M  V30 3276 H 313.849 -1.86881 -3.58967 0
M  V30 3277 H 310.604 -3.75934 -2.88047 0
M  V30 3278 H 311.028 -6.33411 -2.38996 0
M  V30 3279 H 315.67 -3.43172 -2.46967 0
M  V30 3280 H 313.388 -7.84977 -1.9193 0
M  V30 3281 H 316.974 -5.4736 -1.97201 0
M  V30 3282 H 315.854 -7.65504 -1.70217 0
M  V30 3283 N 313.357 1.07166 -1.15556 0
M  V30 3284 C 314.773 1.31899 -0.898603 0
M  V30 3285 C 314.973 1.96333 0.453383 0
M  V30 3286 O 314.029 2.22438 1.19489 0
M  V30 3287 C 315.342 2.20826 -2.04099 0
M  V30 3288 C 316.89 2.34269 -2.07574 0
M  V30 3289 C 317.365 3.26546 -3.21141 0
M  V30 3290 N 318.856 3.34127 -3.20801 0
M  V30 3291 C 319.591 4.05595 -4.05315 0
M  V30 3292 N 319.087 4.79661 -4.99897 0
M  V30 3293 N 320.88 4.01555 -3.93332 0
M  V30 3294 H 313.031 0.637302 -2.02613 0
M  V30 3295 H 315.294 0.343468 -0.883591 0
M  V30 3296 H 315 1.80744 -3.01703 0
M  V30 3297 H 314.874 3.21364 -1.97496 0
M  V30 3298 H 317.261 2.73603 -1.10568 0
M  V30 3299 H 317.342 1.33429 -2.18244 0
M  V30 3300 H 316.986 2.87931 -4.184 0
M  V30 3301 H 316.916 4.27345 -3.07708 0
M  V30 3302 H 319.407 2.81336 -2.52306 0
M  V30 3303 H 319.72 5.31694 -5.60822 0
M  V30 3304 H 318.065 4.78671 -5.03884 0
M  V30 3305 H 321.256 3.42806 -3.18751 0
M  V30 3306 H 321.429 4.56987 -4.5942 0
M  V30 3307 N 314.835 0.952656 1.25548 0
M  V30 3308 C 315.783 0.462354 2.27958 0
M  V30 3309 C 316.777 -0.46634 1.62855 0
M  V30 3310 O 317.983 -0.343287 1.76696 0
M  V30 3311 H 314.358 0.13101 0.7405 0
M  V30 3312 H 316.329 1.33839 2.66702 0
M  V30 3313 C 315.078 -0.24628 3.46827 0
M  V30 3314 H 314.401 0.459192 3.97154 0
M  V30 3315 H 315.841 -0.553393 4.20373 0
M  V30 3316 C 314.3 -1.4681 3.0323 0
M  V30 3317 O 314.83 -2.56591 3.09069 0
M  V30 3318 N 313.036 -1.32874 2.58443 0
M  V30 3319 H 312.583 -0.435536 2.53891 0
M  V30 3320 H 312.541 -2.14742 2.29637 0
M  V30 3321 N 316.313 -1.40141 0.720998 0
M  V30 3322 C 317.543 -2.04798 0.27226 0
M  V30 3323 C 317.951 -1.54442 -1.09289 0
M  V30 3324 O 317.294 -0.698342 -1.69908 0
M  V30 3325 C 317.356 -3.59048 0.18027 0
M  V30 3326 C 317.02 -4.32317 1.48159 0
M  V30 3327 C 318.017 -4.59902 2.42458 0
M  V30 3328 C 315.702 -4.71125 1.74202 0
M  V30 3329 C 317.696 -5.25288 3.61042 0
M  V30 3330 C 315.383 -5.36242 2.93066 0
M  V30 3331 C 316.381 -5.63254 3.86308 0
M  V30 3332 O 316.069 -6.27024 5.03086 0
M  V30 3333 H 315.801 -0.665419 0.119139 0
M  V30 3334 H 318.355 -1.80436 0.981432 0
M  V30 3335 H 316.585 -3.82251 -0.58489 0
M  V30 3336 H 318.274 -4.05221 -0.234618 0
M  V30 3337 H 319.04 -4.30379 2.23604 0
M  V30 3338 H 314.919 -4.49466 1.02477 0
M  V30 3339 H 318.463 -5.46289 4.33837 0
M  V30 3340 H 314.36 -5.65185 3.11826 0
M  V30 3341 H 315.128 -6.4552 5.03235 0
M  V30 3342 N 317.792 -0.46758 -1.50504 0
M  V30 3343 C 319.069 0.15003 -1.95024 0
M  V30 3344 C 319.449 1.57304 -1.40779 0
M  V30 3345 O 318.797 2.20281 -0.607319 0
M  V30 3346 C 319.007 0.0969324 -3.48865 0
M  V30 3347 C 320.355 0.287565 -4.23625 0
M  V30 3348 O 321.379 0.173678 -3.55776 0
M  V30 3349 O 320.238 0.517186 -5.44047 0
M  V30 3350 H 317.332 0.113582 -0.819163 0
M  V30 3351 H 319.878 -0.52773 -1.61286 0
M  V30 3352 H 318.65 -0.896732 -3.80886 0
M  V30 3353 H 318.273 0.816303 -3.8913 0
M  V30 3354 N 319.27 1.56325 -0.20005 0
M  V30 3355 C 320.547 1.89484 0.48529 0
M  V30 3356 C 320.927 1.1143 1.79294 0
M  V30 3357 O 320.275 0.216919 2.27468 0
M  V30 3358 C 320.485 3.41923 0.699243 0
M  V30 3359 C 321.833 4.12256 1.01638 0
M  V30 3360 O 322.857 3.47402 0.786792 0
M  V30 3361 O 321.716 5.26887 1.45095 0
M  V30 3362 H 318.81 0.787144 0.253639 0
M  V30 3363 H 321.356 1.67985 -0.240633 0
M  V30 3364 H 320.128 3.90658 -0.224008 0
M  V30 3365 H 319.751 3.69131 1.47744 0
M  V30 3366 N 320.748 -0.0735177 1.57428 0
M  V30 3367 C 321.997 -0.771809 1.86349 0
M  V30 3368 C 322.31 -1.78828 0.792452 0
M  V30 3369 O 323.516 -2.53602 0.96945 0
M  V30 3370 C 321.972 -1.42358 3.30548 0
M  V30 3371 C 321.58 -0.445761 4.45777 0
M  V30 3372 C 323.324 -2.10434 3.6867 0
M  V30 3373 C 321.231 -1.10335 5.81016 0
M  V30 3374 H 320.161 -0.291999 0.695164 0
M  V30 3375 H 322.812 -0.0250749 1.83483 0
M  V30 3376 H 321.194 -2.21852 3.28021 0
M  V30 3377 H 322.368 0.319239 4.59693 0
M  V30 3378 H 320.683 0.130457 4.16196 0
M  V30 3379 H 323.28 -2.60405 4.67004 0
M  V30 3380 H 323.623 -2.90298 2.98383 0
M  V30 3381 H 324.156 -1.37773 3.7318 0
M  V30 3382 H 320.895 -0.345061 6.54591 0
M  V30 3383 H 320.415 -1.83925 5.70904 0
M  V30 3384 H 322.094 -1.62367 6.26295 0
M  V30 3385 N 322.226 -1.5378 -0.344866 0
M  V30 3386 C 323.158 -1.77988 -1.44406 0
M  V30 3387 C 324.171 -0.661138 -1.48771 0
M  V30 3388 O 325.36 -0.937842 -1.51877 0
M  V30 3389 C 322.46 -1.86345 -2.8307 0
M  V30 3390 C 321.633 -3.16256 -3.0216 0
M  V30 3391 C 320.692 -3.15588 -4.21059 0
M  V30 3392 O 319.718 -3.89314 -4.15239 0
M  V30 3393 N 320.92 -2.37864 -5.29529 0
M  V30 3394 H 323.685 -2.72839 -1.24012 0
M  V30 3395 H 321.246 -1.52814 -0.534737 0
M  V30 3396 H 323.238 -1.83351 -3.60783 0
M  V30 3397 H 321.808 -0.986858 -2.96614 0
M  V30 3398 H 321.028 -3.32385 -2.11929 0
M  V30 3399 H 322.316 -4.0207 -3.11797 0
M  V30 3400 H 321.714 -1.77514 -5.37127 0
M  V30 3401 H 320.271 -2.40668 -6.05741 0
M  V30 3402 N 323.704 0.605807 -1.45491 0
M  V30 3403 C 324.981 1.36522 -1.40075 0
M  V30 3404 C 325.361 2.10976 -0.0722744 0
M  V30 3405 O 324.709 2.08007 0.945808 0
M  V30 3406 C 324.919 2.31056 -2.61561 0
M  V30 3407 C 326.267 2.93608 -3.06724 0
M  V30 3408 O 327.291 2.41376 -2.61946 0
M  V30 3409 O 326.15 3.88421 -3.84437 0
M  V30 3410 H 323.244 0.612248 -0.555951 0
M  V30 3411 H 325.79 0.628747 -1.57623 0
M  V30 3412 H 324.562 1.75311 -3.49831 0
M  V30 3413 H 324.185 3.12081 -2.46356 0
M  V30 3414 N 325.182 1.32811 0.848464 0
M  V30 3415 C 326.407 1.26882 1.6406 0
M  V30 3416 C 326.832 -0.15913 1.87426 0
M  V30 3417 O 326.19 -1.11258 1.43148 0
M  V30 3418 C 326.238 2.03997 2.97351 0
M  V30 3419 O 325.342 1.39201 3.88197 0
M  V30 3420 H 324.683 0.436982 0.499943 0
M  V30 3421 H 327.213 1.75224 1.0563 0
M  V30 3422 H 327.223 2.14403 3.47124 0
M  V30 3423 H 325.898 3.0783 2.79666 0
M  V30 3424 H 324.475 1.37381 3.46671 0
M  V30 3425 N 326.66 -1.06551 1.16123 0
M  V30 3426 C 327.906 -1.79719 0.952505 0
M  V30 3427 C 328.261 -1.85396 -0.514385 0
M  V30 3428 O 327.554 -1.33263 -1.37665 0
M  V30 3429 C 327.748 -3.23911 1.51052 0
M  V30 3430 C 327.577 -3.32284 3.03013 0
M  V30 3431 C 326.347 -3.42371 3.71632 0
M  V30 3432 C 328.545 -3.22363 4.00732 0
M  V30 3433 N 326.527 -3.39732 5.11327 0
M  V30 3434 C 327.898 -3.26937 5.26794 0
M  V30 3435 C 329.953 -3.0623 3.92591 0
M  V30 3436 C 328.656 -3.17035 6.45663 0
M  V30 3437 C 330.682 -2.97665 5.11028 0
M  V30 3438 C 330.044 -3.02858 6.35969 0
M  V30 3439 H 326.143 -0.670585 0.402293 0
M  V30 3440 H 328.727 -1.27125 1.4747 0
M  V30 3441 H 326.898 -3.74907 1.01484 0
M  V30 3442 H 328.63 -3.85242 1.2398 0
M  V30 3443 H 325.385 -3.47058 3.22254 0
M  V30 3444 H 325.809 -3.41919 5.84312 0
M  V30 3445 H 330.451 -3.01063 2.96852 0
M  V30 3446 H 328.169 -3.2096 7.41627 0
M  V30 3447 H 331.755 -2.86273 5.06497 0
M  V30 3448 H 330.635 -2.96286 7.26075 0
M  V30 3449 N 328.138 -0.959301 -1.25041 0
M  V30 3450 C 329.384 -0.627096 -1.93492 0
M  V30 3451 C 329.739 0.827484 -1.73696 0
M  V30 3452 O 329.032 1.58651 -1.07427 0
M  V30 3453 C 329.226 -0.927136 -3.45165 0
M  V30 3454 C 329.055 -2.40933 -3.79712 0
M  V30 3455 C 327.825 -3.0677 -4.01522 0
M  V30 3456 C 330.023 -3.38894 -3.86853 0
M  V30 3457 N 328.005 -4.44815 -4.231 0
M  V30 3458 C 329.376 -4.62263 -4.13174 0
M  V30 3459 C 331.431 -3.33668 -3.69554 0
M  V30 3460 C 330.134 -5.81052 -4.23995 0
M  V30 3461 C 332.16 -4.518 -3.81616 0
M  V30 3462 C 331.522 -5.73957 -4.08354 0
M  V30 3463 H 327.621 -0.280166 -0.73009 0
M  V30 3464 H 330.205 -1.23244 -1.50729 0
M  V30 3465 H 328.376 -0.350685 -3.86814 0
M  V30 3466 H 330.108 -0.554361 -4.00885 0
M  V30 3467 H 326.863 -2.57327 -3.97593 0
M  V30 3468 H 327.287 -5.16319 -4.37885 0
M  V30 3469 H 331.929 -2.40268 -3.47895 0
M  V30 3470 H 329.647 -6.74888 -4.44468 0
M  V30 3471 H 333.233 -4.49309 -3.69612 0
M  V30 3472 H 332.113 -6.6384 -4.17475 0
M  V30 3473 N 329.616 1.39756 -0.72842 0
M  V30 3474 C 330.841 2.05472 -0.282159 0
M  V30 3475 C 331.266 1.54549 1.07221 0
M  V30 3476 O 330.624 0.686372 1.67805 0
M  V30 3477 C 330.672 3.59462 -0.286264 0
M  V30 3478 O 329.776 4.05918 0.728298 0
M  V30 3479 H 329.117 0.651226 -0.129618 0
M  V30 3480 H 331.647 1.78915 -0.992499 0
M  V30 3481 H 331.657 4.07798 -0.128373 0
M  V30 3482 H 330.332 3.95889 -1.27456 0
M  V30 3483 H 328.909 3.69012 0.537081 0
M  V30 3484 N 331.094 0.475555 1.50254 0
M  V30 3485 C 332.34 -0.0780073 2.0265 0
M  V30 3486 C 332.673 -1.38968 1.35652 0
M  V30 3487 O 331.948 -1.8839 0.483691 0
M  V30 3488 C 332.231 -0.257161 3.59181 0
M  V30 3489 C 332.084 1.07585 4.36744 0
M  V30 3490 C 333.403 -1.00965 4.28362 0
M  V30 3491 H 330.522 -0.0268758 0.73651 0
M  V30 3492 H 333.164 0.622015 1.7953 0
M  V30 3493 H 331.314 -0.853412 3.79011 0
M  V30 3494 H 332.986 1.70902 4.28474 0
M  V30 3495 H 331.229 1.6714 4.00308 0
M  V30 3496 H 331.9 0.904088 5.44546 0
M  V30 3497 H 334.376 -0.504214 4.13034 0
M  V30 3498 H 333.252 -1.10381 5.37687 0
M  V30 3499 H 333.513 -2.04731 3.91839 0
M  V30 3500 N 332.573 -1.56217 0.208337 0
M  V30 3501 C 333.503 -2.22694 -0.702116 0
M  V30 3502 C 334.484 -1.19432 -1.2112 0
M  V30 3503 O 335.669 -1.47978 -1.25762 0
M  V30 3504 C 332.799 -2.8966 -1.9161 0
M  V30 3505 C 331.753 -3.9928 -1.5414 0
M  V30 3506 C 331.079 -4.53476 -2.83308 0
M  V30 3507 C 332.379 -5.17012 -0.741339 0
M  V30 3508 H 334.073 -2.99034 -0.147898 0
M  V30 3509 H 331.619 -1.43831 -0.0696951 0
M  V30 3510 H 333.572 -3.34852 -2.55836 0
M  V30 3511 H 332.296 -2.10746 -2.49507 0
M  V30 3512 H 330.955 -3.54799 -0.922668 0
M  V30 3513 H 330.603 -3.71308 -3.39322 0
M  V30 3514 H 330.303 -5.27451 -2.58976 0
M  V30 3515 H 331.827 -5.01378 -3.485 0
M  V30 3516 H 333.241 -5.58667 -1.28699 0
M  V30 3517 H 331.638 -5.97137 -0.595627 0
M  V30 3518 H 332.708 -4.8423 0.254851 0
M  V30 3519 N 334.051 0.0651679 -1.57465 0
M  V30 3520 C 335.276 0.779605 -1.9219 0
M  V30 3521 C 335.701 1.69988 -0.805333 0
M  V30 3522 O 335.059 1.79685 0.241435 0
M  V30 3523 C 335.107 1.54364 -3.2589 0
M  V30 3524 O 334.211 2.65474 -3.1559 0
M  V30 3525 H 333.552 0.212249 -0.629163 0
M  V30 3526 H 336.082 0.0314294 -2.04576 0
M  V30 3527 H 336.092 1.92146 -3.59922 0
M  V30 3528 H 334.767 0.868457 -4.06732 0
M  V30 3529 H 333.344 2.30501 -2.93128 0
M  V30 3530 N 335.529 1.53961 0.336706 0
M  V30 3531 C 336.778 1.70751 1.07363 0
M  V30 3532 C 337.091 0.481061 1.89592 0
M  V30 3533 O 338.297 0.530046 2.66276 0
M  V30 3534 C 336.753 3.01965 1.95818 0
M  V30 3535 C 336.361 4.31971 1.18764 0
M  V30 3536 C 338.105 3.28121 2.69327 0
M  V30 3537 C 336.012 5.54255 2.06289 0
M  V30 3538 H 334.942 0.636292 0.404535 0
M  V30 3539 H 337.593 1.80459 0.332681 0
M  V30 3540 H 335.975 2.86132 2.7376 0
M  V30 3541 H 337.149 4.5853 0.456849 0
M  V30 3542 H 335.464 4.12481 0.569946 0
M  V30 3543 H 338.061 4.16673 3.35094 0
M  V30 3544 H 338.404 2.45426 3.36261 0
M  V30 3545 H 338.937 3.44762 1.98454 0
M  V30 3546 H 335.676 6.39513 1.43885 0
M  V30 3547 H 335.196 5.31935 2.77138 0
M  V30 3548 H 336.875 5.90159 2.65182 0
M  V30 3549 N 337.007 -0.598083 1.45811 0
M  V30 3550 C 337.937 -1.71873 1.58057 0
M  V30 3551 C 338.918 -1.64533 0.431615 0
M  V30 3552 O 340.103 -1.82787 0.65595 0
M  V30 3553 C 337.233 -3.10495 1.55597 0
M  V30 3554 C 336.187 -3.32654 2.69305 0
M  V30 3555 C 335.513 -4.71646 2.51902 0
M  V30 3556 C 336.813 -3.21981 4.11248 0
M  V30 3557 H 338.507 -1.61881 2.51863 0
M  V30 3558 H 336.053 -0.777372 1.21214 0
M  V30 3559 H 338.006 -3.88699 1.6276 0
M  V30 3560 H 336.73 -3.2135 0.583255 0
M  V30 3561 H 335.389 -2.56843 2.61586 0
M  V30 3562 H 335.037 -4.79246 1.52748 0
M  V30 3563 H 334.737 -4.87426 3.2816 0
M  V30 3564 H 336.261 -5.52038 2.60933 0
M  V30 3565 H 337.675 -3.90049 4.20161 0
M  V30 3566 H 336.072 -3.49289 4.87972 0
M  V30 3567 H 337.142 -2.1928 4.32486 0
M  V30 3568 N 338.485 -1.33259 -0.841409 0
M  V30 3569 C 339.433 -1.23279 -1.97244 0
M  V30 3570 C 340.427 -0.134706 -1.68864 0
M  V30 3571 O 341.633 -0.298501 -1.77508 0
M  V30 3572 H 338.008 -0.382497 -0.647457 0
M  V30 3573 H 339.979 -2.18906 -2.02787 0
M  V30 3574 C 338.728 -0.986268 -3.33419 0
M  V30 3575 H 338.051 -1.82347 -3.55794 0
M  V30 3576 H 339.491 -0.956728 -4.13065 0
M  V30 3577 C 337.95 0.310842 -3.35463 0
M  V30 3578 O 338.48 1.31838 -3.79449 0
M  V30 3579 N 336.686 0.337485 -2.88634 0
M  V30 3580 H 336.233 -0.482967 -2.53032 0
M  V30 3581 H 336.191 1.20518 -2.90384 0
M  V30 3582 N 339.963 1.05934 -1.16686 0
M  V30 3583 C 341.209 1.79211 -0.962023 0
M  V30 3584 C 341.564 1.85667 0.504545 0
M  V30 3585 O 340.857 1.33991 1.36956 0
M  V30 3586 C 341.051 3.23105 -1.52767 0
M  V30 3587 C 340.88 3.30673 -3.04771 0
M  V30 3588 C 339.65 3.40395 -3.73442 0
M  V30 3589 C 341.848 3.20234 -4.02436 0
M  V30 3590 N 339.83 3.37015 -5.13122 0
M  V30 3591 C 341.201 3.24138 -5.28521 0
M  V30 3592 C 343.256 3.04143 -3.9421 0
M  V30 3593 C 341.959 3.13607 -6.47336 0
M  V30 3594 C 343.985 2.94951 -5.12599 0
M  V30 3595 C 343.347 2.99481 -6.37566 0
M  V30 3596 H 339.446 0.668442 -0.405844 0
M  V30 3597 H 342.03 1.26341 -1.48142 0
M  V30 3598 H 340.201 3.74364 -1.03471 0
M  V30 3599 H 341.933 3.84579 -1.26021 0
M  V30 3600 H 338.688 3.45344 -3.2409 0
M  V30 3601 H 339.112 3.38815 -5.86117 0
M  V30 3602 H 343.754 2.99484 -2.98445 0
M  V30 3603 H 341.472 3.17022 -7.43319 0
M  V30 3604 H 345.058 2.83583 -5.08008 0
M  V30 3605 H 343.938 2.92431 -7.27636 0
M  V30 3606 N 341.441 0.965919 1.2453 0
M  V30 3607 C 342.688 0.626831 1.92554 0
M  V30 3608 C 343.016 -0.837739 1.75534 0
M  V30 3609 O 342.271 -1.61793 1.10098 0
M  V30 3610 C 342.57 0.945428 3.44669 0
M  V30 3611 C 342.236 2.39785 3.81856 0
M  V30 3612 C 340.898 2.79483 3.91718 0
M  V30 3613 C 343.25 3.34055 4.00071 0
M  V30 3614 C 340.578 4.12496 4.1721 0
M  V30 3615 C 342.93 4.66694 4.27059 0
M  V30 3616 C 341.594 5.06172 4.3514 0
M  V30 3617 H 340.864 0.229374 0.704605 0
M  V30 3618 H 343.511 1.21707 1.4785 0
M  V30 3619 H 341.816 0.272926 3.90848 0
M  V30 3620 H 343.513 0.661484 3.95507 0
M  V30 3621 H 340.103 2.08003 3.74743 0
M  V30 3622 H 344.287 3.04571 3.91855 0
M  V30 3623 H 339.543 4.42709 4.21685 0
M  V30 3624 H 343.717 5.3971 4.40097 0
M  V30 3625 H 341.344 6.09262 4.54646 0
M  V30 3626 N 342.919 -1.39368 0.735821 0
M  V30 3627 C 344.165 -2.00794 0.284544 0
M  V30 3628 C 344.498 -1.58255 -1.12557 0
M  V30 3629 O 343.773 -0.811819 -1.76748 0
M  V30 3630 C 344.056 -3.58011 0.387337 0
M  V30 3631 C 343.909 -4.10566 1.83728 0
M  V30 3632 C 345.228 -4.395 -0.22975 0
M  V30 3633 H 342.347 -0.729501 0.104866 0
M  V30 3634 H 344.989 -1.65564 0.93213 0
M  V30 3635 H 343.139 -3.88154 -0.164006 0
M  V30 3636 H 344.811 -3.91139 2.44556 0
M  V30 3637 H 343.054 -3.64095 2.35833 0
M  V30 3638 H 343.725 -5.19702 1.86047 0
M  V30 3639 H 346.201 -4.15406 0.240257 0
M  V30 3640 H 345.077 -5.48752 -0.127485 0
M  V30 3641 H 345.338 -4.22062 -1.3159 0
M  V30 3642 N 344.397 -0.483516 -1.5 0
M  V30 3643 C 345.307 0.309172 -2.32554 0
M  V30 3644 C 346.323 0.984159 -1.43493 0
M  V30 3645 O 347.499 0.969399 -1.76535 0
M  V30 3646 C 344.564 1.36979 -3.18493 0
M  V30 3647 C 343.625 0.710095 -4.23387 0
M  V30 3648 C 342.858 1.72018 -5.05218 0
M  V30 3649 O 343.081 2.94813 -4.88305 0
M  V30 3650 O 342.015 1.28515 -5.8802 0
M  V30 3651 H 345.841 -0.366064 -3.01486 0
M  V30 3652 H 343.426 -0.24514 -1.47375 0
M  V30 3653 H 345.308 1.98385 -3.71781 0
M  V30 3654 H 343.983 2.02828 -2.52275 0
M  V30 3655 H 342.89 0.0567539 -3.74057 0
M  V30 3656 H 344.223 0.0943557 -4.9211 0
M  V30 3657 N 345.875 1.56104 -0.216619 0
M  V30 3658 C 346.825 2.16703 0.708798 0
M  V30 3659 C 347.809 1.11392 1.16106 0
M  V30 3660 O 349.001 1.37395 1.11587 0
M  V30 3661 C 346.13 2.84666 1.91886 0
M  V30 3662 C 345.216 3.97195 1.48651 0
M  V30 3663 N 345.607 4.99959 0.766434 0
M  V30 3664 C 343.905 4.09193 1.77418 0
M  V30 3665 C 344.606 5.79126 0.546659 0
M  V30 3666 N 343.582 5.32315 1.10188 0
M  V30 3667 H 347.384 2.93516 0.150162 0
M  V30 3668 H 344.898 1.6239 -0.0176768 0
M  V30 3669 H 346.895 3.26486 2.59253 0
M  V30 3670 H 345.555 2.09347 2.48202 0
M  V30 3671 H 346.566 5.16197 0.419634 0
M  V30 3672 H 343.243 3.45021 2.35088 0
M  V30 3673 H 344.633 6.71895 -0.026103 0
M  V30 3674 N 347.353 -0.0568162 1.57498 0
M  V30 3675 C 348.285 -1.09292 2.01464 0
M  V30 3676 C 349.298 -1.34112 0.922913 0
M  V30 3677 O 350.487 -1.32089 1.20062 0
M  V30 3678 C 347.587 -2.44068 2.35125 0
M  V30 3679 C 346.76 -2.38995 3.66333 0
M  V30 3680 C 345.819 -3.55997 3.87495 0
M  V30 3681 O 344.845 -3.36746 4.58901 0
M  V30 3682 N 346.047 -4.76888 3.30996 0
M  V30 3683 H 348.812 -0.718386 2.90963 0
M  V30 3684 H 346.373 -0.245235 1.60032 0
M  V30 3685 H 348.365 -3.21011 2.46443 0
M  V30 3686 H 346.935 -2.73468 1.5144 0
M  V30 3687 H 346.155 -1.47336 3.65631 0
M  V30 3688 H 347.443 -2.3272 4.52458 0
M  V30 3689 H 346.841 -4.95431 2.73065 0
M  V30 3690 H 345.398 -5.51291 3.47738 0
M  V30 3691 N 348.832 -1.54138 -0.328536 0
M  V30 3692 C 350.109 -1.62749 -1.08499 0
M  V30 3693 C 350.489 -0.458198 -2.06067 0
M  V30 3694 O 349.837 0.548046 -2.2183 0
M  V30 3695 C 350.047 -2.99519 -1.79135 0
M  V30 3696 C 351.395 -3.55394 -2.32337 0
M  V30 3697 O 352.419 -3.01792 -1.89209 0
M  V30 3698 O 351.278 -4.49186 -3.11279 0
M  V30 3699 H 348.372 -0.65886 -0.499832 0
M  V30 3700 H 350.918 -1.66484 -0.328826 0
M  V30 3701 H 349.69 -3.76061 -1.08139 0
M  V30 3702 H 349.313 -2.99441 -2.61574 0
M  V30 3703 N 350.31 0.590341 -1.46126 0
M  V30 3704 C 351.559 1.34499 -1.50309 0
M  V30 3705 C 351.872 1.94977 -0.156021 0
M  V30 3706 O 353.078 2.71395 -0.0756037 0
M  V30 3707 C 351.534 2.43723 -2.64815 0
M  V30 3708 C 351.142 1.89582 -4.0591 0
M  V30 3709 C 352.886 3.20579 -2.78262 0
M  V30 3710 C 350.793 2.9639 -5.11769 0
M  V30 3711 H 349.723 0.505593 -0.559368 0
M  V30 3712 H 352.374 0.630848 -1.72315 0
M  V30 3713 H 350.756 3.17902 -2.36124 0
M  V30 3714 H 351.93 1.21997 -4.44357 0
M  V30 3715 H 350.245 1.25418 -3.97063 0
M  V30 3716 H 352.842 4.00276 -3.54519 0
M  V30 3717 H 353.185 3.72684 -1.85505 0
M  V30 3718 H 353.718 2.53505 -3.06562 0
M  V30 3719 H 350.457 2.49181 -6.06291 0
M  V30 3720 H 349.977 3.62487 -4.77873 0
M  V30 3721 H 351.656 3.60474 -5.37278 0
M  V30 3722 N 351.788 1.33704 0.83433 0
M  V30 3723 C 352.718 1.26967 1.95963 0
M  V30 3724 C 353.699 0.149337 1.69443 0
M  V30 3725 O 354.884 0.339852 1.91203 0
M  V30 3726 C 352.014 1.01275 3.32206 0
M  V30 3727 C 350.968 2.09652 3.73136 0
M  V30 3728 C 350.294 1.69166 5.07235 0
M  V30 3729 C 351.594 3.51372 3.86439 0
M  V30 3730 H 353.288 2.2112 2.01857 0
M  V30 3731 H 350.834 1.06447 0.969793 0
M  V30 3732 H 352.787 0.952106 4.10503 0
M  V30 3733 H 351.511 0.0356203 3.26581 0
M  V30 3734 H 350.17 2.14766 2.97104 0
M  V30 3735 H 349.818 0.701437 4.98085 0
M  V30 3736 H 349.518 2.41694 5.35591 0
M  V30 3737 H 351.042 1.64576 5.88003 0
M  V30 3738 H 352.456 3.48734 4.55036 0
M  V30 3739 H 350.853 4.22425 4.26236 0
M  V30 3740 H 351.923 3.89546 2.88759 0
M  V30 3741 N 353.266 -1.05314 1.17247 0
M  V30 3742 C 354.198 -2.13023 0.845812 0
M  V30 3743 C 355.211 -1.62096 -0.151246 0
M  V30 3744 O 356.4 -1.78343 0.0748818 0
M  V30 3745 C 353.5 -3.38047 0.240292 0
M  V30 3746 C 352.673 -4.18255 1.27991 0
M  V30 3747 C 351.732 -5.21625 0.692375 0
M  V30 3748 O 350.758 -5.52619 1.36385 0
M  V30 3749 N 351.96 -5.78201 -0.516178 0
M  V30 3750 H 354.725 -2.41642 1.77283 0
M  V30 3751 H 352.286 -1.21401 1.07115 0
M  V30 3752 H 354.278 -4.04359 -0.16603 0
M  V30 3753 H 352.848 -3.06972 -0.590487 0
M  V30 3754 H 352.068 -3.47451 1.86203 0
M  V30 3755 H 353.356 -4.68643 1.98119 0
M  V30 3756 H 352.754 -5.55301 -1.07969 0
M  V30 3757 H 351.311 -6.4604 -0.86458 0
M  V30 3758 N 354.744 -0.972509 -1.24016 0
M  V30 3759 C 356.155 -0.67517 -1.74064 0
M  V30 3760 C 356.506 0.808939 -1.78747 0
M  V30 3761 O 355.631 1.63286 -1.42009 0
M  V30 3762 C 356.226 -1.21889 -3.16115 0
M  V30 3763 C 354.785 -0.971358 -3.6365 0
M  V30 3764 C 353.932 -1.35134 -2.42145 0
M  V30 3765 H 356.883 -1.14727 -1.09651 0
M  V30 3766 H 356.904 -0.587489 -3.75937 0
M  V30 3767 H 356.416 -2.29906 -3.12674 0
M  V30 3768 H 354.517 0.0930686 -3.72484 0
M  V30 3769 H 354.63 -1.62039 -4.50866 0
M  V30 3770 H 352.994 -0.769751 -2.4279 0
M  V30 3771 H 353.777 -2.4411 -2.41381 0
M  V30 3772 N 356.222 1.38976 -0.743202 0
M  V30 3773 C 357.468 2.0064 -0.295189 0
M  V30 3774 C 357.801 1.5885 1.11716 0
M  V30 3775 O 357.076 0.821181 1.76315 0
M  V30 3776 C 357.359 3.578 -0.406318 0
M  V30 3777 C 357.212 4.09586 -1.85903 0
M  V30 3778 C 358.531 4.39616 0.206439 0
M  V30 3779 H 355.65 0.728935 -0.108733 0
M  V30 3780 H 358.292 1.65067 -0.940897 0
M  V30 3781 H 356.442 3.88235 0.143419 0
M  V30 3782 H 358.114 3.89837 -2.46627 0
M  V30 3783 H 356.357 3.6284 -2.3776 0
M  V30 3784 H 357.028 5.18708 -1.888 0
M  V30 3785 H 359.504 4.15273 -0.262283 0
M  V30 3786 H 358.38 5.48812 0.0983819 0
M  V30 3787 H 358.641 4.22754 1.2935 0
M  V30 3788 N 357.7 0.491464 1.49741 0
M  V30 3789 C 358.663 -0.280906 2.27472 0
M  V30 3790 C 359.663 -0.902454 1.33088 0
M  V30 3791 O 360.853 -0.768465 1.56334 0
M  V30 3792 C 357.985 -1.40209 3.10732 0
M  V30 3793 H 359.178 0.401056 2.97206 0
M  V30 3794 H 356.731 0.246131 1.5435 0
M  V30 3795 H 357.466 -2.11849 2.45541 0
M  V30 3796 H 357.251 -0.961969 3.80117 0
M  V30 3797 H 358.741 -1.9464 3.69466 0
M  V30 3798 N 359.178 -1.55987 0.224894 0
M  V30 3799 C 360.426 -1.97998 -0.405099 0
M  V30 3800 C 360.747 -1.11387 -1.60056 0
M  V30 3801 O 360.017 -0.191645 -1.9496 0
M  V30 3802 H 358.597 -0.731235 -0.152658 0
M  V30 3803 H 361.259 -1.92279 0.318567 0
M  V30 3804 H 360.355 -3.03463 -0.729167 0
M  V30 3805 N 360.656 0.0484629 -1.57525 0
M  V30 3806 C 362.067 0.597486 -1.76881 0
M  V30 3807 C 362.418 1.76664 -0.853475 0
M  V30 3808 O 361.543 2.16357 -0.0433656 0
M  V30 3809 C 362.138 1.09066 -3.20765 0
M  V30 3810 C 360.697 1.58535 -3.41385 0
M  V30 3811 C 359.844 0.514868 -2.72478 0
M  V30 3812 H 362.795 -0.177758 -1.57701 0
M  V30 3813 H 362.816 1.95875 -3.2621 0
M  V30 3814 H 362.328 0.239521 -3.8736 0
M  V30 3815 H 360.429 2.45898 -2.79937 0
M  V30 3816 H 360.542 1.64622 -4.49929 0
M  V30 3817 H 358.906 0.965407 -2.35695 0
M  V30 3818 H 359.689 -0.32648 -3.41744 0
M  V30 3819 N 362.134 1.5431 0.320358 0
M  V30 3820 C 363.382 1.72327 1.05583 0
M  V30 3821 C 363.703 0.50149 1.88441 0
M  V30 3822 O 362.973 -0.48448 1.89815 0
M  V30 3823 H 361.553 0.635387 0.3928 0
M  V30 3824 H 364.215 1.91621 0.356019 0
M  V30 3825 H 363.311 2.60426 1.72003 0
M  V30 3826 N 363.613 -0.582584 1.46437 0
M  V30 3827 C 364.563 -1.68654 1.53426 0
M  V30 3828 C 365.547 -1.55971 0.395194 0
M  V30 3829 O 366.739 -1.64884 0.643612 0
M  V30 3830 C 363.868 -3.07439 1.52762 0
M  V30 3831 C 362.954 -3.25418 2.71963 0
M  V30 3832 N 363.345 -3.13556 3.96883 0
M  V30 3833 C 361.643 -3.56357 2.68189 0
M  V30 3834 C 362.344 -3.33543 4.76575 0
M  V30 3835 N 361.32 -3.58704 4.08451 0
M  V30 3836 H 365.122 -1.58014 2.47808 0
M  V30 3837 H 362.636 -0.786617 1.42078 0
M  V30 3838 H 364.633 -3.86671 1.55857 0
M  V30 3839 H 363.293 -3.1921 0.594573 0
M  V30 3840 H 364.304 -2.9142 4.28129 0
M  V30 3841 H 360.981 -3.74812 1.83908 0
M  V30 3842 H 362.371 -3.29555 5.85528 0
M  V30 3843 N 365.091 -1.34144 -0.827227 0
M  V30 3844 C 366.337 -1.27455 -1.58515 0
M  V30 3845 C 366.692 0.155271 -1.91772 0
M  V30 3846 O 365.985 1.10042 -1.56848 0
M  V30 3847 C 366.179 -2.09464 -2.89585 0
M  V30 3848 C 366.008 -3.60276 -2.69131 0
M  V30 3849 C 364.778 -4.29565 -2.66087 0
M  V30 3850 C 366.976 -4.54367 -2.40947 0
M  V30 3851 N 364.958 -5.66252 -2.37132 0
M  V30 3852 C 366.329 -5.79027 -2.21648 0
M  V30 3853 C 368.384 -4.43327 -2.26639 0
M  V30 3854 C 367.087 -6.93891 -1.89492 0
M  V30 3855 C 369.113 -5.58019 -1.95878 0
M  V30 3856 C 368.475 -6.81695 -1.774 0
M  V30 3857 H 364.574 -0.521614 -0.582617 0
M  V30 3858 H 367.158 -1.68811 -0.970105 0
M  V30 3859 H 365.329 -1.70411 -3.49019 0
M  V30 3860 H 367.061 -1.94453 -3.54923 0
M  V30 3861 H 363.816 -3.81959 -2.80008 0
M  V30 3862 H 364.24 -6.38338 -2.25507 0
M  V30 3863 H 368.882 -3.48333 -2.39633 0
M  V30 3864 H 366.6 -7.88871 -1.75236 0
M  V30 3865 H 370.186 -5.5142 -1.85546 0
M  V30 3866 H 369.066 -7.68942 -1.53941 0
M  V30 3867 N 366.569 1.04691 -1.17803 0
M  V30 3868 C 367.517 2.14665 -0.895635 0
M  V30 3869 C 368.511 1.68806 0.141679 0
M  V30 3870 O 369.717 1.79999 -0.00587914 0
M  V30 3871 H 366.092 0.701038 -0.272121 0
M  V30 3872 H 368.063 2.35685 -1.83017 0
M  V30 3873 C 366.812 3.45019 -0.430962 0
M  V30 3874 H 366.135 3.8071 -1.22064 0
M  V30 3875 H 367.575 4.23125 -0.272301 0
M  V30 3876 C 366.034 3.25943 0.852207 0
M  V30 3877 O 366.564 3.5296 1.91786 0
M  V30 3878 N 364.77 2.79304 0.802346 0
M  V30 3879 H 364.317 2.57518 -0.0650788 0
M  V30 3880 H 364.275 2.66921 1.66134 0
M  V30 3881 N 368.047 0.979072 1.23499 0
M  V30 3882 C 369.324 0.563674 1.87302 0
M  V30 3883 C 369.704 -0.959199 1.88049 0
M  V30 3884 O 369.052 -1.83535 1.36114 0
M  V30 3885 C 369.262 1.16822 3.28867 0
M  V30 3886 C 370.61 1.26014 4.0547 0
M  V30 3887 O 371.634 1.12158 3.38082 0
M  V30 3888 O 370.493 1.48044 5.26066 0
M  V30 3889 H 367.587 0.189602 0.804972 0
M  V30 3890 H 370.133 1.07407 1.31384 0
M  V30 3891 H 368.905 2.21049 3.22883 0
M  V30 3892 H 368.528 0.642564 3.92373 0
M  V30 3893 N 369.525 -1.3858 0.750561 0
M  V30 3894 C 370.936 -1.82927 0.373438 0
M  V30 3895 C 371.287 -1.62634 -1.09748 0
M  V30 3896 O 370.412 -1.12588 -1.84805 0
M  V30 3897 C 371.007 -3.32088 0.671029 0
M  V30 3898 C 369.566 -3.74795 0.34722 0
M  V30 3899 C 368.713 -2.61391 0.92575 0
M  V30 3900 H 371.664 -1.27351 0.946958 0
M  V30 3901 H 371.685 -3.80465 -0.0518269 0
M  V30 3902 H 371.197 -3.46826 1.74164 0
M  V30 3903 H 369.298 -3.65638 -0.716933 0
M  V30 3904 H 369.411 -4.71667 0.840656 0
M  V30 3905 H 367.775 -2.52265 0.351327 0
M  V30 3906 H 368.558 -2.78929 2.00133 0
M  V30 3907 N 371.003 -0.499398 -1.49478 0
M  V30 3908 C 372.28 0.108629 -1.95298 0
M  V30 3909 C 372.66 1.54282 -1.44084 0
M  V30 3910 O 372.008 2.18944 -0.653908 0
M  V30 3911 C 372.218 0.0229111 -3.48992 0
M  V30 3912 C 373.566 0.197643 -4.2414 0
M  V30 3913 O 374.59 0.0981735 -3.56065 0
M  V30 3914 O 373.449 0.401669 -5.45022 0
M  V30 3915 H 370.543 0.096181 -0.821388 0
M  V30 3916 H 373.089 -0.561822 -1.6013 0
M  V30 3917 H 371.861 -0.977321 -3.78899 0
M  V30 3918 H 371.484 0.733579 -3.90774 0
M  V30 3919 N 372.481 1.55866 -0.233164 0
M  V30 3920 C 373.414 2.16794 0.712442 0
M  V30 3921 C 374.392 1.1158 1.18273 0
M  V30 3922 O 375.576 1.39897 1.26337 0
M  V30 3923 C 372.703 2.75757 1.96661 0
M  V30 3924 C 371.749 3.93902 1.63533 0
M  V30 3925 S 372.582 5.30223 0.74995 0
M  V30 3926 C 373.738 5.92631 2.01343 0
M  V30 3927 H 373.971 2.96662 0.194617 0
M  V30 3928 H 371.504 1.5439 -0.0177425 0
M  V30 3929 H 373.462 3.10367 2.68668 0
M  V30 3930 H 372.123 1.9586 2.45556 0
M  V30 3931 H 371.316 4.33702 2.56747 0
M  V30 3932 H 370.918 3.60499 0.995804 0
M  V30 3933 H 373.21 6.09312 2.96219 0
M  V30 3934 H 374.153 6.88388 1.65915 0
M  V30 3935 H 374.561 5.21571 2.15925 0
M  V30 3936 N 373.959 -0.0401083 1.57549 0
M  V30 3937 C 374.889 -1.04384 2.08869 0
M  V30 3938 C 375.87 -1.38407 0.988817 0
M  V30 3939 O 377.055 -1.47483 1.26342 0
M  V30 3940 C 374.185 -2.34808 2.55895 0
M  V30 3941 C 373.139 -2.15057 3.70047 0
M  V30 3942 C 372.465 -3.51145 4.03239 0
M  V30 3943 C 373.765 -1.54576 4.98902 0
M  V30 3944 H 375.459 -0.616666 2.92981 0
M  V30 3945 H 373.005 -0.295184 1.40942 0
M  V30 3946 H 374.958 -3.05346 2.90417 0
M  V30 3947 H 373.682 -2.79565 1.68853 0
M  V30 3948 H 372.341 -1.46954 3.35857 0
M  V30 3949 H 371.989 -3.93529 3.13279 0
M  V30 3950 H 371.689 -3.38758 4.80122 0
M  V30 3951 H 373.213 -4.23062 4.40285 0
M  V30 3952 H 374.627 -2.15017 5.31451 0
M  V30 3953 H 373.024 -1.52796 5.80322 0
M  V30 3954 H 374.094 -0.51039 4.82206 0
M  V30 3955 N 375.437 -1.54477 -0.31217 0
M  V30 3956 C 376.367 -1.87652 -1.38957 0
M  V30 3957 C 377.348 -0.734358 -1.53431 0
M  V30 3958 O 378.533 -0.98911 -1.67123 0
M  V30 3959 C 375.663 -2.11396 -2.75552 0
M  V30 3960 C 374.617 -3.27243 -2.75855 0
M  V30 3961 C 373.943 -3.36382 -4.15633 0
M  V30 3962 C 375.243 -4.64622 -2.38587 0
M  V30 3963 H 376.937 -2.77887 -1.11442 0
M  V30 3964 H 374.483 -1.33707 -0.534655 0
M  V30 3965 H 376.436 -2.33189 -3.51 0
M  V30 3966 H 375.16 -1.17921 -3.04569 0
M  V30 3967 H 373.819 -3.05356 -2.02863 0
M  V30 3968 H 373.467 -2.40445 -4.41809 0
M  V30 3969 H 373.167 -4.14249 -4.1674 0
M  V30 3970 H 374.691 -3.60422 -4.92877 0
M  V30 3971 H 376.105 -4.86219 -3.03749 0
M  V30 3972 H 374.502 -5.45121 -2.50925 0
M  V30 3973 H 375.572 -4.66097 -1.33723 0
M  V30 3974 N 376.915 0.57481 -1.46744 0
M  V30 3975 C 378.164 1.32898 -1.51727 0
M  V30 3976 C 378.477 1.948 -0.176692 0
M  V30 3977 O 379.683 2.71299 -0.104385 0
M  V30 3978 C 378.139 2.40901 -2.67385 0
M  V30 3979 C 377.747 1.85266 -4.07898 0
M  V30 3980 C 379.491 3.17609 -2.81646 0
M  V30 3981 C 377.398 2.90945 -5.14883 0
M  V30 3982 H 376.328 0.499631 -0.564699 0
M  V30 3983 H 378.979 0.612536 -1.72975 0
M  V30 3984 H 377.361 3.15379 -2.39483 0
M  V30 3985 H 378.535 1.17278 -4.45626 0
M  V30 3986 H 376.85 1.21199 -3.98371 0
M  V30 3987 H 379.447 3.96493 -3.58744 0
M  V30 3988 H 379.79 3.70696 -1.89448 0
M  V30 3989 H 380.323 2.50239 -3.09233 0
M  V30 3990 H 377.062 2.42736 -6.089 0
M  V30 3991 H 376.582 3.57398 -4.81691 0
M  V30 3992 H 378.261 3.54755 -5.41071 0
M  V30 3993 N 378.394 1.34581 0.820102 0
M  V30 3994 C 379.642 1.26845 1.57336 0
M  V30 3995 C 379.963 -0.160667 1.94337 0
M  V30 3996 O 379.233 -1.09396 1.6251 0
M  V30 3997 H 377.813 0.466514 0.583415 0
M  V30 3998 H 380.475 1.68526 0.979027 0
M  V30 3999 H 379.571 1.87513 2.4949 0
M  V30 4000 N 379.872 -1.04064 1.18357 0
M  V30 4001 C 380.82 -2.14187 0.907007 0
M  V30 4002 C 381.814 -1.68879 -0.132725 0
M  V30 4003 O 383.02 -1.79993 0.0154248 0
M  V30 4004 H 379.395 -0.699585 0.275835 0
M  V30 4005 H 381.366 -2.34711 1.84264 0
M  V30 4006 C 380.115 -3.44785 0.449254 0
M  V30 4007 H 379.438 -3.80058 1.24081 0
M  V30 4008 H 380.878 -4.22974 0.294737 0
M  V30 4009 C 379.337 -3.26391 -0.834909 0
M  V30 4010 O 379.867 -3.53973 -1.89911 0
M  V30 4011 N 378.073 -2.79726 -0.787523 0
M  V30 4012 H 377.62 -2.5748 0.0787347 0
M  V30 4013 H 377.578 -2.67798 -1.64716 0
M  V30 4014 N 381.35 -0.985608 -1.22978 0
M  V30 4015 C 382.597 -0.657386 -1.91532 0
M  V30 4016 C 382.925 0.809707 -1.76845 0
M  V30 4017 O 382.18 1.60021 -1.12658 0
M  V30 4018 C 382.479 -1.00014 -3.43121 0
M  V30 4019 C 382.145 -2.4583 -3.77993 0
M  V30 4020 C 380.807 -2.85679 -3.87222 0
M  V30 4021 C 383.159 -3.40378 -3.94705 0
M  V30 4022 C 380.487 -4.19081 -4.10595 0
M  V30 4023 C 382.839 -4.73429 -4.1958 0
M  V30 4024 C 381.503 -5.1303 -4.27032 0
M  V30 4025 H 380.773 -0.240555 -0.700867 0
M  V30 4026 H 383.42 -1.24044 -1.45895 0
M  V30 4027 H 381.725 -0.335072 -3.90365 0
M  V30 4028 H 383.422 -0.724322 -3.94404 0
M  V30 4029 H 380.012 -2.13939 -3.71387 0
M  V30 4030 H 384.196 -3.10766 -3.8696 0
M  V30 4031 H 379.452 -4.49362 -4.14589 0
M  V30 4032 H 383.626 -5.46644 -4.31455 0
M  V30 4033 H 381.253 -6.16418 -4.44896 0
M  V30 4034 N 382.828 1.3818 -0.7579 0
M  V30 4035 C 384.076 1.99624 -0.315361 0
M  V30 4036 C 384.397 1.60464 1.10799 0
M  V30 4037 O 383.667 0.863507 1.75842 0
M  V30 4038 H 382.247 0.73831 -0.113611 0
M  V30 4039 H 384.909 1.68878 -0.972952 0
M  V30 4040 H 384.005 3.09754 -0.381931 0
M  V30 4041 N 384.306 0.507319 1.49211 0
M  V30 4042 C 385.236 -0.256939 2.32082 0
M  V30 4043 C 386.217 -0.956609 1.40652 0
M  V30 4044 O 387.402 -0.946788 1.69557 0
M  V30 4045 C 384.532 -1.31802 3.21318 0
M  V30 4046 C 383.486 -0.737855 4.21592 0
M  V30 4047 C 382.812 -1.89992 4.99807 0
M  V30 4048 C 384.112 0.275325 5.21574 0
M  V30 4049 H 385.806 0.434798 2.96226 0
M  V30 4050 H 383.352 0.210546 1.42452 0
M  V30 4051 H 385.305 -1.86045 3.78107 0
M  V30 4052 H 384.029 -2.03903 2.5513 0
M  V30 4053 H 382.688 -0.217126 3.65956 0
M  V30 4054 H 382.336 -2.60877 4.30061 0
M  V30 4055 H 382.036 -1.51777 5.6766 0
M  V30 4056 H 383.56 -2.44657 5.59442 0
M  V30 4057 H 384.974 -0.179193 5.7302 0
M  V30 4058 H 383.371 0.573649 5.97352 0
M  V30 4059 H 384.441 1.18903 4.70096 0
M  V30 4060 N 385.784 -1.5574 0.241426 0
M  V30 4061 C 387.009 -2.0366 -0.392111 0
M  V30 4062 C 387.434 -1.11969 -1.51144 0
M  V30 4063 O 386.792 -0.111594 -1.80956 0
M  V30 4064 C 386.84 -3.49638 -0.882371 0
M  V30 4065 O 385.944 -3.6108 -1.99235 0
M  V30 4066 H 385.285 -0.658379 -0.0862122 0
M  V30 4067 H 387.815 -2.01302 0.365881 0
M  V30 4068 H 387.825 -3.90351 -1.18702 0
M  V30 4069 H 386.5 -4.15852 -0.0632361 0
M  V30 4070 H 385.077 -3.32262 -1.69282 0
M  V30 4071 N 387.262 0.0317525 -1.57568 0
M  V30 4072 C 388.192 1.03274 -2.0942 0
M  V30 4073 C 389.173 1.3788 -0.996143 0
M  V30 4074 O 390.358 1.46811 -1.27122 0
M  V30 4075 C 387.488 2.33448 -2.57137 0
M  V30 4076 C 386.442 2.13091 -3.71182 0
M  V30 4077 C 385.768 3.49001 -4.05095 0
M  V30 4078 C 387.068 1.51928 -4.99715 0
M  V30 4079 H 388.762 0.60112 -2.93303 0
M  V30 4080 H 386.308 0.287705 -1.41097 0
M  V30 4081 H 388.261 3.03802 -2.92032 0
M  V30 4082 H 386.985 2.78665 -1.70333 0
M  V30 4083 H 385.644 1.45171 -3.36632 0
M  V30 4084 H 385.292 3.91862 -3.15362 0
M  V30 4085 H 384.992 3.36207 -4.81911 0
M  V30 4086 H 386.516 4.20721 -4.42522 0
M  V30 4087 H 387.93 2.12196 -5.32584 0
M  V30 4088 H 386.327 1.49716 -5.81124 0
M  V30 4089 H 387.397 0.484811 -4.8247 0
M  V30 4090 N 388.74 1.54641 0.303973 0
M  V30 4091 C 389.65 1.88439 1.39743 0
M  V30 4092 C 390.666 0.778239 1.55626 0
M  V30 4093 O 391.842 1.07442 1.70347 0
M  V30 4094 C 388.907 2.12212 2.74166 0
M  V30 4095 C 387.968 3.35936 2.67293 0
M  V30 4096 C 387.201 3.58566 3.95305 0
M  V30 4097 O 387.424 2.84263 4.9452 0
M  V30 4098 O 386.358 4.52078 3.97378 0
M  V30 4099 H 390.184 2.81458 1.14083 0
M  V30 4100 H 387.769 1.40793 0.499768 0
M  V30 4101 H 389.651 2.29067 3.53704 0
M  V30 4102 H 388.326 1.22379 2.99675 0
M  V30 4103 H 387.233 3.24448 1.86237 0
M  V30 4104 H 388.566 4.2589 2.46736 0
M  V30 4105 N 390.218 -0.567019 1.47046 0
M  V30 4106 C 391.15 -1.68985 1.54844 0
M  V30 4107 C 392.163 -1.56869 0.435431 0
M  V30 4108 O 393.352 -1.64006 0.70457 0
M  V30 4109 C 390.452 -3.07373 1.42742 0
M  V30 4110 C 389.625 -3.45339 2.6844 0
M  V30 4111 C 388.684 -4.62849 2.50314 0
M  V30 4112 O 387.71 -4.67922 3.24095 0
M  V30 4113 N 388.912 -5.58726 1.57499 0
M  V30 4114 H 391.677 -1.62745 2.51663 0
M  V30 4115 H 389.238 -0.753411 1.43302 0
M  V30 4116 H 391.23 -3.83803 1.28365 0
M  V30 4117 H 389.8 -3.07893 0.540445 0
M  V30 4118 H 389.02 -2.58455 2.97648 0
M  V30 4119 H 390.308 -3.67476 3.51907 0
M  V30 4120 H 389.706 -5.57376 0.966876 0
M  V30 4121 H 388.263 -6.34523 1.49078 0
M  V30 4122 N 391.696 -1.35014 -0.812953 0
M  V30 4123 C 392.921 -1.31187 -1.60639 0
M  V30 4124 C 393.346 0.109382 -1.87782 0
M  V30 4125 O 392.704 1.07424 -1.46047 0
M  V30 4126 C 392.752 -2.11809 -2.91838 0
M  V30 4127 O 391.856 -1.49444 -3.8437 0
M  V30 4128 H 391.197 -0.450084 -0.488181 0
M  V30 4129 H 393.727 -1.77963 -1.00947 0
M  V30 4130 H 393.737 -2.23531 -3.41318 0
M  V30 4131 H 392.412 -3.15137 -2.71407 0
M  V30 4132 H 390.989 -1.46524 -3.42907 0
M  V30 4133 N 393.175 1.03435 -1.18907 0
M  V30 4134 C 394.591 1.28973 -0.940111 0
M  V30 4135 C 394.791 1.97676 0.390691 0
M  V30 4136 O 393.847 2.26127 1.12352 0
M  V30 4137 C 395.16 2.14221 -2.11021 0
M  V30 4138 C 396.708 2.27547 -2.14922 0
M  V30 4139 C 397.183 3.16164 -3.31367 0
M  V30 4140 N 398.674 3.23752 -3.31269 0
M  V30 4141 C 399.409 3.92495 -4.18014 0
M  V30 4142 N 398.905 4.63515 -5.14904 0
M  V30 4143 N 400.698 3.88838 -4.05908 0
M  V30 4144 H 392.849 0.57252 -2.04538 0
M  V30 4145 H 395.112 0.315184 -0.894071 0
M  V30 4146 H 394.818 1.71054 -3.073 0
M  V30 4147 H 394.692 3.14919 -2.0762 0
M  V30 4148 H 397.079 2.69947 -1.19217 0
M  V30 4149 H 397.16 1.26418 -2.22378 0
M  V30 4150 H 396.804 2.74474 -4.27348 0
M  V30 4151 H 396.734 4.17339 -3.21148 0
M  V30 4152 H 399.225 2.73167 -2.61129 0
M  V30 4153 H 399.538 5.13583 -5.77453 0
M  V30 4154 H 397.883 4.62398 -5.18857 0
M  V30 4155 H 401.074 3.32491 -3.29495 0
M  V30 4156 H 401.247 4.4214 -4.73726 0
M  V30 4157 N 394.653 0.992116 1.22453 0
M  V30 4158 C 395.616 0.546883 2.2258 0
M  V30 4159 C 396.616 -0.369829 1.56489 0
M  V30 4160 O 397.806 -0.161896 1.73446 0
M  V30 4161 C 394.938 -0.204659 3.40285 0
M  V30 4162 H 396.131 1.43234 2.63484 0
M  V30 4163 H 393.684 0.779239 1.3549 0
M  V30 4164 H 394.419 -1.10614 3.04853 0
M  V30 4165 H 394.204 0.45354 3.89468 0
M  V30 4166 H 395.694 -0.504358 4.14543 0
M  V30 4167 N 396.131 -1.37776 0.765217 0
M  V30 4168 C 397.063 -2.28958 0.105361 0
M  V30 4169 C 398.076 -1.48316 -0.67128 0
M  V30 4170 O 399.265 -1.71046 -0.51045 0
M  V30 4171 C 396.365 -3.27421 -0.874569 0
M  V30 4172 C 395.538 -4.37132 -0.153123 0
M  V30 4173 C 394.597 -5.1571 -1.04547 0
M  V30 4174 O 393.623 -5.66896 -0.511672 0
M  V30 4175 N 394.825 -5.29808 -2.37243 0
M  V30 4176 H 397.59 -2.86227 0.888495 0
M  V30 4177 H 395.151 -1.49682 0.617 0
M  V30 4178 H 397.143 -3.7687 -1.47483 0
M  V30 4179 H 395.713 -2.70967 -1.55871 0
M  V30 4180 H 394.933 -3.89166 0.627975 0
M  V30 4181 H 396.221 -5.07625 0.345643 0
M  V30 4182 H 395.619 -4.89793 -2.83054 0
M  V30 4183 H 394.176 -5.82589 -2.9229 0
M  V30 4184 N 397.609 -0.515225 -1.4894 0
M  V30 4185 C 398.542 0.302518 -2.26186 0
M  V30 4186 C 399.52 0.957895 -1.31389 0
M  V30 4187 O 400.704 0.985198 -1.60705 0
M  V30 4188 C 397.831 1.42719 -3.07163 0
M  V30 4189 C 396.877 0.884736 -4.17223 0
M  V30 4190 S 397.71 -0.235767 -5.34981 0
M  V30 4191 C 398.866 0.891731 -6.19515 0
M  V30 4192 H 399.099 -0.353076 -2.95196 0
M  V30 4193 H 396.632 -0.300753 -1.51443 0
M  V30 4194 H 398.59 2.07152 -3.54398 0
M  V30 4195 H 397.251 2.05445 -2.37595 0
M  V30 4196 H 396.444 1.72801 -4.73451 0
M  V30 4197 H 396.046 0.317362 -3.72651 0
M  V30 4198 H 398.338 1.79377 -6.53322 0
M  V30 4199 H 399.281 0.367751 -7.07144 0
M  V30 4200 H 399.689 1.16548 -5.52338 0
M  V30 4201 N 399.087 1.5561 -0.249682 0
M  V30 4202 C 400.05 2.20217 0.635394 0
M  V30 4203 C 401.05 1.17227 1.10066 0
M  V30 4204 O 402.24 1.42292 1.00492 0
M  V30 4205 C 399.372 2.84794 1.87363 0
M  V30 4206 H 400.565 2.99814 0.0716752 0
M  V30 4207 H 398.118 1.563 -0.000153234 0
M  V30 4208 H 398.853 2.09142 2.47851 0
M  V30 4209 H 398.638 3.60241 1.5482 0
M  V30 4210 H 400.128 3.3423 2.5036 0
M  V30 4211 N 400.565 -0.0233959 1.57583 0
M  V30 4212 C 401.495 -1.02162 2.09965 0
M  V30 4213 C 402.476 -1.3735 1.00344 0
M  V30 4214 O 403.661 -1.46135 1.27899 0
M  V30 4215 C 400.791 -2.32081 2.58371 0
M  V30 4216 C 399.745 -2.1112 3.72307 0
M  V30 4217 C 399.071 -3.46848 4.06941 0
M  V30 4218 C 400.371 -1.49276 5.00514 0
M  V30 4219 H 402.065 -0.585557 2.93618 0
M  V30 4220 H 399.611 -0.280218 1.41247 0
M  V30 4221 H 401.564 -3.02249 2.93639 0
M  V30 4222 H 400.288 -2.77758 1.71808 0
M  V30 4223 H 398.947 -1.43384 3.37397 0
M  V30 4224 H 398.595 -3.90184 3.17436 0
M  V30 4225 H 398.295 -3.33646 4.83688 0
M  V30 4226 H 399.819 -4.18369 4.44747 0
M  V30 4227 H 401.233 -2.09368 5.33702 0
M  V30 4228 H 399.63 -1.46632 5.8191 0
M  V30 4229 H 400.7 -0.459217 4.82721 0
M  V30 4230 N 402.043 -1.548 -0.295768 0
M  V30 4231 C 403.289 -1.75517 -1.02789 0
M  V30 4232 C 403.644 -0.537266 -1.84746 0
M  V30 4233 O 402.937 0.470299 -1.85738 0
M  V30 4234 C 403.131 -2.98797 -1.961 0
M  V30 4235 C 402.96 -4.3246 -1.23321 0
M  V30 4236 C 401.73 -4.96131 -0.95822 0
M  V30 4237 C 403.928 -5.10365 -0.635024 0
M  V30 4238 N 401.91 -6.1357 -0.201257 0
M  V30 4239 C 403.281 -6.19999 -0.0110937 0
M  V30 4240 C 405.336 -4.94957 -0.540594 0
M  V30 4241 C 404.039 -7.15904 0.698136 0
M  V30 4242 C 406.065 -5.91197 0.154992 0
M  V30 4243 C 405.427 -7.00203 0.767752 0
M  V30 4244 H 401.526 -0.694786 -0.358882 0
M  V30 4245 H 404.11 -1.92281 -0.305943 0
M  V30 4246 H 402.281 -2.83448 -2.6554 0
M  V30 4247 H 404.013 -3.08017 -2.62502 0
M  V30 4248 H 400.768 -4.56595 -1.25771 0
M  V30 4249 H 401.192 -6.76802 0.16389 0
M  V30 4250 H 405.834 -4.10803 -1.00003 0
M  V30 4251 H 403.552 -7.99595 1.16933 0
M  V30 4252 H 407.138 -5.81353 0.228069 0
M  V30 4253 H 406.018 -7.73393 1.29743 0
M  V30 4254 N 403.521 0.559213 -1.47345 0
M  V30 4255 C 404.749 1.34194 -1.57479 0
M  V30 4256 C 405.164 1.87463 -0.224261 0
M  V30 4257 O 404.521 1.64888 0.782185 0
M  V30 4258 C 404.572 2.51324 -2.59843 0
M  V30 4259 O 404.293 2.00256 -3.89653 0
M  V30 4260 C 405.794 3.43563 -2.80142 0
M  V30 4261 H 403.014 0.409136 -0.531835 0
M  V30 4262 H 405.558 0.677609 -1.92947 0
M  V30 4263 H 403.713 3.13699 -2.27314 0
M  V30 4264 H 404.127 2.76708 -4.4557 0
M  V30 4265 H 405.601 4.2217 -3.55635 0
M  V30 4266 H 406.078 3.9698 -1.87892 0
M  V30 4267 H 406.684 2.87005 -3.1386 0
M  V30 4268 N 404.999 1.35443 0.805782 0
M  V30 4269 C 406.245 1.28952 1.56522 0
M  V30 4270 C 406.578 -0.135597 1.93726 0
M  V30 4271 O 405.853 -1.08516 1.61414 0
M  V30 4272 C 406.136 2.19678 2.85331 0
M  V30 4273 C 405.989 3.7081 2.54598 0
M  V30 4274 C 407.308 2.09495 3.8704 0
M  V30 4275 H 404.427 0.469764 0.567883 0
M  V30 4276 H 407.069 1.65851 0.927001 0
M  V30 4277 H 405.219 1.8834 3.39795 0
M  V30 4278 H 406.891 4.12593 2.06312 0
M  V30 4279 H 405.134 3.91051 1.8778 0
M  V30 4280 H 405.805 4.29679 3.46525 0
M  V30 4281 H 408.281 2.37045 3.41978 0
M  V30 4282 H 407.157 2.75173 4.74943 0
M  V30 4283 H 407.418 1.07714 4.28777 0
M  V30 4284 N 406.477 -1.02803 1.19454 0
M  V30 4285 C 407.407 -2.12999 0.956758 0
M  V30 4286 C 408.388 -1.69743 -0.110188 0
M  V30 4287 O 409.573 -1.94148 0.0450038 0
M  V30 4288 C 406.703 -3.43746 0.495553 0
M  V30 4289 C 405.657 -4.00688 1.50443 0
M  V30 4290 C 404.983 -5.27067 0.900275 0
M  V30 4291 C 406.283 -4.35397 2.8849 0
M  V30 4292 H 407.977 -2.33148 1.87836 0
M  V30 4293 H 405.523 -1.12045 0.904539 0
M  V30 4294 H 407.476 -4.2021 0.316493 0
M  V30 4295 H 406.2 -3.23321 -0.461646 0
M  V30 4296 H 404.859 -3.2632 1.67065 0
M  V30 4297 H 404.507 -5.02959 -0.064503 0
M  V30 4298 H 404.207 -5.66127 1.57397 0
M  V30 4299 H 405.731 -6.06196 0.73203 0
M  V30 4300 H 407.145 -5.02795 2.75446 0
M  V30 4301 H 405.542 -4.85541 3.52661 0
M  V30 4302 H 406.612 -3.44662 3.41081 0
M  V30 4303 N 407.956 -0.998596 -1.21925 0
M  V30 4304 C 408.919 -0.558679 -2.22287 0
M  V30 4305 C 409.919 0.361525 -1.56683 0
M  V30 4306 O 411.109 0.152695 -1.73529 0
M  V30 4307 C 408.241 0.18661 -3.40389 0
M  V30 4308 H 409.434 -1.4463 -2.62721 0
M  V30 4309 H 406.987 -0.786413 -1.35075 0
M  V30 4310 H 407.722 1.08996 -3.05435 0
M  V30 4311 H 407.507 -0.474188 -3.89222 0
M  V30 4312 H 408.997 0.482367 -4.14805 0
M  V30 4313 N 409.434 1.37368 -0.772513 0
M  V30 4314 C 410.397 2.28601 -0.165541 0
M  V30 4315 C 411.397 1.48062 0.627238 0
M  V30 4316 O 412.587 1.68268 0.450715 0
M  V30 4317 C 409.719 3.32023 0.772897 0
M  V30 4318 H 410.912 2.83787 -0.969787 0
M  V30 4319 H 408.465 1.46647 -0.540775 0
M  V30 4320 H 409.2 2.81962 1.60212 0
M  V30 4321 H 408.985 3.91555 0.206585 0
M  V30 4322 H 410.475 4.00197 1.19298 0
M  V30 4323 N 410.912 0.523116 1.48665 0
M  V30 4324 C 412.323 0.0808997 1.86525 0
M  V30 4325 C 412.674 -1.33975 1.43336 0
M  V30 4326 O 411.799 -2.00221 0.821009 0
M  V30 4327 C 412.394 0.140037 3.3851 0
M  V30 4328 C 410.953 -0.246948 3.75589 0
M  V30 4329 C 410.1 0.502845 2.72703 0
M  V30 4330 H 413.051 0.734736 1.40667 0
M  V30 4331 H 413.072 -0.649945 3.74908 0
M  V30 4332 H 412.584 1.17412 3.69914 0
M  V30 4333 H 410.685 -1.28343 3.49798 0
M  V30 4334 H 410.798 0.0878859 4.79019 0
M  V30 4335 H 409.162 -0.0500581 2.54651 0
M  V30 4336 H 409.945 1.53743 3.0695 0
M  V30 4337 N 412.39 -1.55475 0.257931 0
M  V30 4338 C 413.32 -2.24815 -0.630912 0
M  V30 4339 C 414.301 -1.23224 -1.17259 0
M  V30 4340 O 415.486 -1.51904 -1.20991 0
M  V30 4341 C 412.616 -2.95609 -1.82298 0
M  V30 4342 C 411.57 -4.03982 -1.41359 0
M  V30 4343 C 410.896 -4.6226 -2.68738 0
M  V30 4344 C 412.196 -5.19109 -0.57648 0
M  V30 4345 H 413.89 -2.99354 -0.0526878 0
M  V30 4346 H 411.436 -1.4398 -0.023901 0
M  V30 4347 H 413.389 -3.42822 -2.45054 0
M  V30 4348 H 412.113 -2.18577 -2.42676 0
M  V30 4349 H 410.772 -3.57555 -0.809324 0
M  V30 4350 H 410.42 -3.81915 -3.27338 0
M  V30 4351 H 410.12 -5.35424 -2.42065 0
M  V30 4352 H 411.644 -5.12212 -3.32372 0
M  V30 4353 H 413.058 -5.62479 -1.10861 0
M  V30 4354 H 411.455 -5.98729 -0.405351 0
M  V30 4355 H 412.525 -4.83174 0.408776 0
M  V30 4356 N 413.868 0.0150385 -1.57593 0
M  V30 4357 C 414.798 1.01047 -2.10503 0
M  V30 4358 C 415.779 1.36816 -1.01071 0
M  V30 4359 O 416.964 1.45455 -1.28672 0
M  V30 4360 C 414.094 2.30708 -2.59598 0
M  V30 4361 C 413.048 2.09142 -3.73421 0
M  V30 4362 C 412.374 3.44685 -4.08774 0
M  V30 4363 C 413.674 1.46619 -5.01298 0
M  V30 4364 H 415.368 0.569978 -2.93925 0
M  V30 4365 H 412.914 0.272724 -1.41394 0
M  V30 4366 H 414.867 3.00687 -2.95238 0
M  V30 4367 H 413.591 2.76843 -1.73279 0
M  V30 4368 H 412.25 1.41592 -3.38153 0
M  V30 4369 H 411.898 3.88495 -3.195 0
M  V30 4370 H 411.598 3.31077 -4.8545 0
M  V30 4371 H 413.122 4.16004 -4.4696 0
M  V30 4372 H 414.536 2.06535 -5.34805 0
M  V30 4373 H 412.933 1.43544 -5.82679 0
M  V30 4374 H 414.003 0.433611 -4.82957 0
M  V30 4375 N 415.346 1.54954 0.287554 0
M  V30 4376 C 416.279 1.81737 1.3801 0
M  V30 4377 C 417.257 0.669412 1.48181 0
M  V30 4378 O 418.441 0.910839 1.65033 0
M  V30 4379 C 415.568 1.96606 2.75796 0
M  V30 4380 C 414.614 3.19098 2.82982 0
M  V30 4381 S 415.447 4.7683 2.43707 0
M  V30 4382 C 416.603 4.94653 3.83496 0
M  V30 4383 H 416.836 2.74122 1.15085 0
M  V30 4384 H 414.369 1.46538 0.486403 0
M  V30 4385 H 416.327 2.05858 3.55152 0
M  V30 4386 H 414.988 1.05136 2.95982 0
M  V30 4387 H 414.181 3.26344 3.84077 0
M  V30 4388 H 413.783 3.08361 2.11635 0
M  V30 4389 H 416.075 4.79502 4.78628 0
M  V30 4390 H 417.018 5.96728 3.8121 0
M  V30 4391 H 417.426 4.2272 3.74123 0
M  V30 4392 N 416.824 -0.551391 1.4764 0
M  V30 4393 C 418.049 -1.33837 1.58437 0
M  V30 4394 C 418.474 -1.866 0.237063 0
M  V30 4395 O 417.832 -1.6328 -0.787994 0
M  V30 4396 C 417.88 -2.48014 2.61766 0
M  V30 4397 O 416.984 -3.50419 2.1744 0
M  V30 4398 H 416.325 -0.397299 0.532024 0
M  V30 4399 H 418.855 -0.665759 1.93465 0
M  V30 4400 H 418.865 -2.94503 2.82369 0
M  V30 4401 H 417.54 -2.08969 3.5959 0
M  V30 4402 H 416.117 -3.10196 2.06961 0
M  V30 4403 N 418.302 -1.35869 -0.798587 0
M  V30 4404 C 419.53 -1.32722 -1.58722 0
M  V30 4405 C 419.945 0.0935631 -1.88568 0
M  V30 4406 O 419.302 1.04784 -1.49421 0
M  V30 4407 C 419.353 -2.13974 -2.91371 0
M  V30 4408 O 419.074 -3.50514 -2.62815 0
M  V30 4409 C 420.575 -2.18504 -3.85708 0
M  V30 4410 H 417.795 -0.45562 -0.492596 0
M  V30 4411 H 420.339 -1.78837 -0.991843 0
M  V30 4412 H 418.494 -1.71438 -3.47402 0
M  V30 4413 H 418.908 -3.92806 -3.47568 0
M  V30 4414 H 420.382 -2.79732 -4.75872 0
M  V30 4415 H 420.859 -1.18597 -4.22885 0
M  V30 4416 H 421.465 -2.61236 -3.35612 0
M  V30 4417 N 419.78 1.02168 -1.19998 0
M  V30 4418 C 421.057 1.72816 -0.916191 0
M  V30 4419 C 421.437 2.03081 0.576325 0
M  V30 4420 O 420.785 1.69122 1.53656 0
M  V30 4421 C 420.995 2.9997 -1.78378 0
M  V30 4422 C 422.343 3.73336 -2.02251 0
M  V30 4423 O 423.367 3.09914 -1.75589 0
M  V30 4424 O 422.226 4.87371 -2.47249 0
M  V30 4425 H 419.32 0.752924 -0.342103 0
M  V30 4426 H 421.866 1.08062 -1.30846 0
M  V30 4427 H 420.638 2.73888 -2.79466 0
M  V30 4428 H 420.261 3.72464 -1.39126 0
M  V30 4429 N 421.258 1.00505 1.21394 0
M  V30 4430 C 422.188 0.585684 2.26035 0
M  V30 4431 C 423.169 -0.393525 1.65485 0
M  V30 4432 O 424.354 -0.281497 1.92149 0
M  V30 4433 C 421.484 -0.0884283 3.47187 0
M  V30 4434 C 420.438 0.810567 4.20254 0
M  V30 4435 C 419.764 0.00286382 5.347 0
M  V30 4436 C 421.064 2.1132 4.77641 0
M  V30 4437 H 422.758 1.46039 2.61368 0
M  V30 4438 H 420.304 0.703648 1.25638 0
M  V30 4439 H 422.257 -0.393286 4.19561 0
M  V30 4440 H 420.981 -0.997766 3.10986 0
M  V30 4441 H 419.64 1.09925 3.49731 0
M  V30 4442 H 419.288 -0.907765 4.94741 0
M  V30 4443 H 418.988 0.601444 5.84514 0
M  V30 4444 H 420.512 -0.295808 6.09883 0
M  V30 4445 H 421.926 1.87148 5.41893 0
M  V30 4446 H 420.323 2.66164 5.37845 0
M  V30 4447 H 421.393 2.78393 3.9702 0
M  V30 4448 N 422.737 -1.36956 0.779787 0
M  V30 4449 C 424.153 -1.52817 0.460342 0
M  V30 4450 C 424.353 -1.7361 -1.02283 0
M  V30 4451 O 423.409 -1.76207 -1.80852 0
M  V30 4452 C 424.722 -2.71983 1.28241 0
M  V30 4453 C 426.27 -2.85849 1.27512 0
M  V30 4454 C 426.745 -4.08008 2.08072 0
M  V30 4455 N 428.236 -4.15135 2.05467 0
M  V30 4456 C 428.971 -5.08711 2.64577 0
M  V30 4457 N 428.467 -6.07792 3.32506 0
M  V30 4458 N 430.26 -5.01254 2.54363 0
M  V30 4459 H 422.411 -1.21713 1.74068 0
M  V30 4460 H 424.674 -0.593294 0.739396 0
M  V30 4461 H 424.38 -2.63109 2.33381 0
M  V30 4462 H 424.254 -3.65882 0.917088 0
M  V30 4463 H 426.641 -2.94189 0.231686 0
M  V30 4464 H 426.722 -1.92886 1.68014 0
M  V30 4465 H 426.366 -4.00429 3.12441 0
M  V30 4466 H 426.296 -5.001 1.64947 0
M  V30 4467 H 428.787 -3.44189 1.5602 0
M  V30 4468 H 429.1 -6.75739 3.74963 0
M  V30 4469 H 427.445 -6.08047 3.36606 0
M  V30 4470 H 430.636 -4.22795 2.00902 0
M  V30 4471 H 430.809 -5.73995 3.00722 0
M  V30 4472 N 424.215 -0.530993 -1.48385 0
M  V30 4473 C 425.443 -0.00134122 -2.069 0
M  V30 4474 C 425.858 1.2805 -1.3874 0
M  V30 4475 O 425.215 1.76204 -0.475244 0
M  V30 4476 C 425.266 0.225256 -3.60798 0
M  V30 4477 O 424.987 -1.0058 -4.26398 0
M  V30 4478 C 426.488 0.795172 -4.3611 0
M  V30 4479 H 423.708 -0.0339704 -0.67014 0
M  V30 4480 H 426.252 -0.736926 -1.90761 0
M  V30 4481 H 424.407 0.910891 -3.76539 0
M  V30 4482 H 424.821 -0.787165 -5.1856 0
M  V30 4483 H 426.295 0.903143 -5.44562 0
M  V30 4484 H 426.772 1.80031 -4.00606 0
M  V30 4485 H 427.378 0.146069 -4.25049 0
M  V30 4486 N 425.693 1.55336 -0.266172 0
M  V30 4487 C 426.942 1.98574 0.353749 0
M  V30 4488 C 427.255 1.15789 1.57646 0
M  V30 4489 O 428.461 1.49129 2.26876 0
M  V30 4490 C 426.917 3.53403 0.680747 0
M  V30 4491 C 426.525 4.44953 -0.52165 0
M  V30 4492 C 428.269 4.05251 1.26379 0
M  V30 4493 C 426.176 5.91156 -0.169736 0
M  V30 4494 H 425.106 0.741643 0.135949 0
M  V30 4495 H 427.757 1.79743 -0.369421 0
M  V30 4496 H 426.139 3.68001 1.46257 0
M  V30 4497 H 427.313 4.42121 -1.29869 0
M  V30 4498 H 425.628 4.03691 -1.02093 0
M  V30 4499 H 428.225 5.12021 1.54074 0
M  V30 4500 H 428.568 3.53749 2.19471 0
M  V30 4501 H 429.101 3.94057 0.544447 0
M  V30 4502 H 425.84 6.46736 -1.0683 0
M  V30 4503 H 425.36 5.97079 0.570717 0
M  V30 4504 H 427.039 6.4655 0.241245 0
M  V30 4505 N 427.171 -0.0066808 1.57599 0
M  V30 4506 C 428.396 -0.707738 1.94951 0
M  V30 4507 C 428.821 -1.66882 0.867868 0
M  V30 4508 O 428.179 -1.80457 -0.17458 0
M  V30 4509 C 428.227 -1.42162 3.31394 0
M  V30 4510 O 427.331 -2.53578 3.25226 0
M  V30 4511 H 426.672 -0.188752 0.636607 0
M  V30 4512 H 429.202 0.0445193 2.04552 0
M  V30 4513 H 429.212 -1.78655 3.66806 0
M  V30 4514 H 427.887 -0.716903 4.09675 0
M  V30 4515 H 426.464 -2.19463 3.01481 0
M  V30 4516 N 428.649 -1.55105 -0.279332 0
M  V30 4517 C 429.612 -1.86783 -1.32834 0
M  V30 4518 C 430.612 -0.74199 -1.42657 0
M  V30 4519 O 431.802 -1.0102 -1.41918 0
M  V30 4520 C 428.934 -2.06746 -2.71052 0
M  V30 4521 H 430.127 -2.8055 -1.05979 0
M  V30 4522 H 427.68 -1.47499 -0.517087 0
M  V30 4523 H 428.415 -1.15339 -3.03097 0
M  V30 4524 H 428.2 -2.88711 -2.65309 0
M  V30 4525 H 429.69 -2.32549 -3.46858 0
M  V30 4526 N 430.127 0.543554 -1.4793 0
M  V30 4527 C 431.059 1.665 -1.57513 0
M  V30 4528 C 432.072 1.56156 -0.460333 0
M  V30 4529 O 433.261 1.62865 -0.730573 0
M  V30 4530 C 430.361 3.05063 -1.47614 0
M  V30 4531 C 429.534 3.41024 -2.739 0
M  V30 4532 C 428.593 4.58809 -2.57645 0
M  V30 4533 O 427.619 4.62707 -3.31498 0
M  V30 4534 N 428.821 5.56149 -1.66368 0
M  V30 4535 H 431.586 1.5872 -2.5422 0
M  V30 4536 H 429.147 0.730517 -1.44482 0
M  V30 4537 H 431.139 3.81712 -1.34455 0
M  V30 4538 H 429.709 3.06994 -0.589359 0
M  V30 4539 H 428.929 2.53687 -3.01723 0
M  V30 4540 H 430.217 3.61831 -3.57709 0
M  V30 4541 H 429.615 5.55767 -1.05543 0
M  V30 4542 H 428.172 6.32071 -1.59154 0
M  V30 4543 N 431.605 1.3629 0.791371 0
M  V30 4544 C 432.553 1.30514 1.92533 0
M  V30 4545 C 433.547 0.197285 1.68247 0
M  V30 4546 O 434.753 0.364176 1.76278 0
M  V30 4547 H 431.128 0.406263 0.632815 0
M  V30 4548 H 433.099 2.26282 1.94523 0
M  V30 4549 C 431.848 1.10933 3.29529 0
M  V30 4550 H 431.171 1.95427 3.48781 0
M  V30 4551 H 432.611 1.10937 4.0923 0
M  V30 4552 C 431.07 -0.186123 3.36385 0
M  V30 4553 O 431.6 -1.17664 3.84081 0
M  V30 4554 N 429.806 -0.230128 2.89687 0
M  V30 4555 H 429.353 0.576545 2.51065 0
M  V30 4556 H 429.311 -1.09658 2.94657 0
M  V30 4557 N 433.083 -1.0153 1.20538 0
M  V30 4558 C 434.016 -2.09759 0.898695 0
M  V30 4559 C 434.994 -1.61909 -0.149733 0
M  V30 4560 O 436.178 -1.88486 -0.0230293 0
M  V30 4561 C 433.305 -3.36913 0.347512 0
M  V30 4562 C 432.351 -4.03655 1.37713 0
M  V30 4563 S 433.184 -4.47402 2.94265 0
M  V30 4564 C 434.34 -5.77756 2.40726 0
M  V30 4565 H 434.573 -2.3545 1.81523 0
M  V30 4566 H 432.106 -1.14665 1.03399 0
M  V30 4567 H 434.064 -4.10484 0.0360518 0
M  V30 4568 H 432.725 -3.09291 -0.547546 0
M  V30 4569 H 431.918 -4.9514 0.940872 0
M  V30 4570 H 431.52 -3.36313 1.63614 0
M  V30 4571 H 433.812 -6.52994 1.80569 0
M  V30 4572 H 434.755 -6.2618 3.30612 0
M  V30 4573 H 435.163 -5.34081 1.82806 0
M  V30 4574 N 434.561 -1.01147 -1.20859 0
M  V30 4575 C 435.838 -0.613136 -1.85742 0
M  V30 4576 C 436.218 0.909004 -1.90526 0
M  V30 4577 O 435.566 1.79862 -1.40932 0
M  V30 4578 C 435.776 -1.255 -3.25654 0
M  V30 4579 C 437.124 -1.3672 -4.01986 0
M  V30 4580 O 438.148 -1.21082 -3.34989 0
M  V30 4581 O 437.007 -1.6194 -5.21956 0
M  V30 4582 H 434.101 -0.210878 -0.799662 0
M  V30 4583 H 436.647 -1.10853 -1.2849 0
M  V30 4584 H 435.419 -2.29532 -3.16908 0
M  V30 4585 H 435.042 -0.746369 -3.90532 0
M  V30 4586 N 436.039 1.36541 -0.78704 0
M  V30 4587 C 437.288 1.98552 -0.35494 0
M  V30 4588 C 437.601 1.63171 1.07864 0
M  V30 4589 O 438.807 2.18399 1.61289 0
M  V30 4590 C 437.263 3.55136 -0.583671 0
M  V30 4591 C 436.871 3.99444 -2.02851 0
M  V30 4592 C 438.615 4.2395 -0.215957 0
M  V30 4593 C 436.522 5.48796 -2.20403 0
M  V30 4594 H 435.452 0.742888 -0.128972 0
M  V30 4595 H 438.103 1.5587 -0.968337 0
M  V30 4596 H 436.485 3.95875 0.0994046 0
M  V30 4597 H 437.659 3.6991 -2.74779 0
M  V30 4598 H 435.974 3.43459 -2.35425 0
M  V30 4599 H 438.571 5.33709 -0.325405 0
M  V30 4600 H 438.914 4.07827 0.835646 0
M  V30 4601 H 439.447 3.88565 -0.852175 0
M  V30 4602 H 436.186 5.69864 -3.23937 0
M  V30 4603 H 435.706 5.79964 -1.52977 0
M  V30 4604 H 437.385 6.14986 -2.01002 0
M  V30 4605 N 437.518 0.538854 1.48102 0
M  V30 4606 C 438.448 -0.207654 2.32575 0
M  V30 4607 C 439.429 -0.926559 1.4265 0
M  V30 4608 O 440.614 -0.91061 1.71527 0
M  V30 4609 C 437.744 -1.24957 3.24042 0
M  V30 4610 C 436.698 -0.648263 4.23062 0
M  V30 4611 C 436.024 -1.79348 5.03725 0
M  V30 4612 C 437.324 0.385897 5.20872 0
M  V30 4613 H 439.018 0.497534 2.95237 0
M  V30 4614 H 436.564 0.240715 1.41974 0
M  V30 4615 H 438.517 -1.77983 3.81969 0
M  V30 4616 H 437.241 -1.98446 2.59397 0
M  V30 4617 H 435.9 -0.139452 3.66335 0
M  V30 4618 H 435.548 -2.51696 4.35498 0
M  V30 4619 H 435.248 -1.39702 5.70751 0
M  V30 4620 H 436.772 -2.32735 5.64506 0
M  V30 4621 H 438.186 -0.057607 5.73271 0
M  V30 4622 H 436.583 0.700227 5.96001 0
M  V30 4623 H 437.653 1.28848 4.67468 0
M  V30 4624 N 438.996 -1.55193 0.274407 0
M  V30 4625 C 439.928 -2.1989 -0.646595 0
M  V30 4626 C 440.941 -1.1834 -1.11801 0
M  V30 4627 O 442.13 -1.4507 -1.04004 0
M  V30 4628 C 439.23 -2.8104 -1.89393 0
M  V30 4629 C 438.403 -4.08274 -1.56943 0
M  V30 4630 C 437.462 -4.53478 -2.66916 0
M  V30 4631 O 436.488 -5.19267 -2.33132 0
M  V30 4632 N 437.69 -4.2356 -3.9696 0
M  V30 4633 H 440.455 -2.99556 -0.0928686 0
M  V30 4634 H 438.016 -1.61618 0.0954783 0
M  V30 4635 H 440.008 -3.08226 -2.62257 0
M  V30 4636 H 438.578 -2.05372 -2.35672 0
M  V30 4637 H 437.798 -3.88384 -0.674655 0
M  V30 4638 H 439.086 -4.91173 -1.32764 0
M  V30 4639 H 438.484 -3.70799 -4.27229 0
M  V30 4640 H 437.041 -4.55518 -4.66205 0
M  V30 4641 N 440.474 -0.00167713 -1.576 0
M  V30 4642 C 441.422 1.0074 -2.09652 0
M  V30 4643 C 442.416 1.35483 -1.01689 0
M  V30 4644 O 443.622 1.34028 -1.20152 0
M  V30 4645 H 439.997 0.342537 -0.669457 0
M  V30 4646 H 441.968 0.542841 -2.93421 0
M  V30 4647 C 440.717 2.2899 -2.61647 0
M  V30 4648 H 440.04 2.03124 -3.44355 0
M  V30 4649 H 441.48 2.9787 -3.01744 0
M  V30 4650 C 439.939 3.00085 -1.53136 0
M  V30 4651 O 440.469 3.91135 -0.91524 0
M  V30 4652 N 438.675 2.6194 -1.25841 0
M  V30 4653 H 438.222 1.8798 -1.76129 0
M  V30 4654 H 438.18 3.09822 -0.534576 0
M  V30 4655 N 441.952 1.55251 0.271103 0
M  V30 4656 C 443.363 1.66635 0.842007 0
M  V30 4657 C 443.714 0.594631 1.86972 0
M  V30 4658 O 442.839 -0.263532 2.14789 0
M  V30 4659 C 443.434 3.02082 1.53401 0
M  V30 4660 C 441.993 3.15487 2.05293 0
M  V30 4661 C 441.14 2.62438 0.895631 0
M  V30 4662 H 444.091 1.58629 0.0474117 0
M  V30 4663 H 444.112 2.95176 2.40107 0
M  V30 4664 H 443.624 3.80062 0.785786 0
M  V30 4665 H 441.725 2.42284 2.83071 0
M  V30 4666 H 441.838 4.22075 2.26693 0
M  V30 4667 H 440.202 2.19644 1.28953 0
M  V30 4668 H 440.985 3.42923 0.160878 0
M  V30 4669 N 443.43 -0.535701 1.48216 0
M  V30 4670 C 444.36 -1.65014 1.65204 0
M  V30 4671 C 445.341 -1.62554 0.501011 0
M  V30 4672 O 446.526 -1.7984 0.732886 0
M  V30 4673 C 443.656 -3.03616 1.68626 0
M  V30 4674 C 442.61 -3.20932 2.83172 0
M  V30 4675 C 441.936 -4.60537 2.71679 0
M  V30 4676 C 443.236 -3.04249 4.24535 0
M  V30 4677 H 444.93 -1.51053 2.58502 0
M  V30 4678 H 442.476 -0.725262 1.24402 0
M  V30 4679 H 444.429 -3.81446 1.79099 0
M  V30 4680 H 443.153 -3.18587 0.719026 0
M  V30 4681 H 441.812 -2.45517 2.72244 0
M  V30 4682 H 441.46 -4.72336 1.72937 0
M  V30 4683 H 441.16 -4.73069 3.48538 0
M  V30 4684 H 442.684 -5.40475 2.84112 0
M  V30 4685 H 444.098 -3.71877 4.36326 0
M  V30 4686 H 442.495 -3.28278 5.02348 0
M  V30 4687 H 443.565 -2.00739 4.41397 0
M  V30 4688 N 444.908 -1.36708 -0.784132 0
M  V30 4689 C 445.841 -1.25827 -1.90375 0
M  V30 4690 C 446.819 -0.141331 -1.61985 0
M  V30 4691 O 448.003 -0.313389 -1.85877 0
M  V30 4692 C 445.13 -0.942621 -3.25319 0
M  V30 4693 C 444.176 -2.07474 -3.72635 0
M  V30 4694 S 445.009 -3.69317 -3.8777 0
M  V30 4695 C 446.165 -3.39876 -5.25581 0
M  V30 4696 H 446.398 -2.20593 -1.99314 0
M  V30 4697 H 443.931 -1.22186 -0.943926 0
M  V30 4698 H 445.889 -0.767321 -4.03265 0
M  V30 4699 H 444.55 -0.0126566 -3.14097 0
M  V30 4700 H 443.743 -1.80858 -4.70432 0
M  V30 4701 H 443.345 -2.20953 -3.01754 0
M  V30 4702 H 445.637 -2.94097 -6.10339 0
M  V30 4703 H 446.58 -4.36956 -5.57203 0
M  V30 4704 H 446.988 -2.75098 -4.92931 0
M  V30 4705 N 446.386 1.0089 -1.21074 0
M  V30 4706 C 447.635 1.74019 -1.01981 0
M  V30 4707 C 447.948 1.90408 0.447665 0
M  V30 4708 O 449.154 2.60707 0.757906 0
M  V30 4709 C 447.61 3.13026 -1.77603 0
M  V30 4710 C 447.218 3.04623 -3.28495 0
M  V30 4711 C 448.962 3.90312 -1.66904 0
M  V30 4712 C 446.869 4.38685 -3.96623 0
M  V30 4713 H 445.799 0.652422 -0.377971 0
M  V30 4714 H 448.45 1.12755 -1.44771 0
M  V30 4715 H 446.832 3.74878 -1.27604 0
M  V30 4716 H 448.006 2.52032 -3.85767 0
M  V30 4717 H 446.321 2.40827 -3.39693 0
M  V30 4718 H 448.918 4.8951 -2.15138 0
M  V30 4719 H 449.261 4.11558 -0.62658 0
M  V30 4720 H 449.794 3.35104 -2.14359 0
M  V30 4721 H 446.533 4.22641 -5.01054 0
M  V30 4722 H 446.053 4.91252 -3.4414 0
M  V30 4723 H 447.732 5.075 -4.01314 0
M  V30 4724 N 447.864 1.01787 1.20321 0
M  V30 4725 C 448.811 0.589197 2.23153 0
M  V30 4726 C 449.781 -0.391367 1.61423 0
M  V30 4727 O 450.966 -0.290518 1.88575 0
M  V30 4728 C 448.106 -0.0650747 3.45039 0
M  V30 4729 C 447.219 0.960207 4.21194 0
M  V30 4730 C 446.354 0.276854 5.30478 0
M  V30 4731 C 445.393 1.2888 5.98378 0
M  V30 4732 N 444.53 0.632031 6.99249 0
M  V30 4733 H 449.37 1.47071 2.59179 0
M  V30 4734 H 446.907 0.736192 1.27352 0
M  V30 4735 H 448.865 -0.461552 4.14639 0
M  V30 4736 H 447.495 -0.910233 3.09701 0
M  V30 4737 H 446.547 1.47484 3.50646 0
M  V30 4738 H 447.859 1.72977 4.67847 0
M  V30 4739 H 447.013 -0.175056 6.06447 0
M  V30 4740 H 445.752 -0.525004 4.84866 0
M  V30 4741 H 444.757 1.75109 5.21169 0
M  V30 4742 H 445.982 2.09196 6.46076 0
M  V30 4743 H 443.928 -0.149935 6.55829 0
M  V30 4744 H 443.845 1.33964 7.44036 0
M  V30 4745 H 445.113 0.203755 7.79234 0
M  V30 4746 N 449.342 -1.36122 0.79427 0
M  V30 4747 C 450.591 -1.98361 0.365464 0
M  V30 4748 C 450.904 -1.6374 -1.06997 0
M  V30 4749 O 452.11 -2.19251 -1.60129 0
M  V30 4750 C 450.566 -3.54821 0.602496 0
M  V30 4751 C 450.174 -3.98362 2.04967 0
M  V30 4752 C 451.918 -4.2383 0.238437 0
M  V30 4753 C 449.825 -5.47619 2.2331 0
M  V30 4754 H 448.755 -0.742193 0.13291 0
M  V30 4755 H 451.406 -1.55354 0.976589 0
M  V30 4756 H 449.788 -3.95922 -0.078409 0
M  V30 4757 H 450.962 -3.68447 2.76737 0
M  V30 4758 H 449.277 -3.42206 2.37243 0
M  V30 4759 H 451.874 -5.33529 0.353705 0
M  V30 4760 H 452.217 -4.08264 -0.814006 0
M  V30 4761 H 452.75 -3.88108 0.872769 0
M  V30 4762 H 449.489 -5.68138 3.26955 0
M  V30 4763 H 449.009 -5.79145 1.5605 0
M  V30 4764 H 450.688 -6.13911 2.0426 0
M  V30 4765 N 450.82 -0.546701 -1.47814 0
M  V30 4766 C 451.768 0.220048 -2.31557 0
M  V30 4767 C 452.762 0.919472 -1.42275 0
M  V30 4768 O 453.968 0.841953 -1.59095 0
M  V30 4769 H 450.343 0.0898334 -0.746615 0
M  V30 4770 H 452.314 -0.505589 -2.94086 0
M  V30 4771 C 451.063 1.24353 -3.24702 0
M  V30 4772 H 450.386 0.714758 -3.93359 0
M  V30 4773 H 451.826 1.75112 -3.8615 0
M  V30 4774 C 450.285 2.28593 -2.47481 0
M  V30 4775 O 450.815 3.35334 -2.21165 0
M  V30 4776 N 449.021 2.02244 -2.08676 0
M  V30 4777 H 448.568 1.15455 -2.30278 0
M  V30 4778 H 448.526 2.72207 -1.57323 0
M  V30 4779 N 452.299 1.55045 -0.282633 0
M  V30 4780 C 453.231 2.2023 0.634924 0
M  V30 4781 C 454.244 1.18931 1.11172 0
M  V30 4782 O 455.433 1.4562 1.03233 0
M  V30 4783 C 452.533 2.82041 1.87899 0
M  V30 4784 C 451.706 4.091 1.54776 0
M  V30 4785 C 450.765 4.54887 2.64507 0
M  V30 4786 O 449.791 5.20496 2.30375 0
M  V30 4787 N 450.993 4.25659 3.94709 0
M  V30 4788 H 453.758 2.99601 0.0769811 0
M  V30 4789 H 451.319 1.61565 -0.104048 0
M  V30 4790 H 453.311 3.09613 2.60619 0
M  V30 4791 H 451.881 2.06618 2.3458 0
M  V30 4792 H 451.101 3.88736 0.654049 0
M  V30 4793 H 452.389 4.9187 1.30158 0
M  V30 4794 H 451.787 3.7306 4.25256 0
M  V30 4795 H 450.344 4.57984 4.63782 0
M  V30 4796 N 453.777 0.010035 1.57597 0
M  V30 4797 C 455.054 -0.710296 1.82248 0
M  V30 4798 C 455.434 -1.91426 0.889911 0
M  V30 4799 O 454.782 -2.28424 -0.0590292 0
M  V30 4800 C 454.992 -1.10655 3.30993 0
M  V30 4801 C 456.34 -1.50621 3.96987 0
M  V30 4802 O 457.364 -1.20007 3.35375 0
M  V30 4803 O 456.223 -2.07587 5.05539 0
M  V30 4804 H 453.317 -0.34673 0.750804 0
M  V30 4805 H 455.863 0.0362578 1.69661 0
M  V30 4806 H 454.635 -0.248826 3.90508 0
M  V30 4807 H 454.258 -1.91189 3.48615 0
M  V30 4808 N 455.255 -1.55392 -0.262866 0
M  V30 4809 C 456.666 -1.67079 -0.833158 0
M  V30 4810 C 457.017 -0.604539 -1.86654 0
M  V30 4811 O 456.142 0.252138 -2.14926 0
M  V30 4812 C 456.737 -3.02891 -1.51797 0
M  V30 4813 C 455.296 -3.16571 -2.03617 0
M  V30 4814 C 454.443 -2.62909 -0.881701 0
M  V30 4815 H 457.394 -1.58652 -0.0389986 0
M  V30 4816 H 457.415 -2.96445 -2.38538 0
M  V30 4817 H 456.927 -3.80473 -0.765619 0
M  V30 4818 H 455.028 -2.43782 -2.81782 0
M  V30 4819 H 455.141 -4.23271 -2.24452 0
M  V30 4820 H 453.505 -2.20324 -1.27786 0
M  V30 4821 H 454.288 -3.43003 -0.14269 0
M  V30 4822 N 456.733 0.527833 -1.48498 0
M  V30 4823 C 457.663 1.64136 -1.66077 0
M  V30 4824 C 458.644 1.62286 -0.509625 0
M  V30 4825 O 459.829 1.79449 -0.742413 0
M  V30 4826 C 456.959 3.02717 -1.70234 0
M  V30 4827 C 455.913 3.19426 -2.8487 0
M  V30 4828 C 455.239 4.5909 -2.74118 0
M  V30 4829 C 456.539 3.01993 -4.26142 0
M  V30 4830 H 458.233 1.4968 -2.593 0
M  V30 4831 H 455.779 0.718654 -1.24785 0
M  V30 4832 H 457.732 3.80491 -1.8112 0
M  V30 4833 H 456.456 3.18201 -0.735911 0
M  V30 4834 H 455.115 2.4407 -2.73542 0
M  V30 4835 H 454.763 4.71413 -1.7544 0
M  V30 4836 H 454.463 4.71214 -3.51042 0
M  V30 4837 H 455.987 5.3896 -2.86974 0
M  V30 4838 H 457.401 3.69558 -4.38292 0
M  V30 4839 H 455.798 3.2561 -5.04082 0
M  V30 4840 H 456.868 1.98396 -4.42456 0
M  V30 4841 N 458.211 1.37122 0.776871 0
M  V30 4842 C 459.459 1.31787 1.53221 0
M  V30 4843 C 459.78 -0.0987589 1.9475 0
M  V30 4844 O 459.05 -1.0417 1.65908 0
M  V30 4845 H 457.63 0.484839 0.568278 0
M  V30 4846 H 460.292 1.71556 0.924917 0
M  V30 4847 H 459.388 1.95355 2.43398 0
M  V30 4848 N 459.689 -1.00246 1.21608 0
M  V30 4849 C 460.938 -1.73476 1.02902 0
M  V30 4850 C 461.251 -1.90643 -0.437561 0
M  V30 4851 O 462.457 -2.61105 -0.74407 0
M  V30 4852 C 460.913 -3.12079 1.79261 0
M  V30 4853 C 460.521 -3.02877 3.30106 0
M  V30 4854 C 462.265 -3.89421 1.68972 0
M  V30 4855 C 460.172 -4.36575 3.98944 0
M  V30 4856 H 459.102 -0.650408 0.381425 0
M  V30 4857 H 461.753 -1.11985 1.45367 0
M  V30 4858 H 460.135 -3.74196 1.2959 0
M  V30 4859 H 461.309 -2.49983 3.87098 0
M  V30 4860 H 459.624 -2.39022 3.40965 0
M  V30 4861 H 462.221 -4.88362 2.17731 0
M  V30 4862 H 462.564 -4.1122 0.648397 0
M  V30 4863 H 463.097 -3.33963 2.16133 0
M  V30 4864 H 459.836 -4.19978 5.03288 0
M  V30 4865 H 459.356 -4.8942 3.4674 0
M  V30 4866 H 461.035 -5.05364 4.04 0
M  V30 4867 N 461.167 -1.02423 -1.1978 0
M  V30 4868 C 462.099 -0.559152 -2.22275 0
M  V30 4869 C 463.112 0.36251 -1.58713 0
M  V30 4870 O 464.301 0.159641 -1.77785 0
M  V30 4871 C 461.401 0.205094 -3.38279 0
M  V30 4872 C 460.574 -0.720361 -4.31427 0
M  V30 4873 C 459.633 -0.00234368 -5.262 0
M  V30 4874 O 458.659 -0.627378 -5.65732 0
M  V30 4875 N 459.861 1.26996 -5.66438 0
M  V30 4876 H 462.626 -1.44064 -2.62804 0
M  V30 4877 H 460.187 -0.902692 -1.34399 0
M  V30 4878 H 462.179 0.694868 -3.9869 0
M  V30 4879 H 460.749 0.987947 -2.96578 0
M  V30 4880 H 459.969 -1.39031 -3.68869 0
M  V30 4881 H 461.257 -1.3495 -4.90577 0
M  V30 4882 H 460.655 1.79858 -5.36347 0
M  V30 4883 H 459.212 1.70432 -6.29123 0
M  V30 4884 N 462.645 1.35699 -0.801477 0
M  V30 4885 C 463.893 1.9852 -0.37871 0
M  V30 4886 C 464.214 1.63907 1.05638 0
M  V30 4887 O 463.484 0.919013 1.73006 0
M  V30 4888 H 462.064 0.734322 -0.137042 0
M  V30 4889 H 464.726 1.65697 -1.02619 0
M  V30 4890 H 463.822 3.08382 -0.480284 0
M  V30 4891 N 464.123 0.554532 1.47522 0
M  V30 4892 C 465.539 0.214107 1.58157 0
M  V30 4893 C 465.739 -1.28331 1.55349 0
M  V30 4894 O 464.795 -2.06329 1.45549 0
M  V30 4895 C 466.108 0.838391 2.88776 0
M  V30 4896 C 467.656 0.809374 3.02354 0
M  V30 4897 C 468.131 1.41268 4.35669 0
M  V30 4898 N 469.622 1.37574 4.42298 0
M  V30 4899 C 470.357 1.8122 5.4401 0
M  V30 4900 N 469.853 2.3271 6.52547 0
M  V30 4901 N 471.646 1.72307 5.35039 0
M  V30 4902 H 463.797 1.52744 1.4759 0
M  V30 4903 H 466.06 0.636812 0.702264 0
M  V30 4904 H 465.766 1.89065 2.96559 0
M  V30 4905 H 465.64 0.329847 3.75755 0
M  V30 4906 H 468.027 -0.234187 2.94169 0
M  V30 4907 H 468.108 1.35565 2.16924 0
M  V30 4908 H 467.752 2.45529 4.4461 0
M  V30 4909 H 467.682 0.841871 5.19827 0
M  V30 4910 H 470.173 0.999081 3.64454 0
M  V30 4911 H 470.486 2.63944 7.26329 0
M  V30 4912 H 468.831 2.36719 6.53444 0
M  V30 4913 H 472.022 1.3186 4.49144 0
M  V30 4914 H 472.195 2.06641 6.14169 0
M  V30 4915 N 465.601 -1.54893 0.290851 0
M  V30 4916 C 467.017 -1.59476 -0.0628432 0
M  V30 4917 C 467.217 -1.30795 -1.5328 0
M  V30 4918 O 466.273 -1.07644 -2.28406 0
M  V30 4919 C 467.586 -2.98928 0.325962 0
M  V30 4920 C 469.134 -3.11799 0.273882 0
M  V30 4921 C 469.609 -4.53544 0.637359 0
M  V30 4922 N 471.1 -4.59433 0.589507 0
M  V30 4923 C 471.835 -5.67164 0.84335 0
M  V30 4924 N 471.331 -6.82975 1.16263 0
M  V30 4925 N 473.124 -5.56786 0.771091 0
M  V30 4926 H 465.275 -1.71798 1.24896 0
M  V30 4927 H 467.538 -0.801879 0.505663 0
M  V30 4928 H 467.244 -3.24805 1.34887 0
M  V30 4929 H 467.118 -3.75793 -0.325441 0
M  V30 4930 H 469.505 -2.85677 -0.739765 0
M  V30 4931 H 469.586 -2.37112 0.959766 0
M  V30 4932 H 469.23 -4.80394 1.64877 0
M  V30 4933 H 469.16 -5.26553 -0.0704866 0
M  V30 4934 H 471.651 -3.76245 0.353252 0
M  V30 4935 H 471.964 -7.61048 1.34257 0
M  V30 4936 H 470.309 -6.84552 1.20057 0
M  V30 4937 H 473.5 -4.65187 0.521383 0
M  V30 4938 H 473.673 -6.40664 0.972295 0
M  V30 4939 N 467.08 -0.0183926 -1.57589 0
M  V30 4940 C 468.329 0.66185 -1.90532 0
M  V30 4941 C 468.642 1.73904 -0.895366 0
M  V30 4942 O 469.848 2.47518 -1.11566 0
M  V30 4943 C 468.304 1.22844 -3.38286 0
M  V30 4944 C 467.912 0.185103 -4.47617 0
M  V30 4945 C 469.656 1.88581 -3.80312 0
M  V30 4946 C 467.563 0.762723 -5.86461 0
M  V30 4947 H 466.493 0.250972 -0.711006 0
M  V30 4948 H 469.144 -0.0819435 -1.83317 0
M  V30 4949 H 467.526 2.0235 -3.40398 0
M  V30 4950 H 468.7 -0.58671 -4.5705 0
M  V30 4951 H 467.015 -0.372889 -4.14727 0
M  V30 4952 H 469.612 2.32735 -4.81392 0
M  V30 4953 H 469.955 2.72408 -3.14801 0
M  V30 4954 H 470.488 1.15782 -3.80578 0
M  V30 4955 H 467.227 -0.0371713 -6.55489 0
M  V30 4956 H 466.747 1.50327 -5.80656 0
M  V30 4957 H 468.426 1.25576 -6.34697 0
M  V30 4958 N 468.558 1.5553 0.254621 0
M  V30 4959 C 469.508 1.86057 1.31783 0
M  V30 4960 C 470.492 0.720827 1.4385 0
M  V30 4961 O 471.684 0.982586 1.47222 0
M  V30 4962 C 468.813 2.15203 2.67475 0
M  V30 4963 C 467.899 3.35484 2.59444 0
M  V30 4964 N 468.29 4.54945 2.2104 0
M  V30 4965 C 466.588 3.38441 2.90472 0
M  V30 4966 C 467.289 5.3707 2.23453 0
M  V30 4967 N 466.265 4.75936 2.62652 0
M  V30 4968 H 470.067 2.75953 1.01129 0
M  V30 4969 H 467.581 1.55653 0.463255 0
M  V30 4970 H 469.578 2.35235 3.44195 0
M  V30 4971 H 468.238 1.26601 2.99002 0
M  V30 4972 H 469.249 4.8071 1.92712 0
M  V30 4973 H 465.926 2.60087 3.2659 0
M  V30 4974 H 467.316 6.42626 1.96166 0
M  V30 4975 N 470.036 -0.519951 1.48776 0
M  V30 4976 C 470.983 -1.62352 1.64044 0
M  V30 4977 C 471.953 -1.58945 0.482251 0
M  V30 4978 O 473.138 -1.77219 0.706971 0
M  V30 4979 C 470.278 -3.00579 1.69547 0
M  V30 4980 C 469.391 -3.14145 2.96541 0
M  V30 4981 C 468.526 -4.42991 2.93142 0
M  V30 4982 C 467.565 -4.50122 4.14797 0
M  V30 4983 N 466.702 -5.7037 4.09418 0
M  V30 4984 H 471.542 -1.48643 2.58281 0
M  V30 4985 H 469.079 -0.723516 1.28077 0
M  V30 4986 H 471.037 -3.80671 1.70719 0
M  V30 4987 H 469.667 -3.13036 0.787918 0
M  V30 4988 H 468.719 -2.27239 3.05068 0
M  V30 4989 H 470.031 -3.15275 3.86527 0
M  V30 4990 H 469.185 -5.31385 2.92772 0
M  V30 4991 H 467.924 -4.44398 2.00902 0
M  V30 4992 H 466.929 -3.60133 4.15433 0
M  V30 4993 H 468.154 -4.50445 5.08208 0
M  V30 4994 H 466.1 -5.72655 3.20004 0
M  V30 4995 H 466.017 -5.73036 4.93119 0
M  V30 4996 H 467.285 -6.61023 4.13121 0
M  V30 4997 N 471.514 -1.37532 -0.769588 0
M  V30 4998 C 472.424 -1.35668 -1.91393 0
M  V30 4999 C 473.44 -0.255954 -1.72107 0
M  V30 5000 O 474.616 -0.491704 -1.95305 0
M  V30 5001 C 471.681 -1.16481 -3.26547 0
M  V30 5002 C 470.742 -2.36212 -3.58472 0
M  V30 5003 C 469.975 -2.17932 -4.87177 0
M  V30 5004 O 470.198 -1.1647 -5.58382 0
M  V30 5005 O 469.132 -3.06167 -5.18214 0
M  V30 5006 H 472.958 -2.32055 -1.95918 0
M  V30 5007 H 470.543 -1.18284 -0.912641 0
M  V30 5008 H 472.425 -1.07778 -4.07384 0
M  V30 5009 H 471.1 -0.231687 -3.2287 0
M  V30 5010 H 470.007 -2.50488 -2.77861 0
M  V30 5011 H 471.34 -3.281 -3.66894 0
M  V30 5012 N 472.992 0.995999 -1.22138 0
M  V30 5013 C 473.939 2.08551 -0.988687 0
M  V30 5014 C 474.909 1.65864 0.0885021 0
M  V30 5015 O 476.094 1.90704 -0.0604589 0
M  V30 5016 C 473.234 3.40374 -0.569191 0
M  V30 5017 C 472.347 3.96421 -1.71681 0
M  V30 5018 C 471.482 5.1639 -1.2456 0
M  V30 5019 C 470.521 5.64567 -2.36497 0
M  V30 5020 N 469.658 6.75777 -1.90445 0
M  V30 5021 H 474.498 2.2779 -1.92135 0
M  V30 5022 H 472.035 1.1168 -0.957388 0
M  V30 5023 H 473.993 4.16068 -0.307166 0
M  V30 5024 H 472.623 3.21145 0.326462 0
M  V30 5025 H 471.675 3.17628 -2.09324 0
M  V30 5026 H 472.987 4.2816 -2.55891 0
M  V30 5027 H 472.141 5.99362 -0.940774 0
M  V30 5028 H 470.88 4.86266 -0.373662 0
M  V30 5029 H 469.885 4.80185 -2.67772 0
M  V30 5030 H 471.11 5.96716 -3.24202 0
M  V30 5031 H 469.056 6.47443 -1.05609 0
M  V30 5032 H 468.973 7.06818 -2.68223 0
M  V30 5033 H 470.241 7.62262 -1.63022 0
M  V30 5034 N 474.47 1.03057 1.19235 0
M  V30 5035 C 475.695 0.74757 1.93458 0
M  V30 5036 C 476.12 -0.687648 1.7508 0
M  V30 5037 O 475.478 -1.47499 1.05422 0
M  V30 5038 C 475.526 1.10604 3.43219 0
M  V30 5039 O 474.63 0.225671 4.11782 0
M  V30 5040 H 473.971 0.276047 0.603899 0
M  V30 5041 H 476.501 1.3777 1.51263 0
M  V30 5042 H 476.511 1.06366 3.93891 0
M  V30 5043 H 475.186 2.15165 3.55917 0
M  V30 5044 H 473.763 0.326795 3.71465 0
M  V30 5045 N 475.948 -1.35272 0.808662 0
M  V30 5046 C 476.878 -2.32315 0.234981 0
M  V30 5047 C 477.859 -1.57572 -0.64071 0
M  V30 5048 O 479.044 -1.8563 -0.570551 0
M  V30 5049 C 476.174 -3.41801 -0.615601 0
M  V30 5050 C 475.128 -4.27694 0.161767 0
M  V30 5051 C 474.454 -5.28519 -0.810649 0
M  V30 5052 C 475.754 -5.04231 1.36193 0
M  V30 5053 H 477.448 -2.80543 1.04575 0
M  V30 5054 H 474.994 -1.3488 0.504315 0
M  V30 5055 H 476.947 -4.08693 -1.02702 0
M  V30 5056 H 475.671 -2.92186 -1.45928 0
M  V30 5057 H 474.33 -3.62384 0.554382 0
M  V30 5058 H 473.978 -4.75171 -1.64988 0
M  V30 5059 H 473.678 -5.8686 -0.294822 0
M  V30 5060 H 475.202 -5.98283 -1.22023 0
M  V30 5061 H 476.616 -5.64058 1.02528 0
M  V30 5062 H 475.013 -5.72077 1.81239 0
M  V30 5063 H 476.083 -4.34753 2.14751 0
M  V30 5064 N 477.426 -0.562348 -1.47226 0
M  V30 5065 C 478.675 -0.038041 -2.01664 0
M  V30 5066 C 478.988 1.32199 -1.44162 0
M  V30 5067 O 480.194 1.9365 -1.90294 0
M  V30 5068 C 478.65 -0.0174958 -3.59896 0
M  V30 5069 C 478.258 -1.3746 -4.2639 0
M  V30 5070 C 480.002 0.453934 -4.22066 0
M  V30 5071 C 477.909 -1.31289 -5.76643 0
M  V30 5072 H 476.839 -0.0104511 -0.753928 0
M  V30 5073 H 479.49 -0.710966 -1.69167 0
M  V30 5074 H 477.872 0.721182 -3.89378 0
M  V30 5075 H 479.046 -2.1314 -4.08544 0
M  V30 5076 H 477.361 -1.78438 -3.7623 0
M  V30 5077 H 479.958 0.518584 -5.32179 0
M  V30 5078 H 480.301 1.46706 -3.89594 0
M  V30 5079 H 480.834 -0.230044 -3.97134 0
M  V30 5080 H 477.573 -2.30217 -6.13743 0
M  V30 5081 H 477.093 -0.597973 -5.96812 0
M  V30 5082 H 478.772 -1.01713 -6.38955 0
M  V30 5083 N 478.904 1.54736 -0.299062 0
M  V30 5084 C 479.814 2.27127 0.587413 0
M  V30 5085 C 480.83 1.30575 1.15005 0
M  V30 5086 O 482.006 1.63554 1.17525 0
M  V30 5087 C 479.071 2.99645 1.74395 0
M  V30 5088 C 478.132 4.11731 1.21559 0
M  V30 5089 C 477.365 4.80781 2.317 0
M  V30 5090 O 477.588 4.4918 3.51558 0
M  V30 5091 O 476.522 5.68226 1.98501 0
M  V30 5092 H 480.348 3.037 0.000250109 0
M  V30 5093 H 477.933 1.49256 -0.0655919 0
M  V30 5094 H 479.815 3.45138 2.4178 0
M  V30 5095 H 478.49 2.25969 2.31775 0
M  V30 5096 H 477.397 3.70641 0.507514 0
M  V30 5097 H 478.73 4.87379 0.687233 0
M  V30 5098 N 480.382 0.0267497 1.57577 0
M  V30 5099 C 481.628 -0.653371 1.91987 0
M  V30 5100 C 481.961 -1.71915 0.903263 0
M  V30 5101 O 481.236 -1.94358 -0.0743387 0
M  V30 5102 C 481.519 -1.272 3.36886 0
M  V30 5103 C 481.372 -0.215938 4.49281 0
M  V30 5104 C 482.691 -2.19069 3.81703 0
M  V30 5105 H 479.81 -0.236047 0.698177 0
M  V30 5106 H 482.452 0.0835236 1.89816 0
M  V30 5107 H 480.602 -1.90005 3.38866 0
M  V30 5108 H 482.274 0.41449 4.59434 0
M  V30 5109 H 480.517 0.458855 4.31366 0
M  V30 5110 H 481.188 -0.688347 5.47691 0
M  V30 5111 H 483.664 -1.66253 3.81444 0
M  V30 5112 H 482.54 -2.59307 4.83788 0
M  V30 5113 H 482.801 -3.08087 3.17072 0
M  V30 5114 N 481.861 -1.55662 -0.24637 0
M  V30 5115 C 483.091 -1.81312 -0.990438 0
M  V30 5116 C 483.499 -0.600234 -1.79426 0
M  V30 5117 O 482.842 0.440537 -1.78339 0
M  V30 5118 C 482.904 -3.0032 -1.97607 0
M  V30 5119 C 482.568 -4.36322 -1.35912 0
M  V30 5120 C 483.565 -5.14295 -0.761348 0
M  V30 5121 C 481.25 -4.83019 -1.37833 0
M  V30 5122 C 483.244 -6.37114 -0.190998 0
M  V30 5123 C 480.931 -6.05786 -0.804128 0
M  V30 5124 C 481.929 -6.82672 -0.211489 0
M  V30 5125 O 481.617 -8.03121 0.353845 0
M  V30 5126 H 481.349 -0.607233 -0.297058 0
M  V30 5127 H 483.903 -2.0356 -0.274351 0
M  V30 5128 H 482.133 -2.73829 -2.73047 0
M  V30 5129 H 483.822 -3.13057 -2.58361 0
M  V30 5130 H 484.588 -4.79337 -0.739013 0
M  V30 5131 H 480.467 -4.23165 -1.829 0
M  V30 5132 H 484.011 -6.97069 0.272206 0
M  V30 5133 H 479.908 -6.40222 -0.823792 0
M  V30 5134 H 480.676 -8.18131 0.245761 0
M  V30 5135 N 483.339 0.512053 -1.4905 0
M  V30 5136 C 484.272 1.63209 -1.59493 0
M  V30 5137 C 485.25 1.56407 -0.444481 0
M  V30 5138 O 486.434 1.76623 -0.658535 0
M  V30 5139 C 483.561 3.01685 -1.53961 0
M  V30 5140 C 482.607 3.26786 -2.74068 0
M  V30 5141 S 483.44 3.11107 -4.35859 0
M  V30 5142 C 484.596 4.51997 -4.32954 0
M  V30 5143 H 484.829 1.54104 -2.54243 0
M  V30 5144 H 482.362 0.696382 -1.37804 0
M  V30 5145 H 484.32 3.81538 -1.51455 0
M  V30 5146 H 482.981 3.08215 -0.605178 0
M  V30 5147 H 482.174 4.27849 -2.66386 0
M  V30 5148 H 481.776 2.54635 -2.73928 0
M  V30 5149 H 484.068 5.43871 -4.03993 0
M  V30 5150 H 485.011 4.64731 -5.34257 0
M  V30 5151 H 485.419 4.32159 -3.63178 0
M  V30 5152 N 484.817 1.37938 0.762283 0
M  V30 5153 C 486.233 1.18945 1.06415 0
M  V30 5154 C 486.433 0.0321163 2.01474 0
M  V30 5155 O 485.489 -0.624844 2.44647 0
M  V30 5156 C 486.802 2.51218 1.65258 0
M  V30 5157 C 488.35 2.57824 1.7747 0
M  V30 5158 C 488.825 3.90251 2.39725 0
M  V30 5159 N 490.316 3.91744 2.47166 0
M  V30 5160 C 491.051 4.90966 2.96209 0
M  V30 5161 N 490.547 6.00585 3.45354 0
M  V30 5162 N 492.34 4.78363 2.9517 0
M  V30 5163 H 484.491 2.11994 0.131301 0
M  V30 5164 H 486.754 0.940262 0.120879 0
M  V30 5165 H 486.46 3.36317 1.02878 0
M  V30 5166 H 486.334 2.68989 2.64433 0
M  V30 5167 H 488.721 1.73126 2.3898 0
M  V30 5168 H 488.802 2.43928 0.770241 0
M  V30 5169 H 488.446 4.75368 1.78852 0
M  V30 5170 H 488.376 4.01454 3.40796 0
M  V30 5171 H 490.867 3.12563 2.12397 0
M  V30 5172 H 491.18 6.72236 3.81207 0
M  V30 5173 H 489.525 6.04217 3.43434 0
M  V30 5174 H 492.716 3.91841 2.56082 0
M  V30 5175 H 492.889 5.55843 3.33081 0
M  V30 5176 N 486.295 -0.989507 1.22664 0
M  V30 5177 C 487.706 -1.54406 1.04955 0
M  V30 5178 C 488.057 -1.92366 -0.385951 0
M  V30 5179 O 487.182 -1.75111 -1.27142 0
M  V30 5180 C 487.777 -2.80578 1.89899 0
M  V30 5181 C 486.336 -3.32464 1.76478 0
M  V30 5182 C 485.483 -2.05524 1.86159 0
M  V30 5183 H 488.434 -0.810211 1.3646 0
M  V30 5184 H 488.455 -3.53075 1.4184 0
M  V30 5185 H 487.967 -2.52918 2.94371 0
M  V30 5186 H 486.068 -3.65024 0.747528 0
M  V30 5187 H 486.181 -4.02838 2.59342 0
M  V30 5188 H 484.545 -2.19241 1.29636 0
M  V30 5189 H 485.328 -1.80258 2.92168 0
M  V30 5190 N 487.773 -1.03688 -1.18687 0
M  V30 5191 C 488.703 -0.645407 -2.24403 0
M  V30 5192 C 489.684 0.349511 -1.66471 0
M  V30 5193 O 490.869 0.230453 -1.92828 0
M  V30 5194 C 487.999 -0.00365337 -3.473 0
M  V30 5195 C 486.953 -0.921705 -4.17958 0
M  V30 5196 C 486.279 -0.144629 -5.34504 0
M  V30 5197 C 487.579 -2.23909 -4.71871 0
M  V30 5198 H 489.273 -1.52917 -2.57404 0
M  V30 5199 H 486.819 -0.736711 -1.23728 0
M  V30 5200 H 488.772 0.281908 -4.20456 0
M  V30 5201 H 487.496 0.914963 -3.13522 0
M  V30 5202 H 486.155 -1.19159 -3.46694 0
M  V30 5203 H 485.803 0.776274 -4.96974 0
M  V30 5204 H 485.503 -0.756206 -5.82714 0
M  V30 5205 H 487.027 0.134004 -6.10453 0
M  V30 5206 H 488.441 -2.0145 -5.36741 0
M  V30 5207 H 486.838 -2.8033 -5.30599 0
M  V30 5208 H 487.908 -2.88822 -3.895 0
M  V30 5209 N 489.251 1.34841 -0.815825 0
M  V30 5210 C 490.476 2.03261 -0.41226 0
M  V30 5211 C 490.901 1.61055 0.971751 0
M  V30 5212 O 490.259 0.7917 1.63101 0
M  V30 5213 C 490.307 3.56914 -0.514289 0
M  V30 5214 O 489.411 4.09728 0.468675 0
M  V30 5215 H 488.752 0.641664 -0.170771 0
M  V30 5216 H 491.282 1.72241 -1.10427 0
M  V30 5217 H 491.292 4.06156 -0.387457 0
M  V30 5218 H 489.967 3.86982 -1.52375 0
M  V30 5219 H 488.544 3.71681 0.301316 0
M  V30 5220 N 490.729 0.570148 1.46925 0
M  V30 5221 C 491.677 -0.183181 2.31878 0
M  V30 5222 C 492.671 -0.896721 1.43719 0
M  V30 5223 O 493.877 -0.816536 1.60414 0
M  V30 5224 H 490.252 -0.077944 0.74795 0
M  V30 5225 H 492.223 0.552312 2.93244 0
M  V30 5226 C 490.972 -1.19172 3.2664 0
M  V30 5227 H 490.295 -0.652088 3.94446 0
M  V30 5228 H 491.735 -1.68946 3.88887 0
M  V30 5229 C 490.194 -2.24627 2.51086 0
M  V30 5230 O 490.724 -3.31773 2.26472 0
M  V30 5231 N 488.93 -1.98898 2.11867 0
M  V30 5232 H 488.477 -1.11777 2.32086 0
M  V30 5233 H 488.435 -2.6967 1.61634 0
M  V30 5234 N 492.207 -1.54576 0.307264 0
M  V30 5235 C 493.154 -2.23751 -0.56604 0
M  V30 5236 C 494.124 -1.22235 -1.12462 0
M  V30 5237 O 495.309 -1.50873 -1.16799 0
M  V30 5238 C 492.449 -2.98661 -1.72903 0
M  V30 5239 C 491.562 -4.14963 -1.20124 0
M  V30 5240 C 490.697 -4.77441 -2.3286 0
M  V30 5241 C 489.736 -5.85875 -1.77247 0
M  V30 5242 N 488.873 -6.42282 -2.8358 0
M  V30 5243 H 493.713 -2.97984 0.0304578 0
M  V30 5244 H 491.25 -1.47076 0.0268015 0
M  V30 5245 H 493.208 -3.40329 -2.41313 0
M  V30 5246 H 491.838 -2.26793 -2.29706 0
M  V30 5247 H 490.89 -3.78193 -0.409198 0
M  V30 5248 H 492.202 -4.93066 -0.754171 0
M  V30 5249 H 491.356 -5.21993 -3.09205 0
M  V30 5250 H 490.095 -3.98684 -2.80896 0
M  V30 5251 H 489.1 -5.40741 -0.993926 0
M  V30 5252 H 490.325 -6.6652 -1.30107 0
M  V30 5253 H 488.271 -5.66406 -3.30939 0
M  V30 5254 H 488.188 -7.1575 -2.43388 0
M  V30 5255 H 489.456 -6.91492 -3.59804 0
M  V30 5256 N 493.685 -0.035106 -1.57561 0
M  V30 5257 C 494.648 0.929819 -2.09492 0
M  V30 5258 C 495.648 1.25026 -1.01119 0
M  V30 5259 O 496.838 1.18961 -1.27255 0
M  V30 5260 C 493.97 2.24457 -2.56577 0
M  V30 5261 H 495.163 0.479935 -2.96035 0
M  V30 5262 H 492.716 0.213033 -1.54841 0
M  V30 5263 H 493.451 2.74061 -1.73382 0
M  V30 5264 H 493.236 2.02508 -3.35757 0
M  V30 5265 H 494.726 2.93607 -2.96959 0
M  V30 5266 N 495.163 1.55791 0.238111 0
M  V30 5267 C 496.388 1.8244 0.986432 0
M  V30 5268 C 496.813 0.613314 1.7782 0
M  V30 5269 O 496.171 -0.437767 1.75935 0
M  V30 5270 C 496.219 3.06917 1.893 0
M  V30 5271 O 495.323 2.84449 2.98601 0
M  V30 5272 H 494.664 0.601975 0.280218 0
M  V30 5273 H 497.194 2.02987 0.256437 0
M  V30 5274 H 497.204 3.36583 2.30598 0
M  V30 5275 H 495.879 3.947 1.31091 0
M  V30 5276 H 494.456 2.65972 2.61368 0
M  V30 5277 N 496.642 -0.504142 1.49319 0
M  V30 5278 C 497.605 -1.5883 1.65244 0
M  V30 5279 C 498.605 -1.52009 0.524386 0
M  V30 5280 O 499.795 -1.55218 0.79077 0
M  V30 5281 C 496.927 -2.98481 1.64687 0
M  V30 5282 H 498.12 -1.4604 2.61939 0
M  V30 5283 H 495.673 -0.728144 1.38303 0
M  V30 5284 H 496.408 -3.16751 0.695644 0
M  V30 5285 H 496.193 -3.0484 2.46607 0
M  V30 5286 H 497.683 -3.77256 1.79075 0
M  V30 5287 N 498.12 -1.38341 -0.754957 0
M  V30 5288 C 499.05 -1.38176 -1.88227 0
M  V30 5289 C 500.031 -0.247873 -1.68284 0
M  V30 5290 O 501.216 -0.45075 -1.88896 0
M  V30 5291 C 498.346 -1.20471 -3.25736 0
M  V30 5292 C 497.3 -2.3105 -3.60278 0
M  V30 5293 C 496.626 -1.98452 -4.96509 0
M  V30 5294 C 497.926 -3.73305 -3.65295 0
M  V30 5295 H 499.62 -2.32512 -1.88622 0
M  V30 5296 H 497.166 -1.1192 -0.906082 0
M  V30 5297 H 499.119 -1.18982 -4.04254 0
M  V30 5298 H 497.843 -0.225965 -3.25817 0
M  V30 5299 H 496.502 -2.31723 -2.84078 0
M  V30 5300 H 496.15 -0.990641 -4.93148 0
M  V30 5301 H 495.85 -2.7251 -5.20588 0
M  V30 5302 H 497.374 -1.98578 -5.77407 0
M  V30 5303 H 498.788 -3.7467 -4.3393 0
M  V30 5304 H 497.185 -4.46557 -4.00883 0
M  V30 5305 H 498.255 -4.05719 -2.65556 0
M  V30 5306 N 499.598 0.982988 -1.23187 0
M  V30 5307 C 500.844 1.72648 -1.06398 0
M  V30 5308 C 501.177 1.90066 0.398561 0
M  V30 5309 O 500.452 1.45105 1.29518 0
M  V30 5310 C 500.735 3.12627 -1.78707 0
M  V30 5311 C 500.588 3.02795 -3.32618 0
M  V30 5312 C 501.907 4.11997 -1.54747 0
M  V30 5313 H 499.026 0.626649 -0.387918 0
M  V30 5314 H 501.668 1.14455 -1.51658 0
M  V30 5315 H 499.818 3.62308 -1.40234 0
M  V30 5316 H 501.49 2.60659 -3.80598 0
M  V30 5317 H 499.733 2.39362 -3.61785 0
M  V30 5318 H 500.404 4.01893 -3.78399 0
M  V30 5319 H 502.88 3.71114 -1.88186 0
M  V30 5320 H 501.756 5.08037 -2.07821 0
M  V30 5321 H 502.017 4.39462 -0.482249 0
M  V30 5322 N 501.076 1.04316 1.18135 0
M  V30 5323 C 502.323 0.74802 1.88178 0
M  V30 5324 C 502.651 -0.72441 1.80506 0
M  V30 5325 O 501.906 -1.54463 1.20165 0
M  V30 5326 C 502.205 1.16271 3.37958 0
M  V30 5327 C 501.871 2.63585 3.65833 0
M  V30 5328 C 500.533 3.03829 3.73151 0
M  V30 5329 C 502.885 3.58822 3.78016 0
M  V30 5330 C 500.213 4.38194 3.90132 0
M  V30 5331 C 502.565 4.92909 3.96514 0
M  V30 5332 C 501.229 5.3282 4.02068 0
M  V30 5333 H 500.499 0.27372 0.688592 0
M  V30 5334 H 503.146 1.30863 1.39811 0
M  V30 5335 H 501.451 0.520938 3.88321 0
M  V30 5336 H 503.148 0.911672 3.90499 0
M  V30 5337 H 499.738 2.31414 3.60757 0
M  V30 5338 H 503.922 3.28875 3.71692 0
M  V30 5339 H 499.178 4.68631 3.92677 0
M  V30 5340 H 503.352 5.66606 4.04883 0
M  V30 5341 H 500.979 6.36943 4.14979 0
M  V30 5342 N 502.554 -1.34406 0.822964 0
M  V30 5343 C 503.801 -1.98284 0.411057 0
M  V30 5344 C 504.129 -1.65245 -1.02588 0
M  V30 5345 O 503.384 -0.91619 -1.72929 0
M  V30 5346 C 503.683 -3.52981 0.560268 0
M  V30 5347 C 503.349 -4.05931 1.96293 0
M  V30 5348 C 502.011 -4.20103 2.34664 0
M  V30 5349 C 504.363 -4.34412 2.87985 0
M  V30 5350 C 501.691 -4.60082 3.64062 0
M  V30 5351 C 504.043 -4.75838 4.16847 0
M  V30 5352 C 502.707 -4.88215 4.55195 0
M  V30 5353 H 501.977 -0.725573 0.150416 0
M  V30 5354 H 504.624 -1.60349 1.04692 0
M  V30 5355 H 502.929 -3.91477 -0.158982 0
M  V30 5356 H 504.626 -4.00385 0.222087 0
M  V30 5357 H 501.216 -3.95363 1.65487 0
M  V30 5358 H 505.4 -4.23001 2.59584 0
M  V30 5359 H 500.656 -4.67856 3.93599 0
M  V30 5360 H 504.83 -4.96834 4.87984 0
M  V30 5361 H 502.457 -5.18952 5.55512 0
M  V30 5362 N 504.032 -0.577932 -1.46621 0
M  V30 5363 C 505.257 -0.0652536 -2.07297 0
M  V30 5364 C 505.682 1.22828 -1.4246 0
M  V30 5365 O 505.04 1.74075 -0.506718 0
M  V30 5366 C 505.088 0.0920589 -3.60482 0
M  V30 5367 O 504.192 1.14972 -3.96049 0
M  V30 5368 H 503.533 -0.06065 -0.661224 0
M  V30 5369 H 506.063 -0.799515 -1.88332 0
M  V30 5370 H 506.073 0.299741 -4.06897 0
M  V30 5371 H 504.748 -0.852612 -4.07067 0
M  V30 5372 H 503.325 0.920879 -3.61351 0
M  V30 5373 N 505.51 1.54411 -0.315457 0
M  V30 5374 C 506.75 2.02329 0.290236 0
M  V30 5375 C 507.114 1.19878 1.49977 0
M  V30 5376 O 508.315 1.57562 2.17779 0
M  V30 5377 C 506.586 3.51912 0.623937 0
M  V30 5378 S 508.145 4.21775 1.21044 0
M  V30 5379 H 504.963 0.705499 0.0882739 0
M  V30 5380 H 507.565 1.90328 -0.446694 0
M  V30 5381 H 506.269 4.09546 -0.264624 0
M  V30 5382 H 505.8 3.67977 1.39128 0
M  V30 5383 H 507.815 4.28757 2.49764 0
M  V30 5384 N 506.988 0.0434614 1.5754 0
M  V30 5385 C 508.404 -0.313039 1.565 0
M  V30 5386 C 508.604 -1.71954 1.05043 0
M  V30 5387 O 507.66 -2.425 0.703564 0
M  V30 5388 C 508.973 -0.148544 3.00333 0
M  V30 5389 C 510.521 -0.220231 3.12224 0
M  V30 5390 C 510.996 -0.0843565 4.57922 0
M  V30 5391 N 512.487 -0.140881 4.62986 0
M  V30 5392 C 513.222 -0.0597443 5.73369 0
M  V30 5393 N 512.718 0.0733004 6.92761 0
M  V30 5394 N 514.511 -0.11477 5.61983 0
M  V30 5395 H 506.662 0.96303 1.89313 0
M  V30 5396 H 508.925 0.373164 0.871466 0
M  V30 5397 H 508.631 0.820894 3.41986 0
M  V30 5398 H 508.505 -0.912798 3.65989 0
M  V30 5399 H 510.892 -1.18014 2.70475 0
M  V30 5400 H 510.973 0.574646 2.49262 0
M  V30 5401 H 510.617 0.872192 5.00355 0
M  V30 5402 H 510.547 -0.898281 5.18882 0
M  V30 5403 H 513.038 -0.243273 3.77116 0
M  V30 5404 H 513.351 0.128128 7.72694 0
M  V30 5405 H 511.696 0.10828 6.94916 0
M  V30 5406 H 514.887 -0.217212 4.67596 0
M  V30 5407 H 515.06 -0.0480779 6.47982 0
M  V30 5408 N 508.466 -1.55915 -0.229846 0
M  V30 5409 C 509.694 -1.82617 -0.972562 0
M  V30 5410 C 510.109 -0.621488 -1.78278 0
M  V30 5411 O 509.466 0.409956 -1.77836 0
M  V30 5412 C 509.517 -3.0774 -1.89679 0
M  V30 5413 O 509.238 -4.23559 -1.11934 0
M  V30 5414 C 510.739 -3.47368 -2.75409 0
M  V30 5415 H 507.959 -0.60727 -0.285419 0
M  V30 5416 H 510.503 -2.02996 -0.247579 0
M  V30 5417 H 508.658 -2.89361 -2.57583 0
M  V30 5418 H 509.072 -4.94586 -1.74599 0
M  V30 5419 H 510.546 -4.37977 -3.35977 0
M  V30 5420 H 511.023 -2.68737 -3.47386 0
M  V30 5421 H 511.629 -3.68158 -2.12931 0
M  V30 5422 N 509.944 0.496216 -1.49584 0
M  V30 5423 C 511.221 1.25755 -1.49816 0
M  V30 5424 C 511.601 2.09859 -0.228572 0
M  V30 5425 O 510.949 2.14449 0.788908 0
M  V30 5426 C 511.159 2.11017 -2.7798 0
M  V30 5427 C 512.507 2.70047 -3.27658 0
M  V30 5428 O 513.531 2.21281 -2.79129 0
M  V30 5429 O 512.39 3.58834 -4.1219 0
M  V30 5430 H 509.484 0.569322 -0.599834 0
M  V30 5431 H 512.03 0.510094 -1.61852 0
M  V30 5432 H 510.802 1.48879 -3.61871 0
M  V30 5433 H 510.425 2.92947 -2.68827 0
M  V30 5434 N 511.423 1.38739 0.74761 0
M  V30 5435 C 512.356 1.3083 1.86972 0
M  V30 5436 C 513.334 0.184229 1.61553 0
M  V30 5437 O 514.518 0.36256 1.8498 0
M  V30 5438 C 511.645 1.02854 3.22705 0
M  V30 5439 C 510.691 2.17281 3.67003 0
M  V30 5440 S 511.524 3.79468 3.77842 0
M  V30 5441 C 512.68 3.53692 5.16385 0
M  V30 5442 H 512.913 2.258 1.93395 0
M  V30 5443 H 510.446 1.24646 0.911199 0
M  V30 5444 H 512.404 0.87397 4.01089 0
M  V30 5445 H 511.065 0.0959295 3.13953 0
M  V30 5446 H 510.258 1.93267 4.65472 0
M  V30 5447 H 509.86 2.28876 2.9579 0
M  V30 5448 H 512.152 3.10176 6.02327 0
M  V30 5449 H 513.095 4.51576 5.45422 0
M  V30 5450 H 513.503 2.8807 4.85464 0
M  V30 5451 N 512.901 -0.976442 1.23707 0
M  V30 5452 C 514.312 -1.53284 1.06587 0
M  V30 5453 C 514.663 -1.92765 -0.365526 0
M  V30 5454 O 513.788 -1.7645 -1.25277 0
M  V30 5455 C 514.383 -2.78548 1.92864 0
M  V30 5456 C 512.942 -3.30574 1.79994 0
M  V30 5457 C 512.089 -2.03538 1.88328 0
M  V30 5458 H 515.04 -0.795692 1.37311 0
M  V30 5459 H 515.061 -3.5155 1.45577 0
M  V30 5460 H 514.573 -2.49782 2.97037 0
M  V30 5461 H 512.674 -3.64211 0.786202 0
M  V30 5462 H 512.787 -4.00065 2.636 0
M  V30 5463 H 511.151 -2.17853 1.31954 0
M  V30 5464 H 511.934 -1.77149 2.94063 0
M  V30 5465 N 514.379 -1.04941 -1.1758 0
M  V30 5466 C 515.609 -0.777166 -1.91425 0
M  V30 5467 C 516.017 0.670647 -1.76915 0
M  V30 5468 O 515.36 1.46965 -1.10213 0
M  V30 5469 C 515.422 -1.07495 -3.43052 0
M  V30 5470 C 515.086 -2.51844 -3.81345 0
M  V30 5471 C 516.083 -3.50047 -3.844 0
M  V30 5472 C 513.768 -2.86787 -4.12382 0
M  V30 5473 C 515.762 -4.81239 -4.17957 0
M  V30 5474 C 513.449 -4.18182 -4.45608 0
M  V30 5475 C 514.447 -5.15219 -4.48373 0
M  V30 5476 O 514.135 -6.44258 -4.80819 0
M  V30 5477 H 513.867 -0.282209 -0.614275 0
M  V30 5478 H 516.421 -1.40258 -1.50056 0
M  V30 5479 H 514.651 -0.392437 -3.84704 0
M  V30 5480 H 516.34 -0.78912 -3.98155 0
M  V30 5481 H 517.106 -3.24391 -3.60548 0
M  V30 5482 H 512.985 -2.11922 -4.09402 0
M  V30 5483 H 516.529 -5.56974 -4.2003 0
M  V30 5484 H 512.426 -4.43602 -4.68922 0
M  V30 5485 H 513.194 -6.49041 -4.98686 0
M  V30 5486 N 515.857 1.33968 -0.830081 0
M  V30 5487 C 517.273 1.51003 -0.516742 0
M  V30 5488 C 517.473 1.77286 0.957694 0
M  V30 5489 O 516.529 1.82797 1.74188 0
M  V30 5490 C 517.842 2.67036 -1.38247 0
M  V30 5491 C 519.39 2.80919 -1.38034 0
M  V30 5492 C 519.865 4.00004 -2.23071 0
M  V30 5493 N 521.356 4.07224 -2.20733 0
M  V30 5494 C 522.091 4.98541 -2.83275 0
M  V30 5495 N 521.587 5.95033 -3.54835 0
M  V30 5496 N 523.38 4.91469 -2.72791 0
M  V30 5497 H 515.531 1.15168 -1.78466 0
M  V30 5498 H 517.794 0.565443 -0.760906 0
M  V30 5499 H 517.5 2.54266 -2.42985 0
M  V30 5500 H 517.374 3.62226 -1.05225 0
M  V30 5501 H 519.761 2.93127 -0.340713 0
M  V30 5502 H 519.842 1.86517 -1.75057 0
M  V30 5503 H 519.486 3.88557 -3.27087 0
M  V30 5504 H 519.416 4.93634 -1.83394 0
M  V30 5505 H 521.907 3.38162 -1.68687 0
M  V30 5506 H 522.22 6.61357 -3.99784 0
M  V30 5507 H 520.565 5.95135 -3.58942 0
M  V30 5508 H 523.756 4.15048 -2.16456 0
M  V30 5509 H 523.929 5.62439 -3.21818 0
M  V30 5510 N 517.335 0.585699 1.46312 0
M  V30 5511 C 518.565 0.0780166 2.06453 0
M  V30 5512 C 518.973 -1.2336 1.43454 0
M  V30 5513 O 518.316 -1.75734 0.535086 0
M  V30 5514 C 518.378 -0.158951 3.59148 0
M  V30 5515 C 518.042 1.06752 4.44357 0
M  V30 5516 C 519.039 1.98031 4.80708 0
M  V30 5517 C 516.724 1.2902 4.85447 0
M  V30 5518 C 518.718 3.09924 5.5698 0
M  V30 5519 C 516.405 2.41218 5.61478 0
M  V30 5520 C 517.403 3.31499 5.97158 0
M  V30 5521 O 517.091 4.41747 6.71651 0
M  V30 5522 H 516.823 0.0558894 0.673686 0
M  V30 5523 H 519.377 0.806994 1.88883 0
M  V30 5524 H 517.607 -0.942575 3.75037 0
M  V30 5525 H 519.296 -0.615513 4.01206 0
M  V30 5526 H 520.062 1.82043 4.49539 0
M  V30 5527 H 515.941 0.596567 4.57124 0
M  V30 5528 H 519.485 3.80415 5.84748 0
M  V30 5529 H 515.382 2.57167 5.9206 0
M  V30 5530 H 516.15 4.40152 6.90079 0
M  V30 5531 N 518.813 -1.54241 0.323641 0
M  V30 5532 C 519.763 -2.21071 -0.557833 0
M  V30 5533 C 520.747 -1.19126 -1.08157 0
M  V30 5534 O 521.939 -1.44755 -1.01857 0
M  V30 5535 C 519.068 -2.97208 -1.71821 0
M  V30 5536 C 518.154 -4.06491 -1.20936 0
M  V30 5537 N 518.545 -5.04052 -0.420202 0
M  V30 5538 C 516.843 -4.20443 -1.48808 0
M  V30 5539 C 517.544 -5.81516 -0.146413 0
M  V30 5540 N 516.52 -5.38641 -0.732562 0
M  V30 5541 H 520.322 -2.93853 0.0523921 0
M  V30 5542 H 517.836 -1.61883 0.129502 0
M  V30 5543 H 519.833 -3.4357 -2.36146 0
M  V30 5544 H 518.493 -2.25947 -2.33191 0
M  V30 5545 H 519.504 -5.17862 -0.0630401 0
M  V30 5546 H 516.181 -3.60396 -2.10762 0
M  V30 5547 H 517.571 -6.70119 0.488895 0
M  V30 5548 N 520.291 -0.0518155 -1.57515 0
M  V30 5549 C 521.516 0.634896 -1.97443 0
M  V30 5550 C 521.941 1.63546 -0.929207 0
M  V30 5551 O 521.299 1.80981 0.107484 0
M  V30 5552 C 521.347 1.29765 -3.36442 0
M  V30 5553 O 520.451 2.41333 -3.34413 0
M  V30 5554 H 519.792 0.164994 -0.643174 0
M  V30 5555 H 522.322 -0.120407 -2.04245 0
M  V30 5556 H 522.332 1.64918 -3.73184 0
M  V30 5557 H 521.007 0.564361 -4.12053 0
M  V30 5558 H 519.584 2.08122 -3.09418 0
M  V30 5559 N 521.769 1.56035 0.221574 0
M  V30 5560 C 522.994 1.83476 0.967026 0
M  V30 5561 C 523.419 0.632139 1.7716 0
M  V30 5562 O 522.777 -0.419082 1.7639 0
M  V30 5563 C 522.825 3.08907 1.86034 0
M  V30 5564 O 521.929 2.876 2.95567 0
M  V30 5565 H 521.27 0.604913 0.273817 0
M  V30 5566 H 523.8 2.03247 0.234893 0
M  V30 5567 H 523.81 3.3901 2.27016 0
M  V30 5568 H 522.485 3.96068 1.26898 0
M  V30 5569 H 521.062 2.6873 2.58532 0
M  V30 5570 N 523.247 -0.488276 1.49845 0
M  V30 5571 C 524.177 -1.59675 1.70371 0
M  V30 5572 C 525.158 -1.60878 0.552473 0
M  V30 5573 O 526.343 -1.77417 0.78973 0
M  V30 5574 C 523.473 -2.98098 1.782 0
M  V30 5575 C 522.427 -3.11761 2.93239 0
M  V30 5576 C 521.753 -4.51661 2.86193 0
M  V30 5577 C 523.053 -2.90589 4.33999 0
M  V30 5578 H 524.747 -1.42752 2.63177 0
M  V30 5579 H 522.293 -0.685317 1.26647 0
M  V30 5580 H 524.246 -3.75555 1.91144 0
M  V30 5581 H 522.97 -3.16138 0.820018 0
M  V30 5582 H 521.629 -2.36732 2.79917 0
M  V30 5583 H 521.277 -4.66595 1.87877 0
M  V30 5584 H 520.977 -4.61742 3.63412 0
M  V30 5585 H 522.501 -5.31162 3.01163 0
M  V30 5586 H 523.915 -3.57807 4.47936 0
M  V30 5587 H 522.312 -3.1213 5.12538 0
M  V30 5588 H 523.382 -1.86595 4.4756 0
M  V30 5589 N 524.725 -1.39134 -0.740242 0
M  V30 5590 C 525.973 -1.35803 -1.49673 0
M  V30 5591 C 526.294 0.0470897 -1.94943 0
M  V30 5592 O 525.564 0.997347 -1.68611 0
M  V30 5593 H 524.144 -0.499736 -0.555224 0
M  V30 5594 H 526.806 -1.73947 -0.879107 0
M  V30 5595 H 525.902 -2.0174 -2.38133 0
M  V30 5596 N 526.204 0.969867 -1.24223 0
M  V30 5597 C 527.136 2.0669 -0.99055 0
M  V30 5598 C 528.149 1.62753 0.0392222 0
M  V30 5599 O 529.338 1.77403 -0.197561 0
M  V30 5600 C 526.438 3.35589 -0.472594 0
M  V30 5601 C 525.611 4.08444 -1.56499 0
M  V30 5602 C 524.67 5.15616 -1.05007 0
M  V30 5603 O 523.696 5.41911 -1.7413 0
M  V30 5604 N 524.898 5.80383 0.116641 0
M  V30 5605 H 527.663 2.28855 -1.93508 0
M  V30 5606 H 525.224 1.13733 -1.15223 0
M  V30 5607 H 527.216 4.04542 -0.112919 0
M  V30 5608 H 525.786 3.10311 0.377617 0
M  V30 5609 H 525.006 3.33798 -2.09696 0
M  V30 5610 H 526.294 4.53882 -2.29932 0
M  V30 5611 H 525.692 5.6142 0.694589 0
M  V30 5612 H 524.249 6.50462 0.417483 0
M  V30 5613 N 527.682 1.05563 1.17022 0
M  V30 5614 C 528.612 0.681026 2.23348 0
M  V30 5615 C 529.593 -0.322983 1.67005 0
M  V30 5616 O 530.778 -0.199746 1.9317 0
M  V30 5617 C 527.908 0.0589053 3.4725 0
M  V30 5618 C 526.862 0.988082 4.16438 0
M  V30 5619 C 526.188 0.229646 5.34207 0
M  V30 5620 C 527.488 2.31388 4.68249 0
M  V30 5621 H 529.182 1.56993 2.54938 0
M  V30 5622 H 526.728 0.756302 1.2254 0
M  V30 5623 H 528.681 -0.214982 4.20851 0
M  V30 5624 H 527.405 -0.864968 3.14938 0
M  V30 5625 H 526.064 1.24659 3.44754 0
M  V30 5626 H 525.712 -0.697111 4.98146 0
M  V30 5627 H 525.412 0.848815 5.81437 0
M  V30 5628 H 526.936 -0.0368694 6.10589 0
M  V30 5629 H 528.35 2.09964 5.33468 0
M  V30 5630 H 526.747 2.88736 5.26072 0
M  V30 5631 H 527.817 2.94982 3.84855 0
M  V30 5632 N 529.16 -1.33526 0.837174 0
M  V30 5633 C 530.108 -2.31168 0.257698 0
M  V30 5634 C 531.102 -1.5806 -0.609388 0
M  V30 5635 O 532.308 -1.72941 -0.499139 0
M  V30 5636 H 528.683 -0.74922 0.0646058 0
M  V30 5637 H 530.654 -2.77552 1.09578 0
M  V30 5638 C 529.403 -3.4326 -0.553887 0
M  V30 5639 H 528.726 -3.99665 0.104008 0
M  V30 5640 H 530.166 -4.13782 -0.925219 0
M  V30 5641 C 528.625 -2.88965 -1.73207 0
M  V30 5642 O 529.155 -2.85013 -2.83073 0
M  V30 5643 N 527.361 -2.45596 -1.55342 0
M  V30 5644 H 526.908 -2.49009 -0.659705 0
M  V30 5645 H 526.866 -2.0962 -2.34322 0
M  V30 5646 N 530.638 -0.59345 -1.46 0
M  V30 5647 C 531.885 -0.0831523 -2.02329 0
M  V30 5648 C 532.213 1.28093 -1.46364 0
M  V30 5649 O 531.468 1.85526 -0.622793 0
M  V30 5650 C 531.767 0.021178 -3.57394 0
M  V30 5651 C 531.433 -1.27671 -4.32448 0
M  V30 5652 C 530.095 -1.63227 -4.5267 0
M  V30 5653 C 532.447 -2.13511 -4.7546 0
M  V30 5654 C 529.775 -2.84401 -5.1316 0
M  V30 5655 C 532.127 -3.33922 -5.37289 0
M  V30 5656 C 530.791 -3.69747 -5.55737 0
M  V30 5657 H 530.061 -0.0304276 -0.740375 0
M  V30 5658 H 532.708 -0.772239 -1.75239 0
M  V30 5659 H 531.013 0.793454 -3.83682 0
M  V30 5660 H 532.71 0.431942 -3.98667 0
M  V30 5661 H 529.3 -0.989937 -4.17011 0
M  V30 5662 H 533.484 -1.87344 -4.59582 0
M  V30 5663 H 528.74 -3.12282 -5.25633 0
M  V30 5664 H 532.914 -4.00698 -5.69574 0
M  V30 5665 H 530.541 -4.6373 -6.02377 0
M  V30 5666 N 532.116 1.54067 -0.331816 0
M  V30 5667 C 533.344 2.05131 0.269996 0
M  V30 5668 C 533.759 1.20749 1.45138 0
M  V30 5669 O 533.116 0.240069 1.80914 0
M  V30 5670 C 533.167 3.54728 0.696456 0
M  V30 5671 O 532.888 4.35906 -0.43794 0
M  V30 5672 C 534.389 4.21916 1.36021 0
M  V30 5673 H 531.609 0.668807 0.0542042 0
M  V30 5674 H 534.153 1.98777 -0.4804 0
M  V30 5675 H 532.308 3.61342 1.39681 0
M  V30 5676 H 532.722 5.24404 -0.100334 0
M  V30 5677 H 534.196 5.28015 1.60947 0
M  V30 5678 H 534.673 3.73538 2.31011 0
M  V30 5679 H 535.279 4.19463 0.702212 0
M  V30 5680 N 533.594 0.0601682 1.57485 0
M  V30 5681 C 534.842 -0.610386 1.92662 0
M  V30 5682 C 535.163 -1.70849 0.939981 0
M  V30 5683 O 534.433 -1.95895 -0.0137455 0
M  V30 5684 H 533.013 -0.228457 0.711208 0
M  V30 5685 H 535.675 0.115288 1.94559 0
M  V30 5686 H 534.771 -1.0432 2.94149 0
M  V30 5687 N 535.072 -1.5615 -0.213296 0
M  V30 5688 C 536.297 -1.83986 -0.957282 0
M  V30 5689 C 536.722 -0.641526 -1.76822 0
M  V30 5690 O 536.08 0.409722 -1.7661 0
M  V30 5691 C 536.128 -3.09889 -1.84393 0
M  V30 5692 O 535.232 -2.89163 -2.94038 0
M  V30 5693 H 534.573 -0.606357 -0.270605 0
M  V30 5694 H 537.103 -2.03369 -0.224111 0
M  V30 5695 H 537.113 -3.40209 -2.25215 0
M  V30 5696 H 535.788 -3.96735 -1.24795 0
M  V30 5697 H 534.365 -2.70097 -2.57103 0
M  V30 5698 N 536.55 0.480323 -1.50102 0
M  V30 5699 C 537.796 1.23489 -1.60867 0
M  V30 5700 C 538.129 1.91809 -0.303827 0
M  V30 5701 O 537.404 1.81694 0.694092 0
M  V30 5702 C 537.687 2.28578 -2.78252 0
M  V30 5703 C 537.54 1.64624 -4.18592 0
M  V30 5704 C 538.859 3.2997 -2.91218 0
M  V30 5705 H 535.978 0.447605 -0.585507 0
M  V30 5706 H 538.62 0.530005 -1.82458 0
M  V30 5707 H 536.77 2.88697 -2.59974 0
M  V30 5708 H 538.442 1.08173 -4.48438 0
M  V30 5709 H 536.685 0.949645 -4.23278 0
M  V30 5710 H 537.356 2.40946 -4.96638 0
M  V30 5711 H 539.832 2.79864 -3.07921 0
M  V30 5712 H 538.708 4.00839 -3.74993 0
M  V30 5713 H 538.969 3.93541 -2.0144 0
M  V30 5714 N 538.028 1.39524 0.732853 0
M  V30 5715 C 539.277 1.36175 1.48792 0
M  V30 5716 C 539.59 -0.0388195 1.95561 0
M  V30 5717 O 540.796 -0.194899 2.708 0
M  V30 5718 C 539.252 2.39242 2.68871 0
M  V30 5719 C 538.86 3.85024 2.29042 0
M  V30 5720 C 540.604 2.44972 3.46683 0
M  V30 5721 C 538.511 4.79727 3.45856 0
M  V30 5722 H 537.441 0.506267 0.558757 0
M  V30 5723 H 540.092 1.65181 0.799226 0
M  V30 5724 H 538.474 2.0331 3.39825 0
M  V30 5725 H 539.648 4.30008 1.6562 0
M  V30 5726 H 537.963 3.82609 1.64316 0
M  V30 5727 H 540.56 3.12918 4.33574 0
M  V30 5728 H 540.903 1.4749 3.89297 0
M  V30 5729 H 541.436 2.79808 2.82759 0
M  V30 5730 H 538.175 5.78479 3.08289 0
M  V30 5731 H 537.695 4.39421 4.08251 0
M  V30 5732 H 539.374 4.98731 4.12161 0
M  V30 5733 N 539.506 -0.963266 1.24736 0
M  V30 5734 C 540.736 -1.73913 1.11524 0
M  V30 5735 C 541.144 -1.86218 -0.334612 0
M  V30 5736 O 540.487 -1.3531 -1.24245 0
M  V30 5737 C 540.549 -3.17501 1.68622 0
M  V30 5738 C 540.213 -3.28655 3.17546 0
M  V30 5739 C 541.21 -3.13637 4.14642 0
M  V30 5740 C 538.895 -3.52753 3.5759 0
M  V30 5741 C 540.889 -3.2255 5.49764 0
M  V30 5742 C 538.576 -3.61303 4.92852 0
M  V30 5743 C 539.574 -3.46214 5.88748 0
M  V30 5744 O 539.262 -3.5443 7.2155 0
M  V30 5745 H 538.994 -0.552057 0.390139 0
M  V30 5746 H 541.548 -1.2177 1.65412 0
M  V30 5747 H 539.778 -3.70969 1.09172 0
M  V30 5748 H 541.467 -3.76914 1.50635 0
M  V30 5749 H 542.233 -2.94899 3.85045 0
M  V30 5750 H 538.112 -3.63561 2.83451 0
M  V30 5751 H 541.656 -3.1069 6.24594 0
M  V30 5752 H 537.553 -3.79556 5.22118 0
M  V30 5753 H 538.321 -3.71116 7.29531 0
M  V30 5754 N 540.985 -1.06182 -1.16461 0
M  V30 5755 C 541.895 -0.682671 -2.24448 0
M  V30 5756 C 542.911 0.30078 -1.71381 0
M  V30 5757 O 544.087 0.150376 -2.00838 0
M  V30 5758 C 541.152 -0.0737202 -3.46622 0
M  V30 5759 C 540.213 -1.10889 -4.14731 0
M  V30 5760 C 539.446 -0.528908 -5.31073 0
M  V30 5761 O 539.669 0.65868 -5.66584 0
M  V30 5762 O 538.603 -1.26805 -5.88391 0
M  V30 5763 H 542.429 -1.58291 -2.59187 0
M  V30 5764 H 540.014 -0.834013 -1.23954 0
M  V30 5765 H 541.896 0.264192 -4.20571 0
M  V30 5766 H 540.571 0.800015 -3.13658 0
M  V30 5767 H 539.478 -1.49896 -3.42756 0
M  V30 5768 H 540.811 -1.95412 -4.51747 0
M  V30 5769 N 542.463 1.3308 -0.844243 0
M  V30 5770 C 543.426 2.27403 -0.286485 0
M  V30 5771 C 544.426 1.51179 0.547872 0
M  V30 5772 O 545.616 1.70421 0.360886 0
M  V30 5773 C 542.748 3.35653 0.595813 0
M  V30 5774 H 543.941 2.78248 -1.11885 0
M  V30 5775 H 541.494 1.43574 -0.617749 0
M  V30 5776 H 542.229 2.90058 1.4504 0
M  V30 5777 H 542.014 3.921 -0.00125994 0
M  V30 5778 H 543.504 4.05958 0.979168 0
M  V30 5779 N 543.941 0.601185 1.45683 0
M  V30 5780 C 544.873 -0.159446 2.28645 0
M  V30 5781 C 545.886 -0.837882 1.39583 0
M  V30 5782 O 547.075 -0.704344 1.64016 0
M  V30 5783 C 544.175 -1.24641 3.15147 0
M  V30 5784 C 543.348 -0.656334 4.32448 0
M  V30 5785 C 542.407 -1.63337 5.00208 0
M  V30 5786 O 541.433 -1.16217 5.57209 0
M  V30 5787 N 542.635 -2.96773 4.98905 0
M  V30 5788 H 545.4 0.5524 2.94565 0
M  V30 5789 H 542.961 0.440223 1.558 0
M  V30 5790 H 544.953 -1.8997 3.57342 0
M  V30 5791 H 543.523 -1.86087 2.51178 0
M  V30 5792 H 542.743 0.174879 3.93812 0
M  V30 5793 H 544.031 -0.242211 5.08223 0
M  V30 5794 H 543.429 -3.37662 4.53873 0
M  V30 5795 H 541.986 -3.57541 5.44984 0
M  V30 5796 N 545.419 -1.53889 0.339982 0
M  V30 5797 C 546.696 -1.93084 -0.312719 0
M  V30 5798 C 547.076 -1.2712 -1.68534 0
M  V30 5799 O 546.424 -0.420835 -2.24591 0
M  V30 5800 C 546.634 -3.4683 -0.388558 0
M  V30 5801 C 547.982 -4.19732 -0.641088 0
M  V30 5802 O 549.006 -3.53075 -0.470818 0
M  V30 5803 O 547.865 -5.3781 -0.970685 0
M  V30 5804 H 544.959 -0.806784 -0.18174 0
M  V30 5805 H 547.505 -1.65137 0.390898 0
M  V30 5806 H 546.277 -3.87055 0.574821 0
M  V30 5807 H 545.9 -3.80933 -1.1391 0
M  V30 5808 N 546.897 -0.0685191 -1.57451 0
M  V30 5809 C 548.143 0.602239 -1.93652 0
M  V30 5810 C 548.476 1.6946 -0.948526 0
M  V30 5811 O 547.751 1.94487 0.022782 0
M  V30 5812 C 548.034 1.18223 -3.4014 0
M  V30 5813 C 547.887 0.0967431 -4.49696 0
M  V30 5814 C 549.206 2.08872 -3.87377 0
M  V30 5815 H 546.325 0.217453 -0.70419 0
M  V30 5816 H 548.967 -0.133821 -1.89528 0
M  V30 5817 H 547.117 1.80953 -3.43785 0
M  V30 5818 H 548.789 -0.536155 -4.58174 0
M  V30 5819 H 547.032 -0.573063 -4.29998 0
M  V30 5820 H 547.703 0.542894 -5.49324 0
M  V30 5821 H 550.179 1.56081 -3.85717 0
M  V30 5822 H 549.055 2.46389 -4.90493 0
M  V30 5823 H 549.316 2.99572 -3.25129 0
M  V30 5824 N 548.375 1.56261 0.205012 0
M  V30 5825 C 549.605 1.83874 0.942018 0
M  V30 5826 C 550.013 0.647595 1.77772 0
M  V30 5827 O 549.356 -0.393098 1.79445 0
M  V30 5828 C 549.418 3.05453 1.89575 0
M  V30 5829 C 549.082 4.39772 1.24296 0
M  V30 5830 C 550.079 5.16133 0.624724 0
M  V30 5831 C 547.764 4.86504 1.24978 0
M  V30 5832 C 549.758 6.37396 0.0220117 0
M  V30 5833 C 547.445 6.07705 0.643232 0
M  V30 5834 C 548.443 6.82993 0.0304164 0
M  V30 5835 O 548.131 8.019 -0.566654 0
M  V30 5836 H 547.863 0.614896 0.280854 0
M  V30 5837 H 550.417 2.04215 0.220285 0
M  V30 5838 H 548.647 2.80972 2.65691 0
M  V30 5839 H 550.336 3.19797 2.4997 0
M  V30 5840 H 551.102 4.81127 0.611666 0
M  V30 5841 H 546.981 4.27865 1.71616 0
M  V30 5842 H 550.525 6.96102 -0.456926 0
M  V30 5843 H 546.422 6.42181 0.653759 0
M  V30 5844 H 547.19 8.17192 -0.462588 0
M  V30 5845 N 549.853 -0.472356 1.50355 0
M  V30 5846 C 551.078 -1.25251 1.65309 0
M  V30 5847 C 551.503 -1.85081 0.335643 0
M  V30 5848 O 550.861 -1.67227 -0.700335 0
M  V30 5849 C 550.909 -2.3379 2.74544 0
M  V30 5850 O 550.013 -3.38401 2.35709 0
M  V30 5851 H 549.354 -0.368539 0.552336 0
M  V30 5852 H 551.884 -0.562271 1.96722 0
M  V30 5853 H 551.894 -2.79121 2.97583 0
M  V30 5854 H 550.569 -1.89614 3.70161 0
M  V30 5855 H 549.146 -2.9879 2.23112 0
M  V30 5856 N 551.331 -1.39911 -0.725443 0
M  V30 5857 C 552.579 -1.37382 -1.48224 0
M  V30 5858 C 552.9 0.0264107 -1.94982 0
M  V30 5859 O 552.17 0.979408 -1.6966 0
M  V30 5860 H 550.75 -0.505596 -0.549892 0
M  V30 5861 H 553.412 -1.7487 -0.860608 0
M  V30 5862 H 552.508 -2.04254 -2.3598 0
M  V30 5863 N 552.809 0.956637 -1.25245 0
M  V30 5864 C 554.086 1.67716 -1.00651 0
M  V30 5865 C 554.466 2.0585 0.467866 0
M  V30 5866 O 553.814 1.77029 1.44475 0
M  V30 5867 C 554.024 2.90093 -1.94028 0
M  V30 5868 C 555.372 3.6209 -2.21756 0
M  V30 5869 O 556.396 3.00171 -1.9177 0
M  V30 5870 O 555.255 4.7358 -2.72735 0
M  V30 5871 H 552.349 0.733731 -0.381533 0
M  V30 5872 H 554.895 1.00974 -1.3639 0
M  V30 5873 H 553.667 2.58689 -2.93591 0
M  V30 5874 H 553.29 3.64566 -1.58674 0
M  V30 5875 N 554.287 1.06798 1.15896 0
M  V30 5876 C 555.536 0.782796 1.8589 0
M  V30 5877 C 555.849 -0.693498 1.82893 0
M  V30 5878 O 557.055 -1.09325 2.48516 0
M  V30 5879 C 555.511 1.3502 3.33613 0
M  V30 5880 C 555.119 2.8571 3.45071 0
M  V30 5881 C 556.863 1.14278 4.08829 0
M  V30 5882 C 554.77 3.35669 4.86909 0
M  V30 5883 H 553.7 0.289149 0.696354 0
M  V30 5884 H 556.351 1.28734 1.30766 0
M  V30 5885 H 554.733 0.773407 3.88374 0
M  V30 5886 H 555.907 3.49385 3.00445 0
M  V30 5887 H 554.222 3.05178 2.83294 0
M  V30 5888 H 556.819 1.49087 5.13495 0
M  V30 5889 H 557.162 0.0814575 4.1622 0
M  V30 5890 H 557.695 1.68563 3.60321 0
M  V30 5891 H 554.434 4.41302 4.84698 0
M  V30 5892 H 553.954 2.76745 5.32139 0
M  V30 5893 H 555.633 3.31296 5.55745 0
M  V30 5894 N 555.766 -1.3263 0.851289 0
M  V30 5895 C 557.015 -1.96633 0.449267 0
M  V30 5896 C 557.328 -1.68131 -0.999562 0
M  V30 5897 O 558.534 -2.25845 -1.50685 0
M  V30 5898 C 556.99 -3.51946 0.752446 0
M  V30 5899 C 556.598 -3.89311 2.21678 0
M  V30 5900 C 558.342 -4.22437 0.417983 0
M  V30 5901 C 556.249 -5.37655 2.46336 0
M  V30 5902 H 555.179 -0.735888 0.164269 0
M  V30 5903 H 557.83 -1.51073 1.0416 0
M  V30 5904 H 556.212 -3.95899 0.0895858 0
M  V30 5905 H 557.386 -3.56378 2.92115 0
M  V30 5906 H 555.701 -3.31836 2.51543 0
M  V30 5907 H 558.298 -5.31549 0.579674 0
M  V30 5908 H 558.641 -4.11349 -0.640115 0
M  V30 5909 H 559.174 -3.84057 1.03659 0
M  V30 5910 H 555.913 -5.5376 3.50757 0
M  V30 5911 H 555.433 -5.72005 1.80473 0
M  V30 5912 H 557.112 -6.04695 2.30115 0
M  V30 5913 N 557.244 -0.608902 -1.45362 0
M  V30 5914 C 558.469 -0.10921 -2.07112 0
M  V30 5915 C 558.894 1.19779 -1.45033 0
M  V30 5916 O 558.252 1.72961 -0.543527 0
M  V30 5917 C 558.3 0.0155745 -3.60597 0
M  V30 5918 O 557.404 1.06546 -3.98399 0
M  V30 5919 H 556.745 -0.0746619 -0.659789 0
M  V30 5920 H 559.275 -0.839283 -1.86594 0
M  V30 5921 H 559.285 0.213364 -4.07442 0
M  V30 5922 H 557.96 -0.938765 -4.05167 0
M  V30 5923 H 556.537 0.844024 -3.63223 0
M  V30 5924 N 558.722 1.53707 -0.348139 0
M  V30 5925 C 559.97 2.00591 0.246478 0
M  V30 5926 C 560.291 1.23753 1.50699 0
M  V30 5927 O 559.561 0.345964 1.92821 0
M  V30 5928 H 558.141 0.741053 0.0940679 0
M  V30 5929 H 560.803 1.89139 -0.470354 0
M  V30 5930 H 559.899 3.08297 0.485714 0
M  V30 5931 N 560.2 0.0768682 1.57412 0
M  V30 5932 C 561.13 -0.886026 2.16037 0
M  V30 5933 C 562.111 -1.30691 1.08876 0
M  V30 5934 O 563.296 -1.37705 1.36934 0
M  V30 5935 C 560.426 -2.1518 2.72608 0
M  V30 5936 C 559.38 -1.87015 3.8498 0
M  V30 5937 C 558.706 -3.20266 4.28175 0
M  V30 5938 C 560.006 -1.17143 5.08994 0
M  V30 5939 H 561.7 -0.397642 2.96748 0
M  V30 5940 H 559.246 -0.189823 1.42743 0
M  V30 5941 H 561.199 -2.82962 3.12266 0
M  V30 5942 H 559.923 -2.66269 1.89125 0
M  V30 5943 H 558.582 -1.21636 3.45833 0
M  V30 5944 H 558.23 -3.69207 3.41607 0
M  V30 5945 H 557.93 -3.0221 5.03927 0
M  V30 5946 H 559.454 -3.89237 4.70454 0
M  V30 5947 H 560.868 -1.75003 5.45937 0
M  V30 5948 H 559.265 -1.09328 5.90057 0
M  V30 5949 H 560.335 -0.151295 4.84664 0
M  V30 5950 N 561.678 -1.56367 -0.196722 0
M  V30 5951 C 563.094 -1.49916 -0.54749 0
M  V30 5952 C 563.294 -0.77659 -1.85934 0
M  V30 5953 O 562.35 -0.32644 -2.50381 0
M  V30 5954 C 563.663 -2.94577 -0.603734 0
M  V30 5955 C 565.211 -3.05239 -0.692677 0
M  V30 5956 C 565.686 -4.51308 -0.780046 0
M  V30 5957 N 567.177 -4.55453 -0.843616 0
M  V30 5958 C 567.912 -5.65786 -0.931358 0
M  V30 5959 N 567.408 -6.85812 -0.981503 0
M  V30 5960 N 569.201 -5.53695 -0.968421 0
M  V30 5961 H 561.352 -2.01761 0.663803 0
M  V30 5962 H 563.615 -0.918094 0.236238 0
M  V30 5963 H 563.321 -3.50494 0.29105 0
M  V30 5964 H 563.195 -3.47841 -1.45898 0
M  V30 5965 H 565.582 -2.49372 -1.57789 0
M  V30 5966 H 565.663 -2.55103 0.188736 0
M  V30 5967 H 565.307 -5.078 0.100811 0
M  V30 5968 H 565.237 -4.99176 -1.67724 0
M  V30 5969 H 567.728 -3.69025 -0.814176 0
M  V30 5970 H 568.041 -7.65648 -1.04892 0
M  V30 5971 H 566.386 -6.88474 -0.950208 0
M  V30 5972 H 569.577 -4.58848 -0.926072 0
M  V30 5973 H 569.75 -6.39708 -1.03334 0
M  V30 5974 N 563.156 0.464375 -1.50603 0
M  V30 5975 C 564.433 1.22549 -1.5245 0
M  V30 5976 C 564.813 2.09327 -0.273035 0
M  V30 5977 O 564.161 2.16074 0.743242 0
M  V30 5978 C 564.371 2.05074 -2.82393 0
M  V30 5979 C 565.719 2.63036 -3.33313 0
M  V30 5980 O 566.743 2.1531 -2.8376 0
M  V30 5981 O 565.602 3.5001 -4.19709 0
M  V30 5982 H 562.696 0.556471 -0.611775 0
M  V30 5983 H 565.242 0.475648 -1.62898 0
M  V30 5984 H 564.014 1.41169 -3.64948 0
M  V30 5985 H 563.637 2.87179 -2.7498 0
M  V30 5986 N 564.634 1.40294 0.718013 0
M  V30 5987 C 565.544 1.42678 1.86226 0
M  V30 5988 C 566.56 0.319655 1.71039 0
M  V30 5989 O 567.736 0.563852 1.93346 0
M  V30 5990 C 564.801 1.2852 3.21999 0
M  V30 5991 C 563.862 2.49354 3.49458 0
M  V30 5992 C 563.095 2.35863 4.78753 0
M  V30 5993 O 563.318 1.37114 5.53675 0
M  V30 5994 O 562.252 3.25189 5.06494 0
M  V30 5995 H 566.078 2.39167 1.87171 0
M  V30 5996 H 563.663 1.2159 0.868112 0
M  V30 5997 H 565.545 1.22824 4.03103 0
M  V30 5998 H 564.22 0.351359 3.21787 0
M  V30 5999 H 563.127 2.60628 2.68373 0
M  V30 6000 H 564.46 3.41491 3.54464 0
M  V30 6001 N 566.112 -0.949982 1.2575 0
M  V30 6002 C 567.34 -1.72972 1.13527 0
M  V30 6003 C 567.755 -1.8623 -0.310453 0
M  V30 6004 O 567.112 -1.36336 -1.2132 0
M  V30 6005 C 567.163 -3.14108 1.78936 0
M  V30 6006 O 566.884 -3.01493 3.17858 0
M  V30 6007 C 568.385 -4.08338 1.72554 0
M  V30 6008 H 565.605 -0.541864 0.395758 0
M  V30 6009 H 568.149 -1.19151 1.66202 0
M  V30 6010 H 566.304 -3.64858 1.30221 0
M  V30 6011 H 566.718 -3.90559 3.50092 0
M  V30 6012 H 568.192 -5.04963 2.22973 0
M  V30 6013 H 568.669 -4.33742 0.690251 0
M  V30 6014 H 569.275 -3.63506 2.2078 0
M  V30 6015 N 567.59 -1.07411 -1.15328 0
M  V30 6016 C 568.538 -0.689316 -2.22151 0
M  V30 6017 C 569.532 0.300156 -1.6672 0
M  V30 6018 O 570.738 0.163804 -1.79253 0
M  V30 6019 H 567.113 -0.204834 -0.723566 0
M  V30 6020 H 569.084 -1.59988 -2.51886 0
M  V30 6021 C 567.833 -0.103848 -3.47545 0
M  V30 6022 H 567.156 -0.856367 -3.90521 0
M  V30 6023 H 568.596 0.127725 -4.23808 0
M  V30 6024 C 567.055 1.15563 -3.1646 0
M  V30 6025 O 567.585 2.242 -3.33312 0
M  V30 6026 N 565.791 1.06203 -2.70498 0
M  V30 6027 H 565.338 0.177933 -2.56985 0
M  V30 6028 H 565.296 1.90553 -2.50074 0
M  V30 6029 N 569.068 1.32177 -0.85831 0
M  V30 6030 C 570.315 1.97125 -0.463484 0
M  V30 6031 C 570.643 1.67907 0.981705 0
M  V30 6032 O 569.898 0.961717 1.70439 0
M  V30 6033 C 570.197 3.51372 -0.653658 0
M  V30 6034 C 569.863 4.00584 -2.06987 0
M  V30 6035 C 568.525 4.13733 -2.4572 0
M  V30 6036 C 570.877 4.26624 -2.99402 0
M  V30 6037 C 568.205 4.50268 -3.76132 0
M  V30 6038 C 570.557 4.64618 -4.29316 0
M  V30 6039 C 569.221 4.75975 -4.67979 0
M  V30 6040 H 568.491 0.72133 -0.169601 0
M  V30 6041 H 571.138 1.57517 -1.08907 0
M  V30 6042 H 569.443 3.91761 0.0551328 0
M  V30 6043 H 571.14 3.99655 -0.328163 0
M  V30 6044 H 567.73 3.90837 -1.75911 0
M  V30 6045 H 571.914 4.1597 -2.70708 0
M  V30 6046 H 567.17 4.57256 -4.05865 0
M  V30 6047 H 571.344 4.83722 -5.00985 0
M  V30 6048 H 568.971 5.04041 -5.69076 0
M  V30 6049 N 570.547 0.616602 1.45037 0
M  V30 6050 C 571.775 0.121968 2.0654 0
M  V30 6051 C 572.19 -1.19743 1.45969 0
M  V30 6052 O 571.547 -1.73133 0.577168 0
M  V30 6053 C 571.598 -0.0145171 3.61497 0
M  V30 6054 O 571.319 1.25269 4.19809 0
M  V30 6055 C 572.82 -0.539555 4.40004 0
M  V30 6056 H 570.04 0.0729837 0.667019 0
M  V30 6057 H 572.584 0.846891 1.8614 0
M  V30 6058 H 570.739 -0.689809 3.81209 0
M  V30 6059 H 571.153 1.08816 5.13088 0
M  V30 6060 H 572.627 -0.584112 5.48901 0
M  V30 6061 H 573.104 -1.56368 4.10421 0
M  V30 6062 H 573.71 0.101995 4.25178 0
M  V30 6063 N 572.025 -1.5352 0.356285 0
M  V30 6064 C 573.271 -2.01414 -0.236653 0
M  V30 6065 C 573.604 -1.24339 -1.49176 0
M  V30 6066 O 572.879 -0.334496 -1.91602 0
M  V30 6067 C 573.162 -3.56059 -0.537982 0
M  V30 6068 C 573.015 -4.43835 0.730112 0
M  V30 6069 C 574.334 -4.19127 -1.34239 0
M  V30 6070 H 571.453 -0.732135 -0.0845386 0
M  V30 6071 H 574.095 -1.83854 0.479341 0
M  V30 6072 H 572.245 -3.71153 -1.14795 0
M  V30 6073 H 573.917 -4.40555 1.36782 0
M  V30 6074 H 572.16 -4.1218 1.3524 0
M  V30 6075 H 572.831 -5.49958 0.474358 0
M  V30 6076 H 575.307 -4.07809 -0.826498 0
M  V30 6077 H 574.183 -5.27378 -1.52198 0
M  V30 6078 H 574.444 -3.74581 -2.34822 0
M  V30 6079 N 573.503 -0.0852151 -1.57369 0
M  V30 6080 C 574.752 0.580443 -1.93168 0
M  V30 6081 C 575.065 1.6995 -0.968319 0
M  V30 6082 O 576.271 2.42564 -1.21963 0
M  V30 6083 C 574.727 1.08386 -3.43192 0
M  V30 6084 C 574.335 -0.00491388 -4.48 0
M  V30 6085 C 576.079 1.72281 -3.87968 0
M  V30 6086 C 573.986 0.513299 -5.89168 0
M  V30 6087 H 572.916 0.22059 -0.72101 0
M  V30 6088 H 575.567 -0.159621 -1.82804 0
M  V30 6089 H 573.949 1.8773 -3.48674 0
M  V30 6090 H 575.123 -0.780032 -4.5415 0
M  V30 6091 H 573.438 -0.548453 -4.12772 0
M  V30 6092 H 576.035 2.12108 -4.9083 0
M  V30 6093 H 576.378 2.58811 -3.26071 0
M  V30 6094 H 576.911 0.995359 -3.85146 0
M  V30 6095 H 573.65 -0.315153 -6.54742 0
M  V30 6096 H 573.17 1.25564 -5.8651 0
M  V30 6097 H 574.849 0.985433 -6.39451 0
M  V30 6098 N 574.981 1.5647 0.188427 0
M  V30 6099 C 576.23 1.80207 0.905995 0
M  V30 6100 C 576.543 0.659579 1.84144 0
M  V30 6101 O 577.749 0.781431 2.60011 0
M  V30 6102 C 576.205 3.19255 1.66145 0
M  V30 6103 C 575.813 4.41324 0.770504 0
M  V30 6104 C 577.557 3.52298 2.36826 0
M  V30 6105 C 575.464 5.71394 1.52521 0
M  V30 6106 H 574.394 0.671953 0.342045 0
M  V30 6107 H 577.045 1.82808 0.159164 0
M  V30 6108 H 575.427 3.10922 2.45242 0
M  V30 6109 H 576.601 4.60797 0.0177261 0
M  V30 6110 H 574.916 4.16035 0.174199 0
M  V30 6111 H 577.513 4.46715 2.93854 0
M  V30 6112 H 577.856 2.76359 3.11338 0
M  V30 6113 H 578.389 3.62108 1.6469 0
M  V30 6114 H 575.128 6.50316 0.82275 0
M  V30 6115 H 574.648 5.55928 2.25175 0
M  V30 6116 H 576.327 6.12747 2.07725 0
M  V30 6117 N 576.459 -0.456382 1.50847 0
M  V30 6118 C 577.407 -1.57318 1.71329 0
M  V30 6119 C 578.401 -1.59187 0.579287 0
M  V30 6120 O 579.607 -1.6316 0.76018 0
M  V30 6121 H 575.982 -0.5223 0.541024 0
M  V30 6122 H 577.953 -1.3721 2.64983 0
M  V30 6123 C 576.702 -2.95142 1.83811 0
M  V30 6124 H 576.025 -2.94428 2.70467 0
M  V30 6125 H 577.465 -3.72702 2.02161 0
M  V30 6126 C 575.924 -3.31636 0.593224 0
M  V30 6127 O 576.454 -4.00852 -0.260898 0
M  V30 6128 N 574.66 -2.87205 0.442902 0
M  V30 6129 H 574.207 -2.31051 1.13901 0
M  V30 6130 H 574.165 -3.11986 -0.38884 0
M  V30 6131 N 577.937 -1.40673 -0.710563 0
M  V30 6132 C 579.348 -1.34975 -1.28991 0
M  V30 6133 C 579.699 -0.0256272 -1.96183 0
M  V30 6134 O 578.824 0.876339 -1.97862 0
M  V30 6135 C 579.419 -2.44467 -2.34567 0
M  V30 6136 C 577.978 -2.42213 -2.88114 0
M  V30 6137 C 577.125 -2.25085 -1.61963 0
M  V30 6138 H 580.076 -1.50406 -0.506343 0
M  V30 6139 H 580.097 -2.12663 -3.15523 0
M  V30 6140 H 579.609 -3.40825 -1.85634 0
M  V30 6141 H 577.71 -1.49568 -3.41263 0
M  V30 6142 H 577.823 -3.37983 -3.39565 0
M  V30 6143 H 576.187 -1.72691 -1.87216 0
M  V30 6144 H 576.97 -3.23449 -1.15047 0
M  V30 6145 N 579.415 0.9433 -1.26252 0
M  V30 6146 C 580.64 1.72898 -1.14547 0
M  V30 6147 C 581.065 1.85761 0.295743 0
M  V30 6148 O 580.423 1.3463 1.21427 0
M  V30 6149 C 580.471 3.11471 -1.8171 0
M  V30 6150 O 579.575 3.97336 -1.10445 0
M  V30 6151 H 578.916 0.530555 -0.399259 0
M  V30 6152 H 581.446 1.18159 -1.67032 0
M  V30 6153 H 581.456 3.61872 -1.88449 0
M  V30 6154 H 580.131 3.01425 -2.86558 0
M  V30 6155 H 578.708 3.55788 -1.11666 0
M  V30 6156 N 580.893 1.08022 1.14757 0
M  V30 6157 C 582.141 0.805913 1.85336 0
M  V30 6158 C 582.462 -0.670162 1.83122 0
M  V30 6159 O 581.732 -1.48567 1.2769 0
M  V30 6160 H 580.312 0.295138 0.686223 0
M  V30 6161 H 582.974 1.36538 1.3908 0
M  V30 6162 H 582.07 1.14655 2.90277 0
M  V30 6163 N 582.371 -1.3172 0.865308 0
M  V30 6164 C 583.617 -1.97168 0.474633 0
M  V30 6165 C 583.95 -1.68263 -0.969604 0
M  V30 6166 O 583.225 -0.976588 -1.68205 0
M  V30 6167 C 583.508 -3.52689 0.726808 0
M  V30 6168 C 583.361 -3.91185 2.22024 0
M  V30 6169 C 584.68 -4.39689 0.190201 0
M  V30 6170 H 581.799 -0.716185 0.17392 0
M  V30 6171 H 584.441 -1.55925 1.08569 0
M  V30 6172 H 582.591 -3.8795 0.206705 0
M  V30 6173 H 584.263 -3.66049 2.80724 0
M  V30 6174 H 582.506 -3.3996 2.69462 0
M  V30 6175 H 583.177 -4.99604 2.34735 0
M  V30 6176 H 585.653 -4.11225 0.635103 0
M  V30 6177 H 584.529 -5.47469 0.396132 0
M  V30 6178 H 584.79 -4.32683 -0.907625 0
M  V30 6179 N 583.85 -0.624285 -1.44708 0
M  V30 6180 C 585.096 -0.126237 -2.02407 0
M  V30 6181 C 585.428 1.24618 -1.48943 0
M  V30 6182 O 584.704 1.82569 -0.670742 0
M  V30 6183 C 584.986 -0.105449 -3.59946 0
M  V30 6184 C 584.84 -1.50972 -4.23707 0
M  V30 6185 C 586.159 0.573629 -4.36346 0
M  V30 6186 H 583.278 -0.0473472 -0.735478 0
M  V30 6187 H 585.92 -0.799452 -1.72362 0
M  V30 6188 H 584.07 0.46783 -3.85673 0
M  V30 6189 H 585.742 -2.13136 -4.0911 0
M  V30 6190 H 583.985 -2.0656 -3.81465 0
M  V30 6191 H 584.656 -1.44727 -5.32689 0
M  V30 6192 H 587.132 0.0861787 -4.16011 0
M  V30 6193 H 586.008 0.557338 -5.46063 0
M  V30 6194 H 586.269 1.64276 -4.10446 0
M  V30 6195 N 585.328 1.53329 -0.364422 0
M  V30 6196 C 586.261 2.22052 0.526145 0
M  V30 6197 C 587.239 1.21203 1.08391 0
M  V30 6198 O 588.423 1.50101 1.14026 0
M  V30 6199 C 585.55 2.91432 1.72583 0
M  V30 6200 C 584.596 4.06345 1.29562 0
M  V30 6201 S 585.429 5.34671 0.297885 0
M  V30 6202 C 586.585 6.07563 1.50392 0
M  V30 6203 H 586.818 2.97244 -0.0575055 0
M  V30 6204 H 584.351 1.53684 -0.148525 0
M  V30 6205 H 586.309 3.3202 2.41398 0
M  V30 6206 H 584.97 2.15966 2.28073 0
M  V30 6207 H 584.163 4.53901 2.19067 0
M  V30 6208 H 583.765 3.67642 0.686696 0
M  V30 6209 H 586.057 6.32224 2.43513 0
M  V30 6210 H 587 6.99973 1.06977 0
M  V30 6211 H 587.408 5.37994 1.70945 0
M  V30 6212 N 586.806 0.0935595 1.57322 0
M  V30 6213 C 588.052 -0.565234 1.95388 0
M  V30 6214 C 588.407 -1.65888 0.974632 0
M  V30 6215 O 587.7 -1.916 0.000376385 0
M  V30 6216 C 587.894 -1.16692 3.37813 0
M  V30 6217 C 587.723 -0.133091 4.49503 0
M  V30 6218 C 586.493 0.289884 5.04468 0
M  V30 6219 C 588.691 0.638141 5.10326 0
M  V30 6220 N 586.673 1.31214 5.99713 0
M  V30 6221 C 588.044 1.51227 6.01274 0
M  V30 6222 C 590.099 0.691827 4.9307 0
M  V30 6223 C 588.802 2.43536 6.76818 0
M  V30 6224 C 590.828 1.60251 5.69274 0
M  V30 6225 C 590.19 2.46427 6.59889 0
M  V30 6226 H 586.289 -0.177212 0.761656 0
M  V30 6227 H 588.873 0.175769 1.93905 0
M  V30 6228 H 587.044 -1.87775 3.39993 0
M  V30 6229 H 588.776 -1.78795 3.63063 0
M  V30 6230 H 585.531 -0.0975541 4.735 0
M  V30 6231 H 585.955 1.82143 6.52038 0
M  V30 6232 H 590.597 0.0397431 4.22781 0
M  V30 6233 H 588.315 3.0977 7.4637 0
M  V30 6234 H 591.901 1.64917 5.57937 0
M  V30 6235 H 590.781 3.15751 7.17824 0
M  V30 6236 N 588.284 -1.56567 -0.180126 0
M  V30 6237 C 589.514 -1.85349 -0.912647 0
M  V30 6238 C 589.922 -0.675795 -1.76719 0
M  V30 6239 O 589.265 0.3645 -1.80047 0
M  V30 6240 C 589.327 -3.08431 -1.84691 0
M  V30 6241 C 588.991 -4.41694 -1.17284 0
M  V30 6242 C 589.988 -5.17062 -0.542532 0
M  V30 6243 C 587.673 -4.8843 -1.17223 0
M  V30 6244 C 589.667 -6.37351 0.0793953 0
M  V30 6245 C 587.354 -6.08652 -0.54647 0
M  V30 6246 C 588.352 -6.82955 0.0782458 0
M  V30 6247 O 588.04 -8.00897 0.694158 0
M  V30 6248 H 587.772 -0.619286 -0.271036 0
M  V30 6249 H 590.326 -2.0454 -0.187768 0
M  V30 6250 H 588.556 -2.85163 -2.61188 0
M  V30 6251 H 590.245 -3.23733 -2.44851 0
M  V30 6252 H 591.011 -4.8204 -0.535045 0
M  V30 6253 H 586.89 -4.30542 -1.64788 0
M  V30 6254 H 590.434 -6.95287 0.567612 0
M  V30 6255 H 586.331 -6.4314 -0.55151 0
M  V30 6256 H 587.099 -8.16352 0.592537 0
M  V30 6257 N 589.762 0.448376 -1.51087 0
M  V30 6258 C 590.692 1.55102 -1.74544 0
M  V30 6259 C 591.673 1.59357 -0.594932 0
M  V30 6260 O 592.858 1.75261 -0.836491 0
M  V30 6261 C 589.988 2.93268 -1.86041 0
M  V30 6262 C 588.942 3.03877 -3.01402 0
M  V30 6263 C 588.268 4.43914 -2.98068 0
M  V30 6264 C 589.568 2.7898 -4.41551 0
M  V30 6265 H 591.262 1.35724 -2.66869 0
M  V30 6266 H 588.808 0.651498 -1.28419 0
M  V30 6267 H 590.761 3.70356 -2.01034 0
M  V30 6268 H 589.485 3.13853 -0.903548 0
M  V30 6269 H 588.144 2.29227 -2.86096 0
M  V30 6270 H 587.792 4.6145 -2.00182 0
M  V30 6271 H 587.492 4.51944 -3.75527 0
M  V30 6272 H 589.016 5.22991 -3.1514 0
M  V30 6273 H 590.43 3.45805 -4.57265 0
M  V30 6274 H 588.827 2.98431 -5.20633 0
M  V30 6275 H 589.897 1.74663 -4.5235 0
M  V30 6276 N 591.24 1.41047 0.703093 0
M  V30 6277 C 592.47 1.43133 1.48985 0
M  V30 6278 C 592.878 0.0328537 1.89171 0
M  V30 6279 O 592.221 -0.956469 1.56835 0
M  V30 6280 C 592.283 2.26991 2.78775 0
M  V30 6281 C 591.947 3.7525 2.60837 0
M  V30 6282 C 592.944 4.67591 2.27276 0
M  V30 6283 C 590.629 4.19208 2.76712 0
M  V30 6284 C 592.623 6.01877 2.09817 0
M  V30 6285 C 590.31 5.53561 2.5887 0
M  V30 6286 C 591.308 6.4471 2.25472 0
M  V30 6287 O 590.996 7.76584 2.07778 0
M  V30 6288 H 590.728 0.489788 0.465922 0
M  V30 6289 H 593.282 1.85886 0.873822 0
M  V30 6290 H 591.512 1.79038 3.42757 0
M  V30 6291 H 593.201 2.20867 3.40547 0
M  V30 6292 H 593.967 4.34923 2.14633 0
M  V30 6293 H 589.846 3.48572 3.01693 0
M  V30 6294 H 593.39 6.72986 1.83671 0
M  V30 6295 H 589.287 5.85811 2.71102 0
M  V30 6296 H 590.055 7.87649 2.22601 0
M  V30 6297 N 592.718 -0.936591 1.26751 0
M  V30 6298 C 594.129 -1.49816 1.1141 0
M  V30 6299 C 594.48 -1.9383 -0.304015 0
M  V30 6300 O 593.605 -1.80346 -1.196 0
M  V30 6301 C 594.2 -2.72271 2.01629 0
M  V30 6302 C 592.759 -3.2468 1.9042 0
M  V30 6303 C 591.906 -1.97444 1.94708 0
M  V30 6304 H 594.857 -0.751604 1.39773 0
M  V30 6305 H 594.878 -3.46741 1.56688 0
M  V30 6306 H 594.39 -2.40205 3.04833 0
M  V30 6307 H 592.491 -3.61525 0.901674 0
M  V30 6308 H 592.604 -3.91476 2.76195 0
M  V30 6309 H 590.968 -2.13545 1.38818 0
M  V30 6310 H 591.751 -1.67703 2.9955 0
M  V30 6311 N 594.196 -1.08629 -1.14182 0
M  V30 6312 C 595.445 -0.812271 -1.84621 0
M  V30 6313 C 595.758 0.664313 -1.83973 0
M  V30 6314 O 596.964 1.05357 -2.50224 0
M  V30 6315 C 595.42 -1.4031 -3.31423 0
M  V30 6316 C 595.028 -2.91164 -3.40481 0
M  V30 6317 C 596.772 -1.20767 -4.06959 0
M  V30 6318 C 594.679 -3.43373 -4.81507 0
M  V30 6319 H 593.609 -0.30019 -0.691666 0
M  V30 6320 H 596.26 -1.30798 -1.28701 0
M  V30 6321 H 594.642 -0.835096 -3.87094 0
M  V30 6322 H 595.816 -3.5412 -2.94848 0
M  V30 6323 H 594.131 -3.09646 -2.78403 0
M  V30 6324 H 596.728 -1.57237 -5.11058 0
M  V30 6325 H 597.071 -0.147664 -4.16038 0
M  V30 6326 H 597.604 -1.74274 -3.57594 0
M  V30 6327 H 594.343 -4.48958 -4.77616 0
M  V30 6328 H 593.863 -2.85176 -5.27669 0
M  V30 6329 H 595.542 -3.40095 -5.50404 0
M  V30 6330 N 595.674 1.31259 -0.872281 0
M  V30 6331 C 596.621 2.28459 -0.327857 0
M  V30 6332 C 597.591 1.55831 0.574957 0
M  V30 6333 O 598.776 1.83965 0.506101 0
M  V30 6334 C 595.916 3.41985 0.462644 0
M  V30 6335 C 595.029 4.29458 -0.467949 0
M  V30 6336 C 594.164 5.30131 0.336903 0
M  V30 6337 C 593.203 6.0925 -0.58997 0
M  V30 6338 N 592.34 7.01872 0.178775 0
M  V30 6339 H 597.18 2.74414 -1.16193 0
M  V30 6340 H 594.717 1.34994 -0.584376 0
M  V30 6341 H 596.675 4.06547 0.936759 0
M  V30 6342 H 595.305 2.97134 1.2614 0
M  V30 6343 H 594.357 3.65318 -1.06052 0
M  V30 6344 H 595.669 4.84677 -1.17856 0
M  V30 6345 H 594.823 6.0038 0.873427 0
M  V30 6346 H 593.562 4.75573 1.08079 0
M  V30 6347 H 592.567 5.37889 -1.13823 0
M  V30 6348 H 593.792 6.65894 -1.33275 0
M  V30 6349 H 591.738 6.49721 0.905435 0
M  V30 6350 H 591.655 7.54522 -0.472452 0
M  V30 6351 H 592.923 7.76382 0.696454 0
M  V30 6352 N 597.152 0.631951 1.44375 0
M  V30 6353 C 598.1 -0.0846693 2.32446 0
M  V30 6354 C 599.094 -0.834957 1.47393 0
M  V30 6355 O 600.3 -0.747764 1.63733 0
M  V30 6356 H 596.675 -0.0461508 0.750583 0
M  V30 6357 H 598.646 0.67619 2.90638 0
M  V30 6358 C 597.395 -1.05211 3.314 0
M  V30 6359 H 596.718 -0.484203 3.96857 0
M  V30 6360 H 598.158 -1.523 3.95703 0
M  V30 6361 C 596.617 -2.13776 2.60387 0
M  V30 6362 O 597.147 -3.21869 2.4034 0
M  V30 6363 N 595.353 -1.89733 2.20113 0
M  V30 6364 H 594.9 -1.01833 2.36618 0
M  V30 6365 H 594.858 -2.62572 1.72926 0
M  V30 6366 N 598.631 -1.53133 0.372548 0
M  V30 6367 C 599.561 -2.28876 -0.462412 0
M  V30 6368 C 600.542 -1.31583 -1.07796 0
M  V30 6369 O 601.727 -1.60461 -1.09389 0
M  V30 6370 C 598.857 -3.08317 -1.59868 0
M  V30 6371 C 597.811 -4.13355 -1.11003 0
M  V30 6372 C 597.137 -4.8092 -2.33708 0
M  V30 6373 C 598.437 -5.21955 -0.18983 0
M  V30 6374 H 600.131 -2.9892 0.169511 0
M  V30 6375 H 597.677 -1.43761 0.0829658 0
M  V30 6376 H 599.63 -3.60055 -2.18949 0
M  V30 6377 H 598.354 -2.35976 -2.25794 0
M  V30 6378 H 597.013 -3.62573 -0.541869 0
M  V30 6379 H 596.661 -4.05144 -2.98106 0
M  V30 6380 H 596.361 -5.51904 -2.01682 0
M  V30 6381 H 597.885 -5.35455 -2.93462 0
M  V30 6382 H 599.299 -5.69153 -0.688319 0
M  V30 6383 H 597.696 -6.00087 0.0398887 0
M  V30 6384 H 598.766 -4.78811 0.766057 0
M  V30 6385 N 600.109 -0.101901 -1.5727 0
M  V30 6386 C 601.019 0.868647 -2.17926 0
M  V30 6387 C 602.035 1.30527 -1.1506 0
M  V30 6388 O 603.211 1.37178 -1.47459 0
M  V30 6389 C 600.276 2.10727 -2.75309 0
M  V30 6390 C 599.337 1.7242 -3.93154 0
M  V30 6391 C 598.57 2.90377 -4.47791 0
M  V30 6392 O 598.793 4.05305 -4.01353 0
M  V30 6393 O 597.727 2.6845 -5.38719 0
M  V30 6394 H 601.553 0.382544 -3.01281 0
M  V30 6395 H 599.138 0.122812 -1.48894 0
M  V30 6396 H 601.02 2.83303 -3.11958 0
M  V30 6397 H 599.695 2.58376 -1.94996 0
M  V30 6398 H 598.602 0.970039 -3.61305 0
M  V30 6399 H 599.935 1.29528 -4.74851 0
M  V30 6400 N 601.587 1.56661 0.17182 0
M  V30 6401 C 602.52 1.91474 1.24149 0
M  V30 6402 C 603.498 0.777485 1.42807 0
M  V30 6403 O 604.682 1.03075 1.57822 0
M  V30 6404 C 601.809 2.16523 2.60453 0
M  V30 6405 C 600.855 3.39209 2.58533 0
M  V30 6406 S 601.688 4.93594 2.07665 0
M  V30 6407 C 602.844 5.21737 3.45747 0
M  V30 6408 H 603.077 2.81903 0.944346 0
M  V30 6409 H 600.61 1.49743 0.376364 0
M  V30 6410 H 602.568 2.31635 3.38903 0
M  V30 6411 H 601.229 1.26802 2.87368 0
M  V30 6412 H 600.422 3.53935 3.58812 0
M  V30 6413 H 600.024 3.2321 1.88178 0
M  V30 6414 H 602.316 5.13684 4.41741 0
M  V30 6415 H 603.259 6.23361 3.35896 0
M  V30 6416 H 603.667 4.49307 3.41736 0
M  V30 6417 N 603.065 -0.440357 1.51323 0
M  V30 6418 C 604.29 -1.21716 1.67928 0
M  V30 6419 C 604.715 -1.84328 0.374826 0
M  V30 6420 O 604.073 -1.68675 -0.664706 0
M  V30 6421 C 604.121 -2.27914 2.79442 0
M  V30 6422 O 603.225 -3.33325 2.42834 0
M  V30 6423 H 602.566 -0.35674 0.560029 0
M  V30 6424 H 605.096 -0.520417 1.97871 0
M  V30 6425 H 605.106 -2.72746 3.03436 0
M  V30 6426 H 603.781 -1.8172 3.741 0
M  V30 6427 H 602.358 -2.9399 2.294 0
M  V30 6428 N 604.543 -1.41418 -0.695603 0
M  V30 6429 C 605.475 -1.39195 -1.82092 0
M  V30 6430 C 606.488 -0.294132 -1.60121 0
M  V30 6431 O 607.677 -0.555854 -1.69625 0
M  V30 6432 C 604.777 -1.14828 -3.18854 0
M  V30 6433 C 603.95 -2.36649 -3.67853 0
M  V30 6434 C 603.009 -2.08139 -4.83285 0
M  V30 6435 O 602.035 -2.81177 -4.94902 0
M  V30 6436 N 603.237 -1.07162 -5.70523 0
M  V30 6437 H 606.002 -2.36185 -1.84491 0
M  V30 6438 H 603.563 -1.3603 -0.877923 0
M  V30 6439 H 605.555 -0.937075 -3.93702 0
M  V30 6440 H 604.125 -0.264358 -3.1148 0
M  V30 6441 H 603.345 -2.73472 -2.83913 0
M  V30 6442 H 604.633 -3.17816 -3.97329 0
M  V30 6443 H 604.031 -0.467124 -5.63768 0
M  V30 6444 H 602.588 -0.920311 -6.4527 0
M  V30 6445 N 606.021 0.929856 -1.27246 0
M  V30 6446 C 606.953 2.03434 -1.0558 0
M  V30 6447 C 607.966 1.62795 -0.0125762 0
M  V30 6448 O 609.155 1.76685 -0.2539 0
M  V30 6449 C 606.255 3.33915 -0.57912 0
M  V30 6450 C 605.428 4.03259 -1.69415 0
M  V30 6451 C 604.487 5.12014 -1.21357 0
M  V30 6452 O 603.513 5.36097 -1.91282 0
M  V30 6453 N 604.715 5.8046 -0.0680622 0
M  V30 6454 H 607.48 2.22583 -2.00691 0
M  V30 6455 H 605.041 1.1001 -1.18783 0
M  V30 6456 H 607.033 4.03978 -0.241563 0
M  V30 6457 H 605.603 3.11355 0.278703 0
M  V30 6458 H 604.823 3.26958 -2.20209 0
M  V30 6459 H 606.111 4.46337 -2.44255 0
M  V30 6460 H 605.509 5.63345 0.515626 0
M  V30 6461 H 604.066 6.51461 0.210332 0
M  V30 6462 O 607.538 1.21494 1.06403 0
M  V30 6463 H 608.229 0.975073 1.67368 0
M  V30 END ATOM
M  V30 BEGIN BOND
M  V30 END BOND
M  V30 END CTAB
M  END
$$$$
