drugbank_target|P17213 Bactericidal permeability-increasing protein (DB04178)
 OpenBabel12092119483D

  0  0  0     0  0            999 V3000
M  V30 BEGIN CTAB
M  V30 COUNTS 7665 7757 0 0 0
M  V30 BEGIN ATOM
M  V30 1 H -0.908 1.98254 -0.117106 0
M  V30 2 N 0 1.576 0 0
M  V30 3 C 0.933 2.03868 1.02534 0
M  V30 4 C 1.911 0.928543 1.3348 0
M  V30 5 O 3.095 1.19667 1.45644 0
M  V30 6 C 0.222 2.43627 2.35294 0
M  V30 7 C -0.732 3.65373 2.2001 0
M  V30 8 S 0.101 5.13292 1.52614 0
M  V30 9 C 1.257 5.56322 2.86805 0
M  V30 10 H 1.49 2.90518 0.631377 0
M  V30 11 H -0.977 1.52953 0.210867 0
M  V30 12 H 0.981 2.67203 3.11629 0
M  V30 13 H -0.358 1.57376 2.7183 0
M  V30 14 H -1.165 3.90944 3.18086 0
M  V30 15 H -1.563 3.418 1.51819 0
M  V30 16 H 0.729 5.58782 3.83104 0
M  V30 17 H 1.672 6.56266 2.65933 0
M  V30 18 H 2.08 4.83886 2.90714 0
M  V30 19 N 1.4781 -0.272755 1.55222 0
M  V30 20 C 2.8941 -0.619959 1.47067 0
M  V30 21 C 3.0941 -1.895 0.684978 0
M  V30 22 O 2.1501 -2.51675 0.203931 0
M  V30 23 C 3.4631 -0.746693 2.91282 0
M  V30 24 C 5.0111 -0.840731 3.01497 0
M  V30 25 C 5.4861 -0.99924 4.46967 0
M  V30 26 N 6.9771 -1.06476 4.50796 0
M  V30 27 C 7.7121 -1.20621 5.6057 0
M  V30 28 N 7.2081 -1.31483 6.80209 0
M  V30 29 N 9.0011 -1.23733 5.48312 0
M  V30 30 H 1.1521 0.564606 2.04758 0
M  V30 31 H 3.4151 0.191177 0.928523 0
M  V30 32 H 3.1211 0.119753 3.51496 0
M  V30 33 H 2.9951 -1.6269 3.40311 0
M  V30 34 H 5.3821 -1.69764 2.41379 0
M  V30 35 H 5.4631 0.0640874 2.5572 0
M  V30 36 H 5.1071 -0.146984 5.07687 0
M  V30 37 H 5.0371 -1.91871 4.90401 0
M  V30 38 H 7.5281 -0.993196 3.64615 0
M  V30 39 H 7.8411 -1.42111 7.59621 0
M  V30 40 H 6.1861 -1.28487 6.8302 0
M  V30 41 H 9.3771 -1.14877 4.53785 0
M  V30 42 H 9.5501 -1.34412 6.33906 0
M  V30 43 N 2.9562 -1.48159 -0.537278 0
M  V30 44 C 3.8662 -1.64807 -1.6696 0
M  V30 45 C 4.8822 -0.530651 -1.65711 0
M  V30 46 O 6.0582 -0.800784 -1.84796 0
M  V30 47 C 3.1232 -1.67708 -3.03438 0
M  V30 48 C 2.1842 -2.91025 -3.156 0
M  V30 49 C 1.4172 -2.93778 -4.45567 0
M  V30 50 O 1.6402 -2.05153 -5.3223 0
M  V30 51 O 0.5742 -3.85868 -4.61941 0
M  V30 52 H 4.4002 -2.6066 -1.55853 0
M  V30 53 H 1.9852 -1.31475 -0.709549 0
M  V30 54 H 3.8672 -1.7218 -3.84619 0
M  V30 55 H 2.5422 -0.750278 -3.14885 0
M  V30 56 H 1.4492 -2.92089 -2.33741 0
M  V30 57 H 2.7822 -3.83065 -3.09066 0
M  V30 58 N 4.4343 0.785586 -1.36625 0
M  V30 59 C 5.3823 1.91978 -1.31329 0
M  V30 60 C 6.3763 1.68162 -0.204416 0
M  V30 61 O 7.5823 1.76122 -0.371645 0
M  V30 62 H 3.9573 0.631087 -0.408942 0
M  V30 63 H 5.9283 1.93562 -2.27104 0
M  V30 64 C 4.6773 3.29055 -1.12329 0
M  V30 65 H 4.0003 3.4795 -1.96903 0
M  V30 66 H 5.4403 4.08756 -1.12671 0
M  V30 67 C 3.8993 3.36461 0.171861 0
M  V30 68 O 4.4293 3.84576 1.16035 0
M  V30 69 N 2.6353 2.89782 0.217846 0
M  V30 70 H 2.1823 2.50819 -0.587183 0
M  V30 71 H 2.1403 2.95119 1.08408 0
M  V30 72 N 5.9124 1.20967 1.01018 0
M  V30 73 C 6.8454 0.907578 2.09376 0
M  V30 74 C 7.8234 -0.142868 1.61971 0
M  V30 75 O 9.0074 -0.0150391 1.88494 0
M  V30 76 C 6.1344 0.361791 3.36762 0
M  V30 77 C 5.1804 1.39423 4.03068 0
M  V30 78 S 6.0134 2.96159 4.4615 0
M  V30 79 C 7.1694 2.43173 5.7673 0
M  V30 80 H 7.4024 1.82519 2.34678 0
M  V30 81 H 4.9354 1.03884 1.14225 0
M  V30 82 H 6.8934 0.0534523 4.10465 0
M  V30 83 H 5.5544 -0.53443 3.0952 0
M  V30 84 H 4.7474 0.961853 4.94737 0
M  V30 85 H 4.3494 1.65038 3.35617 0
M  V30 86 H 6.6414 1.83335 6.52223 0
M  V30 87 H 7.5844 3.33264 6.24773 0
M  V30 88 H 7.9924 1.85069 5.33301 0
M  V30 89 N 7.3905 -1.2043 1.01659 0
M  V30 90 C 8.3535 -2.21433 0.591616 0
M  V30 91 C 9.3535 -1.57203 -0.338226 0
M  V30 92 O 10.5435 -1.73737 -0.126918 0
M  V30 93 C 7.6755 -3.40628 -0.136058 0
M  V30 94 H 8.8685 -2.60545 1.48514 0
M  V30 95 H 6.4215 -1.33893 0.806379 0
M  V30 96 H 7.1565 -3.07019 -1.04449 0
M  V30 97 H 6.9415 -3.88475 0.531917 0
M  V30 98 H 8.4315 -4.15475 -0.420735 0
M  V30 99 N 8.8686 -0.792821 -1.36206 0
M  V30 100 C 10.2846 -0.474903 -1.52371 0
M  V30 101 C 10.4846 1.00622 -1.74578 0
M  V30 102 O 9.5406 1.79162 -1.77924 0
M  V30 103 C 10.8536 -1.3083 -2.70747 0
M  V30 104 C 12.4016 -1.30234 -2.84619 0
M  V30 105 C 12.8766 -2.11956 -4.06004 0
M  V30 106 N 14.3676 -2.09419 -4.13156 0
M  V30 107 C 15.1026 -2.69419 -5.06163 0
M  V30 108 N 14.5986 -3.3829 -6.04592 0
M  V30 109 N 16.3916 -2.59134 -4.98804 0
M  V30 110 H 8.5426 -1.75222 -1.20046 0
M  V30 111 H 10.8056 -0.745024 -0.586211 0
M  V30 112 H 10.5116 -2.35881 -2.6087 0
M  V30 113 H 10.3856 -0.95196 -3.6499 0
M  V30 114 H 12.7726 -0.259748 -2.93955 0
M  V30 115 H 12.8536 -1.69847 -1.91274 0
M  V30 116 H 12.4976 -3.16248 -3.97429 0
M  V30 117 H 12.4276 -1.69711 -4.98503 0
M  V30 118 H 14.9186 -1.59297 -3.42685 0
M  V30 119 H 15.2316 -3.81394 -6.7213 0
M  V30 120 H 13.5766 -3.42393 -6.04807 0
M  V30 121 H 16.7676 -2.04927 -4.20859 0
M  V30 122 H 16.9406 -3.06185 -5.711 0
M  V30 123 N 10.3467 1.47872 -0.545128 0
M  V30 124 C 11.5947 2.02093 -0.016553 0
M  V30 125 C 11.9157 1.42305 1.3332 0
M  V30 126 O 11.1857 0.593853 1.86682 0
M  V30 127 H 9.7657 0.746993 -0.00313038 0
M  V30 128 H 12.4277 1.81414 -0.712397 0
M  V30 129 H 11.5237 3.11996 0.0805422 0
M  V30 130 N 11.8248 0.280983 1.55075 0
M  V30 131 C 13.2358 -0.215629 1.85451 0
M  V30 132 C 13.5868 -1.54991 1.203 0
M  V30 133 O 12.7118 -2.10699 0.493435 0
M  V30 134 C 13.3068 -0.398026 3.36454 0
M  V30 135 C 11.8658 -0.838866 3.66933 0
M  V30 136 C 11.0128 0.064458 2.77225 0
M  V30 137 H 13.9638 0.502601 1.50531 0
M  V30 138 H 13.9848 -1.23569 3.59876 0
M  V30 139 H 13.4968 0.573241 3.83843 0
M  V30 140 H 11.5978 -1.8214 3.25048 0
M  V30 141 H 11.7108 -0.672123 4.74362 0
M  V30 142 H 10.0748 -0.452863 2.50642 0
M  V30 143 H 10.8578 1.03172 3.2743 0
M  V30 144 N 13.3029 -1.57598 0.00835791 0
M  V30 145 C 14.5429 -1.92788 -0.679136 0
M  V30 146 C 14.9069 -0.883378 -1.70471 0
M  V30 147 O 16.1079 -1.12079 -2.44319 0
M  V30 148 C 14.3789 -3.32994 -1.29807 0
M  V30 149 S 15.9379 -3.90082 -2.00952 0
M  V30 150 H 12.7559 -0.67475 -0.224127 0
M  V30 151 H 15.3579 -1.95385 0.0670497 0
M  V30 152 H 14.0619 -4.06846 -0.538922 0
M  V30 153 H 13.5929 -3.33791 -2.082 0
M  V30 154 H 15.6079 -3.71834 -3.28563 0
M  V30 155 N 14.781 0.264519 -1.55364 0
M  V30 156 C 15.729 1.34702 -1.89626 0
M  V30 157 C 16.723 1.50712 -0.773459 0
M  V30 158 O 17.929 1.52395 -0.957897 0
M  V30 159 H 14.304 0.450682 -0.601988 0
M  V30 160 H 16.275 1.0306 -2.80038 0
M  V30 161 C 15.024 2.6989 -2.19214 0
M  V30 162 H 14.347 2.58365 -3.05103 0
M  V30 163 H 15.787 3.44553 -2.47102 0
M  V30 164 C 14.246 3.21637 -1.00254 0
M  V30 165 O 14.776 4.00973 -0.241501 0
M  V30 166 N 12.982 2.7943 -0.797938 0
M  V30 167 H 12.529 2.15026 -1.4185 0
M  V30 168 H 12.487 3.144 -0.00363422 0
M  V30 169 N 16.2591 1.48442 0.529413 0
M  V30 170 C 17.2221 1.62524 1.61612 0
M  V30 171 C 18.2221 0.498509 1.52877 0
M  V30 172 O 19.4121 0.76431 1.56537 0
M  V30 173 C 16.5441 1.59597 3.01233 0
M  V30 174 H 17.7371 2.59423 1.50465 0
M  V30 175 H 15.2901 1.37047 0.751514 0
M  V30 176 H 16.0251 0.641781 3.17886 0
M  V30 177 H 15.8101 2.41397 3.08982 0
M  V30 178 H 17.3001 1.72646 3.80241 0
M  V30 179 N 17.7372 -0.778329 1.37039 0
M  V30 180 C 19.1482 -1.35421 1.28523 0
M  V30 181 C 19.4992 -1.96075 -0.0700901 0
M  V30 182 O 18.6242 -1.93352 -0.971801 0
M  V30 183 C 19.2192 -2.46211 2.32735 0
M  V30 184 C 17.7782 -2.99585 2.27873 0
M  V30 185 C 16.9252 -1.72748 2.16918 0
M  V30 186 H 19.8762 -0.5791 1.47757 0
M  V30 187 H 19.8972 -3.2552 1.9702 0
M  V30 188 H 19.4092 -2.02036 3.31365 0
M  V30 189 H 17.5102 -3.48152 1.32745 0
M  V30 190 H 17.6232 -3.55646 3.21018 0
M  V30 191 H 15.9872 -1.95416 1.63354 0
M  V30 192 H 16.7702 -1.30686 3.17452 0
M  V30 193 N 19.2153 -1.21501 -1.00376 0
M  V30 194 C 20.6313 -0.972629 -1.26539 0
M  V30 195 C 20.8313 0.340257 -1.98606 0
M  V30 196 O 19.8873 1.06561 -2.28913 0
M  V30 197 C 21.2003 -2.16404 -2.08781 0
M  V30 198 C 22.7483 -2.20643 -2.22004 0
M  V30 199 C 23.2233 -3.39306 -3.07629 0
M  V30 200 N 24.7143 -3.39401 -3.15217 0
M  V30 201 C 25.4493 -4.27867 -3.81729 0
M  V30 202 N 24.9453 -5.26533 -4.5026 0
M  V30 203 N 26.7383 -4.15672 -3.78382 0
M  V30 204 H 18.8893 -2.05929 -0.520281 0
M  V30 205 H 21.1523 -0.901803 -0.292328 0
M  V30 206 H 20.8583 -3.11554 -1.63178 0
M  V30 207 H 20.7323 -2.15567 -3.09533 0
M  V30 208 H 23.1193 -1.26048 -2.66825 0
M  V30 209 H 23.2003 -2.25523 -1.20718 0
M  V30 210 H 22.8443 -4.34195 -2.63509 0
M  V30 211 H 22.7743 -3.31665 -4.09031 0
M  V30 212 H 25.2653 -2.67997 -2.66432 0
M  V30 213 H 25.5783 -5.90337 -4.98721 0
M  V30 214 H 23.9233 -5.30457 -4.49044 0
M  V30 215 H 27.1143 -3.3785 -3.23998 0
M  V30 216 H 27.2873 -4.84825 -4.2994 0
M  V30 217 N 20.6934 1.19889 -1.02296 0
M  V30 218 C 21.9394 1.89973 -0.726759 0
M  V30 219 C 22.2944 1.7776 0.73614 0
M  V30 220 O 21.5874 1.15523 1.52856 0
M  V30 221 C 21.7814 3.39883 -1.10518 0
M  V30 222 C 21.6104 3.66684 -2.60332 0
M  V30 223 C 20.3804 3.85045 -3.27213 0
M  V30 224 C 22.5784 3.68727 -3.58532 0
M  V30 225 N 20.5604 3.99422 -4.66192 0
M  V30 226 C 21.9314 3.88604 -4.83101 0
M  V30 227 C 23.9864 3.51722 -3.52414 0
M  V30 228 C 22.6894 3.9324 -6.02292 0
M  V30 229 C 24.7154 3.57632 -4.71013 0
M  V30 230 C 24.0774 3.77988 -5.94394 0
M  V30 231 H 20.1764 0.714551 -0.317712 0
M  V30 232 H 22.7604 1.44123 -1.30907 0
M  V30 233 H 20.9314 3.8447 -0.551142 0
M  V30 234 H 22.6634 3.97464 -0.761853 0
M  V30 235 H 19.4184 3.83689 -2.77632 0
M  V30 236 H 19.8424 4.10473 -5.38368 0
M  V30 237 H 24.4844 3.34945 -2.58015 0
M  V30 238 H 22.2024 4.08811 -6.97065 0
M  V30 239 H 25.7884 3.45773 -4.67902 0
M  V30 240 H 24.6684 3.82428 -6.8463 0
M  V30 241 N 22.1715 0.800033 1.35784 0
M  V30 242 C 23.1345 0.211565 2.28221 0
M  V30 243 C 24.1345 -0.59728 1.49296 0
M  V30 244 O 25.3245 -0.416721 1.69142 0
M  V30 245 C 22.4565 -0.705846 3.33513 0
M  V30 246 H 23.6495 1.02677 2.81776 0
M  V30 247 H 21.2025 0.570211 1.45528 0
M  V30 248 H 21.9375 -1.54498 2.85133 0
M  V30 249 H 21.7225 -0.127655 3.91892 0
M  V30 250 H 23.2125 -1.11211 4.02519 0
M  V30 251 N 23.6496 -1.47581 0.552962 0
M  V30 252 C 24.8746 -2.07378 0.0300593 0
M  V30 253 C 25.2996 -1.40355 -1.25229 0
M  V30 254 O 24.6576 -0.477099 -1.7491 0
M  V30 255 C 24.7056 -3.60274 -0.153231 0
M  V30 256 O 23.8096 -3.94041 -1.21678 0
M  V30 257 H 23.1506 -0.662158 0.0494182 0
M  V30 258 H 25.6806 -1.89662 0.767434 0
M  V30 259 H 25.6906 -4.0633 -0.368761 0
M  V30 260 H 24.3656 -4.08455 0.783397 0
M  V30 261 H 22.9426 -3.59735 -0.982079 0
M  V30 262 N 25.1277 -0.289203 -1.54924 0
M  V30 263 C 26.0577 0.58549 -2.2604 0
M  V30 264 C 27.0387 1.14753 -1.25562 0
M  V30 265 O 28.2237 1.17906 -1.54311 0
M  V30 266 C 25.3537 1.76305 -2.99222 0
M  V30 267 C 24.3077 1.33191 -4.06748 0
M  V30 268 C 23.6337 2.5937 -4.6758 0
M  V30 269 C 24.9337 0.471775 -5.20165 0
M  V30 270 H 26.6277 -0.00763532 -2.99399 0
M  V30 271 H 24.1737 -0.00511229 -1.43999 0
M  V30 272 H 26.1267 2.38097 -3.47689 0
M  V30 273 H 24.8507 2.38223 -2.23422 0
M  V30 274 H 23.5097 0.737121 -3.59113 0
M  V30 275 H 23.1577 3.19576 -3.88433 0
M  V30 276 H 22.8577 2.31228 -5.40192 0
M  V30 277 H 24.3817 3.21985 -5.18804 0
M  V30 278 H 25.7957 0.995056 -5.64599 0
M  V30 279 H 24.1927 0.284639 -5.99425 0
M  V30 280 H 25.2627 -0.506041 -4.82252 0
M  V30 281 N 26.6058 1.57591 -0.0167156 0
M  V30 282 C 27.5388 2.04944 1.00366 0
M  V30 283 C 28.5168 0.942648 1.32487 0
M  V30 284 O 29.7008 1.21205 1.44367 0
M  V30 285 C 26.8278 2.46109 2.32697 0
M  V30 286 C 25.8738 3.67686 2.16123 0
M  V30 287 S 26.7068 5.14882 1.47161 0
M  V30 288 C 27.8628 5.59332 2.80888 0
M  V30 289 H 28.0958 2.91172 0.600528 0
M  V30 290 H 25.6288 1.53168 0.194632 0
M  V30 291 H 27.5868 2.70493 3.08778 0
M  V30 292 H 26.2478 1.6025 2.70146 0
M  V30 293 H 25.4408 3.94296 3.13922 0
M  V30 294 H 25.0428 3.43391 1.48185 0
M  V30 295 H 27.3348 5.62814 3.77156 0
M  V30 296 H 28.2778 6.5905 2.58958 0
M  V30 297 H 28.6858 4.86942 2.85565 0
M  V30 298 N 28.0839 -0.256276 1.55502 0
M  V30 299 C 29.3299 -0.987079 1.77157 0
M  V30 300 C 29.6629 -1.85327 0.580315 0
M  V30 301 O 28.9379 -1.89874 -0.421686 0
M  V30 302 C 29.2209 -1.85553 3.08613 0
M  V30 303 C 29.0739 -1.01816 4.38125 0
M  V30 304 C 30.3929 -2.8397 3.36228 0
M  V30 305 H 27.5119 -0.357428 0.644526 0
M  V30 306 H 30.1539 -0.258239 1.88237 0
M  V30 307 H 28.3039 -2.47695 2.99298 0
M  V30 308 H 29.9759 -0.416159 4.59419 0
M  V30 309 H 28.2189 -0.322178 4.32602 0
M  V30 310 H 28.8899 -1.65939 5.26468 0
M  V30 311 H 31.3659 -2.31964 3.45445 0
M  V30 312 H 30.2419 -3.41864 4.29442 0
M  V30 313 H 30.5029 -3.59955 2.56681 0
M  V30 314 N 29.562 -1.4872 -0.521534 0
M  V30 315 C 30.492 -1.66771 -1.63431 0
M  V30 316 C 31.473 -0.516499 -1.62069 0
M  V30 317 O 32.658 -0.750013 -1.79132 0
M  V30 318 C 29.788 -1.71515 -3.01993 0
M  V30 319 C 28.742 -2.86222 -3.18216 0
M  V30 320 C 28.068 -2.76061 -4.57924 0
M  V30 321 C 29.368 -4.27419 -3.00184 0
M  V30 322 H 31.062 -2.59932 -1.48579 0
M  V30 323 H 28.608 -1.25089 -0.713358 0
M  V30 324 H 30.561 -1.82731 -3.7972 0
M  V30 325 H 29.285 -0.749393 -3.17886 0
M  V30 326 H 27.944 -2.74575 -2.42908 0
M  V30 327 H 27.592 -1.77437 -4.70665 0
M  V30 328 H 27.292 -3.53037 -4.69722 0
M  V30 329 H 28.816 -2.89256 -5.37739 0
M  V30 330 H 30.23 -4.39855 -3.67697 0
M  V30 331 H 28.627 -5.05458 -3.2347 0
M  V30 332 H 29.697 -4.43293 -1.96518 0
M  V30 333 N 31.0401 0.771051 -1.3745 0
M  V30 334 C 32.2861 1.5319 -1.32894 0
M  V30 335 C 32.6191 1.94008 0.0862511 0
M  V30 336 O 31.8941 1.64124 1.04373 0
M  V30 337 C 32.1771 2.79648 -2.26868 0
M  V30 338 C 32.0301 2.45079 -3.77169 0
M  V30 339 C 33.3491 3.81583 -2.19277 0
M  V30 340 H 30.4681 0.555744 -0.484064 0
M  V30 341 H 33.1101 0.884492 -1.68157 0
M  V30 342 H 31.2601 3.34891 -1.96926 0
M  V30 343 H 32.9321 1.95745 -4.1771 0
M  V30 344 H 31.1751 1.77767 -3.95704 0
M  V30 345 H 31.8461 3.35478 -4.38359 0
M  V30 346 H 34.3221 3.35835 -2.45671 0
M  V30 347 H 33.1981 4.67787 -2.87171 0
M  V30 348 H 33.4591 4.25897 -1.18592 0
M  V30 349 N 32.5182 1.22032 0.997298 0
M  V30 350 C 33.4812 0.987909 2.06816 0
M  V30 351 C 34.4812 -0.0440084 1.6074 0
M  V30 352 O 35.6712 0.194053 1.73116 0
M  V30 353 C 32.8032 0.49132 3.37341 0
M  V30 354 H 33.9962 1.93803 2.28868 0
M  V30 355 H 31.5492 1.03838 1.16822 0
M  V30 356 H 32.2842 -0.463364 3.20973 0
M  V30 357 H 32.0692 1.23575 3.72118 0
M  V30 358 H 33.5592 0.348824 4.16141 0
M  V30 359 N 33.9963 -1.19345 1.0293 0
M  V30 360 C 35.2453 -1.88363 0.721256 0
M  V30 361 C 35.5583 -1.80514 -0.753254 0
M  V30 362 O 36.7643 -2.44788 -1.17436 0
M  V30 363 C 35.2203 -3.37872 1.23978 0
M  V30 364 C 34.8283 -3.54278 2.74211 0
M  V30 365 C 36.5723 -4.12365 1.00775 0
M  V30 366 C 34.4793 -4.97682 3.19479 0
M  V30 367 H 33.4093 -0.705484 0.266098 0
M  V30 368 H 36.0603 -1.34928 1.24365 0
M  V30 369 H 34.4423 -3.90707 0.6453 0
M  V30 370 H 35.6163 -3.11769 3.39318 0
M  V30 371 H 33.9313 -2.93174 2.95699 0
M  V30 372 H 36.5283 -5.18119 1.32123 0
M  V30 373 H 36.8713 -4.16263 -0.0554308 0
M  V30 374 H 37.4043 -3.65668 1.56625 0
M  V30 375 H 34.1433 -4.98945 4.25128 0
M  V30 376 H 33.6633 -5.4095 2.591 0
M  V30 377 H 35.3423 -5.66337 3.12845 0
M  V30 378 N 35.4744 -0.807222 -1.35358 0
M  V30 379 C 36.7224 -0.387122 -1.98358 0
M  V30 380 C 37.0434 1.04942 -1.64354 0
M  V30 381 O 36.3134 1.72615 -0.926339 0
M  V30 382 H 34.8934 -0.140154 -0.733734 0
M  V30 383 H 37.5554 -1.0332 -1.6526 0
M  V30 384 H 36.6514 -0.493352 -3.08176 0
M  V30 385 N 36.9525 1.47285 -0.560781 0
M  V30 386 C 38.1805 2.06855 -0.0430262 0
M  V30 387 C 38.5955 1.41291 1.25229 0
M  V30 388 O 37.9525 0.510648 1.7521 0
M  V30 389 C 38.0035 3.61178 0.152518 0
M  V30 390 O 37.7245 4.24285 -1.0915 0
M  V30 391 C 39.2255 4.37624 0.707145 0
M  V30 392 H 36.4455 0.669319 -0.0474652 0
M  V30 393 H 38.9895 1.89237 -0.77521 0
M  V30 394 H 37.1445 3.78298 0.834843 0
M  V30 395 H 37.5585 5.16868 -0.891482 0
M  V30 396 H 39.0325 5.46271 0.793244 0
M  V30 397 H 39.5095 4.04152 1.71923 0
M  V30 398 H 40.1155 4.25257 0.0604027 0
M  V30 399 N 38.4306 0.297415 1.54768 0
M  V30 400 C 39.3936 -0.567375 2.22066 0
M  V30 401 C 40.3936 -1.06409 1.20556 0
M  V30 402 O 41.5836 -0.960691 1.45315 0
M  V30 403 C 38.7156 -1.78517 2.90421 0
M  V30 404 H 39.9086 0.0205534 2.99893 0
M  V30 405 H 37.4616 0.0482163 1.56226 0
M  V30 406 H 38.1966 -2.41303 2.16664 0
M  V30 407 H 37.9816 -1.43669 3.64831 0
M  V30 408 H 39.4716 -2.39964 3.41771 0
M  V30 409 N 39.9087 -1.5758 0.0250728 0
M  V30 410 C 41.1547 -1.91917 -0.655413 0
M  V30 411 C 41.4877 -0.901433 -1.72011 0
M  V30 412 O 40.7627 0.0764069 -1.9435 0
M  V30 413 C 41.0457 -3.36751 -1.27558 0
M  V30 414 C 40.8987 -4.49258 -0.220719 0
M  V30 415 C 42.2177 -3.81469 -2.19475 0
M  V30 416 H 39.3367 -0.697925 -0.23679 0
M  V30 417 H 41.9787 -1.89825 0.0815036 0
M  V30 418 H 40.1287 -3.38664 -1.90365 0
M  V30 419 H 41.8007 -4.59478 0.409601 0
M  V30 420 H 40.0437 -4.31415 0.454264 0
M  V30 421 H 40.7147 -5.47618 -0.694175 0
M  V30 422 H 43.1907 -3.81266 -1.66659 0
M  V30 423 H 42.0667 -4.83512 -2.59822 0
M  V30 424 H 42.3277 -3.16744 -3.08424 0
M  V30 425 N 41.3868 0.248026 -1.55636 0
M  V30 426 C 42.6148 0.993808 -1.81469 0
M  V30 427 C 43.0298 1.78991 -0.60064 0
M  V30 428 O 42.3868 1.77345 0.430682 0
M  V30 429 C 42.4378 1.93258 -3.05506 0
M  V30 430 O 42.1588 1.16869 -4.22224 0
M  V30 431 C 43.6598 2.79444 -3.4413 0
M  V30 432 H 40.8798 0.292486 -0.603898 0
M  V30 433 H 43.4238 0.271253 -2.02693 0
M  V30 434 H 41.5788 2.60943 -2.86335 0
M  V30 435 H 41.9928 1.80359 -4.92515 0
M  V30 436 H 43.4668 3.41066 -4.34026 0
M  V30 437 H 43.9438 3.50499 -2.64665 0
M  V30 438 H 44.5498 2.17214 -3.65648 0
M  V30 439 N 42.8649 1.48995 0.513639 0
M  V30 440 C 43.8279 1.64229 1.59879 0
M  V30 441 C 44.8279 0.514696 1.5234 0
M  V30 442 O 46.0179 0.78087 1.55718 0
M  V30 443 C 43.1499 1.62783 2.99524 0
M  V30 444 H 44.3429 2.61004 1.47705 0
M  V30 445 H 41.8959 1.37837 0.736936 0
M  V30 446 H 42.6309 0.675461 3.17188 0
M  V30 447 H 42.4159 2.4466 3.06404 0
M  V30 448 H 43.9059 1.76669 3.78388 0
M  V30 449 N 44.343 -0.763751 1.37857 0
M  V30 450 C 45.306 -1.85889 1.34081 0
M  V30 451 C 46.306 -1.58949 0.243277 0
M  V30 452 O 47.496 -1.66882 0.499589 0
M  V30 453 C 44.628 -3.23176 1.08489 0
M  V30 454 H 45.821 -1.90648 2.31502 0
M  V30 455 H 43.374 -0.964367 1.23003 0
M  V30 456 H 44.109 -3.24091 0.116318 0
M  V30 457 H 43.894 -3.44124 1.8794 0
M  V30 458 H 45.384 -4.03254 1.08517 0
M  V30 459 N 45.8211 -1.22559 -0.990812 0
M  V30 460 C 47.0671 -1.05297 -1.73322 0
M  V30 461 C 47.4001 0.410655 -1.89808 0
M  V30 462 O 46.6751 1.30439 -1.44277 0
M  V30 463 C 46.9581 -1.76713 -3.13759 0
M  V30 464 C 46.8111 -3.30684 -3.04907 0
M  V30 465 C 48.1301 -1.52121 -4.12974 0
M  V30 466 H 45.2491 -0.38392 -0.629106 0
M  V30 467 H 47.8911 -1.50926 -1.15418 0
M  V30 468 H 46.0411 -1.37924 -3.63193 0
M  V30 469 H 47.7131 -3.7893 -2.63077 0
M  V30 470 H 45.9561 -3.60253 -2.41661 0
M  V30 471 H 46.6271 -3.75833 -4.04294 0
M  V30 472 H 49.1031 -1.85819 -3.72304 0
M  V30 473 H 47.9791 -2.04582 -5.0935 0
M  V30 474 H 48.2401 -0.454257 -4.3976 0
M  V30 475 N 47.2992 1.18797 -1.03562 0
M  V30 476 C 48.2472 2.24297 -0.615905 0
M  V30 477 C 49.2412 1.65643 0.354808 0
M  V30 478 O 50.4472 1.78618 0.22265 0
M  V30 479 H 46.8222 0.729909 -0.180934 0
M  V30 480 H 48.7932 2.5701 -1.5162 0
M  V30 481 C 47.5422 3.47698 0.0104735 0
M  V30 482 H 46.8652 3.93125 -0.727509 0
M  V30 483 H 48.3052 4.23159 0.266995 0
M  V30 484 C 46.7642 3.12489 1.25905 0
M  V30 485 O 47.2942 3.25761 2.35038 0
M  V30 486 N 45.5002 2.6686 1.15039 0
M  V30 487 H 45.0472 2.56261 0.262328 0
M  V30 488 H 45.0052 2.43674 1.98672 0
M  V30 489 N 48.7773 0.814389 1.34928 0
M  V30 490 C 50.1883 0.458364 1.80986 0
M  V30 491 C 50.5393 -1.02042 1.67577 0
M  V30 492 O 49.6643 -1.79352 1.21086 0
M  V30 493 C 50.2593 0.825212 3.28597 0
M  V30 494 C 48.8183 0.521677 3.72767 0
M  V30 495 C 47.9653 1.04668 2.56788 0
M  V30 496 H 50.9163 1.00533 1.22795 0
M  V30 497 H 50.9373 0.12571 3.80292 0
M  V30 498 H 50.4493 1.90154 3.38324 0
M  V30 499 H 48.5503 -0.545589 3.68584 0
M  V30 500 H 48.6633 1.05977 4.67232 0
M  V30 501 H 47.0273 0.468622 2.50352 0
M  V30 502 H 47.8103 2.12927 2.6929 0
M  V30 503 N 50.2554 -1.46986 0.568584 0
M  V30 504 C 51.5034 -2.02041 0.0487022 0
M  V30 505 C 51.8244 -1.44408 -1.31039 0
M  V30 506 O 51.0944 -0.623477 -1.85714 0
M  V30 507 H 49.6744 -0.746849 0.015014 0
M  V30 508 H 52.3364 -1.80257 0.741168 0
M  V30 509 H 51.4324 -3.12085 -0.0308961 0
M  V30 510 N 51.7335 -0.305618 -1.54608 0
M  V30 511 C 52.9795 0.302746 -2.00528 0
M  V30 512 C 53.3125 1.53184 -1.19367 0
M  V30 513 O 52.5875 1.92598 -0.271321 0
M  V30 514 C 52.8705 0.654756 -3.54097 0
M  V30 515 C 52.7235 -0.583793 -4.45995 0
M  V30 516 C 54.0425 1.47947 -4.14487 0
M  V30 517 H 51.1615 0.108564 -0.72896 0
M  V30 518 H 53.8035 -0.418634 -1.85331 0
M  V30 519 H 51.9535 1.26935 -3.67178 0
M  V30 520 H 53.6255 -1.22224 -4.44814 0
M  V30 521 H 51.8685 -1.21615 -4.16404 0
M  V30 522 H 52.5395 -0.293287 -5.5122 0
M  V30 523 H 55.0155 0.96013 -4.04871 0
M  V30 524 H 53.8915 1.69454 -5.22088 0
M  V30 525 H 54.1525 2.47011 -3.66658 0
M  V30 526 N 53.2116 1.57565 -0.0334293 0
M  V30 527 C 54.4576 1.92262 0.645226 0
M  V30 528 C 54.7906 0.910543 1.71531 0
M  V30 529 O 54.0656 -0.066099 1.94388 0
M  V30 530 C 54.3486 3.37422 1.2577 0
M  V30 531 C 54.2016 4.49369 0.196891 0
M  V30 532 C 55.5206 3.82628 2.17449 0
M  V30 533 H 52.6396 0.699171 0.233085 0
M  V30 534 H 55.2816 1.89779 -0.0915694 0
M  V30 535 H 53.4316 3.39669 1.88566 0
M  V30 536 H 55.1036 4.59254 -0.433962 0
M  V30 537 H 53.3466 4.31168 -0.477137 0
M  V30 538 H 54.0176 5.47978 0.665124 0
M  V30 539 H 56.4936 3.82145 1.64634 0
M  V30 540 H 55.3696 4.84883 2.57254 0
M  V30 541 H 55.6306 3.18376 3.0674 0
M  V30 542 N 54.6897 -0.239769 1.55765 0
M  V30 543 C 55.9357 -0.968234 1.78194 0
M  V30 544 C 56.2687 -1.84701 0.599938 0
M  V30 545 O 55.5437 -1.9031 -0.401524 0
M  V30 546 C 55.8267 -1.8227 3.10564 0
M  V30 547 C 55.6797 -0.971633 4.3918 0
M  V30 548 C 56.9987 -2.80388 3.39221 0
M  V30 549 H 54.1177 -0.350572 0.648281 0
M  V30 550 H 56.7597 -0.238259 1.885 0
M  V30 551 H 54.9097 -2.44507 3.01908 0
M  V30 552 H 56.5817 -0.367408 4.59835 0
M  V30 553 H 54.8247 -0.276276 4.32919 0
M  V30 554 H 55.4957 -1.60346 5.28198 0
M  V30 555 H 57.9717 -2.28287 3.47885 0
M  V30 556 H 56.8477 -3.3729 4.33044 0
M  V30 557 H 57.1087 -3.57212 2.60484 0
M  V30 558 N 56.1678 -1.49265 -0.50573 0
M  V30 559 C 57.5838 -1.35923 -0.836486 0
M  V30 560 C 57.7838 -0.388704 -1.97715 0
M  V30 561 O 56.8398 0.181336 -2.51848 0
M  V30 562 C 58.1528 -2.76531 -1.18115 0
M  V30 563 C 59.7008 -2.85197 -1.28964 0
M  V30 564 C 60.1758 -4.26561 -1.66761 0
M  V30 565 N 61.6668 -4.2935 -1.73819 0
M  V30 566 C 62.4018 -5.35693 -2.045 0
M  V30 567 N 61.8978 -6.52287 -2.33438 0
M  V30 568 N 63.6908 -5.23105 -2.05711 0
M  V30 569 H 55.8418 -2.10965 0.246519 0
M  V30 570 H 58.1048 -0.9468 0.0476887 0
M  V30 571 H 57.8108 -3.49226 -0.416398 0
M  V30 572 H 57.6848 -3.11599 -2.1257 0
M  V30 573 H 60.0718 -2.12742 -2.04511 0
M  V30 574 H 60.1528 -2.53718 -0.325704 0
M  V30 575 H 59.7968 -4.99541 -0.917656 0
M  V30 576 H 59.7268 -4.55502 -2.64246 0
M  V30 577 H 62.2178 -3.4526 -1.53635 0
M  V30 578 H 62.5308 -7.29158 -2.56024 0
M  V30 579 H 60.8758 -6.55521 -2.30905 0
M  V30 580 H 64.0668 -4.31026 -1.82577 0
M  V30 581 H 64.2398 -6.06078 -2.29289 0
M  V30 582 N 57.6459 0.756429 -1.3826 0
M  V30 583 C 58.8949 1.51082 -1.3363 0
M  V30 584 C 59.2079 1.95467 0.0720068 0
M  V30 585 O 60.4139 2.7043 0.240834 0
M  V30 586 C 58.8699 2.72893 -2.34644 0
M  V30 587 C 58.4779 2.35544 -3.81081 0
M  V30 588 C 60.2219 3.50791 -2.39052 0
M  V30 589 C 58.1289 3.53948 -4.73787 0
M  V30 590 H 57.0589 0.56727 -0.49671 0
M  V30 591 H 59.7099 0.827147 -1.638 0
M  V30 592 H 58.0919 3.43227 -1.97513 0
M  V30 593 H 59.2659 1.72894 -4.27135 0
M  V30 594 H 57.5809 1.70786 -3.79764 0
M  V30 595 H 60.1779 4.38823 -3.05513 0
M  V30 596 H 60.5209 3.91745 -1.40861 0
M  V30 597 H 61.0539 2.87467 -2.74968 0
M  V30 598 H 57.7929 3.18064 -5.73163 0
M  V30 599 H 57.3129 4.15651 -4.32428 0
M  V30 600 H 58.9919 4.20566 -4.91663 0
M  V30 601 N 59.124 1.23083 0.984299 0
M  V30 602 C 60.349 1.088 1.76571 0
M  V30 603 C 60.774 -0.356657 1.84688 0
M  V30 604 O 60.132 -1.25788 1.30565 0
M  V30 605 C 60.18 1.71371 3.17277 0
M  V30 606 O 59.284 0.973213 4.00752 0
M  V30 607 H 58.625 0.381599 0.543395 0
M  V30 608 H 61.155 1.63057 1.23587 0
M  V30 609 H 61.165 1.76449 3.67872 0
M  V30 610 H 59.84 2.76493 3.10684 0
M  V30 611 H 58.417 0.999078 3.59267 0
M  V30 612 N 60.6021 -1.18246 1.0419 0
M  V30 613 C 61.5341 -2.2142 0.592088 0
M  V30 614 C 62.5471 -1.59233 -0.338909 0
M  V30 615 O 63.7361 -1.78002 -0.133231 0
M  V30 616 C 60.8361 -3.38546 -0.154854 0
M  V30 617 C 60.0091 -4.3031 0.784328 0
M  V30 618 C 59.0681 -5.26138 0.0804583 0
M  V30 619 O 58.0941 -5.64738 0.711292 0
M  V30 620 N 59.2961 -5.68261 -1.18574 0
M  V30 621 H 62.0611 -2.60636 1.47949 0
M  V30 622 H 59.6221 -1.33044 0.922544 0
M  V30 623 H 61.6141 -3.99678 -0.635606 0
M  V30 624 H 60.1841 -2.98012 -0.943811 0
M  V30 625 H 59.4041 -3.66764 1.44491 0
M  V30 626 H 60.6921 -4.8852 1.42218 0
M  V30 627 H 60.0901 -5.38957 -1.71876 0
M  V30 628 H 58.6471 -6.31584 -1.61074 0
M  V30 629 N 62.0802 -0.821533 -1.34494 0
M  V30 630 C 63.0272 -0.240397 -2.29545 0
M  V30 631 C 63.9972 0.634031 -1.53523 0
M  V30 632 O 65.1822 0.575966 -1.81899 0
M  V30 633 C 62.3222 0.592869 -3.39969 0
M  V30 634 C 61.4352 -0.30365 -4.30932 0
M  V30 635 C 60.5702 0.539049 -5.28458 0
M  V30 636 C 59.6092 -0.356942 -6.11058 0
M  V30 637 N 58.7462 0.446603 -7.00678 0
M  V30 638 H 63.5862 -1.05632 -2.7865 0
M  V30 639 H 61.1232 -0.532413 -1.37127 0
M  V30 640 H 63.0812 1.09129 -4.02675 0
M  V30 641 H 61.7112 1.37392 -2.92102 0
M  V30 642 H 60.7632 -0.920276 -3.691 0
M  V30 643 H 62.0752 -0.992661 -4.88823 0
M  V30 644 H 61.2292 1.102 -5.96608 0
M  V30 645 H 59.9682 1.26157 -4.71101 0
M  V30 646 H 58.9732 -0.932047 -5.41842 0
M  V30 647 H 60.1982 -1.07755 -6.70497 0
M  V30 648 H 58.1442 1.15282 -6.45791 0
M  V30 649 H 58.0612 -0.184048 -7.55776 0
M  V30 650 H 59.3292 0.992352 -7.73158 0
M  V30 651 N 63.5583 1.46682 -0.576371 0
M  V30 652 C 64.8063 2.02013 -0.0594163 0
M  V30 653 C 65.1273 1.45101 1.30271 0
M  V30 654 O 64.3973 0.633317 1.8538 0
M  V30 655 H 62.9773 0.746759 -0.0189745 0
M  V30 656 H 65.6393 1.79862 -0.750717 0
M  V30 657 H 64.7353 3.12097 0.014345 0
M  V30 658 N 65.0364 0.313813 1.54444 0
M  V30 659 C 65.9664 -0.549454 2.26943 0
M  V30 660 C 66.9474 -1.12741 1.27372 0
M  V30 661 O 68.1324 -1.15436 1.56167 0
M  V30 662 C 65.2624 -1.71523 3.01989 0
M  V30 663 C 64.2164 -1.26703 4.08816 0
M  V30 664 C 63.5424 -2.51898 4.71647 0
M  V30 665 C 64.8424 -0.388962 5.2085 0
M  V30 666 H 66.5364 0.0552661 2.99349 0
M  V30 667 H 64.0824 0.0280207 1.43973 0
M  V30 668 H 66.0354 -2.32535 3.51433 0
M  V30 669 H 64.7594 -2.34639 2.27183 0
M  V30 670 H 63.4184 -0.679896 3.6024 0
M  V30 671 H 63.0664 -3.13356 3.93468 0
M  V30 672 H 62.7664 -2.22605 5.43802 0
M  V30 673 H 64.2904 -3.1369 5.23861 0
M  V30 674 H 65.7044 -0.905107 5.6611 0
M  V30 675 H 64.1014 -0.18924 5.99802 0
M  V30 676 H 65.1714 0.582699 4.81386 0
M  V30 677 N 66.5145 -1.57545 0.0417849 0
M  V30 678 C 67.7915 -1.83642 -0.673433 0
M  V30 679 C 68.1715 -0.928298 -1.89594 0
M  V30 680 O 67.5195 0.0129955 -2.28496 0
M  V30 681 C 67.7295 -3.33155 -1.03964 0
M  V30 682 C 69.0775 -3.99941 -1.42592 0
M  V30 683 O 70.1015 -3.37725 -1.13226 0
M  V30 684 O 68.9605 -5.09619 -1.9736 0
M  V30 685 H 66.0545 -0.757638 -0.331533 0
M  V30 686 H 68.6005 -1.69554 0.070433 0
M  V30 687 H 67.3725 -3.9093 -0.170098 0
M  V30 688 H 66.9955 -3.52396 -1.84126 0
M  V30 689 N 67.9926 0.231505 -1.5589 0
M  V30 690 C 69.2226 0.973092 -1.82248 0
M  V30 691 C 69.6306 1.78845 -0.617328 0
M  V30 692 O 68.9736 1.78752 0.423499 0
M  V30 693 C 69.0356 1.94732 -3.02192 0
M  V30 694 C 68.6996 1.31743 -4.37599 0
M  V30 695 C 69.6966 0.712238 -5.14998 0
M  V30 696 C 67.3816 1.33218 -4.84312 0
M  V30 697 C 69.3756 0.130195 -6.37267 0
M  V30 698 C 67.0626 0.746286 -6.06526 0
M  V30 699 C 68.0606 0.146337 -6.82843 0
M  V30 700 O 67.7486 -0.430465 -8.02747 0
M  V30 701 H 67.4806 0.29125 -0.61004 0
M  V30 702 H 70.0346 0.254915 -2.03812 0
M  V30 703 H 68.2646 2.70422 -2.76422 0
M  V30 704 H 69.9536 2.55362 -3.15508 0
M  V30 705 H 70.7196 0.69324 -4.8002 0
M  V30 706 H 66.5986 1.78854 -4.24891 0
M  V30 707 H 70.1426 -0.33871 -6.96777 0
M  V30 708 H 66.0396 0.762663 -6.40979 0
M  V30 709 H 66.8076 -0.323818 -8.17859 0
M  V30 710 N 69.4707 1.49531 0.497807 0
M  V30 711 C 70.4337 1.65916 1.58128 0
M  V30 712 C 71.4337 0.530825 1.51786 0
M  V30 713 O 72.6237 0.797342 1.54881 0
M  V30 714 C 69.7557 1.65951 2.9778 0
M  V30 715 H 70.9487 2.62556 1.44929 0
M  V30 716 H 68.5017 1.38611 0.722275 0
M  V30 717 H 69.2367 0.709065 3.16453 0
M  V30 718 H 69.0217 2.47897 3.03792 0
M  V30 719 H 70.5117 1.80673 3.76493 0
M  V30 720 N 70.9488 -0.749086 1.3866 0
M  V30 721 C 72.1738 -1.54344 1.38538 0
M  V30 722 C 72.5988 -1.88088 -0.0216655 0
M  V30 723 O 71.9568 -1.50899 -1.00494 0
M  V30 724 C 72.0048 -2.8164 2.25192 0
M  V30 725 O 71.1088 -3.7698 1.67212 0
M  V30 726 H 70.4498 -0.466654 0.472367 0
M  V30 727 H 72.9798 -0.925355 1.82478 0
M  V30 728 H 72.9898 -3.30519 2.3921 0
M  V30 729 H 71.6648 -2.56411 3.27454 0
M  V30 730 H 70.2418 -3.35699 1.6236 0
M  V30 731 N 72.4269 -1.23603 -0.977757 0
M  V30 732 C 73.3589 -0.977369 -2.07317 0
M  V30 733 C 74.3719 0.0495845 -1.62724 0
M  V30 734 O 75.5609 -0.186261 -1.77526 0
M  V30 735 C 72.6609 -0.451216 -3.35883 0
M  V30 736 C 71.8339 -1.53896 -4.09432 0
M  V30 737 C 70.8929 -1.01721 -5.16274 0
M  V30 738 O 69.9189 -1.70676 -5.43009 0
M  V30 739 N 71.1209 0.153594 -5.80297 0
M  V30 740 H 73.8859 -1.92047 -2.30082 0
M  V30 741 H 71.4469 -1.14497 -1.14465 0
M  V30 742 H 73.4389 -0.0871574 -4.04606 0
M  V30 743 H 72.0089 0.397368 -3.10064 0
M  V30 744 H 71.2289 -2.07566 -3.35127 0
M  V30 745 H 72.5169 -2.27037 -4.55337 0
M  V30 746 H 71.9149 0.730323 -5.60966 0
M  V30 747 H 70.4719 0.458892 -6.50183 0
M  V30 748 N 73.905 1.17692 -1.04816 0
M  V30 749 C 74.837 2.21103 -0.603822 0
M  V30 750 C 75.85 1.59411 0.33046 0
M  V30 751 O 77.039 1.7807 0.12379 0
M  V30 752 C 74.139 3.38623 0.136898 0
M  V30 753 C 73.312 4.29888 -0.807137 0
M  V30 754 C 72.371 5.26088 -0.10836 0
M  V30 755 O 71.397 5.64353 -0.741232 0
M  V30 756 N 72.599 5.68882 1.15558 0
M  V30 757 H 75.364 2.59848 -1.49329 0
M  V30 758 H 72.925 1.32553 -0.929587 0
M  V30 759 H 74.917 4.00009 0.614401 0
M  V30 760 H 73.487 2.98508 0.927993 0
M  V30 761 H 72.707 3.65993 -1.46434 0
M  V30 762 H 73.995 4.87759 -1.44807 0
M  V30 763 H 73.393 5.39861 1.69015 0
M  V30 764 H 71.95 6.32429 1.57722 0
M  V30 765 N 75.3831 0.828654 1.34056 0
M  V30 766 C 76.6311 0.41863 1.97717 0
M  V30 767 C 76.9521 -1.02314 1.66002 0
M  V30 768 O 76.2221 -1.71119 0.953683 0
M  V30 769 H 74.8021 0.151809 0.731412 0
M  V30 770 H 77.4641 1.05936 1.63596 0
M  V30 771 H 76.5601 0.542318 3.07352 0
M  V30 772 N 76.8612 -1.46375 0.584142 0
M  V30 773 C 78.0892 -2.06761 0.0759296 0
M  V30 774 C 78.5042 -1.43266 -1.22965 0
M  V30 775 O 77.8612 -0.538458 -1.74376 0
M  V30 776 C 77.9122 -3.61375 -0.0950384 0
M  V30 777 O 77.6332 -4.22495 1.15887 0
M  V30 778 C 79.1342 -4.38693 -0.637434 0
M  V30 779 H 76.3542 -0.668479 0.0581075 0
M  V30 780 H 78.8982 -1.8798 0.805218 0
M  V30 781 H 77.0532 -3.79578 -0.774554 0
M  V30 782 H 77.4672 -5.15385 0.973598 0
M  V30 783 H 78.9412 -5.47464 -0.706237 0
M  V30 784 H 79.4182 -4.06836 -1.65472 0
M  V30 785 H 80.0242 -4.25299 0.00725967 0
M  V30 786 N 78.3393 -0.321999 -1.54275 0
M  V30 787 C 79.3023 0.531975 -2.22941 0
M  V30 788 C 80.3023 1.04478 -1.22234 0
M  V30 789 O 81.4923 0.937452 -1.46825 0
M  V30 790 C 78.6243 1.73874 -2.93224 0
M  V30 791 H 79.8173 -0.0682612 -2.99822 0
M  V30 792 H 77.3703 -0.0730644 -1.56129 0
M  V30 793 H 78.1053 2.37825 -2.20476 0
M  V30 794 H 77.8903 1.37847 -3.6707 0
M  V30 795 H 79.3803 2.34496 -3.45545 0
M  V30 796 N 79.8174 1.5752 -0.0501392 0
M  V30 797 C 80.7804 2.1037 0.909786 0
M  V30 798 C 81.7804 1.02308 1.24056 0
M  V30 799 O 82.9704 1.28385 1.17741 0
M  V30 800 C 80.1024 2.58708 2.21998 0
M  V30 801 H 81.2954 2.96479 0.451665 0
M  V30 802 H 78.8484 1.55038 0.198248 0
M  V30 803 H 79.5834 1.75989 2.72394 0
M  V30 804 H 79.3684 3.37675 1.99295 0
M  V30 805 H 80.8584 2.99747 2.9076 0
M  V30 806 N 81.2955 -0.223234 1.56011 0
M  V30 807 C 82.2255 -1.27988 1.95298 0
M  V30 808 C 83.2065 -1.48976 0.820979 0
M  V30 809 O 84.3915 -1.61188 1.08315 0
M  V30 810 C 81.5215 -2.63 2.26822 0
M  V30 811 C 80.4755 -2.56671 3.42497 0
M  V30 812 C 79.8015 -3.95697 3.59622 0
M  V30 813 C 81.1015 -2.11601 4.77517 0
M  V30 814 H 82.7955 -0.953525 2.8381 0
M  V30 815 H 80.3415 -0.457244 1.36548 0
M  V30 816 H 82.2945 -3.37077 2.52898 0
M  V30 817 H 81.0185 -2.9732 1.35161 0
M  V30 818 H 79.6775 -1.85051 3.16467 0
M  V30 819 H 79.3255 -4.27322 2.6534 0
M  V30 820 H 79.0255 -3.92345 4.37424 0
M  V30 821 H 80.5495 -4.71438 3.88044 0
M  V30 822 H 81.9635 -2.7542 5.02809 0
M  V30 823 H 80.3605 -2.19311 5.5859 0
M  V30 824 H 81.4305 -1.06824 4.72987 0
M  V30 825 N 82.7736 -1.49793 -0.48987 0
M  V30 826 C 83.7056 -1.63413 -1.60713 0
M  V30 827 C 84.7186 -0.516329 -1.54395 0
M  V30 828 O 85.9076 -0.788812 -1.60125 0
M  V30 829 C 83.0076 -1.58516 -2.99543 0
M  V30 830 C 82.1806 -2.86016 -3.30928 0
M  V30 831 C 81.2396 -2.74018 -4.49222 0
M  V30 832 O 80.2656 -3.47964 -4.50455 0
M  V30 833 N 81.4676 -1.86309 -5.4979 0
M  V30 834 H 84.2326 -2.59777 -1.49452 0
M  V30 835 H 81.7936 -1.47022 -0.677955 0
M  V30 836 H 83.7856 -1.48128 -3.76617 0
M  V30 837 H 82.3556 -0.69965 -3.0467 0
M  V30 838 H 81.5756 -3.10672 -2.42645 0
M  V30 839 H 82.8636 -3.70521 -3.487 0
M  V30 840 H 82.2616 -1.2551 -5.51601 0
M  V30 841 H 80.8186 -1.81837 -6.25922 0
M  V30 842 N 84.2517 0.741722 -1.39055 0
M  V30 843 C 85.1987 1.85566 -1.37237 0
M  V30 844 C 86.1687 1.64457 -0.233072 0
M  V30 845 O 87.3537 1.85957 -0.427147 0
M  V30 846 C 84.4937 3.23004 -1.215 0
M  V30 847 C 83.6067 3.55864 -2.44918 0
M  V30 848 C 82.7417 4.82669 -2.21821 0
M  V30 849 C 81.7807 5.08351 -3.40948 0
M  V30 850 N 80.9177 6.26356 -3.17211 0
M  V30 851 H 85.7577 1.86455 -2.32462 0
M  V30 852 H 83.2947 0.911176 -1.15482 0
M  V30 853 H 85.2527 4.02331 -1.10389 0
M  V30 854 H 83.8827 3.21411 -0.29908 0
M  V30 855 H 82.9347 2.7129 -2.66657 0
M  V30 856 H 84.2467 3.70765 -3.33668 0
M  V30 857 H 83.4007 5.69962 -2.07914 0
M  V30 858 H 82.1397 4.69929 -1.30454 0
M  V30 859 H 81.1447 4.19522 -3.55361 0
M  V30 860 H 82.3697 5.22981 -4.33207 0
M  V30 861 H 80.3157 6.14917 -2.28502 0
M  V30 862 H 80.2327 6.41813 -3.99515 0
M  V30 863 H 81.5007 7.16506 -3.06984 0
M  V30 864 N 85.7298 1.2412 0.971189 0
M  V30 865 C 86.6398 1.04747 2.09917 0
M  V30 866 C 87.6558 -0.0107162 1.73997 0
M  V30 867 O 88.8318 0.186714 2.00533 0
M  V30 868 C 85.8968 0.650828 3.40537 0
M  V30 869 C 84.9578 1.7851 3.90426 0
M  V30 870 C 84.1908 1.40729 5.14812 0
M  V30 871 O 84.4138 0.29557 5.69634 0
M  V30 872 O 83.3478 2.23168 5.58999 0
M  V30 873 H 87.1738 1.99304 2.29154 0
M  V30 874 H 84.7588 1.02908 1.08307 0
M  V30 875 H 86.6408 0.440992 4.19086 0
M  V30 876 H 85.3158 -0.265649 3.22608 0
M  V30 877 H 84.2228 2.04966 3.12953 0
M  V30 878 H 85.5558 2.68023 4.12825 0
M  V30 879 N 87.2079 -1.17134 1.05439 0
M  V30 880 C 88.1379 -2.2342 0.678649 0
M  V30 881 C 89.1189 -1.66971 -0.32476 0
M  V30 882 O 90.3039 -1.93149 -0.201802 0
M  V30 883 C 87.4339 -3.47256 0.0552099 0
M  V30 884 C 86.3879 -4.16543 0.98365 0
M  V30 885 C 85.7139 -5.34231 0.223961 0
M  V30 886 C 87.0139 -4.68495 2.3089 0
M  V30 887 H 88.7079 -2.55105 1.56722 0
M  V30 888 H 86.2539 -1.2262 0.754998 0
M  V30 889 H 88.2069 -4.20828 -0.21946 0
M  V30 890 H 86.9309 -3.14846 -0.868319 0
M  V30 891 H 85.5899 -3.44887 1.24293 0
M  V30 892 H 85.2379 -4.98071 -0.702412 0
M  V30 893 H 84.9379 -5.81527 0.842627 0
M  V30 894 H 86.4619 -6.10585 -0.0433671 0
M  V30 895 H 87.8759 -5.33691 2.09396 0
M  V30 896 H 86.2729 -5.26379 2.88176 0
M  V30 897 H 87.3429 -3.85169 2.94572 0
M  V30 898 N 88.686 -0.835752 -1.33615 0
M  V30 899 C 89.633 -0.26473 -2.29277 0
M  V30 900 C 90.603 0.617712 -1.54187 0
M  V30 901 O 91.788 0.556641 -1.825 0
M  V30 902 C 88.928 0.556777 -3.40579 0
M  V30 903 C 88.041 -0.349339 -4.30585 0
M  V30 904 C 87.176 0.482969 -5.29 0
M  V30 905 C 86.215 -0.421732 -6.10645 0
M  V30 906 N 85.352 0.372262 -7.01112 0
M  V30 907 H 90.192 -1.08582 -2.77514 0
M  V30 908 H 87.729 -0.546927 -1.36554 0
M  V30 909 H 89.687 1.04852 -4.03809 0
M  V30 910 H 88.317 1.34286 -2.93542 0
M  V30 911 H 87.369 -0.959372 -3.68104 0
M  V30 912 H 88.681 -1.04445 -4.87742 0
M  V30 913 H 87.835 1.03866 -5.97743 0
M  V30 914 H 86.574 1.21153 -4.72412 0
M  V30 915 H 85.579 -0.989464 -5.40823 0
M  V30 916 H 86.804 -1.14861 -6.69316 0
M  V30 917 H 84.75 1.08426 -6.46977 0
M  V30 918 H 84.667 -0.264198 -7.55538 0
M  V30 919 H 85.935 0.910293 -7.74167 0
M  V30 920 N 90.1641 1.46063 -0.591896 0
M  V30 921 C 91.5801 1.57561 -0.254288 0
M  V30 922 C 91.7801 1.58565 1.24336 0
M  V30 923 O 90.8361 1.50753 2.02558 0
M  V30 924 C 92.1491 2.86549 -0.911611 0
M  V30 925 C 93.6971 3.00197 -0.886059 0
M  V30 926 C 94.1721 4.31933 -1.5231 0
M  V30 927 N 95.6631 4.38654 -1.48786 0
M  V30 928 C 96.3981 5.39222 -1.95006 0
M  V30 929 N 95.8941 6.46414 -2.49241 0
M  V30 930 N 97.6871 5.3048 -1.85868 0
M  V30 931 H 89.8381 1.43655 -1.56451 0
M  V30 932 H 92.1011 0.68583 -0.654478 0
M  V30 933 H 91.8071 2.91651 -1.96551 0
M  V30 934 H 91.6811 3.74794 -0.425368 0
M  V30 935 H 94.0681 2.9467 0.159246 0
M  V30 936 H 94.1491 2.13403 -1.41041 0
M  V30 937 H 93.7931 4.38217 -2.56765 0
M  V30 938 H 93.7231 5.17516 -0.973891 0
M  V30 939 H 96.2141 3.61793 -1.09151 0
M  V30 940 H 96.5271 7.19376 -2.82344 0
M  V30 941 H 94.8721 6.47208 -2.53272 0
M  V30 942 H 98.0631 4.45643 -1.43248 0
M  V30 943 H 98.2361 6.08711 -2.22204 0
M  V30 944 N 91.6422 0.330177 1.54103 0
M  V30 945 C 92.8912 -0.271336 1.99867 0
M  V30 946 C 93.2042 -1.52723 1.22209 0
M  V30 947 O 94.4102 -2.20515 1.58383 0
M  V30 948 C 92.8662 -0.534032 3.55916 0
M  V30 949 C 92.4742 0.705193 4.42415 0
M  V30 950 C 94.2182 -1.09514 4.1013 0
M  V30 951 C 92.1252 0.414035 5.89949 0
M  V30 952 H 91.0552 -0.105166 0.74663 0
M  V30 953 H 93.7062 0.443429 1.78062 0
M  V30 954 H 92.0882 -1.30915 3.73734 0
M  V30 955 H 93.2622 1.4804 4.36372 0
M  V30 956 H 91.5772 1.18698 3.99124 0
M  V30 957 H 94.1742 -1.3277 5.17954 0
M  V30 958 H 94.5172 -2.04656 3.62521 0
M  V30 959 H 95.0502 -0.381038 3.95971 0
M  V30 960 H 91.7892 1.33481 6.41766 0
M  V30 961 H 91.3092 -0.323336 5.98928 0
M  V30 962 H 92.9882 0.0263105 6.46995 0
M  V30 963 N 93.1203 -1.57491 0.0584922 0
M  V30 964 C 94.0673 -2.11958 -0.913376 0
M  V30 965 C 95.0373 -1.02875 -1.30407 0
M  V30 966 O 96.2223 -1.30464 -1.39226 0
M  V30 967 C 93.3623 -2.67497 -2.18035 0
M  V30 968 C 92.4753 -3.90691 -1.84349 0
M  V30 969 C 91.6103 -4.3452 -3.05559 0
M  V30 970 C 90.6493 -5.50395 -2.67827 0
M  V30 971 N 89.7863 -5.89244 -3.81754 0
M  V30 972 H 94.6263 -2.94704 -0.442017 0
M  V30 973 H 92.1633 -1.45643 -0.206545 0
M  V30 974 H 94.1213 -2.978 -2.92183 0
M  V30 975 H 92.7513 -1.87537 -2.62735 0
M  V30 976 H 91.8033 -3.66934 -1.00319 0
M  V30 977 H 93.1153 -4.7489 -1.5258 0
M  V30 978 H 92.2693 -4.66414 -3.87998 0
M  V30 979 H 91.0083 -3.49147 -3.40511 0
M  V30 980 H 90.0133 -5.18165 -1.83806 0
M  V30 981 H 91.2383 -6.3749 -2.34059 0
M  V30 982 H 89.1843 -5.06823 -4.16493 0
M  V30 983 H 89.1013 -6.68151 -3.53708 0
M  V30 984 H 90.3693 -6.25756 -4.64811 0
M  V30 985 N 94.5984 0.214957 -1.56127 0
M  V30 986 C 95.8474 0.936451 -1.78643 0
M  V30 987 C 96.1604 1.85237 -0.628229 0
M  V30 988 O 97.3664 2.613 -0.737186 0
M  V30 989 C 95.8224 1.7154 -3.16389 0
M  V30 990 C 95.4304 0.845299 -4.39953 0
M  V30 991 C 97.1744 2.42772 -3.48227 0
M  V30 992 C 95.0814 1.62198 -5.68723 0
M  V30 993 H 94.0114 0.353401 -0.666051 0
M  V30 994 H 96.6624 0.190169 -1.82512 0
M  V30 995 H 95.0444 2.50484 -3.06715 0
M  V30 996 H 96.2184 0.0959353 -4.607 0
M  V30 997 H 94.5334 0.244789 -4.1568 0
M  V30 998 H 97.1304 3.01394 -4.41663 0
M  V30 999 H 97.4734 3.15984 -2.71035 0
M  V30 1000 H 98.0064 1.70813 -3.5926 0
M  V30 1001 H 94.7454 0.933011 -6.48826 0
M  V30 1002 H 94.2654 2.34579 -5.52026 0
M  V30 1003 H 95.9444 2.18095 -6.09133 0
M  V30 1004 N 96.0765 1.50051 0.48192 0
M  V30 1005 C 97.4875 1.5348 1.06305 0
M  V30 1006 C 97.8385 0.331997 1.93371 0
M  V30 1007 O 96.9635 -0.556256 2.09129 0
M  V30 1008 C 97.5585 2.7813 1.93466 0
M  V30 1009 C 96.1175 2.84275 2.46707 0
M  V30 1010 C 95.2645 2.47637 1.24785 0
M  V30 1011 H 98.2155 1.56472 0.264995 0
M  V30 1012 H 98.2365 2.59372 2.78399 0
M  V30 1013 H 97.7485 3.65654 1.30072 0
M  V30 1014 H 95.8495 2.01077 3.13686 0
M  V30 1015 H 95.9625 3.8691 2.82555 0
M  V30 1016 H 94.3265 1.99835 1.57918 0
M  V30 1017 H 95.1095 3.37457 0.630694 0
M  V30 1018 N 97.5546 -0.734337 1.39446 0
M  V30 1019 C 98.8316 -1.48579 1.27215 0
M  V30 1020 C 99.2116 -2.1077 -0.117968 0
M  V30 1021 O 98.5596 -1.98646 -1.12924 0
M  V30 1022 C 98.7696 -2.53667 2.39696 0
M  V30 1023 C 100.118 -3.20031 2.79044 0
M  V30 1024 O 101.142 -2.6398 2.39151 0
M  V30 1025 O 100.001 -4.21455 3.47905 0
M  V30 1026 H 97.0946 -0.659816 0.49857 0
M  V30 1027 H 99.6406 -0.768106 1.51322 0
M  V30 1028 H 98.4126 -2.06096 3.32626 0
M  V30 1029 H 98.0356 -3.32994 2.17258 0
M  V30 1030 N 99.0327 -1.24633 -0.964593 0
M  V30 1031 C 100.263 -1.11339 -1.74032 0
M  V30 1032 C 100.671 0.336593 -1.86182 0
M  V30 1033 O 100.014 1.24389 -1.35178 0
M  V30 1034 C 100.076 -1.68284 -3.1768 0
M  V30 1035 C 99.7397 -3.17196 -3.28992 0
M  V30 1036 C 100.737 -4.14308 -3.14078 0
M  V30 1037 C 98.4217 -3.57215 -3.53133 0
M  V30 1038 C 100.416 -5.4942 -3.23135 0
M  V30 1039 C 98.1027 -4.92468 -3.61827 0
M  V30 1040 C 99.1007 -5.8838 -3.46841 0
M  V30 1041 O 98.7887 -7.21173 -3.55197 0
M  V30 1042 H 98.5207 -0.389551 -0.552472 0
M  V30 1043 H 101.075 -1.65282 -1.21946 0
M  V30 1044 H 99.3047 -1.08777 -3.71085 0
M  V30 1045 H 100.994 -1.50234 -3.77074 0
M  V30 1046 H 101.76 -3.84731 -2.95308 0
M  V30 1047 H 97.6387 -2.83063 -3.63863 0
M  V30 1048 H 101.183 -6.24263 -3.11355 0
M  V30 1049 H 97.0797 -5.21714 -3.80111 0
M  V30 1050 H 97.8477 -7.29135 -3.71892 0
M  V30 1051 N 100.511 1.16574 -1.06058 0
M  V30 1052 C 101.736 1.91493 -0.796562 0
M  V30 1053 C 102.161 1.76773 0.642868 0
M  V30 1054 O 101.519 1.09142 1.44768 0
M  V30 1055 C 101.567 3.40293 -1.19303 0
M  V30 1056 O 100.671 4.11074 -0.330394 0
M  V30 1057 H 100.012 0.596678 -0.291326 0
M  V30 1058 H 102.542 1.47708 -1.41575 0
M  V30 1059 H 102.552 3.91057 -1.16356 0
M  V30 1060 H 101.227 3.50326 -2.24153 0
M  V30 1061 H 99.8038 3.70513 -0.421225 0
M  V30 1062 N 101.989 0.842826 1.3317 0
M  V30 1063 C 103.266 0.362216 1.92217 0
M  V30 1064 C 103.646 -1.15289 1.76838 0
M  V30 1065 O 102.994 -1.96914 1.15919 0
M  V30 1066 C 103.204 0.813495 3.39387 0
M  V30 1067 C 104.552 0.823804 4.16532 0
M  V30 1068 O 105.576 0.757358 3.48055 0
M  V30 1069 O 104.435 0.915193 5.38782 0
M  V30 1070 H 101.529 0.103317 0.820521 0
M  V30 1071 H 104.075 0.928942 1.42017 0
M  V30 1072 H 102.847 1.85624 3.4447 0
M  V30 1073 H 102.47 0.223561 3.96971 0
M  V30 1074 N 103.467 -1.45747 0.599634 0
M  V30 1075 C 104.692 -2.07178 0.0960198 0
M  V30 1076 C 105.117 -1.44268 -1.207 0
M  V30 1077 O 104.475 -0.532503 -1.73303 0
M  V30 1078 C 104.523 -3.60579 -0.0385348 0
M  V30 1079 O 103.627 -3.97713 -1.0908 0
M  V30 1080 H 102.968 -0.660251 0.0704593 0
M  V30 1081 H 105.498 -1.87124 0.827385 0
M  V30 1082 H 105.508 -4.07298 -0.239304 0
M  V30 1083 H 104.183 -4.05756 0.912947 0
M  V30 1084 H 102.76 -3.62678 -0.867135 0
M  V30 1085 N 104.945 -0.338344 -1.53925 0
M  V30 1086 C 106.192 0.259758 -2.00827 0
M  V30 1087 C 106.52 1.50973 -1.22628 0
M  V30 1088 O 105.775 1.93379 -0.300509 0
M  V30 1089 C 106.074 0.62448 -3.51902 0
M  V30 1090 C 105.74 -0.528006 -4.47798 0
M  V30 1091 C 104.402 -0.844298 -4.73735 0
M  V30 1092 C 106.754 -1.30143 -5.0469 0
M  V30 1093 C 104.082 -1.93648 -5.53821 0
M  V30 1094 C 106.434 -2.38382 -5.85967 0
M  V30 1095 C 105.098 -2.70576 -6.10201 0
M  V30 1096 H 104.368 0.0950523 -0.734878 0
M  V30 1097 H 107.015 -0.465182 -1.85764 0
M  V30 1098 H 105.32 1.43006 -3.64769 0
M  V30 1099 H 107.017 1.09905 -3.85645 0
M  V30 1100 H 103.607 -0.271421 -4.2774 0
M  V30 1101 H 107.791 -1.07033 -4.84621 0
M  V30 1102 H 103.047 -2.19021 -5.70824 0
M  V30 1103 H 107.221 -2.98746 -6.29066 0
M  V30 1104 H 104.848 -3.55333 -6.72044 0
M  V30 1105 N 106.423 1.57458 -0.0668435 0
M  V30 1106 C 107.37 2.12439 0.902122 0
M  V30 1107 C 108.34 1.03565 1.2986 0
M  V30 1108 O 109.525 1.312 1.38532 0
M  V30 1109 C 106.665 2.6865 2.16614 0
M  V30 1110 C 105.778 3.91663 1.82274 0
M  V30 1111 C 104.913 4.36134 3.0325 0
M  V30 1112 C 103.952 5.51808 2.64904 0
M  V30 1113 N 103.089 5.9126 3.78624 0
M  V30 1114 H 107.929 2.94934 0.426382 0
M  V30 1115 H 105.466 1.4575 0.198819 0
M  V30 1116 H 107.424 2.99346 2.90599 0
M  V30 1117 H 106.054 1.88928 2.61737 0
M  V30 1118 H 105.106 3.6746 0.983719 0
M  V30 1119 H 106.418 4.75693 1.50059 0
M  V30 1120 H 105.572 4.68465 3.85519 0
M  V30 1121 H 104.311 3.50948 3.38655 0
M  V30 1122 H 103.316 5.19133 1.81055 0
M  V30 1123 H 104.541 6.38722 2.30675 0
M  V30 1124 H 102.487 5.09024 4.138 0
M  V30 1125 H 102.404 6.70018 3.5016 0
M  V30 1126 H 103.672 6.28212 4.61486 0
M  V30 1127 N 107.901 -0.206675 1.56239 0
M  V30 1128 C 109.15 -0.926964 1.79138 0
M  V30 1129 C 109.463 -1.84901 0.638043 0
M  V30 1130 O 110.669 -2.60906 0.751033 0
M  V30 1131 C 109.125 -1.6986 3.17294 0
M  V30 1132 C 108.733 -0.821956 4.40395 0
M  V30 1133 C 110.477 -2.40922 3.4951 0
M  V30 1134 C 108.384 -1.59179 5.69575 0
M  V30 1135 H 107.314 -0.349864 0.667915 0
M  V30 1136 H 109.965 -0.180487 1.8261 0
M  V30 1137 H 108.347 -2.48853 3.08039 0
M  V30 1138 H 109.521 -0.0715019 4.60745 0
M  V30 1139 H 107.836 -0.222741 4.15804 0
M  V30 1140 H 110.433 -2.99047 4.43255 0
M  V30 1141 H 110.776 -3.14542 2.72707 0
M  V30 1142 H 111.309 -1.68905 3.60161 0
M  V30 1143 H 108.048 -0.898589 6.49312 0
M  V30 1144 H 107.568 -2.31648 5.53262 0
M  V30 1145 H 109.247 -2.14862 6.10281 0
M  V30 1146 N 109.379 -1.50304 -0.473955 0
M  V30 1147 C 110.326 -1.68959 -1.57231 0
M  V30 1148 C 111.296 -0.530899 -1.57387 0
M  V30 1149 O 112.481 -0.761133 -1.74961 0
M  V30 1150 C 109.621 -1.7871 -2.95223 0
M  V30 1151 C 108.734 -3.06061 -3.04878 0
M  V30 1152 C 107.869 -3.06626 -4.33767 0
M  V30 1153 C 106.908 -4.28443 -4.37154 0
M  V30 1154 N 106.045 -4.26763 -5.5751 0
M  V30 1155 H 110.885 -2.6273 -1.40631 0
M  V30 1156 H 108.422 -1.30241 -0.683789 0
M  V30 1157 H 110.38 -1.82344 -3.75242 0
M  V30 1158 H 109.01 -0.883806 -3.10465 0
M  V30 1159 H 108.062 -3.11911 -2.17751 0
M  V30 1160 H 109.374 -3.96039 -3.0324 0
M  V30 1161 H 108.528 -3.08973 -5.22131 0
M  V30 1162 H 107.267 -2.14473 -4.3801 0
M  V30 1163 H 106.272 -4.2631 -3.47188 0
M  V30 1164 H 107.497 -5.2182 -4.34605 0
M  V30 1165 H 105.443 -3.37462 -5.62544 0
M  V30 1166 H 105.36 -5.10507 -5.57601 0
M  V30 1167 H 106.628 -4.33253 -6.48006 0
M  V30 1168 N 110.857 0.726932 -1.39834 0
M  V30 1169 C 111.807 1.83232 -1.35683 0
M  V30 1170 C 112.791 1.59155 -0.236295 0
M  V30 1171 O 113.983 1.70522 -0.474488 0
M  V30 1172 C 111.112 3.21246 -1.21062 0
M  V30 1173 C 110.198 3.51125 -2.37849 0
M  V30 1174 N 110.589 3.51889 -3.63329 0
M  V30 1175 C 108.887 3.81527 -2.30982 0
M  V30 1176 C 109.588 3.79791 -4.40606 0
M  V30 1177 N 108.564 3.97971 -3.70297 0
M  V30 1178 H 112.366 1.8214 -2.30656 0
M  V30 1179 H 109.88 0.925545 -1.33444 0
M  V30 1180 H 111.877 4.00387 -1.16171 0
M  V30 1181 H 110.537 3.23572 -0.270458 0
M  V30 1182 H 111.548 3.33008 -3.96643 0
M  V30 1183 H 108.225 3.91411 -1.45272 0
M  V30 1184 H 109.615 3.86783 -5.49408 0
M  V30 1185 N 112.336 1.25143 0.95797 0
M  V30 1186 C 113.266 1.07711 2.07173 0
M  V30 1187 C 114.247 -0.0128462 1.70095 0
M  V30 1188 O 115.432 0.156061 1.93572 0
M  V30 1189 C 112.562 0.691503 3.40346 0
M  V30 1190 C 111.516 1.73132 3.9142 0
M  V30 1191 C 110.842 1.20049 5.21049 0
M  V30 1192 C 112.142 3.1294 4.1817 0
M  V30 1193 H 113.836 2.00873 2.22014 0
M  V30 1194 H 111.382 0.967191 1.06684 0
M  V30 1195 H 113.335 0.556505 4.17709 0
M  V30 1196 H 112.059 -0.275819 3.25433 0
M  V30 1197 H 110.718 1.8547 3.16222 0
M  V30 1198 H 110.366 0.223499 5.02503 0
M  V30 1199 H 110.066 1.89545 5.56189 0
M  V30 1200 H 111.59 1.07782 6.01012 0
M  V30 1201 H 113.004 3.03775 4.86203 0
M  V30 1202 H 111.401 3.79875 4.64559 0
M  V30 1203 H 112.471 3.6025 3.24573 0
M  V30 1204 N 113.814 -1.1601 1.06675 0
M  V30 1205 C 115.062 -1.86264 0.784229 0
M  V30 1206 C 115.383 -1.82328 -0.691488 0
M  V30 1207 O 114.653 -1.25947 -1.50047 0
M  V30 1208 H 113.233 -0.689621 0.28711 0
M  V30 1209 H 115.895 -1.40664 1.34906 0
M  V30 1210 H 114.991 -2.91595 1.11259 0
M  V30 1211 N 115.292 -0.849877 -1.32721 0
M  V30 1212 C 116.239 -0.289033 -2.28983 0
M  V30 1213 C 117.209 0.601324 -1.54833 0
M  V30 1214 O 118.394 0.537253 -1.8308 0
M  V30 1215 C 115.534 0.520623 -3.4115 0
M  V30 1216 C 114.647 -0.394989 -4.3019 0
M  V30 1217 C 113.782 0.426834 -5.29482 0
M  V30 1218 C 112.821 -0.486476 -6.10164 0
M  V30 1219 N 111.958 0.297879 -7.01468 0
M  V30 1220 H 116.798 -1.11519 -2.76347 0
M  V30 1221 H 114.335 -0.56138 -1.35967 0
M  V30 1222 H 116.293 1.00563 -4.04899 0
M  V30 1223 H 114.923 1.31165 -2.9495 0
M  V30 1224 H 113.975 -0.99836 -3.67065 0
M  V30 1225 H 115.287 -1.09612 -4.86607 0
M  V30 1226 H 114.441 0.975205 -5.98811 0
M  V30 1227 H 113.18 1.16136 -4.73671 0
M  V30 1228 H 112.185 -1.04677 -5.39743 0
M  V30 1229 H 113.41 -1.21953 -6.6806 0
M  V30 1230 H 111.356 1.01558 -6.48091 0
M  V30 1231 H 111.273 -0.344318 -7.55216 0
M  V30 1232 H 112.541 0.828131 -7.75089 0
M  V30 1233 N 116.77 1.45427 -0.607355 0
M  V30 1234 C 118.018 2.01841 -0.102253 0
M  V30 1235 C 118.339 1.47832 1.27164 0
M  V30 1236 O 117.609 0.672497 1.83995 0
M  V30 1237 H 116.189 0.746188 -0.0348101 0
M  V30 1238 H 118.851 1.78229 -0.7887 0
M  V30 1239 H 117.947 3.12057 -0.0518585 0
M  V30 1240 N 118.248 0.346503 1.53744 0
M  V30 1241 C 119.198 -0.524953 2.21874 0
M  V30 1242 C 120.182 -1.06376 1.20718 0
M  V30 1243 O 121.374 -0.996972 1.46251 0
M  V30 1244 C 118.503 -1.6739 2.99726 0
M  V30 1245 C 117.589 -1.14888 4.08242 0
M  V30 1246 N 117.98 -0.345329 5.0462 0
M  V30 1247 C 116.278 -1.4255 4.22606 0
M  V30 1248 C 116.979 -0.0600706 5.81669 0
M  V30 1249 N 115.955 -0.65252 5.39669 0
M  V30 1250 H 119.757 0.0960091 2.93743 0
M  V30 1251 H 117.271 0.15352 1.61673 0
M  V30 1252 H 119.268 -2.3102 3.47038 0
M  V30 1253 H 117.928 -2.29811 2.29384 0
M  V30 1254 H 118.939 0.0138439 5.17898 0
M  V30 1255 H 115.616 -2.05389 3.63486 0
M  V30 1256 H 117.006 0.588321 6.69319 0
M  V30 1257 N 119.726 -1.57421 0.075193 0
M  V30 1258 C 120.956 -1.97659 -0.601203 0
M  V30 1259 C 121.364 -0.952427 -1.63479 0
M  V30 1260 O 120.707 0.0688241 -1.83571 0
M  V30 1261 C 120.769 -3.34218 -1.32434 0
M  V30 1262 C 120.433 -4.5484 -0.443826 0
M  V30 1263 C 121.43 -5.19034 0.299969 0
M  V30 1264 C 119.115 -5.00952 -0.367709 0
M  V30 1265 C 121.109 -6.27695 1.10807 0
M  V30 1266 C 118.796 -6.09484 0.444058 0
M  V30 1267 C 119.794 -6.72719 1.18061 0
M  V30 1268 O 119.482 -7.79161 1.97898 0
M  V30 1269 H 119.214 -0.65494 -0.167422 0
M  V30 1270 H 121.768 -2.04886 0.145157 0
M  V30 1271 H 119.998 -3.23615 -2.11685 0
M  V30 1272 H 121.687 -3.59038 -1.89331 0
M  V30 1273 H 122.453 -4.84351 0.250776 0
M  V30 1274 H 118.332 -4.51509 -0.930638 0
M  V30 1275 H 121.876 -6.76982 1.68347 0
M  V30 1276 H 117.773 -6.43601 0.494803 0
M  V30 1277 H 118.541 -7.96055 1.90367 0
M  V30 1278 N 121.204 0.198386 -1.56346 0
M  V30 1279 C 122.429 0.939682 -1.84891 0
M  V30 1280 C 122.854 1.76202 -0.658369 0
M  V30 1281 O 122.212 1.76993 0.392851 0
M  V30 1282 C 122.26 1.81428 -3.11635 0
M  V30 1283 O 121.364 2.91265 -2.91956 0
M  V30 1284 H 120.705 0.264807 -0.608912 0
M  V30 1285 H 123.235 0.204695 -2.03573 0
M  V30 1286 H 123.245 2.21958 -3.42343 0
M  V30 1287 H 121.92 1.21004 -3.97908 0
M  V30 1288 H 120.497 2.54514 -2.72538 0
M  V30 1289 N 122.682 1.50554 0.465978 0
M  V30 1290 C 123.929 1.61798 1.21768 0
M  V30 1291 C 124.257 0.320696 1.91838 0
M  V30 1292 O 123.512 -0.693724 1.82992 0
M  V30 1293 C 123.811 2.75152 2.28093 0
M  V30 1294 C 123.477 4.15454 1.75239 0
M  V30 1295 C 122.139 4.53628 1.60546 0
M  V30 1296 C 124.491 5.03121 1.36083 0
M  V30 1297 C 121.819 5.77204 1.05128 0
M  V30 1298 C 124.171 6.27249 0.821056 0
M  V30 1299 C 122.835 6.64221 0.660795 0
M  V30 1300 H 122.105 0.592063 0.445582 0
M  V30 1301 H 124.752 1.84503 0.512927 0
M  V30 1302 H 123.057 2.46556 3.04496 0
M  V30 1303 H 124.754 2.81055 2.86023 0
M  V30 1304 H 121.344 3.85341 1.87644 0
M  V30 1305 H 125.528 4.74257 1.46267 0
M  V30 1306 H 120.784 6.0452 0.91462 0
M  V30 1307 H 124.958 6.94537 0.509018 0
M  V30 1308 H 122.585 7.59854 0.229226 0
M  V30 1309 N 124.16 -0.719506 1.40217 0
M  V30 1310 C 125.39 -1.50646 1.41384 0
M  V30 1311 C 125.798 -1.89197 0.0107743 0
M  V30 1312 O 125.141 -1.55709 -0.974708 0
M  V30 1313 C 125.203 -2.81405 2.23722 0
M  V30 1314 C 124.867 -2.65199 3.72181 0
M  V30 1315 C 125.864 -2.32717 4.64907 0
M  V30 1316 C 123.549 -2.81586 4.1595 0
M  V30 1317 C 125.543 -2.16827 5.99387 0
M  V30 1318 C 123.23 -2.65313 5.50502 0
M  V30 1319 C 124.228 -2.32981 6.42035 0
M  V30 1320 O 123.916 -2.16827 7.74107 0
M  V30 1321 H 123.648 -0.471606 0.484318 0
M  V30 1322 H 126.202 -0.895456 1.84853 0
M  V30 1323 H 124.432 -3.44823 1.75026 0
M  V30 1324 H 126.121 -3.43102 2.16878 0
M  V30 1325 H 126.887 -2.19694 4.32388 0
M  V30 1326 H 122.766 -3.0574 3.45027 0
M  V30 1327 H 126.31 -1.91513 6.70797 0
M  V30 1328 H 122.207 -2.7792 5.82607 0
M  V30 1329 H 122.975 -2.31778 7.84998 0
M  V30 1330 N 125.638 -1.25649 -0.95132 0
M  V30 1331 C 126.863 -1.13443 -1.73624 0
M  V30 1332 C 127.288 0.307565 -1.85568 0
M  V30 1333 O 126.646 1.22282 -1.33854 0
M  V30 1334 C 126.694 -1.79723 -3.12621 0
M  V30 1335 O 125.798 -1.07912 -3.98031 0
M  V30 1336 H 125.139 -0.395872 -0.533086 0
M  V30 1337 H 127.669 -1.66276 -1.1922 0
M  V30 1338 H 127.679 -1.86141 -3.63064 0
M  V30 1339 H 126.354 -2.84633 -3.03244 0
M  V30 1340 H 124.931 -1.09398 -3.56492 0
M  V30 1341 N 127.117 1.15442 -1.07289 0
M  V30 1342 C 128.05 2.19135 -0.636798 0
M  V30 1343 C 129.028 1.58884 0.34562 0
M  V30 1344 O 130.212 1.86805 0.252195 0
M  V30 1345 C 127.339 3.38638 0.0650014 0
M  V30 1346 C 126.385 4.17412 -0.87576 0
M  V30 1347 S 127.218 4.79882 -2.37642 0
M  V30 1348 C 128.374 6.02753 -1.6864 0
M  V30 1349 H 128.607 2.55787 -1.51526 0
M  V30 1350 H 126.14 1.26394 -0.886793 0
M  V30 1351 H 128.098 4.07873 0.463664 0
M  V30 1352 H 126.759 3.00331 0.919801 0
M  V30 1353 H 125.952 5.02909 -0.33143 0
M  V30 1354 H 125.554 3.53722 -1.21478 0
M  V30 1355 H 127.846 6.70113 -0.997753 0
M  V30 1356 H 128.789 6.61754 -2.51967 0
M  V30 1357 H 129.197 5.52355 -1.16465 0
M  V30 1358 N 128.595 0.856903 1.32268 0
M  V30 1359 C 129.872 0.382583 1.91822 0
M  V30 1360 C 130.252 -1.13407 1.78051 0
M  V30 1361 O 129.6 -1.95673 1.18001 0
M  V30 1362 C 129.81 0.849446 3.38505 0
M  V30 1363 C 131.158 0.867936 4.15634 0
M  V30 1364 O 132.182 0.794232 3.47232 0
M  V30 1365 O 131.041 0.972286 5.37781 0
M  V30 1366 H 128.135 0.112014 0.819379 0
M  V30 1367 H 130.681 0.943952 1.41024 0
M  V30 1368 H 129.453 1.89267 3.42482 0
M  V30 1369 H 129.076 0.265652 3.96712 0
M  V30 1370 N 130.073 -1.45103 0.615059 0
M  V30 1371 C 131.322 -2.01396 0.110718 0
M  V30 1372 C 131.635 -1.48834 -1.26916 0
M  V30 1373 O 132.841 -1.97152 -1.86664 0
M  V30 1374 C 131.297 -3.59599 0.14723 0
M  V30 1375 C 130.905 -4.21158 1.52743 0
M  V30 1376 C 132.649 -4.23428 -0.30148 0
M  V30 1377 C 130.556 -5.71535 1.51992 0
M  V30 1378 H 129.486 -0.753061 0.0376241 0
M  V30 1379 H 132.137 -1.66494 0.77149 0
M  V30 1380 H 130.519 -3.91724 -0.580339 0
M  V30 1381 H 131.693 -4.00594 2.2773 0
M  V30 1382 H 130.008 -3.69552 1.91886 0
M  V30 1383 H 132.605 -5.33703 -0.326392 0
M  V30 1384 H 132.948 -3.94629 -1.32565 0
M  V30 1385 H 133.481 -3.96047 0.373065 0
M  V30 1386 H 130.22 -6.05044 2.52193 0
M  V30 1387 H 129.74 -5.94268 0.81274 0
M  V30 1388 H 131.419 -6.34873 1.24681 0
M  V30 1389 N 131.551 -0.354651 -1.53558 0
M  V30 1390 C 132.967 -0.00315426 -1.596 0
M  V30 1391 C 133.167 1.47741 -1.37021 0
M  V30 1392 O 132.223 2.23759 -1.16996 0
M  V30 1393 C 133.536 -0.44929 -2.97325 0
M  V30 1394 C 135.084 -0.402578 -3.104 0
M  V30 1395 C 135.559 -0.824355 -4.5052 0
M  V30 1396 N 137.05 -0.778979 -4.56603 0
M  V30 1397 C 137.785 -1.07715 -5.63192 0
M  V30 1398 N 137.281 -1.44405 -6.77583 0
M  V30 1399 N 139.074 -1.00066 -5.53121 0
M  V30 1400 H 131.225 -1.31893 -1.66487 0
M  V30 1401 H 133.488 -0.538388 -0.780284 0
M  V30 1402 H 133.194 -1.48202 -3.1895 0
M  V30 1403 H 133.068 0.169772 -3.76818 0
M  V30 1404 H 135.455 0.621004 -2.88492 0
M  V30 1405 H 135.536 -1.05699 -2.32941 0
M  V30 1406 H 135.18 -1.846 -4.73165 0
M  V30 1407 H 135.11 -0.147304 -5.26394 0
M  V30 1408 H 137.601 -0.508528 -3.74463 0
M  V30 1409 H 137.914 -1.65612 -7.54846 0
M  V30 1410 H 136.259 -1.4826 -6.79002 0
M  V30 1411 H 139.45 -0.713293 -4.62633 0
M  V30 1412 H 139.623 -1.23638 -6.36096 0
M  V30 1413 N 133.029 1.57378 -0.0835403 0
M  V30 1414 C 133.939 2.16897 0.894021 0
M  V30 1415 C 134.955 1.13528 1.31861 0
M  V30 1416 O 136.131 1.45848 1.3889 0
M  V30 1417 C 133.196 2.72831 2.13925 0
M  V30 1418 C 132.257 3.91115 1.76997 0
M  V30 1419 C 131.49 4.44371 2.95584 0
M  V30 1420 O 131.713 3.96596 4.09961 0
M  V30 1421 O 130.647 5.35549 2.74719 0
M  V30 1422 H 134.473 3.00814 0.417679 0
M  V30 1423 H 132.058 1.48741 0.140181 0
M  V30 1424 H 133.94 3.0863 2.86924 0
M  V30 1425 H 132.615 1.91967 2.60635 0
M  V30 1426 H 131.522 3.60148 1.01214 0
M  V30 1427 H 132.855 4.73307 1.3506 0
M  V30 1428 N 134.507 -0.190092 1.56449 0
M  V30 1429 C 135.754 -0.909705 1.80916 0
M  V30 1430 C 136.082 -1.83047 0.657583 0
M  V30 1431 O 135.337 -1.92428 -0.356356 0
M  V30 1432 C 135.636 -1.75382 3.1141 0
M  V30 1433 C 135.302 -0.983606 4.40041 0
M  V30 1434 C 133.964 -0.770967 4.74984 0
M  V30 1435 C 136.316 -0.442024 5.19322 0
M  V30 1436 C 133.644 -0.0053448 5.867 0
M  V30 1437 C 135.996 0.310412 6.31838 0
M  V30 1438 C 134.66 0.534023 6.6536 0
M  V30 1439 H 133.93 -0.332885 0.662019 0
M  V30 1440 H 136.577 -0.175762 1.90692 0
M  V30 1441 H 134.882 -2.55659 2.96893 0
M  V30 1442 H 136.579 -2.31331 3.27547 0
M  V30 1443 H 133.169 -1.15936 4.12622 0
M  V30 1444 H 137.353 -0.593693 4.92736 0
M  V30 1445 H 132.609 0.177825 6.11141 0
M  V30 1446 H 136.783 0.737419 6.92485 0
M  V30 1447 H 134.41 1.12918 7.51767 0
M  V30 1448 N 135.985 -1.50799 -0.457987 0
M  V30 1449 C 136.917 -1.66786 -1.57211 0
M  V30 1450 C 137.93 -0.548962 -1.53265 0
M  V30 1451 O 139.119 -0.8226 -1.58416 0
M  V30 1452 C 136.219 -1.64834 -2.96113 0
M  V30 1453 C 135.392 -2.92971 -3.24787 0
M  V30 1454 C 134.451 -2.83485 -4.43309 0
M  V30 1455 O 133.477 -3.5744 -4.42973 0
M  V30 1456 N 134.679 -1.97929 -5.45714 0
M  V30 1457 H 137.444 -2.62889 -1.43909 0
M  V30 1458 H 135.005 -1.48427 -0.646617 0
M  V30 1459 H 136.997 -1.56084 -3.7339 0
M  V30 1460 H 135.567 -0.764118 -3.03117 0
M  V30 1461 H 134.787 -3.15749 -2.36 0
M  V30 1462 H 136.075 -3.77834 -3.40762 0
M  V30 1463 H 135.473 -1.37182 -5.48815 0
M  V30 1464 H 134.03 -1.95073 -6.21924 0
M  V30 1465 N 137.463 0.71206 -1.40597 0
M  V30 1466 C 138.393 1.83889 -1.43899 0
M  V30 1467 C 139.374 1.67442 -0.299504 0
M  V30 1468 O 140.559 1.87421 -0.508624 0
M  V30 1469 C 137.689 3.21877 -1.30431 0
M  V30 1470 C 136.643 3.53002 -2.42019 0
M  V30 1471 C 135.969 4.90172 -2.13626 0
M  V30 1472 C 137.269 3.53643 -3.84362 0
M  V30 1473 H 138.963 1.81383 -2.38203 0
M  V30 1474 H 136.509 0.871237 -1.14654 0
M  V30 1475 H 138.462 4.00404 -1.31357 0
M  V30 1476 H 137.186 3.24968 -0.326049 0
M  V30 1477 H 135.845 2.76818 -2.40349 0
M  V30 1478 H 135.493 4.89869 -1.14182 0
M  V30 1479 H 135.193 5.11962 -2.88389 0
M  V30 1480 H 136.717 5.71028 -2.1624 0
M  V30 1481 H 138.131 4.22203 -3.87837 0
M  V30 1482 H 136.528 3.86961 -4.58673 0
M  V30 1483 H 137.598 2.52954 -4.13693 0
M  V30 1484 N 138.941 1.26152 0.944643 0
M  V30 1485 C 140.352 1.10454 1.50522 0
M  V30 1486 C 140.703 -0.31635 1.93633 0
M  V30 1487 O 139.828 -1.20746 1.79581 0
M  V30 1488 C 140.423 1.99891 2.73549 0
M  V30 1489 C 138.982 1.88348 3.25886 0
M  V30 1490 C 138.129 1.93447 1.9868 0
M  V30 1491 H 141.08 1.39292 0.760489 0
M  V30 1492 H 141.101 1.54477 3.47732 0
M  V30 1493 H 140.613 3.03297 2.42141 0
M  V30 1494 H 138.714 0.878636 3.62092 0
M  V30 1495 H 138.827 2.73696 3.93227 0
M  V30 1496 H 137.191 1.37456 2.14425 0
M  V30 1497 H 137.974 2.98476 1.69607 0
M  V30 1498 N 140.419 -1.14872 1.07899 0
M  V30 1499 C 141.644 -1.90202 0.826926 0
M  V30 1500 C 142.069 -1.77774 -0.614664 0
M  V30 1501 O 141.427 -1.11431 -1.43013 0
M  V30 1502 C 141.475 -3.38352 1.24702 0
M  V30 1503 O 140.579 -4.10497 0.39575 0
M  V30 1504 H 139.92 -0.591968 0.300782 0
M  V30 1505 H 142.45 -1.45437 1.43907 0
M  V30 1506 H 142.46 -3.89156 1.22563 0
M  V30 1507 H 141.135 -3.46715 2.29698 0
M  V30 1508 H 139.712 -3.69796 0.480117 0
M  V30 1509 N 141.898 -0.863906 -1.31812 0
M  V30 1510 C 143.123 -0.48527 -2.01643 0
M  V30 1511 C 143.548 0.913058 -1.64453 0
M  V30 1512 O 142.906 1.6014 -0.849985 0
M  V30 1513 C 142.954 -0.642625 -3.54828 0
M  V30 1514 O 142.058 0.320659 -4.11151 0
M  V30 1515 H 141.399 -0.193793 -0.635091 0
M  V30 1516 H 143.929 -1.16565 -1.68148 0
M  V30 1517 H 143.939 -0.533628 -4.04495 0
M  V30 1518 H 142.614 -1.66227 -3.81237 0
M  V30 1519 H 141.191 0.167126 -3.72525 0
M  V30 1520 N 143.376 1.44774 -0.622745 0
M  V30 1521 C 144.308 2.28856 0.125485 0
M  V30 1522 C 145.321 1.40811 0.817069 0
M  V30 1523 O 146.51 1.65044 0.679918 0
M  V30 1524 C 143.61 3.16963 1.19949 0
M  V30 1525 C 142.783 4.33374 0.592064 0
M  V30 1526 C 141.842 5.02577 1.55893 0
M  V30 1527 O 140.868 5.58873 1.07933 0
M  V30 1528 N 142.07 5.03256 2.89334 0
M  V30 1529 H 144.835 2.93713 -0.596068 0
M  V30 1530 H 142.396 1.55129 -0.463303 0
M  V30 1531 H 144.388 3.60123 1.84644 0
M  V30 1532 H 142.958 2.53913 1.82337 0
M  V30 1533 H 142.178 3.93509 -0.233322 0
M  V30 1534 H 143.466 5.08527 0.166738 0
M  V30 1535 H 142.864 4.58836 3.30887 0
M  V30 1536 H 141.421 5.50232 3.49412 0
M  V30 1537 N 144.854 0.36279 1.53368 0
M  V30 1538 C 146.103 -0.22888 2.00397 0
M  V30 1539 C 146.416 -1.50096 1.25421 0
M  V30 1540 O 147.622 -2.17106 1.63025 0
M  V30 1541 C 146.078 -0.458417 3.56969 0
M  V30 1542 C 145.686 0.798877 4.4082 0
M  V30 1543 C 147.43 -1.00789 4.12361 0
M  V30 1544 C 145.337 0.539078 5.88938 0
M  V30 1545 H 144.267 -0.089305 0.748693 0
M  V30 1546 H 146.918 0.481099 1.77081 0
M  V30 1547 H 145.3 -1.22959 3.76427 0
M  V30 1548 H 146.474 1.57262 4.33134 0
M  V30 1549 H 144.789 1.27137 3.96516 0
M  V30 1550 H 147.386 -1.21754 5.20653 0
M  V30 1551 H 147.729 -1.9692 3.66781 0
M  V30 1552 H 148.262 -0.296961 3.9669 0
M  V30 1553 H 145.001 1.47064 6.3879 0
M  V30 1554 H 144.521 -0.196222 5.99479 0
M  V30 1555 H 146.2 0.163542 6.46793 0
M  V30 1556 N 146.332 -1.57332 0.0918853 0
M  V30 1557 C 147.557 -1.98995 -0.584442 0
M  V30 1558 C 147.982 -0.970528 -1.61128 0
M  V30 1559 O 147.34 0.0613904 -1.81196 0
M  V30 1560 C 147.388 -3.39636 -1.21161 0
M  V30 1561 O 146.492 -3.40447 -2.32744 0
M  V30 1562 H 145.833 -0.647165 -0.148572 0
M  V30 1563 H 148.363 -2.03873 0.172347 0
M  V30 1564 H 148.373 -3.7726 -1.55367 0
M  V30 1565 H 147.048 -4.13356 -0.459313 0
M  V30 1566 H 145.625 -3.14614 -2.0018 0
M  V30 1567 N 147.81 0.181792 -1.56548 0
M  V30 1568 C 148.743 1.25366 -1.90679 0
M  V30 1569 C 149.721 1.43299 -0.768376 0
M  V30 1570 O 150.905 1.58475 -1.02068 0
M  V30 1571 C 148.032 2.61826 -2.1486 0
M  V30 1572 C 147.078 2.60688 -3.37556 0
M  V30 1573 S 147.911 2.10804 -4.92262 0
M  V30 1574 C 149.067 3.49062 -5.19525 0
M  V30 1575 H 149.3 0.962277 -2.81296 0
M  V30 1576 H 146.833 0.385892 -1.495 0
M  V30 1577 H 148.791 3.40371 -2.29473 0
M  V30 1578 H 147.452 2.88169 -1.24969 0
M  V30 1579 H 146.645 3.61058 -3.51643 0
M  V30 1580 H 146.247 1.90232 -3.22006 0
M  V30 1581 H 148.539 4.45003 -5.10861 0
M  V30 1582 H 149.482 3.39859 -6.2121 0
M  V30 1583 H 149.89 3.4459 -4.47122 0
M  V30 1584 N 149.288 1.51039 0.449983 0
M  V30 1585 C 150.534 1.63322 1.20223 0
M  V30 1586 C 150.867 0.34241 1.91158 0
M  V30 1587 O 150.142 -0.657344 1.83055 0
M  V30 1588 C 150.425 2.82801 2.22925 0
M  V30 1589 C 150.278 4.21823 1.56157 0
M  V30 1590 C 151.597 2.97807 3.24035 0
M  V30 1591 H 148.716 0.594407 0.435718 0
M  V30 1592 H 151.358 1.83489 0.493136 0
M  V30 1593 H 149.508 2.65738 2.834 0
M  V30 1594 H 151.18 4.50526 0.991162 0
M  V30 1595 H 149.423 4.25105 0.864172 0
M  V30 1596 H 150.094 5.01391 2.30891 0
M  V30 1597 H 152.57 3.13497 2.73603 0
M  V30 1598 H 151.446 3.82992 3.93202 0
M  V30 1599 H 151.707 2.09328 3.89402 0
M  V30 1600 N 150.766 -0.704594 1.40972 0
M  V30 1601 C 152.177 -1.28418 1.3552 0
M  V30 1602 C 152.528 -1.96171 0.0339434 0
M  V30 1603 O 151.653 -1.98231 -0.867944 0
M  V30 1604 C 152.248 -2.33528 2.45459 0
M  V30 1605 C 150.807 -2.87085 2.43433 0
M  V30 1606 C 149.954 -1.61007 2.2577 0
M  V30 1607 H 152.905 -0.499963 1.50619 0
M  V30 1608 H 152.926 -3.14619 2.13998 0
M  V30 1609 H 152.438 -1.84187 3.41609 0
M  V30 1610 H 150.539 -3.40626 1.51013 0
M  V30 1611 H 150.652 -3.3813 3.39419 0
M  V30 1612 H 149.016 -1.86482 1.73483 0
M  V30 1613 H 149.799 -1.13675 3.23933 0
M  V30 1614 N 152.244 -1.26651 -0.937939 0
M  V30 1615 C 153.192 -1.08308 -2.05845 0
M  V30 1616 C 154.186 -0.0090757 -1.69398 0
M  V30 1617 O 155.392 -0.166007 -1.79233 0
M  V30 1618 H 151.767 -0.333416 -0.674046 0
M  V30 1619 H 153.738 -2.03261 -2.18467 0
M  V30 1620 C 152.487 -0.736229 -3.39816 0
M  V30 1621 H 151.81 -1.55453 -3.6834 0
M  V30 1622 H 153.25 -0.64769 -4.19024 0
M  V30 1623 C 151.709 0.558824 -3.32233 0
M  V30 1624 O 152.239 1.59621 -3.68624 0
M  V30 1625 N 150.445 0.550657 -2.85335 0
M  V30 1626 H 149.992 -0.293943 -2.55917 0
M  V30 1627 H 149.95 1.41726 -2.80644 0
M  V30 1628 N 153.722 1.14298 -1.08507 0
M  V30 1629 C 154.968 1.85633 -0.816581 0
M  V30 1630 C 155.301 1.82784 0.656021 0
M  V30 1631 O 154.576 1.25926 1.48233 0
M  V30 1632 C 154.859 3.34223 -1.34041 0
M  V30 1633 C 154.712 3.45639 -2.87843 0
M  V30 1634 C 156.031 4.29356 -0.9665 0
M  V30 1635 H 153.15 0.67402 -0.298104 0
M  V30 1636 H 155.792 1.34214 -1.34487 0
M  V30 1637 H 153.942 3.78144 -0.89104 0
M  V30 1638 H 155.614 3.10498 -3.41158 0
M  V30 1639 H 153.857 2.86817 -3.25451 0
M  V30 1640 H 154.528 4.50089 -3.19569 0
M  V30 1641 H 157.004 3.93457 -1.35391 0
M  V30 1642 H 155.88 5.3178 -1.3602 0
M  V30 1643 H 156.141 4.41919 0.126362 0
M  V30 1644 N 155.201 0.870884 1.31352 0
M  V30 1645 C 156.449 0.48132 1.96285 0
M  V30 1646 C 156.77 -0.969813 1.69173 0
M  V30 1647 O 156.04 -1.67998 1.00764 0
M  V30 1648 H 154.62 0.175002 0.726212 0
M  V30 1649 H 157.282 1.11087 1.60143 0
M  V30 1650 H 156.378 0.639825 3.05471 0
M  V30 1651 N 156.679 -1.44442 0.630414 0
M  V30 1652 C 157.609 -2.33418 -0.0618083 0
M  V30 1653 C 158.59 -1.48165 -0.835541 0
M  V30 1654 O 159.775 -1.76886 -0.801564 0
M  V30 1655 C 156.905 -3.31222 -1.04449 0
M  V30 1656 C 155.859 -4.26288 -0.382436 0
M  V30 1657 C 155.185 -5.13954 -1.47497 0
M  V30 1658 C 156.485 -5.1744 0.710865 0
M  V30 1659 H 158.179 -2.91548 0.681184 0
M  V30 1660 H 155.725 -1.40191 0.329026 0
M  V30 1661 H 157.678 -3.92351 -1.53748 0
M  V30 1662 H 156.402 -2.71299 -1.81836 0
M  V30 1663 H 155.061 -3.6649 0.0899054 0
M  V30 1664 H 154.709 -4.50385 -2.2397 0
M  V30 1665 H 154.409 -5.7837 -1.03737 0
M  V30 1666 H 155.933 -5.77955 -1.96979 0
M  V30 1667 H 157.347 -5.72509 0.300996 0
M  V30 1668 H 155.744 -5.90455 1.07156 0
M  V30 1669 H 156.814 -4.58496 1.57829 0
M  V30 1670 N 158.157 -0.370918 -1.53173 0
M  V30 1671 C 159.104 0.473035 -2.259 0
M  V30 1672 C 160.074 1.07311 -1.26781 0
M  V30 1673 O 161.259 1.1046 -1.55574 0
M  V30 1674 C 158.399 1.60405 -3.05556 0
M  V30 1675 C 157.512 1.02863 -4.19575 0
M  V30 1676 C 156.647 2.12918 -4.86661 0
M  V30 1677 C 155.686 1.52869 -5.92704 0
M  V30 1678 N 154.823 2.56779 -6.53459 0
M  V30 1679 H 159.663 -0.153649 -2.97604 0
M  V30 1680 H 157.2 -0.0875946 -1.46839 0
M  V30 1681 H 159.158 2.27034 -3.50016 0
M  V30 1682 H 157.788 2.20131 -2.36097 0
M  V30 1683 H 156.84 0.252465 -3.79561 0
M  V30 1684 H 158.152 0.549642 -4.95762 0
M  V30 1685 H 157.306 2.87356 -5.34333 0
M  V30 1686 H 156.045 2.6417 -4.09958 0
M  V30 1687 H 155.05 0.769479 -5.44389 0
M  V30 1688 H 156.275 1.02435 -6.7133 0
M  V30 1689 H 154.221 3.07235 -5.79606 0
M  V30 1690 H 154.138 2.13583 -7.25202 0
M  V30 1691 H 155.406 3.30903 -7.05779 0
M  V30 1692 N 159.635 1.57281 -0.100228 0
M  V30 1693 C 160.882 1.94537 0.562268 0
M  V30 1694 C 161.21 0.982315 1.67871 0
M  V30 1695 O 160.465 0.00280936 1.957 0
M  V30 1696 C 160.764 3.38305 1.15259 0
M  V30 1697 C 160.43 4.50618 0.159409 0
M  V30 1698 C 159.092 4.81066 -0.113741 0
M  V30 1699 C 161.444 5.18615 -0.518461 0
M  V30 1700 C 158.772 5.76835 -1.07137 0
M  V30 1701 C 161.124 6.15412 -1.46459 0
M  V30 1702 C 159.788 6.44262 -1.74592 0
M  V30 1703 H 159.058 0.711863 0.205748 0
M  V30 1704 H 161.705 1.90679 -0.17715 0
M  V30 1705 H 160.01 3.38766 1.96836 0
M  V30 1706 H 161.707 3.64435 1.67297 0
M  V30 1707 H 158.297 4.2689 0.382491 0
M  V30 1708 H 162.481 4.95264 -0.320581 0
M  V30 1709 H 157.737 5.975 -1.29628 0
M  V30 1710 H 161.911 6.67194 -1.99564 0
M  V30 1711 H 159.538 7.1828 -2.48953 0
M  V30 1712 N 161.113 -0.173488 1.56642 0
M  V30 1713 C 162.338 -0.910149 1.86363 0
M  V30 1714 C 162.763 -1.75132 0.686318 0
M  V30 1715 O 162.121 -1.77595 -0.364643 0
M  V30 1716 C 162.169 -1.76447 3.14482 0
M  V30 1717 O 161.273 -2.86584 2.96553 0
M  V30 1718 H 160.614 -0.255086 0.613047 0
M  V30 1719 H 163.144 -0.172283 2.03873 0
M  V30 1720 H 163.154 -2.16483 3.45831 0
M  V30 1721 H 161.829 -1.14658 3.99783 0
M  V30 1722 H 160.406 -2.50146 2.76553 0
M  V30 1723 N 162.591 -1.51276 -0.441967 0
M  V30 1724 C 163.84 -1.6295 -1.18871 0
M  V30 1725 C 164.153 -0.349312 -1.92456 0
M  V30 1726 O 165.359 -0.345355 -2.69295 0
M  V30 1727 C 163.815 -2.87759 -2.16155 0
M  V30 1728 C 163.423 -4.22764 -1.48239 0
M  V30 1729 C 165.167 -3.08788 -2.91291 0
M  V30 1730 C 163.074 -5.38728 -2.4398 0
M  V30 1731 H 162.004 -0.606913 -0.447406 0
M  V30 1732 H 164.655 -1.77739 -0.456205 0
M  V30 1733 H 163.037 -2.66593 -2.92821 0
M  V30 1734 H 164.211 -4.54293 -0.771635 0
M  V30 1735 H 162.526 -4.07575 -0.852741 0
M  V30 1736 H 165.123 -3.92599 -3.63002 0
M  V30 1737 H 165.466 -2.21679 -3.5237 0
M  V30 1738 H 165.999 -3.30272 -2.21733 0
M  V30 1739 H 162.738 -6.28082 -1.87598 0
M  V30 1740 H 162.258 -5.1158 -3.13123 0
M  V30 1741 H 163.937 -5.70489 -3.05207 0
M  V30 1742 N 164.069 0.697108 -1.41344 0
M  V30 1743 C 165.294 1.49096 -1.44171 0
M  V30 1744 C 165.719 1.88038 -0.0481568 0
M  V30 1745 O 165.077 1.54525 0.948243 0
M  V30 1746 C 165.125 2.73088 -2.3549 0
M  V30 1747 O 164.229 3.70514 -1.81088 0
M  V30 1748 H 163.57 0.448801 -0.489361 0
M  V30 1749 H 166.1 0.856992 -1.85787 0
M  V30 1750 H 166.11 3.21413 -2.51312 0
M  V30 1751 H 164.785 2.44081 -3.36745 0
M  V30 1752 H 163.362 3.29441 -1.74708 0
M  V30 1753 N 165.547 1.27147 0.931209 0
M  V30 1754 C 166.495 1.09398 2.05268 0
M  V30 1755 C 167.489 0.0180591 1.6939 0
M  V30 1756 O 168.695 0.17551 1.79142 0
M  V30 1757 H 165.07 0.336986 0.672268 0
M  V30 1758 H 167.041 2.04416 2.17386 0
M  V30 1759 C 165.79 0.75424 3.39421 0
M  V30 1760 H 165.113 1.57404 3.67511 0
M  V30 1761 H 166.553 0.669903 4.18674 0
M  V30 1762 C 165.012 -0.541197 3.32525 0
M  V30 1763 O 165.542 -1.57664 3.69466 0
M  V30 1764 N 163.748 -0.535517 2.85623 0
M  V30 1765 H 163.295 0.307511 2.55758 0
M  V30 1766 H 163.253 -1.40236 2.81392 0
M  V30 1767 N 167.025 -1.13721 1.09112 0
M  V30 1768 C 167.988 -2.17222 0.731241 0
M  V30 1769 C 168.988 -1.59035 -0.237566 0
M  V30 1770 O 170.178 -1.74192 -0.0161704 0
M  V30 1771 C 167.31 -3.40804 0.0808443 0
M  V30 1772 H 168.503 -2.50573 1.64783 0
M  V30 1773 H 166.056 -1.28493 0.889897 0
M  V30 1774 H 166.791 -3.1304 -0.847127 0
M  V30 1775 H 166.576 -3.84306 0.777896 0
M  V30 1776 H 168.066 -4.1731 -0.155657 0
M  V30 1777 N 168.503 -0.877838 -1.30888 0
M  V30 1778 C 169.451 -0.328662 -2.30266 0
M  V30 1779 C 170.445 0.560496 -1.59859 0
M  V30 1780 O 171.651 0.445722 -1.74394 0
M  V30 1781 H 168.026 -0.0876142 -0.746879 0
M  V30 1782 H 169.997 -1.18061 -2.74051 0
M  V30 1783 C 168.746 0.448071 -3.44801 0
M  V30 1784 H 168.069 -0.226859 -3.99156 0
M  V30 1785 H 169.509 0.797541 -4.16432 0
M  V30 1786 C 167.968 1.64239 -2.94155 0
M  V30 1787 O 168.498 2.74175 -2.93583 0
M  V30 1788 N 166.704 1.47716 -2.50256 0
M  V30 1789 H 166.251 0.582821 -2.5092 0
M  V30 1790 H 166.209 2.27765 -2.16727 0
M  V30 1791 N 169.982 1.44106 -0.638065 0
M  V30 1792 C 171.231 2.01194 -0.142744 0
M  V30 1793 C 171.544 1.50835 1.24532 0
M  V30 1794 O 172.75 2.00096 1.83504 0
M  V30 1795 C 171.206 3.59319 -0.20442 0
M  V30 1796 C 170.814 4.18674 -1.59423 0
M  V30 1797 C 172.558 4.23854 0.234079 0
M  V30 1798 C 170.465 5.69045 -1.61065 0
M  V30 1799 H 169.395 0.752367 -0.0495998 0
M  V30 1800 H 172.046 1.65246 -0.797881 0
M  V30 1801 H 170.428 3.92598 0.517946 0
M  V30 1802 H 171.602 3.96921 -2.34074 0
M  V30 1803 H 169.917 3.66453 -1.97741 0
M  V30 1804 H 172.514 5.34155 0.241443 0
M  V30 1805 H 172.857 3.96688 1.2627 0
M  V30 1806 H 173.39 3.95403 -0.436025 0
M  V30 1807 H 170.129 6.00956 -2.61787 0
M  V30 1808 H 169.649 5.929 -0.90718 0
M  V30 1809 H 171.328 6.32809 -1.34766 0
M  V30 1810 N 171.46 0.379036 1.52974 0
M  V30 1811 C 172.407 -0.461048 2.26148 0
M  V30 1812 C 173.377 -1.06637 1.27349 0
M  V30 1813 O 174.562 -1.09633 1.56157 0
M  V30 1814 C 171.702 -1.58782 3.06402 0
M  V30 1815 C 170.815 -1.00636 4.20115 0
M  V30 1816 C 169.95 -2.10334 4.87784 0
M  V30 1817 C 168.989 -1.49724 5.93506 0
M  V30 1818 N 168.126 -2.5331 6.54812 0
M  V30 1819 H 172.966 0.169429 2.97518 0
M  V30 1820 H 170.503 0.0953806 1.4679 0
M  V30 1821 H 172.461 -2.25174 3.51215 0
M  V30 1822 H 171.091 -2.18876 2.37261 0
M  V30 1823 H 170.143 -0.232332 3.7969 0
M  V30 1824 H 171.455 -0.523343 4.96047 0
M  V30 1825 H 170.609 -2.84519 5.35849 0
M  V30 1826 H 169.348 -2.61992 4.11353 0
M  V30 1827 H 168.353 -0.740598 5.44789 0
M  V30 1828 H 169.578 -0.988732 6.71864 0
M  V30 1829 H 167.524 -3.04156 5.81227 0
M  V30 1830 H 167.441 -2.09734 7.26325 0
M  V30 1831 H 168.709 -3.27155 7.07524 0
M  V30 1832 N 172.938 -1.57226 0.108567 0
M  V30 1833 C 174.187 -1.94008 -0.551703 0
M  V30 1834 C 174.5 -0.993442 -1.68494 0
M  V30 1835 O 175.706 -1.25551 -2.40726 0
M  V30 1836 C 174.162 -3.44763 -1.03279 0
M  V30 1837 C 173.77 -4.47943 0.0714193 0
M  V30 1838 C 175.514 -3.90483 -1.66503 0
M  V30 1839 C 173.421 -5.89865 -0.425779 0
M  V30 1840 H 172.351 -0.724206 -0.209863 0
M  V30 1841 H 175.002 -1.82547 0.186741 0
M  V30 1842 H 173.384 -3.51422 -1.82533 0
M  V30 1843 H 174.558 -4.52942 0.847365 0
M  V30 1844 H 172.873 -4.11913 0.609669 0
M  V30 1845 H 175.47 -4.93925 -2.04798 0
M  V30 1846 H 175.813 -3.29877 -2.53942 0
M  V30 1847 H 176.346 -3.86581 -0.938074 0
M  V30 1848 H 173.085 -6.54202 0.412316 0
M  V30 1849 H 172.605 -5.88309 -1.16843 0
M  V30 1850 H 174.284 -6.40844 -0.890397 0
M  V30 1851 N 174.416 0.165178 -1.56732 0
M  V30 1852 C 175.641 0.900253 -1.86843 0
M  V30 1853 C 176.066 1.74766 -0.695596 0
M  V30 1854 O 175.424 1.77786 0.35522 0
M  V30 1855 C 175.472 1.74777 -3.15413 0
M  V30 1856 O 174.576 2.85007 -2.98068 0
M  V30 1857 H 173.917 0.251832 -0.614391 0
M  V30 1858 H 176.447 0.161468 -2.03962 0
M  V30 1859 H 176.457 2.14646 -3.46974 0
M  V30 1860 H 175.132 1.12537 -4.00385 0
M  V30 1861 H 173.709 2.48676 -2.77875 0
M  V30 1862 N 175.894 1.51508 0.433938 0
M  V30 1863 C 177.142 1.6402 1.18075 0
M  V30 1864 C 177.463 0.360328 1.91642 0
M  V30 1865 O 176.733 -0.623945 1.85698 0
M  V30 1866 H 175.313 0.6045 0.43885 0
M  V30 1867 H 177.975 1.88452 0.497178 0
M  V30 1868 H 177.071 2.46949 1.90847 0
M  V30 1869 N 177.372 -0.689602 1.41712 0
M  V30 1870 C 178.319 -1.80345 1.44029 0
M  V30 1871 C 179.289 -1.63478 0.293948 0
M  V30 1872 O 180.474 -1.84244 0.495869 0
M  V30 1873 C 177.614 -3.18272 1.33405 0
M  V30 1874 C 176.727 -3.46529 2.57956 0
M  V30 1875 C 175.862 -4.74103 2.39582 0
M  V30 1876 C 174.901 -4.95347 3.5958 0
M  V30 1877 N 174.038 -6.14151 3.40239 0
M  V30 1878 H 178.878 -1.77698 2.39222 0
M  V30 1879 H 176.415 -0.867688 1.18784 0
M  V30 1880 H 178.373 -3.97956 1.25246 0
M  V30 1881 H 177.003 -3.2008 0.418164 0
M  V30 1882 H 176.055 -2.61207 2.76542 0
M  V30 1883 H 177.367 -3.58126 3.47199 0
M  V30 1884 H 176.521 -5.61853 2.28924 0
M  V30 1885 H 175.26 -4.64763 1.47805 0
M  V30 1886 H 174.265 -4.06044 3.70686 0
M  V30 1887 H 175.49 -5.06542 4.52318 0
M  V30 1888 H 173.436 -6.06013 2.51167 0
M  V30 1889 H 173.353 -6.26543 4.23061 0
M  V30 1890 H 174.621 -7.04619 3.33365 0
M  V30 1891 N 178.85 -1.27639 -0.924453 0
M  V30 1892 C 180.096 -1.15345 -1.67532 0
M  V30 1893 C 180.451 0.297096 -1.90092 0
M  V30 1894 O 179.744 1.21374 -1.48253 0
M  V30 1895 C 179.938 -1.87407 -3.04325 0
M  V30 1896 C 179.767 -3.3932 -2.95114 0
M  V30 1897 C 178.537 -4.08644 -2.97218 0
M  V30 1898 C 180.735 -4.35242 -2.73987 0
M  V30 1899 N 178.717 -5.47102 -2.78482 0
M  V30 1900 C 180.088 -5.6099 -2.63988 0
M  V30 1901 C 182.143 -4.25294 -2.589 0
M  V30 1902 C 180.846 -6.77924 -2.40442 0
M  V30 1903 C 182.872 -5.41952 -2.36731 0
M  V30 1904 C 182.234 -6.66658 -2.27478 0
M  V30 1905 H 178.333 -0.47696 -0.619704 0
M  V30 1906 H 180.917 -1.6115 -1.09265 0
M  V30 1907 H 179.088 -1.44053 -3.60699 0
M  V30 1908 H 180.82 -1.6759 -3.68369 0
M  V30 1909 H 177.575 -3.60136 -3.07569 0
M  V30 1910 H 177.999 -6.19852 -2.72236 0
M  V30 1911 H 182.641 -3.29598 -2.64811 0
M  V30 1912 H 180.359 -7.73699 -2.3327 0
M  V30 1913 H 183.945 -5.36137 -2.25938 0
M  V30 1914 H 182.825 -7.55405 -2.10555 0
M  V30 1915 N 180.328 1.1314 -1.09713 0
M  V30 1916 C 181.275 2.18642 -0.739196 0
M  V30 1917 C 182.245 1.63706 0.280978 0
M  V30 1918 O 183.43 1.90111 0.161946 0
M  V30 1919 C 180.57 3.44685 -0.169102 0
M  V30 1920 C 179.683 4.13711 -1.24367 0
M  V30 1921 C 178.818 5.27379 -0.636019 0
M  V30 1922 C 177.857 5.88259 -1.69169 0
M  V30 1923 N 176.994 6.93352 -1.10485 0
M  V30 1924 H 181.834 2.48607 -1.64312 0
M  V30 1925 H 179.371 1.22066 -0.820875 0
M  V30 1926 H 181.329 4.16815 0.179256 0
M  V30 1927 H 179.959 3.15161 0.698079 0
M  V30 1928 H 179.011 3.39835 -1.70927 0
M  V30 1929 H 180.323 4.55037 -2.04311 0
M  V30 1930 H 179.477 6.06238 -0.236677 0
M  V30 1931 H 178.216 4.8731 0.194928 0
M  V30 1932 H 177.221 5.08092 -2.10055 0
M  V30 1933 H 178.446 6.30399 -2.52536 0
M  V30 1934 H 176.392 6.55335 -0.295234 0
M  V30 1935 H 176.309 7.33236 -1.84121 0
M  V30 1936 H 177.577 7.76057 -0.73181 0
M  V30 1937 N 181.806 0.884767 1.30421 0
M  V30 1938 C 182.769 0.356277 2.26414 0
M  V30 1939 C 183.769 -0.501124 1.52792 0
M  V30 1940 O 184.959 -0.30831 1.7145 0
M  V30 1941 C 182.091 -0.492316 3.37326 0
M  V30 1942 H 183.284 1.20389 2.74675 0
M  V30 1943 H 180.837 0.661607 1.41607 0
M  V30 1944 H 181.572 -1.36052 2.94381 0
M  V30 1945 H 181.357 0.121832 3.91911 0
M  V30 1946 H 182.847 -0.853871 4.08777 0
M  V30 1947 N 183.284 -1.43765 0.645699 0
M  V30 1948 C 184.216 -2.29027 -0.0890605 0
M  V30 1949 C 185.229 -1.42093 -0.794563 0
M  V30 1950 O 186.418 -1.66104 -0.653575 0
M  V30 1951 C 183.518 -3.18831 -1.14891 0
M  V30 1952 C 182.691 -4.34261 -0.523043 0
M  V30 1953 C 181.75 -5.04994 -1.47878 0
M  V30 1954 O 180.776 -5.6052 -0.990277 0
M  V30 1955 N 181.978 -5.07795 -2.81291 0
M  V30 1956 H 184.743 -2.92727 0.64272 0
M  V30 1957 H 182.304 -1.54373 0.487924 0
M  V30 1958 H 184.296 -3.63015 -1.78892 0
M  V30 1959 H 182.866 -2.56782 -1.78275 0
M  V30 1960 H 182.086 -3.93088 0.295896 0
M  V30 1961 H 183.374 -5.08728 -0.0858147 0
M  V30 1962 H 182.772 -4.64042 -3.23546 0
M  V30 1963 H 181.329 -5.55721 -3.40614 0
M  V30 1964 N 184.763 -0.387143 -1.52771 0
M  V30 1965 C 185.71 0.449048 -2.26389 0
M  V30 1966 C 186.68 1.05961 -1.27912 0
M  V30 1967 O 187.865 1.08804 -1.56737 0
M  V30 1968 C 185.005 1.57155 -3.0724 0
M  V30 1969 C 184.118 0.984066 -4.20643 0
M  V30 1970 C 183.253 2.07745 -4.88892 0
M  V30 1971 C 182.292 1.46574 -5.94292 0
M  V30 1972 N 181.429 2.49834 -6.56146 0
M  V30 1973 H 186.269 -0.185205 -2.97424 0
M  V30 1974 H 183.806 -0.103164 -1.46738 0
M  V30 1975 H 185.764 2.23309 -3.52405 0
M  V30 1976 H 184.394 2.17615 -2.38419 0
M  V30 1977 H 183.446 0.212193 -3.79808 0
M  V30 1978 H 184.758 0.497029 -4.96318 0
M  V30 1979 H 183.912 2.81673 -5.3735 0
M  V30 1980 H 182.651 2.59807 -4.12737 0
M  V30 1981 H 181.656 0.711696 -5.45174 0
M  V30 1982 H 182.881 0.953088 -6.72379 0
M  V30 1983 H 180.827 3.0107 -5.82832 0
M  V30 1984 H 180.744 2.05879 -7.27427 0
M  V30 1985 H 182.012 3.23399 -7.09249 0
M  V30 1986 N 186.241 1.57166 -0.116904 0
M  V30 1987 C 187.657 1.5779 0.239693 0
M  V30 1988 C 187.857 1.1295 1.66867 0
M  V30 1989 O 186.913 0.81592 2.38954 0
M  V30 1990 C 188.226 3.00699 0.00828202 0
M  V30 1991 C 189.774 3.12912 0.0743438 0
M  V30 1992 C 190.249 4.57817 -0.129348 0
M  V30 1993 N 191.74 4.63139 -0.075247 0
M  V30 1994 C 192.475 5.73023 -0.207788 0
M  V30 1995 N 191.971 6.91665 -0.396382 0
M  V30 1996 N 193.764 5.61906 -0.14751 0
M  V30 1997 H 185.915 1.84615 -1.05029 0
M  V30 1998 H 188.178 0.85311 -0.41341 0
M  V30 1999 H 187.884 3.37784 -0.979531 0
M  V30 2000 H 187.758 3.69848 0.741077 0
M  V30 2001 H 190.145 2.75686 1.05268 0
M  V30 2002 H 190.226 2.4631 -0.690297 0
M  V30 2003 H 189.87 4.95742 -1.10465 0
M  V30 2004 H 189.8 5.22507 0.655253 0
M  V30 2005 H 192.291 3.7784 0.0670898 0
M  V30 2006 H 192.604 7.71255 -0.488437 0
M  V30 2007 H 190.949 6.93654 -0.432329 0
M  V30 2008 H 194.14 4.681 -0.00115036 0
M  V30 2009 H 194.313 6.47501 -0.254247 0
M  V30 2010 N 187.719 -0.156864 1.56817 0
M  V30 2011 C 188.966 -0.871125 1.82805 0
M  V30 2012 C 189.294 -1.81611 0.696262 0
M  V30 2013 O 188.549 -1.93141 -0.315459 0
M  V30 2014 C 188.848 -1.68737 3.1506 0
M  V30 2015 C 188.514 -0.890045 4.42028 0
M  V30 2016 C 187.176 -0.670042 4.76512 0
M  V30 2017 C 189.528 -0.331769 5.20143 0
M  V30 2018 C 186.856 0.119104 5.86579 0
M  V30 2019 C 189.208 0.444365 6.31037 0
M  V30 2020 C 187.872 0.675035 6.64078 0
M  V30 2021 H 187.142 -0.318767 0.668931 0
M  V30 2022 H 189.789 -0.135274 1.91022 0
M  V30 2023 H 188.094 -2.49304 3.0225 0
M  V30 2024 H 189.791 -2.24331 3.3238 0
M  V30 2025 H 186.381 -1.07157 4.14988 0
M  V30 2026 H 190.565 -0.489043 4.93885 0
M  V30 2027 H 185.821 0.307417 6.10627 0
M  V30 2028 H 189.995 0.884139 6.90765 0
M  V30 2029 H 187.622 1.28839 7.49203 0
M  V30 2030 N 189.197 -1.51736 -0.425897 0
M  V30 2031 C 190.127 -1.76827 -1.52494 0
M  V30 2032 C 191.108 -0.618524 -1.58456 0
M  V30 2033 O 192.293 -0.862416 -1.74 0
M  V30 2034 C 189.423 -1.90374 -2.90474 0
M  V30 2035 C 188.377 -3.0588 -2.99369 0
M  V30 2036 C 187.703 -3.04625 -4.3944 0
M  V30 2037 C 189.003 -4.45644 -2.72394 0
M  V30 2038 H 190.697 -2.68855 -1.31748 0
M  V30 2039 H 188.243 -1.29372 -0.632362 0
M  V30 2040 H 190.196 -2.0651 -3.6733 0
M  V30 2041 H 188.92 -0.95004 -3.12477 0
M  V30 2042 H 187.579 -2.89467 -2.24954 0
M  V30 2043 H 187.227 -2.0701 -4.58428 0
M  V30 2044 H 186.927 -3.82195 -4.46319 0
M  V30 2045 H 188.451 -3.22869 -5.18255 0
M  V30 2046 H 189.865 -4.62348 -3.38979 0
M  V30 2047 H 188.262 -5.25006 -2.9067 0
M  V30 2048 H 189.332 -4.54893 -1.67929 0
M  V30 2049 N 190.675 0.682077 -1.42076 0
M  V30 2050 C 191.622 1.79578 -1.44984 0
M  V30 2051 C 192.592 1.6332 -0.302614 0
M  V30 2052 O 193.777 1.83978 -0.505633 0
M  V30 2053 C 190.917 3.1756 -1.35091 0
M  V30 2054 C 190.03 3.45156 -2.59791 0
M  V30 2055 C 189.165 4.72826 -2.42093 0
M  V30 2056 C 188.204 4.93433 -3.62202 0
M  V30 2057 N 187.341 6.12338 -3.43491 0
M  V30 2058 H 192.181 1.76427 -2.40161 0
M  V30 2059 H 189.718 0.861376 -1.19242 0
M  V30 2060 H 191.676 3.97287 -1.27354 0
M  V30 2061 H 190.306 3.19854 -0.435133 0
M  V30 2062 H 189.358 2.59736 -2.77923 0
M  V30 2063 H 190.67 3.5628 -3.49094 0
M  V30 2064 H 189.824 5.60631 -2.319 0
M  V30 2065 H 188.563 4.63973 -1.50268 0
M  V30 2066 H 187.568 4.04073 -3.72834 0
M  V30 2067 H 188.793 5.04136 -4.54998 0
M  V30 2068 H 186.739 6.04672 -2.54377 0
M  V30 2069 H 186.656 6.2429 -4.26377 0
M  V30 2070 H 187.924 7.02841 -3.37097 0
M  V30 2071 N 192.153 1.28127 0.917671 0
M  V30 2072 C 193.086 1.06039 2.02067 0
M  V30 2073 C 194.064 -0.0223285 1.62585 0
M  V30 2074 O 195.248 0.124823 1.88086 0
M  V30 2075 C 192.375 0.610596 3.33151 0
M  V30 2076 C 191.421 1.68937 3.91615 0
M  V30 2077 S 192.254 3.28437 4.22953 0
M  V30 2078 C 193.41 2.85283 5.57103 0
M  V30 2079 H 193.643 1.99425 2.20493 0
M  V30 2080 H 191.176 1.12071 1.06205 0
M  V30 2081 H 193.134 0.357778 4.08938 0
M  V30 2082 H 191.795 -0.303364 3.12632 0
M  V30 2083 H 190.988 1.32619 4.86239 0
M  V30 2084 H 190.59 1.89478 3.2245 0
M  V30 2085 H 192.882 2.3121 6.36827 0
M  V30 2086 H 193.825 3.7869 5.98331 0
M  V30 2087 H 194.233 2.24118 5.18104 0
M  V30 2088 N 193.631 -1.12557 1.10312 0
M  V30 2089 C 194.856 -1.88405 0.867085 0
M  V30 2090 C 195.281 -1.79038 -0.576817 0
M  V30 2091 O 194.639 -1.14439 -1.40618 0
M  V30 2092 C 194.687 -3.3563 1.31851 0
M  V30 2093 O 193.791 -4.09565 0.482734 0
M  V30 2094 H 193.132 -0.585455 0.313271 0
M  V30 2095 H 195.662 -1.42352 1.4696 0
M  V30 2096 H 195.672 -3.86469 1.3079 0
M  V30 2097 H 194.347 -3.41765 2.37001 0
M  V30 2098 H 192.924 -3.68695 0.558448 0
M  V30 2099 N 195.109 -0.891671 -1.2995 0
M  V30 2100 C 196.357 -0.512486 -1.95494 0
M  V30 2101 C 196.678 0.942776 -1.70695 0
M  V30 2102 O 195.948 1.66374 -1.03424 0
M  V30 2103 H 194.528 -0.186533 -0.723336 0
M  V30 2104 H 197.19 -1.13621 -1.58355 0
M  V30 2105 H 196.286 -0.688342 -3.04415 0
M  V30 2106 N 196.587 1.43421 -0.653314 0
M  V30 2107 C 197.535 2.32546 0.0501531 0
M  V30 2108 C 198.529 1.48617 0.812985 0
M  V30 2109 O 199.735 1.64825 0.723375 0
M  V30 2110 H 196.11 0.751185 0.0350032 0
M  V30 2111 H 198.081 2.89602 -0.719261 0
M  V30 2112 C 196.83 3.32925 1.00279 0
M  V30 2113 H 196.153 3.97532 0.425236 0
M  V30 2114 H 197.593 3.9792 1.46409 0
M  V30 2115 C 196.052 2.63532 2.09886 0
M  V30 2116 O 196.582 2.45092 3.18265 0
M  V30 2117 N 194.788 2.22905 1.86445 0
M  V30 2118 H 194.335 2.38103 0.98309 0
M  V30 2119 H 194.293 1.76805 2.59976 0
M  V30 2120 N 198.065 0.39524 1.52563 0
M  V30 2121 C 199.312 -0.185044 2.01653 0
M  V30 2122 C 199.64 -1.46317 1.28146 0
M  V30 2123 O 198.895 -1.9213 0.372074 0
M  V30 2124 C 199.194 -0.493444 3.53977 0
M  V30 2125 C 198.86 0.69384 4.4553 0
M  V30 2126 C 197.522 1.01954 4.70275 0
M  V30 2127 C 199.874 1.48785 4.99512 0
M  V30 2128 C 197.202 2.14069 5.46252 0
M  V30 2129 C 199.554 2.59965 5.76716 0
M  V30 2130 C 198.218 2.93037 5.99738 0
M  V30 2131 H 197.488 -0.0677123 0.7379 0
M  V30 2132 H 200.135 0.533807 1.8391 0
M  V30 2133 H 198.44 -1.29369 3.69825 0
M  V30 2134 H 200.137 -0.955163 3.89458 0
M  V30 2135 H 196.727 0.429987 4.26438 0
M  V30 2136 H 200.911 1.24946 4.80315 0
M  V30 2137 H 196.167 2.40056 5.62302 0
M  V30 2138 H 200.341 3.21887 6.17545 0
M  V30 2139 H 197.968 3.8003 6.58393 0
M  V30 2140 N 199.544 -1.57102 0.125237 0
M  V30 2141 C 200.821 -1.86953 -0.575142 0
M  V30 2142 C 201.201 -1.02749 -1.84407 0
M  V30 2143 O 200.549 -0.108144 -2.28244 0
M  V30 2144 C 200.759 -3.38198 -0.861583 0
M  V30 2145 C 202.107 -4.06937 -1.21192 0
M  V30 2146 O 203.131 -3.43252 -0.951645 0
M  V30 2147 O 201.99 -5.19364 -1.70068 0
M  V30 2148 H 199.084 -0.774147 -0.290906 0
M  V30 2149 H 201.63 -1.68942 0.160211 0
M  V30 2150 H 200.402 -3.91282 0.0373647 0
M  V30 2151 H 200.025 -3.61661 -1.65188 0
M  V30 2152 N 201.022 0.148545 -1.56898 0
M  V30 2153 C 201.952 1.18524 -2.01182 0
M  V30 2154 C 202.933 1.4489 -0.891123 0
M  V30 2155 O 204.118 1.55836 -1.15882 0
M  V30 2156 C 201.248 2.51879 -2.39112 0
M  V30 2157 C 200.202 2.40038 -3.54353 0
M  V30 2158 C 199.528 3.78089 -3.78091 0
M  V30 2159 C 200.828 1.88577 -4.87069 0
M  V30 2160 H 202.522 0.817029 -2.88036 0
M  V30 2161 H 200.068 0.391575 -1.38574 0
M  V30 2162 H 202.021 3.24627 -2.68692 0
M  V30 2163 H 200.745 2.90532 -1.49193 0
M  V30 2164 H 199.404 1.69742 -3.24936 0
M  V30 2165 H 199.052 4.14175 -2.85426 0
M  V30 2166 H 198.752 3.71028 -4.55645 0
M  V30 2167 H 200.276 4.52387 -4.10095 0
M  V30 2168 H 201.69 2.51117 -5.15377 0
M  V30 2169 H 200.087 1.9241 -5.68417 0
M  V30 2170 H 201.157 0.84136 -4.77545 0
M  V30 2171 N 202.5 1.5196 0.417844 0
M  V30 2172 C 203.725 1.69717 1.1921 0
M  V30 2173 C 204.15 0.402148 1.83751 0
M  V30 2174 O 203.508 -0.639593 1.69643 0
M  V30 2175 C 203.556 2.82794 2.2374 0
M  V30 2176 O 202.66 2.47756 3.29683 0
M  V30 2177 H 202.001 0.565263 0.348387 0
M  V30 2178 H 204.531 1.98621 0.490985 0
M  V30 2179 H 204.541 3.07452 2.68212 0
M  V30 2180 H 203.216 3.76756 1.76146 0
M  V30 2181 H 201.793 2.33739 2.90552 0
M  V30 2182 N 203.978 -0.674533 1.42435 0
M  V30 2183 C 205.227 -1.43034 1.42212 0
M  V30 2184 C 205.54 -1.95555 0.0420788 0
M  V30 2185 O 206.746 -2.71374 -0.0827558 0
M  V30 2186 C 205.202 -2.58748 2.50155 0
M  V30 2187 C 204.81 -2.12925 3.94166 0
M  V30 2188 C 206.554 -3.36257 2.59098 0
M  V30 2189 C 204.461 -3.25723 4.93618 0
M  V30 2190 H 203.391 -0.537345 0.528939 0
M  V30 2191 H 206.042 -0.73024 1.68344 0
M  V30 2192 H 204.424 -3.31128 2.17188 0
M  V30 2193 H 205.598 -1.47697 4.36488 0
M  V30 2194 H 203.913 -1.48354 3.89076 0
M  V30 2195 H 206.51 -4.20264 3.30578 0
M  V30 2196 H 206.853 -3.82866 1.63461 0
M  V30 2197 H 207.386 -2.70947 2.9126 0
M  V30 2198 H 204.125 -2.84105 5.90732 0
M  V30 2199 H 203.645 -3.89732 4.55926 0
M  V30 2200 H 205.324 -3.91186 5.15347 0
M  V30 2201 N 205.456 -1.28612 -0.910864 0
M  V30 2202 C 206.366 -1.14643 -2.0468 0
M  V30 2203 C 207.382 -0.0723121 -1.7385 0
M  V30 2204 O 208.558 -0.282178 -1.99413 0
M  V30 2205 C 205.623 -0.812561 -3.37044 0
M  V30 2206 C 204.684 -1.96935 -3.81465 0
M  V30 2207 C 203.917 -1.65131 -5.07511 0
M  V30 2208 O 204.14 -0.567013 -5.67575 0
M  V30 2209 O 203.074 -2.49585 -5.47714 0
M  V30 2210 H 206.9 -2.1001 -2.19384 0
M  V30 2211 H 204.485 -1.07958 -1.03274 0
M  V30 2212 H 206.367 -0.640441 -4.16505 0
M  V30 2213 H 205.042 0.111426 -3.23508 0
M  V30 2214 H 203.949 -2.19664 -3.02818 0
M  V30 2215 H 205.282 -2.87414 -3.99567 0
M  V30 2216 N 206.934 1.1197 -1.10907 0
M  V30 2217 C 208.182 1.83225 -0.852819 0
M  V30 2218 C 208.503 1.84769 0.623341 0
M  V30 2219 O 207.773 1.3143 1.45269 0
M  V30 2220 H 206.353 0.67849 -0.312507 0
M  V30 2221 H 209.015 1.3556 -1.40033 0
M  V30 2222 H 208.111 2.87265 -1.22005 0
M  V30 2223 N 208.412 0.89855 1.29475 0
M  V30 2224 C 209.345 0.319981 2.25945 0
M  V30 2225 C 210.323 -0.567189 1.52387 0
M  V30 2226 O 211.507 -0.514254 1.8135 0
M  V30 2227 C 208.634 -0.544013 3.34303 0
M  V30 2228 C 207.68 0.275682 4.25608 0
M  V30 2229 S 208.513 1.67272 5.08704 0
M  V30 2230 C 209.669 0.815621 6.20563 0
M  V30 2231 H 209.902 1.13767 2.74671 0
M  V30 2232 H 207.435 0.69882 1.3768 0
M  V30 2233 H 209.393 -1.03673 3.97193 0
M  V30 2234 H 208.054 -1.33593 2.84274 0
M  V30 2235 H 207.247 -0.384263 5.02533 0
M  V30 2236 H 206.849 0.701496 3.67362 0
M  V30 2237 H 209.141 0.0385042 6.77489 0
M  V30 2238 H 210.084 1.55691 6.90772 0
M  V30 2239 H 210.492 0.370516 5.63283 0
M  V30 2240 N 209.89 -1.43072 0.660911 0
M  V30 2241 C 211.115 -2.06584 0.183805 0
M  V30 2242 C 211.54 -1.49257 -1.14472 0
M  V30 2243 O 210.898 -0.605528 -1.70889 0
M  V30 2244 C 210.946 -3.60418 0.114434 0
M  V30 2245 O 210.05 -4.01981 -0.921137 0
M  V30 2246 H 209.391 -0.656669 0.0983994 0
M  V30 2247 H 211.921 -1.83447 0.906006 0
M  V30 2248 H 211.931 -4.07946 -0.0663394 0
M  V30 2249 H 210.606 -4.01519 1.08422 0
M  V30 2250 H 209.183 -3.66029 -0.71253 0
M  V30 2251 N 211.368 -0.403325 -1.52352 0
M  V30 2252 C 212.617 0.175668 -2.00934 0
M  V30 2253 C 212.93 1.46718 -1.29356 0
M  V30 2254 O 214.136 2.12708 -1.68724 0
M  V30 2255 C 212.592 0.363612 -3.58058 0
M  V30 2256 C 212.2 -0.915472 -4.38547 0
M  V30 2257 C 213.944 0.89821 -4.14888 0
M  V30 2258 C 211.851 -0.695035 -5.87302 0
M  V30 2259 H 210.781 0.0694234 -0.750797 0
M  V30 2260 H 213.432 -0.527879 -1.75743 0
M  V30 2261 H 211.814 1.12935 -3.79555 0
M  V30 2262 H 212.988 -1.68691 -4.28812 0
M  V30 2263 H 211.303 -1.37606 -3.93006 0
M  V30 2264 H 213.9 1.07907 -5.23699 0
M  V30 2265 H 214.243 1.87126 -3.71873 0
M  V30 2266 H 214.776 0.191681 -3.97338 0
M  V30 2267 H 211.515 -1.63948 -6.34666 0
M  V30 2268 H 211.035 0.0372116 -5.99788 0
M  V30 2269 H 212.714 -0.33497 -6.46132 0
M  V30 2270 N 212.846 1.57033 -0.133567 0
M  V30 2271 C 214.071 2.00475 0.531477 0
M  V30 2272 C 214.496 1.01291 1.58499 0
M  V30 2273 O 213.854 -0.0133279 1.81295 0
M  V30 2274 C 213.902 3.42729 1.12113 0
M  V30 2275 O 213.006 3.46498 2.23636 0
M  V30 2276 H 212.347 0.650876 0.131362 0
M  V30 2277 H 214.877 2.03344 -0.22634 0
M  V30 2278 H 214.887 3.81246 1.4531 0
M  V30 2279 H 213.562 4.14428 0.349557 0
M  V30 2280 H 212.139 3.19811 1.91769 0
M  V30 2281 N 214.325 -0.140222 1.56975 0
M  V30 2282 C 215.288 -1.15689 1.97861 0
M  V30 2283 C 216.288 -1.3549 0.865974 0
M  V30 2284 O 217.478 -1.32367 1.13246 0
M  V30 2285 C 214.61 -2.51582 2.30042 0
M  V30 2286 H 215.803 -0.805971 2.88867 0
M  V30 2287 H 213.356 -0.383801 1.51515 0
M  V30 2288 H 214.091 -2.91632 1.41849 0
M  V30 2289 H 213.876 -2.38569 3.11171 0
M  V30 2290 H 215.366 -3.24792 2.62488 0
M  V30 2291 N 215.803 -1.52179 -0.40978 0
M  V30 2292 C 217.08 -1.56769 -1.16974 0
M  V30 2293 C 217.46 -0.348322 -2.08206 0
M  V30 2294 O 216.808 0.664862 -2.18613 0
M  V30 2295 C 217.018 -2.89603 -1.9476 0
M  V30 2296 C 218.366 -3.42579 -2.50849 0
M  V30 2297 O 219.39 -2.91338 -2.04941 0
M  V30 2298 O 218.249 -4.32054 -3.34652 0
M  V30 2299 H 215.343 -0.631439 -0.534054 0
M  V30 2300 H 217.889 -1.64507 -0.416613 0
M  V30 2301 H 216.661 -3.698 -1.27921 0
M  V30 2302 H 216.284 -2.85155 -2.77079 0
M  V30 2303 N 217.281 0.66697 -1.42791 0
M  V30 2304 C 218.211 1.79218 -1.49677 0
M  V30 2305 C 219.192 1.66405 -0.352623 0
M  V30 2306 O 220.377 1.85708 -0.567993 0
M  V30 2307 C 217.507 3.17565 -1.40605 0
M  V30 2308 C 216.461 3.45124 -2.53127 0
M  V30 2309 C 215.787 4.83127 -2.29112 0
M  V30 2310 C 217.087 3.41236 -3.95418 0
M  V30 2311 H 218.781 1.73713 -2.43853 0
M  V30 2312 H 216.327 0.83432 -1.17367 0
M  V30 2313 H 218.28 3.96022 -1.44029 0
M  V30 2314 H 217.004 3.23767 -0.429271 0
M  V30 2315 H 215.663 2.69031 -2.49034 0
M  V30 2316 H 215.311 4.85988 -1.29709 0
M  V30 2317 H 215.011 5.02528 -3.04531 0
M  V30 2318 H 216.535 5.63859 -2.34297 0
M  V30 2319 H 217.949 4.09651 -4.01073 0
M  V30 2320 H 216.346 3.72173 -4.70752 0
M  V30 2321 H 217.416 2.39665 -4.21532 0
M  V30 2322 N 218.759 1.29093 0.90403 0
M  V30 2323 C 219.706 1.13853 2.00764 0
M  V30 2324 C 220.676 0.0330084 1.66067 0
M  V30 2325 O 221.861 0.199733 1.89752 0
M  V30 2326 C 219.001 0.816537 3.35301 0
M  V30 2327 C 218.114 2.00206 3.82807 0
M  V30 2328 C 217.249 1.61983 5.059 0
M  V30 2329 C 216.288 2.77143 5.45764 0
M  V30 2330 N 215.425 2.39346 6.60044 0
M  V30 2331 H 220.265 2.08276 2.13132 0
M  V30 2332 H 217.802 1.03648 1.04381 0
M  V30 2333 H 219.76 0.610557 4.12708 0
M  V30 2334 H 218.39 -0.090779 3.22672 0
M  V30 2335 H 217.442 2.31988 3.01473 0
M  V30 2336 H 218.754 2.86512 4.08304 0
M  V30 2337 H 217.908 1.37649 5.90879 0
M  V30 2338 H 216.647 0.728202 4.82233 0
M  V30 2339 H 215.652 3.02165 4.59322 0
M  V30 2340 H 216.877 3.66964 5.71414 0
M  V30 2341 H 214.823 1.52665 6.37989 0
M  V30 2342 H 214.74 3.19185 6.85315 0
M  V30 2343 H 216.008 2.1832 7.48303 0
M  V30 2344 N 220.237 -1.11381 1.11499 0
M  V30 2345 C 221.167 -2.19509 0.796125 0
M  V30 2346 C 222.148 -1.68458 -0.235796 0
M  V30 2347 O 223.333 -1.93947 -0.0991344 0
M  V30 2348 C 220.463 -3.46475 0.239205 0
M  V30 2349 C 219.417 -4.10744 1.20307 0
M  V30 2350 C 218.743 -5.32293 0.50683 0
M  V30 2351 C 220.043 -4.55597 2.55399 0
M  V30 2352 H 221.737 -2.46439 1.70024 0
M  V30 2353 H 219.283 -1.18446 0.818935 0
M  V30 2354 H 221.236 -4.214 0.00392006 0
M  V30 2355 H 219.96 -3.19006 -0.700206 0
M  V30 2356 H 218.619 -3.37813 1.42399 0
M  V30 2357 H 218.267 -5.01095 -0.437408 0
M  V30 2358 H 217.967 -5.76243 1.1497 0
M  V30 2359 H 219.491 -6.09956 0.280351 0
M  V30 2360 H 220.905 -5.21841 2.37391 0
M  V30 2361 H 219.302 -5.10363 3.15673 0
M  V30 2362 H 220.372 -3.69013 3.14575 0
M  V30 2363 N 221.715 -0.905404 -1.28997 0
M  V30 2364 C 222.963 -0.533192 -1.9494 0
M  V30 2365 C 223.284 0.924618 -1.71685 0
M  V30 2366 O 222.554 1.65268 -1.05183 0
M  V30 2367 H 221.134 -0.194194 -0.721317 0
M  V30 2368 H 223.796 -1.15294 -1.57141 0
M  V30 2369 H 222.892 -0.72059 -3.03667 0
M  V30 2370 N 223.193 1.4272 -0.668489 0
M  V30 2371 C 224.418 2.06484 -0.194758 0
M  V30 2372 C 224.843 1.49862 1.13679 0
M  V30 2373 O 224.201 0.614582 1.70565 0
M  V30 2374 C 224.249 3.60353 -0.133546 0
M  V30 2375 O 223.353 4.02464 0.899806 0
M  V30 2376 H 222.694 0.656137 -0.10188 0
M  V30 2377 H 225.224 1.82964 -0.915722 0
M  V30 2378 H 225.234 4.07976 0.0447041 0
M  V30 2379 H 223.909 4.00938 -1.1055 0
M  V30 2380 H 222.486 3.66402 0.693109 0
M  V30 2381 N 224.671 0.411399 1.52136 0
M  V30 2382 C 225.619 -0.427633 2.28635 0
M  V30 2383 C 226.613 -1.04383 1.33419 0
M  V30 2384 O 227.819 -0.981772 1.50868 0
M  V30 2385 H 224.194 -0.156689 0.735495 0
M  V30 2386 H 226.165 0.238761 2.97443 0
M  V30 2387 C 224.914 -1.53082 3.12188 0
M  V30 2388 H 224.237 -1.06601 3.85326 0
M  V30 2389 H 225.677 -2.09167 3.68816 0
M  V30 2390 C 224.136 -2.49946 2.25895 0
M  V30 2391 O 224.666 -3.53884 1.90076 0
M  V30 2392 N 222.872 -2.2021 1.8962 0
M  V30 2393 H 222.419 -1.35719 2.18948 0
M  V30 2394 H 222.377 -2.85266 1.32176 0
M  V30 2395 N 226.149 -1.5696 0.141893 0
M  V30 2396 C 227.56 -1.82797 -0.379776 0
M  V30 2397 C 227.911 -1.06033 -1.6508 0
M  V30 2398 O 227.036 -0.304011 -2.14254 0
M  V30 2399 C 227.631 -3.31578 -0.695802 0
M  V30 2400 C 226.19 -3.58014 -1.16201 0
M  V30 2401 C 225.337 -2.76699 -0.182455 0
M  V30 2402 H 228.288 -1.54406 0.366675 0
M  V30 2403 H 228.309 -3.47454 -1.55099 0
M  V30 2404 H 227.821 -3.87421 0.229449 0
M  V30 2405 H 225.922 -3.07553 -2.10338 0
M  V30 2406 H 226.035 -4.66501 -1.09151 0
M  V30 2407 H 224.399 -2.45618 -0.674072 0
M  V30 2408 H 225.182 -3.35311 0.736297 0
M  V30 2409 N 227.627 0.131896 -1.57047 0
M  V30 2410 C 228.855 0.856461 -1.88341 0
M  V30 2411 C 229.27 1.74042 -0.731757 0
M  V30 2412 O 228.627 1.80051 0.297945 0
M  V30 2413 C 228.678 1.70064 -3.18999 0
M  V30 2414 O 228.399 0.852278 -4.2973 0
M  V30 2415 C 229.9 2.53148 -3.63911 0
M  V30 2416 H 227.12 0.246885 -0.62393 0
M  V30 2417 H 229.664 0.120152 -2.04147 0
M  V30 2418 H 227.819 2.38984 -3.04902 0
M  V30 2419 H 228.233 1.43329 -5.04537 0
M  V30 2420 H 229.707 3.07931 -4.58129 0
M  V30 2421 H 230.184 3.29901 -2.89935 0
M  V30 2422 H 230.79 1.89492 -3.80753 0
M  V30 2423 N 229.106 1.52395 0.401703 0
M  V30 2424 C 230.331 1.70972 1.17403 0
M  V30 2425 C 230.756 0.421615 1.83314 0
M  V30 2426 O 230.114 -0.621564 1.70312 0
M  V30 2427 C 230.162 2.85151 2.20728 0
M  V30 2428 O 229.266 2.51238 3.27037 0
M  V30 2429 H 228.607 0.568927 0.342372 0
M  V30 2430 H 231.137 1.99131 0.469891 0
M  V30 2431 H 231.147 3.10279 2.64936 0
M  V30 2432 H 229.822 3.78603 1.7214 0
M  V30 2433 H 228.399 2.36808 2.88057 0
M  V30 2434 N 230.584 -0.659388 1.43143 0
M  V30 2435 C 231.832 -1.41654 1.44147 0
M  V30 2436 C 232.153 -1.94893 0.0645739 0
M  V30 2437 O 231.423 -1.74044 -0.899198 0
M  V30 2438 H 230.003 -0.525708 0.530697 0
M  V30 2439 H 232.665 -0.778097 1.78694 0
M  V30 2440 H 231.761 -2.26195 2.1504 0
M  V30 2441 N 232.062 -1.29571 -0.897171 0
M  V30 2442 C 233.009 -1.14916 -2.00158 0
M  V30 2443 C 233.979 -0.0418149 -1.66047 0
M  V30 2444 O 235.164 -0.209793 -1.89643 0
M  V30 2445 C 232.304 -0.834307 -3.34863 0
M  V30 2446 C 231.417 -2.02234 -3.8174 0
M  V30 2447 C 230.552 -1.64664 -5.05034 0
M  V30 2448 C 229.591 -2.80033 -5.44286 0
M  V30 2449 N 228.728 -2.42843 -6.58765 0
M  V30 2450 H 233.568 -2.09403 -2.12025 0
M  V30 2451 H 231.105 -1.042 -1.0383 0
M  V30 2452 H 233.063 -0.632436 -4.12379 0
M  V30 2453 H 231.693 0.0736656 -3.22716 0
M  V30 2454 H 230.745 -2.33583 -3.00238 0
M  V30 2455 H 232.057 -2.88673 -4.06779 0
M  V30 2456 H 231.211 -1.4078 -5.9014 0
M  V30 2457 H 229.95 -0.753766 -4.8184 0
M  V30 2458 H 228.955 -3.04596 -4.57713 0
M  V30 2459 H 230.18 -3.69989 -5.6946 0
M  V30 2460 H 228.126 -1.56046 -6.3717 0
M  V30 2461 H 228.043 -3.22815 -6.83613 0
M  V30 2462 H 229.311 -2.22285 -7.47134 0
M  V30 2463 N 233.54 1.10788 -1.12088 0
M  V30 2464 C 234.951 1.64181 -0.88891 0
M  V30 2465 C 235.302 1.87508 0.577498 0
M  V30 2466 O 234.427 1.61434 1.44112 0
M  V30 2467 C 235.022 2.98257 -1.60712 0
M  V30 2468 C 233.581 3.4853 -1.42139 0
M  V30 2469 C 232.728 2.23208 -1.6454 0
M  V30 2470 H 235.679 0.943368 -1.27618 0
M  V30 2471 H 235.7 3.65552 -1.05604 0
M  V30 2472 H 235.212 2.81246 -2.67436 0
M  V30 2473 H 233.313 3.70692 -0.376552 0
M  V30 2474 H 233.426 4.26882 -2.17505 0
M  V30 2475 H 231.79 2.31169 -1.06925 0
M  V30 2476 H 232.573 2.08733 -2.72554 0
M  V30 2477 N 235.018 0.912232 1.28515 0
M  V30 2478 C 236.246 0.560416 1.99166 0
M  V30 2479 C 236.661 -0.857927 1.68182 0
M  V30 2480 O 236.018 -1.56805 0.933733 0
M  V30 2481 C 236.069 0.758142 3.53461 0
M  V30 2482 O 235.79 2.12067 3.83352 0
M  V30 2483 C 237.291 0.412954 4.41372 0
M  V30 2484 H 234.511 0.213805 0.636026 0
M  V30 2485 H 237.055 1.22502 1.63749 0
M  V30 2486 H 235.21 0.140556 3.87145 0
M  V30 2487 H 235.624 2.15923 4.77993 0
M  V30 2488 H 237.098 0.60208 5.48707 0
M  V30 2489 H 237.575 -0.65073 4.34353 0
M  V30 2490 H 238.181 1.00802 4.13182 0
M  V30 2491 N 236.496 -1.42363 0.676048 0
M  V30 2492 C 237.745 -2.00745 0.196037 0
M  V30 2493 C 238.058 -1.54083 -1.20489 0
M  V30 2494 O 239.264 -2.04891 -1.78134 0
M  V30 2495 C 237.72 -3.58651 0.299616 0
M  V30 2496 C 237.328 -4.143 1.70468 0
M  V30 2497 C 239.072 -4.24326 -0.121619 0
M  V30 2498 C 236.979 -5.64574 1.76096 0
M  V30 2499 H 235.909 -0.750787 0.0695301 0
M  V30 2500 H 238.56 -1.63072 0.841412 0
M  V30 2501 H 236.942 -3.93833 -0.413673 0
M  V30 2502 H 238.116 -3.90575 2.44515 0
M  V30 2503 H 236.431 -3.61081 2.07387 0
M  V30 2504 H 239.028 -5.34607 -0.0997362 0
M  V30 2505 H 239.371 -3.99897 -1.15708 0
M  V30 2506 H 239.904 -3.94108 0.540706 0
M  V30 2507 H 236.643 -5.93804 2.77628 0
M  V30 2508 H 236.163 -5.90286 1.06406 0
M  V30 2509 H 237.842 -6.29013 1.51496 0
M  V30 2510 N 237.974 -0.419461 -1.51915 0
M  V30 2511 C 239.202 0.152136 -2.0634 0
M  V30 2512 C 239.617 1.37988 -1.28859 0
M  V30 2513 O 238.974 1.79243 -0.343232 0
M  V30 2514 C 239.025 0.492266 -3.58133 0
M  V30 2515 O 238.746 -0.686736 -4.32684 0
M  V30 2516 C 240.247 1.11648 -4.2901 0
M  V30 2517 H 237.467 0.0158325 -0.670813 0
M  V30 2518 H 240.011 -0.593394 -1.95702 0
M  V30 2519 H 238.166 1.18769 -3.68745 0
M  V30 2520 H 238.58 -0.400341 -5.2297 0
M  V30 2521 H 240.054 1.3046 -5.36362 0
M  V30 2522 H 240.531 2.09251 -3.86148 0
M  V30 2523 H 241.137 0.460958 -4.22795 0
M  V30 2524 N 239.452 1.56882 -0.150215 0
M  V30 2525 C 240.692 1.98119 0.502804 0
M  V30 2526 C 241.056 1.03327 1.61826 0
M  V30 2527 O 242.257 1.33621 2.33236 0
M  V30 2528 C 240.528 3.43329 0.992988 0
M  V30 2529 S 242.087 4.0659 1.65015 0
M  V30 2530 H 238.905 0.692189 0.162467 0
M  V30 2531 H 241.507 1.93988 -0.242689 0
M  V30 2532 H 240.211 4.10046 0.170436 0
M  V30 2533 H 239.742 3.5118 1.77303 0
M  V30 2534 H 241.757 3.99906 2.93752 0
M  V30 2535 N 240.93 -0.123565 1.57115 0
M  V30 2536 C 242.155 -0.850398 1.89164 0
M  V30 2537 C 242.58 -1.7286 0.741688 0
M  V30 2538 O 241.938 -1.78665 -0.307958 0
M  V30 2539 C 241.986 -1.66353 3.19936 0
M  V30 2540 O 241.09 -2.77004 3.0552 0
M  V30 2541 H 240.431 -0.235454 0.620852 0
M  V30 2542 H 242.961 -0.107335 2.04318 0
M  V30 2543 H 242.971 -2.05372 3.52543 0
M  V30 2544 H 241.646 -1.01881 4.03228 0
M  V30 2545 H 240.223 -2.41221 2.84371 0
M  V30 2546 N 242.408 -1.52605 -0.393616 0
M  V30 2547 C 243.633 -1.71592 -1.16495 0
M  V30 2548 C 244.058 -0.43133 -1.83088 0
M  V30 2549 O 243.416 0.612523 -1.7064 0
M  V30 2550 C 243.464 -2.86318 -2.19213 0
M  V30 2551 O 242.568 -2.52969 -3.257 0
M  V30 2552 H 241.909 -0.570734 -0.33935 0
M  V30 2553 H 244.439 -1.99377 -0.459324 0
M  V30 2554 H 244.449 -3.1168 -2.63286 0
M  V30 2555 H 243.124 -3.79511 -1.7013 0
M  V30 2556 H 241.701 -2.38332 -2.86797 0
M  V30 2557 N 243.887 0.651787 -1.4349 0
M  V30 2558 C 245.127 1.42345 -1.46688 0
M  V30 2559 C 245.491 1.91793 -0.0891023 0
M  V30 2560 O 246.692 2.688 0.00423594 0
M  V30 2561 C 244.963 2.57221 -2.48137 0
M  V30 2562 S 246.522 3.45725 -2.70221 0
M  V30 2563 H 243.34 0.485878 -0.51908 0
M  V30 2564 H 245.942 0.756578 -1.80267 0
M  V30 2565 H 244.646 2.1917 -3.46976 0
M  V30 2566 H 244.177 3.28757 -2.16061 0
M  V30 2567 H 246.192 4.53996 -2.00255 0
M  V30 2568 N 245.365 1.30045 0.890287 0
M  V30 2569 C 246.59 1.21598 1.68014 0
M  V30 2570 C 247.015 -0.218678 1.86825 0
M  V30 2571 O 246.373 -1.15756 1.39536 0
M  V30 2572 C 246.421 1.94434 3.03691 0
M  V30 2573 O 245.525 1.2678 3.92429 0
M  V30 2574 H 244.866 0.420856 0.513592 0
M  V30 2575 H 247.396 1.71775 1.11151 0
M  V30 2576 H 247.406 2.03251 3.5377 0
M  V30 2577 H 246.081 2.98777 2.89318 0
M  V30 2578 H 244.658 1.26282 3.50866 0
M  V30 2579 N 246.843 -1.10192 1.12674 0
M  V30 2580 C 248.068 -1.86523 0.906853 0
M  V30 2581 C 248.493 -1.80221 -0.538711 0
M  V30 2582 O 247.851 -1.17396 -1.38158 0
M  V30 2583 C 247.899 -3.32758 1.3894 0
M  V30 2584 O 247.003 -4.08449 0.5695 0
M  V30 2585 H 246.344 -0.578678 0.325619 0
M  V30 2586 H 248.874 -1.39203 1.49946 0
M  V30 2587 H 248.884 -3.83608 1.38958 0
M  V30 2588 H 247.559 -3.36661 2.44197 0
M  V30 2589 H 246.136 -3.67427 0.636528 0
M  V30 2590 N 248.321 -0.919034 -1.28029 0
M  V30 2591 C 249.271 -0.382574 -2.24767 0
M  V30 2592 C 250.255 0.508286 -1.52661 0
M  V30 2593 O 251.447 0.347145 -1.73562 0
M  V30 2594 C 248.576 0.371432 -3.41285 0
M  V30 2595 C 247.662 -0.535449 -4.20706 0
M  V30 2596 N 248.053 -1.65141 -4.78082 0
M  V30 2597 C 246.351 -0.336824 -4.44726 0
M  V30 2598 C 247.052 -2.21475 -5.37888 0
M  V30 2599 N 246.028 -1.50537 -5.22341 0
M  V30 2600 H 249.83 -1.23477 -2.66703 0
M  V30 2601 H 247.344 -0.772299 -1.42861 0
M  V30 2602 H 249.341 0.772638 -4.09678 0
M  V30 2603 H 248.001 1.22066 -3.00882 0
M  V30 2604 H 249.012 -2.03392 -4.7629 0
M  V30 2605 H 245.689 0.47246 -4.14818 0
M  V30 2606 H 247.079 -3.15379 -5.93284 0
M  V30 2607 N 249.799 1.42003 -0.683588 0
M  V30 2608 C 251.048 2.00638 -0.206681 0
M  V30 2609 C 251.361 1.5472 1.19671 0
M  V30 2610 O 252.567 2.05833 1.77045 0
M  V30 2611 C 251.023 3.58487 -0.318632 0
M  V30 2612 C 250.631 4.1339 -1.72663 0
M  V30 2613 C 252.375 4.24384 0.0991141 0
M  V30 2614 C 250.282 5.63633 -1.79087 0
M  V30 2615 H 249.212 0.750408 -0.0735107 0
M  V30 2616 H 251.863 1.62624 -0.850048 0
M  V30 2617 H 250.245 3.94047 0.392781 0
M  V30 2618 H 251.419 3.89273 -2.46583 0
M  V30 2619 H 249.734 3.59976 -2.09299 0
M  V30 2620 H 252.331 5.34652 0.0713833 0
M  V30 2621 H 252.674 4.00505 1.13586 0
M  V30 2622 H 253.207 3.93816 -0.561599 0
M  V30 2623 H 249.946 5.92323 -2.80774 0
M  V30 2624 H 249.466 5.89714 -1.09535 0
M  V30 2625 H 251.145 6.28201 -1.5483 0
M  V30 2626 N 251.277 0.427512 1.51691 0
M  V30 2627 C 252.225 -0.403359 2.29076 0
M  V30 2628 C 253.219 -1.02962 1.34518 0
M  V30 2629 O 254.425 -0.965715 1.51901 0
M  V30 2630 H 250.8 -0.148879 0.737115 0
M  V30 2631 H 252.771 0.270295 2.97173 0
M  V30 2632 C 251.52 -1.49763 3.13794 0
M  V30 2633 H 250.843 -1.02508 3.86435 0
M  V30 2634 H 252.283 -2.05244 3.71014 0
M  V30 2635 C 250.742 -2.47536 2.28533 0
M  V30 2636 O 251.272 -3.51848 1.93819 0
M  V30 2637 N 249.478 -2.18187 1.91945 0
M  V30 2638 H 249.025 -1.33389 2.20375 0
M  V30 2639 H 248.983 -2.83848 1.35195 0
M  V30 2640 N 252.755 -1.56801 0.158532 0
M  V30 2641 C 253.98 -2.01295 -0.499516 0
M  V30 2642 C 254.405 -1.03799 -1.56867 0
M  V30 2643 O 253.763 -0.0155162 -1.81293 0
M  V30 2644 C 253.811 -3.44469 -1.06647 0
M  V30 2645 O 252.915 -3.50012 -2.18095 0
M  V30 2646 H 252.256 -0.652884 -0.12099 0
M  V30 2647 H 254.786 -2.02958 0.258661 0
M  V30 2648 H 254.796 -3.8351 -1.39227 0
M  V30 2649 H 253.471 -4.14932 -0.283581 0
M  V30 2650 H 252.048 -3.22822 -1.86656 0
M  V30 2651 N 254.233 0.115231 -1.57178 0
M  V30 2652 C 255.479 0.82357 -1.85325 0
M  V30 2653 C 255.812 1.79349 -0.744814 0
M  V30 2654 O 255.087 1.92899 0.249024 0
M  V30 2655 C 255.37 1.57014 -3.24066 0
M  V30 2656 C 255.223 0.619565 -4.45513 0
M  V30 2657 C 256.542 2.52545 -3.60429 0
M  V30 2658 H 253.661 0.297948 -0.674089 0
M  V30 2659 H 256.303 0.0877138 -1.89797 0
M  V30 2660 H 254.453 2.19742 -3.20383 0
M  V30 2661 H 256.125 0.000837639 -4.613 0
M  V30 2662 H 254.368 -0.0686174 -4.33746 0
M  V30 2663 H 255.039 1.17866 -5.3927 0
M  V30 2664 H 257.515 1.9992 -3.64926 0
M  V30 2665 H 256.391 3.01811 -4.58477 0
M  V30 2666 H 256.652 3.35383 -2.88047 0
M  V30 2667 N 255.711 1.52812 0.385517 0
M  V30 2668 C 256.661 1.74219 1.47078 0
M  V30 2669 C 257.645 0.59632 1.49442 0
M  V30 2670 O 258.837 0.85428 1.5502 0
M  V30 2671 C 255.966 1.9176 2.84751 0
M  V30 2672 C 255.052 3.12289 2.86943 0
M  V30 2673 N 255.443 4.34575 2.58802 0
M  V30 2674 C 253.741 3.12605 3.1811 0
M  V30 2675 C 254.442 5.162 2.68166 0
M  V30 2676 N 253.418 4.51964 3.02043 0
M  V30 2677 H 257.22 2.6639 1.24152 0
M  V30 2678 H 254.734 1.51166 0.593504 0
M  V30 2679 H 256.731 2.05218 3.62893 0
M  V30 2680 H 255.391 1.00805 3.08656 0
M  V30 2681 H 256.402 4.62649 2.32759 0
M  V30 2682 H 253.079 2.31472 3.47458 0
M  V30 2683 H 254.469 6.23689 2.49923 0
M  V30 2684 N 257.189 -0.644168 1.43834 0
M  V30 2685 C 258.435 -1.40603 1.46146 0
M  V30 2686 C 258.768 -1.93997 0.0887717 0
M  V30 2687 O 258.043 -1.72854 -0.891724 0
M  V30 2688 C 258.326 -2.58086 2.51124 0
M  V30 2689 C 258.179 -2.10126 3.97702 0
M  V30 2690 C 259.498 -3.60291 2.52742 0
M  V30 2691 H 256.617 -0.509905 0.532134 0
M  V30 2692 H 259.259 -0.729502 1.75437 0
M  V30 2693 H 257.409 -3.15801 2.26278 0
M  V30 2694 H 259.081 -1.57342 4.33637 0
M  V30 2695 H 257.324 -1.41419 4.10101 0
M  V30 2696 H 257.995 -2.94649 4.66783 0
M  V30 2697 H 260.471 -3.12352 2.7491 0
M  V30 2698 H 259.347 -4.40032 3.28121 0
M  V30 2699 H 259.608 -4.1349 1.56455 0
M  V30 2700 N 258.668 -1.30515 -0.883378 0
M  V30 2701 C 259.618 -1.13641 -1.9766 0
M  V30 2702 C 260.602 -0.0511314 -1.60819 0
M  V30 2703 O 261.794 -0.274623 -1.74857 0
M  V30 2704 C 258.923 -0.831976 -3.33066 0
M  V30 2705 C 258.009 -1.95759 -3.76217 0
M  V30 2706 N 258.4 -3.20313 -3.9145 0
M  V30 2707 C 256.698 -1.85431 -4.05625 0
M  V30 2708 C 257.399 -3.93856 -4.2808 0
M  V30 2709 N 256.375 -3.21919 -4.38029 0
M  V30 2710 H 260.177 -2.08106 -2.07531 0
M  V30 2711 H 257.691 -1.21877 -1.0733 0
M  V30 2712 H 259.688 -0.692102 -4.11115 0
M  V30 2713 H 258.348 0.104588 -3.24532 0
M  V30 2714 H 259.359 -3.55583 -3.76538 0
M  V30 2715 H 256.036 -0.991531 -4.05555 0
M  V30 2716 H 257.426 -5.01125 -4.47575 0
M  V30 2717 N 260.146 1.09593 -1.13257 0
M  V30 2718 C 261.395 1.81105 -0.887917 0
M  V30 2719 C 261.708 1.86563 0.587672 0
M  V30 2720 O 262.914 2.54367 0.949204 0
M  V30 2721 C 261.37 3.25338 -1.53895 0
M  V30 2722 C 260.978 3.28151 -3.04994 0
M  V30 2723 C 262.722 4.01617 -1.37492 0
M  V30 2724 C 260.629 4.66897 -3.6299 0
M  V30 2725 H 259.559 0.678661 -0.328534 0
M  V30 2726 H 262.21 1.23183 -1.36008 0
M  V30 2727 H 260.592 3.8331 -0.994446 0
M  V30 2728 H 261.766 2.79953 -3.66009 0
M  V30 2729 H 260.081 2.65361 -3.20893 0
M  V30 2730 H 262.678 5.04119 -1.78235 0
M  V30 2731 H 263.021 4.15072 -0.31957 0
M  V30 2732 H 263.554 3.50082 -1.88912 0
M  V30 2733 H 260.293 4.58643 -4.68323 0
M  V30 2734 H 259.813 5.15426 -3.06752 0
M  V30 2735 H 261.492 5.3587 -3.62563 0
M  V30 2736 N 261.624 0.925811 1.2754 0
M  V30 2737 C 262.849 0.580924 1.99098 0
M  V30 2738 C 263.274 -0.833555 1.68622 0
M  V30 2739 O 262.632 -1.55903 0.925422 0
M  V30 2740 C 262.68 0.811186 3.51358 0
M  V30 2741 O 261.784 -0.124129 4.12213 0
M  V30 2742 H 261.125 0.223873 0.625122 0
M  V30 2743 H 263.655 1.24455 1.62395 0
M  V30 2744 H 263.665 0.72601 4.01489 0
M  V30 2745 H 262.34 1.84227 3.72872 0
M  V30 2746 H 260.917 0.0108006 3.72898 0
M  V30 2747 N 263.102 -1.41638 0.69111 0
M  V30 2748 C 264.049 -2.30789 0.0229705 0
M  V30 2749 C 265.019 -1.46863 -0.775911 0
M  V30 2750 O 266.204 -1.75661 -0.74485 0
M  V30 2751 C 263.344 -3.32868 -0.910666 0
M  V30 2752 C 262.457 -4.31875 -0.103874 0
M  V30 2753 C 261.592 -5.21024 -1.03475 0
M  V30 2754 C 260.631 -6.11702 -0.220598 0
M  V30 2755 N 259.768 -6.93349 -1.10504 0
M  V30 2756 H 264.608 -2.87366 0.788978 0
M  V30 2757 H 262.145 -1.41535 0.400794 0
M  V30 2758 H 264.103 -3.90596 -1.46597 0
M  V30 2759 H 262.733 -2.77851 -1.64312 0
M  V30 2760 H 261.785 -3.76131 0.568285 0
M  V30 2761 H 263.097 -4.96003 0.527504 0
M  V30 2762 H 262.251 -5.83565 -1.65943 0
M  V30 2763 H 260.99 -4.57112 -1.69999 0
M  V30 2764 H 259.995 -5.48215 0.417187 0
M  V30 2765 H 261.22 -6.77668 0.440784 0
M  V30 2766 H 259.166 -6.3205 -1.75638 0
M  V30 2767 H 259.083 -7.54146 -0.529125 0
M  V30 2768 H 260.351 -7.60362 -1.71667 0
M  V30 2769 N 264.58 -0.43555 -1.51462 0
M  V30 2770 C 265.805 0.132627 -2.06976 0
M  V30 2771 C 266.23 1.35848 -1.30104 0
M  V30 2772 O 265.588 1.78112 -0.338493 0
M  V30 2773 C 265.636 0.43523 -3.57964 0
M  V30 2774 O 264.74 1.52198 -3.83288 0
M  V30 2775 H 264.081 0.00265 -0.663995 0
M  V30 2776 H 266.611 -0.616369 -1.95095 0
M  V30 2777 H 266.621 0.686206 -4.02188 0
M  V30 2778 H 265.296 -0.460739 -4.1334 0
M  V30 2779 H 263.873 1.2611 -3.50928 0
M  V30 2780 N 266.058 1.56714 -0.166846 0
M  V30 2781 C 267.005 2.17746 0.765193 0
M  V30 2782 C 267.975 1.11614 1.23011 0
M  V30 2783 O 269.16 1.39745 1.29908 0
M  V30 2784 C 266.3 2.81882 1.9909 0
M  V30 2785 C 265.413 4.02462 1.56997 0
M  V30 2786 C 264.548 4.54537 2.749 0
M  V30 2787 C 263.587 5.67538 2.29275 0
M  V30 2788 N 262.724 6.14142 3.40255 0
M  V30 2789 H 267.564 2.97048 0.237952 0
M  V30 2790 H 265.101 1.4672 0.105725 0
M  V30 2791 H 267.059 3.17221 2.70974 0
M  V30 2792 H 265.689 2.05191 2.49192 0
M  V30 2793 H 264.741 3.72973 0.748037 0
M  V30 2794 H 266.053 4.84273 1.19503 0
M  V30 2795 H 265.207 4.92035 3.54946 0
M  V30 2796 H 263.946 3.71774 3.1565 0
M  V30 2797 H 262.951 5.29597 1.47674 0
M  V30 2798 H 264.176 6.52099 1.89588 0
M  V30 2799 H 262.122 5.3431 3.8059 0
M  V30 2800 H 262.039 6.9093 3.06841 0
M  V30 2801 H 263.307 6.56289 4.206 0
M  V30 2802 N 267.536 -0.106894 1.57237 0
M  V30 2803 C 268.782 -0.81373 1.85759 0
M  V30 2804 C 269.115 -1.78952 0.754315 0
M  V30 2805 O 268.39 -1.93029 -0.23879 0
M  V30 2806 C 268.673 -1.55293 3.24894 0
M  V30 2807 C 268.526 -0.595929 4.45835 0
M  V30 2808 C 269.845 -2.5063 3.61763 0
M  V30 2809 H 266.964 -0.294369 0.67566 0
M  V30 2810 H 269.606 -0.0776472 1.89841 0
M  V30 2811 H 267.756 -2.1804 3.21544 0
M  V30 2812 H 269.428 0.0236262 4.61294 0
M  V30 2813 H 267.671 0.0916191 4.33703 0
M  V30 2814 H 268.342 -1.15004 5.39887 0
M  V30 2815 H 270.818 -1.97982 3.65981 0
M  V30 2816 H 269.694 -2.99376 4.60071 0
M  V30 2817 H 269.955 -3.3385 2.89821 0
M  V30 2818 N 269.014 -1.53014 -0.377408 0
M  V30 2819 C 270.262 -1.6829 -1.11906 0
M  V30 2820 C 270.583 -0.431206 -1.90173 0
M  V30 2821 O 269.853 0.554595 -1.87886 0
M  V30 2822 H 268.433 -0.620371 -0.416112 0
M  V30 2823 H 271.095 -1.90167 -0.426893 0
M  V30 2824 H 270.191 -2.53862 -1.8155 0
M  V30 2825 N 270.492 0.636531 -1.44174 0
M  V30 2826 C 271.738 1.39649 -1.47884 0
M  V30 2827 C 272.093 1.92098 -0.107747 0
M  V30 2828 O 271.386 1.70391 0.876208 0
M  V30 2829 C 271.58 2.58309 -2.47005 0
M  V30 2830 C 271.409 2.17476 -3.93617 0
M  V30 2831 C 270.179 2.0501 -4.61843 0
M  V30 2832 C 272.377 1.76722 -4.82984 0
M  V30 2833 N 270.359 1.57683 -5.93304 0
M  V30 2834 C 271.73 1.40601 -6.03847 0
M  V30 2835 C 273.785 1.64054 -4.70096 0
M  V30 2836 C 272.488 0.930787 -7.13252 0
M  V30 2837 C 274.514 1.17937 -5.79521 0
M  V30 2838 C 273.876 0.827625 -6.99521 0
M  V30 2839 H 269.975 0.506027 -0.596205 0
M  V30 2840 H 272.559 0.730791 -1.80465 0
M  V30 2841 H 270.73 3.22514 -2.16423 0
M  V30 2842 H 272.462 3.25083 -2.41045 0
M  V30 2843 H 269.217 2.25294 -4.16581 0
M  V30 2844 H 269.641 1.36334 -6.63131 0
M  V30 2845 H 274.283 1.89882 -3.77762 0
M  V30 2846 H 272.001 0.660012 -8.054 0
M  V30 2847 H 275.587 1.08601 -5.71574 0
M  V30 2848 H 274.467 0.476231 -7.82753 0
M  V30 2849 N 271.97 1.30982 0.876444 0
M  V30 2850 C 272.9 1.20668 1.99903 0
M  V30 2851 C 273.881 0.095354 1.69833 0
M  V30 2852 O 275.066 0.27885 1.92188 0
M  V30 2853 C 272.196 0.90655 3.3526 0
M  V30 2854 C 271.15 1.97675 3.79617 0
M  V30 2855 C 270.476 1.52943 5.1236 0
M  V30 2856 C 271.776 3.389 3.97422 0
M  V30 2857 H 273.47 2.14586 2.0879 0
M  V30 2858 H 271.016 1.03308 1.00317 0
M  V30 2859 H 272.969 0.821025 4.13324 0
M  V30 2860 H 271.693 -0.0682969 3.26529 0
M  V30 2861 H 270.352 2.05205 3.03787 0
M  V30 2862 H 270 0.54262 5.00065 0
M  V30 2863 H 269.7 2.24532 5.43009 0
M  V30 2864 H 271.224 1.45786 5.92941 0
M  V30 2865 H 272.638 3.34081 4.659 0
M  V30 2866 H 271.035 4.0865 4.3946 0
M  V30 2867 H 272.105 3.80163 3.01006 0
M  V30 2868 N 273.449 -1.08991 1.13837 0
M  V30 2869 C 274.698 -1.80631 0.897509 0
M  V30 2870 C 275.011 -1.86872 -0.57777 0
M  V30 2871 O 276.217 -2.54866 -0.935701 0
M  V30 2872 C 274.673 -3.24517 1.55618 0
M  V30 2873 C 274.281 -3.26529 3.0673 0
M  V30 2874 C 276.025 -4.00882 1.3962 0
M  V30 2875 C 273.932 -4.64965 3.65461 0
M  V30 2876 H 272.862 -0.67691 0.332129 0
M  V30 2877 H 275.513 -1.2246 1.3666 0
M  V30 2878 H 273.895 -3.82778 1.01476 0
M  V30 2879 H 275.069 -2.78008 3.67489 0
M  V30 2880 H 273.384 -2.63656 3.22296 0
M  V30 2881 H 275.981 -5.03167 1.80906 0
M  V30 2882 H 276.324 -4.14896 0.341578 0
M  V30 2883 H 276.857 -3.49075 1.90766 0
M  V30 2884 H 273.596 -4.56153 4.70749 0
M  V30 2885 H 273.116 -5.13792 3.09481 0
M  V30 2886 H 274.795 -5.3394 3.654 0
M  V30 2887 N 274.927 -0.932562 -1.27047 0
M  V30 2888 C 275.859 -0.392734 -2.2581 0
M  V30 2889 C 276.872 0.479241 -1.55586 0
M  V30 2890 O 278.061 0.291078 -1.76111 0
M  V30 2891 C 275.161 0.455456 -3.35826 0
M  V30 2892 C 274.334 -0.398355 -4.35582 0
M  V30 2893 C 273.393 0.387985 -5.24768 0
M  V30 2894 O 272.419 -0.206003 -5.68827 0
M  V30 2895 N 273.621 1.68664 -5.55457 0
M  V30 2896 H 276.386 -1.24173 -2.72766 0
M  V30 2897 H 273.947 -0.800511 -1.40725 0
M  V30 2898 H 275.939 0.988692 -3.92437 0
M  V30 2899 H 274.509 1.20522 -2.88432 0
M  V30 2900 H 273.729 -1.11286 -3.78165 0
M  V30 2901 H 275.017 -0.981889 -4.99236 0
M  V30 2902 H 274.415 2.19147 -5.21528 0
M  V30 2903 H 272.972 2.1663 -6.14748 0
M  V30 2904 N 276.405 1.4127 -0.698611 0
M  V30 2905 C 277.335 2.33447 -0.049629 0
M  V30 2906 C 278.316 1.51982 0.763898 0
M  V30 2907 O 279.501 1.80509 0.716257 0
M  V30 2908 C 276.631 3.35828 0.885267 0
M  V30 2909 C 275.585 4.27627 0.178613 0
M  V30 2910 C 274.911 5.20406 1.22807 0
M  V30 2911 C 276.211 5.13459 -0.956933 0
M  V30 2912 H 277.905 2.87966 -0.81951 0
M  V30 2913 H 275.451 1.38461 -0.395538 0
M  V30 2914 H 277.404 3.9924 1.34854 0
M  V30 2915 H 276.128 2.79666 1.68685 0
M  V30 2916 H 274.787 3.65643 -0.26466 0
M  V30 2917 H 274.435 4.60558 2.02226 0
M  V30 2918 H 274.135 5.82661 0.760239 0
M  V30 2919 H 275.659 5.86695 1.69179 0
M  V30 2920 H 277.073 5.70421 -0.573805 0
M  V30 2921 H 275.47 5.8467 -1.35205 0
M  V30 2922 H 276.54 4.50443 -1.79524 0
M  V30 2923 N 277.883 0.443576 1.51229 0
M  V30 2924 C 279.13 -0.120796 2.02139 0
M  V30 2925 C 279.458 -1.42166 1.32736 0
M  V30 2926 O 278.713 -1.90849 0.43301 0
M  V30 2927 C 279.012 -0.380579 3.55368 0
M  V30 2928 C 278.678 0.83523 4.43097 0
M  V30 2929 C 277.34 1.16864 4.66794 0
M  V30 2930 C 279.692 1.64601 4.94526 0
M  V30 2931 C 277.02 2.31339 5.39165 0
M  V30 2932 C 279.372 2.78181 5.68153 0
M  V30 2933 C 278.036 3.11969 5.90112 0
M  V30 2934 H 277.306 -0.0442023 0.73968 0
M  V30 2935 H 279.953 0.592046 1.82118 0
M  V30 2936 H 278.258 -1.17538 3.73754 0
M  V30 2937 H 279.955 -0.830777 3.923 0
M  V30 2938 H 276.545 0.565437 4.24854 0
M  V30 2939 H 280.729 1.40163 4.76097 0
M  V30 2940 H 275.985 2.57823 5.5438 0
M  V30 2941 H 280.159 3.41371 6.06992 0
M  V30 2942 H 277.786 4.00784 6.45969 0
M  V30 2943 N 279.361 -1.56624 0.175154 0
M  V30 2944 C 280.311 -2.14747 -0.766004 0
M  V30 2945 C 281.295 -1.08275 -1.19018 0
M  V30 2946 O 282.487 -1.34388 -1.15191 0
M  V30 2947 C 279.616 -2.79478 -1.99366 0
M  V30 2948 C 278.702 -3.93114 -1.5913 0
M  V30 2949 N 279.093 -4.97752 -0.89872 0
M  V30 2950 C 277.391 -4.04345 -1.88204 0
M  V30 2951 C 278.092 -5.77473 -0.700012 0
M  V30 2952 N 277.068 -5.29207 -1.24263 0
M  V30 2953 H 280.87 -2.93015 -0.22793 0
M  V30 2954 H 278.384 -1.6238 -0.0253843 0
M  V30 2955 H 280.381 -3.19498 -2.67818 0
M  V30 2956 H 279.041 -2.02692 -2.53665 0
M  V30 2957 H 280.052 -5.14903 -0.556347 0
M  V30 2958 H 276.729 -3.38667 -2.44153 0
M  V30 2959 H 278.119 -6.71728 -0.152047 0
M  V30 2960 N 280.839 0.0985539 -1.57292 0
M  V30 2961 C 281.786 1.11981 -2.01814 0
M  V30 2962 C 282.756 1.39999 -0.89384 0
M  V30 2963 O 283.941 1.5152 -1.15958 0
M  V30 2964 C 281.081 2.43577 -2.44467 0
M  V30 2965 C 280.194 2.2232 -3.70402 0
M  V30 2966 C 279.329 3.4729 -4.01949 0
M  V30 2967 C 278.368 3.2128 -5.21005 0
M  V30 2968 N 277.505 4.38507 -5.48321 0
M  V30 2969 H 282.345 0.733149 -2.88841 0
M  V30 2970 H 279.882 0.350482 -1.42864 0
M  V30 2971 H 281.84 3.20373 -2.6724 0
M  V30 2972 H 280.47 2.80097 -1.60455 0
M  V30 2973 H 279.522 1.36343 -3.55126 0
M  V30 2974 H 280.834 1.99089 -4.57345 0
M  V30 2975 H 279.988 4.32495 -4.25479 0
M  V30 2976 H 278.727 3.73572 -3.13521 0
M  V30 2977 H 277.732 2.34468 -4.97298 0
M  V30 2978 H 278.957 2.96348 -6.11028 0
M  V30 2979 H 276.903 4.64871 -4.62851 0
M  V30 2980 H 276.82 4.18455 -6.29628 0
M  V30 2981 H 278.088 5.24787 -5.76385 0
M  V30 2982 N 282.317 1.53212 0.369288 0
M  V30 2983 C 283.264 1.79388 1.45219 0
M  V30 2984 C 284.234 0.638059 1.53356 0
M  V30 2985 O 285.419 0.879852 1.69302 0
M  V30 2986 C 282.559 1.98623 2.82211 0
M  V30 2987 C 281.672 3.26337 2.8307 0
M  V30 2988 C 280.807 3.35779 4.11614 0
M  V30 2989 C 279.846 4.5754 4.06601 0
M  V30 2990 N 278.983 4.64155 5.26787 0
M  V30 2991 H 283.823 2.71794 1.22198 0
M  V30 2992 H 281.36 1.34642 0.592444 0
M  V30 2993 H 283.318 2.07761 3.61789 0
M  V30 2994 H 281.948 1.09558 3.03639 0
M  V30 2995 H 281 3.26171 1.95747 0
M  V30 2996 H 282.312 4.15988 2.75237 0
M  V30 2997 H 281.466 3.44208 4.99606 0
M  V30 2998 H 280.205 2.44137 4.22195 0
M  V30 2999 H 279.21 4.49215 3.16996 0
M  V30 3000 H 280.435 5.50519 3.97625 0
M  V30 3001 H 278.381 3.75413 5.3796 0
M  V30 3002 H 278.298 5.47706 5.21109 0
M  V30 3003 H 279.566 4.76863 6.16621 0
M  V30 3004 N 283.795 -0.628877 1.44509 0
M  V30 3005 C 285.044 -1.38437 1.4669 0
M  V30 3006 C 285.357 -1.95322 0.104272 0
M  V30 3007 O 286.563 -2.715 0.00362163 0
M  V30 3008 C 285.019 -2.50659 2.5826 0
M  V30 3009 C 284.627 -2.00277 4.0074 0
M  V30 3010 C 286.371 -3.27844 2.69664 0
M  V30 3011 C 284.278 -3.09854 5.0373 0
M  V30 3012 H 283.208 -0.520245 0.545766 0
M  V30 3013 H 285.859 -0.676313 1.70582 0
M  V30 3014 H 284.241 -3.2405 2.27612 0
M  V30 3015 H 285.415 -1.33736 4.40966 0
M  V30 3016 H 283.73 -1.35901 3.93599 0
M  V30 3017 H 286.327 -4.09534 3.43781 0
M  V30 3018 H 286.67 -3.77471 1.75559 0
M  V30 3019 H 287.203 -2.61543 2.99733 0
M  V30 3020 H 283.942 -2.65168 5.99472 0
M  V30 3021 H 283.462 -3.7503 4.68095 0
M  V30 3022 H 285.141 -3.74592 5.27532 0
M  V30 3023 N 285.273 -1.31445 -0.869486 0
M  V30 3024 C 286.183 -1.21097 -2.0093 0
M  V30 3025 C 287.199 -0.127584 -1.73532 0
M  V30 3026 O 288.375 -0.345477 -1.98415 0
M  V30 3027 C 285.44 -0.919378 -3.34288 0
M  V30 3028 C 284.501 -2.08971 -3.75006 0
M  V30 3029 C 283.734 -1.81194 -5.02001 0
M  V30 3030 O 283.957 -0.747296 -5.65484 0
M  V30 3031 O 282.891 -2.66883 -5.39497 0
M  V30 3032 H 286.717 -2.16883 -2.12592 0
M  V30 3033 H 284.302 -1.11189 -0.997868 0
M  V30 3034 H 286.184 -0.772625 -4.14257 0
M  V30 3035 H 284.859 0.00844772 -3.23699 0
M  V30 3036 H 283.766 -2.29187 -2.95676 0
M  V30 3037 H 285.099 -2.9998 -3.90221 0
M  V30 3038 N 286.751 1.08385 -1.14413 0
M  V30 3039 C 287.976 1.85057 -0.936413 0
M  V30 3040 C 288.401 1.81055 0.509971 0
M  V30 3041 O 287.759 1.1958 1.36273 0
M  V30 3042 C 287.807 3.30505 -1.44217 0
M  V30 3043 O 286.911 4.07491 -0.634409 0
M  V30 3044 H 286.252 0.573425 -0.334784 0
M  V30 3045 H 288.782 1.36799 -1.52142 0
M  V30 3046 H 288.792 3.81348 -1.45043 0
M  V30 3047 H 287.467 3.32734 -2.49522 0
M  V30 3048 H 286.044 3.66368 -0.694902 0
M  V30 3049 N 288.23 0.939286 1.26551 0
M  V30 3050 C 289.193 0.451987 2.24699 0
M  V30 3051 C 290.193 -0.435869 1.5478 0
M  V30 3052 O 291.383 -0.235314 1.72603 0
M  V30 3053 C 288.515 -0.348801 3.39111 0
M  V30 3054 H 289.708 1.3193 2.69322 0
M  V30 3055 H 287.261 0.721072 1.38673 0
M  V30 3056 H 287.996 -1.23444 2.99887 0
M  V30 3057 H 287.781 0.287945 3.91041 0
M  V30 3058 H 289.271 -0.679726 4.12031 0
M  V30 3059 N 289.708 -1.40897 0.706093 0
M  V30 3060 C 290.638 -2.33418 0.0620085 0
M  V30 3061 C 291.619 -1.52385 -0.755827 0
M  V30 3062 O 292.804 -1.80886 -0.706674 0
M  V30 3063 C 289.934 -3.36293 -0.867445 0
M  V30 3064 C 288.888 -4.27716 -0.155932 0
M  V30 3065 C 288.214 -5.2105 -1.20046 0
M  V30 3066 C 289.514 -5.12944 0.984149 0
M  V30 3067 H 291.208 -2.87527 0.83477 0
M  V30 3068 H 288.754 -1.38249 0.402875 0
M  V30 3069 H 290.707 -3.99949 -1.32735 0
M  V30 3070 H 289.431 -2.80556 -1.67199 0
M  V30 3071 H 288.09 -3.65498 0.284047 0
M  V30 3072 H 287.738 -4.61624 -1.99781 0
M  V30 3073 H 287.438 -5.83056 -0.729328 0
M  V30 3074 H 288.962 -5.87584 -1.66066 0
M  V30 3075 H 290.376 -5.70109 0.604048 0
M  V30 3076 H 288.773 -5.83945 1.38304 0
M  V30 3077 H 289.843 -4.49485 1.81911 0
M  V30 3078 N 291.186 -0.45159 -1.50991 0
M  V30 3079 C 292.602 -0.104647 -1.59257 0
M  V30 3080 C 292.802 1.38728 -1.4614 0
M  V30 3081 O 291.858 2.15866 -1.30989 0
M  V30 3082 C 293.171 -0.637468 -2.93865 0
M  V30 3083 C 294.719 -0.599166 -3.07212 0
M  V30 3084 C 295.194 -1.1092 -4.44366 0
M  V30 3085 N 296.685 -1.06778 -4.50725 0
M  V30 3086 C 297.42 -1.43314 -5.55201 0
M  V30 3087 N 296.916 -1.87204 -6.67028 0
M  V30 3088 N 298.709 -1.3504 -5.45638 0
M  V30 3089 H 290.86 -1.42214 -1.57762 0
M  V30 3090 H 293.123 -0.586921 -0.744465 0
M  V30 3091 H 292.829 -1.68187 -3.08879 0
M  V30 3092 H 292.703 -0.0702139 -3.77135 0
M  V30 3093 H 295.09 0.436277 -2.91857 0
M  V30 3094 H 295.171 -1.20299 -2.25747 0
M  V30 3095 H 294.815 -2.14318 -4.60467 0
M  V30 3096 H 294.745 -0.481773 -5.24392 0
M  V30 3097 H 297.236 -0.745643 -3.70471 0
M  V30 3098 H 297.549 -2.13282 -7.42786 0
M  V30 3099 H 295.894 -1.91142 -6.68199 0
M  V30 3100 H 299.085 -1.00607 -4.57161 0
M  V30 3101 H 299.258 -1.63841 -6.26945 0
M  V30 3102 N 292.664 1.56529 -0.183458 0
M  V30 3103 C 293.612 2.19873 0.758845 0
M  V30 3104 C 294.606 1.16638 1.22849 0
M  V30 3105 O 295.812 1.3481 1.19274 0
M  V30 3106 H 292.187 0.7045 0.263029 0
M  V30 3107 H 294.158 2.97724 0.200755 0
M  V30 3108 C 292.907 2.86314 1.9728 0
M  V30 3109 H 292.23 3.65487 1.62047 0
M  V30 3110 H 293.67 3.3409 2.61075 0
M  V30 3111 C 292.129 1.86729 2.80418 0
M  V30 3112 O 292.659 1.36031 3.77966 0
M  V30 3113 N 290.865 1.55216 2.45675 0
M  V30 3114 H 290.412 1.96636 1.66409 0
M  V30 3115 H 290.37 0.888388 3.01588 0
M  V30 3116 N 294.142 -0.090211 1.57342 0
M  V30 3117 C 295.089 -1.10909 2.02405 0
M  V30 3118 C 296.059 -1.39523 0.901252 0
M  V30 3119 O 297.244 -1.50903 1.1676 0
M  V30 3120 C 294.384 -2.42277 2.45755 0
M  V30 3121 C 293.497 -2.20352 3.71576 0
M  V30 3122 C 292.632 -3.45154 4.03785 0
M  V30 3123 C 291.671 -3.18512 5.22701 0
M  V30 3124 N 290.808 -4.35593 5.50639 0
M  V30 3125 H 295.648 -0.71782 2.89225 0
M  V30 3126 H 293.185 -0.342901 1.43048 0
M  V30 3127 H 295.143 -3.18951 2.68935 0
M  V30 3128 H 293.773 -2.79242 1.61938 0
M  V30 3129 H 292.825 -1.34458 3.55844 0
M  V30 3130 H 294.137 -1.96661 4.58395 0
M  V30 3131 H 293.291 -4.30233 4.27767 0
M  V30 3132 H 292.03 -3.71904 3.15498 0
M  V30 3133 H 291.035 -2.31827 4.98534 0
M  V30 3134 H 292.26 -2.93103 6.12591 0
M  V30 3135 H 290.206 -4.6241 4.6531 0
M  V30 3136 H 290.123 -4.1511 6.31838 0
M  V30 3137 H 291.391 -5.21723 5.7916 0
M  V30 3138 N 295.62 -1.53406 -0.361157 0
M  V30 3139 C 296.553 -1.74946 -1.46524 0
M  V30 3140 C 297.531 -0.59795 -1.51206 0
M  V30 3141 O 298.715 -0.831062 -1.69191 0
M  V30 3142 C 295.842 -1.83224 -2.84863 0
M  V30 3143 C 294.888 -3.05233 -2.97885 0
M  V30 3144 S 295.721 -4.6466 -2.66179 0
M  V30 3145 C 296.877 -4.75793 -4.06659 0
M  V30 3146 H 297.11 -2.68319 -1.28033 0
M  V30 3147 H 294.643 -1.44051 -0.555764 0
M  V30 3148 H 296.601 -1.88679 -3.64569 0
M  V30 3149 H 295.262 -0.908948 -3.00661 0
M  V30 3150 H 294.455 -3.07648 -3.9921 0
M  V30 3151 H 294.057 -2.97913 -2.26106 0
M  V30 3152 H 296.349 -4.5612 -5.0096 0
M  V30 3153 H 297.292 -5.7786 -4.09247 0
M  V30 3154 H 297.7 -4.04389 -3.93865 0
M  V30 3155 N 297.098 0.621204 -1.44841 0
M  V30 3156 C 298.046 1.75385 -1.52784 0
M  V30 3157 C 299.04 1.64639 -0.398779 0
M  V30 3158 O 300.246 1.70598 -0.574137 0
M  V30 3159 H 296.621 0.579193 -0.479625 0
M  V30 3160 H 298.592 1.6581 -2.48092 0
M  V30 3161 C 297.341 3.13742 -1.4987 0
M  V30 3162 H 296.664 3.22663 -2.36069 0
M  V30 3163 H 298.104 3.92861 -1.59487 0
M  V30 3164 C 296.563 3.36175 -0.220973 0
M  V30 3165 O 297.093 3.95469 0.704782 0
M  V30 3166 N 295.299 2.90348 -0.120963 0
M  V30 3167 H 294.846 2.42278 -0.875162 0
M  V30 3168 H 294.804 3.05732 0.733168 0
M  V30 3169 N 298.576 1.31904 0.862503 0
M  V30 3170 C 299.801 1.25135 1.65397 0
M  V30 3171 C 300.226 -0.179 1.87246 0
M  V30 3172 O 299.584 -1.1277 1.4196 0
M  V30 3173 C 299.632 2.00832 2.99498 0
M  V30 3174 O 298.736 1.35075 3.89652 0
M  V30 3175 H 298.077 0.431655 0.504549 0
M  V30 3176 H 300.607 1.74094 1.07483 0
M  V30 3177 H 300.617 2.10709 3.49379 0
M  V30 3178 H 299.292 3.04847 2.82916 0
M  V30 3179 H 297.869 1.33696 3.48109 0
M  V30 3180 N 300.054 -1.07777 1.14986 0
M  V30 3181 C 300.986 -2.14769 0.800436 0
M  V30 3182 C 301.999 -1.61739 -0.185595 0
M  V30 3183 O 303.188 -1.78462 0.0370358 0
M  V30 3184 C 300.288 -3.38481 0.168533 0
M  V30 3185 C 299.461 -4.20876 1.1909 0
M  V30 3186 C 298.52 -5.22976 0.581575 0
M  V30 3187 O 297.546 -5.55388 1.24633 0
M  V30 3188 N 298.748 -5.76976 -0.638706 0
M  V30 3189 H 301.513 -2.45348 1.72118 0
M  V30 3190 H 299.074 -1.23645 1.04515 0
M  V30 3191 H 301.066 -4.03916 -0.251764 0
M  V30 3192 H 299.636 -3.05651 -0.655467 0
M  V30 3193 H 298.856 -3.51322 1.78791 0
M  V30 3194 H 300.144 -4.7274 1.88133 0
M  V30 3195 H 299.542 -5.52886 -1.19723 0
M  V30 3196 H 298.099 -6.44061 -1.00142 0
M  V30 3197 N 301.532 -0.945985 -1.26051 0
M  V30 3198 C 302.778 -0.597002 -1.93814 0
M  V30 3199 C 303.111 0.862484 -1.73997 0
M  V30 3200 O 302.386 1.61769 -1.07986 0
M  V30 3201 C 302.669 -0.945937 -3.47454 0
M  V30 3202 C 302.522 -2.46052 -3.76535 0
M  V30 3203 C 303.841 -0.464785 -4.37639 0
M  V30 3204 H 300.96 -0.218366 -0.703907 0
M  V30 3205 H 303.602 -1.18107 -1.48831 0
M  V30 3206 H 301.752 -0.448902 -3.85898 0
M  V30 3207 H 303.424 -3.03065 -3.47778 0
M  V30 3208 H 301.667 -2.90194 -3.22444 0
M  V30 3209 H 302.338 -2.65517 -4.83947 0
M  V30 3210 H 304.814 -0.891016 -4.06448 0
M  V30 3211 H 303.69 -0.737712 -5.4392 0
M  V30 3212 H 303.951 0.635274 -4.37512 0
M  V30 3213 N 303.011 1.40521 -0.713556 0
M  V30 3214 C 304.251 2.02783 -0.256584 0
M  V30 3215 C 304.615 1.55352 1.12827 0
M  V30 3216 O 305.816 2.09663 1.68211 0
M  V30 3217 C 304.087 3.5586 -0.331414 0
M  V30 3218 S 305.646 4.38773 0.0488703 0
M  V30 3219 H 302.464 0.703655 -0.101934 0
M  V30 3220 H 305.066 1.71674 -0.935325 0
M  V30 3221 H 303.77 3.87874 -1.34098 0
M  V30 3222 H 303.301 3.91695 0.365873 0
M  V30 3223 H 305.316 4.79633 1.2715 0
M  V30 3224 N 304.489 0.459591 1.5075 0
M  V30 3225 C 305.399 -0.34613 2.32033 0
M  V30 3226 C 306.415 -1.00686 1.41909 0
M  V30 3227 O 307.591 -0.997361 1.7497 0
M  V30 3228 C 304.656 -1.42029 3.16273 0
M  V30 3229 C 303.717 -0.777362 4.22203 0
M  V30 3230 C 302.95 -1.80034 5.02418 0
M  V30 3231 O 303.173 -3.02544 4.83553 0
M  V30 3232 O 302.107 -1.37853 5.85901 0
M  V30 3233 H 305.933 0.318054 3.0203 0
M  V30 3234 H 303.518 0.221663 1.47746 0
M  V30 3235 H 305.4 -2.04275 3.68578 0
M  V30 3236 H 304.075 -2.06815 2.49016 0
M  V30 3237 H 302.982 -0.116256 3.73919 0
M  V30 3238 H 304.315 -0.172634 4.91897 0
M  V30 3239 N 305.967 -1.56429 0.191757 0
M  V30 3240 C 306.914 -2.18936 -0.730454 0
M  V30 3241 C 307.884 -1.13557 -1.21219 0
M  V30 3242 O 309.069 -1.41794 -1.27668 0
M  V30 3243 C 306.209 -2.85013 -1.9458 0
M  V30 3244 C 305.322 -4.04909 -1.50574 0
M  V30 3245 C 304.457 -4.58853 -2.67634 0
M  V30 3246 C 303.496 -5.71114 -2.20217 0
M  V30 3247 N 302.633 -6.19478 -3.30442 0
M  V30 3248 H 307.473 -2.97389 -0.190664 0
M  V30 3249 H 305.01 -1.46869 -0.0823694 0
M  V30 3250 H 306.968 -3.21492 -2.65893 0
M  V30 3251 H 305.598 -2.09129 -2.45896 0
M  V30 3252 H 304.65 -3.74115 -0.688605 0
M  V30 3253 H 305.962 -4.86113 -1.11784 0
M  V30 3254 H 305.116 -4.97619 -3.47074 0
M  V30 3255 H 303.855 -3.76749 -3.09696 0
M  V30 3256 H 302.86 -5.31879 -1.3923 0
M  V30 3257 H 304.085 -6.55033 -1.79189 0
M  V30 3258 H 302.031 -5.40297 -3.72041 0
M  V30 3259 H 301.948 -6.95725 -2.9581 0
M  V30 3260 H 303.216 -6.62898 -4.10106 0
M  V30 3261 N 307.445 0.0818655 -1.57387 0
M  V30 3262 C 308.691 0.784074 -1.8703 0
M  V30 3263 C 309.024 1.77729 -0.782689 0
M  V30 3264 O 308.299 1.93384 0.208051 0
M  V30 3265 C 308.582 1.50105 -3.27323 0
M  V30 3266 C 308.435 0.524925 -4.46727 0
M  V30 3267 C 309.754 2.44843 -3.65705 0
M  V30 3268 H 306.873 0.283582 -0.680257 0
M  V30 3269 H 309.515 0.0474352 -1.89941 0
M  V30 3270 H 307.665 2.12897 -3.24972 0
M  V30 3271 H 309.337 -0.0970111 -4.61198 0
M  V30 3272 H 307.58 -0.160606 -4.33503 0
M  V30 3273 H 308.251 1.064 -5.41648 0
M  V30 3274 H 310.727 1.92135 -3.69085 0
M  V30 3275 H 309.603 2.92018 -4.64776 0
M  V30 3276 H 309.864 3.29197 -2.95096 0
M  V30 3277 N 308.923 1.53595 0.353017 0
M  V30 3278 C 310.151 1.74311 1.1146 0
M  V30 3279 C 310.566 0.477854 1.82653 0
M  V30 3280 O 309.923 -0.549977 1.74016 0
M  V30 3281 C 309.974 2.91694 2.13534 0
M  V30 3282 O 309.695 4.13325 1.45238 0
M  V30 3283 C 311.196 3.24384 3.02142 0
M  V30 3284 H 308.416 0.582669 0.332773 0
M  V30 3285 H 310.96 2.00386 0.408107 0
M  V30 3286 H 309.115 2.67977 2.79763 0
M  V30 3287 H 309.529 4.79148 2.13349 0
M  V30 3288 H 311.003 4.09893 3.69718 0
M  V30 3289 H 311.48 2.40282 3.67643 0
M  V30 3290 H 312.086 3.50073 2.41514 0
M  V30 3291 N 310.401 -0.613514 1.45168 0
M  V30 3292 C 311.349 -1.74572 1.53712 0
M  V30 3293 C 312.343 -1.64426 0.407505 0
M  V30 3294 O 313.549 -1.70291 0.583176 0
M  V30 3295 H 309.924 -0.576641 0.48269 0
M  V30 3296 H 311.895 -1.64492 2.48968 0
M  V30 3297 C 310.644 -3.12943 1.51532 0
M  V30 3298 H 309.967 -3.21407 2.37776 0
M  V30 3299 H 311.407 -3.9201 1.61569 0
M  V30 3300 C 309.866 -3.36053 0.238798 0
M  V30 3301 O 310.396 -3.95837 -0.6838 0
M  V30 3302 N 308.602 -2.9028 0.136359 0
M  V30 3303 H 308.149 -2.41811 0.887999 0
M  V30 3304 H 308.107 -3.06116 -0.716944 0
M  V30 3305 N 311.879 -1.3236 -0.855495 0
M  V30 3306 C 313.104 -1.2601 -1.64731 0
M  V30 3307 C 313.529 0.169068 -1.87339 0
M  V30 3308 O 312.887 1.12016 -1.42556 0
M  V30 3309 C 312.935 -2.02417 -2.98429 0
M  V30 3310 O 312.039 -1.3714 -3.8893 0
M  V30 3311 H 311.38 -0.434325 -0.502253 0
M  V30 3312 H 313.91 -1.74661 -1.06558 0
M  V30 3313 H 313.92 -2.12559 -3.48257 0
M  V30 3314 H 312.595 -3.06343 -2.81295 0
M  V30 3315 H 311.172 -1.3554 -3.47395 0
M  V30 3316 N 313.357 1.07166 -1.15556 0
M  V30 3317 C 314.603 1.80065 -0.932984 0
M  V30 3318 C 314.936 1.86586 0.53845 0
M  V30 3319 O 314.211 1.35098 1.39924 0
M  V30 3320 C 314.494 3.25022 -1.55025 0
M  V30 3321 C 314.347 3.26634 -3.09242 0
M  V30 3322 C 315.666 4.22341 -1.2376 0
M  V30 3323 H 312.785 0.653697 -0.340366 0
M  V30 3324 H 315.427 1.25389 -1.4275 0
M  V30 3325 H 313.577 3.71712 -1.12972 0
M  V30 3326 H 315.249 2.88173 -3.60214 0
M  V30 3327 H 313.492 2.65539 -3.43033 0
M  V30 3328 H 314.163 4.28854 -3.47546 0
M  V30 3329 H 316.639 3.8405 -1.60139 0
M  V30 3330 H 315.515 5.22053 -1.69564 0
M  V30 3331 H 315.776 4.41828 -0.154938 0
M  V30 3332 N 314.835 0.952656 1.25548 0
M  V30 3333 C 316.06 0.623025 1.97821 0
M  V30 3334 C 316.485 -0.7976 1.70352 0
M  V30 3335 O 315.843 -1.53905 0.958283 0
M  V30 3336 C 315.891 0.885532 3.49558 0
M  V30 3337 O 314.995 -0.0366641 4.12384 0
M  V30 3338 H 314.336 0.237082 0.620232 0
M  V30 3339 H 316.866 1.27871 1.59719 0
M  V30 3340 H 316.876 0.811009 3.99858 0
M  V30 3341 H 315.551 1.92094 3.6888 0
M  V30 3342 H 314.128 0.0898954 3.72792 0
M  V30 3343 N 316.313 -1.40141 0.720998 0
M  V30 3344 C 317.538 -2.05618 0.271258 0
M  V30 3345 C 317.963 -1.53978 -1.08039 0
M  V30 3346 O 317.321 -0.677463 -1.68167 0
M  V30 3347 C 317.369 -3.59609 0.267197 0
M  V30 3348 O 316.473 -4.05526 -0.749814 0
M  V30 3349 H 315.814 -0.651904 0.126162 0
M  V30 3350 H 318.344 -1.79439 0.982997 0
M  V30 3351 H 318.354 -4.0786 0.106744 0
M  V30 3352 H 317.029 -3.96559 1.25354 0
M  V30 3353 H 315.606 -3.68722 -0.556644 0
M  V30 3354 N 317.792 -0.46758 -1.50504 0
M  V30 3355 C 318.702 0.33382 -2.32213 0
M  V30 3356 C 319.718 0.999323 -1.42441 0
M  V30 3357 O 320.894 0.988068 -1.75497 0
M  V30 3358 C 317.959 1.4035 -3.17022 0
M  V30 3359 C 317.02 0.754961 -4.2261 0
M  V30 3360 C 316.253 1.77367 -5.03365 0
M  V30 3361 O 316.476 2.99976 -4.8515 0
M  V30 3362 O 315.41 1.34744 -5.86624 0
M  V30 3363 H 319.236 -0.334067 -3.01857 0
M  V30 3364 H 316.821 -0.229496 -1.47627 0
M  V30 3365 H 318.703 2.02318 -3.69656 0
M  V30 3366 H 317.378 2.05492 -2.5011 0
M  V30 3367 H 316.285 0.0964244 -3.73976 0
M  V30 3368 H 317.618 0.146545 -4.91982 0
M  V30 3369 N 319.27 1.56325 -0.20005 0
M  V30 3370 C 320.2 2.22318 0.713916 0
M  V30 3371 C 321.181 1.18788 1.21752 0
M  V30 3372 O 322.366 1.47309 1.26545 0
M  V30 3373 C 319.496 2.88639 1.93144 0
M  V30 3374 C 318.45 3.98457 1.56255 0
M  V30 3375 C 317.776 4.51967 2.85709 0
M  V30 3376 C 319.076 5.16612 0.768747 0
M  V30 3377 H 320.77 2.98952 0.163755 0
M  V30 3378 H 318.316 1.43792 0.0773219 0
M  V30 3379 H 320.269 3.33491 2.57608 0
M  V30 3380 H 318.993 2.09419 2.50621 0
M  V30 3381 H 317.652 3.54305 0.941471 0
M  V30 3382 H 317.3 3.69503 3.41287 0
M  V30 3383 H 317 5.26071 2.6177 0
M  V30 3384 H 318.524 4.99523 3.51154 0
M  V30 3385 H 319.938 5.57977 1.3166 0
M  V30 3386 H 318.335 5.96812 0.627286 0
M  V30 3387 H 319.405 4.84358 -0.229168 0
M  V30 3388 N 320.748 -0.0735177 1.57428 0
M  V30 3389 C 321.68 -1.11423 2.00294 0
M  V30 3390 C 322.693 -1.35084 0.908637 0
M  V30 3391 O 323.882 -1.33355 1.18654 0
M  V30 3392 C 320.982 -2.46548 2.32523 0
M  V30 3393 C 320.155 -2.42867 3.63778 0
M  V30 3394 C 319.214 -3.60087 3.83697 0
M  V30 3395 O 318.24 -3.41595 4.55304 0
M  V30 3396 N 319.442 -4.80372 3.25919 0
M  V30 3397 H 322.207 -0.749206 2.90184 0
M  V30 3398 H 319.768 -0.262195 1.59763 0
M  V30 3399 H 321.76 -3.23607 2.43024 0
M  V30 3400 H 320.33 -2.75059 1.48531 0
M  V30 3401 H 319.55 -1.51206 3.64047 0
M  V30 3402 H 320.838 -2.37506 4.49965 0
M  V30 3403 H 320.236 -4.983 2.67795 0
M  V30 3404 H 318.793 -5.54948 3.41871 0
M  V30 3405 N 322.226 -1.5378 -0.344866 0
M  V30 3406 C 323.637 -1.62428 -0.920552 0
M  V30 3407 C 323.988 -0.504747 -1.89596 0
M  V30 3408 O 323.113 0.365711 -2.13287 0
M  V30 3409 C 323.708 -2.94419 -1.67639 0
M  V30 3410 C 322.267 -3.05333 -2.20111 0
M  V30 3411 C 321.414 -2.57866 -1.01982 0
M  V30 3412 H 324.365 -1.58222 -0.123042 0
M  V30 3413 H 324.386 -2.83384 -2.53917 0
M  V30 3414 H 323.898 -3.7588 -0.966224 0
M  V30 3415 H 321.999 -2.28502 -2.94308 0
M  V30 3416 H 322.112 -4.10778 -2.46573 0
M  V30 3417 H 320.476 -2.13241 -1.39285 0
M  V30 3418 H 321.259 -3.41765 -0.324308 0
M  V30 3419 N 323.704 0.605807 -1.45491 0
M  V30 3420 C 324.934 1.38934 -1.52908 0
M  V30 3421 C 325.342 1.88513 -0.161086 0
M  V30 3422 O 324.685 1.62962 0.847891 0
M  V30 3423 C 324.747 2.62737 -2.45376 0
M  V30 3424 C 324.411 2.34785 -3.92078 0
M  V30 3425 C 325.408 1.95038 -4.8193 0
M  V30 3426 C 323.093 2.47642 -4.37011 0
M  V30 3427 C 325.087 1.68511 -6.14722 0
M  V30 3428 C 322.774 2.20728 -5.69844 0
M  V30 3429 C 323.772 1.81225 -6.58519 0
M  V30 3430 O 323.46 1.54627 -7.88889 0
M  V30 3431 H 323.192 0.431629 -0.520262 0
M  V30 3432 H 325.746 0.74573 -1.91384 0
M  V30 3433 H 323.976 3.29824 -2.01874 0
M  V30 3434 H 325.665 3.24783 -2.43456 0
M  V30 3435 H 326.431 1.84639 -4.48479 0
M  V30 3436 H 322.31 2.77356 -3.68232 0
M  V30 3437 H 325.854 1.37602 -6.83894 0
M  V30 3438 H 321.751 2.30744 -6.02849 0
M  V30 3439 H 322.519 1.68665 -8.00933 0
M  V30 3440 N 325.182 1.32811 0.848464 0
M  V30 3441 C 326.429 1.23724 1.60308 0
M  V30 3442 C 326.757 -0.1994 1.93475 0
M  V30 3443 O 326.012 -1.15406 1.5805 0
M  V30 3444 C 326.311 2.04831 2.92881 0
M  V30 3445 C 325.977 3.54125 2.79117 0
M  V30 3446 C 324.639 3.94829 2.7507 0
M  V30 3447 C 326.991 4.49036 2.64606 0
M  V30 3448 C 324.319 5.28675 2.544 0
M  V30 3449 C 326.671 5.83033 2.4547 0
M  V30 3450 C 325.335 6.22931 2.39819 0
M  V30 3451 H 324.605 0.452737 0.586609 0
M  V30 3452 H 327.252 1.64301 0.983743 0
M  V30 3453 H 325.557 1.57001 3.58968 0
M  V30 3454 H 327.254 1.95164 3.50303 0
M  V30 3455 H 323.844 3.21801 2.83094 0
M  V30 3456 H 328.028 4.18505 2.66772 0
M  V30 3457 H 323.284 5.58637 2.48465 0
M  V30 3458 H 327.458 6.56186 2.33222 0
M  V30 3459 H 325.085 7.26584 2.23562 0
M  V30 3460 N 326.66 -1.06551 1.16123 0
M  V30 3461 C 327.592 -2.13908 0.823171 0
M  V30 3462 C 328.605 -1.61926 -0.16843 0
M  V30 3463 O 329.794 -1.78412 0.055962 0
M  V30 3464 C 326.894 -3.38283 0.204424 0
M  V30 3465 C 326.067 -4.19589 1.23548 0
M  V30 3466 C 325.126 -5.2233 0.637011 0
M  V30 3467 O 324.152 -5.54034 1.30516 0
M  V30 3468 N 325.354 -5.77621 -0.577474 0
M  V30 3469 H 328.119 -2.43508 1.74711 0
M  V30 3470 H 325.68 -1.2253 1.05821 0
M  V30 3471 H 327.672 -4.0416 -0.208909 0
M  V30 3472 H 326.242 -3.06329 -0.623012 0
M  V30 3473 H 325.462 -3.49406 1.82507 0
M  V30 3474 H 326.75 -4.70718 1.93137 0
M  V30 3475 H 326.148 -5.54125 -1.13853 0
M  V30 3476 H 324.705 -6.45087 -0.933053 0
M  V30 3477 N 328.138 -0.959301 -1.25041 0
M  V30 3478 C 329.366 -0.633949 -1.96948 0
M  V30 3479 C 329.781 0.794916 -1.7125 0
M  V30 3480 O 329.138 1.53231 -0.991287 0
M  V30 3481 C 329.189 -0.888805 -3.50403 0
M  V30 3482 O 328.91 -2.26149 -3.75218 0
M  V30 3483 C 330.411 -0.576482 -4.39536 0
M  V30 3484 H 327.631 -0.237263 -0.627652 0
M  V30 3485 H 330.175 -1.28495 -1.59089 0
M  V30 3486 H 328.33 -0.284145 -3.86357 0
M  V30 3487 H 328.744 -2.33514 -4.6965 0
M  V30 3488 H 330.218 -0.805314 -5.46094 0
M  V30 3489 H 330.695 0.489075 -4.36468 0
M  V30 3490 H 331.301 -1.16067 -4.09156 0
M  V30 3491 N 329.616 1.39756 -0.72842 0
M  V30 3492 C 330.546 2.33289 -0.0991354 0
M  V30 3493 C 331.527 1.53568 0.731489 0
M  V30 3494 O 332.712 1.81987 0.677807 0
M  V30 3495 C 329.842 3.3763 0.813834 0
M  V30 3496 C 328.796 4.2791 0.0878663 0
M  V30 3497 C 328.122 5.22894 1.11741 0
M  V30 3498 C 329.422 5.11314 -1.06563 0
M  V30 3499 H 331.116 2.86163 -0.880408 0
M  V30 3500 H 328.662 1.37591 -0.424819 0
M  V30 3501 H 330.615 4.0201 1.26355 0
M  V30 3502 H 329.339 2.83181 1.62715 0
M  V30 3503 H 327.998 3.65 -0.342159 0
M  V30 3504 H 327.646 4.64744 1.92412 0
M  V30 3505 H 327.346 5.84143 0.636477 0
M  V30 3506 H 328.87 5.90151 1.56697 0
M  V30 3507 H 330.284 5.69076 -0.694671 0
M  V30 3508 H 328.681 5.81671 -1.47577 0
M  V30 3509 H 329.751 4.46534 -1.89038 0
M  V30 3510 N 331.094 0.475555 1.50254 0
M  V30 3511 C 332.505 0.0215174 1.86688 0
M  V30 3512 C 332.856 -1.38467 1.39001 0
M  V30 3513 O 331.981 -2.02732 0.756894 0
M  V30 3514 C 332.576 0.0322715 3.38785 0
M  V30 3515 C 331.135 -0.366314 3.74613 0
M  V30 3516 C 330.282 0.415832 2.74164 0
M  V30 3517 H 333.233 0.689612 1.42934 0
M  V30 3518 H 333.254 -0.76889 3.7265 0
M  V30 3519 H 332.766 1.05584 3.73462 0
M  V30 3520 H 330.867 -1.39406 3.45538 0
M  V30 3521 H 330.98 -0.064555 4.79057 0
M  V30 3522 H 329.344 -0.131048 2.54363 0
M  V30 3523 H 330.127 1.43899 3.11686 0
M  V30 3524 N 332.573 -1.56217 0.208337 0
M  V30 3525 C 333.819 -1.98242 -0.427552 0
M  V30 3526 C 334.152 -1.09554 -1.60348 0
M  V30 3527 O 333.427 -0.15035 -1.93918 0
M  V30 3528 C 333.71 -3.4931 -0.874907 0
M  V30 3529 C 333.563 -4.48773 0.303751 0
M  V30 3530 C 334.882 -4.04424 -1.73577 0
M  V30 3531 H 332.001 -0.720744 -0.153936 0
M  V30 3532 H 334.643 -1.87586 0.30192 0
M  V30 3533 H 332.793 -3.58522 -1.49648 0
M  V30 3534 H 334.465 -4.51586 0.941682 0
M  V30 3535 H 332.708 -4.23194 0.953375 0
M  V30 3536 H 333.379 -5.51976 -0.0519883 0
M  V30 3537 H 335.855 -3.98075 -1.21143 0
M  V30 3538 H 334.731 -5.1047 -2.01771 0
M  V30 3539 H 334.992 -3.50494 -2.69456 0
M  V30 3540 N 334.051 0.0651679 -1.57465 0
M  V30 3541 C 334.984 1.10876 -1.99453 0
M  V30 3542 C 335.962 1.37205 -0.872555 0
M  V30 3543 O 337.146 1.50468 -1.13542 0
M  V30 3544 C 334.273 2.45167 -2.3369 0
M  V30 3545 C 333.319 2.3493 -3.55964 0
M  V30 3546 S 334.152 1.73708 -5.06543 0
M  V30 3547 C 335.308 3.09563 -5.43987 0
M  V30 3548 H 335.541 0.750967 -2.87659 0
M  V30 3549 H 333.074 0.273933 -1.51951 0
M  V30 3550 H 335.032 3.22412 -2.54088 0
M  V30 3551 H 333.693 2.78105 -1.46001 0
M  V30 3552 H 332.886 3.3398 -3.77457 0
M  V30 3553 H 332.488 1.65823 -3.3523 0
M  V30 3554 H 334.78 4.05882 -5.42463 0
M  V30 3555 H 335.723 2.92843 -6.44708 0
M  V30 3556 H 336.131 3.10474 -4.71451 0
M  V30 3557 N 335.529 1.53961 0.336706 0
M  V30 3558 C 336.757 1.75483 1.09605 0
M  V30 3559 C 337.172 0.4972 1.82136 0
M  V30 3560 O 336.529 -0.53149 1.74589 0
M  V30 3561 C 336.58 2.93943 2.10428 0
M  V30 3562 O 336.301 4.14842 1.40846 0
M  V30 3563 C 337.802 3.27571 2.98684 0
M  V30 3564 H 335.022 0.586166 0.326574 0
M  V30 3565 H 337.566 2.00808 0.38683 0
M  V30 3566 H 335.721 2.70929 2.76905 0
M  V30 3567 H 336.135 4.81383 2.08255 0
M  V30 3568 H 337.609 4.13791 3.6535 0
M  V30 3569 H 338.086 2.44168 3.65074 0
M  V30 3570 H 338.692 3.52615 2.37787 0
M  V30 3571 N 337.007 -0.598083 1.45811 0
M  V30 3572 C 337.954 -1.7082 1.55207 0
M  V30 3573 C 338.924 -1.61278 0.39732 0
M  V30 3574 O 340.109 -1.80717 0.612038 0
M  V30 3575 C 337.249 -3.09144 1.53376 0
M  V30 3576 C 336.362 -3.29423 2.79472 0
M  V30 3577 C 335.497 -4.57907 2.69248 0
M  V30 3578 C 334.536 -4.71476 3.90354 0
M  V30 3579 N 333.673 -5.9127 3.78608 0
M  V30 3580 H 338.513 -1.62125 2.50039 0
M  V30 3581 H 336.05 -0.790389 1.24062 0
M  V30 3582 H 338.008 -3.89186 1.50301 0
M  V30 3583 H 336.638 -3.16773 0.620876 0
M  V30 3584 H 335.69 -2.43091 2.92594 0
M  V30 3585 H 337.002 -3.3532 3.69272 0
M  V30 3586 H 336.156 -5.46157 2.64192 0
M  V30 3587 H 334.895 -4.54423 1.77063 0
M  V30 3588 H 333.9 -3.81648 3.95759 0
M  V30 3589 H 335.125 -4.76751 4.83617 0
M  V30 3590 H 333.071 -5.88813 2.89199 0
M  V30 3591 H 332.988 -5.98369 4.6205 0
M  V30 3592 H 334.256 -6.81992 3.77501 0
M  V30 3593 N 338.485 -1.33259 -0.841409 0
M  V30 3594 C 339.734 -1.23921 -1.59143 0
M  V30 3595 C 340.047 0.1941 -1.94635 0
M  V30 3596 O 341.253 0.409474 -2.68394 0
M  V30 3597 C 339.709 -2.17119 -2.87032 0
M  V30 3598 C 339.317 -3.65606 -2.58914 0
M  V30 3599 C 341.061 -2.16648 -3.65053 0
M  V30 3600 C 338.968 -4.50726 -3.82884 0
M  V30 3601 H 337.898 -0.460264 -0.597221 0
M  V30 3602 H 340.549 -1.58307 -0.927959 0
M  V30 3603 H 338.931 -1.75663 -3.54906 0
M  V30 3604 H 340.105 -4.15487 -1.99267 0
M  V30 3605 H 338.42 -3.68341 -1.942 0
M  V30 3606 H 341.017 -2.77474 -4.57069 0
M  V30 3607 H 341.36 -1.16088 -3.99787 0
M  V30 3608 H 341.893 -2.56453 -3.041 0
M  V30 3609 H 338.632 -5.52151 -3.53283 0
M  V30 3610 H 338.152 -4.0559 -4.41879 0
M  V30 3611 H 339.831 -4.64401 -4.50489 0
M  V30 3612 N 339.963 1.05934 -1.16686 0
M  V30 3613 C 341.24 1.75643 -0.860747 0
M  V30 3614 C 341.62 2.01144 0.640641 0
M  V30 3615 O 340.968 1.64147 1.58959 0
M  V30 3616 C 341.178 3.05493 -1.68745 0
M  V30 3617 C 342.526 3.79581 -1.90271 0
M  V30 3618 O 343.55 3.15344 -1.65641 0
M  V30 3619 O 342.409 4.9499 -2.31618 0
M  V30 3620 H 339.503 0.763426 -0.317977 0
M  V30 3621 H 342.049 1.1217 -1.27342 0
M  V30 3622 H 340.821 2.8264 -2.70611 0
M  V30 3623 H 340.444 3.76702 -1.27206 0
M  V30 3624 N 341.441 0.965919 1.2453 0
M  V30 3625 C 342.666 0.643971 1.97149 0
M  V30 3626 C 343.091 -0.779487 1.71189 0
M  V30 3627 O 342.449 -1.5288 0.974553 0
M  V30 3628 C 342.497 0.922557 3.48599 0
M  V30 3629 O 341.601 0.00707672 4.12399 0
M  V30 3630 H 340.942 0.243647 0.617683 0
M  V30 3631 H 343.472 1.29558 1.58353 0
M  V30 3632 H 343.482 0.853373 3.98976 0
M  V30 3633 H 342.157 1.95996 3.66822 0
M  V30 3634 H 340.734 0.12943 3.72675 0
M  V30 3635 N 342.919 -1.39368 0.735821 0
M  V30 3636 C 344.165 -2.00794 0.284544 0
M  V30 3637 C 344.498 -1.58255 -1.12557 0
M  V30 3638 O 343.773 -0.811819 -1.76748 0
M  V30 3639 C 344.056 -3.58011 0.387337 0
M  V30 3640 C 343.909 -4.10566 1.83728 0
M  V30 3641 C 345.228 -4.395 -0.22975 0
M  V30 3642 H 342.347 -0.729501 0.104866 0
M  V30 3643 H 344.989 -1.65564 0.93213 0
M  V30 3644 H 343.139 -3.88154 -0.164006 0
M  V30 3645 H 344.811 -3.91139 2.44556 0
M  V30 3646 H 343.054 -3.64095 2.35833 0
M  V30 3647 H 343.725 -5.19702 1.86047 0
M  V30 3648 H 346.201 -4.15406 0.240257 0
M  V30 3649 H 345.077 -5.48752 -0.127485 0
M  V30 3650 H 345.338 -4.22062 -1.3159 0
M  V30 3651 N 344.397 -0.483516 -1.5 0
M  V30 3652 C 345.36 0.292965 -2.2732 0
M  V30 3653 C 346.36 0.909499 -1.32608 0
M  V30 3654 O 347.55 0.776745 -1.55924 0
M  V30 3655 C 344.682 1.41854 -3.09984 0
M  V30 3656 H 345.875 -0.385289 -2.97415 0
M  V30 3657 H 343.428 -0.237942 -1.54478 0
M  V30 3658 H 344.163 2.13148 -2.44414 0
M  V30 3659 H 343.948 0.982114 -3.79601 0
M  V30 3660 H 345.438 1.96597 -3.68429 0
M  V30 3661 N 345.875 1.56104 -0.216619 0
M  V30 3662 C 347.123 1.97781 0.415593 0
M  V30 3663 C 347.444 1.10536 1.60645 0
M  V30 3664 O 346.714 0.181303 1.95059 0
M  V30 3665 H 345.294 0.730415 0.156534 0
M  V30 3666 H 347.956 1.92445 -0.308366 0
M  V30 3667 H 347.052 3.03072 0.74525 0
M  V30 3668 N 347.353 -0.0568162 1.57498 0
M  V30 3669 C 348.602 -0.752001 1.87157 0
M  V30 3670 C 348.915 -1.77978 0.811375 0
M  V30 3671 O 350.121 -2.52559 0.996293 0
M  V30 3672 C 348.577 -1.38844 3.3204 0
M  V30 3673 C 348.185 -0.398456 4.46225 0
M  V30 3674 C 349.929 -2.06512 3.70882 0
M  V30 3675 C 347.836 -1.04166 5.82154 0
M  V30 3676 H 346.766 -0.28461 0.698222 0
M  V30 3677 H 349.417 -0.00561272 1.83499 0
M  V30 3678 H 347.799 -2.1836 3.30356 0
M  V30 3679 H 348.973 0.367977 4.59328 0
M  V30 3680 H 347.288 0.174592 4.16034 0
M  V30 3681 H 349.885 -2.55437 4.6974 0
M  V30 3682 H 350.228 -2.87117 3.01445 0
M  V30 3683 H 350.761 -1.33808 3.7462 0
M  V30 3684 H 347.5 -0.275614 6.5492 0
M  V30 3685 H 347.02 -1.7786 5.72823 0
M  V30 3686 H 348.699 -1.55715 6.27982 0
M  V30 3687 N 348.832 -1.54138 -0.328536 0
M  V30 3688 C 349.78 -1.83894 -1.42428 0
M  V30 3689 C 350.774 -0.710478 -1.53781 0
M  V30 3690 O 351.98 -0.894062 -1.56226 0
M  V30 3691 H 348.355 -0.582837 -0.475189 0
M  V30 3692 H 350.326 -2.75537 -1.14552 0
M  V30 3693 C 349.075 -2.07866 -2.78724 0
M  V30 3694 H 348.398 -2.94158 -2.7076 0
M  V30 3695 H 349.838 -2.32644 -3.54476 0
M  V30 3696 C 348.297 -0.868689 -3.25508 0
M  V30 3697 O 348.827 -0.0754908 -4.01629 0
M  V30 3698 N 347.033 -0.681711 -2.82491 0
M  V30 3699 H 346.58 -1.32838 -2.20708 0
M  V30 3700 H 346.538 0.126374 -3.14146 0
M  V30 3701 N 350.31 0.590341 -1.46126 0
M  V30 3702 C 351.54 1.37304 -1.54373 0
M  V30 3703 C 351.948 1.88332 -0.181071 0
M  V30 3704 O 351.291 1.63852 0.830559 0
M  V30 3705 C 351.353 2.6012 -2.48149 0
M  V30 3706 C 351.017 2.30613 -3.94546 0
M  V30 3707 C 352.014 1.89915 -4.83971 0
M  V30 3708 C 349.699 2.42993 -4.39613 0
M  V30 3709 C 351.693 1.61981 -6.16475 0
M  V30 3710 C 349.38 2.14672 -5.72153 0
M  V30 3711 C 350.378 1.7423 -6.60404 0
M  V30 3712 O 350.066 1.46251 -7.90485 0
M  V30 3713 H 349.798 0.426086 -0.524811 0
M  V30 3714 H 352.352 0.72539 -1.92165 0
M  V30 3715 H 350.582 3.27664 -2.05361 0
M  V30 3716 H 352.271 3.22182 -2.46887 0
M  V30 3717 H 353.037 1.79872 -4.50412 0
M  V30 3718 H 348.916 2.73435 -3.71153 0
M  V30 3719 H 352.46 1.30341 -6.85315 0
M  V30 3720 H 348.357 2.24337 -6.05263 0
M  V30 3721 H 349.125 1.6016 -8.02677 0
M  V30 3722 N 351.788 1.33704 0.83433 0
M  V30 3723 C 353.036 1.25169 1.58673 0
M  V30 3724 C 353.357 -0.18127 1.94156 0
M  V30 3725 O 352.627 -1.11113 1.6134 0
M  V30 3726 H 351.207 0.4603 0.58833 0
M  V30 3727 H 353.869 1.67478 0.996847 0
M  V30 3728 H 352.965 1.84856 2.51465 0
M  V30 3729 N 353.266 -1.05314 1.17247 0
M  V30 3730 C 354.196 -2.1498 0.911362 0
M  V30 3731 C 355.177 -1.69471 -0.146169 0
M  V30 3732 O 356.362 -1.942 0.003812 0
M  V30 3733 C 353.492 -3.4472 0.422528 0
M  V30 3734 C 352.446 -4.03789 1.4191 0
M  V30 3735 C 351.772 -5.28858 0.788274 0
M  V30 3736 C 353.072 -4.41418 2.7919 0
M  V30 3737 H 354.766 -2.3708 1.82848 0
M  V30 3738 H 352.312 -1.13938 0.880569 0
M  V30 3739 H 354.265 -4.20787 0.227289 0
M  V30 3740 H 352.989 -3.22269 -0.530123 0
M  V30 3741 H 351.648 -3.2979 1.60106 0
M  V30 3742 H 351.296 -5.02709 -0.171173 0
M  V30 3743 H 350.996 -5.69338 1.45353 0
M  V30 3744 H 352.52 -6.07612 0.603282 0
M  V30 3745 H 353.934 -5.08524 2.64719 0
M  V30 3746 H 352.331 -4.92913 3.42282 0
M  V30 3747 H 353.401 -3.51819 3.33693 0
M  V30 3748 N 354.744 -0.972509 -1.24016 0
M  V30 3749 C 355.99 -0.637978 -1.92504 0
M  V30 3750 C 356.323 0.825383 -1.75787 0
M  V30 3751 O 355.598 1.59442 -1.11393 0
M  V30 3752 C 355.881 -1.01942 -3.45369 0
M  V30 3753 C 355.734 -2.53983 -3.71231 0
M  V30 3754 C 357.053 -0.55751 -4.36555 0
M  V30 3755 H 354.172 -0.233248 -0.699117 0
M  V30 3756 H 356.814 -1.21238 -1.46292 0
M  V30 3757 H 354.964 -0.530656 -3.84859 0
M  V30 3758 H 356.636 -3.10374 -3.41271 0
M  V30 3759 H 354.879 -2.96968 -3.16216 0
M  V30 3760 H 355.55 -2.75723 -4.78206 0
M  V30 3761 H 358.026 -0.977029 -4.04467 0
M  V30 3762 H 356.902 -0.85292 -5.42233 0
M  V30 3763 H 357.163 0.542328 -4.38761 0
M  V30 3764 N 356.222 1.38976 -0.743202 0
M  V30 3765 C 357.185 2.28901 -0.117014 0
M  V30 3766 C 358.185 1.46698 0.658503 0
M  V30 3767 O 359.375 1.67274 0.486305 0
M  V30 3768 C 356.507 3.30309 0.84315 0
M  V30 3769 H 357.7 2.8578 -0.909373 0
M  V30 3770 H 355.253 1.47761 -0.509547 0
M  V30 3771 H 355.988 2.785 1.66157 0
M  V30 3772 H 355.773 3.91029 0.289594 0
M  V30 3773 H 357.263 3.97577 1.2776 0
M  V30 3774 N 357.7 0.491464 1.49741 0
M  V30 3775 C 359.111 0.0413169 1.86654 0
M  V30 3776 C 359.462 -1.36985 1.40462 0
M  V30 3777 O 358.587 -2.01917 0.778354 0
M  V30 3778 C 359.182 0.0682023 3.38731 0
M  V30 3779 C 357.741 -0.32656 3.74981 0
M  V30 3780 C 356.888 0.444888 2.73708 0
M  V30 3781 H 359.839 0.704733 1.42194 0
M  V30 3782 H 359.86 -0.729322 3.73445 0
M  V30 3783 H 359.372 1.09539 3.72321 0
M  V30 3784 H 357.473 -1.35734 3.46997 0
M  V30 3785 H 357.586 -0.013741 4.79098 0
M  V30 3786 H 355.95 -0.104062 2.54487 0
M  V30 3787 H 356.733 1.47197 3.10142 0
M  V30 3788 N 359.178 -1.55987 0.224894 0
M  V30 3789 C 360.589 -1.84553 -0.282345 0
M  V30 3790 C 360.94 -1.14634 -1.59227 0
M  V30 3791 O 360.065 -0.417155 -2.12341 0
M  V30 3792 C 360.66 -3.348 -0.519062 0
M  V30 3793 C 359.219 -3.63671 -0.970604 0
M  V30 3794 C 358.366 -2.77277 -0.0355261 0
M  V30 3795 H 361.317 -1.52245 0.448006 0
M  V30 3796 H 361.338 -3.55187 -1.36463 0
M  V30 3797 H 360.85 -3.8566 0.43449 0
M  V30 3798 H 358.951 -3.1827 -1.9374 0
M  V30 3799 H 359.064 -4.71631 -0.842698 0
M  V30 3800 H 357.428 -2.48846 -0.542927 0
M  V30 3801 H 358.211 -3.30937 0.913003 0
M  V30 3802 N 360.656 0.0484629 -1.57525 0
M  V30 3803 C 361.619 1.03956 -2.04269 0
M  V30 3804 C 362.619 1.30211 -0.943496 0
M  V30 3805 O 363.809 1.25539 -1.20771 0
M  V30 3806 C 360.941 2.37742 -2.44319 0
M  V30 3807 H 362.134 0.636182 -2.93075 0
M  V30 3808 H 359.687 0.294811 -1.53494 0
M  V30 3809 H 360.422 2.82866 -1.5861 0
M  V30 3810 H 360.207 2.20021 -3.24551 0
M  V30 3811 H 361.697 3.08936 -2.80978 0
M  V30 3812 N 362.134 1.5431 0.320358 0
M  V30 3813 C 363.362 1.76636 1.07738 0
M  V30 3814 C 363.777 0.51649 1.81598 0
M  V30 3815 O 363.134 -0.512942 1.75143 0
M  V30 3816 C 363.185 2.96158 2.07299 0
M  V30 3817 O 362.906 4.16313 1.36438 0
M  V30 3818 C 364.407 3.3072 2.95193 0
M  V30 3819 H 361.627 0.589597 0.320339 0
M  V30 3820 H 364.171 2.01207 0.36551 0
M  V30 3821 H 362.326 2.73851 2.74016 0
M  V30 3822 H 362.74 4.83565 2.03138 0
M  V30 3823 H 364.214 4.17643 3.60941 0
M  V30 3824 H 364.691 2.48026 3.62463 0
M  V30 3825 H 365.297 3.55117 2.34034 0
M  V30 3826 N 363.613 -0.582584 1.46437 0
M  V30 3827 C 364.841 -1.36682 1.55324 0
M  V30 3828 C 365.256 -1.87796 0.194409 0
M  V30 3829 O 364.613 -1.63623 -0.808318 0
M  V30 3830 C 364.664 -2.55426 2.55812 0
M  V30 3831 O 364.385 -2.0643 3.86417 0
M  V30 3832 C 365.886 -3.47976 2.74641 0
M  V30 3833 H 363.106 -0.417545 0.525259 0
M  V30 3834 H 365.65 -0.708219 1.91845 0
M  V30 3835 H 363.805 -3.17275 2.22295 0
M  V30 3836 H 364.219 -2.83762 4.41111 0
M  V30 3837 H 365.693 -4.27775 3.48874 0
M  V30 3838 H 366.17 -3.99919 1.81553 0
M  V30 3839 H 366.776 -2.91962 3.09255 0
M  V30 3840 N 365.091 -1.34144 -0.827227 0
M  V30 3841 C 366.054 -1.25264 -1.91942 0
M  V30 3842 C 367.054 -0.168866 -1.59911 0
M  V30 3843 O 368.244 -0.421198 -1.69031 0
M  V30 3844 C 365.376 -0.932952 -3.27885 0
M  V30 3845 H 366.569 -2.22357 -2.0124 0
M  V30 3846 H 364.122 -1.1837 -1.0207 0
M  V30 3847 H 364.857 0.0349917 -3.24281 0
M  V30 3848 H 364.642 -1.71682 -3.52516 0
M  V30 3849 H 366.132 -0.895874 -4.07877 0
M  V30 3850 N 366.569 1.04691 -1.17803 0
M  V30 3851 C 367.479 2.16057 -0.914151 0
M  V30 3852 C 368.495 1.73589 0.119503 0
M  V30 3853 O 369.671 2.01308 -0.0609468 0
M  V30 3854 C 366.736 3.4394 -0.436603 0
M  V30 3855 C 365.797 4.00825 -1.53746 0
M  V30 3856 C 365.03 5.22604 -1.0826 0
M  V30 3857 O 365.253 5.70367 0.0612244 0
M  V30 3858 O 364.187 5.7186 -1.87775 0
M  V30 3859 H 368.013 2.41169 -1.84584 0
M  V30 3860 H 365.598 1.1453 -0.959334 0
M  V30 3861 H 367.48 4.21024 -0.178057 0
M  V30 3862 H 366.155 3.20316 0.466869 0
M  V30 3863 H 365.062 3.25158 -1.84995 0
M  V30 3864 H 366.395 4.28778 -2.41683 0
M  V30 3865 N 368.047 0.979072 1.23499 0
M  V30 3866 C 369.275 0.665202 1.95915 0
M  V30 3867 C 369.69 -0.767571 1.72493 0
M  V30 3868 O 369.047 -1.51635 1.01554 0
M  V30 3869 C 369.098 0.944438 3.48945 0
M  V30 3870 O 368.819 2.3209 3.71572 0
M  V30 3871 C 370.32 0.646336 4.38563 0
M  V30 3872 H 367.54 0.247218 0.623798 0
M  V30 3873 H 370.084 1.31009 1.57025 0
M  V30 3874 H 368.239 0.345575 3.85856 0
M  V30 3875 H 368.653 2.40957 4.65876 0
M  V30 3876 H 370.127 0.892091 5.44744 0
M  V30 3877 H 370.604 -0.419575 4.37191 0
M  V30 3878 H 371.21 1.22562 4.07258 0
M  V30 3879 N 369.525 -1.3858 0.750561 0
M  V30 3880 C 370.455 -2.33102 0.136237 0
M  V30 3881 C 371.436 -1.54713 -0.706965 0
M  V30 3882 O 372.621 -1.83043 -0.648769 0
M  V30 3883 C 369.751 -3.38882 -0.760017 0
M  V30 3884 C 368.705 -4.27995 -0.0197785 0
M  V30 3885 C 368.031 -5.24605 -1.03408 0
M  V30 3886 C 369.331 -5.09554 1.14684 0
M  V30 3887 H 371.025 -2.84726 0.925822 0
M  V30 3888 H 368.571 -1.36898 0.446654 0
M  V30 3889 H 370.524 -4.0397 -1.19943 0
M  V30 3890 H 369.248 -2.85734 -1.58189 0
M  V30 3891 H 367.907 -3.64409 0.400184 0
M  V30 3892 H 367.555 -4.67746 -1.84994 0
M  V30 3893 H 367.255 -5.85081 -0.543464 0
M  V30 3894 H 368.779 -5.9257 -1.47288 0
M  V30 3895 H 370.193 -5.67899 0.785118 0
M  V30 3896 H 368.59 -5.7925 1.56812 0
M  V30 3897 H 369.66 -4.4347 1.96118 0
M  V30 3898 N 371.003 -0.499398 -1.49478 0
M  V30 3899 C 372.28 0.108629 -1.95298 0
M  V30 3900 C 372.66 1.54282 -1.44084 0
M  V30 3901 O 372.008 2.18944 -0.653908 0
M  V30 3902 C 372.218 0.0229111 -3.48992 0
M  V30 3903 C 373.566 0.197643 -4.2414 0
M  V30 3904 O 374.59 0.0981735 -3.56065 0
M  V30 3905 O 373.449 0.401669 -5.45022 0
M  V30 3906 H 370.543 0.096181 -0.821388 0
M  V30 3907 H 373.089 -0.561822 -1.6013 0
M  V30 3908 H 371.861 -0.977321 -3.78899 0
M  V30 3909 H 371.484 0.733579 -3.90774 0
M  V30 3910 N 372.481 1.55866 -0.233164 0
M  V30 3911 C 373.727 1.98897 0.395959 0
M  V30 3912 C 374.06 1.12091 1.58585 0
M  V30 3913 O 373.335 0.181182 1.93654 0
M  V30 3914 C 373.618 3.50658 0.819224 0
M  V30 3915 C 373.471 4.48233 -0.375109 0
M  V30 3916 C 374.79 4.07135 1.67121 0
M  V30 3917 H 371.909 0.723102 0.142451 0
M  V30 3918 H 374.551 1.87082 -0.331725 0
M  V30 3919 H 372.701 3.60857 1.43925 0
M  V30 3920 H 374.373 4.50031 -1.01341 0
M  V30 3921 H 372.616 4.21624 -1.02058 0
M  V30 3922 H 373.287 5.51988 -0.0358328 0
M  V30 3923 H 375.763 3.99952 1.14795 0
M  V30 3924 H 374.639 5.13615 1.93625 0
M  V30 3925 H 374.9 3.54736 2.63846 0
M  V30 3926 N 373.959 -0.0401083 1.57549 0
M  V30 3927 C 374.891 -1.07149 2.02612 0
M  V30 3928 C 375.904 -1.33126 0.937085 0
M  V30 3929 O 377.093 -1.30808 1.21456 0
M  V30 3930 C 374.193 -2.41561 2.37701 0
M  V30 3931 C 373.366 -2.35096 3.68848 0
M  V30 3932 C 372.425 -3.51867 3.91249 0
M  V30 3933 O 371.451 -3.3186 4.62447 0
M  V30 3934 N 372.653 -4.73351 3.36035 0
M  V30 3935 H 375.418 -0.687485 2.91708 0
M  V30 3936 H 372.979 -0.228248 1.60283 0
M  V30 3937 H 374.971 -3.18379 2.49833 0
M  V30 3938 H 373.541 -2.71846 1.54332 0
M  V30 3939 H 372.761 -1.4345 3.67173 0
M  V30 3940 H 374.049 -2.27908 4.54901 0
M  V30 3941 H 373.447 -4.92507 2.78304 0
M  V30 3942 H 372.004 -5.47572 3.53565 0
M  V30 3943 N 375.437 -1.54477 -0.31217 0
M  V30 3944 C 376.37 -1.79519 -1.40884 0
M  V30 3945 C 377.348 -0.645753 -1.49227 0
M  V30 3946 O 378.532 -0.884468 -1.66461 0
M  V30 3947 C 375.659 -1.92194 -2.78889 0
M  V30 3948 C 374.705 -3.14555 -2.88023 0
M  V30 3949 S 375.538 -4.72893 -2.51262 0
M  V30 3950 C 376.694 -4.8849 -3.91317 0
M  V30 3951 H 376.927 -2.72256 -1.19432 0
M  V30 3952 H 374.46 -1.45746 -0.509654 0
M  V30 3953 H 376.418 -2.00182 -3.58382 0
M  V30 3954 H 375.079 -1.00414 -2.97617 0
M  V30 3955 H 374.272 -3.20193 -3.89221 0
M  V30 3956 H 373.874 -3.04955 -2.16514 0
M  V30 3957 H 376.166 -4.71826 -4.86196 0
M  V30 3958 H 377.109 -5.90588 -3.90656 0
M  V30 3959 H 377.517 -4.16715 -3.80801 0
M  V30 3960 N 376.915 0.57481 -1.46744 0
M  V30 3961 C 377.862 1.68329 -1.57905 0
M  V30 3962 C 378.832 1.60625 -0.422927 0
M  V30 3963 O 380.017 1.79721 -0.640711 0
M  V30 3964 C 377.157 3.06665 -1.58274 0
M  V30 3965 C 376.27 3.24935 -2.84678 0
M  V30 3966 C 375.405 4.53566 -2.76499 0
M  V30 3967 C 374.444 4.65207 -3.97806 0
M  V30 3968 N 373.581 5.85172 -3.87967 0
M  V30 3969 H 378.421 1.58127 -2.52587 0
M  V30 3970 H 375.958 0.770552 -1.25303 0
M  V30 3971 H 377.916 3.86745 -1.56473 0
M  V30 3972 H 376.546 3.15745 -0.671194 0
M  V30 3973 H 375.598 2.38405 -2.96424 0
M  V30 3974 H 376.91 3.29403 -3.7456 0
M  V30 3975 H 376.064 5.41885 -2.72848 0
M  V30 3976 H 374.803 4.51548 -1.8427 0
M  V30 3977 H 373.808 3.75304 -4.0178 0
M  V30 3978 H 375.033 4.68997 -4.9114 0
M  V30 3979 H 372.979 5.84137 -2.98529 0
M  V30 3980 H 372.896 5.90943 -4.71511 0
M  V30 3981 H 374.164 6.759 -3.88303 0
M  V30 3982 N 378.394 1.34581 0.820102 0
M  V30 3983 C 379.642 1.26845 1.57336 0
M  V30 3984 C 379.963 -0.160667 1.94337 0
M  V30 3985 O 379.233 -1.09396 1.6251 0
M  V30 3986 H 377.813 0.466514 0.583415 0
M  V30 3987 H 380.475 1.68526 0.979027 0
M  V30 3988 H 379.571 1.87513 2.4949 0
M  V30 3989 N 379.872 -1.04064 1.18357 0
M  V30 3990 C 380.782 -2.15569 0.925596 0
M  V30 3991 C 381.798 -1.7365 -0.110295 0
M  V30 3992 O 382.974 -2.01273 0.0716218 0
M  V30 3993 C 380.039 -3.43704 0.454836 0
M  V30 3994 C 379.1 -4.00004 1.55869 0
M  V30 3995 C 378.333 -5.22023 1.1103 0
M  V30 3996 O 378.556 -5.70392 -0.0309756 0
M  V30 3997 O 377.49 -5.70856 1.90805 0
M  V30 3998 H 381.316 -2.40187 1.8586 0
M  V30 3999 H 378.901 -1.1402 0.965394 0
M  V30 4000 H 380.783 -4.20923 0.200382 0
M  V30 4001 H 379.458 -3.20559 -0.449876 0
M  V30 4002 H 378.365 -3.24172 1.86716 0
M  V30 4003 H 379.698 -4.2749 2.43953 0
M  V30 4004 N 381.35 -0.985608 -1.22978 0
M  V30 4005 C 382.597 -0.657386 -1.91532 0
M  V30 4006 C 382.925 0.809707 -1.76845 0
M  V30 4007 O 382.18 1.60021 -1.12658 0
M  V30 4008 C 382.479 -1.00014 -3.43121 0
M  V30 4009 C 382.145 -2.4583 -3.77993 0
M  V30 4010 C 380.807 -2.85679 -3.87222 0
M  V30 4011 C 383.159 -3.40378 -3.94705 0
M  V30 4012 C 380.487 -4.19081 -4.10595 0
M  V30 4013 C 382.839 -4.73429 -4.1958 0
M  V30 4014 C 381.503 -5.1303 -4.27032 0
M  V30 4015 H 380.773 -0.240555 -0.700867 0
M  V30 4016 H 383.42 -1.24044 -1.45895 0
M  V30 4017 H 381.725 -0.335072 -3.90365 0
M  V30 4018 H 383.422 -0.724322 -3.94404 0
M  V30 4019 H 380.012 -2.13939 -3.71387 0
M  V30 4020 H 384.196 -3.10766 -3.8696 0
M  V30 4021 H 379.452 -4.49362 -4.14589 0
M  V30 4022 H 383.626 -5.46644 -4.31455 0
M  V30 4023 H 381.253 -6.16418 -4.44896 0
M  V30 4024 N 382.828 1.3818 -0.7579 0
M  V30 4025 C 384.058 2.04004 -0.326463 0
M  V30 4026 C 384.466 1.57286 1.05156 0
M  V30 4027 O 383.809 0.743144 1.67997 0
M  V30 4028 C 383.871 3.58444 -0.275402 0
M  V30 4029 C 383.535 4.28237 -1.59569 0
M  V30 4030 C 384.532 4.53312 -2.54566 0
M  V30 4031 C 382.217 4.66341 -1.86631 0
M  V30 4032 C 384.211 5.15531 -3.74842 0
M  V30 4033 C 381.898 5.28283 -3.0718 0
M  V30 4034 C 382.896 5.52814 -4.01106 0
M  V30 4035 O 382.584 6.13465 -5.19534 0
M  V30 4036 H 382.316 0.662026 -0.136739 0
M  V30 4037 H 384.87 1.7777 -1.02893 0
M  V30 4038 H 383.1 3.83667 0.483337 0
M  V30 4039 H 384.789 4.05701 0.127099 0
M  V30 4040 H 385.555 4.24299 -2.34936 0
M  V30 4041 H 381.434 4.46591 -1.14358 0
M  V30 4042 H 384.978 5.34594 -4.48168 0
M  V30 4043 H 380.875 5.56719 -3.26702 0
M  V30 4044 H 381.643 6.31951 -5.20173 0
M  V30 4045 N 384.306 0.507319 1.49211 0
M  V30 4046 C 385.531 -0.033725 2.07373 0
M  V30 4047 C 385.956 -1.29485 1.36437 0
M  V30 4048 O 385.314 -1.76294 0.423087 0
M  V30 4049 C 385.362 -0.263945 3.59633 0
M  V30 4050 O 384.466 -1.33737 3.90113 0
M  V30 4051 H 383.807 0.0290331 0.663365 0
M  V30 4052 H 386.337 0.708749 1.91932 0
M  V30 4053 H 386.347 -0.493536 4.05004 0
M  V30 4054 H 385.022 0.657424 4.10671 0
M  V30 4055 H 383.599 -1.09224 3.56545 0
M  V30 4056 N 385.784 -1.5574 0.241426 0
M  V30 4057 C 386.694 -2.2479 -0.671305 0
M  V30 4058 C 387.71 -1.26217 -1.19772 0
M  V30 4059 O 388.886 -1.59079 -1.23514 0
M  V30 4060 C 385.951 -2.92966 -1.85396 0
M  V30 4061 C 385.012 -4.06935 -1.36756 0
M  V30 4062 C 384.245 -4.71851 -2.49384 0
M  V30 4063 O 384.468 -4.35823 -3.67987 0
M  V30 4064 O 383.402 -5.60467 -2.19454 0
M  V30 4065 H 387.228 -3.0349 -0.112966 0
M  V30 4066 H 384.813 -1.49397 0.0101513 0
M  V30 4067 H 386.695 -3.35927 -2.54423 0
M  V30 4068 H 385.37 -2.17211 -2.40002 0
M  V30 4069 H 384.277 -3.68503 -0.644726 0
M  V30 4070 H 385.61 -4.84492 -0.867647 0
M  V30 4071 N 387.262 0.0317525 -1.57568 0
M  V30 4072 C 388.21 1.05165 -2.07468 0
M  V30 4073 C 389.204 1.3761 -0.98792 0
M  V30 4074 O 390.41 1.36546 -1.17282 0
M  V30 4075 H 386.785 0.35666 -0.66204 0
M  V30 4076 H 388.756 0.604958 -2.92203 0
M  V30 4077 C 387.505 2.34488 -2.56731 0
M  V30 4078 H 386.828 2.10383 -3.39969 0
M  V30 4079 H 388.268 3.04203 -2.95358 0
M  V30 4080 C 386.727 3.03266 -1.46736 0
M  V30 4081 O 387.257 3.92988 -0.832069 0
M  V30 4082 N 385.463 2.6455 -1.20256 0
M  V30 4083 H 385.01 1.91674 -1.72102 0
M  V30 4084 H 384.968 3.10886 -0.468737 0
M  V30 4085 N 388.74 1.54641 0.303973 0
M  V30 4086 C 389.69 1.8177 1.37636 0
M  V30 4087 C 390.674 0.674697 1.46071 0
M  V30 4088 O 391.866 0.935251 1.50273 0
M  V30 4089 C 388.995 2.06584 2.74186 0
M  V30 4090 C 388.081 3.2706 2.69986 0
M  V30 4091 N 388.472 4.47682 2.35402 0
M  V30 4092 C 386.77 3.29028 3.01092 0
M  V30 4093 C 387.471 5.29689 2.40426 0
M  V30 4094 N 386.447 4.67339 2.7766 0
M  V30 4095 H 390.249 2.72596 1.09857 0
M  V30 4096 H 387.763 1.541 0.51254 0
M  V30 4097 H 389.76 2.24166 3.51504 0
M  V30 4098 H 388.42 1.17024 3.02879 0
M  V30 4099 H 389.431 4.74336 2.07908 0
M  V30 4100 H 386.108 2.49565 3.34699 0
M  V30 4101 H 387.498 6.3606 2.16512 0
M  V30 4102 N 390.218 -0.567019 1.47046 0
M  V30 4103 C 391.168 -1.67018 1.55207 0
M  V30 4104 C 392.152 -1.55543 0.411714 0
M  V30 4105 O 393.344 -1.64192 0.661064 0
M  V30 4106 C 390.473 -3.05801 1.56014 0
M  V30 4107 C 389.559 -3.22515 2.75399 0
M  V30 4108 N 389.95 -3.09329 4.00186 0
M  V30 4109 C 388.248 -3.53493 2.71954 0
M  V30 4110 C 388.949 -3.2847 4.80086 0
M  V30 4111 N 387.925 -3.54352 4.12233 0
M  V30 4112 H 391.727 -1.55377 2.4947 0
M  V30 4113 H 389.241 -0.771503 1.42904 0
M  V30 4114 H 391.238 -3.84996 1.59949 0
M  V30 4115 H 389.898 -3.18561 0.628396 0
M  V30 4116 H 390.909 -2.86863 4.31196 0
M  V30 4117 H 387.586 -3.7284 1.87873 0
M  V30 4118 H 388.976 -3.23326 5.88991 0
M  V30 4119 N 391.696 -1.35014 -0.812953 0
M  V30 4120 C 392.644 -1.27435 -1.94585 0
M  V30 4121 C 393.638 -0.170494 -1.6854 0
M  V30 4122 O 394.844 -0.336085 -1.76835 0
M  V30 4123 H 391.219 -0.396144 -0.639198 0
M  V30 4124 H 393.19 -2.23158 -1.98098 0
M  V30 4125 C 391.939 -1.05677 -3.31252 0
M  V30 4126 H 391.262 -1.89853 -3.51846 0
M  V30 4127 H 392.702 -1.04413 -4.10943 0
M  V30 4128 C 391.161 0.239615 -3.36047 0
M  V30 4129 O 391.691 1.23759 -3.8216 0
M  V30 4130 N 389.897 0.276186 -2.89285 0
M  V30 4131 H 389.444 -0.53653 -2.51951 0
M  V30 4132 H 389.402 1.14332 -2.92875 0
M  V30 4133 N 393.175 1.03435 -1.18907 0
M  V30 4134 C 394.586 1.58195 -0.991523 0
M  V30 4135 C 394.937 1.90801 0.457081 0
M  V30 4136 O 394.062 1.70272 1.33553 0
M  V30 4137 C 394.657 2.87432 -1.79355 0
M  V30 4138 C 393.216 3.38785 -1.64017 0
M  V30 4139 C 392.363 2.12292 -1.78402 0
M  V30 4140 H 395.314 0.860299 -1.33359 0
M  V30 4141 H 395.335 3.58096 -1.28638 0
M  V30 4142 H 394.847 2.63669 -2.84781 0
M  V30 4143 H 392.948 3.67547 -0.611536 0
M  V30 4144 H 393.061 4.12186 -2.44212 0
M  V30 4145 H 391.425 2.23901 -1.2141 0
M  V30 4146 H 392.208 1.90977 -2.85277 0
M  V30 4147 N 394.653 0.992116 1.22453 0
M  V30 4148 C 396.064 0.702776 1.72968 0
M  V30 4149 C 396.415 -0.780399 1.80012 0
M  V30 4150 O 395.54 -1.61007 1.44589 0
M  V30 4151 C 396.135 1.26903 3.14135 0
M  V30 4152 C 394.694 1.02909 3.62059 0
M  V30 4153 C 393.841 1.38969 2.39964 0
M  V30 4154 H 396.792 1.16457 1.07812 0
M  V30 4155 H 396.813 0.647223 3.74955 0
M  V30 4156 H 396.325 2.34851 3.08977 0
M  V30 4157 H 394.426 -0.0337979 3.72585 0
M  V30 4158 H 394.539 1.69191 4.48231 0
M  V30 4159 H 392.903 0.808279 2.41535 0
M  V30 4160 H 393.686 2.4792 2.37467 0
M  V30 4161 N 396.131 -1.37776 0.765217 0
M  V30 4162 C 397.542 -1.82521 0.392819 0
M  V30 4163 C 397.893 -1.63789 -1.08017 0
M  V30 4164 O 397.018 -1.14542 -1.83601 0
M  V30 4165 C 397.613 -3.31358 0.706214 0
M  V30 4166 C 396.172 -3.74406 0.386952 0
M  V30 4167 C 395.319 -2.60394 0.953422 0
M  V30 4168 H 398.27 -1.2634 0.960412 0
M  V30 4169 H 398.291 -3.80498 -0.0114706 0
M  V30 4170 H 397.803 -3.44959 1.77833 0
M  V30 4171 H 395.904 -3.66377 -0.678112 0
M  V30 4172 H 396.017 -4.70749 0.890636 0
M  V30 4173 H 394.381 -2.51878 0.378064 0
M  V30 4174 H 395.164 -2.76791 2.03081 0
M  V30 4175 N 397.609 -0.515225 -1.4894 0
M  V30 4176 C 398.856 0.024215 -2.02486 0
M  V30 4177 C 399.184 1.35671 -1.39368 0
M  V30 4178 O 398.439 1.88566 -0.523574 0
M  V30 4179 C 398.738 0.210595 -3.56779 0
M  V30 4180 C 398.404 -1.04569 -4.38607 0
M  V30 4181 C 397.066 -1.39002 -4.60686 0
M  V30 4182 C 399.418 -1.88008 -4.86109 0
M  V30 4183 C 396.746 -2.568 -5.27514 0
M  V30 4184 C 399.098 -3.04972 -5.54234 0
M  V30 4185 C 397.762 -3.39768 -5.74555 0
M  V30 4186 H 397.032 0.00886088 -0.740947 0
M  V30 4187 H 399.679 -0.678263 -1.79086 0
M  V30 4188 H 397.984 0.99572 -3.78936 0
M  V30 4189 H 399.681 0.642659 -3.95817 0
M  V30 4190 H 396.271 -0.767497 -4.21672 0
M  V30 4191 H 400.455 -1.62719 -4.68867 0
M  V30 4192 H 395.711 -2.8398 -5.41447 0
M  V30 4193 H 399.885 -3.69943 -5.90013 0
M  V30 4194 H 397.512 -4.31148 -6.26112 0
M  V30 4195 N 399.087 1.5561 -0.249682 0
M  V30 4196 C 400.05 2.20217 0.635394 0
M  V30 4197 C 401.05 1.17227 1.10066 0
M  V30 4198 O 402.24 1.42292 1.00492 0
M  V30 4199 C 399.372 2.84794 1.87363 0
M  V30 4200 H 400.565 2.99814 0.0716752 0
M  V30 4201 H 398.118 1.563 -0.000153234 0
M  V30 4202 H 398.853 2.09142 2.47851 0
M  V30 4203 H 398.638 3.60241 1.5482 0
M  V30 4204 H 400.128 3.3423 2.5036 0
M  V30 4205 N 400.565 -0.0233959 1.57583 0
M  V30 4206 C 401.976 -0.56927 1.77809 0
M  V30 4207 C 402.327 -1.75284 0.881472 0
M  V30 4208 O 401.452 -2.1626 0.0777805 0
M  V30 4209 C 402.047 -1.03949 3.22459 0
M  V30 4210 C 400.606 -1.53084 3.43864 0
M  V30 4211 C 399.753 -0.471454 2.73263 0
M  V30 4212 H 402.704 0.202825 1.57399 0
M  V30 4213 H 402.725 -1.90661 3.29285 0
M  V30 4214 H 402.237 -0.177865 3.87692 0
M  V30 4215 H 400.338 -2.41414 2.83814 0
M  V30 4216 H 400.451 -1.57443 4.52491 0
M  V30 4217 H 398.815 -0.927788 2.37201 0
M  V30 4218 H 399.598 0.380808 3.41181 0
M  V30 4219 N 402.043 -1.548 -0.295768 0
M  V30 4220 C 403.454 -1.65274 -0.868411 0
M  V30 4221 C 403.805 -0.56481 -1.87894 0
M  V30 4222 O 402.93 0.29767 -2.14343 0
M  V30 4223 C 403.525 -2.99603 -1.58188 0
M  V30 4224 C 402.084 -3.12181 -2.10286 0
M  V30 4225 C 401.231 -2.6098 -0.93727 0
M  V30 4226 H 404.182 -1.58534 -0.0726422 0
M  V30 4227 H 404.203 -2.91319 -2.44772 0
M  V30 4228 H 403.715 -3.78764 -0.846151 0
M  V30 4229 H 401.816 -2.3775 -2.8689 0
M  V30 4230 H 401.929 -4.18415 -2.33379 0
M  V30 4231 H 400.293 -2.17564 -1.32431 0
M  V30 4232 H 401.076 -3.42623 -0.215414 0
M  V30 4233 N 403.521 0.559213 -1.47345 0
M  V30 4234 C 404.767 1.31843 -1.54095 0
M  V30 4235 C 405.1 1.93149 -0.201726 0
M  V30 4236 O 404.375 1.77759 0.789428 0
M  V30 4237 C 404.658 2.43006 -2.65744 0
M  V30 4238 C 404.511 1.86581 -4.09277 0
M  V30 4239 C 405.83 3.44943 -2.73318 0
M  V30 4240 H 402.949 0.478012 -0.560957 0
M  V30 4241 H 405.591 0.625977 -1.79392 0
M  V30 4242 H 403.741 3.02072 -2.44305 0
M  V30 4243 H 405.413 1.31792 -4.42073 0
M  V30 4244 H 403.656 1.17268 -4.17649 0
M  V30 4245 H 404.327 2.66933 -4.83168 0
M  V30 4246 H 406.803 2.95793 -2.92653 0
M  V30 4247 H 405.679 4.20153 -3.53218 0
M  V30 4248 H 405.94 4.03665 -1.80296 0
M  V30 4249 N 404.999 1.35443 0.805782 0
M  V30 4250 C 405.932 1.22783 1.92353 0
M  V30 4251 C 406.91 0.115543 1.62189 0
M  V30 4252 O 408.094 0.283778 1.86352 0
M  V30 4253 C 405.221 0.890746 3.26777 0
M  V30 4254 C 404.267 2.01519 3.75889 0
M  V30 4255 S 405.1 3.63101 3.93596 0
M  V30 4256 C 406.256 3.31472 5.30921 0
M  V30 4257 H 406.489 2.17394 2.02798 0
M  V30 4258 H 404.022 1.20669 0.963245 0
M  V30 4259 H 405.98 0.703068 4.04434 0
M  V30 4260 H 404.641 -0.0373152 3.14078 0
M  V30 4261 H 403.834 1.7335 4.7325 0
M  V30 4262 H 403.436 2.16124 3.05231 0
M  V30 4263 H 405.728 2.8435 6.1494 0
M  V30 4264 H 406.671 4.28036 5.64084 0
M  V30 4265 H 407.079 2.67221 4.97246 0
M  V30 4266 N 406.477 -1.02803 1.19454 0
M  V30 4267 C 407.387 -2.14575 0.948408 0
M  V30 4268 C 408.403 -1.73757 -0.091871 0
M  V30 4269 O 409.579 -2.01185 0.0929654 0
M  V30 4270 C 406.644 -3.43202 0.491265 0
M  V30 4271 C 405.705 -3.98328 1.60103 0
M  V30 4272 C 404.938 -5.20816 1.16561 0
M  V30 4273 O 405.161 -5.70392 0.0295238 0
M  V30 4274 O 404.095 -5.68801 1.96849 0
M  V30 4275 H 407.921 -2.38202 1.88397 0
M  V30 4276 H 405.506 -1.12989 0.977433 0
M  V30 4277 H 407.388 -4.20687 0.245015 0
M  V30 4278 H 406.063 -3.21018 -0.415851 0
M  V30 4279 H 404.97 -3.22174 1.90144 0
M  V30 4280 H 406.303 -4.24879 2.48473 0
M  V30 4281 N 407.956 -0.998596 -1.21925 0
M  V30 4282 C 409.203 -0.677663 -1.90824 0
M  V30 4283 C 409.531 0.790905 -1.77693 0
M  V30 4284 O 408.786 1.58817 -1.14349 0
M  V30 4285 C 409.085 -1.03648 -3.42041 0
M  V30 4286 C 408.751 -2.49825 -3.75364 0
M  V30 4287 C 407.413 -2.8977 -3.8417 0
M  V30 4288 C 409.765 -3.44545 -3.91073 0
M  V30 4289 C 407.093 -4.23412 -4.06127 0
M  V30 4290 C 409.445 -4.77853 -4.14535 0
M  V30 4291 C 408.109 -5.17531 -4.21566 0
M  V30 4292 H 407.379 -0.247975 -0.698276 0
M  V30 4293 H 410.026 -1.25584 -1.44571 0
M  V30 4294 H 408.331 -0.376457 -3.89987 0
M  V30 4295 H 410.028 -0.766113 -3.93614 0
M  V30 4296 H 406.618 -2.17866 -3.69097 0
M  V30 4297 H 410.802 -3.14853 -3.83642 0
M  V30 4298 H 406.058 -4.53734 -4.09799 0
M  V30 4299 H 410.232 -5.51189 -4.25633 0
M  V30 4300 H 407.859 -6.21102 -4.38333 0
M  V30 4301 N 409.434 1.37368 -0.772513 0
M  V30 4302 C 410.845 1.8231 -0.402493 0
M  V30 4303 C 411.196 1.6436 1.07146 0
M  V30 4304 O 410.321 1.15514 1.82991 0
M  V30 4305 C 410.916 3.30979 -0.723776 0
M  V30 4306 C 409.475 3.74195 -0.406802 0
M  V30 4307 C 408.622 2.59885 -0.967218 0
M  V30 4308 H 411.573 1.25829 -0.967099 0
M  V30 4309 H 411.594 3.80499 -0.00870832 0
M  V30 4310 H 411.106 3.44011 -1.7966 0
M  V30 4311 H 409.207 3.66732 0.658673 0
M  V30 4312 H 409.32 4.7027 -0.915588 0
M  V30 4313 H 407.684 2.51674 -0.391416 0
M  V30 4314 H 408.467 2.7571 -2.04546 0
M  V30 4315 N 410.912 0.523116 1.48665 0
M  V30 4316 C 411.875 -0.232592 2.28017 0
M  V30 4317 C 412.875 -0.874021 1.34972 0
M  V30 4318 O 414.065 -0.735132 1.57929 0
M  V30 4319 C 411.197 -1.33586 3.13636 0
M  V30 4320 H 412.39 0.464008 2.96289 0
M  V30 4321 H 409.943 0.278816 1.53793 0
M  V30 4322 H 410.678 -2.06593 2.4998 0
M  V30 4323 H 410.463 -0.881125 3.82071 0
M  V30 4324 H 411.953 -1.86759 3.73511 0
M  V30 4325 N 412.39 -1.55475 0.257931 0
M  V30 4326 C 413.353 -2.20551 -0.623706 0
M  V30 4327 C 414.353 -1.17809 -1.09443 0
M  V30 4328 O 415.543 -1.42823 -0.997362 0
M  V30 4329 C 412.675 -2.85784 -1.8585 0
M  V30 4330 H 413.868 -2.99848 -0.0557743 0
M  V30 4331 H 411.421 -1.56298 0.0084422 0
M  V30 4332 H 412.156 -2.10453 -2.46739 0
M  V30 4333 H 411.941 -3.61057 -1.52907 0
M  V30 4334 H 413.431 -3.35553 -2.48584 0
M  V30 4335 N 413.868 0.0150385 -1.57593 0
M  V30 4336 C 414.818 1.01943 -2.0394 0
M  V30 4337 C 415.802 1.31209 -0.931286 0
M  V30 4338 O 416.994 1.30559 -1.19513 0
M  V30 4339 C 414.123 2.31621 -2.53391 0
M  V30 4340 C 413.209 2.05384 -3.7105 0
M  V30 4341 N 413.6 1.49253 -4.83278 0
M  V30 4342 C 411.898 2.35601 -3.78693 0
M  V30 4343 C 412.599 1.39143 -5.64813 0
M  V30 4344 N 411.575 1.87187 -5.10355 0
M  V30 4345 H 415.377 0.57969 -2.88126 0
M  V30 4346 H 412.891 0.221056 -1.60888 0
M  V30 4347 H 414.888 3.044 -2.84862 0
M  V30 4348 H 413.548 2.76261 -1.70616 0
M  V30 4349 H 414.559 1.17334 -5.04433 0
M  V30 4350 H 411.236 2.8322 -3.06746 0
M  V30 4351 H 412.626 0.961153 -6.6499 0
M  V30 4352 N 415.346 1.54954 0.287554 0
M  V30 4353 C 416.623 1.65569 1.04146 0
M  V30 4354 C 417.003 0.512672 2.0478 0
M  V30 4355 O 416.351 -0.489038 2.23205 0
M  V30 4356 C 416.561 3.04163 1.71131 0
M  V30 4357 C 417.909 3.61429 2.22832 0
M  V30 4358 O 418.933 3.06702 1.81141 0
M  V30 4359 O 417.792 4.57281 2.9926 0
M  V30 4360 H 414.886 0.671881 0.482188 0
M  V30 4361 H 417.432 1.67297 0.28457 0
M  V30 4362 H 416.204 3.78796 0.981303 0
M  V30 4363 H 415.827 3.06271 2.53543 0
M  V30 4364 N 416.824 -0.551391 1.4764 0
M  V30 4365 C 418.24 -0.877887 1.33287 0
M  V30 4366 C 418.44 -1.98817 0.327721 0
M  V30 4367 O 417.496 -2.51171 -0.258695 0
M  V30 4368 C 418.809 -1.26563 2.72768 0
M  V30 4369 C 420.357 -1.37673 2.81097 0
M  V30 4370 C 420.832 -1.79799 4.21232 0
M  V30 4371 N 422.323 -1.8694 4.23802 0
M  V30 4372 C 423.058 -2.20876 5.29151 0
M  V30 4373 N 422.554 -2.53386 6.448 0
M  V30 4374 N 424.347 -2.217 5.16532 0
M  V30 4375 H 416.498 0.18153 2.11623 0
M  V30 4376 H 418.761 0.0185514 0.947818 0
M  V30 4377 H 418.467 -0.523591 3.47781 0
M  V30 4378 H 418.341 -2.22052 3.04915 0
M  V30 4379 H 420.728 -2.10956 2.06353 0
M  V30 4380 H 420.809 -0.40357 2.52596 0
M  V30 4381 H 420.453 -1.07083 4.96483 0
M  V30 4382 H 420.383 -2.78128 4.4716 0
M  V30 4383 H 422.874 -1.64179 3.40373 0
M  V30 4384 H 423.187 -2.78325 7.20941 0
M  V30 4385 H 421.532 -2.50953 6.48111 0
M  V30 4386 H 424.723 -1.95745 4.25207 0
M  V30 4387 H 424.896 -2.47818 5.98741 0
M  V30 4388 N 418.302 -1.35869 -0.798587 0
M  V30 4389 C 419.235 -1.23801 -1.91699 0
M  V30 4390 C 420.213 -0.124143 -1.62125 0
M  V30 4391 O 421.397 -0.293656 -1.86199 0
M  V30 4392 C 418.524 -0.908063 -3.263 0
M  V30 4393 C 417.57 -2.0351 -3.74815 0
M  V30 4394 S 418.403 -3.65183 -3.91665 0
M  V30 4395 C 419.559 -3.34283 -5.29156 0
M  V30 4396 H 419.792 -2.18466 -2.01643 0
M  V30 4397 H 417.325 -1.21178 -0.956833 0
M  V30 4398 H 419.283 -0.724506 -4.04056 0
M  V30 4399 H 417.944 0.0206584 -3.14093 0
M  V30 4400 H 417.137 -1.75858 -4.72324 0
M  V30 4401 H 416.739 -2.1774 -3.04081 0
M  V30 4402 H 419.031 -2.87607 -6.13424 0
M  V30 4403 H 419.974 -4.31022 -5.61806 0
M  V30 4404 H 420.382 -2.69854 -4.95822 0
M  V30 4405 N 419.78 1.02168 -1.19998 0
M  V30 4406 C 421.026 1.75945 -1.00852 0
M  V30 4407 C 421.359 1.88702 0.458828 0
M  V30 4408 O 420.634 1.40911 1.34069 0
M  V30 4409 C 420.917 3.18154 -1.68671 0
M  V30 4410 C 420.77 3.13224 -3.22817 0
M  V30 4411 C 422.089 4.16711 -1.41561 0
M  V30 4412 H 419.208 0.638673 -0.367785 0
M  V30 4413 H 421.85 1.19222 -1.4794 0
M  V30 4414 H 420 3.66586 -1.28636 0
M  V30 4415 H 421.672 2.72635 -3.72112 0
M  V30 4416 H 419.915 2.50751 -3.53986 0
M  V30 4417 H 420.586 4.13728 -3.65422 0
M  V30 4418 H 423.062 3.76913 -1.76284 0
M  V30 4419 H 421.938 5.14391 -1.91553 0
M  V30 4420 H 422.199 4.40774 -0.342193 0
M  V30 4421 N 421.258 1.00505 1.21394 0
M  V30 4422 C 422.488 0.705584 1.94178 0
M  V30 4423 C 422.896 -0.735846 1.74304 0
M  V30 4424 O 422.239 -1.50954 1.04683 0
M  V30 4425 C 422.301 0.94689 3.46806 0
M  V30 4426 C 421.965 2.37517 3.90429 0
M  V30 4427 C 422.962 3.35539 3.97127 0
M  V30 4428 C 420.647 2.71284 4.22742 0
M  V30 4429 C 422.641 4.65395 4.3553 0
M  V30 4430 C 420.328 4.01356 4.60822 0
M  V30 4431 C 421.326 4.98223 4.67186 0
M  V30 4432 O 421.014 6.25969 5.04399 0
M  V30 4433 H 420.746 0.259216 0.624326 0
M  V30 4434 H 423.3 1.34592 1.55159 0
M  V30 4435 H 421.53 0.249386 3.85895 0
M  V30 4436 H 423.219 0.640804 4.0081 0
M  V30 4437 H 423.985 3.10786 3.7234 0
M  V30 4438 H 419.864 1.96581 4.16985 0
M  V30 4439 H 423.408 5.41002 4.40412 0
M  V30 4440 H 419.305 4.25893 4.85063 0
M  V30 4441 H 420.073 6.30085 5.22431 0
M  V30 4442 N 422.737 -1.36956 0.779787 0
M  V30 4443 C 423.667 -2.32761 0.185651 0
M  V30 4444 C 424.648 -1.56177 -0.673989 0
M  V30 4445 O 425.833 -1.84378 -0.609797 0
M  V30 4446 C 422.963 -3.40418 -0.687964 0
M  V30 4447 C 421.917 -4.27941 0.0710102 0
M  V30 4448 C 421.243 -5.26681 -0.922573 0
M  V30 4449 C 422.543 -5.07006 1.25467 0
M  V30 4450 H 424.237 -2.82698 0.986008 0
M  V30 4451 H 421.783 -1.3592 0.475592 0
M  V30 4452 H 423.736 -4.06423 -1.11348 0
M  V30 4453 H 422.46 -2.89025 -1.52093 0
M  V30 4454 H 421.119 -3.63478 0.47739 0
M  V30 4455 H 420.767 -4.71565 -1.7503 0
M  V30 4456 H 420.467 -5.86103 -0.419237 0
M  V30 4457 H 421.991 -5.9556 -1.34686 0
M  V30 4458 H 423.405 -5.66105 0.905401 0
M  V30 4459 H 421.802 -5.75793 1.69063 0
M  V30 4460 H 422.872 -4.3921 2.05481 0
M  V30 4461 N 424.215 -0.530993 -1.48385 0
M  V30 4462 C 425.463 0.00273189 -2.021 0
M  V30 4463 C 425.784 1.34672 -1.41027 0
M  V30 4464 O 425.054 1.8724 -0.576012 0
M  V30 4465 H 423.634 0.00399774 -0.746989 0
M  V30 4466 H 426.296 -0.695054 -1.82085 0
M  V30 4467 H 425.392 0.11031 -3.11905 0
M  V30 4468 N 425.693 1.55336 -0.266172 0
M  V30 4469 C 426.623 2.25146 0.618981 0
M  V30 4470 C 427.604 1.23845 1.16604 0
M  V30 4471 O 428.789 1.52544 1.20183 0
M  V30 4472 C 425.919 2.96572 1.80728 0
M  V30 4473 C 424.873 4.04726 1.39215 0
M  V30 4474 C 424.199 4.63678 2.66283 0
M  V30 4475 C 425.499 5.19407 0.548942 0
M  V30 4476 H 427.193 2.99377 0.0368116 0
M  V30 4477 H 424.739 1.43991 0.0162651 0
M  V30 4478 H 426.692 3.44116 2.43232 0
M  V30 4479 H 425.416 2.19861 2.41514 0
M  V30 4480 H 424.075 3.57979 0.790351 0
M  V30 4481 H 423.723 3.83646 3.25308 0
M  V30 4482 H 423.423 5.367 2.39222 0
M  V30 4483 H 424.947 5.13967 3.29651 0
M  V30 4484 H 426.361 5.63059 1.07876 0
M  V30 4485 H 424.758 5.98936 0.373593 0
M  V30 4486 H 425.828 4.8295 -0.434394 0
M  V30 4487 N 427.171 -0.0066808 1.57599 0
M  V30 4488 C 428.396 -0.707738 1.94951 0
M  V30 4489 C 428.821 -1.66882 0.867868 0
M  V30 4490 O 428.179 -1.80457 -0.17458 0
M  V30 4491 C 428.227 -1.42162 3.31394 0
M  V30 4492 O 427.331 -2.53578 3.25226 0
M  V30 4493 H 426.672 -0.188752 0.636607 0
M  V30 4494 H 429.202 0.0445193 2.04552 0
M  V30 4495 H 429.212 -1.78655 3.66806 0
M  V30 4496 H 427.887 -0.716903 4.09675 0
M  V30 4497 H 426.464 -2.19463 3.01481 0
M  V30 4498 N 428.649 -1.55105 -0.279332 0
M  V30 4499 C 429.926 -1.66119 -1.03267 0
M  V30 4500 C 430.306 -0.523525 -2.04505 0
M  V30 4501 O 429.654 0.477194 -2.23462 0
M  V30 4502 C 429.864 -3.05067 -1.69515 0
M  V30 4503 C 431.212 -3.62606 -2.20912 0
M  V30 4504 O 432.236 -3.07659 -1.79512 0
M  V30 4505 O 431.095 -4.58861 -2.96831 0
M  V30 4506 H 428.189 -0.674429 -0.478618 0
M  V30 4507 H 430.735 -1.67446 -0.275694 0
M  V30 4508 H 429.507 -3.79311 -0.9612 0
M  V30 4509 H 429.13 -3.07611 -2.51915 0
M  V30 4510 N 430.127 0.543554 -1.4793 0
M  V30 4511 C 431.357 1.32324 -1.58663 0
M  V30 4512 C 431.765 1.8766 -0.240896 0
M  V30 4513 O 431.108 1.66411 0.778011 0
M  V30 4514 C 431.17 2.52094 -2.56299 0
M  V30 4515 C 430.834 2.17944 -4.01683 0
M  V30 4516 C 431.831 1.74422 -4.89768 0
M  V30 4517 C 429.516 2.28884 -4.47121 0
M  V30 4518 C 431.51 1.42287 -6.21316 0
M  V30 4519 C 429.197 1.96361 -5.78693 0
M  V30 4520 C 430.195 1.53132 -6.65612 0
M  V30 4521 O 429.883 1.21029 -7.94737 0
M  V30 4522 H 429.615 0.409174 -0.538101 0
M  V30 4523 H 432.169 0.663887 -1.94375 0
M  V30 4524 H 430.399 3.20965 -2.15681 0
M  V30 4525 H 432.088 3.14165 -2.57012 0
M  V30 4526 H 432.854 1.65452 -4.55907 0
M  V30 4527 H 428.733 2.61488 -3.79664 0
M  V30 4528 H 432.277 1.08472 -6.89115 0
M  V30 4529 H 428.174 2.04967 -6.12094 0
M  V30 4530 H 428.942 1.34543 -8.07366 0
M  V30 4531 N 431.605 1.3629 0.791371 0
M  V30 4532 C 432.852 1.30412 1.54916 0
M  V30 4533 C 433.18 -0.117162 1.94147 0
M  V30 4534 O 432.435 -1.08599 1.62803 0
M  V30 4535 C 432.734 2.17068 2.8393 0
M  V30 4536 C 432.4 3.65645 2.63846 0
M  V30 4537 C 431.062 4.0614 2.58077 0
M  V30 4538 C 433.414 4.59855 2.45322 0
M  V30 4539 C 430.742 5.3899 2.31748 0
M  V30 4540 C 433.094 5.9292 2.2052 0
M  V30 4541 C 431.758 6.32542 2.13183 0
M  V30 4542 H 431.028 0.47721 0.566879 0
M  V30 4543 H 433.675 1.68325 0.913172 0
M  V30 4544 H 431.98 1.72085 3.51986 0
M  V30 4545 H 433.677 2.09846 3.4171 0
M  V30 4546 H 430.267 3.33518 2.69191 0
M  V30 4547 H 434.451 4.29443 2.48782 0
M  V30 4548 H 429.707 5.68672 2.24548 0
M  V30 4549 H 433.881 6.65487 2.05182 0
M  V30 4550 H 431.508 7.35412 1.92544 0
M  V30 4551 N 433.083 -1.0153 1.20538 0
M  V30 4552 C 434.33 -1.75149 1.01633 0
M  V30 4553 C 434.658 -1.89189 -0.451399 0
M  V30 4554 O 433.913 -1.41551 -1.35136 0
M  V30 4555 C 434.212 -3.17213 1.64654 0
M  V30 4556 C 433.878 -3.23146 3.14464 0
M  V30 4557 C 432.54 -3.24472 3.55347 0
M  V30 4558 C 434.892 -3.21207 4.10458 0
M  V30 4559 C 432.22 -3.21532 4.90748 0
M  V30 4560 C 434.572 -3.19808 5.45807 0
M  V30 4561 C 433.236 -3.19439 5.86102 0
M  V30 4562 H 432.506 -0.640914 0.3719 0
M  V30 4563 H 435.153 -1.19071 1.49981 0
M  V30 4564 H 433.458 -3.76457 1.08571 0
M  V30 4565 H 435.155 -3.72871 1.4754 0
M  V30 4566 H 431.745 -3.2285 2.81897 0
M  V30 4567 H 435.929 -3.19351 3.79906 0
M  V30 4568 H 431.185 -3.19578 5.21229 0
M  V30 4569 H 435.359 -3.1726 6.19935 0
M  V30 4570 H 432.986 -3.16915 6.90991 0
M  V30 4571 N 434.561 -1.01147 -1.20859 0
M  V30 4572 C 435.509 -0.57059 -2.25493 0
M  V30 4573 C 436.503 0.388109 -1.64894 0
M  V30 4574 O 437.709 0.258592 -1.78133 0
M  V30 4575 H 434.084 -0.166191 -0.733406 0
M  V30 4576 H 436.055 -1.46411 -2.60012 0
M  V30 4577 C 434.804 0.0805241 -3.47607 0
M  V30 4578 H 434.127 -0.648156 -3.94511 0
M  V30 4579 H 435.567 0.352197 -4.22535 0
M  V30 4580 C 434.026 1.32175 -3.09889 0
M  V30 4581 O 434.556 2.41553 -3.20959 0
M  V30 4582 N 432.762 1.20392 -2.64488 0
M  V30 4583 H 432.309 0.313905 -2.5568 0
M  V30 4584 H 432.267 2.03541 -2.39621 0
M  V30 4585 N 436.039 1.36541 -0.78704 0
M  V30 4586 C 437.267 2.03561 -0.370199 0
M  V30 4587 C 437.682 1.59347 1.01263 0
M  V30 4588 O 437.039 0.781781 1.64907 0
M  V30 4589 C 437.09 3.59033 -0.421614 0
M  V30 4590 O 436.811 4.01634 -1.7499 0
M  V30 4591 C 438.312 4.433 0.00489763 0
M  V30 4592 H 435.532 0.653346 -0.152904 0
M  V30 4593 H 438.076 1.74566 -1.06522 0
M  V30 4594 H 436.231 3.86746 0.224971 0
M  V30 4595 H 436.645 4.96217 -1.69909 0
M  V30 4596 H 438.119 5.51939 -0.0822184 0
M  V30 4597 H 438.596 4.26285 1.05723 0
M  V30 4598 H 439.202 4.20843 -0.614085 0
M  V30 4599 N 437.518 0.538854 1.48102 0
M  V30 4600 C 438.481 -0.208395 2.28251 0
M  V30 4601 C 439.481 -0.859656 1.35892 0
M  V30 4602 O 440.671 -0.71834 1.58699 0
M  V30 4603 C 437.803 -1.30252 3.15035 0
M  V30 4604 H 438.996 0.495407 2.9578 0
M  V30 4605 H 436.549 0.295112 1.53489 0
M  V30 4606 H 437.284 -2.0393 2.52157 0
M  V30 4607 H 437.069 -0.840551 3.82985 0
M  V30 4608 H 438.559 -1.82787 3.75471 0
M  V30 4609 N 438.996 -1.55193 0.274407 0
M  V30 4610 C 440.244 -1.99187 -0.341902 0
M  V30 4611 C 440.565 -1.16422 -1.56431 0
M  V30 4612 O 439.835 -0.253573 -1.94252 0
M  V30 4613 H 438.415 -0.735721 -0.129317 0
M  V30 4614 H 441.077 -1.91168 0.379578 0
M  V30 4615 H 440.173 -3.05629 -0.632253 0
M  V30 4616 N 440.474 -0.00167713 -1.576 0
M  V30 4617 C 441.404 0.988091 -2.11563 0
M  V30 4618 C 442.385 1.35736 -1.02517 0
M  V30 4619 O 443.57 1.44082 -1.30208 0
M  V30 4620 C 440.7 2.27941 -2.62031 0
M  V30 4621 C 439.654 2.0517 -3.75619 0
M  V30 4622 C 438.98 3.4033 -4.12407 0
M  V30 4623 C 440.28 1.41294 -5.02825 0
M  V30 4624 H 441.974 0.538771 -2.94513 0
M  V30 4625 H 439.52 0.257712 -1.41675 0
M  V30 4626 H 441.473 2.97539 -2.9841 0
M  V30 4627 H 440.197 2.74989 -1.76205 0
M  V30 4628 H 438.856 1.37998 -3.39635 0
M  V30 4629 H 438.504 3.85085 -3.23603 0
M  V30 4630 H 438.204 3.25909 -4.88935 0
M  V30 4631 H 439.728 4.1124 -4.51347 0
M  V30 4632 H 441.142 2.00851 -5.36965 0
M  V30 4633 H 439.539 1.37356 -5.84169 0
M  V30 4634 H 440.609 0.382362 -4.8339 0
M  V30 4635 N 441.952 1.55251 0.271103 0
M  V30 4636 C 443.198 1.76207 1.00394 0
M  V30 4637 C 443.531 0.562604 1.85872 0
M  V30 4638 O 442.806 -0.439785 1.89463 0
M  V30 4639 C 443.089 3.06828 1.8849 0
M  V30 4640 C 442.942 4.37134 1.05992 0
M  V30 4641 C 444.261 3.33503 2.87165 0
M  V30 4642 H 441.38 0.641086 0.363562 0
M  V30 4643 H 444.022 1.87982 0.276189 0
M  V30 4644 H 442.172 2.96921 2.5054 0
M  V30 4645 H 443.844 4.59001 0.459978 0
M  V30 4646 H 442.087 4.32275 0.363443 0
M  V30 4647 H 442.758 5.2486 1.70955 0
M  V30 4648 H 445.234 3.43215 2.3525 0
M  V30 4649 H 444.11 4.2616 3.45946 0
M  V30 4650 H 444.371 2.53235 3.62387 0
M  V30 4651 N 443.43 -0.535701 1.48216 0
M  V30 4652 C 444.66 -1.3148 1.59363 0
M  V30 4653 C 445.068 -1.8753 0.250844 0
M  V30 4654 O 444.411 -1.66821 -0.769174 0
M  V30 4655 C 444.473 -2.50731 2.57632 0
M  V30 4656 C 444.137 -2.15811 4.02833 0
M  V30 4657 C 445.134 -1.71822 4.90686 0
M  V30 4658 C 442.819 -2.26509 4.48329 0
M  V30 4659 C 444.813 -1.3899 6.22062 0
M  V30 4660 C 442.5 -1.93289 5.79726 0
M  V30 4661 C 443.498 -1.49599 6.66415 0
M  V30 4662 O 443.186 -1.16812 7.95368 0
M  V30 4663 H 442.918 -0.406315 0.540263 0
M  V30 4664 H 445.472 -0.653569 1.94725 0
M  V30 4665 H 443.702 -3.19817 2.1738 0
M  V30 4666 H 445.391 -3.12797 2.58675 0
M  V30 4667 H 446.157 -1.63031 4.56778 0
M  V30 4668 H 442.036 -2.59471 3.81045 0
M  V30 4669 H 445.58 -1.04816 6.89681 0
M  V30 4670 H 441.477 -2.01718 6.13172 0
M  V30 4671 H 442.245 -1.30259 8.08069 0
M  V30 4672 N 444.908 -1.36708 -0.784132 0
M  V30 4673 C 445.84 -1.27333 -1.90575 0
M  V30 4674 C 446.853 -0.191706 -1.61667 0
M  V30 4675 O 448.042 -0.446854 -1.72816 0
M  V30 4676 C 445.142 -0.943177 -3.25511 0
M  V30 4677 C 444.315 -2.12776 -3.82158 0
M  V30 4678 C 443.374 -1.76983 -4.95544 0
M  V30 4679 O 442.4 -2.49134 -5.11782 0
M  V30 4680 N 443.602 -0.706624 -5.76183 0
M  V30 4681 H 446.367 -2.23974 -1.99138 0
M  V30 4682 H 443.928 -1.30171 -0.962656 0
M  V30 4683 H 445.92 -0.684799 -3.98864 0
M  V30 4684 H 444.49 -0.0657333 -3.12531 0
M  V30 4685 H 443.71 -2.54863 -3.0073 0
M  V30 4686 H 444.998 -2.91904 -4.16737 0
M  V30 4687 H 444.396 -0.107643 -5.65598 0
M  V30 4688 H 442.953 -0.50808 -6.49817 0
M  V30 4689 N 446.386 1.0089 -1.21074 0
M  V30 4690 C 447.296 2.13039 -0.982425 0
M  V30 4691 C 448.312 1.73881 0.0642161 0
M  V30 4692 O 449.488 2.01012 -0.12496 0
M  V30 4693 C 446.553 3.42377 -0.545803 0
M  V30 4694 C 445.614 3.95731 -1.6642 0
M  V30 4695 C 444.847 5.18896 -1.24832 0
M  V30 4696 O 445.07 5.70273 -0.120265 0
M  V30 4697 O 444.004 5.65597 -2.05873 0
M  V30 4698 H 447.83 2.35175 -1.92163 0
M  V30 4699 H 445.415 1.1142 -0.995285 0
M  V30 4700 H 447.297 4.20244 -0.311912 0
M  V30 4701 H 445.972 3.21639 0.364727 0
M  V30 4702 H 444.879 3.19108 -1.95246 0
M  V30 4703 H 446.212 4.20872 -2.55201 0
M  V30 4704 N 447.864 1.01787 1.20321 0
M  V30 4705 C 448.827 0.593972 2.2137 0
M  V30 4706 C 449.827 -0.336553 1.57239 0
M  V30 4707 O 451.017 -0.125069 1.7375 0
M  V30 4708 C 448.149 -0.132433 3.40643 0
M  V30 4709 H 449.342 1.48791 2.60387 0
M  V30 4710 H 446.895 0.807803 1.33807 0
M  V30 4711 H 447.63 -1.04123 3.0713 0
M  V30 4712 H 447.415 0.53605 3.88418 0
M  V30 4713 H 448.905 -0.416314 4.1552 0
M  V30 4714 N 449.342 -1.36122 0.79427 0
M  V30 4715 C 450.59 -1.98718 0.368177 0
M  V30 4716 C 450.911 -1.63345 -1.06506 0
M  V30 4717 O 450.181 -0.909825 -1.73491 0
M  V30 4718 H 448.761 -0.735038 0.133146 0
M  V30 4719 H 451.423 -1.66239 1.01739 0
M  V30 4720 H 450.519 -3.08633 0.463923 0
M  V30 4721 N 450.82 -0.546701 -1.47814 0
M  V30 4722 C 452.066 -0.0187684 -2.02791 0
M  V30 4723 C 452.399 1.32338 -1.42128 0
M  V30 4724 O 451.674 1.85867 -0.573023 0
M  V30 4725 C 451.957 0.0854985 -3.59998 0
M  V30 4726 C 451.81 -1.283 -4.31114 0
M  V30 4727 C 453.129 0.80412 -4.32691 0
M  V30 4728 H 450.248 -0.0082946 -0.736953 0
M  V30 4729 H 452.89 -0.706962 -1.76358 0
M  V30 4730 H 451.04 0.671609 -3.82651 0
M  V30 4731 H 452.712 -1.91151 -4.19832 0
M  V30 4732 H 450.955 -1.86049 -3.91878 0
M  V30 4733 H 451.626 -1.16287 -5.39612 0
M  V30 4734 H 454.102 0.306576 -4.14969 0
M  V30 4735 H 452.978 0.846011 -5.42341 0
M  V30 4736 H 453.239 1.85802 -4.01161 0
M  V30 4737 N 452.299 1.55045 -0.282633 0
M  V30 4738 C 453.229 2.2579 0.595066 0
M  V30 4739 C 454.21 1.25074 1.15284 0
M  V30 4740 O 455.395 1.5381 1.18559 0
M  V30 4741 C 452.525 2.98472 1.77572 0
M  V30 4742 C 451.479 4.0618 1.34914 0
M  V30 4743 C 450.805 4.66477 2.6135 0
M  V30 4744 C 452.105 5.1996 0.493821 0
M  V30 4745 H 453.799 2.994 0.00505653 0
M  V30 4746 H 451.345 1.44 0.000992001 0
M  V30 4747 H 453.298 3.46677 2.39568 0
M  V30 4748 H 452.022 2.2241 2.39168 0
M  V30 4749 H 450.681 3.58797 0.752338 0
M  V30 4750 H 450.329 3.87074 3.2122 0
M  V30 4751 H 450.029 5.39207 2.33516 0
M  V30 4752 H 451.553 5.17435 3.24181 0
M  V30 4753 H 452.967 5.64172 1.01898 0
M  V30 4754 H 451.364 5.99299 0.310047 0
M  V30 4755 H 452.434 4.82462 -0.485593 0
M  V30 4756 N 453.777 0.010035 1.57597 0
M  V30 4757 C 454.724 -0.978122 2.09049 0
M  V30 4758 C 455.694 -1.33509 0.988159 0
M  V30 4759 O 456.879 -1.43172 1.26121 0
M  V30 4760 C 454.019 -2.26158 2.60666 0
M  V30 4761 C 453.132 -1.96275 3.84838 0
M  V30 4762 C 452.267 -3.18776 4.24918 0
M  V30 4763 C 451.306 -2.84625 5.41899 0
M  V30 4764 N 450.443 -3.99693 5.77226 0
M  V30 4765 H 455.283 -0.532431 2.93205 0
M  V30 4766 H 452.82 -0.251234 1.44939 0
M  V30 4767 H 454.778 -3.01202 2.88675 0
M  V30 4768 H 453.408 -2.68378 1.79369 0
M  V30 4769 H 452.46 -1.11555 3.63675 0
M  V30 4770 H 453.772 -1.67111 4.69974 0
M  V30 4771 H 452.926 -4.02157 4.54262 0
M  V30 4772 H 451.665 -3.51087 3.38511 0
M  V30 4773 H 450.67 -1.99653 5.12268 0
M  V30 4774 H 451.895 -2.53551 6.29991 0
M  V30 4775 H 449.841 -4.31882 4.93776 0
M  V30 4776 H 449.758 -3.74087 6.56959 0
M  V30 4777 H 451.026 -4.83834 6.11167 0
M  V30 4778 N 455.255 -1.55392 -0.262866 0
M  V30 4779 C 456.188 -1.8391 -1.35101 0
M  V30 4780 C 457.166 -0.692901 -1.47097 0
M  V30 4781 O 458.35 -0.936979 -1.63563 0
M  V30 4782 C 455.477 -2.00969 -2.72634 0
M  V30 4783 C 454.523 -3.23559 -2.7787 0
M  V30 4784 S 455.356 -4.80647 -2.3609 0
M  V30 4785 C 456.512 -5.00692 -3.75578 0
M  V30 4786 H 456.745 -2.75918 -1.1071 0
M  V30 4787 H 454.278 -1.47294 -0.463029 0
M  V30 4788 H 456.236 -2.11482 -3.51832 0
M  V30 4789 H 454.897 -1.09832 -2.94272 0
M  V30 4790 H 454.09 -3.32413 -3.78837 0
M  V30 4791 H 453.692 -3.11689 -2.06702 0
M  V30 4792 H 455.984 -4.87055 -4.70939 0
M  V30 4793 H 456.927 -6.02717 -3.71669 0
M  V30 4794 H 457.335 -4.28619 -3.6735 0
M  V30 4795 N 456.733 0.527833 -1.48498 0
M  V30 4796 C 457.961 1.30823 -1.6029 0
M  V30 4797 C 458.376 1.86945 -0.263974 0
M  V30 4798 O 457.733 1.6651 0.747034 0
M  V30 4799 C 457.784 2.45756 -2.65116 0
M  V30 4800 O 457.505 1.91946 -3.93813 0
M  V30 4801 C 459.006 3.37543 -2.87367 0
M  V30 4802 H 456.226 0.397763 -0.540394 0
M  V30 4803 H 458.77 0.636529 -1.94341 0
M  V30 4804 H 456.925 3.08806 -2.33917 0
M  V30 4805 H 457.339 2.67195 -4.51339 0
M  V30 4806 H 458.813 4.14532 -3.6451 0
M  V30 4807 H 459.29 3.92905 -1.9627 0
M  V30 4808 H 459.896 2.80283 -3.19878 0
M  V30 4809 N 458.211 1.37122 0.776871 0
M  V30 4810 C 459.141 1.35164 1.90402 0
M  V30 4811 C 460.122 0.221069 1.68657 0
M  V30 4812 O 461.307 0.420642 1.8959 0
M  V30 4813 C 458.437 1.15274 3.27611 0
M  V30 4814 C 457.391 2.25289 3.63908 0
M  V30 4815 C 456.717 1.90527 4.99603 0
M  V30 4816 C 458.017 3.67446 3.71188 0
M  V30 4817 H 459.711 2.29482 1.92297 0
M  V30 4818 H 457.257 1.10465 0.923773 0
M  V30 4819 H 459.21 1.12536 4.06096 0
M  V30 4820 H 457.934 0.174102 3.26136 0
M  V30 4821 H 456.593 2.27174 2.87728 0
M  V30 4822 H 456.241 0.91206 4.94662 0
M  V30 4823 H 455.941 2.64193 5.24858 0
M  V30 4824 H 457.465 1.89367 5.80493 0
M  V30 4825 H 458.879 3.67719 4.39836 0
M  V30 4826 H 457.276 4.40123 4.07936 0
M  V30 4827 H 458.346 4.01443 2.71977 0
M  V30 4828 N 459.689 -1.00246 1.21608 0
M  V30 4829 C 461.105 -1.26435 0.973975 0
M  V30 4830 C 461.305 -1.98642 -0.338143 0
M  V30 4831 O 460.361 -2.29026 -1.06317 0
M  V30 4832 C 461.674 -2.08551 2.16626 0
M  V30 4833 C 463.222 -2.21769 2.20879 0
M  V30 4834 C 463.697 -3.07267 3.39633 0
M  V30 4835 N 465.188 -3.14855 3.39736 0
M  V30 4836 C 465.923 -3.81274 4.28273 0
M  V30 4837 N 465.419 -4.497 5.27012 0
M  V30 4838 N 467.212 -3.7794 4.16074 0
M  V30 4839 H 459.363 -0.518089 2.05984 0
M  V30 4840 H 461.626 -0.291368 0.902113 0
M  V30 4841 H 461.332 -1.62847 3.11727 0
M  V30 4842 H 461.206 -3.09303 2.15897 0
M  V30 4843 H 463.593 -2.66691 1.26332 0
M  V30 4844 H 463.674 -1.20478 2.25652 0
M  V30 4845 H 463.318 -2.63047 4.34475 0
M  V30 4846 H 463.248 -4.08678 3.321 0
M  V30 4847 H 465.739 -2.66147 2.6828 0
M  V30 4848 H 466.052 -4.98092 5.90867 0
M  V30 4849 H 464.397 -4.48479 5.30935 0
M  V30 4850 H 467.588 -3.23638 3.38195 0
M  V30 4851 H 467.761 -4.29424 4.85282 0
M  V30 4852 N 461.167 -1.02423 -1.1978 0
M  V30 4853 C 462.444 -0.632802 -1.85081 0
M  V30 4854 C 462.824 0.888745 -1.9148 0
M  V30 4855 O 462.172 1.78357 -1.42832 0
M  V30 4856 C 462.382 -1.28947 -3.24305 0
M  V30 4857 C 463.73 -1.40976 -4.00513 0
M  V30 4858 O 464.754 -1.24628 -3.33686 0
M  V30 4859 O 463.613 -1.67467 -5.20209 0
M  V30 4860 H 460.707 -0.219348 -0.79738 0
M  V30 4861 H 463.253 -1.12209 -1.27307 0
M  V30 4862 H 462.025 -2.3288 -3.14456 0
M  V30 4863 H 461.648 -0.787748 -3.89718 0
M  V30 4864 N 462.645 1.35699 -0.801477 0
M  V30 4865 C 463.922 1.9324 -0.302937 0
M  V30 4866 C 464.302 1.73209 1.20672 0
M  V30 4867 O 463.65 1.09809 2.00385 0
M  V30 4868 C 463.86 3.41728 -0.708747 0
M  V30 4869 C 465.208 4.18868 -0.695328 0
M  V30 4870 O 466.232 3.5022 -0.649971 0
M  V30 4871 O 465.091 5.41342 -0.749081 0
M  V30 4872 H 462.185 0.82331 -0.0780367 0
M  V30 4873 H 464.731 1.44806 -0.884832 0
M  V30 4874 H 463.503 3.50015 -1.74944 0
M  V30 4875 H 463.126 3.97471 -0.101384 0
M  V30 4876 N 464.123 0.554532 1.47522 0
M  V30 4877 C 465.056 -0.242442 2.26908 0
M  V30 4878 C 466.034 -0.922722 1.33883 0
M  V30 4879 O 467.218 -0.942244 1.63261 0
M  V30 4880 C 464.345 -1.34525 3.10839 0
M  V30 4881 C 463.391 -0.773805 4.19422 0
M  V30 4882 S 464.224 0.377525 5.34168 0
M  V30 4883 C 465.38 -0.727164 6.21662 0
M  V30 4884 H 465.613 0.431218 2.94156 0
M  V30 4885 H 463.146 0.3408 1.50592 0
M  V30 4886 H 465.104 -1.97683 3.59766 0
M  V30 4887 H 463.765 -1.99073 2.42958 0
M  V30 4888 H 462.958 -1.60187 4.77866 0
M  V30 4889 H 462.56 -0.218448 3.73361 0
M  V30 4890 H 464.852 -1.61992 6.57849 0
M  V30 4891 H 465.795 -0.180135 7.07871 0
M  V30 4892 H 466.203 -1.01863 5.55233 0
M  V30 4893 N 465.601 -1.54893 0.290851 0
M  V30 4894 C 466.85 -1.99111 -0.322113 0
M  V30 4895 C 467.163 -1.18283 -1.55784 0
M  V30 4896 O 468.369 -1.5272 -2.24475 0
M  V30 4897 C 466.825 -3.54442 -0.624438 0
M  V30 4898 C 466.433 -4.44066 0.592373 0
M  V30 4899 C 468.177 -4.07211 -1.19916 0
M  V30 4900 C 466.084 -5.90812 0.263762 0
M  V30 4901 H 465.014 -0.743712 -0.124133 0
M  V30 4902 H 467.665 -1.79132 0.39797 0
M  V30 4903 H 466.047 -3.70281 -1.40384 0
M  V30 4904 H 467.221 -4.39999 1.36886 0
M  V30 4905 H 465.536 -4.02015 1.08502 0
M  V30 4906 H 468.133 -5.14407 -1.45909 0
M  V30 4907 H 468.476 -3.57196 -2.13815 0
M  V30 4908 H 469.009 -3.94873 -0.481687 0
M  V30 4909 H 465.748 -6.44955 1.17105 0
M  V30 4910 H 465.268 -5.97911 -0.475655 0
M  V30 4911 H 466.947 -6.46852 -0.138354 0
M  V30 4912 N 467.08 -0.0183926 -1.57589 0
M  V30 4913 C 468.491 0.521927 -1.79256 0
M  V30 4914 C 468.842 1.72885 -0.927636 0
M  V30 4915 O 467.967 2.15978 -0.135091 0
M  V30 4916 C 468.562 0.953632 -3.25102 0
M  V30 4917 C 467.121 1.43913 -3.47801 0
M  V30 4918 C 466.268 0.398837 -2.74417 0
M  V30 4919 H 469.219 -0.244485 -1.56805 0
M  V30 4920 H 469.24 1.81863 -3.34224 0
M  V30 4921 H 468.752 0.0750123 -3.88028 0
M  V30 4922 H 466.853 2.33804 -2.90115 0
M  V30 4923 H 466.966 1.45391 -4.56507 0
M  V30 4924 H 465.33 0.864572 -2.39577 0
M  V30 4925 H 466.113 -0.471132 -3.40052 0
M  V30 4926 N 468.558 1.5553 0.254621 0
M  V30 4927 C 469.505 1.89666 1.31512 0
M  V30 4928 C 470.475 0.750057 1.482 0
M  V30 4929 O 471.66 1.00301 1.62309 0
M  V30 4930 C 468.8 2.19009 2.667 0
M  V30 4931 C 467.913 3.46435 2.58083 0
M  V30 4932 C 467.048 3.65386 3.85573 0
M  V30 4933 C 466.087 4.8644 3.71541 0
M  V30 4934 N 465.224 5.01952 4.90906 0
M  V30 4935 H 470.064 2.80109 1.017 0
M  V30 4936 H 467.601 1.38666 0.490938 0
M  V30 4937 H 469.559 2.34025 3.45381 0
M  V30 4938 H 468.189 1.31779 2.94676 0
M  V30 4939 H 467.241 3.39792 1.71013 0
M  V30 4940 H 468.553 4.35258 2.43622 0
M  V30 4941 H 467.707 3.80319 4.72697 0
M  V30 4942 H 466.446 2.74781 4.02922 0
M  V30 4943 H 465.451 4.71491 2.82801 0
M  V30 4944 H 466.676 5.78497 3.55694 0
M  V30 4945 H 464.622 4.14283 5.08631 0
M  V30 4946 H 464.539 5.84851 4.79046 0
M  V30 4947 H 465.807 5.21289 5.7955 0
M  V30 4948 N 470.036 -0.519951 1.48776 0
M  V30 4949 C 470.946 -1.65025 1.66745 0
M  V30 4950 C 471.962 -1.6508 0.549954 0
M  V30 4951 O 473.138 -1.83848 0.822295 0
M  V30 4952 C 470.203 -3.0146 1.71238 0
M  V30 4953 C 469.264 -3.12182 2.94688 0
M  V30 4954 C 468.497 -4.42109 2.98958 0
M  V30 4955 O 468.72 -5.29799 2.1135 0
M  V30 4956 O 467.654 -4.57406 3.91233 0
M  V30 4957 H 471.48 -1.52801 2.62461 0
M  V30 4958 H 469.065 -0.694157 1.32294 0
M  V30 4959 H 470.947 -3.82584 1.76657 0
M  V30 4960 H 469.622 -3.13988 0.786975 0
M  V30 4961 H 468.529 -2.30316 2.94797 0
M  V30 4962 H 469.862 -3.04574 3.86646 0
M  V30 4963 N 471.514 -1.37532 -0.769588 0
M  V30 4964 C 472.739 -1.36231 -1.56384 0
M  V30 4965 C 473.164 0.0495849 -1.88035 0
M  V30 4966 O 472.522 1.02723 -1.49391 0
M  V30 4967 C 472.57 -2.20986 -2.84952 0
M  V30 4968 O 471.674 -1.61597 -3.79421 0
M  V30 4969 H 471.015 -0.465387 -0.473615 0
M  V30 4970 H 473.545 -1.81085 -0.952342 0
M  V30 4971 H 473.555 -2.34277 -3.34034 0
M  V30 4972 H 472.23 -3.23612 -2.61243 0
M  V30 4973 H 470.807 -1.57359 -3.38072 0
M  V30 4974 N 472.992 0.995999 -1.22138 0
M  V30 4975 C 473.939 2.08551 -0.988687 0
M  V30 4976 C 474.909 1.65864 0.0885021 0
M  V30 4977 O 476.094 1.90704 -0.0604589 0
M  V30 4978 C 473.234 3.40374 -0.569191 0
M  V30 4979 C 472.347 3.96421 -1.71681 0
M  V30 4980 C 471.482 5.1639 -1.2456 0
M  V30 4981 C 470.521 5.64567 -2.36497 0
M  V30 4982 N 469.658 6.75777 -1.90445 0
M  V30 4983 H 474.498 2.2779 -1.92135 0
M  V30 4984 H 472.035 1.1168 -0.957388 0
M  V30 4985 H 473.993 4.16068 -0.307166 0
M  V30 4986 H 472.623 3.21145 0.326462 0
M  V30 4987 H 471.675 3.17628 -2.09324 0
M  V30 4988 H 472.987 4.2816 -2.55891 0
M  V30 4989 H 472.141 5.99362 -0.940774 0
M  V30 4990 H 470.88 4.86266 -0.373662 0
M  V30 4991 H 469.885 4.80185 -2.67772 0
M  V30 4992 H 471.11 5.96716 -3.24202 0
M  V30 4993 H 469.056 6.47443 -1.05609 0
M  V30 4994 H 468.973 7.06818 -2.68223 0
M  V30 4995 H 470.241 7.62262 -1.63022 0
M  V30 4996 N 474.47 1.03057 1.19235 0
M  V30 4997 C 475.717 0.728019 1.88961 0
M  V30 4998 C 476.045 -0.743515 1.79728 0
M  V30 4999 O 475.3 -1.55729 1.1852 0
M  V30 5000 C 475.599 1.1268 3.39172 0
M  V30 5001 C 475.265 2.5969 3.68608 0
M  V30 5002 C 473.927 2.99854 3.76352 0
M  V30 5003 C 476.279 3.54793 3.81801 0
M  V30 5004 C 473.607 4.34031 3.94758 0
M  V30 5005 C 475.959 4.88675 4.0172 0
M  V30 5006 C 474.623 5.28526 4.07697 0
M  V30 5007 H 473.893 0.266401 0.691456 0
M  V30 5008 H 476.54 1.29373 1.41191 0
M  V30 5009 H 474.845 0.479722 3.88852 0
M  V30 5010 H 476.542 0.870203 3.91444 0
M  V30 5011 H 473.132 2.27575 3.63191 0
M  V30 5012 H 477.316 3.24914 3.7516 0
M  V30 5013 H 472.572 4.6444 3.97625 0
M  V30 5014 H 476.746 5.6228 4.1087 0
M  V30 5015 H 474.373 6.32506 4.21712 0
M  V30 5016 N 475.948 -1.35272 0.808662 0
M  V30 5017 C 477.364 -1.51806 0.492653 0
M  V30 5018 C 477.564 -1.7574 -0.985778 0
M  V30 5019 O 476.62 -1.80003 -1.77074 0
M  V30 5020 C 477.933 -2.69202 1.33981 0
M  V30 5021 C 479.481 -2.8308 1.33547 0
M  V30 5022 C 479.956 -4.03502 2.16679 0
M  V30 5023 N 481.447 -4.10684 2.14227 0
M  V30 5024 C 482.182 -5.02984 2.75308 0
M  V30 5025 N 481.678 -6.00603 3.45323 0
M  V30 5026 N 483.471 -4.95746 2.64938 0
M  V30 5027 H 475.622 -1.17993 1.76611 0
M  V30 5028 H 477.885 -0.577476 0.751814 0
M  V30 5029 H 477.591 -2.581 2.38909 0
M  V30 5030 H 477.465 -3.63854 0.994491 0
M  V30 5031 H 479.852 -2.93631 0.294036 0
M  V30 5032 H 479.933 -1.89278 1.72068 0
M  V30 5033 H 479.577 -3.93711 3.20864 0
M  V30 5034 H 479.507 -4.96489 1.75517 0
M  V30 5035 H 481.998 -3.40802 1.63285 0
M  V30 5036 H 482.311 -6.67633 3.89212 0
M  V30 5037 H 480.656 -6.0077 3.49428 0
M  V30 5038 H 483.847 -4.18439 2.09825 0
M  V30 5039 H 484.02 -5.67487 3.12829 0
M  V30 5040 N 477.426 -0.562348 -1.47226 0
M  V30 5041 C 478.356 0.170627 -2.32876 0
M  V30 5042 C 479.337 0.903748 -1.44106 0
M  V30 5043 O 480.522 0.883206 -1.72954 0
M  V30 5044 C 477.652 1.19786 -3.25989 0
M  V30 5045 C 476.606 0.580875 -4.2404 0
M  V30 5046 C 475.932 1.71311 -5.06514 0
M  V30 5047 C 477.232 -0.468714 -5.20193 0
M  V30 5048 H 478.926 -0.544441 -2.94408 0
M  V30 5049 H 476.472 -0.263271 -1.41573 0
M  V30 5050 H 478.425 1.71884 -3.84752 0
M  V30 5051 H 477.149 1.94294 -2.62521 0
M  V30 5052 H 475.808 0.0811538 -3.6651 0
M  V30 5053 H 475.456 2.44736 -4.39447 0
M  V30 5054 H 475.156 1.30604 -5.72902 0
M  V30 5055 H 476.68 2.23725 -5.68137 0
M  V30 5056 H 478.094 -0.0336028 -5.7329 0
M  V30 5057 H 476.491 -0.794957 -5.94811 0
M  V30 5058 H 477.561 -1.36269 -4.65359 0
M  V30 5059 N 478.904 1.54736 -0.299062 0
M  V30 5060 C 480.132 2.04512 0.313447 0
M  V30 5061 C 480.547 1.17643 1.47667 0
M  V30 5062 O 479.904 0.20164 1.81383 0
M  V30 5063 C 479.955 3.53171 0.771542 0
M  V30 5064 O 479.676 4.36736 -0.345379 0
M  V30 5065 C 481.177 4.18936 1.4494 0
M  V30 5066 H 478.397 0.667507 0.0683784 0
M  V30 5067 H 480.941 1.99752 -0.438129 0
M  V30 5068 H 479.096 3.58298 1.47314 0
M  V30 5069 H 479.51 5.24499 0.0109219 0
M  V30 5070 H 480.984 5.24482 1.72111 0
M  V30 5071 H 481.461 3.68554 2.38883 0
M  V30 5072 H 482.067 4.17879 0.791028 0
M  V30 5073 N 480.382 0.0267497 1.57577 0
M  V30 5074 C 481.61 -0.662661 1.96001 0
M  V30 5075 C 482.025 -1.65799 0.903117 0
M  V30 5076 O 481.382 -1.82135 -0.115317 0
M  V30 5077 C 481.433 -1.37112 3.34488 0
M  V30 5078 O 481.154 -0.415683 4.36123 0
M  V30 5079 C 482.655 -2.15257 3.8753 0
M  V30 5080 H 479.875 -0.18287 0.6456 0
M  V30 5081 H 482.419 0.0858116 2.0432 0
M  V30 5082 H 480.574 -2.07101 3.27395 0
M  V30 5083 H 480.988 -0.918496 5.16395 0
M  V30 5084 H 482.462 -2.60285 4.86781 0
M  V30 5085 H 482.939 -2.99063 3.21649 0
M  V30 5086 H 483.545 -1.50231 3.97883 0
M  V30 5087 N 481.861 -1.55662 -0.24637 0
M  V30 5088 C 482.808 -1.90361 -1.30504 0
M  V30 5089 C 483.778 -0.757905 -1.47801 0
M  V30 5090 O 484.963 -1.01161 -1.61775 0
M  V30 5091 C 482.103 -2.2042 -2.65535 0
M  V30 5092 C 481.216 -3.47799 -2.56242 0
M  V30 5093 C 480.351 -3.67426 -3.8363 0
M  V30 5094 C 479.39 -4.88403 -3.68956 0
M  V30 5095 N 478.527 -5.04548 -4.88237 0
M  V30 5096 H 483.367 -2.80645 -1.00213 0
M  V30 5097 H 480.904 -1.38924 -0.483577 0
M  V30 5098 H 482.862 -2.35853 -3.44135 0
M  V30 5099 H 481.492 -1.3334 -2.93973 0
M  V30 5100 H 480.544 -3.40694 -1.69208 0
M  V30 5101 H 481.856 -4.36544 -2.4131 0
M  V30 5102 H 481.01 -3.82821 -4.70673 0
M  V30 5103 H 479.749 -2.76914 -4.01459 0
M  V30 5104 H 478.754 -4.72984 -2.80296 0
M  V30 5105 H 479.979 -5.80375 -3.52621 0
M  V30 5106 H 477.925 -4.16974 -5.06427 0
M  V30 5107 H 477.842 -5.87384 -4.75937 0
M  V30 5108 H 479.11 -5.24355 -5.76777 0
M  V30 5109 N 483.339 0.512053 -1.4905 0
M  V30 5110 C 484.586 1.26686 -1.57978 0
M  V30 5111 C 484.914 1.92733 -0.261553 0
M  V30 5112 O 484.169 1.80772 0.749667 0
M  V30 5113 C 484.468 2.36446 -2.68008 0
M  V30 5114 C 484.134 1.87932 -4.09869 0
M  V30 5115 C 482.796 1.74419 -4.48477 0
M  V30 5116 C 485.148 1.5149 -4.98698 0
M  V30 5117 C 482.476 1.22827 -5.73699 0
M  V30 5118 C 484.828 1.01355 -6.24428 0
M  V30 5119 C 483.492 0.864735 -6.61875 0
M  V30 5120 H 482.762 0.463577 -0.578081 0
M  V30 5121 H 485.409 0.569421 -1.82838 0
M  V30 5122 H 483.714 3.11933 -2.37076 0
M  V30 5123 H 485.411 2.9453 -2.72127 0
M  V30 5124 H 482.001 1.99405 -3.79389 0
M  V30 5125 H 486.185 1.60782 -4.69535 0
M  V30 5126 H 481.441 1.10008 -6.01422 0
M  V30 5127 H 485.615 0.722351 -6.92644 0
M  V30 5128 H 483.242 0.462777 -7.5879 0
M  V30 5129 N 484.817 1.37938 0.762283 0
M  V30 5130 C 486.064 1.33668 1.52115 0
M  V30 5131 C 486.392 -0.0759538 1.94352 0
M  V30 5132 O 485.647 -1.05121 1.6507 0
M  V30 5133 C 485.946 2.23042 2.79261 0
M  V30 5134 C 485.612 3.71159 2.56031 0
M  V30 5135 C 484.274 4.11523 2.49404 0
M  V30 5136 C 486.626 4.64955 2.35513 0
M  V30 5137 C 483.954 5.43784 2.20263 0
M  V30 5138 C 486.306 5.97464 2.07894 0
M  V30 5139 C 484.97 6.36922 1.99718 0
M  V30 5140 H 484.24 0.489127 0.556629 0
M  V30 5141 H 486.887 1.70224 0.877262 0
M  V30 5142 H 485.192 1.79512 3.48256 0
M  V30 5143 H 486.889 2.17047 3.37182 0
M  V30 5144 H 483.479 3.39153 2.62056 0
M  V30 5145 H 487.663 4.34623 2.39617 0
M  V30 5146 H 482.919 5.73307 2.12435 0
M  V30 5147 H 487.093 6.6969 1.91019 0
M  V30 5148 H 484.72 7.39331 1.76902 0
M  V30 5149 N 486.295 -0.989507 1.22664 0
M  V30 5150 C 487.543 -1.72612 1.05117 0
M  V30 5151 C 487.864 -1.90552 -0.414131 0
M  V30 5152 O 487.134 -1.4676 -1.29762 0
M  V30 5153 H 485.714 -0.639555 0.385977 0
M  V30 5154 H 488.376 -1.19158 1.54232 0
M  V30 5155 H 487.472 -2.71926 1.53175 0
M  V30 5156 N 487.773 -1.03688 -1.18687 0
M  V30 5157 C 489.001 -0.757918 -1.92518 0
M  V30 5158 C 489.416 0.684398 -1.75959 0
M  V30 5159 O 488.773 1.46617 -1.08673 0
M  V30 5160 C 488.824 -1.10985 -3.44042 0
M  V30 5161 O 488.545 -2.49554 -3.60076 0
M  V30 5162 C 490.046 -0.854844 -4.3498 0
M  V30 5163 H 487.266 -0.276699 -0.611293 0
M  V30 5164 H 489.81 -1.38352 -1.50595 0
M  V30 5165 H 487.965 -0.529279 -3.83767 0
M  V30 5166 H 488.379 -2.6291 -4.53849 0
M  V30 5167 H 489.853 -1.15098 -5.39867 0
M  V30 5168 H 490.33 0.210507 -4.38695 0
M  V30 5169 H 490.936 -1.41853 -4.00946 0
M  V30 5170 N 489.251 1.34841 -0.815825 0
M  V30 5171 C 490.498 1.98499 -0.400535 0
M  V30 5172 C 490.826 1.64699 1.03463 0
M  V30 5173 O 490.081 0.907006 1.73412 0
M  V30 5174 C 490.38 3.53273 -0.541541 0
M  V30 5175 C 490.046 4.06966 -1.94138 0
M  V30 5176 C 488.708 4.21341 -2.32433 0
M  V30 5177 C 491.06 4.35933 -2.85677 0
M  V30 5178 C 488.388 4.62007 -3.61617 0
M  V30 5179 C 490.74 4.78042 -4.14317 0
M  V30 5180 C 489.404 4.90622 -4.52599 0
M  V30 5181 H 488.674 0.72636 -0.146566 0
M  V30 5182 H 491.321 1.60902 -1.0384 0
M  V30 5183 H 489.626 3.91387 0.179741 0
M  V30 5184 H 491.323 4.00497 -0.20085 0
M  V30 5185 H 487.913 3.96235 -1.63388 0
M  V30 5186 H 492.097 4.24372 -2.57337 0
M  V30 5187 H 487.353 4.69937 -3.91113 0
M  V30 5188 H 491.527 4.99415 -4.85342 0
M  V30 5189 H 489.154 5.2189 -5.52752 0
M  V30 5190 N 490.729 0.570148 1.46925 0
M  V30 5191 C 491.659 -0.158274 2.32963 0
M  V30 5192 C 492.64 -0.896093 1.44583 0
M  V30 5193 O 493.825 -0.874022 1.7342 0
M  V30 5194 C 490.955 -1.18055 3.26619 0
M  V30 5195 C 489.909 -0.558379 4.24342 0
M  V30 5196 C 489.235 -1.68623 5.07415 0
M  V30 5197 C 490.535 0.496295 5.19937 0
M  V30 5198 H 492.229 0.560046 2.94115 0
M  V30 5199 H 489.775 0.270775 1.41431 0
M  V30 5200 H 491.728 -1.69841 3.85658 0
M  V30 5201 H 490.452 -1.92899 2.63548 0
M  V30 5202 H 489.111 -0.0617157 3.66548 0
M  V30 5203 H 488.759 -2.42402 4.40738 0
M  V30 5204 H 488.459 -1.27564 5.73586 0
M  V30 5205 H 489.983 -2.20709 5.69315 0
M  V30 5206 H 491.397 0.0640052 5.73264 0
M  V30 5207 H 489.794 0.82649 5.94381 0
M  V30 5208 H 490.864 1.38735 4.6463 0
M  V30 5209 N 492.207 -1.54576 0.307264 0
M  V30 5210 C 493.618 -1.8579 -0.184121 0
M  V30 5211 C 493.969 -1.22914 -1.52927 0
M  V30 5212 O 493.094 -0.529126 -2.09831 0
M  V30 5213 C 493.689 -3.37081 -0.340862 0
M  V30 5214 C 492.248 -3.68304 -0.776465 0
M  V30 5215 C 491.395 -2.77076 0.111503 0
M  V30 5216 H 494.346 -1.49656 0.528078 0
M  V30 5217 H 494.367 -3.61922 -1.17443 0
M  V30 5218 H 493.879 -3.82815 0.638309 0
M  V30 5219 H 491.98 -3.28092 -1.76596 0
M  V30 5220 H 492.093 -4.75434 -0.591512 0
M  V30 5221 H 490.457 -2.51374 -0.410256 0
M  V30 5222 H 491.24 -3.25632 1.08714 0
M  V30 5223 N 493.685 -0.035106 -1.57561 0
M  V30 5224 C 494.595 0.960295 -2.14046 0
M  V30 5225 C 495.611 1.3529 -1.0942 0
M  V30 5226 O 496.787 1.43309 -1.41508 0
M  V30 5227 C 493.852 2.22214 -2.66124 0
M  V30 5228 C 492.913 1.8894 -3.85487 0
M  V30 5229 C 492.146 3.09109 -4.35072 0
M  V30 5230 O 492.369 4.21963 -3.83802 0
M  V30 5231 O 491.303 2.91058 -5.26848 0
M  V30 5232 H 495.129 0.509983 -2.99387 0
M  V30 5233 H 492.714 0.185853 -1.48239 0
M  V30 5234 H 494.596 2.96279 -2.99661 0
M  V30 5235 H 493.271 2.66414 -1.83862 0
M  V30 5236 H 492.178 1.12241 -3.56865 0
M  V30 5237 H 493.511 1.49551 -4.6893 0
M  V30 5238 N 495.163 1.55791 0.238111 0
M  V30 5239 C 496.409 1.78297 0.966337 0
M  V30 5240 C 496.742 0.601903 1.84637 0
M  V30 5241 O 496.017 -0.399499 1.90353 0
M  V30 5242 C 496.3 3.10758 1.81939 0
M  V30 5243 C 496.153 4.39283 0.966958 0
M  V30 5244 C 497.472 3.39519 2.80027 0
M  V30 5245 H 494.591 0.648654 0.349882 0
M  V30 5246 H 497.233 1.88525 0.236253 0
M  V30 5247 H 495.383 3.02168 2.44185 0
M  V30 5248 H 497.055 4.59873 0.362514 0
M  V30 5249 H 495.298 4.32948 0.271669 0
M  V30 5250 H 495.969 5.28368 1.59784 0
M  V30 5251 H 498.445 3.48128 2.27917 0
M  V30 5252 H 497.321 4.33402 3.36829 0
M  V30 5253 H 497.582 2.60864 3.56934 0
M  V30 5254 N 496.642 -0.504142 1.49319 0
M  V30 5255 C 497.605 -1.5883 1.65244 0
M  V30 5256 C 498.605 -1.52009 0.524386 0
M  V30 5257 O 499.795 -1.55218 0.79077 0
M  V30 5258 C 496.927 -2.98481 1.64687 0
M  V30 5259 H 498.12 -1.4604 2.61939 0
M  V30 5260 H 495.673 -0.728144 1.38303 0
M  V30 5261 H 496.408 -3.16751 0.695644 0
M  V30 5262 H 496.193 -3.0484 2.46607 0
M  V30 5263 H 497.683 -3.77256 1.79075 0
M  V30 5264 N 498.12 -1.38341 -0.754957 0
M  V30 5265 C 499.067 -1.3546 -1.86867 0
M  V30 5266 C 500.037 -0.217369 -1.64672 0
M  V30 5267 O 501.222 -0.409383 -1.86356 0
M  V30 5268 C 498.362 -1.18413 -3.24149 0
M  V30 5269 C 497.475 -2.41511 -3.58185 0
M  V30 5270 C 496.61 -2.17205 -4.84763 0
M  V30 5271 C 495.649 -3.36081 -5.11582 0
M  V30 5272 N 494.786 -3.11219 -6.29354 0
M  V30 5273 H 499.626 -2.30672 -1.88664 0
M  V30 5274 H 497.163 -1.14607 -0.922154 0
M  V30 5275 H 499.121 -1.06545 -4.03366 0
M  V30 5276 H 497.751 -0.268397 -3.21682 0
M  V30 5277 H 496.803 -2.64056 -2.73822 0
M  V30 5278 H 498.115 -3.30115 -3.73932 0
M  V30 5279 H 497.269 -2.02465 -5.7192 0
M  V30 5280 H 496.008 -1.25964 -4.71152 0
M  V30 5281 H 495.013 -3.51341 -4.22894 0
M  V30 5282 H 496.238 -4.28196 -5.27091 0
M  V30 5283 H 494.184 -2.22624 -6.17069 0
M  V30 5284 H 494.101 -3.93373 -6.45596 0
M  V30 5285 H 495.369 -3.00132 -7.19403 0
M  V30 5286 N 499.598 0.982988 -1.23187 0
M  V30 5287 C 500.545 2.07491 -1.01075 0
M  V30 5288 C 501.515 1.65949 0.070905 0
M  V30 5289 O 502.7 1.90629 -0.0806822 0
M  V30 5290 C 499.84 3.39751 -0.605261 0
M  V30 5291 C 498.953 3.94578 -1.75876 0
M  V30 5292 C 498.088 5.15039 -1.3003 0
M  V30 5293 C 497.127 5.62027 -2.42472 0
M  V30 5294 N 496.264 6.73719 -1.97602 0
M  V30 5295 H 501.104 2.25739 -1.9454 0
M  V30 5296 H 498.641 1.10659 -0.969179 0
M  V30 5297 H 500.599 4.15719 -0.351279 0
M  V30 5298 H 499.229 3.21473 0.292382 0
M  V30 5299 H 498.281 3.1539 -2.12681 0
M  V30 5300 H 499.593 4.25422 -2.60418 0
M  V30 5301 H 498.747 5.9833 -1.00429 0
M  V30 5302 H 497.486 4.85843 -0.425216 0
M  V30 5303 H 496.491 4.77318 -2.7285 0
M  V30 5304 H 497.716 5.93244 -3.30512 0
M  V30 5305 H 495.662 6.46287 -1.1247 0
M  V30 5306 H 495.579 7.03934 -2.75705 0
M  V30 5307 H 496.847 7.6049 -1.71098 0
M  V30 5308 N 501.076 1.04316 1.18135 0
M  V30 5309 C 502.323 0.74802 1.88178 0
M  V30 5310 C 502.651 -0.72441 1.80506 0
M  V30 5311 O 501.906 -1.54463 1.20165 0
M  V30 5312 C 502.205 1.16271 3.37958 0
M  V30 5313 C 501.871 2.63585 3.65833 0
M  V30 5314 C 500.533 3.03829 3.73151 0
M  V30 5315 C 502.885 3.58822 3.78016 0
M  V30 5316 C 500.213 4.38194 3.90132 0
M  V30 5317 C 502.565 4.92909 3.96514 0
M  V30 5318 C 501.229 5.3282 4.02068 0
M  V30 5319 H 500.499 0.27372 0.688592 0
M  V30 5320 H 503.146 1.30863 1.39811 0
M  V30 5321 H 501.451 0.520938 3.88321 0
M  V30 5322 H 503.148 0.911672 3.90499 0
M  V30 5323 H 499.738 2.31414 3.60757 0
M  V30 5324 H 503.922 3.28875 3.71692 0
M  V30 5325 H 499.178 4.68631 3.92677 0
M  V30 5326 H 503.352 5.66606 4.04883 0
M  V30 5327 H 500.979 6.36943 4.14979 0
M  V30 5328 N 502.554 -1.34406 0.822964 0
M  V30 5329 C 503.965 -1.8069 0.469879 0
M  V30 5330 C 504.316 -1.68223 -1.00972 0
M  V30 5331 O 503.441 -1.22226 -1.78577 0
M  V30 5332 C 504.036 -3.28064 0.846118 0
M  V30 5333 C 502.595 -3.72428 0.545402 0
M  V30 5334 C 501.742 -2.56116 1.06301 0
M  V30 5335 H 504.693 -1.22153 1.01313 0
M  V30 5336 H 504.714 -3.80205 0.149922 0
M  V30 5337 H 504.226 -3.37107 1.92304 0
M  V30 5338 H 502.327 -3.68924 -0.522109 0
M  V30 5339 H 502.44 -4.66548 1.0895 0
M  V30 5340 H 500.804 -2.50048 0.484554 0
M  V30 5341 H 501.587 -2.67928 2.14638 0
M  V30 5342 N 504.032 -0.577932 -1.46621 0
M  V30 5343 C 504.98 0.170882 -2.31971 0
M  V30 5344 C 505.974 0.889086 -1.44193 0
M  V30 5345 O 507.18 0.808017 -1.60845 0
M  V30 5346 H 503.555 0.0739763 -0.748353 0
M  V30 5347 H 505.526 -0.567856 -2.92947 0
M  V30 5348 C 504.275 1.17438 -3.27267 0
M  V30 5349 H 503.598 0.63116 -3.94787 0
M  V30 5350 H 505.038 1.66882 -3.89778 0
M  V30 5351 C 503.497 2.23292 -2.52274 0
M  V30 5352 O 504.027 3.30567 -2.28229 0
M  V30 5353 N 502.233 1.97772 -2.12919 0
M  V30 5354 H 501.78 1.10545 -2.32675 0
M  V30 5355 H 501.738 2.68809 -1.63062 0
M  V30 5356 N 505.51 1.54411 -0.315457 0
M  V30 5357 C 506.443 2.20265 0.596522 0
M  V30 5358 C 507.421 1.17693 1.12192 0
M  V30 5359 O 508.605 1.46397 1.18744 0
M  V30 5360 C 505.732 2.85794 1.81767 0
M  V30 5361 C 504.778 4.02017 1.42424 0
M  V30 5362 S 505.611 5.33452 0.467836 0
M  V30 5363 C 506.767 6.02471 1.69645 0
M  V30 5364 H 507 2.97277 0.0370896 0
M  V30 5365 H 504.533 1.54079 -0.0995562 0
M  V30 5366 H 506.491 3.24172 2.51839 0
M  V30 5367 H 505.152 2.08601 2.34828 0
M  V30 5368 H 504.345 4.46701 2.33396 0
M  V30 5369 H 503.947 3.65271 0.803311 0
M  V30 5370 H 506.239 6.24157 2.63504 0
M  V30 5371 H 507.182 6.96215 1.29192 0
M  V30 5372 H 507.59 5.32284 1.87974 0
M  V30 5373 N 506.988 0.0434614 1.5754 0
M  V30 5374 C 507.935 -0.93356 2.11077 0
M  V30 5375 C 508.905 -1.31383 1.01626 0
M  V30 5376 O 510.09 -1.40465 1.29129 0
M  V30 5377 C 507.23 -2.20578 2.65404 0
M  V30 5378 C 506.343 -1.88068 3.88914 0
M  V30 5379 C 505.478 -3.09691 4.31584 0
M  V30 5380 C 504.517 -2.73067 5.47815 0
M  V30 5381 N 503.654 -3.87359 5.85574 0
M  V30 5382 H 508.494 -0.470118 2.94268 0
M  V30 5383 H 506.031 -0.220434 1.45439 0
M  V30 5384 H 507.989 -2.95011 2.94999 0
M  V30 5385 H 506.619 -2.64513 1.85021 0
M  V30 5386 H 505.671 -1.03816 3.6596 0
M  V30 5387 H 506.983 -1.57104 4.73413 0
M  V30 5388 H 506.137 -3.92431 4.62691 0
M  V30 5389 H 504.876 -3.43827 3.45882 0
M  V30 5390 H 503.881 -1.88742 5.16388 0
M  V30 5391 H 505.106 -2.40131 6.35227 0
M  V30 5392 H 503.052 -4.21311 5.02825 0
M  V30 5393 H 502.969 -3.60068 6.64746 0
M  V30 5394 H 504.237 -4.70761 6.21292 0
M  V30 5395 N 508.466 -1.55915 -0.229846 0
M  V30 5396 C 509.715 -1.77742 -0.953455 0
M  V30 5397 C 510.028 -0.610524 -1.85828 0
M  V30 5398 O 511.234 -0.712219 -2.61992 0
M  V30 5399 C 509.69 -3.14738 -1.74551 0
M  V30 5400 C 509.298 -4.39126 -0.887242 0
M  V30 5401 C 511.042 -3.45895 -2.46084 0
M  V30 5402 C 508.949 -5.67149 -1.67617 0
M  V30 5403 H 507.879 -0.662648 -0.359741 0
M  V30 5404 H 510.53 -1.82322 -0.207576 0
M  V30 5405 H 508.912 -3.04311 -2.53399 0
M  V30 5406 H 510.086 -4.60588 -0.139892 0
M  V30 5407 H 508.401 -4.15427 -0.284443 0
M  V30 5408 H 510.998 -4.38767 -3.05594 0
M  V30 5409 H 511.341 -2.68007 -3.18556 0
M  V30 5410 H 511.874 -3.57614 -1.74233 0
M  V30 5411 H 508.613 -6.47906 -0.994881 0
M  V30 5412 H 508.133 -5.49763 -2.39836 0
M  V30 5413 H 509.812 -6.07025 -2.23898 0
M  V30 5414 N 509.944 0.496216 -1.49584 0
M  V30 5415 C 510.876 1.61404 -1.62731 0
M  V30 5416 C 511.889 1.54613 -0.50978 0
M  V30 5417 O 513.078 1.60458 -0.782017 0
M  V30 5418 C 510.178 3.00212 -1.57245 0
M  V30 5419 C 509.351 3.32138 -2.84611 0
M  V30 5420 C 508.41 4.5038 -2.72112 0
M  V30 5421 O 507.436 4.51926 -3.46051 0
M  V30 5422 N 508.638 5.50575 -1.83977 0
M  V30 5423 H 511.403 1.50552 -2.59141 0
M  V30 5424 H 508.964 0.684182 -1.46733 0
M  V30 5425 H 510.956 3.77241 -1.4653 0
M  V30 5426 H 509.526 3.04964 -0.686729 0
M  V30 5427 H 508.746 2.4396 -3.09641 0
M  V30 5428 H 510.034 3.50268 -3.69039 0
M  V30 5429 H 509.432 5.52128 -1.23171 0
M  V30 5430 H 507.989 6.26687 -1.79182 0
M  V30 5431 N 511.423 1.38739 0.74761 0
M  V30 5432 C 512.672 1.3459 1.50228 0
M  V30 5433 C 512.985 -0.0595592 1.95509 0
M  V30 5434 O 514.191 -0.22361 2.70578 0
M  V30 5435 C 512.647 2.36377 2.71393 0
M  V30 5436 C 512.255 3.82573 2.33113 0
M  V30 5437 C 513.999 2.41281 3.49262 0
M  V30 5438 C 511.906 4.76032 3.50924 0
M  V30 5439 H 510.836 0.500312 0.564096 0
M  V30 5440 H 513.487 1.64324 0.8167 0
M  V30 5441 H 511.869 1.99694 3.41962 0
M  V30 5442 H 513.043 4.28227 1.70171 0
M  V30 5443 H 511.358 3.80844 1.68365 0
M  V30 5444 H 513.955 3.08301 4.36869 0
M  V30 5445 H 514.298 1.43353 3.9084 0
M  V30 5446 H 514.831 2.76793 2.85711 0
M  V30 5447 H 511.57 5.75177 3.14408 0
M  V30 5448 H 511.09 4.35066 4.12889 0
M  V30 5449 H 512.769 4.94331 4.17427 0
M  V30 5450 N 512.901 -0.976442 1.23707 0
M  V30 5451 C 513.851 -2.0544 0.988851 0
M  V30 5452 C 514.835 -1.60762 -0.0665901 0
M  V30 5453 O 516.027 -1.76396 0.14604 0
M  V30 5454 C 513.156 -3.38258 0.586223 0
M  V30 5455 C 512.242 -3.89523 1.67728 0
M  V30 5456 N 512.633 -4.13823 2.90834 0
M  V30 5457 C 510.931 -4.18097 1.55277 0
M  V30 5458 C 511.632 -4.55731 3.61502 0
M  V30 5459 N 510.608 -4.60394 2.8903 0
M  V30 5460 H 514.41 -2.22191 1.92376 0
M  V30 5461 H 511.924 -1.15954 1.13704 0
M  V30 5462 H 513.921 -4.15075 0.389658 0
M  V30 5463 H 512.581 -3.22898 -0.341594 0
M  V30 5464 H 513.592 -4.01529 3.271 0
M  V30 5465 H 510.269 -4.11719 0.692351 0
M  V30 5466 H 511.659 -4.83018 4.67059 0
M  V30 5467 N 514.379 -1.04941 -1.1758 0
M  V30 5468 C 515.625 -0.759112 -1.88057 0
M  V30 5469 C 515.958 0.711918 -1.8068 0
M  V30 5470 O 515.233 1.52035 -1.21308 0
M  V30 5471 C 515.516 -1.237 -3.38187 0
M  V30 5472 C 515.369 -2.77078 -3.54327 0
M  V30 5473 C 516.688 -0.834014 -4.32125 0
M  V30 5474 H 513.807 -0.277237 -0.682868 0
M  V30 5475 H 516.449 -1.30296 -1.38286 0
M  V30 5476 H 514.599 -0.774337 -3.80705 0
M  V30 5477 H 516.271 -3.31449 -3.20842 0
M  V30 5478 H 514.514 -3.16477 -2.96689 0
M  V30 5479 H 515.185 -3.05577 -4.59703 0
M  V30 5480 H 517.661 -1.23228 -3.97434 0
M  V30 5481 H 516.537 -1.19603 -5.35711 0
M  V30 5482 H 516.798 0.262195 -4.41322 0
M  V30 5483 N 515.857 1.33968 -0.830081 0
M  V30 5484 C 517.082 2.02813 -0.433796 0
M  V30 5485 C 517.507 1.62076 0.954614 0
M  V30 5486 O 516.865 0.808955 1.62252 0
M  V30 5487 C 516.913 3.56348 -0.552115 0
M  V30 5488 O 516.017 4.10202 0.425191 0
M  V30 5489 H 515.358 0.639817 -0.177567 0
M  V30 5490 H 517.888 1.7106 -1.12248 0
M  V30 5491 H 517.898 4.05722 -0.430513 0
M  V30 5492 H 516.573 3.85344 -1.56471 0
M  V30 5493 H 515.15 3.71979 0.261878 0
M  V30 5494 N 517.335 0.585699 1.46312 0
M  V30 5495 C 518.298 -0.135673 2.28798 0
M  V30 5496 C 519.298 -0.815988 1.38558 0
M  V30 5497 O 520.488 -0.667487 1.60904 0
M  V30 5498 C 517.62 -1.20163 3.1902 0
M  V30 5499 H 518.813 0.589257 2.94054 0
M  V30 5500 H 516.366 0.343794 1.52472 0
M  V30 5501 H 517.101 -1.95804 2.58517 0
M  V30 5502 H 516.886 -0.718282 3.85465 0
M  V30 5503 H 518.376 -1.70749 3.81096 0
M  V30 5504 N 518.813 -1.54241 0.323641 0
M  V30 5505 C 520.038 -2.05452 -0.283605 0
M  V30 5506 C 520.463 -1.19823 -1.44997 0
M  V30 5507 O 519.821 -0.207358 -1.8011 0
M  V30 5508 C 519.869 -3.53823 -0.695795 0
M  V30 5509 O 518.973 -3.71134 -1.79815 0
M  V30 5510 H 518.314 -0.662024 -0.0511917 0
M  V30 5511 H 520.844 -1.99079 0.472073 0
M  V30 5512 H 520.854 -3.96094 -0.978434 0
M  V30 5513 H 519.529 -4.15602 0.157287 0
M  V30 5514 H 518.106 -3.40768 -1.51431 0
M  V30 5515 N 520.291 -0.0518155 -1.57515 0
M  V30 5516 C 521.519 0.631395 -1.9703 0
M  V30 5517 C 521.934 1.64341 -0.92938 0
M  V30 5518 O 521.291 1.82296 0.0863266 0
M  V30 5519 C 521.342 1.31774 -3.36627 0
M  V30 5520 O 521.063 0.346247 -4.3673 0
M  V30 5521 C 522.564 2.09065 -3.90905 0
M  V30 5522 H 519.784 0.172576 -0.648428 0
M  V30 5523 H 522.328 -0.118306 -2.04158 0
M  V30 5524 H 520.483 2.01867 -3.30649 0
M  V30 5525 H 520.897 0.836226 -5.17791 0
M  V30 5526 H 522.371 2.52508 -4.9086 0
M  V30 5527 H 522.848 2.93908 -3.26366 0
M  V30 5528 H 523.454 1.43882 -4.00223 0
M  V30 5529 N 521.769 1.56035 0.221574 0
M  V30 5530 C 523.18 1.69229 0.788567 0
M  V30 5531 C 523.531 0.653814 1.84986 0
M  V30 5532 O 522.656 -0.195065 2.15519 0
M  V30 5533 C 523.251 3.06809 1.43713 0
M  V30 5534 C 521.81 3.21858 1.95152 0
M  V30 5535 C 520.957 2.65155 0.811685 0
M  V30 5536 H 523.908 1.587 -0.00307894 0
M  V30 5537 H 523.929 3.02666 2.30594 0
M  V30 5538 H 523.441 3.82369 0.664475 0
M  V30 5539 H 521.542 2.51167 2.7522 0
M  V30 5540 H 521.655 4.29073 2.1315 0
M  V30 5541 H 520.019 2.23635 1.21899 0
M  V30 5542 H 520.802 3.43261 0.0516987 0
M  V30 5543 N 523.247 -0.488276 1.49845 0
M  V30 5544 C 524.658 -1.06955 1.53028 0
M  V30 5545 C 525.009 -1.9351 0.323797 0
M  V30 5546 O 524.134 -2.08891 -0.565116 0
M  V30 5547 C 524.729 -1.94643 2.77307 0
M  V30 5548 C 523.288 -2.4791 2.83227 0
M  V30 5549 C 522.435 -1.25833 2.47106 0
M  V30 5550 H 525.386 -0.271626 1.56358 0
M  V30 5551 H 525.407 -2.79496 2.5819 0
M  V30 5552 H 524.919 -1.31621 3.65099 0
M  V30 5553 H 523.02 -3.14535 1.99745 0
M  V30 5554 H 523.133 -2.84193 3.85709 0
M  V30 5555 H 521.497 -1.58764 1.99163 0
M  V30 5556 H 522.28 -0.644993 3.37186 0
M  V30 5557 N 524.725 -1.39134 -0.740242 0
M  V30 5558 C 525.675 -1.33928 -1.84519 0
M  V30 5559 C 526.659 -0.221097 -1.59374 0
M  V30 5560 O 527.851 -0.458195 -1.70967 0
M  V30 5561 C 524.98 -1.17991 -3.22387 0
M  V30 5562 C 524.066 -2.34488 -3.53378 0
M  V30 5563 N 524.457 -3.59954 -3.5534 0
M  V30 5564 C 522.755 -2.27331 -3.83714 0
M  V30 5565 C 523.456 -4.36962 -3.83978 0
M  V30 5566 N 522.432 -3.66482 -4.01487 0
M  V30 5567 H 526.234 -2.28907 -1.84333 0
M  V30 5568 H 523.748 -1.32555 -0.938237 0
M  V30 5569 H 525.745 -1.12345 -4.01478 0
M  V30 5570 H 524.405 -0.23957 -3.23815 0
M  V30 5571 H 525.416 -3.93448 -3.36778 0
M  V30 5572 H 522.093 -1.41531 -3.92779 0
M  V30 5573 H 523.483 -5.45692 -3.92008 0
M  V30 5574 N 526.204 0.969867 -1.24223 0
M  V30 5575 C 527.134 2.08191 -1.05729 0
M  V30 5576 C 528.115 1.70075 0.0290765 0
M  V30 5577 O 529.3 1.93712 -0.137583 0
M  V30 5578 C 526.43 3.40991 -0.658995 0
M  V30 5579 C 525.384 3.93054 -1.69389 0
M  V30 5580 C 524.71 5.22171 -1.15072 0
M  V30 5581 C 526.01 4.21137 -3.08935 0
M  V30 5582 H 527.704 2.23921 -1.98746 0
M  V30 5583 H 525.25 1.07602 -0.956967 0
M  V30 5584 H 527.203 4.18221 -0.51662 0
M  V30 5585 H 525.927 3.25155 0.30686 0
M  V30 5586 H 524.586 3.17977 -1.82444 0
M  V30 5587 H 524.234 5.02694 -0.175539 0
M  V30 5588 H 523.934 5.57973 -1.84229 0
M  V30 5589 H 525.458 6.02013 -1.02042 0
M  V30 5590 H 526.872 4.8908 -2.99121 0
M  V30 5591 H 525.269 4.68163 -3.75425 0
M  V30 5592 H 526.339 3.27996 -3.57137 0
M  V30 5593 N 527.682 1.05563 1.17022 0
M  V30 5594 C 528.907 0.788437 1.91829 0
M  V30 5595 C 529.332 -0.650356 1.76499 0
M  V30 5596 O 528.69 -1.45229 1.08527 0
M  V30 5597 C 528.738 1.1786 3.40795 0
M  V30 5598 O 527.842 0.312965 4.11211 0
M  V30 5599 H 527.183 0.288794 0.597908 0
M  V30 5600 H 529.713 1.40948 1.48307 0
M  V30 5601 H 529.723 1.14697 3.91546 0
M  V30 5602 H 528.398 2.22666 3.51273 0
M  V30 5603 H 526.975 0.405515 3.70689 0
M  V30 5604 N 529.16 -1.33526 0.837174 0
M  V30 5605 C 530.406 -1.9813 0.432704 0
M  V30 5606 C 530.739 -1.66168 -1.00508 0
M  V30 5607 O 530.014 -0.94069 -1.70239 0
M  V30 5608 C 530.297 -3.54151 0.651834 0
M  V30 5609 C 530.15 -3.95806 2.13676 0
M  V30 5610 C 531.469 -4.39993 0.0968937 0
M  V30 5611 H 528.588 -0.719713 0.15869 0
M  V30 5612 H 531.23 -1.58193 1.05237 0
M  V30 5613 H 529.38 -3.88301 0.124369 0
M  V30 5614 H 531.052 -3.71921 2.72896 0
M  V30 5615 H 529.295 -3.45599 2.62191 0
M  V30 5616 H 529.966 -5.0447 2.24084 0
M  V30 5617 H 532.442 -4.12479 0.547733 0
M  V30 5618 H 531.318 -5.48186 0.279917 0
M  V30 5619 H 531.579 -4.3066 -0.9992 0
M  V30 5620 N 530.638 -0.59345 -1.46 0
M  V30 5621 C 531.57 0.171569 -2.28557 0
M  V30 5622 C 532.583 0.845273 -1.39137 0
M  V30 5623 O 533.772 0.713033 -1.6364 0
M  V30 5624 C 530.872 1.26311 -3.14482 0
M  V30 5625 C 530.045 0.679258 -4.32094 0
M  V30 5626 C 529.104 1.65987 -4.99334 0
M  V30 5627 O 528.13 1.19171 -5.56585 0
M  V30 5628 N 529.332 2.99414 -4.97324 0
M  V30 5629 H 532.097 -0.536771 -2.94854 0
M  V30 5630 H 529.658 -0.431954 -1.56031 0
M  V30 5631 H 531.65 1.91863 -3.5633 0
M  V30 5632 H 530.22 1.87416 -2.50188 0
M  V30 5633 H 529.44 -0.153992 -3.93899 0
M  V30 5634 H 530.728 0.26916 -5.08088 0
M  V30 5635 H 530.126 3.40064 -4.52076 0
M  V30 5636 H 528.683 3.60426 -5.4308 0
M  V30 5637 N 532.116 1.54067 -0.331816 0
M  V30 5638 C 533.527 1.86059 0.15454 0
M  V30 5639 C 533.878 1.25331 1.50952 0
M  V30 5640 O 533.003 0.562441 2.08963 0
M  V30 5641 C 533.598 3.37581 0.287192 0
M  V30 5642 C 532.157 3.69493 0.717773 0
M  V30 5643 C 531.304 2.76863 -0.155569 0
M  V30 5644 H 534.255 1.48797 -0.55182 0
M  V30 5645 H 534.276 3.63744 1.11671 0
M  V30 5646 H 533.788 3.81751 -0.699131 0
M  V30 5647 H 531.889 3.3086 1.71354 0
M  V30 5648 H 532.002 4.76315 0.5158 0
M  V30 5649 H 530.366 2.51995 0.370213 0
M  V30 5650 H 531.149 3.23861 -1.13881 0
M  V30 5651 N 533.594 0.0601682 1.57485 0
M  V30 5652 C 534.822 -0.620937 1.97363 0
M  V30 5653 C 535.237 -1.63846 0.938082 0
M  V30 5654 O 534.594 -1.82339 -0.0766578 0
M  V30 5655 C 534.645 -1.29987 3.37321 0
M  V30 5656 O 534.366 -0.323081 4.36907 0
M  V30 5657 C 535.867 -2.06989 3.92008 0
M  V30 5658 H 533.087 -0.169135 0.649334 0
M  V30 5659 H 535.631 0.129132 2.04092 0
M  V30 5660 H 533.786 -2.0011 3.31715 0
M  V30 5661 H 534.2 -0.808754 5.18227 0
M  V30 5662 H 535.674 -2.49901 4.92192 0
M  V30 5663 H 536.151 -2.92173 3.2792 0
M  V30 5664 H 536.757 -1.41757 4.0098 0
M  V30 5665 N 535.072 -1.5615 -0.213296 0
M  V30 5666 C 536.32 -1.79191 -0.934612 0
M  V30 5667 C 536.641 -0.630112 -1.84539 0
M  V30 5668 O 535.911 0.35257 -1.92701 0
M  V30 5669 H 534.491 -0.660937 -0.348097 0
M  V30 5670 H 537.153 -1.93618 -0.22317 0
M  V30 5671 H 536.249 -2.71656 -1.53654 0
M  V30 5672 N 536.55 0.480323 -1.50102 0
M  V30 5673 C 537.48 1.58769 -1.71215 0
M  V30 5674 C 538.461 1.60583 -0.560997 0
M  V30 5675 O 539.646 1.76996 -0.799127 0
M  V30 5676 C 536.776 2.97148 -1.79778 0
M  V30 5677 C 535.73 3.10201 -2.94888 0
M  V30 5678 C 535.056 4.50137 -2.88584 0
M  V30 5679 C 536.356 2.88283 -4.35534 0
M  V30 5680 H 538.05 1.41354 -2.6393 0
M  V30 5681 H 535.596 0.678591 -1.27008 0
M  V30 5682 H 537.549 3.74536 -1.93133 0
M  V30 5683 H 536.273 3.15699 -0.836772 0
M  V30 5684 H 534.932 2.35244 -2.81169 0
M  V30 5685 H 534.58 4.65593 -1.90349 0
M  V30 5686 H 534.28 4.59808 -3.65856 0
M  V30 5687 H 535.804 5.29558 -3.03976 0
M  V30 5688 H 537.218 3.55427 -4.49827 0
M  V30 5689 H 535.615 3.09408 -5.14186 0
M  V30 5690 H 536.685 1.84219 -4.48544 0
M  V30 5691 N 538.028 1.39524 0.732853 0
M  V30 5692 C 539.256 1.40143 1.52209 0
M  V30 5693 C 539.671 -0.00348836 1.888 0
M  V30 5694 O 539.028 -0.975357 1.5425 0
M  V30 5695 C 539.079 2.27632 2.8083 0
M  V30 5696 O 538.8 3.62654 2.45792 0
M  V30 5697 C 540.301 2.36658 3.74844 0
M  V30 5698 H 537.521 0.478604 0.470297 0
M  V30 5699 H 540.065 1.83366 0.905388 0
M  V30 5700 H 538.22 1.87818 3.38826 0
M  V30 5701 H 538.634 4.08941 3.28431 0
M  V30 5702 H 540.108 3.02118 4.61984 0
M  V30 5703 H 540.585 1.38638 4.16745 0
M  V30 5704 H 541.191 2.76951 3.22766 0
M  V30 5705 N 539.506 -0.963266 1.24736 0
M  V30 5706 C 540.753 -1.7068 1.0897 0
M  V30 5707 C 541.081 -1.90934 -0.370751 0
M  V30 5708 O 540.336 -1.47155 -1.29011 0
M  V30 5709 C 540.635 -3.09944 1.7796 0
M  V30 5710 C 540.301 -3.09518 3.27887 0
M  V30 5711 C 538.963 -3.09109 3.68789 0
M  V30 5712 C 541.315 -3.03509 4.23712 0
M  V30 5713 C 538.643 -3.00429 5.03944 0
M  V30 5714 C 540.995 -2.96371 5.5888 0
M  V30 5715 C 539.659 -2.94293 5.99123 0
M  V30 5716 H 538.929 -0.624564 0.398749 0
M  V30 5717 H 541.576 -1.12603 1.54896 0
M  V30 5718 H 539.881 -3.71513 1.2444 0
M  V30 5719 H 541.578 -3.66278 1.63222 0
M  V30 5720 H 538.168 -3.10603 2.95337 0
M  V30 5721 H 542.352 -3.0295 3.93109 0
M  V30 5722 H 537.608 -2.97183 5.34314 0
M  V30 5723 H 541.782 -2.90681 6.32833 0
M  V30 5724 H 539.409 -2.87322 7.03811 0
M  V30 5725 N 540.985 -1.06182 -1.16461 0
M  V30 5726 C 542.215 -0.797425 -1.9059 0
M  V30 5727 C 542.623 0.651845 -1.77616 0
M  V30 5728 O 541.966 1.45788 -1.11766 0
M  V30 5729 C 542.028 -1.11128 -3.41893 0
M  V30 5730 C 541.692 -2.55874 -3.78652 0
M  V30 5731 C 542.689 -3.54104 -3.80665 0
M  V30 5732 C 540.374 -2.91144 -4.09317 0
M  V30 5733 C 542.368 -4.85645 -4.12829 0
M  V30 5734 C 540.055 -4.22885 -4.41148 0
M  V30 5735 C 541.053 -5.19945 -4.42883 0
M  V30 5736 O 540.741 -6.49322 -4.73959 0
M  V30 5737 H 540.473 -0.288709 -0.611247 0
M  V30 5738 H 543.027 -1.41841 -1.4856 0
M  V30 5739 H 541.257 -0.433217 -3.84266 0
M  V30 5740 H 542.946 -0.831306 -3.97296 0
M  V30 5741 H 543.712 -3.28197 -3.57088 0
M  V30 5742 H 539.591 -2.16252 -4.07131 0
M  V30 5743 H 543.135 -5.61398 -4.14099 0
M  V30 5744 H 539.032 -4.48551 -4.6419 0
M  V30 5745 H 539.8 -6.54294 -4.91774 0
M  V30 5746 N 542.463 1.3308 -0.844243 0
M  V30 5747 C 543.874 1.7992 -0.498566 0
M  V30 5748 C 544.225 1.69808 0.982834 0
M  V30 5749 O 543.35 1.25051 1.7661 0
M  V30 5750 C 543.945 3.26677 -0.898204 0
M  V30 5751 C 542.504 3.71513 -0.604583 0
M  V30 5752 C 541.651 2.54393 -1.10362 0
M  V30 5753 H 544.602 1.20526 -1.03244 0
M  V30 5754 H 544.623 3.79918 -0.21039 0
M  V30 5755 H 544.135 3.34004 -1.97643 0
M  V30 5756 H 542.236 3.69708 0.46335 0
M  V30 5757 H 542.349 4.64755 -1.16358 0
M  V30 5758 H 540.713 2.49246 -0.524273 0
M  V30 5759 H 541.496 2.6448 -2.18873 0
M  V30 5760 N 543.941 0.601185 1.45683 0
M  V30 5761 C 544.904 -0.111398 2.28929 0
M  V30 5762 C 545.904 -0.801246 1.39416 0
M  V30 5763 O 547.094 -0.650383 1.61603 0
M  V30 5764 C 544.226 -1.16773 3.20276 0
M  V30 5765 H 545.419 0.620412 2.93413 0
M  V30 5766 H 542.972 0.359946 1.52099 0
M  V30 5767 H 543.707 -1.93051 2.60579 0
M  V30 5768 H 543.492 -0.677358 3.86205 0
M  V30 5769 H 544.982 -1.66698 3.82886 0
M  V30 5770 N 545.419 -1.53889 0.339982 0
M  V30 5771 C 546.665 -2.01152 -0.258003 0
M  V30 5772 C 546.998 -1.22749 -1.50487 0
M  V30 5773 O 546.273 -0.314156 -1.91946 0
M  V30 5774 C 546.556 -3.55468 -0.575717 0
M  V30 5775 C 546.409 -4.44584 0.682996 0
M  V30 5776 C 547.728 -4.1768 -1.38677 0
M  V30 5777 H 544.847 -0.731198 -0.0922992 0
M  V30 5778 H 547.489 -1.84352 0.459814 0
M  V30 5779 H 545.639 -3.69914 -1.18725 0
M  V30 5780 H 547.311 -4.41981 1.32102 0
M  V30 5781 H 545.554 -4.13592 1.3086 0
M  V30 5782 H 546.225 -5.5043 0.416001 0
M  V30 5783 H 548.701 -4.0691 -0.869705 0
M  V30 5784 H 547.577 -5.25734 -1.57783 0
M  V30 5785 H 547.838 -3.72069 -2.38782 0
M  V30 5786 N 546.897 -0.0685191 -1.57451 0
M  V30 5787 C 548.174 0.642167 -1.84758 0
M  V30 5788 C 548.554 1.87991 -0.960344 0
M  V30 5789 O 547.902 2.28485 -0.0257894 0
M  V30 5790 C 548.112 0.982946 -3.34872 0
M  V30 5791 C 549.46 1.35784 -4.02303 0
M  V30 5792 O 550.484 1.07477 -3.39598 0
M  V30 5793 O 549.343 1.88681 -5.12895 0
M  V30 5794 H 546.437 0.318625 -0.763156 0
M  V30 5795 H 548.983 -0.0992015 -1.6941 0
M  V30 5796 H 547.755 0.10372 -3.91163 0
M  V30 5797 H 547.378 1.78119 -3.55471 0
M  V30 5798 N 548.375 1.56261 0.205012 0
M  V30 5799 C 549.621 1.80306 0.9283 0
M  V30 5800 C 549.954 0.640932 1.83319 0
M  V30 5801 O 549.229 -0.359032 1.91158 0
M  V30 5802 C 549.512 3.14547 1.75306 0
M  V30 5803 C 549.365 4.41236 0.873562 0
M  V30 5804 C 550.684 3.45382 2.72762 0
M  V30 5805 H 547.803 0.655929 0.336044 0
M  V30 5806 H 550.445 1.88984 0.196211 0
M  V30 5807 H 548.595 3.0728 2.37721 0
M  V30 5808 H 550.267 4.60539 0.264887 0
M  V30 5809 H 548.51 4.33427 0.179773 0
M  V30 5810 H 549.181 5.31639 1.48541 0
M  V30 5811 H 551.657 3.52884 2.20481 0
M  V30 5812 H 550.533 4.40449 3.2756 0
M  V30 5813 H 550.794 2.68377 3.51321 0
M  V30 5814 N 549.853 -0.472356 1.50355 0
M  V30 5815 C 550.785 -1.58795 1.65278 0
M  V30 5816 C 551.798 -1.53782 0.534313 0
M  V30 5817 O 552.987 -1.59193 0.807446 0
M  V30 5818 C 550.087 -2.97672 1.62001 0
M  V30 5819 C 549.26 -3.27568 2.89859 0
M  V30 5820 C 548.319 -4.45993 2.79242 0
M  V30 5821 O 547.345 -4.46364 3.53197 0
M  V30 5822 N 548.547 -5.47578 1.92713 0
M  V30 5823 H 551.312 -1.46411 2.61503 0
M  V30 5824 H 548.873 -0.660751 1.47803 0
M  V30 5825 H 550.865 -3.74862 1.52513 0
M  V30 5826 H 549.435 -3.03832 0.735159 0
M  V30 5827 H 548.655 -2.39003 3.13483 0
M  V30 5828 H 549.943 -3.44352 3.74565 0
M  V30 5829 H 549.341 -5.50099 1.31939 0
M  V30 5830 H 547.898 -6.23757 1.8913 0
M  V30 5831 N 551.331 -1.39911 -0.725443 0
M  V30 5832 C 552.294 -1.39156 -1.82121 0
M  V30 5833 C 553.294 -0.287018 -1.58218 0
M  V30 5834 O 554.484 -0.545421 -1.65441 0
M  V30 5835 C 551.616 -1.1736 -3.20062 0
M  V30 5836 H 552.809 -2.36672 -1.84191 0
M  V30 5837 H 550.362 -1.25615 -0.930079 0
M  V30 5838 H 551.097 -0.205648 -3.23647 0
M  V30 5839 H 550.882 -1.97358 -3.3881 0
M  V30 5840 H 552.372 -1.19596 -4.00108 0
M  V30 5841 N 552.809 0.956637 -1.25245 0
M  V30 5842 C 554.056 1.701 -1.09874 0
M  V30 5843 C 554.384 1.91128 0.36062 0
M  V30 5844 O 553.639 1.47837 1.28229 0
M  V30 5845 C 553.938 3.08996 -1.79601 0
M  V30 5846 C 553.604 3.07774 -3.29523 0
M  V30 5847 C 552.266 3.07149 -3.70423 0
M  V30 5848 C 554.618 3.01257 -4.25316 0
M  V30 5849 C 551.946 2.97752 -5.0553 0
M  V30 5850 C 554.298 2.93403 -5.60444 0
M  V30 5851 C 552.962 2.91111 -6.00675 0
M  V30 5852 H 552.232 0.62244 -0.402056 0
M  V30 5853 H 554.879 1.1178 -1.55491 0
M  V30 5854 H 553.184 3.70848 -1.26408 0
M  V30 5855 H 554.881 3.65407 -1.65162 0
M  V30 5856 H 551.471 3.09032 -2.9698 0
M  V30 5857 H 555.655 3.00861 -3.9471 0
M  V30 5858 H 550.911 2.94346 -5.35883 0
M  V30 5859 H 555.085 2.87321 -6.34366 0
M  V30 5860 H 552.712 2.83586 -7.05325 0
M  V30 5861 N 554.287 1.06798 1.15896 0
M  V30 5862 C 555.25 0.687328 2.18651 0
M  V30 5863 C 556.25 -0.269559 1.58524 0
M  V30 5864 O 557.44 -0.0512627 1.74125 0
M  V30 5865 C 554.572 0.0121642 3.40898 0
M  V30 5866 H 555.765 1.59701 2.53842 0
M  V30 5867 H 553.318 0.863828 1.3026 0
M  V30 5868 H 554.053 -0.910025 3.1127 0
M  V30 5869 H 553.838 0.700309 3.85795 0
M  V30 5870 H 555.328 -0.239703 4.16911 0
M  V30 5871 N 555.766 -1.3263 0.851289 0
M  V30 5872 C 557.012 -1.9766 0.453694 0
M  V30 5873 C 557.345 -1.67225 -0.987396 0
M  V30 5874 O 556.62 -0.958693 -1.69232 0
M  V30 5875 C 556.903 -3.5344 0.68936 0
M  V30 5876 C 556.756 -3.93517 2.17862 0
M  V30 5877 C 558.075 -4.39866 0.143555 0
M  V30 5878 H 555.194 -0.717989 0.166314 0
M  V30 5879 H 557.836 -1.57068 1.06909 0
M  V30 5880 H 555.986 -3.88147 0.165546 0
M  V30 5881 H 557.658 -3.69006 2.76826 0
M  V30 5882 H 555.901 -3.42798 2.65841 0
M  V30 5883 H 556.572 -5.02065 2.29422 0
M  V30 5884 H 559.048 -4.11875 0.591451 0
M  V30 5885 H 557.924 -5.47858 0.338043 0
M  V30 5886 H 558.185 -4.31696 -0.953466 0
M  V30 5887 N 557.244 -0.608902 -1.45362 0
M  V30 5888 C 558.174 0.0964526 -2.33301 0
M  V30 5889 C 559.155 0.857444 -1.46908 0
M  V30 5890 O 560.34 0.827735 -1.75676 0
M  V30 5891 C 557.47 1.09354 -3.29635 0
M  V30 5892 C 556.424 0.445676 -4.25673 0
M  V30 5893 C 555.75 1.5511 -5.11708 0
M  V30 5894 C 557.05 -0.633972 -5.18438 0
M  V30 5895 H 558.744 -0.637829 -2.92527 0
M  V30 5896 H 556.29 -0.308178 -1.40664 0
M  V30 5897 H 558.243 1.59556 -3.90025 0
M  V30 5898 H 556.967 1.85843 -2.6857 0
M  V30 5899 H 555.626 -0.0354897 -3.66583 0
M  V30 5900 H 555.274 2.30631 -4.4701 0
M  V30 5901 H 554.974 1.12311 -5.76767 0
M  V30 5902 H 556.498 2.05537 -5.74967 0
M  V30 5903 H 557.912 -0.215974 -5.72893 0
M  V30 5904 H 556.309 -0.983789 -5.91981 0
M  V30 5905 H 557.379 -1.51005 -4.60788 0
M  V30 5906 N 558.722 1.53707 -0.348139 0
M  V30 5907 C 560.133 1.86213 0.134797 0
M  V30 5908 C 560.484 1.26925 1.49614 0
M  V30 5909 O 559.609 0.584573 2.08355 0
M  V30 5910 C 560.204 3.37866 0.251371 0
M  V30 5911 C 558.763 3.70233 0.678543 0
M  V30 5912 C 557.91 2.76683 -0.184925 0
M  V30 5913 H 560.861 1.48204 -0.567571 0
M  V30 5914 H 560.882 3.64908 1.07806 0
M  V30 5915 H 560.394 3.80988 -0.739581 0
M  V30 5916 H 558.495 3.32659 1.67835 0
M  V30 5917 H 558.608 4.76836 0.465251 0
M  V30 5918 H 556.972 2.52374 0.343465 0
M  V30 5919 H 557.755 3.22635 -1.1731 0
M  V30 5920 N 560.2 0.0768682 1.57412 0
M  V30 5921 C 561.148 -0.906229 2.1422 0
M  V30 5922 C 562.142 -1.30477 1.08037 0
M  V30 5923 O 563.348 -1.28143 1.2641 0
M  V30 5924 H 559.723 -0.310207 0.685037 0
M  V30 5925 H 561.694 -0.402228 2.95677 0
M  V30 5926 C 560.443 -2.16245 2.72274 0
M  V30 5927 H 559.766 -1.86463 3.53655 0
M  V30 5928 H 561.206 -2.83134 3.15613 0
M  V30 5929 C 559.665 -2.92437 1.67279 0
M  V30 5930 O 560.195 -3.86322 1.10081 0
M  V30 5931 N 558.401 -2.55637 1.38195 0
M  V30 5932 H 557.948 -1.79363 1.84897 0
M  V30 5933 H 557.906 -3.06919 0.681787 0
M  V30 5934 N 561.678 -1.56367 -0.196722 0
M  V30 5935 C 562.903 -1.84991 -0.937714 0
M  V30 5936 C 563.328 -0.660244 -1.76132 0
M  V30 5937 O 562.686 0.390967 -1.77034 0
M  V30 5938 C 562.734 -3.11828 -1.81096 0
M  V30 5939 O 561.838 -2.92266 -2.90955 0
M  V30 5940 H 561.179 -0.609193 -0.264159 0
M  V30 5941 H 563.709 -2.03595 -0.202529 0
M  V30 5942 H 563.719 -3.42579 -2.21594 0
M  V30 5943 H 562.394 -3.98037 -1.2058 0
M  V30 5944 H 560.971 -2.72809 -2.54224 0
M  V30 5945 N 563.156 0.464375 -1.50603 0
M  V30 5946 C 564.381 1.24372 -1.65971 0
M  V30 5947 C 564.806 1.84901 -0.345453 0
M  V30 5948 O 564.164 1.67596 0.691457 0
M  V30 5949 C 564.212 2.32331 -2.7578 0
M  V30 5950 O 563.316 3.37146 -2.375 0
M  V30 5951 H 562.657 0.365604 -0.554283 0
M  V30 5952 H 565.187 0.55183 -1.97018 0
M  V30 5953 H 565.197 2.77539 -2.99059 0
M  V30 5954 H 563.872 1.87648 -3.71162 0
M  V30 5955 H 562.449 2.97602 -2.24694 0
M  V30 5956 N 564.634 1.40294 0.718013 0
M  V30 5957 C 565.564 1.43118 1.84498 0
M  V30 5958 C 566.545 0.292403 1.67568 0
M  V30 5959 O 567.73 0.500675 1.87635 0
M  V30 5960 C 564.86 1.29065 3.22427 0
M  V30 5961 C 563.814 2.40521 3.54025 0
M  V30 5962 C 563.14 2.11546 4.91073 0
M  V30 5963 C 564.44 3.82859 3.55269 0
M  V30 5964 H 566.134 2.37432 1.82391 0
M  V30 5965 H 563.68 1.14283 0.87609 0
M  V30 5966 H 565.633 1.29658 4.00957 0
M  V30 5967 H 564.357 0.312271 3.25104 0
M  V30 5968 H 563.016 2.39173 2.77834 0
M  V30 5969 H 562.664 1.12104 4.90348 0
M  V30 5970 H 562.364 2.86216 5.1318 0
M  V30 5971 H 563.888 2.13817 5.71939 0
M  V30 5972 H 565.302 3.86044 4.23843 0
M  V30 5973 H 563.699 4.57029 3.88902 0
M  V30 5974 H 564.769 4.12617 2.54706 0
M  V30 5975 N 566.112 -0.949982 1.2575 0
M  V30 5976 C 567.075 -2.02894 1.06615 0
M  V30 5977 C 568.075 -1.60791 0.0173905 0
M  V30 5978 O 569.265 -1.72249 0.260003 0
M  V30 5979 C 566.397 -3.35219 0.619751 0
M  V30 5980 H 567.59 -2.21302 2.02399 0
M  V30 5981 H 565.143 -1.12772 1.08223 0
M  V30 5982 H 565.878 -3.22508 -0.340486 0
M  V30 5983 H 565.663 -3.67129 1.37692 0
M  V30 5984 H 567.153 -4.14505 0.507443 0
M  V30 5985 N 567.59 -1.07411 -1.15328 0
M  V30 5986 C 568.815 -0.818856 -1.90551 0
M  V30 5987 C 569.24 0.622194 -1.77512 0
M  V30 5988 O 568.598 1.43484 -1.10824 0
M  V30 5989 C 568.646 -1.23267 -3.38877 0
M  V30 5990 O 567.75 -0.378345 -4.10661 0
M  V30 5991 H 567.091 -0.29827 -0.593238 0
M  V30 5992 H 569.621 -1.43289 -1.46046 0
M  V30 5993 H 569.631 -1.20912 -3.89672 0
M  V30 5994 H 568.306 -2.28226 -3.47686 0
M  V30 5995 H 566.883 -0.464437 -3.69996 0
M  V30 5996 N 569.068 1.32177 -0.85831 0
M  V30 5997 C 569.998 2.31282 -0.321041 0
M  V30 5998 C 570.979 1.59841 0.581786 0
M  V30 5999 O 572.164 1.87619 0.501262 0
M  V30 6000 C 569.294 3.4385 0.48832 0
M  V30 6001 C 568.248 4.26799 -0.320391 0
M  V30 6002 C 567.574 5.31164 0.613934 0
M  V30 6003 C 568.874 4.98829 -1.54813 0
M  V30 6004 H 570.568 2.76469 -1.14915 0
M  V30 6005 H 568.114 1.32916 -0.554028 0
M  V30 6006 H 570.067 4.12224 0.874626 0
M  V30 6007 H 568.791 2.97401 1.34983 0
M  V30 6008 H 567.45 3.60077 -0.688497 0
M  V30 6009 H 567.098 4.80967 1.47239 0
M  V30 6010 H 566.798 5.8755 0.0768097 0
M  V30 6011 H 568.322 6.024 0.997336 0
M  V30 6012 H 569.736 5.59864 -1.23392 0
M  V30 6013 H 568.133 5.64957 -2.02346 0
M  V30 6014 H 569.203 4.26483 -2.30739 0
M  V30 6015 N 570.547 0.616602 1.45037 0
M  V30 6016 C 571.794 0.115331 2.02171 0
M  V30 6017 C 572.122 -1.25748 1.48383 0
M  V30 6018 O 571.377 -1.84511 0.652229 0
M  V30 6019 C 571.676 0.0356829 3.57382 0
M  V30 6020 C 571.342 1.34535 4.30362 0
M  V30 6021 C 570.004 1.70408 4.50016 0
M  V30 6022 C 572.356 2.21049 4.72003 0
M  V30 6023 C 569.684 2.92529 5.0857 0
M  V30 6024 C 572.036 3.42427 5.31908 0
M  V30 6025 C 570.7 3.78541 5.49784 0
M  V30 6026 H 569.97 0.0422024 0.739797 0
M  V30 6027 H 572.617 0.80002 1.73988 0
M  V30 6028 H 570.922 -0.732314 3.84895 0
M  V30 6029 H 572.619 -0.368463 3.99304 0
M  V30 6030 H 569.209 1.05615 4.15383 0
M  V30 6031 H 573.393 1.94632 4.56544 0
M  V30 6032 H 568.649 3.20605 5.20598 0
M  V30 6033 H 572.823 4.09709 5.63127 0
M  V30 6034 H 570.45 4.73255 5.94923 0
M  V30 6035 N 572.025 -1.5352 0.356285 0
M  V30 6036 C 572.955 -2.28372 -0.486661 0
M  V30 6037 C 573.936 -1.30432 -1.09185 0
M  V30 6038 O 575.121 -1.59291 -1.11085 0
M  V30 6039 C 572.251 -3.06604 -1.63129 0
M  V30 6040 C 571.205 -4.12154 -1.15381 0
M  V30 6041 C 570.531 -4.78415 -2.38796 0
M  V30 6042 C 571.831 -5.21724 -0.245179 0
M  V30 6043 H 573.525 -2.99083 0.137797 0
M  V30 6044 H 571.071 -1.43841 0.0677134 0
M  V30 6045 H 573.024 -3.57712 -2.22755 0
M  V30 6046 H 571.748 -2.33568 -2.28284 0
M  V30 6047 H 570.407 -3.61978 -0.580294 0
M  V30 6048 H 570.055 -4.01959 -3.02387 0
M  V30 6049 H 569.755 -5.49734 -2.07524 0
M  V30 6050 H 571.279 -5.32313 -2.99125 0
M  V30 6051 H 572.693 -5.68391 -0.748646 0
M  V30 6052 H 571.09 -6.00095 -0.0237608 0
M  V30 6053 H 572.16 -4.79596 0.715229 0
M  V30 6054 N 573.503 -0.0852151 -1.57369 0
M  V30 6055 C 574.752 0.580443 -1.93168 0
M  V30 6056 C 575.065 1.6995 -0.968319 0
M  V30 6057 O 576.271 2.42564 -1.21963 0
M  V30 6058 C 574.727 1.08386 -3.43192 0
M  V30 6059 C 574.335 -0.00491388 -4.48 0
M  V30 6060 C 576.079 1.72281 -3.87968 0
M  V30 6061 C 573.986 0.513299 -5.89168 0
M  V30 6062 H 572.916 0.22059 -0.72101 0
M  V30 6063 H 575.567 -0.159621 -1.82804 0
M  V30 6064 H 573.949 1.8773 -3.48674 0
M  V30 6065 H 575.123 -0.780032 -4.5415 0
M  V30 6066 H 573.438 -0.548453 -4.12772 0
M  V30 6067 H 576.035 2.12108 -4.9083 0
M  V30 6068 H 576.378 2.58811 -3.26071 0
M  V30 6069 H 576.911 0.995359 -3.85146 0
M  V30 6070 H 573.65 -0.315153 -6.54742 0
M  V30 6071 H 573.17 1.25564 -5.8651 0
M  V30 6072 H 574.849 0.985433 -6.39451 0
M  V30 6073 N 574.981 1.5647 0.188427 0
M  V30 6074 C 576.229 1.80655 0.905986 0
M  V30 6075 C 576.55 0.659391 1.83513 0
M  V30 6076 O 575.82 -0.321868 1.93238 0
M  V30 6077 H 574.4 0.666391 0.337538 0
M  V30 6078 H 577.062 1.93949 0.192339 0
M  V30 6079 H 576.158 2.74066 1.49313 0
M  V30 6080 N 576.459 -0.456382 1.50847 0
M  V30 6081 C 577.392 -1.57177 1.65441 0
M  V30 6082 C 578.37 -1.54649 0.502224 0
M  V30 6083 O 579.554 -1.74057 0.723633 0
M  V30 6084 C 576.681 -2.95763 1.65052 0
M  V30 6085 C 575.727 -3.16389 2.86007 0
M  V30 6086 S 576.56 -2.94716 4.47105 0
M  V30 6087 C 577.716 -4.35617 4.49432 0
M  V30 6088 H 577.949 -1.44561 2.59787 0
M  V30 6089 H 575.482 -0.644758 1.40293 0
M  V30 6090 H 577.44 -3.75654 1.65512 0
M  V30 6091 H 576.101 -3.05756 0.719153 0
M  V30 6092 H 575.294 -4.17667 2.82081 0
M  V30 6093 H 574.896 -2.44293 2.8319 0
M  V30 6094 H 577.188 -5.28503 4.239 0
M  V30 6095 H 578.131 -4.44582 5.51137 0
M  V30 6096 H 578.539 -4.18382 3.78967 0
M  V30 6097 N 577.937 -1.40673 -0.710563 0
M  V30 6098 C 578.887 -1.37812 -1.81636 0
M  V30 6099 C 579.871 -0.254853 -1.58869 0
M  V30 6100 O 581.063 -0.494356 -1.69956 0
M  V30 6101 C 578.192 -1.24802 -3.19811 0
M  V30 6102 C 577.278 -2.41931 -3.48325 0
M  V30 6103 N 577.669 -3.67411 -3.47625 0
M  V30 6104 C 575.967 -2.35419 -3.78806 0
M  V30 6105 C 576.668 -4.45008 -3.74623 0
M  V30 6106 N 575.644 -3.74916 -3.93623 0
M  V30 6107 H 579.446 -2.32766 -1.79436 0
M  V30 6108 H 576.96 -1.34516 -0.909909 0
M  V30 6109 H 578.957 -1.20835 -3.99004 0
M  V30 6110 H 577.617 -0.308202 -3.23234 0
M  V30 6111 H 578.628 -4.00503 -3.28356 0
M  V30 6112 H 575.305 -1.4983 -3.89689 0
M  V30 6113 H 576.695 -5.53884 -3.80344 0
M  V30 6114 N 579.415 0.9433 -1.26252 0
M  V30 6115 C 580.643 1.72367 -1.14443 0
M  V30 6116 C 581.058 1.86392 0.300572 0
M  V30 6117 O 580.415 1.36978 1.20596 0
M  V30 6118 C 580.466 3.13155 -1.806 0
M  V30 6119 O 580.187 2.99803 -3.19452 0
M  V30 6120 C 581.688 4.07417 -1.74717 0
M  V30 6121 H 578.908 0.539758 -0.398626 0
M  V30 6122 H 581.452 1.18268 -1.66832 0
M  V30 6123 H 579.607 3.64162 -1.32154 0
M  V30 6124 H 580.021 3.88697 -3.52158 0
M  V30 6125 H 581.495 5.03773 -2.25647 0
M  V30 6126 H 581.972 4.3337 -0.713244 0
M  V30 6127 H 582.578 3.6233 -2.22704 0
M  V30 6128 N 580.893 1.08022 1.14757 0
M  V30 6129 C 582.121 0.828847 1.89572 0
M  V30 6130 C 582.536 -0.618621 1.78377 0
M  V30 6131 O 581.893 -1.42482 1.1404 0
M  V30 6132 C 581.944 1.23677 3.39685 0
M  V30 6133 O 581.665 2.62746 3.50566 0
M  V30 6134 C 583.166 1.01569 4.31507 0
M  V30 6135 H 580.386 0.299196 0.600602 0
M  V30 6136 H 582.93 1.43846 1.45357 0
M  V30 6137 H 581.085 0.671347 3.81539 0
M  V30 6138 H 581.499 2.79573 4.43778 0
M  V30 6139 H 582.973 1.35055 5.35223 0
M  V30 6140 H 583.45 -0.0475433 4.39174 0
M  V30 6141 H 584.056 1.56636 3.95405 0
M  V30 6142 N 582.371 -1.3172 0.865308 0
M  V30 6143 C 583.619 -1.96487 0.472995 0
M  V30 6144 C 583.94 -1.68761 -0.976975 0
M  V30 6145 O 583.21 -1.00051 -1.68424 0
M  V30 6146 H 581.79 -0.726947 0.171922 0
M  V30 6147 H 584.452 -1.60612 1.10407 0
M  V30 6148 H 583.548 -3.0574 0.62687 0
M  V30 6149 N 583.85 -0.624285 -1.44708 0
M  V30 6150 C 585.075 -0.131171 -2.06985 0
M  V30 6151 C 585.5 1.18234 -1.46295 0
M  V30 6152 O 584.858 1.72375 -0.561842 0
M  V30 6153 C 584.906 -0.0226724 -3.60593 0
M  V30 6154 O 584.01 1.02314 -3.99507 0
M  V30 6155 H 583.351 -0.0816556 -0.65896 0
M  V30 6156 H 585.88 -0.859027 -1.85693 0
M  V30 6157 H 585.891 0.170138 -4.07645 0
M  V30 6158 H 584.566 -0.981685 -4.04148 0
M  V30 6159 H 583.143 0.805452 -3.64097 0
M  V30 6160 N 585.328 1.53329 -0.364422 0
M  V30 6161 C 586.261 2.22052 0.526145 0
M  V30 6162 C 587.239 1.21203 1.08391 0
M  V30 6163 O 588.423 1.50101 1.14026 0
M  V30 6164 C 585.55 2.91432 1.72583 0
M  V30 6165 C 584.596 4.06345 1.29562 0
M  V30 6166 S 585.429 5.34671 0.297885 0
M  V30 6167 C 586.585 6.07563 1.50392 0
M  V30 6168 H 586.818 2.97244 -0.0575055 0
M  V30 6169 H 584.351 1.53684 -0.148525 0
M  V30 6170 H 586.309 3.3202 2.41398 0
M  V30 6171 H 584.97 2.15966 2.28073 0
M  V30 6172 H 584.163 4.53901 2.19067 0
M  V30 6173 H 583.765 3.67642 0.686696 0
M  V30 6174 H 586.057 6.32224 2.43513 0
M  V30 6175 H 587 6.99973 1.06977 0
M  V30 6176 H 587.408 5.37994 1.70945 0
M  V30 6177 N 586.806 0.0935595 1.57322 0
M  V30 6178 C 587.716 -0.880192 2.17462 0
M  V30 6179 C 588.732 -1.31135 1.14366 0
M  V30 6180 O 589.908 -1.37958 1.46729 0
M  V30 6181 C 586.973 -2.12184 2.74188 0
M  V30 6182 C 586.034 -1.74503 3.92234 0
M  V30 6183 C 585.267 -2.92748 4.46245 0
M  V30 6184 O 585.49 -4.07427 3.99198 0
M  V30 6185 O 584.424 -2.71303 5.37288 0
M  V30 6186 H 588.25 -0.398516 3.01074 0
M  V30 6187 H 585.835 -0.130707 1.48827 0
M  V30 6188 H 587.717 -2.84953 3.10451 0
M  V30 6189 H 586.392 -2.59407 1.93623 0
M  V30 6190 H 585.299 -0.989186 3.60785 0
M  V30 6191 H 586.632 -1.32044 4.74157 0
M  V30 6192 N 588.284 -1.56567 -0.180126 0
M  V30 6193 C 589.53 -1.81761 -0.899497 0
M  V30 6194 C 589.863 -0.670015 -1.82276 0
M  V30 6195 O 589.138 0.328575 -1.91705 0
M  V30 6196 C 589.421 -3.17296 -1.7028 0
M  V30 6197 C 589.274 -4.4257 -0.803255 0
M  V30 6198 C 590.593 -3.49678 -2.67233 0
M  V30 6199 H 587.712 -0.661192 -0.325567 0
M  V30 6200 H 590.354 -1.89272 -0.16612 0
M  V30 6201 H 588.504 -3.11023 -2.32802 0
M  V30 6202 H 590.176 -4.60902 -0.191585 0
M  V30 6203 H 588.419 -4.33658 -0.110796 0
M  V30 6204 H 589.09 -5.33935 -1.40064 0
M  V30 6205 H 591.566 -3.56347 -2.14839 0
M  V30 6206 H 590.442 -4.45605 -3.20511 0
M  V30 6207 H 590.703 -2.73932 -3.47007 0
M  V30 6208 N 589.762 0.448376 -1.51087 0
M  V30 6209 C 590.987 1.22605 -1.6728 0
M  V30 6210 C 591.412 1.84524 -0.365045 0
M  V30 6211 O 590.77 1.6832 0.673642 0
M  V30 6212 C 590.818 2.29393 -2.78229 0
M  V30 6213 O 589.922 3.34608 -2.41063 0
M  V30 6214 H 589.263 0.359705 -0.558129 0
M  V30 6215 H 591.793 0.530903 -1.97592 0
M  V30 6216 H 591.803 2.74352 -3.01986 0
M  V30 6217 H 590.478 1.83701 -3.73131 0
M  V30 6218 H 589.055 2.95202 -2.27838 0
M  V30 6219 N 591.24 1.41047 0.703093 0
M  V30 6220 C 592.203 1.42036 1.79884 0
M  V30 6221 C 593.203 0.312153 1.57741 0
M  V30 6222 O 594.393 0.571672 1.64553 0
M  V30 6223 C 591.525 1.22437 3.18154 0
M  V30 6224 H 592.718 2.39572 1.80403 0
M  V30 6225 H 590.271 1.27079 0.909977 0
M  V30 6226 H 591.006 0.257112 3.23279 0
M  V30 6227 H 590.791 2.02723 3.35627 0
M  V30 6228 H 592.281 1.25946 3.98155 0
M  V30 6229 N 592.718 -0.936591 1.26751 0
M  V30 6230 C 593.628 -2.06949 1.10496 0
M  V30 6231 C 594.644 -1.7396 0.037271 0
M  V30 6232 O 595.82 -1.99941 0.241944 0
M  V30 6233 C 592.885 -3.38612 0.744491 0
M  V30 6234 C 591.946 -3.85355 1.89209 0
M  V30 6235 C 591.179 -5.10735 1.54873 0
M  V30 6236 O 591.402 -5.68602 0.452546 0
M  V30 6237 O 590.336 -5.52632 2.38499 0
M  V30 6238 H 594.162 -2.23571 2.05547 0
M  V30 6239 H 591.747 -1.05428 1.05855 0
M  V30 6240 H 593.629 -4.17711 0.556396 0
M  V30 6241 H 592.304 -3.23218 -0.176582 0
M  V30 6242 H 591.211 -3.07182 2.13518 0
M  V30 6243 H 592.544 -4.05277 2.79305 0
M  V30 6244 N 594.196 -1.08629 -1.14182 0
M  V30 6245 C 595.421 -0.83902 -1.89671 0
M  V30 6246 C 595.846 0.603332 -1.78161 0
M  V30 6247 O 595.204 1.42301 -1.12339 0
M  V30 6248 C 595.252 -1.26854 -3.37551 0
M  V30 6249 O 594.356 -0.42188 -4.10236 0
M  V30 6250 H 593.697 -0.304545 -0.590041 0
M  V30 6251 H 596.227 -1.4483 -1.44518 0
M  V30 6252 H 596.237 -1.25038 -3.88368 0
M  V30 6253 H 594.912 -2.31901 -3.45246 0
M  V30 6254 H 593.489 -0.503654 -3.69483 0
M  V30 6255 N 595.674 1.31259 -0.872281 0
M  V30 6256 C 596.622 2.30404 -0.318897 0
M  V30 6257 C 597.616 1.5962 0.567267 0
M  V30 6258 O 598.822 1.74204 0.453111 0
M  V30 6259 H 595.197 0.747243 -0.0844474 0
M  V30 6260 H 597.168 2.74549 -1.16899 0
M  V30 6261 C 595.917 3.44608 0.462683 0
M  V30 6262 H 595.24 3.99248 -0.209936 0
M  V30 6263 H 596.68 4.1609 0.815187 0
M  V30 6264 C 595.139 2.93456 1.65485 0
M  V30 6265 O 595.669 2.92418 2.75417 0
M  V30 6266 N 593.875 2.49628 1.48776 0
M  V30 6267 H 593.422 2.50671 0.593452 0
M  V30 6268 H 593.38 2.15759 2.28682 0
M  V30 6269 N 597.152 0.631951 1.44375 0
M  V30 6270 C 598.568 0.297642 1.568 0
M  V30 6271 C 598.768 -1.19916 1.61934 0
M  V30 6272 O 597.824 -1.98324 1.56281 0
M  V30 6273 C 599.137 0.990286 2.83926 0
M  V30 6274 C 600.685 0.968507 2.97639 0
M  V30 6275 C 601.16 1.64163 4.27568 0
M  V30 6276 N 602.651 1.60826 4.34384 0
M  V30 6277 C 603.386 2.09802 5.33639 0
M  V30 6278 N 602.882 2.66973 6.39294 0
M  V30 6279 N 604.675 2.00426 5.25153 0
M  V30 6280 H 596.826 1.60353 1.39286 0
M  V30 6281 H 599.089 0.673142 0.667521 0
M  V30 6282 H 598.795 2.04519 2.8612 0
M  V30 6283 H 598.669 0.528563 3.73478 0
M  V30 6284 H 601.056 -0.0779247 2.94997 0
M  V30 6285 H 601.137 1.46873 2.09433 0
M  V30 6286 H 600.781 2.68752 4.3097 0
M  V30 6287 H 600.711 1.11624 5.14634 0
M  V30 6288 H 603.202 1.19087 3.58646 0
M  V30 6289 H 603.515 3.02074 7.11316 0
M  V30 6290 H 601.86 2.71024 6.39977 0
M  V30 6291 H 605.051 1.55483 4.41523 0
M  V30 6292 H 605.224 2.38906 6.02352 0
M  V30 6293 N 598.631 -1.53133 0.372548 0
M  V30 6294 C 599.561 -2.28876 -0.462412 0
M  V30 6295 C 600.542 -1.31583 -1.07796 0
M  V30 6296 O 601.727 -1.60461 -1.09389 0
M  V30 6297 C 598.857 -3.08317 -1.59868 0
M  V30 6298 C 597.811 -4.13355 -1.11003 0
M  V30 6299 C 597.137 -4.8092 -2.33708 0
M  V30 6300 C 598.437 -5.21955 -0.18983 0
M  V30 6301 H 600.131 -2.9892 0.169511 0
M  V30 6302 H 597.677 -1.43761 0.0829658 0
M  V30 6303 H 599.63 -3.60055 -2.18949 0
M  V30 6304 H 598.354 -2.35976 -2.25794 0
M  V30 6305 H 597.013 -3.62573 -0.541869 0
M  V30 6306 H 596.661 -4.05144 -2.98106 0
M  V30 6307 H 596.361 -5.51904 -2.01682 0
M  V30 6308 H 597.885 -5.35455 -2.93462 0
M  V30 6309 H 599.299 -5.69153 -0.688319 0
M  V30 6310 H 597.696 -6.00087 0.0398887 0
M  V30 6311 H 598.766 -4.78811 0.766057 0
M  V30 6312 N 600.109 -0.101901 -1.5727 0
M  V30 6313 C 601.355 0.561027 -1.94885 0
M  V30 6314 C 601.688 1.6741 -0.984258 0
M  V30 6315 O 600.963 1.94491 -0.0184767 0
M  V30 6316 C 601.246 1.10982 -3.42571 0
M  V30 6317 C 601.099 0.00133418 -4.498 0
M  V30 6318 C 602.418 2.00608 -3.9172 0
M  V30 6319 H 599.537 0.202467 -0.708644 0
M  V30 6320 H 602.179 -0.173992 -1.89202 0
M  V30 6321 H 600.329 1.73621 -3.47546 0
M  V30 6322 H 602.001 -0.63322 -4.56933 0
M  V30 6323 H 600.244 -0.664143 -4.28686 0
M  V30 6324 H 600.915 0.426253 -5.50352 0
M  V30 6325 H 603.391 1.47864 -3.88941 0
M  V30 6326 H 602.267 2.3593 -4.95609 0
M  V30 6327 H 602.528 2.92608 -3.3141 0
M  V30 6328 N 601.587 1.56661 0.17182 0
M  V30 6329 C 602.835 1.81606 0.886774 0
M  V30 6330 C 603.156 0.678818 1.82803 0
M  V30 6331 O 602.426 -0.301354 1.93568 0
M  V30 6332 H 601.006 0.669934 0.330451 0
M  V30 6333 H 603.668 1.94142 0.171757 0
M  V30 6334 H 602.764 2.75634 1.46398 0
M  V30 6335 N 603.065 -0.440357 1.51323 0
M  V30 6336 C 603.975 -1.55955 1.75258 0
M  V30 6337 C 604.991 -1.61933 0.636687 0
M  V30 6338 O 606.167 -1.79231 0.918593 0
M  V30 6339 C 603.232 -2.9196 1.86977 0
M  V30 6340 C 602.293 -2.96122 3.10822 0
M  V30 6341 C 601.526 -4.2564 3.21973 0
M  V30 6342 O 601.749 -5.17851 2.39137 0
M  V30 6343 O 600.683 -4.36025 4.14929 0
M  V30 6344 H 604.509 -1.38673 2.70191 0
M  V30 6345 H 602.094 -0.623055 1.35788 0
M  V30 6346 H 603.976 -3.72682 1.96688 0
M  V30 6347 H 602.651 -3.09375 0.952307 0
M  V30 6348 H 601.558 -2.14366 3.06591 0
M  V30 6349 H 602.891 -2.83651 4.02247 0
M  V30 6350 N 604.543 -1.41418 -0.695603 0
M  V30 6351 C 605.473 -1.46035 -1.82197 0
M  V30 6352 C 606.454 -0.319025 -1.67082 0
M  V30 6353 O 607.639 -0.530462 -1.86815 0
M  V30 6354 C 604.769 -1.34179 -3.20333 0
M  V30 6355 C 603.723 -2.46123 -3.50154 0
M  V30 6356 C 603.049 -2.19332 -4.87645 0
M  V30 6357 C 604.349 -3.88463 -3.49133 0
M  V30 6358 H 606.043 -2.40303 -1.78591 0
M  V30 6359 H 603.589 -1.15663 -0.857797 0
M  V30 6360 H 605.542 -1.36021 -3.98844 0
M  V30 6361 H 604.266 -0.363952 -3.24566 0
M  V30 6362 H 602.925 -2.43563 -2.73994 0
M  V30 6363 H 602.573 -1.19891 -4.88503 0
M  V30 6364 H 602.273 -2.94344 -5.08562 0
M  V30 6365 H 603.797 -2.22889 -5.68465 0
M  V30 6366 H 605.211 -3.92738 -4.17648 0
M  V30 6367 H 603.608 -4.63158 -3.81582 0
M  V30 6368 H 604.678 -4.16617 -2.48109 0
M  V30 6369 N 606.021 0.929856 -1.27246 0
M  V30 6370 C 606.968 2.03017 -1.09785 0
M  V30 6371 C 607.938 1.661 0.000456744 0
M  V30 6372 O 609.123 1.90116 -0.161462 0
M  V30 6373 C 606.263 3.36878 -0.748816 0
M  V30 6374 C 605.376 3.86763 -1.92453 0
M  V30 6375 C 604.511 5.09061 -1.51758 0
M  V30 6376 C 603.55 5.51237 -2.66091 0
M  V30 6377 N 602.687 6.64732 -2.25999 0
M  V30 6378 H 607.527 2.17285 -2.03939 0
M  V30 6379 H 605.064 1.06448 -1.01524 0
M  V30 6380 H 607.022 4.13855 -0.527283 0
M  V30 6381 H 605.652 3.22424 0.155771 0
M  V30 6382 H 604.704 3.06086 -2.25867 0
M  V30 6383 H 606.016 4.13994 -2.78227 0
M  V30 6384 H 605.17 5.93532 -1.25716 0
M  V30 6385 H 603.909 4.83602 -0.630896 0
M  V30 6386 H 602.914 4.65316 -2.92849 0
M  V30 6387 H 604.139 5.78692 -3.55377 0
M  V30 6388 H 602.085 6.40935 -1.3978 0
M  V30 6389 H 602.002 6.91607 -3.05313 0
M  V30 6390 H 603.27 7.52549 -2.03199 0
M  V30 6391 N 607.499 1.09233 1.13605 0
M  V30 6392 C 608.429 0.751738 2.21068 0
M  V30 6393 C 609.41 -0.269688 1.67948 0
M  V30 6394 O 610.595 -0.13819 1.93708 0
M  V30 6395 C 607.725 0.16935 3.46887 0
M  V30 6396 C 606.679 1.12007 4.13084 0
M  V30 6397 C 606.005 0.399483 5.33206 0
M  V30 6398 C 607.305 2.46168 4.6065 0
M  V30 6399 H 608.999 1.65024 2.49815 0
M  V30 6400 H 606.545 0.794905 1.20072 0
M  V30 6401 H 608.498 -0.0809824 4.21322 0
M  V30 6402 H 607.222 -0.764335 3.1753 0
M  V30 6403 H 605.881 1.35564 3.40614 0
M  V30 6404 H 605.529 -0.538277 5.00112 0
M  V30 6405 H 605.229 1.03337 5.78442 0
M  V30 6406 H 606.753 0.157403 6.10397 0
M  V30 6407 H 608.167 2.26829 5.26518 0
M  V30 6408 H 606.564 3.05326 5.1662 0
M  V30 6409 H 607.634 3.07076 3.75276 0
M  V30 6410 N 608.977 -1.30795 0.87923 0
M  V30 6411 C 610.254 -1.91145 0.415086 0
M  V30 6412 C 610.634 -1.7995 -1.10368 0
M  V30 6413 O 609.982 -1.21305 -1.93642 0
M  V30 6414 C 610.192 -3.37014 0.906778 0
M  V30 6415 C 611.54 -4.14101 0.938358 0
M  V30 6416 O 612.564 -3.45834 0.853053 0
M  V30 6417 O 611.423 -5.36054 1.06342 0
M  V30 6418 H 608.517 -0.81736 0.125905 0
M  V30 6419 H 611.063 -1.39401 0.967753 0
M  V30 6420 H 609.835 -3.3922 1.95053 0
M  V30 6421 H 609.458 -3.96204 0.332948 0
M  V30 6422 N 610.455 -0.639598 -1.44038 0
M  V30 6423 C 611.871 -0.305953 -1.5664 0
M  V30 6424 C 612.071 1.19055 -1.62567 0
M  V30 6425 O 611.127 1.97492 -1.57331 0
M  V30 6426 C 612.44 -1.00533 -2.83397 0
M  V30 6427 C 613.988 -0.984278 -2.97121 0
M  V30 6428 C 614.463 -1.66428 -4.26691 0
M  V30 6429 N 615.954 -1.63127 -4.33525 0
M  V30 6430 C 616.689 -2.12629 -5.32519 0
M  V30 6431 N 616.185 -2.70359 -6.3787 0
M  V30 6432 N 617.978 -2.03208 -5.24083 0
M  V30 6433 H 610.129 -1.6109 -1.38434 0
M  V30 6434 H 612.392 -0.676672 -0.663942 0
M  V30 6435 H 612.098 -2.06034 -2.85032 0
M  V30 6436 H 611.972 -0.548362 -3.73193 0
M  V30 6437 H 614.359 0.0622792 -2.95034 0
M  V30 6438 H 614.44 -1.47981 -2.08651 0
M  V30 6439 H 614.084 -2.71034 -4.29538 0
M  V30 6440 H 614.014 -1.14351 -5.14034 0
M  V30 6441 H 616.505 -1.20987 -3.58009 0
M  V30 6442 H 616.818 -3.05842 -7.09704 0
M  V30 6443 H 615.163 -2.74414 -6.38531 0
M  V30 6444 H 618.354 -1.57823 -4.40692 0
M  V30 6445 H 618.527 -2.42097 -6.01077 0
M  V30 6446 N 611.933 1.52934 -0.380664 0
M  V30 6447 C 612.863 2.29118 0.450268 0
M  V30 6448 C 613.844 1.32153 1.07096 0
M  V30 6449 O 615.029 1.61038 1.08537 0
M  V30 6450 C 612.159 3.09161 1.58231 0
M  V30 6451 C 611.113 4.13938 1.0881 0
M  V30 6452 C 610.439 4.82153 2.31155 0
M  V30 6453 C 611.739 5.22048 0.162146 0
M  V30 6454 H 613.433 2.98826 -0.185361 0
M  V30 6455 H 610.979 1.43715 -0.0905886 0
M  V30 6456 H 612.932 3.61211 2.17036 0
M  V30 6457 H 611.656 2.3717 2.2454 0
M  V30 6458 H 610.315 3.62855 0.522633 0
M  V30 6459 H 609.963 4.06719 2.95953 0
M  V30 6460 H 609.663 5.52966 1.98752 0
M  V30 6461 H 611.187 5.37004 2.90618 0
M  V30 6462 H 612.601 5.6951 0.658126 0
M  V30 6463 H 610.998 6.00057 -0.0717122 0
M  V30 6464 H 612.068 4.78398 -0.791438 0
M  V30 6465 N 613.412 0.11024 1.57214 0
M  V30 6466 C 614.342 -0.840002 2.17867 0
M  V30 6467 C 615.323 -1.28352 1.11624 0
M  V30 6468 O 616.508 -1.3477 1.39824 0
M  V30 6469 C 613.638 -2.09349 2.77111 0
M  V30 6470 C 612.592 -1.78807 3.8886 0
M  V30 6471 C 611.918 -3.11112 4.34872 0
M  V30 6472 C 613.218 -1.0632 5.11364 0
M  V30 6473 H 614.912 -0.334608 2.97524 0
M  V30 6474 H 612.458 -0.159502 1.43114 0
M  V30 6475 H 614.411 -2.76275 3.18198 0
M  V30 6476 H 613.135 -2.62198 1.9473 0
M  V30 6477 H 611.794 -1.14273 3.48335 0
M  V30 6478 H 611.442 -3.61877 3.49362 0
M  V30 6479 H 611.142 -2.91453 5.10224 0
M  V30 6480 H 612.666 -3.79171 4.78604 0
M  V30 6481 H 614.08 -1.63383 5.49526 0
M  V30 6482 H 612.477 -0.967876 5.92243 0
M  V30 6483 H 613.547 -0.0484569 4.84876 0
M  V30 6484 N 614.89 -1.56749 -0.16351 0
M  V30 6485 C 615.82 -2.00042 -1.20438 0
M  V30 6486 C 616.801 -0.877256 -1.45733 0
M  V30 6487 O 617.986 -1.1439 -1.56935 0
M  V30 6488 C 615.116 -2.36697 -2.54149 0
M  V30 6489 C 614.07 -3.52046 -2.43408 0
M  V30 6490 C 613.396 -3.74466 -3.81679 0
M  V30 6491 C 614.696 -4.85247 -1.93216 0
M  V30 6492 H 616.39 -2.87244 -0.844477 0
M  V30 6493 H 613.936 -1.38194 -0.40478 0
M  V30 6494 H 615.889 -2.65582 -3.27176 0
M  V30 6495 H 614.613 -1.46414 -2.91943 0
M  V30 6496 H 613.272 -3.23301 -1.72834 0
M  V30 6497 H 612.92 -2.81461 -4.1688 0
M  V30 6498 H 612.62 -4.52084 -3.75359 0
M  V30 6499 H 614.144 -4.0576 -4.5628 0
M  V30 6500 H 615.558 -5.12957 -2.56023 0
M  V30 6501 H 613.955 -5.66556 -1.97825 0
M  V30 6502 H 615.025 -4.7672 -0.88689 0
M  V30 6503 N 616.368 0.432326 -1.51554 0
M  V30 6504 C 617.278 1.55023 -1.76082 0
M  V30 6505 C 618.294 1.61593 -0.645265 0
M  V30 6506 O 619.47 1.78742 -0.928086 0
M  V30 6507 C 616.535 2.90964 -1.88523 0
M  V30 6508 C 615.596 2.9447 -3.12388 0
M  V30 6509 C 614.829 4.23926 -3.24225 0
M  V30 6510 O 615.052 5.16576 -2.4188 0
M  V30 6511 O 613.986 4.33818 -4.17235 0
M  V30 6512 H 617.812 1.37238 -2.70923 0
M  V30 6513 H 615.397 0.615845 -1.36117 0
M  V30 6514 H 617.279 3.71633 -1.98662 0
M  V30 6515 H 615.954 3.08865 -0.9687 0
M  V30 6516 H 614.861 2.12737 -3.07723 0
M  V30 6517 H 616.194 2.81514 -4.03746 0
M  V30 6518 N 617.846 1.41785 0.688094 0
M  V30 6519 C 618.776 1.47 1.8142 0
M  V30 6520 C 619.757 0.327881 1.6691 0
M  V30 6521 O 620.942 0.540362 1.86531 0
M  V30 6522 C 618.072 1.35876 3.19617 0
M  V30 6523 C 617.026 2.47976 3.48844 0
M  V30 6524 C 616.352 2.21915 4.86475 0
M  V30 6525 C 617.652 3.90309 3.47068 0
M  V30 6526 H 619.346 2.41247 1.77314 0
M  V30 6527 H 616.892 1.16116 0.851651 0
M  V30 6528 H 618.845 1.38134 3.98117 0
M  V30 6529 H 617.569 0.38116 3.24368 0
M  V30 6530 H 616.228 2.45013 2.72698 0
M  V30 6531 H 615.876 1.2248 4.8786 0
M  V30 6532 H 615.576 2.97037 5.06994 0
M  V30 6533 H 617.1 2.25901 5.67275 0
M  V30 6534 H 618.514 3.94947 4.1556 0
M  V30 6535 H 616.911 4.65175 3.7912 0
M  V30 6536 H 617.981 4.17927 2.45896 0
M  V30 6537 N 619.324 -0.923095 1.27737 0
M  V30 6538 C 620.271 -2.02432 1.1086 0
M  V30 6539 C 621.241 -1.66098 0.00835195 0
M  V30 6540 O 622.426 -1.90027 0.171542 0
M  V30 6541 C 619.566 -3.36476 0.766671 0
M  V30 6542 C 618.679 -3.85737 1.94501 0
M  V30 6543 C 617.814 -5.08249 1.54455 0
M  V30 6544 C 616.853 -5.49818 2.6901 0
M  V30 6545 N 615.99 -6.63524 2.29521 0
M  V30 6546 H 620.83 -2.16201 2.05089 0
M  V30 6547 H 618.367 -1.05909 1.02087 0
M  V30 6548 H 620.325 -4.13569 0.549223 0
M  V30 6549 H 618.955 -3.22502 -0.13867 0
M  V30 6550 H 618.007 -3.04883 2.27487 0
M  V30 6551 H 619.319 -4.12513 2.80419 0
M  V30 6552 H 618.473 -5.92857 1.28862 0
M  V30 6553 H 617.212 -4.83261 0.656534 0
M  V30 6554 H 616.217 -4.63757 2.95313 0
M  V30 6555 H 617.442 -5.76799 3.5844 0
M  V30 6556 H 615.388 -6.40185 1.43177 0
M  V30 6557 H 615.305 -6.89978 3.08977 0
M  V30 6558 H 616.573 -7.51461 2.07187 0
M  V30 6559 N 620.802 -1.09834 -1.13024 0
M  V30 6560 C 621.752 -0.710899 -2.16634 0
M  V30 6561 C 622.736 0.276836 -1.58501 0
M  V30 6562 O 623.928 0.0865457 -1.76788 0
M  V30 6563 C 621.057 -0.137574 -3.43024 0
M  V30 6564 C 620.143 -1.15198 -4.08155 0
M  V30 6565 N 620.534 -2.34054 -4.48388 0
M  V30 6566 C 618.832 -0.991074 -4.34849 0
M  V30 6567 C 619.533 -2.98616 -4.99203 0
M  V30 6568 N 618.509 -2.26159 -4.94321 0
M  V30 6569 H 622.311 -1.61576 -2.455 0
M  V30 6570 H 619.825 -0.975158 -1.29863 0
M  V30 6571 H 621.822 0.158031 -4.166 0
M  V30 6572 H 620.482 0.762088 -3.1563 0
M  V30 6573 H 621.493 -2.7162 -4.40957 0
M  V30 6574 H 618.17 -0.146448 -4.17243 0
M  V30 6575 H 619.56 -3.99683 -5.40096 0
M  V30 6576 N 622.28 1.30327 -0.886154 0
M  V30 6577 C 623.505 2.0079 -0.519425 0
M  V30 6578 C 623.93 1.65979 0.885013 0
M  V30 6579 O 623.288 0.877043 1.58675 0
M  V30 6580 C 623.336 3.53686 -0.702758 0
M  V30 6581 O 622.44 4.11637 0.250828 0
M  V30 6582 H 621.781 0.63171 -0.204544 0
M  V30 6583 H 624.311 1.66145 -1.19402 0
M  V30 6584 H 624.321 4.03531 -0.602207 0
M  V30 6585 H 622.996 3.78361 -1.72673 0
M  V30 6586 H 621.573 3.72755 0.103873 0
M  V30 6587 N 623.758 0.647228 1.43697 0
M  V30 6588 C 624.706 -0.0600105 2.32523 0
M  V30 6589 C 625.7 -0.819277 1.48271 0
M  V30 6590 O 626.906 -0.730356 1.64517 0
M  V30 6591 H 623.281 -0.0381872 0.75103 0
M  V30 6592 H 625.252 0.706978 2.89904 0
M  V30 6593 C 624.001 -1.0169 3.32497 0
M  V30 6594 H 623.324 -0.442083 3.97348 0
M  V30 6595 H 624.764 -1.48095 3.97296 0
M  V30 6596 C 623.223 -2.11002 2.6264 0
M  V30 6597 O 623.753 -3.19302 2.4374 0
M  V30 6598 N 621.959 -1.87388 2.22113 0
M  V30 6599 H 621.506 -0.993174 2.37684 0
M  V30 6600 H 621.464 -2.60723 1.75701 0
M  V30 6601 N 625.236 -1.5273 0.388769 0
M  V30 6602 C 626.485 -2.00757 -0.194833 0
M  V30 6603 C 626.798 -1.27951 -1.47946 0
M  V30 6604 O 628.004 -1.66686 -2.14308 0
M  V30 6605 C 626.46 -3.57695 -0.397762 0
M  V30 6606 C 626.068 -4.394 0.873583 0
M  V30 6607 C 627.812 -4.14012 -0.937759 0
M  V30 6608 C 625.719 -5.87938 0.638962 0
M  V30 6609 H 624.649 -0.750101 -0.0765845 0
M  V30 6610 H 627.3 -1.76239 0.511086 0
M  V30 6611 H 625.682 -3.7846 -1.16552 0
M  V30 6612 H 626.856 -4.30403 1.64591 0
M  V30 6613 H 625.171 -3.94301 1.33849 0
M  V30 6614 H 627.768 -5.22645 -1.12899 0
M  V30 6615 H 628.111 -3.7007 -1.90666 0
M  V30 6616 H 628.644 -3.97137 -0.229588 0
M  V30 6617 H 625.383 -6.36202 1.57885 0
M  V30 6618 H 624.903 -5.99726 -0.094443 0
M  V30 6619 H 626.582 -6.46423 0.273299 0
M  V30 6620 N 626.714 -0.118576 -1.57153 0
M  V30 6621 C 627.962 0.538461 -1.94795 0
M  V30 6622 C 628.283 1.67243 -1.00274 0
M  V30 6623 O 627.553 1.95811 -0.0589692 0
M  V30 6624 H 626.133 0.201904 -0.719197 0
M  V30 6625 H 628.795 -0.187418 -1.93997 0
M  V30 6626 H 627.891 0.933315 -2.97818 0
M  V30 6627 N 628.193 1.56834 0.155195 0
M  V30 6628 C 629.604 1.72421 0.716082 0
M  V30 6629 C 629.955 0.731685 1.82046 0
M  V30 6630 O 629.08 -0.103481 2.16152 0
M  V30 6631 C 629.675 3.12629 1.30571 0
M  V30 6632 C 628.234 3.29846 1.81325 0
M  V30 6633 C 627.381 2.68359 0.698494 0
M  V30 6634 H 630.332 1.58544 -0.0703861 0
M  V30 6635 H 630.353 3.12174 2.1755 0
M  V30 6636 H 629.865 3.84844 0.501701 0
M  V30 6637 H 627.966 2.62614 2.64319 0
M  V30 6638 H 628.079 4.37727 1.9476 0
M  V30 6639 H 626.443 2.28604 1.12305 0
M  V30 6640 H 627.226 3.43171 -0.0939366 0
M  V30 6641 N 629.671 -0.424282 1.51781 0
M  V30 6642 C 630.918 -1.1726 1.65095 0
M  V30 6643 C 631.246 -1.90881 0.373477 0
M  V30 6644 O 630.501 -1.84835 -0.642997 0
M  V30 6645 C 630.8 -2.20418 2.81337 0
M  V30 6646 C 630.466 -1.63715 4.20129 0
M  V30 6647 C 629.128 -1.47975 4.57883 0
M  V30 6648 C 631.48 -1.22157 5.06682 0
M  V30 6649 C 628.808 -0.891703 5.79884 0
M  V30 6650 C 631.16 -0.647767 6.29275 0
M  V30 6651 C 629.824 -0.477371 6.65791 0
M  V30 6652 H 629.094 -0.429085 0.604125 0
M  V30 6653 H 631.741 -0.461852 1.85847 0
M  V30 6654 H 630.046 -2.97581 2.54859 0
M  V30 6655 H 631.743 -2.78163 2.88836 0
M  V30 6656 H 628.333 -1.76946 3.90369 0
M  V30 6657 H 632.517 -1.33133 4.7811 0
M  V30 6658 H 627.773 -0.747563 6.06813 0
M  V30 6659 H 631.947 -0.317291 6.95677 0
M  V30 6660 H 629.574 -0.0195936 7.60197 0
M  V30 6661 N 631.149 -1.42148 -0.680565 0
M  V30 6662 C 632.56 -1.3768 -1.26099 0
M  V30 6663 C 632.911 -0.0672348 -1.96085 0
M  V30 6664 O 632.036 0.834172 -1.99676 0
M  V30 6665 C 632.631 -2.49387 -2.29328 0
M  V30 6666 C 631.19 -2.4827 -2.82911 0
M  V30 6667 C 630.337 -2.2847 -1.57152 0
M  V30 6668 H 633.288 -1.51446 -0.474326 0
M  V30 6669 H 633.309 -2.19307 -3.10941 0
M  V30 6670 H 632.821 -3.44686 -1.78363 0
M  V30 6671 H 630.922 -1.56773 -3.38013 0
M  V30 6672 H 631.035 -3.45109 -3.3232 0
M  V30 6673 H 629.399 -1.76623 -1.83511 0
M  V30 6674 H 630.182 -3.25816 -1.0816 0
M  V30 6675 N 632.627 0.916307 -1.28225 0
M  V30 6676 C 633.873 1.66765 -1.154 0
M  V30 6677 C 634.206 1.91912 0.297251 0
M  V30 6678 O 633.481 1.51766 1.21644 0
M  V30 6679 C 633.764 3.02715 -1.95028 0
M  V30 6680 C 633.617 2.84738 -3.48201 0
M  V30 6681 C 634.936 4.03215 -1.76369 0
M  V30 6682 H 632.055 0.605205 -0.42059 0
M  V30 6683 H 634.697 1.06255 -1.57512 0
M  V30 6684 H 632.847 3.54365 -1.59242 0
M  V30 6685 H 634.519 2.40118 -3.9388 0
M  V30 6686 H 632.762 2.19848 -3.73964 0
M  V30 6687 H 633.433 3.8127 -3.99171 0
M  V30 6688 H 635.909 3.60617 -2.07593 0
M  V30 6689 H 634.785 4.96306 -2.34459 0
M  V30 6690 H 635.046 4.36288 -0.71452 0
M  V30 6691 N 634.105 1.10431 1.1244 0
M  V30 6692 C 635.015 0.765502 2.21759 0
M  V30 6693 C 636.031 -0.236966 1.72379 0
M  V30 6694 O 637.207 -0.0757329 2.01258 0
M  V30 6695 C 634.272 0.202316 3.46109 0
M  V30 6696 C 633.333 1.26205 4.1033 0
M  V30 6697 C 632.566 0.725648 5.28744 0
M  V30 6698 O 632.789 -0.447942 5.68638 0
M  V30 6699 O 631.723 1.48555 5.83279 0
M  V30 6700 H 635.549 1.67801 2.53133 0
M  V30 6701 H 633.134 0.879443 1.20773 0
M  V30 6702 H 635.016 -0.107918 4.21262 0
M  V30 6703 H 633.691 -0.683052 3.16411 0
M  V30 6704 H 632.598 1.62514 3.36957 0
M  V30 6705 H 633.931 2.12044 4.44183 0
M  V30 6706 N 635.583 -1.29855 0.893053 0
M  V30 6707 C 636.513 -2.3035 0.382249 0
M  V30 6708 C 637.494 -1.61328 -0.539203 0
M  V30 6709 O 638.679 -1.88882 -0.451342 0
M  V30 6710 C 635.809 -3.45024 -0.396983 0
M  V30 6711 C 634.763 -4.258 0.433437 0
M  V30 6712 C 634.089 -5.32605 -0.472889 0
M  V30 6713 C 635.389 -4.94549 1.67984 0
M  V30 6714 H 637.083 -2.73325 1.22205 0
M  V30 6715 H 634.629 -1.314 0.589073 0
M  V30 6716 H 636.582 -4.14398 -0.765024 0
M  V30 6717 H 635.306 -3.00875 -1.2705 0
M  V30 6718 H 633.965 -3.58125 0.783723 0
M  V30 6719 H 633.613 -4.84702 -1.34435 0
M  V30 6720 H 633.313 -5.87547 0.0789958 0
M  V30 6721 H 634.837 -6.04832 -0.837269 0
M  V30 6722 H 636.251 -5.56395 1.38192 0
M  V30 6723 H 634.648 -5.59393 2.17254 0
M  V30 6724 H 635.718 -4.20215 2.41965 0
M  V30 6725 N 637.061 -0.65484 -1.43351 0
M  V30 6726 C 637.991 0.0221809 -2.33489 0
M  V30 6727 C 638.972 0.810272 -1.49561 0
M  V30 6728 O 640.157 0.771426 -1.78221 0
M  V30 6729 C 637.287 0.988117 -3.32947 0
M  V30 6730 C 636.241 0.310026 -4.26876 0
M  V30 6731 C 635.567 1.38752 -5.16384 0
M  V30 6732 C 636.867 -0.798589 -5.16159 0
M  V30 6733 H 638.561 -0.730571 -2.9035 0
M  V30 6734 H 636.107 -0.352773 -1.39612 0
M  V30 6735 H 638.06 1.47067 -3.94904 0
M  V30 6736 H 636.784 1.77205 -2.74346 0
M  V30 6737 H 635.443 -0.152097 -3.66284 0
M  V30 6738 H 635.091 2.16293 -4.54121 0
M  V30 6739 H 634.791 0.939051 -5.80048 0
M  V30 6740 H 636.315 1.87141 -5.81215 0
M  V30 6741 H 637.729 -0.398126 -5.71916 0
M  V30 6742 H 636.126 -1.17163 -5.88552 0
M  V30 6743 H 637.196 -1.65588 -4.55751 0
M  V30 6744 N 638.539 1.52521 -0.396863 0
M  V30 6745 C 639.471 2.24333 0.469814 0
M  V30 6746 C 640.484 1.2685 1.02043 0
M  V30 6747 O 641.673 1.52876 0.92147 0
M  V30 6748 C 638.773 2.95202 1.66461 0
M  V30 6749 C 637.946 4.19454 1.24003 0
M  V30 6750 C 637.005 4.73255 2.30036 0
M  V30 6751 O 636.031 5.36151 1.91131 0
M  V30 6752 N 637.233 4.53765 3.62047 0
M  V30 6753 H 639.998 2.99347 -0.145468 0
M  V30 6754 H 637.559 1.60348 -0.223606 0
M  V30 6755 H 639.551 3.28092 2.36934 0
M  V30 6756 H 638.121 2.2345 2.18607 0
M  V30 6757 H 637.341 3.92517 0.363892 0
M  V30 6758 H 638.629 5.0017 0.933135 0
M  V30 6759 H 638.027 4.03576 3.96412 0
M  V30 6760 H 636.584 4.91124 4.28533 0
M  V30 6761 N 640.017 0.126909 1.57088 0
M  V30 6762 C 641.294 -0.573152 1.87014 0
M  V30 6763 C 641.674 -1.84297 1.02945 0
M  V30 6764 O 641.022 -2.28232 0.110573 0
M  V30 6765 C 641.232 -0.857984 3.38289 0
M  V30 6766 C 642.58 -1.20759 4.07066 0
M  V30 6767 O 643.604 -0.947992 3.43353 0
M  V30 6768 O 642.463 -1.69516 5.19545 0
M  V30 6769 H 639.557 -0.290082 0.774456 0
M  V30 6770 H 642.103 0.162008 1.68925 0
M  V30 6771 H 640.875 0.0415286 3.91278 0
M  V30 6772 H 640.498 -1.64803 3.61837 0
M  V30 6773 N 641.495 -1.56914 -0.146875 0
M  V30 6774 C 642.744 -1.82546 -0.857898 0
M  V30 6775 C 643.057 -0.708169 -1.8233 0
M  V30 6776 O 644.263 -0.850093 -2.57848 0
M  V30 6777 C 642.719 -3.23548 -1.57623 0
M  V30 6778 C 642.327 -4.43212 -0.653224 0
M  V30 6779 C 644.071 -3.58453 -2.27402 0
M  V30 6780 C 641.978 -5.75237 -1.37318 0
M  V30 6781 H 640.908 -0.680786 -0.32411 0
M  V30 6782 H 643.559 -1.83166 -0.110639 0
M  V30 6783 H 641.941 -3.17315 -2.36912 0
M  V30 6784 H 643.115 -4.60682 0.104452 0
M  V30 6785 H 641.43 -4.16351 -0.0638336 0
M  V30 6786 H 644.027 -4.54349 -2.81907 0
M  V30 6787 H 644.37 -2.84516 -3.03901 0
M  V30 6788 H 644.903 -3.66347 -1.55032 0
M  V30 6789 H 641.642 -6.52269 -0.650041 0
M  V30 6790 H 641.162 -5.61703 -2.10357 0
M  V30 6791 H 642.841 -6.18039 -1.91406 0
M  V30 6792 N 642.974 0.416227 -1.52004 0
M  V30 6793 C 643.907 1.52736 -1.6955 0
M  V30 6794 C 644.885 1.53264 -0.54305 0
M  V30 6795 O 646.069 1.72077 -0.769527 0
M  V30 6796 C 643.196 2.91283 -1.72835 0
M  V30 6797 C 642.242 3.08695 -2.94295 0
M  V30 6798 S 643.075 2.82758 -4.54762 0
M  V30 6799 C 644.231 4.23548 -4.60823 0
M  V30 6800 H 644.464 1.37623 -2.63528 0
M  V30 6801 H 641.997 0.607335 -1.41954 0
M  V30 6802 H 643.955 3.71134 -1.75413 0
M  V30 6803 H 642.616 3.03742 -0.799966 0
M  V30 6804 H 641.809 4.10042 -2.93056 0
M  V30 6805 H 641.411 2.36699 -2.89568 0
M  V30 6806 H 643.703 5.17078 -4.37763 0
M  V30 6807 H 644.646 4.29813 -5.62731 0
M  V30 6808 H 645.054 4.08188 -3.89927 0
M  V30 6809 N 644.452 1.42507 0.673017 0
M  V30 6810 C 645.4 1.46362 1.80779 0
M  V30 6811 C 646.394 0.339166 1.6597 0
M  V30 6812 O 647.6 0.512262 1.72557 0
M  V30 6813 H 643.975 0.458433 0.596107 0
M  V30 6814 H 645.946 2.41953 1.74646 0
M  V30 6815 C 644.695 1.38462 3.18941 0
M  V30 6816 H 644.018 2.24283 3.30964 0
M  V30 6817 H 645.458 1.45221 3.98355 0
M  V30 6818 C 643.917 0.0996354 3.36753 0
M  V30 6819 O 644.447 -0.846894 3.92671 0
M  V30 6820 N 642.653 0.016211 2.90595 0
M  V30 6821 H 642.2 0.78725 2.45276 0
M  V30 6822 H 642.158 -0.84291 3.0289 0
M  V30 6823 N 645.93 -0.909495 1.28709 0
M  V30 6824 C 647.16 -1.69027 1.188 0
M  V30 6825 C 647.568 -1.87469 -0.255329 0
M  V30 6826 O 646.911 -1.40458 -1.18394 0
M  V30 6827 C 646.973 -3.10064 1.81936 0
M  V30 6828 C 646.637 -3.14891 3.31199 0
M  V30 6829 C 647.634 -2.95768 4.27571 0
M  V30 6830 C 645.319 -3.37269 3.7223 0
M  V30 6831 C 647.313 -2.98942 5.6295 0
M  V30 6832 C 645 -3.40074 5.07733 0
M  V30 6833 C 645.998 -3.20932 6.02903 0
M  V30 6834 O 645.686 -3.23507 7.35934 0
M  V30 6835 H 645.418 -0.535014 0.413203 0
M  V30 6836 H 647.972 -1.14645 1.70428 0
M  V30 6837 H 646.202 -3.66005 1.24808 0
M  V30 6838 H 647.891 -3.70185 1.66486 0
M  V30 6839 H 648.657 -2.78302 3.97206 0
M  V30 6840 H 644.536 -3.51212 2.98615 0
M  V30 6841 H 648.08 -2.83919 6.37209 0
M  V30 6842 H 643.977 -3.5707 5.37747 0
M  V30 6843 H 644.745 -3.3984 7.44615 0
M  V30 6844 N 647.408 -1.11026 -1.11852 0
M  V30 6845 C 648.657 -0.851249 -1.82857 0
M  V30 6846 C 648.97 0.62514 -1.85341 0
M  V30 6847 O 650.176 1.00026 -2.52403 0
M  V30 6848 C 648.632 -1.47309 -3.28372 0
M  V30 6849 C 648.24 -2.9832 -3.34229 0
M  V30 6850 C 649.984 -1.29373 -4.04306 0
M  V30 6851 C 647.891 -3.53509 -4.74115 0
M  V30 6852 H 646.821 -0.314794 -0.685143 0
M  V30 6853 H 649.472 -1.33499 -1.25898 0
M  V30 6854 H 647.854 -0.917017 -3.85236 0
M  V30 6855 H 649.028 -3.60295 -2.87271 0
M  V30 6856 H 647.343 -3.15482 -2.71772 0
M  V30 6857 H 649.94 -1.68042 -5.07608 0
M  V30 6858 H 650.283 -0.235879 -4.15631 0
M  V30 6859 H 650.816 -1.8182 -3.53817 0
M  V30 6860 H 647.555 -4.58987 -4.67986 0
M  V30 6861 H 647.075 -2.96305 -5.21501 0
M  V30 6862 H 648.754 -3.51693 -5.43066 0
M  V30 6863 N 648.886 1.2938 -0.899927 0
M  V30 6864 C 650.132 1.9584 -0.526742 0
M  V30 6865 C 650.465 1.70774 0.924651 0
M  V30 6866 O 649.74 1.02084 1.65557 0
M  V30 6867 C 650.023 3.50638 -0.820062 0
M  V30 6868 C 649.876 3.85161 -2.32317 0
M  V30 6869 C 651.195 4.3903 -0.30671 0
M  V30 6870 H 648.314 0.711322 -0.192848 0
M  V30 6871 H 650.956 1.52992 -1.12665 0
M  V30 6872 H 649.106 3.87265 -0.309491 0
M  V30 6873 H 650.778 3.58477 -2.9033 0
M  V30 6874 H 649.021 3.32696 -2.78381 0
M  V30 6875 H 649.692 4.93204 -2.47898 0
M  V30 6876 H 652.168 4.09396 -0.743908 0
M  V30 6877 H 651.044 5.46226 -0.541144 0
M  V30 6878 H 651.305 4.34937 0.792588 0
M  V30 6879 N 650.364 0.662433 1.43002 0
M  V30 6880 C 651.775 0.258315 1.84904 0
M  V30 6881 C 652.126 -1.19703 1.55453 0
M  V30 6882 O 651.251 -1.91484 1.00811 0
M  V30 6883 C 651.846 0.462047 3.35635 0
M  V30 6884 C 650.405 0.112165 3.76233 0
M  V30 6885 C 649.552 0.760479 2.66668 0
M  V30 6886 H 652.503 0.865467 1.33024 0
M  V30 6887 H 652.524 -0.289646 3.79396 0
M  V30 6888 H 652.036 1.52135 3.57039 0
M  V30 6889 H 650.137 -0.944179 3.60439 0
M  V30 6890 H 650.25 0.544058 4.76001 0
M  V30 6891 H 648.614 0.192887 2.53969 0
M  V30 6892 H 649.397 1.82299 2.90898 0
M  V30 6893 N 651.842 -1.52309 0.404946 0
M  V30 6894 C 653.091 -2.00952 -0.173529 0
M  V30 6895 C 653.404 -1.29512 -1.46581 0
M  V30 6896 O 654.61 -1.6895 -2.12528 0
M  V30 6897 C 653.066 -3.58097 -0.359801 0
M  V30 6898 C 652.674 -4.38449 0.920138 0
M  V30 6899 C 654.418 -4.14984 -0.893794 0
M  V30 6900 C 652.325 -5.87227 0.701285 0
M  V30 6901 H 651.255 -0.750871 -0.0686244 0
M  V30 6902 H 653.906 -1.75687 0.529749 0
M  V30 6903 H 652.288 -3.79675 -1.12531 0
M  V30 6904 H 653.462 -4.28633 1.69147 0
M  V30 6905 H 651.777 -3.92859 1.38024 0
M  V30 6906 H 654.374 -5.23813 -1.0735 0
M  V30 6907 H 654.717 -3.72072 -1.8673 0
M  V30 6908 H 655.25 -3.97358 -0.187453 0
M  V30 6909 H 651.989 -6.34491 1.64624 0
M  V30 6910 H 651.509 -5.99792 -0.0308288 0
M  V30 6911 H 653.188 -6.46096 0.341846 0
M  V30 6912 N 653.32 -0.135238 -1.57019 0
M  V30 6913 C 654.25 0.805235 -2.19176 0
M  V30 6914 C 655.231 1.2656 -1.13651 0
M  V30 6915 O 656.416 1.32528 -1.4195 0
M  V30 6916 C 653.546 2.04914 -2.80406 0
M  V30 6917 C 652.5 1.72598 -3.91655 0
M  V30 6918 C 651.826 3.04154 -4.39766 0
M  V30 6919 C 653.126 0.981709 -5.12991 0
M  V30 6920 H 654.82 0.287232 -2.98019 0
M  V30 6921 H 652.366 0.136714 -1.4335 0
M  V30 6922 H 654.319 2.71178 -3.22553 0
M  V30 6923 H 653.043 2.59067 -1.98877 0
M  V30 6924 H 651.702 1.08717 -3.50109 0
M  V30 6925 H 651.35 3.56274 -3.55075 0
M  V30 6926 H 651.05 2.83299 -5.14796 0
M  V30 6927 H 652.574 3.71509 -4.84576 0
M  V30 6928 H 653.988 1.5462 -5.52056 0
M  V30 6929 H 652.385 0.873533 -5.93708 0
M  V30 6930 H 653.455 -0.0286887 -4.84892 0
M  V30 6931 N 654.798 1.5699 0.138552 0
M  V30 6932 C 656.044 1.84081 0.85099 0
M  V30 6933 C 656.377 0.718107 1.80435 0
M  V30 6934 O 655.652 -0.277633 1.92508 0
M  V30 6935 C 655.935 3.21699 1.61808 0
M  V30 6936 C 655.788 4.44544 0.685633 0
M  V30 6937 C 657.107 3.5664 2.57868 0
M  V30 6938 H 654.226 0.669592 0.307922 0
M  V30 6939 H 656.868 1.89646 0.11588 0
M  V30 6940 H 655.018 3.17086 2.24474 0
M  V30 6941 H 656.69 4.61248 0.0693179 0
M  V30 6942 H 654.933 4.338 -0.00421993 0
M  V30 6943 H 655.604 5.3746 1.25858 0
M  V30 6944 H 658.08 3.61918 2.05316 0
M  V30 6945 H 656.956 4.53946 3.08584 0
M  V30 6946 H 657.217 2.83036 3.39622 0
M  V30 6947 N 656.276 -0.40816 1.52223 0
M  V30 6948 C 657.206 -1.5042 1.78595 0
M  V30 6949 C 658.187 -1.57723 0.636974 0
M  V30 6950 O 659.372 -1.72982 0.882664 0
M  V30 6951 C 656.502 -2.88232 1.93751 0
M  V30 6952 C 655.456 -2.95779 3.09352 0
M  V30 6953 C 654.782 -4.35855 3.09732 0
M  V30 6954 C 656.082 -2.67175 4.48793 0
M  V30 6955 H 657.776 -1.28601 2.70374 0
M  V30 6956 H 655.322 -0.617221 1.30101 0
M  V30 6957 H 657.275 -3.64895 2.10783 0
M  V30 6958 H 655.999 -3.11347 0.986443 0
M  V30 6959 H 654.658 -2.21561 2.92072 0
M  V30 6960 H 654.306 -4.55981 2.12346 0
M  V30 6961 H 654.006 -4.41829 3.87377 0
M  V30 6962 H 655.53 -5.14451 3.28895 0
M  V30 6963 H 656.944 -3.3356 4.66273 0
M  V30 6964 H 655.341 -2.84523 5.28362 0
M  V30 6965 H 656.411 -1.62609 4.56822 0
M  V30 6966 N 657.755 -1.42862 -0.66545 0
M  V30 6967 C 659.166 -1.3901 -1.24632 0
M  V30 6968 C 659.517 -0.0880285 -1.96002 0
M  V30 6969 O 658.642 0.812947 -2.0055 0
M  V30 6970 C 659.237 -2.51806 -2.2667 0
M  V30 6971 C 657.796 -2.51257 -2.80262 0
M  V30 6972 C 656.943 -2.30124 -1.5472 0
M  V30 6973 H 659.894 -1.5194 -0.458237 0
M  V30 6974 H 659.915 -2.22593 -3.08598 0
M  V30 6975 H 659.427 -3.46558 -1.74697 0
M  V30 6976 H 657.528 -1.60349 -3.36332 0
M  V30 6977 H 657.641 -3.48614 -3.28641 0
M  V30 6978 H 656.005 -1.7856 -1.81627 0
M  V30 6979 H 656.788 -3.26945 -1.04699 0
M  V30 6980 N 659.233 0.902656 -1.29189 0
M  V30 6981 C 660.649 1.18296 -1.07137 0
M  V30 6982 C 660.849 2.00701 0.179223 0
M  V30 6983 O 659.905 2.3675 0.877812 0
M  V30 6984 C 661.218 1.90677 -2.32514 0
M  V30 6985 C 662.766 2.03515 -2.37804 0
M  V30 6986 C 663.241 2.79307 -3.62976 0
M  V30 6987 N 664.732 2.86862 -3.63681 0
M  V30 6988 C 665.467 3.46035 -4.57217 0
M  V30 6989 N 664.963 4.06399 -5.61081 0
M  V30 6990 N 666.756 3.43681 -4.44792 0
M  V30 6991 H 658.907 0.352765 -2.0945 0
M  V30 6992 H 661.17 0.21876 -0.922414 0
M  V30 6993 H 660.876 1.3756 -3.23682 0
M  V30 6994 H 660.75 2.91169 -2.39793 0
M  V30 6995 H 663.137 2.55809 -1.47125 0
M  V30 6996 H 663.218 1.02166 -2.34512 0
M  V30 6997 H 662.862 2.2769 -4.54004 0
M  V30 6998 H 662.792 3.80995 -3.63525 0
M  V30 6999 H 665.283 2.43987 -2.88581 0
M  V30 7000 H 665.596 4.49564 -6.2858 0
M  V30 7001 H 663.941 4.0487 -5.64894 0
M  V30 7002 H 667.132 2.9574 -3.62843 0
M  V30 7003 H 667.305 3.89503 -5.17872 0
M  V30 7004 N 660.711 1.11618 1.11262 0
M  V30 7005 C 661.957 0.867463 1.83311 0
M  V30 7006 C 662.29 -0.605366 1.84524 0
M  V30 7007 O 661.565 -1.44704 1.29965 0
M  V30 7008 C 661.848 1.43207 3.30399 0
M  V30 7009 C 661.701 2.97265 3.3757 0
M  V30 7010 C 663.02 1.08454 4.26528 0
M  V30 7011 H 660.139 0.316578 0.665543 0
M  V30 7012 H 662.781 1.38137 1.30454 0
M  V30 7013 H 660.931 0.994982 3.75543 0
M  V30 7014 H 662.603 3.49591 3.00971 0
M  V30 7015 H 660.846 3.33237 2.77733 0
M  V30 7016 H 661.517 3.31859 4.41105 0
M  V30 7017 H 663.993 1.4619 3.89574 0
M  V30 7018 H 662.869 1.50633 5.27826 0
M  V30 7019 H 663.13 -0.00444568 4.421 0
M  V30 7020 N 662.189 -1.289 0.906776 0
M  V30 7021 C 663.137 -2.29477 0.379873 0
M  V30 7022 C 664.131 -1.61068 -0.524747 0
M  V30 7023 O 665.337 -1.75344 -0.406765 0
M  V30 7024 H 661.712 -0.744742 0.10423 0
M  V30 7025 H 663.683 -2.71353 1.24137 0
M  V30 7026 C 662.432 -3.45713 -0.371154 0
M  V30 7027 H 661.755 -3.98551 0.315716 0
M  V30 7028 H 663.195 -4.18105 -0.704581 0
M  V30 7029 C 661.654 -2.9774 -1.57646 0
M  V30 7030 O 662.184 -2.99618 -2.67567 0
M  V30 7031 N 660.39 -2.53485 -1.42105 0
M  V30 7032 H 659.937 -2.52156 -0.526783 0
M  V30 7033 H 659.895 -2.21747 -2.22881 0
M  V30 7034 N 663.667 -0.670007 -1.42649 0
M  V30 7035 C 664.577 0.0114788 -2.34597 0
M  V30 7036 C 665.593 0.794055 -1.54825 0
M  V30 7037 O 666.769 0.737472 -1.87412 0
M  V30 7038 C 663.834 0.954436 -3.33304 0
M  V30 7039 C 662.895 0.166925 -4.28975 0
M  V30 7040 C 662.128 1.06497 -5.22967 0
M  V30 7041 O 662.351 2.30446 -5.21777 0
M  V30 7042 O 661.285 0.528347 -5.99577 0
M  V30 7043 H 665.111 -0.745794 -2.944 0
M  V30 7044 H 662.696 -0.430228 -1.43071 0
M  V30 7045 H 664.578 1.49589 -3.93956 0
M  V30 7046 H 663.253 1.69164 -2.7598 0
M  V30 7047 H 662.16 -0.418515 -3.71752 0
M  V30 7048 H 663.493 -0.531067 -4.89327 0
M  V30 7049 N 665.145 1.52092 -0.413018 0
M  V30 7050 C 666.092 2.27119 0.410558 0
M  V30 7051 C 667.062 1.29692 1.03774 0
M  V30 7052 O 668.247 1.58561 1.06128 0
M  V30 7053 C 665.387 3.09863 1.51918 0
M  V30 7054 C 664.5 4.22252 0.912528 0
M  V30 7055 C 663.635 4.92348 1.99417 0
M  V30 7056 C 662.674 5.96694 1.36466 0
M  V30 7057 N 661.811 6.60292 2.38661 0
M  V30 7058 H 666.651 2.97067 -0.235661 0
M  V30 7059 H 664.188 1.46542 -0.128055 0
M  V30 7060 H 666.146 3.56144 2.17295 0
M  V30 7061 H 664.776 2.42078 2.13537 0
M  V30 7062 H 663.828 3.80113 0.147697 0
M  V30 7063 H 665.14 4.9709 0.412717 0
M  V30 7064 H 664.294 5.42054 2.72512 0
M  V30 7065 H 663.033 4.17087 2.52764 0
M  V30 7066 H 662.038 5.46304 0.61906 0
M  V30 7067 H 663.263 6.73899 0.838827 0
M  V30 7068 H 661.209 5.87858 2.91134 0
M  V30 7069 H 661.126 7.30816 1.93503 0
M  V30 7070 H 662.394 7.14635 3.11314 0
M  V30 7071 N 666.623 0.143563 1.56945 0
M  V30 7072 C 667.553 -0.7936 2.196 0
M  V30 7073 C 668.534 -1.25955 1.14321 0
M  V30 7074 O 669.719 -1.31773 1.42651 0
M  V30 7075 C 666.849 -2.03424 2.81489 0
M  V30 7076 C 665.803 -1.70519 3.92565 0
M  V30 7077 C 665.129 -3.01817 4.41373 0
M  V30 7078 C 666.429 -0.95449 5.13504 0
M  V30 7079 H 668.123 -0.271423 2.98167 0
M  V30 7080 H 665.669 -0.12911 1.4342 0
M  V30 7081 H 667.622 -2.69463 3.23987 0
M  V30 7082 H 666.346 -2.58008 2.00248 0
M  V30 7083 H 665.005 -1.06859 3.5068 0
M  V30 7084 H 664.653 -3.54386 3.56959 0
M  V30 7085 H 664.353 -2.80565 5.16292 0
M  V30 7086 H 665.877 -3.68934 4.86539 0
M  V30 7087 H 667.291 -1.5169 5.52868 0
M  V30 7088 H 665.688 -0.842035 5.94163 0
M  V30 7089 H 666.758 0.0544033 4.84869 0
M  V30 7090 N 668.101 -1.57061 -0.130224 0
M  V30 7091 C 669.033 -1.96147 -1.18571 0
M  V30 7092 C 670.046 -0.859347 -1.38272 0
M  V30 7093 O 671.235 -1.13769 -1.37545 0
M  V30 7094 C 668.335 -2.23484 -2.54771 0
M  V30 7095 C 667.508 -3.54786 -2.55824 0
M  V30 7096 C 666.567 -3.70467 -3.73686 0
M  V30 7097 O 665.593 -4.42693 -3.57787 0
M  V30 7098 N 666.795 -3.08389 -4.91809 0
M  V30 7099 H 669.56 -2.87295 -0.853333 0
M  V30 7100 H 667.121 -1.58714 -0.319621 0
M  V30 7101 H 669.113 -2.312 -3.32158 0
M  V30 7102 H 667.683 -1.38518 -2.80235 0
M  V30 7103 H 666.903 -3.5836 -1.64232 0
M  V30 7104 H 668.191 -4.4111 -2.53573 0
M  V30 7105 H 667.589 -2.49656 -5.0763 0
M  V30 7106 H 666.146 -3.21642 -5.66912 0
M  V30 7107 N 669.579 0.400081 -1.52437 0
M  V30 7108 C 670.526 1.48803 -1.76426 0
M  V30 7109 C 671.496 1.5461 -0.607032 0
M  V30 7110 O 672.681 1.71041 -0.845563 0
M  V30 7111 C 669.821 2.86156 -1.92896 0
M  V30 7112 C 668.934 2.89587 -3.20567 0
M  V30 7113 C 668.069 4.18296 -3.27417 0
M  V30 7114 C 667.108 4.15736 -4.49255 0
M  V30 7115 N 666.245 5.36032 -4.53447 0
M  V30 7116 H 671.085 1.27649 -2.69276 0
M  V30 7117 H 668.622 0.619451 -1.33421 0
M  V30 7118 H 670.58 3.65901 -2.00429 0
M  V30 7119 H 669.21 3.05785 -1.03418 0
M  V30 7120 H 668.262 2.02278 -3.22161 0
M  V30 7121 H 669.574 2.83562 -4.10358 0
M  V30 7122 H 668.728 5.06439 -3.34072 0
M  V30 7123 H 667.467 4.27028 -2.35581 0
M  V30 7124 H 666.472 3.25982 -4.42737 0
M  V30 7125 H 667.697 4.08636 -5.42396 0
M  V30 7126 H 665.643 5.45415 -3.64498 0
M  V30 7127 H 665.56 5.32038 -5.37096 0
M  V30 7128 H 666.828 6.26104 -4.64343 0
M  V30 7129 N 671.057 1.43213 0.657864 0
M  V30 7130 C 672.305 1.44298 1.41501 0
M  V30 7131 C 672.626 0.0666478 1.94886 0
M  V30 7132 O 671.896 -0.897345 1.74139 0
M  V30 7133 H 670.476 0.531257 0.525143 0
M  V30 7134 H 673.138 1.78777 0.776195 0
M  V30 7135 H 672.234 2.1528 2.25966 0
M  V30 7136 N 672.536 -0.895792 1.29666 0
M  V30 7137 C 673.783 -1.64664 1.17864 0
M  V30 7138 C 674.111 -1.92631 -0.26902 0
M  V30 7139 O 673.366 -1.53787 -1.21029 0
M  V30 7140 C 673.665 -3.00075 1.94139 0
M  V30 7141 C 673.331 -2.91702 3.43833 0
M  V30 7142 C 671.993 -2.89126 3.84656 0
M  V30 7143 C 674.345 -2.80622 4.39205 0
M  V30 7144 C 671.673 -2.73293 5.1916 0
M  V30 7145 C 674.025 -2.66329 5.73805 0
M  V30 7146 C 672.689 -2.62121 6.1388 0
M  V30 7147 H 671.959 -0.602549 0.431295 0
M  V30 7148 H 674.606 -1.04234 1.60648 0
M  V30 7149 H 672.911 -3.64394 1.43958 0
M  V30 7150 H 674.608 -3.57111 1.82408 0
M  V30 7151 H 671.198 -2.94511 3.11386 0
M  V30 7152 H 675.382 -2.81686 4.08615 0
M  V30 7153 H 670.638 -2.68443 5.49316 0
M  V30 7154 H 674.812 -2.56727 6.47352 0
M  V30 7155 H 672.439 -2.49611 7.18052 0
M  V30 7156 N 674.014 -1.12206 -1.10668 0
M  V30 7157 C 675.425 -0.890657 -1.64086 0
M  V30 7158 C 675.776 0.575502 -1.8757 0
M  V30 7159 O 674.901 1.4394 -1.61587 0
M  V30 7160 C 675.496 -1.61029 -2.98085 0
M  V30 7161 C 674.055 -1.4251 -3.48379 0
M  V30 7162 C 673.202 -1.64778 -2.23033 0
M  V30 7163 H 676.153 -1.27718 -0.94201 0
M  V30 7164 H 676.174 -1.05993 -3.65439 0
M  V30 7165 H 675.686 -2.67735 -2.80962 0
M  V30 7166 H 673.787 -0.380497 -3.70652 0
M  V30 7167 H 673.9 -2.17959 -4.26651 0
M  V30 7168 H 672.264 -1.07171 -2.31055 0
M  V30 7169 H 673.047 -2.72776 -2.08443 0
M  V30 7170 N 675.492 1.28418 -0.913599 0
M  V30 7171 C 676.422 2.29713 -0.418847 0
M  V30 7172 C 677.403 1.62165 0.513469 0
M  V30 7173 O 678.588 1.89576 0.421235 0
M  V30 7174 C 675.718 3.45612 0.342042 0
M  V30 7175 C 674.672 4.25056 -0.501123 0
M  V30 7176 C 673.998 5.3329 0.388097 0
M  V30 7177 C 675.298 4.91814 -1.75831 0
M  V30 7178 H 676.992 2.71346 -1.26538 0
M  V30 7179 H 674.538 1.30446 -0.609903 0
M  V30 7180 H 676.491 4.15562 0.699 0
M  V30 7181 H 675.215 3.02858 1.22248 0
M  V30 7182 H 673.874 3.56833 -0.840598 0
M  V30 7183 H 673.522 4.8678 1.26707 0
M  V30 7184 H 673.222 5.87347 -0.172459 0
M  V30 7185 H 674.746 6.06088 0.74094 0
M  V30 7186 H 676.16 5.54126 -1.47026 0
M  V30 7187 H 674.557 5.55866 -2.26126 0
M  V30 7188 H 675.627 4.16313 -2.4862 0
M  V30 7189 N 676.97 0.677563 1.42291 0
M  V30 7190 C 678.381 0.277912 1.8462 0
M  V30 7191 C 678.732 -1.18048 1.56714 0
M  V30 7192 O 677.857 -1.90404 1.02836 0
M  V30 7193 C 678.452 0.497619 3.35126 0
M  V30 7194 C 677.011 0.152063 3.76093 0
M  V30 7195 C 676.158 0.78872 2.65847 0
M  V30 7196 H 679.109 0.879527 1.32098 0
M  V30 7197 H 679.13 -0.24939 3.79682 0
M  V30 7198 H 678.642 1.55913 3.55405 0
M  V30 7199 H 676.743 -0.905896 3.6142 0
M  V30 7200 H 676.856 0.594514 4.75397 0
M  V30 7201 H 675.22 0.219813 2.5375 0
M  V30 7202 H 676.003 1.85374 2.88949 0
M  V30 7203 N 678.448 -1.51871 0.421078 0
M  V30 7204 C 679.676 -2.06356 -0.14994 0
M  V30 7205 C 680.091 -1.29006 -1.37851 0
M  V30 7206 O 679.448 -0.345139 -1.79207 0
M  V30 7207 C 679.499 -3.58185 -0.488454 0
M  V30 7208 O 679.22 -4.32611 0.691341 0
M  V30 7209 C 680.721 -4.29129 -1.11191 0
M  V30 7210 H 677.941 -0.67083 -0.0151186 0
M  V30 7211 H 680.485 -1.95638 0.595476 0
M  V30 7212 H 678.64 -3.68871 -1.18376 0
M  V30 7213 H 679.054 -5.22927 0.405906 0
M  V30 7214 H 680.528 -5.36501 -1.29889 0
M  V30 7215 H 681.005 -3.86371 -2.0884 0
M  V30 7216 H 681.611 -4.22843 -0.456458 0
M  V30 7217 N 679.926 -0.151884 -1.56866 0
M  V30 7218 C 681.337 0.368128 -1.83035 0
M  V30 7219 C 681.688 1.64402 -1.07082 0
M  V30 7220 O 680.813 2.14056 -0.317647 0
M  V30 7221 C 681.408 0.674676 -3.32014 0
M  V30 7222 C 679.967 1.13919 -3.58747 0
M  V30 7223 C 679.114 0.164833 -2.7681 0
M  V30 7224 H 682.065 -0.376499 -1.54169 0
M  V30 7225 H 682.086 1.52883 -3.48435 0
M  V30 7226 H 681.598 -0.254113 -3.87267 0
M  V30 7227 H 679.699 2.08375 -3.08886 0
M  V30 7228 H 679.812 1.06179 -4.67186 0
M  V30 7229 H 678.176 0.658419 -2.46043 0
M  V30 7230 H 678.959 -0.757633 -3.34836 0
M  V30 7231 N 681.404 1.57128 0.121893 0
M  V30 7232 C 682.367 1.99197 1.13372 0
M  V30 7233 C 683.367 0.881728 1.3447 0
M  V30 7234 O 684.557 1.14783 1.31036 0
M  V30 7235 C 681.689 2.32963 2.4888 0
M  V30 7236 H 682.882 2.89788 0.772204 0
M  V30 7237 H 680.435 1.51952 0.366093 0
M  V30 7238 H 681.17 1.45243 2.89957 0
M  V30 7239 H 680.955 3.13934 2.34921 0
M  V30 7240 H 682.445 2.66261 3.21706 0
M  V30 7241 N 682.882 -0.391992 1.52647 0
M  V30 7242 C 684.298 -0.731848 1.41831 0
M  V30 7243 C 684.498 -1.9423 0.536361 0
M  V30 7244 O 683.554 -2.52499 0.00866571 0
M  V30 7245 C 684.867 -0.969743 2.84634 0
M  V30 7246 C 686.415 -1.0714 2.94092 0
M  V30 7247 C 686.89 -1.34195 4.37899 0
M  V30 7248 N 688.381 -1.41023 4.41211 0
M  V30 7249 C 689.116 -1.63616 5.49561 0
M  V30 7250 N 688.612 -1.83699 6.68002 0
M  V30 7251 N 690.405 -1.65771 5.371 0
M  V30 7252 H 682.556 0.404547 2.08512 0
M  V30 7253 H 684.819 0.11879 0.940528 0
M  V30 7254 H 684.525 -0.152465 3.51369 0
M  V30 7255 H 684.399 -1.88523 3.26709 0
M  V30 7256 H 686.786 -1.87925 2.27526 0
M  V30 7257 H 686.867 -0.133887 2.55449 0
M  V30 7258 H 686.511 -0.539207 5.0503 0
M  V30 7259 H 686.441 -2.29226 4.74092 0
M  V30 7260 H 688.932 -1.27223 3.55841 0
M  V30 7261 H 689.245 -2.00437 7.46354 0
M  V30 7262 H 687.59 -1.8093 6.71036 0
M  V30 7263 H 690.781 -1.4963 4.43541 0
M  V30 7264 H 690.954 -1.83038 6.21612 0
M  V30 7265 N 684.36 -1.4356 -0.65026 0
M  V30 7266 C 685.606 -1.45549 -1.41221 0
M  V30 7267 C 685.939 -0.0805472 -1.94033 0
M  V30 7268 O 685.214 0.899043 -1.72475 0
M  V30 7269 C 685.497 -2.50028 -2.59148 0
M  V30 7270 C 685.35 -3.96808 -2.1181 0
M  V30 7271 C 686.669 -2.51212 -3.61359 0
M  V30 7272 H 683.788 -0.529967 -0.512156 0
M  V30 7273 H 686.43 -1.75127 -0.736933 0
M  V30 7274 H 684.58 -2.24937 -3.16758 0
M  V30 7275 H 686.252 -4.32966 -1.59178 0
M  V30 7276 H 684.495 -4.09498 -1.43156 0
M  V30 7277 H 685.166 -4.6553 -2.96625 0
M  V30 7278 H 687.642 -2.73583 -3.13515 0
M  V30 7279 H 686.518 -3.26252 -4.41419 0
M  V30 7280 H 686.779 -1.54701 -4.1415 0
M  V30 7281 N 685.838 0.888903 -1.30139 0
M  V30 7282 C 686.77 1.99972 -1.11999 0
M  V30 7283 C 687.783 1.62673 -0.0643619 0
M  V30 7284 O 688.972 1.75788 -0.309983 0
M  V30 7285 C 686.072 3.31904 -0.685059 0
M  V30 7286 C 685.245 3.97665 -1.82158 0
M  V30 7287 C 684.304 5.07894 -1.37585 0
M  V30 7288 O 683.33 5.2974 -2.08241 0
M  V30 7289 N 684.532 5.7995 -0.252697 0
M  V30 7290 H 687.297 2.16085 -2.07671 0
M  V30 7291 H 684.858 1.06175 -1.22223 0
M  V30 7292 H 686.85 4.03005 -0.369964 0
M  V30 7293 H 685.42 3.12084 0.179507 0
M  V30 7294 H 684.64 3.19787 -2.305 0
M  V30 7295 H 685.928 4.3834 -2.58332 0
M  V30 7296 H 685.326 5.647 0.336141 0
M  V30 7297 H 683.883 6.518 0.00296813 0
M  V30 7298 N 687.317 1.12792 1.10072 0
M  V30 7299 C 688.247 0.821688 2.18565 0
M  V30 7300 C 689.228 -0.21612 1.68721 0
M  V30 7301 O 690.413 -0.0764932 1.94049 0
M  V30 7302 C 687.543 0.279624 3.46172 0
M  V30 7303 C 686.497 1.25092 4.09312 0
M  V30 7304 C 685.823 0.568916 5.31665 0
M  V30 7305 C 687.123 2.60699 4.52585 0
M  V30 7306 H 688.817 1.72888 2.44438 0
M  V30 7307 H 686.363 0.832702 1.17482 0
M  V30 7308 H 688.316 0.053099 4.21367 0
M  V30 7309 H 687.04 -0.662929 3.19801 0
M  V30 7310 H 685.699 1.46332 3.36129 0
M  V30 7311 H 685.347 -0.378898 5.01571 0
M  V30 7312 H 685.047 1.21687 5.74862 0
M  V30 7313 H 686.571 0.351517 6.09587 0
M  V30 7314 H 687.985 2.43465 5.19035 0
M  V30 7315 H 686.382 3.21608 5.06644 0
M  V30 7316 H 687.452 3.1886 3.65317 0
M  V30 7317 N 688.795 -1.27931 0.920396 0
M  V30 7318 C 690.025 -1.98516 0.572256 0
M  V30 7319 C 690.433 -1.68912 -0.852375 0
M  V30 7320 O 689.776 -0.94203 -1.57707 0
M  V30 7321 C 689.838 -3.5243 0.709485 0
M  V30 7322 C 689.502 -4.0564 2.10489 0
M  V30 7323 C 690.499 -4.1897 3.07831 0
M  V30 7324 C 688.184 -4.40168 2.41986 0
M  V30 7325 C 690.178 -4.66093 4.34783 0
M  V30 7326 C 687.865 -4.86983 3.69176 0
M  V30 7327 C 688.863 -4.99903 4.65388 0
M  V30 7328 O 688.551 -5.45694 5.90316 0
M  V30 7329 H 688.283 -0.64047 0.216274 0
M  V30 7330 H 690.837 -1.6393 1.23758 0
M  V30 7331 H 689.067 -3.86698 -0.0129263 0
M  V30 7332 H 690.756 -4.04233 0.367474 0
M  V30 7333 H 691.522 -3.92562 2.84816 0
M  V30 7334 H 687.401 -4.29358 1.67846 0
M  V30 7335 H 690.945 -4.76092 5.09884 0
M  V30 7336 H 686.842 -5.12832 3.92012 0
M  V30 7337 H 687.61 -5.63965 5.932 0
M  V30 7338 N 690.273 -0.685099 -1.4193 0
M  V30 7339 C 691.221 -0.00165985 -2.326 0
M  V30 7340 C 692.215 0.779678 -1.50391 0
M  V30 7341 O 693.421 0.68648 -1.66395 0
M  V30 7342 H 689.796 0.0182616 -0.751778 0
M  V30 7343 H 691.767 -0.783592 -2.87928 0
M  V30 7344 C 690.516 0.928385 -3.35077 0
M  V30 7345 H 689.839 0.336578 -3.98381 0
M  V30 7346 H 691.279 1.37509 -4.01083 0
M  V30 7347 C 689.738 2.03964 -2.68142 0
M  V30 7348 O 690.268 3.12727 -2.5212 0
M  V30 7349 N 688.474 1.81433 -2.27003 0
M  V30 7350 H 688.021 0.929807 -2.40234 0
M  V30 7351 H 687.979 2.55973 -1.82552 0
M  V30 7352 N 691.751 1.51645 -0.429126 0
M  V30 7353 C 692.997 2.02314 0.140286 0
M  V30 7354 C 693.33 1.31314 1.43074 0
M  V30 7355 O 692.605 0.425531 1.89788 0
M  V30 7356 C 692.888 3.5822 0.36749 0
M  V30 7357 C 692.741 4.39846 -0.941039 0
M  V30 7358 C 694.06 4.25055 1.14089 0
M  V30 7359 H 691.179 0.735335 0.0495112 0
M  V30 7360 H 693.821 1.81358 -0.566514 0
M  V30 7361 H 691.971 3.76207 0.969556 0
M  V30 7362 H 693.643 4.33527 -1.57646 0
M  V30 7363 H 691.886 4.05259 -1.54751 0
M  V30 7364 H 692.557 5.47069 -0.73621 0
M  V30 7365 H 695.033 4.11288 0.630986 0
M  V30 7366 H 693.909 5.34038 1.26863 0
M  V30 7367 H 694.17 3.85358 2.16683 0
M  V30 7368 N 693.229 0.160201 1.56784 0
M  V30 7369 C 694.475 -0.48831 1.96833 0
M  V30 7370 C 694.808 -1.63641 1.04571 0
M  V30 7371 O 694.083 -1.94289 0.0906481 0
M  V30 7372 C 694.366 -0.981908 3.46454 0
M  V30 7373 C 694.219 0.165607 4.49495 0
M  V30 7374 C 695.538 -1.85931 3.98896 0
M  V30 7375 H 692.657 -0.176027 0.71567 0
M  V30 7376 H 695.299 0.244093 1.88426 0
M  V30 7377 H 693.449 -1.60602 3.5375 0
M  V30 7378 H 695.121 0.802372 4.54268 0
M  V30 7379 H 693.364 0.822789 4.25926 0
M  V30 7380 H 694.035 -0.221699 5.51555 0
M  V30 7381 H 696.511 -1.33327 3.94161 0
M  V30 7382 H 695.387 -2.17373 5.04024 0
M  V30 7383 H 695.648 -2.80106 3.42042 0
M  V30 7384 N 694.707 -1.5719 -0.113559 0
M  V30 7385 C 695.637 -2.03772 -1.14013 0
M  V30 7386 C 696.618 -0.923176 -1.42869 0
M  V30 7387 O 697.803 -1.19325 -1.53216 0
M  V30 7388 C 694.933 -2.44663 -2.4649 0
M  V30 7389 C 693.887 -3.59612 -2.32085 0
M  V30 7390 C 693.213 -3.8642 -3.69573 0
M  V30 7391 C 694.513 -4.91149 -1.7768 0
M  V30 7392 H 696.207 -2.89785 -0.752665 0
M  V30 7393 H 693.753 -1.39412 -0.360609 0
M  V30 7394 H 695.706 -2.75857 -3.18561 0
M  V30 7395 H 694.43 -1.55628 -2.87137 0
M  V30 7396 H 693.089 -3.28636 -1.62461 0
M  V30 7397 H 692.737 -2.94581 -4.07715 0
M  V30 7398 H 692.437 -4.63797 -3.60786 0
M  V30 7399 H 693.961 -4.2007 -4.4314 0
M  V30 7400 H 695.375 -5.20843 -2.39574 0
M  V30 7401 H 693.772 -5.72562 -1.79701 0
M  V30 7402 H 694.842 -4.79301 -0.734776 0
M  V30 7403 N 696.185 0.383891 -1.52853 0
M  V30 7404 C 697.117 1.48889 -1.74255 0
M  V30 7405 C 698.13 1.50405 -0.623063 0
M  V30 7406 O 699.319 1.54215 -0.898887 0
M  V30 7407 C 696.419 2.87721 -1.79081 0
M  V30 7408 C 695.592 3.10111 -3.08464 0
M  V30 7409 C 694.651 4.28954 -3.0477 0
M  V30 7410 O 693.677 4.25012 -3.78621 0
M  V30 7411 N 694.879 5.35411 -2.24311 0
M  V30 7412 H 697.644 1.30915 -2.69595 0
M  V30 7413 H 695.205 0.573454 -1.51404 0
M  V30 7414 H 697.197 3.65333 -1.7411 0
M  V30 7415 H 695.767 2.99029 -0.911052 0
M  V30 7416 H 694.987 2.20319 -3.26884 0
M  V30 7417 H 696.275 3.21928 -3.94005 0
M  V30 7418 H 695.673 5.41471 -1.63787 0
M  V30 7419 H 694.23 6.1167 -2.25175 0
M  V30 7420 N 697.663 1.43903 0.642637 0
M  V30 7421 C 699.074 1.40975 1.22404 0
M  V30 7422 C 699.425 0.1192 1.95838 0
M  V30 7423 O 698.55 -0.780939 2.01818 0
M  V30 7424 C 699.145 2.5538 2.22636 0
M  V30 7425 C 697.704 2.55684 2.76229 0
M  V30 7426 C 696.851 2.32556 1.51039 0
M  V30 7427 H 699.802 1.5265 0.434006 0
M  V30 7428 H 699.823 2.27474 3.05017 0
M  V30 7429 H 699.335 3.49294 1.69161 0
M  V30 7430 H 697.436 1.65679 3.33738 0
M  V30 7431 H 697.549 3.53799 3.23053 0
M  V30 7432 H 695.913 1.81427 1.78764 0
M  V30 7433 H 696.696 3.28569 0.99484 0
M  V30 7434 N 699.141 -0.881989 1.30609 0
M  V30 7435 C 700.091 -1.97539 1.13852 0
M  V30 7436 C 701.075 -1.60813 0.0528428 0
M  V30 7437 O 702.267 -1.74827 0.276484 0
M  V30 7438 C 699.396 -3.32977 0.835519 0
M  V30 7439 C 698.482 -3.76008 1.96159 0
M  V30 7440 N 698.873 -3.91109 3.20729 0
M  V30 7441 C 697.171 -4.05427 1.85863 0
M  V30 7442 C 697.872 -4.27661 3.94311 0
M  V30 7443 N 696.848 -4.37686 3.22385 0
M  V30 7444 H 700.65 -2.07309 2.08327 0
M  V30 7445 H 698.164 -1.072 1.21992 0
M  V30 7446 H 700.161 -4.11041 0.696477 0
M  V30 7447 H 698.821 -3.24542 -0.101135 0
M  V30 7448 H 699.832 -3.7616 3.55984 0
M  V30 7449 H 696.509 -4.05449 0.995847 0
M  V30 7450 H 697.899 -4.47042 5.01601 0
M  V30 7451 N 700.619 -1.13374 -1.09472 0
M  V30 7452 C 701.551 -0.768466 -2.15933 0
M  V30 7453 C 702.564 0.209585 -1.61445 0
M  V30 7454 O 703.753 -0.010539 -1.78497 0
M  V30 7455 C 700.853 -0.118266 -3.38694 0
M  V30 7456 C 700.026 -1.12829 -4.22597 0
M  V30 7457 C 699.085 -0.503875 -5.23782 0
M  V30 7458 O 698.111 -1.16374 -5.57177 0
M  V30 7459 N 699.313 0.724288 -5.75964 0
M  V30 7460 H 702.078 -1.68457 -2.47876 0
M  V30 7461 H 699.639 -1.02668 -1.25183 0
M  V30 7462 H 701.631 0.311698 -4.03498 0
M  V30 7463 H 700.201 0.700769 -3.04644 0
M  V30 7464 H 699.421 -1.73556 -3.53938 0
M  V30 7465 H 700.709 -1.81095 -4.75481 0
M  V30 7466 H 700.107 1.27918 -5.51048 0
M  V30 7467 H 698.664 1.09692 -6.42504 0
M  V30 7468 N 702.098 1.27442 -0.927168 0
M  V30 7469 C 703.046 2.28844 -0.416333 0
M  V30 7470 C 704.04 1.61882 0.499057 0
M  V30 7471 O 705.246 1.75969 0.378817 0
M  V30 7472 H 701.621 0.742989 -0.116065 0
M  V30 7473 H 703.592 2.69344 -1.28438 0
M  V30 7474 C 702.341 3.4626 0.316107 0
M  V30 7475 H 701.664 3.97999 -0.379082 0
M  V30 7476 H 703.104 4.19173 0.637975 0
M  V30 7477 C 701.563 3.00211 1.5289 0
M  V30 7478 O 702.093 3.03837 2.62766 0
M  V30 7479 N 700.299 2.55713 1.38054 0
M  V30 7480 H 699.846 2.52962 0.4866 0
M  V30 7481 H 699.804 2.25264 2.19325 0
M  V30 7482 N 703.576 0.692616 1.41565 0
M  V30 7483 C 704.823 0.222335 2.01276 0
M  V30 7484 C 705.151 -1.17706 1.5484 0
M  V30 7485 O 704.406 -1.80795 0.749118 0
M  V30 7486 C 704.705 0.225073 3.56691 0
M  V30 7487 C 704.371 1.57158 4.22625 0
M  V30 7488 C 703.033 1.94022 4.40351 0
M  V30 7489 C 705.385 2.45758 4.59622 0
M  V30 7490 C 702.713 3.19076 4.92349 0
M  V30 7491 C 705.065 3.70141 5.13009 0
M  V30 7492 C 703.729 4.07152 5.28946 0
M  V30 7493 H 702.999 0.0813581 0.73652 0
M  V30 7494 H 705.646 0.891123 1.69503 0
M  V30 7495 H 703.951 -0.527259 3.88236 0
M  V30 7496 H 705.648 -0.156283 4.00695 0
M  V30 7497 H 702.238 1.27486 4.09201 0
M  V30 7498 H 706.422 2.18558 4.45585 0
M  V30 7499 H 701.678 3.4775 5.02872 0
M  V30 7500 H 705.852 4.38983 5.40617 0
M  V30 7501 H 703.479 5.04125 5.69001 0
M  V30 7502 N 705.054 -1.51416 0.437162 0
M  V30 7503 C 705.984 -2.30631 -0.364922 0
M  V30 7504 C 706.965 -1.36037 -1.02118 0
M  V30 7505 O 708.15 -1.64956 -1.02485 0
M  V30 7506 C 705.28 -3.1482 -1.46648 0
M  V30 7507 C 704.234 -4.17691 -0.933717 0
M  V30 7508 C 703.56 -4.904 -2.13101 0
M  V30 7509 C 704.86 -5.2229 0.0317201 0
M  V30 7510 H 706.554 -2.97932 0.29614 0
M  V30 7511 H 704.1 -1.4328 0.143865 0
M  V30 7512 H 706.053 -3.69017 -2.03481 0
M  V30 7513 H 704.777 -2.4534 -2.15583 0
M  V30 7514 H 703.436 -3.64545 -0.387602 0
M  V30 7515 H 703.084 -4.17423 -2.80654 0
M  V30 7516 H 702.784 -5.59962 -1.78092 0
M  V30 7517 H 704.308 -5.4742 -2.70487 0
M  V30 7518 H 705.722 -5.7156 -0.446302 0
M  V30 7519 H 704.119 -5.99378 0.29437 0
M  V30 7520 H 705.189 -4.75131 0.968447 0
M  V30 7521 N 706.532 -0.168513 -1.56696 0
M  V30 7522 C 707.462 0.758563 -2.20835 0
M  V30 7523 C 708.443 1.24121 -1.1631 0
M  V30 7524 O 709.628 1.29487 -1.4473 0
M  V30 7525 C 706.758 1.9892 -2.8469 0
M  V30 7526 C 705.712 1.64252 -3.95228 0
M  V30 7527 C 705.038 2.94757 -4.46119 0
M  V30 7528 C 706.338 0.872675 -5.14958 0
M  V30 7529 H 708.032 0.223953 -2.98561 0
M  V30 7530 H 705.578 0.106277 -1.43607 0
M  V30 7531 H 707.531 2.64275 -3.28233 0
M  V30 7532 H 706.255 2.5479 -2.04327 0
M  V30 7533 H 704.914 1.01266 -3.52336 0
M  V30 7534 H 704.562 3.48662 -3.62552 0
M  V30 7535 H 704.262 2.72316 -5.2069 0
M  V30 7536 H 705.786 3.61147 -4.92347 0
M  V30 7537 H 707.2 1.42875 -5.55211 0
M  V30 7538 H 705.597 0.747402 -5.95428 0
M  V30 7539 H 706.667 -0.131535 -4.84722 0
M  V30 7540 N 708.01 1.57248 0.105221 0
M  V30 7541 C 709.257 1.8557 0.810552 0
M  V30 7542 C 709.585 0.755595 1.79223 0
M  V30 7543 O 708.84 -0.251788 1.94073 0
M  V30 7544 C 709.139 3.20437 1.58287 0
M  V30 7545 C 708.805 4.44716 0.744235 0
M  V30 7546 C 707.467 4.78458 0.513013 0
M  V30 7547 C 709.819 5.20953 0.160578 0
M  V30 7548 C 707.147 5.8587 -0.311894 0
M  V30 7549 C 709.499 6.29235 -0.651596 0
M  V30 7550 C 708.163 6.615 -0.893005 0
M  V30 7551 H 707.433 0.67905 0.296602 0
M  V30 7552 H 710.08 1.91363 0.0723968 0
M  V30 7553 H 708.385 3.10283 2.39232 0
M  V30 7554 H 710.082 3.39576 2.13282 0
M  V30 7555 H 706.672 4.18287 0.934555 0
M  V30 7556 H 710.856 4.95226 0.3264 0
M  V30 7557 H 706.112 6.09286 -0.508012 0
M  V30 7558 H 710.286 6.87484 -1.11077 0
M  V30 7559 H 707.913 7.44562 -1.53401 0
M  V30 7560 N 709.488 -0.375779 1.53054 0
M  V30 7561 C 710.736 -1.11727 1.68409 0
M  V30 7562 C 711.057 -1.90127 0.43323 0
M  V30 7563 O 710.327 -1.87945 -0.552595 0
M  V30 7564 H 708.907 -0.415451 0.620813 0
M  V30 7565 H 711.569 -0.424869 1.90213 0
M  V30 7566 H 710.665 -1.8128 2.54055 0
M  V30 7567 N 710.966 -1.44241 -0.634997 0
M  V30 7568 C 711.929 -1.50457 -1.72903 0
M  V30 7569 C 712.929 -0.387058 -1.56072 0
M  V30 7570 O 714.119 -0.649531 -1.61638 0
M  V30 7571 C 711.251 -1.37477 -3.1195 0
M  V30 7572 H 712.444 -2.47907 -1.68767 0
M  V30 7573 H 709.997 -1.31276 -0.84831 0
M  V30 7574 H 710.732 -0.41106 -3.21684 0
M  V30 7575 H 710.517 -2.18506 -3.25573 0
M  V30 7576 H 712.007 -1.44799 -3.91692 0
M  V30 7577 N 712.444 0.87505 -1.31075 0
M  V30 7578 C 713.721 1.60976 -1.11113 0
M  V30 7579 C 714.101 2.08409 0.336006 0
M  V30 7580 O 713.449 1.85858 1.32924 0
M  V30 7581 C 713.659 2.77166 -2.12085 0
M  V30 7582 C 715.007 3.47254 -2.44335 0
M  V30 7583 O 716.031 2.87367 -2.10472 0
M  V30 7584 O 714.89 4.55276 -3.02301 0
M  V30 7585 H 711.984 0.707982 -0.427424 0
M  V30 7586 H 714.53 0.920957 -1.42536 0
M  V30 7587 H 713.302 2.39494 -3.09449 0
M  V30 7588 H 712.925 3.53737 -1.81538 0
M  V30 7589 N 713.922 1.13953 1.08869 0
M  V30 7590 C 715.168 0.906151 1.8143 0
M  V30 7591 C 715.501 -0.566089 1.85766 0
M  V30 7592 O 714.776 -1.41915 1.33006 0
M  V30 7593 C 715.059 1.50183 3.27287 0
M  V30 7594 C 714.912 3.04359 3.31189 0
M  V30 7595 C 716.231 1.17477 4.24131 0
M  V30 7596 H 713.35 0.330624 0.658678 0
M  V30 7597 H 715.992 1.40873 1.27495 0
M  V30 7598 H 714.142 1.07442 3.73348 0
M  V30 7599 H 715.814 3.55896 2.93488 0
M  V30 7600 H 714.057 3.39053 2.70602 0
M  V30 7601 H 714.728 3.41141 4.33966 0
M  V30 7602 H 717.204 1.5442 3.86385 0
M  V30 7603 H 716.08 1.61795 5.24513 0
M  V30 7604 H 716.341 0.0893312 4.4201 0
M  V30 7605 N 715.4 -1.26948 0.933913 0
M  V30 7606 C 716.646 -1.94374 0.57848 0
M  V30 7607 C 716.979 -1.73166 -0.879048 0
M  V30 7608 O 716.254 -1.06438 -1.62792 0
M  V30 7609 C 716.537 -3.4834 0.912739 0
M  V30 7610 C 716.39 -3.78866 2.42448 0
M  V30 7611 C 717.709 -4.38062 0.423003 0
M  V30 7612 H 714.828 -0.705959 0.211639 0
M  V30 7613 H 717.47 -1.49951 1.16682 0
M  V30 7614 H 715.62 -3.86309 0.412058 0
M  V30 7615 H 717.292 -3.50654 2.99733 0
M  V30 7616 H 715.535 -3.25198 2.87104 0
M  V30 7617 H 716.206 -4.86458 2.60887 0
M  V30 7618 H 718.682 -4.0728 0.852191 0
M  V30 7619 H 717.558 -5.44599 0.685776 0
M  V30 7620 H 717.819 -4.36886 -0.676994 0
M  V30 7621 N 716.879 -0.700114 -1.41195 0
M  V30 7622 C 718.109 -0.241828 -2.0518 0
M  V30 7623 C 718.517 1.1157 -1.52803 0
M  V30 7624 O 717.86 1.70926 -0.673042 0
M  V30 7625 C 717.922 -0.12695 -3.59276 0
M  V30 7626 C 717.586 -1.41725 -4.34469 0
M  V30 7627 C 718.583 -2.35604 -4.63451 0
M  V30 7628 C 716.268 -1.67189 -4.73659 0
M  V30 7629 C 718.262 -3.53204 -5.3059 0
M  V30 7630 C 715.949 -2.85073 -5.40534 0
M  V30 7631 C 716.947 -3.77904 -5.68927 0
M  V30 7632 O 716.635 -4.93723 -6.34424 0
M  V30 7633 H 716.367 -0.109247 -0.667114 0
M  V30 7634 H 718.921 -0.954538 -1.81873 0
M  V30 7635 H 717.151 0.641571 -3.81341 0
M  V30 7636 H 718.84 0.294748 -4.04828 0
M  V30 7637 H 719.606 -2.1719 -4.33651 0
M  V30 7638 H 715.485 -0.957935 -4.50937 0
M  V30 7639 H 719.029 -4.25679 -5.52669 0
M  V30 7640 H 714.926 -3.03402 -5.69752 0
M  V30 7641 H 715.694 -4.93597 -6.5292 0
M  V30 7642 N 718.357 1.51182 -0.445186 0
M  V30 7643 C 719.304 2.27939 0.362291 0
M  V30 7644 C 720.274 1.31864 1.01 0
M  V30 7645 O 721.459 1.60776 1.02741 0
M  V30 7646 C 718.599 3.13016 1.45311 0
M  V30 7647 C 717.712 4.24093 0.822757 0
M  V30 7648 C 716.847 4.96467 1.88928 0
M  V30 7649 C 715.886 5.99454 1.23778 0
M  V30 7650 N 715.023 6.65206 2.24602 0
M  V30 7651 H 719.863 2.965 -0.29862 0
M  V30 7652 H 717.4 1.46237 -0.15911 0
M  V30 7653 H 719.358 3.60673 2.09692 0
M  V30 7654 H 717.988 2.46553 2.08354 0
M  V30 7655 H 717.04 3.80341 0.0670364 0
M  V30 7656 H 718.352 4.97853 0.307184 0
M  V30 7657 H 717.506 5.47712 2.60953 0
M  V30 7658 H 716.245 4.22355 2.4386 0
M  V30 7659 H 715.25 5.47494 0.503042 0
M  V30 7660 H 716.475 6.75527 0.695694 0
M  V30 7661 H 714.421 5.93901 2.78599 0
M  V30 7662 H 714.338 7.34756 1.77958 0
M  V30 7663 H 715.606 7.21078 2.96085 0
M  V30 7664 O 719.874 0.317958 1.58339 0
M  V30 7665 H 720.565 -0.243085 1.92169 0
M  V30 END ATOM
M  V30 BEGIN BOND
M  V30 END BOND
M  V30 END CTAB
M  END
$$$$
