drugbank_target|P17291 30S ribosomal protein S7 (DB08185)
 OpenBabel12092120483D

  0  0  0     0  0            999 V3000
M  V30 BEGIN CTAB
M  V30 COUNTS 2573 2592 0 0 0
M  V30 BEGIN ATOM
M  V30 1 H -0.908 1.98254 -0.117106 0
M  V30 2 N 0 1.576 0 0
M  V30 3 C 0.933 2.03868 1.02534 0
M  V30 4 C 1.911 0.928543 1.3348 0
M  V30 5 O 3.095 1.19667 1.45644 0
M  V30 6 C 0.222 2.43627 2.35294 0
M  V30 7 C -0.732 3.65373 2.2001 0
M  V30 8 S 0.101 5.13292 1.52614 0
M  V30 9 C 1.257 5.56322 2.86805 0
M  V30 10 H 1.49 2.90518 0.631377 0
M  V30 11 H -0.977 1.52953 0.210867 0
M  V30 12 H 0.981 2.67203 3.11629 0
M  V30 13 H -0.358 1.57376 2.7183 0
M  V30 14 H -1.165 3.90944 3.18086 0
M  V30 15 H -1.563 3.418 1.51819 0
M  V30 16 H 0.729 5.58782 3.83104 0
M  V30 17 H 1.672 6.56266 2.65933 0
M  V30 18 H 2.08 4.83886 2.90714 0
M  V30 19 N 1.4781 -0.272755 1.55222 0
M  V30 20 C 2.4411 -1.32041 1.87344 0
M  V30 21 C 3.4411 -1.42342 0.74803 0
M  V30 22 O 4.6311 -1.41488 1.0162 0
M  V30 23 C 1.7631 -2.70173 2.07893 0
M  V30 24 H 2.9561 -1.04789 2.80997 0
M  V30 25 H 0.5091 -0.51083 1.47717 0
M  V30 26 H 1.2441 -3.02605 1.16622 0
M  V30 27 H 1.0291 -2.64082 2.89833 0
M  V30 28 H 2.5191 -3.45869 2.34017 0
M  V30 29 N 2.9562 -1.48159 -0.537278 0
M  V30 30 C 4.3722 -1.34118 -0.865129 0
M  V30 31 C 4.5722 -0.346678 -1.98495 0
M  V30 32 O 3.6282 0.234715 -2.51407 0
M  V30 33 C 4.9412 -2.73963 -1.23954 0
M  V30 34 C 6.4892 -2.82397 -1.34984 0
M  V30 35 C 6.9642 -4.22928 -1.75772 0
M  V30 36 N 8.4552 -4.25566 -1.82887 0
M  V30 37 C 9.1902 -5.31235 -2.15817 0
M  V30 38 N 8.6862 -6.47189 -2.47222 0
M  V30 39 N 10.4792 -5.18624 -2.16761 0
M  V30 40 H 2.6302 -2.1144 0.201715 0
M  V30 41 H 4.8932 -0.947598 0.0275949 0
M  V30 42 H 4.5992 -3.48264 -0.490381 0
M  V30 43 H 4.4732 -3.0702 -2.19132 0
M  V30 44 H 6.8602 -2.08356 -2.08978 0
M  V30 45 H 6.9412 -2.5297 -0.379448 0
M  V30 46 H 6.5852 -4.97482 -1.02341 0
M  V30 47 H 6.5152 -4.49794 -2.73848 0
M  V30 48 H 9.0062 -3.41924 -1.60924 0
M  V30 49 H 9.3192 -7.23564 -2.71433 0
M  V30 50 H 7.6642 -6.50476 -2.44757 0
M  V30 51 H 10.8552 -4.27056 -1.91679 0
M  V30 52 H 11.0282 -6.01078 -2.42093 0
M  V30 53 N 4.4343 0.785586 -1.36625 0
M  V30 54 C 5.8503 1.08419 -1.17122 0
M  V30 55 C 6.0503 2.015 0.00208491 0
M  V30 56 O 5.1063 2.43551 0.666278 0
M  V30 57 C 6.4193 1.69498 -2.48377 0
M  V30 58 C 7.9673 1.81821 -2.54775 0
M  V30 59 C 8.4423 2.46315 -3.86126 0
M  V30 60 N 9.9333 2.53779 -3.87492 0
M  V30 61 C 10.6683 3.045 -4.85868 0
M  V30 62 N 10.1643 3.55499 -5.94637 0
M  V30 63 N 11.9573 3.03247 -4.73284 0
M  V30 64 H 4.1083 0.167264 -2.1174 0
M  V30 65 H 6.3713 0.13682 -0.938075 0
M  V30 66 H 6.0773 1.08571 -3.34522 0
M  V30 67 H 5.9513 2.6896 -2.64462 0
M  V30 68 H 8.3383 2.41884 -1.69045 0
M  V30 69 H 8.4193 0.811532 -2.42586 0
M  V30 70 H 8.0633 1.86895 -4.72263 0
M  V30 71 H 7.9933 3.47561 -3.95612 0
M  V30 72 H 10.4843 2.17672 -3.08913 0
M  V30 73 H 10.7973 3.92562 -6.65669 0
M  V30 74 H 9.1423 3.5364 -5.98301 0
M  V30 75 H 12.3333 2.62696 -3.87438 0
M  V30 76 H 12.5063 3.42467 -5.50109 0
M  V30 77 N 5.9124 1.20967 1.01018 0
M  V30 78 C 7.3284 0.965905 1.27053 0
M  V30 79 C 7.5284 -0.350785 1.98423 0
M  V30 80 O 6.5844 -1.07773 2.28344 0
M  V30 81 C 7.8974 2.15294 2.09926 0
M  V30 82 C 9.4454 2.19463 2.23171 0
M  V30 83 C 9.9204 3.3767 3.09424 0
M  V30 84 N 11.4114 3.37724 3.17012 0
M  V30 85 C 12.1464 4.25837 3.83993 0
M  V30 86 N 11.6424 5.24138 4.53047 0
M  V30 87 N 13.4354 4.1366 3.80581 0
M  V30 88 H 5.5864 2.0565 0.531194 0
M  V30 89 H 7.8494 0.90024 0.297106 0
M  V30 90 H 7.5554 3.10684 1.64828 0
M  V30 91 H 7.4294 2.13923 3.10672 0
M  V30 92 H 9.8164 1.24632 2.6749 0
M  V30 93 H 9.8974 2.2488 1.21912 0
M  V30 94 H 9.5414 4.32791 2.65808 0
M  V30 95 H 9.4714 3.29491 4.10784 0
M  V30 96 H 11.9624 2.6658 2.6785 0
M  V30 97 H 12.2754 5.87684 5.01844 0
M  V30 98 H 10.6204 5.28068 4.5185 0
M  V30 99 H 13.8114 3.36127 3.25785 0
M  V30 100 H 13.9844 4.82538 4.32505 0
M  V30 101 N 7.3905 -1.2043 1.01659 0
M  V30 102 C 8.8065 -1.41852 0.731442 0
M  V30 103 C 9.0065 -1.89358 -0.688898 0
M  V30 104 O 8.0625 -2.06247 -1.45666 0
M  V30 105 C 9.3755 -2.44019 1.75714 0
M  V30 106 C 10.9235 -2.57785 1.77527 0
M  V30 107 C 11.3985 -3.63194 2.79023 0
M  V30 108 N 12.8895 -3.70678 2.77763 0
M  V30 109 C 13.6245 -4.51897 3.52954 0
M  V30 110 N 13.1205 -5.36921 4.37821 0
M  V30 111 N 14.9135 -4.4643 3.41551 0
M  V30 112 H 7.0645 -0.879093 1.93354 0
M  V30 113 H 9.3275 -0.448425 0.835236 0
M  V30 114 H 9.0335 -2.1611 2.77469 0
M  V30 115 H 8.9075 -3.43007 1.56927 0
M  V30 116 H 11.2945 -2.85023 0.764569 0
M  V30 117 H 11.3755 -1.58992 2.00387 0
M  V30 118 H 11.0195 -3.36699 3.80258 0
M  V30 119 H 10.9495 -4.61609 2.53425 0
M  V30 120 H 13.4405 -3.09944 2.16201 0
M  V30 121 H 13.7535 -5.95981 4.91962 0
M  V30 122 H 12.0985 -5.36424 4.41899 0
M  V30 123 H 15.2895 -3.79042 2.74672 0
M  V30 124 H 15.4625 -5.09491 4.00404 0
M  V30 125 N 8.8686 -0.792821 -1.36206 0
M  V30 126 C 9.8316 -0.199459 -2.2833 0
M  V30 127 C 10.8316 0.605189 -1.48977 0
M  V30 128 O 12.0216 0.425685 -1.68919 0
M  V30 129 C 9.1536 0.723523 -3.33134 0
M  V30 130 H 10.3466 -1.01181 -2.82316 0
M  V30 131 H 7.8996 -0.562485 -1.45828 0
M  V30 132 H 8.6346 1.56008 -2.84309 0
M  V30 133 H 8.4196 0.148436 -3.91819 0
M  V30 134 H 9.9096 1.13344 -4.01924 0
M  V30 135 N 10.3467 1.47872 -0.545128 0
M  V30 136 C 11.2567 2.33633 0.212746 0
M  V30 137 C 12.2727 1.4744 0.923983 0
M  V30 138 O 13.4487 1.80393 0.895572 0
M  V30 139 C 10.5137 3.23884 1.23693 0
M  V30 140 C 9.5747 4.25961 0.534417 0
M  V30 141 C 8.8077 5.11899 1.5098 0
M  V30 142 O 9.0307 5.00077 2.7437 0
M  V30 143 O 7.9647 5.92831 1.0409 0
M  V30 144 H 11.7907 2.99714 -0.490416 0
M  V30 145 H 9.3757 1.46235 -0.305871 0
M  V30 146 H 11.2577 3.79666 1.82843 0
M  V30 147 H 9.9327 2.60446 1.92222 0
M  V30 148 H 8.8397 3.73972 -0.0979679 0
M  V30 149 H 10.1727 4.92079 -0.109213 0
M  V30 150 N 11.8248 0.280983 1.55075 0
M  V30 151 C 13.0708 -0.33461 2.00021 0
M  V30 152 C 13.4038 -1.55063 1.16915 0
M  V30 153 O 12.6788 -1.93006 0.240646 0
M  V30 154 C 12.9618 -0.711007 3.53011 0
M  V30 155 C 12.8148 0.512766 4.46868 0
M  V30 156 C 14.1338 -1.54522 4.12081 0
M  V30 157 H 11.2528 -0.120147 0.727141 0
M  V30 158 H 13.8948 0.389097 1.85973 0
M  V30 159 H 12.0448 -1.32761 3.65112 0
M  V30 160 H 13.7168 1.15131 4.46702 0
M  V30 161 H 11.9598 1.14975 4.18286 0
M  V30 162 H 12.6308 0.205556 5.51617 0
M  V30 163 H 15.1068 -1.02442 4.03293 0
M  V30 164 H 13.9828 -1.77739 5.19327 0
M  V30 165 H 14.2438 -2.52813 3.62682 0
M  V30 166 N 13.3029 -1.57598 0.00835791 0
M  V30 167 C 14.7189 -1.55764 -0.347822 0
M  V30 168 C 14.9189 -1.01186 -1.74252 0
M  V30 169 O 13.9749 -0.649371 -2.44007 0
M  V30 170 C 15.2879 -2.99927 -0.215407 0
M  V30 171 C 16.8359 -3.11656 -0.289725 0
M  V30 172 C 17.3109 -4.57621 -0.18634 0
M  V30 173 N 18.8019 -4.62557 -0.243978 0
M  V30 174 C 19.5369 -5.73094 -0.18745 0
M  V30 175 N 19.0329 -6.92753 -0.0810331 0
M  V30 176 N 20.8259 -5.61588 -0.239925 0
M  V30 177 H 12.9769 -1.91411 0.92062 0
M  V30 178 H 15.2399 -0.879562 0.353659 0
M  V30 179 H 14.9459 -3.43729 0.744512 0
M  V30 180 H 14.8199 -3.63865 -0.994097 0
M  V30 181 H 17.2069 -2.67779 -1.24009 0
M  V30 182 H 17.2879 -2.5048 0.51898 0
M  V30 183 H 16.9319 -5.02174 0.760519 0
M  V30 184 H 16.8619 -5.16752 -1.01364 0
M  V30 185 H 19.3529 -3.76481 -0.327217 0
M  V30 186 H 19.6659 -7.72787 -0.0440241 0
M  V30 187 H 18.0109 -6.94984 -0.0465419 0
M  V30 188 H 21.2019 -4.66996 -0.321317 0
M  V30 189 H 21.3749 -6.47714 -0.192407 0
M  V30 190 N 14.781 0.264519 -1.55364 0
M  V30 191 C 15.713 1.34965 -1.85248 0
M  V30 192 C 16.726 1.45136 -0.737525 0
M  V30 193 O 17.915 1.46801 -1.01547 0
M  V30 194 C 15.015 2.73008 -2.00797 0
M  V30 195 C 14.188 2.85324 -3.31525 0
M  V30 196 C 13.247 4.04097 -3.37034 0
M  V30 197 O 12.273 3.94455 -4.10358 0
M  V30 198 N 13.475 5.16458 -2.65049 0
M  V30 199 H 16.24 1.09672 -2.78913 0
M  V30 200 H 13.801 0.454635 -1.55386 0
M  V30 201 H 15.793 3.50772 -2.01844 0
M  V30 202 H 14.363 2.91087 -1.1396 0
M  V30 203 H 13.583 1.94377 -3.42945 0
M  V30 204 H 14.871 2.9049 -4.17724 0
M  V30 205 H 14.269 5.27181 -2.05175 0
M  V30 206 H 12.826 5.92422 -2.71809 0
M  V30 207 N 16.2591 1.48442 0.529413 0
M  V30 208 C 17.1891 1.65902 1.64313 0
M  V30 209 C 18.1701 0.507897 1.6234 0
M  V30 210 O 19.3551 0.740503 1.79528 0
M  V30 211 C 16.4851 1.69911 3.02898 0
M  V30 212 C 15.4391 2.8453 3.19729 0
M  V30 213 C 14.7651 2.73629 4.59381 0
M  V30 214 C 16.0651 4.25821 3.02447 0
M  V30 215 H 17.7591 2.5914 1.49955 0
M  V30 216 H 15.3051 1.24709 0.719982 0
M  V30 217 H 17.2581 1.80715 3.80684 0
M  V30 218 H 15.9821 0.732524 3.18279 0
M  V30 219 H 14.6411 2.73283 2.44361 0
M  V30 220 H 14.2891 1.74938 4.71599 0
M  V30 221 H 13.9891 3.50541 4.71588 0
M  V30 222 H 15.5131 2.86401 5.39265 0
M  V30 223 H 16.9271 4.37898 3.70024 0
M  V30 224 H 15.3241 5.03735 3.26146 0
M  V30 225 H 16.3941 4.42244 1.98867 0
M  V30 226 N 17.7372 -0.778329 1.37039 0
M  V30 227 C 18.6692 -1.90034 1.2814 0
M  V30 228 C 19.6822 -1.61585 0.198558 0
M  V30 229 O 20.8712 -1.72625 0.454175 0
M  V30 230 C 17.9712 -3.25108 0.956968 0
M  V30 231 C 17.1442 -3.81253 2.14394 0
M  V30 232 C 16.2032 -4.94789 1.79082 0
M  V30 233 O 15.2292 -5.10721 2.51301 0
M  V30 234 N 16.4312 -5.75878 0.731043 0
M  V30 235 H 19.1962 -1.98186 2.24816 0
M  V30 236 H 16.7572 -0.957129 1.30578 0
M  V30 237 H 18.7492 -3.9857 0.701701 0
M  V30 238 H 17.3192 -3.125 0.0789812 0
M  V30 239 H 16.5392 -2.99647 2.56135 0
M  V30 240 H 17.8272 -4.15495 2.93668 0
M  V30 241 H 17.2252 -5.65547 0.131618 0
M  V30 242 H 15.7822 -6.49596 0.535622 0
M  V30 243 N 19.2153 -1.21501 -1.00376 0
M  V30 244 C 20.6263 -1.03146 -1.55621 0
M  V30 245 C 20.9773 0.408375 -1.91903 0
M  V30 246 O 20.1023 1.29177 -1.73616 0
M  V30 247 C 20.6973 -1.86612 -2.82775 0
M  V30 248 C 19.2563 -1.72586 -3.34501 0
M  V30 249 C 18.4033 -1.83747 -2.07683 0
M  V30 250 H 21.3543 -1.35505 -0.826081 0
M  V30 251 H 21.3753 -1.3771 -3.54706 0
M  V30 252 H 20.8873 -2.91399 -2.56336 0
M  V30 253 H 18.9883 -0.704877 -3.65872 0
M  V30 254 H 19.1013 -2.54623 -4.05837 0
M  V30 255 H 17.4653 -1.27069 -2.20739 0
M  V30 256 H 18.2483 -2.90044 -1.83655 0
M  V30 257 N 20.6934 1.19889 -1.02296 0
M  V30 258 C 21.9704 1.85148 -0.630832 0
M  V30 259 C 22.3504 1.91385 0.890782 0
M  V30 260 O 21.6984 1.42642 1.78509 0
M  V30 261 C 21.9084 3.24442 -1.28602 0
M  V30 262 C 23.2564 4.00663 -1.4055 0
M  V30 263 O 24.2804 3.33818 -1.24273 0
M  V30 264 O 23.1394 5.20387 -1.66913 0
M  V30 265 H 20.2334 0.797613 -0.218499 0
M  V30 266 H 22.7794 1.27427 -1.12074 0
M  V30 267 H 21.5514 3.14704 -2.32545 0
M  V30 268 H 21.1744 3.89802 -0.7836 0
M  V30 269 N 22.1715 0.800033 1.35784 0
M  V30 270 C 23.1015 0.220184 2.3246 0
M  V30 271 C 24.0825 -0.65073 1.57161 0
M  V30 272 O 25.2675 -0.582359 1.85263 0
M  V30 273 C 22.3975 -0.637353 3.41402 0
M  V30 274 C 21.3515 0.134531 4.27789 0
M  V30 275 C 20.6775 -0.844285 5.27992 0
M  V30 276 C 21.9775 1.32979 5.05088 0
M  V30 277 H 23.6715 1.02787 2.81203 0
M  V30 278 H 21.2175 0.495717 1.35199 0
M  V30 279 H 23.1705 -1.05302 4.08031 0
M  V30 280 H 21.8945 -1.47785 2.91251 0
M  V30 281 H 20.5535 0.531296 3.6273 0
M  V30 282 H 20.2015 -1.68011 4.74111 0
M  V30 283 H 19.9015 -0.332184 5.8666 0
M  V30 284 H 21.4255 -1.2583 5.97494 0
M  V30 285 H 22.8395 0.98934 5.64699 0
M  V30 286 H 21.2365 1.77593 5.7322 0
M  V30 287 H 22.3065 2.11978 4.36111 0
M  V30 288 N 23.6496 -1.47581 0.552962 0
M  V30 289 C 24.8956 -2.02782 0.0273648 0
M  V30 290 C 25.2286 -1.42687 -1.31734 0
M  V30 291 O 24.5036 -0.580897 -1.85623 0
M  V30 292 C 24.7866 -3.60031 -0.0702371 0
M  V30 293 C 24.6396 -4.30566 1.30126 0
M  V30 294 C 25.9586 -4.33028 -0.785771 0
M  V30 295 H 23.0776 -0.736912 0.0114185 0
M  V30 296 H 25.7196 -1.76056 0.714432 0
M  V30 297 H 23.8696 -3.82932 -0.655382 0
M  V30 298 H 25.5416 -4.19018 1.92929 0
M  V30 299 H 23.7846 -3.91086 1.87709 0
M  V30 300 H 24.4556 -5.39114 1.18573 0
M  V30 301 H 26.9316 -4.15095 -0.288982 0
M  V30 302 H 25.8076 -5.42695 -0.823013 0
M  V30 303 H 26.0686 -4.01945 -1.841 0
M  V30 304 N 25.1277 -0.289203 -1.54924 0
M  V30 305 C 26.3577 0.325989 -2.04012 0
M  V30 306 C 26.7657 1.48961 -1.1665 0
M  V30 307 O 26.1087 1.82794 -0.1822 0
M  V30 308 C 26.1707 0.856112 -3.49158 0
M  V30 309 C 25.8347 -0.180697 -4.56643 0
M  V30 310 C 26.8317 -1.0051 -5.10092 0
M  V30 311 C 24.5167 -0.318998 -5.01286 0
M  V30 312 C 26.5107 -1.95385 -6.06715 0
M  V30 313 C 24.1977 -1.27121 -5.97732 0
M  V30 314 C 25.1957 -2.08713 -6.50329 0
M  V30 315 O 24.8837 -3.02322 -7.44887 0
M  V30 316 H 24.6157 0.0765276 -0.671654 0
M  V30 317 H 27.1697 -0.423254 -2.00992 0
M  V30 318 H 25.3997 1.65567 -3.49463 0
M  V30 319 H 27.0887 1.38591 -3.81507 0
M  V30 320 H 27.8547 -0.90906 -4.76404 0
M  V30 321 H 23.7337 0.306108 -4.59983 0
M  V30 322 H 27.2777 -2.59111 -6.47694 0
M  V30 323 H 23.1747 -1.36801 -6.30837 0
M  V30 324 H 23.9427 -2.97165 -7.6265 0
M  V30 325 N 26.6058 1.57591 -0.0167156 0
M  V30 326 C 27.8538 1.90906 0.663285 0
M  V30 327 C 28.1748 0.892509 1.73376 0
M  V30 328 O 27.4448 -0.0677623 1.95783 0
M  V30 329 H 26.0248 0.704637 0.247983 0
M  V30 330 H 28.6868 1.94803 -0.0615909 0
M  V30 331 H 27.7828 2.9116 1.12393 0
M  V30 332 N 28.0839 -0.256276 1.55502 0
M  V30 333 C 29.3609 -1.00789 1.67633 0
M  V30 334 C 29.7409 -2.03706 0.553826 0
M  V30 335 O 29.0889 -2.24145 -0.443969 0
M  V30 336 C 29.2989 -1.64968 3.07549 0
M  V30 337 C 30.6469 -2.15505 3.65845 0
M  V30 338 O 31.6709 -1.74925 3.1029 0
M  V30 339 O 30.5299 -2.89986 4.63217 0
M  V30 340 H 27.6239 -0.468553 0.681459 0
M  V30 341 H 30.1699 -0.250806 1.67836 0
M  V30 342 H 28.9419 -0.904785 3.80696 0
M  V30 343 H 28.5649 -2.47321 3.11317 0
M  V30 344 N 29.562 -1.4872 -0.521534 0
M  V30 345 C 30.808 -1.574 -1.27879 0
M  V30 346 C 31.141 -0.250817 -1.92573 0
M  V30 347 O 30.416 0.743934 -1.79711 0
M  V30 348 C 30.699 -2.71843 -2.36164 0
M  V30 349 C 30.552 -4.13893 -1.76105 0
M  V30 350 C 31.871 -2.82008 -3.37875 0
M  V30 351 H 28.99 -0.572941 -0.463581 0
M  V30 352 H 31.632 -1.80927 -0.580119 0
M  V30 353 H 29.782 -2.51914 -2.95756 0
M  V30 354 H 31.454 -4.45284 -1.20499 0
M  V30 355 H 29.697 -4.20498 -1.06601 0
M  V30 356 H 30.368 -4.89804 -2.5455 0
M  V30 357 H 32.844 -3.00086 -2.88249 0
M  V30 358 H 31.72 -3.63796 -4.11028 0
M  V30 359 H 31.981 -1.90511 -3.98946 0
M  V30 360 N 31.0401 0.771051 -1.3745 0
M  V30 361 C 31.9701 1.89827 -1.3597 0
M  V30 362 C 32.9511 1.68562 -0.228216 0
M  V30 363 O 34.1361 1.8941 -0.428675 0
M  V30 364 C 31.2661 3.2712 -1.16662 0
M  V30 365 C 30.2201 3.6295 -2.2683 0
M  V30 366 C 29.5461 4.98791 -1.92644 0
M  V30 367 C 30.8461 3.69627 -3.69017 0
M  V30 368 H 32.5401 1.91323 -2.30295 0
M  V30 369 H 30.0861 0.919082 -1.10855 0
M  V30 370 H 32.0391 4.05615 -1.14256 0
M  V30 371 H 30.7631 3.26059 -0.187926 0
M  V30 372 H 29.4221 2.86763 -2.28392 0
M  V30 373 H 29.0701 4.94271 -0.933021 0
M  V30 374 H 28.7701 5.23733 -2.66416 0
M  V30 375 H 30.2941 5.79685 -1.91826 0
M  V30 376 H 31.7081 4.38273 -3.69581 0
M  V30 377 H 30.1051 4.06067 -4.41848 0
M  V30 378 H 31.1751 2.70273 -4.02592 0
M  V30 379 N 32.5182 1.22032 0.997298 0
M  V30 380 C 33.7642 1.04376 1.73878 0
M  V30 381 C 34.0972 -0.420716 1.89588 0
M  V30 382 O 33.3722 -1.31202 1.43583 0
M  V30 383 C 33.6552 1.75047 3.14691 0
M  V30 384 C 33.5082 3.29062 3.06656 0
M  V30 385 C 34.8272 1.49928 4.13775 0
M  V30 386 H 31.9462 0.380578 0.631133 0
M  V30 387 H 34.5882 1.50312 1.16217 0
M  V30 388 H 32.7382 1.35996 3.63919 0
M  V30 389 H 34.4102 3.7753 2.65083 0
M  V30 390 H 32.6532 3.58967 2.43568 0
M  V30 391 H 33.3242 3.73683 4.06282 0
M  V30 392 H 35.8002 1.83842 3.73285 0
M  V30 393 H 34.6762 2.01878 5.10428 0
M  V30 394 H 34.9372 0.430929 4.39995 0
M  V30 395 N 33.9963 -1.19345 1.0293 0
M  V30 396 C 35.2243 -1.92997 0.745644 0
M  V30 397 C 35.6393 -1.75519 -0.695589 0
M  V30 398 O 34.9963 -1.07737 -1.47306 0
M  V30 399 C 35.0473 -3.44741 1.08792 0
M  V30 400 O 34.7683 -3.61658 2.47256 0
M  V30 401 C 36.2693 -4.35515 0.827129 0
M  V30 402 H 33.4893 -0.613042 0.272801 0
M  V30 403 H 36.0333 -1.51473 1.3739 0
M  V30 404 H 34.1883 -3.84097 0.504832 0
M  V30 405 H 34.6023 -4.55514 2.60015 0
M  V30 406 H 36.0763 -5.40589 1.11658 0
M  V30 407 H 36.5533 -4.38552 -0.238436 0
M  V30 408 H 37.1593 -4.01841 1.39297 0
M  V30 409 N 35.4744 -0.807222 -1.35358 0
M  V30 410 C 36.4374 -0.223665 -2.28106 0
M  V30 411 C 37.4374 0.589354 -1.4961 0
M  V30 412 O 38.6274 0.407745 -1.69361 0
M  V30 413 C 35.7594 0.688149 -3.33882 0
M  V30 414 H 36.9524 -1.04169 -2.81227 0
M  V30 415 H 34.5054 -0.577921 -1.45223 0
M  V30 416 H 35.2404 1.52984 -2.85948 0
M  V30 417 H 35.0254 0.10687 -3.91954 0
M  V30 418 H 36.5154 1.09075 -4.03104 0
M  V30 419 N 36.9525 1.47285 -0.560781 0
M  V30 420 C 38.1995 2.02464 -0.038062 0
M  V30 421 C 38.5275 1.43474 1.31322 0
M  V30 422 O 37.7825 0.581311 1.86867 0
M  V30 423 C 38.0815 3.57258 0.100784 0
M  V30 424 C 37.7475 4.35184 -1.18007 0
M  V30 425 C 36.4095 4.56194 -1.53103 0
M  V30 426 C 38.7615 4.80098 -2.02867 0
M  V30 427 C 36.0895 5.19367 -2.729 0
M  V30 428 C 38.4415 5.44593 -3.21871 0
M  V30 429 C 37.1055 5.63835 -3.57276 0
M  V30 430 H 36.3755 0.740869 -0.0139279 0
M  V30 431 H 39.0225 1.76916 -0.733012 0
M  V30 432 H 37.3275 3.81819 0.878724 0
M  V30 433 H 39.0245 3.97606 0.520639 0
M  V30 434 H 35.6145 4.19113 -0.8968 0
M  V30 435 H 39.7985 4.63642 -1.7706 0
M  V30 436 H 35.0545 5.32459 -3.00496 0
M  V30 437 H 39.2285 5.78358 -3.87911 0
M  V30 438 H 36.8555 6.12557 -4.50197 0
M  V30 439 N 38.4306 0.297415 1.54768 0
M  V30 440 C 39.6796 -0.313669 1.99246 0
M  V30 441 C 39.9926 -1.55281 1.18942 0
M  V30 442 O 41.1986 -2.23825 1.5367 0
M  V30 443 C 39.6546 -0.609407 3.54703 0
M  V30 444 C 39.2626 0.611192 4.43811 0
M  V30 445 C 41.0066 -1.18188 4.07715 0
M  V30 446 C 38.9136 0.288805 5.90694 0
M  V30 447 H 37.8436 -0.120979 0.744231 0
M  V30 448 H 40.4946 0.40556 1.78962 0
M  V30 449 H 38.8766 -1.38813 3.70873 0
M  V30 450 H 40.0506 1.3875 4.39414 0
M  V30 451 H 38.3656 1.10205 4.01552 0
M  V30 452 H 40.9626 -1.43727 5.15021 0
M  V30 453 H 41.3056 -2.12299 3.58099 0
M  V30 454 H 41.8386 -0.464944 3.95074 0
M  V30 455 H 38.5776 1.19838 6.44453 0
M  V30 456 H 38.0976 -0.450305 5.98107 0
M  V30 457 H 39.7766 -0.110933 6.46905 0
M  V30 458 N 39.9087 -1.5758 0.0250728 0
M  V30 459 C 40.8567 -2.11125 -0.97617 0
M  V30 460 C 41.8507 -1.03689 -1.33959 0
M  V30 461 O 43.0567 -1.22128 -1.3223 0
M  V30 462 H 39.4317 -0.674468 -0.332561 0
M  V30 463 H 41.4027 -2.94194 -0.499223 0
M  V30 464 C 40.1517 -2.65017 -2.2508 0
M  V30 465 H 39.4747 -3.47333 -1.9799 0
M  V30 466 H 40.9147 -3.06133 -2.93357 0
M  V30 467 C 39.3737 -1.57574 -2.97779 0
M  V30 468 O 39.9037 -0.973203 -3.89733 0
M  V30 469 N 38.1097 -1.29716 -2.60043 0
M  V30 470 H 37.6567 -1.789 -1.85345 0
M  V30 471 H 37.6147 -0.58051 -3.08994 0
M  V30 472 N 41.3868 0.248026 -1.55636 0
M  V30 473 C 42.3338 1.30707 -1.90222 0
M  V30 474 C 43.3038 1.47881 -0.756332 0
M  V30 475 O 44.4888 1.61883 -1.00988 0
M  V30 476 C 41.6288 2.65769 -2.20138 0
M  V30 477 C 40.7418 2.56612 -3.47526 0
M  V30 478 C 39.8768 3.8402 -3.67017 0
M  V30 479 C 38.9158 3.69476 -4.8801 0
M  V30 480 N 38.0528 4.88774 -5.04029 0
M  V30 481 H 42.8928 1.00512 -2.80538 0
M  V30 482 H 40.4298 0.485055 -1.38873 0
M  V30 483 H 42.3878 3.44386 -2.35487 0
M  V30 484 H 41.0178 2.94115 -1.33027 0
M  V30 485 H 40.0698 1.69571 -3.40514 0
M  V30 486 H 41.3818 2.41774 -4.36287 0
M  V30 487 H 40.5358 4.7108 -3.8232 0
M  V30 488 H 39.2748 4.01754 -2.76487 0
M  V30 489 H 38.2798 2.80799 -4.72686 0
M  V30 490 H 39.5048 3.53238 -5.8 0
M  V30 491 H 37.4508 5.0687 -4.16435 0
M  V30 492 H 37.3678 4.76562 -5.86877 0
M  V30 493 H 38.6358 5.77335 -5.23741 0
M  V30 494 N 42.8649 1.48995 0.513639 0
M  V30 495 C 44.1139 1.57093 1.2651 0
M  V30 496 C 44.4269 0.257091 1.93903 0
M  V30 497 O 45.6329 0.216478 2.70636 0
M  V30 498 C 44.0889 2.77118 2.29638 0
M  V30 499 C 43.6969 4.15209 1.68241 0
M  V30 500 C 45.4409 2.94538 3.05692 0
M  V30 501 C 43.3479 5.26474 2.69406 0
M  V30 502 H 42.2779 0.584876 0.475854 0
M  V30 503 H 44.9289 1.7536 0.540487 0
M  V30 504 H 43.3109 2.52319 3.05207 0
M  V30 505 H 44.4849 4.50094 0.987505 0
M  V30 506 H 42.7999 4.03042 1.04623 0
M  V30 507 H 45.3969 3.74832 3.8132 0
M  V30 508 H 45.7399 2.04614 3.62545 0
M  V30 509 H 46.2729 3.19316 2.37238 0
M  V30 510 H 43.0119 6.18417 2.17351 0
M  V30 511 H 42.5319 4.96058 3.37175 0
M  V30 512 H 44.2109 5.55277 3.32078 0
M  V30 513 N 44.343 -0.763751 1.37857 0
M  V30 514 C 45.276 -1.88486 1.28639 0
M  V30 515 C 46.254 -1.61757 0.165363 0
M  V30 516 O 47.438 -1.85391 0.340948 0
M  V30 517 C 44.565 -3.23884 0.990811 0
M  V30 518 C 43.611 -3.69514 2.12983 0
M  V30 519 S 44.444 -3.82244 3.75033 0
M  V30 520 C 45.6 -5.20477 3.47641 0
M  V30 521 H 45.833 -1.96017 2.23527 0
M  V30 522 H 43.366 -0.925684 1.23574 0
M  V30 523 H 45.324 -4.02081 0.827101 0
M  V30 524 H 43.985 -3.14044 0.0592832 0
M  V30 525 H 43.178 -4.67696 1.87821 0
M  V30 526 H 42.78 -2.98441 2.25408 0
M  V30 527 H 45.072 -6.05905 3.03125 0
M  V30 528 H 46.015 -5.50655 4.4518 0
M  V30 529 H 46.423 -4.88793 2.82385 0
M  V30 530 N 45.8211 -1.22559 -0.990812 0
M  V30 531 C 47.2371 -0.985996 -1.255 0
M  V30 532 C 47.4371 0.319173 -1.98956 0
M  V30 533 O 46.4931 1.04127 -2.3003 0
M  V30 534 C 47.8061 -2.18607 -2.06474 0
M  V30 535 C 49.3541 -2.22985 -2.19651 0
M  V30 536 C 49.8291 -3.4255 -3.04012 0
M  V30 537 N 51.3201 -3.42725 -3.11599 0
M  V30 538 C 52.0551 -4.31892 -3.7717 0
M  V30 539 N 51.5511 -5.31279 -4.44651 0
M  V30 540 N 53.3441 -4.19662 -3.73952 0
M  V30 541 H 45.4951 -2.06469 -0.49841 0
M  V30 542 H 47.7581 -0.904853 -0.282747 0
M  V30 543 H 47.4641 -3.13267 -1.59865 0
M  V30 544 H 47.3381 -2.18838 -3.07229 0
M  V30 545 H 49.7251 -1.28871 -2.65474 0
M  V30 546 H 49.8061 -2.26791 -1.18319 0
M  V30 547 H 49.4501 -4.36965 -2.58889 0
M  V30 548 H 49.3801 -3.35984 -4.0549 0
M  V30 549 H 51.8711 -2.70807 -2.63575 0
M  V30 550 H 52.1841 -5.95593 -4.92431 0
M  V30 551 H 50.5291 -5.3519 -4.43392 0
M  V30 552 H 53.7201 -3.41268 -3.20396 0
M  V30 553 H 53.8931 -4.89358 -4.24774 0
M  V30 554 N 47.2992 1.18797 -1.03562 0
M  V30 555 C 48.5762 1.84469 -0.650434 0
M  V30 556 C 48.9562 1.92319 0.870433 0
M  V30 557 O 48.3042 1.44528 1.76986 0
M  V30 558 C 48.5142 3.2306 -1.32036 0
M  V30 559 C 49.8622 3.9915 -1.44792 0
M  V30 560 O 50.8862 3.32481 -1.27806 0
M  V30 561 O 49.7452 5.18587 -1.72423 0
M  V30 562 H 46.8392 0.795251 -0.226946 0
M  V30 563 H 49.3852 1.26231 -1.13419 0
M  V30 564 H 48.1572 3.1222 -2.3587 0
M  V30 565 H 47.7802 3.88949 -0.8249 0
M  V30 566 N 48.7773 0.814389 1.34928 0
M  V30 567 C 50.0253 0.397636 1.9815 0
M  V30 568 C 50.3463 -1.04069 1.64908 0
M  V30 569 O 49.6163 -1.72121 0.93548 0
M  V30 570 H 48.1963 0.144043 0.732981 0
M  V30 571 H 50.8583 1.04195 1.6471 0
M  V30 572 H 49.9543 0.509688 3.0791 0
M  V30 573 N 50.2554 -1.46986 0.568584 0
M  V30 574 C 51.2024 -2.30153 -0.172707 0
M  V30 575 C 52.1724 -1.39759 -0.897586 0
M  V30 576 O 53.3574 -1.68716 -0.891044 0
M  V30 577 C 50.4974 -3.23952 -1.1895 0
M  V30 578 C 49.6104 -4.29441 -0.469517 0
M  V30 579 C 48.7454 -5.1038 -1.47259 0
M  V30 580 C 47.7844 -6.07632 -0.738225 0
M  V30 581 N 46.9214 -6.8149 -1.68868 0
M  V30 582 H 51.7614 -2.93019 0.542596 0
M  V30 583 H 49.2984 -1.44422 0.279401 0
M  V30 584 H 51.2564 -3.76767 -1.79173 0
M  V30 585 H 49.8864 -2.62926 -1.87269 0
M  V30 586 H 48.9384 -3.79594 0.247467 0
M  V30 587 H 50.2504 -4.98689 0.105241 0
M  V30 588 H 49.4044 -5.67402 -2.14803 0
M  V30 589 H 48.1434 -4.4106 -2.08128 0
M  V30 590 H 47.1484 -5.49778 -0.0489293 0
M  V30 591 H 48.3734 -6.78966 -0.135129 0
M  V30 592 H 46.3194 -6.14891 -2.28573 0
M  V30 593 H 46.2364 -7.46948 -1.16636 0
M  V30 594 H 47.5044 -7.43078 -2.3549 0
M  V30 595 N 51.7335 -0.305618 -1.54608 0
M  V30 596 C 52.6805 0.568421 -2.23691 0
M  V30 597 C 53.6505 1.12592 -1.22116 0
M  V30 598 O 54.8355 1.16959 -1.50749 0
M  V30 599 C 51.9755 1.7322 -2.98477 0
M  V30 600 C 51.0885 1.20566 -4.14835 0
M  V30 601 C 50.2235 2.33368 -4.77193 0
M  V30 602 C 49.2625 1.7787 -5.85686 0
M  V30 603 N 48.3995 2.84263 -6.4198 0
M  V30 604 H 53.2395 -0.0272867 -2.97988 0
M  V30 605 H 50.7765 -0.0252363 -1.47078 0
M  V30 606 H 52.7345 2.41675 -3.40072 0
M  V30 607 H 51.3645 2.29947 -2.26548 0
M  V30 608 H 50.4165 0.413223 -3.78149 0
M  V30 609 H 51.7285 0.759417 -4.92985 0
M  V30 610 H 50.8825 3.09761 -5.21664 0
M  V30 611 H 49.6215 2.8132 -3.98385 0
M  V30 612 H 48.6265 0.99968 -5.40635 0
M  V30 613 H 49.8515 1.30816 -6.66381 0
M  V30 614 H 47.7975 3.31541 -5.66053 0
M  V30 615 H 47.7145 2.44149 -7.15491 0
M  V30 616 H 48.9825 3.6054 -6.91109 0
M  V30 617 N 53.2116 1.57565 -0.0334293 0
M  V30 618 C 54.1596 2.1164 0.96496 0
M  V30 619 C 55.1536 1.04398 1.33407 0
M  V30 620 O 56.3596 1.22828 1.3158 0
M  V30 621 H 52.7346 0.676222 0.32898 0
M  V30 622 H 54.7056 2.94455 0.483614 0
M  V30 623 C 53.4546 2.66207 2.23672 0
M  V30 624 H 52.7776 3.48378 1.96145 0
M  V30 625 H 54.2176 3.07685 2.9173 0
M  V30 626 C 52.6766 1.59151 2.96939 0
M  V30 627 O 53.2066 0.993858 3.89211 0
M  V30 628 N 51.4126 1.31093 2.59351 0
M  V30 629 H 50.9596 1.7988 1.84393 0
M  V30 630 H 50.9176 0.596889 3.08682 0
M  V30 631 N 54.6897 -0.239769 1.55765 0
M  V30 632 C 55.6197 -1.30052 1.9393 0
M  V30 633 C 56.6007 -1.49839 0.805132 0
M  V30 634 O 57.7857 -1.62328 1.06599 0
M  V30 635 C 54.9157 -2.65391 2.2402 0
M  V30 636 C 53.8697 -2.60289 3.39755 0
M  V30 637 C 53.1957 -3.99489 3.55405 0
M  V30 638 C 54.4957 -2.16654 4.75246 0
M  V30 639 H 56.1897 -0.983573 2.82783 0
M  V30 640 H 53.7357 -0.471701 1.36055 0
M  V30 641 H 55.6887 -3.3974 2.49308 0
M  V30 642 H 54.4127 -2.98736 1.32 0
M  V30 643 H 53.0717 -1.88398 3.14487 0
M  V30 644 H 52.7197 -4.30112 2.60793 0
M  V30 645 H 52.4197 -3.96962 4.33238 0
M  V30 646 H 53.9437 -4.75528 3.83022 0
M  V30 647 H 55.3577 -2.80737 4.99859 0
M  V30 648 H 53.7547 -2.25223 5.56232 0
M  V30 649 H 54.8247 -1.11835 4.71827 0
M  V30 650 N 56.1678 -1.49265 -0.50573 0
M  V30 651 C 57.1308 -1.65075 -1.59006 0
M  V30 652 C 58.1308 -0.522768 -1.52065 0
M  V30 653 O 59.3208 -0.789117 -1.55302 0
M  V30 654 C 56.4528 -1.64369 -2.98656 0
M  V30 655 H 57.6458 -2.61784 -1.46319 0
M  V30 656 H 55.1988 -1.38226 -0.729616 0
M  V30 657 H 55.9338 -0.692272 -3.16825 0
M  V30 658 H 55.7188 -2.46282 -3.05103 0
M  V30 659 H 57.2088 -1.78674 -3.77446 0
M  V30 660 N 57.6459 0.756429 -1.3826 0
M  V30 661 C 58.6089 1.85176 -1.35065 0
M  V30 662 C 59.6089 1.58818 -0.251703 0
M  V30 663 O 60.7989 1.66615 -0.508433 0
M  V30 664 C 57.9309 3.22596 -1.10201 0
M  V30 665 H 59.1239 1.89417 -2.3251 0
M  V30 666 H 56.6769 0.95783 -1.23512 0
M  V30 667 H 57.4119 3.24025 -0.133504 0
M  V30 668 H 57.1969 3.43122 -1.89762 0
M  V30 669 H 58.6869 4.02673 -1.10654 0
M  V30 670 N 59.124 1.23083 0.984299 0
M  V30 671 C 60.54 0.992637 1.24975 0
M  V30 672 C 60.74 -0.308618 1.99123 0
M  V30 673 O 59.796 -1.02905 2.30579 0
M  V30 674 C 61.109 2.19698 2.05312 0
M  V30 675 C 62.657 2.24147 2.18465 0
M  V30 676 C 63.132 3.44157 3.02192 0
M  V30 677 N 64.623 3.44372 3.09777 0
M  V30 678 C 65.358 4.33886 3.74874 0
M  V30 679 N 64.854 5.3363 4.41827 0
M  V30 680 N 66.647 4.21639 3.71721 0
M  V30 681 H 58.798 2.06731 0.487453 0
M  V30 682 H 61.061 0.906339 0.277944 0
M  V30 683 H 60.767 3.1411 1.58201 0
M  V30 684 H 60.641 2.20465 3.06064 0
M  V30 685 H 63.028 1.30277 2.64786 0
M  V30 686 H 63.109 2.27415 1.17115 0
M  V30 687 H 62.753 4.38332 2.56568 0
M  V30 688 H 62.683 3.3813 4.03702 0
M  V30 689 H 65.174 2.72201 2.62135 0
M  V30 690 H 65.487 5.98196 4.89266 0
M  V30 691 H 63.832 5.37534 4.40548 0
M  V30 692 H 67.023 3.42962 3.18582 0
M  V30 693 H 67.196 4.91604 4.22173 0
M  V30 694 N 60.6021 -1.18246 1.0419 0
M  V30 695 C 61.8511 -1.87588 0.741194 0
M  V30 696 C 62.1641 -1.81303 -0.734066 0
M  V30 697 O 63.3701 -2.46019 -1.14834 0
M  V30 698 C 61.8261 -3.36538 1.27555 0
M  V30 699 C 61.4341 -3.51349 2.77953 0
M  V30 700 C 63.1781 -4.11273 1.05143 0
M  V30 701 C 61.0851 -4.94265 3.2474 0
M  V30 702 H 60.0151 -0.702622 0.273565 0
M  V30 703 H 62.6661 -1.33601 1.25789 0
M  V30 704 H 61.0481 -3.9 0.686703 0
M  V30 705 H 62.2221 -3.08153 3.42605 0
M  V30 706 H 60.5371 -2.90022 2.98791 0
M  V30 707 H 63.1341 -5.16689 1.37611 0
M  V30 708 H 63.4771 -4.16298 -0.0112774 0
M  V30 709 H 64.0101 -3.63987 1.60495 0
M  V30 710 H 60.7491 -4.94408 4.30396 0
M  V30 711 H 60.2691 -5.38172 2.64823 0
M  V30 712 H 61.9481 -5.62987 3.18834 0
M  V30 713 N 62.0802 -0.821533 -1.34494 0
M  V30 714 C 63.3272 -0.408946 -1.98328 0
M  V30 715 C 63.6552 1.02764 -1.65136 0
M  V30 716 O 62.9102 1.73026 -0.914349 0
M  V30 717 C 63.2092 -0.556512 -3.53041 0
M  V30 718 C 62.8752 -1.95861 -4.0614 0
M  V30 719 C 61.5372 -2.34217 -4.20352 0
M  V30 720 C 63.8892 -2.87523 -4.34718 0
M  V30 721 C 61.2172 -3.63572 -4.6047 0
M  V30 722 C 63.5692 -4.1634 -4.76281 0
M  V30 723 C 62.2332 -4.54675 -4.88699 0
M  V30 724 H 61.5032 -0.149644 -0.725732 0
M  V30 725 H 64.1502 -1.04521 -1.6046 0
M  V30 726 H 62.4552 0.163148 -3.9146 0
M  V30 727 H 64.1522 -0.217826 -4.00408 0
M  V30 728 H 60.7422 -1.65066 -3.95539 0
M  V30 729 H 64.9262 -2.59133 -4.23277 0
M  V30 730 H 60.1822 -3.93101 -4.68275 0
M  V30 731 H 64.3562 -4.87455 -4.97354 0
M  V30 732 H 61.9832 -5.54959 -5.19542 0
M  V30 733 N 63.5583 1.46682 -0.576371 0
M  V30 734 C 64.7883 2.06498 -0.0648694 0
M  V30 735 C 65.1963 1.42665 1.24271 0
M  V30 736 O 64.5393 0.523886 1.76071 0
M  V30 737 C 64.6013 3.5904 0.181816 0
M  V30 738 C 64.2653 4.45028 -1.0392 0
M  V30 739 C 65.2623 4.81959 -1.94966 0
M  V30 740 C 62.9473 4.86259 -1.25927 0
M  V30 741 C 64.9413 5.58942 -3.06371 0
M  V30 742 C 62.6283 5.63002 -2.37638 0
M  V30 743 C 63.6263 5.99257 -3.2769 0
M  V30 744 O 63.3143 6.7445 -4.37461 0
M  V30 745 H 63.0463 0.674028 -0.0515987 0
M  V30 746 H 65.6003 1.89393 -0.794951 0
M  V30 747 H 63.8303 3.74429 0.966436 0
M  V30 748 H 65.5193 4.00806 0.641047 0
M  V30 749 H 66.2853 4.50689 -1.79177 0
M  V30 750 H 62.1643 4.57494 -0.567448 0
M  V30 751 H 65.7083 5.87158 -3.76684 0
M  V30 752 H 61.6053 5.93686 -2.53392 0
M  V30 753 H 62.3733 6.92867 -4.35749 0
M  V30 754 N 65.0364 0.313813 1.54444 0
M  V30 755 C 66.3134 -0.345447 1.92525 0
M  V30 756 C 66.6934 -1.70667 1.24242 0
M  V30 757 O 66.0414 -2.25273 0.382654 0
M  V30 758 C 66.2514 -0.44737 3.46121 0
M  V30 759 C 67.5994 -0.712238 4.18584 0
M  V30 760 O 68.6234 -0.530678 3.52225 0
M  V30 761 O 67.4824 -1.06183 5.36085 0
M  V30 762 H 64.5764 -0.195407 0.803583 0
M  V30 763 H 67.1224 0.362813 1.65776 0
M  V30 764 H 65.8944 0.509043 3.87975 0
M  V30 765 H 65.5174 -1.20359 3.78945 0
M  V30 766 N 66.5145 -1.57545 0.0417849 0
M  V30 767 C 67.4775 -2.09885 -0.92093 0
M  V30 768 C 68.4775 -1.01648 -1.24596 0
M  V30 769 O 69.6675 -1.27759 -1.1842 0
M  V30 770 C 66.7995 -2.57527 -2.23367 0
M  V30 771 H 67.9925 -2.96236 -0.467382 0
M  V30 772 H 65.5455 -1.5493 -0.206467 0
M  V30 773 H 66.2805 -1.74542 -2.73323 0
M  V30 774 H 66.0655 -3.36613 -2.01083 0
M  V30 775 H 67.5555 -2.98201 -2.92346 0
M  V30 776 N 67.9926 0.231505 -1.5589 0
M  V30 777 C 69.2326 0.964533 -1.80211 0
M  V30 778 C 69.5966 1.81926 -0.613744 0
M  V30 779 O 70.7976 2.58526 -0.736045 0
M  V30 780 C 69.0686 1.78956 -3.09369 0
M  V30 781 S 70.6276 2.57959 -3.54969 0
M  V30 782 H 67.4456 0.324173 -0.632798 0
M  V30 783 H 70.0476 0.230985 -1.94131 0
M  V30 784 H 68.7516 1.15161 -3.93911 0
M  V30 785 H 68.2826 2.56559 -2.9823 0
M  V30 786 H 70.2976 3.81309 -3.17519 0
M  V30 787 N 69.4707 1.49531 0.497807 0
M  V30 788 C 70.4177 1.66436 1.59899 0
M  V30 789 C 71.3877 0.505793 1.58212 0
M  V30 790 O 72.5727 0.733202 1.7615 0
M  V30 791 C 69.7127 1.7399 2.98029 0
M  V30 792 C 68.8257 3.01172 3.09708 0
M  V30 793 C 67.9607 2.99686 4.38591 0
M  V30 794 C 66.9997 4.21434 4.43914 0
M  V30 795 N 66.1367 4.1784 5.64229 0
M  V30 796 H 70.9767 2.60459 1.44793 0
M  V30 797 H 68.5137 1.29137 0.704423 0
M  V30 798 H 70.4717 1.76352 3.78095 0
M  V30 799 H 69.1017 0.834301 3.11832 0
M  V30 800 H 68.1537 3.08408 2.22685 0
M  V30 801 H 69.4657 3.91165 3.09502 0
M  V30 802 H 68.6197 3.00628 5.2698 0
M  V30 803 H 67.3587 2.07477 4.41367 0
M  V30 804 H 66.3637 4.20733 3.53926 0
M  V30 805 H 67.5887 5.14839 4.42851 0
M  V30 806 H 65.5347 3.28469 5.67841 0
M  V30 807 H 65.4517 5.01571 5.65652 0
M  V30 808 H 66.7197 4.22889 6.54817 0
M  V30 809 N 70.9488 -0.749086 1.3866 0
M  V30 810 C 72.1978 -1.50371 1.3443 0
M  V30 811 C 72.5108 -1.95503 -0.0616397 0
M  V30 812 O 73.7168 -2.70554 -0.226489 0
M  V30 813 C 72.1728 -2.71644 2.36088 0
M  V30 814 C 71.7808 -2.3352 3.82325 0
M  V30 815 C 73.5248 -3.49518 2.40909 0
M  V30 816 C 71.4318 -3.51431 4.75658 0
M  V30 817 H 70.3618 -0.564628 0.499712 0
M  V30 818 H 73.0128 -0.818449 1.64237 0
M  V30 819 H 71.3948 -3.42175 1.9933 0
M  V30 820 H 72.5688 -1.70627 4.28046 0
M  V30 821 H 70.8838 -1.6877 3.80665 0
M  V30 822 H 73.4808 -4.37197 3.07836 0
M  V30 823 H 73.8238 -3.90992 1.42937 0
M  V30 824 H 74.3568 -2.86005 2.76489 0
M  V30 825 H 71.0958 -3.15019 5.74842 0
M  V30 826 H 70.6158 -4.13352 4.34627 0
M  V30 827 H 72.2948 -4.17953 4.93887 0
M  V30 828 N 72.4269 -1.23603 -0.977757 0
M  V30 829 C 73.6759 -1.06377 -1.71368 0
M  V30 830 C 73.9889 0.399062 -1.91486 0
M  V30 831 O 75.1949 0.691312 -2.62551 0
M  V30 832 C 73.6509 -1.85512 -3.08404 0
M  V30 833 C 73.2589 -3.36141 -2.96164 0
M  V30 834 C 75.0029 -1.76783 -3.85938 0
M  V30 835 C 72.9099 -4.07659 -4.28449 0
M  V30 836 H 71.8399 -0.394452 -0.642591 0
M  V30 837 H 74.4909 -1.47594 -1.09034 0
M  V30 838 H 72.8729 -1.37103 -3.71509 0
M  V30 839 H 74.0469 -3.92056 -2.42133 0
M  V30 840 H 72.3619 -3.45712 -2.32104 0
M  V30 841 H 74.9589 -2.27526 -4.83876 0
M  V30 842 H 75.3019 -0.731116 -4.0983 0
M  V30 843 H 75.8349 -2.22818 -3.2954 0
M  V30 844 H 72.5739 -5.11648 -4.09752 0
M  V30 845 H 72.0939 -3.5653 -4.82334 0
M  V30 846 H 73.7729 -4.141 -4.97122 0
M  V30 847 N 73.905 1.17692 -1.04816 0
M  V30 848 C 74.837 2.21103 -0.603822 0
M  V30 849 C 75.85 1.59411 0.33046 0
M  V30 850 O 77.039 1.7807 0.12379 0
M  V30 851 C 74.139 3.38623 0.136898 0
M  V30 852 C 73.312 4.29888 -0.807137 0
M  V30 853 C 72.371 5.26088 -0.10836 0
M  V30 854 O 71.397 5.64353 -0.741232 0
M  V30 855 N 72.599 5.68882 1.15558 0
M  V30 856 H 75.364 2.59848 -1.49329 0
M  V30 857 H 72.925 1.32553 -0.929587 0
M  V30 858 H 74.917 4.00009 0.614401 0
M  V30 859 H 73.487 2.98508 0.927993 0
M  V30 860 H 72.707 3.65993 -1.46434 0
M  V30 861 H 73.995 4.87759 -1.44807 0
M  V30 862 H 73.393 5.39861 1.69015 0
M  V30 863 H 71.95 6.32429 1.57722 0
M  V30 864 N 75.3831 0.828654 1.34056 0
M  V30 865 C 76.2931 0.256725 2.33191 0
M  V30 866 C 77.3091 -0.611898 1.62886 0
M  V30 867 O 78.4851 -0.51844 1.94613 0
M  V30 868 C 75.5501 -0.567238 3.42028 0
M  V30 869 C 74.6111 0.324458 4.28072 0
M  V30 870 C 73.8441 -0.460274 5.31712 0
M  V30 871 O 74.0671 -1.693 5.44696 0
M  V30 872 O 73.0011 0.160391 6.01686 0
M  V30 873 H 76.8271 1.07739 2.83947 0
M  V30 874 H 74.4121 0.59093 1.37217 0
M  V30 875 H 76.2941 -1.03582 4.08471 0
M  V30 876 H 74.9691 -1.36513 2.93506 0
M  V30 877 H 73.8761 0.840659 3.64532 0
M  V30 878 H 75.2091 1.08685 4.8005 0
M  V30 879 N 76.8612 -1.46375 0.584142 0
M  V30 880 C 77.8082 -2.30323 -0.148286 0
M  V30 881 C 78.7782 -1.40703 -0.882713 0
M  V30 882 O 79.9632 -1.69651 -0.873099 0
M  V30 883 C 77.1032 -3.25196 -1.15507 0
M  V30 884 C 76.2162 -4.29915 -0.423943 0
M  V30 885 C 75.3512 -5.11914 -1.41838 0
M  V30 886 C 74.3902 -6.08381 -0.673736 0
M  V30 887 N 73.5272 -6.83242 -1.6163 0
M  V30 888 H 78.3672 -2.92427 0.573644 0
M  V30 889 H 75.9042 -1.44118 0.294703 0
M  V30 890 H 77.8622 -3.78646 -1.75166 0
M  V30 891 H 76.4922 -2.64898 -1.8447 0
M  V30 892 H 75.5442 -3.7931 0.287714 0
M  V30 893 H 76.8562 -4.98549 0.158128 0
M  V30 894 H 76.0102 -5.69648 -2.08773 0
M  V30 895 H 74.7492 -4.43243 -2.03438 0
M  V30 896 H 73.7542 -5.49799 0.00938483 0
M  V30 897 H 74.9792 -6.79071 -0.0631082 0
M  V30 898 H 72.9252 -6.1728 -2.22038 0
M  V30 899 H 72.8422 -7.48144 -1.08707 0
M  V30 900 H 74.1102 -7.45534 -2.27596 0
M  V30 901 N 78.3393 -0.321999 -1.54275 0
M  V30 902 C 79.5673 0.283052 -2.04955 0
M  V30 903 C 79.9823 1.45904 -1.19823 0
M  V30 904 O 79.3393 1.81063 -0.228545 0
M  V30 905 C 79.3903 0.719028 -3.54277 0
M  V30 906 O 79.1113 -0.410175 -4.36176 0
M  V30 907 C 80.6123 1.38705 -4.21041 0
M  V30 908 H 77.8323 0.0584616 -0.668448 0
M  V30 909 H 80.3763 -0.467734 -1.99079 0
M  V30 910 H 78.5313 1.41979 -3.60445 0
M  V30 911 H 78.9453 -0.0669416 -5.24457 0
M  V30 912 H 80.4193 1.64306 -5.2698 0
M  V30 913 H 80.8963 2.33385 -3.72059 0
M  V30 914 H 81.5023 0.728906 -4.19007 0
M  V30 915 N 79.8174 1.5752 -0.0501392 0
M  V30 916 C 81.0654 1.9227 0.622642 0
M  V30 917 C 81.3864 0.929083 1.71444 0
M  V30 918 O 80.6564 -0.0262186 1.95882 0
M  V30 919 H 79.2364 0.709739 0.232981 0
M  V30 920 H 81.8984 1.94628 -0.102898 0
M  V30 921 H 80.9944 2.93479 1.06191 0
M  V30 922 N 81.2955 -0.223234 1.56011 0
M  V30 923 C 82.2275 -1.30006 1.88762 0
M  V30 924 C 83.2405 -1.43129 0.775746 0
M  V30 925 O 84.4295 -1.44057 1.05403 0
M  V30 926 C 81.5295 -2.67589 2.07965 0
M  V30 927 C 80.7025 -2.76434 3.38973 0
M  V30 928 C 79.7615 -3.95019 3.47629 0
M  V30 929 O 78.7875 -3.83436 4.20672 0
M  V30 930 N 79.9895 -5.09249 2.78649 0
M  V30 931 H 82.7545 -1.02238 2.81722 0
M  V30 932 H 80.3155 -0.413278 1.56536 0
M  V30 933 H 82.3075 -3.45297 2.11073 0
M  V30 934 H 80.8775 -2.87964 1.21638 0
M  V30 935 H 80.0975 -1.85216 3.47978 0
M  V30 936 H 81.3855 -2.79313 4.25278 0
M  V30 937 H 80.7835 -5.21556 2.19081 0
M  V30 938 H 79.3405 -5.85007 2.8742 0
M  V30 939 N 82.7736 -1.49793 -0.48987 0
M  V30 940 C 83.6836 -1.70036 -1.61632 0
M  V30 941 C 84.6996 -0.583102 -1.63939 0
M  V30 942 O 85.8756 -0.859169 -1.82154 0
M  V30 943 C 82.9406 -1.77277 -2.97949 0
M  V30 944 C 82.0016 -3.00918 -3.06181 0
M  V30 945 C 81.2346 -3.07804 -4.35996 0
M  V30 946 O 81.4576 -2.21982 -5.25433 0
M  V30 947 O 80.3916 -4.00369 -4.49431 0
M  V30 948 H 84.2176 -2.65486 -1.47482 0
M  V30 949 H 81.8026 -1.33666 -0.667362 0
M  V30 950 H 83.6846 -1.84329 -3.78947 0
M  V30 951 H 82.3596 -0.850076 -3.12339 0
M  V30 952 H 81.2666 -2.99377 -2.2433 0
M  V30 953 H 82.5996 -3.92704 -2.96723 0
M  V30 954 N 84.2517 0.741722 -1.39055 0
M  V30 955 C 85.6627 1.31966 -1.32068 0
M  V30 956 C 86.0137 1.96192 0.0180797 0
M  V30 957 O 85.1387 1.95861 0.920196 0
M  V30 958 C 85.7337 2.39954 -2.39181 0
M  V30 959 C 84.2927 2.93438 -2.35735 0
M  V30 960 C 83.4397 1.66936 -2.21422 0
M  V30 961 H 86.3907 0.539721 -1.4924 0
M  V30 962 H 86.4117 3.20182 -2.05581 0
M  V30 963 H 85.9237 1.9318 -3.36605 0
M  V30 964 H 84.0247 3.4451 -1.41929 0
M  V30 965 H 84.1377 3.4701 -3.30335 0
M  V30 966 H 82.5017 1.91016 -1.68478 0
M  V30 967 H 83.2847 1.22224 -3.20806 0
M  V30 968 N 85.7298 1.2412 0.971189 0
M  V30 969 C 86.6598 1.05508 2.08304 0
M  V30 970 C 87.6408 -0.0308864 1.70072 0
M  V30 971 O 88.8258 0.135521 1.93727 0
M  V30 972 C 85.9558 0.655365 3.4106 0
M  V30 973 C 84.9098 1.68971 3.93234 0
M  V30 974 C 84.2358 1.14516 5.22293 0
M  V30 975 C 85.5358 3.08487 4.21465 0
M  V30 976 H 87.2298 1.98507 2.24132 0
M  V30 977 H 84.7758 0.955821 1.07704 0
M  V30 978 H 86.7288 0.51217 4.18276 0
M  V30 979 H 85.4528 -0.31032 3.25122 0
M  V30 980 H 84.1118 1.82106 3.18171 0
M  V30 981 H 83.7598 0.170189 5.02712 0
M  V30 982 H 83.4598 1.83635 5.58168 0
M  V30 983 H 84.9838 1.01401 6.02121 0
M  V30 984 H 86.3978 2.98601 4.89398 0
M  V30 985 H 84.7948 3.74926 4.68562 0
M  V30 986 H 85.8648 3.56787 3.28376 0
M  V30 987 N 87.2079 -1.17134 1.05439 0
M  V30 988 C 88.1549 -2.21235 0.657539 0
M  V30 989 C 89.1249 -1.62551 -0.341543 0
M  V30 990 O 90.3099 -1.89379 -0.232393 0
M  V30 991 C 87.4499 -3.45076 0.0410575 0
M  V30 992 C 86.5629 -4.18042 1.08927 0
M  V30 993 C 85.6979 -5.29376 0.439848 0
M  V30 994 C 84.7369 -5.94132 1.4722 0
M  V30 995 N 83.8739 -6.96975 0.846756 0
M  V30 996 H 88.7139 -2.54534 1.54972 0
M  V30 997 H 86.2509 -1.25028 0.775006 0
M  V30 998 H 88.2089 -4.15862 -0.33383 0
M  V30 999 H 86.8389 -3.12353 -0.814568 0
M  V30 1000 H 85.8909 -3.45945 1.58196 0
M  V30 1001 H 87.2029 -4.62306 1.87282 0
M  V30 1002 H 86.3569 -6.06699 0.0115125 0
M  V30 1003 H 85.0959 -4.86251 -0.375656 0
M  V30 1004 H 84.1009 -5.15538 1.91052 0
M  V30 1005 H 85.3259 -6.39337 2.28965 0
M  V30 1006 H 83.2719 -6.5598 0.0518075 0
M  V30 1007 H 83.1889 -7.39565 1.5678 0
M  V30 1008 H 84.4569 -7.78239 0.443277 0
M  V30 1009 N 88.686 -0.835752 -1.33615 0
M  V30 1010 C 89.932 -0.430596 -1.98176 0
M  V30 1011 C 90.265 1.00684 -1.66061 0
M  V30 1012 O 89.54 1.70339 -0.938877 0
M  V30 1013 C 89.823 -0.648065 -3.5422 0
M  V30 1014 C 89.676 -2.13255 -3.96033 0
M  V30 1015 C 90.995 -0.0922113 -4.40003 0
M  V30 1016 H 88.114 -0.157924 -0.719881 0
M  V30 1017 H 90.756 -1.05069 -1.58305 0
M  V30 1018 H 88.906 -0.120237 -3.88314 0
M  V30 1019 H 90.578 -2.725 -3.72211 0
M  V30 1020 H 88.821 -2.61823 -3.45878 0
M  V30 1021 H 89.492 -2.23547 -5.04708 0
M  V30 1022 H 91.968 -0.543343 -4.12537 0
M  V30 1023 H 90.844 -0.274083 -5.48215 0
M  V30 1024 H 91.105 1.00378 -4.30554 0
M  V30 1025 N 90.1641 1.46063 -0.591896 0
M  V30 1026 C 91.4111 2.02338 -0.0809991 0
M  V30 1027 C 91.7391 1.46228 1.28249 0
M  V30 1028 O 90.9941 0.620818 1.85592 0
M  V30 1029 C 91.2931 3.57391 0.0249813 0
M  V30 1030 C 90.9591 4.32583 -1.27211 0
M  V30 1031 C 89.6211 4.52844 -1.62745 0
M  V30 1032 C 91.9731 4.75687 -2.13005 0
M  V30 1033 C 89.3011 5.13462 -2.83855 0
M  V30 1034 C 91.6531 5.37644 -3.3335 0
M  V30 1035 C 90.3171 5.5613 -3.69155 0
M  V30 1036 H 89.5871 0.740407 -0.0296397 0
M  V30 1037 H 92.2341 1.75321 -0.770374 0
M  V30 1038 H 90.5391 3.83597 0.797537 0
M  V30 1039 H 92.2361 3.98621 0.436184 0
M  V30 1040 H 88.8261 4.17116 -0.985499 0
M  V30 1041 H 93.0101 4.59782 -1.86855 0
M  V30 1042 H 88.2661 5.25965 -3.11722 0
M  V30 1043 H 92.4401 5.7 -4.00092 0
M  V30 1044 H 90.0671 6.0287 -4.63089 0
M  V30 1045 N 91.6422 0.330177 1.54103 0
M  V30 1046 C 92.5892 -0.532762 2.24567 0
M  V30 1047 C 93.5592 -1.10635 1.23892 0
M  V30 1048 O 94.7442 -1.14546 1.5259 0
M  V30 1049 C 91.8842 -1.6845 3.01195 0
M  V30 1050 C 90.9972 -1.13951 4.167 0
M  V30 1051 C 90.1322 -2.25746 4.80845 0
M  V30 1052 C 89.1712 -1.6853 5.88442 0
M  V30 1053 N 88.3082 -2.74014 6.46421 0
M  V30 1054 H 93.1482 0.0746905 2.97906 0
M  V30 1055 H 90.6852 0.048632 1.4702 0
M  V30 1056 H 92.6432 -2.36234 3.43874 0
M  V30 1057 H 91.2732 -2.26314 2.30178 0
M  V30 1058 H 90.3252 -0.35301 3.78758 0
M  V30 1059 H 91.6372 -0.680892 4.94131 0
M  V30 1060 H 90.7912 -3.01422 5.26526 0
M  V30 1061 H 89.5302 -2.74947 4.0281 0
M  V30 1062 H 88.5352 -0.913543 5.42157 0
M  V30 1063 H 89.7602 -1.20198 6.68378 0
M  V30 1064 H 87.7062 -3.22494 5.71256 0
M  V30 1065 H 87.6232 -2.32735 7.19285 0
M  V30 1066 H 88.8912 -3.49499 6.96757 0
M  V30 1067 N 93.1203 -1.57491 0.0584922 0
M  V30 1068 C 94.0523 -2.08916 -0.942694 0
M  V30 1069 C 95.0653 -1.0185 -1.27006 0
M  V30 1070 O 96.2543 -1.29398 -1.22957 0
M  V30 1071 C 93.3543 -2.52341 -2.26224 0
M  V30 1072 C 92.5273 -3.82827 -2.1157 0
M  V30 1073 C 91.5863 -4.12487 -3.26712 0
M  V30 1074 O 90.6123 -4.82295 -3.02292 0
M  V30 1075 N 91.8143 -3.64978 -4.5141 0
M  V30 1076 H 94.5793 -2.95437 -0.503722 0
M  V30 1077 H 92.1403 -1.61397 -0.12757 0
M  V30 1078 H 94.1323 -2.69254 -3.02133 0
M  V30 1079 H 92.7023 -1.7103 -2.61663 0
M  V30 1080 H 91.9223 -3.75425 -1.20208 0
M  V30 1081 H 93.2103 -4.68263 -1.99015 0
M  V30 1082 H 92.6083 -3.08558 -4.7414 0
M  V30 1083 H 91.1653 -3.87115 -5.2439 0
M  V30 1084 N 94.5984 0.214957 -1.56127 0
M  V30 1085 C 95.5614 1.24997 -1.92116 0
M  V30 1086 C 96.5614 1.39467 -0.800344 0
M  V30 1087 O 97.7514 1.37619 -1.06802 0
M  V30 1088 C 94.8834 2.62271 -2.17777 0
M  V30 1089 H 96.0764 0.942875 -2.84693 0
M  V30 1090 H 93.6294 0.455654 -1.49511 0
M  V30 1091 H 94.3644 2.98068 -1.27773 0
M  V30 1092 H 94.1494 2.53143 -2.99434 0
M  V30 1093 H 95.6394 3.36946 -2.46693 0
M  V30 1094 N 96.0765 1.50051 0.48192 0
M  V30 1095 C 97.3225 1.60736 1.2366 0
M  V30 1096 C 97.6555 0.301786 1.91841 0
M  V30 1097 O 96.9305 -0.696025 1.8162 0
M  V30 1098 C 97.2135 2.78009 2.28874 0
M  V30 1099 C 97.0665 4.18416 1.65069 0
M  V30 1100 C 98.3855 2.90867 3.30279 0
M  V30 1101 H 95.5045 0.585031 0.448228 0
M  V30 1102 H 98.1465 1.82402 0.531946 0
M  V30 1103 H 96.2965 2.59667 2.88973 0
M  V30 1104 H 97.9685 4.48322 1.0865 0
M  V30 1105 H 96.2115 4.23177 0.954148 0
M  V30 1106 H 96.8825 4.96381 2.41474 0
M  V30 1107 H 99.3585 3.07623 2.80191 0
M  V30 1108 H 98.2345 3.74566 4.01238 0
M  V30 1109 H 98.4955 2.01021 3.93755 0
M  V30 1110 N 97.5546 -0.734337 1.39446 0
M  V30 1111 C 98.4646 -1.87879 1.40495 0
M  V30 1112 C 99.4806 -1.714 0.299672 0
M  V30 1113 O 100.657 -1.93991 0.541249 0
M  V30 1114 C 97.7216 -3.23477 1.24754 0
M  V30 1115 C 96.7826 -3.52344 2.45259 0
M  V30 1116 C 96.0156 -4.81473 2.30259 0
M  V30 1117 O 96.2386 -5.55237 1.30643 0
M  V30 1118 O 95.1726 -5.10254 3.19256 0
M  V30 1119 H 98.9986 -1.89949 2.36966 0
M  V30 1120 H 96.5836 -0.882243 1.20569 0
M  V30 1121 H 98.4656 -4.04509 1.18111 0
M  V30 1122 H 97.1406 -3.22176 0.313781 0
M  V30 1123 H 96.0476 -2.71396 2.57478 0
M  V30 1124 H 97.3806 -3.58426 3.37331 0
M  V30 1125 N 99.0327 -1.24633 -0.964593 0
M  V30 1126 C 99.9807 -1.03917 -2.08096 0
M  V30 1127 C 100.975 0.0268581 -1.69379 0
M  V30 1128 O 102.181 -0.127952 -1.79545 0
M  V30 1129 H 98.5557 -0.319044 -0.680966 0
M  V30 1130 H 100.527 -1.98581 -2.22729 0
M  V30 1131 C 99.2757 -0.663983 -3.41301 0
M  V30 1132 H 98.5987 -1.47605 -3.71555 0
M  V30 1133 H 100.039 -0.558663 -4.20303 0
M  V30 1134 C 98.4977 0.629169 -3.30973 0
M  V30 1135 O 99.0277 1.67404 -3.65156 0
M  V30 1136 N 97.2337 0.611057 -2.84103 0
M  V30 1137 H 96.7807 -0.239593 -2.56483 0
M  V30 1138 H 96.7387 1.47647 -2.77575 0
M  V30 1139 N 100.511 1.16574 -1.06058 0
M  V30 1140 C 101.757 1.87324 -0.777022 0
M  V30 1141 C 102.09 1.81351 0.694645 0
M  V30 1142 O 101.365 1.22753 1.50871 0
M  V30 1143 C 101.648 3.36991 -1.26922 0
M  V30 1144 C 101.501 3.51667 -2.80447 0
M  V30 1145 C 102.82 4.3131 -0.87521 0
M  V30 1146 H 99.9388 0.680191 -0.28374 0
M  V30 1147 H 102.581 1.37036 -1.3161 0
M  V30 1148 H 100.731 3.79949 -0.81063 0
M  V30 1149 H 102.403 3.17664 -3.34495 0
M  V30 1150 H 100.646 2.93656 -3.19294 0
M  V30 1151 H 101.317 4.56766 -3.0995 0
M  V30 1152 H 103.793 3.9624 -1.27014 0
M  V30 1153 H 102.669 5.34545 -1.2471 0
M  V30 1154 H 102.93 4.41552 0.220071 0
M  V30 1155 N 101.989 0.842826 1.3317 0
M  V30 1156 C 102.936 0.276885 2.29133 0
M  V30 1157 C 103.906 -0.609527 1.54512 0
M  V30 1158 O 105.091 -0.546955 1.82792 0
M  V30 1159 C 102.231 -0.538707 3.40869 0
M  V30 1160 C 101.344 0.372169 4.30394 0
M  V30 1161 C 100.479 -0.454908 5.29249 0
M  V30 1162 C 99.5179 0.45411 6.10413 0
M  V30 1163 N 98.6549 -0.335075 7.013 0
M  V30 1164 H 103.495 1.10052 2.76934 0
M  V30 1165 H 101.032 0.554161 1.36262 0
M  V30 1166 H 102.99 -1.02709 4.0436 0
M  V30 1167 H 101.62 -1.32727 2.9425 0
M  V30 1168 H 100.672 0.97888 3.6759 0
M  V30 1169 H 101.984 1.0703 4.87182 0
M  V30 1170 H 101.138 -1.00695 5.98285 0
M  V30 1171 H 99.8769 -1.18646 4.73048 0
M  V30 1172 H 98.8819 1.01813 5.40291 0
M  V30 1173 H 100.107 1.18409 6.68697 0
M  V30 1174 H 98.0529 -1.04994 6.47543 0
M  V30 1175 H 97.9699 0.304262 7.55387 0
M  V30 1176 H 99.2379 -0.869224 7.74638 0
M  V30 1177 N 103.467 -1.45747 0.599634 0
M  V30 1178 C 104.878 -1.85853 0.177681 0
M  V30 1179 C 105.229 -1.50102 -1.26348 0
M  V30 1180 O 104.354 -0.923905 -1.95686 0
M  V30 1181 C 104.949 -3.37326 0.315688 0
M  V30 1182 C 103.508 -3.76365 -0.0515144 0
M  V30 1183 C 102.655 -2.69722 0.643822 0
M  V30 1184 H 105.606 -1.36661 0.806814 0
M  V30 1185 H 105.627 -3.77778 -0.454321 0
M  V30 1186 H 105.139 -3.63315 1.36468 0
M  V30 1187 H 103.24 -3.55993 -1.09999 0
M  V30 1188 H 103.353 -4.77916 0.336594 0
M  V30 1189 H 101.717 -2.54567 0.0822881 0
M  V30 1190 H 102.5 -2.98549 1.6948 0
M  V30 1191 N 104.945 -0.338344 -1.53925 0
M  V30 1192 C 106.361 0.0137736 -1.59594 0
M  V30 1193 C 106.561 1.49186 -1.35447 0
M  V30 1194 O 105.617 2.24987 -1.14616 0
M  V30 1195 C 106.93 -0.41773 -2.97784 0
M  V30 1196 C 108.478 -0.369633 -3.1081 0
M  V30 1197 C 108.953 -0.776524 -4.51369 0
M  V30 1198 N 110.444 -0.730506 -4.57403 0
M  V30 1199 C 111.179 -1.01736 -5.64303 0
M  V30 1200 N 110.675 -1.3721 -6.79077 0
M  V30 1201 N 112.468 -0.941942 -5.54151 0
M  V30 1202 H 104.619 -1.3012 -1.67876 0
M  V30 1203 H 106.882 -0.530082 -0.78595 0
M  V30 1204 H 106.588 -1.44811 -3.20504 0
M  V30 1205 H 106.462 0.209729 -3.76616 0
M  V30 1206 H 108.849 0.651568 -2.87817 0
M  V30 1207 H 108.93 -1.03223 -2.34049 0
M  V30 1208 H 108.574 -1.79571 -4.75096 0
M  V30 1209 H 108.504 -0.0914649 -5.26521 0
M  V30 1210 H 110.995 -0.468783 -3.74981 0
M  V30 1211 H 111.308 -1.57597 -7.5656 0
M  V30 1212 H 109.653 -1.4105 -6.80536 0
M  V30 1213 H 112.844 -0.664184 -4.63364 0
M  V30 1214 H 113.017 -1.16884 -6.37371 0
M  V30 1215 N 106.423 1.57458 -0.0668435 0
M  V30 1216 C 107.356 2.08033 0.93795 0
M  V30 1217 C 108.334 0.984321 1.29421 0
M  V30 1218 O 109.518 1.25736 1.40437 0
M  V30 1219 C 106.645 2.53388 2.24749 0
M  V30 1220 C 105.691 3.74376 2.04315 0
M  V30 1221 S 106.524 5.19303 1.30706 0
M  V30 1222 C 107.68 5.67986 2.62951 0
M  V30 1223 H 107.913 2.92935 0.50759 0
M  V30 1224 H 105.446 1.5371 0.145804 0
M  V30 1225 H 107.404 2.8018 3.00016 0
M  V30 1226 H 106.065 1.68763 2.64911 0
M  V30 1227 H 105.258 4.04083 3.01218 0
M  V30 1228 H 104.86 3.47931 1.37186 0
M  V30 1229 H 107.152 5.74528 3.5906 0
M  V30 1230 H 108.095 6.66955 2.3786 0
M  V30 1231 H 108.503 4.95781 2.69929 0
M  V30 1232 N 107.901 -0.206675 1.56239 0
M  V30 1233 C 108.811 -1.27686 1.96808 0
M  V30 1234 C 109.827 -1.50455 0.874035 0
M  V30 1235 O 111.003 -1.63295 1.17884 0
M  V30 1236 C 108.068 -2.60358 2.28942 0
M  V30 1237 C 107.129 -2.45762 3.51994 0
M  V30 1238 C 106.362 -3.72108 3.82585 0
M  V30 1239 O 106.585 -4.75776 3.14631 0
M  V30 1240 O 105.519 -3.6833 4.76043 0
M  V30 1241 H 109.345 -0.962593 2.88041 0
M  V30 1242 H 106.93 -0.410746 1.43643 0
M  V30 1243 H 108.812 -3.38687 2.50737 0
M  V30 1244 H 107.487 -2.91435 1.4088 0
M  V30 1245 H 106.394 -1.65584 3.35459 0
M  V30 1246 H 107.727 -2.19621 4.40486 0
M  V30 1247 N 109.379 -1.50304 -0.473955 0
M  V30 1248 C 110.625 -1.61389 -1.22806 0
M  V30 1249 C 110.958 -0.311955 -1.91678 0
M  V30 1250 O 110.233 0.686384 -1.81986 0
M  V30 1251 C 110.516 -2.79219 -2.27396 0
M  V30 1252 C 110.369 -4.19286 -1.62848 0
M  V30 1253 C 111.688 -2.92614 -3.28732 0
M  V30 1254 H 108.807 -0.587399 -0.445119 0
M  V30 1255 H 111.449 -1.82681 -0.522265 0
M  V30 1256 H 109.599 -2.61195 -2.87592 0
M  V30 1257 H 111.271 -4.48892 -1.06271 0
M  V30 1258 H 109.514 -4.23677 -0.931693 0
M  V30 1259 H 110.185 -4.97655 -2.38838 0
M  V30 1260 H 112.661 -3.09105 -2.78556 0
M  V30 1261 H 111.537 -3.76688 -3.99246 0
M  V30 1262 H 111.798 -2.03107 -3.92683 0
M  V30 1263 N 110.857 0.726932 -1.39834 0
M  V30 1264 C 112.273 1.03354 -1.21615 0
M  V30 1265 C 112.473 2.01327 -0.08338 0
M  V30 1266 O 111.529 2.46158 0.56238 0
M  V30 1267 C 112.842 1.58811 -2.55342 0
M  V30 1268 C 114.39 1.70851 -2.62257 0
M  V30 1269 C 114.865 2.29716 -3.96225 0
M  V30 1270 N 116.356 2.37116 -3.97907 0
M  V30 1271 C 117.091 2.83619 -4.98345 0
M  V30 1272 N 116.587 3.29958 -6.09179 0
M  V30 1273 N 118.38 2.82901 -4.8572 0
M  V30 1274 H 110.531 0.0773069 -2.12259 0
M  V30 1275 H 112.794 0.0969102 -0.943034 0
M  V30 1276 H 112.5 0.942855 -3.38826 0
M  V30 1277 H 112.374 2.57502 -2.75632 0
M  V30 1278 H 114.761 2.34497 -1.79152 0
M  V30 1279 H 114.842 0.707913 -2.45809 0
M  V30 1280 H 114.486 1.66696 -4.79765 0
M  V30 1281 H 114.416 3.30469 -4.09997 0
M  V30 1282 H 116.907 2.04374 -3.17868 0
M  V30 1283 H 117.22 3.63976 -6.8172 0
M  V30 1284 H 115.565 3.27946 -6.12761 0
M  V30 1285 H 118.756 2.46027 -3.98231 0
M  V30 1286 H 118.929 3.18827 -5.6414 0
M  V30 1287 N 112.336 1.25143 0.95797 0
M  V30 1288 C 113.561 1.12521 1.74223 0
M  V30 1289 C 113.986 -0.317402 1.85403 0
M  V30 1290 O 113.344 -1.2299 1.33204 0
M  V30 1291 C 113.392 1.78062 3.1357 0
M  V30 1292 O 112.496 1.058 3.98598 0
M  V30 1293 H 111.837 0.39304 0.535178 0
M  V30 1294 H 114.367 1.65641 1.201 0
M  V30 1295 H 114.377 1.84213 3.64046 0
M  V30 1296 H 113.052 2.83021 3.04749 0
M  V30 1297 H 111.629 1.07506 3.57067 0
M  V30 1298 N 113.814 -1.1601 1.06675 0
M  V30 1299 C 115.23 -1.38622 0.790948 0
M  V30 1300 C 115.43 -1.92109 -0.607965 0
M  V30 1301 O 114.486 -2.12239 -1.36787 0
M  V30 1302 C 115.799 -2.36347 1.85905 0
M  V30 1303 C 117.347 -2.50023 1.88301 0
M  V30 1304 C 117.822 -3.51033 2.94176 0
M  V30 1305 N 119.313 -3.58563 2.93235 0
M  V30 1306 C 120.048 -4.36521 3.71803 0
M  V30 1307 N 119.544 -5.17869 4.602 0
M  V30 1308 N 121.337 -4.31541 3.60178 0
M  V30 1309 H 113.488 -0.796294 1.96908 0
M  V30 1310 H 115.751 -0.412597 0.853503 0
M  V30 1311 H 115.457 -2.04147 2.86386 0
M  V30 1312 H 115.331 -3.36042 1.71334 0
M  V30 1313 H 117.718 -2.81524 0.884769 0
M  V30 1314 H 117.799 -1.5035 2.06951 0
M  V30 1315 H 117.443 -3.20268 3.94196 0
M  V30 1316 H 117.373 -4.50445 2.72776 0
M  V30 1317 H 119.864 -3.00496 2.29152 0
M  V30 1318 H 120.177 -5.74578 5.16797 0
M  V30 1319 H 118.522 -5.17199 4.64253 0
M  V30 1320 H 121.713 -3.67051 2.90502 0
M  V30 1321 H 121.886 -4.9205 4.21653 0
M  V30 1322 N 115.292 -0.849877 -1.32721 0
M  V30 1323 C 116.708 -0.539102 -1.50219 0
M  V30 1324 C 116.908 0.931271 -1.78689 0
M  V30 1325 O 115.964 1.71455 -1.85363 0
M  V30 1326 C 117.277 -1.42196 -2.64954 0
M  V30 1327 C 118.825 -1.42189 -2.78839 0
M  V30 1328 C 119.3 -2.28985 -3.96648 0
M  V30 1329 N 120.791 -2.26754 -4.03902 0
M  V30 1330 C 121.526 -2.90644 -4.94281 0
M  V30 1331 N 121.022 -3.63629 -5.897 0
M  V30 1332 N 122.815 -2.80057 -4.87365 0
M  V30 1333 H 114.966 -1.80156 -1.12506 0
M  V30 1334 H 117.229 -0.769217 -0.554085 0
M  V30 1335 H 116.935 -2.46733 -2.50631 0
M  V30 1336 H 116.809 -1.10591 -3.60624 0
M  V30 1337 H 119.196 -0.38419 -2.92588 0
M  V30 1338 H 119.277 -1.77807 -1.83898 0
M  V30 1339 H 118.921 -3.32819 -3.83658 0
M  V30 1340 H 118.851 -1.90702 -4.90857 0
M  V30 1341 H 121.342 -1.73688 -3.3562 0
M  V30 1342 H 121.655 -4.09558 -6.55349 0
M  V30 1343 H 120 -3.67737 -5.89741 0
M  V30 1344 H 123.191 -2.22593 -4.11789 0
M  V30 1345 H 123.364 -3.30132 -5.57599 0
M  V30 1346 N 116.77 1.45427 -0.607355 0
M  V30 1347 C 118.016 2.0254 -0.102607 0
M  V30 1348 C 118.349 1.47478 1.26348 0
M  V30 1349 O 117.624 0.64939 1.83339 0
M  V30 1350 C 117.907 3.60044 -0.0634347 0
M  V30 1351 C 117.76 4.2544 -1.46017 0
M  V30 1352 C 119.079 4.35646 0.624514 0
M  V30 1353 H 116.198 0.73598 -0.0387607 0
M  V30 1354 H 118.84 1.73284 -0.779282 0
M  V30 1355 H 116.99 3.85101 0.512808 0
M  V30 1356 H 118.662 4.11569 -2.08347 0
M  V30 1357 H 116.905 3.83849 -2.02094 0
M  V30 1358 H 117.576 5.34342 -1.385 0
M  V30 1359 H 120.052 4.15882 0.134723 0
M  V30 1360 H 118.928 5.45376 0.621028 0
M  V30 1361 H 119.189 4.08501 1.69055 0
M  V30 1362 N 118.248 0.346503 1.53744 0
M  V30 1363 C 119.496 -0.248612 2.00565 0
M  V30 1364 C 119.817 -1.5083 1.23593 0
M  V30 1365 O 119.087 -1.92858 0.343912 0
M  V30 1366 H 117.667 -0.0948564 0.740953 0
M  V30 1367 H 120.329 0.468341 1.89189 0
M  V30 1368 H 119.425 -0.488994 3.08245 0
M  V30 1369 N 119.726 -1.57421 0.075193 0
M  V30 1370 C 120.974 -1.93236 -0.591974 0
M  V30 1371 C 121.295 -0.956241 -1.69944 0
M  V30 1372 O 120.565 -0.00494792 -1.95899 0
M  V30 1373 H 119.145 -0.713355 -0.22166 0
M  V30 1374 H 121.807 -1.9444 0.133848 0
M  V30 1375 H 120.903 -2.95131 -1.01509 0
M  V30 1376 N 121.204 0.198386 -1.56346 0
M  V30 1377 C 122.167 1.22952 -1.93431 0
M  V30 1378 C 123.167 1.38611 -0.815092 0
M  V30 1379 O 124.357 1.36479 -1.08255 0
M  V30 1380 C 121.489 2.59946 -2.20546 0
M  V30 1381 H 122.682 0.912626 -2.85677 0
M  V30 1382 H 120.235 0.43977 -1.49986 0
M  V30 1383 H 120.97 2.96696 -1.30927 0
M  V30 1384 H 120.755 2.49953 -3.02102 0
M  V30 1385 H 122.245 3.3431 -2.50253 0
M  V30 1386 N 122.682 1.50554 0.465978 0
M  V30 1387 C 123.63 1.70324 1.58406 0
M  V30 1388 C 124.624 0.569139 1.59553 0
M  V30 1389 O 125.83 0.749776 1.63641 0
M  V30 1390 H 122.205 0.537688 0.525734 0
M  V30 1391 H 124.176 2.64104 1.38894 0
M  V30 1392 C 122.925 1.81928 2.96307 0
M  V30 1393 H 122.248 2.68586 2.96144 0
M  V30 1394 H 123.688 1.99784 3.73982 0
M  V30 1395 C 122.147 0.572095 3.32007 0
M  V30 1396 O 122.677 -0.286416 4.00678 0
M  V30 1397 N 120.883 0.424606 2.87481 0
M  V30 1398 H 120.43 1.12427 2.31771 0
M  V30 1399 H 120.388 -0.408697 3.11732 0
M  V30 1400 N 124.16 -0.719506 1.40217 0
M  V30 1401 C 125.39 -1.50646 1.41384 0
M  V30 1402 C 125.798 -1.89197 0.0107743 0
M  V30 1403 O 125.141 -1.55709 -0.974708 0
M  V30 1404 C 125.203 -2.81405 2.23722 0
M  V30 1405 C 124.867 -2.65199 3.72181 0
M  V30 1406 C 125.864 -2.32717 4.64907 0
M  V30 1407 C 123.549 -2.81586 4.1595 0
M  V30 1408 C 125.543 -2.16827 5.99387 0
M  V30 1409 C 123.23 -2.65313 5.50502 0
M  V30 1410 C 124.228 -2.32981 6.42035 0
M  V30 1411 O 123.916 -2.16827 7.74107 0
M  V30 1412 H 123.648 -0.471606 0.484318 0
M  V30 1413 H 126.202 -0.895456 1.84853 0
M  V30 1414 H 124.432 -3.44823 1.75026 0
M  V30 1415 H 126.121 -3.43102 2.16878 0
M  V30 1416 H 126.887 -2.19694 4.32388 0
M  V30 1417 H 122.766 -3.0574 3.45027 0
M  V30 1418 H 126.31 -1.91513 6.70797 0
M  V30 1419 H 122.207 -2.7792 5.82607 0
M  V30 1420 H 122.975 -2.31778 7.84998 0
M  V30 1421 N 125.638 -1.25649 -0.95132 0
M  V30 1422 C 126.57 -1.02112 -2.05197 0
M  V30 1423 C 127.583 0.0150571 -1.62793 0
M  V30 1424 O 128.772 -0.223874 -1.77091 0
M  V30 1425 C 125.872 -0.522361 -3.3485 0
M  V30 1426 C 125.045 -1.62546 -4.06076 0
M  V30 1427 C 124.104 -1.12649 -5.14001 0
M  V30 1428 O 123.13 -1.82156 -5.39266 0
M  V30 1429 N 124.332 0.03047 -5.80492 0
M  V30 1430 H 127.097 -1.96885 -2.25957 0
M  V30 1431 H 124.658 -1.16899 -1.1201 0
M  V30 1432 H 126.65 -0.172961 -4.0433 0
M  V30 1433 H 125.22 0.33151 -3.10837 0
M  V30 1434 H 124.44 -2.14628 -3.30649 0
M  V30 1435 H 125.728 -2.36644 -4.50419 0
M  V30 1436 H 125.126 0.611169 -5.62389 0
M  V30 1437 H 123.683 0.320875 -6.5101 0
M  V30 1438 N 127.117 1.15442 -1.07289 0
M  V30 1439 C 128.363 1.86489 -0.796846 0
M  V30 1440 C 128.696 1.82078 0.675371 0
M  V30 1441 O 127.971 1.24346 1.4956 0
M  V30 1442 C 128.254 3.35626 -1.30489 0
M  V30 1443 C 128.107 3.48673 -2.84161 0
M  V30 1444 C 129.426 4.30357 -0.920907 0
M  V30 1445 H 126.545 0.677144 -0.290939 0
M  V30 1446 H 129.187 1.35633 -1.33056 0
M  V30 1447 H 127.337 3.79068 -0.850883 0
M  V30 1448 H 129.009 3.14099 -3.37846 0
M  V30 1449 H 127.252 2.90253 -3.22391 0
M  V30 1450 H 127.923 4.53453 -3.14777 0
M  V30 1451 H 130.399 3.94871 -1.3121 0
M  V30 1452 H 129.275 5.33193 -1.30372 0
M  V30 1453 H 129.536 4.4176 0.173226 0
M  V30 1454 N 128.595 0.856903 1.32268 0
M  V30 1455 C 130.006 0.515711 1.79436 0
M  V30 1456 C 130.357 -0.966586 1.70738 0
M  V30 1457 O 129.482 -1.75409 1.26731 0
M  V30 1458 C 130.077 0.929335 3.25805 0
M  V30 1459 C 128.636 0.640006 3.70919 0
M  V30 1460 C 127.783 1.12784 2.53328 0
M  V30 1461 H 130.734 1.04389 1.19535 0
M  V30 1462 H 130.755 0.246633 3.797 0
M  V30 1463 H 130.267 2.00821 3.32103 0
M  V30 1464 H 128.368 -0.428051 3.70133 0
M  V30 1465 H 128.481 1.20788 4.63624 0
M  V30 1466 H 126.845 0.548033 2.48734 0
M  V30 1467 H 127.628 2.21387 2.62379 0
M  V30 1468 N 130.073 -1.45103 0.615059 0
M  V30 1469 C 131.006 -2.27717 -0.148408 0
M  V30 1470 C 131.984 -1.37584 -0.866572 0
M  V30 1471 O 133.168 -1.67017 -0.87393 0
M  V30 1472 C 130.295 -3.16136 -1.21557 0
M  V30 1473 C 129.341 -4.22263 -0.599712 0
M  V30 1474 S 130.174 -5.3215 0.598081 0
M  V30 1475 C 131.33 -6.24137 -0.469484 0
M  V30 1476 H 131.563 -2.92121 0.552483 0
M  V30 1477 H 129.096 -1.49054 0.402778 0
M  V30 1478 H 131.054 -3.67633 -1.82638 0
M  V30 1479 H 129.715 -2.50982 -1.88857 0
M  V30 1480 H 128.908 -4.84081 -1.4029 0
M  V30 1481 H 128.51 -3.73945 -0.063876 0
M  V30 1482 H 130.802 -6.63984 -1.34652 0
M  V30 1483 H 131.745 -7.0801 0.112725 0
M  V30 1484 H 132.153 -5.58971 -0.788168 0
M  V30 1485 N 131.551 -0.354651 -1.53558 0
M  V30 1486 C 132.461 0.50515 -2.29097 0
M  V30 1487 C 133.477 1.10223 -1.34636 0
M  V30 1488 O 134.653 1.11553 -1.67684 0
M  V30 1489 C 131.718 1.63479 -3.05738 0
M  V30 1490 C 130.779 1.06636 -4.15845 0
M  V30 1491 C 130.012 2.14217 -4.88822 0
M  V30 1492 O 130.235 3.35137 -4.61562 0
M  V30 1493 O 129.169 1.77887 -5.75013 0
M  V30 1494 H 132.995 -0.109237 -3.03503 0
M  V30 1495 H 130.58 -0.119357 -1.48922 0
M  V30 1496 H 132.462 2.2918 -3.5363 0
M  V30 1497 H 131.137 2.23478 -2.34178 0
M  V30 1498 H 130.044 0.373565 -3.7223 0
M  V30 1499 H 131.377 0.511081 -4.89539 0
M  V30 1500 N 133.029 1.57378 -0.0835403 0
M  V30 1501 C 134.275 1.94217 0.583733 0
M  V30 1502 C 134.608 0.964653 1.68547 0
M  V30 1503 O 133.883 -0.00422258 1.945 0
M  V30 1504 C 134.166 3.41253 1.14972 0
M  V30 1505 C 134.019 4.49768 0.0538277 0
M  V30 1506 C 135.338 3.89352 2.05166 0
M  V30 1507 H 132.457 0.706233 0.210724 0
M  V30 1508 H 135.099 1.89392 -0.1519 0
M  V30 1509 H 133.249 3.45496 1.77665 0
M  V30 1510 H 134.921 4.57641 -0.579851 0
M  V30 1511 H 133.164 4.29432 -0.614068 0
M  V30 1512 H 133.835 5.49817 0.490452 0
M  V30 1513 H 136.311 3.87189 1.52393 0
M  V30 1514 H 135.187 4.92822 2.41698 0
M  V30 1515 H 135.448 3.27973 2.96456 0
M  V30 1516 N 134.507 -0.190092 1.56449 0
M  V30 1517 C 135.732 -0.929864 1.85387 0
M  V30 1518 C 136.157 -1.7585 0.667704 0
M  V30 1519 O 135.515 -1.77198 -0.383459 0
M  V30 1520 C 135.563 -1.79773 3.12593 0
M  V30 1521 O 134.667 -2.89713 2.93496 0
M  V30 1522 H 134.008 -0.261574 0.610307 0
M  V30 1523 H 136.538 -0.193896 2.03679 0
M  V30 1524 H 136.548 -2.20139 3.43515 0
M  V30 1525 H 135.223 -1.18892 3.98544 0
M  V30 1526 H 133.8 -2.53065 2.73884 0
M  V30 1527 N 135.985 -1.50799 -0.457987 0
M  V30 1528 C 137.396 -1.55152 -1.0385 0
M  V30 1529 C 137.747 -0.362719 -1.92818 0
M  V30 1530 O 136.872 0.522915 -2.09987 0
M  V30 1531 C 137.467 -2.81173 -1.89017 0
M  V30 1532 C 136.026 -2.88164 -2.42154 0
M  V30 1533 C 135.173 -2.49591 -1.20829 0
M  V30 1534 H 138.124 -1.56874 -0.240068 0
M  V30 1535 H 138.145 -2.63769 -2.74238 0
M  V30 1536 H 137.657 -3.67677 -1.24238 0
M  V30 1537 H 135.758 -2.06042 -3.10447 0
M  V30 1538 H 135.871 -3.91356 -2.76364 0
M  V30 1539 H 134.235 -2.02322 -1.54719 0
M  V30 1540 H 135.018 -3.38418 -0.576927 0
M  V30 1541 N 137.463 0.71206 -1.40597 0
M  V30 1542 C 138.879 1.02058 -1.22704 0
M  V30 1543 C 139.079 2.01228 -0.104729 0
M  V30 1544 O 138.135 2.4674 0.53624 0
M  V30 1545 C 139.448 1.56094 -2.57012 0
M  V30 1546 C 140.996 1.6806 -2.64054 0
M  V30 1547 C 141.471 2.25501 -3.9864 0
M  V30 1548 N 142.962 2.32882 -4.004 0
M  V30 1549 C 143.697 2.78317 -5.01325 0
M  V30 1550 N 143.193 3.23478 -6.12645 0
M  V30 1551 N 144.986 2.77733 -4.88693 0
M  V30 1552 H 137.137 0.0547896 -2.12329 0
M  V30 1553 H 139.4 0.0869027 -0.944008 0
M  V30 1554 H 139.106 0.906865 -3.39807 0
M  V30 1555 H 138.98 2.54564 -2.78347 0
M  V30 1556 H 141.367 2.32583 -1.81629 0
M  V30 1557 H 141.448 0.681802 -2.46546 0
M  V30 1558 H 141.092 1.61598 -4.81506 0
M  V30 1559 H 141.022 3.26102 -4.13479 0
M  V30 1560 H 143.513 2.00991 -3.20017 0
M  V30 1561 H 143.826 3.56725 -6.85542 0
M  V30 1562 H 142.171 3.21429 -6.16205 0
M  V30 1563 H 145.362 2.4179 -4.00818 0
M  V30 1564 H 145.535 3.12826 -5.67489 0
M  V30 1565 N 138.941 1.26152 0.944643 0
M  V30 1566 C 140.357 1.03189 1.21754 0
M  V30 1567 C 140.557 -0.245112 2.00004 0
M  V30 1568 O 139.613 -0.955176 2.33736 0
M  V30 1569 C 140.926 2.26119 1.98219 0
M  V30 1570 C 142.474 2.30984 2.11224 0
M  V30 1571 C 142.949 3.53597 2.91089 0
M  V30 1572 N 144.44 3.54053 2.98664 0
M  V30 1573 C 145.175 4.45593 3.60881 0
M  V30 1574 N 144.671 5.47416 4.24626 0
M  V30 1575 N 146.464 4.33252 3.58119 0
M  V30 1576 H 138.615 2.08177 0.421437 0
M  V30 1577 H 140.878 0.914723 0.248969 0
M  V30 1578 H 140.584 3.18984 1.48128 0
M  V30 1579 H 140.458 2.3009 2.98895 0
M  V30 1580 H 142.845 1.38635 2.60508 0
M  V30 1581 H 142.926 2.31026 1.09821 0
M  V30 1582 H 142.57 4.46273 2.42493 0
M  V30 1583 H 142.5 3.50802 3.92741 0
M  V30 1584 H 144.991 2.80403 2.53343 0
M  V30 1585 H 145.304 6.13459 4.69987 0
M  V30 1586 H 143.649 5.51278 4.23223 0
M  V30 1587 H 146.84 3.52924 3.0751 0
M  V30 1588 H 147.013 5.04786 4.06319 0
M  V30 1589 N 140.419 -1.14872 1.07899 0
M  V30 1590 C 141.351 -2.19425 0.662231 0
M  V30 1591 C 142.364 -1.60231 -0.288079 0
M  V30 1592 O 143.553 -1.78336 -0.076534 0
M  V30 1593 C 140.653 -3.38867 -0.0470695 0
M  V30 1594 C 139.826 -4.27597 0.920831 0
M  V30 1595 C 138.885 -5.25616 0.247805 0
M  V30 1596 O 137.911 -5.62189 0.890599 0
M  V30 1597 N 139.113 -5.71746 -1.00435 0
M  V30 1598 H 141.878 -2.55797 1.56166 0
M  V30 1599 H 139.439 -1.30042 0.964404 0
M  V30 1600 H 141.431 -4.01497 -0.50813 0
M  V30 1601 H 140.001 -3.00864 -0.848523 0
M  V30 1602 H 139.221 -3.61982 1.56087 0
M  V30 1603 H 140.509 -4.83748 1.57688 0
M  V30 1604 H 139.907 -5.44153 -1.54642 0
M  V30 1605 H 138.464 -6.36389 -1.40899 0
M  V30 1606 N 141.898 -0.863906 -1.31812 0
M  V30 1607 C 142.83 -0.272485 -2.27575 0
M  V30 1608 C 143.843 0.56104 -1.52827 0
M  V30 1609 O 145.032 0.384021 -1.7432 0
M  V30 1610 C 142.132 0.63283 -3.32939 0
M  V30 1611 C 141.305 -0.166902 -4.37081 0
M  V30 1612 C 140.364 0.665608 -5.21973 0
M  V30 1613 O 139.39 0.0958091 -5.69119 0
M  V30 1614 N 140.592 1.9787 -5.45736 0
M  V30 1615 H 143.357 -1.0954 -2.78964 0
M  V30 1616 H 140.918 -0.724791 -1.4477 0
M  V30 1617 H 142.91 1.19532 -3.86645 0
M  V30 1618 H 141.48 1.35642 -2.81638 0
M  V30 1619 H 140.7 -0.910838 -3.83533 0
M  V30 1620 H 141.988 -0.715874 -5.03739 0
M  V30 1621 H 141.386 2.46484 -5.09178 0
M  V30 1622 H 139.943 2.48911 -6.024 0
M  V30 1623 N 143.376 1.44774 -0.622745 0
M  V30 1624 C 144.601 2.06999 -0.128968 0
M  V30 1625 C 145.026 1.4617 1.1839 0
M  V30 1626 O 144.384 0.560007 1.72434 0
M  V30 1627 C 144.432 3.60595 -0.0188351 0
M  V30 1628 O 143.536 3.99398 1.02739 0
M  V30 1629 H 142.877 0.659047 -0.0809544 0
M  V30 1630 H 145.407 1.85784 -0.85705 0
M  V30 1631 H 145.417 4.07627 0.174476 0
M  V30 1632 H 144.092 4.04252 -0.977384 0
M  V30 1633 H 142.669 3.64011 0.809326 0
M  V30 1634 N 144.854 0.36279 1.53368 0
M  V30 1635 C 145.784 -0.476976 2.28576 0
M  V30 1636 C 146.765 -1.08631 1.30894 0
M  V30 1637 O 147.95 -1.10409 1.59761 0
M  V30 1638 C 145.08 -1.61828 3.07293 0
M  V30 1639 C 144.034 -1.13633 4.1264 0
M  V30 1640 C 143.36 -2.36766 4.79423 0
M  V30 1641 C 144.66 -0.223061 5.21823 0
M  V30 1642 H 146.354 0.150474 2.99022 0
M  V30 1643 H 143.9 0.0738103 1.43811 0
M  V30 1644 H 145.853 -2.21237 3.58653 0
M  V30 1645 H 144.577 -2.27292 2.34533 0
M  V30 1646 H 143.236 -0.564945 3.62221 0
M  V30 1647 H 142.884 -3.0068 4.03238 0
M  V30 1648 H 142.584 -2.05192 5.50609 0
M  V30 1649 H 144.108 -2.96865 5.33576 0
M  V30 1650 H 145.522 -0.724545 5.68703 0
M  V30 1651 H 143.919 0.001678 6.001 0
M  V30 1652 H 144.989 0.735553 4.79289 0
M  V30 1653 N 146.332 -1.57332 0.0918853 0
M  V30 1654 C 147.295 -2.12708 -0.85369 0
M  V30 1655 C 148.295 -1.05561 -1.213 0
M  V30 1656 O 149.485 -1.31461 -1.14296 0
M  V30 1657 C 146.617 -2.64503 -2.15061 0
M  V30 1658 H 147.81 -2.97573 -0.3729 0
M  V30 1659 H 145.363 -1.55509 -0.157072 0
M  V30 1660 H 146.098 -1.83149 -2.67632 0
M  V30 1661 H 145.883 -3.4284 -1.90272 0
M  V30 1662 H 147.373 -3.07351 -2.82711 0
M  V30 1663 N 147.81 0.181792 -1.56548 0
M  V30 1664 C 148.74 1.22765 -1.98623 0
M  V30 1665 C 149.721 1.46747 -0.860189 0
M  V30 1666 O 150.906 1.58259 -1.12551 0
M  V30 1667 C 148.036 2.56894 -2.33715 0
M  V30 1668 C 146.99 2.475 -3.49182 0
M  V30 1669 C 146.316 3.86023 -3.69986 0
M  V30 1670 C 147.616 1.98866 -4.82959 0
M  V30 1671 H 149.31 0.877942 -2.86239 0
M  V30 1672 H 146.856 0.42088 -1.37712 0
M  V30 1673 H 148.809 3.30253 -2.61746 0
M  V30 1674 H 147.533 2.93632 -1.42997 0
M  V30 1675 H 146.192 1.76596 -3.21262 0
M  V30 1676 H 145.84 4.20136 -2.76576 0
M  V30 1677 H 145.54 3.80609 -4.47672 0
M  V30 1678 H 147.064 4.60984 -4.00407 0
M  V30 1679 H 148.478 2.61992 -5.09934 0
M  V30 1680 H 146.875 2.04424 -5.64208 0
M  V30 1681 H 147.945 0.942465 -4.75653 0
M  V30 1682 N 149.288 1.51039 0.449983 0
M  V30 1683 C 150.704 1.38934 0.785462 0
M  V30 1684 C 150.904 0.461817 1.96136 0
M  V30 1685 O 149.96 -0.0877389 2.52348 0
M  V30 1686 C 151.273 2.80724 1.0777 0
M  V30 1687 C 152.821 2.89787 1.1829 0
M  V30 1688 C 153.296 4.32457 1.50815 0
M  V30 1689 N 154.787 4.35505 1.57764 0
M  V30 1690 C 155.522 5.42914 1.84477 0
M  V30 1691 N 155.018 6.60502 2.09068 0
M  V30 1692 N 156.811 5.3038 1.86155 0
M  V30 1693 H 148.962 2.09904 -0.324647 0
M  V30 1694 H 151.225 0.944378 -0.0827957 0
M  V30 1695 H 150.931 3.50531 0.286498 0
M  V30 1696 H 150.805 3.19273 2.00859 0
M  V30 1697 H 153.192 2.20186 1.96474 0
M  V30 1698 H 153.273 2.54752 0.231314 0
M  V30 1699 H 152.917 5.02603 0.731622 0
M  V30 1700 H 152.847 4.64995 2.47158 0
M  V30 1701 H 155.338 3.50724 1.40715 0
M  V30 1702 H 155.651 7.38158 2.28785 0
M  V30 1703 H 153.996 6.63639 2.06416 0
M  V30 1704 H 157.187 4.37505 1.66454 0
M  V30 1705 H 157.36 6.1417 2.06637 0
M  V30 1706 N 150.766 -0.704594 1.40972 0
M  V30 1707 C 152.012 -1.46546 1.41053 0
M  V30 1708 C 152.367 -1.92393 0.0159714 0
M  V30 1709 O 151.66 -1.66017 -0.956506 0
M  V30 1710 C 151.854 -2.698 2.34399 0
M  V30 1711 C 151.683 -2.36008 3.82793 0
M  V30 1712 C 150.453 -2.26812 4.51536 0
M  V30 1713 C 152.651 -1.99565 4.74003 0
M  V30 1714 N 150.633 -1.8581 5.85105 0
M  V30 1715 C 152.004 -1.69251 5.96451 0
M  V30 1716 C 154.059 -1.86296 4.61734 0
M  V30 1717 C 152.762 -1.27003 7.07999 0
M  V30 1718 C 154.788 -1.45452 5.73234 0
M  V30 1719 C 154.15 -1.16043 6.94776 0
M  V30 1720 H 150.249 -0.533896 0.571383 0
M  V30 1721 H 152.833 -0.816061 1.76773 0
M  V30 1722 H 151.004 -3.32473 2.00789 0
M  V30 1723 H 152.736 -3.36214 2.25261 0
M  V30 1724 H 149.491 -2.44913 4.05357 0
M  V30 1725 H 149.915 -1.67817 6.55871 0
M  V30 1726 H 154.557 -2.0769 3.68273 0
M  V30 1727 H 152.275 -1.04353 8.01334 0
M  V30 1728 H 155.861 -1.35748 5.65742 0
M  V30 1729 H 154.741 -0.84915 7.79589 0
M  V30 1730 N 152.244 -1.26651 -0.937939 0
M  V30 1731 C 153.174 -1.10993 -2.05433 0
M  V30 1732 C 154.155 -0.0142161 -1.70094 0
M  V30 1733 O 155.34 -0.186837 -1.93299 0
M  V30 1734 C 152.47 -0.745561 -3.39203 0
M  V30 1735 C 151.424 -1.79337 -3.88616 0
M  V30 1736 C 150.75 -1.28324 -5.19073 0
M  V30 1737 C 152.05 -3.19553 -4.13138 0
M  V30 1738 H 153.744 -2.0438 -2.1879 0
M  V30 1739 H 151.29 -0.984041 -1.05131 0
M  V30 1740 H 153.243 -0.622888 -4.16771 0
M  V30 1741 H 151.967 0.22401 -3.25831 0
M  V30 1742 H 150.626 -1.90477 -3.13231 0
M  V30 1743 H 150.274 -0.303414 -5.02084 0
M  V30 1744 H 149.974 -1.98369 -5.53103 0
M  V30 1745 H 151.498 -1.1733 -5.99221 0
M  V30 1746 H 152.912 -3.11471 -4.81309 0
M  V30 1747 H 151.309 -3.87218 -4.58457 0
M  V30 1748 H 152.379 -3.65368 -3.18801 0
M  V30 1749 N 153.722 1.14298 -1.08507 0
M  V30 1750 C 154.968 1.85633 -0.816581 0
M  V30 1751 C 155.301 1.82784 0.656021 0
M  V30 1752 O 154.576 1.25926 1.48233 0
M  V30 1753 C 154.859 3.34223 -1.34041 0
M  V30 1754 C 154.712 3.45639 -2.87843 0
M  V30 1755 C 156.031 4.29356 -0.9665 0
M  V30 1756 H 153.15 0.67402 -0.298104 0
M  V30 1757 H 155.792 1.34214 -1.34487 0
M  V30 1758 H 153.942 3.78144 -0.89104 0
M  V30 1759 H 155.614 3.10498 -3.41158 0
M  V30 1760 H 153.857 2.86817 -3.25451 0
M  V30 1761 H 154.528 4.50089 -3.19569 0
M  V30 1762 H 157.004 3.93457 -1.35391 0
M  V30 1763 H 155.88 5.3178 -1.3602 0
M  V30 1764 H 156.141 4.41919 0.126362 0
M  V30 1765 N 155.201 0.870884 1.31352 0
M  V30 1766 C 156.133 0.28455 2.27427 0
M  V30 1767 C 157.146 -0.552927 1.53123 0
M  V30 1768 O 158.335 -0.374771 1.74521 0
M  V30 1769 C 155.435 -0.615164 3.3327 0
M  V30 1770 C 154.608 0.190079 4.36987 0
M  V30 1771 C 153.667 -0.637917 5.22319 0
M  V30 1772 O 152.693 -0.065626 5.69162 0
M  V30 1773 N 153.895 -1.94973 5.46778 0
M  V30 1774 H 156.66 1.11017 2.7838 0
M  V30 1775 H 154.221 0.732458 1.44384 0
M  V30 1776 H 156.213 -1.1748 3.87273 0
M  V30 1777 H 154.783 -1.34146 2.82354 0
M  V30 1778 H 154.003 0.931165 3.83044 0
M  V30 1779 H 155.291 0.742579 5.03352 0
M  V30 1780 H 154.689 -2.4378 5.10478 0
M  V30 1781 H 153.246 -2.45713 6.03712 0
M  V30 1782 N 156.679 -1.44442 0.630414 0
M  V30 1783 C 157.642 -2.29107 -0.0652523 0
M  V30 1784 C 158.642 -1.41002 -0.772995 0
M  V30 1785 O 159.832 -1.62881 -0.617692 0
M  V30 1786 C 156.964 -3.22564 -1.10296 0
M  V30 1787 H 158.157 -2.92103 0.679401 0
M  V30 1788 H 155.71 -1.51343 0.390517 0
M  V30 1789 H 156.445 -2.64416 -1.87762 0
M  V30 1790 H 156.23 -3.87491 -0.59941 0
M  V30 1791 H 157.72 -3.86167 -1.5895 0
M  V30 1792 N 158.157 -0.370918 -1.53173 0
M  V30 1793 C 159.12 0.460778 -2.24521 0
M  V30 1794 C 160.12 1.00536 -1.25496 0
M  V30 1795 O 161.31 0.890266 -1.49733 0
M  V30 1796 C 158.442 1.64457 -2.98608 0
M  V30 1797 H 159.635 -0.163613 -2.99453 0
M  V30 1798 H 157.188 -0.122699 -1.55818 0
M  V30 1799 H 157.923 2.30691 -2.2793 0
M  V30 1800 H 157.708 1.26099 -3.7127 0
M  V30 1801 H 159.198 2.23384 -3.5283 0
M  V30 1802 N 159.635 1.57281 -0.100228 0
M  V30 1803 C 160.583 2.15542 0.874328 0
M  V30 1804 C 161.577 1.09962 1.28859 0
M  V30 1805 O 162.783 1.28298 1.26252 0
M  V30 1806 H 159.158 0.689567 0.300003 0
M  V30 1807 H 161.129 2.96241 0.35829 0
M  V30 1808 C 159.878 2.75454 2.1218 0
M  V30 1809 H 159.201 3.56384 1.81193 0
M  V30 1810 H 160.641 3.19781 2.78417 0
M  V30 1811 C 159.1 1.71602 2.89921 0
M  V30 1812 O 159.63 1.15804 3.84646 0
M  V30 1813 N 157.836 1.41975 2.53558 0
M  V30 1814 H 157.383 1.87539 1.76598 0
M  V30 1815 H 157.341 0.727274 3.05873 0
M  V30 1816 N 161.113 -0.173488 1.56642 0
M  V30 1817 C 162.045 -1.23935 1.92802 0
M  V30 1818 C 163.058 -1.40589 0.820889 0
M  V30 1819 O 164.247 -1.40631 1.09933 0
M  V30 1820 C 161.347 -2.60837 2.16373 0
M  V30 1821 C 160.52 -2.6551 3.47596 0
M  V30 1822 C 159.579 -3.8376 3.60021 0
M  V30 1823 O 158.605 -3.69859 4.32658 0
M  V30 1824 N 159.807 -5.00127 2.94709 0
M  V30 1825 H 162.572 -0.932236 2.84832 0
M  V30 1826 H 160.133 -0.363268 1.57772 0
M  V30 1827 H 162.125 -3.38407 2.21952 0
M  V30 1828 H 160.695 -2.83948 1.30738 0
M  V30 1829 H 159.915 -1.74052 3.53694 0
M  V30 1830 H 161.203 -2.65641 4.33949 0
M  V30 1831 H 160.601 -5.14322 2.35563 0
M  V30 1832 H 159.158 -5.75567 3.05886 0
M  V30 1833 N 162.591 -1.51276 -0.441967 0
M  V30 1834 C 164.007 -1.39349 -0.778083 0
M  V30 1835 C 164.207 -0.472212 -1.95889 0
M  V30 1836 O 163.263 0.0743551 -2.5239 0
M  V30 1837 C 164.576 -2.81292 -1.0628 0
M  V30 1838 C 166.124 -2.9041 -1.16751 0
M  V30 1839 C 166.599 -4.33251 -1.48519 0
M  V30 1840 N 168.09 -4.36336 -1.55453 0
M  V30 1841 C 168.825 -5.43885 -1.81596 0
M  V30 1842 N 168.321 -6.61601 -2.05562 0
M  V30 1843 N 170.114 -5.3136 -1.8334 0
M  V30 1844 H 162.265 -2.09729 0.335774 0
M  V30 1845 H 164.528 -0.943925 0.0878028 0
M  V30 1846 H 164.234 -3.50678 -0.267905 0
M  V30 1847 H 164.108 -3.20334 -1.99163 0
M  V30 1848 H 166.495 -2.21225 -1.95304 0
M  V30 1849 H 166.576 -2.54871 -0.217801 0
M  V30 1850 H 166.22 -5.02984 -0.704958 0
M  V30 1851 H 166.15 -4.66299 -2.44689 0
M  V30 1852 H 168.641 -3.51466 -1.38853 0
M  V30 1853 H 168.954 -7.39361 -2.24867 0
M  V30 1854 H 167.299 -6.64725 -2.02894 0
M  V30 1855 H 170.49 -4.38382 -1.64132 0
M  V30 1856 H 170.663 -6.15258 -2.03377 0
M  V30 1857 N 164.069 0.697108 -1.41344 0
M  V30 1858 C 165.48 1.27697 -1.36199 0
M  V30 1859 C 165.831 1.9615 -0.0443463 0
M  V30 1860 O 164.956 1.98689 0.857419 0
M  V30 1861 C 165.551 2.32223 -2.46694 0
M  V30 1862 C 164.11 2.8579 -2.44952 0
M  V30 1863 C 163.257 1.59807 -2.26621 0
M  V30 1864 H 166.208 0.491968 -1.50882 0
M  V30 1865 H 166.229 3.1348 -2.15664 0
M  V30 1866 H 165.741 1.82373 -3.42581 0
M  V30 1867 H 163.842 3.3982 -1.52817 0
M  V30 1868 H 163.955 3.36325 -3.41207 0
M  V30 1869 H 162.319 1.8556 -1.7447 0
M  V30 1870 H 163.102 1.11956 -3.24532 0
M  V30 1871 N 165.547 1.27147 0.931209 0
M  V30 1872 C 166.457 1.11372 2.06478 0
M  V30 1873 C 167.473 0.044645 1.73943 0
M  V30 1874 O 168.649 0.250417 1.99837 0
M  V30 1875 C 165.714 0.758838 3.38294 0
M  V30 1876 C 164.775 1.90841 3.84549 0
M  V30 1877 C 164.008 1.57036 5.10074 0
M  V30 1878 O 164.231 0.476645 5.68405 0
M  V30 1879 O 163.165 2.40839 5.51616 0
M  V30 1880 H 166.991 2.06493 2.22698 0
M  V30 1881 H 164.576 1.06301 1.04978 0
M  V30 1882 H 166.458 0.574098 4.17471 0
M  V30 1883 H 165.133 -0.162879 3.2329 0
M  V30 1884 H 164.04 2.14819 3.06274 0
M  V30 1885 H 165.373 2.81021 4.04089 0
M  V30 1886 N 167.025 -1.13721 1.09112 0
M  V30 1887 C 168.441 -1.36914 0.820174 0
M  V30 1888 C 168.641 -1.93356 -0.567079 0
M  V30 1889 O 167.697 -2.15093 -1.32255 0
M  V30 1890 C 169.01 -2.3235 1.90877 0
M  V30 1891 C 170.558 -2.45973 1.93562 0
M  V30 1892 C 171.033 -3.44714 3.01556 0
M  V30 1893 N 172.524 -3.52263 3.00775 0
M  V30 1894 C 173.259 -4.28536 3.80978 0
M  V30 1895 N 172.755 -5.07991 4.71081 0
M  V30 1896 N 174.548 -4.23804 3.69251 0
M  V30 1897 H 166.699 -0.754348 1.98553 0
M  V30 1898 H 168.962 -0.3944 0.862063 0
M  V30 1899 H 168.668 -1.98027 2.90651 0
M  V30 1900 H 168.542 -3.32332 1.78424 0
M  V30 1901 H 170.929 -2.79584 0.944286 0
M  V30 1902 H 171.01 -1.45926 2.10093 0
M  V30 1903 H 170.654 -3.11835 4.00901 0
M  V30 1904 H 170.584 -4.44558 2.82269 0
M  V30 1905 H 173.075 -2.95567 2.35475 0
M  V30 1906 H 173.388 -5.63487 5.28869 0
M  V30 1907 H 171.733 -5.07235 4.75119 0
M  V30 1908 H 174.924 -3.60806 2.98222 0
M  V30 1909 H 175.097 -4.82995 4.31995 0
M  V30 1910 N 168.503 -0.877838 -1.30888 0
M  V30 1911 C 169.919 -0.570844 -1.49042 0
M  V30 1912 C 170.119 0.893159 -1.80624 0
M  V30 1913 O 169.175 1.67485 -1.88958 0
M  V30 1914 C 170.488 -1.47784 -2.61878 0
M  V30 1915 C 172.036 -1.48071 -2.75761 0
M  V30 1916 C 172.511 -2.37347 -3.91702 0
M  V30 1917 N 174.002 -2.35271 -3.99001 0
M  V30 1918 C 174.737 -3.01063 -4.88004 0
M  V30 1919 N 174.233 -3.76055 -5.81854 0
M  V30 1920 N 176.026 -2.90332 -4.81315 0
M  V30 1921 H 168.177 -1.82502 -1.0866 0
M  V30 1922 H 170.44 -0.780797 -0.537644 0
M  V30 1923 H 170.146 -2.51993 -2.45341 0
M  V30 1924 H 170.02 -1.18215 -3.58197 0
M  V30 1925 H 172.407 -0.446166 -2.91708 0
M  V30 1926 H 172.488 -1.81668 -1.80085 0
M  V30 1927 H 172.132 -3.40883 -3.76512 0
M  V30 1928 H 172.062 -2.01071 -4.86701 0
M  V30 1929 H 174.553 -1.80768 -3.3186 0
M  V30 1930 H 174.866 -4.23366 -6.46514 0
M  V30 1931 H 173.211 -3.80163 -5.81808 0
M  V30 1932 H 176.402 -2.31278 -4.06974 0
M  V30 1933 H 176.575 -3.41885 -5.50471 0
M  V30 1934 N 169.982 1.44106 -0.638065 0
M  V30 1935 C 170.945 2.29138 0.0531013 0
M  V30 1936 C 171.945 1.41409 0.765506 0
M  V30 1937 O 173.135 1.63206 0.609046 0
M  V30 1938 C 170.267 3.23144 1.08584 0
M  V30 1939 H 171.46 2.91739 -0.694883 0
M  V30 1940 H 169.013 1.51134 -0.398538 0
M  V30 1941 H 169.748 2.65408 1.86357 0
M  V30 1942 H 169.533 3.87804 0.578852 0
M  V30 1943 H 171.023 3.87004 1.56899 0
M  V30 1944 N 171.46 0.379036 1.52974 0
M  V30 1945 C 172.423 -0.448865 2.24762 0
M  V30 1946 C 173.423 -0.998689 1.26027 0
M  V30 1947 O 174.613 -0.882313 1.50203 0
M  V30 1948 C 171.745 -1.62872 2.99476 0
M  V30 1949 H 172.938 0.179491 2.99362 0
M  V30 1950 H 170.491 0.13096 1.5575 0
M  V30 1951 H 171.226 -2.29479 2.29151 0
M  V30 1952 H 171.011 -1.24128 3.71934 0
M  V30 1953 H 172.501 -2.2151 3.5401 0
M  V30 1954 N 172.938 -1.57226 0.108567 0
M  V30 1955 C 174.184 -1.95121 -0.552761 0
M  V30 1956 C 174.517 -0.991345 -1.66991 0
M  V30 1957 O 173.792 -0.0267211 -1.94482 0
M  V30 1958 C 174.075 -3.43039 -1.09528 0
M  V30 1959 C 173.928 -4.49797 0.0177332 0
M  V30 1960 C 175.247 -3.92567 -1.98945 0
M  V30 1961 H 172.366 -0.709496 -0.199461 0
M  V30 1962 H 175.008 -1.89126 0.182011 0
M  V30 1963 H 173.158 -3.48279 -1.72146 0
M  V30 1964 H 174.83 -4.56661 0.652584 0
M  V30 1965 H 173.073 -4.284 0.682309 0
M  V30 1966 H 173.744 -5.50528 -0.402919 0
M  V30 1967 H 176.22 -3.89565 -1.46214 0
M  V30 1968 H 175.096 -4.96605 -2.33827 0
M  V30 1969 H 175.357 -3.32648 -2.91201 0
M  V30 1970 N 174.416 0.165178 -1.56732 0
M  V30 1971 C 175.832 0.517174 -1.50988 0
M  V30 1972 C 176.032 1.84331 -0.813894 0
M  V30 1973 O 175.088 2.49672 -0.37682 0
M  V30 1974 C 176.401 0.544261 -2.95733 0
M  V30 1975 C 177.949 0.631039 -3.06573 0
M  V30 1976 C 178.424 0.68896 -4.52788 0
M  V30 1977 N 179.915 0.751683 -4.5706 0
M  V30 1978 C 180.65 0.817177 -5.67547 0
M  V30 1979 N 180.146 0.843129 -6.8765 0
M  V30 1980 N 181.939 0.856668 -5.55534 0
M  V30 1981 H 174.09 -0.704318 -2.00382 0
M  V30 1982 H 176.353 -0.254687 -0.913148 0
M  V30 1983 H 176.059 -0.361607 -3.49836 0
M  V30 1984 H 175.933 1.3886 -3.5071 0
M  V30 1985 H 178.32 1.52733 -2.52501 0
M  V30 1986 H 178.401 -0.240095 -2.54671 0
M  V30 1987 H 178.045 -0.2031 -5.07494 0
M  V30 1988 H 177.975 1.57633 -5.02454 0
M  V30 1989 H 180.466 0.739661 -3.70591 0
M  V30 1990 H 180.779 0.894448 -7.67606 0
M  V30 1991 H 179.124 0.811304 -6.90248 0
M  V30 1992 H 182.315 0.833437 -4.60621 0
M  V30 1993 H 182.488 0.904247 -6.4166 0
M  V30 1994 N 175.894 1.51508 0.433938 0
M  V30 1995 C 177.143 1.63578 1.18005 0
M  V30 1996 C 177.456 0.359514 1.92268 0
M  V30 1997 O 178.662 0.359632 2.69108 0
M  V30 1998 C 177.118 2.88901 2.14626 0
M  V30 1999 C 176.726 4.23544 1.45995 0
M  V30 2000 C 178.47 3.10328 2.89649 0
M  V30 2001 C 176.377 5.40014 2.4112 0
M  V30 2002 H 175.307 0.609277 0.444182 0
M  V30 2003 H 177.958 1.77978 0.446773 0
M  V30 2004 H 176.34 2.68142 2.91403 0
M  V30 2005 H 177.514 4.54696 0.747532 0
M  V30 2006 H 175.829 4.08021 0.831115 0
M  V30 2007 H 178.426 3.94518 3.60915 0
M  V30 2008 H 178.769 2.23544 3.51189 0
M  V30 2009 H 179.302 3.31443 2.19978 0
M  V30 2010 H 176.041 6.29068 1.84264 0
M  V30 2011 H 175.561 5.13233 3.10406 0
M  V30 2012 H 177.24 5.72099 3.02177 0
M  V30 2013 N 177.372 -0.689602 1.41712 0
M  V30 2014 C 178.335 -1.78521 1.43746 0
M  V30 2015 C 179.335 -1.57436 0.327191 0
M  V30 2016 O 180.525 -1.64 0.587348 0
M  V30 2017 C 177.657 -3.16971 1.25467 0
M  V30 2018 H 178.85 -1.78108 2.41283 0
M  V30 2019 H 176.403 -0.89781 1.27942 0
M  V30 2020 H 177.138 -3.23019 0.287948 0
M  V30 2021 H 176.923 -3.33678 2.05917 0
M  V30 2022 H 178.413 -3.96935 1.2974 0
M  V30 2023 N 178.85 -1.27639 -0.924453 0
M  V30 2024 C 179.8 -1.07295 -2.01176 0
M  V30 2025 C 180.784 5.77352e-05 -1.609 0
M  V30 2026 O 181.976 -0.218855 -1.75642 0
M  V30 2027 C 179.105 -0.725592 -3.35544 0
M  V30 2028 C 178.191 -1.83691 -3.82254 0
M  V30 2029 N 178.582 -3.07697 -4.01443 0
M  V30 2030 C 176.88 -1.72433 -4.11319 0
M  V30 2031 C 177.581 -3.80037 -4.40394 0
M  V30 2032 N 176.557 -3.0782 -4.48049 0
M  V30 2033 H 180.359 -2.01399 -2.14046 0
M  V30 2034 H 177.873 -1.18401 -1.11153 0
M  V30 2035 H 179.87 -0.560959 -4.13109 0
M  V30 2036 H 178.53 0.207782 -3.24034 0
M  V30 2037 H 179.541 -3.43424 -3.8766 0
M  V30 2038 H 176.218 -0.862005 -4.08504 0
M  V30 2039 H 177.608 -4.86632 -4.63291 0
M  V30 2040 N 180.328 1.1314 -1.09713 0
M  V30 2041 C 181.238 2.22242 -0.751367 0
M  V30 2042 C 182.254 1.72224 0.247938 0
M  V30 2043 O 183.43 2.01205 0.0885463 0
M  V30 2044 C 180.495 3.46231 -0.180274 0
M  V30 2045 C 179.556 4.11125 -1.2359 0
M  V30 2046 C 178.789 5.29195 -0.691966 0
M  V30 2047 O 179.012 5.68342 0.48414 0
M  V30 2048 O 177.946 5.84214 -1.44838 0
M  V30 2049 H 181.772 2.54197 -1.66186 0
M  V30 2050 H 179.357 1.21331 -0.871735 0
M  V30 2051 H 181.239 4.21185 0.134739 0
M  V30 2052 H 179.914 3.1597 0.703185 0
M  V30 2053 H 178.821 3.37985 -1.60366 0
M  V30 2054 H 180.154 4.45524 -2.09211 0
M  V30 2055 N 181.806 0.884767 1.30421 0
M  V30 2056 C 182.736 0.367574 2.30589 0
M  V30 2057 C 183.717 -0.549464 1.60981 0
M  V30 2058 O 184.902 -0.46336 1.88591 0
M  V30 2059 C 182.032 -0.418944 3.44764 0
M  V30 2060 C 180.986 0.406316 4.26067 0
M  V30 2061 C 180.312 -0.506793 5.32293 0
M  V30 2062 C 181.612 1.64832 4.95608 0
M  V30 2063 H 183.306 1.20462 2.74097 0
M  V30 2064 H 180.852 0.580695 1.31772 0
M  V30 2065 H 182.805 -0.791395 4.13902 0
M  V30 2066 H 181.529 -1.28964 3.0006 0
M  V30 2067 H 180.188 0.760903 3.58617 0
M  V30 2068 H 179.836 -1.37519 4.83836 0
M  V30 2069 H 179.536 0.0415828 5.87585 0
M  V30 2070 H 181.06 -0.875764 6.04287 0
M  V30 2071 H 182.474 1.34646 5.57264 0
M  V30 2072 H 180.871 2.13688 5.60765 0
M  V30 2073 H 181.941 2.39284 4.21748 0
M  V30 2074 N 183.284 -1.43765 0.645699 0
M  V30 2075 C 184.217 -2.2798 -0.100072 0
M  V30 2076 C 185.195 -1.39391 -0.837194 0
M  V30 2077 O 186.379 -1.68833 -0.838306 0
M  V30 2078 C 183.506 -3.18643 -1.14823 0
M  V30 2079 C 182.552 -4.2344 -0.510009 0
M  V30 2080 S 183.385 -5.30761 0.710824 0
M  V30 2081 C 184.541 -6.24992 -0.33699 0
M  V30 2082 H 184.774 -2.90884 0.614322 0
M  V30 2083 H 182.307 -1.48166 0.434304 0
M  V30 2084 H 184.265 -3.71424 -1.74799 0
M  V30 2085 H 182.926 -2.54932 -1.8349 0
M  V30 2086 H 182.119 -4.86948 -1.29991 0
M  V30 2087 H 181.721 -3.73997 0.0154577 0
M  V30 2088 H 184.013 -6.66691 -1.20537 0
M  V30 2089 H 184.956 -7.07612 0.262879 0
M  V30 2090 H 185.364 -5.60517 -0.669425 0
M  V30 2091 N 184.763 -0.387143 -1.52771 0
M  V30 2092 C 186.04 0.253197 -1.93954 0
M  V30 2093 C 186.42 1.64545 -1.32243 0
M  V30 2094 O 185.768 2.23191 -0.489699 0
M  V30 2095 C 185.978 0.281722 -3.47861 0
M  V30 2096 C 187.326 0.511715 -4.21505 0
M  V30 2097 O 188.35 0.362023 -3.54356 0
M  V30 2098 O 187.209 0.804847 -5.40541 0
M  V30 2099 H 184.303 0.156845 -0.811991 0
M  V30 2100 H 186.849 -0.441494 -1.63856 0
M  V30 2101 H 185.621 -0.693571 -3.85104 0
M  V30 2102 H 185.244 1.02142 -3.84256 0
M  V30 2103 N 186.241 1.57166 -0.116904 0
M  V30 2104 C 187.204 2.14039 0.819742 0
M  V30 2105 C 188.204 1.07477 1.19605 0
M  V30 2106 O 189.394 1.33263 1.1219 0
M  V30 2107 C 186.526 2.67891 2.10826 0
M  V30 2108 H 187.719 2.98128 0.325511 0
M  V30 2109 H 185.272 1.55739 0.132312 0
M  V30 2110 H 186.007 1.87384 2.64685 0
M  V30 2111 H 185.792 3.45823 1.84793 0
M  V30 2112 H 187.282 3.11809 2.77785 0
M  V30 2113 N 187.719 -0.156864 1.56817 0
M  V30 2114 C 188.682 -1.17781 1.96622 0
M  V30 2115 C 189.682 -1.36401 0.851555 0
M  V30 2116 O 190.872 -1.33561 1.11836 0
M  V30 2117 C 188.004 -2.54008 2.27361 0
M  V30 2118 H 189.197 -0.836564 2.87996 0
M  V30 2119 H 186.75 -0.39985 1.51099 0
M  V30 2120 H 187.485 -2.9312 1.38748 0
M  V30 2121 H 187.27 -2.41856 3.08623 0
M  V30 2122 H 188.76 -3.27558 2.59029 0
M  V30 2123 N 189.197 -1.51736 -0.425897 0
M  V30 2124 C 190.107 -1.76738 -1.54275 0
M  V30 2125 C 191.123 -0.65211 -1.61318 0
M  V30 2126 O 192.299 -0.935654 -1.78346 0
M  V30 2127 C 189.364 -1.89755 -2.90162 0
M  V30 2128 C 188.425 -3.13633 -2.93143 0
M  V30 2129 C 187.658 -3.2602 -4.22548 0
M  V30 2130 O 187.881 -2.44067 -5.15546 0
M  V30 2131 O 186.815 -4.19071 -4.32046 0
M  V30 2132 H 190.641 -2.71502 -1.36089 0
M  V30 2133 H 188.226 -1.36376 -0.610069 0
M  V30 2134 H 190.108 -2.00236 -3.70788 0
M  V30 2135 H 188.783 -0.981785 -3.08452 0
M  V30 2136 H 187.69 -3.08622 -2.11431 0
M  V30 2137 H 189.023 -4.04936 -2.798 0
M  V30 2138 N 190.675 0.682077 -1.42076 0
M  V30 2139 C 191.923 1.4393 -1.41876 0
M  V30 2140 C 192.244 1.94971 -0.0335599 0
M  V30 2141 O 191.514 1.72591 0.926773 0
M  V30 2142 H 190.094 0.534085 -0.522267 0
M  V30 2143 H 192.756 0.806427 -1.77434 0
M  V30 2144 H 191.852 2.29588 -2.11414 0
M  V30 2145 N 192.153 1.28127 0.917671 0
M  V30 2146 C 193.1 1.11717 2.0196 0
M  V30 2147 C 194.07 0.0153929 1.66093 0
M  V30 2148 O 195.255 0.179596 1.89953 0
M  V30 2149 C 192.395 0.780927 3.36148 0
M  V30 2150 C 191.508 1.96135 3.84909 0
M  V30 2151 C 190.643 1.56609 5.0759 0
M  V30 2152 C 189.682 2.71339 5.48673 0
M  V30 2153 N 188.819 2.32332 6.62545 0
M  V30 2154 H 193.659 2.06003 2.15329 0
M  V30 2155 H 191.196 1.02535 1.05475 0
M  V30 2156 H 193.154 0.56675 4.13333 0
M  V30 2157 H 191.784 -0.124998 3.22558 0
M  V30 2158 H 190.836 2.28777 3.03916 0
M  V30 2159 H 192.148 2.82165 4.1132 0
M  V30 2160 H 191.302 1.31374 5.92305 0
M  V30 2161 H 190.041 0.677014 4.82978 0
M  V30 2162 H 189.046 2.97276 4.62501 0
M  V30 2163 H 190.271 3.60882 5.75274 0
M  V30 2164 H 188.217 1.45889 6.39572 0
M  V30 2165 H 188.134 3.11899 6.88662 0
M  V30 2166 H 189.402 2.10371 7.50576 0
M  V30 2167 N 193.631 -1.12557 1.10312 0
M  V30 2168 C 194.879 -1.83675 0.843091 0
M  V30 2169 C 195.2 -1.84435 -0.633131 0
M  V30 2170 O 194.47 -1.30657 -1.45964 0
M  V30 2171 H 193.05 -0.680138 0.308904 0
M  V30 2172 H 195.712 -1.36301 1.39313 0
M  V30 2173 H 194.808 -2.87908 1.2048 0
M  V30 2174 N 195.109 -0.891671 -1.2995 0
M  V30 2175 C 196.357 -0.512486 -1.95494 0
M  V30 2176 C 196.678 0.942776 -1.70695 0
M  V30 2177 O 195.948 1.66374 -1.03424 0
M  V30 2178 H 194.528 -0.186533 -0.723336 0
M  V30 2179 H 197.19 -1.13621 -1.58355 0
M  V30 2180 H 196.286 -0.688342 -3.04415 0
M  V30 2181 N 196.587 1.43421 -0.653314 0
M  V30 2182 C 197.55 2.29182 0.0287951 0
M  V30 2183 C 198.55 1.42213 0.750465 0
M  V30 2184 O 199.74 1.63843 0.591701 0
M  V30 2185 C 196.872 3.24278 1.05151 0
M  V30 2186 H 198.065 2.90985 -0.725786 0
M  V30 2187 H 195.618 1.50702 -0.414545 0
M  V30 2188 H 196.353 2.6737 1.83532 0
M  V30 2189 H 196.138 3.88396 0.537687 0
M  V30 2190 H 197.628 3.88647 1.52786 0
M  V30 2191 N 198.065 0.39524 1.52563 0
M  V30 2192 C 199.311 -0.185318 2.01952 0
M  V30 2193 C 199.644 -1.45964 1.28095 0
M  V30 2194 O 198.919 -1.90689 0.38315 0
M  V30 2195 C 199.202 -0.447193 3.57312 0
M  V30 2196 C 199.055 0.842828 4.41833 0
M  V30 2197 C 200.374 -1.23529 4.22408 0
M  V30 2198 H 197.493 -0.0658788 0.73405 0
M  V30 2199 H 200.135 0.525975 1.82575 0
M  V30 2200 H 198.285 -1.05312 3.73954 0
M  V30 2201 H 199.957 1.4795 4.36931 0
M  V30 2202 H 198.2 1.45686 4.08605 0
M  V30 2203 H 198.871 0.614165 5.48573 0
M  V30 2204 H 201.347 -0.722445 4.0978 0
M  V30 2205 H 200.223 -1.38727 5.3108 0
M  V30 2206 H 200.484 -2.25213 3.80436 0
M  V30 2207 N 199.544 -1.57102 0.125237 0
M  V30 2208 C 200.491 -2.15641 -0.822655 0
M  V30 2209 C 201.461 -1.08313 -1.25927 0
M  V30 2210 O 202.646 -1.36251 -1.33567 0
M  V30 2211 C 199.786 -2.76504 -2.06494 0
M  V30 2212 C 198.899 -3.98158 -1.67612 0
M  V30 2213 C 198.034 -4.47088 -2.86854 0
M  V30 2214 C 197.073 -5.6126 -2.44242 0
M  V30 2215 N 196.21 -6.04905 -3.56419 0
M  V30 2216 H 201.05 -2.96313 -0.316625 0
M  V30 2217 H 198.587 -1.46388 -0.144588 0
M  V30 2218 H 200.545 -3.09925 -2.79289 0
M  V30 2219 H 199.175 -1.98512 -2.54545 0
M  V30 2220 H 198.227 -3.70858 -0.846661 0
M  V30 2221 H 199.539 -4.80934 -1.32301 0
M  V30 2222 H 198.693 -4.82451 -3.67867 0
M  V30 2223 H 197.432 -3.63275 -3.25396 0
M  V30 2224 H 196.437 -5.25495 -1.61663 0
M  V30 2225 H 197.662 -6.46843 -2.0681 0
M  V30 2226 H 195.608 -5.24032 -3.94623 0
M  V30 2227 H 195.525 -6.82552 -3.25051 0
M  V30 2228 H 196.793 -6.44907 -4.37853 0
M  V30 2229 N 201.022 0.148545 -1.56898 0
M  V30 2230 C 201.969 1.18345 -1.98149 0
M  V30 2231 C 202.939 1.42772 -0.848848 0
M  V30 2232 O 204.124 1.55132 -1.11079 0
M  V30 2233 C 201.264 2.51231 -2.36594 0
M  V30 2234 C 200.377 2.33991 -3.63142 0
M  V30 2235 C 199.512 3.59902 -3.90697 0
M  V30 2236 C 198.551 3.37692 -5.1052 0
M  V30 2237 N 197.688 4.5573 -5.34092 0
M  V30 2238 H 202.528 0.82467 -2.86362 0
M  V30 2239 H 200.065 0.395756 -1.41676 0
M  V30 2240 H 202.023 3.28713 -2.56912 0
M  V30 2241 H 200.653 2.85059 -1.51463 0
M  V30 2242 H 199.705 1.47572 -3.50609 0
M  V30 2243 H 201.017 2.13539 -4.5078 0
M  V30 2244 H 200.171 4.45813 -4.11505 0
M  V30 2245 H 198.91 3.83357 -3.01477 0
M  V30 2246 H 197.915 2.5017 -4.89587 0
M  V30 2247 H 199.14 3.15637 -6.0129 0
M  V30 2248 H 197.086 4.79361 -4.47827 0
M  V30 2249 H 197.003 4.38274 -6.15996 0
M  V30 2250 H 198.271 5.42858 -5.59397 0
M  V30 2251 N 202.5 1.5196 0.417844 0
M  V30 2252 C 203.447 1.74678 1.50852 0
M  V30 2253 C 204.417 0.588947 1.55308 0
M  V30 2254 O 205.602 0.825544 1.72016 0
M  V30 2255 C 202.742 1.89544 2.88387 0
M  V30 2256 C 201.855 3.17166 2.93309 0
M  V30 2257 C 200.99 3.22513 4.22088 0
M  V30 2258 C 200.029 4.44372 4.20951 0
M  V30 2259 N 199.166 4.47161 5.41287 0
M  V30 2260 H 204.006 2.67768 1.30783 0
M  V30 2261 H 201.543 1.32689 0.63498 0
M  V30 2262 H 203.501 1.96146 3.68216 0
M  V30 2263 H 202.131 0.998424 3.06971 0
M  V30 2264 H 201.183 3.19778 2.06024 0
M  V30 2265 H 202.495 4.07021 2.88332 0
M  V30 2266 H 201.649 3.28139 5.10303 0
M  V30 2267 H 200.388 2.30581 4.29748 0
M  V30 2268 H 199.393 4.38902 3.31127 0
M  V30 2269 H 200.618 5.3759 4.14938 0
M  V30 2270 H 198.564 3.58108 5.49632 0
M  V30 2271 H 198.481 5.3085 5.3827 0
M  V30 2272 H 199.749 4.57005 6.3148 0
M  V30 2273 N 203.978 -0.674533 1.42435 0
M  V30 2274 C 204.888 -1.81751 1.48337 0
M  V30 2275 C 205.904 -1.69975 0.372099 0
M  V30 2276 O 207.08 -1.91521 0.62304 0
M  V30 2277 C 204.145 -3.17895 1.38361 0
M  V30 2278 C 203.206 -3.41625 2.59982 0
M  V30 2279 C 202.439 -4.71274 2.50473 0
M  V30 2280 O 202.662 -5.49197 1.54075 0
M  V30 2281 O 201.596 -4.96254 3.4061 0
M  V30 2282 H 205.422 -1.79728 2.44809 0
M  V30 2283 H 203.007 -0.830312 1.24202 0
M  V30 2284 H 204.889 -3.99136 1.35161 0
M  V30 2285 H 203.564 -3.20555 0.450144 0
M  V30 2286 H 202.471 -2.60231 2.68757 0
M  V30 2287 H 203.804 -3.43796 3.52229 0
M  V30 2288 N 205.456 -1.28612 -0.910864 0
M  V30 2289 C 206.733 -1.06632 -1.63979 0
M  V30 2290 C 207.113 0.393351 -2.07403 0
M  V30 2291 O 206.461 1.37999 -1.82122 0
M  V30 2292 C 206.671 -2.0436 -2.8291 0
M  V30 2293 C 208.019 -2.34666 -3.5386 0
M  V30 2294 O 209.043 -2.02467 -2.93062 0
M  V30 2295 O 207.902 -2.89631 -4.63439 0
M  V30 2296 H 204.996 -0.407737 -0.7195 0
M  V30 2297 H 207.542 -1.39942 -0.959914 0
M  V30 2298 H 206.314 -3.02727 -2.47936 0
M  V30 2299 H 205.937 -1.71714 -3.58609 0
M  V30 2300 N 206.934 1.1197 -1.10907 0
M  V30 2301 C 208.18 1.8386 -0.855773 0
M  V30 2302 C 208.513 1.84134 0.617103 0
M  V30 2303 O 207.788 1.29041 1.45529 0
M  V30 2304 C 208.071 3.31305 -1.411 0
M  V30 2305 C 207.924 3.39456 -2.9511 0
M  V30 2306 C 209.243 4.2721 -1.05736 0
M  V30 2307 H 206.362 0.667545 -0.312334 0
M  V30 2308 H 209.004 1.31331 -1.37303 0
M  V30 2309 H 207.154 3.76169 -0.97105 0
M  V30 2310 H 208.826 3.03191 -3.47668 0
M  V30 2311 H 207.069 2.79849 -3.31462 0
M  V30 2312 H 207.74 4.43209 -3.29044 0
M  V30 2313 H 210.216 3.90497 -1.43706 0
M  V30 2314 H 209.092 5.28775 -1.47269 0
M  V30 2315 H 209.353 4.42088 0.0325958 0
M  V30 2316 N 208.412 0.89855 1.29475 0
M  V30 2317 C 209.322 0.379974 2.31502 0
M  V30 2318 C 210.338 -0.524695 1.659 0
M  V30 2319 O 211.514 -0.414551 1.97087 0
M  V30 2320 C 208.579 -0.385138 3.44554 0
M  V30 2321 C 207.64 0.550914 4.2575 0
M  V30 2322 C 206.873 -0.177778 5.33404 0
M  V30 2323 O 207.096 -1.40189 5.52904 0
M  V30 2324 O 206.03 0.479106 5.9999 0
M  V30 2325 H 209.856 1.22639 2.77837 0
M  V30 2326 H 207.441 0.662834 1.33891 0
M  V30 2327 H 209.323 -0.817841 4.13388 0
M  V30 2328 H 207.998 -1.20763 3.0033 0
M  V30 2329 H 206.905 1.03271 3.59564 0
M  V30 2330 H 208.238 1.33979 4.73614 0
M  V30 2331 N 209.89 -1.43072 0.660911 0
M  V30 2332 C 211.306 -1.56169 0.329173 0
M  V30 2333 C 211.506 -1.64317 -1.16629 0
M  V30 2334 O 210.562 -1.60245 -1.95135 0
M  V30 2335 C 211.875 -2.81873 1.04729 0
M  V30 2336 C 213.423 -2.95627 1.02828 0
M  V30 2337 C 213.898 -4.24174 1.72744 0
M  V30 2338 N 215.389 -4.31055 1.69545 0
M  V30 2339 C 216.124 -5.29304 2.20511 0
M  V30 2340 N 215.62 -6.33786 2.79799 0
M  V30 2341 N 217.413 -5.21008 2.10966 0
M  V30 2342 H 209.564 -1.36027 1.63127 0
M  V30 2343 H 211.827 -0.653823 0.686454 0
M  V30 2344 H 211.533 -2.81942 2.10242 0
M  V30 2345 H 211.407 -3.72338 0.603702 0
M  V30 2346 H 213.794 -2.95094 -0.0184742 0
M  V30 2347 H 213.875 -2.06431 1.51063 0
M  V30 2348 H 213.519 -4.25467 2.7738 0
M  V30 2349 H 213.449 -5.1228 1.2197 0
M  V30 2350 H 215.94 -3.56174 1.26288 0
M  V30 2351 H 216.253 -7.05086 3.16344 0
M  V30 2352 H 214.598 -6.34387 2.83863 0
M  V30 2353 H 217.789 -4.38301 1.64347 0
M  V30 2354 H 217.962 -5.97416 2.50993 0
M  V30 2355 N 211.368 -0.403325 -1.52352 0
M  V30 2356 C 212.301 0.469463 -2.23319 0
M  V30 2357 C 213.279 1.05272 -1.23922 0
M  V30 2358 O 214.463 1.10169 -1.52954 0
M  V30 2359 C 211.59 1.6511 -2.9573 0
M  V30 2360 C 210.636 1.19178 -4.0951 0
M  V30 2361 S 211.469 0.161718 -5.35256 0
M  V30 2362 C 212.625 1.34882 -6.11194 0
M  V30 2363 H 212.858 -0.133134 -2.97002 0
M  V30 2364 H 210.391 -0.187588 -1.53256 0
M  V30 2365 H 212.349 2.3287 -3.38056 0
M  V30 2366 H 211.01 2.22503 -2.21701 0
M  V30 2367 H 210.203 2.07444 -4.59329 0
M  V30 2368 H 209.805 0.592911 -3.6927 0
M  V30 2369 H 212.097 2.27345 -6.38217 0
M  V30 2370 H 213.04 0.89128 -7.02468 0
M  V30 2371 H 213.448 1.57198 -5.42171 0
M  V30 2372 N 212.846 1.57033 -0.133567 0
M  V30 2373 C 213.809 2.14897 0.796995 0
M  V30 2374 C 214.809 1.0874 1.18458 0
M  V30 2375 O 215.999 1.34446 1.1077 0
M  V30 2376 C 213.131 2.70112 2.07973 0
M  V30 2377 H 214.324 2.98457 0.293873 0
M  V30 2378 H 211.877 1.55871 0.115787 0
M  V30 2379 H 212.612 1.9018 2.62682 0
M  V30 2380 H 212.397 3.47764 1.81115 0
M  V30 2381 H 213.887 3.14738 2.74462 0
M  V30 2382 N 214.325 -0.140222 1.56975 0
M  V30 2383 C 215.235 -1.19223 2.02047 0
M  V30 2384 C 216.251 -1.46612 0.937062 0
M  V30 2385 O 217.427 -1.58148 1.24704 0
M  V30 2386 C 214.492 -2.50414 2.39778 0
M  V30 2387 C 213.553 -2.30612 3.621 0
M  V30 2388 C 212.786 -3.55547 3.98023 0
M  V30 2389 O 213.009 -4.62004 3.34528 0
M  V30 2390 O 211.943 -3.47808 4.91237 0
M  V30 2391 H 215.769 -0.839559 2.91865 0
M  V30 2392 H 213.354 -0.349453 1.45256 0
M  V30 2393 H 215.236 -3.27747 2.64877 0
M  V30 2394 H 213.911 -2.85198 1.53114 0
M  V30 2395 H 212.818 -1.51207 3.4218 0
M  V30 2396 H 214.151 -2.00741 4.49404 0
M  V30 2397 N 215.803 -1.52179 -0.40978 0
M  V30 2398 C 216.766 -1.74853 -1.48186 0
M  V30 2399 C 217.766 -0.618417 -1.48433 0
M  V30 2400 O 218.956 -0.886286 -1.49969 0
M  V30 2401 C 216.088 -1.8303 -2.87598 0
M  V30 2402 H 217.281 -2.70559 -1.29374 0
M  V30 2403 H 214.834 -1.42586 -0.640233 0
M  V30 2404 H 215.569 -0.89236 -3.11781 0
M  V30 2405 H 215.354 -2.65187 -2.88822 0
M  V30 2406 H 216.844 -2.02316 -3.65319 0
M  V30 2407 N 217.281 0.66697 -1.42791 0
M  V30 2408 C 218.229 1.80157 -1.47127 0
M  V30 2409 C 219.223 1.65825 -0.346199 0
M  V30 2410 O 220.429 1.72338 -0.519572 0
M  V30 2411 H 216.804 0.594158 -0.460956 0
M  V30 2412 H 218.775 1.73619 -2.42692 0
M  V30 2413 C 217.524 3.18351 -1.39813 0
M  V30 2414 H 216.847 3.3001 -2.25684 0
M  V30 2415 H 218.287 3.97736 -1.46908 0
M  V30 2416 C 216.746 3.36707 -0.11391 0
M  V30 2417 O 217.276 3.93027 0.830241 0
M  V30 2418 N 215.482 2.90586 -0.0285295 0
M  V30 2419 H 215.029 2.4494 -0.79764 0
M  V30 2420 H 214.987 3.03245 0.830063 0
M  V30 2421 N 218.759 1.29093 0.90403 0
M  V30 2422 C 220.175 1.07011 1.1841 0
M  V30 2423 C 220.375 -0.181358 2.00682 0
M  V30 2424 O 219.431 -0.880331 2.36657 0
M  V30 2425 C 220.744 2.32311 1.90924 0
M  V30 2426 C 222.292 2.37587 2.03768 0
M  V30 2427 C 222.767 3.62679 2.79693 0
M  V30 2428 N 224.258 3.63376 2.87249 0
M  V30 2429 C 224.993 4.56848 3.46522 0
M  V30 2430 N 224.489 5.60648 4.06996 0
M  V30 2431 N 226.282 4.44426 3.44154 0
M  V30 2432 H 218.433 2.09412 0.354993 0
M  V30 2433 H 220.696 0.922181 0.219742 0
M  V30 2434 H 220.402 3.23536 1.37905 0
M  V30 2435 H 220.276 2.39483 2.91424 0
M  V30 2436 H 222.663 1.46853 2.55965 0
M  V30 2437 H 222.744 2.34403 1.02415 0
M  V30 2438 H 222.388 4.53762 2.28173 0
M  V30 2439 H 222.318 3.63119 3.81381 0
M  V30 2440 H 224.809 2.88321 2.44293 0
M  V30 2441 H 225.122 6.28101 4.50232 0
M  V30 2442 H 223.467 5.64463 4.05471 0
M  V30 2443 H 226.658 3.62529 2.96126 0
M  V30 2444 H 226.831 5.17457 3.90054 0
M  V30 2445 N 220.237 -1.11381 1.11499 0
M  V30 2446 C 221.2 -2.15622 0.777153 0
M  V30 2447 C 222.2 -1.59504 -0.203779 0
M  V30 2448 O 223.39 -1.74188 0.020782 0
M  V30 2449 C 220.522 -3.40556 0.153116 0
M  V30 2450 H 221.715 -2.47021 1.70061 0
M  V30 2451 H 219.268 -1.26577 0.916952 0
M  V30 2452 H 220.003 -3.14767 -0.780536 0
M  V30 2453 H 219.788 -3.8257 0.859238 0
M  V30 2454 H 221.278 -4.17546 -0.0671044 0
M  V30 2455 N 221.715 -0.905404 -1.28997 0
M  V30 2456 C 222.945 -0.549049 -1.99171 0
M  V30 2457 C 223.353 0.87203 -1.67906 0
M  V30 2458 O 222.696 1.58796 -0.923561 0
M  V30 2459 C 222.758 -0.668306 -3.53234 0
M  V30 2460 C 222.422 -2.0574 -4.08069 0
M  V30 2461 C 223.419 -3.0292 -4.22534 0
M  V30 2462 C 221.104 -2.36833 -4.42962 0
M  V30 2463 C 223.098 -4.29314 -4.71135 0
M  V30 2464 C 220.785 -3.63467 -4.91258 0
M  V30 2465 C 221.783 -4.59522 -5.053 0
M  V30 2466 O 221.471 -5.83907 -5.52546 0
M  V30 2467 H 221.203 -0.208784 -0.64295 0
M  V30 2468 H 223.757 -1.21836 -1.65363 0
M  V30 2469 H 221.987 0.0580547 -3.86656 0
M  V30 2470 H 223.676 -0.320273 -4.04634 0
M  V30 2471 H 224.442 -2.80216 -3.95859 0
M  V30 2472 H 220.321 -1.62824 -4.31288 0
M  V30 2473 H 223.865 -5.04293 -4.8201 0
M  V30 2474 H 219.762 -3.86 -5.17372 0
M  V30 2475 H 220.53 -5.86578 -5.70849 0
M  V30 2476 N 223.193 1.4272 -0.668489 0
M  V30 2477 C 224.156 2.292 0.00448567 0
M  V30 2478 C 225.156 1.43001 0.735339 0
M  V30 2479 O 226.346 1.64461 0.57429 0
M  V30 2480 C 223.478 3.25375 1.01705 0
M  V30 2481 H 224.671 2.90199 -0.756608 0
M  V30 2482 H 222.224 1.50254 -0.430506 0
M  V30 2483 H 222.959 2.69301 1.80686 0
M  V30 2484 H 222.744 3.88944 0.496463 0
M  V30 2485 H 224.234 3.90245 1.48655 0
M  V30 2486 N 224.671 0.411399 1.52136 0
M  V30 2487 C 225.621 -0.430376 2.23901 0
M  V30 2488 C 226.605 -1.0116 1.25121 0
M  V30 2489 O 227.797 -0.934044 1.50348 0
M  V30 2490 C 224.926 -1.54527 3.06556 0
M  V30 2491 C 224.012 -0.9747 4.12747 0
M  V30 2492 N 224.403 -0.130991 5.0563 0
M  V30 2493 C 222.701 -1.24497 4.28271 0
M  V30 2494 C 223.402 0.186689 5.814 0
M  V30 2495 N 222.378 -0.42304 5.41951 0
M  V30 2496 H 226.18 0.220509 2.93072 0
M  V30 2497 H 223.694 0.221952 1.60876 0
M  V30 2498 H 225.691 -2.16093 3.56524 0
M  V30 2499 H 224.351 -2.19875 2.38925 0
M  V30 2500 H 225.362 0.23349 5.17373 0
M  V30 2501 H 222.039 -1.89787 3.7187 0
M  V30 2502 H 223.429 0.871673 6.66222 0
M  V30 2503 N 226.149 -1.5696 0.141893 0
M  V30 2504 C 227.379 -2.00031 -0.516828 0
M  V30 2505 C 227.787 -1.02091 -1.59293 0
M  V30 2506 O 227.13 -0.00909657 -1.83698 0
M  V30 2507 C 227.192 -3.39534 -1.1814 0
M  V30 2508 C 226.856 -4.56313 -0.250513 0
M  V30 2509 C 227.853 -5.17295 0.519839 0
M  V30 2510 C 225.538 -5.02061 -0.154907 0
M  V30 2511 C 227.532 -6.2243 1.3733 0
M  V30 2512 C 225.219 -6.07053 0.702161 0
M  V30 2513 C 226.217 -6.67106 1.46487 0
M  V30 2514 O 225.905 -7.70066 2.30767 0
M  V30 2515 H 225.637 -0.661451 -0.139493 0
M  V30 2516 H 228.191 -2.04086 0.231926 0
M  V30 2517 H 226.421 -3.32302 -1.97769 0
M  V30 2518 H 228.11 -3.66745 -1.73933 0
M  V30 2519 H 228.876 -4.82852 0.45598 0
M  V30 2520 H 224.755 -4.5505 -0.7383 0
M  V30 2521 H 228.299 -6.69233 1.96909 0
M  V30 2522 H 224.196 -6.40923 0.76733 0
M  V30 2523 H 224.964 -7.87264 2.23959 0
M  V30 2524 N 227.627 0.131896 -1.57047 0
M  V30 2525 C 229.043 0.485031 -1.52051 0
M  V30 2526 C 229.243 1.82563 -0.85281 0
M  V30 2527 O 228.299 2.48817 -0.429694 0
M  V30 2528 C 229.612 0.481409 -2.96821 0
M  V30 2529 C 231.16 0.565868 -3.07842 0
M  V30 2530 C 231.635 0.592762 -4.54148 0
M  V30 2531 N 233.126 0.654564 -4.58552 0
M  V30 2532 C 233.861 0.696608 -5.69153 0
M  V30 2533 N 233.357 0.697078 -6.89284 0
M  V30 2534 N 235.15 0.738639 -5.57226 0
M  V30 2535 H 227.301 -0.746664 -1.98843 0
M  V30 2536 H 229.564 -0.273999 -0.90754 0
M  V30 2537 H 229.27 -0.435731 -3.4899 0
M  V30 2538 H 229.144 1.3139 -3.53577 0
M  V30 2539 H 231.531 1.47343 -2.55684 0
M  V30 2540 H 231.612 -0.29406 -2.54104 0
M  V30 2541 H 231.256 -0.310701 -5.06949 0
M  V30 2542 H 231.186 1.46939 -5.05684 0
M  V30 2543 H 233.677 0.660887 -3.72076 0
M  V30 2544 H 233.99 0.731426 -7.69331 0
M  V30 2545 H 232.335 0.66471 -6.91814 0
M  V30 2546 H 235.526 0.735545 -4.62285 0
M  V30 2547 H 235.699 0.767938 -6.43434 0
M  V30 2548 N 229.106 1.52395 0.401703 0
M  V30 2549 C 230.352 1.68019 1.14635 0
M  V30 2550 C 230.707 0.408722 1.88009 0
M  V30 2551 O 230 -0.597133 1.82057 0
M  V30 2552 C 230.194 2.84578 2.16217 0
M  V30 2553 C 230.023 4.22938 1.5282 0
M  V30 2554 C 228.793 4.88352 1.29772 0
M  V30 2555 C 230.991 5.04778 0.985094 0
M  V30 2556 N 228.973 6.10726 0.623455 0
M  V30 2557 C 230.344 6.1845 0.438172 0
M  V30 2558 C 232.399 4.90057 0.880275 0
M  V30 2559 C 231.102 7.19013 -0.203306 0
M  V30 2560 C 233.128 5.9086 0.252639 0
M  V30 2561 C 232.49 7.03829 -0.283573 0
M  V30 2562 H 228.589 0.668413 0.405892 0
M  V30 2563 H 231.173 1.89717 0.437674 0
M  V30 2564 H 229.344 2.64483 2.84435 0
M  V30 2565 H 231.076 2.89202 2.83098 0
M  V30 2566 H 227.831 4.46846 1.56926 0
M  V30 2567 H 228.255 6.76323 0.302733 0
M  V30 2568 H 232.897 4.02938 1.28065 0
M  V30 2569 H 230.615 8.05751 -0.615726 0
M  V30 2570 H 234.201 5.81543 0.172954 0
M  V30 2571 H 233.081 7.80493 -0.761575 0
M  V30 2572 O 230.623 -0.547609 1.51933 0
M  V30 2573 H 231.314 -1.20275 1.51834 0
M  V30 END ATOM
M  V30 BEGIN BOND
M  V30 END BOND
M  V30 END CTAB
M  END
$$$$
