drugbank_target|P17342 Atrial natriuretic peptide receptor 3 (DB04899)
 OpenBabel12092120153D

  0  0  0     0  0            999 V3000
M  V30 BEGIN CTAB
M  V30 COUNTS 8346 8436 0 0 0
M  V30 BEGIN ATOM
M  V30 1 H -0.908 1.98254 -0.117106 0
M  V30 2 N 0 1.576 0 0
M  V30 3 C 0.933 2.03868 1.02534 0
M  V30 4 C 1.911 0.928543 1.3348 0
M  V30 5 O 3.095 1.19667 1.45644 0
M  V30 6 C 0.222 2.43627 2.35294 0
M  V30 7 C -0.732 3.65373 2.2001 0
M  V30 8 S 0.101 5.13292 1.52614 0
M  V30 9 C 1.257 5.56322 2.86805 0
M  V30 10 H 1.49 2.90518 0.631377 0
M  V30 11 H -0.977 1.52953 0.210867 0
M  V30 12 H 0.981 2.67203 3.11629 0
M  V30 13 H -0.358 1.57376 2.7183 0
M  V30 14 H -1.165 3.90944 3.18086 0
M  V30 15 H -1.563 3.418 1.51819 0
M  V30 16 H 0.729 5.58782 3.83104 0
M  V30 17 H 1.672 6.56266 2.65933 0
M  V30 18 H 2.08 4.83886 2.90714 0
M  V30 19 N 1.4781 -0.272755 1.55222 0
M  V30 20 C 2.8891 -0.84378 1.66545 0
M  V30 21 C 3.2401 -1.87035 0.592641 0
M  V30 22 O 2.3651 -2.14761 -0.265818 0
M  V30 23 C 2.9601 -1.53723 3.01918 0
M  V30 24 C 1.5191 -2.05628 3.15268 0
M  V30 25 C 0.6661 -0.898424 2.62343 0
M  V30 26 H 3.6171 -0.0490998 1.58624 0
M  V30 27 H 3.6381 -2.40421 2.94921 0
M  V30 28 H 3.1501 -0.78983 3.79978 0
M  V30 29 H 1.2511 -2.83329 2.41983 0
M  V30 30 H 1.3641 -2.27142 4.21833 0
M  V30 31 H -0.2719 -1.29186 2.19506 0
M  V30 32 H 0.5111 -0.164528 3.42906 0
M  V30 33 N 2.9562 -1.48159 -0.537278 0
M  V30 34 C 4.1812 -1.59707 -1.32319 0
M  V30 35 C 4.6062 -0.254859 -1.86365 0
M  V30 36 O 3.9642 0.772378 -1.64024 0
M  V30 37 C 4.0122 -2.6412 -2.45505 0
M  V30 38 O 3.1162 -2.20774 -3.48328 0
M  V30 39 H 2.4572 -0.535791 -0.392204 0
M  V30 40 H 4.9872 -1.94092 -0.647268 0
M  V30 41 H 4.9972 -2.85166 -2.91795 0
M  V30 42 H 3.6722 -3.61567 -2.05528 0
M  V30 43 H 2.2492 -2.09911 -3.08207 0
M  V30 44 N 4.4343 0.785586 -1.36625 0
M  V30 45 C 5.3643 1.91259 -1.33949 0
M  V30 46 C 6.3453 1.68795 -0.210325 0
M  V30 47 O 7.5303 1.89854 -0.408561 0
M  V30 48 C 4.6603 3.28339 -1.13186 0
M  V30 49 C 3.6143 3.65335 -2.22967 0
M  V30 50 C 2.9403 5.00806 -1.87342 0
M  V30 51 C 4.2403 3.7352 -3.65075 0
M  V30 52 H 5.9343 1.93755 -2.28253 0
M  V30 53 H 3.4803 0.930788 -1.09874 0
M  V30 54 H 5.4333 4.06804 -1.09948 0
M  V30 55 H 4.1573 3.2624 -0.153332 0
M  V30 56 H 2.8163 2.89169 -2.25337 0
M  V30 57 H 2.4643 4.95233 -0.880545 0
M  V30 58 H 2.1643 5.26529 -2.60846 0
M  V30 59 H 3.6883 5.81687 -1.85667 0
M  V30 60 H 5.1023 4.42168 -3.64911 0
M  V30 61 H 3.4993 4.10731 -4.37516 0
M  V30 62 H 4.5693 2.74527 -3.99703 0
M  V30 63 N 5.9124 1.20967 1.01018 0
M  V30 64 C 6.8424 0.988272 2.11555 0
M  V30 65 C 7.8234 -0.0849778 1.69888 0
M  V30 66 O 9.0084 0.0738202 1.9406 0
M  V30 67 C 6.1384 0.546528 3.42973 0
M  V30 68 C 5.0924 1.56375 3.9841 0
M  V30 69 C 4.4184 0.97842 5.25672 0
M  V30 70 C 5.7184 2.94922 4.31066 0
M  V30 71 H 7.4124 1.91276 2.30334 0
M  V30 72 H 4.9584 0.921073 1.1069 0
M  V30 73 H 6.9114 0.378839 4.19694 0
M  V30 74 H 5.6354 -0.413598 3.23971 0
M  V30 75 H 4.2944 1.71891 3.23804 0
M  V30 76 H 3.9424 0.0101688 5.02999 0
M  V30 77 H 3.6424 1.65784 5.63728 0
M  V30 78 H 5.1664 0.821939 6.05043 0
M  V30 79 H 6.5804 2.8288 4.9865 0
M  V30 80 H 4.9774 3.5983 4.80253 0
M  V30 81 H 6.0474 3.4616 3.39561 0
M  V30 82 N 7.3905 -1.2043 1.01659 0
M  V30 83 C 8.6365 -1.90079 0.706963 0
M  V30 84 C 8.9695 -1.78648 -0.761474 0
M  V30 85 O 8.2445 -1.17069 -1.55323 0
M  V30 86 C 8.5275 -3.41469 1.14327 0
M  V30 87 C 8.3805 -3.61833 2.67201 0
M  V30 88 C 9.6995 -4.34261 0.714529 0
M  V30 89 H 6.8185 -0.690254 0.2583 0
M  V30 90 H 9.4605 -1.41826 1.26433 0
M  V30 91 H 7.6105 -3.82696 0.669056 0
M  V30 92 H 9.2825 -3.2986 3.22475 0
M  V30 93 H 7.5255 -3.05304 3.08175 0
M  V30 94 H 8.1965 -4.67955 2.92783 0
M  V30 95 H 10.6725 -4.00682 1.12221 0
M  V30 96 H 9.5485 -5.38806 1.04784 0
M  V30 97 H 9.8095 -4.40431 -0.383799 0
M  V30 98 N 8.8686 -0.792821 -1.36206 0
M  V30 99 C 9.7986 -0.207853 -2.32573 0
M  V30 100 C 10.7796 0.659055 -1.56813 0
M  V30 101 O 11.9646 0.592176 -1.84951 0
M  V30 102 C 9.0946 0.655449 -3.41059 0
M  V30 103 C 8.0486 -0.111842 -4.27854 0
M  V30 104 C 7.3746 0.872274 -5.27537 0
M  V30 105 C 8.6746 -1.30299 -5.05786 0
M  V30 106 H 10.3686 -1.01294 -2.81744 0
M  V30 107 H 7.9146 -0.48854 -1.3546 0
M  V30 108 H 9.8676 1.07464 -4.07467 0
M  V30 109 H 8.5916 1.49328 -2.90463 0
M  V30 110 H 7.2506 -0.512053 -3.63006 0
M  V30 111 H 6.8986 1.70523 -4.73214 0
M  V30 112 H 6.5986 0.363291 -5.86476 0
M  V30 113 H 8.1226 1.28996 -5.96818 0
M  V30 114 H 9.5366 -0.959379 -5.65216 0
M  V30 115 H 7.9336 -1.7455 -5.74154 0
M  V30 116 H 9.0036 -2.09663 -4.37229 0
M  V30 117 N 10.3467 1.47872 -0.545128 0
M  V30 118 C 11.5747 2.06889 -0.021084 0
M  V30 119 C 11.9897 1.39955 1.2672 0
M  V30 120 O 11.3467 0.492036 1.75742 0
M  V30 121 C 11.3977 3.60996 0.190817 0
M  V30 122 O 11.1187 4.25419 -1.04644 0
M  V30 123 C 12.6197 4.36849 0.753521 0
M  V30 124 H 9.8397 0.669785 -0.0403635 0
M  V30 125 H 12.3837 1.90049 -0.755095 0
M  V30 126 H 10.5387 3.77391 0.87492 0
M  V30 127 H 10.9527 5.17785 -0.836611 0
M  V30 128 H 12.4267 5.45399 0.851139 0
M  V30 129 H 12.9037 4.02306 1.762 0
M  V30 130 H 13.5097 4.25169 0.105503 0
M  V30 131 N 11.8248 0.280983 1.55075 0
M  V30 132 C 13.0718 -0.334115 1.99725 0
M  V30 133 C 13.3998 -1.5542 1.1694 0
M  V30 134 O 12.6548 -1.94361 0.228531 0
M  V30 135 C 12.9538 -0.754656 3.49342 0
M  V30 136 C 12.6198 0.361445 4.49449 0
M  V30 137 C 11.2818 0.667893 4.76542 0
M  V30 138 C 13.6338 1.11322 5.09173 0
M  V30 139 C 10.9618 1.7296 5.60626 0
M  V30 140 C 13.3138 2.1647 5.9441 0
M  V30 141 C 11.9778 2.47742 6.19822 0
M  V30 142 H 11.2478 -0.122261 0.730844 0
M  V30 143 H 13.8948 0.395917 1.87363 0
M  V30 144 H 12.1998 -1.56446 3.5921 0
M  V30 145 H 13.8968 -1.24142 3.813 0
M  V30 146 H 10.4868 0.112481 4.28452 0
M  V30 147 H 14.6708 0.88973 4.8826 0
M  V30 148 H 9.9268 1.97684 5.78559 0
M  V30 149 H 14.1008 2.75193 6.3972 0
M  V30 150 H 11.7278 3.30145 6.84769 0
M  V30 151 N 13.3029 -1.57598 0.00835791 0
M  V30 152 C 14.5279 -1.95617 -0.689103 0
M  V30 153 C 14.9529 -0.883753 -1.66046 0
M  V30 154 O 14.3109 0.157352 -1.80616 0
M  V30 155 C 14.3589 -3.32736 -1.38994 0
M  V30 156 O 13.4629 -3.27631 -2.50463 0
M  V30 157 H 12.8039 -0.638379 -0.182668 0
M  V30 158 H 15.3339 -2.045 0.064036 0
M  V30 159 H 15.3439 -3.68494 -1.75147 0
M  V30 160 H 14.0189 -4.1034 -0.677778 0
M  V30 161 H 12.5959 -3.03561 -2.16576 0
M  V30 162 N 14.781 0.264519 -1.55364 0
M  V30 163 C 16.192 0.834936 -1.6699 0
M  V30 164 C 16.543 1.86718 -0.602552 0
M  V30 165 O 15.668 2.14899 0.254425 0
M  V30 166 C 16.263 1.5212 -3.02729 0
M  V30 167 C 14.822 2.03954 -3.16354 0
M  V30 168 C 13.969 0.884498 -2.62815 0
M  V30 169 H 16.92 0.0406869 -1.58648 0
M  V30 170 H 16.941 2.38853 -2.96191 0
M  V30 171 H 16.453 0.769668 -3.80392 0
M  V30 172 H 14.554 2.82041 -2.43482 0
M  V30 173 H 14.667 2.24902 -4.23032 0
M  V30 174 H 13.031 1.2802 -2.20188 0
M  V30 175 H 13.814 0.14634 -3.42988 0
M  V30 176 N 16.2591 1.48442 0.529413 0
M  V30 177 C 17.4991 1.58086 1.29569 0
M  V30 178 C 17.8631 0.249302 1.90375 0
M  V30 179 O 19.0641 0.220738 2.67892 0
M  V30 180 C 17.3351 2.68793 2.35552 0
M  V30 181 S 18.8941 2.98207 3.21898 0
M  V30 182 H 15.7121 0.557922 0.440732 0
M  V30 183 H 18.3141 1.85966 0.603059 0
M  V30 184 H 17.0181 3.64102 1.89363 0
M  V30 185 H 16.5491 2.42817 3.09522 0
M  V30 186 H 18.5641 2.37548 4.35644 0
M  V30 187 N 17.7372 -0.778329 1.37039 0
M  V30 188 C 18.9832 -1.53892 1.32079 0
M  V30 189 C 19.3162 -1.9396 -0.0965386 0
M  V30 190 O 18.5912 -1.63568 -1.05242 0
M  V30 191 C 18.8742 -2.80847 2.25382 0
M  V30 192 C 18.7272 -2.47076 3.75864 0
M  V30 193 C 20.0462 -3.82741 2.1725 0
M  V30 194 H 17.1652 -0.558303 0.48111 0
M  V30 195 H 19.8072 -0.893397 1.67685 0
M  V30 196 H 17.9572 -3.35931 1.95148 0
M  V30 197 H 19.6292 -1.97957 4.16666 0
M  V30 198 H 17.8722 -1.79863 3.94755 0
M  V30 199 H 18.5432 -3.37798 4.36574 0
M  V30 200 H 21.0192 -3.37133 2.43887 0
M  V30 201 H 19.8952 -4.69303 2.84686 0
M  V30 202 H 20.1562 -4.2652 1.16331 0
M  V30 203 N 19.2153 -1.21501 -1.00376 0
M  V30 204 C 20.1453 -0.999478 -2.11028 0
M  V30 205 C 21.1263 0.0759671 -1.6993 0
M  V30 206 O 22.3113 -0.0841106 -1.94018 0
M  V30 207 C 19.4413 -0.564709 -3.42678 0
M  V30 208 C 18.3953 -1.58486 -3.97576 0
M  V30 209 C 17.7213 -1.00628 -5.25146 0
M  V30 210 C 19.0213 -2.97204 -4.29496 0
M  V30 211 H 20.7153 -1.92495 -2.29317 0
M  V30 212 H 18.2613 -0.92693 -1.102 0
M  V30 213 H 20.2143 -0.401091 -4.19487 0
M  V30 214 H 18.9383 0.396411 -3.24185 0
M  V30 215 H 17.5973 -1.73606 -3.22888 0
M  V30 216 H 17.2453 -0.0368439 -5.02987 0
M  V30 217 H 16.9453 -1.68771 -5.62841 0
M  V30 218 H 18.4693 -0.854015 -6.04598 0
M  V30 219 H 19.8833 -2.8552 -4.97143 0
M  V30 220 H 18.2803 -3.62372 -4.78338 0
M  V30 221 H 19.3503 -3.47956 -3.3772 0
M  V30 222 N 20.6934 1.19889 -1.02296 0
M  V30 223 C 21.6234 2.25141 -0.619174 0
M  V30 224 C 22.6044 1.66051 0.368915 0
M  V30 225 O 23.7894 1.92546 0.252941 0
M  V30 226 C 20.9194 3.4728 0.0368783 0
M  V30 227 C 19.8734 4.19005 -0.872865 0
M  V30 228 C 19.1994 5.34637 -0.0822402 0
M  V30 229 C 20.4994 4.74452 -2.18387 0
M  V30 230 H 22.1934 2.59171 -1.49903 0
M  V30 231 H 19.7394 1.24579 -0.722222 0
M  V30 232 H 21.6924 4.20098 0.330958 0
M  V30 233 H 20.4164 3.12433 0.95149 0
M  V30 234 H 19.0754 3.48061 -1.15105 0
M  V30 235 H 18.7234 4.96034 0.83422 0
M  V30 236 H 18.4234 5.83557 -0.688149 0
M  V30 237 H 19.9474 6.10255 0.205238 0
M  V30 238 H 21.3614 5.39055 -1.95172 0
M  V30 239 H 19.7584 5.33834 -2.74119 0
M  V30 240 H 20.8284 3.92844 -2.84257 0
M  V30 241 N 22.1715 0.800033 1.35784 0
M  V30 242 C 23.4195 0.376597 1.9856 0
M  V30 243 C 23.7405 -1.05812 1.63795 0
M  V30 244 O 23.0105 -1.73103 0.917171 0
M  V30 245 H 21.5905 0.136261 0.734467 0
M  V30 246 H 24.2525 1.02442 1.65806 0
M  V30 247 H 23.3485 0.477002 3.08433 0
M  V30 248 N 23.6496 -1.47581 0.552962 0
M  V30 249 C 24.8956 -2.03369 0.0355807 0
M  V30 250 C 25.2506 -1.42016 -1.29805 0
M  V30 251 O 24.5436 -0.564917 -1.83083 0
M  V30 252 C 24.7376 -3.57199 -0.119728 0
M  V30 253 C 24.5666 -4.33468 1.1973 0
M  V30 254 C 23.3366 -4.7353 1.76345 0
M  V30 255 C 25.5346 -4.68866 2.11351 0
M  V30 256 N 23.5166 -5.34426 3.02097 0
M  V30 257 C 24.8876 -5.3002 3.21681 0
M  V30 258 C 26.9426 -4.50795 2.11397 0
M  V30 259 C 25.6456 -5.75011 4.32151 0
M  V30 260 C 27.6716 -4.96782 3.20876 0
M  V30 261 C 27.0336 -5.57981 4.29926 0
M  V30 262 H 23.1326 -0.780058 0.0550806 0
M  V30 263 H 25.7166 -1.80117 0.739315 0
M  V30 264 H 23.8876 -3.80227 -0.792579 0
M  V30 265 H 25.6196 -3.99627 -0.638792 0
M  V30 266 H 22.3746 -4.55352 1.30196 0
M  V30 267 H 22.7986 -5.69421 3.66182 0
M  V30 268 H 27.4406 -4.0284 1.28372 0
M  V30 269 H 25.1586 -6.21959 5.15938 0
M  V30 270 H 28.7446 -4.84573 3.21994 0
M  V30 271 H 27.6246 -5.92918 5.13243 0
M  V30 272 N 25.1277 -0.289203 -1.54924 0
M  V30 273 C 26.0907 0.579144 -2.21762 0
M  V30 274 C 27.0907 1.07047 -1.1999 0
M  V30 275 O 28.2807 0.968384 -1.44803 0
M  V30 276 C 25.4127 1.80055 -2.8947 0
M  V30 277 H 26.6057 -0.00464908 -2.999 0
M  V30 278 H 24.1587 -0.0399306 -1.56249 0
M  V30 279 H 24.8937 2.42449 -2.15381 0
M  V30 280 H 24.6787 1.45602 -3.64064 0
M  V30 281 H 26.1687 2.41773 -3.40493 0
M  V30 282 N 26.6058 1.57591 -0.0167156 0
M  V30 283 C 27.5358 2.12496 0.967858 0
M  V30 284 C 28.5168 1.03807 1.34752 0
M  V30 285 O 29.7018 1.31577 1.42833 0
M  V30 286 C 26.8318 2.64194 2.25431 0
M  V30 287 C 25.7858 3.77559 2.01576 0
M  V30 288 C 25.1118 4.15636 3.36379 0
M  V30 289 C 26.4118 5.04151 1.36489 0
M  V30 290 H 28.1058 2.95013 0.510643 0
M  V30 291 H 25.6518 1.41915 0.244181 0
M  V30 292 H 27.6048 3.01236 2.94678 0
M  V30 293 H 26.3288 1.78821 2.73296 0
M  V30 294 H 24.9878 3.40937 1.34751 0
M  V30 295 H 24.6358 3.27263 3.81979 0
M  V30 296 H 24.3358 4.92022 3.21229 0
M  V30 297 H 25.8598 4.5525 4.06915 0
M  V30 298 H 27.2738 5.38857 1.95718 0
M  V30 299 H 25.6708 5.85453 1.31776 0
M  V30 300 H 26.7408 4.83733 0.336219 0
M  V30 301 N 28.0839 -0.256276 1.55502 0
M  V30 302 C 29.0139 -1.32102 1.92539 0
M  V30 303 C 29.9949 -1.50684 0.789194 0
M  V30 304 O 31.1799 -1.63449 1.04872 0
M  V30 305 C 28.3099 -2.67752 2.21192 0
M  V30 306 C 27.2639 -2.63878 3.36975 0
M  V30 307 C 26.5899 -4.03236 3.51147 0
M  V30 308 C 27.8899 -2.21682 4.72921 0
M  V30 309 H 29.5839 -1.01351 2.81724 0
M  V30 310 H 27.1299 -0.486105 1.35547 0
M  V30 311 H 29.0829 -3.42365 2.45691 0
M  V30 312 H 27.8069 -3.0012 1.28824 0
M  V30 313 H 26.4659 -1.91722 3.12471 0
M  V30 314 H 26.1139 -4.32854 2.56216 0
M  V30 315 H 25.8139 -4.01535 4.29003 0
M  V30 316 H 27.3379 -4.79563 3.77957 0
M  V30 317 H 28.7519 -2.86023 4.96854 0
M  V30 318 H 27.1489 -2.3111 5.53812 0
M  V30 319 H 28.2189 -1.16833 4.70615 0
M  V30 320 N 29.562 -1.4872 -0.521534 0
M  V30 321 C 30.525 -1.63379 -1.60748 0
M  V30 322 C 31.525 -0.50661 -1.52611 0
M  V30 323 O 32.715 -0.772601 -1.5613 0
M  V30 324 C 29.847 -1.61192 -3.00383 0
M  V30 325 H 31.04 -2.60217 -1.49087 0
M  V30 326 H 28.593 -1.37444 -0.744235 0
M  V30 327 H 29.328 -0.65863 -3.17541 0
M  V30 328 H 29.113 -2.43032 -3.07698 0
M  V30 329 H 30.603 -1.7466 -3.7932 0
M  V30 330 N 31.0401 0.771051 -1.3745 0
M  V30 331 C 32.2881 1.52661 -1.32435 0
M  V30 332 C 32.6091 1.9479 0.0905024 0
M  V30 333 O 31.8791 1.66348 1.03466 0
M  V30 334 H 30.4591 0.566218 -0.487244 0
M  V30 335 H 33.1211 0.917636 -1.71946 0
M  V30 336 H 32.2171 2.42568 -1.96385 0
M  V30 337 N 32.5182 1.22032 0.997298 0
M  V30 338 C 33.7662 1.04016 1.73278 0
M  V30 339 C 34.0872 -0.426255 1.90284 0
M  V30 340 O 33.3572 -1.30694 1.45931 0
M  V30 341 H 31.9372 0.381897 0.642 0
M  V30 342 H 34.5992 1.5347 1.20137 0
M  V30 343 H 33.6952 1.51441 2.72896 0
M  V30 344 N 33.9963 -1.19345 1.0293 0
M  V30 345 C 35.2243 -1.92997 0.745644 0
M  V30 346 C 35.6393 -1.75519 -0.695589 0
M  V30 347 O 34.9963 -1.07737 -1.47306 0
M  V30 348 C 35.0473 -3.44741 1.08792 0
M  V30 349 O 34.7683 -3.61658 2.47256 0
M  V30 350 C 36.2693 -4.35515 0.827129 0
M  V30 351 H 33.4893 -0.613042 0.272801 0
M  V30 352 H 36.0333 -1.51473 1.3739 0
M  V30 353 H 34.1883 -3.84097 0.504832 0
M  V30 354 H 34.6023 -4.55514 2.60015 0
M  V30 355 H 36.0763 -5.40589 1.11658 0
M  V30 356 H 36.5533 -4.38552 -0.238436 0
M  V30 357 H 37.1593 -4.01841 1.39297 0
M  V30 358 N 35.4744 -0.807222 -1.35358 0
M  V30 359 C 36.7224 -0.387122 -1.98358 0
M  V30 360 C 37.0434 1.04942 -1.64354 0
M  V30 361 O 36.3134 1.72615 -0.926339 0
M  V30 362 H 34.8934 -0.140154 -0.733734 0
M  V30 363 H 37.5554 -1.0332 -1.6526 0
M  V30 364 H 36.6514 -0.493352 -3.08176 0
M  V30 365 N 36.9525 1.47285 -0.560781 0
M  V30 366 C 38.2005 2.02064 -0.0379868 0
M  V30 367 C 38.5215 1.43711 1.31803 0
M  V30 368 O 37.7915 0.61362 1.86042 0
M  V30 369 H 36.3715 0.746918 -0.0110531 0
M  V30 370 H 39.0335 1.80648 -0.731598 0
M  V30 371 H 38.1295 3.12064 0.0474463 0
M  V30 372 N 38.4306 0.297415 1.54768 0
M  V30 373 C 39.6786 -0.312295 1.99673 0
M  V30 374 C 39.9996 -1.54686 1.18732 0
M  V30 375 O 39.2696 -1.93854 0.282382 0
M  V30 376 H 37.8496 -0.118381 0.73756 0
M  V30 377 H 40.5116 0.407915 1.90583 0
M  V30 378 H 39.6076 -0.586813 3.06534 0
M  V30 379 N 39.9087 -1.5758 0.0250728 0
M  V30 380 C 41.1567 -1.91255 -0.653151 0
M  V30 381 C 41.4777 -0.901691 -1.729 0
M  V30 382 O 40.7477 0.0573785 -1.95816 0
M  V30 383 H 39.3277 -0.705942 -0.244243 0
M  V30 384 H 41.9897 -1.94767 0.0719209 0
M  V30 385 H 41.0857 -2.91752 -1.10847 0
M  V30 386 N 41.3868 0.248026 -1.55636 0
M  V30 387 C 42.6328 0.97767 -1.77678 0
M  V30 388 C 42.9658 1.85016 -0.590135 0
M  V30 389 O 42.2408 1.90095 0.411611 0
M  V30 390 C 42.5238 1.83914 -3.09593 0
M  V30 391 C 42.3768 0.99491 -4.38659 0
M  V30 392 C 43.6958 2.82183 -3.37729 0
M  V30 393 H 40.8148 0.354005 -0.646413 0
M  V30 394 H 43.4568 0.248253 -1.88371 0
M  V30 395 H 41.6068 2.46104 -3.00608 0
M  V30 396 H 43.2788 0.391789 -4.59633 0
M  V30 397 H 41.5218 0.299231 -4.32767 0
M  V30 398 H 42.1928 1.63145 -5.2734 0
M  V30 399 H 44.6688 2.30129 -3.4667 0
M  V30 400 H 43.5448 3.39582 -4.31249 0
M  V30 401 H 43.8058 3.58588 -2.58586 0
M  V30 402 N 42.8649 1.48995 0.513639 0
M  V30 403 C 44.1129 1.57531 1.26604 0
M  V30 404 C 44.4339 0.258236 1.93283 0
M  V30 405 O 43.7039 -0.721502 1.8213 0
M  V30 406 H 42.2839 0.580387 0.470276 0
M  V30 407 H 44.9459 1.85552 0.596373 0
M  V30 408 H 44.0419 2.36486 2.03669 0
M  V30 409 N 44.343 -0.763751 1.37857 0
M  V30 410 C 45.591 -1.51957 1.33243 0
M  V30 411 C 45.912 -1.94835 -0.0801709 0
M  V30 412 O 45.182 -1.66894 -1.02582 0
M  V30 413 H 43.762 -0.563626 0.49024 0
M  V30 414 H 46.424 -0.908504 1.7243 0
M  V30 415 H 45.52 -2.41523 1.97669 0
M  V30 416 N 45.8211 -1.22559 -0.990812 0
M  V30 417 C 47.0691 -1.04933 -1.72724 0
M  V30 418 C 47.3901 0.416158 -1.90508 0
M  V30 419 O 46.6601 1.29918 -1.46622 0
M  V30 420 H 45.2401 -0.385296 -0.639965 0
M  V30 421 H 47.9021 -1.54105 -1.19322 0
M  V30 422 H 46.9981 -1.52886 -2.72089 0
M  V30 423 N 47.2992 1.18797 -1.03562 0
M  V30 424 C 48.5472 1.88278 -0.734569 0
M  V30 425 C 48.8682 1.8043 0.739586 0
M  V30 426 O 48.1382 1.21925 1.53333 0
M  V30 427 H 46.7182 0.696991 -0.268725 0
M  V30 428 H 49.3802 1.44192 -1.31129 0
M  V30 429 H 48.4762 2.94443 -1.03489 0
M  V30 430 N 48.7773 0.814389 1.34928 0
M  V30 431 C 50.0253 0.397636 1.9815 0
M  V30 432 C 50.3463 -1.04069 1.64908 0
M  V30 433 O 49.6163 -1.72121 0.93548 0
M  V30 434 H 48.1963 0.144043 0.732981 0
M  V30 435 H 50.8583 1.04195 1.6471 0
M  V30 436 H 49.9543 0.509688 3.0791 0
M  V30 437 N 50.2554 -1.46986 0.568584 0
M  V30 438 C 51.5034 -2.02041 0.0487022 0
M  V30 439 C 51.8244 -1.44408 -1.31039 0
M  V30 440 O 51.0944 -0.623477 -1.85714 0
M  V30 441 H 49.6744 -0.746849 0.015014 0
M  V30 442 H 52.3364 -1.80257 0.741168 0
M  V30 443 H 51.4324 -3.12085 -0.0308961 0
M  V30 444 N 51.7335 -0.305618 -1.54608 0
M  V30 445 C 52.6965 0.555591 -2.22364 0
M  V30 446 C 53.6965 1.05768 -1.21119 0
M  V30 447 O 54.8865 0.952972 -1.45822 0
M  V30 448 C 52.0185 1.76974 -2.91364 0
M  V30 449 H 53.2115 -0.0364572 -2.99878 0
M  V30 450 H 50.7645 -0.0565007 -1.56198 0
M  V30 451 H 51.4995 2.40151 -2.17941 0
M  V30 452 H 51.2845 1.41732 -3.65588 0
M  V30 453 H 52.7745 2.38148 -3.43038 0
M  V30 454 N 53.2116 1.57565 -0.0334293 0
M  V30 455 C 54.4596 1.91598 0.642999 0
M  V30 456 C 54.7806 0.910847 1.7242 0
M  V30 457 O 54.0506 -0.0469931 1.95844 0
M  V30 458 H 52.6306 0.707228 0.240496 0
M  V30 459 H 55.2926 1.94726 -0.0822488 0
M  V30 460 H 54.3886 2.92336 1.09298 0
M  V30 461 N 54.6897 -0.239769 1.55765 0
M  V30 462 C 55.9387 -0.964754 1.77131 0
M  V30 463 C 56.2517 -1.86213 0.59868 0
M  V30 464 O 57.4577 -2.6244 0.695522 0
M  V30 465 C 55.9137 -1.76552 3.1362 0
M  V30 466 C 55.5217 -0.915185 4.38553 0
M  V30 467 C 57.2657 -2.48281 3.44321 0
M  V30 468 C 55.1727 -1.71225 5.66071 0
M  V30 469 H 54.1027 -0.363953 0.660344 0
M  V30 470 H 56.7537 -0.219181 1.82186 0
M  V30 471 H 55.1357 -2.55331 3.02691 0
M  V30 472 H 56.3097 -0.169217 4.60489 0
M  V30 473 H 54.6247 -0.310889 4.15238 0
M  V30 474 H 57.2217 -3.08382 4.36812 0
M  V30 475 H 57.5647 -3.20256 2.65973 0
M  V30 476 H 58.0977 -1.76507 3.56497 0
M  V30 477 H 54.8367 -1.03612 6.4726 0
M  V30 478 H 54.3567 -2.43331 5.48224 0
M  V30 479 H 56.0357 -2.27758 6.05587 0
M  V30 480 N 56.1678 -1.49265 -0.50573 0
M  V30 481 C 57.4158 -1.582 -1.25766 0
M  V30 482 C 57.7368 -0.268482 -1.93143 0
M  V30 483 O 57.0068 0.711833 -1.8251 0
M  V30 484 H 55.5868 -0.582873 -0.467191 0
M  V30 485 H 58.2488 -1.85865 -0.586525 0
M  V30 486 H 57.3448 -2.37563 -2.02412 0
M  V30 487 N 57.6459 0.756429 -1.3826 0
M  V30 488 C 58.8939 1.51248 -1.34047 0
M  V30 489 C 59.2149 1.94875 0.0698372 0
M  V30 490 O 58.4849 1.67436 1.01696 0
M  V30 491 H 57.0649 0.561018 -0.493222 0
M  V30 492 H 59.7269 0.899347 -1.7291 0
M  V30 493 H 58.8229 2.40472 -1.98947 0
M  V30 494 N 59.124 1.23083 0.984299 0
M  V30 495 C 60.372 1.05848 1.72165 0
M  V30 496 C 60.693 -0.406049 1.90726 0
M  V30 497 O 59.963 -1.29139 1.47309 0
M  V30 498 H 58.543 0.388685 0.637913 0
M  V30 499 H 61.205 1.54736 1.18503 0
M  V30 500 H 60.301 1.54327 2.71274 0
M  V30 501 N 60.6021 -1.18246 1.0419 0
M  V30 502 C 62.0181 -1.40269 0.761366 0
M  V30 503 C 62.2181 -1.90777 -0.648578 0
M  V30 504 O 61.2741 -2.0929 -1.41258 0
M  V30 505 C 62.5871 -2.40237 1.8085 0
M  V30 506 C 64.1351 -2.53961 1.82955 0
M  V30 507 C 64.6101 -3.57194 2.86664 0
M  V30 508 N 66.1011 -3.64702 2.85563 0
M  V30 509 C 66.8361 -4.44309 3.6246 0
M  V30 510 N 66.3321 -5.27514 4.49111 0
M  V30 511 N 68.1251 -4.39084 3.50944 0
M  V30 512 H 60.2761 -0.837882 1.95175 0
M  V30 513 H 62.5391 -0.430608 0.84456 0
M  V30 514 H 62.2451 -2.10176 2.81991 0
M  V30 515 H 62.1191 -3.39601 1.64168 0
M  V30 516 H 64.5061 -2.83338 0.824855 0
M  V30 517 H 64.5871 -1.54706 2.03715 0
M  V30 518 H 64.2311 -3.28558 3.87314 0
M  V30 519 H 64.1611 -4.5613 2.6316 0
M  V30 520 H 66.6521 -3.05289 2.22727 0
M  V30 521 H 66.9651 -5.85411 5.04493 0
M  V30 522 H 65.3101 -5.2693 4.53178 0
M  V30 523 H 68.5011 -3.7313 2.82651 0
M  V30 524 H 68.6741 -5.00883 4.11121 0
M  V30 525 N 62.0802 -0.821533 -1.34494 0
M  V30 526 C 63.0122 -0.199946 -2.28326 0
M  V30 527 C 64.0252 0.609377 -1.50965 0
M  V30 528 O 65.2142 0.439285 -1.7301 0
M  V30 529 C 62.3142 0.738431 -3.30757 0
M  V30 530 C 61.4872 -0.0277632 -4.37391 0
M  V30 531 C 60.5462 0.831332 -5.19591 0
M  V30 532 O 59.5722 0.276822 -5.68526 0
M  V30 533 N 60.7742 2.15132 -5.39165 0
M  V30 534 H 63.5392 -1.00609 -2.82308 0
M  V30 535 H 61.1002 -0.678366 -1.47003 0
M  V30 536 H 63.0922 1.31773 -3.82646 0
M  V30 537 H 61.6622 1.44533 -2.7718 0
M  V30 538 H 60.8822 -0.788359 -3.86236 0
M  V30 539 H 62.1702 -0.555251 -5.05761 0
M  V30 540 H 61.5682 2.62559 -5.01078 0
M  V30 541 H 60.1252 2.6795 -5.94177 0
M  V30 542 N 63.5583 1.46682 -0.576371 0
M  V30 543 C 64.4683 2.34032 0.163141 0
M  V30 544 C 65.4843 1.49367 0.892501 0
M  V30 545 O 66.6603 1.82252 0.857106 0
M  V30 546 C 63.7253 3.26435 1.16795 0
M  V30 547 C 62.7863 4.26998 0.443944 0
M  V30 548 C 62.0193 5.14986 1.40088 0
M  V30 549 O 62.2423 5.05785 2.637 0
M  V30 550 O 61.1763 5.94906 0.914917 0
M  V30 551 H 65.0023 2.98607 -0.55388 0
M  V30 552 H 62.5873 1.45554 -0.336821 0
M  V30 553 H 64.4693 3.83459 1.74748 0
M  V30 554 H 63.1443 2.64465 1.86655 0
M  V30 555 H 62.0513 3.7368 -0.177271 0
M  V30 556 H 63.3843 4.91736 -0.213566 0
M  V30 557 N 65.0364 0.313813 1.54444 0
M  V30 558 C 66.4524 -0.0391619 1.59552 0
M  V30 559 C 66.6524 -1.51322 1.33056 0
M  V30 560 O 65.7084 -2.26782 1.11022 0
M  V30 561 C 67.0214 0.370302 2.98411 0
M  V30 562 C 68.5694 0.320139 3.11358 0
M  V30 563 C 69.0444 0.704617 4.52547 0
M  V30 564 N 70.5354 0.657645 4.58508 0
M  V30 565 C 71.2704 0.927453 5.6585 0
M  V30 566 N 70.7664 1.26389 6.81174 0
M  V30 567 N 72.5594 0.853662 5.5558 0
M  V30 568 H 64.7104 1.27433 1.69925 0
M  V30 569 H 66.9734 0.517511 0.794284 0
M  V30 570 H 66.6794 1.39694 3.22767 0
M  V30 571 H 66.5534 -0.269619 3.76235 0
M  V30 572 H 68.9404 -0.697275 2.86744 0
M  V30 573 H 69.0214 0.99486 2.35661 0
M  V30 574 H 68.6654 1.7199 4.77893 0
M  V30 575 H 68.5954 0.00768843 5.26599 0
M  V30 576 H 71.0864 0.409067 3.75679 0
M  V30 577 H 71.3994 1.4554 7.58972 0
M  V30 578 H 69.7444 1.30206 6.82694 0
M  V30 579 H 72.9354 0.590383 4.64362 0
M  V30 580 H 73.1084 1.0673 6.3915 0
M  V30 581 N 66.5145 -1.57545 0.0417849 0
M  V30 582 C 67.4245 -2.14451 -0.951213 0
M  V30 583 C 68.4405 -1.09992 -1.34825 0
M  V30 584 O 69.6165 -1.42114 -1.42708 0
M  V30 585 C 66.6815 -2.67063 -2.21084 0
M  V30 586 C 65.7425 -3.86284 -1.87304 0
M  V30 587 C 64.9755 -4.36378 -3.07261 0
M  V30 588 O 65.1985 -3.85587 -4.20332 0
M  V30 589 O 64.1325 -5.28077 -2.88822 0
M  V30 590 H 67.9585 -2.99601 -0.497287 0
M  V30 591 H 65.5435 -1.48317 -0.179567 0
M  V30 592 H 67.4255 -3.00914 -2.95006 0
M  V30 593 H 66.1005 -1.84989 -2.65633 0
M  V30 594 H 65.0075 -3.57338 -1.10727 0
M  V30 595 H 66.3405 -4.6956 -1.47562 0
M  V30 596 N 67.9926 0.231505 -1.5589 0
M  V30 597 C 68.9556 1.27028 -1.90779 0
M  V30 598 C 69.9556 1.40308 -0.785507 0
M  V30 599 O 71.1456 1.38744 -1.05336 0
M  V30 600 C 68.2776 2.64566 -2.14983 0
M  V30 601 H 69.4706 0.973017 -2.83677 0
M  V30 602 H 67.0236 0.471486 -1.49019 0
M  V30 603 H 67.7586 2.99406 -1.24604 0
M  V30 604 H 67.5436 2.56305 -2.96732 0
M  V30 605 H 69.0336 3.39543 -2.43105 0
M  V30 606 N 69.4707 1.49531 0.497807 0
M  V30 607 C 70.4007 1.6935 1.60757 0
M  V30 608 C 71.3817 0.542218 1.61227 0
M  V30 609 O 72.5667 0.778417 1.77917 0
M  V30 610 C 69.6967 1.76298 2.99226 0
M  V30 611 C 68.6507 2.91248 3.13622 0
M  V30 612 C 67.9767 2.83312 4.53474 0
M  V30 613 C 69.2767 4.3214 2.93346 0
M  V30 614 H 70.9707 2.62263 1.44425 0
M  V30 615 H 68.5167 1.26208 0.693367 0
M  V30 616 H 70.4697 1.88749 3.76765 0
M  V30 617 H 69.1937 0.799871 3.16654 0
M  V30 618 H 67.8527 2.78404 2.38509 0
M  V30 619 H 67.5007 1.84902 4.67782 0
M  V30 620 H 67.2007 3.60465 4.64046 0
M  V30 621 H 68.7247 2.97775 5.33069 0
M  V30 622 H 70.1387 4.45649 3.60652 0
M  V30 623 H 68.5357 5.1054 3.15387 0
M  V30 624 H 69.6057 4.46363 1.89441 0
M  V30 625 N 70.9488 -0.749086 1.3866 0
M  V30 626 C 72.3598 -1.32664 1.31366 0
M  V30 627 C 72.7108 -1.96179 -0.028484 0
M  V30 628 O 71.8358 -1.9537 -0.93057 0
M  V30 629 C 72.4308 -2.41219 2.37905 0
M  V30 630 C 70.9898 -2.94684 2.34176 0
M  V30 631 C 70.1368 -1.68108 2.20533 0
M  V30 632 H 73.0878 -0.547628 1.48952 0
M  V30 633 H 73.1088 -3.21268 2.0388 0
M  V30 634 H 72.6208 -1.94962 3.35576 0
M  V30 635 H 70.7218 -3.45258 1.401 0
M  V30 636 H 70.8348 -3.48757 3.2849 0
M  V30 637 H 69.1988 -1.91907 1.67463 0
M  V30 638 H 69.9818 -1.23923 3.20153 0
M  V30 639 N 72.4269 -1.23603 -0.977757 0
M  V30 640 C 73.8379 -1.06424 -1.53398 0
M  V30 641 C 74.1889 0.367578 -1.92726 0
M  V30 642 O 73.3139 1.25465 -1.76316 0
M  V30 643 C 73.9089 -1.92568 -2.78753 0
M  V30 644 C 72.4679 -1.79642 -3.30765 0
M  V30 645 C 71.6149 -1.88111 -2.03739 0
M  V30 646 H 74.5659 -1.37227 -0.797152 0
M  V30 647 H 74.5869 -1.45203 -3.51705 0
M  V30 648 H 74.0989 -2.96771 -2.50098 0
M  V30 649 H 72.1999 -0.782325 -3.64294 0
M  V30 650 H 72.3129 -2.63174 -4.00345 0
M  V30 651 H 70.6769 -1.31723 -2.17994 0
M  V30 652 H 71.4599 -2.93875 -1.77461 0
M  V30 653 N 73.905 1.17692 -1.04816 0
M  V30 654 C 74.837 2.21103 -0.603822 0
M  V30 655 C 75.85 1.59411 0.33046 0
M  V30 656 O 77.039 1.7807 0.12379 0
M  V30 657 C 74.139 3.38623 0.136898 0
M  V30 658 C 73.312 4.29888 -0.807137 0
M  V30 659 C 72.371 5.26088 -0.10836 0
M  V30 660 O 71.397 5.64353 -0.741232 0
M  V30 661 N 72.599 5.68882 1.15558 0
M  V30 662 H 75.364 2.59848 -1.49329 0
M  V30 663 H 72.925 1.32553 -0.929587 0
M  V30 664 H 74.917 4.00009 0.614401 0
M  V30 665 H 73.487 2.98508 0.927993 0
M  V30 666 H 72.707 3.65993 -1.46434 0
M  V30 667 H 73.995 4.87759 -1.44807 0
M  V30 668 H 73.393 5.39861 1.69015 0
M  V30 669 H 71.95 6.32429 1.57722 0
M  V30 670 N 75.3831 0.828654 1.34056 0
M  V30 671 C 76.3301 0.252567 2.29414 0
M  V30 672 C 77.3001 -0.62588 1.53857 0
M  V30 673 O 78.4851 -0.566312 1.82202 0
M  V30 674 C 75.6251 -0.574831 3.40279 0
M  V30 675 C 74.7381 0.326499 4.30764 0
M  V30 676 C 73.8731 -0.511016 5.28736 0
M  V30 677 C 72.9121 0.389342 6.1086 0
M  V30 678 N 72.0491 -0.409439 7.00905 0
M  V30 679 H 76.8891 1.07108 2.78086 0
M  V30 680 H 74.4261 0.539677 1.36843 0
M  V30 681 H 76.3841 -1.06992 4.03248 0
M  V30 682 H 75.0141 -1.35841 2.92826 0
M  V30 683 H 74.0661 0.939837 3.68607 0
M  V30 684 H 75.3781 1.01857 4.88289 0
M  V30 685 H 74.5321 -1.07035 5.97184 0
M  V30 686 H 73.2711 -1.23657 4.71763 0
M  V30 687 H 72.2761 0.960769 5.4134 0
M  V30 688 H 73.5011 1.1131 6.69916 0
M  V30 689 H 71.4471 -1.11856 6.46393 0
M  V30 690 H 71.3641 0.224126 7.55668 0
M  V30 691 H 72.6321 -0.951336 7.73673 0
M  V30 692 N 76.8612 -1.46375 0.584142 0
M  V30 693 C 78.1102 -2.01585 0.0679741 0
M  V30 694 C 78.4232 -1.46109 -1.30045 0
M  V30 695 O 79.6292 -1.93148 -1.90804 0
M  V30 696 C 78.0852 -3.5983 0.0709207 0
M  V30 697 C 77.6932 -4.24303 1.43775 0
M  V30 698 C 79.4372 -4.22693 -0.391228 0
M  V30 699 C 77.3442 -5.74631 1.39834 0
M  V30 700 H 76.2742 -0.753689 0.0216421 0
M  V30 701 H 78.9252 -1.68093 0.736001 0
M  V30 702 H 77.3072 -3.90405 -0.663299 0
M  V30 703 H 78.4812 -4.05335 2.19181 0
M  V30 704 H 76.7962 -3.73539 1.84004 0
M  V30 705 H 79.3932 -5.3289 -0.439524 0
M  V30 706 H 79.7362 -3.91728 -1.40906 0
M  V30 707 H 80.2692 -3.96749 0.288974 0
M  V30 708 H 77.0082 -6.10258 2.39303 0
M  V30 709 H 76.5282 -5.95858 0.686505 0
M  V30 710 H 78.2072 -6.37375 1.11187 0
M  V30 711 N 78.3393 -0.321999 -1.54275 0
M  V30 712 C 79.2493 0.553631 -2.27974 0
M  V30 713 C 80.2653 1.13054 -1.32268 0
M  V30 714 O 81.4413 1.15084 -1.6528 0
M  V30 715 C 78.5063 1.69927 -3.02201 0
M  V30 716 C 77.5673 1.15433 -4.1349 0
M  V30 717 C 76.8003 2.24537 -4.84168 0
M  V30 718 O 77.0233 3.44852 -4.5435 0
M  V30 719 O 75.9573 1.90044 -5.7111 0
M  V30 720 H 79.7833 -0.0448345 -3.03667 0
M  V30 721 H 77.3683 -0.0877418 -1.49142 0
M  V30 722 H 79.2503 2.3663 -3.48689 0
M  V30 723 H 77.9253 2.28395 -2.29385 0
M  V30 724 H 76.8323 0.452436 -3.71354 0
M  V30 725 H 78.1653 0.614805 -4.88345 0
M  V30 726 N 79.8174 1.5752 -0.0501392 0
M  V30 727 C 81.0634 1.92936 0.624798 0
M  V30 728 C 81.3964 0.928685 1.70555 0
M  V30 729 O 80.6714 -0.0454779 1.94447 0
M  V30 730 C 80.9544 3.38737 1.22185 0
M  V30 731 C 80.8074 4.49552 0.149218 0
M  V30 732 C 82.1264 3.84913 2.13378 0
M  V30 733 H 79.2454 0.701604 0.225657 0
M  V30 734 H 81.8874 1.89671 -0.111693 0
M  V30 735 H 80.0374 3.4165 1.84953 0
M  V30 736 H 81.7094 4.58768 -0.482648 0
M  V30 737 H 79.9524 4.30638 -0.522841 0
M  V30 738 H 80.6234 5.48653 0.606966 0
M  V30 739 H 83.0994 3.8387 1.60572 0
M  V30 740 H 81.9754 4.87584 2.52097 0
M  V30 741 H 82.2364 3.21611 3.03346 0
M  V30 742 N 81.2955 -0.223234 1.56011 0
M  V30 743 C 82.2255 -1.27988 1.95298 0
M  V30 744 C 83.2065 -1.48976 0.820979 0
M  V30 745 O 84.3915 -1.61188 1.08315 0
M  V30 746 C 81.5215 -2.63 2.26822 0
M  V30 747 C 80.4755 -2.56671 3.42497 0
M  V30 748 C 79.8015 -3.95697 3.59622 0
M  V30 749 C 81.1015 -2.11601 4.77517 0
M  V30 750 H 82.7955 -0.953525 2.8381 0
M  V30 751 H 80.3415 -0.457244 1.36548 0
M  V30 752 H 82.2945 -3.37077 2.52898 0
M  V30 753 H 81.0185 -2.9732 1.35161 0
M  V30 754 H 79.6775 -1.85051 3.16467 0
M  V30 755 H 79.3255 -4.27322 2.6534 0
M  V30 756 H 79.0255 -3.92345 4.37424 0
M  V30 757 H 80.5495 -4.71438 3.88044 0
M  V30 758 H 81.9635 -2.7542 5.02809 0
M  V30 759 H 80.3605 -2.19311 5.5859 0
M  V30 760 H 81.4305 -1.06824 4.72987 0
M  V30 761 N 82.7736 -1.49793 -0.48987 0
M  V30 762 C 84.0196 -1.60078 -1.24511 0
M  V30 763 C 84.3526 -0.291608 -1.91998 0
M  V30 764 O 83.6276 0.705647 -1.81248 0
M  V30 765 C 83.9106 -2.76791 -2.30345 0
M  V30 766 C 83.7636 -4.17535 -1.67286 0
M  V30 767 C 85.0826 -2.89111 -3.31817 0
M  V30 768 H 82.2016 -0.582645 -0.451324 0
M  V30 769 H 84.8436 -1.82117 -0.541612 0
M  V30 770 H 82.9936 -2.5813 -2.90346 0
M  V30 771 H 84.6656 -4.4774 -1.11026 0
M  V30 772 H 82.9086 -4.22665 -0.976577 0
M  V30 773 H 83.5796 -4.95094 -2.44103 0
M  V30 774 H 86.0556 -3.06133 -2.81819 0
M  V30 775 H 84.9316 -3.72433 -4.03219 0
M  V30 776 H 85.1926 -1.9893 -3.94815 0
M  V30 777 N 84.2517 0.741722 -1.39055 0
M  V30 778 C 85.1817 1.869 -1.39966 0
M  V30 779 C 86.1627 1.6804 -0.26392 0
M  V30 780 O 87.3477 1.88458 -0.468755 0
M  V30 781 C 84.4777 3.24572 -1.23574 0
M  V30 782 C 83.4317 3.58056 -2.34477 0
M  V30 783 C 82.7577 4.94593 -2.0318 0
M  V30 784 C 84.0577 3.61716 -3.76774 0
M  V30 785 H 85.7517 1.86395 -2.34302 0
M  V30 786 H 83.2977 0.895361 -1.1278 0
M  V30 787 H 85.2507 4.031 -1.22834 0
M  V30 788 H 83.9747 3.25587 -0.257045 0
M  V30 789 H 82.6337 2.81854 -2.34423 0
M  V30 790 H 82.2817 4.92181 -1.03765 0
M  V30 791 H 81.9817 5.17964 -2.77465 0
M  V30 792 H 83.5057 5.75486 -2.04079 0
M  V30 793 H 84.9197 4.30335 -3.78794 0
M  V30 794 H 83.3167 3.96603 -4.50362 0
M  V30 795 H 84.3867 2.61672 -4.08235 0
M  V30 796 N 85.7298 1.2412 0.971189 0
M  V30 797 C 86.6598 1.05508 2.08304 0
M  V30 798 C 87.6408 -0.0308864 1.70072 0
M  V30 799 O 88.8258 0.135521 1.93727 0
M  V30 800 C 85.9558 0.655365 3.4106 0
M  V30 801 C 84.9098 1.68971 3.93234 0
M  V30 802 C 84.2358 1.14516 5.22293 0
M  V30 803 C 85.5358 3.08487 4.21465 0
M  V30 804 H 87.2298 1.98507 2.24132 0
M  V30 805 H 84.7758 0.955821 1.07704 0
M  V30 806 H 86.7288 0.51217 4.18276 0
M  V30 807 H 85.4528 -0.31032 3.25122 0
M  V30 808 H 84.1118 1.82106 3.18171 0
M  V30 809 H 83.7598 0.170189 5.02712 0
M  V30 810 H 83.4598 1.83635 5.58168 0
M  V30 811 H 84.9838 1.01401 6.02121 0
M  V30 812 H 86.3978 2.98601 4.89398 0
M  V30 813 H 84.7948 3.74926 4.68562 0
M  V30 814 H 85.8648 3.56787 3.28376 0
M  V30 815 N 87.2079 -1.17134 1.05439 0
M  V30 816 C 88.6189 -1.69084 0.791676 0
M  V30 817 C 88.9699 -1.83822 -0.685839 0
M  V30 818 O 88.0949 -1.52757 -1.53278 0
M  V30 819 C 88.6899 -3.07119 1.4305 0
M  V30 820 C 87.2489 -3.56225 1.21577 0
M  V30 821 C 86.3959 -2.32421 1.51247 0
M  V30 822 H 89.3469 -1.01617 1.219 0
M  V30 823 H 89.3679 -3.71087 0.84112 0
M  V30 824 H 88.8799 -2.9636 2.50584 0
M  V30 825 H 86.9809 -3.72257 0.159787 0
M  V30 826 H 87.0939 -4.38837 1.92246 0
M  V30 827 H 85.4579 -2.3701 0.932653 0
M  V30 828 H 86.2409 -2.24268 2.5992 0
M  V30 829 N 88.686 -0.835752 -1.33615 0
M  V30 830 C 89.618 -0.224151 -2.28101 0
M  V30 831 C 90.631 0.593331 -1.51603 0
M  V30 832 O 91.82 0.420911 -1.73466 0
M  V30 833 C 88.92 0.703309 -3.31522 0
M  V30 834 C 88.093 -0.0741528 -4.37337 0
M  V30 835 C 87.152 0.776176 -5.20444 0
M  V30 836 O 86.178 0.216506 -5.68788 0
M  V30 837 N 87.38 2.09401 -5.41416 0
M  V30 838 H 90.145 -1.03598 -2.81225 0
M  V30 839 H 87.706 -0.69392 -1.46275 0
M  V30 840 H 89.698 1.27707 -3.84022 0
M  V30 841 H 88.268 1.41585 -2.78698 0
M  V30 842 H 87.488 -0.82928 -3.85378 0
M  V30 843 H 88.776 -0.608863 -5.05144 0
M  V30 844 H 88.174 2.57229 -5.03835 0
M  V30 845 H 86.731 2.61633 -5.96985 0
M  V30 846 N 90.1641 1.46063 -0.591896 0
M  V30 847 C 91.4411 1.95595 -0.0137119 0
M  V30 848 C 91.8211 1.5345 1.4497 0
M  V30 849 O 91.1691 0.789543 2.14426 0
M  V30 850 C 91.3791 3.48453 -0.195373 0
M  V30 851 C 92.7271 4.24546 -0.0679765 0
M  V30 852 O 93.7511 3.55982 -0.124681 0
M  V30 853 O 92.6101 5.46467 0.0600579 0
M  V30 854 H 89.7041 0.825795 0.0446279 0
M  V30 855 H 92.2501 1.56303 -0.660859 0
M  V30 856 H 91.0221 3.72045 -1.21235 0
M  V30 857 H 90.6451 3.94597 0.487775 0
M  V30 858 N 91.6422 0.330177 1.54103 0
M  V30 859 C 92.9192 -0.325007 1.92881 0
M  V30 860 C 93.2992 -1.6934 1.26045 0
M  V30 861 O 92.6472 -2.24855 0.406526 0
M  V30 862 C 92.8572 -0.410634 3.46576 0
M  V30 863 C 94.2052 -0.667801 4.19316 0
M  V30 864 O 95.2292 -0.49329 3.52768 0
M  V30 865 O 94.0882 -1.00491 5.37181 0
M  V30 866 H 91.1822 -0.186873 0.80561 0
M  V30 867 H 93.7282 0.380376 1.65382 0
M  V30 868 H 92.5002 0.550164 3.87413 0
M  V30 869 H 92.1232 -1.16333 3.802 0
M  V30 870 N 93.1203 -1.57491 0.0584922 0
M  V30 871 C 94.3453 -1.97711 -0.62652 0
M  V30 872 C 94.7703 -0.936132 -1.63151 0
M  V30 873 O 94.1283 0.099811 -1.81025 0
M  V30 874 C 94.1763 -3.36989 -1.28338 0
M  V30 875 O 93.2803 -3.35433 -2.39913 0
M  V30 876 H 92.6213 -0.643868 -0.162266 0
M  V30 877 H 95.1513 -2.04193 0.129064 0
M  V30 878 H 95.1613 -3.73879 -1.63335 0
M  V30 879 H 93.8363 -4.12289 -0.546889 0
M  V30 880 H 92.4133 -3.10298 -2.06809 0
M  V30 881 N 94.5984 0.214957 -1.56127 0
M  V30 882 C 95.8284 0.953707 -1.8327 0
M  V30 883 C 96.2364 1.78181 -0.636262 0
M  V30 884 O 95.5794 1.79191 0.404516 0
M  V30 885 C 95.6414 1.91516 -3.0424 0
M  V30 886 C 95.3054 1.27094 -4.38972 0
M  V30 887 C 96.3024 0.657575 -5.15725 0
M  V30 888 C 93.9874 1.28073 -4.85698 0
M  V30 889 C 95.9814 0.0625968 -6.37369 0
M  V30 890 C 93.6684 0.681914 -6.07283 0
M  V30 891 C 94.6664 0.0739046 -6.8296 0
M  V30 892 O 94.3544 -0.515582 -8.02245 0
M  V30 893 H 94.0864 0.284764 -0.613095 0
M  V30 894 H 96.6404 0.233283 -2.04071 0
M  V30 895 H 94.8704 2.67475 -2.79274 0
M  V30 896 H 96.5594 2.52001 -3.18198 0
M  V30 897 H 97.3254 0.642288 -4.80728 0
M  V30 898 H 93.2044 1.74337 -4.26764 0
M  V30 899 H 96.7484 -0.412593 -6.96379 0
M  V30 900 H 92.6454 0.694636 -6.41752 0
M  V30 901 H 93.4134 -0.410544 -8.1747 0
M  V30 902 N 96.0765 1.50051 0.48192 0
M  V30 903 C 97.0065 1.71046 1.58951 0
M  V30 904 C 97.9875 0.559288 1.60642 0
M  V30 905 O 99.1725 0.797243 1.77081 0
M  V30 906 C 96.3025 1.79462 2.97339 0
M  V30 907 C 95.2565 2.94558 3.10515 0
M  V30 908 C 94.5825 2.88105 4.50444 0
M  V30 909 C 95.8825 4.35227 2.88747 0
M  V30 910 H 97.5765 2.6378 1.41635 0
M  V30 911 H 95.1225 1.26936 0.679942 0
M  V30 912 H 97.0755 1.92734 3.74742 0
M  V30 913 H 95.7995 0.833412 3.15788 0
M  V30 914 H 94.4585 2.80918 2.35543 0
M  V30 915 H 94.1065 1.89853 4.65795 0
M  V30 916 H 93.8065 3.65366 4.60197 0
M  V30 917 H 95.3305 3.03412 5.29881 0
M  V30 918 H 96.7445 4.49449 3.55905 0
M  V30 919 H 95.1415 5.13856 3.09955 0
M  V30 920 H 96.2115 4.48347 1.84696 0
M  V30 921 N 97.5546 -0.734337 1.39446 0
M  V30 922 C 98.8016 -1.49391 1.36706 0
M  V30 923 C 99.1296 -1.94465 -0.0367813 0
M  V30 924 O 98.3846 -1.67154 -1.01774 0
M  V30 925 C 98.6836 -2.74711 2.28623 0
M  V30 926 C 98.3496 -2.48501 3.76242 0
M  V30 927 C 97.0116 -2.41062 4.16464 0
M  V30 928 C 99.3636 -2.26098 4.69606 0
M  V30 929 C 96.6916 -2.09262 5.48112 0
M  V30 930 C 99.0436 -1.95814 6.01531 0
M  V30 931 C 97.7076 -1.86845 6.40816 0
M  V30 932 H 96.9776 -0.546661 0.500243 0
M  V30 933 H 99.6246 -0.842788 1.71957 0
M  V30 934 H 97.9296 -3.44569 1.86492 0
M  V30 935 H 99.6266 -3.32741 2.23796 0
M  V30 936 H 96.2166 -2.55169 3.44364 0
M  V30 937 H 100.401 -2.30812 4.39363 0
M  V30 938 H 95.6566 -2.00841 5.77471 0
M  V30 939 H 99.8306 -1.77488 6.73403 0
M  V30 940 H 97.4576 -1.6197 7.42745 0
M  V30 941 N 99.0327 -1.24633 -0.964593 0
M  V30 942 C 100.258 -1.11596 -1.74818 0
M  V30 943 C 100.683 0.32723 -1.85232 0
M  V30 944 O 100.041 1.23695 -1.32549 0
M  V30 945 C 100.089 -1.76397 -3.1451 0
M  V30 946 O 99.1927 -1.03685 -3.99153 0
M  V30 947 H 98.5337 -0.390196 -0.537255 0
M  V30 948 H 101.064 -1.65002 -1.20977 0
M  V30 949 H 101.074 -1.8228 -3.65018 0
M  V30 950 H 99.7487 -2.81401 -3.06246 0
M  V30 951 H 98.3257 -1.05611 -3.57632 0
M  V30 952 N 100.511 1.16574 -1.06058 0
M  V30 953 C 101.441 2.23057 -0.690488 0
M  V30 954 C 102.422 1.67141 0.315901 0
M  V30 955 O 103.607 1.93253 0.191556 0
M  V30 956 C 100.737 3.47222 -0.073625 0
M  V30 957 C 99.6908 4.16016 -1.00573 0
M  V30 958 C 99.0168 5.34104 -0.252289 0
M  V30 959 C 100.317 4.67264 -2.33371 0
M  V30 960 H 102.011 2.54271 -1.58072 0
M  V30 961 H 99.5568 1.22218 -0.76149 0
M  V30 962 H 101.51 4.20939 0.19714 0
M  V30 963 H 100.234 3.15302 0.85161 0
M  V30 964 H 98.8928 3.44223 -1.2612 0
M  V30 965 H 98.5408 4.98437 0.675988 0
M  V30 966 H 98.2408 5.81072 -0.873455 0
M  V30 967 H 99.7648 6.10599 0.0109857 0
M  V30 968 H 101.179 5.32573 -2.12223 0
M  V30 969 H 99.5758 5.24843 -2.90963 0
M  V30 970 H 100.646 3.83602 -2.96611 0
M  V30 971 N 101.989 0.842826 1.3317 0
M  V30 972 C 103.217 0.454055 2.01856 0
M  V30 973 C 103.632 -0.94587 1.63397 0
M  V30 974 O 102.989 -1.61534 0.849302 0
M  V30 975 C 103.04 0.569715 3.56982 0
M  V30 976 O 102.761 1.91448 3.94055 0
M  V30 977 C 104.262 0.178412 4.42941 0
M  V30 978 H 101.482 0.17979 0.646465 0
M  V30 979 H 104.026 1.1365 1.70012 0
M  V30 980 H 102.181 -0.0648587 3.87346 0
M  V30 981 H 102.595 1.90282 4.88767 0
M  V30 982 H 104.069 0.310376 5.51127 0
M  V30 983 H 104.546 -0.880056 4.30293 0
M  V30 984 H 105.152 0.787579 4.17944 0
M  V30 985 N 103.467 -1.45747 0.599634 0
M  V30 986 C 104.883 -1.57424 0.26264 0
M  V30 987 C 105.083 -1.59222 -1.23493 0
M  V30 988 O 104.139 -1.51825 -2.01756 0
M  V30 989 C 105.452 -2.86061 0.926795 0
M  V30 990 C 107 -2.99722 0.901967 0
M  V30 991 C 107.475 -4.31119 1.54598 0
M  V30 992 N 108.966 -4.37858 1.5111 0
M  V30 993 C 109.701 -5.3818 1.97863 0
M  V30 994 N 109.197 -6.45083 2.52666 0
M  V30 995 N 110.99 -5.29487 1.88679 0
M  V30 996 H 103.141 -1.42823 1.57211 0
M  V30 997 H 105.404 -0.68235 0.658105 0
M  V30 998 H 105.11 -2.90605 1.98095 0
M  V30 999 H 104.984 -3.74563 0.445238 0
M  V30 1000 H 107.371 -2.9475 -0.143617 0
M  V30 1001 H 107.452 -2.12652 1.42171 0
M  V30 1002 H 107.096 -4.36849 2.59085 0
M  V30 1003 H 107.026 -5.16992 1.00132 0
M  V30 1004 H 109.517 -3.61209 1.11068 0
M  V30 1005 H 109.83 -7.17869 2.86155 0
M  V30 1006 H 108.175 -6.45856 2.56701 0
M  V30 1007 H 111.366 -4.44877 1.4561 0
M  V30 1008 H 111.539 -6.07524 2.25429 0
M  V30 1009 N 104.945 -0.338344 -1.53925 0
M  V30 1010 C 106.191 0.260143 -2.01125 0
M  V30 1011 C 106.524 1.50617 -1.22589 0
M  V30 1012 O 105.799 1.91979 -0.312113 0
M  V30 1013 C 106.082 0.579499 -3.55407 0
M  V30 1014 C 105.935 -0.678264 -4.44657 0
M  V30 1015 C 107.254 1.39122 -4.17532 0
M  V30 1016 H 104.373 0.0930772 -0.731099 0
M  V30 1017 H 107.015 -0.457852 -1.84401 0
M  V30 1018 H 105.165 1.19118 -3.69788 0
M  V30 1019 H 106.837 -1.31631 -4.42121 0
M  V30 1020 H 105.08 -1.3042 -4.13731 0
M  V30 1021 H 105.751 -0.410143 -5.50474 0
M  V30 1022 H 108.227 0.874035 -4.06817 0
M  V30 1023 H 107.103 1.58342 -5.25565 0
M  V30 1024 H 107.364 2.39178 -3.71815 0
M  V30 1025 N 106.423 1.57458 -0.0668435 0
M  V30 1026 C 107.839 1.56947 0.289772 0
M  V30 1027 C 108.039 1.07584 1.70376 0
M  V30 1028 O 107.095 0.739486 2.41429 0
M  V30 1029 C 108.408 3.0052 0.103943 0
M  V30 1030 C 109.956 3.12517 0.173857 0
M  V30 1031 C 110.431 4.57997 0.0163682 0
M  V30 1032 N 111.922 4.63144 0.0721352 0
M  V30 1033 C 112.657 5.73394 -0.0253794 0
M  V30 1034 N 112.153 6.92576 -0.176133 0
M  V30 1035 N 113.946 5.62091 0.0313305 0
M  V30 1036 H 106.097 1.87863 -0.991027 0
M  V30 1037 H 108.36 0.86583 -0.38606 0
M  V30 1038 H 108.066 3.40729 -0.871572 0
M  V30 1039 H 107.94 3.67304 0.858366 0
M  V30 1040 H 110.327 2.72197 1.13985 0
M  V30 1041 H 110.408 2.48381 -0.611586 0
M  V30 1042 H 110.052 4.99005 -0.946374 0
M  V30 1043 H 109.982 5.20158 0.821153 0
M  V30 1044 H 112.473 3.77436 0.187263 0
M  V30 1045 H 112.786 7.72418 -0.242821 0
M  V30 1046 H 111.131 6.94678 -0.211429 0
M  V30 1047 H 114.322 4.67867 0.147773 0
M  V30 1048 H 114.495 6.47982 -0.048121 0
M  V30 1049 N 107.901 -0.206675 1.56239 0
M  V30 1050 C 109.312 -0.772383 1.69974 0
M  V30 1051 C 109.663 -1.84353 0.671436 0
M  V30 1052 O 108.788 -2.15695 -0.174491 0
M  V30 1053 C 109.383 -1.40779 3.08167 0
M  V30 1054 C 107.942 -1.92072 3.23706 0
M  V30 1055 C 107.089 -0.786347 2.65917 0
M  V30 1056 H 110.04 0.0182223 1.5869 0
M  V30 1057 H 110.061 -2.27696 3.04852 0
M  V30 1058 H 109.573 -0.627958 3.82986 0
M  V30 1059 H 107.674 -2.7281 2.53782 0
M  V30 1060 H 107.787 -2.09046 4.31087 0
M  V30 1061 H 106.151 -1.1976 2.24788 0
M  V30 1062 H 106.934 -0.0189416 3.43295 0
M  V30 1063 N 109.379 -1.50304 -0.473955 0
M  V30 1064 C 110.342 -1.6841 -1.55469 0
M  V30 1065 C 111.342 -0.554905 -1.50922 0
M  V30 1066 O 112.532 -0.821882 -1.53593 0
M  V30 1067 C 109.664 -1.70667 -2.95102 0
M  V30 1068 H 110.857 -2.64828 -1.40733 0
M  V30 1069 H 108.41 -1.39742 -0.700132 0
M  V30 1070 H 109.145 -0.75932 -3.15285 0
M  V30 1071 H 108.93 -2.52698 -2.9981 0
M  V30 1072 H 110.42 -1.8664 -3.73571 0
M  V30 1073 N 110.857 0.726932 -1.39834 0
M  V30 1074 C 112.106 1.48214 -1.36805 0
M  V30 1075 C 112.419 1.95576 0.0305291 0
M  V30 1076 O 113.625 2.7088 0.183417 0
M  V30 1077 C 112.081 2.67854 -2.40379 0
M  V30 1078 C 111.689 2.27408 -3.85992 0
M  V30 1079 C 113.433 3.45641 -2.46439 0
M  V30 1080 C 111.34 3.43819 -4.81189 0
M  V30 1081 H 110.27 0.556606 -0.508631 0
M  V30 1082 H 112.921 0.792216 -1.65518 0
M  V30 1083 H 111.303 3.3896 -2.04749 0
M  V30 1084 H 112.477 1.63795 -4.30706 0
M  V30 1085 H 110.792 1.62692 -3.83302 0
M  V30 1086 H 113.389 4.32244 -3.14753 0
M  V30 1087 H 113.732 3.88669 -1.49139 0
M  V30 1088 H 114.265 2.8157 -2.81004 0
M  V30 1089 H 111.004 3.05834 -5.79781 0
M  V30 1090 H 110.524 4.06385 -4.41148 0
M  V30 1091 H 112.203 4.10043 -5.00474 0
M  V30 1092 N 112.336 1.25143 0.95797 0
M  V30 1093 C 113.246 1.06968 2.08794 0
M  V30 1094 C 114.262 0.00773911 1.73998 0
M  V30 1095 O 115.438 0.207972 2.00323 0
M  V30 1096 C 112.503 0.68691 3.39827 0
M  V30 1097 C 111.564 1.82641 3.88511 0
M  V30 1098 C 110.797 1.46181 5.1329 0
M  V30 1099 O 111.02 0.355971 5.69288 0
M  V30 1100 O 109.954 2.29085 5.566 0
M  V30 1101 H 113.78 2.01723 2.27027 0
M  V30 1102 H 111.365 1.04051 1.07209 0
M  V30 1103 H 113.247 0.485417 4.18595 0
M  V30 1104 H 111.922 -0.231417 3.22872 0
M  V30 1105 H 110.829 2.08274 3.10762 0
M  V30 1106 H 112.162 2.72386 4.09959 0
M  V30 1107 N 113.814 -1.1601 1.06675 0
M  V30 1108 C 115.044 -1.90251 0.805497 0
M  V30 1109 C 115.452 -1.77891 -0.64431 0
M  V30 1110 O 114.795 -1.12383 -1.45313 0
M  V30 1111 C 114.857 -3.41419 1.12576 0
M  V30 1112 C 114.521 -3.77564 2.57477 0
M  V30 1113 C 115.518 -3.79161 3.55715 0
M  V30 1114 C 113.203 -4.08079 2.92877 0
M  V30 1115 C 115.197 -4.10767 4.8739 0
M  V30 1116 C 112.884 -4.39351 4.24751 0
M  V30 1117 C 113.882 -4.40675 5.21818 0
M  V30 1118 O 113.57 -4.71202 6.51325 0
M  V30 1119 H 113.302 -0.610018 0.291297 0
M  V30 1120 H 115.856 -1.47958 1.4247 0
M  V30 1121 H 114.086 -3.84079 0.449503 0
M  V30 1122 H 115.775 -3.9694 0.84814 0
M  V30 1123 H 116.541 -3.55693 3.29708 0
M  V30 1124 H 112.42 -4.06211 2.17976 0
M  V30 1125 H 115.964 -4.11715 5.63148 0
M  V30 1126 H 111.861 -4.62285 4.50514 0
M  V30 1127 H 112.629 -4.88996 6.56373 0
M  V30 1128 N 115.292 -0.849877 -1.32721 0
M  V30 1129 C 116.255 -0.296122 -2.27279 0
M  V30 1130 C 117.255 0.541458 -1.5141 0
M  V30 1131 O 118.445 0.353658 -1.70572 0
M  V30 1132 C 115.577 0.581579 -3.35902 0
M  V30 1133 H 116.77 -1.13064 -2.77771 0
M  V30 1134 H 114.323 -0.62383 -1.43311 0
M  V30 1135 H 115.058 1.43809 -2.9067 0
M  V30 1136 H 114.843 -0.0178814 -3.92096 0
M  V30 1137 H 116.333 0.961951 -4.0637 0
M  V30 1138 N 116.77 1.45427 -0.607355 0
M  V30 1139 C 117.7 2.3329 0.0989352 0
M  V30 1140 C 118.681 1.46816 0.859007 0
M  V30 1141 O 119.866 1.75588 0.829604 0
M  V30 1142 C 116.996 3.29518 1.09705 0
M  V30 1143 C 115.95 4.25626 0.450206 0
M  V30 1144 C 115.276 5.11542 1.55655 0
M  V30 1145 C 116.576 5.18505 -0.628455 0
M  V30 1146 H 118.27 2.92595 -0.634716 0
M  V30 1147 H 115.816 1.40696 -0.306681 0
M  V30 1148 H 117.769 3.89855 1.59971 0
M  V30 1149 H 116.493 2.68372 1.86129 0
M  V30 1150 H 115.152 3.66586 -0.0315886 0
M  V30 1151 H 114.8 4.46765 2.31107 0
M  V30 1152 H 114.5 5.76647 1.12925 0
M  V30 1153 H 116.024 5.74748 2.06148 0
M  V30 1154 H 117.438 5.72916 -0.209877 0
M  V30 1155 H 115.835 5.92085 -0.977489 0
M  V30 1156 H 116.905 4.60948 -1.50514 0
M  V30 1157 N 118.248 0.346503 1.53744 0
M  V30 1158 C 119.664 -0.00530975 1.59599 0
M  V30 1159 C 119.864 -1.48465 1.36236 0
M  V30 1160 O 118.92 -2.24376 1.15808 0
M  V30 1161 C 120.233 0.433516 2.97559 0
M  V30 1162 C 121.781 0.386111 3.10609 0
M  V30 1163 C 122.256 0.800451 4.50951 0
M  V30 1164 N 123.747 0.754753 4.5701 0
M  V30 1165 C 124.482 1.04727 5.63755 0
M  V30 1166 N 123.978 1.4081 6.7834 0
M  V30 1167 N 125.771 0.971316 5.53644 0
M  V30 1168 H 117.922 1.31009 1.67184 0
M  V30 1169 H 120.185 0.534242 0.783128 0
M  V30 1170 H 119.891 1.46509 3.19731 0
M  V30 1171 H 119.765 -0.189753 3.76722 0
M  V30 1172 H 122.152 -0.636295 2.88158 0
M  V30 1173 H 122.233 1.04462 2.33498 0
M  V30 1174 H 121.877 1.82088 4.74137 0
M  V30 1175 H 121.807 0.119386 5.26465 0
M  V30 1176 H 124.298 0.488662 3.74727 0
M  V30 1177 H 124.611 1.61607 7.55714 0
M  V30 1178 H 122.956 1.44657 6.79779 0
M  V30 1179 H 126.147 0.688748 4.63005 0
M  V30 1180 H 126.32 1.20263 6.36742 0
M  V30 1181 N 119.726 -1.57421 0.075193 0
M  V30 1182 C 120.951 -1.98364 -0.605515 0
M  V30 1183 C 121.376 -0.953383 -1.62149 0
M  V30 1184 O 120.734 0.0806053 -1.81121 0
M  V30 1185 C 120.782 -3.38332 -1.24756 0
M  V30 1186 O 119.886 -3.37959 -2.36342 0
M  V30 1187 H 119.227 -0.645553 -0.155428 0
M  V30 1188 H 121.757 -2.04044 0.150714 0
M  V30 1189 H 121.767 -3.75591 -1.5936 0
M  V30 1190 H 120.442 -4.12846 -0.503129 0
M  V30 1191 H 119.019 -3.12474 -2.03506 0
M  V30 1192 N 121.204 0.198386 -1.56346 0
M  V30 1193 C 122.45 0.920648 -1.80698 0
M  V30 1194 C 122.783 1.83045 -0.648697 0
M  V30 1195 O 122.058 1.91308 0.350925 0
M  V30 1196 C 122.341 1.73971 -3.15287 0
M  V30 1197 C 122.194 0.85485 -4.41602 0
M  V30 1198 C 123.513 2.71296 -3.46535 0
M  V30 1199 H 120.632 0.333261 -0.657348 0
M  V30 1200 H 123.274 0.188198 -1.89066 0
M  V30 1201 H 121.424 2.36416 -3.08285 0
M  V30 1202 H 123.096 0.245362 -4.60647 0
M  V30 1203 H 121.339 0.161398 -4.335 0
M  V30 1204 H 122.01 1.46286 -5.32264 0
M  V30 1205 H 124.486 2.18983 -3.53816 0
M  V30 1206 H 123.362 3.2569 -4.41834 0
M  V30 1207 H 123.623 3.5018 -2.69864 0
M  V30 1208 N 122.682 1.50554 0.465978 0
M  V30 1209 C 123.592 1.72585 1.58907 0
M  V30 1210 C 124.608 0.60911 1.6299 0
M  V30 1211 O 125.784 0.88804 1.80765 0
M  V30 1212 C 122.849 1.81995 2.95091 0
M  V30 1213 C 121.91 3.05751 3.01355 0
M  V30 1214 C 121.143 3.14702 4.31043 0
M  V30 1215 O 121.366 2.30313 5.21835 0
M  V30 1216 O 120.3 4.07468 4.43005 0
M  V30 1217 H 124.126 2.67799 1.43239 0
M  V30 1218 H 121.711 1.34711 0.646013 0
M  V30 1219 H 123.593 1.90335 3.75966 0
M  V30 1220 H 122.268 0.899659 3.10947 0
M  V30 1221 H 121.175 3.02908 2.19539 0
M  V30 1222 H 122.508 3.97375 2.90437 0
M  V30 1223 N 124.16 -0.719506 1.40217 0
M  V30 1224 C 125.408 -1.47641 1.3801 0
M  V30 1225 C 125.729 -1.94992 -0.018145 0
M  V30 1226 O 124.999 -1.70073 -0.972207 0
M  V30 1227 H 123.579 -0.547744 0.507923 0
M  V30 1228 H 126.241 -0.853187 1.75233 0
M  V30 1229 H 125.337 -2.35112 2.05253 0
M  V30 1230 N 125.638 -1.25649 -0.95132 0
M  V30 1231 C 126.586 -1.06118 -2.06982 0
M  V30 1232 C 127.58 0.00889169 -1.69398 0
M  V30 1233 O 128.786 -0.146988 -1.79399 0
M  V30 1234 H 125.161 -0.326248 -0.677544 0
M  V30 1235 H 127.132 -2.00932 -2.2061 0
M  V30 1236 C 125.881 -0.700145 -3.40578 0
M  V30 1237 H 125.204 -1.51537 -3.69968 0
M  V30 1238 H 126.644 -0.603211 -4.19687 0
M  V30 1239 C 125.103 0.59403 -3.31622 0
M  V30 1240 O 125.633 1.63522 -3.66911 0
M  V30 1241 N 123.839 0.58089 -2.84735 0
M  V30 1242 H 123.386 -0.266783 -2.56215 0
M  V30 1243 H 123.344 1.44695 -2.79125 0
M  V30 1244 N 127.117 1.15442 -1.07289 0
M  V30 1245 C 128.365 1.85845 -0.794096 0
M  V30 1246 C 128.686 1.82692 0.681809 0
M  V30 1247 O 127.956 1.26741 1.49377 0
M  V30 1248 H 126.536 0.688089 -0.290763 0
M  V30 1249 H 129.198 1.39947 -1.3565 0
M  V30 1250 H 128.294 2.91001 -1.12804 0
M  V30 1251 N 128.595 0.856903 1.32268 0
M  V30 1252 C 129.823 0.475439 2.01363 0
M  V30 1253 C 130.238 -0.928486 1.64392 0
M  V30 1254 O 129.595 -1.60624 0.866387 0
M  V30 1255 C 129.646 0.607545 3.56358 0
M  V30 1256 O 129.367 1.95617 3.92002 0
M  V30 1257 C 130.868 0.225382 4.42727 0
M  V30 1258 H 128.088 0.186636 0.644521 0
M  V30 1259 H 130.632 1.15446 1.68797 0
M  V30 1260 H 128.787 -0.0237719 3.87393 0
M  V30 1261 H 129.201 1.95455 4.86721 0
M  V30 1262 H 130.675 0.368813 5.50767 0
M  V30 1263 H 131.152 -0.834369 4.31202 0
M  V30 1264 H 131.758 0.831864 4.17085 0
M  V30 1265 N 130.073 -1.45103 0.615059 0
M  V30 1266 C 131.321 -2.01784 0.112955 0
M  V30 1267 C 131.642 -1.48504 -1.26378 0
M  V30 1268 O 130.912 -0.682245 -1.83636 0
M  V30 1269 H 129.492 -0.745993 0.0387668 0
M  V30 1270 H 132.154 -1.77808 0.798141 0
M  V30 1271 H 131.25 -3.12025 0.0684069 0
M  V30 1272 N 131.551 -0.354651 -1.53558 0
M  V30 1273 C 132.967 -0.00315426 -1.596 0
M  V30 1274 C 133.167 1.47741 -1.37021 0
M  V30 1275 O 132.223 2.23759 -1.16996 0
M  V30 1276 C 133.536 -0.44929 -2.97325 0
M  V30 1277 C 135.084 -0.402578 -3.104 0
M  V30 1278 C 135.559 -0.824355 -4.5052 0
M  V30 1279 N 137.05 -0.778979 -4.56603 0
M  V30 1280 C 137.785 -1.07715 -5.63192 0
M  V30 1281 N 137.281 -1.44405 -6.77583 0
M  V30 1282 N 139.074 -1.00066 -5.53121 0
M  V30 1283 H 131.225 -1.31893 -1.66487 0
M  V30 1284 H 133.488 -0.538388 -0.780284 0
M  V30 1285 H 133.194 -1.48202 -3.1895 0
M  V30 1286 H 133.068 0.169772 -3.76818 0
M  V30 1287 H 135.455 0.621004 -2.88492 0
M  V30 1288 H 135.536 -1.05699 -2.32941 0
M  V30 1289 H 135.18 -1.846 -4.73165 0
M  V30 1290 H 135.11 -0.147304 -5.26394 0
M  V30 1291 H 137.601 -0.508528 -3.74463 0
M  V30 1292 H 137.914 -1.65612 -7.54846 0
M  V30 1293 H 136.259 -1.4826 -6.79002 0
M  V30 1294 H 139.45 -0.713293 -4.62633 0
M  V30 1295 H 139.623 -1.23638 -6.36096 0
M  V30 1296 N 133.029 1.57378 -0.0835403 0
M  V30 1297 C 134.445 1.57246 0.273109 0
M  V30 1298 C 134.645 1.09385 1.69225 0
M  V30 1299 O 133.701 0.765051 2.40631 0
M  V30 1300 C 135.014 3.00614 0.0720628 0
M  V30 1301 C 136.562 3.12684 0.1407 0
M  V30 1302 C 137.037 4.57989 -0.0322094 0
M  V30 1303 N 138.528 4.63194 0.0230085 0
M  V30 1304 C 139.263 5.73335 -0.0861941 0
M  V30 1305 N 138.759 6.9235 -0.24958 0
M  V30 1306 N 140.552 5.62093 -0.0282886 0
M  V30 1307 H 132.703 1.86801 -1.0109 0
M  V30 1308 H 134.966 0.861687 -0.395222 0
M  V30 1309 H 134.672 3.39786 -0.907662 0
M  V30 1310 H 134.546 3.68193 0.81936 0
M  V30 1311 H 136.933 2.73391 1.11092 0
M  V30 1312 H 137.014 2.47719 -0.637896 0
M  V30 1313 H 136.658 4.97973 -0.999247 0
M  V30 1314 H 136.588 5.21 0.765937 0
M  V30 1315 H 139.079 3.77613 0.14722 0
M  V30 1316 H 139.392 7.72117 -0.324733 0
M  V30 1317 H 137.737 6.94415 -0.285097 0
M  V30 1318 H 140.928 4.67997 0.0981408 0
M  V30 1319 H 141.101 6.47895 -0.116845 0
M  V30 1320 N 134.507 -0.190092 1.56449 0
M  V30 1321 C 135.437 -1.23816 1.97969 0
M  V30 1322 C 136.418 -1.47201 0.852395 0
M  V30 1323 O 137.603 -1.58854 1.1171 0
M  V30 1324 C 134.733 -2.5813 2.3235 0
M  V30 1325 C 133.687 -2.49348 3.47864 0
M  V30 1326 C 133.013 -3.8798 3.67934 0
M  V30 1327 C 134.313 -2.01424 4.81898 0
M  V30 1328 H 136.007 -0.89311 2.85769 0
M  V30 1329 H 133.553 -0.428177 1.37487 0
M  V30 1330 H 135.506 -3.31637 2.59991 0
M  V30 1331 H 134.23 -2.94386 1.41438 0
M  V30 1332 H 132.889 -1.78297 3.20321 0
M  V30 1333 H 132.537 -4.21597 2.74344 0
M  V30 1334 H 132.237 -3.82978 4.45648 0
M  V30 1335 H 133.761 -4.63101 3.97957 0
M  V30 1336 H 135.175 -2.64693 5.08538 0
M  V30 1337 H 133.572 -2.07413 5.63116 0
M  V30 1338 H 134.642 -0.967677 4.75146 0
M  V30 1339 N 135.985 -1.50799 -0.457987 0
M  V30 1340 C 136.915 -1.73553 -1.5621 0
M  V30 1341 C 137.896 -0.584774 -1.59732 0
M  V30 1342 O 139.081 -0.825314 -1.7579 0
M  V30 1343 C 136.211 -1.84169 -2.94447 0
M  V30 1344 C 135.165 -2.99461 -3.0579 0
M  V30 1345 C 134.491 -2.95235 -4.45803 0
M  V30 1346 C 135.791 -4.39766 -2.81786 0
M  V30 1347 H 137.485 -2.66 -1.37421 0
M  V30 1348 H 135.031 -1.28002 -0.659662 0
M  V30 1349 H 136.984 -1.98672 -3.71628 0
M  V30 1350 H 135.708 -0.883545 -3.14422 0
M  V30 1351 H 134.367 -2.8463 -2.31044 0
M  V30 1352 H 134.015 -1.97239 -4.62715 0
M  V30 1353 H 133.715 -3.72642 -4.54326 0
M  V30 1354 H 135.239 -3.11803 -5.24987 0
M  V30 1355 H 136.653 -4.55054 -3.4871 0
M  V30 1356 H 135.05 -5.18722 -3.0174 0
M  V30 1357 H 136.12 -4.51229 -1.7754 0
M  V30 1358 N 137.463 0.71206 -1.40597 0
M  V30 1359 C 138.874 1.29135 -1.34837 0
M  V30 1360 C 139.225 1.96186 -0.0235395 0
M  V30 1361 O 138.35 1.97768 0.878444 0
M  V30 1362 C 138.945 2.34827 -2.44217 0
M  V30 1363 C 137.504 2.88371 -2.41907 0
M  V30 1364 C 136.651 1.62202 -2.24913 0
M  V30 1365 H 139.602 0.507944 -1.50352 0
M  V30 1366 H 139.623 3.15749 -2.12327 0
M  V30 1367 H 139.135 1.85996 -3.40627 0
M  V30 1368 H 137.236 3.41422 -1.49204 0
M  V30 1369 H 137.349 3.39925 -3.37621 0
M  V30 1370 H 135.713 1.874 -1.72492 0
M  V30 1371 H 136.496 1.15391 -3.23326 0
M  V30 1372 N 138.941 1.26152 0.944643 0
M  V30 1373 C 140.352 1.10454 1.50522 0
M  V30 1374 C 140.703 -0.31635 1.93633 0
M  V30 1375 O 139.828 -1.20746 1.79581 0
M  V30 1376 C 140.423 1.99891 2.73549 0
M  V30 1377 C 138.982 1.88348 3.25886 0
M  V30 1378 C 138.129 1.93447 1.9868 0
M  V30 1379 H 141.08 1.39292 0.760489 0
M  V30 1380 H 141.101 1.54477 3.47732 0
M  V30 1381 H 140.613 3.03297 2.42141 0
M  V30 1382 H 138.714 0.878636 3.62092 0
M  V30 1383 H 138.827 2.73696 3.93227 0
M  V30 1384 H 137.191 1.37456 2.14425 0
M  V30 1385 H 137.974 2.98476 1.69607 0
M  V30 1386 N 140.419 -1.14872 1.07899 0
M  V30 1387 C 141.667 -1.85422 0.803941 0
M  V30 1388 C 141.988 -1.83051 -0.67211 0
M  V30 1389 O 141.258 -1.27532 -1.48703 0
M  V30 1390 H 139.838 -0.686537 0.294408 0
M  V30 1391 H 142.5 -1.39226 1.3639 0
M  V30 1392 H 141.596 -2.90399 1.14346 0
M  V30 1393 N 141.898 -0.863906 -1.31812 0
M  V30 1394 C 143.126 -0.486111 -2.01108 0
M  V30 1395 C 143.541 0.919755 -1.64882 0
M  V30 1396 O 142.898 1.60162 -0.874893 0
M  V30 1397 C 142.949 -0.626435 -3.56031 0
M  V30 1398 O 142.67 -1.97693 -3.90959 0
M  V30 1399 C 144.171 -0.248857 -4.42601 0
M  V30 1400 H 141.391 -0.190052 -0.643523 0
M  V30 1401 H 143.935 -1.1634 -1.68182 0
M  V30 1402 H 142.09 0.00322717 -3.874 0
M  V30 1403 H 142.504 -1.98034 -4.85678 0
M  V30 1404 H 143.978 -0.398016 -5.50563 0
M  V30 1405 H 144.455 0.811489 -4.31638 0
M  V30 1406 H 145.061 -0.853971 -4.16638 0
M  V30 1407 N 143.376 1.44774 -0.622745 0
M  V30 1408 C 144.792 1.56986 -0.287652 0
M  V30 1409 C 144.992 1.61167 1.20944 0
M  V30 1410 O 144.048 1.55015 1.99315 0
M  V30 1411 C 145.361 2.84551 -0.972188 0
M  V30 1412 C 146.909 2.9825 -0.949536 0
M  V30 1413 C 147.384 4.28605 -1.61437 0
M  V30 1414 N 148.875 4.35399 -1.58057 0
M  V30 1415 C 149.61 5.34964 -2.064 0
M  V30 1416 N 149.106 6.40981 -2.62897 0
M  V30 1417 N 150.899 5.26419 -1.97078 0
M  V30 1418 H 143.05 1.40304 -1.59463 0
M  V30 1419 H 145.313 0.671794 -0.668878 0
M  V30 1420 H 145.019 2.87417 -2.02693 0
M  V30 1421 H 144.893 3.73807 -0.504771 0
M  V30 1422 H 147.28 2.94941 0.0967067 0
M  V30 1423 H 147.361 2.10364 -1.45536 0
M  V30 1424 H 147.005 4.32672 -2.66002 0
M  V30 1425 H 146.935 5.15334 -1.08344 0
M  V30 1426 H 149.426 3.59397 -1.16801 0
M  V30 1427 H 149.739 7.13225 -2.97539 0
M  V30 1428 H 148.084 6.4169 -2.66943 0
M  V30 1429 H 151.275 4.42504 -1.52669 0
M  V30 1430 H 151.448 6.03861 -2.35066 0
M  V30 1431 N 144.854 0.36279 1.53368 0
M  V30 1432 C 146.101 -0.227776 2.01215 0
M  V30 1433 C 146.429 -1.49003 1.25014 0
M  V30 1434 O 145.684 -1.92876 0.331236 0
M  V30 1435 C 145.983 -0.568417 3.52851 0
M  V30 1436 C 145.649 0.59918 4.46901 0
M  V30 1437 C 144.311 0.919559 4.72332 0
M  V30 1438 C 146.663 1.38156 5.02556 0
M  V30 1439 C 143.991 2.02434 5.5067 0
M  V30 1440 C 146.343 2.47674 5.821 0
M  V30 1441 C 145.007 2.8025 6.05819 0
M  V30 1442 H 144.277 -0.083349 0.736297 0
M  V30 1443 H 146.924 0.494677 1.85001 0
M  V30 1444 H 145.229 -1.37185 3.66998 0
M  V30 1445 H 146.926 -1.03756 3.87344 0
M  V30 1446 H 143.516 0.339437 4.27254 0
M  V30 1447 H 147.7 1.14729 4.82857 0
M  V30 1448 H 142.956 2.28075 5.67267 0
M  V30 1449 H 147.13 3.08716 6.24234 0
M  V30 1450 H 144.757 3.65979 6.66306 0
M  V30 1451 N 146.332 -1.57332 0.0918853 0
M  V30 1452 C 147.264 -2.10869 -0.898168 0
M  V30 1453 C 148.277 -1.04521 -1.24817 0
M  V30 1454 O 149.466 -1.31977 -1.20184 0
M  V30 1455 C 146.566 -2.57083 -2.2082 0
M  V30 1456 C 145.739 -3.87229 -2.03402 0
M  V30 1457 C 144.798 -4.19324 -3.17889 0
M  V30 1458 O 143.824 -4.88598 -2.91994 0
M  V30 1459 N 145.026 -3.74471 -4.43567 0
M  V30 1460 H 147.791 -2.96439 -0.440943 0
M  V30 1461 H 145.352 -1.61631 -0.0933064 0
M  V30 1462 H 147.344 -2.75602 -2.96354 0
M  V30 1463 H 145.914 -1.76541 -2.57977 0
M  V30 1464 H 145.134 -3.7789 -1.12218 0
M  V30 1465 H 146.422 -4.72379 -1.89038 0
M  V30 1466 H 145.82 -3.18546 -4.67488 0
M  V30 1467 H 144.377 -3.98151 -5.16061 0
M  V30 1468 N 147.81 0.181792 -1.56548 0
M  V30 1469 C 149.056 0.901431 -1.81665 0
M  V30 1470 C 149.389 1.82347 -0.668075 0
M  V30 1471 O 148.664 1.91669 0.330615 0
M  V30 1472 C 148.947 1.70618 -3.17115 0
M  V30 1473 C 148.8 0.807964 -4.42484 0
M  V30 1474 C 150.119 2.67605 -3.49393 0
M  V30 1475 H 147.238 0.32627 -0.660846 0
M  V30 1476 H 149.88 0.168134 -1.89255 0
M  V30 1477 H 148.03 2.33133 -3.10775 0
M  V30 1478 H 149.702 0.19649 -4.60881 0
M  V30 1479 H 147.945 0.115411 -4.33646 0
M  V30 1480 H 148.616 1.40632 -5.33785 0
M  V30 1481 H 151.092 2.15218 -3.56118 0
M  V30 1482 H 149.968 3.20985 -4.45264 0
M  V30 1483 H 150.229 3.47298 -2.73563 0
M  V30 1484 N 149.288 1.51039 0.449983 0
M  V30 1485 C 150.251 1.70863 1.5277 0
M  V30 1486 C 151.251 0.578846 1.5002 0
M  V30 1487 O 152.441 0.846213 1.52266 0
M  V30 1488 C 149.573 1.75341 2.9235 0
M  V30 1489 H 150.766 2.67034 1.36502 0
M  V30 1490 H 148.319 1.40838 0.677812 0
M  V30 1491 H 149.054 0.809383 3.14037 0
M  V30 1492 H 148.839 2.57436 2.95752 0
M  V30 1493 H 150.329 1.92559 3.70555 0
M  V30 1494 N 150.766 -0.704594 1.40972 0
M  V30 1495 C 151.996 -1.49138 1.42974 0
M  V30 1496 C 152.404 -1.89175 0.0308406 0
M  V30 1497 O 151.747 -1.56734 -0.958138 0
M  V30 1498 C 151.809 -2.79016 2.26694 0
M  V30 1499 C 151.473 -2.61236 3.74973 0
M  V30 1500 C 152.47 -2.27773 4.67349 0
M  V30 1501 C 150.155 -2.77158 4.18914 0
M  V30 1502 C 152.149 -2.10457 6.01653 0
M  V30 1503 C 149.836 -2.59459 5.53285 0
M  V30 1504 C 150.834 -2.26158 6.4447 0
M  V30 1505 O 150.522 -2.08605 7.76363 0
M  V30 1506 H 150.254 -0.466443 0.489292 0
M  V30 1507 H 152.808 -0.8758 1.85793 0
M  V30 1508 H 151.038 -3.42947 1.78673 0
M  V30 1509 H 152.727 -3.40782 2.20504 0
M  V30 1510 H 153.493 -2.15095 4.34694 0
M  V30 1511 H 149.372 -3.02064 3.48251 0
M  V30 1512 H 152.916 -1.84387 6.72791 0
M  V30 1513 H 148.813 -2.71725 5.85522 0
M  V30 1514 H 149.581 -2.23439 7.87412 0
M  V30 1515 N 152.244 -1.26651 -0.937939 0
M  V30 1516 C 153.154 -1.10276 -2.07066 0
M  V30 1517 C 154.17 -0.0354197 -1.73964 0
M  V30 1518 O 155.346 -0.239816 -1.99967 0
M  V30 1519 C 152.411 -0.740887 -3.38691 0
M  V30 1520 C 151.472 -1.88799 -3.85556 0
M  V30 1521 C 150.705 -1.54329 -5.10899 0
M  V30 1522 O 150.928 -0.446494 -5.6865 0
M  V30 1523 O 149.862 -2.37911 -5.52885 0
M  V30 1524 H 153.688 -2.05309 -2.23789 0
M  V30 1525 H 151.273 -1.05743 -1.0554 0
M  V30 1526 H 153.155 -0.55195 -4.1777 0
M  V30 1527 H 151.83 0.180022 -3.23199 0
M  V30 1528 H 150.737 -2.13191 -3.07409 0
M  V30 1529 H 152.07 -2.78874 -4.05574 0
M  V30 1530 N 153.722 1.14298 -1.08507 0
M  V30 1531 C 154.999 1.81544 -0.728088 0
M  V30 1532 C 155.379 1.95838 0.78808 0
M  V30 1533 O 154.727 1.51904 1.70697 0
M  V30 1534 C 154.937 3.17169 -1.45619 0
M  V30 1535 C 156.285 3.9265 -1.61591 0
M  V30 1536 O 157.309 3.26762 -1.41793 0
M  V30 1537 O 156.168 5.10807 -1.94263 0
M  V30 1538 H 153.262 0.78491 -0.260471 0
M  V30 1539 H 155.808 1.21307 -1.18671 0
M  V30 1540 H 154.58 3.01934 -2.489 0
M  V30 1541 H 154.203 3.851 -0.989124 0
M  V30 1542 N 155.201 0.870884 1.31352 0
M  V30 1543 C 156.426 0.495957 2.01383 0
M  V30 1544 C 156.851 -0.904324 1.64935 0
M  V30 1545 O 156.209 -1.59687 0.858466 0
M  V30 1546 C 156.257 0.661433 3.54482 0
M  V30 1547 O 155.361 -0.298851 4.11316 0
M  V30 1548 H 154.702 0.197158 0.634054 0
M  V30 1549 H 157.232 1.17455 1.67527 0
M  V30 1550 H 157.242 0.555072 4.04207 0
M  V30 1551 H 155.917 1.68246 3.8035 0
M  V30 1552 H 154.494 -0.147368 3.72609 0
M  V30 1553 N 156.679 -1.44442 0.630414 0
M  V30 1554 C 157.956 -1.9549 0.0655657 0
M  V30 1555 C 158.336 -1.5724 -1.40851 0
M  V30 1556 O 157.684 -0.846116 -2.12257 0
M  V30 1557 C 157.894 -3.47812 0.287691 0
M  V30 1558 C 159.242 -4.24216 0.180513 0
M  V30 1559 O 160.266 -3.55526 0.219019 0
M  V30 1560 O 159.125 -5.46434 0.0848493 0
M  V30 1561 H 156.219 -0.826688 -0.0227177 0
M  V30 1562 H 158.765 -1.54496 0.702068 0
M  V30 1563 H 157.537 -3.687 1.31056 0
M  V30 1564 H 157.16 -3.95751 -0.382984 0
M  V30 1565 N 158.157 -0.370918 -1.53173 0
M  V30 1566 C 159.397 0.217106 -2.03244 0
M  V30 1567 C 159.761 1.45558 -1.25207 0
M  V30 1568 O 160.962 2.11957 -1.65311 0
M  V30 1569 C 159.233 0.496664 -3.53932 0
M  V30 1570 S 160.792 1.0576 -4.25864 0
M  V30 1571 H 157.61 0.0627827 -0.708223 0
M  V30 1572 H 160.212 -0.515019 -1.88594 0
M  V30 1573 H 158.916 -0.412096 -4.08326 0
M  V30 1574 H 158.447 1.25772 -3.72753 0
M  V30 1575 H 160.462 2.34145 -4.37482 0
M  V30 1576 N 159.635 1.57281 -0.100228 0
M  V30 1577 C 160.883 1.94153 0.561157 0
M  V30 1578 C 161.204 0.983157 1.68401 0
M  V30 1579 O 160.474 0.0361132 1.95867 0
M  V30 1580 H 159.054 0.716791 0.210283 0
M  V30 1581 H 161.716 1.94202 -0.164765 0
M  V30 1582 H 160.812 2.96709 0.968008 0
M  V30 1583 N 161.113 -0.173488 1.56642 0
M  V30 1584 C 162.061 -1.23417 1.97157 0
M  V30 1585 C 163.055 -1.45946 0.860013 0
M  V30 1586 O 164.261 -1.46551 1.04512 0
M  V30 1587 H 160.636 -0.414818 0.62724 0
M  V30 1588 H 162.607 -0.865582 2.8557 0
M  V30 1589 C 161.356 -2.5665 2.34576 0
M  V30 1590 H 160.679 -2.40137 3.19647 0
M  V30 1591 H 162.119 -3.2956 2.6677 0
M  V30 1592 C 160.578 -3.15245 1.18836 0
M  V30 1593 O 161.108 -3.98883 0.474869 0
M  V30 1594 N 159.314 -2.74303 0.959497 0
M  V30 1595 H 158.861 -2.0639 1.54146 0
M  V30 1596 H 158.819 -3.13844 0.186932 0
M  V30 1597 N 162.591 -1.51276 -0.441967 0
M  V30 1598 C 164.007 -1.39349 -0.778083 0
M  V30 1599 C 164.207 -0.472212 -1.95889 0
M  V30 1600 O 163.263 0.0743551 -2.5239 0
M  V30 1601 C 164.576 -2.81292 -1.0628 0
M  V30 1602 C 166.124 -2.9041 -1.16751 0
M  V30 1603 C 166.599 -4.33251 -1.48519 0
M  V30 1604 N 168.09 -4.36336 -1.55453 0
M  V30 1605 C 168.825 -5.43885 -1.81596 0
M  V30 1606 N 168.321 -6.61601 -2.05562 0
M  V30 1607 N 170.114 -5.3136 -1.8334 0
M  V30 1608 H 162.265 -2.09729 0.335774 0
M  V30 1609 H 164.528 -0.943925 0.0878028 0
M  V30 1610 H 164.234 -3.50678 -0.267905 0
M  V30 1611 H 164.108 -3.20334 -1.99163 0
M  V30 1612 H 166.495 -2.21225 -1.95304 0
M  V30 1613 H 166.576 -2.54871 -0.217801 0
M  V30 1614 H 166.22 -5.02984 -0.704958 0
M  V30 1615 H 166.15 -4.66299 -2.44689 0
M  V30 1616 H 168.641 -3.51466 -1.38853 0
M  V30 1617 H 168.954 -7.39361 -2.24867 0
M  V30 1618 H 167.299 -6.64725 -2.02894 0
M  V30 1619 H 170.49 -4.38382 -1.64132 0
M  V30 1620 H 170.663 -6.15258 -2.03377 0
M  V30 1621 N 164.069 0.697108 -1.41344 0
M  V30 1622 C 165.032 1.79281 -1.42797 0
M  V30 1623 C 166.032 1.57607 -0.318837 0
M  V30 1624 O 167.222 1.64309 -0.578642 0
M  V30 1625 C 164.354 3.17632 -1.23785 0
M  V30 1626 H 165.547 1.79385 -2.40335 0
M  V30 1627 H 163.1 0.904582 -1.27464 0
M  V30 1628 H 163.835 3.23167 -0.270814 0
M  V30 1629 H 163.62 3.34765 -2.04144 0
M  V30 1630 H 165.11 3.97617 -1.27633 0
M  V30 1631 N 165.547 1.27147 0.931209 0
M  V30 1632 C 166.477 1.12081 2.04842 0
M  V30 1633 C 167.458 0.0232364 1.70084 0
M  V30 1634 O 168.643 0.197085 1.93197 0
M  V30 1635 C 165.773 0.76354 3.38803 0
M  V30 1636 C 164.727 1.81396 3.87659 0
M  V30 1637 C 164.053 1.31075 5.18385 0
M  V30 1638 C 165.353 3.21739 4.11438 0
M  V30 1639 H 167.047 2.05537 2.17703 0
M  V30 1640 H 164.593 0.989603 1.04608 0
M  V30 1641 H 166.546 0.644982 4.16435 0
M  V30 1642 H 165.27 -0.206727 3.25945 0
M  V30 1643 H 163.929 1.92136 3.12217 0
M  V30 1644 H 163.577 0.330037 5.01916 0
M  V30 1645 H 163.277 2.013 5.52044 0
M  V30 1646 H 164.801 1.20506 5.98591 0
M  V30 1647 H 166.215 3.14019 4.79651 0
M  V30 1648 H 164.612 3.89644 4.56397 0
M  V30 1649 H 165.682 3.67054 3.16859 0
M  V30 1650 N 167.025 -1.13721 1.09112 0
M  V30 1651 C 168.272 -1.84924 0.825192 0
M  V30 1652 C 168.6 -1.83347 -0.649151 0
M  V30 1653 O 167.855 -1.26449 -1.49362 0
M  V30 1654 C 168.154 -3.32861 1.30146 0
M  V30 1655 C 167.82 -3.54621 2.78486 0
M  V30 1656 C 166.482 -3.60268 3.18999 0
M  V30 1657 C 168.834 -3.62855 3.74146 0
M  V30 1658 C 166.162 -3.71679 4.53951 0
M  V30 1659 C 168.514 -3.75793 5.08883 0
M  V30 1660 C 167.178 -3.79692 5.4899 0
M  V30 1661 H 166.448 -0.676684 0.301959 0
M  V30 1662 H 169.095 -1.3428 1.36533 0
M  V30 1663 H 167.4 -3.85835 0.681064 0
M  V30 1664 H 169.097 -3.86395 1.07236 0
M  V30 1665 H 165.687 -3.50879 2.46134 0
M  V30 1666 H 169.871 -3.57775 3.43963 0
M  V30 1667 H 165.127 -3.72963 4.84467 0
M  V30 1668 H 169.301 -3.81107 5.82864 0
M  V30 1669 H 166.928 -3.88287 6.53558 0
M  V30 1670 N 168.503 -0.877838 -1.30888 0
M  V30 1671 C 169.728 -0.506629 -2.01117 0
M  V30 1672 C 170.153 0.895564 -1.65412 0
M  V30 1673 O 169.511 1.5923 -0.866922 0
M  V30 1674 C 169.559 -0.680223 -3.54126 0
M  V30 1675 O 168.663 0.277033 -4.11468 0
M  V30 1676 H 168.004 -0.200518 -0.633 0
M  V30 1677 H 170.534 -1.18342 -1.66902 0
M  V30 1678 H 170.544 -0.5765 -4.03907 0
M  V30 1679 H 169.219 -1.70261 -3.79452 0
M  V30 1680 H 167.796 0.127606 -3.72682 0
M  V30 1681 N 169.982 1.44106 -0.638065 0
M  V30 1682 C 170.912 2.33448 0.0494287 0
M  V30 1683 C 171.893 1.48606 0.827672 0
M  V30 1684 O 173.078 1.77308 0.792173 0
M  V30 1685 C 170.208 3.31771 1.02691 0
M  V30 1686 C 169.162 4.26485 0.359823 0
M  V30 1687 C 168.488 5.14729 1.44769 0
M  V30 1688 C 169.788 5.17056 -0.738296 0
M  V30 1689 H 171.482 2.91183 -0.696636 0
M  V30 1690 H 169.028 1.40014 -0.336456 0
M  V30 1691 H 170.981 3.93161 1.51666 0
M  V30 1692 H 169.705 2.7226 1.80395 0
M  V30 1693 H 168.364 3.66437 -0.10934 0
M  V30 1694 H 168.012 4.51566 2.21578 0
M  V30 1695 H 167.712 5.78913 1.00668 0
M  V30 1696 H 169.236 5.78991 1.93911 0
M  V30 1697 H 170.65 5.72342 -0.331354 0
M  V30 1698 H 169.047 5.89879 -1.10286 0
M  V30 1699 H 170.117 4.57652 -1.60258 0
M  V30 1700 N 171.46 0.379036 1.52974 0
M  V30 1701 C 172.706 -0.206727 2.01744 0
M  V30 1702 C 173.039 -1.47314 1.26539 0
M  V30 1703 O 172.314 -1.91084 0.362903 0
M  V30 1704 C 172.597 -0.485066 3.56818 0
M  V30 1705 C 172.45 0.795919 4.42702 0
M  V30 1706 C 173.769 -1.28003 4.21074 0
M  V30 1707 H 170.888 -0.0736607 0.73331 0
M  V30 1708 H 173.53 0.506581 1.83122 0
M  V30 1709 H 171.68 -1.09272 3.72816 0
M  V30 1710 H 173.352 1.43307 4.38476 0
M  V30 1711 H 171.595 1.41344 4.10127 0
M  V30 1712 H 172.266 0.555947 5.49193 0
M  V30 1713 H 174.742 -0.765867 4.08991 0
M  V30 1714 H 173.618 -1.44352 5.29579 0
M  V30 1715 H 173.879 -2.29236 3.78026 0
M  V30 1716 N 172.938 -1.57226 0.108567 0
M  V30 1717 C 174.215 -1.86333 -0.594939 0
M  V30 1718 C 174.595 -1.00788 -1.85486 0
M  V30 1719 O 173.943 -0.0839293 -2.28346 0
M  V30 1720 C 174.153 -3.37265 -0.897405 0
M  V30 1721 C 175.501 -4.05629 -1.25501 0
M  V30 1722 O 176.525 -3.42224 -0.987998 0
M  V30 1723 O 175.384 -5.17531 -1.75567 0
M  V30 1724 H 172.478 -0.771018 -0.2991 0
M  V30 1725 H 175.024 -1.69102 0.142283 0
M  V30 1726 H 173.796 -3.913 -0.00413806 0
M  V30 1727 H 173.419 -3.59889 -1.69014 0
M  V30 1728 N 174.416 0.165178 -1.56732 0
M  V30 1729 C 175.832 0.517174 -1.50988 0
M  V30 1730 C 176.032 1.84331 -0.813894 0
M  V30 1731 O 175.088 2.49672 -0.37682 0
M  V30 1732 C 176.401 0.544261 -2.95733 0
M  V30 1733 C 177.949 0.631039 -3.06573 0
M  V30 1734 C 178.424 0.68896 -4.52788 0
M  V30 1735 N 179.915 0.751683 -4.5706 0
M  V30 1736 C 180.65 0.817177 -5.67547 0
M  V30 1737 N 180.146 0.843129 -6.8765 0
M  V30 1738 N 181.939 0.856668 -5.55534 0
M  V30 1739 H 174.09 -0.704318 -2.00382 0
M  V30 1740 H 176.353 -0.254687 -0.913148 0
M  V30 1741 H 176.059 -0.361607 -3.49836 0
M  V30 1742 H 175.933 1.3886 -3.5071 0
M  V30 1743 H 178.32 1.52733 -2.52501 0
M  V30 1744 H 178.401 -0.240095 -2.54671 0
M  V30 1745 H 178.045 -0.2031 -5.07494 0
M  V30 1746 H 177.975 1.57633 -5.02454 0
M  V30 1747 H 180.466 0.739661 -3.70591 0
M  V30 1748 H 180.779 0.894448 -7.67606 0
M  V30 1749 H 179.124 0.811304 -6.90248 0
M  V30 1750 H 182.315 0.833437 -4.60621 0
M  V30 1751 H 182.488 0.904247 -6.4166 0
M  V30 1752 N 175.894 1.51508 0.433938 0
M  V30 1753 C 177.14 1.64588 1.18484 0
M  V30 1754 C 177.473 0.362666 1.90784 0
M  V30 1755 O 176.748 -0.637892 1.83742 0
M  V30 1756 C 177.031 2.85149 2.19913 0
M  V30 1757 C 176.884 4.23456 1.51674 0
M  V30 1758 C 178.203 3.01227 3.20858 0
M  V30 1759 H 175.322 0.598994 0.429389 0
M  V30 1760 H 177.964 1.84002 0.473647 0
M  V30 1761 H 176.114 2.68729 2.80566 0
M  V30 1762 H 177.786 4.51552 0.943322 0
M  V30 1763 H 176.029 4.25998 0.819035 0
M  V30 1764 H 176.7 5.03812 2.2556 0
M  V30 1765 H 179.176 3.16382 2.70263 0
M  V30 1766 H 178.052 3.87141 3.89118 0
M  V30 1767 H 178.313 2.13447 3.8716 0
M  V30 1768 N 177.372 -0.689602 1.41712 0
M  V30 1769 C 178.335 -1.78521 1.43746 0
M  V30 1770 C 179.335 -1.57436 0.327191 0
M  V30 1771 O 180.525 -1.64 0.587348 0
M  V30 1772 C 177.657 -3.16971 1.25467 0
M  V30 1773 H 178.85 -1.78108 2.41283 0
M  V30 1774 H 176.403 -0.89781 1.27942 0
M  V30 1775 H 177.138 -3.23019 0.287948 0
M  V30 1776 H 176.923 -3.33678 2.05917 0
M  V30 1777 H 178.413 -3.96935 1.2974 0
M  V30 1778 N 178.85 -1.27639 -0.924453 0
M  V30 1779 C 179.813 -1.10681 -2.00705 0
M  V30 1780 C 180.813 -0.0497823 -1.60723 0
M  V30 1781 O 182.003 -0.294654 -1.7169 0
M  V30 1782 C 179.135 -0.687164 -3.33902 0
M  V30 1783 H 180.328 -2.06817 -2.17179 0
M  V30 1784 H 177.881 -1.10473 -1.10569 0
M  V30 1785 H 178.616 0.275439 -3.23128 0
M  V30 1786 H 178.401 -1.45061 -3.6428 0
M  V30 1787 H 179.891 -0.590853 -4.13399 0
M  V30 1788 N 180.328 1.1314 -1.09713 0
M  V30 1789 C 181.291 2.16831 -0.742751 0
M  V30 1790 C 182.291 1.59159 0.229129 0
M  V30 1791 O 183.481 1.74199 0.00693237 0
M  V30 1792 C 180.613 3.40756 -0.0989168 0
M  V30 1793 H 181.806 2.49695 -1.66109 0
M  V30 1794 H 179.359 1.2802 -0.896699 0
M  V30 1795 H 180.094 3.13485 0.830514 0
M  V30 1796 H 179.879 3.83888 -0.798265 0
M  V30 1797 H 181.369 4.17386 0.133524 0
M  V30 1798 N 181.806 0.884767 1.30421 0
M  V30 1799 C 183.222 0.57874 1.48737 0
M  V30 1800 C 183.422 -0.883567 1.81095 0
M  V30 1801 O 182.478 -1.6648 1.89844 0
M  V30 1802 C 183.791 1.49171 2.61091 0
M  V30 1803 C 185.339 1.49532 2.74971 0
M  V30 1804 C 185.814 2.39421 3.90438 0
M  V30 1805 N 187.305 2.37383 3.97748 0
M  V30 1806 C 188.04 3.03647 4.86401 0
M  V30 1807 N 187.536 3.79136 5.79852 0
M  V30 1808 N 189.329 2.9288 4.79768 0
M  V30 1809 H 181.48 1.83075 1.0769 0
M  V30 1810 H 183.743 0.783637 0.533495 0
M  V30 1811 H 183.449 2.53291 2.44001 0
M  V30 1812 H 183.323 1.20113 3.57565 0
M  V30 1813 H 185.71 0.46163 2.91467 0
M  V30 1814 H 185.791 1.8262 1.79119 0
M  V30 1815 H 185.435 3.42874 3.74699 0
M  V30 1816 H 185.365 2.03649 4.85628 0
M  V30 1817 H 187.856 1.82525 3.30897 0
M  V30 1818 H 188.169 4.26789 6.4426 0
M  V30 1819 H 186.514 3.83243 5.79784 0
M  V30 1820 H 189.705 2.33433 4.05742 0
M  V30 1821 H 189.878 3.448 5.4865 0
M  V30 1822 N 183.284 -1.43765 0.645699 0
M  V30 1823 C 184.532 -2.01499 0.155731 0
M  V30 1824 C 184.853 -1.51151 -1.232 0
M  V30 1825 O 184.123 -0.721044 -1.82148 0
M  V30 1826 H 182.703 -0.745003 0.0545817 0
M  V30 1827 H 185.365 -1.76075 0.835677 0
M  V30 1828 H 184.461 -3.1181 0.134577 0
M  V30 1829 N 184.763 -0.387143 -1.52771 0
M  V30 1830 C 185.726 0.436939 -2.24997 0
M  V30 1831 C 186.726 0.991991 -1.26555 0
M  V30 1832 O 187.916 0.874335 -1.50669 0
M  V30 1833 C 185.048 1.61281 -3.00335 0
M  V30 1834 H 186.241 -0.195365 -2.99263 0
M  V30 1835 H 183.794 -0.139218 -1.55679 0
M  V30 1836 H 184.529 2.2826 -2.30364 0
M  V30 1837 H 184.314 1.22154 -3.72587 0
M  V30 1838 H 185.804 2.19629 -3.5518 0
M  V30 1839 N 186.241 1.57166 -0.116904 0
M  V30 1840 C 187.188 2.15202 0.83408 0
M  V30 1841 C 188.158 1.07644 1.26499 0
M  V30 1842 O 189.343 1.35541 1.34288 0
M  V30 1843 C 186.483 2.75405 2.07957 0
M  V30 1844 C 185.596 3.97264 1.69721 0
M  V30 1845 C 184.731 4.45561 2.89221 0
M  V30 1846 C 183.77 5.59956 2.47215 0
M  V30 1847 N 182.907 6.03006 3.59622 0
M  V30 1848 H 187.747 2.96141 0.332335 0
M  V30 1849 H 185.284 1.46309 0.152349 0
M  V30 1850 H 187.242 3.08439 2.80929 0
M  V30 1851 H 185.872 1.97159 2.55594 0
M  V30 1852 H 184.924 3.70404 0.866316 0
M  V30 1853 H 186.236 4.80226 1.34849 0
M  V30 1854 H 185.39 4.80493 3.7042 0
M  V30 1855 H 184.129 3.61544 3.27318 0
M  V30 1856 H 183.134 5.2463 1.64448 0
M  V30 1857 H 184.359 6.45738 2.10238 0
M  V30 1858 H 182.305 5.21931 3.97396 0
M  V30 1859 H 182.222 6.80819 3.28667 0
M  V30 1860 H 183.49 6.42576 4.41267 0
M  V30 1861 N 187.719 -0.156864 1.56817 0
M  V30 1862 C 189.13 -0.717916 1.72345 0
M  V30 1863 C 189.481 -1.82124 0.729747 0
M  V30 1864 O 188.606 -2.16141 -0.105781 0
M  V30 1865 C 189.201 -1.30904 3.12489 0
M  V30 1866 C 187.76 -1.81676 3.29653 0
M  V30 1867 C 186.907 -0.701349 2.68284 0
M  V30 1868 H 189.858 0.0686989 1.58551 0
M  V30 1869 H 189.879 -2.17882 3.11942 0
M  V30 1870 H 189.391 -0.505796 3.8479 0
M  V30 1871 H 187.492 -2.64598 2.62333 0
M  V30 1872 H 187.605 -1.95226 4.3752 0
M  V30 1873 H 185.969 -1.12548 2.28484 0
M  V30 1874 H 186.752 0.0902846 3.43181 0
M  V30 1875 N 189.197 -1.51736 -0.425897 0
M  V30 1876 C 190.474 -1.55519 -1.1863 0
M  V30 1877 C 190.854 -0.326219 -2.08564 0
M  V30 1878 O 190.202 0.688012 -2.17896 0
M  V30 1879 C 190.412 -2.87521 -1.9782 0
M  V30 1880 C 191.76 -3.39899 -2.54468 0
M  V30 1881 O 192.784 -2.89148 -2.08019 0
M  V30 1882 O 191.643 -4.2848 -3.39215 0
M  V30 1883 H 188.737 -0.625739 -0.540721 0
M  V30 1884 H 191.283 -1.64055 -0.434038 0
M  V30 1885 H 190.055 -3.68422 -1.31836 0
M  V30 1886 H 189.678 -2.822 -2.80088 0
M  V30 1887 N 190.675 0.682077 -1.42076 0
M  V30 1888 C 191.605 1.80796 -1.47767 0
M  V30 1889 C 192.586 1.6677 -0.334954 0
M  V30 1890 O 193.771 1.863 -0.548264 0
M  V30 1891 C 190.901 3.19038 -1.37229 0
M  V30 1892 C 189.855 3.47789 -2.49453 0
M  V30 1893 C 189.181 4.8553 -2.23975 0
M  V30 1894 C 190.481 3.45411 -3.91776 0
M  V30 1895 H 192.175 1.7629 -2.41997 0
M  V30 1896 H 189.721 0.846721 -1.16476 0
M  V30 1897 H 191.674 3.97528 -1.39821 0
M  V30 1898 H 190.398 3.24204 -0.394907 0
M  V30 1899 H 189.057 2.71657 -2.46166 0
M  V30 1900 H 188.705 4.87337 -1.24547 0
M  V30 1901 H 188.405 5.0573 -2.99184 0
M  V30 1902 H 189.929 5.66312 -2.28304 0
M  V30 1903 H 191.343 4.13882 -3.96705 0
M  V30 1904 H 189.74 3.77145 -4.66778 0
M  V30 1905 H 190.81 2.44122 -4.18966 0
M  V30 1906 N 192.153 1.28127 0.917671 0
M  V30 1907 C 193.402 1.14432 1.66097 0
M  V30 1908 C 193.715 -0.307247 1.93172 0
M  V30 1909 O 194.921 -0.565259 2.65551 0
M  V30 1910 C 193.377 2.00015 2.99202 0
M  V30 1911 C 192.985 3.49889 2.79789 0
M  V30 1912 C 194.729 1.94996 3.77064 0
M  V30 1913 C 192.636 4.27636 4.08511 0
M  V30 1914 H 191.566 0.424662 0.62304 0
M  V30 1915 H 194.217 1.52628 1.01868 0
M  V30 1916 H 192.599 1.54672 3.64544 0
M  V30 1917 H 193.773 4.03162 2.23152 0
M  V30 1918 H 192.088 3.56392 2.15345 0
M  V30 1919 H 194.685 2.50354 4.72469 0
M  V30 1920 H 195.028 0.925819 4.05875 0
M  V30 1921 H 195.561 2.38287 3.18534 0
M  V30 1922 H 192.3 5.30615 3.84874 0
M  V30 1923 H 191.82 3.79137 4.64774 0
M  V30 1924 H 193.499 4.37346 4.76799 0
M  V30 1925 N 193.631 -1.12557 1.10312 0
M  V30 1926 C 194.561 -2.20341 0.772798 0
M  V30 1927 C 195.542 -1.68198 -0.25365 0
M  V30 1928 O 196.727 -1.93831 -0.119699 0
M  V30 1929 C 193.857 -3.46709 0.202443 0
M  V30 1930 C 192.811 -4.11996 1.15943 0
M  V30 1931 C 192.137 -5.328 0.450345 0
M  V30 1932 C 193.437 -4.5828 2.50552 0
M  V30 1933 H 195.131 -2.48229 1.674 0
M  V30 1934 H 192.677 -1.19308 0.806326 0
M  V30 1935 H 194.63 -4.2138 -0.0407752 0
M  V30 1936 H 193.354 -3.18245 -0.734001 0
M  V30 1937 H 192.013 -3.39305 1.38808 0
M  V30 1938 H 191.661 -5.00602 -0.490531 0
M  V30 1939 H 191.361 -5.7743 1.08851 0
M  V30 1940 H 192.885 -6.10219 0.215642 0
M  V30 1941 H 194.299 -5.2433 2.31843 0
M  V30 1942 H 192.696 -5.13683 3.10242 0
M  V30 1943 H 193.766 -3.72329 3.10643 0
M  V30 1944 N 195.109 -0.891671 -1.2995 0
M  V30 1945 C 196.357 -0.512486 -1.95494 0
M  V30 1946 C 196.678 0.942776 -1.70695 0
M  V30 1947 O 195.948 1.66374 -1.03424 0
M  V30 1948 H 194.528 -0.186533 -0.723336 0
M  V30 1949 H 197.19 -1.13621 -1.58355 0
M  V30 1950 H 196.286 -0.688342 -3.04415 0
M  V30 1951 N 196.587 1.43421 -0.653314 0
M  V30 1952 C 197.998 1.85065 -0.246537 0
M  V30 1953 C 198.349 1.54688 1.2069 0
M  V30 1954 O 197.474 0.995896 1.92122 0
M  V30 1955 C 198.069 3.35922 -0.440666 0
M  V30 1956 C 196.628 3.76297 -0.0882064 0
M  V30 1957 C 195.775 2.67147 -0.743484 0
M  V30 1958 H 198.726 1.33572 -0.856979 0
M  V30 1959 H 198.747 3.79204 0.313798 0
M  V30 1960 H 198.259 3.58 -1.49858 0
M  V30 1961 H 196.36 3.5983 0.96711 0
M  V30 1962 H 196.473 4.76338 -0.513738 0
M  V30 1963 H 194.837 2.54086 -0.176712 0
M  V30 1964 H 195.62 2.92053 -1.80443 0
M  V30 1965 N 198.065 0.39524 1.52563 0
M  V30 1966 C 199.311 -0.185318 2.01952 0
M  V30 1967 C 199.644 -1.45964 1.28095 0
M  V30 1968 O 198.919 -1.90689 0.38315 0
M  V30 1969 C 199.202 -0.447193 3.57312 0
M  V30 1970 C 199.055 0.842828 4.41833 0
M  V30 1971 C 200.374 -1.23529 4.22408 0
M  V30 1972 H 197.493 -0.0658788 0.73405 0
M  V30 1973 H 200.135 0.525975 1.82575 0
M  V30 1974 H 198.285 -1.05312 3.73954 0
M  V30 1975 H 199.957 1.4795 4.36931 0
M  V30 1976 H 198.2 1.45686 4.08605 0
M  V30 1977 H 198.871 0.614165 5.48573 0
M  V30 1978 H 201.347 -0.722445 4.0978 0
M  V30 1979 H 200.223 -1.38727 5.3108 0
M  V30 1980 H 200.484 -2.25213 3.80436 0
M  V30 1981 N 199.544 -1.57102 0.125237 0
M  V30 1982 C 200.784 -1.97294 -0.534259 0
M  V30 1983 C 201.148 -1.0074 -1.63449 0
M  V30 1984 O 202.349 -1.29893 -2.35332 0
M  V30 1985 C 200.62 -3.41705 -1.04748 0
M  V30 1986 S 202.179 -4.03913 -1.71463 0
M  V30 1987 H 198.997 -0.689517 -0.173458 0
M  V30 1988 H 201.599 -1.94349 0.211797 0
M  V30 1989 H 200.303 -4.09723 -0.235649 0
M  V30 1990 H 199.834 -3.48315 -1.82867 0
M  V30 1991 H 201.849 -3.95182 -3.00077 0
M  V30 1992 N 201.022 0.148545 -1.56898 0
M  V30 1993 C 201.932 1.20293 -2.01412 0
M  V30 1994 C 202.948 1.47107 -0.929273 0
M  V30 1995 O 204.124 1.58807 -1.23863 0
M  V30 1996 C 201.189 2.51682 -2.38447 0
M  V30 1997 C 200.25 2.32529 -3.60872 0
M  V30 1998 C 199.483 3.57653 -3.96132 0
M  V30 1999 O 199.706 4.63771 -3.32073 0
M  V30 2000 O 198.64 3.50408 -4.89385 0
M  V30 2001 H 202.466 0.855025 -2.91416 0
M  V30 2002 H 200.051 0.357151 -1.45068 0
M  V30 2003 H 201.933 3.29147 -2.63135 0
M  V30 2004 H 200.608 2.86006 -1.51599 0
M  V30 2005 H 199.515 1.53019 -3.41373 0
M  V30 2006 H 200.848 2.03121 -4.48333 0
M  V30 2007 N 202.5 1.5196 0.417844 0
M  V30 2008 C 203.73 1.69181 1.18581 0
M  V30 2009 C 204.138 0.397104 1.84986 0
M  V30 2010 O 203.481 -0.636011 1.72339 0
M  V30 2011 C 203.543 2.76497 2.29759 0
M  V30 2012 C 203.207 4.18514 1.83563 0
M  V30 2013 C 204.204 5.02648 1.32821 0
M  V30 2014 C 201.889 4.64708 1.90661 0
M  V30 2015 C 203.883 6.31044 0.897894 0
M  V30 2016 C 201.57 5.93096 1.47241 0
M  V30 2017 C 202.568 6.76093 0.968891 0
M  V30 2018 O 202.256 8.02078 0.540924 0
M  V30 2019 H 201.988 0.570457 0.362705 0
M  V30 2020 H 204.542 1.99249 0.498885 0
M  V30 2021 H 202.772 2.41786 3.01789 0
M  V30 2022 H 204.461 2.82403 2.91553 0
M  V30 2023 H 205.227 4.68154 1.26716 0
M  V30 2024 H 201.106 4.00216 2.28797 0
M  V30 2025 H 204.65 6.95776 0.504192 0
M  V30 2026 H 200.547 6.271 1.53022 0
M  V30 2027 H 201.315 8.15794 0.66502 0
M  V30 2028 N 203.978 -0.674533 1.42435 0
M  V30 2029 C 204.941 -1.76986 1.45632 0
M  V30 2030 C 205.941 -1.5708 0.343871 0
M  V30 2031 O 207.131 -1.63367 0.604709 0
M  V30 2032 C 204.263 -3.15623 1.28822 0
M  V30 2033 H 205.456 -1.75539 2.43158 0
M  V30 2034 H 203.009 -0.884189 1.28887 0
M  V30 2035 H 203.744 -3.22696 0.322193 0
M  V30 2036 H 203.529 -3.31475 2.09444 0
M  V30 2037 H 205.019 -3.95537 1.33942 0
M  V30 2038 N 205.456 -1.28612 -0.910864 0
M  V30 2039 C 206.419 -1.12803 -1.9952 0
M  V30 2040 C 207.419 -0.0668264 -1.60661 0
M  V30 2041 O 208.609 -0.312847 -1.71368 0
M  V30 2042 C 205.741 -0.72254 -3.33155 0
M  V30 2043 H 206.934 -2.09109 -2.14973 0
M  V30 2044 H 204.487 -1.11639 -1.09391 0
M  V30 2045 H 205.222 0.241152 -3.23402 0
M  V30 2046 H 205.007 -1.48916 -3.62721 0
M  V30 2047 H 206.497 -0.634666 -4.12749 0
M  V30 2048 N 206.934 1.1197 -1.10907 0
M  V30 2049 C 207.897 2.16031 -0.765707 0
M  V30 2050 C 208.897 1.59393 0.212235 0
M  V30 2051 O 210.087 1.74196 -0.0115441 0
M  V30 2052 C 207.219 3.40632 -0.135053 0
M  V30 2053 H 208.412 2.47919 -1.68748 0
M  V30 2054 H 205.965 1.27061 -0.910226 0
M  V30 2055 H 206.7 3.14348 0.797218 0
M  V30 2056 H 206.485 3.8302 -0.838937 0
M  V30 2057 H 207.975 4.17505 0.0892469 0
M  V30 2058 N 208.412 0.89855 1.29475 0
M  V30 2059 C 209.823 0.572537 1.77705 0
M  V30 2060 C 210.174 -0.911778 1.73727 0
M  V30 2061 O 209.299 -1.71288 1.32247 0
M  V30 2062 C 209.894 1.03252 3.22683 0
M  V30 2063 C 208.453 0.757687 3.68695 0
M  V30 2064 C 207.6 1.20787 2.49612 0
M  V30 2065 H 210.551 1.08139 1.16153 0
M  V30 2066 H 210.572 0.367307 3.78723 0
M  V30 2067 H 210.084 2.11285 3.25546 0
M  V30 2068 H 208.185 -0.310079 3.71308 0
M  V30 2069 H 208.298 1.35476 4.59547 0
M  V30 2070 H 206.662 0.626888 2.46865 0
M  V30 2071 H 207.445 2.29622 2.55203 0
M  V30 2072 N 209.89 -1.43072 0.660911 0
M  V30 2073 C 211.136 -2.0202 0.177708 0
M  V30 2074 C 211.469 -1.52066 -1.20787 0
M  V30 2075 O 210.744 -0.716987 -1.80802 0
M  V30 2076 C 211.027 -3.59561 0.197019 0
M  V30 2077 C 210.88 -4.19727 1.61706 0
M  V30 2078 C 212.199 -4.37664 -0.462396 0
M  V30 2079 H 209.318 -0.734034 0.0660494 0
M  V30 2080 H 211.96 -1.70272 0.843058 0
M  V30 2081 H 210.11 -3.86739 -0.369527 0
M  V30 2082 H 211.782 -4.03553 2.23479 0
M  V30 2083 H 210.025 -3.76084 2.16201 0
M  V30 2084 H 210.696 -5.28834 1.58237 0
M  V30 2085 H 213.172 -4.16095 0.0197215 0
M  V30 2086 H 212.048 -5.47305 -0.418188 0
M  V30 2087 H 212.309 -4.14493 -1.53778 0
M  V30 2088 N 211.368 -0.403325 -1.52352 0
M  V30 2089 C 212.331 0.413051 -2.25447 0
M  V30 2090 C 213.331 0.978513 -1.276 0
M  V30 2091 O 214.521 0.858305 -1.51587 0
M  V30 2092 C 211.653 1.58087 -3.02029 0
M  V30 2093 H 212.846 -0.227094 -2.99039 0
M  V30 2094 H 210.399 -0.155722 -1.55522 0
M  V30 2095 H 211.134 2.25804 -2.32772 0
M  V30 2096 H 210.919 1.18195 -3.73861 0
M  V30 2097 H 212.409 2.1585 -3.57489 0
M  V30 2098 N 212.846 1.57033 -0.133567 0
M  V30 2099 C 214.262 1.58035 0.222944 0
M  V30 2100 C 214.462 1.14713 1.6566 0
M  V30 2101 O 213.518 0.841218 2.38075 0
M  V30 2102 C 214.831 3.00691 -0.0236116 0
M  V30 2103 C 216.379 3.12973 0.0411512 0
M  V30 2104 C 216.854 4.57654 -0.177899 0
M  V30 2105 N 218.345 4.63033 -0.124365 0
M  V30 2106 C 219.08 5.72771 -0.268553 0
M  V30 2107 N 218.576 6.91206 -0.46972 0
M  V30 2108 N 220.369 5.61718 -0.2071 0
M  V30 2109 H 212.52 1.8349 -1.06981 0
M  V30 2110 H 214.783 0.848677 -0.422436 0
M  V30 2111 H 214.489 3.36726 -1.0153 0
M  V30 2112 H 214.363 3.70614 0.701808 0
M  V30 2113 H 216.75 2.76787 1.02338 0
M  V30 2114 H 216.831 2.45564 -0.716383 0
M  V30 2115 H 216.475 4.94542 -1.15717 0
M  V30 2116 H 216.405 5.23173 0.599797 0
M  V30 2117 H 218.896 3.7789 0.027011 0
M  V30 2118 H 219.209 7.70693 -0.570212 0
M  V30 2119 H 217.554 6.93156 -0.505876 0
M  V30 2120 H 220.745 4.68072 -0.0507986 0
M  V30 2121 H 220.918 6.47195 -0.322909 0
M  V30 2122 N 214.325 -0.140222 1.56975 0
M  V30 2123 C 215.255 -1.17456 2.01808 0
M  V30 2124 C 216.236 -1.44415 0.898794 0
M  V30 2125 O 217.421 -1.5522 1.16707 0
M  V30 2126 C 214.551 -2.50607 2.40444 0
M  V30 2127 C 213.505 -2.38155 3.55621 0
M  V30 2128 C 212.831 -3.76078 3.80091 0
M  V30 2129 C 214.131 -1.85991 4.88062 0
M  V30 2130 H 215.825 -0.801743 2.88466 0
M  V30 2131 H 213.371 -0.38422 1.38779 0
M  V30 2132 H 215.324 -3.23197 2.7041 0
M  V30 2133 H 214.048 -2.89737 1.50732 0
M  V30 2134 H 212.707 -1.68016 3.25832 0
M  V30 2135 H 212.355 -4.12656 2.87618 0
M  V30 2136 H 212.055 -3.68606 4.57606 0
M  V30 2137 H 213.579 -4.50206 4.12488 0
M  V30 2138 H 214.993 -2.4838 5.16701 0
M  V30 2139 H 213.39 -1.89393 5.6943 0
M  V30 2140 H 214.46 -0.816023 4.77984 0
M  V30 2141 N 215.803 -1.52179 -0.40978 0
M  V30 2142 C 216.766 -1.74853 -1.48186 0
M  V30 2143 C 217.766 -0.618417 -1.48433 0
M  V30 2144 O 218.956 -0.886286 -1.49969 0
M  V30 2145 C 216.088 -1.8303 -2.87598 0
M  V30 2146 H 217.281 -2.70559 -1.29374 0
M  V30 2147 H 214.834 -1.42586 -0.640233 0
M  V30 2148 H 215.569 -0.89236 -3.11781 0
M  V30 2149 H 215.354 -2.65187 -2.88822 0
M  V30 2150 H 216.844 -2.02316 -3.65319 0
M  V30 2151 N 217.281 0.66697 -1.42791 0
M  V30 2152 C 218.506 1.46004 -1.47301 0
M  V30 2153 C 218.931 1.87894 -0.0880317 0
M  V30 2154 O 218.289 1.56502 0.915253 0
M  V30 2155 C 218.337 2.68031 -2.41229 0
M  V30 2156 O 217.441 3.6659 -1.88906 0
M  V30 2157 H 216.782 0.43832 -0.49877 0
M  V30 2158 H 219.312 0.817391 -1.87563 0
M  V30 2159 H 219.322 3.1601 -2.58073 0
M  V30 2160 H 217.997 2.36883 -3.41847 0
M  V30 2161 H 216.574 3.25661 -1.81656 0
M  V30 2162 N 218.759 1.29093 0.90403 0
M  V30 2163 C 219.709 1.10482 1.99443 0
M  V30 2164 C 220.693 0.0255401 1.6088 0
M  V30 2165 O 221.885 0.24677 1.75271 0
M  V30 2166 C 219.014 0.778882 3.34348 0
M  V30 2167 C 218.1 1.89749 3.79284 0
M  V30 2168 N 218.491 3.14045 3.96497 0
M  V30 2169 C 216.789 1.78955 4.08523 0
M  V30 2170 C 217.49 3.86996 4.34292 0
M  V30 2171 N 216.466 3.14909 4.43095 0
M  V30 2172 H 220.268 2.04778 2.10815 0
M  V30 2173 H 217.782 1.20155 1.09255 0
M  V30 2174 H 219.779 0.62661 4.12164 0
M  V30 2175 H 218.439 -0.156205 3.24324 0
M  V30 2176 H 219.45 3.49548 3.82148 0
M  V30 2177 H 216.127 0.926886 4.07081 0
M  V30 2178 H 217.517 4.93941 4.55491 0
M  V30 2179 N 220.237 -1.11381 1.11499 0
M  V30 2180 C 221.483 -1.83597 0.875423 0
M  V30 2181 C 221.838 -1.83048 -0.592555 0
M  V30 2182 O 221.131 -1.27304 -1.43193 0
M  V30 2183 C 221.325 -3.30026 1.37177 0
M  V30 2184 C 221.154 -3.44837 2.88647 0
M  V30 2185 C 219.924 -3.57825 3.56776 0
M  V30 2186 C 222.122 -3.3907 3.86699 0
M  V30 2187 N 220.104 -3.61113 4.96458 0
M  V30 2188 C 221.475 -3.48986 5.12454 0
M  V30 2189 C 223.53 -3.22605 3.7925 0
M  V30 2190 C 222.233 -3.44135 6.31636 0
M  V30 2191 C 224.259 -3.19072 4.97943 0
M  V30 2192 C 223.621 -3.29559 6.22551 0
M  V30 2193 H 219.72 -0.687044 0.37349 0
M  V30 2194 H 222.304 -1.33265 1.41946 0
M  V30 2195 H 220.475 -3.78874 0.854919 0
M  V30 2196 H 222.207 -3.90153 1.07529 0
M  V30 2197 H 218.962 -3.60414 3.07244 0
M  V30 2198 H 219.386 -3.66394 5.69284 0
M  V30 2199 H 224.028 -3.13382 2.83816 0
M  V30 2200 H 221.746 -3.52126 7.27347 0
M  V30 2201 H 225.332 -3.07498 4.93899 0
M  V30 2202 H 224.212 -3.26815 7.12855 0
M  V30 2203 N 221.715 -0.905404 -1.28997 0
M  V30 2204 C 222.992 -0.453513 -1.9027 0
M  V30 2205 C 223.372 1.06721 -1.82137 0
M  V30 2206 O 222.72 1.91159 -1.25182 0
M  V30 2207 C 222.93 -0.974494 -3.35119 0
M  V30 2208 C 224.278 -1.0216 -4.12127 0
M  V30 2209 O 225.302 -0.922557 -3.44046 0
M  V30 2210 O 224.161 -1.17121 -5.33802 0
M  V30 2211 H 221.255 -0.142347 -0.814657 0
M  V30 2212 H 223.801 -0.995642 -1.37423 0
M  V30 2213 H 222.573 -2.01848 -3.35221 0
M  V30 2214 H 222.196 -0.412706 -3.95452 0
M  V30 2215 N 223.193 1.4272 -0.668489 0
M  V30 2216 C 224.123 2.335 -0.000100175 0
M  V30 2217 C 225.104 1.50328 0.795964 0
M  V30 2218 O 226.289 1.78949 0.754385 0
M  V30 2219 C 223.419 3.33874 0.956302 0
M  V30 2220 C 222.373 4.27152 0.269278 0
M  V30 2221 C 221.699 5.17684 1.33818 0
M  V30 2222 C 222.999 5.15373 -0.847805 0
M  V30 2223 H 224.693 2.89639 -0.758244 0
M  V30 2224 H 222.239 1.39269 -0.366079 0
M  V30 2225 H 224.192 3.9629 1.43292 0
M  V30 2226 H 222.916 2.76025 1.74579 0
M  V30 2227 H 221.575 3.66123 -0.187042 0
M  V30 2228 H 221.223 4.56165 2.1195 0
M  V30 2229 H 220.923 5.80918 0.883659 0
M  V30 2230 H 222.447 5.82974 1.81586 0
M  V30 2231 H 223.861 5.7151 -0.452681 0
M  V30 2232 H 222.258 5.87407 -1.22773 0
M  V30 2233 H 223.328 4.5415 -1.69929 0
M  V30 2234 N 224.671 0.411399 1.52136 0
M  V30 2235 C 226.082 -0.0576826 1.86611 0
M  V30 2236 C 226.433 -1.44238 1.33003 0
M  V30 2237 O 225.558 -2.05759 0.670228 0
M  V30 2238 C 226.153 -0.111448 3.38617 0
M  V30 2239 C 224.712 -0.52487 3.72723 0
M  V30 2240 C 223.859 0.299176 2.75681 0
M  V30 2241 H 226.81 0.628368 1.4573 0
M  V30 2242 H 226.831 -0.926252 3.69054 0
M  V30 2243 H 226.343 0.896488 3.77604 0
M  V30 2244 H 224.444 -1.53936 3.39315 0
M  V30 2245 H 224.557 -0.267681 4.78352 0
M  V30 2246 H 222.921 -0.238814 2.53578 0
M  V30 2247 H 223.704 1.3055 3.17508 0
M  V30 2248 N 226.149 -1.5696 0.141893 0
M  V30 2249 C 227.082 -2.12271 -0.837627 0
M  V30 2250 C 228.06 -1.04495 -1.24578 0
M  V30 2251 O 229.244 -1.32293 -1.34278 0
M  V30 2252 C 226.371 -2.63822 -2.12404 0
M  V30 2253 C 225.417 -3.83698 -1.86221 0
M  V30 2254 S 226.25 -5.24948 -1.05781 0
M  V30 2255 C 227.406 -5.79884 -2.35552 0
M  V30 2256 H 227.639 -2.95023 -0.367249 0
M  V30 2257 H 225.172 -1.54231 -0.0723014 0
M  V30 2258 H 227.13 -2.94175 -2.86307 0
M  V30 2259 H 225.791 -1.8121 -2.56557 0
M  V30 2260 H 224.984 -4.17995 -2.81596 0
M  V30 2261 H 224.586 -3.5408 -1.20429 0
M  V30 2262 H 226.878 -5.91005 -3.31239 0
M  V30 2263 H 227.821 -6.77544 -2.05767 0
M  V30 2264 H 228.229 -5.08095 -2.45967 0
M  V30 2265 N 227.627 0.131896 -1.57047 0
M  V30 2266 C 228.557 1.16384 -2.02428 0
M  V30 2267 C 229.538 1.43936 -0.90644 0
M  V30 2268 O 230.723 1.54599 -1.17528 0
M  V30 2269 C 227.853 2.49328 -2.4177 0
M  V30 2270 C 226.807 2.36266 -3.56879 0
M  V30 2271 C 226.133 3.74057 -3.8208 0
M  V30 2272 C 227.433 1.834 -4.89042 0
M  V30 2273 H 229.127 0.786433 -2.88887 0
M  V30 2274 H 226.673 0.376855 -1.38981 0
M  V30 2275 H 228.626 3.21759 -2.7212 0
M  V30 2276 H 227.35 2.88934 -1.52266 0
M  V30 2277 H 226.009 1.66286 -3.26718 0
M  V30 2278 H 225.657 4.11125 -2.89803 0
M  V30 2279 H 225.357 3.66174 -4.59554 0
M  V30 2280 H 226.881 4.48012 -4.1487 0
M  V30 2281 H 228.295 2.45636 -5.18011 0
M  V30 2282 H 226.692 1.8637 -5.70426 0
M  V30 2283 H 227.762 0.790662 -4.7841 0
M  V30 2284 N 229.106 1.52395 0.401703 0
M  V30 2285 C 230.331 1.70972 1.17403 0
M  V30 2286 C 230.756 0.421615 1.83314 0
M  V30 2287 O 230.114 -0.621564 1.70312 0
M  V30 2288 C 230.162 2.85151 2.20728 0
M  V30 2289 O 229.266 2.51238 3.27037 0
M  V30 2290 H 228.607 0.568927 0.342372 0
M  V30 2291 H 231.137 1.99131 0.469891 0
M  V30 2292 H 231.147 3.10279 2.64936 0
M  V30 2293 H 229.822 3.78603 1.7214 0
M  V30 2294 H 228.399 2.36808 2.88057 0
M  V30 2295 N 230.584 -0.659388 1.43143 0
M  V30 2296 C 231.547 -1.75432 1.47501 0
M  V30 2297 C 232.547 -1.56707 0.360512 0
M  V30 2298 O 233.737 -1.62717 0.622002 0
M  V30 2299 C 230.869 -3.14239 1.32162 0
M  V30 2300 H 232.062 -1.7295 2.45006 0
M  V30 2301 H 229.615 -0.870469 1.29817 0
M  V30 2302 H 230.35 -3.22336 0.356401 0
M  V30 2303 H 230.135 -3.29235 2.12948 0
M  V30 2304 H 231.625 -3.94094 1.3813 0
M  V30 2305 N 232.062 -1.29571 -0.897171 0
M  V30 2306 C 233.31 -1.17456 -1.64464 0
M  V30 2307 C 233.631 0.273698 -1.9307 0
M  V30 2308 O 232.901 1.18684 -1.55855 0
M  V30 2309 H 231.481 -0.431706 -0.609622 0
M  V30 2310 H 234.143 -1.62531 -1.07562 0
M  V30 2311 H 233.239 -1.72648 -2.59998 0
M  V30 2312 N 233.54 1.10788 -1.12088 0
M  V30 2313 C 234.503 2.15207 -0.788577 0
M  V30 2314 C 235.503 1.59609 0.195317 0
M  V30 2315 O 236.693 1.74174 -0.0300193 0
M  V30 2316 C 233.825 3.4047 -0.171174 0
M  V30 2317 H 235.018 2.46116 -1.71368 0
M  V30 2318 H 232.571 1.26089 -0.923652 0
M  V30 2319 H 233.306 3.15176 0.763832 0
M  V30 2320 H 233.091 3.82109 -0.879514 0
M  V30 2321 H 234.581 4.17576 0.04496 0
M  V30 2322 N 235.018 0.912232 1.28515 0
M  V30 2323 C 235.948 0.416403 2.29757 0
M  V30 2324 C 236.929 -0.515194 1.6211 0
M  V30 2325 O 238.114 -0.423253 1.89532 0
M  V30 2326 C 235.244 -0.34572 3.45575 0
M  V30 2327 C 234.198 0.496599 4.25109 0
M  V30 2328 C 233.524 -0.393771 5.33248 0
M  V30 2329 C 234.824 1.75307 4.92001 0
M  V30 2330 H 236.518 1.26249 2.7148 0
M  V30 2331 H 234.064 0.608515 1.30511 0
M  V30 2332 H 236.017 -0.703422 4.15488 0
M  V30 2333 H 234.741 -1.2257 3.02728 0
M  V30 2334 H 233.4 0.8368 3.56922 0
M  V30 2335 H 233.048 -1.27225 4.86644 0
M  V30 2336 H 232.748 0.166209 5.87365 0
M  V30 2337 H 234.272 -0.747389 6.06009 0
M  V30 2338 H 235.686 1.46437 5.54283 0
M  V30 2339 H 234.083 2.25534 5.56106 0
M  V30 2340 H 235.153 2.48176 4.16577 0
M  V30 2341 N 236.496 -1.42363 0.676048 0
M  V30 2342 C 237.459 -2.29199 0.00766941 0
M  V30 2343 C 238.459 -1.43389 -0.727745 0
M  V30 2344 O 239.649 -1.64764 -0.56556 0
M  V30 2345 C 236.781 -3.2591 -0.999785 0
M  V30 2346 H 237.974 -2.89794 0.771988 0
M  V30 2347 H 235.527 -1.50024 0.438468 0
M  V30 2348 H 236.262 -2.70256 -1.79255 0
M  V30 2349 H 236.047 -3.89202 -0.475829 0
M  V30 2350 H 237.537 -3.91028 -1.46583 0
M  V30 2351 N 237.974 -0.419461 -1.51915 0
M  V30 2352 C 238.937 0.389116 -2.25873 0
M  V30 2353 C 239.937 0.964924 -1.28631 0
M  V30 2354 O 241.127 0.842179 -1.52489 0
M  V30 2355 C 238.259 1.54874 -3.03689 0
M  V30 2356 H 239.452 -0.258799 -2.98781 0
M  V30 2357 H 237.005 -0.172209 -1.55348 0
M  V30 2358 H 237.74 2.23323 -2.35154 0
M  V30 2359 H 237.525 1.14223 -3.75094 0
M  V30 2360 H 239.015 2.12046 -3.59759 0
M  V30 2361 N 239.452 1.56882 -0.150215 0
M  V30 2362 C 240.7 1.9584 0.499105 0
M  V30 2363 C 241.021 1.03623 1.65188 0
M  V30 2364 O 240.291 0.0984084 1.95653 0
M  V30 2365 H 238.871 0.723119 0.187373 0
M  V30 2366 H 241.533 1.9358 -0.226466 0
M  V30 2367 H 240.629 2.99638 0.873122 0
M  V30 2368 N 240.93 -0.123565 1.57115 0
M  V30 2369 C 242.177 -0.832153 1.84612 0
M  V30 2370 C 242.505 -1.80093 0.734627 0
M  V30 2371 O 241.76 -1.93766 -0.27442 0
M  V30 2372 C 242.059 -1.62016 3.18568 0
M  V30 2373 C 241.725 -0.796084 4.43817 0
M  V30 2374 C 240.387 -0.568816 4.77826 0
M  V30 2375 C 242.739 -0.221364 5.2073 0
M  V30 2376 C 240.067 0.243499 5.86194 0
M  V30 2377 C 242.419 0.578117 6.29953 0
M  V30 2378 C 241.083 0.815744 6.62497 0
M  V30 2379 H 240.353 -0.304507 0.675542 0
M  V30 2380 H 243 -0.0947248 1.91266 0
M  V30 2381 H 241.305 -2.42837 3.0747 0
M  V30 2382 H 243.002 -2.17231 3.37064 0
M  V30 2383 H 239.592 -0.983307 4.17168 0
M  V30 2384 H 243.776 -0.384173 4.94811 0
M  V30 2385 H 239.032 0.436871 6.09837 0
M  V30 2386 H 243.206 1.03046 6.88734 0
M  V30 2387 H 240.833 1.44701 7.46301 0
M  V30 2388 N 242.408 -1.52605 -0.393616 0
M  V30 2389 C 243.34 -1.73303 -1.49995 0
M  V30 2390 C 244.353 -0.613473 -1.50799 0
M  V30 2391 O 245.542 -0.889049 -1.54784 0
M  V30 2392 C 242.642 -1.77245 -2.88855 0
M  V30 2393 C 241.815 -3.06483 -3.12069 0
M  V30 2394 C 240.874 -3.02033 -4.30886 0
M  V30 2395 O 239.9 -3.75907 -4.27414 0
M  V30 2396 N 241.102 -2.20897 -5.36828 0
M  V30 2397 H 243.867 -2.68756 -1.32629 0
M  V30 2398 H 241.428 -1.51036 -0.583083 0
M  V30 2399 H 243.42 -1.7178 -3.66434 0
M  V30 2400 H 241.99 -0.891993 -2.99603 0
M  V30 2401 H 241.21 -3.25474 -2.22396 0
M  V30 2402 H 242.498 -3.91947 -3.2443 0
M  V30 2403 H 241.896 -1.60336 -5.42502 0
M  V30 2404 H 240.453 -2.21275 -6.13091 0
M  V30 2405 N 243.887 0.651787 -1.4349 0
M  V30 2406 C 244.837 1.75783 -1.45205 0
M  V30 2407 C 245.821 1.57679 -0.320328 0
M  V30 2408 O 247.013 1.67767 -0.564211 0
M  V30 2409 C 244.142 3.14377 -1.3792 0
M  V30 2410 C 243.228 3.38023 -2.56127 0
M  V30 2411 N 243.619 3.32135 -3.81471 0
M  V30 2412 C 241.917 3.68747 -2.50882 0
M  V30 2413 C 242.618 3.55902 -4.60118 0
M  V30 2414 N 241.594 3.77783 -3.90872 0
M  V30 2415 H 245.396 1.69657 -2.39987 0
M  V30 2416 H 242.91 0.853508 -1.38163 0
M  V30 2417 H 244.907 3.93666 -1.37231 0
M  V30 2418 H 243.567 3.21683 -0.441596 0
M  V30 2419 H 244.578 3.11515 -4.13738 0
M  V30 2420 H 241.255 3.8316 -1.65816 0
M  V30 2421 H 242.645 3.57116 -5.69138 0
M  V30 2422 N 245.365 1.30045 0.890287 0
M  V30 2423 C 246.312 1.15976 1.99545 0
M  V30 2424 C 247.282 0.0506202 1.66023 0
M  V30 2425 O 248.467 0.219847 1.89529 0
M  V30 2426 C 245.607 0.852054 3.34416 0
M  V30 2427 C 244.72 2.04255 3.80662 0
M  V30 2428 C 243.855 1.6734 5.04154 0
M  V30 2429 C 242.894 2.82916 5.42794 0
M  V30 2430 N 242.031 2.46333 6.57468 0
M  V30 2431 H 246.871 2.10524 2.10911 0
M  V30 2432 H 244.408 1.04749 1.03276 0
M  V30 2433 H 246.366 0.654296 4.12037 0
M  V30 2434 H 244.996 -0.0565502 3.2275 0
M  V30 2435 H 244.048 2.35172 2.98995 0
M  V30 2436 H 245.36 2.90826 4.05242 0
M  V30 2437 H 244.514 1.43908 5.89386 0
M  V30 2438 H 243.253 0.779308 4.81433 0
M  V30 2439 H 242.258 3.0702 4.56091 0
M  V30 2440 H 243.483 3.73004 5.6749 0
M  V30 2441 H 241.429 1.59423 6.36334 0
M  V30 2442 H 241.346 3.26436 6.81891 0
M  V30 2443 H 242.614 2.26244 7.45945 0
M  V30 2444 N 246.843 -1.10192 1.12674 0
M  V30 2445 C 248.12 -1.78717 0.794965 0
M  V30 2446 C 248.5 -1.98628 -0.714853 0
M  V30 2447 O 247.848 -1.58135 -1.64941 0
M  V30 2448 C 248.058 -3.11546 1.5729 0
M  V30 2449 C 249.406 -3.86382 1.76052 0
M  V30 2450 O 250.43 -3.21274 1.53823 0
M  V30 2451 O 249.289 -5.03246 2.13087 0
M  V30 2452 H 246.383 -0.774702 0.289423 0
M  V30 2453 H 248.929 -1.16819 1.23091 0
M  V30 2454 H 247.701 -2.92489 2.59935 0
M  V30 2455 H 247.324 -3.81164 1.13137 0
M  V30 2456 N 248.321 -0.919034 -1.28029 0
M  V30 2457 C 249.546 -0.570357 -1.99403 0
M  V30 2458 C 249.971 0.842486 -1.68178 0
M  V30 2459 O 249.329 1.56391 -0.917141 0
M  V30 2460 C 249.377 -0.792541 -3.51783 0
M  V30 2461 O 248.481 0.145988 -4.12142 0
M  V30 2462 H 247.822 -0.220555 -0.6263 0
M  V30 2463 H 250.352 -1.23592 -1.63053 0
M  V30 2464 H 250.362 -0.704708 -4.01868 0
M  V30 2465 H 249.037 -1.82247 -3.73844 0
M  V30 2466 H 247.614 0.00897528 -3.72899 0
M  V30 2467 N 249.799 1.42003 -0.683588 0
M  V30 2468 C 250.709 2.34597 -0.0109075 0
M  V30 2469 C 251.725 1.55576 0.779245 0
M  V30 2470 O 252.901 1.88107 0.719555 0
M  V30 2471 C 249.966 3.34199 0.922588 0
M  V30 2472 C 249.027 4.29115 0.125984 0
M  V30 2473 C 248.26 5.23959 1.01502 0
M  V30 2474 O 248.483 5.23952 2.25456 0
M  V30 2475 O 247.417 6.00053 0.47111 0
M  V30 2476 H 251.243 2.93675 -0.773853 0
M  V30 2477 H 248.828 1.42654 -0.443861 0
M  V30 2478 H 250.71 3.95365 1.45823 0
M  V30 2479 H 249.385 2.77582 1.66523 0
M  V30 2480 H 248.292 3.71335 -0.453969 0
M  V30 2481 H 249.625 4.88798 -0.577736 0
M  V30 2482 N 251.277 0.427512 1.51691 0
M  V30 2483 C 252.507 -0.140986 2.06118 0
M  V30 2484 C 252.915 -1.37854 1.29588 0
M  V30 2485 O 252.258 -1.80411 0.346036 0
M  V30 2486 C 252.32 -0.538276 3.55447 0
M  V30 2487 C 251.984 0.591095 4.53161 0
M  V30 2488 C 252.981 1.46027 4.98971 0
M  V30 2489 C 250.666 0.769028 4.96378 0
M  V30 2490 C 252.66 2.49216 5.8666 0
M  V30 2491 C 250.347 1.80421 5.83859 0
M  V30 2492 C 251.345 2.66417 6.28897 0
M  V30 2493 O 251.033 3.68159 7.14643 0
M  V30 2494 H 250.765 -0.0157455 0.675817 0
M  V30 2495 H 253.319 0.602495 1.96365 0
M  V30 2496 H 251.549 -1.33432 3.6295 0
M  V30 2497 H 253.238 -1.0368 3.92435 0
M  V30 2498 H 254.004 1.33429 4.66285 0
M  V30 2499 H 249.883 0.109273 4.6087 0
M  V30 2500 H 253.427 3.16372 6.21735 0
M  V30 2501 H 249.324 1.93042 6.15959 0
M  V30 2502 H 250.092 3.64622 7.32798 0
M  V30 2503 N 252.755 -1.56801 0.158532 0
M  V30 2504 C 253.98 -2.01295 -0.499516 0
M  V30 2505 C 254.405 -1.03799 -1.56867 0
M  V30 2506 O 253.763 -0.0155162 -1.81293 0
M  V30 2507 C 253.811 -3.44469 -1.06647 0
M  V30 2508 O 252.915 -3.50012 -2.18095 0
M  V30 2509 H 252.256 -0.652884 -0.12099 0
M  V30 2510 H 254.786 -2.02958 0.258661 0
M  V30 2511 H 254.796 -3.8351 -1.39227 0
M  V30 2512 H 253.471 -4.14932 -0.283581 0
M  V30 2513 H 252.048 -3.22822 -1.86656 0
M  V30 2514 N 254.233 0.115231 -1.57178 0
M  V30 2515 C 255.183 1.14707 -1.97044 0
M  V30 2516 C 256.167 1.36866 -0.845957 0
M  V30 2517 O 257.359 1.37895 -1.10968 0
M  V30 2518 C 254.488 2.47266 -2.38148 0
M  V30 2519 C 253.574 2.28566 -3.57237 0
M  V30 2520 N 253.965 1.79685 -4.72807 0
M  V30 2521 C 252.263 2.59208 -3.62943 0
M  V30 2522 C 252.964 1.74781 -5.54821 0
M  V30 2523 N 251.94 2.19264 -4.97417 0
M  V30 2524 H 255.742 0.761754 -2.83857 0
M  V30 2525 H 253.256 0.322928 -1.59157 0
M  V30 2526 H 255.253 3.219 -2.64927 0
M  V30 2527 H 253.913 2.86552 -1.52702 0
M  V30 2528 H 254.924 1.49177 -4.9595 0
M  V30 2529 H 251.601 3.02154 -2.88113 0
M  V30 2530 H 252.991 1.38212 -6.57531 0
M  V30 2531 N 255.711 1.52812 0.385517 0
M  V30 2532 C 256.641 1.80808 1.47752 0
M  V30 2533 C 257.622 0.660318 1.5676 0
M  V30 2534 O 258.807 0.908246 1.71652 0
M  V30 2535 C 255.937 1.98008 2.85324 0
M  V30 2536 C 254.891 3.13709 2.91154 0
M  V30 2537 C 254.217 3.16169 4.31209 0
M  V30 2538 C 255.517 4.52709 2.60483 0
M  V30 2539 H 257.211 2.72253 1.24573 0
M  V30 2540 H 254.757 1.31003 0.597839 0
M  V30 2541 H 256.71 2.16176 3.61726 0
M  V30 2542 H 255.434 1.03255 3.09848 0
M  V30 2543 H 254.093 2.95329 2.17201 0
M  V30 2544 H 253.741 2.19092 4.52778 0
M  V30 2545 H 253.441 3.93894 4.36029 0
M  V30 2546 H 254.965 3.36496 5.09512 0
M  V30 2547 H 256.379 4.71173 3.26602 0
M  V30 2548 H 254.776 5.32528 2.76648 0
M  V30 2549 H 255.846 4.59186 1.55809 0
M  V30 2550 N 257.189 -0.644168 1.43834 0
M  V30 2551 C 258.417 -1.43147 1.49387 0
M  V30 2552 C 258.832 -1.88452 0.114583 0
M  V30 2553 O 258.189 -1.60047 -0.876989 0
M  V30 2554 C 258.24 -2.66046 2.44748 0
M  V30 2555 O 257.961 -2.22633 3.77314 0
M  V30 2556 C 259.462 -3.59311 2.59635 0
M  V30 2557 H 256.682 -0.439447 0.507077 0
M  V30 2558 H 259.226 -0.78895 1.88669 0
M  V30 2559 H 257.381 -3.26418 2.08638 0
M  V30 2560 H 257.795 -3.02216 4.28679 0
M  V30 2561 H 259.269 -4.42187 3.30416 0
M  V30 2562 H 259.746 -4.07259 1.64427 0
M  V30 2563 H 260.352 -3.04816 2.96593 0
M  V30 2564 N 258.668 -1.30515 -0.883378 0
M  V30 2565 C 260.084 -1.08881 -1.16692 0
M  V30 2566 C 260.284 0.149409 -2.00945 0
M  V30 2567 O 259.34 0.84257 -2.38027 0
M  V30 2568 C 260.653 -2.35319 -1.87204 0
M  V30 2569 C 262.201 -2.40799 -1.99962 0
M  V30 2570 C 262.676 -3.67083 -2.73887 0
M  V30 2571 N 264.167 -3.679 -2.81432 0
M  V30 2572 C 264.902 -4.62303 -3.3921 0
M  V30 2573 N 264.398 -5.67052 -3.98025 0
M  V30 2574 N 266.191 -4.49845 -3.3704 0
M  V30 2575 H 258.342 -2.09951 -0.321633 0
M  V30 2576 H 260.605 -0.92556 -0.205043 0
M  V30 2577 H 260.311 -3.25689 -1.3274 0
M  V30 2578 H 260.185 -2.44089 -2.87577 0
M  V30 2579 H 262.572 -1.50907 -2.53597 0
M  V30 2580 H 262.653 -2.36003 -0.98673 0
M  V30 2581 H 262.297 -4.57334 -2.20925 0
M  V30 2582 H 262.227 -3.69141 -3.75556 0
M  V30 2583 H 264.718 -2.92171 -2.39676 0
M  V30 2584 H 265.031 -6.35184 -4.40183 0
M  V30 2585 H 263.376 -5.70842 -3.96439 0
M  V30 2586 H 266.567 -3.67194 -2.90321 0
M  V30 2587 H 266.74 -5.23597 -3.81772 0
M  V30 2588 N 260.146 1.09593 -1.13257 0
M  V30 2589 C 261.392 1.82003 -0.89458 0
M  V30 2590 C 261.725 1.85402 0.577906 0
M  V30 2591 O 261 1.32099 1.42759 0
M  V30 2592 C 261.283 3.28237 -1.48096 0
M  V30 2593 C 261.136 3.3312 -3.02244 0
M  V30 2594 C 262.455 4.24871 -1.14774 0
M  V30 2595 H 259.574 0.66077 -0.326424 0
M  V30 2596 H 262.216 1.28389 -1.40058 0
M  V30 2597 H 260.366 3.74024 -1.05062 0
M  V30 2598 H 262.038 2.95748 -3.54021 0
M  V30 2599 H 260.281 2.72756 -3.37323 0
M  V30 2600 H 260.952 4.3613 -3.38371 0
M  V30 2601 H 263.428 3.87361 -1.51957 0
M  V30 2602 H 262.304 5.25532 -1.58452 0
M  V30 2603 H 262.565 4.42058 -0.0611849 0
M  V30 2604 N 261.624 0.925811 1.2754 0
M  V30 2605 C 262.587 0.428129 2.25166 0
M  V30 2606 C 263.587 -0.452261 1.54309 0
M  V30 2607 O 264.777 -0.253608 1.72344 0
M  V30 2608 C 261.909 -0.384749 3.38722 0
M  V30 2609 H 263.102 1.29066 2.70706 0
M  V30 2610 H 260.655 0.706323 1.3943 0
M  V30 2611 H 261.39 -1.26618 2.98561 0
M  V30 2612 H 261.175 0.246454 3.91325 0
M  V30 2613 H 262.665 -0.723389 4.11287 0
M  V30 2614 N 263.102 -1.41638 0.69111 0
M  V30 2615 C 264.513 -1.84346 0.295517 0
M  V30 2616 C 264.864 -1.57833 -1.16547 0
M  V30 2617 O 263.989 -1.04648 -1.89414 0
M  V30 2618 C 264.584 -3.34636 0.529575 0
M  V30 2619 C 263.143 -3.7593 0.187944 0
M  V30 2620 C 262.29 -2.65082 0.814052 0
M  V30 2621 H 265.241 -1.31253 0.892092 0
M  V30 2622 H 265.262 -3.79903 -0.213148 0
M  V30 2623 H 264.774 -3.53901 1.59297 0
M  V30 2624 H 262.875 -3.62268 -0.871367 0
M  V30 2625 H 262.988 -4.74808 0.63985 0
M  V30 2626 H 261.352 -2.53528 0.244017 0
M  V30 2627 H 262.135 -2.87167 1.88123 0
M  V30 2628 N 264.58 -0.43555 -1.51462 0
M  V30 2629 C 265.543 0.365137 -2.26273 0
M  V30 2630 C 266.543 0.951227 -1.29647 0
M  V30 2631 O 267.733 0.825958 -1.53374 0
M  V30 2632 C 264.865 1.51645 -3.05314 0
M  V30 2633 H 266.058 -0.290474 -2.9849 0
M  V30 2634 H 263.611 -0.188676 -1.55157 0
M  V30 2635 H 264.346 2.20816 -2.3751 0
M  V30 2636 H 264.131 1.10238 -3.76284 0
M  V30 2637 H 265.621 2.08218 -3.61987 0
M  V30 2638 N 266.058 1.56714 -0.166846 0
M  V30 2639 C 267.288 2.00828 0.48494 0
M  V30 2640 C 267.696 1.04612 1.57648 0
M  V30 2641 O 267.039 0.0383201 1.8366 0
M  V30 2642 C 267.101 3.4137 1.12723 0
M  V30 2643 C 266.765 4.56654 0.177886 0
M  V30 2644 C 267.762 5.16402 -0.60207 0
M  V30 2645 C 265.447 5.02244 0.0750139 0
M  V30 2646 C 267.441 6.20167 -1.47215 0
M  V30 2647 C 265.128 6.05859 -0.798649 0
M  V30 2648 C 266.126 6.64691 -1.57082 0
M  V30 2649 O 265.814 7.66297 -2.42989 0
M  V30 2650 H 265.546 0.663587 0.128953 0
M  V30 2651 H 268.1 2.03692 -0.264365 0
M  V30 2652 H 266.33 3.35406 1.92457 0
M  V30 2653 H 268.019 3.69466 1.68076 0
M  V30 2654 H 268.785 4.82065 -0.53274 0
M  V30 2655 H 264.664 4.56167 0.665812 0
M  V30 2656 H 268.208 6.66016 -2.07531 0
M  V30 2657 H 264.105 6.39621 -0.869199 0
M  V30 2658 H 264.873 7.83601 -2.36455 0
M  V30 2659 N 267.536 -0.106894 1.57237 0
M  V30 2660 C 268.499 -1.11466 2.0027 0
M  V30 2661 C 269.499 -1.33623 0.894519 0
M  V30 2662 O 270.689 -1.29935 1.16028 0
M  V30 2663 C 267.821 -2.46646 2.35327 0
M  V30 2664 H 269.014 -0.744516 2.90512 0
M  V30 2665 H 266.567 -0.351576 1.52295 0
M  V30 2666 H 267.302 -2.88558 1.48003 0
M  V30 2667 H 267.087 -2.31915 3.16161 0
M  V30 2668 H 268.577 -3.19151 2.69318 0
M  V30 2669 N 269.014 -1.53014 -0.377408 0
M  V30 2670 C 269.961 -1.78616 -1.46168 0
M  V30 2671 C 270.931 -0.629917 -1.53692 0
M  V30 2672 O 272.116 -0.870861 -1.69766 0
M  V30 2673 C 269.256 -1.97123 -2.8326 0
M  V30 2674 C 268.369 -3.24831 -2.84796 0
M  V30 2675 C 267.504 -3.33591 -4.13389 0
M  V30 2676 C 266.543 -4.55377 -4.09021 0
M  V30 2677 N 265.68 -4.61355 -5.29241 0
M  V30 2678 H 270.52 -2.71142 -1.23637 0
M  V30 2679 H 268.057 -1.34326 -0.599577 0
M  V30 2680 H 270.015 -2.05839 -3.62886 0
M  V30 2681 H 268.645 -1.07946 -3.04216 0
M  V30 2682 H 267.697 -3.25128 -1.97474 0
M  V30 2683 H 269.009 -4.14523 -2.77439 0
M  V30 2684 H 268.163 -3.41554 -5.01424 0
M  V30 2685 H 266.902 -2.41894 -4.23484 0
M  V30 2686 H 265.907 -4.47527 -3.19373 0
M  V30 2687 H 267.132 -5.48402 -4.00539 0
M  V30 2688 H 265.078 -3.72554 -5.39944 0
M  V30 2689 H 264.995 -5.44935 -5.24006 0
M  V30 2690 H 266.263 -4.73586 -6.19141 0
M  V30 2691 N 270.492 0.636531 -1.44174 0
M  V30 2692 C 271.425 1.76139 -1.45087 0
M  V30 2693 C 272.403 1.59611 -0.310326 0
M  V30 2694 O 273.587 1.81568 -0.506477 0
M  V30 2695 C 270.714 3.13648 -1.27839 0
M  V30 2696 C 269.76 3.48838 -2.45386 0
M  V30 2697 S 270.593 3.46927 -4.07924 0
M  V30 2698 C 271.749 4.87064 -3.9309 0
M  V30 2699 H 271.982 1.75096 -2.40268 0
M  V30 2700 H 269.515 0.810666 -1.31406 0
M  V30 2701 H 271.473 3.93002 -1.18575 0
M  V30 2702 H 270.134 3.12235 -0.341787 0
M  V30 2703 H 269.327 4.48886 -2.29167 0
M  V30 2704 H 268.929 2.76935 -2.51362 0
M  V30 2705 H 271.221 5.76153 -3.56446 0
M  V30 2706 H 272.164 5.08337 -4.92949 0
M  V30 2707 H 272.572 4.61384 -3.25246 0
M  V30 2708 N 271.97 1.30982 0.876444 0
M  V30 2709 C 273.218 1.20058 1.62575 0
M  V30 2710 C 273.539 -0.242947 1.93481 0
M  V30 2711 O 272.809 -1.1619 1.57724 0
M  V30 2712 H 271.389 0.44135 0.602677 0
M  V30 2713 H 274.051 1.64222 1.04962 0
M  V30 2714 H 273.147 1.76762 2.57219 0
M  V30 2715 N 273.449 -1.08991 1.13837 0
M  V30 2716 C 274.359 -2.19301 0.833333 0
M  V30 2717 C 275.375 -1.73026 -0.183847 0
M  V30 2718 O 276.551 -2.01395 -0.0138092 0
M  V30 2719 C 273.616 -3.45323 0.308651 0
M  V30 2720 C 272.677 -4.06255 1.38764 0
M  V30 2721 C 271.91 -5.26262 0.887896 0
M  V30 2722 O 272.133 -5.69747 -0.27287 0
M  V30 2723 O 271.067 -5.78435 1.66421 0
M  V30 2724 H 274.893 -2.47854 1.75506 0
M  V30 2725 H 272.478 -1.18012 0.916166 0
M  V30 2726 H 274.36 -4.21394 0.0216739 0
M  V30 2727 H 273.035 -3.18362 -0.585431 0
M  V30 2728 H 271.942 -3.318 1.72799 0
M  V30 2729 H 273.275 -4.37452 2.25602 0
M  V30 2730 N 274.927 -0.932562 -1.27047 0
M  V30 2731 C 275.86 -0.379774 -2.25018 0
M  V30 2732 C 276.838 0.526587 -1.53837 0
M  V30 2733 O 278.022 0.465992 -1.82649 0
M  V30 2734 C 275.149 0.455187 -3.35627 0
M  V30 2735 C 274.195 -0.388428 -4.24728 0
M  V30 2736 S 275.028 -1.80701 -5.04091 0
M  V30 2737 C 276.184 -0.979865 -6.18182 0
M  V30 2738 H 276.417 -1.2101 -2.71558 0
M  V30 2739 H 273.95 -0.735078 -1.35779 0
M  V30 2740 H 275.908 0.931052 -3.99802 0
M  V30 2741 H 274.569 1.26009 -2.87716 0
M  V30 2742 H 273.762 0.25089 -5.03375 0
M  V30 2743 H 273.364 -0.798649 -3.65373 0
M  V30 2744 H 275.656 -0.218115 -6.77149 0
M  V30 2745 H 276.599 -1.73951 -6.86401 0
M  V30 2746 H 277.007 -0.51973 -5.62102 0
M  V30 2747 N 276.405 1.4127 -0.698611 0
M  V30 2748 C 277.338 2.28195 0.0153898 0
M  V30 2749 C 278.316 1.42402 0.784883 0
M  V30 2750 O 279.5 1.71828 0.775067 0
M  V30 2751 C 276.627 3.22685 1.02918 0
M  V30 2752 C 275.673 4.25041 0.352501 0
M  V30 2753 S 276.506 5.27757 -0.907322 0
M  V30 2754 C 277.662 6.25812 0.104796 0
M  V30 2755 H 277.895 2.88403 -0.721858 0
M  V30 2756 H 275.428 1.46452 -0.488996 0
M  V30 2757 H 277.386 3.77655 1.60893 0
M  V30 2758 H 276.047 2.61566 1.73902 0
M  V30 2759 H 275.24 4.91437 1.11828 0
M  V30 2760 H 274.842 3.73682 -0.154254 0
M  V30 2761 H 277.134 6.70705 0.957103 0
M  V30 2762 H 278.077 7.06149 -0.525323 0
M  V30 2763 H 278.485 5.62615 0.460931 0
M  V30 2764 N 277.883 0.443576 1.51229 0
M  V30 2765 C 278.813 -0.355142 2.30783 0
M  V30 2766 C 279.794 -1.0154 1.36468 0
M  V30 2767 O 280.979 -1.01785 1.65389 0
M  V30 2768 C 278.109 -1.45312 3.15439 0
M  V30 2769 C 277.063 -0.916002 4.18083 0
M  V30 2770 C 276.389 -2.1102 4.91299 0
M  V30 2771 C 277.689 0.0538602 5.22272 0
M  V30 2772 H 279.383 0.308767 2.97804 0
M  V30 2773 H 276.929 0.149937 1.43217 0
M  V30 2774 H 278.882 -2.01914 3.69876 0
M  V30 2775 H 277.606 -2.14541 2.46252 0
M  V30 2776 H 276.265 -0.372145 3.64706 0
M  V30 2777 H 275.913 -2.78882 4.18609 0
M  V30 2778 H 275.613 -1.75717 5.60712 0
M  V30 2779 H 277.137 -2.68164 5.48562 0
M  V30 2780 H 278.551 -0.422069 5.71744 0
M  V30 2781 H 276.948 0.319776 5.99247 0
M  V30 2782 H 278.018 0.98858 4.74716 0
M  V30 2783 N 279.361 -1.56624 0.175154 0
M  V30 2784 C 280.324 -2.16934 -0.739738 0
M  V30 2785 C 281.324 -1.11842 -1.15533 0
M  V30 2786 O 282.514 -1.37335 -1.07167 0
M  V30 2787 C 279.646 -2.75531 -2.00738 0
M  V30 2788 H 280.839 -2.99131 -0.214639 0
M  V30 2789 H 278.392 -1.56123 -0.0744197 0
M  V30 2790 H 279.127 -1.97078 -2.57548 0
M  V30 2791 H 278.912 -3.52444 -1.71831 0
M  V30 2792 H 280.402 -3.21904 -2.66021 0
M  V30 2793 N 280.839 0.0985539 -1.57292 0
M  V30 2794 C 281.769 1.12064 -2.04851 0
M  V30 2795 C 282.75 1.41981 -0.936767 0
M  V30 2796 O 283.935 1.52071 -1.20781 0
M  V30 2797 C 281.065 2.44144 -2.47004 0
M  V30 2798 C 280.019 2.28643 -3.6181 0
M  V30 2799 C 279.345 3.65869 -3.89929 0
M  V30 2800 C 280.645 1.72986 -4.92822 0
M  V30 2801 H 282.339 0.724979 -2.9049 0
M  V30 2802 H 279.885 0.34729 -1.39749 0
M  V30 2803 H 281.838 3.15914 -2.78884 0
M  V30 2804 H 280.562 2.85639 -1.5836 0
M  V30 2805 H 279.221 1.59318 -3.30172 0
M  V30 2806 H 278.869 4.04885 -2.98458 0
M  V30 2807 H 278.569 3.56344 -4.67218 0
M  V30 2808 H 280.093 4.39112 -4.2428 0
M  V30 2809 H 281.507 2.34593 -5.23105 0
M  V30 2810 H 279.904 1.74229 -5.74251 0
M  V30 2811 H 280.974 0.689007 -4.7998 0
M  V30 2812 N 282.317 1.53212 0.369288 0
M  V30 2813 C 283.564 1.69215 1.11232 0
M  V30 2814 C 283.892 0.442048 1.8941 0
M  V30 2815 O 283.147 -0.575944 1.87033 0
M  V30 2816 C 283.446 2.89101 2.10132 0
M  V30 2817 C 283.112 4.25758 1.48463 0
M  V30 2818 C 281.774 4.6292 1.31372 0
M  V30 2819 C 284.126 5.10757 1.03811 0
M  V30 2820 C 281.454 5.82722 0.68207 0
M  V30 2821 C 283.806 6.31201 0.420487 0
M  V30 2822 C 282.47 6.67079 0.237038 0
M  V30 2823 H 281.74 0.619201 0.407027 0
M  V30 2824 H 284.387 1.87391 0.394552 0
M  V30 2825 H 282.692 2.65421 2.88199 0
M  V30 2826 H 284.389 2.98676 2.6757 0
M  V30 2827 H 280.979 3.96494 1.62758 0
M  V30 2828 H 285.163 4.82599 1.1581 0
M  V30 2829 H 280.419 6.09113 0.528316 0
M  V30 2830 H 284.593 6.96368 0.0662874 0
M  V30 2831 H 282.22 7.59774 -0.254477 0
M  V30 2832 N 283.795 -0.628877 1.44509 0
M  V30 2833 C 285.211 -0.947305 1.28446 0
M  V30 2834 C 285.411 -2.00275 0.221872 0
M  V30 2835 O 284.467 -2.49447 -0.391471 0
M  V30 2836 C 285.78 -1.40843 2.65676 0
M  V30 2837 C 287.328 -1.52379 2.73404 0
M  V30 2838 C 287.803 -2.01875 4.11109 0
M  V30 2839 N 289.294 -2.09142 4.13296 0
M  V30 2840 C 290.029 -2.48615 5.16699 0
M  V30 2841 N 289.525 -2.87209 6.30462 0
M  V30 2842 N 291.318 -2.48768 5.04054 0
M  V30 2843 H 283.469 0.0690977 2.12288 0
M  V30 2844 H 285.732 -0.0317164 0.947469 0
M  V30 2845 H 285.438 -0.707206 3.44516 0
M  V30 2846 H 285.312 -2.37902 2.92716 0
M  V30 2847 H 287.699 -2.21598 1.9488 0
M  V30 2848 H 287.78 -0.536898 2.50102 0
M  V30 2849 H 287.424 -1.3325 4.90109 0
M  V30 2850 H 287.354 -3.0144 4.31789 0
M  V30 2851 H 289.845 -1.81991 3.31191 0
M  V30 2852 H 290.158 -3.16149 7.05174 0
M  V30 2853 H 288.503 -2.84955 6.33897 0
M  V30 2854 H 291.694 -2.18009 4.14234 0
M  V30 2855 H 291.867 -2.79207 5.84763 0
M  V30 2856 N 285.273 -1.31445 -0.869486 0
M  V30 2857 C 286.223 -1.15731 -1.96444 0
M  V30 2858 C 287.207 -0.0681855 -1.60755 0
M  V30 2859 O 288.399 -0.293154 -1.74555 0
M  V30 2860 C 285.528 -0.867255 -3.32165 0
M  V30 2861 C 284.614 -1.99738 -3.74119 0
M  V30 2862 N 285.005 -3.24447 -3.88031 0
M  V30 2863 C 283.303 -1.89723 -4.03635 0
M  V30 2864 C 284.004 -3.98374 -4.23879 0
M  V30 2865 N 282.98 -3.26547 -4.3459 0
M  V30 2866 H 286.782 -2.10296 -2.05312 0
M  V30 2867 H 284.296 -1.23009 -1.06031 0
M  V30 2868 H 286.293 -0.735668 -4.10358 0
M  V30 2869 H 284.953 0.0701614 -3.24624 0
M  V30 2870 H 285.964 -3.59557 -3.72746 0
M  V30 2871 H 282.641 -1.03449 -4.04481 0
M  V30 2872 H 284.031 -5.05844 -4.42235 0
M  V30 2873 N 286.751 1.08385 -1.14413 0
M  V30 2874 C 287.701 2.13509 -0.79987 0
M  V30 2875 C 288.685 1.5951 0.211059 0
M  V30 2876 O 289.877 1.76995 0.0133694 0
M  V30 2877 C 287.006 3.42162 -0.279297 0
M  V30 2878 C 286.092 4.03042 -1.31976 0
M  V30 2879 N 286.483 4.38327 -2.52395 0
M  V30 2880 C 284.781 4.30379 -1.17004 0
M  V30 2881 C 285.482 4.86428 -3.19003 0
M  V30 2882 N 284.458 4.84547 -2.46405 0
M  V30 2883 H 288.26 2.38609 -1.7159 0
M  V30 2884 H 285.774 1.2572 -1.02802 0
M  V30 2885 H 287.771 4.16898 -0.0143688 0
M  V30 2886 H 286.431 3.18511 0.630923 0
M  V30 2887 H 287.442 4.29349 -2.89621 0
M  V30 2888 H 284.119 4.16281 -0.318854 0
M  V30 2889 H 285.509 5.23107 -4.21674 0
M  V30 2890 N 288.23 0.939286 1.26551 0
M  V30 2891 C 289.18 0.418284 2.2413 0
M  V30 2892 C 290.164 -0.483935 1.5345 0
M  V30 2893 O 291.356 -0.319489 1.74093 0
M  V30 2894 C 288.485 -0.31709 3.41832 0
M  V30 2895 C 287.571 0.602311 4.19801 0
M  V30 2896 N 287.962 1.72726 4.75394 0
M  V30 2897 C 286.26 0.407534 4.44134 0
M  V30 2898 C 286.961 2.30004 5.34297 0
M  V30 2899 N 285.937 1.58828 5.1988 0
M  V30 2900 H 289.739 1.27705 2.64705 0
M  V30 2901 H 287.253 0.794929 1.41614 0
M  V30 2902 H 289.25 -0.707364 4.10855 0
M  V30 2903 H 287.91 -1.17264 3.02786 0
M  V30 2904 H 288.921 2.10944 4.72994 0
M  V30 2905 H 285.598 -0.406406 4.15517 0
M  V30 2906 H 286.988 3.24778 5.88191 0
M  V30 2907 N 289.708 -1.40897 0.706093 0
M  V30 2908 C 290.954 -2.01849 0.250681 0
M  V30 2909 C 291.309 -1.5496 -1.14041 0
M  V30 2910 O 290.602 -0.755566 -1.76073 0
M  V30 2911 C 290.796 -3.5646 0.259099 0
M  V30 2912 C 290.625 -4.18357 1.64947 0
M  V30 2913 C 289.395 -4.522 2.25485 0
M  V30 2914 C 291.593 -4.43856 2.598 0
M  V30 2915 N 289.575 -4.9944 3.56977 0
M  V30 2916 C 290.946 -4.92986 3.75985 0
M  V30 2917 C 293.001 -4.25882 2.57933 0
M  V30 2918 C 291.704 -5.2603 4.90597 0
M  V30 2919 C 293.73 -4.6002 3.71665 0
M  V30 2920 C 293.092 -5.09331 4.86581 0
M  V30 2921 H 289.191 -0.769843 0.137353 0
M  V30 2922 H 291.775 -1.71278 0.925845 0
M  V30 2923 H 289.946 -3.86481 -0.385592 0
M  V30 2924 H 291.678 -4.04144 -0.21213 0
M  V30 2925 H 288.433 -4.3901 1.77671 0
M  V30 2926 H 288.857 -5.27454 4.24407 0
M  V30 2927 H 293.499 -3.86986 1.70298 0
M  V30 2928 H 291.217 -5.63843 5.78884 0
M  V30 2929 H 294.803 -4.47762 3.71484 0
M  V30 2930 H 293.683 -5.35251 5.73129 0
M  V30 2931 N 291.186 -0.45159 -1.50991 0
M  V30 2932 C 292.411 0.110667 -2.07105 0
M  V30 2933 C 292.836 1.3446 -1.31538 0
M  V30 2934 O 292.194 1.77743 -0.357365 0
M  V30 2935 C 292.242 0.397238 -3.58405 0
M  V30 2936 O 291.346 1.48124 -3.84881 0
M  V30 2937 H 290.687 -0.00439271 -0.663985 0
M  V30 2938 H 293.217 -0.637026 -1.9443 0
M  V30 2939 H 293.227 0.64351 -4.02893 0
M  V30 2940 H 291.902 -0.504553 -4.12828 0
M  V30 2941 H 290.479 1.22381 -3.52246 0
M  V30 2942 N 292.664 1.56529 -0.183458 0
M  V30 2943 C 294.08 1.58664 0.172554 0
M  V30 2944 C 294.28 1.19925 1.61926 0
M  V30 2945 O 293.336 0.916534 2.35278 0
M  V30 2946 C 294.649 3.00463 -0.119262 0
M  V30 2947 C 296.197 3.12945 -0.0584396 0
M  V30 2948 C 296.672 4.56857 -0.323408 0
M  V30 2949 N 298.163 4.62403 -0.271612 0
M  V30 2950 C 298.898 5.71626 -0.450639 0
M  V30 2951 N 298.394 6.89362 -0.689384 0
M  V30 2952 N 300.187 5.60775 -0.385701 0
M  V30 2953 H 292.338 1.79994 -1.12765 0
M  V30 2954 H 294.601 0.834808 -0.449222 0
M  V30 2955 H 294.307 3.33326 -1.12192 0
M  V30 2956 H 294.181 3.72659 0.583544 0
M  V30 2957 H 296.568 2.79902 0.934805 0
M  V30 2958 H 296.649 2.4316 -0.794144 0
M  V30 2959 H 296.293 4.9061 -1.31392 0
M  V30 2960 H 296.223 5.24816 0.43305 0
M  V30 2961 H 298.714 3.77785 -0.0932256 0
M  V30 2962 H 299.027 7.68489 -0.815113 0
M  V30 2963 H 297.372 6.91196 -0.726142 0
M  V30 2964 H 300.563 4.67674 -0.199687 0
M  V30 2965 H 300.736 6.4584 -0.528646 0
M  V30 2966 N 294.142 -0.090211 1.57342 0
M  V30 2967 C 295.105 -1.09335 2.01441 0
M  V30 2968 C 296.105 -1.32666 0.908641 0
M  V30 2969 O 297.295 -1.28697 1.174 0
M  V30 2970 C 294.427 -2.44136 2.3793 0
M  V30 2971 H 295.62 -0.713662 2.91285 0
M  V30 2972 H 293.173 -0.335404 1.52659 0
M  V30 2973 H 293.908 -2.86972 1.51055 0
M  V30 2974 H 293.693 -2.28548 3.18603 0
M  V30 2975 H 295.183 -3.16277 2.72688 0
M  V30 2976 N 295.62 -1.53406 -0.361157 0
M  V30 2977 C 296.583 -1.79479 -1.42548 0
M  V30 2978 C 297.583 -0.665327 -1.4639 0
M  V30 2979 O 298.773 -0.933549 -1.47073 0
M  V30 2980 C 295.905 -1.92087 -2.8163 0
M  V30 2981 H 297.098 -2.74538 -1.20701 0
M  V30 2982 H 294.651 -1.4455 -0.594546 0
M  V30 2983 H 295.386 -0.991099 -3.08784 0
M  V30 2984 H 295.171 -2.74241 -2.80239 0
M  V30 2985 H 296.661 -2.13836 -3.58697 0
M  V30 2986 N 297.098 0.621204 -1.44841 0
M  V30 2987 C 298.028 1.74366 -1.55303 0
M  V30 2988 C 299.009 1.65199 -0.405385 0
M  V30 2989 O 300.194 1.83807 -0.626787 0
M  V30 2990 C 297.324 3.12931 -1.50637 0
M  V30 2991 C 296.278 3.36896 -2.63979 0
M  V30 2992 C 295.604 4.75594 -2.44366 0
M  V30 2993 C 296.904 3.28483 -4.06074 0
M  V30 2994 H 298.598 1.65867 -2.49256 0
M  V30 2995 H 296.144 0.796558 -1.19962 0
M  V30 2996 H 298.097 3.9124 -1.56555 0
M  V30 2997 H 296.821 3.22237 -0.532057 0
M  V30 2998 H 295.48 2.60972 -2.57467 0
M  V30 2999 H 295.128 4.81616 -1.45105 0
M  V30 3000 H 294.828 4.92586 -3.20364 0
M  V30 3001 H 296.352 5.5612 -2.52117 0
M  V30 3002 H 297.766 3.96684 -4.13902 0
M  V30 3003 H 296.163 3.57008 -4.82354 0
M  V30 3004 H 297.233 2.26133 -4.28943 0
M  V30 3005 N 298.576 1.31904 0.862503 0
M  V30 3006 C 299.822 1.22197 1.61851 0
M  V30 3007 C 300.155 -0.217641 1.92977 0
M  V30 3008 O 299.43 -1.15264 1.56666 0
M  V30 3009 C 299.713 2.07378 2.94391 0
M  V30 3010 C 299.566 3.59678 2.70096 0
M  V30 3011 C 300.885 1.92891 3.95577 0
M  V30 3012 H 298.004 0.445255 0.587296 0
M  V30 3013 H 300.646 1.6177 0.99651 0
M  V30 3014 H 298.796 1.73758 3.47477 0
M  V30 3015 H 300.468 4.03472 2.23625 0
M  V30 3016 H 298.711 3.82735 2.04197 0
M  V30 3017 H 299.382 4.14595 3.64438 0
M  V30 3018 H 301.858 2.22327 3.51724 0
M  V30 3019 H 300.734 2.54781 4.86187 0
M  V30 3020 H 300.995 0.894315 4.3296 0
M  V30 3021 N 300.054 -1.07777 1.14986 0
M  V30 3022 C 301.284 -1.83752 0.944402 0
M  V30 3023 C 301.692 -1.8218 -0.51058 0
M  V30 3024 O 301.035 -1.22852 -1.36576 0
M  V30 3025 C 301.097 -3.32128 1.37592 0
M  V30 3026 C 300.761 -3.57425 2.84775 0
M  V30 3027 C 301.758 -3.5173 3.8286 0
M  V30 3028 C 299.443 -3.8523 3.2234 0
M  V30 3029 C 301.437 -3.73482 5.16517 0
M  V30 3030 C 299.124 -4.06634 4.56171 0
M  V30 3031 C 300.122 -4.00754 5.53069 0
M  V30 3032 O 299.81 -4.2159 6.84483 0
M  V30 3033 H 299.542 -0.58673 0.335744 0
M  V30 3034 H 302.096 -1.36982 1.53052 0
M  V30 3035 H 300.326 -3.79686 0.733165 0
M  V30 3036 H 302.015 -3.89555 1.14024 0
M  V30 3037 H 302.781 -3.30256 3.55184 0
M  V30 3038 H 298.66 -3.88923 2.47508 0
M  V30 3039 H 302.204 -3.68808 5.92137 0
M  V30 3040 H 298.101 -4.27593 4.83564 0
M  V30 3041 H 298.869 -4.38961 6.90837 0
M  V30 3042 N 301.532 -0.945985 -1.26051 0
M  V30 3043 C 302.757 -0.612525 -1.98149 0
M  V30 3044 C 303.182 0.806623 -1.69927 0
M  V30 3045 O 302.54 1.54411 -0.950108 0
M  V30 3046 C 302.588 -0.866981 -3.50023 0
M  V30 3047 O 301.692 0.0585333 -4.12358 0
M  V30 3048 H 301.033 -0.23379 -0.621481 0
M  V30 3049 H 303.563 -1.27023 -1.60395 0
M  V30 3050 H 303.573 -0.789792 -4.00283 0
M  V30 3051 H 302.248 -1.90135 -3.69894 0
M  V30 3052 H 300.825 -0.0701241 -3.72834 0
M  V30 3053 N 303.011 1.40521 -0.713556 0
M  V30 3054 C 304.288 1.94775 -0.17943 0
M  V30 3055 C 304.668 1.65184 1.31444 0
M  V30 3056 O 304.016 0.968429 2.06963 0
M  V30 3057 C 304.226 3.45543 -0.489986 0
M  V30 3058 C 305.574 4.22442 -0.427536 0
M  V30 3059 O 306.598 3.53644 -0.425929 0
M  V30 3060 O 305.457 5.4501 -0.403292 0
M  V30 3061 H 302.551 0.826606 -0.0255192 0
M  V30 3062 H 305.097 1.5014 -0.790949 0
M  V30 3063 H 303.869 3.60432 -1.5233 0
M  V30 3064 H 303.492 3.97311 0.151598 0
M  V30 3065 N 304.489 0.459591 1.5075 0
M  V30 3066 C 305.766 -0.160371 1.94941 0
M  V30 3067 C 306.146 -1.58048 1.39943 0
M  V30 3068 O 305.494 -2.206 0.595629 0
M  V30 3069 C 305.704 -0.115432 3.48809 0
M  V30 3070 C 307.052 -0.310026 4.23467 0
M  V30 3071 O 308.076 -0.192543 3.55679 0
M  V30 3072 O 306.935 -0.546031 5.43765 0
M  V30 3073 H 304.029 -0.117925 0.818549 0
M  V30 3074 H 306.575 0.519169 1.61563 0
M  V30 3075 H 305.347 0.87652 3.81357 0
M  V30 3076 H 304.97 -0.836928 3.88692 0
M  V30 3077 N 305.967 -1.56429 0.191757 0
M  V30 3078 C 306.914 -2.18936 -0.730454 0
M  V30 3079 C 307.884 -1.13557 -1.21219 0
M  V30 3080 O 309.069 -1.41794 -1.27668 0
M  V30 3081 C 306.209 -2.85013 -1.9458 0
M  V30 3082 C 305.322 -4.04909 -1.50574 0
M  V30 3083 C 304.457 -4.58853 -2.67634 0
M  V30 3084 C 303.496 -5.71114 -2.20217 0
M  V30 3085 N 302.633 -6.19478 -3.30442 0
M  V30 3086 H 307.473 -2.97389 -0.190664 0
M  V30 3087 H 305.01 -1.46869 -0.0823694 0
M  V30 3088 H 306.968 -3.21492 -2.65893 0
M  V30 3089 H 305.598 -2.09129 -2.45896 0
M  V30 3090 H 304.65 -3.74115 -0.688605 0
M  V30 3091 H 305.962 -4.86113 -1.11784 0
M  V30 3092 H 305.116 -4.97619 -3.47074 0
M  V30 3093 H 303.855 -3.76749 -3.09696 0
M  V30 3094 H 302.86 -5.31879 -1.3923 0
M  V30 3095 H 304.085 -6.55033 -1.79189 0
M  V30 3096 H 302.031 -5.40297 -3.72041 0
M  V30 3097 H 301.948 -6.95725 -2.9581 0
M  V30 3098 H 303.216 -6.62898 -4.10106 0
M  V30 3099 N 307.445 0.0818655 -1.57387 0
M  V30 3100 C 308.375 1.09885 -2.06028 0
M  V30 3101 C 309.356 1.4098 -0.951774 0
M  V30 3102 O 310.541 1.50781 -1.22387 0
M  V30 3103 C 307.671 2.4151 -2.4958 0
M  V30 3104 C 306.625 2.24792 -3.64215 0
M  V30 3105 C 305.951 3.61712 -3.93787 0
M  V30 3106 C 307.251 1.67749 -4.94629 0
M  V30 3107 H 308.945 0.694128 -2.91243 0
M  V30 3108 H 306.491 0.332448 -1.4011 0
M  V30 3109 H 308.444 3.12939 -2.82219 0
M  V30 3110 H 307.168 2.83943 -1.61381 0
M  V30 3111 H 305.827 1.55807 -3.31843 0
M  V30 3112 H 305.475 4.01697 -3.02735 0
M  V30 3113 H 305.175 3.51368 -4.70971 0
M  V30 3114 H 306.699 4.34587 -4.28913 0
M  V30 3115 H 308.113 2.29032 -5.25564 0
M  V30 3116 H 306.51 1.68128 -5.76067 0
M  V30 3117 H 307.58 0.638059 -4.80684 0
M  V30 3118 N 308.923 1.53595 0.353017 0
M  V30 3119 C 309.833 1.83897 1.45667 0
M  V30 3120 C 310.849 0.728334 1.58023 0
M  V30 3121 O 312.025 1.01968 1.73679 0
M  V30 3122 C 309.09 2.03383 2.80778 0
M  V30 3123 C 308.151 3.27262 2.77845 0
M  V30 3124 C 307.384 3.45809 4.06512 0
M  V30 3125 O 307.607 2.68387 5.03314 0
M  V30 3126 O 306.541 4.39207 4.11559 0
M  V30 3127 H 310.367 2.77686 1.2298 0
M  V30 3128 H 307.952 1.39132 0.544308 0
M  V30 3129 H 309.834 2.17698 3.60812 0
M  V30 3130 H 308.509 1.12783 3.03417 0
M  V30 3131 H 307.416 3.18359 1.96465 0
M  V30 3132 H 308.749 4.17824 2.60161 0
M  V30 3133 N 310.401 -0.613514 1.45168 0
M  V30 3134 C 311.817 -0.933629 1.29443 0
M  V30 3135 C 312.017 -2.00028 0.243101 0
M  V30 3136 O 311.073 -2.49848 -0.364992 0
M  V30 3137 C 312.386 -1.38018 2.67155 0
M  V30 3138 C 313.934 -1.49471 2.75004 0
M  V30 3139 C 314.409 -1.97503 4.13227 0
M  V30 3140 N 315.9 -2.04746 4.15491 0
M  V30 3141 C 316.635 -2.43121 5.19307 0
M  V30 3142 N 316.131 -2.80506 6.33473 0
M  V30 3143 N 317.924 -2.43408 5.06664 0
M  V30 3144 H 310.075 0.0916097 2.12202 0
M  V30 3145 H 312.338 -0.0216655 0.947752 0
M  V30 3146 H 312.044 -0.670625 3.45247 0
M  V30 3147 H 311.918 -2.34784 2.95222 0
M  V30 3148 H 314.305 -2.19519 1.9722 0
M  V30 3149 H 314.386 -0.510342 2.50657 0
M  V30 3150 H 314.03 -1.28045 4.91495 0
M  V30 3151 H 313.96 -2.96843 4.34962 0
M  V30 3152 H 316.451 -1.78468 3.33103 0
M  V30 3153 H 316.764 -3.08652 7.08487 0
M  V30 3154 H 315.109 -2.78216 6.36884 0
M  V30 3155 H 318.3 -2.13604 4.16523 0
M  V30 3156 H 318.473 -2.72989 5.87691 0
M  V30 3157 N 311.879 -1.3236 -0.855495 0
M  V30 3158 C 312.827 -1.2118 -1.9854 0
M  V30 3159 C 313.821 -0.116788 -1.68997 0
M  V30 3160 O 315.027 -0.279657 -1.77814 0
M  V30 3161 H 311.402 -0.375608 -0.651477 0
M  V30 3162 H 313.373 -2.16743 -2.05098 0
M  V30 3163 C 312.122 -0.950849 -3.34446 0
M  V30 3164 H 311.445 -1.78563 -3.57708 0
M  V30 3165 H 312.885 -0.912863 -4.14057 0
M  V30 3166 C 311.344 0.346404 -3.35114 0
M  V30 3167 O 311.874 1.35855 -3.7803 0
M  V30 3168 N 310.08 0.36808 -2.88259 0
M  V30 3169 H 309.627 -0.456102 -2.5353 0
M  V30 3170 H 309.585 1.23591 -2.89089 0
M  V30 3171 N 313.357 1.07166 -1.15556 0
M  V30 3172 C 314.597 1.81391 -0.94216 0
M  V30 3173 C 314.961 1.84788 0.521272 0
M  V30 3174 O 316.162 2.54904 0.85307 0
M  V30 3175 C 314.433 3.22431 -1.54185 0
M  V30 3176 S 315.992 4.13379 -1.47183 0
M  V30 3177 H 312.81 0.624963 -0.339031 0
M  V30 3178 H 315.412 1.28725 -1.4714 0
M  V30 3179 H 314.116 3.17548 -2.59984 0
M  V30 3180 H 313.647 3.80172 -1.01156 0
M  V30 3181 H 315.662 4.94007 -0.466004 0
M  V30 3182 N 314.835 0.952656 1.25548 0
M  V30 3183 C 316.065 0.622592 1.96996 0
M  V30 3184 C 316.473 -0.809112 1.71026 0
M  V30 3185 O 315.816 -1.55258 0.981861 0
M  V30 3186 C 315.878 0.798946 3.5051 0
M  V30 3187 C 315.542 2.20744 4.00151 0
M  V30 3188 C 316.539 3.18394 4.11001 0
M  V30 3189 C 314.224 2.5311 4.33867 0
M  V30 3190 C 316.218 4.46504 4.54877 0
M  V30 3191 C 313.905 3.8145 4.7743 0
M  V30 3192 C 314.903 4.77959 4.87897 0
M  V30 3193 O 314.591 6.04012 5.30494 0
M  V30 3194 H 314.323 0.232503 0.634758 0
M  V30 3195 H 316.877 1.2789 1.60728 0
M  V30 3196 H 315.107 0.0854903 3.86605 0
M  V30 3197 H 316.796 0.47023 4.03167 0
M  V30 3198 H 317.562 2.94715 3.85186 0
M  V30 3199 H 313.441 1.78719 4.24948 0
M  V30 3200 H 316.985 5.21835 4.62962 0
M  V30 3201 H 312.882 4.04936 5.0269 0
M  V30 3202 H 313.65 6.0736 5.48685 0
M  V30 3203 N 316.313 -1.40141 0.720998 0
M  V30 3204 C 317.56 -2.00787 0.262842 0
M  V30 3205 C 317.888 -1.5718 -1.14563 0
M  V30 3206 O 317.143 -0.785391 -1.79249 0
M  V30 3207 C 317.442 -3.56165 0.296892 0
M  V30 3208 C 317.108 -4.19373 1.65641 0
M  V30 3209 C 315.77 -4.36352 2.02855 0
M  V30 3210 C 318.122 -4.54578 2.54968 0
M  V30 3211 C 315.45 -4.8582 3.28931 0
M  V30 3212 C 317.802 -5.05447 3.80402 0
M  V30 3213 C 316.466 -5.20635 4.17726 0
M  V30 3214 H 315.736 -0.734731 0.0961807 0
M  V30 3215 H 318.383 -1.67673 0.925093 0
M  V30 3216 H 316.688 -3.8922 -0.448932 0
M  V30 3217 H 318.385 -4.00929 -0.0755208 0
M  V30 3218 H 314.975 -4.06549 1.35704 0
M  V30 3219 H 319.159 -4.41091 2.27491 0
M  V30 3220 H 314.415 -4.95764 3.57811 0
M  V30 3221 H 318.589 -5.31663 4.49786 0
M  V30 3222 H 316.216 -5.58728 5.15487 0
M  V30 3223 N 317.792 -0.46758 -1.50504 0
M  V30 3224 C 319.02 0.0864133 -2.06719 0
M  V30 3225 C 319.435 1.33819 -1.33184 0
M  V30 3226 O 318.792 1.78061 -0.400083 0
M  V30 3227 C 318.843 0.378079 -3.59517 0
M  V30 3228 O 318.564 -0.824044 -4.3028 0
M  V30 3229 C 320.065 0.979426 -4.32345 0
M  V30 3230 H 317.285 -0.00551697 -0.670977 0
M  V30 3231 H 319.829 -0.655354 -1.93715 0
M  V30 3232 H 317.984 1.06977 -3.72337 0
M  V30 3233 H 318.398 -0.566518 -5.21432 0
M  V30 3234 H 319.872 1.1333 -5.40241 0
M  V30 3235 H 320.349 1.9686 -3.9261 0
M  V30 3236 H 320.955 0.326216 -4.24047 0
M  V30 3237 N 319.27 1.56325 -0.20005 0
M  V30 3238 C 320.2 2.22318 0.713916 0
M  V30 3239 C 321.181 1.18788 1.21752 0
M  V30 3240 O 322.366 1.47309 1.26545 0
M  V30 3241 C 319.496 2.88639 1.93144 0
M  V30 3242 C 318.45 3.98457 1.56255 0
M  V30 3243 C 317.776 4.51967 2.85709 0
M  V30 3244 C 319.076 5.16612 0.768747 0
M  V30 3245 H 320.77 2.98952 0.163755 0
M  V30 3246 H 318.316 1.43792 0.0773219 0
M  V30 3247 H 320.269 3.33491 2.57608 0
M  V30 3248 H 318.993 2.09419 2.50621 0
M  V30 3249 H 317.652 3.54305 0.941471 0
M  V30 3250 H 317.3 3.69503 3.41287 0
M  V30 3251 H 317 5.26071 2.6177 0
M  V30 3252 H 318.524 4.99523 3.51154 0
M  V30 3253 H 319.938 5.57977 1.3166 0
M  V30 3254 H 318.335 5.96812 0.627286 0
M  V30 3255 H 319.405 4.84358 -0.229168 0
M  V30 3256 N 320.748 -0.0735177 1.57428 0
M  V30 3257 C 321.658 -1.10547 2.06922 0
M  V30 3258 C 322.674 -1.42506 0.998402 0
M  V30 3259 O 323.85 -1.52717 1.31299 0
M  V30 3260 C 320.915 -2.40019 2.50184 0
M  V30 3261 C 319.976 -2.15046 3.71556 0
M  V30 3262 C 319.209 -3.38345 4.12745 0
M  V30 3263 O 319.432 -4.47399 3.53822 0
M  V30 3264 O 318.366 -3.2666 5.05546 0
M  V30 3265 H 322.192 -0.715013 2.95163 0
M  V30 3266 H 319.777 -0.287531 1.46607 0
M  V30 3267 H 321.659 -3.16218 2.78539 0
M  V30 3268 H 320.334 -2.78447 1.65072 0
M  V30 3269 H 319.241 -1.36558 3.48285 0
M  V30 3270 H 320.574 -1.81499 4.57514 0
M  V30 3271 N 322.226 -1.5378 -0.344866 0
M  V30 3272 C 323.474 -1.70625 -1.08311 0
M  V30 3273 C 323.795 -0.471447 -1.89215 0
M  V30 3274 O 323.065 0.514616 -1.8902 0
M  V30 3275 H 321.645 -0.629058 -0.402859 0
M  V30 3276 H 324.307 -1.9103 -0.386459 0
M  V30 3277 H 323.403 -2.57656 -1.76124 0
M  V30 3278 N 323.704 0.605807 -1.45491 0
M  V30 3279 C 324.95 1.36679 -1.49823 0
M  V30 3280 C 325.283 1.93693 -0.140175 0
M  V30 3281 O 324.558 1.75158 0.845581 0
M  V30 3282 C 324.841 2.51337 -2.57879 0
M  V30 3283 C 324.694 1.99508 -4.03134 0
M  V30 3284 C 326.013 3.53463 -2.62205 0
M  V30 3285 H 323.132 0.495617 -0.545466 0
M  V30 3286 H 325.774 0.682732 -1.7731 0
M  V30 3287 H 323.924 3.09691 -2.34571 0
M  V30 3288 H 325.596 1.45789 -4.37656 0
M  V30 3289 H 323.839 1.30496 -4.13707 0
M  V30 3290 H 324.51 2.82169 -4.74431 0
M  V30 3291 H 326.986 3.04953 -2.83095 0
M  V30 3292 H 325.862 4.31178 -3.39672 0
M  V30 3293 H 326.123 4.09197 -1.67363 0
M  V30 3294 N 325.182 1.32811 0.848464 0
M  V30 3295 C 326.132 1.18842 1.94578 0
M  V30 3296 C 327.116 0.0937517 1.60627 0
M  V30 3297 O 328.308 0.320887 1.74067 0
M  V30 3298 C 325.437 0.91999 3.30743 0
M  V30 3299 C 324.523 2.05665 3.70894 0
M  V30 3300 N 324.914 3.30579 3.8282 0
M  V30 3301 C 323.212 1.9612 4.00566 0
M  V30 3302 C 323.913 4.05067 4.17487 0
M  V30 3303 N 322.889 3.33419 4.2934 0
M  V30 3304 H 326.691 2.13536 2.0194 0
M  V30 3305 H 324.205 1.2468 1.0406 0
M  V30 3306 H 326.202 0.800859 4.09136 0
M  V30 3307 H 324.862 -0.0185076 3.24695 0
M  V30 3308 H 325.873 3.65441 3.66978 0
M  V30 3309 H 322.55 1.09871 4.02784 0
M  V30 3310 H 323.94 5.12815 4.34131 0
M  V30 3311 N 326.66 -1.06551 1.16123 0
M  V30 3312 C 327.57 -2.17484 0.879662 0
M  V30 3313 C 328.586 -1.73377 -0.147104 0
M  V30 3314 O 329.762 -2.01379 0.0289128 0
M  V30 3315 C 326.827 -3.44591 0.381829 0
M  V30 3316 C 325.888 -4.0322 1.4735 0
M  V30 3317 C 325.121 -5.24261 0.999324 0
M  V30 3318 O 325.344 -5.70198 -0.151957 0
M  V30 3319 O 324.278 -5.74775 1.78653 0
M  V30 3320 H 328.104 -2.44075 1.80724 0
M  V30 3321 H 325.689 -1.16042 0.940992 0
M  V30 3322 H 327.571 -4.21254 0.111053 0
M  V30 3323 H 326.246 -3.19532 -0.51777 0
M  V30 3324 H 325.153 -3.2806 1.79798 0
M  V30 3325 H 326.486 -4.32568 2.34831 0
M  V30 3326 N 328.138 -0.959301 -1.25041 0
M  V30 3327 C 329.384 -0.617525 -1.9317 0
M  V30 3328 C 329.717 0.843981 -1.74902 0
M  V30 3329 O 328.992 1.60615 -1.09696 0
M  V30 3330 C 329.275 -0.982736 -3.46431 0
M  V30 3331 C 329.128 -2.50032 -3.73904 0
M  V30 3332 C 330.447 -0.511176 -4.37121 0
M  V30 3333 H 327.566 -0.22582 -0.701552 0
M  V30 3334 H 330.208 -1.19679 -1.4757 0
M  V30 3335 H 328.358 -0.489806 -3.854 0
M  V30 3336 H 330.03 -3.06737 -3.44544 0
M  V30 3337 H 328.273 -2.93598 -3.19348 0
M  V30 3338 H 328.944 -2.70635 -4.81103 0
M  V30 3339 H 331.42 -0.934075 -4.0548 0
M  V30 3340 H 330.296 -0.795361 -5.43107 0
M  V30 3341 H 330.557 0.588834 -4.38161 0
M  V30 3342 N 329.616 1.39756 -0.72842 0
M  V30 3343 C 330.863 2.00645 -0.273487 0
M  V30 3344 C 331.191 1.57786 1.13727 0
M  V30 3345 O 330.446 0.794886 1.7883 0
M  V30 3346 C 330.745 3.56002 -0.315776 0
M  V30 3347 C 330.411 4.18489 -1.67863 0
M  V30 3348 C 329.073 4.3527 -2.05166 0
M  V30 3349 C 331.425 4.53219 -2.57375 0
M  V30 3350 C 328.753 4.84069 -3.31503 0
M  V30 3351 C 331.105 5.03423 -3.83077 0
M  V30 3352 C 329.769 5.18413 -4.20481 0
M  V30 3353 H 329.039 0.734211 -0.100076 0
M  V30 3354 H 331.686 1.6718 -0.933972 0
M  V30 3355 H 329.991 3.89452 0.428285 0
M  V30 3356 H 331.688 4.00963 0.0542575 0
M  V30 3357 H 328.278 4.05824 -1.37858 0
M  V30 3358 H 332.462 4.39878 -2.29827 0
M  V30 3359 H 327.718 4.93859 -3.60435 0
M  V30 3360 H 331.892 5.2927 -4.52599 0
M  V30 3361 H 329.519 5.55987 -5.18443 0
M  V30 3362 N 331.094 0.475555 1.50254 0
M  V30 3363 C 332.026 -0.352649 2.26471 0
M  V30 3364 C 333.039 -0.953165 1.3198 0
M  V30 3365 O 334.228 -0.840815 1.57457 0
M  V30 3366 C 331.328 -1.50902 3.0345 0
M  V30 3367 C 330.501 -1.02047 4.25329 0
M  V30 3368 C 329.56 -2.05142 4.84565 0
M  V30 3369 O 328.586 -1.63023 5.45355 0
M  V30 3370 N 329.788 -3.37987 4.71959 0
M  V30 3371 H 332.553 0.300767 2.98187 0
M  V30 3372 H 330.114 0.306598 1.5897 0
M  V30 3373 H 332.106 -2.19572 3.39956 0
M  V30 3374 H 330.676 -2.06705 2.34504 0
M  V30 3375 H 329.896 -0.159507 3.93877 0
M  V30 3376 H 331.184 -0.672061 5.04342 0
M  V30 3377 H 330.582 -3.74913 4.23623 0
M  V30 3378 H 329.139 -4.02443 5.12721 0
M  V30 3379 N 332.573 -1.56217 0.208337 0
M  V30 3380 C 333.483 -2.23316 -0.718836 0
M  V30 3381 C 334.499 -1.23648 -1.22422 0
M  V30 3382 O 335.675 -1.56423 -1.26861 0
M  V30 3383 C 332.74 -2.88968 -1.91568 0
M  V30 3384 C 331.801 -4.03943 -1.45357 0
M  V30 3385 C 331.034 -4.66455 -2.59337 0
M  V30 3386 O 331.257 -4.27919 -3.77149 0
M  V30 3387 O 330.191 -5.55686 -2.31293 0
M  V30 3388 H 334.017 -3.03182 -0.177315 0
M  V30 3389 H 331.602 -1.49384 -0.0215402 0
M  V30 3390 H 333.484 -3.30455 -2.61491 0
M  V30 3391 H 332.159 -2.12071 -2.44556 0
M  V30 3392 H 331.066 -3.67052 -0.722746 0
M  V30 3393 H 332.399 -4.82543 -0.970219 0
M  V30 3394 N 334.051 0.0651679 -1.57465 0
M  V30 3395 C 334.961 1.09448 -2.07505 0
M  V30 3396 C 335.977 1.41974 -1.00595 0
M  V30 3397 O 337.153 1.52018 -1.32107 0
M  V30 3398 C 334.218 2.38689 -2.51453 0
M  V30 3399 C 333.279 2.13073 -3.72691 0
M  V30 3400 C 332.512 3.36152 -4.14533 0
M  V30 3401 O 332.735 4.45517 -3.56189 0
M  V30 3402 O 331.669 3.23974 -5.07272 0
M  V30 3403 H 335.495 0.69935 -2.95538 0
M  V30 3404 H 333.08 0.279752 -1.46757 0
M  V30 3405 H 334.962 3.14736 -2.80212 0
M  V30 3406 H 333.637 2.77568 -1.66546 0
M  V30 3407 H 332.544 1.34709 -3.49005 0
M  V30 3408 H 333.877 1.79071 -4.5847 0
M  V30 3409 N 335.529 1.53961 0.336706 0
M  V30 3410 C 336.777 1.71197 1.07405 0
M  V30 3411 C 337.098 0.481475 1.88962 0
M  V30 3412 O 336.368 -0.504585 1.8929 0
M  V30 3413 H 334.948 0.631185 0.399517 0
M  V30 3414 H 337.61 1.91232 0.376323 0
M  V30 3415 H 336.706 2.58587 1.74755 0
M  V30 3416 N 337.007 -0.598083 1.45811 0
M  V30 3417 C 337.937 -1.71873 1.58057 0
M  V30 3418 C 338.918 -1.64533 0.431615 0
M  V30 3419 O 340.103 -1.82787 0.65595 0
M  V30 3420 C 337.233 -3.10495 1.55597 0
M  V30 3421 C 336.187 -3.32654 2.69305 0
M  V30 3422 C 335.513 -4.71646 2.51902 0
M  V30 3423 C 336.813 -3.21981 4.11248 0
M  V30 3424 H 338.507 -1.61881 2.51863 0
M  V30 3425 H 336.053 -0.777372 1.21214 0
M  V30 3426 H 338.006 -3.88699 1.6276 0
M  V30 3427 H 336.73 -3.2135 0.583255 0
M  V30 3428 H 335.389 -2.56843 2.61586 0
M  V30 3429 H 335.037 -4.79246 1.52748 0
M  V30 3430 H 334.737 -4.87426 3.2816 0
M  V30 3431 H 336.261 -5.52038 2.60933 0
M  V30 3432 H 337.675 -3.90049 4.20161 0
M  V30 3433 H 336.072 -3.49289 4.87972 0
M  V30 3434 H 337.142 -2.1928 4.32486 0
M  V30 3435 N 338.485 -1.33259 -0.841409 0
M  V30 3436 C 339.435 -1.19872 -1.93945 0
M  V30 3437 C 340.419 -0.102269 -1.60575 0
M  V30 3438 O 341.611 -0.330114 -1.73894 0
M  V30 3439 C 338.74 -0.937517 -3.30251 0
M  V30 3440 C 337.826 -2.07629 -3.69799 0
M  V30 3441 N 338.217 -3.32604 -3.81062 0
M  V30 3442 C 336.515 -1.98242 -3.9952 0
M  V30 3443 C 337.216 -4.07275 -4.15333 0
M  V30 3444 N 336.192 -3.35691 -4.27566 0
M  V30 3445 H 339.994 -2.14604 -2.00805 0
M  V30 3446 H 337.508 -1.2523 -1.03398 0
M  V30 3447 H 339.505 -0.822545 -4.08705 0
M  V30 3448 H 338.165 0.00128798 -3.247 0
M  V30 3449 H 339.176 -3.67382 -3.65035 0
M  V30 3450 H 335.853 -1.12005 -4.02195 0
M  V30 3451 H 337.243 -5.1511 -4.31406 0
M  V30 3452 N 339.963 1.05934 -1.16686 0
M  V30 3453 C 341.191 1.8249 -0.974929 0
M  V30 3454 C 341.606 1.82679 0.476861 0
M  V30 3455 O 340.963 1.2486 1.33103 0
M  V30 3456 C 341.014 3.28943 -1.49929 0
M  V30 3457 O 340.735 3.28886 -2.89423 0
M  V30 3458 C 342.236 4.22215 -1.35089 0
M  V30 3459 H 339.456 0.575295 -0.345365 0
M  V30 3460 H 342 1.33631 -1.548 0
M  V30 3461 H 340.155 3.751 -0.968423 0
M  V30 3462 H 340.569 4.20493 -3.13506 0
M  V30 3463 H 342.043 5.22987 -1.76603 0
M  V30 3464 H 342.52 4.38195 -0.296935 0
M  V30 3465 H 343.126 3.81907 -1.87155 0
M  V30 3466 N 341.441 0.965919 1.2453 0
M  V30 3467 C 342.666 0.643971 1.97149 0
M  V30 3468 C 343.091 -0.779487 1.71189 0
M  V30 3469 O 342.449 -1.5288 0.974553 0
M  V30 3470 C 342.497 0.922557 3.48599 0
M  V30 3471 O 341.601 0.00707672 4.12399 0
M  V30 3472 H 340.942 0.243647 0.617683 0
M  V30 3473 H 343.472 1.29558 1.58353 0
M  V30 3474 H 343.482 0.853373 3.98976 0
M  V30 3475 H 342.157 1.95996 3.66822 0
M  V30 3476 H 340.734 0.12943 3.72675 0
M  V30 3477 N 342.919 -1.39368 0.735821 0
M  V30 3478 C 344.168 -1.99733 0.281004 0
M  V30 3479 C 344.481 -1.59055 -1.13846 0
M  V30 3480 O 345.687 -2.12262 -1.69284 0
M  V30 3481 C 344.143 -3.57057 0.451462 0
M  V30 3482 C 343.751 -4.06697 1.87886 0
M  V30 3483 C 345.495 -4.2446 0.0584616 0
M  V30 3484 C 343.402 -5.56598 1.99883 0
M  V30 3485 H 342.332 -0.747163 0.101311 0
M  V30 3486 H 344.983 -1.59357 0.909819 0
M  V30 3487 H 343.365 -3.95234 -0.246263 0
M  V30 3488 H 344.539 -3.79853 2.60861 0
M  V30 3489 H 342.854 -3.5196 2.22515 0
M  V30 3490 H 345.451 -5.34549 0.127099 0
M  V30 3491 H 345.794 -4.04444 -0.986433 0
M  V30 3492 H 346.327 -3.9146 0.707374 0
M  V30 3493 H 343.066 -5.81494 3.02564 0
M  V30 3494 H 342.586 -5.85242 1.31346 0
M  V30 3495 H 344.265 -6.22022 1.78039 0
M  V30 3496 N 344.397 -0.483516 -1.5 0
M  V30 3497 C 345.627 0.0643896 -2.065 0
M  V30 3498 C 346.035 1.32949 -1.34615 0
M  V30 3499 O 345.378 1.79003 -0.412756 0
M  V30 3500 C 345.44 0.405983 -3.572 0
M  V30 3501 C 345.104 -0.758875 -4.50655 0
M  V30 3502 C 346.101 -1.64445 -4.93208 0
M  V30 3503 C 343.786 -0.952725 -4.93182 0
M  V30 3504 C 345.78 -2.70818 -5.77006 0
M  V30 3505 C 343.467 -2.01966 -5.76761 0
M  V30 3506 C 344.465 -2.89574 -6.18576 0
M  V30 3507 O 344.153 -3.94429 -7.00486 0
M  V30 3508 H 343.885 -0.00934786 -0.675935 0
M  V30 3509 H 346.439 -0.674959 -1.93993 0
M  V30 3510 H 344.669 1.19869 -3.67652 0
M  V30 3511 H 346.358 0.890433 -3.96013 0
M  V30 3512 H 347.124 -1.50643 -4.61012 0
M  V30 3513 H 343.003 -0.280247 -4.60147 0
M  V30 3514 H 346.547 -3.3923 -6.09565 0
M  V30 3515 H 342.444 -2.1577 -6.0837 0
M  V30 3516 H 343.212 -3.91568 -7.1876 0
M  V30 3517 N 345.875 1.56104 -0.216619 0
M  V30 3518 C 347.1 2.0301 0.424462 0
M  V30 3519 C 347.525 1.0955 1.52907 0
M  V30 3520 O 346.883 0.0827914 1.81111 0
M  V30 3521 C 346.931 3.4819 0.937883 0
M  V30 3522 O 346.035 3.57865 2.04955 0
M  V30 3523 H 345.376 0.656925 0.0966755 0
M  V30 3524 H 347.906 2.01859 -0.33381 0
M  V30 3525 H 347.916 3.88413 1.24897 0
M  V30 3526 H 346.591 4.15699 0.129387 0
M  V30 3527 H 345.168 3.29527 1.74546 0
M  V30 3528 N 347.353 -0.0568162 1.57498 0
M  V30 3529 C 348.6 -0.753104 1.87975 0
M  V30 3530 C 348.928 -1.76815 0.81035 0
M  V30 3531 O 348.183 -1.94756 -0.19199 0
M  V30 3532 C 348.482 -1.48359 3.25153 0
M  V30 3533 C 348.148 -0.60713 4.46794 0
M  V30 3534 C 346.81 -0.365642 4.79809 0
M  V30 3535 C 349.162 -0.000305978 5.212 0
M  V30 3536 C 346.49 0.491905 5.84634 0
M  V30 3537 C 348.842 0.844781 6.26934 0
M  V30 3538 C 347.506 1.096 6.58441 0
M  V30 3539 H 346.776 -0.27558 0.687849 0
M  V30 3540 H 349.423 -0.0135173 1.91495 0
M  V30 3541 H 347.728 -2.29577 3.17492 0
M  V30 3542 H 349.425 -2.02739 3.45974 0
M  V30 3543 H 346.015 -0.805487 4.20963 0
M  V30 3544 H 350.199 -0.173961 4.95995 0
M  V30 3545 H 345.455 0.695131 6.07436 0
M  V30 3546 H 349.629 1.32165 6.83744 0
M  V30 3547 H 347.256 1.76224 7.39492 0
M  V30 3548 N 348.832 -1.54138 -0.328536 0
M  V30 3549 C 350.109 -1.62749 -1.08499 0
M  V30 3550 C 350.489 -0.458198 -2.06067 0
M  V30 3551 O 349.837 0.548046 -2.2183 0
M  V30 3552 C 350.047 -2.99519 -1.79135 0
M  V30 3553 C 351.395 -3.55394 -2.32337 0
M  V30 3554 O 352.419 -3.01792 -1.89209 0
M  V30 3555 O 351.278 -4.49186 -3.11279 0
M  V30 3556 H 348.372 -0.65886 -0.499832 0
M  V30 3557 H 350.918 -1.66484 -0.328826 0
M  V30 3558 H 349.69 -3.76061 -1.08139 0
M  V30 3559 H 349.313 -2.99441 -2.61574 0
M  V30 3560 N 350.31 0.590341 -1.46126 0
M  V30 3561 C 351.22 1.72793 -1.58681 0
M  V30 3562 C 352.236 1.67516 -0.470566 0
M  V30 3563 O 353.412 1.87562 -0.733642 0
M  V30 3564 C 350.477 3.09287 -1.5666 0
M  V30 3565 C 349.538 3.25886 -2.79458 0
M  V30 3566 C 348.771 4.55869 -2.77524 0
M  V30 3567 O 348.994 5.3928 -1.85832 0
M  V30 3568 O 347.928 4.75552 -3.68964 0
M  V30 3569 H 351.754 1.65149 -2.54872 0
M  V30 3570 H 349.339 0.756486 -1.28832 0
M  V30 3571 H 351.221 3.90577 -1.58202 0
M  V30 3572 H 349.896 3.17385 -0.636271 0
M  V30 3573 H 348.803 2.44119 -2.83472 0
M  V30 3574 H 350.136 3.22675 -3.71674 0
M  V30 3575 N 351.788 1.33704 0.83433 0
M  V30 3576 C 353.016 1.28467 1.62185 0
M  V30 3577 C 353.431 -0.143526 1.88254 0
M  V30 3578 O 352.788 -1.08709 1.4659 0
M  V30 3579 C 352.839 2.06174 2.96942 0
M  V30 3580 O 352.56 3.43422 2.72016 0
M  V30 3581 C 354.061 2.08201 3.91366 0
M  V30 3582 H 351.281 0.4424 0.504503 0
M  V30 3583 H 353.825 1.76145 1.03891 0
M  V30 3584 H 351.98 1.62167 3.51825 0
M  V30 3585 H 352.394 3.83453 3.57861 0
M  V30 3586 H 353.868 2.67017 4.83121 0
M  V30 3587 H 354.345 1.07343 4.2588 0
M  V30 3588 H 354.951 2.52246 3.42421 0
M  V30 3589 N 353.266 -1.05314 1.17247 0
M  V30 3590 C 354.213 -2.13031 0.888058 0
M  V30 3591 C 355.183 -1.65253 -0.167537 0
M  V30 3592 O 356.368 -1.90775 -0.0305974 0
M  V30 3593 C 353.508 -3.42702 0.406147 0
M  V30 3594 C 352.621 -4.04161 1.52572 0
M  V30 3595 C 351.756 -5.21744 0.997808 0
M  V30 3596 C 350.795 -5.75207 2.09291 0
M  V30 3597 N 349.932 -6.84094 1.57986 0
M  V30 3598 H 354.772 -2.36698 1.81048 0
M  V30 3599 H 352.309 -1.16121 0.903013 0
M  V30 3600 H 354.267 -4.17059 0.108305 0
M  V30 3601 H 352.897 -3.19222 -0.479313 0
M  V30 3602 H 351.949 -3.27253 1.93931 0
M  V30 3603 H 353.261 -4.39881 2.35172 0
M  V30 3604 H 352.415 -6.03168 0.653739 0
M  V30 3605 H 351.154 -4.87495 0.141232 0
M  V30 3606 H 350.159 -4.92414 2.44557 0
M  V30 3607 H 351.384 -6.11505 2.95362 0
M  V30 3608 H 349.33 -6.51745 0.74598 0
M  V30 3609 H 349.247 -7.18811 2.34195 0
M  V30 3610 H 350.515 -7.69172 1.26468 0
M  V30 3611 N 354.744 -0.972509 -1.24016 0
M  V30 3612 C 356.021 -0.553733 -1.87598 0
M  V30 3613 C 356.401 0.969158 -1.87538 0
M  V30 3614 O 355.749 1.84255 -1.35139 0
M  V30 3615 C 355.959 -1.15076 -3.29482 0
M  V30 3616 C 357.307 -1.23862 -4.06132 0
M  V30 3617 O 358.331 -1.10363 -3.38672 0
M  V30 3618 O 357.19 -1.45252 -5.26844 0
M  V30 3619 H 354.284 -0.185331 -0.805966 0
M  V30 3620 H 356.83 -1.06709 -1.31952 0
M  V30 3621 H 355.602 -2.19333 -3.2405 0
M  V30 3622 H 355.225 -0.621746 -3.92709 0
M  V30 3623 N 356.222 1.38976 -0.743202 0
M  V30 3624 C 357.152 2.33171 -0.123873 0
M  V30 3625 C 358.133 1.54336 0.71516 0
M  V30 3626 O 359.318 1.82696 0.658467 0
M  V30 3627 C 356.448 3.38474 0.777978 0
M  V30 3628 C 355.402 4.27979 0.0424758 0
M  V30 3629 C 354.728 5.2405 1.06189 0
M  V30 3630 C 356.028 5.10155 -1.1198 0
M  V30 3631 H 357.722 2.85213 -0.910709 0
M  V30 3632 H 355.268 1.37133 -0.439388 0
M  V30 3633 H 357.221 4.03328 1.22084 0
M  V30 3634 H 355.945 2.84891 1.59702 0
M  V30 3635 H 354.604 3.64616 -0.380853 0
M  V30 3636 H 354.252 4.66758 1.87472 0
M  V30 3637 H 353.952 5.84785 0.574485 0
M  V30 3638 H 355.476 5.9178 1.50428 0
M  V30 3639 H 356.89 5.68307 -0.75499 0
M  V30 3640 H 355.287 5.80073 -1.53738 0
M  V30 3641 H 356.357 4.44504 -1.93764 0
M  V30 3642 N 357.7 0.491464 1.49741 0
M  V30 3643 C 358.977 -0.118984 1.95238 0
M  V30 3644 C 359.357 -1.55044 1.43264 0
M  V30 3645 O 358.705 -2.19287 0.642287 0
M  V30 3646 C 358.915 -0.0414187 3.48975 0
M  V30 3647 C 360.263 -0.220133 4.24029 0
M  V30 3648 O 361.287 -0.117055 3.56008 0
M  V30 3649 O 360.146 -0.430567 5.44801 0
M  V30 3650 H 357.24 -0.100536 0.820866 0
M  V30 3651 H 359.786 0.553322 1.60426 0
M  V30 3652 H 358.558 0.957214 3.79412 0
M  V30 3653 H 358.181 -0.754292 3.9038 0
M  V30 3654 N 359.178 -1.55987 0.224894 0
M  V30 3655 C 360.108 -2.23426 -0.678457 0
M  V30 3656 C 361.089 -1.20709 -1.19847 0
M  V30 3657 O 362.274 -1.49304 -1.24186 0
M  V30 3658 C 359.404 -2.91676 -1.88527 0
M  V30 3659 C 358.358 -4.00893 -1.49896 0
M  V30 3660 C 357.684 -4.56455 -2.78483 0
M  V30 3661 C 358.984 -5.17769 -0.686461 0
M  V30 3662 H 360.678 -2.99175 -0.116173 0
M  V30 3663 H 358.224 -1.43897 -0.054436 0
M  V30 3664 H 360.177 -3.37547 -2.5227 0
M  V30 3665 H 358.901 -2.1338 -2.47258 0
M  V30 3666 H 357.56 -3.55758 -0.884985 0
M  V30 3667 H 357.208 -3.74886 -3.35365 0
M  V30 3668 H 356.908 -5.30169 -2.53368 0
M  V30 3669 H 358.432 -5.05047 -3.43162 0
M  V30 3670 H 359.846 -5.60001 -1.22767 0
M  V30 3671 H 358.243 -5.97735 -0.532259 0
M  V30 3672 H 359.313 -4.83932 0.306196 0
M  V30 3673 N 360.656 0.0484629 -1.57525 0
M  V30 3674 C 361.566 1.07241 -2.08654 0
M  V30 3675 C 362.582 1.409 -1.02095 0
M  V30 3676 O 363.758 1.50609 -1.33712 0
M  V30 3677 C 360.823 2.36008 -2.5397 0
M  V30 3678 C 359.884 2.09108 -3.7493 0
M  V30 3679 C 359.117 3.31736 -4.18075 0
M  V30 3680 O 359.34 4.41714 -3.60895 0
M  V30 3681 O 358.274 3.18576 -5.10679 0
M  V30 3682 H 362.1 0.667965 -2.96263 0
M  V30 3683 H 359.685 0.26417 -1.47046 0
M  V30 3684 H 361.567 3.11747 -2.83535 0
M  V30 3685 H 360.242 2.75786 -1.69481 0
M  V30 3686 H 359.149 1.31 -3.50414 0
M  V30 3687 H 360.482 1.74198 -4.60343 0
M  V30 3688 N 362.134 1.5431 0.320358 0
M  V30 3689 C 363.411 1.63322 1.07635 0
M  V30 3690 C 363.791 0.46912 2.05821 0
M  V30 3691 O 363.139 -0.536274 2.22118 0
M  V30 3692 C 363.349 3.00465 1.77544 0
M  V30 3693 C 364.697 3.56621 2.30449 0
M  V30 3694 O 365.721 3.02791 1.87606 0
M  V30 3695 O 364.58 4.5083 3.08892 0
M  V30 3696 H 361.674 0.661502 0.496331 0
M  V30 3697 H 364.22 1.66656 0.319992 0
M  V30 3698 H 362.992 3.76629 1.06143 0
M  V30 3699 H 362.615 3.00824 2.59982 0
M  V30 3700 N 363.613 -0.582584 1.46437 0
M  V30 3701 C 364.862 -1.337 1.5102 0
M  V30 3702 C 365.175 -1.94891 0.166359 0
M  V30 3703 O 366.381 -2.71351 0.0899954 0
M  V30 3704 C 364.837 -2.42315 2.66104 0
M  V30 3705 C 364.445 -1.87427 4.06909 0
M  V30 3706 C 366.189 -3.19099 2.79958 0
M  V30 3707 C 364.096 -2.93672 5.13333 0
M  V30 3708 H 363.026 -0.502619 0.562041 0
M  V30 3709 H 365.677 -0.621701 1.72647 0
M  V30 3710 H 364.059 -3.16645 2.37807 0
M  V30 3711 H 365.233 -1.19639 4.44998 0
M  V30 3712 H 363.548 -1.2331 3.97723 0
M  V30 3713 H 366.145 -3.9839 3.56636 0
M  V30 3714 H 366.488 -3.71695 1.87479 0
M  V30 3715 H 367.021 -2.51875 3.07902 0
M  V30 3716 H 363.76 -2.45962 6.07604 0
M  V30 3717 H 363.28 -3.59948 4.79789 0
M  V30 3718 H 364.959 -3.5762 5.39182 0
M  V30 3719 N 365.091 -1.34144 -0.827227 0
M  V30 3720 C 366.337 -1.26446 -1.58554 0
M  V30 3721 C 366.67 0.1664 -1.93486 0
M  V30 3722 O 365.945 1.1107 -1.59667 0
M  V30 3723 C 366.228 -2.15111 -2.8879 0
M  V30 3724 C 366.081 -3.66712 -2.60465 0
M  V30 3725 C 367.4 -2.03311 -3.90324 0
M  V30 3726 H 364.519 -0.46067 -0.575284 0
M  V30 3727 H 367.161 -1.64356 -0.953269 0
M  V30 3728 H 365.311 -1.8291 -3.42748 0
M  V30 3729 H 366.983 -4.09259 -2.1285 0
M  V30 3730 H 365.226 -3.88014 -1.93978 0
M  V30 3731 H 365.897 -4.24112 -3.53317 0
M  V30 3732 H 368.373 -2.31574 -3.45706 0
M  V30 3733 H 367.249 -2.67582 -4.79261 0
M  V30 3734 H 367.51 -1.00879 -4.30437 0
M  V30 3735 N 366.569 1.04691 -1.17803 0
M  V30 3736 C 367.985 1.29963 -0.926379 0
M  V30 3737 C 368.185 1.97251 0.411635 0
M  V30 3738 O 367.241 2.24922 1.14744 0
M  V30 3739 C 368.554 2.16447 -2.08737 0
M  V30 3740 C 370.102 2.29814 -2.12496 0
M  V30 3741 C 370.577 3.19661 -3.27995 0
M  V30 3742 N 372.068 3.27247 -3.27816 0
M  V30 3743 C 372.803 3.96906 -4.13827 0
M  V30 3744 N 372.299 4.6895 -5.09959 0
M  V30 3745 N 374.092 3.93122 -4.01761 0
M  V30 3746 H 366.243 0.594182 -2.0392 0
M  V30 3747 H 368.506 0.324649 -0.890678 0
M  V30 3748 H 368.212 1.74304 -3.05469 0
M  V30 3749 H 368.086 3.17103 -2.04268 0
M  V30 3750 H 370.473 2.71196 -1.16347 0
M  V30 3751 H 370.554 1.2877 -2.21025 0
M  V30 3752 H 370.198 2.78991 -4.24413 0
M  V30 3753 H 370.128 4.20722 -3.16703 0
M  V30 3754 H 372.619 2.75921 -2.58217 0
M  V30 3755 H 372.932 5.19679 -5.71974 0
M  V30 3756 H 371.277 4.67875 -5.13924 0
M  V30 3757 H 374.468 3.35967 -3.2595 0
M  V30 3758 H 374.641 4.47139 -4.6901 0
M  V30 3759 N 368.047 0.979072 1.23499 0
M  V30 3760 C 368.995 0.510604 2.26926 0
M  V30 3761 C 369.989 -0.431691 1.63807 0
M  V30 3762 O 371.195 -0.30573 1.77385 0
M  V30 3763 H 367.57 0.146688 0.737554 0
M  V30 3764 H 369.541 1.39466 2.63803 0
M  V30 3765 C 368.29 -0.172658 3.47271 0
M  V30 3766 H 367.613 0.543331 3.96091 0
M  V30 3767 H 369.053 -0.464101 4.21452 0
M  V30 3768 C 367.512 -1.40345 3.06276 0
M  V30 3769 O 368.042 -2.49978 3.14442 0
M  V30 3770 N 366.248 -1.27362 2.61203 0
M  V30 3771 H 365.795 -0.381584 2.54758 0
M  V30 3772 H 365.753 -2.09822 2.34141 0
M  V30 3773 N 369.525 -1.3858 0.750561 0
M  V30 3774 C 370.774 -1.99424 0.302172 0
M  V30 3775 C 371.087 -1.60254 -1.12152 0
M  V30 3776 O 372.293 -2.14046 -1.67023 0
M  V30 3777 C 370.749 -3.56558 0.489307 0
M  V30 3778 C 370.357 -4.04682 1.92189 0
M  V30 3779 C 372.101 -4.24374 0.103478 0
M  V30 3780 C 370.008 -5.54446 2.05775 0
M  V30 3781 H 368.938 -0.746046 0.10923 0
M  V30 3782 H 371.589 -1.58383 0.92667 0
M  V30 3783 H 369.971 -3.95472 -0.204329 0
M  V30 3784 H 371.145 -3.77065 2.64875 0
M  V30 3785 H 369.46 -3.4958 2.26236 0
M  V30 3786 H 372.057 -5.34384 0.183787 0
M  V30 3787 H 372.4 -4.05468 -0.943481 0
M  V30 3788 H 372.933 -3.90688 0.748854 0
M  V30 3789 H 369.672 -5.78252 3.08714 0
M  V30 3790 H 369.192 -5.83816 1.37546 0
M  V30 3791 H 370.871 -6.20099 1.84626 0
M  V30 3792 N 371.003 -0.499398 -1.49478 0
M  V30 3793 C 371.935 0.316575 -2.27003 0
M  V30 3794 C 372.948 0.932047 -1.33479 0
M  V30 3795 O 374.137 0.815658 -1.58774 0
M  V30 3796 C 371.237 1.46055 -3.05812 0
M  V30 3797 C 370.41 0.952679 -4.26899 0
M  V30 3798 C 369.469 1.97407 -4.87767 0
M  V30 3799 O 368.495 1.54326 -5.4788 0
M  V30 3800 N 369.697 3.30436 -4.77276 0
M  V30 3801 H 372.462 -0.348168 -2.97671 0
M  V30 3802 H 370.023 -0.33185 -1.58463 0
M  V30 3803 H 372.015 2.14135 -3.43407 0
M  V30 3804 H 370.585 2.02948 -2.37762 0
M  V30 3805 H 369.805 0.0968248 -3.94081 0
M  V30 3806 H 371.093 0.59174 -5.05347 0
M  V30 3807 H 370.491 3.68126 -4.29534 0
M  V30 3808 H 369.048 3.94235 -5.19059 0
M  V30 3809 N 372.481 1.55866 -0.233164 0
M  V30 3810 C 373.444 2.1953 0.658715 0
M  V30 3811 C 374.444 1.16053 1.11303 0
M  V30 3812 O 375.634 1.41218 1.01996 0
M  V30 3813 C 372.766 2.82791 1.90373 0
M  V30 3814 H 373.959 2.99721 0.10347 0
M  V30 3815 H 371.512 1.56291 0.0164245 0
M  V30 3816 H 372.247 2.06501 2.50056 0
M  V30 3817 H 372.032 3.58578 1.58632 0
M  V30 3818 H 373.522 3.31556 2.53891 0
M  V30 3819 N 373.959 -0.0401083 1.57549 0
M  V30 3820 C 375.184 -0.748931 1.93406 0
M  V30 3821 C 375.609 -1.68686 0.832274 0
M  V30 3822 O 374.967 -1.80047 -0.212818 0
M  V30 3823 C 375.015 -1.4916 3.28304 0
M  V30 3824 O 374.119 -2.6042 3.19774 0
M  V30 3825 H 373.46 -0.202212 0.63246 0
M  V30 3826 H 375.99 0.00112086 2.046 0
M  V30 3827 H 376 -1.86395 3.62934 0
M  V30 3828 H 374.675 -0.80364 4.08062 0
M  V30 3829 H 373.252 -2.25808 2.96758 0
M  V30 3830 N 375.437 -1.54477 -0.31217 0
M  V30 3831 C 376.347 -1.87695 -1.4074 0
M  V30 3832 C 377.363 -0.769975 -1.56036 0
M  V30 3833 O 378.539 -1.06537 -1.70915 0
M  V30 3834 C 375.604 -2.10755 -2.75287 0
M  V30 3835 C 374.665 -3.34514 -2.69071 0
M  V30 3836 C 373.898 -3.56465 -3.97201 0
M  V30 3837 O 374.121 -2.81637 -4.96021 0
M  V30 3838 O 373.055 -4.49964 -3.9977 0
M  V30 3839 H 376.881 -2.80849 -1.15574 0
M  V30 3840 H 374.466 -1.40526 -0.507228 0
M  V30 3841 H 376.348 -2.27188 -3.54913 0
M  V30 3842 H 375.023 -1.20788 -3.0032 0
M  V30 3843 H 373.93 -3.23456 -1.87955 0
M  V30 3844 H 375.263 -4.24575 -2.48992 0
M  V30 3845 N 376.915 0.57481 -1.46744 0
M  V30 3846 C 378.331 0.898981 -1.31873 0
M  V30 3847 C 378.531 1.99313 -0.29605 0
M  V30 3848 O 377.587 2.50728 0.298621 0
M  V30 3849 C 378.9 1.30886 -2.7072 0
M  V30 3850 C 380.448 1.42127 -2.78871 0
M  V30 3851 C 380.923 1.86478 -4.18318 0
M  V30 3852 N 382.414 1.93658 -4.20774 0
M  V30 3853 C 383.149 2.29267 -5.2557 0
M  V30 3854 N 382.645 2.63612 -6.40688 0
M  V30 3855 N 384.438 2.29889 -5.1294 0
M  V30 3856 H 376.589 -0.147839 -2.11885 0
M  V30 3857 H 378.852 -0.00347013 -0.947994 0
M  V30 3858 H 378.558 0.578853 -3.46904 0
M  V30 3859 H 378.432 2.26874 -3.01343 0
M  V30 3860 H 380.819 2.14213 -2.0297 0
M  V30 3861 H 380.9 0.443705 -2.51922 0
M  V30 3862 H 380.544 1.14968 -4.94717 0
M  V30 3863 H 380.474 2.85207 -4.42679 0
M  V30 3864 H 382.965 1.69574 -3.37718 0
M  V30 3865 H 383.278 2.89759 -7.16421 0
M  V30 3866 H 381.623 2.61232 -6.44036 0
M  V30 3867 H 384.814 2.02485 -4.22039 0
M  V30 3868 H 384.987 2.57312 -5.94722 0
M  V30 3869 N 378.394 1.34581 0.820102 0
M  V30 3870 C 379.64 1.27285 1.57881 0
M  V30 3871 C 379.973 -0.156137 1.93571 0
M  V30 3872 O 379.248 -1.10222 1.60254 0
M  V30 3873 C 379.531 2.16639 2.87645 0
M  V30 3874 C 379.384 3.68088 2.58517 0
M  V30 3875 C 380.703 2.05378 3.8924 0
M  V30 3876 H 377.822 0.463714 0.572833 0
M  V30 3877 H 380.464 1.64859 0.944539 0
M  V30 3878 H 378.614 1.84725 3.41773 0
M  V30 3879 H 380.286 4.10382 2.10676 0
M  V30 3880 H 378.529 3.89038 1.91917 0
M  V30 3881 H 379.2 4.2598 3.51063 0
M  V30 3882 H 381.676 2.33404 3.44473 0
M  V30 3883 H 380.552 2.7012 4.77835 0
M  V30 3884 H 380.813 1.0316 4.29896 0
M  V30 3885 N 379.872 -1.04064 1.18357 0
M  V30 3886 C 381.118 -1.77528 0.980397 0
M  V30 3887 C 381.451 -1.87948 -0.48879 0
M  V30 3888 O 380.726 -1.3876 -1.36293 0
M  V30 3889 C 381.009 -3.20797 1.63588 0
M  V30 3890 C 380.862 -3.1832 3.17793 0
M  V30 3891 C 382.181 -4.18911 1.34914 0
M  V30 3892 H 379.3 -0.644443 0.357578 0
M  V30 3893 H 381.942 -1.2156 1.46024 0
M  V30 3894 H 380.092 -3.68586 1.22788 0
M  V30 3895 H 381.764 -2.78521 3.67728 0
M  V30 3896 H 380.007 -2.56351 3.49952 0
M  V30 3897 H 380.678 -4.19489 3.58794 0
M  V30 3898 H 383.154 -3.7967 1.70265 0
M  V30 3899 H 382.03 -5.17374 1.83346 0
M  V30 3900 H 382.291 -4.41262 0.272027 0
M  V30 3901 N 381.35 -0.985608 -1.22978 0
M  V30 3902 C 382.599 -0.652881 -1.90841 0
M  V30 3903 C 382.912 0.817842 -1.77681 0
M  V30 3904 O 384.118 1.26185 -2.40395 0
M  V30 3905 C 382.574 -1.11717 -3.42122 0
M  V30 3906 C 382.182 -2.6126 -3.63933 0
M  V30 3907 C 383.926 -0.85843 -4.1573 0
M  V30 3908 C 381.833 -3.0133 -5.08876 0
M  V30 3909 H 380.763 -0.240491 -0.714619 0
M  V30 3910 H 383.414 -1.1942 -1.39324 0
M  V30 3911 H 381.796 -0.504027 -3.92779 0
M  V30 3912 H 382.97 -3.27858 -3.23799 0
M  V30 3913 H 381.285 -2.84937 -3.03644 0
M  V30 3914 H 383.882 -1.13359 -5.22546 0
M  V30 3915 H 384.225 0.205461 -4.15793 0
M  V30 3916 H 384.758 -1.43341 -3.71077 0
M  V30 3917 H 381.497 -4.06864 -5.13947 0
M  V30 3918 H 381.017 -2.3943 -5.49939 0
M  V30 3919 H 382.696 -2.92224 -5.77247 0
M  V30 3920 N 382.828 1.3818 -0.7579 0
M  V30 3921 C 383.761 2.28055 -0.0814093 0
M  V30 3922 C 384.739 1.45603 0.723779 0
M  V30 3923 O 385.923 1.74961 0.701491 0
M  V30 3924 C 383.05 3.2676 0.891394 0
M  V30 3925 C 382.096 4.26153 0.171909 0
M  V30 3926 S 382.929 5.23434 -1.13035 0
M  V30 3927 C 384.085 6.25694 -0.160727 0
M  V30 3928 H 384.318 2.85082 -0.84353 0
M  V30 3929 H 381.851 1.44246 -0.550671 0
M  V30 3930 H 383.809 3.8414 1.44731 0
M  V30 3931 H 382.47 2.68706 1.62652 0
M  V30 3932 H 381.663 4.95738 0.908843 0
M  V30 3933 H 381.265 3.72691 -0.312606 0
M  V30 3934 H 383.557 6.74161 0.671773 0
M  V30 3935 H 384.5 7.03285 -0.824353 0
M  V30 3936 H 384.908 5.64064 0.221892 0
M  V30 3937 N 384.306 0.507319 1.49211 0
M  V30 3938 C 385.546 -0.0332372 2.04373 0
M  V30 3939 C 385.91 -1.33694 1.37804 0
M  V30 3940 O 387.111 -1.96213 1.83722 0
M  V30 3941 C 385.382 -0.17599 3.56966 0
M  V30 3942 S 386.941 -0.669882 4.33657 0
M  V30 3943 H 383.759 0.00123603 0.710999 0
M  V30 3944 H 386.361 0.682725 1.83191 0
M  V30 3945 H 385.065 0.778053 4.02957 0
M  V30 3946 H 384.596 -0.917005 3.82563 0
M  V30 3947 H 386.611 -1.93806 4.56786 0
M  V30 3948 N 385.784 -1.5574 0.241426 0
M  V30 3949 C 386.747 -2.19877 -0.647063 0
M  V30 3950 C 387.747 -1.16642 -1.10686 0
M  V30 3951 O 388.937 -1.41757 -1.01245 0
M  V30 3952 C 386.069 -2.83797 -1.88871 0
M  V30 3953 H 387.262 -2.99772 -0.087574 0
M  V30 3954 H 384.815 -1.56298 -0.00813574 0
M  V30 3955 H 385.55 -2.07824 -2.48957 0
M  V30 3956 H 385.335 -3.59414 -1.56728 0
M  V30 3957 H 386.825 -3.32898 -2.52129 0
M  V30 3958 N 387.262 0.0317525 -1.57568 0
M  V30 3959 C 388.487 0.738664 -1.938 0
M  V30 3960 C 388.912 1.68242 -0.841208 0
M  V30 3961 O 388.27 1.80157 0.203267 0
M  V30 3962 C 388.318 1.47417 -3.29091 0
M  V30 3963 O 387.422 2.5872 -3.2115 0
M  V30 3964 H 386.763 0.198856 -0.633524 0
M  V30 3965 H 389.293 -0.0119713 -2.04596 0
M  V30 3966 H 389.303 1.84468 -3.63917 0
M  V30 3967 H 387.978 0.781988 -4.08482 0
M  V30 3968 H 386.555 2.24231 -2.97951 0
M  V30 3969 N 388.74 1.54641 0.303973 0
M  V30 3970 C 389.965 1.78092 1.06292 0
M  V30 3971 C 390.39 0.537342 1.80262 0
M  V30 3972 O 389.748 -0.511993 1.7392 0
M  V30 3973 C 389.796 2.98612 2.02147 0
M  V30 3974 O 388.9 2.71528 3.10397 0
M  V30 3975 H 388.241 0.589548 0.305497 0
M  V30 3976 H 390.771 2.01716 0.3423 0
M  V30 3977 H 390.781 3.265 2.44667 0
M  V30 3978 H 389.456 3.88785 1.47714 0
M  V30 3979 H 388.033 2.54648 2.72413 0
M  V30 3980 N 390.218 -0.567019 1.47046 0
M  V30 3981 C 391.495 -1.3276 1.43646 0
M  V30 3982 C 391.875 -2.1071 0.128186 0
M  V30 3983 O 391.223 -2.10441 -0.890326 0
M  V30 3984 C 391.433 -2.2404 2.67595 0
M  V30 3985 C 392.781 -2.85372 3.14401 0
M  V30 3986 O 393.805 -2.34346 2.68254 0
M  V30 3987 O 392.664 -3.78091 3.946 0
M  V30 3988 H 389.758 -0.597293 0.571988 0
M  V30 3989 H 392.304 -0.586735 1.59234 0
M  V30 3990 H 391.076 -1.65975 3.54356 0
M  V30 3991 H 390.699 -3.05439 2.54544 0
M  V30 3992 N 391.696 -1.35014 -0.812953 0
M  V30 3993 C 392.924 -1.31031 -1.6012 0
M  V30 3994 C 393.339 0.113558 -1.88458 0
M  V30 3995 O 392.696 1.06363 -1.48301 0
M  V30 3996 C 392.747 -2.10872 -2.93624 0
M  V30 3997 O 392.468 -3.47706 -2.66518 0
M  V30 3998 C 393.969 -2.14401 -3.88004 0
M  V30 3999 H 391.189 -0.45037 -0.497401 0
M  V30 4000 H 393.733 -1.77775 -1.01076 0
M  V30 4001 H 391.888 -1.67744 -3.492 0
M  V30 4002 H 392.302 -3.89097 -3.51715 0
M  V30 4003 H 393.776 -2.74669 -4.78812 0
M  V30 4004 H 394.253 -1.14105 -4.24119 0
M  V30 4005 H 394.859 -2.57662 -3.38364 0
M  V30 4006 N 393.175 1.03435 -1.18907 0
M  V30 4007 C 394.424 1.76143 -0.982669 0
M  V30 4008 C 394.737 1.89416 0.487953 0
M  V30 4009 O 395.943 2.59041 0.813036 0
M  V30 4010 C 394.399 3.16722 -1.70924 0
M  V30 4011 C 394.007 3.11522 -3.21959 0
M  V30 4012 C 395.751 3.93764 -1.58588 0
M  V30 4013 C 393.658 4.46999 -3.87228 0
M  V30 4014 H 392.588 0.660292 -0.364047 0
M  V30 4015 H 395.239 1.158 -1.42347 0
M  V30 4016 H 393.621 3.775 -1.19623 0
M  V30 4017 H 394.795 2.60158 -3.80335 0
M  V30 4018 H 393.11 2.47978 -3.34508 0
M  V30 4019 H 395.707 4.93963 -2.04707 0
M  V30 4020 H 396.05 4.12794 -0.539142 0
M  V30 4021 H 396.583 3.39576 -2.07203 0
M  V30 4022 H 393.322 4.33174 -4.91976 0
M  V30 4023 H 392.842 4.98441 -3.33642 0
M  V30 4024 H 394.521 5.15898 -3.90459 0
M  V30 4025 N 394.653 0.992116 1.22453 0
M  V30 4026 C 396.069 0.702713 1.43297 0
M  V30 4027 C 396.269 -0.726909 1.87932 0
M  V30 4028 O 395.325 -1.49792 2.0327 0
M  V30 4029 C 396.638 1.70762 2.47509 0
M  V30 4030 C 398.186 1.72298 2.61309 0
M  V30 4031 C 398.661 2.71649 3.68742 0
M  V30 4032 N 400.152 2.70239 3.76199 0
M  V30 4033 C 400.887 3.43778 4.58917 0
M  V30 4034 N 400.383 4.26914 5.45633 0
M  V30 4035 N 402.176 3.32487 4.5322 0
M  V30 4036 H 394.327 1.91543 0.917871 0
M  V30 4037 H 396.59 0.826031 0.465162 0
M  V30 4038 H 396.296 2.73059 2.21657 0
M  V30 4039 H 396.17 1.49985 3.46099 0
M  V30 4040 H 398.557 0.706989 2.86506 0
M  V30 4041 H 398.638 1.97143 1.62997 0
M  V30 4042 H 398.282 3.73397 3.44292 0
M  V30 4043 H 398.212 2.44074 4.66622 0
M  V30 4044 H 400.703 2.09912 3.14237 0
M  V30 4045 H 401.016 4.79855 6.05771 0
M  V30 4046 H 399.361 4.31002 5.45218 0
M  V30 4047 H 402.552 2.6698 3.84499 0
M  V30 4048 H 402.725 3.90058 5.17454 0
M  V30 4049 N 396.131 -1.37776 0.765217 0
M  V30 4050 C 397.356 -2.04651 0.336537 0
M  V30 4051 C 397.781 -1.57337 -1.03086 0
M  V30 4052 O 397.139 -0.730621 -1.65927 0
M  V30 4053 C 397.187 -3.58577 0.381468 0
M  V30 4054 O 396.291 -4.07706 -0.62042 0
M  V30 4055 H 395.632 -0.64756 0.146838 0
M  V30 4056 H 398.162 -1.76221 1.03959 0
M  V30 4057 H 398.172 -4.07314 0.236448 0
M  V30 4058 H 396.847 -3.9237 1.37907 0
M  V30 4059 H 395.424 -3.70306 -0.439056 0
M  V30 4060 N 397.609 -0.515225 -1.4894 0
M  V30 4061 C 398.858 0.0261361 -2.01683 0
M  V30 4062 C 399.171 1.36719 -1.39883 0
M  V30 4063 O 400.377 1.99606 -1.84037 0
M  V30 4064 C 398.833 0.0970111 -3.59769 0
M  V30 4065 C 398.441 -1.23825 -4.30548 0
M  V30 4066 C 400.185 0.587981 -4.20408 0
M  V30 4067 C 398.092 -1.12877 -5.80528 0
M  V30 4068 H 397.022 0.0135398 -0.753878 0
M  V30 4069 H 399.673 -0.656787 -1.71343 0
M  V30 4070 H 398.055 0.844694 -3.86886 0
M  V30 4071 H 399.229 -2.00034 -4.15118 0
M  V30 4072 H 397.544 -1.66379 -3.81716 0
M  V30 4073 H 400.141 0.68763 -5.3026 0
M  V30 4074 H 400.484 1.59026 -3.84729 0
M  V30 4075 H 401.017 -0.103582 -3.97665 0
M  V30 4076 H 397.756 -2.10575 -6.20756 0
M  V30 4077 H 397.276 -0.407799 -5.98412 0
M  V30 4078 H 398.955 -0.813332 -6.41868 0
M  V30 4079 N 399.087 1.5561 -0.249682 0
M  V30 4080 C 400.02 2.17537 0.689408 0
M  V30 4081 C 400.998 1.12829 1.17083 0
M  V30 4082 O 402.182 1.41229 1.24846 0
M  V30 4083 C 399.309 2.77828 1.93725 0
M  V30 4084 C 398.355 3.95615 1.59346 0
M  V30 4085 S 399.188 5.30988 0.69367 0
M  V30 4086 C 400.344 5.94734 1.95046 0
M  V30 4087 H 400.577 2.96852 0.163142 0
M  V30 4088 H 398.11 1.54362 -0.0341166 0
M  V30 4089 H 400.068 3.13199 2.65361 0
M  V30 4090 H 398.729 1.98454 2.43465 0
M  V30 4091 H 397.922 4.364 2.52132 0
M  V30 4092 H 397.524 3.61535 0.957512 0
M  V30 4093 H 399.816 6.12419 2.89739 0
M  V30 4094 H 400.759 6.90109 1.58604 0
M  V30 4095 H 401.167 5.23832 2.10381 0
M  V30 4096 N 400.565 -0.0233959 1.57583 0
M  V30 4097 C 401.495 -1.02162 2.09965 0
M  V30 4098 C 402.476 -1.3735 1.00344 0
M  V30 4099 O 403.661 -1.46135 1.27899 0
M  V30 4100 C 400.791 -2.32081 2.58371 0
M  V30 4101 C 399.745 -2.1112 3.72307 0
M  V30 4102 C 399.071 -3.46848 4.06941 0
M  V30 4103 C 400.371 -1.49276 5.00514 0
M  V30 4104 H 402.065 -0.585557 2.93618 0
M  V30 4105 H 399.611 -0.280218 1.41247 0
M  V30 4106 H 401.564 -3.02249 2.93639 0
M  V30 4107 H 400.288 -2.77758 1.71808 0
M  V30 4108 H 398.947 -1.43384 3.37397 0
M  V30 4109 H 398.595 -3.90184 3.17436 0
M  V30 4110 H 398.295 -3.33646 4.83688 0
M  V30 4111 H 399.819 -4.18369 4.44747 0
M  V30 4112 H 401.233 -2.09368 5.33702 0
M  V30 4113 H 399.63 -1.46632 5.8191 0
M  V30 4114 H 400.7 -0.459217 4.82721 0
M  V30 4115 N 402.043 -1.548 -0.295768 0
M  V30 4116 C 403.289 -1.74588 -1.03184 0
M  V30 4117 C 403.622 -0.532962 -1.86744 0
M  V30 4118 O 402.897 0.469872 -1.88739 0
M  V30 4119 C 403.18 -3.03791 -1.93347 0
M  V30 4120 C 403.033 -4.35392 -1.12933 0
M  V30 4121 C 404.352 -3.28892 -2.92435 0
M  V30 4122 H 401.471 -0.635221 -0.373715 0
M  V30 4123 H 404.113 -1.87519 -0.30606 0
M  V30 4124 H 402.263 -2.92898 -2.55232 0
M  V30 4125 H 403.935 -4.58211 -0.532943 0
M  V30 4126 H 402.178 -4.31642 -0.432168 0
M  V30 4127 H 402.849 -5.22074 -1.79284 0
M  V30 4128 H 405.325 -3.39429 -2.4068 0
M  V30 4129 H 404.201 -4.20603 -3.52682 0
M  V30 4130 H 404.462 -2.47437 -3.6637 0
M  V30 4131 N 403.521 0.559213 -1.47345 0
M  V30 4132 C 404.484 1.64854 -1.59235 0
M  V30 4133 C 405.484 1.53851 -0.467607 0
M  V30 4134 O 406.674 1.58045 -0.732617 0
M  V30 4135 C 403.806 3.04388 -1.53496 0
M  V30 4136 H 404.999 1.55662 -2.56339 0
M  V30 4137 H 402.552 0.778973 -1.35505 0
M  V30 4138 H 403.287 3.19115 -0.577604 0
M  V30 4139 H 403.072 3.13783 -2.35123 0
M  V30 4140 H 404.562 3.83642 -1.6495 0
M  V30 4141 N 404.999 1.35443 0.805782 0
M  V30 4142 C 405.949 1.24972 1.90699 0
M  V30 4143 C 406.933 0.144806 1.60247 0
M  V30 4144 O 408.125 0.376102 1.72958 0
M  V30 4145 C 405.254 1.02475 3.27649 0
M  V30 4146 C 404.34 2.17361 3.64164 0
M  V30 4147 N 404.731 3.42591 3.72109 0
M  V30 4148 C 403.029 2.08765 3.94123 0
M  V30 4149 C 403.73 4.18144 4.04389 0
M  V30 4150 N 402.706 3.4691 4.18515 0
M  V30 4151 H 406.508 2.19852 1.95044 0
M  V30 4152 H 404.022 1.27928 1.00041 0
M  V30 4153 H 406.019 0.930617 4.06381 0
M  V30 4154 H 404.679 0.0848009 3.24589 0
M  V30 4155 H 405.69 3.76932 3.55166 0
M  V30 4156 H 402.367 1.22629 3.99084 0
M  V30 4157 H 403.757 5.26367 4.17597 0
M  V30 4158 N 406.477 -1.02803 1.19454 0
M  V30 4159 C 407.893 -1.28473 0.946937 0
M  V30 4160 C 408.093 -1.97881 -0.380202 0
M  V30 4161 O 407.149 -2.26719 -1.11151 0
M  V30 4162 C 408.462 -2.13099 2.12154 0
M  V30 4163 C 410.01 -2.26404 2.16126 0
M  V30 4164 C 410.485 -3.14402 3.33039 0
M  V30 4165 N 411.976 -3.21991 3.32981 0
M  V30 4166 C 412.711 -3.90272 4.20089 0
M  V30 4167 N 412.207 -4.60777 5.17355 0
M  V30 4168 N 414 -3.8668 4.07964 0
M  V30 4169 H 406.151 -0.561665 2.04839 0
M  V30 4170 H 408.414 -0.310438 0.89573 0
M  V30 4171 H 408.12 -1.69422 3.08203 0
M  V30 4172 H 407.994 -3.13813 2.09287 0
M  V30 4173 H 410.381 -2.69311 1.20647 0
M  V30 4174 H 410.462 -1.25237 2.23045 0
M  V30 4175 H 410.106 -2.72204 4.28798 0
M  V30 4176 H 410.036 -4.1563 3.23356 0
M  V30 4177 H 412.527 -2.71778 2.62574 0
M  V30 4178 H 412.84 -5.10513 5.80169 0
M  V30 4179 H 411.185 -4.5964 5.21302 0
M  V30 4180 H 414.376 -3.30739 3.31254 0
M  V30 4181 H 414.549 -4.39621 4.76064 0
M  V30 4182 N 407.956 -0.998596 -1.21925 0
M  V30 4183 C 408.906 -0.524743 -2.21879 0
M  V30 4184 C 409.89 0.41017 -1.55584 0
M  V30 4185 O 411.082 0.236063 -1.75419 0
M  V30 4186 C 408.211 0.153636 -3.42956 0
M  V30 4187 C 407.297 -0.801918 -4.16449 0
M  V30 4188 N 407.688 -1.95211 -4.66611 0
M  V30 4189 C 405.986 -0.618972 -4.41684 0
M  V30 4190 C 406.687 -2.55234 -5.22715 0
M  V30 4191 N 405.663 -1.83451 -5.1171 0
M  V30 4192 H 409.465 -1.40189 -2.58311 0
M  V30 4193 H 406.979 -0.86159 -1.3766 0
M  V30 4194 H 408.976 0.510534 -4.13762 0
M  V30 4195 H 407.636 1.02684 -3.08036 0
M  V30 4196 H 408.647 -2.33271 -4.62391 0
M  V30 4197 H 405.324 0.207694 -4.16983 0
M  V30 4198 H 406.714 -3.52471 -5.72026 0
M  V30 4199 N 409.434 1.37368 -0.772513 0
M  V30 4200 C 410.682 1.99279 -0.336516 0
M  V30 4201 C 411.003 1.6163 1.09091 0
M  V30 4202 O 410.273 0.882109 1.74916 0
M  V30 4203 H 408.853 0.737063 -0.121435 0
M  V30 4204 H 411.515 1.67836 -0.990809 0
M  V30 4205 H 410.611 3.09332 -0.414763 0
M  V30 4206 N 410.912 0.523116 1.48665 0
M  V30 4207 C 411.845 -0.290518 2.26343 0
M  V30 4208 C 412.823 -0.950913 1.31895 0
M  V30 4209 O 414.007 -0.976662 1.61225 0
M  V30 4210 C 411.134 -1.41088 3.07915 0
M  V30 4211 C 410.18 -0.862597 4.17686 0
M  V30 4212 S 411.013 0.264135 5.34848 0
M  V30 4213 C 412.169 -0.858864 6.19979 0
M  V30 4214 H 412.402 0.368726 2.95005 0
M  V30 4215 H 409.935 0.30878 1.51281 0
M  V30 4216 H 411.893 -2.0527 3.55492 0
M  V30 4217 H 410.554 -2.04182 2.38681 0
M  V30 4218 H 409.747 -1.70287 4.74361 0
M  V30 4219 H 409.349 -0.297595 3.72814 0
M  V30 4220 H 411.641 -1.7591 6.54264 0
M  V30 4221 H 412.584 -0.330244 7.07329 0
M  V30 4222 H 412.992 -1.13617 5.52948 0
M  V30 4223 N 412.39 -1.55475 0.257931 0
M  V30 4224 C 413.618 -2.03609 -0.367559 0
M  V30 4225 C 414.033 -1.13687 -1.50734 0
M  V30 4226 O 413.39 -0.153479 -1.81853 0
M  V30 4227 C 413.441 -3.51001 -0.864908 0
M  V30 4228 O 413.162 -4.37499 0.229465 0
M  V30 4229 C 414.663 -4.14946 -1.55997 0
M  V30 4230 H 411.883 -0.665459 -0.0860521 0
M  V30 4231 H 414.427 -2.00843 0.385014 0
M  V30 4232 H 412.582 -3.54266 -1.56762 0
M  V30 4233 H 412.996 -5.24286 -0.14998 0
M  V30 4234 H 414.47 -5.19735 -1.85956 0
M  V30 4235 H 414.947 -3.6209 -2.4857 0
M  V30 4236 H 415.553 -4.15635 -0.901543 0
M  V30 4237 N 413.868 0.0150385 -1.57593 0
M  V30 4238 C 415.093 0.718067 -1.94573 0
M  V30 4239 C 415.518 1.6734 -0.859005 0
M  V30 4240 O 414.876 1.80362 0.184147 0
M  V30 4241 C 414.924 1.43918 -3.30636 0
M  V30 4242 O 414.028 2.55299 -3.23876 0
M  V30 4243 H 413.369 0.192125 -0.635597 0
M  V30 4244 H 415.899 -0.0336708 -2.04572 0
M  V30 4245 H 415.909 1.80598 -3.65853 0
M  V30 4246 H 414.584 0.738619 -4.09289 0
M  V30 4247 H 413.161 2.21058 -3.00312 0
M  V30 4248 N 415.346 1.54954 0.287554 0
M  V30 4249 C 416.594 1.74528 1.01904 0
M  V30 4250 C 416.915 0.541349 1.87335 0
M  V30 4251 O 416.185 -0.444108 1.908 0
M  V30 4252 H 414.765 0.643576 0.379235 0
M  V30 4253 H 417.427 1.92333 0.315294 0
M  V30 4254 H 416.523 2.64015 1.6644 0
M  V30 4255 N 416.824 -0.551391 1.4764 0
M  V30 4256 C 418.101 -1.31229 1.45046 0
M  V30 4257 C 418.481 -2.10563 0.150527 0
M  V30 4258 O 417.829 -2.11374 -0.867956 0
M  V30 4259 C 418.039 -2.21189 2.69956 0
M  V30 4260 C 419.387 -2.82021 3.1741 0
M  V30 4261 O 420.411 -2.31488 2.70724 0
M  V30 4262 O 419.27 -3.73885 3.98588 0
M  V30 4263 H 416.364 -0.591193 0.578291 0
M  V30 4264 H 418.91 -0.569813 1.59847 0
M  V30 4265 H 417.682 -1.62207 3.56096 0
M  V30 4266 H 417.305 -3.02722 2.57769 0
M  V30 4267 N 418.302 -1.35869 -0.798587 0
M  V30 4268 C 419.532 -1.32529 -1.58491 0
M  V30 4269 C 419.94 0.0975405 -1.88948 0
M  V30 4270 O 419.283 1.06224 -1.49874 0
M  V30 4271 C 419.345 -2.07247 -2.9375 0
M  V30 4272 C 419.009 -3.56391 -2.86068 0
M  V30 4273 C 420.006 -4.50824 -2.58947 0
M  V30 4274 C 417.691 -3.9915 -3.04933 0
M  V30 4275 C 419.685 -5.85993 -2.5078 0
M  V30 4276 C 417.372 -5.34413 -2.96389 0
M  V30 4277 C 418.37 -6.27646 -2.69349 0
M  V30 4278 O 418.058 -7.60426 -2.60782 0
M  V30 4279 H 417.79 -0.456529 -0.498556 0
M  V30 4280 H 420.344 -1.79425 -0.999799 0
M  V30 4281 H 418.574 -1.55001 -3.54276 0
M  V30 4282 H 420.263 -1.96883 -3.54954 0
M  V30 4283 H 421.029 -4.19104 -2.44084 0
M  V30 4284 H 416.908 -3.26961 -3.24989 0
M  V30 4285 H 420.452 -6.58735 -2.29595 0
M  V30 4286 H 416.349 -5.65743 -3.10813 0
M  V30 4287 H 417.117 -7.70444 -2.76331 0
M  V30 4288 N 419.78 1.02168 -1.19998 0
M  V30 4289 C 420.743 2.08765 -0.94604 0
M  V30 4290 C 421.743 1.60618 0.0763846 0
M  V30 4291 O 422.933 1.73472 -0.159135 0
M  V30 4292 C 420.065 3.38262 -0.423255 0
M  V30 4293 H 421.258 2.32726 -1.89153 0
M  V30 4294 H 418.811 1.1889 -1.01464 0
M  V30 4295 H 419.546 3.19974 0.527938 0
M  V30 4296 H 419.331 3.74532 -1.16053 0
M  V30 4297 H 420.821 4.16759 -0.264911 0
M  V30 4298 N 421.258 1.00505 1.21394 0
M  V30 4299 C 422.505 0.687774 1.90462 0
M  V30 4300 C 422.833 -0.78147 1.7811 0
M  V30 4301 O 422.088 -1.58208 1.1519 0
M  V30 4302 C 422.387 1.0546 3.41486 0
M  V30 4303 C 422.053 2.51812 3.74034 0
M  V30 4304 C 420.715 2.91804 3.82628 0
M  V30 4305 C 423.067 3.46614 3.8924 0
M  V30 4306 C 420.395 4.2556 4.03876 0
M  V30 4307 C 422.747 4.80044 4.11995 0
M  V30 4308 C 421.411 5.19759 4.18816 0
M  V30 4309 H 420.681 0.251674 0.696951 0
M  V30 4310 H 423.328 1.26349 1.43903 0
M  V30 4311 H 421.633 0.397133 3.89782 0
M  V30 4312 H 423.33 0.786976 3.93202 0
M  V30 4313 H 419.92 2.1982 3.67936 0
M  V30 4314 H 424.104 3.16883 3.81967 0
M  V30 4315 H 419.36 4.55901 4.07387 0
M  V30 4316 H 423.534 5.53439 4.22704 0
M  V30 4317 H 421.161 6.23418 4.35033 0
M  V30 4318 N 422.737 -1.36956 0.779787 0
M  V30 4319 C 423.984 -1.99491 0.347766 0
M  V30 4320 C 424.312 -1.61898 -1.07793 0
M  V30 4321 O 423.567 -0.86071 -1.75756 0
M  V30 4322 C 423.866 -3.54585 0.447686 0
M  V30 4323 C 423.532 -4.1197 1.83279 0
M  V30 4324 C 422.194 -4.27356 2.2118 0
M  V30 4325 C 424.546 -4.43354 2.74019 0
M  V30 4326 C 421.874 -4.71432 3.4924 0
M  V30 4327 C 424.226 -4.88858 4.01497 0
M  V30 4328 C 422.89 -5.0245 4.39432 0
M  V30 4329 H 422.16 -0.729991 0.127257 0
M  V30 4330 H 424.807 -1.63599 0.995376 0
M  V30 4331 H 423.112 -3.90773 -0.283447 0
M  V30 4332 H 424.809 -4.00888 0.0945948 0
M  V30 4333 H 421.399 -4.00428 1.52825 0
M  V30 4334 H 425.583 -4.31045 2.45995 0
M  V30 4335 H 420.839 -4.80141 3.78516 0
M  V30 4336 H 425.013 -5.12108 4.71931 0
M  V30 4337 H 422.64 -5.36362 5.38721 0
M  V30 4338 N 424.215 -0.530993 -1.48385 0
M  V30 4339 C 425.163 0.244595 -2.3131 0
M  V30 4340 C 426.157 0.93451 -1.41291 0
M  V30 4341 O 427.363 0.85878 -1.58193 0
M  V30 4342 H 423.738 0.0977472 -0.74562 0
M  V30 4343 H 425.709 -0.474369 -2.94605 0
M  V30 4344 C 424.458 1.2779 -3.23365 0
M  V30 4345 H 423.781 0.756439 -3.92579 0
M  V30 4346 H 425.221 1.79198 -3.84271 0
M  V30 4347 C 423.68 2.31205 -2.45042 0
M  V30 4348 O 424.21 3.37661 -2.17596 0
M  V30 4349 N 422.416 2.04446 -2.0652 0
M  V30 4350 H 421.963 1.17891 -2.2904 0
M  V30 4351 H 421.921 2.73861 -1.54427 0
M  V30 4352 N 425.693 1.55336 -0.266172 0
M  V30 4353 C 426.942 1.98574 0.353749 0
M  V30 4354 C 427.255 1.15789 1.57646 0
M  V30 4355 O 428.461 1.49129 2.26876 0
M  V30 4356 C 426.917 3.53403 0.680747 0
M  V30 4357 C 426.525 4.44953 -0.52165 0
M  V30 4358 C 428.269 4.05251 1.26379 0
M  V30 4359 C 426.176 5.91156 -0.169736 0
M  V30 4360 H 425.106 0.741643 0.135949 0
M  V30 4361 H 427.757 1.79743 -0.369421 0
M  V30 4362 H 426.139 3.68001 1.46257 0
M  V30 4363 H 427.313 4.42121 -1.29869 0
M  V30 4364 H 425.628 4.03691 -1.02093 0
M  V30 4365 H 428.225 5.12021 1.54074 0
M  V30 4366 H 428.568 3.53749 2.19471 0
M  V30 4367 H 429.101 3.94057 0.544447 0
M  V30 4368 H 425.84 6.46736 -1.0683 0
M  V30 4369 H 425.36 5.97079 0.570717 0
M  V30 4370 H 427.039 6.4655 0.241245 0
M  V30 4371 N 427.171 -0.0066808 1.57599 0
M  V30 4372 C 428.081 -1.01671 2.11424 0
M  V30 4373 C 429.097 -1.38143 1.05795 0
M  V30 4374 O 430.273 -1.47011 1.37658 0
M  V30 4375 C 427.338 -2.29192 2.60139 0
M  V30 4376 C 426.399 -1.99094 3.80342 0
M  V30 4377 C 425.632 -3.20535 4.26724 0
M  V30 4378 O 425.855 -4.3199 3.72479 0
M  V30 4379 O 424.789 -3.04924 5.18946 0
M  V30 4380 H 428.615 -0.589181 2.9793 0
M  V30 4381 H 426.2 -0.225091 1.47695 0
M  V30 4382 H 428.082 -3.0412 2.917 0
M  V30 4383 H 426.757 -2.71195 1.76733 0
M  V30 4384 H 425.664 -1.21663 3.53764 0
M  V30 4385 H 426.997 -1.61931 4.648 0
M  V30 4386 N 428.649 -1.55105 -0.279332 0
M  V30 4387 C 429.579 -1.90557 -1.34945 0
M  V30 4388 C 430.56 -0.766738 -1.51839 0
M  V30 4389 O 431.745 -1.02434 -1.64988 0
M  V30 4390 C 428.875 -2.17193 -2.71006 0
M  V30 4391 C 427.829 -3.33021 -2.68851 0
M  V30 4392 C 427.155 -3.45123 -4.08405 0
M  V30 4393 C 428.455 -4.69578 -2.28678 0
M  V30 4394 H 430.149 -2.80188 -1.05522 0
M  V30 4395 H 427.695 -1.34811 -0.506173 0
M  V30 4396 H 429.648 -2.40581 -3.45975 0
M  V30 4397 H 428.372 -1.24355 -3.01999 0
M  V30 4398 H 427.031 -3.0959 -1.9634 0
M  V30 4399 H 426.679 -2.49762 -4.3661 0
M  V30 4400 H 426.379 -4.22995 -4.07859 0
M  V30 4401 H 427.903 -3.70796 -4.85121 0
M  V30 4402 H 429.317 -4.92553 -2.93368 0
M  V30 4403 H 427.714 -5.5032 -2.39306 0
M  V30 4404 H 428.784 -4.68828 -1.23807 0
M  V30 4405 N 430.127 0.543554 -1.4793 0
M  V30 4406 C 431.374 1.30008 -1.55255 0
M  V30 4407 C 431.702 1.93245 -0.220612 0
M  V30 4408 O 430.957 1.79141 0.787843 0
M  V30 4409 C 431.256 2.42078 -2.62932 0
M  V30 4410 C 430.922 1.96583 -4.0579 0
M  V30 4411 C 429.584 1.83893 -4.44676 0
M  V30 4412 C 431.936 1.62034 -4.95373 0
M  V30 4413 C 429.264 1.34969 -5.70964 0
M  V30 4414 C 431.616 1.14577 -6.22137 0
M  V30 4415 C 430.28 1.00493 -6.59892 0
M  V30 4416 H 429.55 0.475735 -0.568117 0
M  V30 4417 H 432.197 0.608075 -1.81589 0
M  V30 4418 H 430.502 3.16892 -2.30406 0
M  V30 4419 H 432.199 3.00236 -2.65818 0
M  V30 4420 H 428.789 2.07407 -3.75074 0
M  V30 4421 H 432.973 1.70705 -4.66019 0
M  V30 4422 H 428.229 1.2274 -5.98953 0
M  V30 4423 H 432.403 0.869109 -6.90955 0
M  V30 4424 H 430.03 0.623624 -7.57638 0
M  V30 4425 N 431.605 1.3629 0.791371 0
M  V30 4426 C 432.553 1.30514 1.92533 0
M  V30 4427 C 433.547 0.197285 1.68247 0
M  V30 4428 O 434.753 0.364176 1.76278 0
M  V30 4429 H 431.128 0.406263 0.632815 0
M  V30 4430 H 433.099 2.26282 1.94523 0
M  V30 4431 C 431.848 1.10933 3.29529 0
M  V30 4432 H 431.171 1.95427 3.48781 0
M  V30 4433 H 432.611 1.10937 4.0923 0
M  V30 4434 C 431.07 -0.186123 3.36385 0
M  V30 4435 O 431.6 -1.17664 3.84081 0
M  V30 4436 N 429.806 -0.230128 2.89687 0
M  V30 4437 H 429.353 0.576545 2.51065 0
M  V30 4438 H 429.311 -1.09658 2.94657 0
M  V30 4439 N 433.083 -1.0153 1.20538 0
M  V30 4440 C 434.308 -1.79283 1.04271 0
M  V30 4441 C 434.733 -1.8372 -0.403544 0
M  V30 4442 O 434.091 -1.27321 -1.2907 0
M  V30 4443 C 434.139 -3.21535 1.63241 0
M  V30 4444 O 433.243 -4.03099 0.870908 0
M  V30 4445 H 432.584 -0.55293 0.367647 0
M  V30 4446 H 435.114 -1.27696 1.59859 0
M  V30 4447 H 435.124 -3.72243 1.6703 0
M  V30 4448 H 433.799 -3.1762 2.68497 0
M  V30 4449 H 432.376 -3.61693 0.907323 0
M  V30 4450 N 434.561 -1.01147 -1.20859 0
M  V30 4451 C 435.786 -0.716698 -1.94623 0
M  V30 4452 C 436.211 0.715415 -1.73964 0
M  V30 4453 O 435.569 1.49157 -1.03062 0
M  V30 4454 C 435.617 -1.0513 -3.44935 0
M  V30 4455 O 434.721 -0.160131 -4.12089 0
M  V30 4456 H 434.062 -0.266404 -0.608214 0
M  V30 4457 H 436.592 -1.35346 -1.53436 0
M  V30 4458 H 436.602 -1.00086 -3.95533 0
M  V30 4459 H 435.277 -2.09475 -3.59295 0
M  V30 4460 H 433.854 -0.267657 -3.71938 0
M  V30 4461 N 436.039 1.36541 -0.78704 0
M  V30 4462 C 437.264 2.0409 -0.369053 0
M  V30 4463 C 437.689 1.58957 1.00569 0
M  V30 4464 O 437.047 0.756926 1.64743 0
M  V30 4465 C 437.095 3.57924 -0.438466 0
M  V30 4466 O 436.199 4.08642 0.555479 0
M  V30 4467 H 435.54 0.645142 -0.157122 0
M  V30 4468 H 438.07 1.74545 -1.06749 0
M  V30 4469 H 438.08 4.06887 -0.301218 0
M  V30 4470 H 436.755 3.90127 -1.44132 0
M  V30 4471 H 435.332 3.70958 0.380088 0
M  V30 4472 N 437.518 0.538854 1.48102 0
M  V30 4473 C 438.748 0.0122958 2.06596 0
M  V30 4474 C 439.156 -1.27861 1.39457 0
M  V30 4475 O 438.499 -1.77348 0.478907 0
M  V30 4476 C 438.561 -0.273131 3.58461 0
M  V30 4477 C 438.225 0.92561 4.47528 0
M  V30 4478 C 439.222 1.82637 4.86765 0
M  V30 4479 C 436.907 1.13511 4.89306 0
M  V30 4480 C 438.901 2.92047 5.66558 0
M  V30 4481 C 436.588 2.23233 5.68868 0
M  V30 4482 C 437.586 3.12333 6.07402 0
M  V30 4483 O 437.274 4.20155 6.85365 0
M  V30 4484 H 437.006 0.0344283 0.675123 0
M  V30 4485 H 439.56 0.746494 1.91355 0
M  V30 4486 H 437.79 -1.06141 3.71848 0
M  V30 4487 H 439.479 -0.742842 3.99045 0
M  V30 4488 H 440.245 1.67649 4.55103 0
M  V30 4489 H 436.124 0.450835 4.5879 0
M  V30 4490 H 439.668 3.6162 5.96554 0
M  V30 4491 H 435.565 2.38201 5.99942 0
M  V30 4492 H 436.333 4.17975 7.03732 0
M  V30 4493 N 438.996 -1.55193 0.274407 0
M  V30 4494 C 440.244 -1.99187 -0.341902 0
M  V30 4495 C 440.565 -1.16422 -1.56431 0
M  V30 4496 O 439.835 -0.253573 -1.94252 0
M  V30 4497 H 438.415 -0.735721 -0.129317 0
M  V30 4498 H 441.077 -1.91168 0.379578 0
M  V30 4499 H 440.173 -3.05629 -0.632253 0
M  V30 4500 N 440.474 -0.00167713 -1.576 0
M  V30 4501 C 441.751 0.719951 -1.81868 0
M  V30 4502 C 442.131 1.91895 -0.879747 0
M  V30 4503 O 441.479 2.28389 0.0711423 0
M  V30 4504 C 441.689 1.12409 -3.30402 0
M  V30 4505 C 443.037 1.52724 -3.96182 0
M  V30 4506 O 444.061 1.21784 -3.34734 0
M  V30 4507 O 442.92 2.10265 -5.04431 0
M  V30 4508 H 440.014 0.350707 -0.748955 0
M  V30 4509 H 442.56 -0.0272597 -1.69678 0
M  V30 4510 H 441.332 0.269532 -3.90371 0
M  V30 4511 H 440.955 1.93035 -3.47596 0
M  V30 4512 N 441.952 1.55251 0.271103 0
M  V30 4513 C 443.2 1.75599 1.00047 0
M  V30 4514 C 443.521 0.561188 1.8675 0
M  V30 4515 O 442.791 -0.423846 1.9126 0
M  V30 4516 H 441.371 0.647562 0.372387 0
M  V30 4517 H 444.033 1.92656 0.294876 0
M  V30 4518 H 443.129 2.65766 1.6363 0
M  V30 4519 N 443.43 -0.535701 1.48216 0
M  V30 4520 C 444.655 -1.32149 1.59848 0
M  V30 4521 C 445.08 -1.86338 0.256842 0
M  V30 4522 O 444.438 -1.64107 -0.770632 0
M  V30 4523 C 444.486 -2.45224 2.64381 0
M  V30 4524 O 443.59 -3.48093 2.21144 0
M  V30 4525 H 442.931 -0.391634 0.536208 0
M  V30 4526 H 445.461 -0.645202 1.94161 0
M  V30 4527 H 445.471 -2.91491 2.85476 0
M  V30 4528 H 444.146 -2.05143 3.61786 0
M  V30 4529 H 442.723 -3.07984 2.10239 0
M  V30 4530 N 444.908 -1.36708 -0.784132 0
M  V30 4531 C 446.154 -1.32433 -1.54379 0
M  V30 4532 C 446.509 0.0941816 -1.92169 0
M  V30 4533 O 445.802 1.04997 -1.60269 0
M  V30 4534 C 445.996 -2.18571 -2.82774 0
M  V30 4535 C 445.825 -3.68656 -2.57533 0
M  V30 4536 C 444.595 -4.37813 -2.52286 0
M  V30 4537 C 446.793 -4.61802 -2.2637 0
M  V30 4538 N 444.775 -5.7351 -2.18997 0
M  V30 4539 C 446.146 -5.85785 -2.03115 0
M  V30 4540 C 448.201 -4.50313 -2.12421 0
M  V30 4541 C 446.904 -6.99569 -1.67321 0
M  V30 4542 C 448.93 -5.63969 -1.78026 0
M  V30 4543 C 448.292 -6.86994 -1.55622 0
M  V30 4544 H 444.391 -0.539886 -0.565727 0
M  V30 4545 H 446.975 -1.71812 -0.915908 0
M  V30 4546 H 445.146 -1.81429 -3.43421 0
M  V30 4547 H 446.878 -2.05646 -3.48557 0
M  V30 4548 H 443.633 -3.90674 -2.67714 0
M  V30 4549 H 444.057 -6.45189 -2.05084 0
M  V30 4550 H 448.699 -3.55781 -2.28429 0
M  V30 4551 H 446.417 -7.94047 -1.5005 0
M  V30 4552 H 450.003 -5.57044 -1.67909 0
M  V30 4553 H 448.883 -7.7345 -1.294 0
M  V30 4554 N 446.386 1.0089 -1.21074 0
M  V30 4555 C 447.333 2.09588 -0.966512 0
M  V30 4556 C 448.303 1.65761 0.106089 0
M  V30 4557 O 449.488 1.90758 -0.0402287 0
M  V30 4558 C 446.628 3.40958 -0.533058 0
M  V30 4559 C 445.741 3.9822 -1.67467 0
M  V30 4560 C 444.876 5.17682 -1.19076 0
M  V30 4561 C 443.915 5.67043 -2.30496 0
M  V30 4562 N 443.052 6.77759 -1.83267 0
M  V30 4563 H 447.892 2.29815 -1.89708 0
M  V30 4564 H 445.429 1.12689 -0.945489 0
M  V30 4565 H 447.387 4.1637 -0.263019 0
M  V30 4566 H 446.017 3.20781 0.360505 0
M  V30 4567 H 445.069 3.1983 -2.05944 0
M  V30 4568 H 446.381 4.3085 -2.51336 0
M  V30 4569 H 445.535 6.00326 -0.877151 0
M  V30 4570 H 444.274 4.86635 -0.322066 0
M  V30 4571 H 443.279 4.82999 -2.62664 0
M  V30 4572 H 444.504 6.00121 -3.17855 0
M  V30 4573 H 442.45 6.48527 -0.987356 0
M  V30 4574 H 442.367 7.09624 -2.60711 0
M  V30 4575 H 443.635 7.63949 -1.54928 0
M  V30 4576 N 447.864 1.01787 1.20321 0
M  V30 4577 C 449.28 0.732951 1.41774 0
M  V30 4578 C 449.48 -0.686883 1.89431 0
M  V30 4579 O 448.536 -1.45446 2.06402 0
M  V30 4580 C 449.849 1.75973 2.43832 0
M  V30 4581 C 451.397 1.77802 2.57596 0
M  V30 4582 C 451.872 2.7941 3.62897 0
M  V30 4583 N 453.363 2.78157 3.70382 0
M  V30 4584 C 454.098 3.53434 4.51521 0
M  V30 4585 N 453.594 4.38392 5.36455 0
M  V30 4586 N 455.387 3.42026 4.46066 0
M  V30 4587 H 447.538 1.93447 0.877035 0
M  V30 4588 H 449.801 0.835712 0.447536 0
M  V30 4589 H 449.507 2.77699 2.15815 0
M  V30 4590 H 449.381 1.57292 3.4284 0
M  V30 4591 H 451.768 0.767602 2.84942 0
M  V30 4592 H 451.849 2.00557 1.58779 0
M  V30 4593 H 451.493 3.80616 3.36295 0
M  V30 4594 H 451.423 2.53916 4.61339 0
M  V30 4595 H 453.914 2.16531 3.09714 0
M  V30 4596 H 454.227 4.92596 5.95457 0
M  V30 4597 H 452.572 4.4247 5.35953 0
M  V30 4598 H 455.763 2.75075 3.78749 0
M  V30 4599 H 455.936 4.00946 5.09064 0
M  V30 4600 N 449.342 -1.36122 0.79427 0
M  V30 4601 C 450.59 -1.98718 0.368177 0
M  V30 4602 C 450.911 -1.63345 -1.06506 0
M  V30 4603 O 450.181 -0.909825 -1.73491 0
M  V30 4604 H 448.761 -0.735038 0.133146 0
M  V30 4605 H 451.423 -1.66239 1.01739 0
M  V30 4606 H 450.519 -3.08633 0.463923 0
M  V30 4607 N 450.82 -0.546701 -1.47814 0
M  V30 4608 C 452.097 0.0464413 -1.95545 0
M  V30 4609 C 452.477 1.4962 -1.48919 0
M  V30 4610 O 451.825 2.16752 -0.723232 0
M  V30 4611 C 452.035 -0.0881298 -3.48889 0
M  V30 4612 C 453.383 0.0626059 -4.24554 0
M  V30 4613 O 454.407 -0.0151555 -3.56197 0
M  V30 4614 O 453.266 0.228071 -5.46024 0
M  V30 4615 H 450.36 0.0700004 -0.824032 0
M  V30 4616 H 452.906 -0.612482 -1.58262 0
M  V30 4617 H 451.678 -1.09737 -3.75597 0
M  V30 4618 H 451.301 0.608886 -3.9291 0
M  V30 4619 N 452.299 1.55045 -0.282633 0
M  V30 4620 C 453.246 2.22822 0.601566 0
M  V30 4621 C 454.216 1.20431 1.14392 0
M  V30 4622 O 455.401 1.48996 1.19184 0
M  V30 4623 C 452.541 2.95873 1.77632 0
M  V30 4624 C 451.654 4.12999 1.26711 0
M  V30 4625 C 450.789 4.73676 2.40426 0
M  V30 4626 C 449.828 5.82981 1.86545 0
M  V30 4627 N 448.965 6.3769 2.93762 0
M  V30 4628 H 453.805 2.97995 0.0169528 0
M  V30 4629 H 451.342 1.471 -0.00339964 0
M  V30 4630 H 453.3 3.36447 2.46697 0
M  V30 4631 H 451.93 2.2311 2.33285 0
M  V30 4632 H 450.982 3.77494 0.469314 0
M  V30 4633 H 452.294 4.91803 0.832518 0
M  V30 4634 H 451.448 5.17008 3.17471 0
M  V30 4635 H 450.187 3.94164 2.87203 0
M  V30 4636 H 449.192 5.39092 1.07983 0
M  V30 4637 H 450.417 6.64366 1.40694 0
M  V30 4638 H 448.363 5.61069 3.39908 0
M  V30 4639 H 448.28 7.11788 2.54744 0
M  V30 4640 H 449.548 6.8568 3.7076 0
M  V30 4641 N 453.777 0.010035 1.57597 0
M  V30 4642 C 454.727 -0.986858 2.05536 0
M  V30 4643 C 455.711 -1.29711 0.952042 0
M  V30 4644 O 456.903 -1.28641 1.21575 0
M  V30 4645 C 454.032 -2.2756 2.57043 0
M  V30 4646 C 453.118 -1.99455 3.74271 0
M  V30 4647 N 453.509 -1.41546 4.85591 0
M  V30 4648 C 451.807 -2.29547 3.82393 0
M  V30 4649 C 452.508 -1.3014 5.66956 0
M  V30 4650 N 451.484 -1.79044 5.13268 0
M  V30 4651 H 455.286 -0.533778 2.89012 0
M  V30 4652 H 452.8 -0.195432 1.6122 0
M  V30 4653 H 454.797 -2.99829 2.89669 0
M  V30 4654 H 453.457 -2.73512 1.7499 0
M  V30 4655 H 454.468 -1.09294 5.06236 0
M  V30 4656 H 451.145 -2.78304 3.11213 0
M  V30 4657 H 452.535 -0.855237 6.66435 0
M  V30 4658 N 455.255 -1.55392 -0.262866 0
M  V30 4659 C 456.532 -1.67204 -1.01499 0
M  V30 4660 C 456.912 -0.545186 -2.03939 0
M  V30 4661 O 456.26 0.453467 -2.23955 0
M  V30 4662 C 456.47 -3.06847 -1.6627 0
M  V30 4663 C 457.818 -3.64928 -2.17054 0
M  V30 4664 O 458.842 -3.09545 -1.76239 0
M  V30 4665 O 457.701 -4.61984 -2.91947 0
M  V30 4666 H 454.795 -0.679467 -0.471438 0
M  V30 4667 H 457.341 -1.67729 -0.257918 0
M  V30 4668 H 456.113 -3.80309 -0.920915 0
M  V30 4669 H 455.736 -3.10266 -2.48638 0
M  V30 4670 N 456.733 0.527833 -1.48498 0
M  V30 4671 C 457.98 1.28354 -1.56625 0
M  V30 4672 C 458.308 1.93 -0.241096 0
M  V30 4673 O 457.563 1.79967 0.768798 0
M  V30 4674 C 457.862 2.39275 -2.65485 0
M  V30 4675 C 457.528 1.92268 -4.07853 0
M  V30 4676 C 456.19 1.79166 -4.46602 0
M  V30 4677 C 458.542 1.56771 -4.97064 0
M  V30 4678 C 455.87 1.28905 -5.72364 0
M  V30 4679 C 458.222 1.07972 -6.23318 0
M  V30 4680 C 456.886 0.934887 -6.60921 0
M  V30 4681 H 456.156 0.469682 -0.573131 0
M  V30 4682 H 458.803 0.588781 -1.82224 0
M  V30 4683 H 457.108 3.1443 -2.33754 0
M  V30 4684 H 458.805 2.974 -2.68988 0
M  V30 4685 H 455.395 2.03417 -3.77252 0
M  V30 4686 H 459.579 1.65753 -4.67803 0
M  V30 4687 H 454.835 1.16381 -6.00221 0
M  V30 4688 H 459.009 0.795775 -6.91838 0
M  V30 4689 H 456.636 0.543231 -7.58257 0
M  V30 4690 N 458.211 1.37122 0.776871 0
M  V30 4691 C 459.121 1.34651 1.9211 0
M  V30 4692 C 460.137 0.246824 1.7224 0
M  V30 4693 O 461.313 0.48134 1.95563 0
M  V30 4694 C 458.378 1.14748 3.2716 0
M  V30 4695 C 457.439 2.34308 3.5972 0
M  V30 4696 C 456.672 2.15345 4.88326 0
M  V30 4697 O 456.895 1.13507 5.58992 0
M  V30 4698 O 455.829 3.03414 5.1983 0
M  V30 4699 H 459.655 2.31013 1.97146 0
M  V30 4700 H 457.24 1.17799 0.918901 0
M  V30 4701 H 459.122 1.05616 4.0795 0
M  V30 4702 H 457.797 0.214562 3.22988 0
M  V30 4703 H 456.704 2.49011 2.79185 0
M  V30 4704 H 458.037 3.26149 3.68629 0
M  V30 4705 N 459.689 -1.00246 1.21608 0
M  V30 4706 C 460.652 -2.07233 0.979133 0
M  V30 4707 C 461.652 -1.6072 -0.0508219 0
M  V30 4708 O 462.842 -1.73196 0.186712 0
M  V30 4709 C 459.974 -3.37546 0.477016 0
M  V30 4710 H 461.167 -2.29687 1.92831 0
M  V30 4711 H 458.72 -1.17261 1.03342 0
M  V30 4712 H 459.455 -3.20773 -0.476966 0
M  V30 4713 H 459.24 -3.72638 1.21997 0
M  V30 4714 H 460.73 -4.16285 0.331181 0
M  V30 4715 N 461.167 -1.02423 -1.1978 0
M  V30 4716 C 462.114 -0.601023 -2.22837 0
M  V30 4717 C 463.084 0.382801 -1.61629 0
M  V30 4718 O 464.269 0.280514 -1.88727 0
M  V30 4719 C 461.409 0.0467755 -3.45068 0
M  V30 4720 C 460.522 -0.98253 -4.20678 0
M  V30 4721 C 459.657 -0.304982 -5.30324 0
M  V30 4722 C 458.696 -1.32052 -5.97686 0
M  V30 4723 N 457.833 -0.669105 -6.98904 0
M  V30 4724 H 462.673 -1.48444 -2.58396 0
M  V30 4725 H 460.21 -0.742936 -1.2696 0
M  V30 4726 H 462.168 0.439556 -4.14878 0
M  V30 4727 H 460.798 0.893796 -3.10179 0
M  V30 4728 H 459.85 -1.49341 -3.49859 0
M  V30 4729 H 461.162 -1.75455 -4.66923 0
M  V30 4730 H 460.316 0.142893 -6.06532 0
M  V30 4731 H 459.055 0.499283 -4.85138 0
M  V30 4732 H 458.06 -1.7787 -5.20233 0
M  V30 4733 H 459.285 -2.1262 -6.44957 0
M  V30 4734 H 457.231 0.115152 -6.55899 0
M  V30 4735 H 457.148 -1.37908 -7.43315 0
M  V30 4736 H 458.416 -0.245076 -7.79115 0
M  V30 4737 N 462.645 1.35699 -0.801477 0
M  V30 4738 C 463.577 2.28598 -0.166028 0
M  V30 4739 C 464.59 1.50044 0.631721 0
M  V30 4740 O 465.779 1.72339 0.464921 0
M  V30 4741 C 462.879 3.29625 0.787451 0
M  V30 4742 C 462.052 4.37384 0.037171 0
M  V30 4743 C 461.111 5.183 0.908375 0
M  V30 4744 O 460.137 5.68053 0.361189 0
M  V30 4745 N 461.339 5.35912 2.23112 0
M  V30 4746 H 464.104 2.83771 -0.964071 0
M  V30 4747 H 461.665 1.47994 -0.656469 0
M  V30 4748 H 463.657 3.80648 1.37439 0
M  V30 4749 H 462.227 2.75004 1.48632 0
M  V30 4750 H 461.447 3.87364 -0.730935 0
M  V30 4751 H 462.735 5.0653 -0.480109 0
M  V30 4752 H 462.133 4.97125 2.69968 0
M  V30 4753 H 460.69 5.90133 2.76741 0
M  V30 4754 N 464.123 0.554532 1.47522 0
M  V30 4755 C 465.086 -0.184174 2.28459 0
M  V30 4756 C 466.086 -0.845195 1.36796 0
M  V30 4757 O 467.276 -0.701467 1.59452 0
M  V30 4758 C 464.408 -1.26903 3.16399 0
M  V30 4759 H 465.601 0.526751 2.95238 0
M  V30 4760 H 463.154 0.311375 1.53167 0
M  V30 4761 H 463.889 -2.01244 2.54306 0
M  V30 4762 H 463.674 -0.799883 3.83854 0
M  V30 4763 H 465.164 -1.78794 3.77389 0
M  V30 4764 N 465.601 -1.54893 0.290851 0
M  V30 4765 C 466.831 -2.04047 -0.323818 0
M  V30 4766 C 467.239 -1.16809 -1.48837 0
M  V30 4767 O 466.582 -0.184145 -1.82775 0
M  V30 4768 C 466.644 -3.49248 -0.852395 0
M  V30 4769 C 466.308 -4.56623 0.185557 0
M  V30 4770 C 467.305 -5.09985 1.01053 0
M  V30 4771 C 464.99 -5.01252 0.324332 0
M  V30 4772 C 466.984 -6.06507 1.96031 0
M  V30 4773 C 464.671 -5.97596 1.27757 0
M  V30 4774 C 465.669 -6.50107 2.09405 0
M  V30 4775 O 465.357 -7.44565 3.03114 0
M  V30 4776 H 465.089 -0.671735 -0.0758129 0
M  V30 4777 H 467.643 -2.00947 0.425393 0
M  V30 4778 H 465.873 -3.49639 -1.65195 0
M  V30 4779 H 467.562 -3.81654 -1.38185 0
M  V30 4780 H 468.328 -4.76307 0.914129 0
M  V30 4781 H 464.207 -4.60015 -0.301213 0
M  V30 4782 H 467.751 -6.47418 2.598 0
M  V30 4783 H 463.648 -6.30691 1.37473 0
M  V30 4784 H 464.416 -7.62334 2.97976 0
M  V30 4785 N 467.08 -0.0183926 -1.57589 0
M  V30 4786 C 468.305 0.676634 -1.96052 0
M  V30 4787 C 468.73 1.6548 -0.894307 0
M  V30 4788 O 468.088 1.80712 0.145849 0
M  V30 4789 C 468.136 1.36872 -3.33614 0
M  V30 4790 O 467.24 2.48372 -3.29219 0
M  V30 4791 H 466.581 0.1786 -0.63953 0
M  V30 4792 H 469.111 -0.077056 -2.04455 0
M  V30 4793 H 469.121 1.72797 -3.69601 0
M  V30 4794 H 467.796 0.651636 -4.10763 0
M  V30 4795 H 466.373 2.14639 -3.04934 0
M  V30 4796 N 468.558 1.5553 0.254621 0
M  V30 4797 C 469.783 1.81383 1.00573 0
M  V30 4798 C 470.208 0.594419 1.78461 0
M  V30 4799 O 469.566 -0.456403 1.75461 0
M  V30 4800 C 469.614 3.04892 1.92545 0
M  V30 4801 O 468.718 2.81266 3.01601 0
M  V30 4802 H 468.059 0.598969 0.286587 0
M  V30 4803 H 470.589 2.02703 0.277952 0
M  V30 4804 H 470.599 3.34119 2.34155 0
M  V30 4805 H 469.274 3.93287 1.3527 0
M  V30 4806 H 467.851 2.63185 2.64174 0
M  V30 4807 N 470.036 -0.519951 1.48776 0
M  V30 4808 C 470.966 -1.63253 1.66945 0
M  V30 4809 C 471.947 -1.62014 0.518224 0
M  V30 4810 O 473.132 -1.79053 0.751919 0
M  V30 4811 C 470.262 -3.0181 1.71836 0
M  V30 4812 C 469.216 -3.17911 2.8656 0
M  V30 4813 C 468.542 -4.5763 2.76548 0
M  V30 4814 C 469.842 -2.99729 4.27738 0
M  V30 4815 H 471.536 -1.48302 2.6009 0
M  V30 4816 H 469.082 -0.712026 1.25165 0
M  V30 4817 H 471.035 -3.79525 1.83135 0
M  V30 4818 H 469.759 -3.17806 0.752775 0
M  V30 4819 H 468.418 -2.42616 2.74833 0
M  V30 4820 H 468.066 -4.70476 1.77937 0
M  V30 4821 H 467.766 -4.69346 3.53536 0
M  V30 4822 H 469.29 -5.37431 2.89828 0
M  V30 4823 H 470.704 -3.67228 4.40246 0
M  V30 4824 H 469.101 -3.22932 5.05801 0
M  V30 4825 H 470.171 -1.96047 4.43502 0
M  V30 4826 N 471.514 -1.37532 -0.769588 0
M  V30 4827 C 472.446 -1.29347 -1.89214 0
M  V30 4828 C 473.459 -0.208842 -1.61455 0
M  V30 4829 O 474.648 -0.465158 -1.72333 0
M  V30 4830 C 471.748 -0.977649 -3.24492 0
M  V30 4831 C 470.921 -2.16817 -3.7988 0
M  V30 4832 C 469.98 -1.82229 -4.93639 0
M  V30 4833 O 469.006 -2.54548 -5.09111 0
M  V30 4834 N 470.208 -0.767696 -5.75401 0
M  V30 4835 H 472.973 -2.26073 -1.96751 0
M  V30 4836 H 470.534 -1.31185 -0.948795 0
M  V30 4837 H 472.526 -0.727065 -3.98115 0
M  V30 4838 H 471.096 -0.0988777 -3.12444 0
M  V30 4839 H 470.316 -2.58038 -2.9801 0
M  V30 4840 H 471.604 -2.96308 -4.13617 0
M  V30 4841 H 471.002 -0.167626 -5.65452 0
M  V30 4842 H 469.559 -0.576973 -6.49241 0
M  V30 4843 N 472.992 0.995999 -1.22138 0
M  V30 4844 C 474.22 1.77066 -1.07029 0
M  V30 4845 C 474.635 1.8495 0.379357 0
M  V30 4846 O 473.992 1.3174 1.26297 0
M  V30 4847 C 474.043 3.20533 -1.67155 0
M  V30 4848 O 473.764 3.13082 -3.06449 0
M  V30 4849 C 475.265 4.14461 -1.5728 0
M  V30 4850 H 472.485 0.556179 -0.375374 0
M  V30 4851 H 475.029 1.25238 -1.61666 0
M  V30 4852 H 473.184 3.6944 -1.16589 0
M  V30 4853 H 473.598 4.03283 -3.35355 0
M  V30 4854 H 475.072 5.1289 -2.04078 0
M  V30 4855 H 475.549 4.36005 -0.528795 0
M  V30 4856 H 476.155 3.71449 -2.07136 0
M  V30 4857 N 474.47 1.03057 1.19235 0
M  V30 4858 C 475.716 0.729098 1.89241 0
M  V30 4859 C 476.049 -0.740573 1.79525 0
M  V30 4860 O 475.324 -1.53946 1.18874 0
M  V30 4861 C 475.607 1.18304 3.40112 0
M  V30 4862 C 475.46 2.71406 3.5869 0
M  V30 4863 C 476.779 0.765161 4.33397 0
M  V30 4864 H 473.898 0.266338 0.687192 0
M  V30 4865 H 476.54 1.28079 1.40341 0
M  V30 4866 H 474.69 0.713672 3.81889 0
M  V30 4867 H 476.362 3.26303 3.26074 0
M  V30 4868 H 474.605 3.11717 3.01687 0
M  V30 4869 H 475.276 2.98225 4.64506 0
M  V30 4870 H 477.752 1.16889 3.99345 0
M  V30 4871 H 476.628 1.11065 5.37546 0
M  V30 4872 H 476.889 -0.332372 4.40849 0
M  V30 4873 N 475.948 -1.35272 0.808662 0
M  V30 4874 C 477.176 -2.02946 0.402537 0
M  V30 4875 C 477.591 -1.60937 -0.987147 0
M  V30 4876 O 476.948 -0.807917 -1.63643 0
M  V30 4877 C 476.999 -3.58317 0.47868 0
M  V30 4878 O 476.72 -3.98799 1.81358 0
M  V30 4879 C 478.221 -4.43251 0.0656281 0
M  V30 4880 H 475.441 -0.650831 0.163279 0
M  V30 4881 H 477.985 -1.72849 1.09286 0
M  V30 4882 H 476.14 -3.87055 -0.163415 0
M  V30 4883 H 476.554 -4.93451 1.77781 0
M  V30 4884 H 478.028 -5.51738 0.170017 0
M  V30 4885 H 478.505 -4.27913 -0.989278 0
M  V30 4886 H 479.111 -4.19813 0.68096 0
M  V30 4887 N 477.426 -0.562348 -1.47226 0
M  V30 4888 C 478.356 0.170627 -2.32876 0
M  V30 4889 C 479.337 0.903748 -1.44106 0
M  V30 4890 O 480.522 0.883206 -1.72954 0
M  V30 4891 C 477.652 1.19786 -3.25989 0
M  V30 4892 C 476.606 0.580875 -4.2404 0
M  V30 4893 C 475.932 1.71311 -5.06514 0
M  V30 4894 C 477.232 -0.468714 -5.20193 0
M  V30 4895 H 478.926 -0.544441 -2.94408 0
M  V30 4896 H 476.472 -0.263271 -1.41573 0
M  V30 4897 H 478.425 1.71884 -3.84752 0
M  V30 4898 H 477.149 1.94294 -2.62521 0
M  V30 4899 H 475.808 0.0811538 -3.6651 0
M  V30 4900 H 475.456 2.44736 -4.39447 0
M  V30 4901 H 475.156 1.30604 -5.72902 0
M  V30 4902 H 476.68 2.23725 -5.68137 0
M  V30 4903 H 478.094 -0.0336028 -5.7329 0
M  V30 4904 H 476.491 -0.794957 -5.94811 0
M  V30 4905 H 477.561 -1.36269 -4.65359 0
M  V30 4906 N 478.904 1.54736 -0.299062 0
M  V30 4907 C 479.834 2.26409 0.571085 0
M  V30 4908 C 480.815 1.2629 1.13951 0
M  V30 4909 O 482 1.55059 1.16921 0
M  V30 4910 C 479.13 3.00338 1.74396 0
M  V30 4911 C 478.084 4.07588 1.30599 0
M  V30 4912 C 477.41 4.69222 2.56387 0
M  V30 4913 C 478.71 5.20455 0.438645 0
M  V30 4914 H 480.404 2.99388 -0.0266991 0
M  V30 4915 H 477.95 1.43993 -0.0142812 0
M  V30 4916 H 479.903 3.49198 2.35878 0
M  V30 4917 H 478.627 2.24934 2.36796 0
M  V30 4918 H 477.286 3.59575 0.71424 0
M  V30 4919 H 476.934 3.9046 3.17097 0
M  V30 4920 H 476.634 5.41653 2.27784 0
M  V30 4921 H 478.158 5.20844 3.18675 0
M  V30 4922 H 479.572 5.65221 0.959085 0
M  V30 4923 H 477.969 5.99594 0.246466 0
M  V30 4924 H 479.039 4.8192 -0.536738 0
M  V30 4925 N 480.382 0.0267497 1.57577 0
M  V30 4926 C 481.798 -0.32962 1.56159 0
M  V30 4927 C 481.998 -1.73059 1.03213 0
M  V30 4928 O 481.054 -2.43233 0.677804 0
M  V30 4929 C 482.367 -0.18039 3.00158 0
M  V30 4930 C 483.915 -0.253334 3.11973 0
M  V30 4931 C 484.39 -0.132921 4.57807 0
M  V30 4932 N 485.881 -0.189979 4.6281 0
M  V30 4933 C 486.616 -0.120554 5.73273 0
M  V30 4934 N 486.112 -0.000180315 6.928 0
M  V30 4935 N 487.905 -0.174369 5.61829 0
M  V30 4936 H 480.056 0.942896 1.90324 0
M  V30 4937 H 482.319 0.3639 0.875375 0
M  V30 4938 H 482.025 0.784576 3.42837 0
M  V30 4939 H 481.899 -0.951565 3.65 0
M  V30 4940 H 484.286 -1.20876 2.69208 0
M  V30 4941 H 484.367 0.548177 2.49857 0
M  V30 4942 H 484.011 0.819073 5.01252 0
M  V30 4943 H 483.941 -0.953264 5.179 0
M  V30 4944 H 486.432 -0.283257 3.76837 0
M  V30 4945 H 486.745 0.0461666 7.72786 0
M  V30 4946 H 485.09 0.034569 6.94991 0
M  V30 4947 H 488.281 -0.266794 4.67339 0
M  V30 4948 H 488.454 -0.116802 6.47895 0
M  V30 4949 N 481.861 -1.55662 -0.24637 0
M  V30 4950 C 483.089 -1.81575 -0.991876 0
M  V30 4951 C 483.504 -0.602545 -1.78927 0
M  V30 4952 O 482.861 0.428795 -1.77391 0
M  V30 4953 C 482.912 -3.05711 -1.92933 0
M  V30 4954 O 482.633 -4.22348 -1.1642 0
M  V30 4955 C 484.134 -3.44428 -2.79078 0
M  V30 4956 H 481.354 -0.604209 -0.291844 0
M  V30 4957 H 483.898 -2.02722 -0.269095 0
M  V30 4958 H 482.053 -2.86612 -2.60638 0
M  V30 4959 H 482.467 -4.92706 -1.79835 0
M  V30 4960 H 483.941 -4.34388 -3.40603 0
M  V30 4961 H 484.418 -2.65037 -3.50217 0
M  V30 4962 H 485.024 -3.65879 -2.16824 0
M  V30 4963 N 483.339 0.512053 -1.4905 0
M  V30 4964 C 484.585 1.26874 -1.58212 0
M  V30 4965 C 484.918 1.9241 -0.263073 0
M  V30 4966 O 484.193 1.80181 0.732476 0
M  V30 4967 C 484.476 2.34428 -2.73341 0
M  V30 4968 C 484.329 1.73466 -4.15006 0
M  V30 4969 C 485.648 3.36073 -2.84154 0
M  V30 4970 H 482.767 0.459924 -0.575881 0
M  V30 4971 H 485.409 0.568587 -1.81293 0
M  V30 4972 H 483.559 2.94146 -2.53792 0
M  V30 4973 H 485.231 1.17661 -4.46042 0
M  V30 4974 H 483.474 1.03921 -4.21168 0
M  V30 4975 H 484.145 2.51426 -4.91415 0
M  V30 4976 H 486.621 2.86332 -3.01916 0
M  V30 4977 H 485.497 4.08703 -3.66406 0
M  V30 4978 H 485.758 3.97725 -1.93048 0
M  V30 4979 N 484.817 1.37938 0.762283 0
M  V30 4980 C 485.764 1.34467 1.87583 0
M  V30 4981 C 486.734 0.208633 1.64785 0
M  V30 4982 O 487.919 0.399494 1.86571 0
M  V30 4983 C 485.059 1.16692 3.24772 0
M  V30 4984 C 484.172 2.39608 3.59461 0
M  V30 4985 C 483.307 2.14631 4.85908 0
M  V30 4986 C 482.346 3.33364 5.13357 0
M  V30 4987 N 481.483 3.07877 6.30996 0
M  V30 4988 H 486.323 2.29669 1.89885 0
M  V30 4989 H 483.86 1.14116 0.928219 0
M  V30 4990 H 485.818 1.04405 4.03925 0
M  V30 4991 H 484.448 0.251333 3.2182 0
M  V30 4992 H 483.5 2.626 2.75219 0
M  V30 4993 H 484.812 3.28128 3.75678 0
M  V30 4994 H 483.966 1.99429 5.72986 0
M  V30 4995 H 482.705 1.23463 4.71814 0
M  V30 4996 H 481.71 3.49094 4.24751 0
M  V30 4997 H 482.935 4.25395 5.29354 0
M  V30 4998 H 480.881 2.19348 6.18241 0
M  V30 4999 H 480.798 3.89944 6.47673 0
M  V30 5000 H 482.066 2.96313 7.20985 0
M  V30 5001 N 486.295 -0.989507 1.22664 0
M  V30 5002 C 487.706 -1.54406 1.04955 0
M  V30 5003 C 488.057 -1.92366 -0.385951 0
M  V30 5004 O 487.182 -1.75111 -1.27142 0
M  V30 5005 C 487.777 -2.80578 1.89899 0
M  V30 5006 C 486.336 -3.32464 1.76478 0
M  V30 5007 C 485.483 -2.05524 1.86159 0
M  V30 5008 H 488.434 -0.810211 1.3646 0
M  V30 5009 H 488.455 -3.53075 1.4184 0
M  V30 5010 H 487.967 -2.52918 2.94371 0
M  V30 5011 H 486.068 -3.65024 0.747528 0
M  V30 5012 H 486.181 -4.02838 2.59342 0
M  V30 5013 H 484.545 -2.19241 1.29636 0
M  V30 5014 H 485.328 -1.80258 2.92168 0
M  V30 5015 N 487.773 -1.03688 -1.18687 0
M  V30 5016 C 488.683 -0.634908 -2.25845 0
M  V30 5017 C 489.699 0.337065 -1.70704 0
M  V30 5018 O 490.875 0.192943 -2.00474 0
M  V30 5019 C 487.94 -0.000180054 -3.467 0
M  V30 5020 C 487.001 -1.02067 -4.1699 0
M  V30 5021 C 486.234 -0.41614 -5.32075 0
M  V30 5022 O 486.457 0.778712 -5.65059 0
M  V30 5023 O 485.391 -1.14296 -5.90948 0
M  V30 5024 H 489.217 -1.52757 -2.62486 0
M  V30 5025 H 486.802 -0.807533 -1.25695 0
M  V30 5026 H 488.684 0.353342 -4.19916 0
M  V30 5027 H 487.359 0.866367 -3.11891 0
M  V30 5028 H 486.266 -1.42592 -3.45859 0
M  V30 5029 H 487.599 -1.85786 -4.5579 0
M  V30 5030 N 489.251 1.34841 -0.815825 0
M  V30 5031 C 490.498 1.98499 -0.400535 0
M  V30 5032 C 490.826 1.64699 1.03463 0
M  V30 5033 O 490.081 0.907006 1.73412 0
M  V30 5034 C 490.38 3.53273 -0.541541 0
M  V30 5035 C 490.046 4.06966 -1.94138 0
M  V30 5036 C 488.708 4.21341 -2.32433 0
M  V30 5037 C 491.06 4.35933 -2.85677 0
M  V30 5038 C 488.388 4.62007 -3.61617 0
M  V30 5039 C 490.74 4.78042 -4.14317 0
M  V30 5040 C 489.404 4.90622 -4.52599 0
M  V30 5041 H 488.674 0.72636 -0.146566 0
M  V30 5042 H 491.321 1.60902 -1.0384 0
M  V30 5043 H 489.626 3.91387 0.179741 0
M  V30 5044 H 491.323 4.00497 -0.20085 0
M  V30 5045 H 487.913 3.96235 -1.63388 0
M  V30 5046 H 492.097 4.24372 -2.57337 0
M  V30 5047 H 487.353 4.69937 -3.91113 0
M  V30 5048 H 491.527 4.99415 -4.85342 0
M  V30 5049 H 489.154 5.2189 -5.52752 0
M  V30 5050 N 490.729 0.570148 1.46925 0
M  V30 5051 C 491.639 -0.173061 2.33961 0
M  V30 5052 C 492.655 -0.898825 1.48987 0
M  V30 5053 O 493.831 -0.864825 1.81887 0
M  V30 5054 C 490.896 -1.18177 3.25937 0
M  V30 5055 C 489.957 -0.462041 4.26806 0
M  V30 5056 C 489.19 -1.4227 5.14388 0
M  V30 5057 O 489.413 -2.65842 5.04662 0
M  V30 5058 O 488.347 -0.940127 5.94513 0
M  V30 5059 H 492.173 0.541216 2.98839 0
M  V30 5060 H 489.758 0.330647 1.45695 0
M  V30 5061 H 491.64 -1.76372 3.82715 0
M  V30 5062 H 490.315 -1.87774 2.63671 0
M  V30 5063 H 489.222 0.161429 3.73752 0
M  V30 5064 H 490.555 0.192719 4.91823 0
M  V30 5065 N 492.207 -1.54576 0.307264 0
M  V30 5066 C 493.154 -2.23751 -0.56604 0
M  V30 5067 C 494.124 -1.22235 -1.12462 0
M  V30 5068 O 495.309 -1.50873 -1.16799 0
M  V30 5069 C 492.449 -2.98661 -1.72903 0
M  V30 5070 C 491.562 -4.14963 -1.20124 0
M  V30 5071 C 490.697 -4.77441 -2.3286 0
M  V30 5072 C 489.736 -5.85875 -1.77247 0
M  V30 5073 N 488.873 -6.42282 -2.8358 0
M  V30 5074 H 493.713 -2.97984 0.0304578 0
M  V30 5075 H 491.25 -1.47076 0.0268015 0
M  V30 5076 H 493.208 -3.40329 -2.41313 0
M  V30 5077 H 491.838 -2.26793 -2.29706 0
M  V30 5078 H 490.89 -3.78193 -0.409198 0
M  V30 5079 H 492.202 -4.93066 -0.754171 0
M  V30 5080 H 491.356 -5.21993 -3.09205 0
M  V30 5081 H 490.095 -3.98684 -2.80896 0
M  V30 5082 H 489.1 -5.40741 -0.993926 0
M  V30 5083 H 490.325 -6.6652 -1.30107 0
M  V30 5084 H 488.271 -5.66406 -3.30939 0
M  V30 5085 H 488.188 -7.1575 -2.43388 0
M  V30 5086 H 489.456 -6.91492 -3.59804 0
M  V30 5087 N 493.685 -0.035106 -1.57561 0
M  V30 5088 C 494.932 0.642229 -1.92046 0
M  V30 5089 C 495.26 1.7179 -0.91206 0
M  V30 5090 O 494.515 1.95544 0.0781153 0
M  V30 5091 C 494.814 1.29149 -3.3325 0
M  V30 5092 C 494.48 0.345604 -4.49574 0
M  V30 5093 C 493.142 0.0852775 -4.81124 0
M  V30 5094 C 495.494 -0.303569 -5.20315 0
M  V30 5095 C 492.822 -0.831927 -5.80772 0
M  V30 5096 C 495.174 -1.20886 -6.20942 0
M  V30 5097 C 493.838 -1.47802 -6.50931 0
M  V30 5098 H 493.108 0.235008 -0.702746 0
M  V30 5099 H 495.755 -0.0981529 -1.91248 0
M  V30 5100 H 494.06 2.10676 -3.30337 0
M  V30 5101 H 495.757 1.82223 -3.57205 0
M  V30 5102 H 492.347 0.558683 -4.24943 0
M  V30 5103 H 496.531 -0.115515 -4.96166 0
M  V30 5104 H 491.787 -1.0481 -6.02349 0
M  V30 5105 H 495.961 -1.71804 -6.74875 0
M  V30 5106 H 493.588 -2.19039 -7.2796 0
M  V30 5107 N 495.163 1.55791 0.238111 0
M  V30 5108 C 496.388 1.8244 0.986432 0
M  V30 5109 C 496.813 0.613314 1.7782 0
M  V30 5110 O 496.171 -0.437767 1.75935 0
M  V30 5111 C 496.219 3.06917 1.893 0
M  V30 5112 O 495.323 2.84449 2.98601 0
M  V30 5113 H 494.664 0.601975 0.280218 0
M  V30 5114 H 497.194 2.02987 0.256437 0
M  V30 5115 H 497.204 3.36583 2.30598 0
M  V30 5116 H 495.879 3.947 1.31091 0
M  V30 5117 H 494.456 2.65972 2.61368 0
M  V30 5118 N 496.642 -0.504142 1.49319 0
M  V30 5119 C 497.575 -1.62361 1.60356 0
M  V30 5120 C 498.553 -1.56169 0.45277 0
M  V30 5121 O 499.737 -1.76271 0.667892 0
M  V30 5122 C 496.864 -3.00864 1.55559 0
M  V30 5123 C 495.91 -3.25328 2.75797 0
M  V30 5124 S 496.743 -3.08791 4.37503 0
M  V30 5125 C 497.899 -4.49695 4.35345 0
M  V30 5126 H 498.132 -1.52753 2.55056 0
M  V30 5127 H 495.665 -0.689065 1.38171 0
M  V30 5128 H 497.623 -3.8073 1.53477 0
M  V30 5129 H 496.284 -3.0789 0.621515 0
M  V30 5130 H 495.477 -4.2643 2.68651 0
M  V30 5131 H 495.079 -2.53179 2.75275 0
M  V30 5132 H 497.371 -5.41721 4.06871 0
M  V30 5133 H 498.314 -4.61891 5.36714 0
M  V30 5134 H 498.722 -4.30227 3.65465 0
M  V30 5135 N 498.12 -1.38341 -0.754957 0
M  V30 5136 C 499.03 -1.3769 -1.89944 0
M  V30 5137 C 500.046 -0.274194 -1.71826 0
M  V30 5138 O 501.222 -0.512391 -1.94773 0
M  V30 5139 C 498.287 -1.19938 -3.25293 0
M  V30 5140 C 497.348 -2.40001 -3.55946 0
M  V30 5141 C 496.581 -2.23087 -4.84838 0
M  V30 5142 O 496.804 -1.22386 -5.57116 0
M  V30 5143 O 495.738 -3.11646 -5.14937 0
M  V30 5144 H 499.564 -2.3412 -1.93446 0
M  V30 5145 H 497.149 -1.19246 -0.900044 0
M  V30 5146 H 499.031 -1.12093 -4.06218 0
M  V30 5147 H 497.706 -0.265919 -3.22606 0
M  V30 5148 H 496.613 -2.53421 -2.75188 0
M  V30 5149 H 497.946 -3.31973 -3.63394 0
M  V30 5150 N 499.598 0.982988 -1.23187 0
M  V30 5151 C 500.844 1.72648 -1.06398 0
M  V30 5152 C 501.177 1.90066 0.398561 0
M  V30 5153 O 500.452 1.45105 1.29518 0
M  V30 5154 C 500.735 3.12627 -1.78707 0
M  V30 5155 C 500.588 3.02795 -3.32618 0
M  V30 5156 C 501.907 4.11997 -1.54747 0
M  V30 5157 H 499.026 0.626649 -0.387918 0
M  V30 5158 H 501.668 1.14455 -1.51658 0
M  V30 5159 H 499.818 3.62308 -1.40234 0
M  V30 5160 H 501.49 2.60659 -3.80598 0
M  V30 5161 H 499.733 2.39362 -3.61785 0
M  V30 5162 H 500.404 4.01893 -3.78399 0
M  V30 5163 H 502.88 3.71114 -1.88186 0
M  V30 5164 H 501.756 5.08037 -2.07821 0
M  V30 5165 H 502.017 4.39462 -0.482249 0
M  V30 5166 N 501.076 1.04316 1.18135 0
M  V30 5167 C 502.023 0.636398 2.21853 0
M  V30 5168 C 502.993 -0.357039 1.62217 0
M  V30 5169 O 504.178 -0.250453 1.89149 0
M  V30 5170 C 501.318 0.00812779 3.45099 0
M  V30 5171 C 500.431 1.04933 4.19062 0
M  V30 5172 C 499.566 0.389313 5.29771 0
M  V30 5173 C 498.605 1.41544 5.9551 0
M  V30 5174 N 497.742 0.78021 6.97751 0
M  V30 5175 H 502.582 1.52536 2.56002 0
M  V30 5176 H 500.119 0.76304 1.25762 0
M  V30 5177 H 502.077 -0.373497 4.15525 0
M  V30 5178 H 500.707 -0.844336 3.11562 0
M  V30 5179 H 499.759 1.54888 3.47439 0
M  V30 5180 H 501.071 1.82862 4.64072 0
M  V30 5181 H 500.225 -0.0463805 6.06682 0
M  V30 5182 H 498.964 -0.422038 4.8587 0
M  V30 5183 H 497.969 1.86124 5.17337 0
M  V30 5184 H 499.194 2.22854 6.41493 0
M  V30 5185 H 497.14 -0.0107899 6.55999 0
M  V30 5186 H 497.057 1.49716 7.41027 0
M  V30 5187 H 498.325 0.368996 7.78626 0
M  V30 5188 N 502.554 -1.34406 0.822964 0
M  V30 5189 C 503.779 -2.0304 0.423034 0
M  V30 5190 C 504.204 -1.61568 -0.963196 0
M  V30 5191 O 503.562 -0.800339 -1.62678 0
M  V30 5192 C 503.61 -3.56636 0.53321 0
M  V30 5193 O 502.714 -4.09971 -0.446939 0
M  V30 5194 H 502.055 -0.64075 0.174171 0
M  V30 5195 H 504.585 -1.71653 1.11339 0
M  V30 5196 H 504.595 -4.05945 0.408991 0
M  V30 5197 H 503.27 -3.86168 1.54425 0
M  V30 5198 H 501.847 -3.71835 -0.281601 0
M  V30 5199 N 504.032 -0.577932 -1.46621 0
M  V30 5200 C 505.257 -0.0652536 -2.07297 0
M  V30 5201 C 505.682 1.22828 -1.4246 0
M  V30 5202 O 505.04 1.74075 -0.506718 0
M  V30 5203 C 505.088 0.0920589 -3.60482 0
M  V30 5204 O 504.192 1.14972 -3.96049 0
M  V30 5205 H 503.533 -0.06065 -0.661224 0
M  V30 5206 H 506.063 -0.799515 -1.88332 0
M  V30 5207 H 506.073 0.299741 -4.06897 0
M  V30 5208 H 504.748 -0.852612 -4.07067 0
M  V30 5209 H 503.325 0.920879 -3.61351 0
M  V30 5210 N 505.51 1.54411 -0.315457 0
M  V30 5211 C 506.756 2.00716 0.289972 0
M  V30 5212 C 507.089 1.2034 1.5242 0
M  V30 5213 O 506.364 0.283579 1.92422 0
M  V30 5214 C 506.647 3.54507 0.632196 0
M  V30 5215 C 506.5 4.45615 -0.61218 0
M  V30 5216 C 507.819 4.15421 1.45305 0
M  V30 5217 H 504.938 0.729637 0.10392 0
M  V30 5218 H 507.58 1.8506 -0.430427 0
M  V30 5219 H 505.73 3.67979 1.24595 0
M  V30 5220 H 507.402 4.44026 -1.25053 0
M  V30 5221 H 505.645 4.15621 -1.24264 0
M  V30 5222 H 506.316 5.51022 -0.328379 0
M  V30 5223 H 508.792 4.05474 0.934331 0
M  V30 5224 H 507.668 5.23157 1.66127 0
M  V30 5225 H 507.929 3.68223 2.44671 0
M  V30 5226 N 506.988 0.0434614 1.5754 0
M  V30 5227 C 507.898 -0.94893 2.14552 0
M  V30 5228 C 508.914 -1.34707 1.10136 0
M  V30 5229 O 510.09 -1.42557 1.42266 0
M  V30 5230 C 507.155 -2.208 2.67298 0
M  V30 5231 C 506.216 -1.86893 3.86484 0
M  V30 5232 C 505.449 -3.06797 4.36705 0
M  V30 5233 O 505.672 -4.19921 3.86034 0
M  V30 5234 O 504.606 -2.8826 5.28384 0
M  V30 5235 H 508.432 -0.494099 2.99654 0
M  V30 5236 H 506.017 -0.177989 1.48336 0
M  V30 5237 H 507.899 -2.94686 3.01228 0
M  V30 5238 H 506.574 -2.65436 1.85272 0
M  V30 5239 H 505.481 -1.10347 3.57455 0
M  V30 5240 H 506.814 -1.47062 4.69716 0
M  V30 5241 N 508.466 -1.55915 -0.229846 0
M  V30 5242 C 509.413 -1.91734 -1.28478 0
M  V30 5243 C 510.383 -0.773539 -1.46988 0
M  V30 5244 O 511.568 -1.02871 -1.60693 0
M  V30 5245 C 508.708 -2.23224 -2.63182 0
M  V30 5246 C 507.821 -3.50497 -2.52539 0
M  V30 5247 C 506.956 -3.71474 -3.79711 0
M  V30 5248 C 505.995 -4.92289 -3.63755 0
M  V30 5249 N 505.132 -5.09698 -4.82858 0
M  V30 5250 H 509.972 -2.81692 -0.972308 0
M  V30 5251 H 507.509 -1.39429 -0.468815 0
M  V30 5252 H 509.467 -2.3949 -3.41614 0
M  V30 5253 H 508.097 -1.36451 -2.92542 0
M  V30 5254 H 507.149 -3.4247 -1.65585 0
M  V30 5255 H 508.461 -4.39079 -2.36666 0
M  V30 5256 H 507.615 -3.87791 -4.66586 0
M  V30 5257 H 506.354 -2.81157 -3.985 0
M  V30 5258 H 505.359 -4.7593 -2.75264 0
M  V30 5259 H 506.584 -5.84083 -3.46445 0
M  V30 5260 H 504.53 -4.22322 -5.01976 0
M  V30 5261 H 504.447 -5.92399 -4.69681 0
M  V30 5262 H 505.715 -5.30443 -5.71183 0
M  V30 5263 N 509.944 0.496216 -1.49584 0
M  V30 5264 C 510.876 1.61404 -1.62731 0
M  V30 5265 C 511.889 1.54613 -0.50978 0
M  V30 5266 O 513.078 1.60458 -0.782017 0
M  V30 5267 C 510.178 3.00212 -1.57245 0
M  V30 5268 C 509.351 3.32138 -2.84611 0
M  V30 5269 C 508.41 4.5038 -2.72112 0
M  V30 5270 O 507.436 4.51926 -3.46051 0
M  V30 5271 N 508.638 5.50575 -1.83977 0
M  V30 5272 H 511.403 1.50552 -2.59141 0
M  V30 5273 H 508.964 0.684182 -1.46733 0
M  V30 5274 H 510.956 3.77241 -1.4653 0
M  V30 5275 H 509.526 3.04964 -0.686729 0
M  V30 5276 H 508.746 2.4396 -3.09641 0
M  V30 5277 H 510.034 3.50268 -3.69039 0
M  V30 5278 H 509.432 5.52128 -1.23171 0
M  V30 5279 H 507.989 6.26687 -1.79182 0
M  V30 5280 N 511.423 1.38739 0.74761 0
M  V30 5281 C 512.671 1.35007 1.50391 0
M  V30 5282 C 512.992 -0.0574274 1.94915 0
M  V30 5283 O 512.262 -1.00628 1.6808 0
M  V30 5284 H 510.842 0.496784 0.557866 0
M  V30 5285 H 513.504 1.73479 0.888319 0
M  V30 5286 H 512.6 2.00474 2.392 0
M  V30 5287 N 512.901 -0.976442 1.23707 0
M  V30 5288 C 513.831 -2.08749 1.04624 0
M  V30 5289 C 514.812 -1.70057 -0.0380956 0
M  V30 5290 O 515.997 -1.93782 0.127308 0
M  V30 5291 C 513.127 -3.41335 0.640902 0
M  V30 5292 C 512.081 -3.93947 1.67302 0
M  V30 5293 C 511.407 -5.22774 1.12301 0
M  V30 5294 C 512.707 -4.22769 3.06697 0
M  V30 5295 H 514.401 -2.24972 1.97555 0
M  V30 5296 H 511.947 -1.08108 0.951247 0
M  V30 5297 H 513.9 -4.18489 0.494434 0
M  V30 5298 H 512.624 -3.24988 -0.324099 0
M  V30 5299 H 511.283 -3.18941 1.80755 0
M  V30 5300 H 510.931 -5.0278 0.148877 0
M  V30 5301 H 510.631 -5.58942 1.81267 0
M  V30 5302 H 512.155 -6.02546 0.988479 0
M  V30 5303 H 513.569 -4.90659 2.96524 0
M  V30 5304 H 511.966 -4.70147 3.72937 0
M  V30 5305 H 513.036 -3.29885 3.55392 0
M  V30 5306 N 514.379 -1.04941 -1.1758 0
M  V30 5307 C 515.327 -0.64204 -2.23563 0
M  V30 5308 C 516.321 0.335453 -1.66045 0
M  V30 5309 O 517.527 0.20179 -1.78865 0
M  V30 5310 H 513.902 -0.18944 -0.727748 0
M  V30 5311 H 515.873 -1.54609 -2.55223 0
M  V30 5312 C 514.622 -0.0301051 -3.47687 0
M  V30 5313 H 513.945 -0.773339 -3.92249 0
M  V30 5314 H 515.385 0.217592 -4.23441 0
M  V30 5315 C 513.844 1.2225 -3.13937 0
M  V30 5316 O 514.374 2.3122 -3.28482 0
M  V30 5317 N 512.58 1.11917 -2.68185 0
M  V30 5318 H 512.127 0.232403 -2.5655 0
M  V30 5319 H 512.085 1.95814 -2.45976 0
M  V30 5320 N 515.857 1.33968 -0.830081 0
M  V30 5321 C 516.79 2.27303 -0.202182 0
M  V30 5322 C 517.768 1.49235 0.645581 0
M  V30 5323 O 518.952 1.78433 0.607762 0
M  V30 5324 C 516.079 3.31025 0.716932 0
M  V30 5325 C 515.125 4.26466 -0.0542271 0
M  V30 5326 S 515.958 5.16707 -1.40622 0
M  V30 5327 C 517.114 6.23962 -0.492167 0
M  V30 5328 H 517.347 2.8021 -0.99346 0
M  V30 5329 H 514.88 1.41124 -0.626359 0
M  V30 5330 H 516.838 3.91271 1.24165 0
M  V30 5331 H 515.499 2.76951 1.4818 0
M  V30 5332 H 514.692 4.99858 0.644785 0
M  V30 5333 H 514.294 3.7051 -0.509722 0
M  V30 5334 H 516.586 6.76774 0.31347 0
M  V30 5335 H 517.529 6.97927 -1.19599 0
M  V30 5336 H 517.937 5.64447 -0.0774176 0
M  V30 5337 N 517.335 0.585699 1.46312 0
M  V30 5338 C 518.245 -0.148236 2.34131 0
M  V30 5339 C 519.261 -0.882972 1.49932 0
M  V30 5340 O 520.437 -0.845484 1.82794 0
M  V30 5341 C 517.502 -1.14714 3.27172 0
M  V30 5342 C 516.563 -0.416746 4.27272 0
M  V30 5343 C 515.796 -1.36806 5.15868 0
M  V30 5344 O 516.019 -2.60475 5.07454 0
M  V30 5345 O 514.953 -0.877018 5.95476 0
M  V30 5346 H 518.779 0.572882 2.98248 0
M  V30 5347 H 516.364 0.346082 1.45336 0
M  V30 5348 H 518.246 -1.72303 3.84564 0
M  V30 5349 H 516.921 -1.84967 2.65648 0
M  V30 5350 H 515.828 0.201061 3.73559 0
M  V30 5351 H 517.161 0.244872 4.9159 0
M  V30 5352 N 518.813 -1.54241 0.323641 0
M  V30 5353 C 520.09 -1.92741 -0.333181 0
M  V30 5354 C 520.47 -1.25326 -1.69872 0
M  V30 5355 O 519.818 -0.396991 -2.25025 0
M  V30 5356 C 520.028 -3.46399 -0.425322 0
M  V30 5357 C 521.376 -4.19029 -0.68557 0
M  V30 5358 O 522.4 -3.52555 -0.50824 0
M  V30 5359 O 521.259 -5.36751 -1.02767 0
M  V30 5360 H 518.353 -0.804811 -0.190286 0
M  V30 5361 H 520.899 -1.65542 0.373361 0
M  V30 5362 H 519.671 -3.87643 0.533737 0
M  V30 5363 H 519.294 -3.79704 -1.17944 0
M  V30 5364 N 520.291 -0.0518155 -1.57515 0
M  V30 5365 C 521.521 0.63048 -1.96745 0
M  V30 5366 C 521.929 1.64875 -0.928054 0
M  V30 5367 O 521.272 1.83449 0.0960678 0
M  V30 5368 C 521.334 1.37381 -3.32215 0
M  V30 5369 C 520.998 0.511298 -4.54131 0
M  V30 5370 C 521.995 -0.222884 -5.19422 0
M  V30 5371 C 519.68 0.442035 -5.00351 0
M  V30 5372 C 521.674 -1.01476 -6.2927 0
M  V30 5373 C 519.361 -0.35353 -6.10077 0
M  V30 5374 C 520.359 -1.08062 -6.74397 0
M  V30 5375 O 520.047 -1.8631 -7.82013 0
M  V30 5376 H 519.779 0.177126 -0.652382 0
M  V30 5377 H 522.333 -0.114726 -2.05079 0
M  V30 5378 H 520.563 2.16466 -3.20436 0
M  V30 5379 H 522.252 1.9464 -3.56188 0
M  V30 5380 H 523.018 -0.178846 -4.8467 0
M  V30 5381 H 518.897 0.997562 -4.50077 0
M  V30 5382 H 522.441 -1.58279 -6.79407 0
M  V30 5383 H 518.338 -0.399205 -6.44264 0
M  V30 5384 H 519.106 -1.78528 -7.98793 0
M  V30 5385 N 521.769 1.56035 0.221574 0
M  V30 5386 C 523.015 1.79312 0.947372 0
M  V30 5387 C 523.348 0.621453 1.83988 0
M  V30 5388 O 522.623 -0.379287 1.90766 0
M  V30 5389 C 522.906 3.1267 1.78633 0
M  V30 5390 C 522.759 4.40284 0.920312 0
M  V30 5391 C 524.078 3.4247 2.7641 0
M  V30 5392 H 521.197 0.652328 0.342982 0
M  V30 5393 H 523.839 1.88765 0.216244 0
M  V30 5394 H 521.989 3.04741 2.40967 0
M  V30 5395 H 523.661 4.60232 0.313718 0
M  V30 5396 H 521.904 4.33212 0.225734 0
M  V30 5397 H 522.575 5.30033 1.54171 0
M  V30 5398 H 525.051 3.50526 2.24211 0
M  V30 5399 H 523.927 4.3695 3.32213 0
M  V30 5400 H 524.188 2.64635 3.54148 0
M  V30 5401 N 523.247 -0.488276 1.49845 0
M  V30 5402 C 524.195 -1.60917 1.67954 0
M  V30 5403 C 525.189 -1.6038 0.54539 0
M  V30 5404 O 526.395 -1.64736 0.7254 0
M  V30 5405 H 522.77 -0.533658 0.529824 0
M  V30 5406 H 524.741 -1.428 2.62013 0
M  V30 5407 C 523.49 -2.98975 1.77509 0
M  V30 5408 H 522.813 -3.00099 2.6416 0
M  V30 5409 H 524.253 -3.76906 1.9421 0
M  V30 5410 C 522.712 -3.3282 0.522745 0
M  V30 5411 O 523.242 -4.00208 -0.345866 0
M  V30 5412 N 521.448 -2.8808 0.381882 0
M  V30 5413 H 520.995 -2.33415 1.08974 0
M  V30 5414 H 520.953 -3.11091 -0.454929 0
M  V30 5415 N 524.725 -1.39134 -0.740242 0
M  V30 5416 C 525.658 -1.3182 -1.86276 0
M  V30 5417 C 526.636 -0.192794 -1.61453 0
M  V30 5418 O 527.82 -0.372365 -1.84786 0
M  V30 5419 C 524.947 -1.04564 -3.22155 0
M  V30 5420 C 523.993 -2.19224 -3.65846 0
M  V30 5421 S 524.826 -3.81466 -3.75824 0
M  V30 5422 C 525.982 -3.56425 -5.14502 0
M  V30 5423 H 526.215 -2.26822 -1.92195 0
M  V30 5424 H 523.748 -1.25127 -0.904576 0
M  V30 5425 H 525.706 -0.895228 -4.00619 0
M  V30 5426 H 524.367 -0.112578 -3.13898 0
M  V30 5427 H 523.56 -1.95732 -4.6444 0
M  V30 5428 H 523.162 -2.30441 -2.94572 0
M  V30 5429 H 525.454 -3.13366 -6.00673 0
M  V30 5430 H 526.397 -4.54462 -5.43019 0
M  V30 5431 H 526.805 -2.90641 -4.8393 0
M  V30 5432 N 526.204 0.969867 -1.24223 0
M  V30 5433 C 527.451 1.71256 -1.08063 0
M  V30 5434 C 527.779 1.90734 0.380872 0
M  V30 5435 O 527.034 1.46469 1.29789 0
M  V30 5436 C 527.333 3.10883 -1.76314 0
M  V30 5437 C 526.999 3.11252 -3.26241 0
M  V30 5438 C 525.661 3.1106 -3.67144 0
M  V30 5439 C 528.013 3.05751 -4.22097 0
M  V30 5440 C 525.341 3.03097 -5.02344 0
M  V30 5441 C 527.693 2.9933 -5.57301 0
M  V30 5442 C 526.357 2.97466 -5.97554 0
M  V30 5443 H 525.627 0.62667 -0.395431 0
M  V30 5444 H 528.274 1.13422 -1.54297 0
M  V30 5445 H 526.579 3.72168 -1.22468 0
M  V30 5446 H 528.276 3.67138 -1.61277 0
M  V30 5447 H 524.866 3.12165 -2.93685 0
M  V30 5448 H 529.05 3.05031 -3.91497 0
M  V30 5449 H 524.306 3.00013 -5.32731 0
M  V30 5450 H 528.48 2.94033 -6.31283 0
M  V30 5451 H 526.107 2.91051 -7.02277 0
M  V30 5452 N 527.682 1.05563 1.17022 0
M  V30 5453 C 528.928 0.769074 1.87652 0
M  V30 5454 C 529.261 -0.702326 1.81055 0
M  V30 5455 O 528.536 -1.5139 1.22112 0
M  V30 5456 C 528.819 1.25492 3.37526 0
M  V30 5457 C 528.672 2.78953 3.52853 0
M  V30 5458 C 529.991 0.856919 4.31677 0
M  V30 5459 H 527.11 0.280854 0.681388 0
M  V30 5460 H 529.752 1.31027 1.37593 0
M  V30 5461 H 527.902 0.794516 3.80289 0
M  V30 5462 H 529.574 3.33146 3.19079 0
M  V30 5463 H 527.817 3.18046 2.95007 0
M  V30 5464 H 528.488 3.08011 4.58076 0
M  V30 5465 H 530.964 1.25334 3.96775 0
M  V30 5466 H 529.84 1.22443 5.35069 0
M  V30 5467 H 530.101 -0.238787 4.41455 0
M  V30 5468 N 529.16 -1.33526 0.837174 0
M  V30 5469 C 530.07 -2.33023 0.271568 0
M  V30 5470 C 531.086 -1.63272 -0.601514 0
M  V30 5471 O 532.262 -1.94939 -0.506038 0
M  V30 5472 C 529.327 -3.42382 -0.545448 0
M  V30 5473 C 528.388 -4.27857 0.351709 0
M  V30 5474 C 527.621 -5.31994 -0.426409 0
M  V30 5475 O 527.844 -5.45763 -1.65828 0
M  V30 5476 O 526.778 -6.01572 0.1987 0
M  V30 5477 H 530.604 -2.83256 1.09545 0
M  V30 5478 H 528.189 -1.36837 0.599655 0
M  V30 5479 H 530.071 -4.09122 -1.00979 0
M  V30 5480 H 528.746 -2.94369 -1.34641 0
M  V30 5481 H 527.653 -3.6399 0.863853 0
M  V30 5482 H 528.986 -4.79349 1.1174 0
M  V30 5483 N 530.638 -0.59345 -1.46 0
M  V30 5484 C 531.886 -0.082988 -2.0193 0
M  V30 5485 C 532.207 1.28569 -1.46612 0
M  V30 5486 O 531.477 1.84629 -0.654909 0
M  V30 5487 H 530.057 -0.0276882 -0.746487 0
M  V30 5488 H 532.719 -0.771657 -1.78973 0
M  V30 5489 H 531.815 -0.022079 -3.12092 0
M  V30 5490 N 532.116 1.54067 -0.331816 0
M  V30 5491 C 533.363 2.00715 0.268269 0
M  V30 5492 C 533.691 1.21986 1.51491 0
M  V30 5493 O 532.946 0.292309 1.93505 0
M  V30 5494 C 533.245 3.51634 0.639392 0
M  V30 5495 C 532.911 4.48018 -0.509019 0
M  V30 5496 C 531.573 4.74089 -0.824209 0
M  V30 5497 C 533.925 5.05237 -1.28003 0
M  V30 5498 C 531.253 5.54637 -1.91298 0
M  V30 5499 C 533.605 5.86972 -2.35895 0
M  V30 5500 C 532.269 6.11342 -2.67987 0
M  V30 5501 H 531.539 0.734469 0.0981667 0
M  V30 5502 H 534.186 1.8596 -0.457304 0
M  V30 5503 H 532.491 3.6416 1.44551 0
M  V30 5504 H 534.188 3.85175 1.11539 0
M  V30 5505 H 530.778 4.27851 -0.253287 0
M  V30 5506 H 534.962 4.8507 -1.04978 0
M  V30 5507 H 530.218 5.71747 -2.16599 0
M  V30 5508 H 534.392 6.30327 -2.96076 0
M  V30 5509 H 532.019 6.73544 -3.5248 0
M  V30 5510 N 533.594 0.0601682 1.57485 0
M  V30 5511 C 534.544 -0.920969 2.08572 0
M  V30 5512 C 535.528 -1.26617 0.992827 0
M  V30 5513 O 536.72 -1.24708 1.25606 0
M  V30 5514 C 533.849 -2.19267 2.64153 0
M  V30 5515 C 532.935 -1.87447 3.80427 0
M  V30 5516 N 533.326 -1.26025 4.89848 0
M  V30 5517 C 531.624 -2.17265 3.89502 0
M  V30 5518 C 532.325 -1.12036 5.70809 0
M  V30 5519 N 531.301 -1.62624 5.18705 0
M  V30 5520 H 535.103 -0.441561 2.90564 0
M  V30 5521 H 532.617 -0.144043 1.6176 0
M  V30 5522 H 534.614 -2.90462 2.99061 0
M  V30 5523 H 533.274 -2.67806 1.83603 0
M  V30 5524 H 534.285 -0.931336 5.09457 0
M  V30 5525 H 530.962 -2.68262 3.19909 0
M  V30 5526 H 532.352 -0.642783 6.68818 0
M  V30 5527 N 535.072 -1.5615 -0.213296 0
M  V30 5528 C 536.349 -1.70349 -0.961281 0
M  V30 5529 C 536.729 -0.609791 -2.02101 0
M  V30 5530 O 536.077 0.381987 -2.25285 0
M  V30 5531 C 536.287 -3.11982 -1.56424 0
M  V30 5532 C 537.635 -3.71649 -2.05334 0
M  V30 5533 O 538.659 -3.14995 -1.66302 0
M  V30 5534 O 537.518 -4.71038 -2.77102 0
M  V30 5535 H 534.612 -0.694121 -0.449582 0
M  V30 5536 H 537.158 -1.68464 -0.204426 0
M  V30 5537 H 535.93 -3.83046 -0.799457 0
M  V30 5538 H 535.553 -3.18019 -2.38641 0
M  V30 5539 N 536.55 0.480323 -1.50102 0
M  V30 5540 C 537.513 1.56181 -1.6775 0
M  V30 5541 C 538.513 1.51156 -0.548503 0
M  V30 5542 O 539.703 1.5394 -0.815363 0
M  V30 5543 C 536.835 2.95823 -1.69415 0
M  V30 5544 H 538.028 1.41855 -2.6423 0
M  V30 5545 H 535.581 0.70605 -1.39444 0
M  V30 5546 H 536.316 3.15604 -0.745948 0
M  V30 5547 H 536.101 3.00878 -2.51425 0
M  V30 5548 H 537.591 3.74359 -1.85054 0
M  V30 5549 N 538.028 1.39524 0.732853 0
M  V30 5550 C 539.277 1.36175 1.48792 0
M  V30 5551 C 539.59 -0.0388195 1.95561 0
M  V30 5552 O 540.796 -0.194899 2.708 0
M  V30 5553 C 539.252 2.39242 2.68871 0
M  V30 5554 C 538.86 3.85024 2.29042 0
M  V30 5555 C 540.604 2.44972 3.46683 0
M  V30 5556 C 538.511 4.79727 3.45856 0
M  V30 5557 H 537.441 0.506267 0.558757 0
M  V30 5558 H 540.092 1.65181 0.799226 0
M  V30 5559 H 538.474 2.0331 3.39825 0
M  V30 5560 H 539.648 4.30008 1.6562 0
M  V30 5561 H 537.963 3.82609 1.64316 0
M  V30 5562 H 540.56 3.12918 4.33574 0
M  V30 5563 H 540.903 1.4749 3.89297 0
M  V30 5564 H 541.436 2.79808 2.82759 0
M  V30 5565 H 538.175 5.78479 3.08289 0
M  V30 5566 H 537.695 4.39421 4.08251 0
M  V30 5567 H 539.374 4.98731 4.12161 0
M  V30 5568 N 539.506 -0.963266 1.24736 0
M  V30 5569 C 540.436 -2.07628 1.06832 0
M  V30 5570 C 541.417 -1.70088 -0.0200566 0
M  V30 5571 O 542.602 -1.93636 0.147854 0
M  V30 5572 C 539.732 -3.40636 0.677069 0
M  V30 5573 C 538.686 -3.9215 1.71471 0
M  V30 5574 C 538.012 -5.21553 1.1784 0
M  V30 5575 C 539.312 -4.19493 3.11164 0
M  V30 5576 H 541.006 -2.22864 1.9993 0
M  V30 5577 H 538.552 -1.07093 0.96266 0
M  V30 5578 H 540.505 -4.17941 0.538792 0
M  V30 5579 H 539.229 -3.25313 -0.289612 0
M  V30 5580 H 537.888 -3.17005 1.84128 0
M  V30 5581 H 537.536 -5.02593 0.202195 0
M  V30 5582 H 537.236 -5.56988 1.87185 0
M  V30 5583 H 538.76 -6.01463 1.05233 0
M  V30 5584 H 540.174 -4.87487 3.01711 0
M  V30 5585 H 538.571 -4.66165 3.77902 0
M  V30 5586 H 539.641 -3.26097 3.58871 0
M  V30 5587 N 540.985 -1.06182 -1.16461 0
M  V30 5588 C 541.915 -0.692861 -2.22984 0
M  V30 5589 C 542.896 0.314122 -1.67174 0
M  V30 5590 O 544.081 0.189499 -1.93273 0
M  V30 5591 C 541.211 -0.07732 -3.47214 0
M  V30 5592 C 540.165 -1.01015 -4.15909 0
M  V30 5593 C 539.491 -0.257973 -5.34077 0
M  V30 5594 C 540.791 -2.33868 -4.67015 0
M  V30 5595 H 542.485 -1.58343 -2.54102 0
M  V30 5596 H 540.031 -0.76279 -1.22137 0
M  V30 5597 H 541.984 0.19266 -4.20959 0
M  V30 5598 H 540.708 0.848254 -3.15392 0
M  V30 5599 H 539.367 -1.26486 -3.44088 0
M  V30 5600 H 539.015 0.670684 -4.98509 0
M  V30 5601 H 538.715 -0.879638 -5.80979 0
M  V30 5602 H 540.239 0.00448788 -6.106 0
M  V30 5603 H 541.653 -2.1279 -5.32347 0
M  V30 5604 H 540.05 -2.91522 -5.24533 0
M  V30 5605 H 541.12 -2.97019 -3.83286 0
M  V30 5606 N 542.463 1.3308 -0.844243 0
M  V30 5607 C 543.693 2.01515 -0.455541 0
M  V30 5608 C 544.101 1.63655 0.949406 0
M  V30 5609 O 543.444 0.84848 1.62931 0
M  V30 5610 C 543.506 3.55967 -0.502801 0
M  V30 5611 C 543.17 4.17222 -1.86481 0
M  V30 5612 C 544.167 4.36205 -2.8288 0
M  V30 5613 C 541.852 4.53528 -2.15911 0
M  V30 5614 C 543.846 4.90649 -4.06869 0
M  V30 5615 C 541.533 5.07679 -3.40155 0
M  V30 5616 C 542.531 5.26186 -4.35451 0
M  V30 5617 O 542.219 5.79183 -5.57496 0
M  V30 5618 H 541.951 0.65199 -0.178565 0
M  V30 5619 H 544.505 1.70867 -1.1399 0
M  V30 5620 H 542.735 3.85965 0.23836 0
M  V30 5621 H 544.424 4.05688 -0.131169 0
M  V30 5622 H 545.19 4.085 -2.61444 0
M  V30 5623 H 541.069 4.38414 -1.42528 0
M  V30 5624 H 544.613 5.0501 -4.81259 0
M  V30 5625 H 540.51 5.34815 -3.61446 0
M  V30 5626 H 541.278 5.97591 -5.5931 0
M  V30 5627 N 543.941 0.601185 1.45683 0
M  V30 5628 C 545.187 0.0940202 2.02582 0
M  V30 5629 C 545.52 -1.26972 1.46941 0
M  V30 5630 O 544.795 -1.83613 0.641612 0
M  V30 5631 C 545.078 0.0481715 3.60068 0
M  V30 5632 C 544.931 1.44212 4.26055 0
M  V30 5633 C 546.25 -0.642975 4.35378 0
M  V30 5634 H 543.369 0.0356404 0.736138 0
M  V30 5635 H 546.011 0.771929 1.73612 0
M  V30 5636 H 544.161 -0.529128 3.8488 0
M  V30 5637 H 545.833 2.06601 4.12449 0
M  V30 5638 H 544.076 2.00465 3.84703 0
M  V30 5639 H 544.747 1.36234 5.34925 0
M  V30 5640 H 547.223 -0.152351 4.15821 0
M  V30 5641 H 546.099 -0.644141 5.45107 0
M  V30 5642 H 546.36 -1.70785 4.0778 0
M  V30 5643 N 545.419 -1.53889 0.339982 0
M  V30 5644 C 546.349 -2.27843 -0.510856 0
M  V30 5645 C 547.33 -1.29267 -1.10563 0
M  V30 5646 O 548.515 -1.58104 -1.12768 0
M  V30 5647 C 545.645 -3.04857 -1.66372 0
M  V30 5648 C 544.599 -4.10907 -1.19746 0
M  V30 5649 C 543.925 -4.75855 -2.43857 0
M  V30 5650 C 545.225 -5.21435 -0.300501 0
M  V30 5651 H 546.919 -2.99212 0.106067 0
M  V30 5652 H 544.465 -1.43904 0.0524533 0
M  V30 5653 H 546.418 -3.5533 -2.26537 0
M  V30 5654 H 545.142 -2.31133 -2.30749 0
M  V30 5655 H 543.801 -3.61342 -0.618654 0
M  V30 5656 H 543.449 -3.9873 -3.06633 0
M  V30 5657 H 543.149 -5.47502 -2.13343 0
M  V30 5658 H 544.673 -5.2911 -3.04754 0
M  V30 5659 H 546.087 -5.67565 -0.80889 0
M  V30 5660 H 544.484 -6.00036 -0.0874076 0
M  V30 5661 H 545.554 -4.80328 0.664321 0
M  V30 5662 N 546.897 -0.0685191 -1.57451 0
M  V30 5663 C 547.86 0.885173 -2.11417 0
M  V30 5664 C 548.86 1.22853 -1.03748 0
M  V30 5665 O 550.05 1.16235 -1.2975 0
M  V30 5666 C 547.182 2.18964 -2.61281 0
M  V30 5667 H 548.375 0.417034 -2.96986 0
M  V30 5668 H 545.928 0.18014 -1.55258 0
M  V30 5669 H 546.663 2.70321 -1.79156 0
M  V30 5670 H 546.448 1.9534 -3.39977 0
M  V30 5671 H 547.938 2.87242 -3.0312 0
M  V30 5672 N 548.375 1.56261 0.205012 0
M  V30 5673 C 549.305 1.96779 1.257 0
M  V30 5674 C 550.286 0.838309 1.48008 0
M  V30 5675 O 551.471 1.10189 1.59913 0
M  V30 5676 C 548.601 2.29876 2.60335 0
M  V30 5677 C 547.555 3.45469 2.52656 0
M  V30 5678 C 546.881 3.64215 3.91473 0
M  V30 5679 C 548.181 4.79954 2.06014 0
M  V30 5680 H 549.875 2.84904 0.920338 0
M  V30 5681 H 547.421 1.37072 0.441277 0
M  V30 5682 H 549.374 2.56814 3.34102 0
M  V30 5683 H 548.098 1.38622 2.95722 0
M  V30 5684 H 546.757 3.18605 1.81345 0
M  V30 5685 H 546.405 2.70309 4.24196 0
M  V30 5686 H 546.105 4.41973 3.87213 0
M  V30 5687 H 547.629 3.93519 4.66878 0
M  V30 5688 H 549.043 5.05989 2.69533 0
M  V30 5689 H 547.44 5.61111 2.12777 0
M  V30 5690 H 548.51 4.74201 1.01297 0
M  V30 5691 N 549.853 -0.472356 1.50355 0
M  V30 5692 C 550.803 -1.56809 1.65514 0
M  V30 5693 C 551.787 -1.5261 0.509801 0
M  V30 5694 O 552.979 -1.59655 0.764145 0
M  V30 5695 C 550.108 -2.9526 1.75146 0
M  V30 5696 C 549.194 -3.04348 2.95353 0
M  V30 5697 N 549.585 -2.83253 4.19048 0
M  V30 5698 C 547.883 -3.35482 2.93884 0
M  V30 5699 C 548.584 -2.97273 5.00003 0
M  V30 5700 N 547.56 -3.27418 4.33934 0
M  V30 5701 H 551.362 -1.39197 2.58846 0
M  V30 5702 H 548.876 -0.67906 1.47521 0
M  V30 5703 H 550.873 -3.74044 1.8411 0
M  V30 5704 H 549.533 -3.1392 0.829717 0
M  V30 5705 H 550.544 -2.5886 4.48567 0
M  V30 5706 H 547.221 -3.60138 2.11204 0
M  V30 5707 H 548.611 -2.85214 6.08361 0
M  V30 5708 N 551.331 -1.39911 -0.725443 0
M  V30 5709 C 552.241 -1.41688 -1.8698 0
M  V30 5710 C 553.257 -0.310579 -1.71206 0
M  V30 5711 O 554.433 -0.55359 -1.93642 0
M  V30 5712 C 551.498 -1.26811 -3.22676 0
M  V30 5713 C 550.559 -2.47497 -3.50776 0
M  V30 5714 C 549.792 -2.3332 -4.79997 0
M  V30 5715 O 550.015 -1.34175 -5.54394 0
M  V30 5716 O 548.949 -3.22498 -5.08211 0
M  V30 5717 H 552.775 -2.38171 -1.88436 0
M  V30 5718 H 550.36 -1.21128 -0.874548 0
M  V30 5719 H 552.242 -1.20684 -4.03749 0
M  V30 5720 H 550.917 -0.334289 -3.21969 0
M  V30 5721 H 549.824 -2.59201 -2.69751 0
M  V30 5722 H 551.157 -3.39606 -3.5627 0
M  V30 5723 N 552.809 0.956637 -1.25245 0
M  V30 5724 C 554.055 1.70352 -1.10036 0
M  V30 5725 C 554.388 1.90869 0.358156 0
M  V30 5726 O 553.663 1.47819 1.26411 0
M  V30 5727 C 553.946 3.08766 -1.85298 0
M  V30 5728 C 553.799 2.95672 -3.38966 0
M  V30 5729 C 555.118 4.08622 -1.63451 0
M  V30 5730 H 552.237 0.618279 -0.401123 0
M  V30 5731 H 554.879 1.11212 -1.54051 0
M  V30 5732 H 553.029 3.59252 -1.47887 0
M  V30 5733 H 554.701 2.52527 -3.86041 0
M  V30 5734 H 552.944 2.31634 -3.6678 0
M  V30 5735 H 553.615 3.93776 -3.86839 0
M  V30 5736 H 556.091 3.67038 -1.96015 0
M  V30 5737 H 554.967 5.03514 -2.18551 0
M  V30 5738 H 555.228 4.3834 -0.575357 0
M  V30 5739 N 554.287 1.06798 1.15896 0
M  V30 5740 C 555.217 0.704677 2.22613 0
M  V30 5741 C 556.198 -0.305252 1.67339 0
M  V30 5742 O 557.383 -0.179247 1.93371 0
M  V30 5743 C 554.513 0.0957325 3.47168 0
M  V30 5744 C 553.467 1.0322 4.15367 0
M  V30 5745 C 552.793 0.286293 5.33933 0
M  V30 5746 C 554.093 2.36341 4.65768 0
M  V30 5747 H 555.787 1.59688 2.53259 0
M  V30 5748 H 553.333 0.769257 1.21731 0
M  V30 5749 H 555.286 -0.170333 4.21056 0
M  V30 5750 H 554.01 -0.831516 3.15838 0
M  V30 5751 H 552.669 1.28309 3.43413 0
M  V30 5752 H 552.317 -0.644237 4.98857 0
M  V30 5753 H 552.017 0.910436 5.80504 0
M  V30 5754 H 553.541 0.0278938 6.10594 0
M  V30 5755 H 554.955 2.1561 5.31211 0
M  V30 5756 H 553.352 2.94299 5.2298 0
M  V30 5757 H 554.422 2.99047 3.81705 0
M  V30 5758 N 555.766 -1.3263 0.851289 0
M  V30 5759 C 557.182 -1.50162 0.5407 0
M  V30 5760 C 557.382 -1.78788 -0.929369 0
M  V30 5761 O 556.438 -1.85545 -1.71258 0
M  V30 5762 C 557.751 -2.64803 1.42478 0
M  V30 5763 C 559.299 -2.78688 1.42485 0
M  V30 5764 C 559.774 -3.96405 2.29407 0
M  V30 5765 N 561.265 -4.0366 2.27184 0
M  V30 5766 C 562 -4.93971 2.9117 0
M  V30 5767 N 561.496 -5.89313 3.64256 0
M  V30 5768 N 563.289 -4.87066 2.80576 0
M  V30 5769 H 555.44 -1.12315 1.80275 0
M  V30 5770 H 557.703 -0.553266 0.769806 0
M  V30 5771 H 557.409 -2.50368 2.46999 0
M  V30 5772 H 557.283 -3.60506 1.10974 0
M  V30 5773 H 559.67 -2.92547 0.387304 0
M  V30 5774 H 559.751 -1.83708 1.78002 0
M  V30 5775 H 559.395 -3.83304 3.33228 0
M  V30 5776 H 559.325 -4.90654 1.91224 0
M  V30 5777 H 561.816 -3.35435 1.74045 0
M  V30 5778 H 562.129 -6.54913 4.10255 0
M  V30 5779 H 560.474 -5.8935 3.68364 0
M  V30 5780 H 563.665 -4.11552 2.23031 0
M  V30 5781 H 563.838 -5.57248 3.30725 0
M  V30 5782 N 557.244 -0.608902 -1.45362 0
M  V30 5783 C 558.207 0.0992563 -2.28985 0
M  V30 5784 C 559.207 0.793841 -1.39838 0
M  V30 5785 O 560.397 0.641804 -1.61946 0
M  V30 5786 C 557.529 1.15073 -3.20891 0
M  V30 5787 H 558.722 -0.635964 -2.93079 0
M  V30 5788 H 556.275 -0.368007 -1.51906 0
M  V30 5789 H 557.01 1.91667 -2.616 0
M  V30 5790 H 556.795 0.656867 -3.86559 0
M  V30 5791 H 558.285 1.64665 -3.83765 0
M  V30 5792 N 558.722 1.53707 -0.348139 0
M  V30 5793 C 559.97 2.00591 0.246478 0
M  V30 5794 C 560.291 1.23753 1.50699 0
M  V30 5795 O 559.561 0.345964 1.92821 0
M  V30 5796 H 558.141 0.741053 0.0940679 0
M  V30 5797 H 560.803 1.89139 -0.470354 0
M  V30 5798 H 559.899 3.08297 0.485714 0
M  V30 5799 N 560.2 0.0768682 1.57412 0
M  V30 5800 C 561.43 -0.5991 1.97723 0
M  V30 5801 C 561.838 -1.63378 0.954166 0
M  V30 5802 O 561.181 -1.83578 -0.0668706 0
M  V30 5803 C 561.243 -1.32078 3.34358 0
M  V30 5804 C 560.907 -0.438985 4.54887 0
M  V30 5805 C 561.904 0.305492 5.19002 0
M  V30 5806 C 559.589 -0.362378 5.00991 0
M  V30 5807 C 561.583 1.11475 6.27576 0
M  V30 5808 C 559.27 0.450543 6.09437 0
M  V30 5809 C 560.268 1.18777 6.72593 0
M  V30 5810 O 559.956 1.98727 7.7895 0
M  V30 5811 H 559.688 -0.166725 0.655117 0
M  V30 5812 H 562.242 0.147337 2.04871 0
M  V30 5813 H 560.472 -2.1134 3.2384 0
M  V30 5814 H 562.161 -1.88949 3.5924 0
M  V30 5815 H 562.927 0.25593 4.84324 0
M  V30 5816 H 558.806 -0.925832 4.51608 0
M  V30 5817 H 562.35 1.69068 6.76803 0
M  V30 5818 H 558.247 0.501651 6.43548 0
M  V30 5819 H 559.015 1.91214 7.95851 0
M  V30 5820 N 561.678 -1.56367 -0.196722 0
M  V30 5821 C 562.903 -1.84991 -0.937714 0
M  V30 5822 C 563.328 -0.660244 -1.76132 0
M  V30 5823 O 562.686 0.390967 -1.77034 0
M  V30 5824 C 562.734 -3.11828 -1.81096 0
M  V30 5825 O 561.838 -2.92266 -2.90955 0
M  V30 5826 H 561.179 -0.609193 -0.264159 0
M  V30 5827 H 563.709 -2.03595 -0.202529 0
M  V30 5828 H 563.719 -3.42579 -2.21594 0
M  V30 5829 H 562.394 -3.98037 -1.2058 0
M  V30 5830 H 560.971 -2.72809 -2.54224 0
M  V30 5831 N 563.156 0.464375 -1.50603 0
M  V30 5832 C 564.103 1.56152 -1.69956 0
M  V30 5833 C 565.073 1.57046 -0.54091 0
M  V30 5834 O 566.258 1.74473 -0.772258 0
M  V30 5835 C 563.398 2.94079 -1.80586 0
M  V30 5836 C 562.511 3.02923 -3.07996 0
M  V30 5837 C 561.646 4.31806 -3.09382 0
M  V30 5838 C 560.685 4.34417 -4.31218 0
M  V30 5839 N 559.822 5.54782 -4.30304 0
M  V30 5840 H 564.662 1.38955 -2.6362 0
M  V30 5841 H 562.199 0.675482 -1.30674 0
M  V30 5842 H 564.157 3.74073 -1.8473 0
M  V30 5843 H 562.787 3.09896 -0.903556 0
M  V30 5844 H 561.839 2.1576 -3.13292 0
M  V30 5845 H 563.151 3.00712 -3.97962 0
M  V30 5846 H 562.305 5.20153 -3.12292 0
M  V30 5847 H 561.044 4.36636 -2.17257 0
M  V30 5848 H 560.049 3.44467 -4.28512 0
M  V30 5849 H 561.274 4.31273 -5.24576 0
M  V30 5850 H 559.22 5.60384 -3.41037 0
M  V30 5851 H 559.137 5.54339 -5.14047 0
M  V30 5852 H 560.405 6.45235 -4.3737 0
M  V30 5853 N 564.634 1.40294 0.718013 0
M  V30 5854 C 565.581 1.40367 1.8321 0
M  V30 5855 C 566.551 0.260952 1.64037 0
M  V30 5856 O 567.736 0.458648 1.85205 0
M  V30 5857 C 564.876 1.26965 3.20895 0
M  V30 5858 C 563.989 2.50922 3.51656 0
M  V30 5859 C 563.124 2.29981 4.78834 0
M  V30 5860 C 562.163 3.49527 5.02491 0
M  V30 5861 N 561.3 3.27796 6.20882 0
M  V30 5862 H 566.14 2.35593 1.82482 0
M  V30 5863 H 563.677 1.17012 0.891444 0
M  V30 5864 H 565.635 1.17202 4.00399 0
M  V30 5865 H 564.265 0.353591 3.20858 0
M  V30 5866 H 563.317 2.71223 2.66725 0
M  V30 5867 H 564.629 3.39913 3.65048 0
M  V30 5868 H 563.783 2.17558 5.66351 0
M  V30 5869 H 562.522 1.38411 4.67647 0
M  V30 5870 H 561.527 3.6243 4.1343 0
M  V30 5871 H 562.752 4.42021 5.15553 0
M  V30 5872 H 560.698 2.38906 6.1095 0
M  V30 5873 H 560.615 4.10351 6.34939 0
M  V30 5874 H 561.883 3.19101 7.11193 0
M  V30 5875 N 566.112 -0.949982 1.2575 0
M  V30 5876 C 567.389 -1.6718 1.01539 0
M  V30 5877 C 567.769 -2.06095 -0.456942 0
M  V30 5878 O 567.117 -1.77792 -1.43534 0
M  V30 5879 C 567.327 -2.8906 1.95564 0
M  V30 5880 C 568.675 -3.60909 2.23673 0
M  V30 5881 O 569.699 -2.9915 1.9336 0
M  V30 5882 O 568.558 -4.72127 2.75243 0
M  V30 5883 H 565.652 -0.731697 0.385419 0
M  V30 5884 H 568.198 -1.00249 1.36924 0
M  V30 5885 H 566.97 -2.57128 2.94959 0
M  V30 5886 H 566.593 -3.63719 1.60605 0
M  V30 5887 N 567.59 -1.07411 -1.15328 0
M  V30 5888 C 568.838 -0.796073 -1.85761 0
M  V30 5889 C 569.159 0.679864 -1.82764 0
M  V30 5890 O 568.429 1.49242 -1.269 0
M  V30 5891 H 567.009 -0.291495 -0.687779 0
M  V30 5892 H 569.671 -1.35799 -1.39802 0
M  V30 5893 H 568.767 -1.13114 -2.90881 0
M  V30 5894 N 569.068 1.32177 -0.85831 0
M  V30 5895 C 570.316 1.96735 -0.462568 0
M  V30 5896 C 570.637 1.6824 0.985911 0
M  V30 5897 O 569.907 0.991564 1.68952 0
M  V30 5898 H 568.487 0.727849 -0.168064 0
M  V30 5899 H 571.149 1.61195 -1.09554 0
M  V30 5900 H 570.245 3.06068 -0.610647 0
M  V30 5901 N 570.547 0.616602 1.45037 0
M  V30 5902 C 571.494 -0.0969439 2.30596 0
M  V30 5903 C 572.464 -0.851151 1.42635 0
M  V30 5904 O 573.649 -0.835092 1.71554 0
M  V30 5905 C 570.789 -1.08234 3.27688 0
M  V30 5906 C 569.902 -0.328072 4.30752 0
M  V30 5907 C 569.037 -1.30399 5.14946 0
M  V30 5908 C 568.076 -0.538049 6.09731 0
M  V30 5909 N 567.213 -1.46371 6.86673 0
M  V30 5910 H 572.053 0.63864 2.91076 0
M  V30 5911 H 569.59 0.326733 1.43425 0
M  V30 5912 H 571.548 -1.66688 3.82454 0
M  V30 5913 H 570.178 -1.78523 2.68941 0
M  V30 5914 H 569.23 0.372136 3.78575 0
M  V30 5915 H 570.542 0.269142 4.98073 0
M  V30 5916 H 569.696 -1.96032 5.74157 0
M  V30 5917 H 568.435 -1.93514 4.47665 0
M  V30 5918 H 567.44 0.131852 5.49642 0
M  V30 5919 H 568.665 0.0881732 6.79043 0
M  V30 5920 H 566.611 -2.08233 6.22073 0
M  V30 5921 H 566.528 -0.920152 7.50379 0
M  V30 5922 H 567.796 -2.10932 7.50418 0
M  V30 5923 N 572.025 -1.5352 0.356285 0
M  V30 5924 C 573.274 -2.00298 -0.237373 0
M  V30 5925 C 573.587 -1.24784 -1.50627 0
M  V30 5926 O 574.793 -1.62103 -2.17795 0
M  V30 5927 C 573.249 -3.56771 -0.473545 0
M  V30 5928 C 572.857 -4.41154 0.780183 0
M  V30 5929 C 574.601 -4.1193 -1.02537 0
M  V30 5930 C 572.508 -5.89161 0.514108 0
M  V30 5931 H 571.438 -0.748307 -0.092478 0
M  V30 5932 H 574.089 -1.77283 0.473588 0
M  V30 5933 H 572.471 -3.75902 -1.24553 0
M  V30 5934 H 573.645 -4.33797 1.55425 0
M  V30 5935 H 571.96 -3.97052 1.25455 0
M  V30 5936 H 574.557 -5.20133 -1.2396 0
M  V30 5937 H 574.9 -3.65943 -1.98473 0
M  V30 5938 H 575.433 -3.96561 -0.313775 0
M  V30 5939 H 572.172 -6.39408 1.44355 0
M  V30 5940 H 571.692 -5.9939 -0.221632 0
M  V30 5941 H 573.371 -6.46857 0.136122 0
M  V30 5942 N 573.503 -0.0852151 -1.57369 0
M  V30 5943 C 574.752 0.580443 -1.93168 0
M  V30 5944 C 575.065 1.6995 -0.968319 0
M  V30 5945 O 576.271 2.42564 -1.21963 0
M  V30 5946 C 574.727 1.08386 -3.43192 0
M  V30 5947 C 574.335 -0.00491388 -4.48 0
M  V30 5948 C 576.079 1.72281 -3.87968 0
M  V30 5949 C 573.986 0.513299 -5.89168 0
M  V30 5950 H 572.916 0.22059 -0.72101 0
M  V30 5951 H 575.567 -0.159621 -1.82804 0
M  V30 5952 H 573.949 1.8773 -3.48674 0
M  V30 5953 H 575.123 -0.780032 -4.5415 0
M  V30 5954 H 573.438 -0.548453 -4.12772 0
M  V30 5955 H 576.035 2.12108 -4.9083 0
M  V30 5956 H 576.378 2.58811 -3.26071 0
M  V30 5957 H 576.911 0.995359 -3.85146 0
M  V30 5958 H 573.65 -0.315153 -6.54742 0
M  V30 5959 H 573.17 1.25564 -5.8651 0
M  V30 5960 H 574.849 0.985433 -6.39451 0
M  V30 5961 N 574.981 1.5647 0.188427 0
M  V30 5962 C 575.913 1.91611 1.25769 0
M  V30 5963 C 576.926 0.807436 1.41366 0
M  V30 5964 O 578.115 1.08586 1.41673 0
M  V30 5965 C 575.215 2.13874 2.6289 0
M  V30 5966 C 574.388 3.45047 2.68815 0
M  V30 5967 C 573.447 3.56342 3.87178 0
M  V30 5968 O 572.473 4.29109 3.73971 0
M  V30 5969 N 573.675 2.89924 5.02916 0
M  V30 5970 H 576.44 2.8393 0.959373 0
M  V30 5971 H 574.001 1.57418 0.378306 0
M  V30 5972 H 575.993 2.18713 3.4051 0
M  V30 5973 H 574.563 1.28022 2.85183 0
M  V30 5974 H 573.783 3.52017 1.77419 0
M  V30 5975 H 575.071 4.31395 2.6977 0
M  V30 5976 H 574.469 2.30644 5.16546 0
M  V30 5977 H 573.026 3.0038 5.78459 0
M  V30 5978 N 576.459 -0.456382 1.50847 0
M  V30 5979 C 577.391 -1.57033 1.66953 0
M  V30 5980 C 578.404 -1.53207 0.550593 0
M  V30 5981 O 579.593 -1.58328 0.824285 0
M  V30 5982 C 576.693 -2.95937 1.65149 0
M  V30 5983 C 575.866 -3.24475 2.93317 0
M  V30 5984 C 574.925 -4.43007 2.83957 0
M  V30 5985 O 573.951 -4.42592 3.57912 0
M  V30 5986 N 575.153 -5.45503 1.9851 0
M  V30 5987 H 577.918 -1.43629 2.63042 0
M  V30 5988 H 575.479 -0.645037 1.48495 0
M  V30 5989 H 577.471 -3.73224 1.56481 0
M  V30 5990 H 576.041 -3.03036 0.767343 0
M  V30 5991 H 575.261 -2.35664 3.16 0
M  V30 5992 H 576.549 -3.4036 3.78196 0
M  V30 5993 H 575.947 -5.48668 1.37766 0
M  V30 5994 H 574.504 -6.21716 1.95735 0
M  V30 5995 N 577.937 -1.40673 -0.710563 0
M  V30 5996 C 579.165 -1.42547 -1.4996 0
M  V30 5997 C 579.58 -0.0265485 -1.88781 0
M  V30 5998 O 578.937 0.950694 -1.55782 0
M  V30 5999 C 578.988 -2.32071 -2.77173 0
M  V30 6000 O 578.709 -3.66518 -2.39992 0
M  V30 6001 C 580.21 -2.42591 -3.71032 0
M  V30 6002 H 577.43 -0.486025 -0.462623 0
M  V30 6003 H 579.974 -1.84783 -0.876102 0
M  V30 6004 H 578.129 -1.93184 -3.35795 0
M  V30 6005 H 578.543 -4.14115 -3.21884 0
M  V30 6006 H 580.017 -3.09429 -4.57119 0
M  V30 6007 H 580.494 -1.4525 -4.14486 0
M  V30 6008 H 581.1 -2.82051 -3.18319 0
M  V30 6009 N 579.415 0.9433 -1.26252 0
M  V30 6010 C 580.661 1.69226 -1.12846 0
M  V30 6011 C 581.016 1.8963 0.325282 0
M  V30 6012 O 580.309 1.46435 1.23561 0
M  V30 6013 C 580.503 3.07073 -1.82868 0
M  V30 6014 C 580.332 3.00118 -3.34902 0
M  V30 6015 C 579.102 3.03251 -4.04186 0
M  V30 6016 C 581.3 2.80418 -4.31127 0
M  V30 6017 N 579.282 2.86573 -5.42908 0
M  V30 6018 C 580.653 2.72287 -5.5701 0
M  V30 6019 C 582.708 2.65185 -4.21404 0
M  V30 6020 C 581.411 2.50479 -6.74279 0
M  V30 6021 C 583.437 2.4475 -5.38378 0
M  V30 6022 C 582.799 2.37349 -6.63208 0
M  V30 6023 H 578.898 0.626716 -0.467708 0
M  V30 6024 H 581.482 1.11645 -1.5951 0
M  V30 6025 H 579.653 3.62797 -1.38682 0
M  V30 6026 H 581.385 3.70816 -1.62103 0
M  V30 6027 H 578.14 3.12882 -3.55531 0
M  V30 6028 H 578.564 2.81408 -6.15742 0
M  V30 6029 H 583.206 2.69675 -3.25631 0
M  V30 6030 H 580.924 2.4473 -7.70151 0
M  V30 6031 H 584.51 2.33872 -5.32724 0
M  V30 6032 H 583.39 2.21746 -7.52196 0
M  V30 6033 N 580.893 1.08022 1.14757 0
M  V30 6034 C 581.841 0.701088 2.21783 0
M  V30 6035 C 582.835 -0.291311 1.66876 0
M  V30 6036 O 584.041 -0.154296 1.79337 0
M  V30 6037 H 580.416 0.208668 0.722469 0
M  V30 6038 H 582.387 1.61321 2.51034 0
M  V30 6039 C 581.136 0.122278 3.47485 0
M  V30 6040 H 580.459 0.877065 3.90061 0
M  V30 6041 H 581.899 -0.105248 4.23869 0
M  V30 6042 C 580.358 -1.13883 3.17068 0
M  V30 6043 O 580.888 -2.22429 3.34497 0
M  V30 6044 N 579.094 -1.04767 2.71058 0
M  V30 6045 H 578.641 -0.164302 2.57075 0
M  V30 6046 H 578.599 -1.89224 2.51081 0
M  V30 6047 N 582.371 -1.3172 0.865308 0
M  V30 6048 C 583.787 -1.4958 0.556596 0
M  V30 6049 C 583.987 -1.79763 -0.910353 0
M  V30 6050 O 583.043 -1.87351 -1.6928 0
M  V30 6051 C 584.356 -2.63277 1.45279 0
M  V30 6052 C 585.904 -2.77161 1.45433 0
M  V30 6053 C 586.379 -3.93949 2.33598 0
M  V30 6054 N 587.87 -4.01228 2.31453 0
M  V30 6055 C 588.605 -4.90855 2.96393 0
M  V30 6056 N 588.101 -5.85416 3.70486 0
M  V30 6057 N 589.894 -4.84063 2.85726 0
M  V30 6058 H 582.045 -1.10396 1.81456 0
M  V30 6059 H 584.308 -0.54507 0.775631 0
M  V30 6060 H 584.014 -2.47734 2.49641 0
M  V30 6061 H 583.888 -3.59309 1.14792 0
M  V30 6062 H 586.275 -2.9212 0.41831 0
M  V30 6063 H 586.356 -1.8181 1.79941 0
M  V30 6064 H 586 -3.79748 3.37274 0
M  V30 6065 H 585.93 -4.88598 1.96417 0
M  V30 6066 H 588.421 -3.3357 1.77593 0
M  V30 6067 H 588.734 -6.50525 4.17178 0
M  V30 6068 H 587.079 -5.85409 3.74594 0
M  V30 6069 H 590.27 -4.09163 2.27384 0
M  V30 6070 H 590.443 -5.53708 3.36617 0
M  V30 6071 N 583.85 -0.624285 -1.44708 0
M  V30 6072 C 585.077 -0.132919 -2.06473 0
M  V30 6073 C 585.493 1.18967 -1.46602 0
M  V30 6074 O 584.85 1.72824 -0.586341 0
M  V30 6075 C 584.901 -0.00465418 -3.615 0
M  V30 6076 O 584.622 -1.27494 -4.19138 0
M  V30 6077 C 586.123 0.516213 -4.40284 0
M  V30 6078 H 583.343 -0.0765201 -0.666623 0
M  V30 6079 H 585.887 -0.856751 -1.85688 0
M  V30 6080 H 584.042 0.669583 -3.8157 0
M  V30 6081 H 584.456 -1.11536 -5.12504 0
M  V30 6082 H 585.93 0.554994 -5.49203 0
M  V30 6083 H 586.407 1.5419 -4.11245 0
M  V30 6084 H 587.013 -0.124542 -4.25118 0
M  V30 6085 N 585.328 1.53329 -0.364422 0
M  V30 6086 C 586.575 2.01239 0.225634 0
M  V30 6087 C 586.903 1.25172 1.48869 0
M  V30 6088 O 586.158 0.333289 1.92841 0
M  V30 6089 C 586.457 3.52911 0.564661 0
M  V30 6090 C 586.123 4.46837 -0.603936 0
M  V30 6091 C 584.785 4.72234 -0.924585 0
M  V30 6092 C 587.137 5.02409 -1.38691 0
M  V30 6093 C 584.465 5.50454 -2.0302 0
M  V30 6094 C 586.817 5.81836 -2.48293 0
M  V30 6095 C 585.481 6.0552 -2.80894 0
M  V30 6096 H 584.751 0.736386 0.0825654 0
M  V30 6097 H 587.398 1.84948 -0.496645 0
M  V30 6098 H 585.703 3.67144 1.36794 0
M  V30 6099 H 587.4 3.87455 1.03344 0
M  V30 6100 H 583.99 4.27217 -0.343983 0
M  V30 6101 H 588.174 4.82735 -1.15243 0
M  V30 6102 H 583.43 5.67024 -2.28678 0
M  V30 6103 H 587.604 6.23905 -3.0938 0
M  V30 6104 H 585.231 6.65916 -3.66688 0
M  V30 6105 N 586.806 0.0935595 1.57322 0
M  V30 6106 C 587.716 -0.880192 2.17462 0
M  V30 6107 C 588.732 -1.31135 1.14366 0
M  V30 6108 O 589.908 -1.37958 1.46729 0
M  V30 6109 C 586.973 -2.12184 2.74188 0
M  V30 6110 C 586.034 -1.74503 3.92234 0
M  V30 6111 C 585.267 -2.92748 4.46245 0
M  V30 6112 O 585.49 -4.07427 3.99198 0
M  V30 6113 O 584.424 -2.71303 5.37288 0
M  V30 6114 H 588.25 -0.398516 3.01074 0
M  V30 6115 H 585.835 -0.130707 1.48827 0
M  V30 6116 H 587.717 -2.84953 3.10451 0
M  V30 6117 H 586.392 -2.59407 1.93623 0
M  V30 6118 H 585.299 -0.989186 3.60785 0
M  V30 6119 H 586.632 -1.32044 4.74157 0
M  V30 6120 N 588.284 -1.56567 -0.180126 0
M  V30 6121 C 589.532 -1.81133 -0.896392 0
M  V30 6122 C 589.853 -0.669114 -1.83161 0
M  V30 6123 O 589.123 0.311616 -1.93406 0
M  V30 6124 H 587.703 -0.668172 -0.333999 0
M  V30 6125 H 590.365 -1.94048 -0.182051 0
M  V30 6126 H 589.461 -2.74854 -1.47857 0
M  V30 6127 N 589.762 0.448376 -1.51087 0
M  V30 6128 C 591.011 1.19561 -1.62444 0
M  V30 6129 C 591.324 1.92602 -0.341151 0
M  V30 6130 O 592.53 2.69439 -0.333936 0
M  V30 6131 C 590.986 2.17373 -2.8684 0
M  V30 6132 C 590.594 1.5003 -4.22131 0
M  V30 6133 C 592.338 2.92597 -3.0755 0
M  V30 6134 C 590.245 2.46262 -5.37689 0
M  V30 6135 H 589.175 0.449975 -0.605011 0
M  V30 6136 H 591.826 0.463735 -1.77544 0
M  V30 6137 H 590.208 2.93948 -2.65349 0
M  V30 6138 H 591.382 0.790886 -4.53962 0
M  V30 6139 H 589.697 0.870011 -4.0721 0
M  V30 6140 H 592.294 3.64663 -3.91056 0
M  V30 6141 H 592.637 3.53306 -2.20183 0
M  V30 6142 H 593.17 2.23131 -3.29329 0
M  V30 6143 H 589.909 1.90258 -6.27281 0
M  V30 6144 H 589.429 3.15289 -5.10248 0
M  V30 6145 H 591.108 3.07623 -5.6919 0
M  V30 6146 N 591.24 1.41047 0.703093 0
M  V30 6147 C 592.203 1.42036 1.79884 0
M  V30 6148 C 593.203 0.312153 1.57741 0
M  V30 6149 O 594.393 0.571672 1.64553 0
M  V30 6150 C 591.525 1.22437 3.18154 0
M  V30 6151 H 592.718 2.39572 1.80403 0
M  V30 6152 H 590.271 1.27079 0.909977 0
M  V30 6153 H 591.006 0.257112 3.23279 0
M  V30 6154 H 590.791 2.02723 3.35627 0
M  V30 6155 H 592.281 1.25946 3.98155 0
M  V30 6156 N 592.718 -0.936591 1.26751 0
M  V30 6157 C 593.966 -1.67998 1.12343 0
M  V30 6158 C 594.287 -1.92137 -0.332938 0
M  V30 6159 O 593.557 -1.52132 -1.23421 0
M  V30 6160 H 592.137 -0.622609 0.412756 0
M  V30 6161 H 594.799 -1.12509 1.59147 0
M  V30 6162 H 593.895 -2.65185 1.64571 0
M  V30 6163 N 594.196 -1.08629 -1.14182 0
M  V30 6164 C 595.128 -0.676189 -2.18998 0
M  V30 6165 C 596.141 0.277871 -1.60411 0
M  V30 6166 O 597.33 0.0651771 -1.78381 0
M  V30 6167 C 594.43 0.0254916 -3.3889 0
M  V30 6168 C 593.603 -0.948039 -4.27002 0
M  V30 6169 C 592.662 -0.281268 -5.25448 0
M  V30 6170 O 591.688 -0.926378 -5.61611 0
M  V30 6171 N 592.89 0.967923 -5.72374 0
M  V30 6172 H 595.655 -1.57792 -2.54798 0
M  V30 6173 H 593.216 -0.972665 -1.29425 0
M  V30 6174 H 595.208 0.482554 -4.01813 0
M  V30 6175 H 593.778 0.829348 -3.01398 0
M  V30 6176 H 592.998 -1.58388 -3.6098 0
M  V30 6177 H 594.286 -1.60765 -4.82734 0
M  V30 6178 H 593.684 1.51175 -5.45126 0
M  V30 6179 H 592.241 1.36844 -6.37273 0
M  V30 6180 N 595.674 1.31259 -0.872281 0
M  V30 6181 C 596.92 1.96913 -0.485083 0
M  V30 6182 C 597.253 1.68774 0.960667 0
M  V30 6183 O 596.528 0.985495 1.67685 0
M  V30 6184 C 596.811 3.52299 -0.745502 0
M  V30 6185 C 596.664 3.90002 -2.24095 0
M  V30 6186 C 597.983 4.39582 -0.213516 0
M  V30 6187 H 595.102 0.715252 -0.177716 0
M  V30 6188 H 597.744 1.55347 -1.09395 0
M  V30 6189 H 595.894 3.87835 -0.227276 0
M  V30 6190 H 597.566 3.64555 -2.82661 0
M  V30 6191 H 595.809 3.38526 -2.71261 0
M  V30 6192 H 596.48 4.98352 -2.37381 0
M  V30 6193 H 598.956 4.10882 -0.656902 0
M  V30 6194 H 597.832 5.47251 -0.42516 0
M  V30 6195 H 598.093 4.33158 0.884666 0
M  V30 6196 N 597.152 0.631951 1.44375 0
M  V30 6197 C 598.377 0.142146 2.06912 0
M  V30 6198 C 598.802 -1.17456 1.4692 0
M  V30 6199 O 598.16 -1.72074 0.570975 0
M  V30 6200 C 598.208 0.0417952 3.60576 0
M  V30 6201 O 597.312 -1.00194 4.00044 0
M  V30 6202 H 596.653 0.0851491 0.658518 0
M  V30 6203 H 599.183 0.868863 1.85235 0
M  V30 6204 H 599.193 -0.148517 4.0773 0
M  V30 6205 H 597.868 1.0031 4.03622 0
M  V30 6206 H 596.445 -0.786131 3.64519 0
M  V30 6207 N 598.631 -1.53133 0.372548 0
M  V30 6208 C 599.88 -2.00539 -0.216115 0
M  V30 6209 C 600.193 -1.26374 -1.49295 0
M  V30 6210 O 601.399 -1.64404 -2.16064 0
M  V30 6211 C 599.855 -3.57253 -0.435678 0
M  V30 6212 C 599.463 -4.40302 0.82693 0
M  V30 6213 C 601.207 -4.12995 -0.981618 0
M  V30 6214 C 599.114 -5.88583 0.576567 0
M  V30 6215 H 598.044 -0.749246 -0.084536 0
M  V30 6216 H 600.695 -1.76771 0.492364 0
M  V30 6217 H 599.077 -3.77202 -1.20559 0
M  V30 6218 H 600.251 -4.32124 1.60017 0
M  V30 6219 H 598.566 -3.95699 1.29659 0
M  V30 6220 H 601.163 -5.21418 -1.18436 0
M  V30 6221 H 601.506 -3.68027 -1.94581 0
M  V30 6222 H 602.039 -3.96871 -0.271696 0
M  V30 6223 H 598.778 -6.37841 1.51128 0
M  V30 6224 H 598.298 -5.99592 -0.158047 0
M  V30 6225 H 599.977 -6.46676 0.204722 0
M  V30 6226 N 600.109 -0.101901 -1.5727 0
M  V30 6227 C 601.386 0.602832 -1.86079 0
M  V30 6228 C 601.766 1.85912 -1 0
M  V30 6229 O 601.114 2.28379 -0.0742488 0
M  V30 6230 C 601.324 0.911694 -3.36881 0
M  V30 6231 C 602.672 1.2722 -4.05093 0
M  V30 6232 O 603.696 1.0025 -3.41802 0
M  V30 6233 O 602.555 1.7776 -5.16782 0
M  V30 6234 H 599.649 0.302366 -0.769743 0
M  V30 6235 H 602.195 -0.135113 -1.69161 0
M  V30 6236 H 600.967 0.0207256 -3.91295 0
M  V30 6237 H 600.59 1.70538 -3.59169 0
M  V30 6238 N 601.587 1.56661 0.17182 0
M  V30 6239 C 602.55 1.9549 1.19651 0
M  V30 6240 C 603.55 0.838501 1.37207 0
M  V30 6241 O 604.74 1.10556 1.34622 0
M  V30 6242 C 601.872 2.24927 2.56166 0
M  V30 6243 H 603.065 2.87184 0.864007 0
M  V30 6244 H 600.618 1.50711 0.41425 0
M  V30 6245 H 601.353 1.35944 2.94431 0
M  V30 6246 H 601.138 3.06301 2.4479 0
M  V30 6247 H 602.628 2.55891 3.30014 0
M  V30 6248 N 603.065 -0.440357 1.51323 0
M  V30 6249 C 604.013 -1.55492 1.72988 0
M  V30 6250 C 605.007 -1.58564 0.596138 0
M  V30 6251 O 606.213 -1.62345 0.777443 0
M  V30 6252 H 602.588 -0.516532 0.546533 0
M  V30 6253 H 604.559 -1.34392 2.66423 0
M  V30 6254 C 603.308 -2.93176 1.86931 0
M  V30 6255 H 602.631 -2.91543 2.73574 0
M  V30 6256 H 604.071 -3.70537 2.06103 0
M  V30 6257 C 602.53 -3.30988 0.628365 0
M  V30 6258 O 603.06 -4.01106 -0.218367 0
M  V30 6259 N 601.266 -2.86719 0.473339 0
M  V30 6260 H 600.813 -2.2983 1.16345 0
M  V30 6261 H 600.771 -3.12381 -0.355727 0
M  V30 6262 N 604.543 -1.41418 -0.695603 0
M  V30 6263 C 605.791 -1.40496 -1.45277 0
M  V30 6264 C 606.112 -0.0149538 -1.94994 0
M  V30 6265 O 605.382 0.9432 -1.71699 0
M  V30 6266 H 603.962 -0.517147 -0.539044 0
M  V30 6267 H 606.624 -1.76656 -0.823321 0
M  V30 6268 H 605.72 -2.09214 -2.31595 0
M  V30 6269 N 606.021 0.929856 -1.27246 0
M  V30 6270 C 607.298 1.65544 -1.04186 0
M  V30 6271 C 607.678 2.06796 0.424097 0
M  V30 6272 O 607.026 1.80053 1.40688 0
M  V30 6273 C 607.236 2.85912 -2.00138 0
M  V30 6274 C 608.584 3.57305 -2.29387 0
M  V30 6275 O 609.608 2.96036 -1.98094 0
M  V30 6276 O 608.467 4.67688 -2.82719 0
M  V30 6277 H 605.561 0.725473 -0.397011 0
M  V30 6278 H 608.107 0.980583 -1.38501 0
M  V30 6279 H 606.879 2.52403 -2.99013 0
M  V30 6280 H 606.502 3.61118 -1.66371 0
M  V30 6281 N 607.499 1.09233 1.13605 0
M  V30 6282 C 608.915 0.82163 1.36826 0
M  V30 6283 C 609.115 -0.565021 1.93416 0
M  V30 6284 O 608.171 -1.32026 2.15234 0
M  V30 6285 C 609.484 1.91124 2.32147 0
M  V30 6286 C 611.032 1.93824 2.45767 0
M  V30 6287 C 611.507 3.01923 3.44393 0
M  V30 6288 N 612.998 3.01149 3.51942 0
M  V30 6289 C 613.733 3.81434 4.2813 0
M  V30 6290 N 613.229 4.71621 5.07489 0
M  V30 6291 N 615.022 3.69702 4.23411 0
M  V30 6292 H 607.173 1.98633 0.752234 0
M  V30 6293 H 609.436 0.862482 0.393482 0
M  V30 6294 H 609.142 2.90862 1.97717 0
M  V30 6295 H 609.016 1.78777 3.32142 0
M  V30 6296 H 611.403 0.94726 2.79483 0
M  V30 6297 H 611.484 2.10248 1.45703 0
M  V30 6298 H 611.128 4.01232 3.11408 0
M  V30 6299 H 611.058 2.82742 4.44257 0
M  V30 6300 H 613.549 2.35789 2.95317 0
M  V30 6301 H 613.862 5.29468 5.62924 0
M  V30 6302 H 612.207 4.75658 5.06729 0
M  V30 6303 H 615.398 2.98606 3.60489 0
M  V30 6304 H 615.571 4.32509 4.82535 0
M  V30 6305 N 608.977 -1.30795 0.87923 0
M  V30 6306 C 610.207 -2.00237 0.50881 0
M  V30 6307 C 610.615 -1.66115 -0.905682 0
M  V30 6308 O 609.958 -0.89138 -1.60624 0
M  V30 6309 C 610.02 -3.54508 0.597003 0
M  V30 6310 C 609.684 -4.12131 1.97477 0
M  V30 6311 C 610.681 -4.28552 2.94346 0
M  V30 6312 C 608.366 -4.47644 2.2786 0
M  V30 6313 C 610.36 -4.79689 4.19735 0
M  V30 6314 C 608.047 -4.98481 3.53496 0
M  V30 6315 C 609.045 -5.14456 4.49248 0
M  V30 6316 O 608.733 -5.64199 5.72656 0
M  V30 6317 H 608.465 -0.647026 0.195788 0
M  V30 6318 H 611.019 -1.67785 1.1848 0
M  V30 6319 H 609.249 -3.86461 -0.135945 0
M  V30 6320 H 610.938 -4.05198 0.238684 0
M  V30 6321 H 611.704 -4.01424 2.72183 0
M  V30 6322 H 607.583 -4.34481 1.54102 0
M  V30 6323 H 611.127 -4.92073 4.9448 0
M  V30 6324 H 607.024 -5.25044 3.75498 0
M  V30 6325 H 607.792 -5.82551 5.74957 0
M  V30 6326 N 610.455 -0.639598 -1.44038 0
M  V30 6327 C 611.703 -0.147188 -2.01563 0
M  V30 6328 C 612.024 1.2384 -1.50628 0
M  V30 6329 O 611.294 1.82452 -0.713316 0
M  V30 6330 H 609.874 -0.0514231 -0.745228 0
M  V30 6331 H 612.536 -0.828205 -1.76428 0
M  V30 6332 H 611.632 -0.121358 -3.11864 0
M  V30 6333 N 611.933 1.52934 -0.380664 0
M  V30 6334 C 613.21 1.93845 0.261417 0
M  V30 6335 C 613.59 1.31544 1.65104 0
M  V30 6336 O 612.938 0.480234 2.23397 0
M  V30 6337 C 613.148 3.47739 0.296466 0
M  V30 6338 C 614.496 4.21284 0.529578 0
M  V30 6339 O 615.52 3.54199 0.377041 0
M  V30 6340 O 614.379 5.40195 0.827753 0
M  V30 6341 H 611.473 0.811318 0.160285 0
M  V30 6342 H 614.019 1.64042 -0.434544 0
M  V30 6343 H 612.791 3.85395 -0.67724 0
M  V30 6344 H 612.414 3.8382 1.0377 0
M  V30 6345 N 613.412 0.11024 1.57214 0
M  V30 6346 C 614.659 -0.54987 1.94891 0
M  V30 6347 C 614.987 -1.67243 0.992984 0
M  V30 6348 O 614.242 -1.95694 0.0152703 0
M  V30 6349 C 614.541 -1.13102 3.39032 0
M  V30 6350 C 614.207 -0.130713 4.5071 0
M  V30 6351 C 612.869 0.14437 4.80983 0
M  V30 6352 C 615.221 0.551472 5.18274 0
M  V30 6353 C 612.549 1.10807 5.76141 0
M  V30 6354 C 614.901 1.50375 6.14467 0
M  V30 6355 C 613.565 1.78691 6.43138 0
M  V30 6356 H 612.835 -0.201212 0.713158 0
M  V30 6357 H 615.482 0.189288 1.90562 0
M  V30 6358 H 613.787 -1.94675 3.40013 0
M  V30 6359 H 615.484 -1.64973 3.65493 0
M  V30 6360 H 612.074 -0.355301 4.27125 0
M  V30 6361 H 616.258 0.35211 4.95049 0
M  V30 6362 H 611.514 1.3343 5.96663 0
M  V30 6363 H 615.688 2.03808 6.65909 0
M  V30 6364 H 613.315 2.53522 7.1668 0
M  V30 6365 N 614.89 -1.56749 -0.16351 0
M  V30 6366 C 616.115 -1.86938 -0.898264 0
M  V30 6367 C 616.54 -0.697456 -1.74692 0
M  V30 6368 O 615.898 0.353327 -1.77824 0
M  V30 6369 C 615.946 -3.15599 -1.74441 0
M  V30 6370 O 615.05 -2.98371 -2.8469 0
M  V30 6371 H 614.391 -0.614659 -0.251178 0
M  V30 6372 H 616.921 -2.03979 -0.159298 0
M  V30 6373 H 616.931 -3.47202 -2.14277 0
M  V30 6374 H 615.606 -4.00505 -1.1211 0
M  V30 6375 H 614.183 -2.7814 -2.4838 0
M  V30 6376 N 616.368 0.432326 -1.51554 0
M  V30 6377 C 617.614 1.18309 -1.64714 0
M  V30 6378 C 617.947 1.90745 -0.364696 0
M  V30 6379 O 617.222 1.8381 0.635936 0
M  V30 6380 C 617.505 2.1961 -2.85383 0
M  V30 6381 C 617.358 1.51223 -4.23617 0
M  V30 6382 C 618.677 3.20538 -3.01569 0
M  V30 6383 H 615.796 0.428751 -0.599451 0
M  V30 6384 H 618.438 0.471689 -1.84052 0
M  V30 6385 H 616.588 2.8028 -2.69027 0
M  V30 6386 H 618.26 0.938516 -4.51652 0
M  V30 6387 H 616.503 0.814501 -4.26085 0
M  V30 6388 H 617.174 2.25024 -5.04052 0
M  V30 6389 H 619.65 2.69926 -3.16669 0
M  V30 6390 H 618.526 3.88706 -3.87555 0
M  V30 6391 H 618.787 3.86933 -2.13859 0
M  V30 6392 N 617.846 1.41785 0.688094 0
M  V30 6393 C 619.095 1.4084 1.44385 0
M  V30 6394 C 619.408 0.0234166 1.95586 0
M  V30 6395 O 620.614 -0.108647 2.71283 0
M  V30 6396 C 619.07 2.47675 2.61123 0
M  V30 6397 C 618.678 3.92116 2.16677 0
M  V30 6398 C 620.422 2.55877 3.38714 0
M  V30 6399 C 618.329 4.90487 3.30419 0
M  V30 6400 H 617.259 0.523787 0.542368 0
M  V30 6401 H 619.91 1.6764 0.74627 0
M  V30 6402 H 618.292 2.14018 3.33185 0
M  V30 6403 H 619.466 4.35059 1.51856 0
M  V30 6404 H 617.781 3.87642 1.5206 0
M  V30 6405 H 620.378 3.26553 4.234 0
M  V30 6406 H 620.721 1.59801 3.84408 0
M  V30 6407 H 621.254 2.88662 2.73714 0
M  V30 6408 H 617.993 5.87994 2.89729 0
M  V30 6409 H 617.513 4.52187 3.94065 0
M  V30 6410 H 619.192 5.11591 3.96085 0
M  V30 6411 N 619.324 -0.923095 1.27737 0
M  V30 6412 C 620.287 -2.00587 1.10894 0
M  V30 6413 C 621.287 -1.60718 0.0514927 0
M  V30 6414 O 622.477 -1.71658 0.296481 0
M  V30 6415 C 619.609 -3.33829 0.690717 0
M  V30 6416 H 620.802 -2.16959 2.07048 0
M  V30 6417 H 618.355 -1.10451 1.1059 0
M  V30 6418 H 619.09 -3.23157 -0.272 0
M  V30 6419 H 618.875 -3.64125 1.45448 0
M  V30 6420 H 620.365 -4.13336 0.595252 0
M  V30 6421 N 620.802 -1.09834 -1.13024 0
M  V30 6422 C 621.735 -0.685453 -2.17662 0
M  V30 6423 C 622.713 0.310142 -1.59615 0
M  V30 6424 O 623.897 0.21052 -1.87321 0
M  V30 6425 C 621.024 -0.0104476 -3.38698 0
M  V30 6426 C 620.07 -0.968522 -4.15358 0
M  V30 6427 S 620.903 -2.48272 -4.74469 0
M  V30 6428 C 622.059 -1.82025 -5.98847 0
M  V30 6429 H 622.292 -1.57187 -2.52348 0
M  V30 6430 H 619.825 -0.914728 -1.24387 0
M  V30 6431 H 621.783 0.372694 -4.08805 0
M  V30 6432 H 620.444 0.852673 -3.02305 0
M  V30 6433 H 619.637 -0.443373 -5.02046 0
M  V30 6434 H 619.239 -1.29327 -3.50928 0
M  V30 6435 H 621.531 -1.14678 -6.67724 0
M  V30 6436 H 622.474 -2.66645 -6.55977 0
M  V30 6437 H 622.882 -1.2874 -5.49624 0
M  V30 6438 N 622.28 1.30327 -0.886154 0
M  V30 6439 C 623.508 2.00254 -0.520176 0
M  V30 6440 C 623.923 1.66419 0.891637 0
M  V30 6441 O 623.28 0.901951 1.58654 0
M  V30 6442 C 623.331 3.54916 -0.686775 0
M  V30 6443 O 623.052 3.87547 -2.04301 0
M  V30 6444 C 624.553 4.42115 -0.323945 0
M  V30 6445 H 621.773 0.640204 -0.200947 0
M  V30 6446 H 624.317 1.66183 -1.19178 0
M  V30 6447 H 622.472 3.8735 -0.0625273 0
M  V30 6448 H 622.886 4.82247 -2.06249 0
M  V30 6449 H 624.36 5.49808 -0.491407 0
M  V30 6450 H 624.837 4.32953 0.73811 0
M  V30 6451 H 625.443 4.15129 -0.924565 0
M  V30 6452 N 623.758 0.647228 1.43697 0
M  V30 6453 C 625.035 0.0883758 1.954 0
M  V30 6454 C 625.415 -1.39006 1.58873 0
M  V30 6455 O 624.763 -2.11255 0.87083 0
M  V30 6456 C 624.973 0.328263 3.47453 0
M  V30 6457 C 626.321 0.230009 4.23977 0
M  V30 6458 O 627.345 0.260496 3.55246 0
M  V30 6459 O 626.204 0.148615 5.46298 0
M  V30 6460 H 623.298 -0.0130683 0.826897 0
M  V30 6461 H 625.844 0.72005 1.53666 0
M  V30 6462 H 624.616 1.3535 3.67146 0
M  V30 6463 H 624.239 -0.336772 3.96171 0
M  V30 6464 N 625.236 -1.5273 0.388769 0
M  V30 6465 C 626.482 -2.01871 -0.193877 0
M  V30 6466 C 626.815 -1.27475 -1.46505 0
M  V30 6467 O 626.09 -0.375063 -1.90849 0
M  V30 6468 C 626.373 -3.5712 -0.462336 0
M  V30 6469 C 626.226 -4.42186 0.824091 0
M  V30 6470 C 627.545 -4.21881 -1.25319 0
M  V30 6471 H 624.664 -0.733764 -0.0689899 0
M  V30 6472 H 627.306 -1.82796 0.518231 0
M  V30 6473 H 625.456 -3.73504 -1.06896 0
M  V30 6474 H 627.128 -4.37554 1.46096 0
M  V30 6475 H 625.371 -4.09219 1.43952 0
M  V30 6476 H 626.042 -5.48828 0.590905 0
M  V30 6477 H 628.518 -4.0947 -0.73981 0
M  V30 6478 H 627.394 -5.30487 -1.40977 0
M  V30 6479 H 627.655 -3.79478 -2.26824 0
M  V30 6480 N 626.714 -0.118576 -1.57153 0
M  V30 6481 C 627.624 0.845484 -2.18835 0
M  V30 6482 C 628.64 1.29299 -1.16438 0
M  V30 6483 O 629.816 1.35607 -1.48905 0
M  V30 6484 C 626.881 2.07795 -2.77529 0
M  V30 6485 C 625.942 1.6824 -3.9496 0
M  V30 6486 C 625.175 2.85612 -4.50845 0
M  V30 6487 O 625.398 4.01025 -4.05629 0
M  V30 6488 O 624.332 2.62721 -5.41536 0
M  V30 6489 H 628.158 0.350568 -3.0167 0
M  V30 6490 H 625.743 0.107013 -1.49016 0
M  V30 6491 H 627.625 2.79978 -3.14945 0
M  V30 6492 H 626.3 2.56294 -1.97725 0
M  V30 6493 H 625.207 0.931663 -3.62313 0
M  V30 6494 H 626.54 1.24484 -4.76198 0
M  V30 6495 N 628.193 1.56834 0.155195 0
M  V30 6496 C 629.156 1.96748 1.17571 0
M  V30 6497 C 630.156 0.853006 1.3631 0
M  V30 6498 O 631.346 1.11978 1.33441 0
M  V30 6499 C 628.478 2.27631 2.53765 0
M  V30 6500 H 629.671 2.88085 0.833498 0
M  V30 6501 H 627.224 1.51141 0.398242 0
M  V30 6502 H 627.959 1.39059 2.92973 0
M  V30 6503 H 627.744 3.0888 2.41527 0
M  V30 6504 H 629.234 2.59377 3.27282 0
M  V30 6505 N 629.671 -0.424282 1.51781 0
M  V30 6506 C 630.919 -1.17028 1.64769 0
M  V30 6507 C 631.24 -1.91409 0.372523 0
M  V30 6508 O 630.51 -1.86091 -0.612108 0
M  V30 6509 H 629.09 -0.434992 0.607282 0
M  V30 6510 H 631.752 -0.485169 1.88765 0
M  V30 6511 H 630.848 -1.8927 2.4816 0
M  V30 6512 N 631.149 -1.42148 -0.680565 0
M  V30 6513 C 632.377 -1.45696 -1.46902 0
M  V30 6514 C 632.792 -0.0665858 -1.88683 0
M  V30 6515 O 632.149 0.917436 -1.57764 0
M  V30 6516 C 632.2 -2.37898 -2.72188 0
M  V30 6517 O 631.921 -3.71526 -2.32163 0
M  V30 6518 C 633.422 -2.50407 -3.65802 0
M  V30 6519 H 630.642 -0.495729 -0.45221 0
M  V30 6520 H 633.186 -1.866 -0.836709 0
M  V30 6521 H 631.341 -2.00263 -3.31622 0
M  V30 6522 H 631.755 -4.20849 -3.13027 0
M  V30 6523 H 633.229 -3.19056 -4.50452 0
M  V30 6524 H 633.706 -1.5401 -4.11312 0
M  V30 6525 H 634.312 -2.8874 -3.12265 0
M  V30 6526 N 632.627 0.916307 -1.28225 0
M  V30 6527 C 633.559 2.02303 -1.07732 0
M  V30 6528 C 634.572 1.62773 -0.0298421 0
M  V30 6529 O 635.761 1.76406 -0.272626 0
M  V30 6530 C 632.861 3.33282 -0.614504 0
M  V30 6531 C 632.034 4.01439 -1.73682 0
M  V30 6532 C 631.093 5.10698 -1.26781 0
M  V30 6533 O 630.119 5.34038 -1.96958 0
M  V30 6534 N 631.321 5.80355 -0.129624 0
M  V30 6535 H 634.086 2.20442 -2.03041 0
M  V30 6536 H 631.647 1.08744 -1.19943 0
M  V30 6537 H 633.639 4.03699 -0.284397 0
M  V30 6538 H 632.209 3.11633 0.245664 0
M  V30 6539 H 631.429 3.24604 -2.23665 0
M  V30 6540 H 632.717 4.43721 -2.48976 0
M  V30 6541 H 632.115 5.6386 0.455847 0
M  V30 6542 H 630.672 6.51647 0.141224 0
M  V30 6543 N 634.105 1.10431 1.1244 0
M  V30 6544 C 635.015 0.765502 2.21759 0
M  V30 6545 C 636.031 -0.236966 1.72379 0
M  V30 6546 O 637.207 -0.0757329 2.01258 0
M  V30 6547 C 634.272 0.202316 3.46109 0
M  V30 6548 C 633.333 1.26205 4.1033 0
M  V30 6549 C 632.566 0.725648 5.28744 0
M  V30 6550 O 632.789 -0.447942 5.68638 0
M  V30 6551 O 631.723 1.48555 5.83279 0
M  V30 6552 H 635.549 1.67801 2.53133 0
M  V30 6553 H 633.134 0.879443 1.20773 0
M  V30 6554 H 635.016 -0.107918 4.21262 0
M  V30 6555 H 633.691 -0.683052 3.16411 0
M  V30 6556 H 632.598 1.62514 3.36957 0
M  V30 6557 H 633.931 2.12044 4.44183 0
M  V30 6558 N 635.583 -1.29855 0.893053 0
M  V30 6559 C 636.829 -1.96116 0.516349 0
M  V30 6560 C 637.162 -1.70281 -0.933695 0
M  V30 6561 O 636.437 -1.01205 -1.66096 0
M  V30 6562 C 636.72 -3.51068 0.801455 0
M  V30 6563 C 636.573 -3.86387 2.30272 0
M  V30 6564 C 637.892 -4.39186 0.283423 0
M  V30 6565 H 635.011 -0.712335 0.189072 0
M  V30 6566 H 637.653 -1.53587 1.11852 0
M  V30 6567 H 635.803 -3.87424 0.288949 0
M  V30 6568 H 637.475 -3.60012 2.88425 0
M  V30 6569 H 635.718 -3.34167 2.76613 0
M  V30 6570 H 636.389 -4.94512 2.45279 0
M  V30 6571 H 638.865 -4.09785 0.722187 0
M  V30 6572 H 637.741 -5.46505 0.512169 0
M  V30 6573 H 638.002 -4.34511 -0.815643 0
M  V30 6574 N 637.061 -0.65484 -1.43351 0
M  V30 6575 C 638.31 -0.166215 -2.01014 0
M  V30 6576 C 638.623 1.22764 -1.52278 0
M  V30 6577 O 639.829 1.81156 -2.02224 0
M  V30 6578 C 638.285 -0.246341 -3.59056 0
M  V30 6579 C 637.893 -1.64299 -4.16785 0
M  V30 6580 C 639.637 0.184597 -4.24098 0
M  V30 6581 C 637.544 -1.67695 -5.67126 0
M  V30 6582 H 636.474 -0.0583769 -0.751737 0
M  V30 6583 H 639.125 -0.817111 -1.64303 0
M  V30 6584 H 637.507 0.472092 -3.93176 0
M  V30 6585 H 638.681 -2.3869 -3.94162 0
M  V30 6586 H 636.996 -2.02004 -3.6412 0
M  V30 6587 H 639.593 0.179088 -5.344 0
M  V30 6588 H 639.936 1.21632 -3.98135 0
M  V30 6589 H 640.469 -0.482141 -3.94867 0
M  V30 6590 H 637.208 -2.68783 -5.9786 0
M  V30 6591 H 636.728 -0.976313 -5.91801 0
M  V30 6592 H 638.407 -1.42142 -6.31193 0
M  V30 6593 N 638.539 1.52521 -0.396863 0
M  V30 6594 C 639.787 2.01274 0.182536 0
M  V30 6595 C 640.108 1.28485 1.46685 0
M  V30 6596 O 639.378 0.407134 1.91623 0
M  V30 6597 H 637.958 0.743671 0.0704442 0
M  V30 6598 H 640.62 1.87547 -0.530289 0
M  V30 6599 H 639.716 3.09687 0.387385 0
M  V30 6600 N 640.017 0.126909 1.57088 0
M  V30 6601 C 641.294 -0.573152 1.87014 0
M  V30 6602 C 641.674 -1.84297 1.02945 0
M  V30 6603 O 641.022 -2.28232 0.110573 0
M  V30 6604 C 641.232 -0.857984 3.38289 0
M  V30 6605 C 642.58 -1.20759 4.07066 0
M  V30 6606 O 643.604 -0.947992 3.43353 0
M  V30 6607 O 642.463 -1.69516 5.19545 0
M  V30 6608 H 639.557 -0.290082 0.774456 0
M  V30 6609 H 642.103 0.162008 1.68925 0
M  V30 6610 H 640.875 0.0415286 3.91278 0
M  V30 6611 H 640.498 -1.64803 3.61837 0
M  V30 6612 N 641.495 -1.56914 -0.146875 0
M  V30 6613 C 642.725 -1.87243 -0.873126 0
M  V30 6614 C 643.133 -0.713127 -1.75246 0
M  V30 6615 O 642.476 0.326228 -1.8078 0
M  V30 6616 C 642.538 -3.12279 -1.78107 0
M  V30 6617 C 642.202 -4.44082 -1.07889 0
M  V30 6618 C 643.199 -5.18096 -0.432734 0
M  V30 6619 C 640.884 -4.90807 -1.06836 0
M  V30 6620 C 642.878 -6.37039 0.214569 0
M  V30 6621 C 640.565 -6.09674 -0.417243 0
M  V30 6622 C 641.563 -6.82636 0.223093 0
M  V30 6623 O 641.251 -7.99245 0.863884 0
M  V30 6624 H 640.983 -0.624896 -0.257839 0
M  V30 6625 H 643.537 -2.04892 -0.14434 0
M  V30 6626 H 641.767 -2.90639 -2.5508 0
M  V30 6627 H 643.456 -3.28854 -2.37929 0
M  V30 6628 H 644.222 -4.83066 -0.432677 0
M  V30 6629 H 640.101 -4.3394 -1.55618 0
M  V30 6630 H 643.645 -6.93927 0.714965 0
M  V30 6631 H 639.542 -6.44165 -0.414967 0
M  V30 6632 H 640.31 -8.14912 0.765564 0
M  V30 6633 N 642.974 0.416227 -1.52004 0
M  V30 6634 C 644.221 1.16383 -1.65714 0
M  V30 6635 C 644.549 1.9068 -0.383594 0
M  V30 6636 O 643.804 1.85174 0.633185 0
M  V30 6637 C 644.103 2.18923 -2.82502 0
M  V30 6638 C 643.769 1.61485 -4.20991 0
M  V30 6639 C 642.431 1.45545 -4.58661 0
M  V30 6640 C 644.783 1.19468 -5.07323 0
M  V30 6641 C 642.111 0.860937 -5.80349 0
M  V30 6642 C 644.463 0.614386 -6.29609 0
M  V30 6643 C 643.127 0.442056 -6.66035 0
M  V30 6644 H 642.397 0.425875 -0.606392 0
M  V30 6645 H 645.044 0.45199 -1.8609 0
M  V30 6646 H 643.349 2.96225 -2.56433 0
M  V30 6647 H 645.046 2.76628 -2.90307 0
M  V30 6648 H 641.636 1.74873 -3.91302 0
M  V30 6649 H 645.82 1.30596 -4.78809 0
M  V30 6650 H 641.076 0.715372 -6.072 0
M  V30 6651 H 645.25 0.280393 -6.95835 0
M  V30 6652 H 642.877 -0.0207218 -7.60197 0
M  V30 6653 N 644.452 1.42507 0.673017 0
M  V30 6654 C 645.7 1.42789 1.43023 0
M  V30 6655 C 646.021 0.0459738 1.94946 0
M  V30 6656 O 645.291 -0.915765 1.73178 0
M  V30 6657 H 643.871 0.525657 0.530748 0
M  V30 6658 H 646.533 1.77944 0.795113 0
M  V30 6659 H 645.629 2.12872 2.28237 0
M  V30 6660 N 645.93 -0.909495 1.28709 0
M  V30 6661 C 646.877 -2.01245 1.13 0
M  V30 6662 C 647.847 -1.6608 0.0259684 0
M  V30 6663 O 649.032 -1.89835 0.191687 0
M  V30 6664 C 646.172 -3.35644 0.802315 0
M  V30 6665 C 645.285 -3.83653 1.98582 0
M  V30 6666 C 644.42 -5.06582 1.59837 0
M  V30 6667 C 643.459 -5.46934 2.74827 0
M  V30 6668 N 642.596 -6.61053 2.36546 0
M  V30 6669 H 647.436 -2.14013 2.0737 0
M  V30 6670 H 644.973 -1.0482 1.03205 0
M  V30 6671 H 646.931 -4.12963 0.593057 0
M  V30 6672 H 645.561 -3.22631 -0.104457 0
M  V30 6673 H 644.613 -3.02454 2.30708 0
M  V30 6674 H 645.925 -4.09515 2.84779 0
M  V30 6675 H 645.079 -5.91457 1.35143 0
M  V30 6676 H 643.818 -4.82537 0.707753 0
M  V30 6677 H 642.823 -4.60599 3.00215 0
M  V30 6678 H 644.048 -5.72965 3.64538 0
M  V30 6679 H 641.994 -6.3863 1.49959 0
M  V30 6680 H 641.911 -6.86662 3.16277 0
M  V30 6681 H 643.179 -7.49221 2.15146 0
M  V30 6682 N 647.408 -1.11026 -1.11852 0
M  V30 6683 C 648.318 -0.777252 -2.2135 0
M  V30 6684 C 649.334 0.227821 -1.72502 0
M  V30 6685 O 650.51 0.0650587 -2.01295 0
M  V30 6686 C 647.575 -0.220668 -3.45997 0
M  V30 6687 C 646.636 -1.2838 -4.09655 0
M  V30 6688 C 645.869 -0.753678 -5.28352 0
M  V30 6689 O 646.092 0.417779 -5.68868 0
M  V30 6690 O 645.026 -1.51647 -5.82483 0
M  V30 6691 H 648.852 -1.69141 -2.5224 0
M  V30 6692 H 646.437 -0.885836 -1.20305 0
M  V30 6693 H 648.319 0.0855756 -4.21313 0
M  V30 6694 H 646.994 0.666262 -3.16769 0
M  V30 6695 H 645.901 -1.64299 -3.3609 0
M  V30 6696 H 647.234 -2.14396 -4.43052 0
M  V30 6697 N 648.886 1.2938 -0.899927 0
M  V30 6698 C 650.134 1.95164 -0.524924 0
M  V30 6699 C 650.455 1.71292 0.931888 0
M  V30 6700 O 649.725 1.04481 1.65712 0
M  V30 6701 H 648.305 0.722133 -0.191135 0
M  V30 6702 H 650.967 1.57628 -1.14627 0
M  V30 6703 H 650.063 3.0397 -0.707711 0
M  V30 6704 N 650.364 0.662433 1.43002 0
M  V30 6705 C 651.78 0.330835 1.56133 0
M  V30 6706 C 651.98 -1.16454 1.64441 0
M  V30 6707 O 651.036 -1.94964 1.60453 0
M  V30 6708 C 652.349 1.05029 2.81761 0
M  V30 6709 C 653.897 1.03142 2.95518 0
M  V30 6710 C 654.372 1.73196 4.2399 0
M  V30 6711 N 655.863 1.70004 4.30875 0
M  V30 6712 C 656.598 2.21074 5.29069 0
M  V30 6713 N 656.094 2.80473 6.33488 0
M  V30 6714 N 657.887 2.1152 5.20784 0
M  V30 6715 H 650.038 1.63272 1.35853 0
M  V30 6716 H 652.301 0.687149 0.653092 0
M  V30 6717 H 652.007 2.10542 2.81718 0
M  V30 6718 H 651.881 0.607664 3.72273 0
M  V30 6719 H 654.268 -0.0153339 2.95096 0
M  V30 6720 H 654.349 1.51282 2.0627 0
M  V30 6721 H 653.993 2.77833 4.25172 0
M  V30 6722 H 653.923 1.22515 5.1215 0
M  V30 6723 H 656.414 1.26667 3.56039 0
M  V30 6724 H 656.727 3.17094 7.04749 0
M  V30 6725 H 655.072 2.84538 6.34085 0
M  V30 6726 H 658.263 1.64814 4.38126 0
M  V30 6727 H 658.436 2.51629 5.97149 0
M  V30 6728 N 651.842 -1.52309 0.404946 0
M  V30 6729 C 653.089 -2.01767 -0.1722 0
M  V30 6730 C 653.417 -1.29075 -1.45498 0
M  V30 6731 O 652.672 -0.3843 -1.9189 0
M  V30 6732 C 652.971 -3.54284 -0.470895 0
M  V30 6733 C 652.637 -4.45079 0.722194 0
M  V30 6734 C 651.299 -4.69617 1.04946 0
M  V30 6735 C 653.651 -4.98555 1.51962 0
M  V30 6736 C 650.979 -5.44878 2.17543 0
M  V30 6737 C 653.331 -5.75049 2.63632 0
M  V30 6738 C 651.995 -5.9786 2.9685 0
M  V30 6739 H 651.265 -0.738316 -0.0630125 0
M  V30 6740 H 653.912 -1.83566 0.545506 0
M  V30 6741 H 652.217 -3.70642 -1.27012 0
M  V30 6742 H 653.914 -3.90058 -0.930346 0
M  V30 6743 H 650.504 -4.26155 0.457131 0
M  V30 6744 H 654.688 -4.79509 1.28002 0
M  V30 6745 H 649.944 -5.60762 2.43631 0
M  V30 6746 H 654.118 -6.15483 3.25813 0
M  V30 6747 H 651.745 -6.5596 3.84215 0
M  V30 6748 N 653.32 -0.135238 -1.57019 0
M  V30 6749 C 654.23 0.822226 -2.19719 0
M  V30 6750 C 655.246 1.28057 -1.17802 0
M  V30 6751 O 656.422 1.3402 -1.50335 0
M  V30 6752 C 653.487 2.0484 -2.79717 0
M  V30 6753 C 652.548 1.64042 -3.96723 0
M  V30 6754 C 651.781 2.80814 -4.53849 0
M  V30 6755 O 652.004 3.967 -4.0986 0
M  V30 6756 O 650.938 2.56963 -5.44292 0
M  V30 6757 H 654.764 0.318552 -3.02025 0
M  V30 6758 H 652.349 0.0912021 -1.49121 0
M  V30 6759 H 654.231 2.76622 -3.17897 0
M  V30 6760 H 652.906 2.54182 -2.00432 0
M  V30 6761 H 651.813 0.893182 -3.63281 0
M  V30 6762 H 653.146 1.19426 -4.77492 0
M  V30 6763 N 654.798 1.5699 0.138552 0
M  V30 6764 C 655.731 1.94064 1.2006 0
M  V30 6765 C 656.709 0.807601 1.41126 0
M  V30 6766 O 657.893 1.06399 1.556 0
M  V30 6767 C 655.02 2.21999 2.55801 0
M  V30 6768 C 654.066 3.44617 2.5128 0
M  V30 6769 S 654.899 4.97888 1.97149 0
M  V30 6770 C 656.055 5.28954 3.34602 0
M  V30 6771 H 656.288 2.83843 0.884337 0
M  V30 6772 H 653.821 1.50507 0.344517 0
M  V30 6773 H 655.779 2.38772 3.33914 0
M  V30 6774 H 654.44 1.32869 2.84613 0
M  V30 6775 H 653.633 3.61466 3.51224 0
M  V30 6776 H 653.235 3.27129 1.8128 0
M  V30 6777 H 655.527 5.22938 4.30745 0
M  V30 6778 H 656.47 6.30346 3.22598 0
M  V30 6779 H 656.878 4.56455 3.32128 0
M  V30 6780 N 656.276 -0.40816 1.52223 0
M  V30 6781 C 657.692 -0.74685 1.41047 0
M  V30 6782 C 657.892 -1.94788 0.51573 0
M  V30 6783 O 656.948 -2.52494 -0.0181156 0
M  V30 6784 C 658.261 -0.999878 2.83589 0
M  V30 6785 C 659.809 -1.10253 2.92939 0
M  V30 6786 C 660.284 -1.38832 4.36451 0
M  V30 6787 N 661.775 -1.45694 4.3969 0
M  V30 6788 C 662.51 -1.69435 5.47795 0
M  V30 6789 N 662.006 -1.90774 6.66016 0
M  V30 6790 N 663.799 -1.71458 5.35312 0
M  V30 6791 H 655.95 0.382409 2.08929 0
M  V30 6792 H 658.213 0.108807 0.941735 0
M  V30 6793 H 657.919 -0.189723 3.51188 0
M  V30 6794 H 657.793 -1.91978 3.24691 0
M  V30 6795 H 660.18 -1.90328 2.2552 0
M  V30 6796 H 660.261 -0.160973 2.55293 0
M  V30 6797 H 659.905 -0.592741 5.04429 0
M  V30 6798 H 659.835 -2.34241 4.71634 0
M  V30 6799 H 662.326 -1.3099 3.54472 0
M  V30 6800 H 662.639 -2.08342 7.44186 0
M  V30 6801 H 660.984 -1.88037 6.69079 0
M  V30 6802 H 664.175 -1.54326 4.41929 0
M  V30 6803 H 664.348 -1.89621 6.19635 0
M  V30 6804 N 657.755 -1.42862 -0.66545 0
M  V30 6805 C 659.166 -1.3901 -1.24632 0
M  V30 6806 C 659.517 -0.0880285 -1.96002 0
M  V30 6807 O 658.642 0.812947 -2.0055 0
M  V30 6808 C 659.237 -2.51806 -2.2667 0
M  V30 6809 C 657.796 -2.51257 -2.80262 0
M  V30 6810 C 656.943 -2.30124 -1.5472 0
M  V30 6811 H 659.894 -1.5194 -0.458237 0
M  V30 6812 H 659.915 -2.22593 -3.08598 0
M  V30 6813 H 659.427 -3.46558 -1.74697 0
M  V30 6814 H 657.528 -1.60349 -3.36332 0
M  V30 6815 H 657.641 -3.48614 -3.28641 0
M  V30 6816 H 656.005 -1.7856 -1.81627 0
M  V30 6817 H 656.788 -3.26945 -1.04699 0
M  V30 6818 N 659.233 0.902656 -1.29189 0
M  V30 6819 C 660.181 2.0278 -1.13943 0
M  V30 6820 C 661.175 1.69308 -0.055787 0
M  V30 6821 O 662.381 1.78707 -0.215371 0
M  V30 6822 H 658.756 0.664595 -0.351877 0
M  V30 6823 H 660.727 2.12778 -2.09208 0
M  V30 6824 C 659.476 3.37657 -0.82966 0
M  V30 6825 H 658.799 3.63913 -1.65551 0
M  V30 6826 H 660.239 4.17078 -0.762998 0
M  V30 6827 C 658.698 3.33648 0.466991 0
M  V30 6828 O 659.228 3.72886 1.49395 0
M  V30 6829 N 657.434 2.86745 0.471761 0
M  V30 6830 H 656.981 2.55009 -0.364406 0
M  V30 6831 H 656.939 2.84446 1.33933 0
M  V30 6832 N 660.711 1.11618 1.11262 0
M  V30 6833 C 661.957 0.867463 1.83311 0
M  V30 6834 C 662.29 -0.605366 1.84524 0
M  V30 6835 O 661.565 -1.44704 1.29965 0
M  V30 6836 C 661.848 1.43207 3.30399 0
M  V30 6837 C 661.701 2.97265 3.3757 0
M  V30 6838 C 663.02 1.08454 4.26528 0
M  V30 6839 H 660.139 0.316578 0.665543 0
M  V30 6840 H 662.781 1.38137 1.30454 0
M  V30 6841 H 660.931 0.994982 3.75543 0
M  V30 6842 H 662.603 3.49591 3.00971 0
M  V30 6843 H 660.846 3.33237 2.77733 0
M  V30 6844 H 661.517 3.31859 4.41105 0
M  V30 6845 H 663.993 1.4619 3.89574 0
M  V30 6846 H 662.869 1.50633 5.27826 0
M  V30 6847 H 663.13 -0.00444568 4.421 0
M  V30 6848 N 662.189 -1.289 0.906776 0
M  V30 6849 C 663.136 -2.2751 0.388313 0
M  V30 6850 C 664.106 -1.57301 -0.533439 0
M  V30 6851 O 665.291 -1.85243 -0.457148 0
M  V30 6852 C 662.431 -3.43091 -0.37181 0
M  V30 6853 C 661.544 -4.28066 0.581647 0
M  V30 6854 C 660.679 -5.30837 -0.19623 0
M  V30 6855 C 659.718 -6.07472 0.751294 0
M  V30 6856 N 658.855 -7.021 0.00737727 0
M  V30 6857 H 663.695 -2.71237 1.23428 0
M  V30 6858 H 661.232 -1.33397 0.619962 0
M  V30 6859 H 663.19 -4.08888 -0.828641 0
M  V30 6860 H 661.82 -3.00374 -1.18218 0
M  V30 6861 H 660.872 -3.62378 1.157 0
M  V30 6862 H 662.184 -4.81382 1.30665 0
M  V30 6863 H 661.338 -6.02485 -0.71394 0
M  V30 6864 H 660.077 -4.78272 -0.954324 0
M  V30 6865 H 659.082 -5.34682 1.28044 0
M  V30 6866 H 660.307 -6.62126 1.50883 0
M  V30 6867 H 658.253 -6.51894 -0.732854 0
M  V30 6868 H 658.17 -7.53004 0.672334 0
M  V30 6869 H 659.438 -7.77956 -0.490365 0
M  V30 6870 N 663.667 -0.670007 -1.42649 0
M  V30 6871 C 664.897 -0.198252 -2.05647 0
M  V30 6872 C 665.305 1.14786 -1.50402 0
M  V30 6873 O 664.648 1.72316 -0.636634 0
M  V30 6874 C 664.71 -0.0507132 -3.59464 0
M  V30 6875 C 664.374 -1.32478 -4.37377 0
M  V30 6876 C 665.371 -2.2572 -4.68344 0
M  V30 6877 C 663.056 -1.57104 -4.77099 0
M  V30 6878 C 665.05 -3.4187 -5.37963 0
M  V30 6879 C 662.737 -2.73543 -5.46459 0
M  V30 6880 C 663.735 -3.65751 -5.76815 0
M  V30 6881 O 663.423 -4.80154 -6.44753 0
M  V30 6882 H 663.155 -0.0950721 -0.669281 0
M  V30 6883 H 665.709 -0.915745 -1.83857 0
M  V30 6884 H 663.939 0.722314 -3.79894 0
M  V30 6885 H 665.628 0.380552 -4.04112 0
M  V30 6886 H 666.394 -2.07943 -4.38161 0
M  V30 6887 H 662.273 -0.862069 -4.52868 0
M  V30 6888 H 665.817 -4.13861 -5.61574 0
M  V30 6889 H 661.714 -2.91248 -5.7606 0
M  V30 6890 H 662.482 -4.79637 -6.63243 0
M  V30 6891 N 665.145 1.52092 -0.413018 0
M  V30 6892 C 666.556 1.86617 0.0556967 0
M  V30 6893 C 666.907 1.33156 1.44097 0
M  V30 6894 O 666.032 0.672417 2.05688 0
M  V30 6895 C 666.627 3.38628 0.107844 0
M  V30 6896 C 665.186 3.72778 0.520904 0
M  V30 6897 C 664.333 2.75649 -0.302109 0
M  V30 6898 H 667.284 1.45663 -0.629919 0
M  V30 6899 H 667.305 3.69152 0.922324 0
M  V30 6900 H 666.817 3.77508 -0.900506 0
M  V30 6901 H 664.918 3.39478 1.53575 0
M  V30 6902 H 665.031 4.7838 0.262591 0
M  V30 6903 H 663.395 2.53603 0.236115 0
M  V30 6904 H 664.178 3.17369 -1.30888 0
M  V30 6905 N 666.623 0.143563 1.56945 0
M  V30 6906 C 667.869 -0.502787 1.97088 0
M  V30 6907 C 668.224 -1.62703 1.02691 0
M  V30 6908 O 667.517 -1.91502 0.0613323 0
M  V30 6909 C 667.711 -1.05885 3.41355 0
M  V30 6910 C 667.54 0.00998209 4.49699 0
M  V30 6911 C 666.31 0.450229 5.0329 0
M  V30 6912 C 668.508 0.800174 5.08037 0
M  V30 6913 N 666.49 1.50227 5.95235 0
M  V30 6914 C 667.861 1.70279 5.96158 0
M  V30 6915 C 669.916 0.848344 4.9062 0
M  V30 6916 C 668.619 2.64945 6.68728 0
M  V30 6917 C 670.645 1.78281 5.63888 0
M  V30 6918 C 670.007 2.67296 6.51715 0
M  V30 6919 H 666.106 -0.152891 0.766908 0
M  V30 6920 H 668.69 0.23737 1.93248 0
M  V30 6921 H 666.861 -1.76863 3.45795 0
M  V30 6922 H 668.593 -1.67154 3.68567 0
M  V30 6923 H 665.348 0.0531355 4.7357 0
M  V30 6924 H 665.772 2.02795 6.45913 0
M  V30 6925 H 670.414 0.174228 4.22441 0
M  V30 6926 H 668.132 3.33358 7.36137 0
M  V30 6927 H 671.718 1.82584 5.52408 0
M  V30 6928 H 670.598 3.38428 7.07415 0
M  V30 6929 N 668.101 -1.57061 -0.130224 0
M  V30 6930 C 669.349 -1.83893 -0.838313 0
M  V30 6931 C 669.67 -0.727046 -1.80939 0
M  V30 6932 O 668.94 0.249927 -1.94299 0
M  V30 6933 H 667.52 -0.67846 -0.312573 0
M  V30 6934 H 670.182 -1.94529 -0.120224 0
M  V30 6935 H 669.278 -2.79419 -1.39038 0
M  V30 6936 N 669.579 0.400081 -1.52437 0
M  V30 6937 C 670.99 0.97851 -1.59003 0
M  V30 6938 C 671.341 1.91293 -0.436068 0
M  V30 6939 O 670.466 2.1183 0.442365 0
M  V30 6940 C 671.061 1.78145 -2.88184 0
M  V30 6941 C 669.62 2.30976 -2.97199 0
M  V30 6942 C 668.767 1.11212 -2.54022 0
M  V30 6943 H 671.718 0.180002 -1.57676 0
M  V30 6944 H 671.739 2.63968 -2.74046 0
M  V30 6945 H 671.251 1.1011 -3.72152 0
M  V30 6946 H 669.352 3.02355 -2.17744 0
M  V30 6947 H 669.465 2.61221 -4.01622 0
M  V30 6948 H 667.829 1.46882 -2.08081 0
M  V30 6949 H 668.612 0.447307 -3.40373 0
M  V30 6950 N 671.057 1.43213 0.657864 0
M  V30 6951 C 671.987 1.50815 1.78262 0
M  V30 6952 C 672.968 0.363211 1.66177 0
M  V30 6953 O 674.153 0.579806 1.85343 0
M  V30 6954 C 671.283 1.42625 3.16663 0
M  V30 6955 C 670.237 2.5532 3.43505 0
M  V30 6956 C 669.563 2.32184 4.81658 0
M  V30 6957 C 670.863 3.97583 3.38711 0
M  V30 6958 H 672.557 2.44954 1.72157 0
M  V30 6959 H 670.103 1.17896 0.82683 0
M  V30 6960 H 672.056 1.46548 3.95097 0
M  V30 6961 H 670.78 0.449877 3.23487 0
M  V30 6962 H 669.439 2.50742 2.6744 0
M  V30 6963 H 669.087 1.32801 4.85153 0
M  V30 6964 H 668.787 3.07724 5.00579 0
M  V30 6965 H 670.311 2.37883 5.62356 0
M  V30 6966 H 671.725 4.03673 4.07089 0
M  V30 6967 H 670.122 4.73112 3.69168 0
M  V30 6968 H 671.192 4.23049 2.36976 0
M  V30 6969 N 672.536 -0.895792 1.29666 0
M  V30 6970 C 673.483 -2.00035 1.15129 0
M  V30 6971 C 674.453 -1.66043 0.0435819 0
M  V30 6972 O 675.638 -1.89621 0.211811 0
M  V30 6973 C 672.778 -3.34774 0.83787 0
M  V30 6974 C 671.891 -3.81525 2.0264 0
M  V30 6975 C 671.026 -5.04858 1.65201 0
M  V30 6976 C 670.065 -5.43988 2.80612 0
M  V30 6977 N 669.202 -6.58507 2.43544 0
M  V30 6978 H 674.042 -2.11802 2.09628 0
M  V30 6979 H 671.579 -1.03719 1.04311 0
M  V30 6980 H 673.537 -4.12311 0.636824 0
M  V30 6981 H 672.167 -3.22724 -0.0702314 0
M  V30 6982 H 671.219 -2.9999 2.33903 0
M  V30 6983 H 672.531 -4.06472 2.89106 0
M  V30 6984 H 671.685 -5.8999 1.41408 0
M  V30 6985 H 670.424 -4.81759 0.758893 0
M  V30 6986 H 669.429 -4.57388 3.05083 0
M  V30 6987 H 670.654 -5.69066 3.70595 0
M  V30 6988 H 668.6 -6.37004 1.56724 0
M  V30 6989 H 668.517 -6.83269 3.23542 0
M  V30 6990 H 669.785 -7.46897 2.2308 0
M  V30 6991 N 674.014 -1.12206 -1.10668 0
M  V30 6992 C 674.944 -0.810086 -2.18997 0
M  V30 6993 C 675.925 0.225065 -1.68604 0
M  V30 6994 O 677.11 0.086783 -1.94006 0
M  V30 6995 C 674.24 -0.261262 -3.46316 0
M  V30 6996 C 673.194 -1.2292 -4.09969 0
M  V30 6997 C 672.52 -0.540713 -5.31959 0
M  V30 6998 C 673.82 -2.58295 -4.53962 0
M  V30 6999 H 675.514 -1.7159 -2.45352 0
M  V30 7000 H 673.06 -0.82646 -1.17922 0
M  V30 7001 H 675.013 -0.0307522 -4.21389 0
M  V30 7002 H 673.737 0.679879 -3.19445 0
M  V30 7003 H 672.396 -1.44548 -3.369 0
M  V30 7004 H 672.044 0.405492 -5.01363 0
M  V30 7005 H 671.744 -1.18637 -5.75499 0
M  V30 7006 H 673.268 -0.319184 -6.09765 0
M  V30 7007 H 674.682 -2.40709 -5.20319 0
M  V30 7008 H 673.079 -3.18916 -5.08343 0
M  V30 7009 H 674.149 -3.16918 -3.67002 0
M  V30 7010 N 675.492 1.28418 -0.913599 0
M  V30 7011 C 676.908 1.47411 -0.611728 0
M  V30 7012 C 677.108 1.83018 0.843008 0
M  V30 7013 O 676.164 1.93505 1.6221 0
M  V30 7014 C 677.477 2.57703 -1.5495 0
M  V30 7015 C 679.025 2.71572 -1.5562 0
M  V30 7016 C 679.5 3.85008 -2.48058 0
M  V30 7017 N 680.991 3.92361 -2.46184 0
M  V30 7018 C 681.726 4.79516 -3.14407 0
M  V30 7019 N 681.222 5.71262 -3.91958 0
M  V30 7020 N 683.015 4.73125 -3.03495 0
M  V30 7021 H 675.166 1.03585 -1.85429 0
M  V30 7022 H 677.429 0.515907 -0.795326 0
M  V30 7023 H 677.135 2.38298 -2.58663 0
M  V30 7024 H 677.009 3.54801 -1.28048 0
M  V30 7025 H 679.396 2.90366 -0.526441 0
M  V30 7026 H 679.477 1.75006 -1.86565 0
M  V30 7027 H 679.121 3.66969 -3.51136 0
M  V30 7028 H 679.051 4.80971 -2.14416 0
M  V30 7029 H 681.542 3.26749 -1.89851 0
M  V30 7030 H 681.855 6.34593 -4.41034 0
M  V30 7031 H 680.2 5.71103 -3.96063 0
M  V30 7032 H 683.391 4.00442 -2.42413 0
M  V30 7033 H 683.564 5.40834 -3.56935 0
M  V30 7034 N 676.97 0.677563 1.42291 0
M  V30 7035 C 678.219 0.198173 2.00724 0
M  V30 7036 C 678.532 -1.20325 1.54211 0
M  V30 7037 O 679.738 -1.77916 2.05081 0
M  V30 7038 C 678.194 0.303432 3.58619 0
M  V30 7039 C 677.802 1.70909 4.14119 0
M  V30 7040 C 679.546 -0.117103 4.24338 0
M  V30 7041 C 677.453 1.76696 5.64387 0
M  V30 7042 H 676.383 0.070329 0.750713 0
M  V30 7043 H 679.034 0.843147 1.62982 0
M  V30 7044 H 677.416 -0.409482 3.93877 0
M  V30 7045 H 678.59 2.44931 3.90315 0
M  V30 7046 H 676.905 2.07771 3.6086 0
M  V30 7047 H 679.502 -0.0940471 5.34617 0
M  V30 7048 H 679.845 -1.15283 4.00019 0
M  V30 7049 H 680.378 0.5449 3.9405 0
M  V30 7050 H 677.117 2.7826 5.93508 0
M  V30 7051 H 676.637 1.07034 5.90173 0
M  V30 7052 H 678.316 1.52166 6.28852 0
M  V30 7053 N 678.448 -1.51871 0.421078 0
M  V30 7054 C 679.725 -1.9447 -0.20993 0
M  V30 7055 C 680.105 -1.35875 -1.61558 0
M  V30 7056 O 679.453 -0.539294 -2.22045 0
M  V30 7057 C 679.663 -3.48402 -0.204165 0
M  V30 7058 C 681.011 -4.2254 -0.417696 0
M  V30 7059 O 682.035 -3.55074 -0.282999 0
M  V30 7060 O 680.894 -5.422 -0.684239 0
M  V30 7061 H 677.988 -0.815283 -0.138718 0
M  V30 7062 H 680.534 -1.62832 0.477884 0
M  V30 7063 H 679.306 -3.83464 0.779183 0
M  V30 7064 H 678.929 -3.86436 -0.935576 0
M  V30 7065 N 679.926 -0.151884 -1.56866 0
M  V30 7066 C 680.836 0.798876 -2.20579 0
M  V30 7067 C 681.852 1.268 -1.19154 0
M  V30 7068 O 683.028 1.32418 -1.51748 0
M  V30 7069 C 680.093 2.01861 -2.81874 0
M  V30 7070 C 679.154 1.59825 -3.9844 0
M  V30 7071 C 678.387 2.75984 -4.56802 0
M  V30 7072 O 678.61 3.92331 -4.14044 0
M  V30 7073 O 677.544 2.51175 -5.46987 0
M  V30 7074 H 681.37 0.2865 -3.02346 0
M  V30 7075 H 678.955 0.0753806 -1.4921 0
M  V30 7076 H 680.837 2.73235 -3.20813 0
M  V30 7077 H 679.512 2.52042 -2.03117 0
M  V30 7078 H 678.419 0.854601 -3.64208 0
M  V30 7079 H 679.752 1.14355 -4.78731 0
M  V30 7080 N 681.404 1.57128 0.121893 0
M  V30 7081 C 682.352 2.01109 1.16868 0
M  V30 7082 C 683.346 0.907532 1.43039 0
M  V30 7083 O 684.552 1.09274 1.43036 0
M  V30 7084 H 680.927 0.640539 0.393971 0
M  V30 7085 H 682.898 2.88261 0.771224 0
M  V30 7086 C 681.647 2.42887 2.48799 0
M  V30 7087 H 680.97 3.2737 2.29498 0
M  V30 7088 H 682.41 2.77461 3.20611 0
M  V30 7089 C 680.869 1.29137 3.11168 0
M  V30 7090 O 681.399 0.605756 3.97106 0
M  V30 7091 N 679.605 1.04916 2.71 0
M  V30 7092 H 679.152 1.60848 2.01211 0
M  V30 7093 H 679.11 0.290016 3.1306 0
M  V30 7094 N 682.882 -0.391992 1.52647 0
M  V30 7095 C 684.298 -0.731848 1.41831 0
M  V30 7096 C 684.498 -1.9423 0.536361 0
M  V30 7097 O 683.554 -2.52499 0.00866571 0
M  V30 7098 C 684.867 -0.969743 2.84634 0
M  V30 7099 C 686.415 -1.0714 2.94092 0
M  V30 7100 C 686.89 -1.34195 4.37899 0
M  V30 7101 N 688.381 -1.41023 4.41211 0
M  V30 7102 C 689.116 -1.63616 5.49561 0
M  V30 7103 N 688.612 -1.83699 6.68002 0
M  V30 7104 N 690.405 -1.65771 5.371 0
M  V30 7105 H 682.556 0.404547 2.08512 0
M  V30 7106 H 684.819 0.11879 0.940528 0
M  V30 7107 H 684.525 -0.152465 3.51369 0
M  V30 7108 H 684.399 -1.88523 3.26709 0
M  V30 7109 H 686.786 -1.87925 2.27526 0
M  V30 7110 H 686.867 -0.133887 2.55449 0
M  V30 7111 H 686.511 -0.539207 5.0503 0
M  V30 7112 H 686.441 -2.29226 4.74092 0
M  V30 7113 H 688.932 -1.27223 3.55841 0
M  V30 7114 H 689.245 -2.00437 7.46354 0
M  V30 7115 H 687.59 -1.8093 6.71036 0
M  V30 7116 H 690.781 -1.4963 4.43541 0
M  V30 7117 H 690.954 -1.83038 6.21612 0
M  V30 7118 N 684.36 -1.4356 -0.65026 0
M  V30 7119 C 685.609 -1.44619 -1.406 0
M  V30 7120 C 685.922 -0.0752645 -1.95455 0
M  V30 7121 O 687.128 0.0366832 -2.71475 0
M  V30 7122 C 685.584 -2.54511 -2.54465 0
M  V30 7123 C 685.192 -3.97723 -2.06204 0
M  V30 7124 C 686.936 -2.64768 -3.31811 0
M  V30 7125 C 684.843 -4.99075 -3.17298 0
M  V30 7126 H 683.773 -0.537983 -0.52829 0
M  V30 7127 H 686.424 -1.69559 -0.701561 0
M  V30 7128 H 684.806 -2.22777 -3.27393 0
M  V30 7129 H 685.98 -4.38932 -1.40267 0
M  V30 7130 H 684.295 -3.91538 -1.41729 0
M  V30 7131 H 686.892 -3.37664 -4.14593 0
M  V30 7132 H 687.235 -1.69936 -3.80036 0
M  V30 7133 H 687.768 -2.95817 -2.65964 0
M  V30 7134 H 684.507 -5.95469 -2.74038 0
M  V30 7135 H 684.027 -4.62476 -3.81937 0
M  V30 7136 H 685.706 -5.21913 -3.82382 0
M  V30 7137 N 685.838 0.888903 -1.30139 0
M  V30 7138 C 687.084 1.6428 -1.18912 0
M  V30 7139 C 687.417 1.92499 0.256477 0
M  V30 7140 O 686.692 1.54312 1.18397 0
M  V30 7141 C 686.975 2.9851 -2.01405 0
M  V30 7142 C 686.828 2.77288 -3.54163 0
M  V30 7143 C 688.147 3.99383 -1.84882 0
M  V30 7144 H 685.266 0.596148 -0.433333 0
M  V30 7145 H 687.908 1.0289 -1.5973 0
M  V30 7146 H 686.058 3.50907 -1.66722 0
M  V30 7147 H 687.73 2.31709 -3.98884 0
M  V30 7148 H 685.973 2.11867 -3.78543 0
M  V30 7149 H 686.644 3.72717 -4.07168 0
M  V30 7150 H 689.12 3.56132 -2.15196 0
M  V30 7151 H 687.996 4.91222 -2.44934 0
M  V30 7152 H 688.257 4.34674 -0.806902 0
M  V30 7153 N 687.317 1.12792 1.10072 0
M  V30 7154 C 688.227 0.812369 2.20086 0
M  V30 7155 C 689.243 -0.200349 1.72843 0
M  V30 7156 O 690.419 -0.0330262 2.01373 0
M  V30 7157 C 687.484 0.275685 3.45602 0
M  V30 7158 C 686.545 1.34881 4.07561 0
M  V30 7159 C 685.778 0.837639 5.27086 0
M  V30 7160 O 686.001 -0.327224 5.69461 0
M  V30 7161 O 684.935 1.60894 5.79997 0
M  V30 7162 H 688.761 1.73133 2.49517 0
M  V30 7163 H 686.346 0.904863 1.18881 0
M  V30 7164 H 688.228 -0.0185375 4.21396 0
M  V30 7165 H 686.903 -0.615783 3.17789 0
M  V30 7166 H 685.81 1.69625 3.33434 0
M  V30 7167 H 687.143 2.21418 4.39585 0
M  V30 7168 N 688.795 -1.27931 0.920396 0
M  V30 7169 C 689.745 -2.24727 0.384966 0
M  V30 7170 C 690.729 -1.52715 -0.506661 0
M  V30 7171 O 691.921 -1.73599 -0.345298 0
M  V30 7172 C 689.05 -3.41324 -0.3678 0
M  V30 7173 C 688.136 -4.20649 0.539925 0
M  V30 7174 N 688.527 -4.77906 1.6565 0
M  V30 7175 C 686.825 -4.4469 0.341557 0
M  V30 7176 C 687.526 -5.37652 2.22047 0
M  V30 7177 N 686.502 -5.2218 1.51093 0
M  V30 7178 H 690.304 -2.66572 1.23761 0
M  V30 7179 H 687.818 -1.42779 0.773819 0
M  V30 7180 H 689.815 -4.0976 -0.768277 0
M  V30 7181 H 688.475 -3.01012 -1.21746 0
M  V30 7182 H 689.486 -4.76073 2.03899 0
M  V30 7183 H 686.163 -4.14868 -0.468045 0
M  V30 7184 H 687.553 -5.92948 3.1601 0
M  V30 7185 N 690.273 -0.685099 -1.4193 0
M  V30 7186 C 691.501 -0.220372 -2.05723 0
M  V30 7187 C 691.916 1.12642 -1.51516 0
M  V30 7188 O 691.273 1.70182 -0.659114 0
M  V30 7189 C 691.324 -0.157974 -3.61155 0
M  V30 7190 O 691.045 -1.45156 -4.13354 0
M  V30 7191 C 692.546 0.329009 -4.42077 0
M  V30 7192 H 689.766 -0.104725 -0.662777 0
M  V30 7193 H 692.31 -0.934736 -1.81887 0
M  V30 7194 H 690.465 0.507144 -3.84066 0
M  V30 7195 H 690.879 -1.33172 -5.07312 0
M  V30 7196 H 692.353 0.321559 -5.51063 0
M  V30 7197 H 692.83 1.36608 -4.17414 0
M  V30 7198 H 693.436 -0.304737 -4.24207 0
M  V30 7199 N 691.751 1.51645 -0.429126 0
M  V30 7200 C 692.699 2.29119 0.400921 0
M  V30 7201 C 693.693 1.34628 1.02819 0
M  V30 7202 O 694.899 1.52004 0.964098 0
M  V30 7203 H 691.274 0.737273 0.148095 0
M  V30 7204 H 693.245 2.97144 -0.273457 0
M  V30 7205 C 691.994 3.13953 1.49429 0
M  V30 7206 H 691.317 3.86544 1.02097 0
M  V30 7207 H 692.757 3.71232 2.04849 0
M  V30 7208 C 691.216 2.28796 2.47293 0
M  V30 7209 O 691.746 1.94193 3.51642 0
M  V30 7210 N 689.952 1.92177 2.17982 0
M  V30 7211 H 689.499 2.20517 1.33154 0
M  V30 7212 H 689.457 1.35497 2.83704 0
M  V30 7213 N 693.229 0.160201 1.56784 0
M  V30 7214 C 694.454 -0.497373 2.01348 0
M  V30 7215 C 694.879 -1.56757 1.03966 0
M  V30 7216 O 694.237 -1.81292 0.0174455 0
M  V30 7217 C 694.285 -1.0628 3.44582 0
M  V30 7218 O 693.389 -2.17723 3.50244 0
M  V30 7219 H 692.73 -0.120295 0.653012 0
M  V30 7220 H 695.26 0.260821 2.02931 0
M  V30 7221 H 695.27 -1.38819 3.83658 0
M  V30 7222 H 693.945 -0.279166 4.14962 0
M  V30 7223 H 692.522 -1.86313 3.2302 0
M  V30 7224 N 694.707 -1.5719 -0.113559 0
M  V30 7225 C 695.932 -1.89702 -0.838336 0
M  V30 7226 C 696.357 -0.752679 -1.72384 0
M  V30 7227 O 695.715 0.296575 -1.78858 0
M  V30 7228 C 695.763 -3.20989 -1.64312 0
M  V30 7229 O 694.867 -3.07278 -2.75053 0
M  V30 7230 H 694.208 -0.622339 -0.231496 0
M  V30 7231 H 696.738 -2.04382 -0.0943228 0
M  V30 7232 H 696.748 -3.53843 -2.03123 0
M  V30 7233 H 695.423 -4.03869 -0.993119 0
M  V30 7234 H 694 -2.85901 -2.39406 0
M  V30 7235 N 696.185 0.383891 -1.52853 0
M  V30 7236 C 697.596 0.961591 -1.60032 0
M  V30 7237 C 697.947 1.90819 -0.456333 0
M  V30 7238 O 697.072 2.12288 0.419873 0
M  V30 7239 C 697.667 1.75078 -2.90057 0
M  V30 7240 C 696.226 2.2781 -2.99632 0
M  V30 7241 C 695.373 1.08512 -2.55187 0
M  V30 7242 H 698.324 0.163269 -1.57858 0
M  V30 7243 H 698.345 2.61046 -2.7683 0
M  V30 7244 H 697.857 1.06157 -3.73299 0
M  V30 7245 H 695.958 3.00028 -2.20939 0
M  V30 7246 H 696.071 2.56947 -4.0437 0
M  V30 7247 H 694.435 1.44667 -2.09627 0
M  V30 7248 H 695.218 0.41118 -3.40829 0
M  V30 7249 N 697.663 1.43903 0.642637 0
M  V30 7250 C 698.903 1.47591 1.41408 0
M  V30 7251 C 699.267 0.101313 1.91733 0
M  V30 7252 O 700.468 0.0128797 2.68797 0
M  V30 7253 C 698.739 2.4977 2.55636 0
M  V30 7254 S 700.298 2.72417 3.43998 0
M  V30 7255 H 697.116 0.522163 0.482563 0
M  V30 7256 H 699.718 1.80745 0.745085 0
M  V30 7257 H 698.422 3.48365 2.16956 0
M  V30 7258 H 697.953 2.1815 3.27375 0
M  V30 7259 H 699.968 2.03142 4.52712 0
M  V30 7260 N 699.141 -0.881989 1.30609 0
M  V30 7261 C 700.088 -1.98803 1.17244 0
M  V30 7262 C 701.058 -1.65987 0.0611905 0
M  V30 7263 O 702.243 -1.89385 0.231911 0
M  V30 7264 C 699.383 -3.33867 0.87333 0
M  V30 7265 C 698.496 -3.79354 2.06675 0
M  V30 7266 C 697.631 -5.03078 1.70547 0
M  V30 7267 C 696.67 -5.40981 2.86366 0
M  V30 7268 N 695.807 -6.55886 2.50514 0
M  V30 7269 H 700.647 -2.09566 2.11863 0
M  V30 7270 H 698.184 -1.02607 1.05405 0
M  V30 7271 H 700.142 -4.11612 0.680519 0
M  V30 7272 H 698.772 -3.2278 -0.0359983 0
M  V30 7273 H 697.824 -2.97492 2.37071 0
M  V30 7274 H 699.136 -4.03382 2.93401 0
M  V30 7275 H 698.29 -5.88457 1.47658 0
M  V30 7276 H 697.029 -4.80927 0.809947 0
M  V30 7277 H 696.034 -4.54127 3.09917 0
M  V30 7278 H 697.259 -5.65104 3.76609 0
M  V30 7279 H 695.205 -6.35306 1.63471 0
M  V30 7280 H 695.122 -6.79799 3.30771 0
M  V30 7281 H 696.39 -7.44489 2.30989 0
M  V30 7282 N 700.619 -1.13374 -1.09472 0
M  V30 7283 C 701.844 -0.918711 -1.85942 0
M  V30 7284 C 702.269 0.527225 -1.8056 0
M  V30 7285 O 701.627 1.37408 -1.18274 0
M  V30 7286 C 701.675 -1.41056 -3.31867 0
M  V30 7287 O 700.779 -0.595496 -4.08078 0
M  V30 7288 H 700.12 -0.329297 -0.576593 0
M  V30 7289 H 702.65 -1.50829 -1.38245 0
M  V30 7290 H 702.66 -1.41398 -3.82715 0
M  V30 7291 H 701.335 -2.46335 -3.35099 0
M  V30 7292 H 699.912 -0.659911 -3.67014 0
M  V30 7293 N 702.098 1.27442 -0.927168 0
M  V30 7294 C 703.323 1.99036 -0.583042 0
M  V30 7295 C 703.748 1.68711 0.83176 0
M  V30 7296 O 703.106 0.927081 1.55804 0
M  V30 7297 C 703.154 3.51271 -0.814925 0
M  V30 7298 O 702.258 4.12226 0.119742 0
M  V30 7299 H 701.599 0.624883 -0.224538 0
M  V30 7300 H 704.129 1.62263 -1.24628 0
M  V30 7301 H 704.139 4.01411 -0.730282 0
M  V30 7302 H 702.814 3.72676 -1.84623 0
M  V30 7303 H 701.391 3.72897 -0.0147688 0
M  V30 7304 N 703.576 0.692616 1.41565 0
M  V30 7305 C 704.824 0.221896 2.00878 0
M  V30 7306 C 705.145 -1.18164 1.5512 0
M  V30 7307 O 704.415 -1.79679 0.78054 0
M  V30 7308 H 702.995 0.0790463 0.742806 0
M  V30 7309 H 705.657 0.893115 1.73232 0
M  V30 7310 H 704.753 0.23702 3.11199 0
M  V30 7311 N 705.054 -1.51416 0.437162 0
M  V30 7312 C 706.302 -2.01687 -0.129108 0
M  V30 7313 C 706.623 -1.32329 -1.43227 0
M  V30 7314 O 705.893 -0.457796 -1.90476 0
M  V30 7315 H 704.473 -0.745277 -0.0507023 0
M  V30 7316 H 707.135 -1.86075 0.579828 0
M  V30 7317 H 706.231 -3.10605 -0.305141 0
M  V30 7318 N 706.532 -0.168513 -1.56696 0
M  V30 7319 C 707.462 0.758563 -2.20835 0
M  V30 7320 C 708.443 1.24121 -1.1631 0
M  V30 7321 O 709.628 1.29487 -1.4473 0
M  V30 7322 C 706.758 1.9892 -2.8469 0
M  V30 7323 C 705.712 1.64252 -3.95228 0
M  V30 7324 C 705.038 2.94757 -4.46119 0
M  V30 7325 C 706.338 0.872675 -5.14958 0
M  V30 7326 H 708.032 0.223953 -2.98561 0
M  V30 7327 H 705.578 0.106277 -1.43607 0
M  V30 7328 H 707.531 2.64275 -3.28233 0
M  V30 7329 H 706.255 2.5479 -2.04327 0
M  V30 7330 H 704.914 1.01266 -3.52336 0
M  V30 7331 H 704.562 3.48662 -3.62552 0
M  V30 7332 H 704.262 2.72316 -5.2069 0
M  V30 7333 H 705.786 3.61147 -4.92347 0
M  V30 7334 H 707.2 1.42875 -5.55211 0
M  V30 7335 H 705.597 0.747402 -5.95428 0
M  V30 7336 H 706.667 -0.131535 -4.84722 0
M  V30 7337 N 708.01 1.57248 0.105221 0
M  V30 7338 C 708.92 2.04653 1.14693 0
M  V30 7339 C 709.936 0.969488 1.44489 0
M  V30 7340 O 711.112 1.28196 1.55331 0
M  V30 7341 C 708.177 2.45297 2.45011 0
M  V30 7342 C 707.238 3.67148 2.22489 0
M  V30 7343 C 706.471 4.05844 3.46592 0
M  V30 7344 O 706.694 3.44736 4.54437 0
M  V30 7345 O 705.628 4.98862 3.36779 0
M  V30 7346 H 709.454 2.93663 0.774336 0
M  V30 7347 H 707.039 1.45998 0.31701 0
M  V30 7348 H 708.921 2.72112 3.21766 0
M  V30 7349 H 707.596 1.59429 2.81717 0
M  V30 7350 H 706.503 3.45463 1.43547 0
M  V30 7351 H 707.836 4.53764 1.9068 0
M  V30 7352 N 709.488 -0.375779 1.53054 0
M  V30 7353 C 710.398 -1.48381 1.81715 0
M  V30 7354 C 711.414 -1.59087 0.704795 0
M  V30 7355 O 712.59 -1.75174 0.993785 0
M  V30 7356 C 709.655 -2.83767 1.99192 0
M  V30 7357 C 708.716 -2.82673 3.23102 0
M  V30 7358 C 707.949 -4.11601 3.39736 0
M  V30 7359 O 708.172 -5.07243 2.60885 0
M  V30 7360 O 707.106 -4.18034 4.33049 0
M  V30 7361 H 710.932 -1.27089 2.7583 0
M  V30 7362 H 708.517 -0.564902 1.38308 0
M  V30 7363 H 710.399 -3.64004 2.12318 0
M  V30 7364 H 709.074 -3.05057 1.08267 0
M  V30 7365 H 707.981 -2.0117 3.15407 0
M  V30 7366 H 709.314 -2.66335 4.13916 0
M  V30 7367 N 710.966 -1.44241 -0.634997 0
M  V30 7368 C 712.191 -1.50516 -1.42687 0
M  V30 7369 C 712.616 -0.129864 -1.87651 0
M  V30 7370 O 711.974 0.880164 -1.58502 0
M  V30 7371 C 712.022 -2.4714 -2.62591 0
M  V30 7372 O 711.126 -1.97025 -3.62291 0
M  V30 7373 H 710.467 -0.50841 -0.427101 0
M  V30 7374 H 712.997 -1.89337 -0.775408 0
M  V30 7375 H 713.007 -2.65048 -3.10183 0
M  V30 7376 H 711.682 -3.47039 -2.29209 0
M  V30 7377 H 710.259 -1.88866 -3.21534 0
M  V30 7378 N 712.444 0.87505 -1.31075 0
M  V30 7379 C 713.407 1.96333 -1.18263 0
M  V30 7380 C 714.407 1.60416 -0.111106 0
M  V30 7381 O 715.597 1.7044 -0.359987 0
M  V30 7382 C 712.729 3.31036 -0.81414 0
M  V30 7383 H 713.922 2.09125 -2.14958 0
M  V30 7384 H 711.475 1.06271 -1.14614 0
M  V30 7385 H 712.21 3.23944 0.151875 0
M  V30 7386 H 711.995 3.58476 -1.58862 0
M  V30 7387 H 713.485 4.10842 -0.748249 0
M  V30 7388 N 713.922 1.13953 1.08869 0
M  V30 7389 C 715.168 0.906151 1.8143 0
M  V30 7390 C 715.501 -0.566089 1.85766 0
M  V30 7391 O 714.776 -1.41915 1.33006 0
M  V30 7392 C 715.059 1.50183 3.27287 0
M  V30 7393 C 714.912 3.04359 3.31189 0
M  V30 7394 C 716.231 1.17477 4.24131 0
M  V30 7395 H 713.35 0.330624 0.658678 0
M  V30 7396 H 715.992 1.40873 1.27495 0
M  V30 7397 H 714.142 1.07442 3.73348 0
M  V30 7398 H 715.814 3.55896 2.93488 0
M  V30 7399 H 714.057 3.39053 2.70602 0
M  V30 7400 H 714.728 3.41141 4.33966 0
M  V30 7401 H 717.204 1.5442 3.86385 0
M  V30 7402 H 716.08 1.61795 5.24513 0
M  V30 7403 H 716.341 0.0893312 4.4201 0
M  V30 7404 N 715.4 -1.26948 0.933913 0
M  V30 7405 C 716.628 -1.98186 0.59414 0
M  V30 7406 C 717.043 -1.69614 -0.829257 0
M  V30 7407 O 716.4 -0.960213 -1.55197 0
M  V30 7408 C 716.451 -3.52123 0.818026 0
M  V30 7409 O 716.172 -3.79698 2.18543 0
M  V30 7410 C 717.673 -4.40608 0.48781 0
M  V30 7411 H 714.893 -0.632305 0.224569 0
M  V30 7412 H 717.437 -1.61646 1.25263 0
M  V30 7413 H 715.592 -3.86851 0.206246 0
M  V30 7414 H 716.006 -4.7426 2.24005 0
M  V30 7415 H 717.48 -5.47606 0.695126 0
M  V30 7416 H 717.957 -4.35394 -0.576913 0
M  V30 7417 H 718.563 -4.11411 1.078 0
M  V30 7418 N 716.879 -0.700114 -1.41195 0
M  V30 7419 C 718.127 -0.232546 -2.00758 0
M  V30 7420 C 718.448 1.1734 -1.55745 0
M  V30 7421 O 717.718 1.79262 -0.790058 0
M  V30 7422 H 716.298 -0.0829845 -0.742376 0
M  V30 7423 H 718.96 -0.902289 -1.72756 0
M  V30 7424 H 718.056 -0.253521 -3.11069 0
M  V30 7425 N 718.357 1.51182 -0.445186 0
M  V30 7426 C 719.606 2.01342 0.120189 0
M  V30 7427 C 719.919 1.33353 1.43095 0
M  V30 7428 O 721.125 1.74525 2.07974 0
M  V30 7429 C 719.581 3.58925 0.264732 0
M  V30 7430 C 719.189 4.35855 -1.03606 0
M  V30 7431 C 720.933 4.17208 0.783455 0
M  V30 7432 C 718.84 5.85162 -0.856731 0
M  V30 7433 H 717.77 0.752426 0.0486922 0
M  V30 7434 H 720.421 1.74221 -0.576143 0
M  V30 7435 H 718.803 3.82525 1.02425 0
M  V30 7436 H 719.977 4.23997 -1.80452 0
M  V30 7437 H 718.292 3.89062 -1.48391 0
M  V30 7438 H 720.889 5.26475 0.934239 0
M  V30 7439 H 721.232 3.76892 1.768 0
M  V30 7440 H 721.765 3.97715 0.0820346 0
M  V30 7441 H 718.504 6.29904 -1.81388 0
M  V30 7442 H 718.024 5.99663 -0.128206 0
M  V30 7443 H 719.703 6.44963 -0.513027 0
M  V30 7444 N 719.835 0.176821 1.56605 0
M  V30 7445 C 721.081 -0.467406 1.9734 0
M  V30 7446 C 721.414 -1.62523 1.06301 0
M  V30 7447 O 720.689 -1.94182 0.11125 0
M  V30 7448 C 720.972 -0.945106 3.47476 0
M  V30 7449 C 720.825 0.213273 4.49294 0
M  V30 7450 C 722.144 -1.8169 4.00845 0
M  V30 7451 H 719.263 -0.168426 0.717497 0
M  V30 7452 H 721.905 0.264065 1.88156 0
M  V30 7453 H 720.055 -1.56841 3.55434 0
M  V30 7454 H 721.727 0.850508 4.53392 0
M  V30 7455 H 719.97 0.867918 4.25029 0
M  V30 7456 H 720.641 -0.163187 5.51759 0
M  V30 7457 H 723.117 -1.29139 3.95553 0
M  V30 7458 H 721.993 -2.12015 5.06301 0
M  V30 7459 H 722.254 -2.76463 3.44994 0
M  V30 7460 N 721.313 -1.57302 -0.09688 0
M  V30 7461 C 722.559 -1.86273 -0.801885 0
M  V30 7462 C 722.892 -0.765694 -1.78468 0
M  V30 7463 O 722.167 0.226495 -1.93177 0
M  V30 7464 C 722.45 -3.25876 -1.53221 0
M  V30 7465 C 722.303 -4.46205 -0.567529 0
M  V30 7466 C 723.622 -3.63352 -2.48321 0
M  V30 7467 H 720.741 -0.67752 -0.29006 0
M  V30 7468 H 723.383 -1.89887 -0.0655577 0
M  V30 7469 H 721.533 -3.22926 -2.15988 0
M  V30 7470 H 723.205 -4.6127 0.0529982 0
M  V30 7471 H 721.448 -4.33636 0.119233 0
M  V30 7472 H 722.119 -5.40608 -1.11564 0
M  V30 7473 H 724.595 -3.67234 -1.95648 0
M  V30 7474 H 723.471 -4.61968 -2.9644 0
M  V30 7475 H 723.732 -2.91941 -3.31998 0
M  V30 7476 N 722.791 0.367657 -1.53252 0
M  V30 7477 C 724.039 1.10832 -1.68999 0
M  V30 7478 C 724.36 1.89894 -0.443306 0
M  V30 7479 O 723.63 1.88235 0.54262 0
M  V30 7480 H 722.21 0.412153 -0.623008 0
M  V30 7481 H 724.872 0.414775 -1.90435 0
M  V30 7482 H 723.968 1.7993 -2.55013 0
M  V30 7483 N 724.269 1.44576 0.627338 0
M  V30 7484 C 725.232 1.51372 1.72102 0
M  V30 7485 C 726.232 0.395329 1.55865 0
M  V30 7486 O 727.422 0.658094 1.61291 0
M  V30 7487 C 724.554 1.39129 3.11217 0
M  V30 7488 H 725.747 2.48798 1.6745 0
M  V30 7489 H 723.3 1.31724 0.841336 0
M  V30 7490 H 724.035 0.428114 3.21462 0
M  V30 7491 H 723.82 2.20229 3.24409 0
M  V30 7492 H 725.31 1.46874 3.90919 0
M  V30 7493 N 725.747 -0.868086 1.31537 0
M  V30 7494 C 726.677 -1.99131 1.21939 0
M  V30 7495 C 727.658 -1.69768 0.106166 0
M  V30 7496 O 728.843 -1.92006 0.291081 0
M  V30 7497 C 725.973 -3.34676 0.927879 0
M  V30 7498 C 724.927 -3.7835 2.00088 0
M  V30 7499 C 724.253 -5.11375 1.56203 0
M  V30 7500 C 725.553 -3.95256 3.41424 0
M  V30 7501 H 727.247 -2.07419 2.15911 0
M  V30 7502 H 724.793 -0.996569 1.03945 0
M  V30 7503 H 726.746 -4.12793 0.847327 0
M  V30 7504 H 725.47 -3.26565 -0.0475042 0
M  V30 7505 H 724.129 -3.02474 2.07135 0
M  V30 7506 H 723.777 -4.99709 0.57445 0
M  V30 7507 H 723.477 -5.41568 2.27985 0
M  V30 7508 H 725.001 -5.92001 1.49558 0
M  V30 7509 H 726.415 -4.63764 3.3704 0
M  V30 7510 H 724.812 -4.36849 4.1144 0
M  V30 7511 H 725.882 -2.98579 3.82072 0
M  V30 7512 N 727.225 -1.14528 -1.08264 0
M  V30 7513 C 728.155 -0.856356 -2.1723 0
M  V30 7514 C 729.136 0.189251 -1.69044 0
M  V30 7515 O 730.321 0.0456119 -1.94146 0
M  V30 7516 C 727.451 -0.334662 -3.45684 0
M  V30 7517 C 726.405 -1.31588 -4.0727 0
M  V30 7518 C 725.731 -0.653428 -5.30692 0
M  V30 7519 C 727.031 -2.67866 -4.48381 0
M  V30 7520 H 728.725 -1.76755 -2.41657 0
M  V30 7521 H 726.271 -0.851287 -1.16143 0
M  V30 7522 H 728.224 -0.120128 -4.21229 0
M  V30 7523 H 726.948 0.611967 -3.20815 0
M  V30 7524 H 725.607 -1.51661 -3.33758 0
M  V30 7525 H 725.255 0.299054 -5.0211 0
M  V30 7526 H 724.955 -1.30817 -5.72853 0
M  V30 7527 H 726.479 -0.448453 -6.08951 0
M  V30 7528 H 727.893 -2.51692 -5.15096 0
M  V30 7529 H 726.29 -3.29627 -5.01464 0
M  V30 7530 H 727.36 -3.24632 -3.60198 0
M  V30 7531 N 728.703 1.26451 -0.940633 0
M  V30 7532 C 729.951 1.93395 -0.586748 0
M  V30 7533 C 730.272 1.7417 0.876921 0
M  V30 7534 O 729.542 1.097 1.62304 0
M  V30 7535 H 728.122 0.715687 -0.214012 0
M  V30 7536 H 730.784 1.53902 -1.19584 0
M  V30 7537 H 729.88 3.01565 -0.804059 0
M  V30 7538 N 730.181 0.707592 1.40822 0
M  V30 7539 C 731.144 0.0587224 2.29125 0
M  V30 7540 C 732.144 -0.695624 1.44975 0
M  V30 7541 O 733.334 -0.528718 1.65983 0
M  V30 7542 C 730.466 -0.926939 3.28056 0
M  V30 7543 H 731.659 0.836349 2.88002 0
M  V30 7544 H 729.212 0.471778 1.4901 0
M  V30 7545 H 729.947 -1.7319 2.74182 0
M  V30 7546 H 729.732 -0.389015 3.90165 0
M  V30 7547 H 731.222 -1.37837 3.94196 0
M  V30 7548 N 731.66 -1.50943 0.453197 0
M  V30 7549 C 732.908 -2.01813 -0.107709 0
M  V30 7550 C 733.229 -1.33841 -1.41816 0
M  V30 7551 O 732.499 -0.477973 -1.8998 0
M  V30 7552 H 731.079 -0.745773 -0.0427948 0
M  V30 7553 H 733.741 -1.8545 0.599531 0
M  V30 7554 H 732.837 -3.10911 -0.27218 0
M  V30 7555 N 733.138 -0.185124 -1.56509 0
M  V30 7556 C 734.068 0.735098 -2.21627 0
M  V30 7557 C 735.049 1.2288 -1.1762 0
M  V30 7558 O 736.234 1.27945 -1.46095 0
M  V30 7559 C 733.364 1.95889 -2.86783 0
M  V30 7560 C 732.318 1.6005 -3.96948 0
M  V30 7561 C 731.644 2.90009 -4.4922 0
M  V30 7562 C 732.944 0.818008 -5.15855 0
M  V30 7563 H 734.638 0.192274 -2.98782 0
M  V30 7564 H 732.184 0.0910393 -1.43712 0
M  V30 7565 H 734.137 2.60779 -3.31017 0
M  V30 7566 H 732.861 2.52608 -2.07018 0
M  V30 7567 H 731.52 0.975237 -3.5339 0
M  V30 7568 H 731.168 3.44797 -3.6623 0
M  V30 7569 H 730.868 2.66778 -5.23549 0
M  V30 7570 H 732.392 3.55904 -4.9615 0
M  V30 7571 H 733.806 1.36979 -5.56695 0
M  V30 7572 H 732.203 0.684207 -5.96187 0
M  V30 7573 H 733.273 -0.182939 -4.84555 0
M  V30 7574 N 734.616 1.57351 0.0885366 0
M  V30 7575 C 735.546 2.05561 1.10757 0
M  V30 7576 C 736.527 0.945789 1.41382 0
M  V30 7577 O 737.712 1.21747 1.51299 0
M  V30 7578 C 734.842 2.48554 2.42566 0
M  V30 7579 C 733.796 3.63259 2.26334 0
M  V30 7580 C 733.122 3.9225 3.63378 0
M  V30 7581 C 734.422 4.93913 1.69844 0
M  V30 7582 H 736.116 2.90946 0.706468 0
M  V30 7583 H 733.662 1.39968 0.338385 0
M  V30 7584 H 735.615 2.8089 3.14132 0
M  V30 7585 H 734.339 1.60176 2.84625 0
M  V30 7586 H 732.998 3.31179 1.57213 0
M  V30 7587 H 732.646 3.0103 4.02976 0
M  V30 7588 H 732.346 4.69478 3.53362 0
M  V30 7589 H 733.87 4.27067 4.36401 0
M  V30 7590 H 735.284 5.24588 2.31258 0
M  V30 7591 H 733.681 5.75349 1.70569 0
M  V30 7592 H 734.751 4.80409 0.65843 0
M  V30 7593 N 736.094 -0.359525 1.53444 0
M  V30 7594 C 737.027 -1.46338 1.75101 0
M  V30 7595 C 738.005 -1.51142 0.599559 0
M  V30 7596 O 739.189 -1.69102 0.832862 0
M  V30 7597 C 736.316 -2.84667 1.83527 0
M  V30 7598 C 735.362 -2.9756 3.05549 0
M  V30 7599 S 736.195 -2.65685 4.64943 0
M  V30 7600 C 737.351 -4.06153 4.76225 0
M  V30 7601 H 737.584 -1.27747 2.68455 0
M  V30 7602 H 735.117 -0.554231 1.4411 0
M  V30 7603 H 737.075 -3.64368 1.89067 0
M  V30 7604 H 735.736 -3.00564 0.912147 0
M  V30 7605 H 734.929 -3.98883 3.08072 0
M  V30 7606 H 734.531 -2.25789 2.98153 0
M  V30 7607 H 736.823 -5.00475 4.56652 0
M  V30 7608 H 737.766 -4.08632 5.78295 0
M  V30 7609 H 738.174 -3.93435 4.04808 0
M  V30 7610 N 737.572 -1.44907 -0.619662 0
M  V30 7611 C 738.535 -1.52282 -1.71297 0
M  V30 7612 C 739.535 -0.40359 -1.55653 0
M  V30 7613 O 740.725 -0.666638 -1.6094 0
M  V30 7614 C 737.857 -1.40778 -3.10474 0
M  V30 7615 H 739.05 -2.49683 -1.66128 0
M  V30 7616 H 736.603 -1.32168 -0.834339 0
M  V30 7617 H 737.338 -0.445156 -3.2123 0
M  V30 7618 H 737.123 -2.21947 -3.23237 0
M  V30 7619 H 738.613 -1.48946 -3.90135 0
M  V30 7620 N 739.05 0.861098 -1.31996 0
M  V30 7621 C 740.297 1.61481 -1.22188 0
M  V30 7622 C 740.625 1.93276 0.217853 0
M  V30 7623 O 739.88 1.56942 1.16909 0
M  V30 7624 C 740.179 2.94822 -2.02027 0
M  V30 7625 C 739.845 2.82483 -3.51446 0
M  V30 7626 C 738.507 2.78825 -3.92186 0
M  V30 7627 C 740.859 2.68878 -4.46491 0
M  V30 7628 C 738.187 2.59433 -5.26224 0
M  V30 7629 C 740.539 2.51022 -5.80664 0
M  V30 7630 C 739.203 2.45753 -6.20614 0
M  V30 7631 H 738.473 0.590902 -0.447119 0
M  V30 7632 H 741.12 0.999376 -1.63355 0
M  V30 7633 H 739.425 3.6045 -1.53569 0
M  V30 7634 H 741.122 3.52149 -1.91812 0
M  V30 7635 H 737.712 2.86152 -3.19085 0
M  V30 7636 H 741.896 2.70754 -4.1594 0
M  V30 7637 H 737.152 2.53784 -5.5624 0
M  V30 7638 H 741.326 2.39473 -6.53931 0
M  V30 7639 H 738.953 2.30485 -7.24417 0
M  V30 7640 N 740.528 1.15101 1.07655 0
M  V30 7641 C 741.758 0.946357 1.83651 0
M  V30 7642 C 742.166 -0.508641 1.82235 0
M  V30 7643 O 741.509 -1.36445 1.22997 0
M  V30 7644 C 741.571 1.37945 3.31981 0
M  V30 7645 C 741.235 2.85155 3.57122 0
M  V30 7646 C 742.232 3.83234 3.51323 0
M  V30 7647 C 739.917 3.2275 3.84887 0
M  V30 7648 C 741.911 5.16914 3.72932 0
M  V30 7649 C 739.598 4.56604 4.06148 0
M  V30 7650 C 740.596 5.53495 4.00165 0
M  V30 7651 O 740.284 6.84931 4.20861 0
M  V30 7652 H 740.016 0.336368 0.586372 0
M  V30 7653 H 742.57 1.53198 1.36819 0
M  V30 7654 H 740.8 0.737205 3.79608 0
M  V30 7655 H 742.489 1.14439 3.89434 0
M  V30 7656 H 743.255 3.55535 3.29878 0
M  V30 7657 H 739.134 2.47921 3.88659 0
M  V30 7658 H 742.678 5.92529 3.68178 0
M  V30 7659 H 738.575 4.84019 4.27078 0
M  V30 7660 H 739.343 6.91304 4.38226 0
M  V30 7661 N 742.006 -1.2595 0.947325 0
M  V30 7662 C 743.253 -1.93463 0.598178 0
M  V30 7663 C 743.581 -1.74271 -0.863705 0
M  V30 7664 O 742.836 -1.07684 -1.63409 0
M  V30 7665 C 743.135 -3.46034 0.894158 0
M  V30 7666 C 742.801 -3.85373 2.3409 0
M  V30 7667 C 741.463 -3.95823 2.73637 0
M  V30 7668 C 743.815 -4.04986 3.2808 0
M  V30 7669 C 741.143 -4.23288 4.06257 0
M  V30 7670 C 743.495 -4.3394 4.60303 0
M  V30 7671 C 742.159 -4.42606 4.99656 0
M  V30 7672 H 741.429 -0.707933 0.218889 0
M  V30 7673 H 744.076 -1.4964 1.19499 0
M  V30 7674 H 742.381 -3.9121 0.214874 0
M  V30 7675 H 744.078 -3.96445 0.602698 0
M  V30 7676 H 740.668 -3.7779 2.02417 0
M  V30 7677 H 744.852 -3.96333 2.9872 0
M  V30 7678 H 740.108 -4.28211 4.36401 0
M  V30 7679 H 744.282 -4.48061 5.33118 0
M  V30 7680 H 741.909 -4.63641 6.02446 0
M  V30 7681 N 743.484 -0.715051 -1.40445 0
M  V30 7682 C 744.731 -0.254328 -2.00897 0
M  V30 7683 C 745.059 1.15228 -1.56693 0
M  V30 7684 O 744.314 1.7958 -0.777786 0
M  V30 7685 C 744.613 -0.281791 -3.56287 0
M  V30 7686 C 744.279 -1.63862 -4.20071 0
M  V30 7687 C 742.941 -2.01003 -4.37208 0
M  V30 7688 C 745.293 -2.53039 -4.55654 0
M  V30 7689 C 742.621 -3.26869 -4.8721 0
M  V30 7690 C 744.973 -3.78256 -5.07055 0
M  V30 7691 C 743.637 -4.15515 -5.22401 0
M  V30 7692 H 742.907 -0.0930652 -0.735133 0
M  V30 7693 H 745.554 -0.917977 -1.68064 0
M  V30 7694 H 743.859 0.465428 -3.89026 0
M  V30 7695 H 745.556 0.0925158 -4.00893 0
M  V30 7696 H 742.146 -1.33979 -4.07121 0
M  V30 7697 H 746.33 -2.2562 -4.42051 0
M  V30 7698 H 741.586 -3.55706 -4.97276 0
M  V30 7699 H 745.76 -4.47528 -5.33565 0
M  V30 7700 H 743.387 -5.13114 -5.60909 0
M  V30 7701 N 744.962 1.50701 -0.461195 0
M  V30 7702 C 746.378 1.59187 -0.114786 0
M  V30 7703 C 746.578 1.4702 1.37794 0
M  V30 7704 O 745.634 1.32361 2.15027 0
M  V30 7705 C 746.947 2.93453 -0.656167 0
M  V30 7706 C 748.495 3.06824 -0.618715 0
M  V30 7707 C 748.97 4.4365 -1.13747 0
M  V30 7708 N 750.461 4.50035 -1.09646 0
M  V30 7709 C 751.196 5.54278 -1.46846 0
M  V30 7710 N 750.692 6.65822 -1.91448 0
M  V30 7711 N 752.485 5.44767 -1.38512 0
M  V30 7712 H 744.636 1.56853 -1.43216 0
M  V30 7713 H 746.899 0.740712 -0.59165 0
M  V30 7714 H 746.605 3.07802 -1.7015 0
M  V30 7715 H 746.479 3.77082 -0.0942261 0
M  V30 7716 H 748.866 2.92129 0.417685 0
M  V30 7717 H 748.947 2.24976 -1.21734 0
M  V30 7718 H 748.591 4.59093 -2.17245 0
M  V30 7719 H 748.521 5.24074 -0.515153 0
M  V30 7720 H 751.012 3.69988 -0.769217 0
M  V30 7721 H 751.325 7.41413 -2.18007 0
M  V30 7722 H 749.67 6.66968 -1.95393 0
M  V30 7723 H 752.861 4.56511 -1.03516 0
M  V30 7724 H 753.034 6.25889 -1.6783 0
M  V30 7725 N 746.441 0.193421 1.56409 0
M  V30 7726 C 747.388 -0.728124 2.19014 0
M  V30 7727 C 748.358 -1.21098 1.13686 0
M  V30 7728 O 749.543 -1.27517 1.4193 0
M  V30 7729 C 746.683 -1.94277 2.8522 0
M  V30 7730 C 745.796 -1.50143 4.05069 0
M  V30 7731 C 744.931 -2.67145 4.59137 0
M  V30 7732 C 743.97 -2.19609 5.71348 0
M  V30 7733 N 743.107 -3.29782 6.19829 0
M  V30 7734 H 747.947 -0.187499 2.9741 0
M  V30 7735 H 745.484 -0.0808064 1.46878 0
M  V30 7736 H 747.442 -2.65551 3.21774 0
M  V30 7737 H 746.072 -2.45673 2.09391 0
M  V30 7738 H 745.124 -0.684624 3.74189 0
M  V30 7739 H 746.436 -1.11266 4.86232 0
M  V30 7740 H 745.59 -3.46544 4.97988 0
M  V30 7741 H 744.329 -3.09295 3.77078 0
M  V30 7742 H 743.334 -1.38664 5.32027 0
M  V30 7743 H 744.559 -1.78492 6.55223 0
M  V30 7744 H 742.505 -3.71466 5.40693 0
M  V30 7745 H 742.422 -2.95069 6.96039 0
M  V30 7746 H 743.69 -4.094 6.63334 0
M  V30 7747 N 747.919 -1.57396 -0.0801906 0
M  V30 7748 C 748.866 -2.03107 -1.09618 0
M  V30 7749 C 749.836 -0.910118 -1.38946 0
M  V30 7750 O 751.021 -1.17719 -1.50156 0
M  V30 7751 C 748.161 -2.47293 -2.40708 0
M  V30 7752 C 747.274 -3.72972 -2.17982 0
M  V30 7753 C 746.409 -4.05975 -3.42576 0
M  V30 7754 C 745.448 -5.24719 -3.15177 0
M  V30 7755 N 744.585 -5.53401 -4.32078 0
M  V30 7756 H 749.425 -2.89677 -0.69939 0
M  V30 7757 H 746.962 -1.43263 -0.333785 0
M  V30 7758 H 748.92 -2.7096 -3.17232 0
M  V30 7759 H 747.55 -1.63713 -2.78205 0
M  V30 7760 H 746.602 -3.56693 -1.32189 0
M  V30 7761 H 747.914 -4.59638 -1.93738 0
M  V30 7762 H 747.068 -4.30498 -4.275 0
M  V30 7763 H 745.807 -3.17859 -3.69887 0
M  V30 7764 H 744.812 -5 -2.28648 0
M  V30 7765 H 746.037 -6.14445 -2.89197 0
M  V30 7766 H 743.983 -4.68245 -4.59437 0
M  V30 7767 H 743.9 -6.34469 -4.11078 0
M  V30 7768 H 745.168 -5.8247 -5.18024 0
M  V30 7769 N 749.397 0.351382 -1.53633 0
M  V30 7770 C 750.627 1.11113 -1.74176 0
M  V30 7771 C 751.035 1.83084 -0.477154 0
M  V30 7772 O 750.378 1.74941 0.560483 0
M  V30 7773 C 750.44 2.17521 -2.86225 0
M  V30 7774 C 750.104 1.65193 -4.26099 0
M  V30 7775 C 751.101 1.10842 -5.07947 0
M  V30 7776 C 748.786 1.70277 -4.72558 0
M  V30 7777 C 750.78 0.622689 -6.34351 0
M  V30 7778 C 748.467 1.21316 -5.98937 0
M  V30 7779 C 749.465 0.674033 -6.79666 0
M  V30 7780 O 749.153 0.191696 -8.03671 0
M  V30 7781 H 748.885 0.33756 -0.585687 0
M  V30 7782 H 751.439 0.411786 -2.0123 0
M  V30 7783 H 749.669 2.90991 -2.54678 0
M  V30 7784 H 751.358 2.78999 -2.94812 0
M  V30 7785 H 752.124 1.06243 -4.7322 0
M  V30 7786 H 748.003 2.11181 -4.09785 0
M  V30 7787 H 751.547 0.201216 -6.9731 0
M  V30 7788 H 747.444 1.25613 -6.3316 0
M  V30 7789 H 748.212 0.309712 -8.17914 0
M  V30 7790 N 750.875 1.45233 0.611969 0
M  V30 7791 C 752.291 1.29542 0.932251 0
M  V30 7792 C 752.491 0.24523 2.00002 0
M  V30 7793 O 751.547 -0.362333 2.49887 0
M  V30 7794 C 752.86 2.67301 1.37733 0
M  V30 7795 C 754.408 2.75163 1.49178 0
M  V30 7796 C 754.883 4.13437 1.97064 0
M  V30 7797 N 756.374 4.15709 2.04304 0
M  V30 7798 C 757.109 5.19566 2.42568 0
M  V30 7799 N 756.605 6.33771 2.79832 0
M  V30 7800 N 758.398 5.06923 2.42869 0
M  V30 7801 H 750.549 2.12192 -0.0938679 0
M  V30 7802 H 752.812 0.947775 0.0206569 0
M  V30 7803 H 752.518 3.45318 0.666951 0
M  V30 7804 H 752.392 2.95472 2.3447 0
M  V30 7805 H 754.779 1.97453 2.19309 0
M  V30 7806 H 754.86 2.50712 0.507674 0
M  V30 7807 H 754.504 4.91631 1.27521 0
M  V30 7808 H 754.434 4.35277 2.9638 0
M  V30 7809 H 756.925 3.33293 1.78113 0
M  V30 7810 H 757.238 7.08815 3.07898 0
M  V30 7811 H 755.583 6.37179 2.77538 0
M  V30 7812 H 758.774 4.1675 2.1316 0
M  V30 7813 H 758.947 5.87981 2.72364 0
M  V30 7814 N 752.353 -0.854086 1.3245 0
M  V30 7815 C 753.602 -1.60318 1.22397 0
M  V30 7816 C 753.915 -1.9444 -0.212664 0
M  V30 7817 O 755.121 -2.67991 -0.435066 0
M  V30 7818 C 753.577 -2.8909 2.1437 0
M  V30 7819 C 753.185 -2.62391 3.63119 0
M  V30 7820 C 754.929 -3.67104 2.13155 0
M  V30 7821 C 752.836 -3.87167 4.47052 0
M  V30 7822 H 751.766 -0.601586 0.454544 0
M  V30 7823 H 754.417 -0.943023 1.57415 0
M  V30 7824 H 752.799 -3.56567 1.72268 0
M  V30 7825 H 753.973 -2.03222 4.13567 0
M  V30 7826 H 752.288 -1.97706 3.66471 0
M  V30 7827 H 754.885 -4.59696 2.731 0
M  V30 7828 H 755.228 -4.00876 1.12268 0
M  V30 7829 H 755.761 -3.06533 2.5354 0
M  V30 7830 H 752.5 -3.58536 5.48755 0
M  V30 7831 H 752.02 -4.45729 4.01355 0
M  V30 7832 H 753.699 -4.549 4.60081 0
M  V30 7833 N 753.831 -1.1567 -1.07043 0
M  V30 7834 C 755.059 -0.957471 -1.83412 0
M  V30 7835 C 755.474 0.494271 -1.82215 0
M  V30 7836 O 754.831 1.34288 -1.23584 0
M  V30 7837 C 754.882 -1.46784 -3.30359 0
M  V30 7838 O 754.603 -2.86271 -3.31633 0
M  V30 7839 C 756.104 -1.31054 -4.23485 0
M  V30 7840 H 753.324 -0.33986 -0.578564 0
M  V30 7841 H 755.868 -1.53518 -1.35102 0
M  V30 7842 H 754.023 -0.932586 -3.76007 0
M  V30 7843 H 754.437 -3.0948 -4.23465 0
M  V30 7844 H 755.911 -1.71605 -5.24648 0
M  V30 7845 H 756.388 -0.255107 -4.38458 0
M  V30 7846 H 756.994 -1.83503 -3.83676 0
M  V30 7847 N 755.309 1.25446 -0.953992 0
M  V30 7848 C 756.558 1.92441 -0.604101 0
M  V30 7849 C 756.871 1.75543 0.862796 0
M  V30 7850 O 758.077 2.37106 1.32262 0
M  V30 7851 C 756.533 3.44854 -1.02974 0
M  V30 7852 C 756.141 3.70464 -2.51914 0
M  V30 7853 C 757.885 4.1778 -0.752352 0
M  V30 7854 C 755.792 5.1638 -2.88281 0
M  V30 7855 H 754.722 0.720508 -0.222227 0
M  V30 7856 H 757.373 1.42318 -1.15836 0
M  V30 7857 H 755.755 3.93935 -0.403904 0
M  V30 7858 H 756.929 3.32038 -3.19511 0
M  V30 7859 H 755.244 3.10797 -2.77117 0
M  V30 7860 H 757.841 5.25261 -1.00024 0
M  V30 7861 H 758.184 4.15135 0.311212 0
M  V30 7862 H 758.717 3.74605 -1.33851 0
M  V30 7863 H 755.456 5.24135 -3.93653 0
M  V30 7864 H 754.976 5.55855 -2.25357 0
M  V30 7865 H 756.655 5.84497 -2.77439 0
M  V30 7866 N 756.787 0.722489 1.40064 0
M  V30 7867 C 757.697 0.0755984 2.34478 0
M  V30 7868 C 758.713 -0.736046 1.57665 0
M  V30 7869 O 759.889 -0.667407 1.9002 0
M  V30 7870 C 756.954 -0.830075 3.36616 0
M  V30 7871 C 756.015 -0.00759884 4.29299 0
M  V30 7872 C 755.248 -0.870139 5.26559 0
M  V30 7873 O 755.471 -2.10921 5.2997 0
M  V30 7874 O 754.405 -0.305454 6.01124 0
M  V30 7875 H 758.231 0.854545 2.9143 0
M  V30 7876 H 755.816 0.483032 1.41376 0
M  V30 7877 H 757.698 -1.34864 3.99236 0
M  V30 7878 H 756.373 -1.58805 2.82069 0
M  V30 7879 H 755.28 0.556199 3.69942 0
M  V30 7880 H 756.613 0.712312 4.87018 0
M  V30 7881 N 758.265 -1.50454 0.469181 0
M  V30 7882 C 759.681 -1.59124 0.123226 0
M  V30 7883 C 759.881 -1.47749 -1.37013 0
M  V30 7884 O 758.937 -1.335 -2.14322 0
M  V30 7885 C 760.25 -2.93101 0.67172 0
M  V30 7886 C 761.798 -3.06491 0.634978 0
M  V30 7887 C 762.273 -4.43041 1.16098 0
M  V30 7888 N 763.764 -4.49448 1.12031 0
M  V30 7889 C 764.499 -5.53491 1.49784 0
M  V30 7890 N 763.995 -6.64798 1.94976 0
M  V30 7891 N 765.788 -5.44025 1.41399 0
M  V30 7892 H 757.939 -1.56091 1.44046 0
M  V30 7893 H 760.202 -0.737564 0.59557 0
M  V30 7894 H 759.908 -3.06895 1.7178 0
M  V30 7895 H 759.782 -3.77027 0.114222 0
M  V30 7896 H 762.169 -2.92346 -0.402187 0
M  V30 7897 H 762.25 -2.24328 1.22926 0
M  V30 7898 H 761.894 -4.57935 2.19677 0
M  V30 7899 H 761.824 -5.23794 0.542939 0
M  V30 7900 H 764.315 -3.69575 0.788828 0
M  V30 7901 H 764.628 -7.40246 2.21936 0
M  V30 7902 H 762.973 -6.65923 1.98927 0
M  V30 7903 H 766.164 -4.55955 1.05935 0
M  V30 7904 H 766.337 -6.2499 1.71147 0
M  V30 7905 N 759.743 -0.201713 -1.56304 0
M  V30 7906 C 761.159 0.154025 -1.58855 0
M  V30 7907 C 761.359 1.60516 -1.21807 0
M  V30 7908 O 760.415 2.34193 -0.94393 0
M  V30 7909 C 761.728 -0.154319 -3.00304 0
M  V30 7910 C 763.276 -0.0949578 -3.12856 0
M  V30 7911 C 763.751 -0.376703 -4.56448 0
M  V30 7912 N 765.242 -0.325558 -4.62054 0
M  V30 7913 C 765.977 -0.51732 -5.71062 0
M  V30 7914 N 765.473 -0.769789 -6.8851 0
M  V30 7915 N 767.266 -0.45112 -5.60287 0
M  V30 7916 H 759.417 -1.14858 -1.78666 0
M  V30 7917 H 761.68 -0.458934 -0.829508 0
M  V30 7918 H 761.386 -1.16074 -3.31994 0
M  V30 7919 H 761.26 0.540014 -3.73314 0
M  V30 7920 H 763.647 0.902075 -2.80974 0
M  V30 7921 H 763.728 -0.822468 -2.42217 0
M  V30 7922 H 763.372 -1.37108 -4.89044 0
M  V30 7923 H 763.302 0.371772 -5.25286 0
M  V30 7924 H 765.793 -0.137308 -3.7765 0
M  V30 7925 H 766.106 -0.904744 -7.67486 0
M  V30 7926 H 764.451 -0.806758 -6.90302 0
M  V30 7927 H 767.642 -0.254253 -4.67409 0
M  V30 7928 H 767.815 -0.603982 -6.45179 0
M  V30 7929 N 761.222 1.57436 0.0718424 0
M  V30 7930 C 762.45 1.91474 0.783932 0
M  V30 7931 C 762.865 0.797669 1.71122 0
M  V30 7932 O 762.222 -0.228989 1.81058 0
M  V30 7933 C 762.273 3.25259 1.57761 0
M  V30 7934 O 761.994 4.3267 0.687596 0
M  V30 7935 C 763.495 3.7331 2.3907 0
M  V30 7936 H 760.715 0.632901 0.222885 0
M  V30 7937 H 763.259 2.04457 0.0421262 0
M  V30 7938 H 761.414 3.13804 2.27169 0
M  V30 7939 H 761.828 5.09641 1.23962 0
M  V30 7940 H 763.302 4.69551 2.90216 0
M  V30 7941 H 763.779 3.02318 3.18591 0
M  V30 7942 H 764.385 3.8771 1.74818 0
M  V30 7943 N 762.7 -0.34323 1.53817 0
M  V30 7944 C 763.632 -1.44216 1.78141 0
M  V30 7945 C 764.645 -1.48701 0.662721 0
M  V30 7946 O 765.834 -1.51778 0.939458 0
M  V30 7947 C 762.934 -2.82872 1.86646 0
M  V30 7948 C 762.107 -3.01824 3.16577 0
M  V30 7949 C 761.166 -4.20723 3.16036 0
M  V30 7950 O 760.192 -4.14824 3.89756 0
M  V30 7951 N 761.394 -5.29276 2.38427 0
M  V30 7952 H 764.159 -1.23721 2.72971 0
M  V30 7953 H 761.72 -0.53311 1.52871 0
M  V30 7954 H 763.712 -3.60588 1.83735 0
M  V30 7955 H 762.282 -2.96509 0.990014 0
M  V30 7956 H 761.502 -2.11575 3.3261 0
M  V30 7957 H 762.79 -3.11369 4.02402 0
M  V30 7958 H 762.188 -5.36938 1.78085 0
M  V30 7959 H 760.745 -6.05484 2.41313 0
M  V30 7960 N 764.178 -1.45556 -0.604258 0
M  V30 7961 C 765.11 -1.50494 -1.72871 0
M  V30 7962 C 766.123 -0.395368 -1.57926 0
M  V30 7963 O 767.312 -0.662603 -1.65746 0
M  V30 7964 C 764.412 -1.34874 -3.10906 0
M  V30 7965 C 763.585 -2.59564 -3.52058 0
M  V30 7966 C 762.644 -2.38453 -4.6907 0
M  V30 7967 O 761.67 -3.12082 -4.76018 0
M  V30 7968 N 762.872 -1.43229 -5.62553 0
M  V30 7969 H 765.637 -2.4744 -1.69097 0
M  V30 7970 H 763.198 -1.41338 -0.789636 0
M  V30 7971 H 765.19 -1.18556 -3.86945 0
M  V30 7972 H 763.76 -0.461913 -3.09168 0
M  V30 7973 H 762.98 -2.90974 -2.65946 0
M  V30 7974 H 764.268 -3.42441 -3.76313 0
M  V30 7975 H 763.666 -0.824714 -5.59656 0
M  V30 7976 H 762.223 -1.32882 -6.38111 0
M  V30 7977 N 765.656 0.84705 -1.32902 0
M  V30 7978 C 766.566 1.98845 -1.2449 0
M  V30 7979 C 767.582 1.7329 -0.15702 0
M  V30 7980 O 768.758 1.978 -0.379104 0
M  V30 7981 C 765.823 3.32679 -0.975985 0
M  V30 7982 C 764.884 3.71405 -2.15306 0
M  V30 7983 C 764.117 4.98853 -1.89688 0
M  V30 7984 O 764.34 5.64134 -0.843168 0
M  V30 7985 O 763.274 5.34889 -2.76002 0
M  V30 7986 H 767.1 2.0888 -2.2046 0
M  V30 7987 H 764.685 0.978852 -1.12867 0
M  V30 7988 H 766.567 4.12885 -0.842826 0
M  V30 7989 H 765.242 3.23667 -0.0464954 0
M  V30 7990 H 764.149 2.91743 -2.34172 0
M  V30 7991 H 765.482 3.85073 -3.06561 0
M  V30 7992 N 767.134 1.16236 1.06428 0
M  V30 7993 C 768.044 0.881976 2.1739 0
M  V30 7994 C 769.06 -0.145259 1.73393 0
M  V30 7995 O 770.236 0.0310558 2.01376 0
M  V30 7996 C 767.301 0.385496 3.4455 0
M  V30 7997 C 766.362 1.47779 4.03063 0
M  V30 7998 C 765.595 1.0049 5.24154 0
M  V30 7999 O 765.818 -0.145889 5.70213 0
M  V30 8000 O 764.752 1.79265 5.74585 0
M  V30 8001 H 768.578 1.80983 2.43883 0
M  V30 8002 H 766.163 0.942226 1.15942 0
M  V30 8003 H 768.045 0.115536 4.21242 0
M  V30 8004 H 766.72 -0.514369 3.19587 0
M  V30 8005 H 765.627 1.80147 3.27869 0
M  V30 8006 H 766.96 2.35291 4.32318 0
M  V30 8007 N 768.612 -1.24939 0.960631 0
M  V30 8008 C 769.837 -1.9742 0.635608 0
M  V30 8009 C 770.262 -1.70857 -0.786737 0
M  V30 8010 O 769.62 -0.968063 -1.53291 0
M  V30 8011 C 769.668 -3.48987 0.907771 0
M  V30 8012 O 768.772 -4.12399 -0.0104053 0
M  V30 8013 H 768.113 -0.61871 0.241027 0
M  V30 8014 H 770.643 -1.58901 1.28886 0
M  V30 8015 H 770.653 -3.99334 0.836453 0
M  V30 8016 H 769.328 -3.6765 1.94439 0
M  V30 8017 H 767.905 -3.72727 0.113631 0
M  V30 8018 N 770.09 -0.729906 -1.39679 0
M  V30 8019 C 771.038 -0.0756589 -2.32477 0
M  V30 8020 C 772.032 0.731438 -1.52795 0
M  V30 8021 O 773.238 0.633195 -1.68495 0
M  V30 8022 H 769.613 -0.00566492 -0.751979 0
M  V30 8023 H 771.584 -0.874797 -2.85289 0
M  V30 8024 C 770.333 0.821313 -3.37861 0
M  V30 8025 H 769.656 0.209666 -3.9925 0
M  V30 8026 H 771.096 1.24679 -4.05254 0
M  V30 8027 C 769.555 1.9533 -2.74495 0
M  V30 8028 O 770.085 3.04548 -2.61942 0
M  V30 8029 N 768.291 1.74119 -2.3266 0
M  V30 8030 H 767.838 0.852908 -2.4307 0
M  V30 8031 H 767.796 2.50036 -1.90603 0
M  V30 8032 N 771.568 1.50203 -0.477153 0
M  V30 8033 C 772.498 2.31517 0.303646 0
M  V30 8034 C 773.479 1.38696 0.984753 0
M  V30 8035 O 774.664 1.67615 0.980758 0
M  V30 8036 C 771.794 3.18598 1.38249 0
M  V30 8037 C 770.748 4.2002 0.822645 0
M  V30 8038 C 770.074 4.95878 2.00024 0
M  V30 8039 C 771.374 5.22023 -0.170185 0
M  V30 8040 H 773.068 2.97042 -0.375027 0
M  V30 8041 H 770.614 1.42848 -0.181802 0
M  V30 8042 H 772.567 3.74282 1.93625 0
M  V30 8043 H 771.291 2.5097 2.09002 0
M  V30 8044 H 769.95 3.65445 0.290813 0
M  V30 8045 H 769.598 4.24717 2.69489 0
M  V30 8046 H 769.298 5.64487 1.63183 0
M  V30 8047 H 770.822 5.54399 2.55878 0
M  V30 8048 H 772.236 5.72543 0.294606 0
M  V30 8049 H 770.633 5.98386 -0.453181 0
M  V30 8050 H 771.703 4.72396 -1.09408 0
M  V30 8051 N 773.046 0.209999 1.56195 0
M  V30 8052 C 774.294 -0.423974 1.97603 0
M  V30 8053 C 774.615 -1.61112 1.09854 0
M  V30 8054 O 773.885 -1.95134 0.173032 0
M  V30 8055 H 772.465 -0.159629 0.729745 0
M  V30 8056 H 775.127 0.300205 1.92574 0
M  V30 8057 H 774.223 -0.75809 3.02753 0
M  V30 8058 N 774.524 -1.57472 -0.0634922 0
M  V30 8059 C 775.471 -2.04258 -1.07457 0
M  V30 8060 C 776.441 -0.924804 -1.37973 0
M  V30 8061 O 777.626 -1.19305 -1.48899 0
M  V30 8062 C 774.766 -2.49832 -2.38071 0
M  V30 8063 C 773.879 -3.75263 -2.14014 0
M  V30 8064 C 773.014 -4.09585 -3.38251 0
M  V30 8065 C 772.053 -5.28032 -3.09594 0
M  V30 8066 N 771.19 -5.57953 -4.26185 0
M  V30 8067 H 776.03 -2.90402 -0.668626 0
M  V30 8068 H 773.567 -1.43609 -0.318572 0
M  V30 8069 H 775.525 -2.7431 -3.14341 0
M  V30 8070 H 774.155 -1.66654 -2.76453 0
M  V30 8071 H 773.207 -3.58075 -1.28399 0
M  V30 8072 H 774.519 -4.61667 -1.88852 0
M  V30 8073 H 773.673 -4.35008 -4.2291 0
M  V30 8074 H 772.412 -3.21765 -3.66495 0
M  V30 8075 H 771.417 -5.02397 -2.23332 0
M  V30 8076 H 772.642 -6.17477 -2.82663 0
M  V30 8077 H 770.588 -4.73092 -4.54445 0
M  V30 8078 H 770.505 -6.38793 -4.04326 0
M  V30 8079 H 771.773 -5.87931 -5.11817 0
M  V30 8080 N 776.003 0.335068 -1.53997 0
M  V30 8081 C 776.953 1.4127 -1.7896 0
M  V30 8082 C 777.937 1.474 -0.64513 0
M  V30 8083 O 779.129 1.52127 -0.904785 0
M  V30 8084 C 776.258 2.78292 -2.01018 0
M  V30 8085 C 775.344 2.7652 -3.21555 0
M  V30 8086 N 775.735 2.44374 -4.42849 0
M  V30 8087 C 774.033 3.0766 -3.22895 0
M  V30 8088 C 774.734 2.51049 -5.24737 0
M  V30 8089 N 773.71 2.8702 -4.6165 0
M  V30 8090 H 777.512 1.15327 -2.70327 0
M  V30 8091 H 775.026 0.543483 -1.53036 0
M  V30 8092 H 777.023 3.55949 -2.17039 0
M  V30 8093 H 775.683 3.05175 -1.10898 0
M  V30 8094 H 776.694 2.17422 -4.70051 0
M  V30 8095 H 773.371 3.3966 -2.42771 0
M  V30 8096 H 774.761 2.29283 -6.31569 0
M  V30 8097 N 777.481 1.45874 0.596531 0
M  V30 8098 C 778.897 1.30524 0.918459 0
M  V30 8099 C 779.097 0.266429 1.99731 0
M  V30 8100 O 778.153 -0.335809 2.50257 0
M  V30 8101 C 779.466 2.68747 1.3489 0
M  V30 8102 C 781.014 2.7673 1.46251 0
M  V30 8103 C 781.489 4.15504 1.92667 0
M  V30 8104 N 782.98 4.17853 1.99883 0
M  V30 8105 C 783.715 5.22109 2.37044 0
M  V30 8106 N 783.211 6.36704 2.73094 0
M  V30 8107 N 785.004 5.09471 2.37479 0
M  V30 8108 H 777.155 2.12081 -0.116368 0
M  V30 8109 H 779.418 0.947941 0.0106033 0
M  V30 8110 H 779.124 3.46006 0.630288 0
M  V30 8111 H 778.998 2.97942 2.31323 0
M  V30 8112 H 781.385 1.99768 2.17202 0
M  V30 8113 H 781.466 2.51236 0.481054 0
M  V30 8114 H 781.11 4.92956 1.223 0
M  V30 8115 H 781.04 4.38396 2.91747 0
M  V30 8116 H 783.531 3.35163 1.74568 0
M  V30 8117 H 783.844 7.12041 3.00362 0
M  V30 8118 H 782.189 6.40087 2.70764 0
M  V30 8119 H 785.38 4.18987 2.08728 0
M  V30 8120 H 785.553 5.90837 2.66112 0
M  V30 8121 N 778.959 -0.83999 1.33349 0
M  V30 8122 C 779.869 -1.98182 1.25543 0
M  V30 8123 C 780.885 -1.73204 0.166208 0
M  V30 8124 O 782.061 -1.97596 0.389589 0
M  V30 8125 C 779.126 -3.32157 0.993614 0
M  V30 8126 C 778.187 -3.70258 2.17273 0
M  V30 8127 C 777.42 -4.9784 1.92331 0
M  V30 8128 O 777.643 -5.63679 0.873074 0
M  V30 8129 O 776.577 -5.33418 2.78835 0
M  V30 8130 H 780.403 -2.07708 2.21565 0
M  V30 8131 H 777.988 -0.972852 1.13384 0
M  V30 8132 H 779.87 -4.12433 0.864711 0
M  V30 8133 H 778.545 -3.23637 0.0636596 0
M  V30 8134 H 777.452 -2.90497 2.35716 0
M  V30 8135 H 778.785 -3.83442 3.08598 0
M  V30 8136 N 780.437 -1.16799 -1.0581 0
M  V30 8137 C 781.367 -0.902241 -2.15364 0
M  V30 8138 C 782.348 0.153351 -1.69407 0
M  V30 8139 O 783.533 0.00442032 -1.94199 0
M  V30 8140 C 780.663 -0.407911 -3.44896 0
M  V30 8141 C 779.617 -1.40197 -4.04387 0
M  V30 8142 C 778.943 -0.765848 -5.29187 0
M  V30 8143 C 780.243 -2.77316 -4.42598 0
M  V30 8144 H 781.937 -1.81841 -2.37853 0
M  V30 8145 H 779.483 -0.875731 -1.14311 0
M  V30 8146 H 781.436 -0.20945 -4.20879 0
M  V30 8147 H 780.16 0.54378 -3.22041 0
M  V30 8148 H 778.819 -1.58707 -3.30466 0
M  V30 8149 H 778.467 0.192482 -5.02632 0
M  V30 8150 H 778.167 -1.42939 -5.69949 0
M  V30 8151 H 779.691 -0.577519 -6.07863 0
M  V30 8152 H 781.105 -2.62561 -5.09642 0
M  V30 8153 H 779.502 -3.4019 -4.94359 0
M  V30 8154 H 780.572 -3.32199 -3.53231 0
M  V30 8155 N 781.915 1.24427 -0.967243 0
M  V30 8156 C 783.331 1.44684 -0.6737 0
M  V30 8157 C 783.531 1.86429 0.764625 0
M  V30 8158 O 782.587 2.00211 1.53857 0
M  V30 8159 C 783.9 2.509 -1.6574 0
M  V30 8160 C 785.448 2.64728 -1.66998 0
M  V30 8161 C 785.923 3.7414 -2.64165 0
M  V30 8162 N 787.414 3.81567 -2.62604 0
M  V30 8163 C 788.149 4.6575 -3.34462 0
M  V30 8164 N 787.645 5.54124 -4.15835 0
M  V30 8165 N 789.438 4.59827 -3.23288 0
M  V30 8166 H 781.589 0.956276 -1.89655 0
M  V30 8167 H 783.852 0.48171 -0.816492 0
M  V30 8168 H 783.558 2.27113 -2.68538 0
M  V30 8169 H 783.432 3.4905 -1.42981 0
M  V30 8170 H 785.819 2.87872 -0.649121 0
M  V30 8171 H 785.9 1.66936 -1.93819 0
M  V30 8172 H 785.544 3.51745 -3.66384 0
M  V30 8173 H 785.474 4.71444 -2.34623 0
M  V30 8174 H 787.965 3.18403 -2.03539 0
M  V30 8175 H 788.278 6.15316 -4.67553 0
M  V30 8176 H 786.623 5.53791 -4.19929 0
M  V30 8177 H 789.814 3.898 -2.59179 0
M  V30 8178 H 789.987 5.25208 -3.79553 0
M  V30 8179 N 783.393 0.737304 1.3929 0
M  V30 8180 C 784.303 0.100464 2.34385 0
M  V30 8181 C 785.319 -0.719282 1.58437 0
M  V30 8182 O 786.495 -0.647216 1.90717 0
M  V30 8183 C 783.56 -0.794325 3.37478 0
M  V30 8184 C 782.621 0.0379345 4.29283 0
M  V30 8185 C 781.854 -0.814241 5.27452 0
M  V30 8186 O 782.077 -2.05288 5.32177 0
M  V30 8187 O 781.011 -0.241679 6.01415 0
M  V30 8188 H 784.837 0.885407 2.90507 0
M  V30 8189 H 782.422 0.497999 1.40856 0
M  V30 8190 H 784.304 -1.30622 4.00644 0
M  V30 8191 H 782.979 -1.55804 2.83737 0
M  V30 8192 H 781.886 0.595405 3.69331 0
M  V30 8193 H 783.219 0.763926 4.86236 0
M  V30 8194 N 784.871 -1.49948 0.485112 0
M  V30 8195 C 786.148 -1.95186 -0.12726 0
M  V30 8196 C 786.528 -1.42605 -1.5565 0
M  V30 8197 O 785.876 -0.632986 -2.19558 0
M  V30 8198 C 786.086 -3.48955 -0.0562117 0
M  V30 8199 C 787.434 -4.23932 -0.238106 0
M  V30 8200 O 788.458 -3.55955 -0.132145 0
M  V30 8201 O 787.317 -5.44614 -0.453658 0
M  V30 8202 H 784.411 -0.820433 -0.104014 0
M  V30 8203 H 786.957 -1.60659 0.546517 0
M  V30 8204 H 785.729 -3.79814 0.941122 0
M  V30 8205 H 785.352 -3.90056 -0.770834 0
M  V30 8206 N 786.349 -0.21828 -1.56081 0
M  V30 8207 C 787.574 0.422302 -2.03055 0
M  V30 8208 C 787.999 1.5279 -1.09713 0
M  V30 8209 O 787.357 1.81102 -0.0847187 0
M  V30 8210 C 787.405 0.934177 -3.48289 0
M  V30 8211 O 786.509 2.04574 -3.58083 0
M  V30 8212 H 785.85 0.0959764 -0.657027 0
M  V30 8213 H 788.38 -0.335958 -2.01823 0
M  V30 8214 H 788.39 1.24484 -3.88546 0
M  V30 8215 H 787.065 0.124963 -4.15712 0
M  V30 8216 H 785.642 1.74196 -3.29712 0
M  V30 8217 N 787.827 1.57504 0.0551401 0
M  V30 8218 C 789.076 1.87237 0.750009 0
M  V30 8219 C 789.389 0.813268 1.77891 0
M  V30 8220 O 790.595 0.99898 2.52453 0
M  V30 8221 C 789.051 3.32187 1.38491 0
M  V30 8222 C 788.659 4.46267 0.393707 0
M  V30 8223 C 790.403 3.71101 2.06117 0
M  V30 8224 C 788.31 5.82265 1.03547 0
M  V30 8225 H 787.24 0.698524 0.283866 0
M  V30 8226 H 789.891 1.835 0.00365997 0
M  V30 8227 H 788.273 3.30588 2.18008 0
M  V30 8228 H 789.447 4.59289 -0.372865 0
M  V30 8229 H 787.762 4.16015 -0.17902 0
M  V30 8230 H 790.359 4.70012 2.54937 0
M  V30 8231 H 790.702 3.01751 2.86796 0
M  V30 8232 H 791.235 3.74762 1.33409 0
M  V30 8233 H 787.974 6.54949 0.268644 0
M  V30 8234 H 787.494 5.73012 1.7725 0
M  V30 8235 H 789.173 6.28148 1.55047 0
M  V30 8236 N 789.305 -0.326896 1.54172 0
M  V30 8237 C 790.721 -0.671034 1.44808 0
M  V30 8238 C 790.921 -1.91781 0.618258 0
M  V30 8239 O 789.977 -2.52235 0.115751 0
M  V30 8240 C 791.29 -0.848147 2.88491 0
M  V30 8241 C 792.838 -0.945702 2.98371 0
M  V30 8242 C 793.313 -1.15501 4.43197 0
M  V30 8243 N 794.804 -1.22183 4.46795 0
M  V30 8244 C 795.539 -1.4016 5.56006 0
M  V30 8245 N 795.035 -1.55202 6.75192 0
M  V30 8246 N 796.828 -1.42841 5.43648 0
M  V30 8247 H 788.979 0.49262 2.06608 0
M  V30 8248 H 791.242 0.158574 0.934643 0
M  V30 8249 H 790.948 -0.00329969 3.517 0
M  V30 8250 H 790.822 -1.74497 3.34411 0
M  V30 8251 H 793.209 -1.78106 2.35292 0
M  V30 8252 H 793.29 -0.0254215 2.55787 0
M  V30 8253 H 792.934 -0.324521 5.06862 0
M  V30 8254 H 792.864 -2.08911 4.83388 0
M  V30 8255 H 795.355 -1.12016 3.60917 0
M  V30 8256 H 795.668 -1.68601 7.54184 0
M  V30 8257 H 794.013 -1.52306 6.78106 0
M  V30 8258 H 797.204 -1.30683 4.49488 0
M  V30 8259 H 797.377 -1.56509 6.28816 0
M  V30 8260 N 790.784 -1.46188 -0.588786 0
M  V30 8261 C 792.009 -1.5498 -1.37826 0
M  V30 8262 C 792.434 -0.189498 -1.87143 0
M  V30 8263 O 791.792 0.829293 -1.61222 0
M  V30 8264 C 791.84 -2.55369 -2.54596 0
M  V30 8265 O 790.944 -2.08452 -3.55839 0
M  V30 8266 H 790.285 -0.521741 -0.41071 0
M  V30 8267 H 792.815 -1.91708 -0.714779 0
M  V30 8268 H 792.825 -2.74782 -3.01594 0
M  V30 8269 H 791.5 -3.54155 -2.18052 0
M  V30 8270 H 790.077 -1.98999 -3.15363 0
M  V30 8271 N 792.262 0.832906 -1.33792 0
M  V30 8272 C 793.212 1.93178 -1.21105 0
M  V30 8273 C 794.196 1.60506 -0.112491 0
M  V30 8274 O 795.388 1.73681 -0.341179 0
M  V30 8275 C 792.517 3.29647 -0.958526 0
M  V30 8276 C 791.603 3.68469 -2.0998 0
M  V30 8277 N 791.994 3.78936 -3.35024 0
M  V30 8278 C 790.292 3.98249 -2.00782 0
M  V30 8279 C 790.993 4.12731 -4.09912 0
M  V30 8280 N 789.969 4.25419 -3.38407 0
M  V30 8281 H 793.771 1.99434 -2.15878 0
M  V30 8282 H 791.285 1.02598 -1.25886 0
M  V30 8283 H 793.282 4.08173 -0.848552 0
M  V30 8284 H 791.942 3.24694 -0.019387 0
M  V30 8285 H 792.953 3.62688 -3.69699 0
M  V30 8286 H 789.63 4.01474 -1.14564 0
M  V30 8287 H 791.02 4.28117 -5.17847 0
M  V30 8288 N 793.74 1.17359 1.05189 0
M  V30 8289 C 794.987 0.961987 1.78191 0
M  V30 8290 C 795.315 -0.509363 1.87712 0
M  V30 8291 O 794.57 -1.39425 1.37329 0
M  V30 8292 C 794.869 1.54821 3.22126 0
M  V30 8293 C 794.535 3.04378 3.32663 0
M  V30 8294 C 793.197 3.45201 3.35246 0
M  V30 8295 C 795.549 4.00387 3.33677 0
M  V30 8296 C 792.877 4.80629 3.36471 0
M  V30 8297 C 795.229 5.35715 3.36441 0
M  V30 8298 C 793.893 5.76002 3.37311 0
M  V30 8299 H 793.163 0.352016 0.652047 0
M  V30 8300 H 795.81 1.46249 1.23627 0
M  V30 8301 H 794.115 0.969432 3.79617 0
M  V30 8302 H 795.812 1.36004 3.77232 0
M  V30 8303 H 792.402 2.71836 3.31366 0
M  V30 8304 H 796.586 3.69906 3.30882 0
M  V30 8305 H 791.842 5.11155 3.35455 0
M  V30 8306 H 796.016 6.09886 3.36173 0
M  V30 8307 H 793.643 6.80919 3.38013 0
M  V30 8308 N 795.218 -1.23913 0.973828 0
M  V30 8309 C 796.443 -1.96735 0.656511 0
M  V30 8310 C 796.868 -1.71682 -0.768571 0
M  V30 8311 O 796.226 -0.984267 -1.52256 0
M  V30 8312 C 796.274 -3.48004 0.944735 0
M  V30 8313 O 795.378 -4.12387 0.0333357 0
M  V30 8314 H 794.719 -0.616119 0.247575 0
M  V30 8315 H 797.249 -1.57525 1.30564 0
M  V30 8316 H 797.259 -3.98424 0.87876 0
M  V30 8317 H 795.934 -3.65567 1.98328 0
M  V30 8318 H 794.511 -3.72585 0.153157 0
M  V30 8319 N 796.696 -0.74468 -1.38897 0
M  V30 8320 C 797.942 -0.297324 -2.00609 0
M  V30 8321 C 798.275 1.11547 -1.58968 0
M  V30 8322 O 797.55 1.76227 -0.823057 0
M  V30 8323 C 797.833 -0.410125 -3.57757 0
M  V30 8324 C 797.686 -1.86338 -4.09387 0
M  V30 8325 C 799.005 0.20176 -4.39637 0
M  V30 8326 H 796.124 -0.109509 -0.728819 0
M  V30 8327 H 798.766 -0.942653 -1.64967 0
M  V30 8328 H 796.916 0.139287 -3.8825 0
M  V30 8329 H 798.588 -2.47042 -3.89574 0
M  V30 8330 H 796.831 -2.38146 -3.62586 0
M  V30 8331 H 797.502 -1.89352 -5.18507 0
M  V30 8332 H 799.978 -0.266703 -4.15244 0
M  V30 8333 H 798.854 0.0925415 -5.48822 0
M  V30 8334 H 799.115 1.289 -4.22891 0
M  V30 8335 N 798.174 1.49689 -0.493057 0
M  V30 8336 C 799.137 2.27502 0.278485 0
M  V30 8337 C 800.137 1.33184 0.901037 0
M  V30 8338 O 801.327 1.56415 0.766801 0
M  V30 8339 C 798.459 3.10881 1.39878 0
M  V30 8340 H 799.652 2.97163 -0.404219 0
M  V30 8341 H 797.205 1.54324 -0.247774 0
M  V30 8342 H 797.94 2.45767 2.11587 0
M  V30 8343 H 797.725 3.80219 0.957924 0
M  V30 8344 H 799.215 3.69673 1.94247 0
M  V30 8345 O 799.691 0.368172 1.57247 0
M  V30 8346 H 800.382 -0.181825 1.92845 0
M  V30 END ATOM
M  V30 BEGIN BOND
M  V30 END BOND
M  V30 END CTAB
M  END
$$$$
