drugbank_target|P17315 Colicin I receptor (DB02415; DB04147)
 OpenBabel12092120483D

  0  0  0     0  0            999 V3000
M  V30 BEGIN CTAB
M  V30 COUNTS 10205 10325 0 0 0
M  V30 BEGIN ATOM
M  V30 1 H -0.908 1.98254 -0.117106 0
M  V30 2 N 0 1.576 0 0
M  V30 3 C 0.933 2.03868 1.02534 0
M  V30 4 C 1.911 0.928543 1.3348 0
M  V30 5 O 3.095 1.19667 1.45644 0
M  V30 6 C 0.222 2.43627 2.35294 0
M  V30 7 C -0.732 3.65373 2.2001 0
M  V30 8 S 0.101 5.13292 1.52614 0
M  V30 9 C 1.257 5.56322 2.86805 0
M  V30 10 H 1.49 2.90518 0.631377 0
M  V30 11 H -0.977 1.52953 0.210867 0
M  V30 12 H 0.981 2.67203 3.11629 0
M  V30 13 H -0.358 1.57376 2.7183 0
M  V30 14 H -1.165 3.90944 3.18086 0
M  V30 15 H -1.563 3.418 1.51819 0
M  V30 16 H 0.729 5.58782 3.83104 0
M  V30 17 H 1.672 6.56266 2.65933 0
M  V30 18 H 2.08 4.83886 2.90714 0
M  V30 19 N 1.4781 -0.272755 1.55222 0
M  V30 20 C 2.7251 -1.00433 1.7584 0
M  V30 21 C 3.0531 -1.86275 0.559629 0
M  V30 22 O 2.3081 -1.90269 -0.457857 0
M  V30 23 C 2.6071 -1.91642 3.01675 0
M  V30 24 C 2.2731 -1.21548 4.34208 0
M  V30 25 C 0.9351 -1.02166 4.70229 0
M  V30 26 C 3.2871 -0.716684 5.16249 0
M  V30 27 C 0.6151 -0.316334 5.85847 0
M  V30 28 C 2.9671 -0.0249476 6.32595 0
M  V30 29 C 1.6311 0.180579 6.67256 0
M  V30 30 H 0.9011 -0.367509 0.643443 0
M  V30 31 H 3.5481 -0.276596 1.89492 0
M  V30 32 H 1.8531 -2.71037 2.82924 0
M  V30 33 H 3.5501 -2.48369 3.14824 0
M  V30 34 H 0.1401 -1.37645 4.05896 0
M  V30 35 H 4.3241 -0.854047 4.88896 0
M  V30 36 H -0.4199 -0.146378 6.11225 0
M  V30 37 H 3.7541 0.369311 6.9542 0
M  V30 38 H 1.3811 0.729098 7.56696 0
M  V30 39 N 2.9562 -1.48159 -0.537278 0
M  V30 40 C 4.3722 -1.34118 -0.865129 0
M  V30 41 C 4.5722 -0.346678 -1.98495 0
M  V30 42 O 3.6282 0.234715 -2.51407 0
M  V30 43 C 4.9412 -2.73963 -1.23954 0
M  V30 44 C 6.4892 -2.82397 -1.34984 0
M  V30 45 C 6.9642 -4.22928 -1.75772 0
M  V30 46 N 8.4552 -4.25566 -1.82887 0
M  V30 47 C 9.1902 -5.31235 -2.15817 0
M  V30 48 N 8.6862 -6.47189 -2.47222 0
M  V30 49 N 10.4792 -5.18624 -2.16761 0
M  V30 50 H 2.6302 -2.1144 0.201715 0
M  V30 51 H 4.8932 -0.947598 0.0275949 0
M  V30 52 H 4.5992 -3.48264 -0.490381 0
M  V30 53 H 4.4732 -3.0702 -2.19132 0
M  V30 54 H 6.8602 -2.08356 -2.08978 0
M  V30 55 H 6.9412 -2.5297 -0.379448 0
M  V30 56 H 6.5852 -4.97482 -1.02341 0
M  V30 57 H 6.5152 -4.49794 -2.73848 0
M  V30 58 H 9.0062 -3.41924 -1.60924 0
M  V30 59 H 9.3192 -7.23564 -2.71433 0
M  V30 60 H 7.6642 -6.50476 -2.44757 0
M  V30 61 H 10.8552 -4.27056 -1.91679 0
M  V30 62 H 11.0282 -6.01078 -2.42093 0
M  V30 63 N 4.4343 0.785586 -1.36625 0
M  V30 64 C 5.3643 1.91259 -1.33949 0
M  V30 65 C 6.3453 1.68795 -0.210325 0
M  V30 66 O 7.5303 1.89854 -0.408561 0
M  V30 67 C 4.6603 3.28339 -1.13186 0
M  V30 68 C 3.6143 3.65335 -2.22967 0
M  V30 69 C 2.9403 5.00806 -1.87342 0
M  V30 70 C 4.2403 3.7352 -3.65075 0
M  V30 71 H 5.9343 1.93755 -2.28253 0
M  V30 72 H 3.4803 0.930788 -1.09874 0
M  V30 73 H 5.4333 4.06804 -1.09948 0
M  V30 74 H 4.1573 3.2624 -0.153332 0
M  V30 75 H 2.8163 2.89169 -2.25337 0
M  V30 76 H 2.4643 4.95233 -0.880545 0
M  V30 77 H 2.1643 5.26529 -2.60846 0
M  V30 78 H 3.6883 5.81687 -1.85667 0
M  V30 79 H 5.1023 4.42168 -3.64911 0
M  V30 80 H 3.4993 4.10731 -4.37516 0
M  V30 81 H 4.5693 2.74527 -3.99703 0
M  V30 82 N 5.9124 1.20967 1.01018 0
M  V30 83 C 6.8604 0.961223 2.1181 0
M  V30 84 C 7.8544 -0.0897034 1.69162 0
M  V30 85 O 9.0604 0.0612271 1.79896 0
M  V30 86 H 5.4354 0.29355 0.692338 0
M  V30 87 H 7.4064 1.90178 2.29946 0
M  V30 88 C 6.1554 0.536854 3.4353 0
M  V30 89 H 5.4784 1.33713 3.76777 0
M  V30 90 H 6.9184 0.402286 4.22087 0
M  V30 91 C 5.3774 -0.751574 3.2841 0
M  V30 92 O 5.9074 -1.80841 3.58691 0
M  V30 93 N 4.1134 -0.716079 2.81639 0
M  V30 94 H 3.6604 0.144236 2.57196 0
M  V30 95 H 3.6184 -1.57847 2.71904 0
M  V30 96 N 7.3905 -1.2043 1.01659 0
M  V30 97 C 8.8015 -1.71517 0.737482 0
M  V30 98 C 9.1525 -1.81547 -0.743973 0
M  V30 99 O 8.2775 -1.47803 -1.58061 0
M  V30 100 C 8.8725 -3.11515 1.33206 0
M  V30 101 C 7.4315 -3.59912 1.10183 0
M  V30 102 C 6.5785 -2.37116 1.43776 0
M  V30 103 H 9.5295 -1.05444 1.18606 0
M  V30 104 H 9.5505 -3.73575 0.722636 0
M  V30 105 H 9.0625 -3.04182 2.41028 0
M  V30 106 H 7.1635 -3.72577 0.0412756 0
M  V30 107 H 7.2765 -4.44731 1.78188 0
M  V30 108 H 5.6405 -2.39857 0.856778 0
M  V30 109 H 6.4235 -2.32424 2.52654 0
M  V30 110 N 8.8686 -0.792821 -1.36206 0
M  V30 111 C 10.1156 -0.366786 -1.99151 0
M  V30 112 C 10.4436 1.06243 -1.62919 0
M  V30 113 O 9.6986 1.74927 -0.877442 0
M  V30 114 C 9.9976 -0.481501 -3.54142 0
M  V30 115 C 9.6636 -1.87202 -4.10203 0
M  V30 116 C 8.3256 -2.25248 -4.25226 0
M  V30 117 C 10.6776 -2.78237 -4.40719 0
M  V30 118 C 8.0056 -3.53723 -4.68078 0
M  V30 119 C 10.3576 -4.06144 -4.85005 0
M  V30 120 C 9.0216 -4.44207 -4.98234 0
M  V30 121 H 8.2916 -0.134217 -0.728743 0
M  V30 122 H 10.9386 -1.01094 -1.62641 0
M  V30 123 H 9.2436 0.246146 -3.91026 0
M  V30 124 H 10.9406 -0.132844 -4.0078 0
M  V30 125 H 7.5306 -1.56639 -3.98951 0
M  V30 126 H 11.7146 -2.50097 -4.28679 0
M  V30 127 H 6.9706 -3.8308 -4.76508 0
M  V30 128 H 11.1446 -4.76796 -5.07581 0
M  V30 129 H 8.7716 -5.43814 -5.31197 0
M  V30 130 N 10.3467 1.47872 -0.545128 0
M  V30 131 C 11.5927 2.02793 -0.0166104 0
M  V30 132 C 11.9257 1.41987 1.32489 0
M  V30 133 O 11.2007 0.571045 1.85928 0
M  V30 134 C 11.4837 3.59989 0.0893294 0
M  V30 135 C 11.3367 4.3125 -1.27841 0
M  V30 136 C 12.6557 4.32606 0.808724 0
M  V30 137 H 9.7747 0.736962 -0.00751035 0
M  V30 138 H 12.4167 1.76433 -0.705085 0
M  V30 139 H 10.5667 3.82579 0.675681 0
M  V30 140 H 12.2387 4.20035 -1.90704 0
M  V30 141 H 10.4817 3.92076 -1.85632 0
M  V30 142 H 11.1527 5.39736 -1.15713 0
M  V30 143 H 13.6287 4.14936 0.310992 0
M  V30 144 H 12.5047 5.42251 0.851782 0
M  V30 145 H 12.7657 4.00963 1.86229 0
M  V30 146 N 11.8248 0.280983 1.55075 0
M  V30 147 C 13.2408 -0.0729964 1.59433 0
M  V30 148 C 13.4408 -1.5411 1.29817 0
M  V30 149 O 12.4968 -2.29086 1.06187 0
M  V30 150 C 13.8098 0.306921 2.9913 0
M  V30 151 C 15.3578 0.254023 3.11968 0
M  V30 152 C 15.8328 0.608467 4.5394 0
M  V30 153 N 17.3238 0.560241 4.59799 0
M  V30 154 C 18.0588 0.80722 5.6769 0
M  V30 155 N 17.5548 1.11912 6.83701 0
M  V30 156 N 19.3478 0.735623 5.57266 0
M  V30 157 H 11.4988 1.238 1.7259 0
M  V30 158 H 13.7618 0.500547 0.805082 0
M  V30 159 H 13.4678 1.32816 3.25657 0
M  V30 160 H 13.3418 -0.349363 3.75579 0
M  V30 161 H 15.7288 -0.75794 2.852 0
M  V30 162 H 15.8098 0.944649 2.37718 0
M  V30 163 H 15.4538 1.61814 4.81434 0
M  V30 164 H 15.3838 -0.104013 5.26497 0
M  V30 165 H 17.8748 0.329288 3.76463 0
M  V30 166 H 18.1878 1.29409 7.61888 0
M  V30 167 H 16.5328 1.15695 6.85303 0
M  V30 168 H 19.7238 0.491752 4.6551 0
M  V30 169 H 19.8968 0.931482 6.4127 0
M  V30 170 N 13.3029 -1.57598 0.00835791 0
M  V30 171 C 14.5489 -1.91211 -0.675732 0
M  V30 172 C 14.8819 -0.883139 -1.72958 0
M  V30 173 O 14.1569 0.097016 -1.94258 0
M  V30 174 C 14.4399 -3.35379 -1.31123 0
M  V30 175 C 14.2929 -4.48999 -0.268356 0
M  V30 176 C 15.6119 -3.7912 -2.23508 0
M  V30 177 H 12.7309 -0.695374 -0.244179 0
M  V30 178 H 15.3729 -1.89901 0.0613655 0
M  V30 179 H 13.5229 -3.36626 -1.93946 0
M  V30 180 H 15.1949 -4.59887 0.360844 0
M  V30 181 H 13.4379 -4.31873 0.408482 0
M  V30 182 H 14.1089 -5.46851 -0.752218 0
M  V30 183 H 16.5849 -3.79477 -1.70693 0
M  V30 184 H 15.4609 -4.80729 -2.64936 0
M  V30 185 H 15.7219 -3.13455 -3.11766 0
M  V30 186 N 14.781 0.264519 -1.55364 0
M  V30 187 C 16.029 0.993021 -1.76021 0
M  V30 188 C 16.35 1.86511 -0.569099 0
M  V30 189 O 15.62 1.91438 0.415735 0
M  V30 190 H 14.2 0.369639 -0.649135 0
M  V30 191 H 16.862 0.286707 -1.9278 0
M  V30 192 H 15.958 1.62502 -2.66457 0
M  V30 193 N 16.2591 1.48442 0.529413 0
M  V30 194 C 17.1891 1.65902 1.64313 0
M  V30 195 C 18.1701 0.507897 1.6234 0
M  V30 196 O 19.3551 0.740503 1.79528 0
M  V30 197 C 16.4851 1.69911 3.02898 0
M  V30 198 C 15.4391 2.8453 3.19729 0
M  V30 199 C 14.7651 2.73629 4.59381 0
M  V30 200 C 16.0651 4.25821 3.02447 0
M  V30 201 H 17.7591 2.5914 1.49955 0
M  V30 202 H 15.3051 1.24709 0.719982 0
M  V30 203 H 17.2581 1.80715 3.80684 0
M  V30 204 H 15.9821 0.732524 3.18279 0
M  V30 205 H 14.6411 2.73283 2.44361 0
M  V30 206 H 14.2891 1.74938 4.71599 0
M  V30 207 H 13.9891 3.50541 4.71588 0
M  V30 208 H 15.5131 2.86401 5.39265 0
M  V30 209 H 16.9271 4.37898 3.70024 0
M  V30 210 H 15.3241 5.03735 3.26146 0
M  V30 211 H 16.3941 4.42244 1.98867 0
M  V30 212 N 17.7372 -0.778329 1.37039 0
M  V30 213 C 18.9772 -1.54973 1.33276 0
M  V30 214 C 19.3412 -1.91816 -0.0839376 0
M  V30 215 O 20.5422 -2.6767 -0.246228 0
M  V30 216 C 18.8132 -2.78517 2.23971 0
M  V30 217 S 20.3722 -3.6865 2.37997 0
M  V30 218 H 17.1902 -0.530639 0.473226 0
M  V30 219 H 19.7922 -0.915806 1.72723 0
M  V30 220 H 18.4962 -2.4952 3.25835 0
M  V30 221 H 18.0272 -3.46875 1.85584 0
M  V30 222 H 20.0422 -4.70182 1.58567 0
M  V30 223 N 19.2153 -1.21501 -1.00376 0
M  V30 224 C 20.1453 -0.999478 -2.11028 0
M  V30 225 C 21.1263 0.0759671 -1.6993 0
M  V30 226 O 22.3113 -0.0841106 -1.94018 0
M  V30 227 C 19.4413 -0.564709 -3.42678 0
M  V30 228 C 18.3953 -1.58486 -3.97576 0
M  V30 229 C 17.7213 -1.00628 -5.25146 0
M  V30 230 C 19.0213 -2.97204 -4.29496 0
M  V30 231 H 20.7153 -1.92495 -2.29317 0
M  V30 232 H 18.2613 -0.92693 -1.102 0
M  V30 233 H 20.2143 -0.401091 -4.19487 0
M  V30 234 H 18.9383 0.396411 -3.24185 0
M  V30 235 H 17.5973 -1.73606 -3.22888 0
M  V30 236 H 17.2453 -0.0368439 -5.02987 0
M  V30 237 H 16.9453 -1.68771 -5.62841 0
M  V30 238 H 18.4693 -0.854015 -6.04598 0
M  V30 239 H 19.8833 -2.8552 -4.97143 0
M  V30 240 H 18.2803 -3.62372 -4.78338 0
M  V30 241 H 19.3503 -3.47956 -3.3772 0
M  V30 242 N 20.6934 1.19889 -1.02296 0
M  V30 243 C 21.9184 1.9393 -0.735237 0
M  V30 244 C 22.3434 1.74639 0.698782 0
M  V30 245 O 21.7014 1.04481 1.48167 0
M  V30 246 C 21.7494 3.43916 -1.08417 0
M  V30 247 O 20.8534 4.11917 -0.199446 0
M  V30 248 H 20.1944 0.605645 -0.272196 0
M  V30 249 H 22.7244 1.52137 -1.36804 0
M  V30 250 H 22.7344 3.9456 -1.03856 0
M  V30 251 H 21.4094 3.5728 -2.12894 0
M  V30 252 H 19.9864 3.71666 -0.303136 0
M  V30 253 N 22.1715 0.800033 1.35784 0
M  V30 254 C 23.1345 0.211565 2.28221 0
M  V30 255 C 24.1345 -0.59728 1.49296 0
M  V30 256 O 25.3245 -0.416721 1.69142 0
M  V30 257 C 22.4565 -0.705846 3.33513 0
M  V30 258 H 23.6495 1.02677 2.81776 0
M  V30 259 H 21.2025 0.570211 1.45528 0
M  V30 260 H 21.9375 -1.54498 2.85133 0
M  V30 261 H 21.7225 -0.127655 3.91892 0
M  V30 262 H 23.2125 -1.11211 4.02519 0
M  V30 263 N 23.6496 -1.47581 0.552962 0
M  V30 264 C 24.8986 -2.01684 0.0251995 0
M  V30 265 C 25.2116 -1.43317 -1.33115 0
M  V30 266 O 26.4176 -1.89057 -1.94858 0
M  V30 267 C 24.8736 -3.599 -0.00542052 0
M  V30 268 C 24.4816 -4.27257 1.34742 0
M  V30 269 C 26.2256 -4.21768 -0.4808 0
M  V30 270 C 24.1326 -5.77467 1.27614 0
M  V30 271 H 23.0626 -0.753979 0.00565033 0
M  V30 272 H 25.7136 -1.69616 0.70018 0
M  V30 273 H 24.0956 -3.88911 -0.745961 0
M  V30 274 H 25.2696 -4.09893 2.10534 0
M  V30 275 H 23.5846 -3.77358 1.76039 0
M  V30 276 H 26.1816 -5.31838 -0.55246 0
M  V30 277 H 26.5246 -3.88651 -1.49184 0
M  V30 278 H 27.0576 -3.97273 0.204752 0
M  V30 279 H 23.7966 -6.15196 2.26304 0
M  V30 280 H 23.3166 -5.9718 0.55996 0
M  V30 281 H 24.9956 -6.3959 0.976421 0
M  V30 282 N 25.1277 -0.289203 -1.54924 0
M  V30 283 C 26.3527 0.329299 -2.04769 0
M  V30 284 C 26.7777 1.4763 -1.16564 0
M  V30 285 O 26.1357 1.80527 -0.167186 0
M  V30 286 C 26.1837 0.774438 -3.52186 0
M  V30 287 O 25.2877 1.88038 -3.67036 0
M  V30 288 H 24.6287 0.0659259 -0.660719 0
M  V30 289 H 27.1587 -0.42761 -2.00082 0
M  V30 290 H 27.1687 1.06642 -3.93816 0
M  V30 291 H 25.8437 -0.0646707 -4.1585 0
M  V30 292 H 24.4207 1.58985 -3.3731 0
M  V30 293 N 26.6058 1.57591 -0.0167156 0
M  V30 294 C 27.8458 1.93145 0.668902 0
M  V30 295 C 28.2098 0.892406 1.7 0
M  V30 296 O 29.4108 1.13373 2.43721 0
M  V30 297 C 27.6818 3.33678 1.28039 0
M  V30 298 S 29.2408 3.91142 1.9888 0
M  V30 299 H 26.0588 0.67593 0.220545 0
M  V30 300 H 28.6608 1.95347 -0.0774105 0
M  V30 301 H 27.3648 4.07126 0.517339 0
M  V30 302 H 26.8958 3.3489 2.06427 0
M  V30 303 H 28.9108 3.73571 3.26587 0
M  V30 304 N 28.0839 -0.256276 1.55502 0
M  V30 305 C 29.0469 -1.30047 1.88734 0
M  V30 306 C 30.0469 -1.4154 0.763086 0
M  V30 307 O 31.2369 -1.40403 1.03115 0
M  V30 308 C 28.3689 -2.67953 2.10747 0
M  V30 309 H 29.5619 -1.01802 2.82093 0
M  V30 310 H 27.1149 -0.495134 1.4825 0
M  V30 311 H 27.8499 -3.01351 1.19825 0
M  V30 312 H 27.6349 -2.60993 2.92617 0
M  V30 313 H 29.1249 -3.43368 2.37673 0
M  V30 314 N 29.562 -1.4872 -0.521534 0
M  V30 315 C 30.808 -1.58378 -1.27624 0
M  V30 316 C 31.163 -0.258028 -1.90662 0
M  V30 317 O 30.456 0.739917 -1.76736 0
M  V30 318 C 30.65 -2.66497 -2.38148 0
M  V30 319 C 30.479 -4.09456 -1.85945 0
M  V30 320 C 29.249 -4.76495 -1.68168 0
M  V30 321 C 31.447 -4.95353 -1.3831 0
M  V30 322 N 29.429 -6.0384 -1.1068 0
M  V30 323 C 30.8 -6.13012 -0.928238 0
M  V30 324 C 32.855 -4.81512 -1.26692 0
M  V30 325 C 31.558 -7.18354 -0.368701 0
M  V30 326 C 33.584 -5.86984 -0.721368 0
M  V30 327 C 32.946 -7.03857 -0.276623 0
M  V30 328 H 29.045 -0.634045 -0.457724 0
M  V30 329 H 31.629 -1.85639 -0.587049 0
M  V30 330 H 29.8 -2.41043 -3.04553 0
M  V30 331 H 31.532 -2.65791 -3.05184 0
M  V30 332 H 28.287 -4.32962 -1.91939 0
M  V30 333 H 28.711 -6.71778 -0.839217 0
M  V30 334 H 33.353 -3.91487 -1.5968 0
M  V30 335 H 31.071 -8.08096 -0.0265122 0
M  V30 336 H 34.657 -5.78329 -0.634531 0
M  V30 337 H 33.537 -7.84077 0.138947 0
M  V30 338 N 31.0401 0.771051 -1.3745 0
M  V30 339 C 32.4511 1.34737 -1.29239 0
M  V30 340 C 32.8021 1.96109 0.0596908 0
M  V30 341 O 31.9271 1.93865 0.961534 0
M  V30 342 C 32.5221 2.44973 -2.34037 0
M  V30 343 C 31.0811 2.98372 -2.29458 0
M  V30 344 C 30.2281 1.71595 -2.17831 0
M  V30 345 H 33.1791 0.571256 -1.48062 0
M  V30 346 H 33.2001 3.24471 -1.98744 0
M  V30 347 H 32.7121 2.00276 -3.32432 0
M  V30 348 H 30.8131 3.47443 -1.34589 0
M  V30 349 H 30.9261 3.53939 -3.229 0
M  V30 350 H 29.2901 1.94547 -1.64388 0
M  V30 351 H 30.0731 1.29001 -3.18141 0
M  V30 352 N 32.5182 1.22032 0.997298 0
M  V30 353 C 33.7642 1.04376 1.73878 0
M  V30 354 C 34.0972 -0.420716 1.89588 0
M  V30 355 O 33.3722 -1.31202 1.43583 0
M  V30 356 C 33.6552 1.75047 3.14691 0
M  V30 357 C 33.5082 3.29062 3.06656 0
M  V30 358 C 34.8272 1.49928 4.13775 0
M  V30 359 H 31.9462 0.380578 0.631133 0
M  V30 360 H 34.5882 1.50312 1.16217 0
M  V30 361 H 32.7382 1.35996 3.63919 0
M  V30 362 H 34.4102 3.7753 2.65083 0
M  V30 363 H 32.6532 3.58967 2.43568 0
M  V30 364 H 33.3242 3.73683 4.06282 0
M  V30 365 H 35.8002 1.83842 3.73285 0
M  V30 366 H 34.6762 2.01878 5.10428 0
M  V30 367 H 34.9372 0.430929 4.39995 0
M  V30 368 N 33.9963 -1.19345 1.0293 0
M  V30 369 C 34.9263 -2.2481 0.631105 0
M  V30 370 C 35.9073 -1.66245 -0.360104 0
M  V30 371 O 37.0923 -1.92677 -0.242726 0
M  V30 372 C 34.2223 -3.47295 -0.0184607 0
M  V30 373 C 33.1763 -4.18536 0.895073 0
M  V30 374 C 32.5023 -5.34586 0.110592 0
M  V30 375 C 33.8023 -4.73287 2.209 0
M  V30 376 H 35.4963 -2.58372 1.51275 0
M  V30 377 H 33.0423 -1.24194 0.728818 0
M  V30 378 H 34.9953 -4.20268 -0.308675 0
M  V30 379 H 33.7193 -3.12933 -0.934907 0
M  V30 380 H 32.3783 -3.47446 1.16949 0
M  V30 381 H 32.0263 -4.96469 -0.807902 0
M  V30 382 H 31.7263 -5.83183 0.719087 0
M  V30 383 H 33.2503 -6.10355 -0.172871 0
M  V30 384 H 34.6643 -5.38013 1.98028 0
M  V30 385 H 33.0613 -5.32373 2.76946 0
M  V30 386 H 34.1313 -3.91331 2.86336 0
M  V30 387 N 35.4744 -0.807222 -1.35358 0
M  V30 388 C 36.4374 -0.223665 -2.28106 0
M  V30 389 C 37.4374 0.589354 -1.4961 0
M  V30 390 O 38.6274 0.407745 -1.69361 0
M  V30 391 C 35.7594 0.688149 -3.33882 0
M  V30 392 H 36.9524 -1.04169 -2.81227 0
M  V30 393 H 34.5054 -0.577921 -1.45223 0
M  V30 394 H 35.2404 1.52984 -2.85948 0
M  V30 395 H 35.0254 0.10687 -3.91954 0
M  V30 396 H 36.5154 1.09075 -4.03104 0
M  V30 397 N 36.9525 1.47285 -0.560781 0
M  V30 398 C 38.1985 2.02764 -0.0381184 0
M  V30 399 C 38.5315 1.43384 1.30976 0
M  V30 400 O 37.8065 0.590733 1.85312 0
M  V30 401 C 38.0895 3.60064 0.0511427 0
M  V30 402 C 37.9425 4.2987 -1.32408 0
M  V30 403 C 39.2615 4.33439 0.762795 0
M  V30 404 H 36.3805 0.736841 -0.0153264 0
M  V30 405 H 39.0225 1.75675 -0.723759 0
M  V30 406 H 37.1725 3.83274 0.635065 0
M  V30 407 H 38.8445 4.17989 -1.95148 0
M  V30 408 H 37.0875 3.90085 -1.8978 0
M  V30 409 H 37.7585 5.38478 -1.21431 0
M  V30 410 H 40.2345 4.15243 0.266965 0
M  V30 411 H 39.1105 5.43124 0.794221 0
M  V30 412 H 39.3715 4.02915 1.81966 0
M  V30 413 N 38.4306 0.297415 1.54768 0
M  V30 414 C 39.7076 -0.365847 1.92148 0
M  V30 415 C 40.0876 -1.71975 1.22424 0
M  V30 416 O 39.4356 -2.25666 0.358739 0
M  V30 417 C 39.6456 -0.484056 3.45627 0
M  V30 418 C 40.9936 -0.756594 4.17805 0
M  V30 419 O 42.0176 -0.568007 3.51642 0
M  V30 420 O 40.8766 -1.11863 5.34929 0
M  V30 421 H 37.9706 -0.203919 0.801465 0
M  V30 422 H 40.5166 0.34521 1.66152 0
M  V30 423 H 39.2886 0.467865 3.88493 0
M  V30 424 H 38.9116 -1.24372 3.77647 0
M  V30 425 N 39.9087 -1.5758 0.0250728 0
M  V30 426 C 41.1857 -1.82917 -0.692873 0
M  V30 427 C 41.5657 -0.908137 -1.90568 0
M  V30 428 O 40.9137 0.0372298 -2.2847 0
M  V30 429 C 41.1237 -3.32034 -1.07492 0
M  V30 430 C 42.4717 -3.98406 -1.46826 0
M  V30 431 O 43.4957 -3.36505 -1.16801 0
M  V30 432 O 42.3547 -5.07497 -2.02754 0
M  V30 433 H 39.4487 -0.754079 -0.33955 0
M  V30 434 H 41.9947 -1.69619 0.0524456 0
M  V30 435 H 40.7667 -3.90728 -0.211552 0
M  V30 436 H 40.3897 -3.50424 -1.87854 0
M  V30 437 N 41.3868 0.248026 -1.55636 0
M  V30 438 C 42.6638 0.998988 -1.68165 0
M  V30 439 C 43.0438 2.03409 -0.564621 0
M  V30 440 O 42.3918 2.24378 0.432076 0
M  V30 441 C 42.6018 1.63334 -3.0842 0
M  V30 442 C 43.9498 2.13562 -3.66983 0
M  V30 443 O 44.9738 1.73277 -3.11213 0
M  V30 444 O 43.8328 2.87526 -4.64749 0
M  V30 445 H 40.9268 0.464933 -0.683935 0
M  V30 446 H 43.4728 0.241902 -1.67967 0
M  V30 447 H 42.2448 0.884583 -3.8117 0
M  V30 448 H 41.8678 2.45666 -3.12624 0
M  V30 449 N 42.8649 1.48995 0.513639 0
M  V30 450 C 44.1129 1.57531 1.26604 0
M  V30 451 C 44.4339 0.258236 1.93283 0
M  V30 452 O 43.7039 -0.721502 1.8213 0
M  V30 453 H 42.2839 0.580387 0.470276 0
M  V30 454 H 44.9459 1.85552 0.596373 0
M  V30 455 H 44.0419 2.36486 2.03669 0
M  V30 456 N 44.343 -0.763751 1.37857 0
M  V30 457 C 45.253 -1.90817 1.36478 0
M  V30 458 C 46.269 -1.71997 0.263248 0
M  V30 459 O 47.445 -1.95095 0.499979 0
M  V30 460 C 44.51 -3.2605 1.17864 0
M  V30 461 C 43.571 -3.57467 2.3773 0
M  V30 462 C 42.804 -4.86249 2.19995 0
M  V30 463 O 43.027 -5.57884 1.18836 0
M  V30 464 O 41.961 -5.16911 3.08361 0
M  V30 465 H 45.787 -1.94933 2.32884 0
M  V30 466 H 43.372 -0.907619 1.1867 0
M  V30 467 H 45.254 -4.06924 1.09504 0
M  V30 468 H 43.929 -3.22769 0.245372 0
M  V30 469 H 42.836 -2.76796 2.51664 0
M  V30 470 H 44.169 -3.655 3.29652 0
M  V30 471 N 45.8211 -1.22559 -0.990812 0
M  V30 472 C 47.0491 -1.07779 -1.76611 0
M  V30 473 C 47.4641 0.371513 -1.85109 0
M  V30 474 O 46.8211 1.25737 -1.32274 0
M  V30 475 C 46.8721 -1.68512 -3.19822 0
M  V30 476 O 46.5931 -3.07774 -3.1178 0
M  V30 477 C 48.0941 -1.59035 -4.13791 0
M  V30 478 H 45.3141 -0.377729 -0.554583 0
M  V30 479 H 47.8581 -1.62195 -1.24551 0
M  V30 480 H 46.0131 -1.18154 -3.68942 0
M  V30 481 H 46.4271 -3.37062 -4.01858 0
M  V30 482 H 47.9011 -2.0625 -5.1202 0
M  V30 483 H 48.3781 -0.547273 -4.35777 0
M  V30 484 H 48.9841 -2.08709 -3.70568 0
M  V30 485 N 47.2992 1.18797 -1.03562 0
M  V30 486 C 48.2322 2.2105 -0.56676 0
M  V30 487 C 49.2102 1.57704 0.395993 0
M  V30 488 O 50.3942 1.85908 0.311498 0
M  V30 489 C 47.5212 3.38259 0.172704 0
M  V30 490 C 46.5672 4.19987 -0.74252 0
M  V30 491 S 47.4002 4.87199 -2.22254 0
M  V30 492 C 48.5562 6.07813 -1.49379 0
M  V30 493 H 48.7892 2.60478 -1.43312 0
M  V30 494 H 46.3222 1.29151 -0.846133 0
M  V30 495 H 48.2802 4.06191 0.593191 0
M  V30 496 H 46.9412 2.97252 1.01488 0
M  V30 497 H 46.1342 5.03709 -0.171265 0
M  V30 498 H 45.7362 3.57408 -1.10163 0
M  V30 499 H 48.0282 6.72948 -0.784056 0
M  V30 500 H 48.9712 6.69435 -2.30786 0
M  V30 501 H 49.3792 5.55781 -0.988331 0
M  V30 502 N 48.7773 0.814389 1.34928 0
M  V30 503 C 50.0233 0.399013 1.98836 0
M  V30 504 C 50.3563 -1.03314 1.64438 0
M  V30 505 O 49.6313 -1.71811 0.911659 0
M  V30 506 C 49.9143 0.591629 3.55207 0
M  V30 507 C 49.7673 2.06928 3.99376 0
M  V30 508 C 51.0863 0.022199 4.40094 0
M  V30 509 H 48.2053 0.146451 0.722303 0
M  V30 510 H 50.8473 1.02537 1.59957 0
M  V30 511 H 48.9973 0.0584441 3.88456 0
M  V30 512 H 50.6693 2.66544 3.76499 0
M  V30 513 H 48.9123 2.56287 3.49999 0
M  V30 514 H 49.5833 2.1549 5.08201 0
M  V30 515 H 52.0593 0.477643 4.13349 0
M  V30 516 H 50.9353 0.186832 5.48582 0
M  V30 517 H 51.1963 -1.07215 4.28902 0
M  V30 518 N 50.2554 -1.46986 0.568584 0
M  V30 519 C 51.5014 -2.02741 0.0488709 0
M  V30 520 C 51.8344 -1.44077 -1.30214 0
M  V30 521 O 51.1094 -0.600552 -1.84996 0
M  V30 522 C 51.3924 -3.60086 -0.032047 0
M  V30 523 C 51.2454 -4.29162 1.34686 0
M  V30 524 C 52.5644 -4.33838 -0.739798 0
M  V30 525 H 49.6834 -0.736749 0.0192338 0
M  V30 526 H 52.3254 -1.75289 0.733065 0
M  V30 527 H 50.4754 -3.83606 -0.61473 0
M  V30 528 H 52.1474 -4.16948 1.97362 0
M  V30 529 H 50.3904 -3.89073 1.91846 0
M  V30 530 H 51.0614 -5.37826 1.24285 0
M  V30 531 H 53.5374 -4.15378 -0.244939 0
M  V30 532 H 52.4134 -5.43537 -0.765406 0
M  V30 533 H 52.6744 -4.03875 -1.79827 0
M  V30 534 N 51.7335 -0.305618 -1.54608 0
M  V30 535 C 52.9615 0.304775 -2.04643 0
M  V30 536 C 53.3765 1.47167 -1.18268 0
M  V30 537 O 52.7335 1.81296 -0.209328 0
M  V30 538 C 52.7845 0.756564 -3.53495 0
M  V30 539 O 52.5055 -0.36389 -4.36586 0
M  V30 540 C 54.0065 1.43163 -4.19546 0
M  V30 541 H 51.2265 0.0655481 -0.667791 0
M  V30 542 H 53.7705 -0.446592 -1.99564 0
M  V30 543 H 51.9255 1.45794 -3.58919 0
M  V30 544 H 52.3395 -0.0113121 -5.24499 0
M  V30 545 H 53.8135 1.69886 -5.25207 0
M  V30 546 H 54.2905 2.37318 -3.69563 0
M  V30 547 H 54.8965 0.773307 -4.18211 0
M  V30 548 N 53.2116 1.57565 -0.0334293 0
M  V30 549 C 54.1746 2.09393 0.932048 0
M  V30 550 C 55.1746 1.00986 1.25134 0
M  V30 551 O 56.3646 1.27129 1.19096 0
M  V30 552 C 53.4966 2.56338 2.2473 0
M  V30 553 H 54.6896 2.95984 0.483085 0
M  V30 554 H 52.2426 1.54819 0.21468 0
M  V30 555 H 52.9776 1.7309 2.74245 0
M  V30 556 H 52.7626 3.35542 2.02865 0
M  V30 557 H 54.2526 2.96646 2.93923 0
M  V30 558 N 54.6897 -0.239769 1.55765 0
M  V30 559 C 55.9147 -0.988373 1.82335 0
M  V30 560 C 56.3397 -1.77886 0.611421 0
M  V30 561 O 55.6977 -1.75889 -0.439639 0
M  V30 562 C 55.7457 -1.89627 3.06715 0
M  V30 563 O 54.8497 -2.98904 2.84131 0
M  V30 564 H 54.1907 -0.280858 0.601677 0
M  V30 565 H 56.7207 -0.258597 2.02959 0
M  V30 566 H 56.7307 -2.30957 3.36338 0
M  V30 567 H 55.4057 -1.31511 3.9456 0
M  V30 568 H 53.9827 -2.61651 2.65694 0
M  V30 569 N 56.1678 -1.49265 -0.50573 0
M  V30 570 C 57.3928 -1.62478 -1.28902 0
M  V30 571 C 57.8178 -0.294332 -1.85783 0
M  V30 572 O 57.1758 0.737412 -1.65626 0
M  V30 573 C 57.2238 -2.69268 -2.39848 0
M  V30 574 O 56.3278 -2.28113 -3.43567 0
M  V30 575 H 55.6688 -0.54399 -0.380751 0
M  V30 576 H 58.1988 -1.95421 -0.605952 0
M  V30 577 H 58.2088 -2.91291 -2.85681 0
M  V30 578 H 56.8838 -3.65846 -1.97812 0
M  V30 579 H 55.4608 -2.16401 -3.03685 0
M  V30 580 N 57.6459 0.756429 -1.3826 0
M  V30 581 C 58.8919 1.51772 -1.34511 0
M  V30 582 C 59.2249 1.94089 0.0656691 0
M  V30 583 O 58.4999 1.65221 1.02626 0
M  V30 584 C 58.7829 2.77226 -2.29821 0
M  V30 585 C 58.6359 2.41065 -3.79747 0
M  V30 586 C 59.9549 3.79236 -2.23312 0
M  V30 587 H 57.0739 0.550578 -0.489931 0
M  V30 588 H 59.7159 0.866607 -1.69086 0
M  V30 589 H 57.8659 3.32784 -2.00467 0
M  V30 590 H 59.5379 1.91303 -4.19763 0
M  V30 591 H 57.7809 1.7356 -3.97567 0
M  V30 592 H 58.4519 3.3081 -4.41892 0
M  V30 593 H 60.9279 3.3321 -2.49219 0
M  V30 594 H 59.8039 4.64714 -2.92116 0
M  V30 595 H 60.0649 4.24615 -1.23102 0
M  V30 596 N 59.124 1.23083 0.984299 0
M  V30 597 C 60.034 1.02515 2.11016 0
M  V30 598 C 61.05 -0.0291702 1.73976 0
M  V30 599 O 62.226 0.165434 2.00719 0
M  V30 600 C 59.291 0.614673 3.41208 0
M  V30 601 C 58.352 1.74359 3.92297 0
M  V30 602 C 57.585 1.35261 5.16275 0
M  V30 603 O 57.808 0.235136 5.69915 0
M  V30 604 O 56.742 2.17227 5.61334 0
M  V30 605 H 60.568 1.96862 2.31255 0
M  V30 606 H 58.153 1.01753 1.09392 0
M  V30 607 H 60.035 0.396518 4.1953 0
M  V30 608 H 58.71 -0.299851 3.22308 0
M  V30 609 H 57.617 2.01635 3.1511 0
M  V30 610 H 58.95 2.63629 4.15645 0
M  V30 611 N 60.6021 -1.18246 1.0419 0
M  V30 612 C 61.5341 -2.2142 0.592088 0
M  V30 613 C 62.5471 -1.59233 -0.338909 0
M  V30 614 O 63.7361 -1.78002 -0.133231 0
M  V30 615 C 60.8361 -3.38546 -0.154854 0
M  V30 616 C 60.0091 -4.3031 0.784328 0
M  V30 617 C 59.0681 -5.26138 0.0804583 0
M  V30 618 O 58.0941 -5.64738 0.711292 0
M  V30 619 N 59.2961 -5.68261 -1.18574 0
M  V30 620 H 62.0611 -2.60636 1.47949 0
M  V30 621 H 59.6221 -1.33044 0.922544 0
M  V30 622 H 61.6141 -3.99678 -0.635606 0
M  V30 623 H 60.1841 -2.98012 -0.943811 0
M  V30 624 H 59.4041 -3.66764 1.44491 0
M  V30 625 H 60.6921 -4.8852 1.42218 0
M  V30 626 H 60.0901 -5.38957 -1.71876 0
M  V30 627 H 58.6471 -6.31584 -1.61074 0
M  V30 628 N 62.0802 -0.821533 -1.34494 0
M  V30 629 C 63.0282 -0.230702 -2.31453 0
M  V30 630 C 64.0222 0.627793 -1.57338 0
M  V30 631 O 65.2282 0.519288 -1.72347 0
M  V30 632 H 61.6032 -0.0558577 -0.749923 0
M  V30 633 H 63.5742 -1.06332 -2.78812 0
M  V30 634 C 62.3232 0.59391 -3.4259 0
M  V30 635 H 61.6462 -0.0573588 -3.99759 0
M  V30 636 H 63.0862 0.973446 -4.12674 0
M  V30 637 C 61.5452 1.76568 -2.86924 0
M  V30 638 O 62.0752 2.8638 -2.81691 0
M  V30 639 N 60.2812 1.58198 -2.43766 0
M  V30 640 H 59.8282 0.68872 -2.48222 0
M  V30 641 H 59.7862 2.36752 -2.06871 0
M  V30 642 N 63.5583 1.46682 -0.576371 0
M  V30 643 C 64.4883 2.33028 0.148397 0
M  V30 644 C 65.4693 1.44961 0.889956 0
M  V30 645 O 66.6543 1.73789 0.866662 0
M  V30 646 C 63.7843 3.27117 1.1667 0
M  V30 647 C 62.7383 4.24575 0.540386 0
M  V30 648 C 62.0643 5.08126 1.6647 0
M  V30 649 C 63.3643 5.19722 -0.518331 0
M  V30 650 H 65.0583 2.93875 -0.572509 0
M  V30 651 H 62.6043 1.41315 -0.276768 0
M  V30 652 H 64.5573 3.86374 1.68204 0
M  V30 653 H 63.2813 2.64364 1.9178 0
M  V30 654 H 61.9403 3.66571 0.0461769 0
M  V30 655 H 61.5883 4.41762 2.40531 0
M  V30 656 H 61.2883 5.74122 1.25131 0
M  V30 657 H 62.8123 5.70246 2.18293 0
M  V30 658 H 64.2263 5.73232 -0.0883058 0
M  V30 659 H 62.6233 5.94026 -0.851679 0
M  V30 660 H 63.6933 4.64037 -1.40703 0
M  V30 661 N 65.0364 0.313813 1.54444 0
M  V30 662 C 65.9834 -0.55655 2.23989 0
M  V30 663 C 66.9534 -1.11943 1.22711 0
M  V30 664 O 68.1384 -1.16158 1.51367 0
M  V30 665 C 65.2784 -1.71635 2.99392 0
M  V30 666 C 64.3914 -1.18364 4.15468 0
M  V30 667 C 63.5264 -2.30834 4.78424 0
M  V30 668 C 62.5654 -1.74762 5.86622 0
M  V30 669 N 61.7024 -2.80855 6.43479 0
M  V30 670 H 66.5424 0.0430893 2.97969 0
M  V30 671 H 64.0794 0.0330359 1.47063 0
M  V30 672 H 66.0374 -2.39868 3.41349 0
M  V30 673 H 64.6674 -2.28742 2.27765 0
M  V30 674 H 63.7194 -0.393163 3.78363 0
M  V30 675 H 65.0314 -0.733262 4.93381 0
M  V30 676 H 64.1854 -3.0699 5.23299 0
M  V30 677 H 62.9244 -2.79204 3.99871 0
M  V30 678 H 61.9294 -0.970995 5.41158 0
M  V30 679 H 63.1544 -1.2728 6.67066 0
M  V30 680 H 61.1004 -3.28535 5.67804 0
M  V30 681 H 61.0174 -2.40351 7.16776 0
M  V30 682 H 62.2854 -3.5687 6.93011 0
M  V30 683 N 66.5145 -1.57545 0.0417849 0
M  V30 684 C 67.7915 -1.83642 -0.673433 0
M  V30 685 C 68.1715 -0.928298 -1.89594 0
M  V30 686 O 67.5195 0.0129955 -2.28496 0
M  V30 687 C 67.7295 -3.33155 -1.03964 0
M  V30 688 C 69.0775 -3.99941 -1.42592 0
M  V30 689 O 70.1015 -3.37725 -1.13226 0
M  V30 690 O 68.9605 -5.09619 -1.9736 0
M  V30 691 H 66.0545 -0.757638 -0.331533 0
M  V30 692 H 68.6005 -1.69554 0.070433 0
M  V30 693 H 67.3725 -3.9093 -0.170098 0
M  V30 694 H 66.9955 -3.52396 -1.84126 0
M  V30 695 N 67.9926 0.231505 -1.5589 0
M  V30 696 C 68.9556 1.27028 -1.90779 0
M  V30 697 C 69.9556 1.40308 -0.785507 0
M  V30 698 O 71.1456 1.38744 -1.05336 0
M  V30 699 C 68.2776 2.64566 -2.14983 0
M  V30 700 H 69.4706 0.973017 -2.83677 0
M  V30 701 H 67.0236 0.471486 -1.49019 0
M  V30 702 H 67.7586 2.99406 -1.24604 0
M  V30 703 H 67.5436 2.56305 -2.96732 0
M  V30 704 H 69.0336 3.39543 -2.43105 0
M  V30 705 N 69.4707 1.49531 0.497807 0
M  V30 706 C 70.8817 1.52344 1.07927 0
M  V30 707 C 71.2327 0.311469 1.93712 0
M  V30 708 O 70.3577 -0.578405 2.08527 0
M  V30 709 C 70.9527 2.76062 1.96405 0
M  V30 710 C 69.5117 2.81643 2.49709 0
M  V30 711 C 68.6587 2.46299 1.27404 0
M  V30 712 H 71.6097 1.56182 0.281576 0
M  V30 713 H 71.6307 2.56405 2.81135 0
M  V30 714 H 71.1427 3.64254 1.33943 0
M  V30 715 H 69.2437 1.97739 3.15801 0
M  V30 716 H 69.3567 3.83891 2.86643 0
M  V30 717 H 67.7207 1.98148 1.60029 0
M  V30 718 H 68.5037 3.36769 0.66645 0
M  V30 719 N 70.9488 -0.749086 1.3866 0
M  V30 720 C 71.9118 -1.84457 1.36045 0
M  V30 721 C 72.9118 -1.58682 0.260122 0
M  V30 722 O 74.1018 -1.66343 0.517261 0
M  V30 723 C 71.2338 -3.22008 1.11911 0
M  V30 724 H 72.4268 -1.88182 2.33512 0
M  V30 725 H 69.9798 -0.951266 1.24019 0
M  V30 726 H 70.7148 -3.2395 0.150686 0
M  V30 727 H 70.4998 -3.42111 1.91579 0
M  V30 728 H 71.9898 -4.0208 1.12788 0
M  V30 729 N 72.4269 -1.23603 -0.977757 0
M  V30 730 C 73.6519 -1.09735 -1.75991 0
M  V30 731 C 74.0769 0.346858 -1.84874 0
M  V30 732 O 73.4349 1.25093 -1.3123 0
M  V30 733 C 73.4829 -1.73051 -3.16363 0
M  V30 734 O 72.5869 -0.994452 -4.0023 0
M  V30 735 H 71.9279 -0.384476 -0.541364 0
M  V30 736 H 74.4579 -1.6371 -1.2272 0
M  V30 737 H 74.4679 -1.78398 -3.66931 0
M  V30 738 H 73.1429 -2.78137 -3.09213 0
M  V30 739 H 71.7199 -1.01812 -3.58732 0
M  V30 740 N 73.905 1.17692 -1.04816 0
M  V30 741 C 75.154 1.87192 -0.751132 0
M  V30 742 C 75.467 1.8169 0.724441 0
M  V30 743 O 76.673 2.46625 1.13527 0
M  V30 744 C 75.129 3.35857 -1.29338 0
M  V30 745 C 74.737 3.4987 -2.79812 0
M  V30 746 C 76.481 4.10709 -1.07322 0
M  V30 747 C 74.388 4.92536 -3.27356 0
M  V30 748 H 73.318 0.701162 -0.277288 0
M  V30 749 H 75.969 1.32932 -1.26496 0
M  V30 750 H 74.351 3.89631 -0.707376 0
M  V30 751 H 75.525 3.06332 -3.44235 0
M  V30 752 H 73.84 2.88433 -3.00325 0
M  V30 753 H 76.437 5.15952 -1.4035 0
M  V30 754 H 76.78 4.16299 -0.0108001 0
M  V30 755 H 77.313 3.6313 -1.62423 0
M  V30 756 H 74.052 4.92119 -4.33012 0
M  V30 757 H 73.572 5.3676 -2.67673 0
M  V30 758 H 75.251 5.61288 -3.21815 0
M  V30 759 N 75.3831 0.828654 1.34056 0
M  V30 760 C 76.6081 0.431637 2.02859 0
M  V30 761 C 77.0331 -0.956339 1.61975 0
M  V30 762 O 76.3911 -1.62338 0.807228 0
M  V30 763 C 76.4391 0.548323 3.56407 0
M  V30 764 O 75.5431 -0.429556 4.10157 0
M  V30 765 H 74.8841 0.176886 0.640006 0
M  V30 766 H 77.4141 1.12066 1.71179 0
M  V30 767 H 77.4241 0.426196 4.05768 0
M  V30 768 H 76.0991 1.5606 3.8551 0
M  V30 769 H 74.6761 -0.265836 3.71951 0
M  V30 770 N 76.8612 -1.46375 0.584142 0
M  V30 771 C 78.1072 -2.02678 0.0703716 0
M  V30 772 C 78.4402 -1.4545 -1.28678 0
M  V30 773 O 77.7152 -0.62014 -1.84349 0
M  V30 774 C 77.9982 -3.60099 0.00614674 0
M  V30 775 C 77.8512 -4.27709 1.3923 0
M  V30 776 C 79.1702 -4.34598 -0.693742 0
M  V30 777 H 76.2892 -0.736504 0.027047 0
M  V30 778 H 78.9312 -1.74501 0.751615 0
M  V30 779 H 77.0812 -3.84236 -0.574009 0
M  V30 780 H 78.7532 -4.14832 2.01773 0
M  V30 781 H 76.9962 -3.87016 1.95962 0
M  V30 782 H 77.6672 -5.36478 1.29982 0
M  V30 783 H 80.1432 -4.15615 -0.200869 0
M  V30 784 H 79.0192 -5.44318 -0.707714 0
M  V30 785 H 79.2802 -4.05759 -1.75533 0
M  V30 786 N 78.3393 -0.321999 -1.54275 0
M  V30 787 C 79.5883 0.281931 -1.9972 0
M  V30 788 C 79.9013 1.53369 -1.21397 0
M  V30 789 O 81.1073 2.21352 -1.57211 0
M  V30 790 C 79.5633 0.5529 -3.55628 0
M  V30 791 C 79.1713 -0.681721 -4.42783 0
M  V30 792 C 80.9153 1.11687 -4.09544 0
M  V30 793 C 78.8223 -0.382742 -5.9016 0
M  V30 794 H 77.7523 0.109124 -0.746062 0
M  V30 795 H 80.4033 -0.43398 -1.78294 0
M  V30 796 H 78.7853 1.32896 -3.73035 0
M  V30 797 H 79.9593 -1.45723 -4.37151 0
M  V30 798 H 78.2743 -1.1658 -3.99748 0
M  V30 799 H 80.8713 1.35515 -5.17242 0
M  V30 800 H 81.2143 2.06575 -3.61431 0
M  V30 801 H 81.7473 0.402032 -3.95763 0
M  V30 802 H 78.4863 -1.30076 -6.42464 0
M  V30 803 H 78.0063 0.355094 -5.98748 0
M  V30 804 H 79.6853 0.00800157 -6.47 0
M  V30 805 N 79.8174 1.5752 -0.0501392 0
M  V30 806 C 81.0454 1.96963 0.633492 0
M  V30 807 C 81.4604 0.927631 1.6444 0
M  V30 808 O 80.8174 -0.0882665 1.82286 0
M  V30 809 C 80.8684 3.36487 1.32132 0
M  V30 810 O 80.5894 4.36693 0.350894 0
M  V30 811 C 82.0904 3.90682 2.09481 0
M  V30 812 H 79.3104 0.648244 0.173266 0
M  V30 813 H 81.8544 2.0417 -0.116134 0
M  V30 814 H 80.0094 3.30434 2.02218 0
M  V30 815 H 80.4234 5.17702 0.841735 0
M  V30 816 H 81.8974 4.90591 2.5303 0
M  V30 817 H 82.3744 3.26053 2.94255 0
M  V30 818 H 82.9804 4.00069 1.44307 0
M  V30 819 N 81.2955 -0.223234 1.56011 0
M  V30 820 C 82.2275 -1.30006 1.88762 0
M  V30 821 C 83.2405 -1.43129 0.775746 0
M  V30 822 O 84.4295 -1.44057 1.05403 0
M  V30 823 C 81.5295 -2.67589 2.07965 0
M  V30 824 C 80.7025 -2.76434 3.38973 0
M  V30 825 C 79.7615 -3.95019 3.47629 0
M  V30 826 O 78.7875 -3.83436 4.20672 0
M  V30 827 N 79.9895 -5.09249 2.78649 0
M  V30 828 H 82.7545 -1.02238 2.81722 0
M  V30 829 H 80.3155 -0.413278 1.56536 0
M  V30 830 H 82.3075 -3.45297 2.11073 0
M  V30 831 H 80.8775 -2.87964 1.21638 0
M  V30 832 H 80.0975 -1.85216 3.47978 0
M  V30 833 H 81.3855 -2.79313 4.25278 0
M  V30 834 H 80.7835 -5.21556 2.19081 0
M  V30 835 H 79.3405 -5.85007 2.8742 0
M  V30 836 N 82.7736 -1.49793 -0.48987 0
M  V30 837 C 83.6836 -1.70036 -1.61632 0
M  V30 838 C 84.6996 -0.583102 -1.63939 0
M  V30 839 O 85.8756 -0.859169 -1.82154 0
M  V30 840 C 82.9406 -1.77277 -2.97949 0
M  V30 841 C 82.0016 -3.00918 -3.06181 0
M  V30 842 C 81.2346 -3.07804 -4.35996 0
M  V30 843 O 81.4576 -2.21982 -5.25433 0
M  V30 844 O 80.3916 -4.00369 -4.49431 0
M  V30 845 H 84.2176 -2.65486 -1.47482 0
M  V30 846 H 81.8026 -1.33666 -0.667362 0
M  V30 847 H 83.6846 -1.84329 -3.78947 0
M  V30 848 H 82.3596 -0.850076 -3.12339 0
M  V30 849 H 81.2666 -2.99377 -2.2433 0
M  V30 850 H 82.5996 -3.92704 -2.96723 0
M  V30 851 N 84.2517 0.741722 -1.39055 0
M  V30 852 C 85.5287 1.49252 -1.26425 0
M  V30 853 C 85.9087 2.10705 0.129144 0
M  V30 854 O 85.2567 1.98045 1.13976 0
M  V30 855 C 85.4667 2.54934 -2.38347 0
M  V30 856 C 86.8147 3.21506 -2.77343 0
M  V30 857 O 87.8387 2.65245 -2.37747 0
M  V30 858 O 86.6977 4.23294 -3.45665 0
M  V30 859 H 83.7917 0.662451 -0.495064 0
M  V30 860 H 86.3377 0.776121 -1.50912 0
M  V30 861 H 85.1097 2.07857 -3.31529 0
M  V30 862 H 84.7327 3.34141 -2.15489 0
M  V30 863 N 85.7298 1.2412 0.971189 0
M  V30 864 C 86.6598 1.05508 2.08304 0
M  V30 865 C 87.6408 -0.0308864 1.70072 0
M  V30 866 O 88.8258 0.135521 1.93727 0
M  V30 867 C 85.9558 0.655365 3.4106 0
M  V30 868 C 84.9098 1.68971 3.93234 0
M  V30 869 C 84.2358 1.14516 5.22293 0
M  V30 870 C 85.5358 3.08487 4.21465 0
M  V30 871 H 87.2298 1.98507 2.24132 0
M  V30 872 H 84.7758 0.955821 1.07704 0
M  V30 873 H 86.7288 0.51217 4.18276 0
M  V30 874 H 85.4528 -0.31032 3.25122 0
M  V30 875 H 84.1118 1.82106 3.18171 0
M  V30 876 H 83.7598 0.170189 5.02712 0
M  V30 877 H 83.4598 1.83635 5.58168 0
M  V30 878 H 84.9838 1.01401 6.02121 0
M  V30 879 H 86.3978 2.98601 4.89398 0
M  V30 880 H 84.7948 3.74926 4.68562 0
M  V30 881 H 85.8648 3.56787 3.28376 0
M  V30 882 N 87.2079 -1.17134 1.05439 0
M  V30 883 C 88.1399 -2.2078 0.615539 0
M  V30 884 C 89.1529 -1.59584 -0.322001 0
M  V30 885 O 90.3419 -1.78133 -0.114344 0
M  V30 886 C 87.4419 -3.38691 -0.118938 0
M  V30 887 C 86.6149 -4.29454 0.829924 0
M  V30 888 C 85.6739 -5.26024 0.136258 0
M  V30 889 O 84.6999 -5.63952 0.77115 0
M  V30 890 N 85.9019 -5.69487 -1.1254 0
M  V30 891 H 88.6669 -2.59052 1.50705 0
M  V30 892 H 86.2279 -1.32058 0.936603 0
M  V30 893 H 88.2199 -4.00329 -0.593179 0
M  V30 894 H 86.7899 -2.98996 -0.91215 0
M  V30 895 H 86.0099 -3.65211 1.48373 0
M  V30 896 H 87.2979 -4.86984 1.47392 0
M  V30 897 H 86.6959 -5.4075 -1.6615 0
M  V30 898 H 85.2529 -6.33257 -1.54366 0
M  V30 899 N 88.686 -0.835752 -1.33615 0
M  V30 900 C 90.102 -0.523139 -1.50783 0
M  V30 901 C 90.302 0.950171 -1.77691 0
M  V30 902 O 89.358 1.73411 -1.83534 0
M  V30 903 C 90.671 -1.39378 -2.66448 0
M  V30 904 C 92.219 -1.39223 -2.80332 0
M  V30 905 C 92.694 -2.24765 -3.99055 0
M  V30 906 N 94.185 -2.22458 -4.06284 0
M  V30 907 C 94.92 -2.85386 -4.97336 0
M  V30 908 N 94.416 -3.57354 -5.93523 0
M  V30 909 N 96.209 -2.74872 -4.90308 0
M  V30 910 H 88.36 -1.78952 -1.14411 0
M  V30 911 H 90.623 -0.763297 -0.562212 0
M  V30 912 H 90.329 -2.44061 -2.53234 0
M  V30 913 H 90.203 -1.0676 -3.61776 0
M  V30 914 H 92.59 -0.353136 -2.92979 0
M  V30 915 H 92.671 -1.75846 -1.85773 0
M  V30 916 H 92.315 -3.28732 -3.87167 0
M  V30 917 H 92.245 -1.85485 -4.92852 0
M  V30 918 H 94.736 -1.70119 -3.37443 0
M  V30 919 H 95.049 -4.02584 -6.59656 0
M  V30 920 H 93.394 -3.61461 -5.93608 0
M  V30 921 H 96.585 -2.18213 -4.14126 0
M  V30 922 H 96.758 -3.24199 -5.61069 0
M  V30 923 N 90.1641 1.46063 -0.591896 0
M  V30 924 C 91.1111 2.30399 0.136069 0
M  V30 925 C 92.0811 1.41169 0.875238 0
M  V30 926 O 93.2661 1.70112 0.86409 0
M  V30 927 C 90.4061 3.25804 1.13781 0
M  V30 928 C 89.5191 4.30134 0.401137 0
M  V30 929 C 88.6541 5.12659 1.39121 0
M  V30 930 C 87.6931 6.0873 0.641462 0
M  V30 931 N 86.8301 6.8409 1.58004 0
M  V30 932 H 91.6701 2.92118 -0.589144 0
M  V30 933 H 89.2071 1.43959 -0.302342 0
M  V30 934 H 91.1651 3.79569 1.73156 0
M  V30 935 H 89.7951 2.65872 1.83062 0
M  V30 936 H 88.8471 3.79152 -0.307826 0
M  V30 937 H 90.1591 4.98458 -0.184565 0
M  V30 938 H 89.3131 5.70747 2.05749 0
M  V30 939 H 88.0521 4.44316 2.01084 0
M  V30 940 H 87.0571 5.49786 -0.0385419 0
M  V30 941 H 88.2821 6.79095 0.0270945 0
M  V30 942 H 86.2281 6.18449 2.18761 0
M  V30 943 H 86.1451 7.48709 1.04738 0
M  V30 944 H 87.4131 7.4673 2.23639 0
M  V30 945 N 91.6422 0.330177 1.54103 0
M  V30 946 C 93.0532 -0.15652 1.86043 0
M  V30 947 C 93.4042 -1.51086 1.2517 0
M  V30 948 O 92.5292 -2.09023 0.560217 0
M  V30 949 C 93.1242 -0.290784 3.3755 0
M  V30 950 C 91.6832 -0.721705 3.69416 0
M  V30 951 C 90.8302 0.152622 2.7688 0
M  V30 952 H 93.7812 0.550237 1.48856 0
M  V30 953 H 93.8022 -1.12058 3.63625 0
M  V30 954 H 93.3142 0.695068 3.81825 0
M  V30 955 H 91.4152 -1.71706 3.30678 0
M  V30 956 H 91.5282 -0.520869 4.7626 0
M  V30 957 H 89.8922 -0.372894 2.51956 0
M  V30 958 H 90.6752 1.13536 3.23982 0
M  V30 959 N 93.1203 -1.57491 0.0584922 0
M  V30 960 C 94.3663 -1.93264 -0.614558 0
M  V30 961 C 94.6993 -0.937717 -1.7006 0
M  V30 962 O 93.9743 0.0351652 -1.94468 0
M  V30 963 C 94.2573 -3.3938 -1.20386 0
M  V30 964 C 94.1103 -4.49625 -0.125375 0
M  V30 965 C 95.4293 -3.86039 -2.11334 0
M  V30 966 H 92.5483 -0.702791 -0.221933 0
M  V30 967 H 95.1903 -1.8961 0.12175 0
M  V30 968 H 93.3403 -3.42626 -1.83139 0
M  V30 969 H 95.0123 -4.58506 0.506971 0
M  V30 970 H 93.2553 -4.30354 0.545672 0
M  V30 971 H 93.9263 -5.48967 -0.577861 0
M  V30 972 H 96.4023 -3.84716 -1.58534 0
M  V30 973 H 95.2783 -4.88914 -2.49507 0
M  V30 974 H 95.5393 -3.23215 -3.01636 0
M  V30 975 N 94.5984 0.214957 -1.56127 0
M  V30 976 C 95.5304 1.29004 -1.89448 0
M  V30 977 C 96.5434 1.42716 -0.783326 0
M  V30 978 O 97.7324 1.43496 -1.06166 0
M  V30 979 C 94.8324 2.66482 -2.09381 0
M  V30 980 C 94.0054 2.74633 -3.40434 0
M  V30 981 C 93.0644 3.9317 -3.49719 0
M  V30 982 O 92.0904 3.812 -4.227 0
M  V30 983 N 93.2924 5.07765 -2.81346 0
M  V30 984 H 96.0574 1.00743 -2.82261 0
M  V30 985 H 93.6184 0.40497 -1.56753 0
M  V30 986 H 95.6104 3.44173 -2.12901 0
M  V30 987 H 94.1804 2.87314 -1.23163 0
M  V30 988 H 93.4004 1.83368 -3.48955 0
M  V30 989 H 94.6884 2.77054 -4.26754 0
M  V30 990 H 94.0864 5.20386 -2.21843 0
M  V30 991 H 92.6434 5.83474 -2.90519 0
M  V30 992 N 96.0765 1.50051 0.48192 0
M  V30 993 C 97.0245 1.68635 1.60203 0
M  V30 994 C 98.0185 0.552184 1.60148 0
M  V30 995 O 99.2245 0.732377 1.64427 0
M  V30 996 H 95.5995 0.532081 0.531407 0
M  V30 997 H 97.5705 2.62616 1.41688 0
M  V30 998 C 96.3195 1.78775 2.9822 0
M  V30 999 H 95.6425 2.6543 2.98976 0
M  V30 1000 H 97.0825 1.95806 3.7608 0
M  V30 1001 C 95.5415 0.536849 3.32595 0
M  V30 1002 O 96.0715 -0.328897 4.00351 0
M  V30 1003 N 94.2775 0.394091 2.87915 0
M  V30 1004 H 93.8245 1.09962 2.32951 0
M  V30 1005 H 93.7825 -0.441737 3.11281 0
M  V30 1006 N 97.5546 -0.734337 1.39446 0
M  V30 1007 C 98.4846 -1.86155 1.40955 0
M  V30 1008 C 99.4656 -1.67898 0.272827 0
M  V30 1009 O 100.651 -1.88207 0.478743 0
M  V30 1010 C 97.7806 -3.23912 1.25294 0
M  V30 1011 C 96.7346 -3.56808 2.36373 0
M  V30 1012 C 96.0606 -4.93508 2.058 0
M  V30 1013 C 97.3606 -3.59713 3.78687 0
M  V30 1014 H 99.0546 -1.8515 2.35287 0
M  V30 1015 H 96.6006 -0.889367 1.13253 0
M  V30 1016 H 98.5536 -4.02443 1.2497 0
M  V30 1017 H 97.2776 -3.25446 0.274308 0
M  V30 1018 H 95.9366 -2.80606 2.35914 0
M  V30 1019 H 95.5846 -4.91623 1.06374 0
M  V30 1020 H 95.2846 -5.16486 2.80208 0
M  V30 1021 H 96.8086 -5.74396 2.07128 0
M  V30 1022 H 98.2226 -4.2832 3.81071 0
M  V30 1023 H 96.6196 -3.94209 4.52459 0
M  V30 1024 H 97.6896 -2.59504 4.09617 0
M  V30 1025 N 99.0327 -1.24633 -0.964593 0
M  V30 1026 C 99.9797 -1.04144 -2.05968 0
M  V30 1027 C 100.95 0.046262 -1.66036 0
M  V30 1028 O 102.135 -0.108972 -1.90489 0
M  V30 1029 C 99.2747 -0.65563 -3.38815 0
M  V30 1030 C 98.3877 -1.81714 -3.91923 0
M  V30 1031 C 97.5227 -1.37662 -5.13052 0
M  V30 1032 C 96.5617 -2.50788 -5.58365 0
M  V30 1033 N 95.6987 -2.07582 -6.70712 0
M  V30 1034 H 100.539 -1.9787 -2.22827 0
M  V30 1035 H 98.0757 -0.9855 -1.09208 0
M  V30 1036 H 100.034 -0.412954 -4.15151 0
M  V30 1037 H 98.6637 0.244627 -3.21872 0
M  V30 1038 H 97.7157 -2.1734 -3.12198 0
M  V30 1039 H 99.0277 -2.66705 -4.21509 0
M  V30 1040 H 98.1817 -1.093 -5.96773 0
M  V30 1041 H 96.9207 -0.497293 -4.85158 0
M  V30 1042 H 95.9257 -2.79906 -4.73215 0
M  V30 1043 H 97.1507 -3.39283 -5.88272 0
M  V30 1044 H 95.0967 -1.22051 -6.44546 0
M  V30 1045 H 95.0137 -2.86125 -6.99763 0
M  V30 1046 H 96.2817 -1.82369 -7.57867 0
M  V30 1047 N 100.511 1.16574 -1.06058 0
M  V30 1048 C 101.788 1.83048 -0.689416 0
M  V30 1049 C 102.168 1.94122 0.829443 0
M  V30 1050 O 101.516 1.48249 1.7388 0
M  V30 1051 C 101.726 3.20186 -1.38859 0
M  V30 1052 C 103.074 3.95989 -1.53226 0
M  V30 1053 O 104.098 3.29696 -1.3483 0
M  V30 1054 O 102.957 5.14813 -1.83384 0
M  V30 1055 H 100.051 0.790258 -0.243764 0
M  V30 1056 H 102.597 1.23797 -1.16071 0
M  V30 1057 H 101.369 3.07146 -2.4244 0
M  V30 1058 H 100.992 3.87112 -0.907216 0
M  V30 1059 N 101.989 0.842826 1.3317 0
M  V30 1060 C 103.235 0.441099 1.97945 0
M  V30 1061 C 103.568 -0.998024 1.66593 0
M  V30 1062 O 102.843 -1.69839 0.947898 0
M  V30 1063 C 103.126 0.666841 3.53872 0
M  V30 1064 C 102.979 2.15352 3.94897 0
M  V30 1065 C 104.298 0.115544 4.39948 0
M  V30 1066 H 101.417 0.161739 0.719034 0
M  V30 1067 H 104.059 1.05907 1.57746 0
M  V30 1068 H 102.209 0.140828 3.88245 0
M  V30 1069 H 103.881 2.7447 3.70761 0
M  V30 1070 H 102.124 2.63653 3.44484 0
M  V30 1071 H 102.795 2.26221 5.03516 0
M  V30 1072 H 105.271 0.565213 4.12243 0
M  V30 1073 H 104.147 0.303152 5.48062 0
M  V30 1074 H 104.408 -0.980935 4.3108 0
M  V30 1075 N 103.467 -1.45747 0.599634 0
M  V30 1076 C 104.397 -2.33235 -0.111306 0
M  V30 1077 C 105.378 -1.46359 -0.866781 0
M  V30 1078 O 106.563 -1.75146 -0.838904 0
M  V30 1079 C 103.693 -3.28932 -1.11451 0
M  V30 1080 C 102.647 -4.25381 -0.472772 0
M  V30 1081 C 101.973 -5.1071 -1.58365 0
M  V30 1082 C 103.273 -5.18831 0.600948 0
M  V30 1083 H 104.967 -2.92927 0.61919 0
M  V30 1084 H 102.513 -1.40857 0.299215 0
M  V30 1085 H 104.466 -3.89002 -1.62036 0
M  V30 1086 H 103.19 -2.67381 -1.8755 0
M  V30 1087 H 101.849 -3.66598 0.0121472 0
M  V30 1088 H 101.497 -4.45533 -2.33473 0
M  V30 1089 H 101.197 -5.7604 -1.15982 0
M  V30 1090 H 102.721 -5.73647 -2.09194 0
M  V30 1091 H 104.135 -5.73019 0.179491 0
M  V30 1092 H 102.532 -5.92595 0.946076 0
M  V30 1093 H 103.602 -4.6174 1.48068 0
M  V30 1094 N 104.945 -0.338344 -1.53925 0
M  V30 1095 C 105.892 0.520845 -2.24846 0
M  V30 1096 C 106.862 1.09976 -1.24477 0
M  V30 1097 O 108.047 1.13735 -1.53196 0
M  V30 1098 C 105.187 1.6685 -3.02084 0
M  V30 1099 C 104.3 1.11739 -4.17299 0
M  V30 1100 C 103.435 2.23193 -4.82036 0
M  V30 1101 C 102.474 1.65407 -5.89328 0
M  V30 1102 N 101.611 2.70582 -6.47866 0
M  V30 1103 H 106.451 -0.0904881 -2.97863 0
M  V30 1104 H 103.988 -0.0564282 -1.46992 0
M  V30 1105 H 105.946 2.34407 -3.45122 0
M  V30 1106 H 104.576 2.2509 -2.31375 0
M  V30 1107 H 103.628 0.332919 -3.7894 0
M  V30 1108 H 104.94 0.654677 -4.94485 0
M  V30 1109 H 104.094 2.98626 -5.28117 0
M  V30 1110 H 102.833 2.72807 -4.04262 0
M  V30 1111 H 101.838 0.884779 -5.42634 0
M  V30 1112 H 103.063 1.16652 -6.69006 0
M  V30 1113 H 101.009 3.1946 -5.72959 0
M  V30 1114 H 100.926 2.28917 -7.20509 0
M  V30 1115 H 102.194 3.45799 -6.98601 0
M  V30 1116 N 106.423 1.57458 -0.0668435 0
M  V30 1117 C 107.333 2.15937 0.916975 0
M  V30 1118 C 108.349 1.12123 1.33058 0
M  V30 1119 O 109.525 1.44366 1.40429 0
M  V30 1120 C 106.59 2.70547 2.16807 0
M  V30 1121 C 105.651 3.89215 1.81135 0
M  V30 1122 C 104.884 4.41211 3.0028 0
M  V30 1123 O 105.107 3.92225 4.14144 0
M  V30 1124 O 104.041 5.32605 2.80384 0
M  V30 1125 H 107.867 3.00354 0.449561 0
M  V30 1126 H 105.452 1.48584 0.155949 0
M  V30 1127 H 107.334 3.0557 2.90181 0
M  V30 1128 H 106.009 1.89192 2.62656 0
M  V30 1129 H 104.916 3.59054 1.05028 0
M  V30 1130 H 106.249 4.71848 1.40073 0
M  V30 1131 N 107.901 -0.206675 1.56239 0
M  V30 1132 C 109.147 -0.930218 1.80208 0
M  V30 1133 C 109.48 -1.83387 0.638981 0
M  V30 1134 O 108.755 -1.91119 -0.361066 0
M  V30 1135 C 109.038 -1.75641 3.1436 0
M  V30 1136 C 108.891 -0.878257 4.41142 0
M  V30 1137 C 110.21 -2.73129 3.45092 0
M  V30 1138 H 107.329 -0.336742 0.655571 0
M  V30 1139 H 109.971 -0.198222 1.88963 0
M  V30 1140 H 108.121 -2.38048 3.07027 0
M  V30 1141 H 109.793 -0.269787 4.6051 0
M  V30 1142 H 108.036 -0.184385 4.33408 0
M  V30 1143 H 108.707 -1.49106 5.3148 0
M  V30 1144 H 111.183 -2.20856 3.52649 0
M  V30 1145 H 110.059 -3.28028 4.40101 0
M  V30 1146 H 110.32 -3.51606 2.68003 0
M  V30 1147 N 109.379 -1.50304 -0.473955 0
M  V30 1148 C 110.79 -1.54042 -1.0549 0
M  V30 1149 C 111.141 -0.342248 -1.93192 0
M  V30 1150 O 110.266 0.545157 -2.09421 0
M  V30 1151 C 110.861 -2.79152 -1.91989 0
M  V30 1152 C 109.42 -2.8558 -2.45196 0
M  V30 1153 C 108.567 -2.48295 -1.2347 0
M  V30 1154 H 111.518 -1.5661 -0.256693 0
M  V30 1155 H 111.539 -2.60845 -2.7702 0
M  V30 1156 H 111.051 -3.66339 -1.28131 0
M  V30 1157 H 109.152 -2.02738 -3.12615 0
M  V30 1158 H 109.265 -3.88403 -2.80499 0
M  V30 1159 H 107.629 -2.00669 -1.56856 0
M  V30 1160 H 108.412 -3.37787 -0.612789 0
M  V30 1161 N 110.857 0.726932 -1.39834 0
M  V30 1162 C 112.105 1.4837 -1.37225 0
M  V30 1163 C 112.426 1.94979 0.0284857 0
M  V30 1164 O 111.696 1.69555 0.981213 0
M  V30 1165 H 110.276 0.55043 -0.505011 0
M  V30 1166 H 112.938 0.862468 -1.74778 0
M  V30 1167 H 112.034 2.36198 -2.04003 0
M  V30 1168 N 112.336 1.25143 0.95797 0
M  V30 1169 C 113.582 1.09855 1.70469 0
M  V30 1170 C 113.915 -0.360187 1.90831 0
M  V30 1171 O 113.19 -1.26568 1.47685 0
M  V30 1172 C 113.473 1.8497 3.08963 0
M  V30 1173 C 113.326 3.38652 2.96032 0
M  V30 1174 C 114.645 1.63016 4.08795 0
M  V30 1175 H 111.764 0.400465 0.618706 0
M  V30 1176 H 114.406 1.53933 1.11376 0
M  V30 1177 H 112.556 1.47505 3.59409 0
M  V30 1178 H 114.228 3.85772 2.52938 0
M  V30 1179 H 112.471 3.66534 2.32025 0
M  V30 1180 H 113.142 3.8642 3.94187 0
M  V30 1181 H 115.618 1.95625 3.67247 0
M  V30 1182 H 114.494 2.18015 5.03747 0
M  V30 1183 H 114.755 0.570692 4.38401 0
M  V30 1184 N 113.814 -1.1601 1.06675 0
M  V30 1185 C 114.746 -2.20115 0.638921 0
M  V30 1186 C 115.759 -1.59916 -0.305057 0
M  V30 1187 O 116.948 -1.78245 -0.0954446 0
M  V30 1188 C 114.048 -3.38798 -0.0830083 0
M  V30 1189 C 113.221 -4.2855 0.875426 0
M  V30 1190 C 112.28 -5.25849 0.192042 0
M  V30 1191 O 111.306 -5.63102 0.830921 0
M  V30 1192 N 112.508 -5.70648 -1.06493 0
M  V30 1193 H 115.273 -2.57439 1.53444 0
M  V30 1194 H 112.834 -1.31057 0.950557 0
M  V30 1195 H 114.826 -4.00936 -0.550685 0
M  V30 1196 H 113.396 -2.99947 -0.880386 0
M  V30 1197 H 112.616 -3.63617 1.52238 0
M  V30 1198 H 113.904 -4.85393 1.52548 0
M  V30 1199 H 113.302 -5.42482 -1.60405 0
M  V30 1200 H 111.859 -6.34859 -1.47641 0
M  V30 1201 N 115.292 -0.849877 -1.32721 0
M  V30 1202 C 116.222 -0.306308 -2.31482 0
M  V30 1203 C 117.203 0.591952 -1.59468 0
M  V30 1204 O 118.388 0.513199 -1.87296 0
M  V30 1205 C 115.518 0.510204 -3.43532 0
M  V30 1206 C 114.472 -0.293209 -4.26994 0
M  V30 1207 C 113.798 0.647743 -5.30762 0
M  V30 1208 C 115.098 -1.51634 -4.99804 0
M  V30 1209 H 116.792 -1.13153 -2.77195 0
M  V30 1210 H 114.338 -0.545553 -1.33266 0
M  V30 1211 H 116.291 0.900856 -4.11658 0
M  V30 1212 H 115.015 1.36874 -2.96535 0
M  V30 1213 H 113.674 -0.665555 -3.60508 0
M  V30 1214 H 113.322 1.50299 -4.8002 0
M  V30 1215 H 113.022 0.11422 -5.87489 0
M  V30 1216 H 114.546 1.03567 -6.01753 0
M  V30 1217 H 115.96 -1.19824 -5.60638 0
M  V30 1218 H 114.357 -1.98745 -5.66234 0
M  V30 1219 H 115.427 -2.28018 -4.27943 0
M  V30 1220 N 116.77 1.45427 -0.607355 0
M  V30 1221 C 117.998 2.06614 -0.108814 0
M  V30 1222 C 118.413 1.45204 1.2067 0
M  V30 1223 O 117.77 0.566132 1.73497 0
M  V30 1224 C 117.821 3.61481 0.0375347 0
M  V30 1225 O 117.542 4.20598 -1.22593 0
M  V30 1226 C 119.043 4.39652 0.567561 0
M  V30 1227 H 116.263 0.66747 -0.0687351 0
M  V30 1228 H 118.807 1.86675 -0.835022 0
M  V30 1229 H 116.962 3.80762 0.714068 0
M  V30 1230 H 117.376 5.1377 -1.05547 0
M  V30 1231 H 118.85 5.48518 0.61905 0
M  V30 1232 H 119.327 4.09417 1.58978 0
M  V30 1233 H 119.933 4.25234 -0.0749202 0
M  V30 1234 N 118.248 0.346503 1.53744 0
M  V30 1235 C 119.196 -0.52422 2.26616 0
M  V30 1236 C 120.19 -1.09948 1.28871 0
M  V30 1237 O 121.396 -1.04488 1.46568 0
M  V30 1238 H 117.771 -0.187743 0.728187 0
M  V30 1239 H 119.742 0.11239 2.98188 0
M  V30 1240 C 118.491 -1.66186 3.05414 0
M  V30 1241 H 117.814 -1.22848 3.80458 0
M  V30 1242 H 119.254 -2.24622 3.59612 0
M  V30 1243 C 117.713 -2.59302 2.1509 0
M  V30 1244 O 118.243 -3.61628 1.74895 0
M  V30 1245 N 116.449 -2.28055 1.8011 0
M  V30 1246 H 115.996 -1.44883 2.12994 0
M  V30 1247 H 115.954 -2.90615 1.19958 0
M  V30 1248 N 119.726 -1.57421 0.075193 0
M  V30 1249 C 120.636 -2.1642 -0.905511 0
M  V30 1250 C 121.652 -1.12828 -1.32461 0
M  V30 1251 O 122.828 -1.45109 -1.39661 0
M  V30 1252 C 119.893 -2.71693 -2.15369 0
M  V30 1253 C 118.954 -3.90171 -1.79068 0
M  V30 1254 C 118.187 -4.42798 -2.97936 0
M  V30 1255 O 118.41 -3.94416 -4.12058 0
M  V30 1256 O 117.344 -5.34085 -2.77555 0
M  V30 1257 H 121.17 -3.00588 -0.433626 0
M  V30 1258 H 118.755 -1.48664 -0.148067 0
M  V30 1259 H 120.637 -3.07104 -2.88557 0
M  V30 1260 H 119.312 -1.90582 -2.61649 0
M  V30 1261 H 118.219 -3.59606 -1.03122 0
M  V30 1262 H 119.552 -4.72584 -1.37569 0
M  V30 1263 N 121.204 0.198386 -1.56346 0
M  V30 1264 C 122.452 0.91747 -1.80075 0
M  V30 1265 C 122.773 1.83929 -0.647692 0
M  V30 1266 O 122.043 1.93029 0.334166 0
M  V30 1267 H 120.623 0.341774 -0.664228 0
M  V30 1268 H 123.285 0.204684 -1.93822 0
M  V30 1269 H 122.381 1.51055 -2.7311 0
M  V30 1270 N 122.682 1.50554 0.465978 0
M  V30 1271 C 123.959 1.5232 1.22712 0
M  V30 1272 C 124.339 0.270807 2.09356 0
M  V30 1273 O 123.687 -0.745541 2.15995 0
M  V30 1274 C 123.897 2.82175 2.05374 0
M  V30 1275 C 125.245 3.33033 2.6339 0
M  V30 1276 O 126.269 2.83531 2.15612 0
M  V30 1277 O 125.128 4.19336 3.50456 0
M  V30 1278 H 122.222 0.611183 0.557122 0
M  V30 1279 H 124.768 1.62847 0.477381 0
M  V30 1280 H 123.54 3.64797 1.41558 0
M  V30 1281 H 123.163 2.74675 2.87471 0
M  V30 1282 N 124.16 -0.719506 1.40217 0
M  V30 1283 C 125.108 -1.85493 1.40339 0
M  V30 1284 C 126.102 -1.66995 0.284415 0
M  V30 1285 O 127.308 -1.74148 0.455252 0
M  V30 1286 H 123.683 -0.610857 0.438586 0
M  V30 1287 H 125.654 -1.82506 2.36081 0
M  V30 1288 C 124.403 -3.23321 1.27901 0
M  V30 1289 H 123.726 -3.38159 2.1328 0
M  V30 1290 H 125.166 -4.02914 1.32045 0
M  V30 1291 C 123.625 -3.36898 -0.0111355 0
M  V30 1292 O 124.155 -3.89674 -0.975538 0
M  V30 1293 N 122.361 -2.90492 -0.0793393 0
M  V30 1294 H 121.908 -2.47731 0.706183 0
M  V30 1295 H 121.866 -2.99955 -0.942038 0
M  V30 1296 N 125.638 -1.25649 -0.95132 0
M  V30 1297 C 127.054 -1.02542 -1.223 0
M  V30 1298 C 127.254 0.255715 -1.99871 0
M  V30 1299 O 126.31 0.967558 -2.33226 0
M  V30 1300 C 127.623 -2.25065 -1.99415 0
M  V30 1301 C 129.171 -2.29861 -2.12446 0
M  V30 1302 C 129.646 -3.52048 -2.92961 0
M  V30 1303 N 131.137 -3.52465 -3.00538 0
M  V30 1304 C 131.872 -4.43672 -3.63239 0
M  V30 1305 N 131.368 -5.45157 -4.27523 0
M  V30 1306 N 133.161 -4.31346 -3.60412 0
M  V30 1307 H 125.312 -2.07951 -0.432471 0
M  V30 1308 H 127.575 -0.91339 -0.253816 0
M  V30 1309 H 127.281 -3.18194 -1.49817 0
M  V30 1310 H 127.155 -2.28502 -3.00111 0
M  V30 1311 H 129.542 -1.37252 -2.61239 0
M  V30 1312 H 129.623 -2.3044 -1.11044 0
M  V30 1313 H 129.267 -4.44981 -2.44856 0
M  V30 1314 H 129.197 -3.48715 -3.94596 0
M  V30 1315 H 131.688 -2.79056 -2.54826 0
M  V30 1316 H 132.001 -6.10958 -4.73234 0
M  V30 1317 H 130.346 -5.49025 -4.26141 0
M  V30 1318 H 133.537 -3.51288 -3.09377 0
M  V30 1319 H 133.71 -5.02624 -4.0899 0
M  V30 1320 N 127.117 1.15442 -1.07289 0
M  V30 1321 C 128.064 2.20161 -0.692653 0
M  V30 1322 C 129.034 1.63073 0.31564 0
M  V30 1323 O 130.219 1.89725 0.202235 0
M  V30 1324 C 127.359 3.44967 -0.0959509 0
M  V30 1325 C 126.472 4.16256 -1.15564 0
M  V30 1326 C 125.607 5.28609 -0.524011 0
M  V30 1327 C 124.646 5.91715 -1.56653 0
M  V30 1328 N 123.783 6.9554 -0.957531 0
M  V30 1329 H 128.623 2.52037 -1.59002 0
M  V30 1330 H 126.16 1.2378 -0.794798 0
M  V30 1331 H 128.118 4.16341 0.267628 0
M  V30 1332 H 126.748 3.1361 0.764772 0
M  V30 1333 H 125.8 3.43385 -1.6368 0
M  V30 1334 H 127.112 4.59268 -1.94613 0
M  V30 1335 H 126.266 6.06604 -0.108032 0
M  V30 1336 H 125.005 4.86787 0.29825 0
M  V30 1337 H 124.01 5.12433 -1.9923 0
M  V30 1338 H 125.235 6.35614 -2.39107 0
M  V30 1339 H 123.181 6.55814 -0.156162 0
M  V30 1340 H 123.098 7.36977 -1.68526 0
M  V30 1341 H 124.366 7.77435 -0.567032 0
M  V30 1342 N 128.595 0.856903 1.32268 0
M  V30 1343 C 129.843 0.460474 1.96784 0
M  V30 1344 C 130.164 -0.987701 1.68135 0
M  V30 1345 O 129.434 -1.69058 0.989765 0
M  V30 1346 H 128.014 0.167289 0.728027 0
M  V30 1347 H 130.676 1.09383 1.61312 0
M  V30 1348 H 129.772 0.60739 3.06133 0
M  V30 1349 N 130.073 -1.45103 0.615059 0
M  V30 1350 C 131.319 -2.02483 0.113347 0
M  V30 1351 C 131.652 -1.48146 -1.25564 0
M  V30 1352 O 130.927 -0.659104 -1.82992 0
M  V30 1353 C 131.21 -3.60005 0.0825278 0
M  V30 1354 C 131.063 -4.2466 1.48271 0
M  V30 1355 C 132.382 -4.35972 -0.601401 0
M  V30 1356 H 129.501 -0.735764 0.0426632 0
M  V30 1357 H 132.143 -1.72868 0.788461 0
M  V30 1358 H 130.293 -3.85367 -0.492378 0
M  V30 1359 H 131.965 -4.10458 2.10527 0
M  V30 1360 H 130.208 -3.82772 2.04127 0
M  V30 1361 H 130.879 -5.336 1.41332 0
M  V30 1362 H 133.355 -4.15947 -0.112666 0
M  V30 1363 H 132.231 -5.45697 -0.592097 0
M  V30 1364 H 132.492 -4.09391 -1.66887 0
M  V30 1365 N 131.551 -0.354651 -1.53558 0
M  V30 1366 C 132.776 0.242153 -2.05981 0
M  V30 1367 C 133.201 1.42553 -1.2272 0
M  V30 1368 O 132.559 1.79656 -0.243604 0
M  V30 1369 C 132.607 0.624367 -3.55154 0
M  V30 1370 O 131.711 1.72301 -3.74681 0
M  V30 1371 H 131.052 0.0378432 -0.662921 0
M  V30 1372 H 133.582 -0.512087 -1.98088 0
M  V30 1373 H 133.592 0.898433 -3.97985 0
M  V30 1374 H 132.267 -0.240989 -4.15201 0
M  V30 1375 H 130.844 1.44535 -3.4375 0
M  V30 1376 N 133.029 1.57378 -0.0835403 0
M  V30 1377 C 134.278 1.93106 0.582498 0
M  V30 1378 C 134.591 0.96651 1.70053 0
M  V30 1379 O 135.797 1.21705 2.42693 0
M  V30 1380 C 134.253 3.43076 1.08751 0
M  V30 1381 C 133.861 4.48 -0.000146404 0
M  V30 1382 C 135.605 3.87785 1.72694 0
M  V30 1383 C 133.512 5.89113 0.519568 0
M  V30 1384 H 132.442 0.720775 0.221358 0
M  V30 1385 H 135.093 1.82821 -0.157675 0
M  V30 1386 H 133.475 3.48474 1.88101 0
M  V30 1387 H 134.649 4.54233 -0.775199 0
M  V30 1388 H 132.964 4.1283 -0.54406 0
M  V30 1389 H 135.561 4.90604 2.1263 0
M  V30 1390 H 135.904 3.25796 2.59158 0
M  V30 1391 H 136.437 3.8504 0.999457 0
M  V30 1392 H 133.176 6.54775 -0.308186 0
M  V30 1393 H 132.696 5.86376 1.26188 0
M  V30 1394 H 134.375 6.39346 0.992237 0
M  V30 1395 N 134.507 -0.190092 1.56449 0
M  V30 1396 C 135.923 -0.54113 1.50146 0
M  V30 1397 C 136.123 -1.85603 0.784465 0
M  V30 1398 O 135.179 -2.5024 0.337051 0
M  V30 1399 C 136.492 -0.591241 2.9483 0
M  V30 1400 C 138.04 -0.679732 3.0553 0
M  V30 1401 C 138.515 -0.760908 4.51635 0
M  V30 1402 N 140.006 -0.824302 4.55806 0
M  V30 1403 C 140.741 -0.907365 5.66175 0
M  V30 1404 N 140.237 -0.952422 6.86222 0
M  V30 1405 N 142.03 -0.94494 5.541 0
M  V30 1406 H 134.181 0.67235 2.01478 0
M  V30 1407 H 136.444 0.240127 0.917084 0
M  V30 1408 H 136.15 0.305905 3.50367 0
M  V30 1409 H 136.024 -1.44422 3.48457 0
M  V30 1410 H 138.411 -1.56731 2.50039 0
M  V30 1411 H 138.492 0.199549 2.5502 0
M  V30 1412 H 138.136 0.122336 5.07753 0
M  V30 1413 H 138.066 -1.65606 4.99882 0
M  V30 1414 H 140.557 -0.798526 3.69367 0
M  V30 1415 H 140.87 -1.01645 7.66086 0
M  V30 1416 H 139.215 -0.921014 6.8887 0
M  V30 1417 H 142.406 -0.906612 4.59236 0
M  V30 1418 H 142.579 -1.00622 6.4014 0
M  V30 1419 N 135.985 -1.50799 -0.457987 0
M  V30 1420 C 137.233 -1.62121 -1.2067 0
M  V30 1421 C 137.554 -0.329793 -1.92191 0
M  V30 1422 O 136.824 0.653409 -1.84682 0
M  V30 1423 H 135.404 -0.597441 -0.448411 0
M  V30 1424 H 138.066 -1.87637 -0.527096 0
M  V30 1425 H 137.162 -2.43882 -1.94751 0
M  V30 1426 N 137.463 0.71206 -1.40597 0
M  V30 1427 C 138.393 1.83889 -1.43899 0
M  V30 1428 C 139.374 1.67442 -0.299504 0
M  V30 1429 O 140.559 1.87421 -0.508624 0
M  V30 1430 C 137.689 3.21877 -1.30431 0
M  V30 1431 C 136.643 3.53002 -2.42019 0
M  V30 1432 C 135.969 4.90172 -2.13626 0
M  V30 1433 C 137.269 3.53643 -3.84362 0
M  V30 1434 H 138.963 1.81383 -2.38203 0
M  V30 1435 H 136.509 0.871237 -1.14654 0
M  V30 1436 H 138.462 4.00404 -1.31357 0
M  V30 1437 H 137.186 3.24968 -0.326049 0
M  V30 1438 H 135.845 2.76818 -2.40349 0
M  V30 1439 H 135.493 4.89869 -1.14182 0
M  V30 1440 H 135.193 5.11962 -2.88389 0
M  V30 1441 H 136.717 5.71028 -2.1624 0
M  V30 1442 H 138.131 4.22203 -3.87837 0
M  V30 1443 H 136.528 3.86961 -4.58673 0
M  V30 1444 H 137.598 2.52954 -4.13693 0
M  V30 1445 N 138.941 1.26152 0.944643 0
M  V30 1446 C 140.218 1.02247 1.66748 0
M  V30 1447 C 140.598 -0.448202 2.06287 0
M  V30 1448 O 139.946 -1.42779 1.78399 0
M  V30 1449 C 140.156 1.96788 2.88228 0
M  V30 1450 C 141.504 2.25201 3.59958 0
M  V30 1451 O 142.528 1.94626 2.98327 0
M  V30 1452 O 141.387 2.77242 4.70956 0
M  V30 1453 H 138.481 0.388517 0.730057 0
M  V30 1454 H 141.027 1.37348 0.99668 0
M  V30 1455 H 139.799 2.96047 2.55875 0
M  V30 1456 H 139.422 1.62145 3.63035 0
M  V30 1457 N 140.419 -1.14872 1.07899 0
M  V30 1458 C 141.644 -1.90202 0.826926 0
M  V30 1459 C 142.069 -1.77774 -0.614664 0
M  V30 1460 O 141.427 -1.11431 -1.43013 0
M  V30 1461 C 141.475 -3.38352 1.24702 0
M  V30 1462 O 140.579 -4.10497 0.39575 0
M  V30 1463 H 139.92 -0.591968 0.300782 0
M  V30 1464 H 142.45 -1.45437 1.43907 0
M  V30 1465 H 142.46 -3.89156 1.22563 0
M  V30 1466 H 141.135 -3.46715 2.29698 0
M  V30 1467 H 139.712 -3.69796 0.480117 0
M  V30 1468 N 141.898 -0.863906 -1.31812 0
M  V30 1469 C 143.123 -0.48527 -2.01643 0
M  V30 1470 C 143.548 0.913058 -1.64453 0
M  V30 1471 O 142.906 1.6014 -0.849985 0
M  V30 1472 C 142.954 -0.642625 -3.54828 0
M  V30 1473 O 142.058 0.320659 -4.11151 0
M  V30 1474 H 141.399 -0.193793 -0.635091 0
M  V30 1475 H 143.929 -1.16565 -1.68148 0
M  V30 1476 H 143.939 -0.533628 -4.04495 0
M  V30 1477 H 142.614 -1.66227 -3.81237 0
M  V30 1478 H 141.191 0.167126 -3.72525 0
M  V30 1479 N 143.376 1.44774 -0.622745 0
M  V30 1480 C 144.606 2.06187 -0.130532 0
M  V30 1481 C 145.014 1.46547 1.19669 0
M  V30 1482 O 144.357 0.579636 1.74316 0
M  V30 1483 C 144.419 3.59437 0.0674983 0
M  V30 1484 C 144.083 4.41496 -1.18026 0
M  V30 1485 C 145.08 4.75512 -2.102 0
M  V30 1486 C 142.765 4.82007 -1.41333 0
M  V30 1487 C 144.759 5.48912 -3.23998 0
M  V30 1488 C 142.446 5.55157 -2.55429 0
M  V30 1489 C 143.444 5.88528 -3.46589 0
M  V30 1490 O 143.132 6.60191 -4.58697 0
M  V30 1491 H 142.864 0.672045 -0.0730162 0
M  V30 1492 H 145.418 1.86768 -0.854802 0
M  V30 1493 H 143.648 3.77314 0.846825 0
M  V30 1494 H 145.337 4.02642 0.513209 0
M  V30 1495 H 146.103 4.4476 -1.93425 0
M  V30 1496 H 141.982 4.55457 -0.712709 0
M  V30 1497 H 145.526 5.74877 -3.95174 0
M  V30 1498 H 141.423 5.85324 -2.72151 0
M  V30 1499 H 142.191 6.78654 -4.57571 0
M  V30 1500 N 144.854 0.36279 1.53368 0
M  V30 1501 C 146.082 -0.228613 2.05633 0
M  V30 1502 C 146.497 -1.42676 1.23649 0
M  V30 1503 O 145.854 -1.80394 0.27647 0
M  V30 1504 C 145.905 -0.624845 3.56059 0
M  V30 1505 O 145.626 0.525675 4.34935 0
M  V30 1506 C 147.127 -1.27493 4.24571 0
M  V30 1507 H 144.347 -0.0407183 0.669763 0
M  V30 1508 H 146.891 0.520352 1.97769 0
M  V30 1509 H 145.046 -1.32373 3.64083 0
M  V30 1510 H 145.46 0.205969 5.24095 0
M  V30 1511 H 146.934 -1.50277 5.31151 0
M  V30 1512 H 147.411 -2.23439 3.78116 0
M  V30 1513 H 148.017 -0.617558 4.20792 0
M  V30 1514 N 146.332 -1.57332 0.0918853 0
M  V30 1515 C 147.262 -2.16872 -0.865371 0
M  V30 1516 C 148.243 -1.10118 -1.29646 0
M  V30 1517 O 149.428 -1.38242 -1.36392 0
M  V30 1518 C 146.558 -2.74649 -2.12569 0
M  V30 1519 C 145.512 -3.86747 -1.83333 0
M  V30 1520 C 144.838 -4.31212 -3.16166 0
M  V30 1521 C 146.138 -5.10089 -1.1228 0
M  V30 1522 H 147.832 -2.97114 -0.369307 0
M  V30 1523 H 145.378 -1.42918 -0.176194 0
M  V30 1524 H 147.331 -3.14952 -2.7997 0
M  V30 1525 H 146.055 -1.91657 -2.64452 0
M  V30 1526 H 144.714 -3.46978 -1.18331 0
M  V30 1527 H 144.362 -3.45115 -3.6593 0
M  V30 1528 H 144.062 -5.06788 -2.97388 0
M  V30 1529 H 145.586 -4.74146 -3.84731 0
M  V30 1530 H 147 -5.47582 -1.69785 0
M  V30 1531 H 145.397 -5.91073 -1.03693 0
M  V30 1532 H 146.467 -4.84786 -0.105041 0
M  V30 1533 N 147.81 0.181792 -1.56548 0
M  V30 1534 C 149.059 0.898348 -1.8059 0
M  V30 1535 C 149.372 1.83862 -0.667379 0
M  V30 1536 O 150.578 2.59678 -0.792446 0
M  V30 1537 C 149.034 1.64791 -3.19956 0
M  V30 1538 C 148.642 0.751789 -4.41647 0
M  V30 1539 C 150.386 2.35331 -3.53298 0
M  V30 1540 C 148.293 1.50098 -5.72035 0
M  V30 1541 H 147.223 0.339194 -0.673397 0
M  V30 1542 H 149.874 0.151413 -1.82874 0
M  V30 1543 H 148.256 2.43921 -3.11959 0
M  V30 1544 H 149.43 -0.0018076 -4.608 0
M  V30 1545 H 147.745 0.156562 -4.16106 0
M  V30 1546 H 150.342 2.91958 -4.47956 0
M  V30 1547 H 150.685 3.10164 -2.77676 0
M  V30 1548 H 151.218 1.63154 -3.62803 0
M  V30 1549 H 147.957 0.795175 -6.50659 0
M  V30 1550 H 147.477 2.22817 -5.56878 0
M  V30 1551 H 149.156 2.05125 -6.13622 0
M  V30 1552 N 149.288 1.51039 0.449983 0
M  V30 1553 C 150.218 1.74379 1.55288 0
M  V30 1554 C 151.199 0.593236 1.5942 0
M  V30 1555 O 152.384 0.834625 1.7535 0
M  V30 1556 C 149.514 1.85728 2.93466 0
M  V30 1557 C 148.468 3.01078 3.04197 0
M  V30 1558 C 147.794 2.97595 4.44231 0
M  V30 1559 C 149.094 4.41254 2.7945 0
M  V30 1560 H 150.788 2.66725 1.36008 0
M  V30 1561 H 148.334 1.2835 0.652864 0
M  V30 1562 H 150.287 2.0064 3.70569 0
M  V30 1563 H 149.011 0.900207 3.13949 0
M  V30 1564 H 147.67 2.85851 2.29531 0
M  V30 1565 H 147.318 1.99691 4.61663 0
M  V30 1566 H 147.018 3.75046 4.52343 0
M  V30 1567 H 148.542 3.14583 5.23326 0
M  V30 1568 H 149.956 4.56897 3.46292 0
M  V30 1569 H 148.353 5.20315 2.98985 0
M  V30 1570 H 149.423 4.52164 1.75144 0
M  V30 1571 N 150.766 -0.704594 1.40972 0
M  V30 1572 C 152.012 -1.46675 1.40051 0
M  V30 1573 C 152.345 -1.94199 0.00641102 0
M  V30 1574 O 151.62 -1.68916 -0.964235 0
M  V30 1575 C 151.903 -2.68505 2.39952 0
M  V30 1576 C 151.756 -2.26805 3.88432 0
M  V30 1577 C 153.075 -3.70686 2.37233 0
M  V30 1578 H 150.194 -0.532015 0.510028 0
M  V30 1579 H 152.836 -0.803255 1.72185 0
M  V30 1580 H 150.986 -3.25114 2.1268 0
M  V30 1581 H 152.658 -1.75592 4.26574 0
M  V30 1582 H 150.901 -1.58685 4.03734 0
M  V30 1583 H 151.572 -3.14181 4.53866 0
M  V30 1584 H 154.048 -3.23731 2.61415 0
M  V30 1585 H 152.924 -4.53553 3.09162 0
M  V30 1586 H 153.185 -4.19754 1.38777 0
M  V30 1587 N 152.244 -1.26651 -0.937939 0
M  V30 1588 C 153.521 -1.0313 -1.66204 0
M  V30 1589 C 153.901 0.437256 -2.06522 0
M  V30 1590 O 153.249 1.41831 -1.79154 0
M  V30 1591 C 153.459 -1.98314 -2.87181 0
M  V30 1592 C 154.807 -2.27107 -3.58758 0
M  V30 1593 O 155.831 -1.96205 -2.97291 0
M  V30 1594 O 154.69 -2.79736 -4.69479 0
M  V30 1595 H 151.784 -0.392384 -0.727986 0
M  V30 1596 H 154.33 -1.37874 -0.989382 0
M  V30 1597 H 153.102 -2.97399 -2.54302 0
M  V30 1598 H 152.725 -1.64068 -3.6217 0
M  V30 1599 N 153.722 1.14298 -1.08507 0
M  V30 1600 C 154.97 1.84993 -0.813763 0
M  V30 1601 C 155.291 1.83405 0.662393 0
M  V30 1602 O 154.561 1.28319 1.48024 0
M  V30 1603 H 153.141 0.684966 -0.298045 0
M  V30 1604 H 155.803 1.385 -1.37126 0
M  V30 1605 H 154.899 2.89788 -1.15884 0
M  V30 1606 N 155.201 0.870884 1.31352 0
M  V30 1607 C 156.148 0.325425 2.28494 0
M  V30 1608 C 157.118 -0.576615 1.5577 0
M  V30 1609 O 158.303 -0.508059 1.83911 0
M  V30 1610 C 155.443 -0.466283 3.41935 0
M  V30 1611 C 154.556 0.463378 4.29508 0
M  V30 1612 C 153.691 -0.342544 5.30094 0
M  V30 1613 C 152.73 0.583486 6.09313 0
M  V30 1614 N 151.867 -0.186244 7.01853 0
M  V30 1615 H 156.707 1.15901 2.74538 0
M  V30 1616 H 154.244 0.58294 1.35056 0
M  V30 1617 H 156.202 -0.941085 4.06447 0
M  V30 1618 H 154.832 -1.26456 2.97 0
M  V30 1619 H 153.884 1.05663 3.65431 0
M  V30 1620 H 155.196 1.1734 4.84802 0
M  V30 1621 H 154.35 -0.879816 6.00287 0
M  V30 1622 H 153.089 -1.08585 4.75458 0
M  V30 1623 H 152.094 1.13251 5.3801 0
M  V30 1624 H 153.319 1.32566 6.66035 0
M  V30 1625 H 151.265 -0.912348 6.49625 0
M  V30 1626 H 151.182 0.464422 7.54572 0
M  V30 1627 H 152.45 -0.704716 7.76308 0
M  V30 1628 N 156.679 -1.44442 0.630414 0
M  V30 1629 C 158.095 -1.56832 0.295973 0
M  V30 1630 C 158.295 -1.61806 -1.20088 0
M  V30 1631 O 157.351 -1.5607 -1.9849 0
M  V30 1632 C 158.664 -2.84031 0.987264 0
M  V30 1633 C 160.212 -2.97742 0.96534 0
M  V30 1634 C 160.687 -4.27743 1.63708 0
M  V30 1635 N 162.178 -4.34555 1.60364 0
M  V30 1636 C 162.913 -5.33862 2.09234 0
M  V30 1637 N 162.409 -6.39578 2.66292 0
M  V30 1638 N 164.202 -5.25366 1.99867 0
M  V30 1639 H 156.353 -1.39457 1.60205 0
M  V30 1640 H 158.616 -0.668237 0.672431 0
M  V30 1641 H 158.322 -2.86338 2.04215 0
M  V30 1642 H 158.196 -3.73534 0.524588 0
M  V30 1643 H 160.583 -2.94989 -0.0810639 0
M  V30 1644 H 160.664 -2.09589 1.4665 0
M  V30 1645 H 160.308 -4.31255 2.68293 0
M  V30 1646 H 160.238 -5.14752 1.11076 0
M  V30 1647 H 162.729 -3.58772 1.18705 0
M  V30 1648 H 163.042 -7.11637 3.01317 0
M  V30 1649 H 161.387 -6.40265 2.70343 0
M  V30 1650 H 164.578 -4.41688 1.55013 0
M  V30 1651 H 164.751 -6.02606 2.38265 0
M  V30 1652 N 158.157 -0.370918 -1.53173 0
M  V30 1653 C 159.403 0.217423 -2.01631 0
M  V30 1654 C 159.736 1.47983 -1.25756 0
M  V30 1655 O 159.011 1.91274 -0.352764 0
M  V30 1656 C 159.294 0.503982 -3.56556 0
M  V30 1657 C 159.147 -0.77243 -4.43118 0
M  V30 1658 C 160.466 1.30234 -4.20389 0
M  V30 1659 H 157.585 0.0775486 -0.732909 0
M  V30 1660 H 160.227 -0.496863 -1.83388 0
M  V30 1661 H 158.377 1.11248 -3.72231 0
M  V30 1662 H 160.049 -1.4098 -4.39229 0
M  V30 1663 H 158.292 -1.39167 -4.10871 0
M  V30 1664 H 158.963 -0.526815 -5.4948 0
M  V30 1665 H 161.439 0.787546 -4.08579 0
M  V30 1666 H 160.315 1.47158 -5.28806 0
M  V30 1667 H 160.576 2.31237 -3.76805 0
M  V30 1668 N 159.635 1.57281 -0.100228 0
M  V30 1669 C 160.583 2.15542 0.874328 0
M  V30 1670 C 161.577 1.09962 1.28859 0
M  V30 1671 O 162.783 1.28298 1.26252 0
M  V30 1672 H 159.158 0.689567 0.300003 0
M  V30 1673 H 161.129 2.96241 0.35829 0
M  V30 1674 C 159.878 2.75454 2.1218 0
M  V30 1675 H 159.201 3.56384 1.81193 0
M  V30 1676 H 160.641 3.19781 2.78417 0
M  V30 1677 C 159.1 1.71602 2.89921 0
M  V30 1678 O 159.63 1.15804 3.84646 0
M  V30 1679 N 157.836 1.41975 2.53558 0
M  V30 1680 H 157.383 1.87539 1.76598 0
M  V30 1681 H 157.341 0.727274 3.05873 0
M  V30 1682 N 161.113 -0.173488 1.56642 0
M  V30 1683 C 162.338 -0.910149 1.86363 0
M  V30 1684 C 162.763 -1.75132 0.686318 0
M  V30 1685 O 162.121 -1.77595 -0.364643 0
M  V30 1686 C 162.169 -1.76447 3.14482 0
M  V30 1687 O 161.273 -2.86584 2.96553 0
M  V30 1688 H 160.614 -0.255086 0.613047 0
M  V30 1689 H 163.144 -0.172283 2.03873 0
M  V30 1690 H 163.154 -2.16483 3.45831 0
M  V30 1691 H 161.829 -1.14658 3.99783 0
M  V30 1692 H 160.406 -2.50146 2.76553 0
M  V30 1693 N 162.591 -1.51276 -0.441967 0
M  V30 1694 C 164.007 -1.39349 -0.778083 0
M  V30 1695 C 164.207 -0.472212 -1.95889 0
M  V30 1696 O 163.263 0.0743551 -2.5239 0
M  V30 1697 C 164.576 -2.81292 -1.0628 0
M  V30 1698 C 166.124 -2.9041 -1.16751 0
M  V30 1699 C 166.599 -4.33251 -1.48519 0
M  V30 1700 N 168.09 -4.36336 -1.55453 0
M  V30 1701 C 168.825 -5.43885 -1.81596 0
M  V30 1702 N 168.321 -6.61601 -2.05562 0
M  V30 1703 N 170.114 -5.3136 -1.8334 0
M  V30 1704 H 162.265 -2.09729 0.335774 0
M  V30 1705 H 164.528 -0.943925 0.0878028 0
M  V30 1706 H 164.234 -3.50678 -0.267905 0
M  V30 1707 H 164.108 -3.20334 -1.99163 0
M  V30 1708 H 166.495 -2.21225 -1.95304 0
M  V30 1709 H 166.576 -2.54871 -0.217801 0
M  V30 1710 H 166.22 -5.02984 -0.704958 0
M  V30 1711 H 166.15 -4.66299 -2.44689 0
M  V30 1712 H 168.641 -3.51466 -1.38853 0
M  V30 1713 H 168.954 -7.39361 -2.24867 0
M  V30 1714 H 167.299 -6.64725 -2.02894 0
M  V30 1715 H 170.49 -4.38382 -1.64132 0
M  V30 1716 H 170.663 -6.15258 -2.03377 0
M  V30 1717 N 164.069 0.697108 -1.41344 0
M  V30 1718 C 165.017 1.83237 -1.43272 0
M  V30 1719 C 166.011 1.66522 -0.310947 0
M  V30 1720 O 167.217 1.73402 -0.482899 0
M  V30 1721 H 163.592 0.603802 -0.448249 0
M  V30 1722 H 165.563 1.78727 -2.38954 0
M  V30 1723 C 164.312 3.21245 -1.33029 0
M  V30 1724 H 163.635 3.34723 -2.18633 0
M  V30 1725 H 165.075 4.00763 -1.38439 0
M  V30 1726 C 163.534 3.36873 -0.0424635 0
M  V30 1727 O 164.064 3.91177 0.913421 0
M  V30 1728 N 162.27 2.90581 0.0331145 0
M  V30 1729 H 161.817 2.46577 -0.745506 0
M  V30 1730 H 161.775 3.01416 0.894199 0
M  V30 1731 N 165.547 1.27147 0.931209 0
M  V30 1732 C 166.51 1.09615 2.01289 0
M  V30 1733 C 167.51 0.0412581 1.60747 0
M  V30 1734 O 168.7 0.285545 1.71844 0
M  V30 1735 C 165.832 0.669447 3.34262 0
M  V30 1736 H 167.025 2.05662 2.18273 0
M  V30 1737 H 164.578 1.09885 1.11153 0
M  V30 1738 H 165.313 -0.292572 3.22978 0
M  V30 1739 H 165.098 1.43127 3.65044 0
M  V30 1740 H 166.588 0.568921 4.13706 0
M  V30 1741 N 167.025 -1.13721 1.09112 0
M  V30 1742 C 168.271 -1.85198 0.826414 0
M  V30 1743 C 168.604 -1.83129 -0.646319 0
M  V30 1744 O 167.879 -1.2671 -1.47563 0
M  V30 1745 C 168.162 -3.33507 1.35812 0
M  V30 1746 C 168.015 -3.44108 2.89672 0
M  V30 1747 C 169.334 -4.28838 0.989256 0
M  V30 1748 H 166.453 -0.67243 0.301675 0
M  V30 1749 H 169.095 -1.33499 1.35197 0
M  V30 1750 H 167.245 -3.77666 0.911082 0
M  V30 1751 H 168.917 -3.08684 3.428 0
M  V30 1752 H 167.16 -2.85087 3.26967 0
M  V30 1753 H 167.831 -4.48388 3.21951 0
M  V30 1754 H 170.307 -3.92734 1.37475 0
M  V30 1755 H 169.183 -5.31051 1.38838 0
M  V30 1756 H 169.444 -4.4198 -0.102924 0
M  V30 1757 N 168.503 -0.877838 -1.30888 0
M  V30 1758 C 169.75 -0.492696 -1.96415 0
M  V30 1759 C 170.078 0.956671 -1.69346 0
M  V30 1760 O 169.333 1.68993 -0.986913 0
M  V30 1761 C 169.632 -0.705748 -3.50363 0
M  V30 1762 C 169.298 -2.1291 -3.97467 0
M  V30 1763 C 167.96 -2.51834 -4.1004 0
M  V30 1764 C 170.312 -3.05702 -4.22132 0
M  V30 1765 C 167.64 -3.82775 -4.44635 0
M  V30 1766 C 169.992 -4.36166 -4.58194 0
M  V30 1767 C 168.656 -4.74993 -4.68975 0
M  V30 1768 H 167.926 -0.18029 -0.718733 0
M  V30 1769 H 170.573 -1.11233 -1.55883 0
M  V30 1770 H 168.878 -0.00303058 -3.918 0
M  V30 1771 H 170.575 -0.387456 -3.99124 0
M  V30 1772 H 167.165 -1.81694 -3.88182 0
M  V30 1773 H 171.349 -2.76853 -4.11906 0
M  V30 1774 H 166.605 -4.12609 -4.51181 0
M  V30 1775 H 170.779 -5.08111 -4.76231 0
M  V30 1776 H 168.406 -5.76495 -4.95537 0
M  V30 1777 N 169.982 1.44106 -0.638065 0
M  V30 1778 C 171.398 1.56672 -0.304286 0
M  V30 1779 C 171.598 1.6244 1.19228 0
M  V30 1780 O 170.654 1.57121 1.9766 0
M  V30 1781 C 171.967 2.83503 -1.00231 0
M  V30 1782 C 173.515 2.97226 -0.981116 0
M  V30 1783 C 173.99 4.26868 -1.65974 0
M  V30 1784 N 175.481 4.33698 -1.62666 0
M  V30 1785 C 176.216 5.32745 -2.12063 0
M  V30 1786 N 175.712 6.38157 -2.6968 0
M  V30 1787 N 177.505 5.24299 -2.02651 0
M  V30 1788 H 169.656 1.38605 -1.60942 0
M  V30 1789 H 171.919 0.664661 -0.675965 0
M  V30 1790 H 171.625 2.85251 -2.0573 0
M  V30 1791 H 171.499 3.73251 -0.54439 0
M  V30 1792 H 173.886 2.95027 0.0654188 0
M  V30 1793 H 173.967 2.08808 -1.47759 0
M  V30 1794 H 173.611 4.29826 -2.70576 0
M  V30 1795 H 173.541 5.14156 -1.13804 0
M  V30 1796 H 176.032 3.58138 -1.20606 0
M  V30 1797 H 176.345 7.10029 -3.05087 0
M  V30 1798 H 174.69 6.38823 -2.73734 0
M  V30 1799 H 177.881 4.4086 -1.57353 0
M  V30 1800 H 178.054 6.01334 -2.41457 0
M  V30 1801 N 171.46 0.379036 1.52974 0
M  V30 1802 C 172.41 -0.477772 2.22938 0
M  V30 1803 C 173.394 -1.03792 1.22948 0
M  V30 1804 O 174.586 -0.965725 1.48333 0
M  V30 1805 C 171.715 -1.60994 3.03209 0
M  V30 1806 C 170.801 -1.06203 4.10587 0
M  V30 1807 N 171.192 -0.238214 5.05239 0
M  V30 1808 C 169.49 -1.33554 4.25534 0
M  V30 1809 C 170.191 0.0633235 5.81666 0
M  V30 1810 N 169.167 -0.537901 5.40932 0
M  V30 1811 H 172.969 0.158295 2.93473 0
M  V30 1812 H 170.483 0.187778 1.61311 0
M  V30 1813 H 172.48 -2.23607 3.5186 0
M  V30 1814 H 171.14 -2.24893 2.34207 0
M  V30 1815 H 172.151 0.123695 5.17752 0
M  V30 1816 H 168.828 -1.97632 3.6776 0
M  V30 1817 H 170.218 0.730161 6.67921 0
M  V30 1818 N 172.938 -1.57226 0.108567 0
M  V30 1819 C 173.886 -2.16002 -0.862885 0
M  V30 1820 C 174.88 -1.10644 -1.28274 0
M  V30 1821 O 176.086 -1.28966 -1.2557 0
M  V30 1822 H 172.461 -0.691148 -0.296342 0
M  V30 1823 H 174.432 -2.96427 -0.342575 0
M  V30 1824 C 173.181 -2.76576 -2.10716 0
M  V30 1825 H 172.504 -3.5734 -1.793 0
M  V30 1826 H 173.944 -3.21253 -2.76717 0
M  V30 1827 C 172.403 -1.73137 -2.89007 0
M  V30 1828 O 172.933 -1.17842 -3.84026 0
M  V30 1829 N 171.139 -1.43317 -2.52801 0
M  V30 1830 H 170.686 -1.88473 -1.75601 0
M  V30 1831 H 170.644 -0.743485 -3.05483 0
M  V30 1832 N 174.416 0.165178 -1.56732 0
M  V30 1833 C 175.693 0.908443 -1.73224 0
M  V30 1834 C 176.073 2.0013 -0.67165 0
M  V30 1835 O 175.421 2.26353 0.31253 0
M  V30 1836 C 175.631 1.46756 -3.16644 0
M  V30 1837 C 176.979 1.93809 -3.77787 0
M  V30 1838 O 178.003 1.56537 -3.1996 0
M  V30 1839 O 176.862 2.62486 -4.79336 0
M  V30 1840 H 173.956 0.428025 -0.707618 0
M  V30 1841 H 176.502 0.152526 -1.69013 0
M  V30 1842 H 175.274 0.68129 -3.85323 0
M  V30 1843 H 174.897 2.28749 -3.25207 0
M  V30 1844 N 175.894 1.51508 0.433938 0
M  V30 1845 C 177.141 1.64345 1.18309 0
M  V30 1846 C 177.469 0.361315 1.91115 0
M  V30 1847 O 176.724 -0.654753 1.84422 0
M  V30 1848 C 177.023 2.79928 2.22205 0
M  V30 1849 C 176.689 4.19078 1.66387 0
M  V30 1850 C 175.351 4.56932 1.50887 0
M  V30 1851 C 177.703 5.05894 1.25381 0
M  V30 1852 C 175.031 5.79305 0.928608 0
M  V30 1853 C 177.383 6.2885 0.687823 0
M  V30 1854 C 176.047 6.65473 0.519755 0
M  V30 1855 H 175.317 0.601381 0.432923 0
M  V30 1856 H 177.964 1.85549 0.473676 0
M  V30 1857 H 176.269 2.52959 2.99197 0
M  V30 1858 H 177.966 2.87059 2.79997 0
M  V30 1859 H 174.556 3.89234 1.79428 0
M  V30 1860 H 178.74 4.77253 1.36175 0
M  V30 1861 H 173.996 6.06324 0.786186 0
M  V30 1862 H 178.17 6.95461 0.361581 0
M  V30 1863 H 175.797 7.6017 0.0679979 0
M  V30 1864 N 177.372 -0.689602 1.41712 0
M  V30 1865 C 178.649 -1.44457 1.31877 0
M  V30 1866 C 179.029 -2.11039 -0.0508537 0
M  V30 1867 O 178.377 -2.02138 -1.06547 0
M  V30 1868 C 178.587 -2.45913 2.47645 0
M  V30 1869 C 179.935 -3.10991 2.89084 0
M  V30 1870 O 180.959 -2.56238 2.47428 0
M  V30 1871 O 179.818 -4.10174 3.61137 0
M  V30 1872 H 176.912 -0.64362 0.519309 0
M  V30 1873 H 179.458 -0.719576 1.53689 0
M  V30 1874 H 178.23 -1.95409 3.39015 0
M  V30 1875 H 177.853 -3.25913 2.27742 0
M  V30 1876 N 178.85 -1.27639 -0.924453 0
M  V30 1877 C 179.78 -1.13166 -2.04244 0
M  V30 1878 C 180.761 -0.032256 -1.70069 0
M  V30 1879 O 181.946 -0.207328 -1.9309 0
M  V30 1880 C 179.076 -0.781496 -3.38393 0
M  V30 1881 C 178.03 -1.83449 -3.86692 0
M  V30 1882 C 177.356 -1.33822 -5.17683 0
M  V30 1883 C 178.656 -3.23917 -4.09726 0
M  V30 1884 H 180.35 -2.06689 -2.1661 0
M  V30 1885 H 177.896 -0.995136 -1.04082 0
M  V30 1886 H 179.849 -0.667057 -4.16087 0
M  V30 1887 H 178.573 0.189439 -3.2605 0
M  V30 1888 H 177.232 -1.93789 -3.11193 0
M  V30 1889 H 176.88 -0.35665 -5.01734 0
M  V30 1890 H 176.58 -2.04224 -5.50968 0
M  V30 1891 H 178.104 -1.23679 -5.97943 0
M  V30 1892 H 179.518 -3.16559 -4.77978 0
M  V30 1893 H 177.915 -3.92059 -4.54324 0
M  V30 1894 H 178.985 -3.68729 -3.14908 0
M  V30 1895 N 180.328 1.1314 -1.09713 0
M  V30 1896 C 181.276 2.20717 -0.733934 0
M  V30 1897 C 182.27 1.6729 0.266506 0
M  V30 1898 O 183.476 1.79547 0.127656 0
M  V30 1899 H 179.851 0.719292 -0.21937 0
M  V30 1900 H 181.822 2.48611 -1.6503 0
M  V30 1901 C 180.571 3.47265 -0.173849 0
M  V30 1902 H 179.894 3.88716 -0.934873 0
M  V30 1903 H 181.334 4.23979 0.0423126 0
M  V30 1904 C 179.793 3.18724 1.09164 0
M  V30 1905 O 180.323 3.37762 2.17439 0
M  V30 1906 N 178.529 2.72583 1.00732 0
M  V30 1907 H 178.076 2.57291 0.126121 0
M  V30 1908 H 178.034 2.53862 1.85476 0
M  V30 1909 N 181.806 0.884767 1.30421 0
M  V30 1910 C 183.052 0.513218 1.96819 0
M  V30 1911 C 183.407 -0.927347 1.68577 0
M  V30 1912 O 182.7 -1.64644 0.979941 0
M  V30 1913 C 182.894 0.724318 3.49983 0
M  V30 1914 C 182.723 2.18385 3.93113 0
M  V30 1915 C 181.493 2.82839 4.18725 0
M  V30 1916 C 183.691 3.15763 4.05953 0
M  V30 1917 N 181.673 4.1939 4.48314 0
M  V30 1918 C 183.044 4.37387 4.39423 0
M  V30 1919 C 185.099 3.11555 3.88379 0
M  V30 1920 C 183.802 5.55343 4.5715 0
M  V30 1921 C 185.828 4.28782 4.07308 0
M  V30 1922 C 185.19 5.49172 4.41123 0
M  V30 1923 H 181.289 0.237123 0.745182 0
M  V30 1924 H 183.873 1.14246 1.57658 0
M  V30 1925 H 182.044 0.124565 3.882 0
M  V30 1926 H 183.776 0.31969 4.03435 0
M  V30 1927 H 180.531 2.33708 4.11919 0
M  V30 1928 H 180.955 4.89911 4.67243 0
M  V30 1929 H 185.597 2.19576 3.61312 0
M  V30 1930 H 183.315 6.47826 4.8306 0
M  V30 1931 H 186.901 4.26995 3.95179 0
M  V30 1932 H 185.781 6.38371 4.55469 0
M  V30 1933 N 183.284 -1.43765 0.645699 0
M  V30 1934 C 184.533 -2.01116 0.153412 0
M  V30 1935 C 184.846 -1.51493 -1.23731 0
M  V30 1936 O 186.052 -2.01067 -1.8244 0
M  V30 1937 C 184.508 -3.59206 0.223473 0
M  V30 1938 C 184.116 -4.17823 1.61642 0
M  V30 1939 C 185.86 -4.23972 -0.211597 0
M  V30 1940 C 183.767 -5.68183 1.64081 0
M  V30 1941 H 182.697 -0.752093 0.0535891 0
M  V30 1942 H 185.348 -1.6482 0.806633 0
M  V30 1943 H 183.73 -3.92867 -0.497118 0
M  V30 1944 H 184.904 -3.95674 2.36176 0
M  V30 1945 H 183.219 -3.65399 1.99681 0
M  V30 1946 H 185.816 -5.34275 -0.213112 0
M  V30 1947 H 186.159 -3.97352 -1.24165 0
M  V30 1948 H 186.692 -3.95166 0.456988 0
M  V30 1949 H 183.431 -5.99559 2.64971 0
M  V30 1950 H 182.951 -5.9241 0.938611 0
M  V30 1951 H 184.63 -6.32085 1.3812 0
M  V30 1952 N 184.763 -0.387143 -1.52771 0
M  V30 1953 C 186.174 0.0873634 -1.86495 0
M  V30 1954 C 186.525 1.46336 -1.30691 0
M  V30 1955 O 185.65 2.068 -0.637409 0
M  V30 1956 C 186.245 0.165305 -3.38396 0
M  V30 1957 C 184.804 0.584101 -3.7184 0
M  V30 1958 C 183.951 -0.255279 -2.76122 0
M  V30 1959 H 186.902 -0.605104 -1.46711 0
M  V30 1960 H 186.923 0.984848 -3.67534 0
M  V30 1961 H 186.435 -0.836301 -3.78982 0
M  V30 1962 H 184.536 1.59315 -3.36823 0
M  V30 1963 H 184.649 0.343749 -4.77865 0
M  V30 1964 H 183.013 0.279126 -2.53166 0
M  V30 1965 H 183.796 -1.25482 -3.19545 0
M  V30 1966 N 186.241 1.57166 -0.116904 0
M  V30 1967 C 187.487 1.95412 0.542405 0
M  V30 1968 C 187.82 1.00019 1.66463 0
M  V30 1969 O 187.095 0.0370346 1.94465 0
M  V30 1970 C 187.378 3.43615 1.07708 0
M  V30 1971 C 187.231 4.49781 -0.0415868 0
M  V30 1972 C 188.55 3.93616 1.96861 0
M  V30 1973 H 185.669 0.710543 0.195696 0
M  V30 1974 H 188.311 1.89027 -0.192038 0
M  V30 1975 H 186.461 3.49187 1.70296 0
M  V30 1976 H 188.133 4.56308 -0.676793 0
M  V30 1977 H 186.376 4.28033 -0.705019 0
M  V30 1978 H 187.047 5.50733 0.373717 0
M  V30 1979 H 189.523 3.90335 1.44146 0
M  V30 1980 H 188.399 4.97838 2.3119 0
M  V30 1981 H 188.66 3.34188 2.89432 0
M  V30 1982 N 187.719 -0.156864 1.56817 0
M  V30 1983 C 188.996 -0.899244 1.73704 0
M  V30 1984 C 189.376 -1.99771 0.682254 0
M  V30 1985 O 188.724 -2.26515 -0.300522 0
M  V30 1986 C 188.934 -1.45075 3.17418 0
M  V30 1987 C 190.282 -1.91802 3.7881 0
M  V30 1988 O 191.306 -1.54838 3.20786 0
M  V30 1989 O 190.165 -2.5994 4.80722 0
M  V30 1990 H 187.259 -0.424267 0.709878 0
M  V30 1991 H 189.805 -0.143561 1.69092 0
M  V30 1992 H 188.577 -0.660846 3.85679 0
M  V30 1993 H 188.2 -2.27021 3.26416 0
M  V30 1994 N 189.197 -1.51736 -0.425897 0
M  V30 1995 C 190.422 -1.69082 -1.20108 0
M  V30 1996 C 190.847 -0.392398 -1.83962 0
M  V30 1997 O 190.205 0.64858 -1.69302 0
M  V30 1998 C 190.253 -2.81604 -2.25237 0
M  V30 1999 O 189.357 -2.46004 -3.30992 0
M  V30 2000 H 188.698 -0.563408 -0.35138 0
M  V30 2001 H 191.228 -1.98358 -0.501512 0
M  V30 2002 H 191.238 -3.06025 -2.69838 0
M  V30 2003 H 189.913 -3.75817 -1.78142 0
M  V30 2004 H 188.49 -2.32195 -2.91787 0
M  V30 2005 N 190.675 0.682077 -1.42076 0
M  V30 2006 C 191.924 1.43786 -1.41451 0
M  V30 2007 C 192.237 1.95574 -0.0317074 0
M  V30 2008 O 193.443 2.71326 0.0971462 0
M  V30 2009 C 191.899 2.60071 -2.48779 0
M  V30 2010 C 191.507 2.15013 -3.93031 0
M  V30 2011 C 193.251 3.37626 -2.57311 0
M  V30 2012 C 191.158 3.28336 -4.91883 0
M  V30 2013 H 190.088 0.540143 -0.526082 0
M  V30 2014 H 192.739 0.739157 -1.67955 0
M  V30 2015 H 191.121 3.32275 -2.15429 0
M  V30 2016 H 192.295 1.5001 -4.35699 0
M  V30 2017 H 190.61 1.50416 -3.88284 0
M  V30 2018 H 193.207 4.22012 -3.28345 0
M  V30 2019 H 193.55 3.83727 -1.61429 0
M  V30 2020 H 194.083 2.72488 -2.89819 0
M  V30 2021 H 190.822 2.87234 -5.89217 0
M  V30 2022 H 190.342 3.92145 -4.53853 0
M  V30 2023 H 192.021 3.93913 -5.13265 0
M  V30 2024 N 192.153 1.28127 0.917671 0
M  V30 2025 C 193.063 1.13556 2.05286 0
M  V30 2026 C 194.079 0.0630914 1.73886 0
M  V30 2027 O 195.255 0.271598 1.9956 0
M  V30 2028 C 192.32 0.794676 3.3747 0
M  V30 2029 C 191.381 1.94909 3.82504 0
M  V30 2030 C 190.614 1.62437 5.0838 0
M  V30 2031 O 190.837 0.536905 5.67867 0
M  V30 2032 O 189.771 2.46677 5.4903 0
M  V30 2033 H 193.597 2.08844 2.20495 0
M  V30 2034 H 191.182 1.07409 1.03845 0
M  V30 2035 H 193.064 0.618344 4.16839 0
M  V30 2036 H 191.739 -0.128581 3.23445 0
M  V30 2037 H 190.646 2.18055 3.03978 0
M  V30 2038 H 191.979 2.85291 4.01086 0
M  V30 2039 N 193.631 -1.12557 1.10312 0
M  V30 2040 C 195.047 -1.36036 0.834649 0
M  V30 2041 C 195.247 -1.93946 -0.546539 0
M  V30 2042 O 194.303 -2.16484 -1.29966 0
M  V30 2043 C 195.616 -2.30312 1.9333 0
M  V30 2044 C 197.164 -2.43906 1.9616 0
M  V30 2045 C 197.639 -3.41496 3.05195 0
M  V30 2046 N 199.13 -3.49053 3.04494 0
M  V30 2047 C 199.865 -4.24471 3.85502 0
M  V30 2048 N 199.361 -5.02966 4.76442 0
M  V30 2049 N 201.154 -4.19864 3.73725 0
M  V30 2050 H 193.305 -0.733246 1.99342 0
M  V30 2051 H 195.568 -0.385234 0.866198 0
M  V30 2052 H 195.274 -1.94933 2.92735 0
M  V30 2053 H 195.148 -3.30421 1.81939 0
M  V30 2054 H 197.535 -2.78567 0.973886 0
M  V30 2055 H 197.616 -1.4369 2.11629 0
M  V30 2056 H 197.26 -3.07565 4.04186 0
M  V30 2057 H 197.19 -4.41539 2.86968 0
M  V30 2058 H 199.681 -2.93053 2.38596 0
M  V30 2059 H 199.994 -5.57846 5.34815 0
M  V30 2060 H 198.339 -5.02167 4.80472 0
M  V30 2061 H 201.53 -3.57623 3.02032 0
M  V30 2062 H 201.703 -4.78386 4.37093 0
M  V30 2063 N 195.109 -0.891671 -1.2995 0
M  V30 2064 C 196.358 -0.509521 -1.95158 0
M  V30 2065 C 196.671 0.947388 -1.71125 0
M  V30 2066 O 197.877 1.43669 -2.30372 0
M  V30 2067 C 196.333 -0.860315 -3.49466 0
M  V30 2068 C 195.941 -2.33545 -3.8231 0
M  V30 2069 C 197.685 -0.547687 -4.20952 0
M  V30 2070 C 195.592 -2.62752 -5.29826 0
M  V30 2071 H 194.522 -0.18682 -0.730489 0
M  V30 2072 H 197.173 -1.08756 -1.47798 0
M  V30 2073 H 195.555 -0.211285 -3.95436 0
M  V30 2074 H 196.729 -3.02936 -3.47227 0
M  V30 2075 H 195.044 -2.61629 -3.23944 0
M  V30 2076 H 197.641 -0.742854 -5.29515 0
M  V30 2077 H 197.984 0.51332 -4.13123 0
M  V30 2078 H 198.517 -1.1542 -3.80688 0
M  V30 2079 H 195.256 -3.6762 -5.42712 0
M  V30 2080 H 194.776 -1.97977 -5.66185 0
M  V30 2081 H 196.455 -2.48601 -5.97333 0
M  V30 2082 N 196.587 1.43421 -0.653314 0
M  V30 2083 C 197.497 2.34568 0.0388565 0
M  V30 2084 C 198.513 1.53888 0.81207 0
M  V30 2085 O 199.689 1.86539 0.759294 0
M  V30 2086 C 196.754 3.32167 0.993269 0
M  V30 2087 C 195.815 4.28751 0.216977 0
M  V30 2088 C 195.048 5.21688 1.12593 0
M  V30 2089 O 195.271 5.19052 2.36519 0
M  V30 2090 O 194.205 5.98919 0.598284 0
M  V30 2091 H 198.031 2.95251 -0.711386 0
M  V30 2092 H 195.616 1.43564 -0.413502 0
M  V30 2093 H 197.498 3.92183 1.54176 0
M  V30 2094 H 196.173 2.73987 1.72374 0
M  V30 2095 H 195.08 3.72215 -0.375101 0
M  V30 2096 H 196.413 4.89913 -0.473924 0
M  V30 2097 N 198.065 0.39524 1.52563 0
M  V30 2098 C 199.311 -0.185318 2.01952 0
M  V30 2099 C 199.644 -1.45964 1.28095 0
M  V30 2100 O 198.919 -1.90689 0.38315 0
M  V30 2101 C 199.202 -0.447193 3.57312 0
M  V30 2102 C 199.055 0.842828 4.41833 0
M  V30 2103 C 200.374 -1.23529 4.22408 0
M  V30 2104 H 197.493 -0.0658788 0.73405 0
M  V30 2105 H 200.135 0.525975 1.82575 0
M  V30 2106 H 198.285 -1.05312 3.73954 0
M  V30 2107 H 199.957 1.4795 4.36931 0
M  V30 2108 H 198.2 1.45686 4.08605 0
M  V30 2109 H 198.871 0.614165 5.48573 0
M  V30 2110 H 201.347 -0.722445 4.0978 0
M  V30 2111 H 200.223 -1.38727 5.3108 0
M  V30 2112 H 200.484 -2.25213 3.80436 0
M  V30 2113 N 199.544 -1.57102 0.125237 0
M  V30 2114 C 200.79 -1.95697 -0.532035 0
M  V30 2115 C 201.123 -1.009 -1.6593 0
M  V30 2116 O 200.398 -0.047347 -1.94442 0
M  V30 2117 C 200.681 -3.44181 -1.05884 0
M  V30 2118 C 200.534 -4.49752 0.0654392 0
M  V30 2119 C 201.853 -3.94655 -1.9477 0
M  V30 2120 H 198.972 -0.711571 -0.191925 0
M  V30 2121 H 201.614 -1.88923 0.20206 0
M  V30 2122 H 199.764 -3.50085 -1.68442 0
M  V30 2123 H 201.436 -4.55943 0.700982 0
M  V30 2124 H 199.679 -4.27653 0.727709 0
M  V30 2125 H 200.35 -5.50924 -0.344505 0
M  V30 2126 H 202.826 -3.91094 -1.42074 0
M  V30 2127 H 201.702 -4.99057 -2.28546 0
M  V30 2128 H 201.963 -3.35718 -2.87656 0
M  V30 2129 N 201.022 0.148545 -1.56898 0
M  V30 2130 C 202.438 0.501131 -1.51528 0
M  V30 2131 C 202.638 1.83458 -0.833399 0
M  V30 2132 O 201.694 2.49259 -0.40328 0
M  V30 2133 C 203.007 0.512864 -2.96294 0
M  V30 2134 C 204.555 0.598487 -3.07225 0
M  V30 2135 C 205.03 0.640897 -4.53494 0
M  V30 2136 N 206.521 0.703163 -4.57832 0
M  V30 2137 C 207.256 0.756935 -5.68382 0
M  V30 2138 N 206.752 0.770147 -6.88506 0
M  V30 2139 N 208.545 0.797698 -5.56411 0
M  V30 2140 H 200.696 -0.725532 -1.99624 0
M  V30 2141 H 202.959 -0.264358 -0.910395 0
M  V30 2142 H 202.665 -0.398691 -3.49433 0
M  V30 2143 H 202.539 1.35133 -3.52163 0
M  V30 2144 H 204.926 1.50046 -2.54106 0
M  V30 2145 H 205.007 -0.267093 -2.54402 0
M  V30 2146 H 204.651 -0.256915 -5.0725 0
M  V30 2147 H 204.581 1.52295 -5.04097 0
M  V30 2148 H 207.072 0.700314 -3.71354 0
M  V30 2149 H 207.385 0.812983 -7.68512 0
M  V30 2150 H 205.73 0.738049 -6.9107 0
M  V30 2151 H 208.921 0.784535 -4.61479 0
M  V30 2152 H 209.094 0.83614 -6.42583 0
M  V30 2153 N 202.5 1.5196 0.417844 0
M  V30 2154 C 203.748 1.65263 1.16329 0
M  V30 2155 C 204.069 0.380634 1.91249 0
M  V30 2156 O 203.339 -0.604214 1.86349 0
M  V30 2157 H 201.919 0.60912 0.432414 0
M  V30 2158 H 204.581 1.88969 0.477162 0
M  V30 2159 H 203.677 2.4896 1.88217 0
M  V30 2160 N 203.978 -0.674533 1.42435 0
M  V30 2161 C 205.389 -1.25514 1.38214 0
M  V30 2162 C 205.74 -1.96055 0.0755464 0
M  V30 2163 O 204.865 -2.00028 -0.8257 0
M  V30 2164 C 205.46 -2.28269 2.50357 0
M  V30 2165 C 204.019 -2.81856 2.49467 0
M  V30 2166 C 203.166 -1.56182 2.29134 0
M  V30 2167 H 206.117 -0.467902 1.51646 0
M  V30 2168 H 206.138 -3.10009 2.20624 0
M  V30 2169 H 205.65 -1.769 3.45439 0
M  V30 2170 H 203.751 -3.37346 1.58204 0
M  V30 2171 H 203.864 -3.30854 3.46515 0
M  V30 2172 H 202.228 -1.82761 1.774 0
M  V30 2173 H 203.011 -1.06778 3.26272 0
M  V30 2174 N 205.456 -1.28612 -0.910864 0
M  V30 2175 C 206.389 -1.07109 -2.01502 0
M  V30 2176 C 207.367 0.013706 -1.62594 0
M  V30 2177 O 208.551 -0.134796 -1.88017 0
M  V30 2178 C 205.678 -0.628255 -3.32822 0
M  V30 2179 C 204.724 -1.71012 -3.90714 0
M  V30 2180 S 205.557 -3.30676 -4.21205 0
M  V30 2181 C 206.713 -2.88234 -5.55583 0
M  V30 2182 H 206.946 -2.00591 -2.19432 0
M  V30 2183 H 204.479 -1.12633 -1.05609 0
M  V30 2184 H 206.437 -0.37946 -4.08742 0
M  V30 2185 H 205.098 0.28678 -3.12788 0
M  V30 2186 H 204.291 -1.35195 -4.85529 0
M  V30 2187 H 203.893 -1.91186 -3.21441 0
M  V30 2188 H 206.185 -2.34584 -6.35591 0
M  V30 2189 H 207.128 -3.81857 -5.96314 0
M  V30 2190 H 207.536 -2.26862 -5.16908 0
M  V30 2191 N 206.934 1.1197 -1.10907 0
M  V30 2192 C 208.159 1.87942 -0.877064 0
M  V30 2193 C 208.584 1.79341 0.567314 0
M  V30 2194 O 207.942 1.15184 1.40009 0
M  V30 2195 C 207.99 3.34926 -1.33629 0
M  V30 2196 O 207.094 4.09303 -0.504447 0
M  V30 2197 H 206.435 0.583785 -0.316371 0
M  V30 2198 H 208.965 1.4157 -1.47712 0
M  V30 2199 H 208.975 3.8577 -1.32837 0
M  V30 2200 H 207.65 3.40504 -2.3881 0
M  V30 2201 H 206.227 3.68393 -0.577993 0
M  V30 2202 N 208.412 0.89855 1.29475 0
M  V30 2203 C 209.637 0.538561 2.00285 0
M  V30 2204 C 210.062 -0.869135 1.66816 0
M  V30 2205 O 209.42 -1.57831 0.892145 0
M  V30 2206 C 209.468 0.736475 3.52999 0
M  V30 2207 O 208.572 -0.211537 4.11857 0
M  V30 2208 H 207.913 0.210563 0.62973 0
M  V30 2209 H 210.443 1.20982 1.64998 0
M  V30 2210 H 210.453 0.640685 4.02938 0
M  V30 2211 H 209.128 1.76276 3.76696 0
M  V30 2212 H 207.705 -0.0682991 3.72837 0
M  V30 2213 N 209.89 -1.43072 0.660911 0
M  V30 2214 C 210.82 -2.33497 -0.0122829 0
M  V30 2215 C 211.801 -1.49903 -0.803925 0
M  V30 2216 O 212.986 -1.78546 -0.763864 0
M  V30 2217 C 210.116 -3.33363 -0.973994 0
M  V30 2218 C 209.07 -4.27003 -0.291928 0
M  V30 2219 C 208.396 -5.16967 -1.36562 0
M  V30 2220 C 209.696 -5.15816 0.820462 0
M  V30 2221 H 211.39 -2.90038 0.742873 0
M  V30 2222 H 208.936 -1.39461 0.358688 0
M  V30 2223 H 210.889 -3.95524 -1.45392 0
M  V30 2224 H 209.613 -2.75095 -1.7604 0
M  V30 2225 H 208.272 -3.66217 0.167623 0
M  V30 2226 H 207.92 -4.55034 -2.14366 0
M  V30 2227 H 207.62 -5.80441 -0.914454 0
M  V30 2228 H 209.144 -5.82003 -1.84675 0
M  V30 2229 H 210.558 -5.71742 0.422366 0
M  V30 2230 H 208.955 -5.8805 1.19656 0
M  V30 2231 H 210.025 -4.55045 1.67518 0
M  V30 2232 N 211.368 -0.403325 -1.52352 0
M  V30 2233 C 212.598 0.17376 -2.05868 0
M  V30 2234 C 213.006 1.39898 -1.27378 0
M  V30 2235 O 212.349 1.80939 -0.31729 0
M  V30 2236 C 212.411 0.594756 -3.54546 0
M  V30 2237 C 212.075 -0.518926 -4.54044 0
M  V30 2238 C 213.072 -1.3807 -5.01231 0
M  V30 2239 C 210.757 -0.689961 -4.97539 0
M  V30 2240 C 212.751 -2.39852 -5.90551 0
M  V30 2241 C 210.438 -1.71109 -5.86656 0
M  V30 2242 C 211.436 -2.56378 -6.33056 0
M  V30 2243 O 211.124 -3.56743 -7.20409 0
M  V30 2244 H 210.856 0.0264951 -0.675481 0
M  V30 2245 H 213.41 -0.571179 -1.97299 0
M  V30 2246 H 211.64 1.39189 -3.60782 0
M  V30 2247 H 213.329 1.0991 -3.90736 0
M  V30 2248 H 214.095 -1.25994 -4.68349 0
M  V30 2249 H 209.974 -0.035939 -4.60986 0
M  V30 2250 H 213.518 -3.06441 -6.26689 0
M  V30 2251 H 209.415 -1.83218 -6.18952 0
M  V30 2252 H 210.183 -3.52918 -7.38506 0
M  V30 2253 N 212.846 1.57033 -0.133567 0
M  V30 2254 C 214.094 1.953 0.519848 0
M  V30 2255 C 214.415 1.01866 1.66278 0
M  V30 2256 O 213.685 0.0776513 1.95746 0
M  V30 2257 H 212.265 0.721091 0.195032 0
M  V30 2258 H 214.927 1.93809 -0.205921 0
M  V30 2259 H 214.023 2.98695 0.904854 0
M  V30 2260 N 214.325 -0.140222 1.56975 0
M  V30 2261 C 215.55 -0.870414 1.88251 0
M  V30 2262 C 215.975 -1.73637 0.723312 0
M  V30 2263 O 215.333 -1.78329 -0.32689 0
M  V30 2264 C 215.381 -1.69737 3.18154 0
M  V30 2265 O 214.485 -2.80229 3.02565 0
M  V30 2266 H 213.826 -0.242025 0.61832 0
M  V30 2267 H 216.356 -0.128999 2.04193 0
M  V30 2268 H 216.366 -2.09099 3.50345 0
M  V30 2269 H 215.041 -1.06152 4.02125 0
M  V30 2270 H 213.618 -2.44224 2.81796 0
M  V30 2271 N 215.803 -1.52179 -0.40978 0
M  V30 2272 C 217.08 -1.56769 -1.16974 0
M  V30 2273 C 217.46 -0.348322 -2.08206 0
M  V30 2274 O 216.808 0.664862 -2.18613 0
M  V30 2275 C 217.018 -2.89603 -1.9476 0
M  V30 2276 C 218.366 -3.42579 -2.50849 0
M  V30 2277 O 219.39 -2.91338 -2.04941 0
M  V30 2278 O 218.249 -4.32054 -3.34652 0
M  V30 2279 H 215.343 -0.631439 -0.534054 0
M  V30 2280 H 217.889 -1.64507 -0.416613 0
M  V30 2281 H 216.661 -3.698 -1.27921 0
M  V30 2282 H 216.284 -2.85155 -2.77079 0
M  V30 2283 N 217.281 0.66697 -1.42791 0
M  V30 2284 C 218.244 1.76211 -1.46568 0
M  V30 2285 C 219.244 1.56896 -0.352196 0
M  V30 2286 O 220.434 1.63044 -0.613364 0
M  V30 2287 C 217.566 3.14935 -1.30494 0
M  V30 2288 H 218.759 1.74247 -2.44086 0
M  V30 2289 H 216.312 0.877342 -1.29354 0
M  V30 2290 H 217.047 3.2252 -0.339301 0
M  V30 2291 H 216.832 3.30359 -2.11199 0
M  V30 2292 H 218.322 3.94821 -1.36038 0
M  V30 2293 N 218.759 1.29093 0.90403 0
M  V30 2294 C 219.689 1.16401 2.02418 0
M  V30 2295 C 220.67 0.0593085 1.69997 0
M  V30 2296 O 221.855 0.238021 1.92736 0
M  V30 2297 C 218.985 0.835233 3.37107 0
M  V30 2298 C 217.939 1.89578 3.83724 0
M  V30 2299 C 217.265 1.42041 5.15489 0
M  V30 2300 C 218.565 3.30394 4.04521 0
M  V30 2301 H 220.259 2.10109 2.13295 0
M  V30 2302 H 217.805 1.01157 1.02486 0
M  V30 2303 H 219.758 0.733169 4.14973 0
M  V30 2304 H 218.482 -0.137543 3.2631 0
M  V30 2305 H 217.141 1.98715 3.08071 0
M  V30 2306 H 216.789 0.436426 5.01103 0
M  V30 2307 H 216.489 2.12964 5.4765 0
M  V30 2308 H 218.013 1.33176 5.959 0
M  V30 2309 H 219.427 3.24123 4.72882 0
M  V30 2310 H 217.824 3.99237 4.48029 0
M  V30 2311 H 218.894 3.73692 3.09002 0
M  V30 2312 N 220.237 -1.11381 1.11499 0
M  V30 2313 C 221.485 -1.8277 0.862524 0
M  V30 2314 C 221.806 -1.85097 -0.613534 0
M  V30 2315 O 221.076 -1.32198 -1.4457 0
M  V30 2316 H 219.656 -0.676823 0.316101 0
M  V30 2317 H 222.318 -1.34816 1.4075 0
M  V30 2318 H 221.414 -2.86614 1.23527 0
M  V30 2319 N 221.715 -0.905404 -1.28997 0
M  V30 2320 C 222.963 -0.533192 -1.9494 0
M  V30 2321 C 223.284 0.924618 -1.71685 0
M  V30 2322 O 222.554 1.65268 -1.05183 0
M  V30 2323 H 221.134 -0.194194 -0.721317 0
M  V30 2324 H 223.796 -1.15294 -1.57141 0
M  V30 2325 H 222.892 -0.72059 -3.03667 0
M  V30 2326 N 223.193 1.4272 -0.668489 0
M  V30 2327 C 224.439 2.01923 -0.188419 0
M  V30 2328 C 224.772 1.52704 1.19979 0
M  V30 2329 O 224.047 0.726566 1.8042 0
M  V30 2330 C 224.33 3.59451 -0.216085 0
M  V30 2331 C 224.183 4.18864 -1.6393 0
M  V30 2332 C 225.502 4.37903 0.439179 0
M  V30 2333 H 222.621 0.733674 -0.0699412 0
M  V30 2334 H 225.263 1.69822 -0.852076 0
M  V30 2335 H 223.413 3.86929 0.349012 0
M  V30 2336 H 225.085 4.02362 -2.25616 0
M  V30 2337 H 223.328 3.74933 -2.18193 0
M  V30 2338 H 223.999 5.27987 -1.61039 0
M  V30 2339 H 226.475 4.16079 -0.0417878 0
M  V30 2340 H 225.351 5.47519 0.389157 0
M  V30 2341 H 225.612 4.15303 1.51577 0
M  V30 2342 N 224.671 0.411399 1.52136 0
M  V30 2343 C 225.917 -0.163888 2.02137 0
M  V30 2344 C 226.25 -1.44597 1.29636 0
M  V30 2345 O 225.525 -1.90272 0.403353 0
M  V30 2346 C 225.808 -0.40927 3.57767 0
M  V30 2347 C 225.661 0.889643 4.40914 0
M  V30 2348 C 226.98 -1.19042 4.23694 0
M  V30 2349 H 224.099 -0.0580896 0.734707 0
M  V30 2350 H 226.741 0.54531 1.82007 0
M  V30 2351 H 224.891 -1.0134 3.7505 0
M  V30 2352 H 226.563 1.52575 4.35337 0
M  V30 2353 H 224.806 1.50011 4.07037 0
M  V30 2354 H 225.477 0.672314 5.4789 0
M  V30 2355 H 227.953 -0.678942 4.10524 0
M  V30 2356 H 226.829 -1.33086 5.32522 0
M  V30 2357 H 227.09 -2.21166 3.82803 0
M  V30 2358 N 226.149 -1.5696 0.141893 0
M  V30 2359 C 227.097 -2.17784 -0.816874 0
M  V30 2360 C 228.091 -1.1334 -1.25899 0
M  V30 2361 O 229.297 -1.316 -1.22806 0
M  V30 2362 H 225.672 -0.697278 -0.281615 0
M  V30 2363 H 227.643 -2.97087 -0.279621 0
M  V30 2364 C 226.392 -2.80983 -2.04802 0
M  V30 2365 H 225.715 -3.61062 -1.7168 0
M  V30 2366 H 227.155 -3.2705 -2.69841 0
M  V30 2367 C 225.614 -1.79228 -2.8527 0
M  V30 2368 O 226.144 -1.25962 -3.8144 0
M  V30 2369 N 224.35 -1.48647 -2.49704 0
M  V30 2370 H 223.897 -1.92155 -1.71564 0
M  V30 2371 H 223.855 -0.808115 -3.03837 0
M  V30 2372 N 227.627 0.131896 -1.57047 0
M  V30 2373 C 228.876 0.84044 -1.83356 0
M  V30 2374 C 229.189 1.81646 -0.725535 0
M  V30 2375 O 230.395 2.57025 -0.874659 0
M  V30 2376 C 228.851 1.54528 -3.25037 0
M  V30 2377 C 228.459 0.610902 -4.43815 0
M  V30 2378 C 230.203 2.23972 -3.60606 0
M  V30 2379 C 228.11 1.31823 -5.76521 0
M  V30 2380 H 227.04 0.317599 -0.683847 0
M  V30 2381 H 229.691 0.0931561 -1.83263 0
M  V30 2382 H 228.073 2.33873 -3.19561 0
M  V30 2383 H 229.247 -0.148407 -4.60561 0
M  V30 2384 H 227.562 0.0241016 -4.16393 0
M  V30 2385 H 230.159 2.77558 -4.57018 0
M  V30 2386 H 230.502 3.01173 -2.87403 0
M  V30 2387 H 231.035 1.51529 -3.6781 0
M  V30 2388 H 227.774 0.587771 -6.52859 0
M  V30 2389 H 227.294 2.04987 -5.63685 0
M  V30 2390 H 228.973 1.855 -6.19838 0
M  V30 2391 N 229.106 1.52395 0.401703 0
M  V30 2392 C 230.355 1.66044 1.14509 0
M  V30 2393 C 230.668 0.400216 1.91462 0
M  V30 2394 O 231.874 0.416632 2.68284 0
M  V30 2395 C 230.33 2.93388 2.0845 0
M  V30 2396 C 229.938 4.26545 1.36978 0
M  V30 2397 C 231.682 3.16402 2.83001 0
M  V30 2398 C 229.589 5.45007 2.29611 0
M  V30 2399 H 228.519 0.618562 0.431158 0
M  V30 2400 H 231.17 1.78886 0.40892 0
M  V30 2401 H 229.552 2.74263 2.8565 0
M  V30 2402 H 230.726 4.56179 0.650916 0
M  V30 2403 H 229.041 4.09692 0.74438 0
M  V30 2404 H 231.638 4.02085 3.52465 0
M  V30 2405 H 231.981 2.30943 3.46368 0
M  V30 2406 H 232.514 3.36034 2.12898 0
M  V30 2407 H 229.253 6.32835 1.70879 0
M  V30 2408 H 228.773 5.19702 2.9945 0
M  V30 2409 H 230.452 5.7838 2.89974 0
M  V30 2410 N 230.584 -0.659388 1.43143 0
M  V30 2411 C 231.812 -1.44723 1.47861 0
M  V30 2412 C 232.227 -1.88563 0.0945886 0
M  V30 2413 O 231.584 -1.59108 -0.893915 0
M  V30 2414 C 231.635 -2.68627 2.41913 0
M  V30 2415 O 231.356 -2.26623 3.74932 0
M  V30 2416 C 232.857 -3.62045 2.55809 0
M  V30 2417 H 230.077 -0.444801 0.502387 0
M  V30 2418 H 232.621 -0.808916 1.87821 0
M  V30 2419 H 230.776 -3.28613 2.05164 0
M  V30 2420 H 231.19 -3.06745 4.2545 0
M  V30 2421 H 232.664 -4.45666 3.25708 0
M  V30 2422 H 233.141 -4.08981 1.60099 0
M  V30 2423 H 233.747 -3.07944 2.93344 0
M  V30 2424 N 232.062 -1.29571 -0.897171 0
M  V30 2425 C 233.009 -1.14916 -2.00158 0
M  V30 2426 C 233.979 -0.0418149 -1.66047 0
M  V30 2427 O 235.164 -0.209793 -1.89643 0
M  V30 2428 C 232.304 -0.834307 -3.34863 0
M  V30 2429 C 231.417 -2.02234 -3.8174 0
M  V30 2430 C 230.552 -1.64664 -5.05034 0
M  V30 2431 C 229.591 -2.80033 -5.44286 0
M  V30 2432 N 228.728 -2.42843 -6.58765 0
M  V30 2433 H 233.568 -2.09403 -2.12025 0
M  V30 2434 H 231.105 -1.042 -1.0383 0
M  V30 2435 H 233.063 -0.632436 -4.12379 0
M  V30 2436 H 231.693 0.0736656 -3.22716 0
M  V30 2437 H 230.745 -2.33583 -3.00238 0
M  V30 2438 H 232.057 -2.88673 -4.06779 0
M  V30 2439 H 231.211 -1.4078 -5.9014 0
M  V30 2440 H 229.95 -0.753766 -4.8184 0
M  V30 2441 H 228.955 -3.04596 -4.57713 0
M  V30 2442 H 230.18 -3.69989 -5.6946 0
M  V30 2443 H 228.126 -1.56046 -6.3717 0
M  V30 2444 H 228.043 -3.22815 -6.83613 0
M  V30 2445 H 229.311 -2.22285 -7.47134 0
M  V30 2446 N 233.54 1.10788 -1.12088 0
M  V30 2447 C 234.487 2.17025 -0.785407 0
M  V30 2448 C 235.457 1.64265 0.246191 0
M  V30 2449 O 236.642 1.90412 0.121584 0
M  V30 2450 C 233.782 3.44249 -0.242177 0
M  V30 2451 C 232.895 4.1098 -1.33115 0
M  V30 2452 C 232.03 5.25911 -0.747741 0
M  V30 2453 C 231.069 5.84538 -1.81609 0
M  V30 2454 N 230.206 6.90853 -1.25167 0
M  V30 2455 H 235.046 2.45066 -1.69548 0
M  V30 2456 H 232.583 1.20297 -0.846582 0
M  V30 2457 H 234.541 4.17101 0.0908026 0
M  V30 2458 H 233.171 3.16571 0.631072 0
M  V30 2459 H 232.223 3.36133 -1.78097 0
M  V30 2460 H 233.535 4.50601 -2.13917 0
M  V30 2461 H 232.689 6.056 -0.365216 0
M  V30 2462 H 231.428 4.87614 0.0915188 0
M  V30 2463 H 230.433 5.03522 -2.20785 0
M  V30 2464 H 231.658 6.249 -2.6585 0
M  V30 2465 H 229.604 6.54562 -0.434174 0
M  V30 2466 H 229.521 7.29166 -1.99633 0
M  V30 2467 H 230.789 7.7433 -0.896259 0
M  V30 2468 N 235.018 0.912232 1.28515 0
M  V30 2469 C 236.267 0.540504 1.94323 0
M  V30 2470 C 236.58 -0.920044 1.72611 0
M  V30 2471 O 237.786 -1.39986 2.32629 0
M  V30 2472 C 236.242 0.915803 3.48053 0
M  V30 2473 C 235.85 2.39598 3.78546 0
M  V30 2474 C 237.594 0.614588 4.20027 0
M  V30 2475 C 235.501 2.71148 5.25578 0
M  V30 2476 H 234.431 0.198418 0.727424 0
M  V30 2477 H 237.082 1.11094 1.46049 0
M  V30 2478 H 235.464 0.274168 3.9505 0
M  V30 2479 H 236.638 3.08422 3.42364 0
M  V30 2480 H 234.953 2.66749 3.1974 0
M  V30 2481 H 237.55 0.827002 5.28266 0
M  V30 2482 H 237.893 -0.447531 4.13887 0
M  V30 2483 H 238.426 1.21462 3.78803 0
M  V30 2484 H 235.165 3.76207 5.36794 0
M  V30 2485 H 234.685 2.0696 5.62963 0
M  V30 2486 H 236.364 2.58072 5.93302 0
M  V30 2487 N 236.496 -1.42363 0.676048 0
M  V30 2488 C 237.744 -2.01123 0.198437 0
M  V30 2489 C 238.065 -1.53731 -1.19966 0
M  V30 2490 O 237.335 -0.759518 -1.80577 0
M  V30 2491 H 235.915 -0.743678 0.0703721 0
M  V30 2492 H 238.577 -1.74263 0.872837 0
M  V30 2493 H 237.673 -3.11454 0.200686 0
M  V30 2494 N 237.974 -0.419461 -1.51915 0
M  V30 2495 C 238.906 0.43646 -2.25006 0
M  V30 2496 C 239.919 1.00149 -1.28351 0
M  V30 2497 O 241.108 0.898674 -1.54227 0
M  V30 2498 C 238.208 1.6206 -2.9764 0
M  V30 2499 C 237.381 1.17763 -4.21249 0
M  V30 2500 C 236.44 2.22985 -4.76617 0
M  V30 2501 O 235.466 1.83151 -5.38929 0
M  V30 2502 N 236.668 3.55271 -4.59089 0
M  V30 2503 H 239.433 -0.18989 -2.99098 0
M  V30 2504 H 236.994 -0.247386 -1.59999 0
M  V30 2505 H 238.986 2.32038 -3.31573 0
M  V30 2506 H 237.556 2.15266 -2.2667 0
M  V30 2507 H 236.776 0.305582 -3.93014 0
M  V30 2508 H 238.064 0.858781 -5.015 0
M  V30 2509 H 237.462 3.90377 -4.09417 0
M  V30 2510 H 236.019 4.21195 -4.97432 0
M  V30 2511 N 239.452 1.56882 -0.150215 0
M  V30 2512 C 240.399 2.16922 0.788244 0
M  V30 2513 C 241.369 1.10303 1.24187 0
M  V30 2514 O 242.554 1.38359 1.31383 0
M  V30 2515 C 239.694 2.79754 2.02068 0
M  V30 2516 C 238.807 4.00775 1.61257 0
M  V30 2517 C 237.942 4.51595 2.79705 0
M  V30 2518 C 236.981 5.65074 2.35282 0
M  V30 2519 N 236.118 6.10499 3.4675 0
M  V30 2520 H 240.958 2.96779 0.269444 0
M  V30 2521 H 238.495 1.46599 0.12128 0
M  V30 2522 H 240.453 3.14329 2.74323 0
M  V30 2523 H 239.083 2.02536 2.51354 0
M  V30 2524 H 238.135 3.72158 0.787553 0
M  V30 2525 H 239.447 4.82978 1.24633 0
M  V30 2526 H 238.601 4.88242 3.60145 0
M  V30 2527 H 237.34 3.68406 3.19576 0
M  V30 2528 H 236.345 5.28 1.53283 0
M  V30 2529 H 237.57 6.50052 1.96493 0
M  V30 2530 H 235.516 5.30243 3.86236 0
M  V30 2531 H 235.433 6.87637 3.14152 0
M  V30 2532 H 236.701 6.51791 4.27537 0
M  V30 2533 N 240.93 -0.123565 1.57115 0
M  V30 2534 C 242.176 -0.828428 1.85765 0
M  V30 2535 C 242.531 -1.77709 0.737371 0
M  V30 2536 O 241.824 -1.89787 -0.262978 0
M  V30 2537 C 242.018 -1.62016 3.18568 0
M  V30 2538 C 241.847 -0.749663 4.43407 0
M  V30 2539 C 240.617 -0.406251 5.03664 0
M  V30 2540 C 242.815 -0.0693505 5.14253 0
M  V30 2541 N 240.797 0.475389 6.12057 0
M  V30 2542 C 242.168 0.671474 6.16353 0
M  V30 2543 C 244.223 0.00754393 4.97899 0
M  V30 2544 C 242.926 1.48197 7.03868 0
M  V30 2545 C 244.952 0.804845 5.85898 0
M  V30 2546 C 244.314 1.53388 6.87497 0
M  V30 2547 H 240.413 -0.280219 0.73007 0
M  V30 2548 H 242.997 -0.0924183 1.94481 0
M  V30 2549 H 241.168 -2.32724 3.10957 0
M  V30 2550 H 242.9 -2.27 3.35042 0
M  V30 2551 H 239.655 -0.747446 4.67665 0
M  V30 2552 H 240.079 0.907924 6.70884 0
M  V30 2553 H 244.721 -0.541741 4.19315 0
M  V30 2554 H 242.439 2.04242 7.81864 0
M  V30 2555 H 246.025 0.866642 5.75309 0
M  V30 2556 H 244.905 2.1409 7.5441 0
M  V30 2557 N 242.408 -1.52605 -0.393616 0
M  V30 2558 C 243.633 -1.71592 -1.16495 0
M  V30 2559 C 244.058 -0.43133 -1.83088 0
M  V30 2560 O 243.416 0.612523 -1.7064 0
M  V30 2561 C 243.464 -2.86318 -2.19213 0
M  V30 2562 O 242.568 -2.52969 -3.257 0
M  V30 2563 H 241.909 -0.570734 -0.33935 0
M  V30 2564 H 244.439 -1.99377 -0.459324 0
M  V30 2565 H 244.449 -3.1168 -2.63286 0
M  V30 2566 H 243.124 -3.79511 -1.7013 0
M  V30 2567 H 241.701 -2.38332 -2.86797 0
M  V30 2568 N 243.887 0.651787 -1.4349 0
M  V30 2569 C 245.135 1.40888 -1.44897 0
M  V30 2570 C 245.456 1.94856 -0.0749086 0
M  V30 2571 O 244.726 1.74518 0.889956 0
M  V30 2572 H 243.306 0.522887 -0.533478 0
M  V30 2573 H 245.968 0.768609 -1.79104 0
M  V30 2574 H 245.064 2.25052 -2.16236 0
M  V30 2575 N 245.365 1.30045 0.890287 0
M  V30 2576 C 246.593 1.21472 1.67487 0
M  V30 2577 C 247.008 -0.223241 1.87476 0
M  V30 2578 O 246.365 -1.14828 1.41847 0
M  V30 2579 C 246.416 1.93394 3.05419 0
M  V30 2580 O 246.137 3.31576 2.86337 0
M  V30 2581 C 247.638 1.91414 3.99844 0
M  V30 2582 H 244.858 0.420604 0.522813 0
M  V30 2583 H 247.402 1.7158 1.11268 0
M  V30 2584 H 245.557 1.47099 3.58386 0
M  V30 2585 H 245.971 3.67929 3.73802 0
M  V30 2586 H 247.445 2.46285 4.94012 0
M  V30 2587 H 247.922 0.891833 4.3005 0
M  V30 2588 H 248.528 2.37496 3.52811 0
M  V30 2589 N 246.843 -1.10192 1.12674 0
M  V30 2590 C 248.089 -1.82475 0.884915 0
M  V30 2591 C 248.422 -1.85093 -0.58773 0
M  V30 2592 O 247.697 -1.3134 -1.43457 0
M  V30 2593 C 247.98 -3.29018 1.46353 0
M  V30 2594 C 247.833 -3.34718 3.00473 0
M  V30 2595 C 249.152 -4.25473 1.12519 0
M  V30 2596 H 246.271 -0.662492 0.322915 0
M  V30 2597 H 248.913 -1.2913 1.39375 0
M  V30 2598 H 247.063 -3.74576 1.03077 0
M  V30 2599 H 248.735 -2.97622 3.52447 0
M  V30 2600 H 246.978 -2.74541 3.35872 0
M  V30 2601 H 247.649 -4.37918 3.36053 0
M  V30 2602 H 250.125 -3.88161 1.499 0
M  V30 2603 H 249.001 -5.26365 1.55663 0
M  V30 2604 H 249.262 -4.42084 0.0377407 0
M  V30 2605 N 248.321 -0.919034 -1.28029 0
M  V30 2606 C 249.549 -0.570971 -1.98866 0
M  V30 2607 C 249.964 0.848996 -1.68634 0
M  V30 2608 O 249.321 1.56307 -0.942036 0
M  V30 2609 C 249.372 -0.776876 -3.53054 0
M  V30 2610 O 249.093 -2.14097 -3.82222 0
M  V30 2611 C 250.594 -0.436356 -4.41147 0
M  V30 2612 H 247.814 -0.217175 -0.634883 0
M  V30 2613 H 250.358 -1.23368 -1.63097 0
M  V30 2614 H 248.513 -0.161085 -3.87065 0
M  V30 2615 H 248.927 -2.18455 -4.76841 0
M  V30 2616 H 250.401 -0.63117 -5.4838 0
M  V30 2617 H 250.878 0.627686 -4.34692 0
M  V30 2618 H 251.484 -1.02991 -4.12641 0
M  V30 2619 N 249.799 1.42003 -0.683588 0
M  V30 2620 C 251.045 2.01712 -0.209825 0
M  V30 2621 C 251.378 1.53968 1.18353 0
M  V30 2622 O 250.653 0.745661 1.79639 0
M  V30 2623 C 250.936 3.59202 -0.254197 0
M  V30 2624 C 250.789 4.17102 -1.68363 0
M  V30 2625 C 252.108 4.38344 0.392709 0
M  V30 2626 H 249.227 0.732891 -0.0777189 0
M  V30 2627 H 251.869 1.68909 -0.87004 0
M  V30 2628 H 250.019 3.87278 0.307954 0
M  V30 2629 H 251.691 3.99946 -2.29871 0
M  V30 2630 H 249.934 3.72597 -2.22157 0
M  V30 2631 H 250.605 5.26249 -1.6663 0
M  V30 2632 H 253.081 4.16011 -0.0859162 0
M  V30 2633 H 251.957 5.47901 0.331063 0
M  V30 2634 H 252.218 4.16887 1.47164 0
M  V30 2635 N 251.277 0.427512 1.51691 0
M  V30 2636 C 252.554 -0.201684 1.94557 0
M  V30 2637 C 252.934 -1.60981 1.36559 0
M  V30 2638 O 252.282 -2.21814 0.548702 0
M  V30 2639 C 252.492 -0.189394 3.48486 0
M  V30 2640 C 253.84 -0.39978 4.22714 0
M  V30 2641 O 254.864 -0.267945 3.55191 0
M  V30 2642 O 253.723 -0.661249 5.42485 0
M  V30 2643 H 250.817 -0.135261 0.815864 0
M  V30 2644 H 253.363 0.484782 1.62628 0
M  V30 2645 H 252.135 0.795431 3.8313 0
M  V30 2646 H 251.758 -0.919187 3.86829 0
M  V30 2647 N 252.755 -1.56801 0.158532 0
M  V30 2648 C 253.983 -2.00859 -0.496303 0
M  V30 2649 C 254.398 -1.03871 -1.57659 0
M  V30 2650 O 253.755 -0.0375165 -1.82461 0
M  V30 2651 C 253.806 -3.4479 -1.08638 0
M  V30 2652 O 253.527 -4.38072 -0.0492322 0
M  V30 2653 C 255.028 -4.04185 -1.8207 0
M  V30 2654 H 252.248 -0.65864 -0.128199 0
M  V30 2655 H 254.792 -2.02885 0.256506 0
M  V30 2656 H 252.947 -3.43579 -1.78975 0
M  V30 2657 H 253.361 -5.2227 -0.483102 0
M  V30 2658 H 254.835 -5.06857 -2.18633 0
M  V30 2659 H 255.312 -3.45549 -2.71095 0
M  V30 2660 H 255.918 -4.0906 -1.16405 0
M  V30 2661 N 254.233 0.115231 -1.57178 0
M  V30 2662 C 255.461 0.836437 -1.89239 0
M  V30 2663 C 255.876 1.73256 -0.750175 0
M  V30 2664 O 255.233 1.80357 0.278832 0
M  V30 2665 C 255.284 1.66671 -3.20785 0
M  V30 2666 O 255.005 0.806652 -4.3061 0
M  V30 2667 C 256.506 2.49274 -3.66575 0
M  V30 2668 H 253.726 0.240253 -0.626514 0
M  V30 2669 H 256.27 0.0984932 -2.04263 0
M  V30 2670 H 254.425 2.35737 -3.0742 0
M  V30 2671 H 254.839 1.37969 -5.06028 0
M  V30 2672 H 256.313 3.03055 -4.6137 0
M  V30 2673 H 256.79 3.26807 -2.93417 0
M  V30 2674 H 257.396 1.85443 -3.82741 0
M  V30 2675 N 255.711 1.52812 0.385517 0
M  V30 2676 C 256.96 1.67249 1.12741 0
M  V30 2677 C 257.273 0.4205 1.91027 0
M  V30 2678 O 258.479 0.445064 2.67827 0
M  V30 2679 C 256.935 2.95583 2.05326 0
M  V30 2680 C 256.543 4.27974 1.32447 0
M  V30 2681 C 258.287 3.19386 2.7963 0
M  V30 2682 C 256.194 5.47412 2.23818 0
M  V30 2683 H 255.124 0.6231 0.424573 0
M  V30 2684 H 257.775 1.79309 0.389924 0
M  V30 2685 H 256.157 2.77277 2.82725 0
M  V30 2686 H 257.331 4.56844 0.602495 0
M  V30 2687 H 255.646 4.10459 0.700885 0
M  V30 2688 H 258.243 4.05801 3.48181 0
M  V30 2689 H 258.586 2.34604 3.43899 0
M  V30 2690 H 259.119 3.38274 2.09322 0
M  V30 2691 H 255.858 6.34612 1.64157 0
M  V30 2692 H 255.378 5.22849 2.93921 0
M  V30 2693 H 257.057 5.81423 2.83824 0
M  V30 2694 N 257.189 -0.644168 1.43834 0
M  V30 2695 C 258.121 -1.76955 1.45669 0
M  V30 2696 C 259.134 -1.58956 0.351666 0
M  V30 2697 O 260.323 -1.6751 0.616644 0
M  V30 2698 C 257.423 -3.14507 1.26248 0
M  V30 2699 C 256.596 -3.59083 2.49757 0
M  V30 2700 C 255.655 -4.75467 2.25427 0
M  V30 2701 O 254.681 -4.84444 2.98836 0
M  V30 2702 N 255.883 -5.66289 1.27661 0
M  V30 2703 H 258.648 -1.75856 2.42682 0
M  V30 2704 H 256.209 -0.828312 1.39106 0
M  V30 2705 H 258.201 -3.90067 1.0784 0
M  V30 2706 H 256.771 -3.10325 0.376478 0
M  V30 2707 H 255.991 -2.7387 2.8353 0
M  V30 2708 H 257.279 -3.85613 3.31934 0
M  V30 2709 H 256.677 -5.61718 0.670064 0
M  V30 2710 H 255.234 -6.41533 1.15234 0
M  V30 2711 N 258.668 -1.30515 -0.883378 0
M  V30 2712 C 259.578 -1.18959 -2.02203 0
M  V30 2713 C 260.594 -0.109172 -1.73657 0
M  V30 2714 O 261.77 -0.324413 -1.9877 0
M  V30 2715 C 258.835 -0.883871 -3.35244 0
M  V30 2716 C 257.896 -2.04982 -3.77201 0
M  V30 2717 C 257.129 -1.75859 -5.03894 0
M  V30 2718 O 257.352 -0.687276 -5.66244 0
M  V30 2719 O 256.286 -2.61146 -5.42297 0
M  V30 2720 H 260.112 -2.14616 -2.1488 0
M  V30 2721 H 257.697 -1.10124 -1.0096 0
M  V30 2722 H 259.579 -0.728644 -4.15053 0
M  V30 2723 H 258.254 0.0427798 -3.23672 0
M  V30 2724 H 257.161 -2.26038 -2.9809 0
M  V30 2725 H 258.494 -2.95825 -3.93381 0
M  V30 2726 N 260.146 1.09593 -1.13257 0
M  V30 2727 C 261.096 2.14345 -0.777179 0
M  V30 2728 C 262.08 1.59277 0.227966 0
M  V30 2729 O 263.272 1.76971 0.0321413 0
M  V30 2730 C 260.401 3.42439 -0.242991 0
M  V30 2731 C 259.487 4.04419 -1.27694 0
M  V30 2732 N 259.878 4.40979 -2.47732 0
M  V30 2733 C 258.176 4.31596 -1.12432 0
M  V30 2734 C 258.877 4.89784 -3.13826 0
M  V30 2735 N 257.853 4.87133 -2.41252 0
M  V30 2736 H 261.655 2.40415 -1.69049 0
M  V30 2737 H 259.169 1.26803 -1.01463 0
M  V30 2738 H 261.166 4.16889 0.0298496 0
M  V30 2739 H 259.826 3.17824 0.66467 0
M  V30 2740 H 260.837 4.32396 -2.85051 0
M  V30 2741 H 257.514 4.16595 -0.274684 0
M  V30 2742 H 258.904 5.2755 -4.16102 0
M  V30 2743 N 261.624 0.925811 1.2754 0
M  V30 2744 C 263.04 0.625767 1.46821 0
M  V30 2745 C 263.24 -0.825506 1.83814 0
M  V30 2746 O 262.296 -1.60356 1.95044 0
M  V30 2747 C 263.609 1.57402 2.56213 0
M  V30 2748 C 265.157 1.58204 2.70075 0
M  V30 2749 C 265.632 2.51721 3.82623 0
M  V30 2750 N 267.123 2.49917 3.89994 0
M  V30 2751 C 267.858 3.18968 4.76494 0
M  V30 2752 N 267.354 3.97391 5.67496 0
M  V30 2753 N 269.147 3.07996 4.70208 0
M  V30 2754 H 261.298 1.86409 1.01811 0
M  V30 2755 H 263.561 0.800213 0.508295 0
M  V30 2756 H 263.267 2.60925 2.35819 0
M  V30 2757 H 263.141 1.31428 3.53563 0
M  V30 2758 H 265.528 0.554124 2.89851 0
M  V30 2759 H 265.609 1.88226 1.73218 0
M  V30 2760 H 265.253 3.54622 3.63601 0
M  V30 2761 H 265.183 2.18996 4.78903 0
M  V30 2762 H 267.674 1.9296 3.24923 0
M  V30 2763 H 267.987 4.4707 6.30356 0
M  V30 2764 H 266.332 4.01495 5.67298 0
M  V30 2765 H 269.523 2.46223 3.9811 0
M  V30 2766 H 269.696 3.6208 5.37403 0
M  V30 2767 N 263.102 -1.41638 0.69111 0
M  V30 2768 C 264.379 -1.95036 0.148421 0
M  V30 2769 C 264.759 -1.63072 -1.34055 0
M  V30 2770 O 264.107 -0.93538 -2.08478 0
M  V30 2771 C 264.317 -3.46279 0.434951 0
M  V30 2772 C 265.665 -4.23069 0.360275 0
M  V30 2773 O 266.689 -3.54277 0.369613 0
M  V30 2774 O 265.548 -5.45583 0.316534 0
M  V30 2775 H 262.642 -0.826908 0.0123654 0
M  V30 2776 H 265.188 -1.5138 0.766963 0
M  V30 2777 H 263.96 -3.6281 1.46576 0
M  V30 2778 H 263.583 -3.97019 -0.214787 0
M  V30 2779 N 264.58 -0.43555 -1.51462 0
M  V30 2780 C 265.996 -0.0877501 -1.59359 0
M  V30 2781 C 266.196 1.4027 -1.4466 0
M  V30 2782 O 265.252 2.17243 -1.28693 0
M  V30 2783 C 266.565 -0.606264 -2.94525 0
M  V30 2784 C 268.113 -0.566548 -3.0783 0
M  V30 2785 C 268.588 -1.06201 -4.45517 0
M  V30 2786 N 270.079 -1.01992 -4.51832 0
M  V30 2787 C 270.814 -1.37417 -5.5669 0
M  V30 2788 N 270.31 -1.80119 -6.68976 0
M  V30 2789 N 272.103 -1.29245 -5.47039 0
M  V30 2790 H 264.254 -1.40533 -1.59261 0
M  V30 2791 H 266.517 -0.578992 -0.750648 0
M  V30 2792 H 266.223 -1.64901 -3.10645 0
M  V30 2793 H 266.097 -0.0302097 -3.77188 0
M  V30 2794 H 268.484 0.467208 -2.91378 0
M  V30 2795 H 268.565 -1.17898 -2.2701 0
M  V30 2796 H 268.209 -2.09422 -4.62715 0
M  V30 2797 H 268.139 -0.426127 -5.24873 0
M  V30 2798 H 270.63 -0.706308 -3.71241 0
M  V30 2799 H 270.943 -2.05392 -7.45006 0
M  V30 2800 H 269.288 -1.84044 -6.70189 0
M  V30 2801 H 272.479 -0.957522 -4.58202 0
M  V30 2802 H 272.652 -1.57182 -6.28648 0
M  V30 2803 N 266.058 1.56714 -0.166846 0
M  V30 2804 C 267.306 1.96358 0.478305 0
M  V30 2805 C 267.627 1.0537 1.6408 0
M  V30 2806 O 266.897 0.119154 1.95537 0
M  V30 2807 H 265.477 0.725065 0.179692 0
M  V30 2808 H 268.139 1.93329 -0.246985 0
M  V30 2809 H 267.235 3.00547 0.841292 0
M  V30 2810 N 267.536 -0.106894 1.57237 0
M  V30 2811 C 268.813 -0.843526 1.76477 0
M  V30 2812 C 269.193 -1.97499 0.745464 0
M  V30 2813 O 268.541 -2.27357 -0.228306 0
M  V30 2814 C 268.751 -1.34903 3.21873 0
M  V30 2815 C 270.099 -1.79654 3.8472 0
M  V30 2816 O 271.123 -1.44554 3.2555 0
M  V30 2817 O 269.982 -2.44515 4.88748 0
M  V30 2818 H 267.076 -0.401468 0.723016 0
M  V30 2819 H 269.622 -0.0896927 1.69463 0
M  V30 2820 H 268.394 -0.53781 3.87586 0
M  V30 2821 H 268.017 -2.16522 3.33473 0
M  V30 2822 N 269.014 -1.53014 -0.377408 0
M  V30 2823 C 270.242 -1.72515 -1.14219 0
M  V30 2824 C 270.657 -0.448735 -1.8339 0
M  V30 2825 O 270.014 0.577592 -1.73119 0
M  V30 2826 C 270.065 -2.8826 -2.18148 0
M  V30 2827 O 269.786 -4.10962 -1.51795 0
M  V30 2828 C 271.287 -3.19536 -3.07264 0
M  V30 2829 H 268.507 -0.577301 -0.342001 0
M  V30 2830 H 271.051 -1.99712 -0.439935 0
M  V30 2831 H 269.206 -2.63492 -2.83991 0
M  V30 2832 H 269.62 -4.75693 -2.20945 0
M  V30 2833 H 271.094 -4.03959 -3.76193 0
M  V30 2834 H 271.571 -2.34403 -3.71419 0
M  V30 2835 H 272.177 -3.46186 -2.47053 0
M  V30 2836 N 270.492 0.636531 -1.44174 0
M  V30 2837 C 271.722 1.42146 -1.49927 0
M  V30 2838 C 272.13 1.88812 -0.121063 0
M  V30 2839 O 271.473 1.61126 0.882267 0
M  V30 2840 C 271.535 2.67883 -2.39748 0
M  V30 2841 C 271.199 2.43048 -3.8701 0
M  V30 2842 C 272.196 2.05216 -4.77684 0
M  V30 2843 C 269.881 2.56856 -4.3166 0
M  V30 2844 C 271.875 1.81512 -6.11009 0
M  V30 2845 C 269.562 2.32766 -5.65034 0
M  V30 2846 C 270.56 1.95152 -6.54526 0
M  V30 2847 O 270.248 1.71326 -7.85431 0
M  V30 2848 H 269.98 0.442567 -0.51099 0
M  V30 2849 H 272.534 0.786158 -1.8976 0
M  V30 2850 H 270.764 3.34032 -1.94832 0
M  V30 2851 H 272.453 3.29874 -2.36513 0
M  V30 2852 H 273.219 1.94111 -4.44462 0
M  V30 2853 H 269.098 2.85104 -3.62266 0
M  V30 2854 H 272.642 1.52077 -6.80822 0
M  V30 2855 H 268.539 2.43479 -5.97819 0
M  V30 2856 H 269.307 1.85616 -7.97176 0
M  V30 2857 N 271.97 1.30982 0.876444 0
M  V30 2858 C 272.918 1.18006 2.00443 0
M  V30 2859 C 273.912 0.0898871 1.69161 0
M  V30 2860 O 275.118 0.251333 1.78237 0
M  V30 2861 H 271.493 0.365196 0.65737 0
M  V30 2862 H 273.464 2.13453 2.0852 0
M  V30 2863 C 272.213 0.897521 3.35916 0
M  V30 2864 H 271.536 1.7285 3.60504 0
M  V30 2865 H 272.976 0.846874 4.15456 0
M  V30 2866 C 271.435 -0.399674 3.34521 0
M  V30 2867 O 271.965 -1.41852 3.7582 0
M  V30 2868 N 270.171 -0.413893 2.87637 0
M  V30 2869 H 269.718 0.41571 2.54224 0
M  V30 2870 H 269.676 -1.28175 2.87086 0
M  V30 2871 N 273.449 -1.08991 1.13837 0
M  V30 2872 C 274.697 -1.80899 0.901098 0
M  V30 2873 C 275.018 -1.86356 -0.574134 0
M  V30 2874 O 274.288 -1.35235 -1.41733 0
M  V30 2875 H 272.868 -0.669966 0.330386 0
M  V30 2876 H 275.53 -1.318 1.43578 0
M  V30 2877 H 274.626 -2.83929 1.29578 0
M  V30 2878 N 274.927 -0.932562 -1.27047 0
M  V30 2879 C 275.859 -0.392734 -2.2581 0
M  V30 2880 C 276.872 0.479241 -1.55586 0
M  V30 2881 O 278.061 0.291078 -1.76111 0
M  V30 2882 C 275.161 0.455456 -3.35826 0
M  V30 2883 C 274.334 -0.398355 -4.35582 0
M  V30 2884 C 273.393 0.387985 -5.24768 0
M  V30 2885 O 272.419 -0.206003 -5.68827 0
M  V30 2886 N 273.621 1.68664 -5.55457 0
M  V30 2887 H 276.386 -1.24173 -2.72766 0
M  V30 2888 H 273.947 -0.800511 -1.40725 0
M  V30 2889 H 275.939 0.988692 -3.92437 0
M  V30 2890 H 274.509 1.20522 -2.88432 0
M  V30 2891 H 273.729 -1.11286 -3.78165 0
M  V30 2892 H 275.017 -0.981889 -4.99236 0
M  V30 2893 H 274.415 2.19147 -5.21528 0
M  V30 2894 H 272.972 2.1663 -6.14748 0
M  V30 2895 N 276.405 1.4127 -0.698611 0
M  V30 2896 C 277.652 2.0118 -0.230865 0
M  V30 2897 C 277.98 1.55338 1.17049 0
M  V30 2898 O 277.235 0.756775 1.80475 0
M  V30 2899 C 277.534 3.56592 -0.240192 0
M  V30 2900 C 277.2 4.21955 -1.58948 0
M  V30 2901 C 275.862 4.39524 -1.95887 0
M  V30 2902 C 278.214 4.58576 -2.47704 0
M  V30 2903 C 275.542 4.90992 -3.2116 0
M  V30 2904 C 277.894 5.11435 -3.72313 0
M  V30 2905 C 276.558 5.27215 -4.0939 0
M  V30 2906 H 275.828 0.736169 -0.0844796 0
M  V30 2907 H 278.475 1.69124 -0.8983 0
M  V30 2908 H 276.78 3.88456 0.510797 0
M  V30 2909 H 278.477 4.00758 0.139296 0
M  V30 2910 H 275.067 4.08657 -1.29219 0
M  V30 2911 H 279.251 4.44654 -2.20445 0
M  V30 2912 H 274.507 5.01393 -3.49878 0
M  V30 2913 H 278.681 5.38752 -4.4127 0
M  V30 2914 H 276.308 5.66859 -5.06533 0
M  V30 2915 N 277.883 0.443576 1.51229 0
M  V30 2916 C 279.13 -0.120796 2.02139 0
M  V30 2917 C 279.458 -1.42166 1.32736 0
M  V30 2918 O 278.713 -1.90849 0.43301 0
M  V30 2919 C 279.012 -0.380579 3.55368 0
M  V30 2920 C 278.678 0.83523 4.43097 0
M  V30 2921 C 277.34 1.16864 4.66794 0
M  V30 2922 C 279.692 1.64601 4.94526 0
M  V30 2923 C 277.02 2.31339 5.39165 0
M  V30 2924 C 279.372 2.78181 5.68153 0
M  V30 2925 C 278.036 3.11969 5.90112 0
M  V30 2926 H 277.306 -0.0442023 0.73968 0
M  V30 2927 H 279.953 0.592046 1.82118 0
M  V30 2928 H 278.258 -1.17538 3.73754 0
M  V30 2929 H 279.955 -0.830777 3.923 0
M  V30 2930 H 276.545 0.565437 4.24854 0
M  V30 2931 H 280.729 1.40163 4.76097 0
M  V30 2932 H 275.985 2.57823 5.5438 0
M  V30 2933 H 280.159 3.41371 6.06992 0
M  V30 2934 H 277.786 4.00784 6.45969 0
M  V30 2935 N 279.361 -1.56624 0.175154 0
M  V30 2936 C 280.589 -2.01374 -0.474971 0
M  V30 2937 C 281.004 -1.05537 -1.56548 0
M  V30 2938 O 280.361 -0.0568668 -1.82411 0
M  V30 2939 C 280.412 -3.45923 -1.04975 0
M  V30 2940 O 280.133 -4.381 -0.00276605 0
M  V30 2941 C 281.634 -4.06093 -1.77773 0
M  V30 2942 H 278.854 -0.659962 -0.121206 0
M  V30 2943 H 281.398 -2.02601 0.27801 0
M  V30 2944 H 279.553 -3.45458 -1.75321 0
M  V30 2945 H 279.967 -5.22753 -0.427681 0
M  V30 2946 H 281.441 -5.09147 -2.13245 0
M  V30 2947 H 281.918 -3.48405 -2.67414 0
M  V30 2948 H 282.524 -4.10272 -1.12059 0
M  V30 2949 N 280.839 0.0985539 -1.57292 0
M  V30 2950 C 282.064 0.820196 -1.90493 0
M  V30 2951 C 282.489 1.71658 -0.769094 0
M  V30 2952 O 281.847 1.79133 0.279495 0
M  V30 2953 C 281.895 1.61242 -3.22542 0
M  V30 2954 O 280.999 2.72108 -3.09888 0
M  V30 2955 H 280.34 0.225547 -0.62452 0
M  V30 2956 H 282.87 0.0748159 -2.04463 0
M  V30 2957 H 282.88 1.99737 -3.55766 0
M  V30 2958 H 281.555 0.954535 -4.04798 0
M  V30 2959 H 280.132 2.36667 -2.88172 0
M  V30 2960 N 282.317 1.53212 0.369288 0
M  V30 2961 C 283.565 1.68881 1.11012 0
M  V30 2962 C 283.886 0.441285 1.89941 0
M  V30 2963 O 283.156 -0.544623 1.88177 0
M  V30 2964 H 281.736 0.622569 0.412816 0
M  V30 2965 H 284.398 1.90391 0.416802 0
M  V30 2966 H 283.494 2.54822 1.80201 0
M  V30 2967 N 283.795 -0.628877 1.44509 0
M  V30 2968 C 285.206 -1.21054 1.42137 0
M  V30 2969 C 285.557 -1.95715 0.137881 0
M  V30 2970 O 284.682 -2.02554 -0.761645 0
M  V30 2971 C 285.277 -2.20189 2.57493 0
M  V30 2972 C 283.836 -2.73777 2.58308 0
M  V30 2973 C 282.983 -1.48813 2.33987 0
M  V30 2974 H 285.934 -0.41942 1.53057 0
M  V30 2975 H 285.955 -3.02833 2.30375 0
M  V30 2976 H 285.467 -1.6582 3.50892 0
M  V30 2977 H 283.568 -3.32142 1.68856 0
M  V30 2978 H 283.681 -3.19662 3.56865 0
M  V30 2979 H 282.045 -1.77024 1.83124 0
M  V30 2980 H 282.828 -0.963442 3.29504 0
M  V30 2981 N 285.273 -1.31445 -0.869486 0
M  V30 2982 C 286.203 -1.21727 -1.99261 0
M  V30 2983 C 287.184 -0.104359 -1.6978 0
M  V30 2984 O 288.369 -0.289038 -1.92037 0
M  V30 2985 C 285.499 -0.924317 -3.34774 0
M  V30 2986 C 284.453 -1.99685 -3.78563 0
M  V30 2987 C 283.779 -1.55658 -5.11541 0
M  V30 2988 C 285.079 -3.41003 -3.95619 0
M  V30 2989 H 286.773 -2.1569 -2.07649 0
M  V30 2990 H 284.319 -1.03839 -0.997675 0
M  V30 2991 H 286.272 -0.842934 -4.12883 0
M  V30 2992 H 284.996 0.0509793 -3.2656 0
M  V30 2993 H 283.655 -2.06813 -3.02694 0
M  V30 2994 H 283.303 -0.569132 -4.9977 0
M  V30 2995 H 283.003 -2.27409 -5.41811 0
M  V30 2996 H 284.527 -1.48928 -5.92159 0
M  V30 2997 H 285.941 -3.36547 -4.64122 0
M  V30 2998 H 284.338 -4.10975 -4.37286 0
M  V30 2999 H 285.408 -3.81754 -2.98985 0
M  V30 3000 N 286.751 1.08385 -1.14413 0
M  V30 3001 C 288 1.80153 -0.907076 0
M  V30 3002 C 288.313 1.87176 0.567851 0
M  V30 3003 O 289.519 2.55359 0.922172 0
M  V30 3004 C 287.975 3.23687 -1.57336 0
M  V30 3005 C 287.583 3.24897 -3.08457 0
M  V30 3006 C 289.327 4.00136 -1.41744 0
M  V30 3007 C 287.234 4.6302 -3.67921 0
M  V30 3008 H 286.164 0.675139 -0.335714 0
M  V30 3009 H 288.815 1.21733 -1.37307 0
M  V30 3010 H 287.197 3.82234 -1.03505 0
M  V30 3011 H 288.371 2.76055 -3.68958 0
M  V30 3012 H 286.686 2.61943 -3.2369 0
M  V30 3013 H 289.283 5.02201 -1.83572 0
M  V30 3014 H 289.626 4.14709 -0.363576 0
M  V30 3015 H 290.159 3.48058 -1.92614 0
M  V30 3016 H 286.898 4.5365 -4.73161 0
M  V30 3017 H 286.418 5.12143 -3.12201 0
M  V30 3018 H 288.097 5.31994 -3.68227 0
M  V30 3019 N 288.23 0.939286 1.26551 0
M  V30 3020 C 289.507 0.5038 1.89001 0
M  V30 3021 C 289.887 -1.01854 1.84903 0
M  V30 3022 O 289.235 -1.87773 1.30206 0
M  V30 3023 C 289.445 1.063 3.32417 0
M  V30 3024 C 290.793 1.13051 4.09273 0
M  V30 3025 O 291.817 1.01345 3.41479 0
M  V30 3026 O 290.676 1.31233 5.30509 0
M  V30 3027 H 287.77 0.163897 0.810597 0
M  V30 3028 H 290.316 1.03173 1.34735 0
M  V30 3029 H 289.088 2.10665 3.29752 0
M  V30 3030 H 288.711 0.517408 3.94219 0
M  V30 3031 N 289.708 -1.40897 0.706093 0
M  V30 3032 C 290.956 -2.00657 0.241054 0
M  V30 3033 C 291.277 -1.56241 -1.16678 0
M  V30 3034 O 290.547 -0.79765 -1.78926 0
M  V30 3035 H 289.127 -0.742018 0.0861308 0
M  V30 3036 H 291.789 -1.72372 0.909604 0
M  V30 3037 H 290.885 -3.10958 0.266705 0
M  V30 3038 N 291.186 -0.45159 -1.50991 0
M  V30 3039 C 292.432 0.110237 -2.025 0
M  V30 3040 C 292.765 1.41109 -1.33424 0
M  V30 3041 O 292.04 1.89135 -0.453659 0
M  V30 3042 C 292.323 0.314271 -3.58726 0
M  V30 3043 C 292.176 -1.00623 -4.38401 0
M  V30 3044 C 293.495 1.07767 -4.26702 0
M  V30 3045 H 290.614 0.0385897 -0.735989 0
M  V30 3046 H 293.256 -0.593374 -1.80497 0
M  V30 3047 H 291.406 0.913601 -3.77605 0
M  V30 3048 H 293.078 -1.64064 -4.31139 0
M  V30 3049 H 291.321 -1.6075 -4.02917 0
M  V30 3050 H 291.992 -0.817341 -5.45915 0
M  V30 3051 H 294.468 0.56986 -4.12179 0
M  V30 3052 H 293.344 1.18921 -5.35863 0
M  V30 3053 H 293.605 2.10939 -3.88532 0
M  V30 3054 N 292.664 1.56529 -0.183458 0
M  V30 3055 C 293.594 2.21549 0.737456 0
M  V30 3056 C 294.575 1.17489 1.23005 0
M  V30 3057 O 295.76 1.45959 1.281 0
M  V30 3058 C 292.89 2.86575 1.96194 0
M  V30 3059 C 291.844 3.96778 1.60473 0
M  V30 3060 C 291.17 4.48911 2.90487 0
M  V30 3061 C 292.47 5.15767 0.823497 0
M  V30 3062 H 294.164 2.98761 0.195453 0
M  V30 3063 H 291.71 1.43702 0.0925686 0
M  V30 3064 H 293.663 3.30739 2.61131 0
M  V30 3065 H 292.387 2.06749 2.52828 0
M  V30 3066 H 291.046 3.53286 0.978997 0
M  V30 3067 H 290.694 3.65862 3.45186 0
M  V30 3068 H 290.394 5.23265 2.67335 0
M  V30 3069 H 291.918 4.95771 3.56432 0
M  V30 3070 H 293.332 5.56549 1.37571 0
M  V30 3071 H 291.729 5.96114 0.690551 0
M  V30 3072 H 292.799 4.84574 -0.177782 0
M  V30 3073 N 294.142 -0.090211 1.57342 0
M  V30 3074 C 295.39 -0.791241 1.85967 0
M  V30 3075 C 295.711 -1.7903 0.772859 0
M  V30 3076 O 294.981 -1.94872 -0.200398 0
M  V30 3077 H 293.561 -0.295205 0.686195 0
M  V30 3078 H 296.223 -0.0706782 1.94772 0
M  V30 3079 H 295.319 -1.31882 2.82867 0
M  V30 3080 N 295.62 -1.53406 -0.361157 0
M  V30 3081 C 296.553 -1.74946 -1.46524 0
M  V30 3082 C 297.531 -0.59795 -1.51206 0
M  V30 3083 O 298.715 -0.831062 -1.69191 0
M  V30 3084 C 295.842 -1.83224 -2.84863 0
M  V30 3085 C 294.888 -3.05233 -2.97885 0
M  V30 3086 S 295.721 -4.6466 -2.66179 0
M  V30 3087 C 296.877 -4.75793 -4.06659 0
M  V30 3088 H 297.11 -2.68319 -1.28033 0
M  V30 3089 H 294.643 -1.44051 -0.555764 0
M  V30 3090 H 296.601 -1.88679 -3.64569 0
M  V30 3091 H 295.262 -0.908948 -3.00661 0
M  V30 3092 H 294.455 -3.07648 -3.9921 0
M  V30 3093 H 294.057 -2.97913 -2.26106 0
M  V30 3094 H 296.349 -4.5612 -5.0096 0
M  V30 3095 H 297.292 -5.7786 -4.09247 0
M  V30 3096 H 297.7 -4.04389 -3.93865 0
M  V30 3097 N 297.098 0.621204 -1.44841 0
M  V30 3098 C 298.045 1.73267 -1.5247 0
M  V30 3099 C 299.015 1.6189 -0.371611 0
M  V30 3100 O 300.2 1.81668 -0.58321 0
M  V30 3101 C 297.34 3.11545 -1.48438 0
M  V30 3102 C 296.453 3.33827 -2.74196 0
M  V30 3103 C 295.588 4.62133 -2.61929 0
M  V30 3104 C 294.627 4.77627 -3.82804 0
M  V30 3105 N 293.764 5.97219 -3.69153 0
M  V30 3106 H 298.604 1.66082 -2.47428 0
M  V30 3107 H 296.141 0.810026 -1.22788 0
M  V30 3108 H 298.099 3.91528 -1.4409 0
M  V30 3109 H 296.729 3.1772 -0.570402 0
M  V30 3110 H 295.781 2.47715 -2.88689 0
M  V30 3111 H 297.093 3.41153 -3.6389 0
M  V30 3112 H 296.247 5.50291 -2.5547 0
M  V30 3113 H 294.986 4.57182 -1.69811 0
M  V30 3114 H 293.991 3.87896 -3.89637 0
M  V30 3115 H 295.216 4.84385 -4.75971 0
M  V30 3116 H 293.162 5.93339 -2.79794 0
M  V30 3117 H 293.079 6.05644 -4.52472 0
M  V30 3118 H 294.347 6.87912 -3.66603 0
M  V30 3119 N 298.576 1.31904 0.862503 0
M  V30 3120 C 299.539 1.20131 1.95195 0
M  V30 3121 C 300.539 0.126409 1.60302 0
M  V30 3122 O 301.729 0.376234 1.70089 0
M  V30 3123 C 298.861 0.845691 3.30244 0
M  V30 3124 H 300.054 2.16943 2.07064 0
M  V30 3125 H 297.607 1.15622 1.05172 0
M  V30 3126 H 298.342 -0.120957 3.24074 0
M  V30 3127 H 298.127 1.62276 3.56944 0
M  V30 3128 H 299.617 0.787418 4.10109 0
M  V30 3129 N 300.054 -1.07777 1.14986 0
M  V30 3130 C 301.284 -1.83752 0.944402 0
M  V30 3131 C 301.692 -1.8218 -0.51058 0
M  V30 3132 O 301.035 -1.22852 -1.36576 0
M  V30 3133 C 301.097 -3.32128 1.37592 0
M  V30 3134 C 300.761 -3.57425 2.84775 0
M  V30 3135 C 301.758 -3.5173 3.8286 0
M  V30 3136 C 299.443 -3.8523 3.2234 0
M  V30 3137 C 301.437 -3.73482 5.16517 0
M  V30 3138 C 299.124 -4.06634 4.56171 0
M  V30 3139 C 300.122 -4.00754 5.53069 0
M  V30 3140 O 299.81 -4.2159 6.84483 0
M  V30 3141 H 299.542 -0.58673 0.335744 0
M  V30 3142 H 302.096 -1.36982 1.53052 0
M  V30 3143 H 300.326 -3.79686 0.733165 0
M  V30 3144 H 302.015 -3.89555 1.14024 0
M  V30 3145 H 302.781 -3.30256 3.55184 0
M  V30 3146 H 298.66 -3.88923 2.47508 0
M  V30 3147 H 302.204 -3.68808 5.92137 0
M  V30 3148 H 298.101 -4.27593 4.83564 0
M  V30 3149 H 298.869 -4.38961 6.90837 0
M  V30 3150 N 301.532 -0.945985 -1.26051 0
M  V30 3151 C 302.78 -0.594941 -1.93145 0
M  V30 3152 C 303.101 0.86953 -1.7454 0
M  V30 3153 O 302.371 1.61838 -1.10387 0
M  V30 3154 H 300.951 -0.217044 -0.714773 0
M  V30 3155 H 303.613 -1.20235 -1.53393 0
M  V30 3156 H 302.709 -0.816835 -3.01221 0
M  V30 3157 N 303.011 1.40521 -0.713556 0
M  V30 3158 C 304.236 2.05759 -0.26035 0
M  V30 3159 C 304.661 1.53403 1.08854 0
M  V30 3160 O 304.019 0.668535 1.68524 0
M  V30 3161 C 304.067 3.59745 -0.248122 0
M  V30 3162 O 303.171 4.05123 0.77131 0
M  V30 3163 H 302.512 0.652564 -0.122703 0
M  V30 3164 H 305.042 1.79958 -0.973467 0
M  V30 3165 H 305.052 4.07911 -0.0851129 0
M  V30 3166 H 303.727 3.97218 -1.2325 0
M  V30 3167 H 302.304 3.68422 0.57619 0
M  V30 3168 N 304.489 0.459591 1.5075 0
M  V30 3169 C 305.419 -0.330644 2.31147 0
M  V30 3170 C 306.4 -1.00087 1.37538 0
M  V30 3171 O 307.585 -1.00025 1.66459 0
M  V30 3172 C 304.715 -1.41958 3.16962 0
M  V30 3173 C 303.669 -0.871608 4.19031 0
M  V30 3174 C 302.995 -2.05797 4.9351 0
M  V30 3175 C 304.295 0.109251 5.22186 0
M  V30 3176 H 305.989 0.340336 2.97459 0
M  V30 3177 H 303.535 0.165119 1.4305 0
M  V30 3178 H 305.488 -1.9798 3.71997 0
M  V30 3179 H 304.212 -2.11917 2.48513 0
M  V30 3180 H 302.871 -0.333442 3.6508 0
M  V30 3181 H 302.519 -2.74427 4.21544 0
M  V30 3182 H 302.219 -1.6976 5.62544 0
M  V30 3183 H 303.743 -2.62331 5.51375 0
M  V30 3184 H 305.157 -0.361405 5.7216 0
M  V30 3185 H 303.554 0.383316 5.98875 0
M  V30 3186 H 304.624 1.03887 4.73641 0
M  V30 3187 N 305.967 -1.56429 0.191757 0
M  V30 3188 C 306.93 -2.17707 -0.716688 0
M  V30 3189 C 307.93 -1.13061 -1.14341 0
M  V30 3190 O 309.12 -1.38464 -1.05704 0
M  V30 3191 C 306.252 -2.77644 -1.97804 0
M  V30 3192 H 307.445 -2.99342 -0.1829 0
M  V30 3193 H 304.998 -1.56193 -0.0578566 0
M  V30 3194 H 305.733 -1.99799 -2.55443 0
M  V30 3195 H 305.518 -3.54246 -1.68083 0
M  V30 3196 H 307.008 -3.24708 -2.62592 0
M  V30 3197 N 307.445 0.0818655 -1.57387 0
M  V30 3198 C 308.392 1.09834 -2.0299 0
M  V30 3199 C 309.362 1.39043 -0.908639 0
M  V30 3200 O 310.547 1.50282 -1.17559 0
M  V30 3201 C 307.687 2.40971 -2.47037 0
M  V30 3202 C 306.8 2.18379 -3.7274 0
M  V30 3203 C 305.935 3.43008 -4.0561 0
M  V30 3204 C 304.974 3.15736 -5.24383 0
M  V30 3205 N 304.111 4.32667 -5.52941 0
M  V30 3206 H 308.951 0.702472 -2.89602 0
M  V30 3207 H 306.488 0.33531 -1.43227 0
M  V30 3208 H 308.446 3.1752 -2.70623 0
M  V30 3209 H 307.076 2.78379 -1.63417 0
M  V30 3210 H 306.128 1.32569 -3.56552 0
M  V30 3211 H 307.44 1.94227 -4.59431 0
M  V30 3212 H 306.594 4.27958 -4.30043 0
M  V30 3213 H 305.333 3.70225 -3.17466 0
M  V30 3214 H 304.338 2.2918 -4.99757 0
M  V30 3215 H 305.563 2.8985 -6.14136 0
M  V30 3216 H 303.509 4.59935 -4.67756 0
M  V30 3217 H 303.426 4.11753 -6.34031 0
M  V30 3218 H 304.694 5.18644 -5.81918 0
M  V30 3219 N 308.923 1.53595 0.353017 0
M  V30 3220 C 310.339 1.43648 0.695516 0
M  V30 3221 C 310.539 0.585617 1.92802 0
M  V30 3222 O 309.595 0.0729223 2.52395 0
M  V30 3223 C 310.908 2.8701 0.896991 0
M  V30 3224 C 312.456 2.96723 0.996209 0
M  V30 3225 C 312.931 4.41173 1.23007 0
M  V30 3226 N 314.422 4.44657 1.29749 0
M  V30 3227 C 315.157 5.53547 1.49577 0
M  V30 3228 N 314.653 6.72461 1.66639 0
M  V30 3229 N 316.446 5.41145 1.52048 0
M  V30 3230 H 308.597 2.07415 -0.457481 0
M  V30 3231 H 310.86 0.9372 -0.142687 0
M  V30 3232 H 310.566 3.51644 0.0629938 0
M  V30 3233 H 310.44 3.31401 1.80148 0
M  V30 3234 H 312.827 2.32235 1.82074 0
M  V30 3235 H 312.908 2.55707 0.0688331 0
M  V30 3236 H 312.552 5.06238 0.410505 0
M  V30 3237 H 312.482 4.79772 2.17086 0
M  V30 3238 H 314.973 3.58963 1.18126 0
M  V30 3239 H 315.286 7.51214 1.81378 0
M  V30 3240 H 313.631 6.75423 1.63794 0
M  V30 3241 H 316.822 4.47205 1.38294 0
M  V30 3242 H 316.995 6.26068 1.67159 0
M  V30 3243 N 310.401 -0.613514 1.45168 0
M  V30 3244 C 311.311 -1.75296 1.55912 0
M  V30 3245 C 312.327 -1.68244 0.443856 0
M  V30 3246 O 313.503 -1.88706 0.70371 0
M  V30 3247 C 310.568 -3.1174 1.5172 0
M  V30 3248 C 309.629 -3.30291 2.74238 0
M  V30 3249 C 308.862 -4.60226 2.70236 0
M  V30 3250 O 309.085 -5.42168 1.77229 0
M  V30 3251 O 308.019 -4.81361 3.61352 0
M  V30 3252 H 311.845 -1.69183 2.52212 0
M  V30 3253 H 309.43 -0.776886 1.27612 0
M  V30 3254 H 311.312 -3.93044 1.51968 0
M  V30 3255 H 309.987 -3.18357 0.585697 0
M  V30 3256 H 308.894 -2.48598 2.79553 0
M  V30 3257 H 310.227 -3.28547 3.66494 0
M  V30 3258 N 311.879 -1.3236 -0.855495 0
M  V30 3259 C 312.826 -1.21225 -1.964 0
M  V30 3260 C 313.796 -0.0946204 -1.6583 0
M  V30 3261 O 314.981 -0.27002 -1.8888 0
M  V30 3262 C 312.121 -0.940419 -3.32039 0
M  V30 3263 C 311.234 -2.14276 -3.75113 0
M  V30 3264 C 310.369 -1.80648 -4.9954 0
M  V30 3265 C 309.408 -2.97208 -5.35102 0
M  V30 3266 N 308.545 -2.63678 -6.50706 0
M  V30 3267 H 313.385 -2.16042 -2.05255 0
M  V30 3268 H 310.922 -1.07451 -1.00463 0
M  V30 3269 H 312.88 -0.763311 -4.10158 0
M  V30 3270 H 311.51 -0.0290413 -3.22787 0
M  V30 3271 H 310.562 -2.43017 -2.92655 0
M  V30 3272 H 311.874 -3.01468 -3.97389 0
M  V30 3273 H 311.028 -1.59484 -5.85363 0
M  V30 3274 H 309.767 -0.906678 -4.79198 0
M  V30 3275 H 308.772 -3.19004 -4.47791 0
M  V30 3276 H 309.997 -3.87918 -5.57401 0
M  V30 3277 H 307.943 -1.76238 -6.31883 0
M  V30 3278 H 307.86 -3.444 -6.72997 0
M  V30 3279 H 309.128 -2.45942 -7.39684 0
M  V30 3280 N 313.357 1.07166 -1.15556 0
M  V30 3281 C 314.634 1.76546 -0.842069 0
M  V30 3282 C 315.014 2.00453 0.661939 0
M  V30 3283 O 314.362 1.62452 1.60691 0
M  V30 3284 C 314.572 3.07266 -1.65495 0
M  V30 3285 C 315.92 3.81578 -1.86234 0
M  V30 3286 O 316.944 3.17083 -1.62287 0
M  V30 3287 O 315.803 4.97419 -2.26355 0
M  V30 3288 H 312.897 0.766756 -0.309862 0
M  V30 3289 H 315.443 1.13514 -1.26145 0
M  V30 3290 H 314.215 2.85494 -2.67598 0
M  V30 3291 H 313.838 3.7803 -1.23203 0
M  V30 3292 N 314.835 0.952656 1.25548 0
M  V30 3293 C 316.112 0.523818 1.88456 0
M  V30 3294 C 316.492 -0.998871 1.85973 0
M  V30 3295 O 315.84 -1.86381 1.3219 0
M  V30 3296 C 316.05 1.0982 3.31271 0
M  V30 3297 C 317.398 1.17385 4.08051 0
M  V30 3298 O 318.422 1.04961 3.40384 0
M  V30 3299 O 317.281 1.36852 5.29088 0
M  V30 3300 H 314.375 0.172485 0.808813 0
M  V30 3301 H 316.921 1.04596 1.33633 0
M  V30 3302 H 315.693 2.1415 3.27499 0
M  V30 3303 H 315.316 0.559191 3.93648 0
M  V30 3304 N 316.313 -1.40141 0.720998 0
M  V30 3305 C 317.724 -1.83678 0.334553 0
M  V30 3306 C 318.075 -1.6027 -1.13173 0
M  V30 3307 O 317.2 -1.08643 -1.87152 0
M  V30 3308 C 317.795 -3.33437 0.600437 0
M  V30 3309 C 316.354 -3.75447 0.267642 0
M  V30 3310 C 315.501 -2.63296 0.870097 0
M  V30 3311 H 318.452 -1.29331 0.919732 0
M  V30 3312 H 318.473 -3.80269 -0.132517 0
M  V30 3313 H 317.985 -3.50442 1.66768 0
M  V30 3314 H 316.086 -3.64035 -0.794329 0
M  V30 3315 H 316.199 -4.73344 0.74042 0
M  V30 3316 H 314.563 -2.52954 0.297739 0
M  V30 3317 H 315.346 -2.83112 1.94172 0
M  V30 3318 N 317.792 -0.46758 -1.50504 0
M  V30 3319 C 318.724 0.364655 -2.26281 0
M  V30 3320 C 319.737 0.960151 -1.31472 0
M  V30 3321 O 320.926 0.849153 -1.57008 0
M  V30 3322 C 318.026 1.52509 -3.02645 0
M  V30 3323 C 317.199 1.04302 -4.24782 0
M  V30 3324 C 316.258 2.07709 -4.8347 0
M  V30 3325 O 315.284 1.65913 -5.44483 0
M  V30 3326 N 316.486 3.40485 -4.70159 0
M  V30 3327 H 319.251 -0.28495 -2.98342 0
M  V30 3328 H 316.812 -0.298163 -1.59131 0
M  V30 3329 H 318.804 2.21371 -3.38787 0
M  V30 3330 H 317.374 2.07945 -2.33404 0
M  V30 3331 H 316.594 0.180393 -3.93787 0
M  V30 3332 H 317.882 0.698798 -5.03978 0
M  V30 3333 H 317.28 3.77155 -4.21629 0
M  V30 3334 H 315.837 4.05156 -5.1058 0
M  V30 3335 N 319.27 1.56325 -0.20005 0
M  V30 3336 C 320.218 2.20666 0.735482 0
M  V30 3337 C 321.212 1.17934 1.21605 0
M  V30 3338 O 322.418 1.36068 1.17837 0
M  V30 3339 H 318.793 0.70725 0.255542 0
M  V30 3340 H 320.764 2.9792 0.169166 0
M  V30 3341 C 319.513 2.88391 1.94232 0
M  V30 3342 H 318.836 3.67185 1.58161 0
M  V30 3343 H 320.276 3.3684 2.57517 0
M  V30 3344 C 318.735 1.89692 2.78421 0
M  V30 3345 O 319.265 1.40032 3.76502 0
M  V30 3346 N 317.471 1.57813 2.44015 0
M  V30 3347 H 317.018 1.9839 1.64314 0
M  V30 3348 H 316.976 0.920325 3.00628 0
M  V30 3349 N 320.748 -0.0735177 1.57428 0
M  V30 3350 C 321.973 -0.789787 1.91774 0
M  V30 3351 C 322.398 -1.70413 0.796306 0
M  V30 3352 O 321.756 -1.79555 -0.250961 0
M  V30 3353 C 321.804 -1.5609 3.25067 0
M  V30 3354 O 320.908 -2.67144 3.14178 0
M  V30 3355 H 320.249 -0.215582 0.628029 0
M  V30 3356 H 322.779 -0.0422781 2.04556 0
M  V30 3357 H 322.789 -1.94052 3.58898 0
M  V30 3358 H 321.464 -0.890015 4.06265 0
M  V30 3359 H 320.041 -2.32052 2.91901 0
M  V30 3360 N 322.226 -1.5378 -0.344866 0
M  V30 3361 C 323.454 -1.74899 -1.10534 0
M  V30 3362 C 323.869 -0.487534 -1.82397 0
M  V30 3363 O 323.226 0.540741 -1.74305 0
M  V30 3364 C 323.277 -2.92822 -2.11984 0
M  V30 3365 O 322.998 -4.14089 -1.43044 0
M  V30 3366 C 324.499 -3.25982 -3.00417 0
M  V30 3367 H 321.719 -0.584426 -0.329678 0
M  V30 3368 H 324.263 -2.006 -0.397474 0
M  V30 3369 H 322.418 -2.69457 -2.78338 0
M  V30 3370 H 322.832 -4.80272 -2.10805 0
M  V30 3371 H 324.306 -4.11848 -3.67539 0
M  V30 3372 H 324.783 -2.42228 -3.66363 0
M  V30 3373 H 325.389 -3.51349 -2.39654 0
M  V30 3374 N 323.704 0.605807 -1.45491 0
M  V30 3375 C 324.932 1.39136 -1.5313 0
M  V30 3376 C 325.347 1.88082 -0.164507 0
M  V30 3377 O 324.704 1.62316 0.834247 0
M  V30 3378 C 324.755 2.59463 -2.51716 0
M  V30 3379 O 324.476 2.12551 -3.83084 0
M  V30 3380 C 325.977 3.52301 -2.6907 0
M  V30 3381 H 323.197 0.425849 -0.51855 0
M  V30 3382 H 325.741 0.73865 -1.90694 0
M  V30 3383 H 323.896 3.20772 -2.17219 0
M  V30 3384 H 324.31 2.90744 -4.36541 0
M  V30 3385 H 325.784 4.33271 -3.42024 0
M  V30 3386 H 326.261 4.02757 -1.75167 0
M  V30 3387 H 326.867 2.96845 -3.04571 0
M  V30 3388 N 325.182 1.32811 0.848464 0
M  V30 3389 C 326.41 1.26739 1.63538 0
M  V30 3390 C 326.825 -0.163484 1.88091 0
M  V30 3391 O 326.182 -1.10258 1.45429 0
M  V30 3392 C 326.233 2.03013 2.99112 0
M  V30 3393 O 325.954 3.40518 2.75643 0
M  V30 3394 C 327.455 2.04038 3.93552 0
M  V30 3395 H 324.675 0.437024 0.509167 0
M  V30 3396 H 327.219 1.75033 1.05753 0
M  V30 3397 H 325.374 1.58426 3.53525 0
M  V30 3398 H 325.788 3.79635 3.61908 0
M  V30 3399 H 327.262 2.61877 4.85926 0
M  V30 3400 H 327.739 1.0282 4.26995 0
M  V30 3401 H 328.345 2.486 3.45077 0
M  V30 3402 N 326.66 -1.06551 1.16123 0
M  V30 3403 C 327.937 -1.76097 0.85142 0
M  V30 3404 C 328.317 -2.00802 -0.6513 0
M  V30 3405 O 327.665 -1.63302 -1.59827 0
M  V30 3406 C 327.875 -3.06384 1.67122 0
M  V30 3407 C 329.223 -3.80585 1.88255 0
M  V30 3408 O 330.247 -3.16218 1.63966 0
M  V30 3409 O 329.106 -4.96212 2.2899 0
M  V30 3410 H 326.2 -0.765102 0.313923 0
M  V30 3411 H 328.746 -1.12844 1.26745 0
M  V30 3412 H 327.518 -2.84071 2.69108 0
M  V30 3413 H 327.141 -3.77371 1.25206 0
M  V30 3414 N 328.138 -0.959301 -1.25041 0
M  V30 3415 C 329.366 -0.633949 -1.96948 0
M  V30 3416 C 329.781 0.794916 -1.7125 0
M  V30 3417 O 329.138 1.53231 -0.991287 0
M  V30 3418 C 329.189 -0.888805 -3.50403 0
M  V30 3419 O 328.91 -2.26149 -3.75218 0
M  V30 3420 C 330.411 -0.576482 -4.39536 0
M  V30 3421 H 327.631 -0.237263 -0.627652 0
M  V30 3422 H 330.175 -1.28495 -1.59089 0
M  V30 3423 H 328.33 -0.284145 -3.86357 0
M  V30 3424 H 328.744 -2.33514 -4.6965 0
M  V30 3425 H 330.218 -0.805314 -5.46094 0
M  V30 3426 H 330.695 0.489075 -4.36468 0
M  V30 3427 H 331.301 -1.16067 -4.09156 0
M  V30 3428 N 329.616 1.39756 -0.72842 0
M  V30 3429 C 330.864 2.00248 -0.272946 0
M  V30 3430 C 331.185 1.58077 1.14178 0
M  V30 3431 O 330.455 0.826014 1.77634 0
M  V30 3432 H 329.035 0.740554 -0.0979247 0
M  V30 3433 H 331.697 1.70903 -0.936912 0
M  V30 3434 H 330.793 3.10495 -0.316142 0
M  V30 3435 N 331.094 0.475555 1.50254 0
M  V30 3436 C 332.004 -0.321501 2.32387 0
M  V30 3437 C 333.02 -0.991755 1.42969 0
M  V30 3438 O 334.196 -0.978747 1.76018 0
M  V30 3439 C 331.261 -1.38667 3.17762 0
M  V30 3440 C 330.322 -0.732538 4.23004 0
M  V30 3441 C 329.555 -1.74695 5.04299 0
M  V30 3442 O 329.778 -2.97399 4.86734 0
M  V30 3443 O 328.712 -1.31631 5.8733 0
M  V30 3444 H 332.538 0.350071 3.01676 0
M  V30 3445 H 330.123 0.237321 1.47503 0
M  V30 3446 H 332.005 -2.00354 3.70724 0
M  V30 3447 H 330.68 -2.04163 2.51196 0
M  V30 3448 H 329.587 -0.0765902 3.74022 0
M  V30 3449 H 330.92 -0.120452 4.92053 0
M  V30 3450 N 332.573 -1.56217 0.208337 0
M  V30 3451 C 333.801 -2.02337 -0.43215 0
M  V30 3452 C 334.216 -1.08834 -1.54275 0
M  V30 3453 O 333.573 -0.0955462 -1.8225 0
M  V30 3454 C 333.624 -3.48072 -0.976138 0
M  V30 3455 O 333.345 -4.38007 0.0901621 0
M  V30 3456 C 334.846 -4.09773 -1.69119 0
M  V30 3457 H 332.066 -0.662385 -0.10718 0
M  V30 3458 H 334.61 -2.01966 0.320923 0
M  V30 3459 H 332.765 -3.49099 -1.67954 0
M  V30 3460 H 333.179 -5.23543 -0.316701 0
M  V30 3461 H 334.653 -5.13556 -2.02397 0
M  V30 3462 H 335.13 -3.53999 -2.59964 0
M  V30 3463 H 335.736 -4.12556 -1.03332 0
M  V30 3464 N 334.051 0.0651679 -1.57465 0
M  V30 3465 C 335.462 0.616213 -1.76238 0
M  V30 3466 C 335.813 1.7756 -0.834689 0
M  V30 3467 O 334.938 2.1639 -0.0204156 0
M  V30 3468 C 335.533 1.12462 -3.1959 0
M  V30 3469 C 334.092 1.62147 -3.39684 0
M  V30 3470 C 333.239 0.543739 -2.71917 0
M  V30 3471 H 336.19 -0.161022 -1.57881 0
M  V30 3472 H 336.211 1.99324 -3.24114 0
M  V30 3473 H 335.723 0.280592 -3.87084 0
M  V30 3474 H 333.824 2.48854 -2.77313 0
M  V30 3475 H 333.937 1.69385 -4.48158 0
M  V30 3476 H 332.301 0.990352 -2.34657 0
M  V30 3477 H 333.084 -0.290216 -3.42071 0
M  V30 3478 N 335.529 1.53961 0.336706 0
M  V30 3479 C 336.945 1.44378 0.680241 0
M  V30 3480 C 337.145 0.606034 1.9217 0
M  V30 3481 O 336.201 0.099688 2.52303 0
M  V30 3482 C 337.514 2.87945 0.8665 0
M  V30 3483 C 339.062 2.97763 0.964682 0
M  V30 3484 C 339.537 4.42453 1.18321 0
M  V30 3485 N 341.028 4.46008 1.25025 0
M  V30 3486 C 341.763 5.55102 1.43697 0
M  V30 3487 N 341.259 6.7419 1.59498 0
M  V30 3488 N 343.052 5.42727 1.463 0
M  V30 3489 H 335.203 2.06918 -0.479455 0
M  V30 3490 H 337.466 0.935634 -0.152619 0
M  V30 3491 H 337.172 3.51691 0.0256937 0
M  V30 3492 H 337.046 3.33293 1.76623 0
M  V30 3493 H 339.433 2.34153 1.796 0
M  V30 3494 H 339.514 2.55766 0.041708 0
M  V30 3495 H 339.158 5.06645 0.356788 0
M  V30 3496 H 339.088 4.82048 2.11985 0
M  V30 3497 H 341.579 3.60196 1.14312 0
M  V30 3498 H 341.892 7.53095 1.734 0
M  V30 3499 H 340.237 6.77123 1.56621 0
M  V30 3500 H 343.428 4.48647 1.33543 0
M  V30 3501 H 343.601 6.27806 1.6051 0
M  V30 3502 N 337.007 -0.598083 1.45811 0
M  V30 3503 C 338.256 -1.35295 1.49594 0
M  V30 3504 C 338.569 -1.95057 0.145679 0
M  V30 3505 O 339.775 -2.71431 0.0612099 0
M  V30 3506 C 338.231 -2.45124 2.63519 0
M  V30 3507 C 337.839 -1.91732 4.04899 0
M  V30 3508 C 339.583 -3.2205 2.76558 0
M  V30 3509 C 337.49 -2.991 5.1019 0
M  V30 3510 H 336.42 -0.508552 0.556679 0
M  V30 3511 H 339.071 -0.639977 1.71978 0
M  V30 3512 H 337.453 -3.19149 2.34435 0
M  V30 3513 H 338.627 -1.24352 4.43704 0
M  V30 3514 H 336.942 -1.27522 3.96393 0
M  V30 3515 H 339.539 -4.0215 3.52391 0
M  V30 3516 H 339.882 -3.73663 1.83526 0
M  V30 3517 H 340.415 -2.55127 3.05213 0
M  V30 3518 H 337.154 -2.52393 6.04961 0
M  V30 3519 H 336.674 -3.65017 4.75944 0
M  V30 3520 H 338.353 -3.63318 5.35359 0
M  V30 3521 N 338.485 -1.33259 -0.841409 0
M  V30 3522 C 339.395 -1.25332 -1.98316 0
M  V30 3523 C 340.411 -0.164364 -1.73222 0
M  V30 3524 O 341.587 -0.387486 -1.97637 0
M  V30 3525 C 338.652 -0.990078 -3.32262 0
M  V30 3526 C 337.713 -2.16879 -3.70489 0
M  V30 3527 C 336.946 -1.91801 -4.98044 0
M  V30 3528 O 337.169 -0.867075 -5.63771 0
M  V30 3529 O 336.103 -2.78267 -5.33714 0
M  V30 3530 H 339.929 -2.21344 -2.07944 0
M  V30 3531 H 337.514 -1.1328 -0.974058 0
M  V30 3532 H 339.396 -0.860321 -4.12524 0
M  V30 3533 H 338.071 -0.0602155 -3.23644 0
M  V30 3534 H 336.978 -2.35407 -2.90748 0
M  V30 3535 H 338.311 -3.0819 -3.8377 0
M  V30 3536 N 339.963 1.05934 -1.16686 0
M  V30 3537 C 341.211 1.78447 -0.948744 0
M  V30 3538 C 341.532 1.87813 0.524523 0
M  V30 3539 O 340.802 1.38945 1.38098 0
M  V30 3540 H 339.382 0.660971 -0.348033 0
M  V30 3541 H 342.044 1.27947 -1.47022 0
M  V30 3542 H 341.14 2.80394 -1.37061 0
M  V30 3543 N 341.441 0.965919 1.2453 0
M  V30 3544 C 342.688 0.626831 1.92554 0
M  V30 3545 C 343.016 -0.837739 1.75534 0
M  V30 3546 O 342.271 -1.61793 1.10098 0
M  V30 3547 C 342.57 0.945428 3.44669 0
M  V30 3548 C 342.236 2.39785 3.81856 0
M  V30 3549 C 340.898 2.79483 3.91718 0
M  V30 3550 C 343.25 3.34055 4.00071 0
M  V30 3551 C 340.578 4.12496 4.1721 0
M  V30 3552 C 342.93 4.66694 4.27059 0
M  V30 3553 C 341.594 5.06172 4.3514 0
M  V30 3554 H 340.864 0.229374 0.704605 0
M  V30 3555 H 343.511 1.21707 1.4785 0
M  V30 3556 H 341.816 0.272926 3.90848 0
M  V30 3557 H 343.513 0.661484 3.95507 0
M  V30 3558 H 340.103 2.08003 3.74743 0
M  V30 3559 H 344.287 3.04571 3.91855 0
M  V30 3560 H 339.543 4.42709 4.21685 0
M  V30 3561 H 343.717 5.3971 4.40097 0
M  V30 3562 H 341.344 6.09262 4.54646 0
M  V30 3563 N 342.919 -1.39368 0.735821 0
M  V30 3564 C 344.144 -2.05319 0.293052 0
M  V30 3565 C 344.569 -1.55115 -1.064 0
M  V30 3566 O 343.927 -0.695261 -1.67439 0
M  V30 3567 C 343.975 -3.59305 0.305323 0
M  V30 3568 O 343.079 -4.06299 -0.706761 0
M  V30 3569 H 342.42 -0.650529 0.13307 0
M  V30 3570 H 344.95 -1.78386 1.00197 0
M  V30 3571 H 344.96 -4.07724 0.149997 0
M  V30 3572 H 343.635 -3.95207 1.29553 0
M  V30 3573 H 342.212 -3.69292 -0.517504 0
M  V30 3574 N 344.397 -0.483516 -1.5 0
M  V30 3575 C 345.622 0.0667119 -2.07293 0
M  V30 3576 C 346.047 1.3164 -1.3436 0
M  V30 3577 O 345.405 1.76945 -0.394987 0
M  V30 3578 C 345.453 0.321126 -3.59167 0
M  V30 3579 O 344.557 1.39927 -3.87936 0
M  V30 3580 H 343.898 -0.0184758 -0.663743 0
M  V30 3581 H 346.428 -0.678125 -1.93035 0
M  V30 3582 H 346.438 0.557906 -4.04168 0
M  V30 3583 H 345.113 -0.592007 -4.11665 0
M  V30 3584 H 343.69 1.14882 -3.54763 0
M  V30 3585 N 345.875 1.56104 -0.216619 0
M  V30 3586 C 347.291 1.58995 0.13886 0
M  V30 3587 C 347.491 1.23333 1.59346 0
M  V30 3588 O 346.547 0.966234 2.33281 0
M  V30 3589 C 347.86 3.00143 -0.182968 0
M  V30 3590 C 349.408 3.12751 -0.124807 0
M  V30 3591 C 349.883 4.56068 -0.420241 0
M  V30 3592 N 351.374 4.61723 -0.369634 0
M  V30 3593 C 352.109 5.70542 -0.571789 0
M  V30 3594 N 351.605 6.87744 -0.835453 0
M  V30 3595 N 353.398 5.59831 -0.504563 0
M  V30 3596 H 345.549 1.77562 -1.16557 0
M  V30 3597 H 347.812 0.825091 -0.466828 0
M  V30 3598 H 347.518 3.30871 -1.19237 0
M  V30 3599 H 347.392 3.73813 0.504367 0
M  V30 3600 H 349.779 2.81822 0.875223 0
M  V30 3601 H 349.86 2.41421 -0.845544 0
M  V30 3602 H 349.504 4.87713 -1.41769 0
M  V30 3603 H 349.434 5.25617 0.321631 0
M  V30 3604 H 351.925 3.77502 -0.173338 0
M  V30 3605 H 352.238 7.66587 -0.977938 0
M  V30 3606 H 350.583 6.895 -0.872592 0
M  V30 3607 H 353.774 4.67145 -0.298842 0
M  V30 3608 H 353.947 6.44573 -0.665519 0
M  V30 3609 N 347.353 -0.0568162 1.57498 0
M  V30 3610 C 348.63 -0.786954 1.79071 0
M  V30 3611 C 349.01 -1.95028 0.80792 0
M  V30 3612 O 348.358 -2.27968 -0.155858 0
M  V30 3613 C 348.568 -1.24594 3.26002 0
M  V30 3614 C 349.916 -1.67323 3.90241 0
M  V30 3615 O 350.94 -1.34124 3.29984 0
M  V30 3616 O 349.799 -2.28842 4.9628 0
M  V30 3617 H 346.893 -0.378262 0.735423 0
M  V30 3618 H 349.439 -0.035734 1.69662 0
M  V30 3619 H 348.211 -0.41423 3.89101 0
M  V30 3620 H 347.834 -2.05803 3.40192 0
M  V30 3621 N 348.832 -1.54138 -0.328536 0
M  V30 3622 C 350.08 -1.71765 -1.06496 0
M  V30 3623 C 350.401 -0.49149 -1.88704 0
M  V30 3624 O 349.671 0.494539 -1.89555 0
M  V30 3625 H 348.251 -0.633295 -0.396164 0
M  V30 3626 H 350.913 -1.91429 -0.366176 0
M  V30 3627 H 350.009 -2.5951 -1.73381 0
M  V30 3628 N 350.31 0.590341 -1.46126 0
M  V30 3629 C 351.258 1.72105 -1.5647 0
M  V30 3630 C 352.252 1.63756 -0.433612 0
M  V30 3631 O 353.458 1.69342 -0.610194 0
M  V30 3632 H 349.833 0.568889 -0.491802 0
M  V30 3633 H 351.804 1.6051 -2.51553 0
M  V30 3634 C 350.553 3.10493 -1.56491 0
M  V30 3635 H 349.876 3.17583 -2.4286 0
M  V30 3636 H 351.316 3.8939 -1.67785 0
M  V30 3637 C 349.775 3.3563 -0.292231 0
M  V30 3638 O 350.305 3.96875 0.620739 0
M  V30 3639 N 348.511 2.90026 -0.182523 0
M  V30 3640 H 348.058 2.40367 -0.926356 0
M  V30 3641 H 348.016 3.07218 0.668152 0
M  V30 3642 N 351.788 1.33704 0.83433 0
M  V30 3643 C 353.034 1.25603 1.59222 0
M  V30 3644 C 353.367 -0.176659 1.93395 0
M  V30 3645 O 352.642 -1.11915 1.59076 0
M  V30 3646 C 352.925 2.13576 2.89926 0
M  V30 3647 C 352.778 3.65326 2.62406 0
M  V30 3648 C 354.097 2.01238 3.91397 0
M  V30 3649 H 351.216 0.457613 0.577719 0
M  V30 3650 H 353.858 1.63848 0.961972 0
M  V30 3651 H 352.008 1.8109 3.43713 0
M  V30 3652 H 353.68 4.08124 2.15017 0
M  V30 3653 H 351.923 3.8698 1.96033 0
M  V30 3654 H 352.594 4.22232 3.55562 0
M  V30 3655 H 355.07 2.29738 3.46929 0
M  V30 3656 H 353.946 2.65036 4.80673 0
M  V30 3657 H 354.207 0.985951 4.30966 0
M  V30 3658 N 353.266 -1.05314 1.17247 0
M  V30 3659 C 354.176 -2.16538 0.90268 0
M  V30 3660 C 355.192 -1.73523 -0.128707 0
M  V30 3661 O 356.368 -2.01337 0.0502701 0
M  V30 3662 C 353.433 -3.44167 0.418356 0
M  V30 3663 C 352.494 -4.01635 1.51618 0
M  V30 3664 C 351.727 -5.23171 1.05487 0
M  V30 3665 O 351.95 -5.70327 -0.0914715 0
M  V30 3666 O 350.884 -5.72848 1.8474 0
M  V30 3667 H 354.71 -2.42145 1.83302 0
M  V30 3668 H 352.295 -1.15037 0.953246 0
M  V30 3669 H 354.177 -4.21112 0.155726 0
M  V30 3670 H 352.852 -3.20063 -0.48385 0
M  V30 3671 H 351.759 -3.26135 1.83268 0
M  V30 3672 H 353.092 -4.30053 2.39405 0
M  V30 3673 N 354.744 -0.972509 -1.24016 0
M  V30 3674 C 355.991 -0.637034 -1.92219 0
M  V30 3675 C 356.319 0.828418 -1.75976 0
M  V30 3676 O 355.574 1.61206 -1.10955 0
M  V30 3677 C 355.873 -0.963694 -3.44162 0
M  V30 3678 C 355.539 -2.41807 -3.80579 0
M  V30 3679 C 354.201 -2.81556 -3.9023 0
M  V30 3680 C 356.553 -3.36172 -3.98293 0
M  V30 3681 C 353.881 -4.14702 -4.15017 0
M  V30 3682 C 356.233 -4.68952 -4.24578 0
M  V30 3683 C 354.897 -5.08472 -4.32449 0
M  V30 3684 H 354.167 -0.233107 -0.703379 0
M  V30 3685 H 356.814 -1.2249 -1.47202 0
M  V30 3686 H 355.119 -0.29365 -3.90698 0
M  V30 3687 H 356.816 -0.682449 -3.9515 0
M  V30 3688 H 353.406 -2.09988 -3.73635 0
M  V30 3689 H 357.59 -3.06644 -3.90234 0
M  V30 3690 H 352.846 -4.4494 -4.19331 0
M  V30 3691 H 357.02 -5.42037 -4.37229 0
M  V30 3692 H 354.647 -6.11665 -4.51409 0
M  V30 3693 N 356.222 1.38976 -0.743202 0
M  V30 3694 C 357.185 2.28901 -0.117014 0
M  V30 3695 C 358.185 1.46698 0.658503 0
M  V30 3696 O 359.375 1.67274 0.486305 0
M  V30 3697 C 356.507 3.30309 0.84315 0
M  V30 3698 H 357.7 2.8578 -0.909373 0
M  V30 3699 H 355.253 1.47761 -0.509547 0
M  V30 3700 H 355.988 2.785 1.66157 0
M  V30 3701 H 355.773 3.91029 0.289594 0
M  V30 3702 H 357.263 3.97577 1.2776 0
M  V30 3703 N 357.7 0.491464 1.49741 0
M  V30 3704 C 358.946 -0.0485431 2.03342 0
M  V30 3705 C 359.301 -1.35566 1.36527 0
M  V30 3706 O 358.594 -1.85262 0.488729 0
M  V30 3707 C 358.788 -0.267329 3.56399 0
M  V30 3708 C 358.617 1.01703 4.38049 0
M  V30 3709 C 357.387 1.56614 4.80417 0
M  V30 3710 C 359.585 1.91782 4.77204 0
M  V30 3711 N 357.567 2.7974 5.4646 0
M  V30 3712 C 358.938 2.99489 5.42868 0
M  V30 3713 C 360.993 1.92575 4.5915 0
M  V30 3714 C 359.696 4.08005 5.92389 0
M  V30 3715 C 361.722 3.0006 5.09626 0
M  V30 3716 C 361.084 4.06485 5.75282 0
M  V30 3717 H 357.183 0.0227779 0.781668 0
M  V30 3718 H 359.767 0.664204 1.8302 0
M  V30 3719 H 357.938 -0.949126 3.76625 0
M  V30 3720 H 359.67 -0.803492 3.96644 0
M  V30 3721 H 356.425 1.11256 4.60347 0
M  V30 3722 H 356.849 3.42323 5.84075 0
M  V30 3723 H 361.491 1.11605 4.07804 0
M  V30 3724 H 359.209 4.89779 6.42761 0
M  V30 3725 H 362.795 3.01681 4.97473 0
M  V30 3726 H 361.675 4.88287 6.13633 0
M  V30 3727 N 359.178 -1.55987 0.224894 0
M  V30 3728 C 360.406 -2.02784 -0.410665 0
M  V30 3729 C 360.821 -1.10464 -1.53112 0
M  V30 3730 O 360.178 -0.114871 -1.82138 0
M  V30 3731 C 360.229 -3.49087 -0.939165 0
M  V30 3732 O 359.95 -4.37887 0.136614 0
M  V30 3733 C 361.451 -4.11543 -1.64763 0
M  V30 3734 H 358.671 -0.663484 -0.100148 0
M  V30 3735 H 361.215 -2.01614 0.342326 0
M  V30 3736 H 359.37 -3.50861 -1.64242 0
M  V30 3737 H 359.784 -5.23849 -0.261155 0
M  V30 3738 H 361.258 -5.15673 -1.96939 0
M  V30 3739 H 361.735 -3.56736 -2.56195 0
M  V30 3740 H 362.341 -4.13629 -0.989503 0
M  V30 3741 N 360.656 0.0484629 -1.57525 0
M  V30 3742 C 362.067 0.597486 -1.76881 0
M  V30 3743 C 362.418 1.76664 -0.853475 0
M  V30 3744 O 361.543 2.16357 -0.0433656 0
M  V30 3745 C 362.138 1.09066 -3.20765 0
M  V30 3746 C 360.697 1.58535 -3.41385 0
M  V30 3747 C 359.844 0.514868 -2.72478 0
M  V30 3748 H 362.795 -0.177758 -1.57701 0
M  V30 3749 H 362.816 1.95875 -3.2621 0
M  V30 3750 H 362.328 0.239521 -3.8736 0
M  V30 3751 H 360.429 2.45898 -2.79937 0
M  V30 3752 H 360.542 1.64622 -4.49929 0
M  V30 3753 H 358.906 0.965407 -2.35695 0
M  V30 3754 H 359.689 -0.32648 -3.41744 0
M  V30 3755 N 362.134 1.5431 0.320358 0
M  V30 3756 C 363.082 1.84647 1.4145 0
M  V30 3757 C 364.076 0.718624 1.53402 0
M  V30 3758 O 365.282 0.902335 1.5575 0
M  V30 3759 H 361.657 0.585349 0.472091 0
M  V30 3760 H 363.628 2.7614 1.13089 0
M  V30 3761 C 362.377 2.09341 2.77617 0
M  V30 3762 H 361.7 2.9559 2.69196 0
M  V30 3763 H 363.14 2.3452 3.53237 0
M  V30 3764 C 361.599 0.885939 3.25043 0
M  V30 3765 O 362.129 0.0967891 4.01583 0
M  V30 3766 N 360.335 0.696682 2.82125 0
M  V30 3767 H 359.882 1.34006 2.2 0
M  V30 3768 H 359.84 -0.109712 3.14209 0
M  V30 3769 N 363.613 -0.582584 1.46437 0
M  V30 3770 C 364.545 -1.70618 1.53043 0
M  V30 3771 C 365.558 -1.57322 0.418769 0
M  V30 3772 O 366.747 -1.64744 0.687136 0
M  V30 3773 C 363.847 -3.08869 1.39474 0
M  V30 3774 C 363.02 -3.48166 2.64762 0
M  V30 3775 C 362.079 -4.65478 2.4539 0
M  V30 3776 O 361.105 -4.71333 3.19114 0
M  V30 3777 N 362.307 -5.60365 1.51564 0
M  V30 3778 H 365.072 -1.65405 2.49923 0
M  V30 3779 H 362.633 -0.768567 1.42494 0
M  V30 3780 H 364.625 -3.85143 1.24287 0
M  V30 3781 H 363.195 -3.08449 0.507758 0
M  V30 3782 H 362.415 -2.61598 2.9489 0
M  V30 3783 H 363.703 -3.71188 3.4799 0
M  V30 3784 H 363.101 -5.5837 0.907705 0
M  V30 3785 H 361.658 -6.36068 1.4234 0
M  V30 3786 N 365.091 -1.34144 -0.827227 0
M  V30 3787 C 366.039 -1.25364 -1.95925 0
M  V30 3788 C 367.033 -0.152608 -1.68711 0
M  V30 3789 O 368.239 -0.317311 -1.77181 0
M  V30 3790 H 364.614 -0.389342 -0.643364 0
M  V30 3791 H 366.585 -2.21045 -2.00454 0
M  V30 3792 C 365.334 -1.02158 -3.32354 0
M  V30 3793 H 364.657 -1.86111 -3.5384 0
M  V30 3794 H 366.097 -1.00048 -4.12027 0
M  V30 3795 C 364.556 0.275244 -3.35774 0
M  V30 3796 O 365.086 1.27806 -3.80826 0
M  V30 3797 N 363.292 0.306853 -2.88975 0
M  V30 3798 H 362.839 -0.509777 -2.52506 0
M  V30 3799 H 362.797 1.17432 -2.91646 0
M  V30 3800 N 366.569 1.04691 -1.17803 0
M  V30 3801 C 367.519 2.10856 -0.867391 0
M  V30 3802 C 368.503 1.601 0.160206 0
M  V30 3803 O 369.695 1.76948 -0.042947 0
M  V30 3804 C 366.824 3.411 -0.388012 0
M  V30 3805 C 365.91 3.9864 -1.44732 0
M  V30 3806 N 366.301 4.30075 -2.66212 0
M  V30 3807 C 364.599 4.26439 -1.30637 0
M  V30 3808 C 365.3 4.76033 -3.34317 0
M  V30 3809 N 364.276 4.76462 -2.61696 0
M  V30 3810 H 368.078 2.33029 -1.79094 0
M  V30 3811 H 365.592 1.22386 -1.0675 0
M  V30 3812 H 367.589 4.16641 -0.146994 0
M  V30 3813 H 366.249 3.20357 0.529271 0
M  V30 3814 H 367.26 4.19917 -3.03134 0
M  V30 3815 H 363.937 4.15056 -0.451129 0
M  V30 3816 H 365.327 5.09427 -4.38103 0
M  V30 3817 N 368.047 0.979072 1.23499 0
M  V30 3818 C 369.324 0.563674 1.87302 0
M  V30 3819 C 369.704 -0.959199 1.88049 0
M  V30 3820 O 369.052 -1.83535 1.36114 0
M  V30 3821 C 369.262 1.16822 3.28867 0
M  V30 3822 C 370.61 1.26014 4.0547 0
M  V30 3823 O 371.634 1.12158 3.38082 0
M  V30 3824 O 370.493 1.48044 5.26066 0
M  V30 3825 H 367.587 0.189602 0.804972 0
M  V30 3826 H 370.133 1.07407 1.31384 0
M  V30 3827 H 368.905 2.21049 3.22883 0
M  V30 3828 H 368.528 0.642564 3.92373 0
M  V30 3829 N 369.525 -1.3858 0.750561 0
M  V30 3830 C 370.772 -2.00184 0.305373 0
M  V30 3831 C 371.1 -1.59575 -1.11203 0
M  V30 3832 O 370.355 -0.823236 -1.77542 0
M  V30 3833 C 370.654 -3.55455 0.372373 0
M  V30 3834 C 370.32 -4.15765 1.745 0
M  V30 3835 C 368.982 -4.31951 2.12065 0
M  V30 3836 C 371.334 -4.49067 2.64553 0
M  V30 3837 C 368.662 -4.78734 3.39162 0
M  V30 3838 C 371.014 -4.97265 3.91038 0
M  V30 3839 C 369.678 -5.11658 4.28676 0
M  V30 3840 H 368.948 -0.732526 0.111744 0
M  V30 3841 H 371.595 -1.65673 0.960451 0
M  V30 3842 H 369.9 -3.90084 -0.366272 0
M  V30 3843 H 371.597 -4.00999 0.00953918 0
M  V30 3844 H 368.187 -4.03579 1.44297 0
M  V30 3845 H 372.371 -4.36166 2.36796 0
M  V30 3846 H 367.627 -4.88062 3.68246 0
M  V30 3847 H 371.801 -5.22003 4.60962 0
M  V30 3848 H 369.428 -5.47668 5.27222 0
M  V30 3849 N 371.003 -0.499398 -1.49478 0
M  V30 3850 C 372.231 0.0425456 -2.06856 0
M  V30 3851 C 372.646 1.30964 -1.35992 0
M  V30 3852 O 372.003 1.77172 -0.437762 0
M  V30 3853 C 372.054 0.301735 -3.60239 0
M  V30 3854 O 371.775 -0.915127 -4.28436 0
M  V30 3855 C 373.276 0.887499 -4.34325 0
M  V30 3856 H 370.496 -0.0197482 -0.670709 0
M  V30 3857 H 373.04 -0.696297 -1.92281 0
M  V30 3858 H 371.195 0.990556 -3.74522 0
M  V30 3859 H 371.609 -0.676993 -5.20113 0
M  V30 3860 H 373.083 1.01845 -5.42523 0
M  V30 3861 H 373.56 1.88488 -3.96698 0
M  V30 3862 H 374.166 0.236196 -4.24644 0
M  V30 3863 N 372.481 1.55866 -0.233164 0
M  V30 3864 C 373.444 2.1953 0.658715 0
M  V30 3865 C 374.444 1.16053 1.11303 0
M  V30 3866 O 375.634 1.41218 1.01996 0
M  V30 3867 C 372.766 2.82791 1.90373 0
M  V30 3868 H 373.959 2.99721 0.10347 0
M  V30 3869 H 371.512 1.56291 0.0164245 0
M  V30 3870 H 372.247 2.06501 2.50056 0
M  V30 3871 H 372.032 3.58578 1.58632 0
M  V30 3872 H 373.522 3.31556 2.53891 0
M  V30 3873 N 373.959 -0.0401083 1.57549 0
M  V30 3874 C 375.207 -0.731677 1.8839 0
M  V30 3875 C 375.528 -1.76481 0.829425 0
M  V30 3876 O 374.798 -1.95411 -0.1383 0
M  V30 3877 H 373.378 -0.273225 0.695239 0
M  V30 3878 H 376.04 -0.00867725 1.94898 0
M  V30 3879 H 375.136 -1.22816 2.86919 0
M  V30 3880 N 375.437 -1.54477 -0.31217 0
M  V30 3881 C 376.667 -1.76948 -1.06645 0
M  V30 3882 C 377.075 -0.523593 -1.81811 0
M  V30 3883 O 376.418 0.51578 -1.76311 0
M  V30 3884 C 376.48 -2.91668 -2.10166 0
M  V30 3885 C 376.144 -4.30165 -1.54296 0
M  V30 3886 C 377.141 -5.10603 -0.978793 0
M  V30 3887 C 374.826 -4.76738 -1.58196 0
M  V30 3888 C 376.82 -6.3573 -0.461048 0
M  V30 3889 C 374.507 -6.01831 -1.06034 0
M  V30 3890 C 375.505 -6.81161 -0.500844 0
M  V30 3891 O 375.193 -8.03899 0.0128958 0
M  V30 3892 H 374.925 -0.594088 -0.322546 0
M  V30 3893 H 377.479 -2.02213 -0.360441 0
M  V30 3894 H 375.709 -2.62001 -2.84416 0
M  V30 3895 H 377.398 -3.01817 -2.71406 0
M  V30 3896 H 378.164 -4.75771 -0.941651 0
M  V30 3897 H 374.043 -4.15027 -2.00683 0
M  V30 3898 H 377.587 -6.97596 -0.0236894 0
M  V30 3899 H 373.484 -6.36152 -1.09459 0
M  V30 3900 H 374.252 -8.18437 -0.101457 0
M  V30 3901 N 376.915 0.57481 -1.46744 0
M  V30 3902 C 378.163 1.33009 -1.52161 0
M  V30 3903 C 378.484 1.94185 -0.178092 0
M  V30 3904 O 377.754 1.7899 0.796196 0
M  V30 3905 H 376.334 0.493873 -0.560445 0
M  V30 3906 H 378.996 0.672589 -1.82927 0
M  V30 3907 H 378.092 2.13273 -2.27862 0
M  V30 3908 N 378.394 1.34581 0.820102 0
M  V30 3909 C 379.641 1.27096 1.57648 0
M  V30 3910 C 379.969 -0.158317 1.93855 0
M  V30 3911 O 379.224 -1.12028 1.60463 0
M  V30 3912 C 379.523 2.10997 2.8847 0
M  V30 3913 C 379.189 3.59966 2.71543 0
M  V30 3914 C 377.851 4.00575 2.66634 0
M  V30 3915 C 380.203 4.54548 2.55021 0
M  V30 3916 C 377.531 5.33953 2.43128 0
M  V30 3917 C 379.883 5.88109 2.33047 0
M  V30 3918 C 378.547 6.27878 2.26552 0
M  V30 3919 H 377.817 0.465078 0.576874 0
M  V30 3920 H 380.464 1.6635 0.948671 0
M  V30 3921 H 378.769 1.6458 3.55557 0
M  V30 3922 H 380.466 2.0255 3.46084 0
M  V30 3923 H 377.056 3.27733 2.76205 0
M  V30 3924 H 381.24 4.24069 2.57835 0
M  V30 3925 H 376.496 5.63781 2.3656 0
M  V30 3926 H 380.67 6.60985 2.19251 0
M  V30 3927 H 378.297 7.31162 2.081 0
M  V30 3928 N 379.872 -1.04064 1.18357 0
M  V30 3929 C 381.149 -1.74252 0.888581 0
M  V30 3930 C 381.529 -2.02138 -0.60856 0
M  V30 3931 O 380.877 -1.66656 -1.56327 0
M  V30 3932 C 381.087 -3.0277 1.73584 0
M  V30 3933 C 382.435 -3.76506 1.96286 0
M  V30 3934 O 383.459 -3.12668 1.70637 0
M  V30 3935 O 382.318 -4.91243 2.39464 0
M  V30 3936 H 379.412 -0.758271 0.330082 0
M  V30 3937 H 381.958 -1.1013 1.2911 0
M  V30 3938 H 380.73 -2.78299 2.75073 0
M  V30 3939 H 380.353 -3.74631 1.33183 0
M  V30 3940 N 381.35 -0.985608 -1.22978 0
M  V30 3941 C 382.766 -0.695104 -1.43668 0
M  V30 3942 C 382.966 0.736866 -1.87543 0
M  V30 3943 O 382.022 1.50868 -2.02473 0
M  V30 3944 C 383.335 -1.69447 -2.48412 0
M  V30 3945 C 384.883 -1.70909 -2.62219 0
M  V30 3946 C 385.358 -2.6969 -3.70178 0
M  V30 3947 N 386.849 -2.6824 -3.77626 0
M  V30 3948 C 387.584 -3.41339 -4.60733 0
M  V30 3949 N 387.08 -4.24015 -5.4789 0
M  V30 3950 N 388.873 -3.30079 -4.54977 0
M  V30 3951 H 381.024 -1.91054 -0.928016 0
M  V30 3952 H 383.287 -0.823553 -0.469536 0
M  V30 3953 H 382.993 -2.7188 -2.23102 0
M  V30 3954 H 382.867 -1.48147 -3.46889 0
M  V30 3955 H 385.254 -0.691785 -2.86877 0
M  V30 3956 H 385.335 -1.96276 -1.6404 0
M  V30 3957 H 384.979 -3.71566 -3.46268 0
M  V30 3958 H 384.909 -2.41595 -4.67909 0
M  V30 3959 H 387.4 -2.08243 -3.15346 0
M  V30 3960 H 387.713 -4.76636 -6.08308 0
M  V30 3961 H 386.058 -4.28104 -5.47496 0
M  V30 3962 H 389.249 -2.64937 -3.85909 0
M  V30 3963 H 389.422 -3.87308 -5.19516 0
M  V30 3964 N 382.828 1.3818 -0.7579 0
M  V30 3965 C 383.76 2.2901 -0.0932177 0
M  V30 3966 C 384.773 1.47958 0.679136 0
M  V30 3967 O 385.962 1.70773 0.519514 0
M  V30 3968 C 383.062 3.26953 0.89192 0
M  V30 3969 C 382.235 4.37045 0.176303 0
M  V30 3970 C 381.294 5.15148 1.07281 0
M  V30 3971 O 380.32 5.66616 0.541728 0
M  V30 3972 N 381.522 5.28542 2.40049 0
M  V30 3973 H 384.287 2.86694 -0.873303 0
M  V30 3974 H 381.848 1.50007 -0.609054 0
M  V30 3975 H 383.84 3.76083 1.49479 0
M  V30 3976 H 382.41 2.70136 1.57306 0
M  V30 3977 H 381.63 3.89493 -0.607328 0
M  V30 3978 H 382.918 5.07801 -0.318718 0
M  V30 3979 H 382.316 4.88285 2.85647 0
M  V30 3980 H 380.873 5.8103 2.95376 0
M  V30 3981 N 384.306 0.507319 1.49211 0
M  V30 3982 C 385.583 -0.0982702 1.95353 0
M  V30 3983 C 385.963 -1.53516 1.449 0
M  V30 3984 O 385.311 -2.18594 0.66551 0
M  V30 3985 C 385.521 -0.00440283 3.49 0
M  V30 3986 C 386.869 -0.175147 4.24239 0
M  V30 3987 O 387.893 -0.0792891 3.56112 0
M  V30 3988 O 386.752 -0.37276 5.45227 0
M  V30 3989 H 383.846 -0.0918236 0.821887 0
M  V30 3990 H 386.392 0.570307 1.5983 0
M  V30 3991 H 385.164 0.997402 3.78375 0
M  V30 3992 H 384.787 -0.712845 3.91158 0
M  V30 3993 N 385.784 -1.5574 0.241426 0
M  V30 3994 C 387.2 -1.59196 -0.113548 0
M  V30 3995 C 387.4 -1.25852 -1.57364 0
M  V30 3996 O 386.456 -1.00322 -2.31715 0
M  V30 3997 C 387.769 -2.99814 0.230695 0
M  V30 3998 C 389.317 -3.12513 0.174547 0
M  V30 3999 C 389.792 -4.55342 0.492744 0
M  V30 4000 N 391.283 -4.61076 0.443043 0
M  V30 4001 C 392.018 -5.6956 0.662484 0
M  V30 4002 N 391.514 -6.86328 0.944761 0
M  V30 4003 N 393.307 -5.58957 0.593564 0
M  V30 4004 H 385.458 -1.75685 1.19368 0
M  V30 4005 H 387.721 -0.81756 0.479896 0
M  V30 4006 H 387.427 -3.28932 1.24485 0
M  V30 4007 H 387.301 -3.74568 -0.444833 0
M  V30 4008 H 389.688 -2.83179 -0.830277 0
M  V30 4009 H 389.769 -2.40045 0.883845 0
M  V30 4010 H 389.413 -4.85396 1.4951 0
M  V30 4011 H 389.343 -5.26062 -0.23797 0
M  V30 4012 H 391.834 -3.77179 0.233374 0
M  V30 4013 H 392.147 -7.64935 1.09977 0
M  V30 4014 H 390.492 -6.88025 0.982175 0
M  V30 4015 H 393.683 -4.66611 0.373123 0
M  V30 4016 H 393.856 -6.43433 0.767981 0
M  V30 4017 N 387.262 0.0317525 -1.57568 0
M  V30 4018 C 388.539 0.758366 -1.803 0
M  V30 4019 C 388.919 1.93718 -0.838845 0
M  V30 4020 O 388.267 2.28187 0.119571 0
M  V30 4021 C 388.477 1.19392 -3.27943 0
M  V30 4022 C 389.825 1.61094 -3.92854 0
M  V30 4023 O 390.849 1.28857 -3.32076 0
M  V30 4024 O 389.708 2.20918 -4.99858 0
M  V30 4025 H 386.802 0.366514 -0.741348 0
M  V30 4026 H 389.348 0.00873765 -1.69698 0
M  V30 4027 H 388.12 0.352275 -3.89711 0
M  V30 4028 H 387.743 2.00365 -3.43424 0
M  V30 4029 N 388.74 1.54641 0.303973 0
M  V30 4030 C 389.965 1.78092 1.06292 0
M  V30 4031 C 390.39 0.537342 1.80262 0
M  V30 4032 O 389.748 -0.511993 1.7392 0
M  V30 4033 C 389.796 2.98612 2.02147 0
M  V30 4034 O 388.9 2.71528 3.10397 0
M  V30 4035 H 388.241 0.589548 0.305497 0
M  V30 4036 H 390.771 2.01716 0.3423 0
M  V30 4037 H 390.781 3.265 2.44667 0
M  V30 4038 H 389.456 3.88785 1.47714 0
M  V30 4039 H 388.033 2.54648 2.72413 0
M  V30 4040 N 390.218 -0.567019 1.47046 0
M  V30 4041 C 391.495 -1.3276 1.43646 0
M  V30 4042 C 391.875 -2.1071 0.128186 0
M  V30 4043 O 391.223 -2.10441 -0.890326 0
M  V30 4044 C 391.433 -2.2404 2.67595 0
M  V30 4045 C 392.781 -2.85372 3.14401 0
M  V30 4046 O 393.805 -2.34346 2.68254 0
M  V30 4047 O 392.664 -3.78091 3.946 0
M  V30 4048 H 389.758 -0.597293 0.571988 0
M  V30 4049 H 392.304 -0.586735 1.59234 0
M  V30 4050 H 391.076 -1.65975 3.54356 0
M  V30 4051 H 390.699 -3.05439 2.54544 0
M  V30 4052 N 391.696 -1.35014 -0.812953 0
M  V30 4053 C 392.921 -1.31187 -1.60639 0
M  V30 4054 C 393.346 0.109382 -1.87782 0
M  V30 4055 O 392.704 1.07424 -1.46047 0
M  V30 4056 C 392.752 -2.11809 -2.91838 0
M  V30 4057 O 391.856 -1.49444 -3.8437 0
M  V30 4058 H 391.197 -0.450084 -0.488181 0
M  V30 4059 H 393.727 -1.77963 -1.00947 0
M  V30 4060 H 393.737 -2.23531 -3.41318 0
M  V30 4061 H 392.412 -3.15137 -2.71407 0
M  V30 4062 H 390.989 -1.46524 -3.42907 0
M  V30 4063 N 393.175 1.03435 -1.18907 0
M  V30 4064 C 394.105 2.13503 -0.945448 0
M  V30 4065 C 395.086 1.69682 0.119189 0
M  V30 4066 O 396.271 1.94169 -0.034707 0
M  V30 4067 C 393.401 3.44004 -0.477316 0
M  V30 4068 C 392.355 4.0148 -1.48316 0
M  V30 4069 C 391.681 5.27537 -0.872311 0
M  V30 4070 C 392.981 4.36921 -2.86177 0
M  V30 4071 H 394.675 2.34141 -1.86597 0
M  V30 4072 H 392.221 1.12523 -0.898584 0
M  V30 4073 H 394.174 4.20372 -0.294204 0
M  V30 4074 H 392.898 3.23072 0.478786 0
M  V30 4075 H 391.557 3.27201 -1.65332 0
M  V30 4076 H 391.205 5.02917 0.0911752 0
M  V30 4077 H 390.905 5.66954 -1.54393 0
M  V30 4078 H 392.429 6.06576 -0.699871 0
M  V30 4079 H 393.843 5.04248 -2.72776 0
M  V30 4080 H 392.24 4.87405 -3.50081 0
M  V30 4081 H 393.31 3.46466 -3.39248 0
M  V30 4082 N 394.653 0.992116 1.22453 0
M  V30 4083 C 395.93 0.583508 1.86694 0
M  V30 4084 C 396.31 -0.9392 1.89056 0
M  V30 4085 O 395.658 -1.82081 1.38053 0
M  V30 4086 C 395.868 1.20304 3.2761 0
M  V30 4087 C 397.216 1.30308 4.0411 0
M  V30 4088 O 398.24 1.15737 3.36873 0
M  V30 4089 O 397.099 1.53615 5.24466 0
M  V30 4090 H 394.193 0.198129 0.802916 0
M  V30 4091 H 396.739 1.08794 1.30238 0
M  V30 4092 H 395.511 2.24461 3.2052 0
M  V30 4093 H 395.134 0.684144 3.9167 0
M  V30 4094 N 396.131 -1.37776 0.765217 0
M  V30 4095 C 397.078 -2.30342 0.145274 0
M  V30 4096 C 398.048 -1.5077 -0.696971 0
M  V30 4097 O 399.233 -1.79362 -0.650689 0
M  V30 4098 C 396.373 -3.37227 -0.732939 0
M  V30 4099 C 395.486 -4.31819 0.125199 0
M  V30 4100 C 394.621 -5.25777 -0.757107 0
M  V30 4101 C 393.66 -6.12012 0.103963 0
M  V30 4102 N 392.797 -6.98232 -0.735953 0
M  V30 4103 H 397.637 -2.8278 0.940195 0
M  V30 4104 H 395.174 -1.39211 0.475255 0
M  V30 4105 H 397.132 -3.97818 -1.25686 0
M  V30 4106 H 395.762 -2.86171 -1.49353 0
M  V30 4107 H 394.814 -3.7259 0.766865 0
M  V30 4108 H 396.126 -4.92509 0.789683 0
M  V30 4109 H 395.28 -5.91541 -1.34776 0
M  V30 4110 H 394.019 -4.65481 -1.45529 0
M  V30 4111 H 393.024 -5.45233 0.707197 0
M  V30 4112 H 394.249 -6.74379 0.799381 0
M  V30 4113 H 392.195 -6.40472 -1.41887 0
M  V30 4114 H 392.112 -7.55891 -0.128624 0
M  V30 4115 H 393.38 -7.68393 -1.31121 0
M  V30 4116 N 397.609 -0.515225 -1.4894 0
M  V30 4117 C 398.557 0.269115 -2.31038 0
M  V30 4118 C 399.551 0.949443 -1.40292 0
M  V30 4119 O 400.757 0.87551 -1.57273 0
M  V30 4120 H 397.132 0.10565 -0.744542 0
M  V30 4121 H 399.103 -0.443096 -2.95092 0
M  V30 4122 C 397.852 1.31213 -3.21991 0
M  V30 4123 H 397.175 0.798034 -3.91754 0
M  V30 4124 H 398.615 1.83263 -3.82349 0
M  V30 4125 C 397.074 2.33791 -2.42576 0
M  V30 4126 O 397.604 3.3995 -2.14003 0
M  V30 4127 N 395.81 2.06625 -2.0434 0
M  V30 4128 H 395.357 1.20314 -2.27777 0
M  V30 4129 H 395.315 2.75483 -1.51514 0
M  V30 4130 N 399.087 1.5561 -0.249682 0
M  V30 4131 C 400.503 1.59254 0.105103 0
M  V30 4132 C 400.703 1.26685 1.56694 0
M  V30 4133 O 399.759 1.0155 2.31179 0
M  V30 4134 C 401.072 2.99687 -0.246592 0
M  V30 4135 C 402.62 3.12416 -0.191118 0
M  V30 4136 C 403.095 4.55074 -0.516885 0
M  V30 4137 N 404.586 4.60835 -0.467489 0
M  V30 4138 C 405.321 5.69201 -0.69268 0
M  V30 4139 N 404.817 6.85817 -0.981146 0
M  V30 4140 N 406.61 5.58635 -0.623198 0
M  V30 4141 H 398.761 1.75049 -1.20298 0
M  V30 4142 H 401.024 0.815003 -0.484225 0
M  V30 4143 H 400.73 3.28267 -1.26228 0
M  V30 4144 H 400.604 3.74798 0.424962 0
M  V30 4145 H 402.991 2.83615 0.815247 0
M  V30 4146 H 403.072 2.39573 -0.896563 0
M  V30 4147 H 402.716 4.84596 -1.52082 0
M  V30 4148 H 402.646 5.26181 0.210068 0
M  V30 4149 H 405.137 3.7705 -0.253373 0
M  V30 4150 H 405.45 7.64341 -1.14032 0
M  V30 4151 H 403.795 6.87494 -1.01865 0
M  V30 4152 H 406.986 4.66406 -0.397863 0
M  V30 4153 H 407.159 6.43017 -0.802093 0
M  V30 4154 N 400.565 -0.0233959 1.57583 0
M  V30 4155 C 401.495 -1.02162 2.09965 0
M  V30 4156 C 402.476 -1.3735 1.00344 0
M  V30 4157 O 403.661 -1.46135 1.27899 0
M  V30 4158 C 400.791 -2.32081 2.58371 0
M  V30 4159 C 399.745 -2.1112 3.72307 0
M  V30 4160 C 399.071 -3.46848 4.06941 0
M  V30 4161 C 400.371 -1.49276 5.00514 0
M  V30 4162 H 402.065 -0.585557 2.93618 0
M  V30 4163 H 399.611 -0.280218 1.41247 0
M  V30 4164 H 401.564 -3.02249 2.93639 0
M  V30 4165 H 400.288 -2.77758 1.71808 0
M  V30 4166 H 398.947 -1.43384 3.37397 0
M  V30 4167 H 398.595 -3.90184 3.17436 0
M  V30 4168 H 398.295 -3.33646 4.83688 0
M  V30 4169 H 399.819 -4.18369 4.44747 0
M  V30 4170 H 401.233 -2.09368 5.33702 0
M  V30 4171 H 399.63 -1.46632 5.8191 0
M  V30 4172 H 400.7 -0.459217 4.82721 0
M  V30 4173 N 402.043 -1.548 -0.295768 0
M  V30 4174 C 402.953 -1.89177 -1.38742 0
M  V30 4175 C 403.969 -0.786481 -1.55211 0
M  V30 4176 O 405.145 -1.08344 -1.69775 0
M  V30 4177 C 402.21 -2.13663 -2.73036 0
M  V30 4178 C 401.271 -3.37349 -2.65508 0
M  V30 4179 C 400.504 -3.60658 -3.93398 0
M  V30 4180 O 400.727 -2.86882 -4.93006 0
M  V30 4181 O 399.661 -4.54179 -3.94975 0
M  V30 4182 H 403.487 -2.82059 -1.12589 0
M  V30 4183 H 401.072 -1.41056 -0.492295 0
M  V30 4184 H 402.954 -2.3094 -3.52484 0
M  V30 4185 H 401.629 -1.23967 -2.99022 0
M  V30 4186 H 400.536 -3.25431 -1.84514 0
M  V30 4187 H 401.869 -4.27192 -2.44474 0
M  V30 4188 N 403.521 0.559213 -1.47345 0
M  V30 4189 C 404.937 0.884943 -1.32819 0
M  V30 4190 C 405.137 1.98988 -0.317173 0
M  V30 4191 O 404.193 2.51031 0.272011 0
M  V30 4192 C 405.506 1.28007 -2.72093 0
M  V30 4193 C 407.054 1.39161 -2.80363 0
M  V30 4194 C 407.529 1.82031 -4.20272 0
M  V30 4195 N 409.02 1.89185 -4.22804 0
M  V30 4196 C 409.755 2.2368 -5.27973 0
M  V30 4197 N 409.251 2.56802 -6.43447 0
M  V30 4198 N 411.044 2.24436 -5.15349 0
M  V30 4199 H 403.195 -0.170304 -2.11716 0
M  V30 4200 H 405.458 -0.0135247 -0.947904 0
M  V30 4201 H 405.164 0.542027 -3.47498 0
M  V30 4202 H 405.038 2.23665 -3.03733 0
M  V30 4203 H 407.425 2.12048 -2.05231 0
M  V30 4204 H 407.506 0.41696 -2.52379 0
M  V30 4205 H 407.15 1.09715 -4.95908 0
M  V30 4206 H 407.08 2.80495 -4.45679 0
M  V30 4207 H 409.571 1.65982 -3.39497 0
M  V30 4208 H 409.884 2.82144 -7.19454 0
M  V30 4209 H 408.229 2.54387 -6.46771 0
M  V30 4210 H 411.42 1.97998 -4.24163 0
M  V30 4211 H 411.593 2.50989 -5.97418 0
M  V30 4212 N 404.999 1.35443 0.805782 0
M  V30 4213 C 405.931 1.24285 1.92577 0
M  V30 4214 C 406.944 0.165962 1.61952 0
M  V30 4215 O 408.133 0.419303 1.73505 0
M  V30 4216 C 405.233 0.891272 3.2697 0
M  V30 4217 C 404.406 2.06669 3.85495 0
M  V30 4218 C 403.465 1.69077 4.98297 0
M  V30 4219 O 402.491 2.4096 5.15681 0
M  V30 4220 N 403.693 0.614869 5.77234 0
M  V30 4221 H 406.458 2.20777 2.02676 0
M  V30 4222 H 404.019 1.28623 0.983243 0
M  V30 4223 H 406.011 0.621256 3.99903 0
M  V30 4224 H 404.581 0.016004 3.12596 0
M  V30 4225 H 403.801 2.50046 3.04747 0
M  V30 4226 H 405.089 2.85237 4.21328 0
M  V30 4227 H 404.487 0.017648 5.65697 0
M  V30 4228 H 403.044 0.404636 6.50543 0
M  V30 4229 N 406.477 -1.02803 1.19454 0
M  V30 4230 C 407.425 -2.13213 0.929673 0
M  V30 4231 C 408.419 -1.69011 -0.114806 0
M  V30 4232 O 409.625 -1.79967 0.0345147 0
M  V30 4233 H 406 -0.69662 0.28324 0
M  V30 4234 H 407.971 -2.32744 1.86743 0
M  V30 4235 C 406.72 -3.4429 0.485797 0
M  V30 4236 H 406.043 -3.7872 1.28105 0
M  V30 4237 H 407.483 -4.22638 0.339582 0
M  V30 4238 C 405.942 -3.27258 -0.800244 0
M  V30 4239 O 406.472 -3.55967 -1.86146 0
M  V30 4240 N 404.678 -2.80545 -0.75781 0
M  V30 4241 H 404.225 -2.57382 0.106039 0
M  V30 4242 H 404.183 -2.6953 -1.61867 0
M  V30 4243 N 407.956 -0.998596 -1.21925 0
M  V30 4244 C 409.186 -0.695276 -1.94549 0
M  V30 4245 C 409.594 0.745079 -1.73911 0
M  V30 4246 O 408.937 1.51507 -1.03881 0
M  V30 4247 C 408.999 -0.928485 -3.47303 0
M  V30 4248 C 408.663 -2.35443 -3.91683 0
M  V30 4249 C 409.66 -3.33428 -3.98901 0
M  V30 4250 C 407.345 -2.69038 -4.24174 0
M  V30 4251 C 409.339 -4.63079 -4.37992 0
M  V30 4252 C 407.026 -3.98906 -4.62944 0
M  V30 4253 C 408.024 -4.95738 -4.69822 0
M  V30 4254 O 407.712 -6.23285 -5.07711 0
M  V30 4255 H 407.444 -0.255902 -0.625692 0
M  V30 4256 H 409.998 -1.33767 -1.5587 0
M  V30 4257 H 408.228 -0.228917 -3.86022 0
M  V30 4258 H 409.917 -0.619539 -4.01144 0
M  V30 4259 H 410.683 -3.08807 -3.73983 0
M  V30 4260 H 406.562 -1.94367 -4.18022 0
M  V30 4261 H 410.106 -5.38658 -4.43275 0
M  V30 4262 H 406.003 -4.23314 -4.87314 0
M  V30 4263 H 406.771 -6.27306 -5.25766 0
M  V30 4264 N 409.434 1.37368 -0.772513 0
M  V30 4265 C 410.659 2.0447 -0.347386 0
M  V30 4266 C 411.084 1.57882 1.0225 0
M  V30 4267 O 410.442 0.73941 1.65537 0
M  V30 4268 C 410.49 3.58369 -0.400479 0
M  V30 4269 O 409.594 4.0803 0.598789 0
M  V30 4270 H 408.935 0.646773 -0.15027 0
M  V30 4271 H 411.465 1.75667 -1.04892 0
M  V30 4272 H 411.475 4.07183 -0.258045 0
M  V30 4273 H 410.15 3.91633 -1.39986 0
M  V30 4274 H 408.727 3.70534 0.419411 0
M  V30 4275 N 410.912 0.523116 1.48665 0
M  V30 4276 C 412.158 -0.0134963 2.02796 0
M  V30 4277 C 412.491 -1.34582 1.40004 0
M  V30 4278 O 411.766 -1.86756 0.543381 0
M  V30 4279 C 412.049 -0.14276 3.59817 0
M  V30 4280 C 411.902 1.21425 4.331 0
M  V30 4281 C 413.221 -0.872856 4.31357 0
M  V30 4282 H 410.34 -0.00343074 0.736992 0
M  V30 4283 H 412.982 0.678816 1.7746 0
M  V30 4284 H 411.132 -0.732401 3.81534 0
M  V30 4285 H 412.804 1.84447 4.2282 0
M  V30 4286 H 411.047 1.79791 3.94788 0
M  V30 4287 H 411.718 1.07687 5.41394 0
M  V30 4288 H 414.194 -0.372555 4.14429 0
M  V30 4289 H 413.07 -0.932185 5.40927 0
M  V30 4290 H 413.331 -1.92161 3.98154 0
M  V30 4291 N 412.39 -1.55475 0.257931 0
M  V30 4292 C 413.615 -2.04064 -0.370488 0
M  V30 4293 C 414.04 -1.13565 -1.49948 0
M  V30 4294 O 413.398 -0.130781 -1.80828 0
M  V30 4295 C 413.446 -3.50554 -0.845237 0
M  V30 4296 O 412.55 -3.63173 -1.95394 0
M  V30 4297 H 411.891 -0.659257 -0.0792243 0
M  V30 4298 H 414.421 -2.00903 0.387212 0
M  V30 4299 H 414.431 -3.91588 -1.14555 0
M  V30 4300 H 413.106 -4.15896 -0.0191259 0
M  V30 4301 H 411.683 -3.34039 -1.65748 0
M  V30 4302 N 413.868 0.0150385 -1.57593 0
M  V30 4303 C 414.818 1.01943 -2.0394 0
M  V30 4304 C 415.802 1.31209 -0.931286 0
M  V30 4305 O 416.994 1.30559 -1.19513 0
M  V30 4306 C 414.123 2.31621 -2.53391 0
M  V30 4307 C 413.209 2.05384 -3.7105 0
M  V30 4308 N 413.6 1.49253 -4.83278 0
M  V30 4309 C 411.898 2.35601 -3.78693 0
M  V30 4310 C 412.599 1.39143 -5.64813 0
M  V30 4311 N 411.575 1.87187 -5.10355 0
M  V30 4312 H 415.377 0.57969 -2.88126 0
M  V30 4313 H 412.891 0.221056 -1.60888 0
M  V30 4314 H 414.888 3.044 -2.84862 0
M  V30 4315 H 413.548 2.76261 -1.70616 0
M  V30 4316 H 414.559 1.17334 -5.04433 0
M  V30 4317 H 411.236 2.8322 -3.06746 0
M  V30 4318 H 412.626 0.961153 -6.6499 0
M  V30 4319 N 415.346 1.54954 0.287554 0
M  V30 4320 C 416.294 1.87606 1.37502 0
M  V30 4321 C 417.288 0.751001 1.51843 0
M  V30 4322 O 418.494 0.935169 1.53801 0
M  V30 4323 H 414.869 0.595231 0.459569 0
M  V30 4324 H 416.84 2.78477 1.07206 0
M  V30 4325 C 415.589 2.15183 2.73115 0
M  V30 4326 H 414.912 3.01234 2.62866 0
M  V30 4327 H 416.352 2.4196 3.48183 0
M  V30 4328 C 414.811 0.954686 3.2309 0
M  V30 4329 O 415.341 0.181949 4.01288 0
M  V30 4330 N 413.547 0.756368 2.80584 0
M  V30 4331 H 413.094 1.38643 2.17108 0
M  V30 4332 H 413.052 -0.0430391 3.14371 0
M  V30 4333 N 416.824 -0.551391 1.4764 0
M  V30 4334 C 418.072 -1.30572 1.54258 0
M  V30 4335 C 418.393 -1.93877 0.208963 0
M  V30 4336 O 417.663 -1.80234 -0.767619 0
M  V30 4337 H 416.243 -0.484894 0.568231 0
M  V30 4338 H 418.905 -0.643402 1.83974 0
M  V30 4339 H 418.001 -2.09621 2.31226 0
M  V30 4340 N 418.302 -1.35869 -0.798587 0
M  V30 4341 C 419.718 -1.16082 -1.09532 0
M  V30 4342 C 419.918 0.0213124 -2.01489 0
M  V30 4343 O 418.974 0.689488 -2.42904 0
M  V30 4344 C 420.287 -2.46748 -1.7186 0
M  V30 4345 C 421.835 -2.53028 -1.84244 0
M  V30 4346 C 422.31 -3.83758 -2.49988 0
M  V30 4347 N 423.801 -3.85053 -2.57465 0
M  V30 4348 C 424.536 -4.8294 -3.09122 0
M  V30 4349 N 424.032 -5.91217 -3.61157 0
M  V30 4350 N 425.825 -4.70369 -3.0775 0
M  V30 4351 H 417.976 -2.11571 -0.187461 0
M  V30 4352 H 420.239 -0.936726 -0.145765 0
M  V30 4353 H 419.945 -3.33471 -1.11759 0
M  V30 4354 H 419.819 -2.61883 -2.71472 0
M  V30 4355 H 422.206 -1.66729 -2.43486 0
M  V30 4356 H 422.287 -2.418 -0.834643 0
M  V30 4357 H 421.931 -4.70459 -1.91393 0
M  V30 4358 H 421.861 -3.92278 -3.5132 0
M  V30 4359 H 424.352 -3.06822 -2.20609 0
M  V30 4360 H 424.665 -6.61892 -3.98896 0
M  V30 4361 H 423.01 -5.94899 -3.59333 0
M  V30 4362 H 426.201 -3.84914 -2.66381 0
M  V30 4363 H 426.374 -5.46816 -3.47701 0
M  V30 4364 N 419.78 1.02168 -1.19998 0
M  V30 4365 C 421.026 1.7606 -1.01855 0
M  V30 4366 C 421.381 1.87178 0.445222 0
M  V30 4367 O 420.674 1.3828 1.32624 0
M  V30 4368 C 420.868 3.18081 -1.62969 0
M  V30 4369 C 420.697 3.20809 -3.15137 0
M  V30 4370 C 419.467 3.28342 -3.84083 0
M  V30 4371 C 421.665 3.07268 -4.1242 0
M  V30 4372 N 419.647 3.2052 -5.23584 0
M  V30 4373 C 421.018 3.0716 -5.38566 0
M  V30 4374 C 423.073 2.91448 -4.03686 0
M  V30 4375 C 421.776 2.92853 -6.56985 0
M  V30 4376 C 423.802 2.78494 -5.21723 0
M  V30 4377 C 423.164 2.79046 -6.46771 0
M  V30 4378 H 419.263 0.655192 -0.426905 0
M  V30 4379 H 421.847 1.21564 -1.52087 0
M  V30 4380 H 420.018 3.70882 -1.15329 0
M  V30 4381 H 421.75 3.80375 -1.38192 0
M  V30 4382 H 418.505 3.34859 -3.34913 0
M  V30 4383 H 418.929 3.19997 -5.96599 0
M  V30 4384 H 423.571 2.89838 -3.07821 0
M  V30 4385 H 421.289 2.93213 -7.53028 0
M  V30 4386 H 424.875 2.67278 -5.16773 0
M  V30 4387 H 423.755 2.69134 -7.36571 0
M  V30 4388 N 421.258 1.00505 1.21394 0
M  V30 4389 C 422.535 0.603277 1.86064 0
M  V30 4390 C 422.915 -0.919095 1.90042 0
M  V30 4391 O 422.263 -1.80607 1.39977 0
M  V30 4392 C 422.473 1.23772 3.26315 0
M  V30 4393 C 423.821 1.34586 4.02705 0
M  V30 4394 O 424.845 1.19304 3.35626 0
M  V30 4395 O 423.704 1.59169 5.22807 0
M  V30 4396 H 420.798 0.206634 0.800769 0
M  V30 4397 H 423.344 1.1017 1.29076 0
M  V30 4398 H 422.116 2.27848 3.18121 0
M  V30 4399 H 421.739 0.725648 3.90922 0
M  V30 4400 N 422.737 -1.36956 0.779787 0
M  V30 4401 C 423.967 -2.03459 0.358877 0
M  V30 4402 C 424.375 -1.58939 -1.02641 0
M  V30 4403 O 423.718 -0.769777 -1.66794 0
M  V30 4404 C 423.78 -3.5796 0.332393 0
M  V30 4405 C 423.444 -4.25644 1.66362 0
M  V30 4406 C 424.441 -4.49205 2.61746 0
M  V30 4407 C 422.126 -4.63313 1.94027 0
M  V30 4408 C 424.12 -5.09503 3.82996 0
M  V30 4409 C 421.807 -5.2333 3.15546 0
M  V30 4410 C 422.805 -5.46363 4.0985 0
M  V30 4411 O 422.493 -6.05122 5.29228 0
M  V30 4412 H 422.225 -0.659767 0.147254 0
M  V30 4413 H 424.779 -1.76111 1.05708 0
M  V30 4414 H 423.009 -3.84388 -0.422237 0
M  V30 4415 H 424.698 -4.05852 -0.0625389 0
M  V30 4416 H 425.464 -4.20508 2.41657 0
M  V30 4417 H 421.343 -4.44715 1.21448 0
M  V30 4418 H 424.887 -5.27397 4.56617 0
M  V30 4419 H 420.784 -5.51451 3.35517 0
M  V30 4420 H 421.552 -6.23595 5.30161 0
M  V30 4421 N 424.215 -0.530993 -1.48385 0
M  V30 4422 C 425.463 0.00273189 -2.021 0
M  V30 4423 C 425.784 1.34672 -1.41027 0
M  V30 4424 O 425.054 1.8724 -0.576012 0
M  V30 4425 H 423.634 0.00399774 -0.746989 0
M  V30 4426 H 426.296 -0.695054 -1.82085 0
M  V30 4427 H 425.392 0.11031 -3.11905 0
M  V30 4428 N 425.693 1.55336 -0.266172 0
M  V30 4429 C 426.921 2.03801 0.356756 0
M  V30 4430 C 427.336 1.14485 1.50129 0
M  V30 4431 O 426.693 0.163121 1.8177 0
M  V30 4432 C 426.744 3.51455 0.846281 0
M  V30 4433 O 426.465 4.37371 -0.252663 0
M  V30 4434 C 427.966 4.15767 1.53794 0
M  V30 4435 H 425.186 0.665906 0.0825218 0
M  V30 4436 H 427.73 2.00636 -0.39566 0
M  V30 4437 H 425.885 3.55092 1.54881 0
M  V30 4438 H 426.299 5.24358 0.122173 0
M  V30 4439 H 427.773 5.20714 1.83198 0
M  V30 4440 H 428.25 3.63404 2.46646 0
M  V30 4441 H 428.856 4.16107 0.879488 0
M  V30 4442 N 427.171 -0.0066808 1.57599 0
M  V30 4443 C 428.396 -0.707738 1.94951 0
M  V30 4444 C 428.821 -1.66882 0.867868 0
M  V30 4445 O 428.179 -1.80457 -0.17458 0
M  V30 4446 C 428.227 -1.42162 3.31394 0
M  V30 4447 O 427.331 -2.53578 3.25226 0
M  V30 4448 H 426.672 -0.188752 0.636607 0
M  V30 4449 H 429.202 0.0445193 2.04552 0
M  V30 4450 H 429.212 -1.78655 3.66806 0
M  V30 4451 H 427.887 -0.716903 4.09675 0
M  V30 4452 H 426.464 -2.19463 3.01481 0
M  V30 4453 N 428.649 -1.55105 -0.279332 0
M  V30 4454 C 429.559 -1.90638 -1.36727 0
M  V30 4455 C 430.575 -0.802899 -1.54368 0
M  V30 4456 O 431.751 -1.10138 -1.68616 0
M  V30 4457 C 428.816 -2.16547 -2.70755 0
M  V30 4458 C 427.877 -3.40146 -2.61915 0
M  V30 4459 C 427.11 -3.6481 -3.8955 0
M  V30 4460 O 427.333 -2.92095 -4.89935 0
M  V30 4461 O 426.267 -4.58343 -3.90135 0
M  V30 4462 H 430.093 -2.83237 -1.09591 0
M  V30 4463 H 427.678 -1.4157 -0.477306 0
M  V30 4464 H 429.56 -2.34665 -3.50014 0
M  V30 4465 H 428.235 -1.27131 -2.9769 0
M  V30 4466 H 427.142 -3.2737 -1.81052 0
M  V30 4467 H 428.475 -4.29761 -2.3993 0
M  V30 4468 N 430.127 0.543554 -1.4793 0
M  V30 4469 C 431.057 1.65888 -1.64327 0
M  V30 4470 C 432.038 1.62818 -0.492383 0
M  V30 4471 O 433.223 1.80226 -0.723338 0
M  V30 4472 C 430.353 3.04506 -1.67013 0
M  V30 4473 C 429.307 3.2243 -2.81466 0
M  V30 4474 C 428.633 4.61972 -2.69233 0
M  V30 4475 C 429.933 3.06496 -4.22915 0
M  V30 4476 H 431.627 1.52421 -2.57698 0
M  V30 4477 H 429.173 0.731849 -1.24016 0
M  V30 4478 H 431.126 3.82391 -1.77074 0
M  V30 4479 H 429.85 3.18964 -0.70212 0
M  V30 4480 H 428.509 2.46957 -2.70938 0
M  V30 4481 H 428.157 4.73247 -1.7043 0
M  V30 4482 H 427.857 4.74911 -3.46025 0
M  V30 4483 H 429.381 5.41974 -2.81242 0
M  V30 4484 H 430.795 3.74186 -4.34348 0
M  V30 4485 H 429.192 3.30938 -5.006 0
M  V30 4486 H 430.262 2.03077 -4.40327 0
M  V30 4487 N 431.605 1.3629 0.791371 0
M  V30 4488 C 432.552 1.30458 1.90393 0
M  V30 4489 C 433.522 0.173632 1.6519 0
M  V30 4490 O 434.707 0.35983 1.87376 0
M  V30 4491 C 431.847 1.09777 3.27174 0
M  V30 4492 C 430.96 2.31929 3.64462 0
M  V30 4493 C 430.095 2.04276 4.90352 0
M  V30 4494 C 429.134 3.224 5.20312 0
M  V30 4495 N 428.271 2.94424 6.37385 0
M  V30 4496 H 433.111 2.25589 1.94714 0
M  V30 4497 H 430.648 1.12122 0.952216 0
M  V30 4498 H 432.606 0.958133 4.06049 0
M  V30 4499 H 431.236 0.183014 3.22281 0
M  V30 4500 H 430.288 2.56703 2.80727 0
M  V30 4501 H 431.6 3.20085 3.82553 0
M  V30 4502 H 430.754 1.87231 5.77087 0
M  V30 4503 H 429.493 1.13428 4.74326 0
M  V30 4504 H 428.498 3.40005 4.32061 0
M  V30 4505 H 429.723 4.14071 5.38258 0
M  V30 4506 H 427.669 2.06185 6.22755 0
M  V30 4507 H 427.586 3.76118 6.55798 0
M  V30 4508 H 428.854 2.80953 7.27108 0
M  V30 4509 N 433.083 -1.0153 1.20538 0
M  V30 4510 C 434.313 -1.78487 1.04048 0
M  V30 4511 C 434.721 -1.84631 -0.413292 0
M  V30 4512 O 434.064 -1.29919 -1.29872 0
M  V30 4513 C 434.126 -3.24367 1.55003 0
M  V30 4514 C 433.79 -3.41827 3.0332 0
M  V30 4515 C 434.787 -3.30941 4.00966 0
M  V30 4516 C 432.472 -3.67602 3.42307 0
M  V30 4517 C 434.466 -3.45577 5.35589 0
M  V30 4518 C 432.153 -3.81881 4.77085 0
M  V30 4519 C 433.151 -3.70874 5.73534 0
M  V30 4520 O 432.839 -3.84714 7.05868 0
M  V30 4521 H 432.571 -0.568108 0.366373 0
M  V30 4522 H 435.125 -1.28677 1.60098 0
M  V30 4523 H 433.355 -3.75266 0.933397 0
M  V30 4524 H 435.044 -3.82963 1.34514 0
M  V30 4525 H 435.81 -3.10964 3.72191 0
M  V30 4526 H 431.689 -3.75256 2.67776 0
M  V30 4527 H 435.233 -3.36902 6.10854 0
M  V30 4528 H 431.13 -4.01359 5.0555 0
M  V30 4529 H 431.898 -4.01724 7.13134 0
M  V30 4530 N 434.561 -1.01147 -1.20859 0
M  V30 4531 C 435.791 -0.715872 -1.93801 0
M  V30 4532 C 436.199 0.726592 -1.74692 0
M  V30 4533 O 435.542 1.50397 -1.05482 0
M  V30 4534 C 435.604 -0.965269 -3.46299 0
M  V30 4535 C 435.268 -2.39584 -3.89164 0
M  V30 4536 C 436.265 -3.3764 -3.95342 0
M  V30 4537 C 433.95 -2.73522 -4.21297 0
M  V30 4538 C 435.944 -4.67698 -4.33056 0
M  V30 4539 C 433.631 -4.03794 -4.58687 0
M  V30 4540 C 434.629 -5.00693 -4.64538 0
M  V30 4541 O 434.317 -6.28635 -5.01072 0
M  V30 4542 H 434.049 -0.262524 -0.622942 0
M  V30 4543 H 436.603 -1.35413 -1.54443 0
M  V30 4544 H 434.833 -0.269847 -3.85757 0
M  V30 4545 H 436.522 -0.662051 -4.00464 0
M  V30 4546 H 437.288 -3.12757 -3.70686 0
M  V30 4547 H 433.167 -1.9879 -4.15937 0
M  V30 4548 H 436.711 -5.4333 -4.37537 0
M  V30 4549 H 432.608 -4.28459 -4.82797 0
M  V30 4550 H 433.376 -6.32847 -5.19083 0
M  V30 4551 N 436.039 1.36541 -0.78704 0
M  V30 4552 C 437.287 1.98911 -0.357633 0
M  V30 4553 C 437.608 1.62778 1.07371 0
M  V30 4554 O 436.878 0.900612 1.73971 0
M  V30 4555 H 435.458 0.735734 -0.129246 0
M  V30 4556 H 438.12 1.66776 -1.00855 0
M  V30 4557 H 437.216 3.08874 -0.447549 0
M  V30 4558 N 437.518 0.538854 1.48102 0
M  V30 4559 C 438.428 -0.222648 2.33541 0
M  V30 4560 C 439.444 -0.930225 1.47047 0
M  V30 4561 O 440.62 -0.903211 1.80011 0
M  V30 4562 C 437.685 -1.25064 3.23357 0
M  V30 4563 C 436.746 -0.552469 4.2573 0
M  V30 4564 C 435.979 -1.53149 5.11254 0
M  V30 4565 O 436.202 -2.76487 4.9891 0
M  V30 4566 O 435.136 -1.06602 5.92385 0
M  V30 4567 H 438.962 0.477707 2.99919 0
M  V30 4568 H 436.547 0.299669 1.46364 0
M  V30 4569 H 438.429 -1.8445 3.78888 0
M  V30 4570 H 437.104 -1.93325 2.59629 0
M  V30 4571 H 436.011 0.082114 3.7401 0
M  V30 4572 H 437.344 0.0883526 4.92121 0
M  V30 4573 N 438.996 -1.55193 0.274407 0
M  V30 4574 C 439.943 -2.225 -0.613374 0
M  V30 4575 C 440.913 -1.19823 -1.15029 0
M  V30 4576 O 442.098 -1.48362 -1.19973 0
M  V30 4577 C 439.238 -2.94927 -1.79199 0
M  V30 4578 C 438.351 -4.12322 -1.28899 0
M  V30 4579 C 437.486 -4.72394 -2.42934 0
M  V30 4580 C 436.525 -5.81984 -1.89634 0
M  V30 4581 N 435.662 -6.36123 -2.9714 0
M  V30 4582 H 440.502 -2.97982 -0.032756 0
M  V30 4583 H 438.039 -1.47099 -0.00440146 0
M  V30 4584 H 439.997 -3.35134 -2.48478 0
M  V30 4585 H 438.627 -2.2187 -2.34465 0
M  V30 4586 H 437.679 -3.7724 -0.489327 0
M  V30 4587 H 438.991 -4.91355 -0.858587 0
M  V30 4588 H 438.145 -5.15317 -3.20208 0
M  V30 4589 H 436.884 -3.92636 -2.8929 0
M  V30 4590 H 435.889 -5.38511 -1.1084 0
M  V30 4591 H 437.114 -6.6361 -1.44215 0
M  V30 4592 H 435.06 -5.59259 -3.42878 0
M  V30 4593 H 434.977 -7.10427 -2.58515 0
M  V30 4594 H 436.245 -6.83704 -3.74391 0
M  V30 4595 N 440.474 -0.00167713 -1.576 0
M  V30 4596 C 441.72 0.683832 -1.90923 0
M  V30 4597 C 442.053 1.7333 -0.875799 0
M  V30 4598 O 441.328 1.94215 0.10525 0
M  V30 4599 C 441.611 1.32543 -3.3482 0
M  V30 4600 C 441.464 0.287387 -4.48881 0
M  V30 4601 C 442.783 2.25114 -3.78169 0
M  V30 4602 H 439.902 0.247125 -0.694333 0
M  V30 4603 H 442.544 -0.0533149 -1.89925 0
M  V30 4604 H 440.694 1.95372 -3.35801 0
M  V30 4605 H 442.366 -0.341346 -4.60035 0
M  V30 4606 H 440.609 -0.39017 -4.32042 0
M  V30 4607 H 441.28 0.775393 -5.46527 0
M  V30 4608 H 443.756 1.723 -3.7875 0
M  V30 4609 H 442.632 2.66971 -4.79602 0
M  V30 4610 H 442.893 3.13092 -3.12131 0
M  V30 4611 N 441.952 1.55251 0.271103 0
M  V30 4612 C 442.862 1.9136 1.35714 0
M  V30 4613 C 443.878 0.811075 1.5394 0
M  V30 4614 O 445.054 1.11031 1.6803 0
M  V30 4615 C 442.119 2.1798 2.69603 0
M  V30 4616 C 441.18 3.4153 2.60107 0
M  V30 4617 C 440.413 3.66871 3.8761 0
M  V30 4618 O 440.636 2.94689 4.8838 0
M  V30 4619 O 439.57 4.60405 3.87699 0
M  V30 4620 H 443.396 2.83815 1.08088 0
M  V30 4621 H 440.981 1.41821 0.469792 0
M  V30 4622 H 442.863 2.36518 3.48765 0
M  V30 4623 H 441.538 1.28708 2.97012 0
M  V30 4624 H 440.445 3.28325 1.79314 0
M  V30 4625 H 441.778 4.31027 2.37647 0
M  V30 4626 N 443.43 -0.535701 1.48216 0
M  V30 4627 C 444.378 -1.66179 1.62749 0
M  V30 4628 C 445.372 -1.62034 0.49409 0
M  V30 4629 O 446.578 -1.6696 0.672624 0
M  V30 4630 H 442.953 -0.550244 0.512578 0
M  V30 4631 H 444.924 -1.51063 2.57337 0
M  V30 4632 C 443.673 -3.04471 1.67907 0
M  V30 4633 H 442.996 -3.08351 2.54479 0
M  V30 4634 H 444.436 -3.82894 1.82121 0
M  V30 4635 C 442.895 -3.34314 0.416596 0
M  V30 4636 O 443.425 -3.98905 -0.473014 0
M  V30 4637 N 441.631 -2.89149 0.290038 0
M  V30 4638 H 441.178 -2.36764 1.01493 0
M  V30 4639 H 441.136 -3.09486 -0.55367 0
M  V30 4640 N 444.908 -1.36708 -0.784132 0
M  V30 4641 C 445.855 -1.31466 -1.89698 0
M  V30 4642 C 446.825 -0.18239 -1.65096 0
M  V30 4643 O 448.01 -0.369762 -1.87183 0
M  V30 4644 C 445.15 -1.1151 -3.26588 0
M  V30 4645 C 444.263 -2.33859 -3.63227 0
M  V30 4646 C 443.398 -2.06873 -4.89262 0
M  V30 4647 C 442.437 -3.25154 -5.18595 0
M  V30 4648 N 441.574 -2.978 -6.35814 0
M  V30 4649 H 446.414 -2.26619 -1.93515 0
M  V30 4650 H 443.951 -1.12625 -0.946256 0
M  V30 4651 H 445.909 -0.979653 -4.05535 0
M  V30 4652 H 444.539 -0.200103 -3.22179 0
M  V30 4653 H 443.591 -2.58188 -2.79362 0
M  V30 4654 H 444.903 -3.22109 -3.8085 0
M  V30 4655 H 444.057 -1.90289 -5.76086 0
M  V30 4656 H 442.796 -1.15942 -4.73718 0
M  V30 4657 H 441.801 -3.42292 -4.30251 0
M  V30 4658 H 443.026 -4.1692 -5.36055 0
M  V30 4659 H 440.972 -2.09485 -6.21653 0
M  V30 4660 H 440.889 -3.7959 -6.53794 0
M  V30 4661 H 442.157 -2.84805 -7.25607 0
M  V30 4662 N 446.386 1.0089 -1.21074 0
M  V30 4663 C 447.334 2.11707 -0.963476 0
M  V30 4664 C 448.328 1.69172 0.0879032 0
M  V30 4665 O 449.534 1.79889 -0.0631415 0
M  V30 4666 H 445.909 0.692026 -0.294287 0
M  V30 4667 H 447.88 2.29743 -1.90422 0
M  V30 4668 C 446.629 3.43473 -0.540509 0
M  V30 4669 H 445.952 3.76634 -1.34114 0
M  V30 4670 H 447.392 4.22044 -0.406777 0
M  V30 4671 C 445.851 3.2849 0.748079 0
M  V30 4672 O 446.381 3.58883 1.8046 0
M  V30 4673 N 444.587 2.81715 0.713081 0
M  V30 4674 H 444.134 2.5718 -0.146973 0
M  V30 4675 H 444.092 2.72071 1.57558 0
M  V30 4676 N 447.864 1.01787 1.20321 0
M  V30 4677 C 449.275 0.739307 1.71438 0
M  V30 4678 C 449.626 -0.742041 1.81627 0
M  V30 4679 O 448.751 -1.57903 1.47971 0
M  V30 4680 C 449.346 1.33538 3.11373 0
M  V30 4681 C 447.905 1.10566 3.59795 0
M  V30 4682 C 447.052 1.44028 2.36962 0
M  V30 4683 H 450.003 1.18718 1.05317 0
M  V30 4684 H 450.024 0.726611 3.73498 0
M  V30 4685 H 449.536 2.41352 3.03926 0
M  V30 4686 H 447.637 0.0452405 3.72573 0
M  V30 4687 H 447.75 1.78661 4.44542 0
M  V30 4688 H 446.114 0.85933 2.39766 0
M  V30 4689 H 446.897 2.52901 2.32155 0
M  V30 4690 N 449.342 -1.36122 0.79427 0
M  V30 4691 C 450.59 -1.98718 0.368177 0
M  V30 4692 C 450.911 -1.63345 -1.06506 0
M  V30 4693 O 450.181 -0.909825 -1.73491 0
M  V30 4694 H 448.761 -0.735038 0.133146 0
M  V30 4695 H 451.423 -1.66239 1.01739 0
M  V30 4696 H 450.519 -3.08633 0.463923 0
M  V30 4697 N 450.82 -0.546701 -1.47814 0
M  V30 4698 C 451.768 0.220048 -2.31557 0
M  V30 4699 C 452.762 0.919472 -1.42275 0
M  V30 4700 O 453.968 0.841953 -1.59095 0
M  V30 4701 H 450.343 0.0898334 -0.746615 0
M  V30 4702 H 452.314 -0.505589 -2.94086 0
M  V30 4703 C 451.063 1.24353 -3.24702 0
M  V30 4704 H 450.386 0.714758 -3.93359 0
M  V30 4705 H 451.826 1.75112 -3.8615 0
M  V30 4706 C 450.285 2.28593 -2.47481 0
M  V30 4707 O 450.815 3.35334 -2.21165 0
M  V30 4708 N 449.021 2.02244 -2.08676 0
M  V30 4709 H 448.568 1.15455 -2.30278 0
M  V30 4710 H 448.526 2.72207 -1.57323 0
M  V30 4711 N 452.299 1.55045 -0.282633 0
M  V30 4712 C 453.524 2.04628 0.337977 0
M  V30 4713 C 453.949 1.15937 1.48123 0
M  V30 4714 O 453.307 0.159532 1.80597 0
M  V30 4715 C 453.355 3.51854 0.78936 0
M  V30 4716 O 452.459 3.66236 1.89592 0
M  V30 4717 H 451.8 0.660434 0.0687261 0
M  V30 4718 H 454.33 2.00261 -0.419124 0
M  V30 4719 H 454.34 3.93361 1.08311 0
M  V30 4720 H 453.015 4.15873 -0.0470419 0
M  V30 4721 H 451.592 3.36633 1.60413 0
M  V30 4722 N 453.777 0.010035 1.57597 0
M  V30 4723 C 455.002 -0.687021 1.95691 0
M  V30 4724 C 455.427 -1.65952 0.885519 0
M  V30 4725 O 454.785 -1.80633 -0.15543 0
M  V30 4726 C 454.833 -1.3864 3.32884 0
M  V30 4727 O 453.937 -2.50115 3.27897 0
M  V30 4728 H 453.278 -0.181989 0.638573 0
M  V30 4729 H 455.808 0.0662122 2.04493 0
M  V30 4730 H 455.818 -1.74754 3.6868 0
M  V30 4731 H 454.493 -0.673411 4.10412 0
M  V30 4732 H 453.07 -2.16253 3.03791 0
M  V30 4733 N 455.255 -1.55392 -0.262866 0
M  V30 4734 C 456.666 -1.67079 -0.833158 0
M  V30 4735 C 457.017 -0.604539 -1.86654 0
M  V30 4736 O 456.142 0.252138 -2.14926 0
M  V30 4737 C 456.737 -3.02891 -1.51797 0
M  V30 4738 C 455.296 -3.16571 -2.03617 0
M  V30 4739 C 454.443 -2.62909 -0.881701 0
M  V30 4740 H 457.394 -1.58652 -0.0389986 0
M  V30 4741 H 457.415 -2.96445 -2.38538 0
M  V30 4742 H 456.927 -3.80473 -0.765619 0
M  V30 4743 H 455.028 -2.43782 -2.81782 0
M  V30 4744 H 455.141 -4.23271 -2.24452 0
M  V30 4745 H 453.505 -2.20324 -1.27786 0
M  V30 4746 H 454.288 -3.43003 -0.14269 0
M  V30 4747 N 456.733 0.527833 -1.48498 0
M  V30 4748 C 457.982 1.28003 -1.55878 0
M  V30 4749 C 458.295 1.9414 -0.238577 0
M  V30 4750 O 459.501 2.7083 -0.190643 0
M  V30 4751 C 457.957 2.32272 -2.74914 0
M  V30 4752 C 457.565 1.72196 -4.13585 0
M  V30 4753 C 459.309 3.08488 -2.91608 0
M  V30 4754 C 457.216 2.74417 -5.23879 0
M  V30 4755 H 456.146 0.481413 -0.580308 0
M  V30 4756 H 458.797 0.557195 -1.74836 0
M  V30 4757 H 457.179 3.07601 -2.49395 0
M  V30 4758 H 458.353 1.03041 -4.49132 0
M  V30 4759 H 456.668 1.08464 -4.02025 0
M  V30 4760 H 459.265 3.84879 -3.71177 0
M  V30 4761 H 459.608 3.64481 -2.01145 0
M  V30 4762 H 460.141 2.40274 -3.17038 0
M  V30 4763 H 456.88 2.23242 -6.16314 0
M  V30 4764 H 456.4 3.41893 -4.92818 0
M  V30 4765 H 458.079 3.37362 -5.52083 0
M  V30 4766 N 458.211 1.37122 0.776871 0
M  V30 4767 C 459.439 1.3523 1.5659 0
M  V30 4768 C 459.854 -0.0635518 1.88693 0
M  V30 4769 O 459.211 -1.02394 1.51069 0
M  V30 4770 C 459.262 2.18583 2.8793 0
M  V30 4771 O 458.983 3.5465 2.57206 0
M  V30 4772 C 460.484 2.24612 3.82183 0
M  V30 4773 H 457.704 0.4634 0.485285 0
M  V30 4774 H 460.248 1.80392 0.963266 0
M  V30 4775 H 458.403 1.76943 3.4463 0
M  V30 4776 H 458.817 3.98286 3.41275 0
M  V30 4777 H 460.291 2.87267 4.71361 0
M  V30 4778 H 460.768 1.25309 4.20944 0
M  V30 4779 H 461.374 2.66543 3.31414 0
M  V30 4780 N 459.689 -1.00246 1.21608 0
M  V30 4781 C 460.914 -1.78167 1.06167 0
M  V30 4782 C 461.339 -1.84138 -0.384035 0
M  V30 4783 O 460.697 -1.28683 -1.27712 0
M  V30 4784 C 460.745 -3.19786 1.66642 0
M  V30 4785 O 459.849 -4.02153 0.913613 0
M  V30 4786 H 459.19 -0.549 0.37349 0
M  V30 4787 H 461.72 -1.25994 1.61204 0
M  V30 4788 H 461.73 -3.70451 1.70969 0
M  V30 4789 H 460.405 -3.14754 2.7185 0
M  V30 4790 H 458.982 -3.60711 0.945635 0
M  V30 4791 N 461.167 -1.02423 -1.1978 0
M  V30 4792 C 462.077 -0.610919 -2.26506 0
M  V30 4793 C 463.093 0.355152 -1.70337 0
M  V30 4794 O 464.269 0.214195 -2.00258 0
M  V30 4795 C 461.334 0.0365921 -3.46681 0
M  V30 4796 C 460.395 -0.976389 -4.18049 0
M  V30 4797 C 459.628 -0.359683 -5.32487 0
M  V30 4798 O 459.851 0.838601 -5.64202 0
M  V30 4799 O 458.785 -1.08022 -5.92127 0
M  V30 4800 H 462.611 -1.49965 -2.64091 0
M  V30 4801 H 460.196 -0.794156 -1.26545 0
M  V30 4802 H 462.078 0.39786 -4.19518 0
M  V30 4803 H 460.753 0.899398 -3.10954 0
M  V30 4804 H 459.66 -1.38916 -3.47352 0
M  V30 4805 H 460.993 -1.80941 -4.57735 0
M  V30 4806 N 462.645 1.35699 -0.801477 0
M  V30 4807 C 463.87 2.03687 -0.390678 0
M  V30 4808 C 464.295 1.60015 0.988778 0
M  V30 4809 O 463.653 0.774357 1.63931 0
M  V30 4810 C 463.701 3.57439 -0.476404 0
M  V30 4811 O 462.805 4.09208 0.512106 0
M  V30 4812 H 462.146 0.64344 -0.163956 0
M  V30 4813 H 464.676 1.73403 -1.08594 0
M  V30 4814 H 464.686 4.06544 -0.344357 0
M  V30 4815 H 463.361 3.88576 -1.48262 0
M  V30 4816 H 461.938 3.7134 0.340721 0
M  V30 4817 N 464.123 0.554532 1.47522 0
M  V30 4818 C 465.071 -0.207765 2.3167 0
M  V30 4819 C 466.065 -0.911914 1.4276 0
M  V30 4820 O 467.271 -0.833504 1.59539 0
M  V30 4821 H 463.646 -0.0858726 0.747081 0
M  V30 4822 H 465.617 0.521178 2.93813 0
M  V30 4823 C 464.366 -1.2263 3.25357 0
M  V30 4824 H 463.689 -0.693887 3.93732 0
M  V30 4825 H 465.129 -1.73062 3.87073 0
M  V30 4826 C 463.588 -2.27278 2.4869 0
M  V30 4827 O 464.118 -3.34156 2.22941 0
M  V30 4828 N 462.324 -2.01134 2.09746 0
M  V30 4829 H 461.871 -1.14232 2.30887 0
M  V30 4830 H 461.829 -2.71369 1.58765 0
M  V30 4831 N 465.601 -1.54893 0.290851 0
M  V30 4832 C 466.829 -2.04343 -0.324288 0
M  V30 4833 C 467.244 -1.16859 -1.48289 0
M  V30 4834 O 466.601 -0.192018 -1.81487 0
M  V30 4835 C 466.652 -3.52756 -0.79026 0
M  V30 4836 O 466.373 -4.36913 0.322213 0
M  V30 4837 C 467.874 -4.18161 -1.4716 0
M  V30 4838 H 465.094 -0.667135 -0.0719173 0
M  V30 4839 H 467.638 -1.99981 0.427529 0
M  V30 4840 H 465.793 -3.57511 -1.49213 0
M  V30 4841 H 466.207 -5.24486 -0.0387372 0
M  V30 4842 H 467.681 -5.23562 -1.7489 0
M  V30 4843 H 468.158 -3.67282 -2.40834 0
M  V30 4844 H 468.764 -4.17454 -0.813178 0
M  V30 4845 N 467.08 -0.0183926 -1.57589 0
M  V30 4846 C 468.326 0.663543 -1.91638 0
M  V30 4847 C 468.659 1.72392 -0.894134 0
M  V30 4848 O 467.934 1.94316 0.0846449 0
M  V30 4849 C 468.217 1.28984 -3.36207 0
M  V30 4850 C 468.07 0.239761 -4.49161 0
M  V30 4851 C 469.389 2.2109 -3.80536 0
M  V30 4852 H 466.508 0.239746 -0.696915 0
M  V30 4853 H 469.15 -0.073456 -1.89858 0
M  V30 4854 H 467.3 1.91799 -3.37854 0
M  V30 4855 H 468.972 -0.390119 -4.59647 0
M  V30 4856 H 467.215 -0.435972 -4.31604 0
M  V30 4857 H 467.886 0.717383 -5.47319 0
M  V30 4858 H 470.362 1.68273 -3.80557 0
M  V30 4859 H 469.238 2.61869 -4.82406 0
M  V30 4860 H 469.499 3.09764 -3.15434 0
M  V30 4861 N 468.558 1.5553 0.254621 0
M  V30 4862 C 469.835 1.6774 1.00611 0
M  V30 4863 C 470.215 0.555993 2.03647 0
M  V30 4864 O 469.563 -0.441583 2.24193 0
M  V30 4865 C 469.773 3.07725 1.6464 0
M  V30 4866 C 471.121 3.66074 2.15116 0
M  V30 4867 O 472.145 3.10476 1.74595 0
M  V30 4868 O 471.004 4.63526 2.89493 0
M  V30 4869 H 468.098 0.681958 0.467828 0
M  V30 4870 H 470.644 1.67863 0.24902 0
M  V30 4871 H 469.416 3.80792 0.900734 0
M  V30 4872 H 469.039 3.1158 2.46989 0
M  V30 4873 N 470.036 -0.519951 1.48776 0
M  V30 4874 C 471.284 -1.2727 1.56993 0
M  V30 4875 C 471.605 -1.9339 0.25004 0
M  V30 4876 O 470.875 -1.81822 -0.729216 0
M  V30 4877 H 469.455 -0.472732 0.578389 0
M  V30 4878 H 472.117 -0.604234 1.85297 0
M  V30 4879 H 471.213 -2.04669 2.3562 0
M  V30 4880 N 471.514 -1.37532 -0.769588 0
M  V30 4881 C 472.461 -1.3347 -1.88293 0
M  V30 4882 C 473.431 -0.199891 -1.64893 0
M  V30 4883 O 474.616 -0.389594 -1.8678 0
M  V30 4884 C 471.756 -1.14968 -3.25387 0
M  V30 4885 C 470.869 -2.37698 -3.60727 0
M  V30 4886 C 470.004 -2.12051 -4.8704 0
M  V30 4887 C 469.043 -3.30636 -5.15117 0
M  V30 4888 N 468.18 -3.04527 -6.3262 0
M  V30 4889 H 473.02 -2.28658 -1.911 0
M  V30 4890 H 470.557 -1.13622 -0.934257 0
M  V30 4891 H 472.515 -1.02261 -4.04473 0
M  V30 4892 H 471.145 -0.234263 -3.21949 0
M  V30 4893 H 470.197 -2.61137 -2.76608 0
M  V30 4894 H 471.509 -3.26131 -3.77413 0
M  V30 4895 H 470.663 -1.96388 -5.74035 0
M  V30 4896 H 469.402 -1.20959 -4.72462 0
M  V30 4897 H 468.407 -3.46836 -4.26597 0
M  V30 4898 H 469.632 -4.22582 -5.31603 0
M  V30 4899 H 467.578 -2.16067 -6.19396 0
M  V30 4900 H 467.495 -3.86503 -6.49732 0
M  V30 4901 H 468.763 -2.92485 -7.22546 0
M  V30 4902 N 472.992 0.995999 -1.22138 0
M  V30 4903 C 474.222 1.76809 -1.06874 0
M  V30 4904 C 474.63 1.85265 0.383866 0
M  V30 4905 O 473.973 1.31969 1.27789 0
M  V30 4906 C 474.035 3.2186 -1.60144 0
M  V30 4907 C 473.699 3.36958 -3.0872 0
M  V30 4908 C 474.696 3.2452 -4.0618 0
M  V30 4909 C 472.381 3.62109 -3.48112 0
M  V30 4910 C 474.375 3.37013 -5.41019 0
M  V30 4911 C 472.062 3.74243 -4.831 0
M  V30 4912 C 473.06 3.61702 -5.79362 0
M  V30 4913 O 472.748 3.73436 -7.119 0
M  V30 4914 H 472.48 0.562207 -0.375365 0
M  V30 4915 H 475.034 1.26113 -1.62125 0
M  V30 4916 H 473.264 3.73734 -0.992981 0
M  V30 4917 H 474.953 3.80775 -1.40589 0
M  V30 4918 H 475.719 3.05004 -3.77091 0
M  V30 4919 H 471.598 3.70949 -2.73712 0
M  V30 4920 H 475.142 3.27141 -6.16137 0
M  V30 4921 H 471.039 3.93266 -5.11872 0
M  V30 4922 H 471.807 3.90328 -7.19435 0
M  V30 4923 N 474.47 1.03057 1.19235 0
M  V30 4924 C 475.698 0.747697 1.92917 0
M  V30 4925 C 476.113 -0.69372 1.75593 0
M  V30 4926 O 475.47 -1.47191 1.07894 0
M  V30 4927 C 475.521 1.09159 3.44625 0
M  V30 4928 O 475.242 2.47641 3.61394 0
M  V30 4929 C 476.743 0.831763 4.35427 0
M  V30 4930 H 473.963 0.273453 0.612751 0
M  V30 4931 H 476.507 1.37552 1.51327 0
M  V30 4932 H 474.662 0.508919 3.84043 0
M  V30 4933 H 475.076 2.60499 4.55237 0
M  V30 4934 H 476.55 1.12233 5.4047 0
M  V30 4935 H 477.027 -0.233769 4.38577 0
M  V30 4936 H 477.633 1.39725 4.01693 0
M  V30 4937 N 475.948 -1.35272 0.808662 0
M  V30 4938 C 476.878 -2.32315 0.234981 0
M  V30 4939 C 477.859 -1.57572 -0.64071 0
M  V30 4940 O 479.044 -1.8563 -0.570551 0
M  V30 4941 C 476.174 -3.41801 -0.615601 0
M  V30 4942 C 475.128 -4.27694 0.161767 0
M  V30 4943 C 474.454 -5.28519 -0.810649 0
M  V30 4944 C 475.754 -5.04231 1.36193 0
M  V30 4945 H 477.448 -2.80543 1.04575 0
M  V30 4946 H 474.994 -1.3488 0.504315 0
M  V30 4947 H 476.947 -4.08693 -1.02702 0
M  V30 4948 H 475.671 -2.92186 -1.45928 0
M  V30 4949 H 474.33 -3.62384 0.554382 0
M  V30 4950 H 473.978 -4.75171 -1.64988 0
M  V30 4951 H 473.678 -5.8686 -0.294822 0
M  V30 4952 H 475.202 -5.98283 -1.22023 0
M  V30 4953 H 476.616 -5.64058 1.02528 0
M  V30 4954 H 475.013 -5.72077 1.81239 0
M  V30 4955 H 476.083 -4.34753 2.14751 0
M  V30 4956 N 477.426 -0.562348 -1.47226 0
M  V30 4957 C 478.837 -0.130325 -1.86245 0
M  V30 4958 C 479.188 1.30128 -1.46838 0
M  V30 4959 O 478.313 1.97974 -0.873805 0
M  V30 4960 C 478.908 -0.229738 -3.3802 0
M  V30 4961 C 477.467 0.14728 -3.76112 0
M  V30 4962 C 476.614 -0.574971 -2.71274 0
M  V30 4963 H 479.565 -0.771773 -1.3867 0
M  V30 4964 H 479.586 0.550316 -3.76499 0
M  V30 4965 H 479.098 -1.27178 -3.66671 0
M  V30 4966 H 477.199 1.19023 -3.53078 0
M  V30 4967 H 477.312 -0.214858 -4.78618 0
M  V30 4968 H 475.676 -0.0174756 -2.54694 0
M  V30 4969 H 476.459 -1.61827 -3.02766 0
M  V30 4970 N 478.904 1.54736 -0.299062 0
M  V30 4971 C 479.834 2.26409 0.571085 0
M  V30 4972 C 480.815 1.2629 1.13951 0
M  V30 4973 O 482 1.55059 1.16921 0
M  V30 4974 C 479.13 3.00338 1.74396 0
M  V30 4975 C 478.084 4.07588 1.30599 0
M  V30 4976 C 477.41 4.69222 2.56387 0
M  V30 4977 C 478.71 5.20455 0.438645 0
M  V30 4978 H 480.404 2.99388 -0.0266991 0
M  V30 4979 H 477.95 1.43993 -0.0142812 0
M  V30 4980 H 479.903 3.49198 2.35878 0
M  V30 4981 H 478.627 2.24934 2.36796 0
M  V30 4982 H 477.286 3.59575 0.71424 0
M  V30 4983 H 476.934 3.9046 3.17097 0
M  V30 4984 H 476.634 5.41653 2.27784 0
M  V30 4985 H 478.158 5.20844 3.18675 0
M  V30 4986 H 479.572 5.65221 0.959085 0
M  V30 4987 H 477.969 5.99594 0.246466 0
M  V30 4988 H 479.039 4.8192 -0.536738 0
M  V30 4989 N 480.382 0.0267497 1.57577 0
M  V30 4990 C 481.61 -0.662661 1.96001 0
M  V30 4991 C 482.025 -1.65799 0.903117 0
M  V30 4992 O 481.382 -1.82135 -0.115317 0
M  V30 4993 C 481.433 -1.37112 3.34488 0
M  V30 4994 O 481.154 -0.415683 4.36123 0
M  V30 4995 C 482.655 -2.15257 3.8753 0
M  V30 4996 H 479.875 -0.18287 0.6456 0
M  V30 4997 H 482.419 0.0858116 2.0432 0
M  V30 4998 H 480.574 -2.07101 3.27395 0
M  V30 4999 H 480.988 -0.918496 5.16395 0
M  V30 5000 H 482.462 -2.60285 4.86781 0
M  V30 5001 H 482.939 -2.99063 3.21649 0
M  V30 5002 H 483.545 -1.50231 3.97883 0
M  V30 5003 N 481.861 -1.55662 -0.24637 0
M  V30 5004 C 482.824 -1.89558 -1.28842 0
M  V30 5005 C 483.824 -0.772082 -1.41052 0
M  V30 5006 O 485.014 -1.04007 -1.39743 0
M  V30 5007 C 482.146 -2.12449 -2.66605 0
M  V30 5008 H 483.339 -2.82735 -1.00004 0
M  V30 5009 H 480.892 -1.48562 -0.485684 0
M  V30 5010 H 481.627 -1.21742 -3.00582 0
M  V30 5011 H 481.412 -2.94273 -2.59125 0
M  V30 5012 H 482.902 -2.39854 -3.41847 0
M  V30 5013 N 483.339 0.512053 -1.4905 0
M  V30 5014 C 484.588 1.26343 -1.57227 0
M  V30 5015 C 484.901 1.93876 -0.259155 0
M  V30 5016 O 486.107 2.70612 -0.219358 0
M  V30 5017 C 484.563 2.29343 -2.77362 0
M  V30 5018 C 484.171 1.67799 -4.15388 0
M  V30 5019 C 485.915 3.05378 -2.94864 0
M  V30 5020 C 483.822 2.68845 -5.2676 0
M  V30 5021 H 482.752 0.475231 -0.585382 0
M  V30 5022 H 485.403 0.53862 -1.75417 0
M  V30 5023 H 483.785 3.04938 -2.52643 0
M  V30 5024 H 484.959 0.982715 -4.50199 0
M  V30 5025 H 483.274 1.04194 -4.03153 0
M  V30 5026 H 485.871 3.80921 -3.75238 0
M  V30 5027 H 486.214 3.62327 -2.05 0
M  V30 5028 H 486.747 2.36898 -3.19569 0
M  V30 5029 H 483.486 2.16692 -6.18647 0
M  V30 5030 H 483.006 3.36647 -4.96416 0
M  V30 5031 H 484.685 3.31487 -5.5563 0
M  V30 5032 N 484.817 1.37938 0.762283 0
M  V30 5033 C 485.765 1.34569 1.89721 0
M  V30 5034 C 486.759 0.232929 1.67791 0
M  V30 5035 O 487.965 0.401485 1.75465 0
M  V30 5036 H 484.34 0.419594 0.624055 0
M  V30 5037 H 486.311 2.30357 1.8968 0
M  V30 5038 C 485.06 1.17898 3.27101 0
M  V30 5039 H 484.383 2.02781 3.44558 0
M  V30 5040 H 485.823 1.19593 4.06784 0
M  V30 5041 C 484.282 -0.114728 3.36705 0
M  V30 5042 O 484.812 -1.0949 3.8649 0
M  V30 5043 N 483.018 -0.16863 2.9011 0
M  V30 5044 H 482.565 0.62967 2.49786 0
M  V30 5045 H 482.523 -1.03383 2.96916 0
M  V30 5046 N 486.295 -0.989507 1.22664 0
M  V30 5047 C 487.227 -2.0824 0.957542 0
M  V30 5048 C 488.24 -1.6267 -0.0651098 0
M  V30 5049 O 489.429 -1.77695 0.169312 0
M  V30 5050 C 486.529 -3.36298 0.419145 0
M  V30 5051 C 485.702 -4.10882 1.49982 0
M  V30 5052 C 484.761 -5.17221 0.967904 0
M  V30 5053 O 483.787 -5.44613 1.65487 0
M  V30 5054 N 484.989 -5.80124 -0.20896 0
M  V30 5055 H 487.754 -2.31904 1.89843 0
M  V30 5056 H 485.315 -1.15552 1.13399 0
M  V30 5057 H 487.307 -4.04671 0.0485451 0
M  V30 5058 H 485.877 -3.09671 -0.426937 0
M  V30 5059 H 485.097 -3.37092 2.04359 0
M  V30 5060 H 486.385 -4.57482 2.22682 0
M  V30 5061 H 485.783 -5.60244 -0.783818 0
M  V30 5062 H 484.34 -6.49715 -0.520913 0
M  V30 5063 N 487.773 -1.03688 -1.18687 0
M  V30 5064 C 489.02 -0.73803 -1.88572 0
M  V30 5065 C 489.348 0.733973 -1.8012 0
M  V30 5066 O 488.603 1.55098 -1.19344 0
M  V30 5067 C 488.902 -1.14477 -3.3857 0
M  V30 5068 C 488.568 -2.61641 -3.67226 0
M  V30 5069 C 487.23 -3.01846 -3.74757 0
M  V30 5070 C 489.582 -3.56812 -3.79914 0
M  V30 5071 C 486.91 -4.36118 -3.92451 0
M  V30 5072 C 489.262 -4.90799 -3.99123 0
M  V30 5073 C 487.926 -5.3068 -4.04888 0
M  V30 5074 H 487.196 -0.270064 -0.690034 0
M  V30 5075 H 489.843 -1.3012 -1.40503 0
M  V30 5076 H 488.148 -0.500337 -3.88592 0
M  V30 5077 H 489.845 -0.89095 -3.90977 0
M  V30 5078 H 486.435 -2.29498 -3.61979 0
M  V30 5079 H 490.619 -3.26899 -3.73431 0
M  V30 5080 H 485.875 -4.66542 -3.95157 0
M  V30 5081 H 490.049 -5.64451 -4.07882 0
M  V30 5082 H 487.676 -6.34733 -4.18351 0
M  V30 5083 N 489.251 1.34841 -0.815825 0
M  V30 5084 C 490.181 2.32187 -0.247298 0
M  V30 5085 C 491.162 1.5791 0.632344 0
M  V30 5086 O 492.347 1.8593 0.560698 0
M  V30 5087 C 489.477 3.42122 0.597466 0
M  V30 5088 C 488.431 4.27602 -0.184446 0
M  V30 5089 C 487.757 5.28942 0.782609 0
M  V30 5090 C 489.057 5.03502 -1.38865 0
M  V30 5091 H 490.751 2.79985 -1.06061 0
M  V30 5092 H 488.297 1.34611 -0.511461 0
M  V30 5093 H 490.25 4.09232 1.00533 0
M  V30 5094 H 488.974 2.92956 1.44376 0
M  V30 5095 H 487.633 3.62085 -0.573592 0
M  V30 5096 H 487.281 4.7604 1.62466 0
M  V30 5097 H 486.981 5.87008 0.263695 0
M  V30 5098 H 488.505 5.98922 1.18848 0
M  V30 5099 H 489.919 5.63506 -1.05518 0
M  V30 5100 H 488.316 5.71108 -1.8427 0
M  V30 5101 H 489.386 4.33608 -2.17054 0
M  V30 5102 N 490.729 0.570148 1.46925 0
M  V30 5103 C 491.957 0.0561966 2.06824 0
M  V30 5104 C 492.372 -1.24326 1.42086 0
M  V30 5105 O 491.729 -1.74882 0.521794 0
M  V30 5106 C 491.78 -0.129517 3.61268 0
M  V30 5107 O 491.501 1.1185 4.23581 0
M  V30 5108 C 493.002 -0.679266 4.38065 0
M  V30 5109 H 490.222 0.0517261 0.669003 0
M  V30 5110 H 492.766 0.787243 1.8874 0
M  V30 5111 H 490.921 -0.810739 3.78822 0
M  V30 5112 H 491.335 0.924375 5.1629 0
M  V30 5113 H 492.809 -0.758445 5.46765 0
M  V30 5114 H 493.286 -1.69346 4.05239 0
M  V30 5115 H 493.892 -0.0333237 4.25287 0
M  V30 5116 N 492.207 -1.54576 0.307264 0
M  V30 5117 C 493.453 -2.0056 -0.300612 0
M  V30 5118 C 493.786 -1.1953 -1.53057 0
M  V30 5119 O 493.061 -0.27337 -1.92569 0
M  V30 5120 C 493.344 -3.54167 -0.650987 0
M  V30 5121 C 493.197 -4.45933 0.588539 0
M  V30 5122 C 494.516 -4.14645 -1.47506 0
M  V30 5123 H 491.635 -0.729075 -0.107788 0
M  V30 5124 H 494.277 -1.85286 0.420606 0
M  V30 5125 H 492.427 -3.67313 -1.26544 0
M  V30 5126 H 494.099 -4.44683 1.22697 0
M  V30 5127 H 492.342 -4.16274 1.22058 0
M  V30 5128 H 493.013 -5.51189 0.299153 0
M  V30 5129 H 495.489 -4.04973 -0.955821 0
M  V30 5130 H 494.365 -5.22269 -1.68899 0
M  V30 5131 H 494.626 -3.66921 -2.4662 0
M  V30 5132 N 493.685 -0.035106 -1.57561 0
M  V30 5133 C 494.933 0.64096 -1.91667 0
M  V30 5134 C 495.254 1.72323 -0.912681 0
M  V30 5135 O 494.524 1.95849 0.0449089 0
M  V30 5136 H 493.104 0.239743 -0.707483 0
M  V30 5137 H 495.766 -0.084321 -1.94718 0
M  V30 5138 H 494.862 1.08987 -2.92452 0
M  V30 5139 N 495.163 1.55791 0.238111 0
M  V30 5140 C 496.411 1.77681 0.963001 0
M  V30 5141 C 496.732 0.600674 1.85518 0
M  V30 5142 O 496.002 -0.383182 1.92116 0
M  V30 5143 H 494.582 0.655315 0.358568 0
M  V30 5144 H 497.244 1.93239 0.253945 0
M  V30 5145 H 496.34 2.69177 1.57956 0
M  V30 5146 N 496.642 -0.504142 1.49319 0
M  V30 5147 C 497.552 -1.63248 1.68486 0
M  V30 5148 C 498.568 -1.64488 0.567432 0
M  V30 5149 O 499.744 -1.82966 0.841749 0
M  V30 5150 C 496.809 -2.99627 1.74426 0
M  V30 5151 C 495.87 -3.09039 2.97982 0
M  V30 5152 C 495.103 -4.38913 3.0363 0
M  V30 5153 O 495.326 -5.27528 2.16958 0
M  V30 5154 O 494.26 -4.53231 3.96062 0
M  V30 5155 H 498.086 -1.50008 2.64067 0
M  V30 5156 H 495.671 -0.680086 1.33023 0
M  V30 5157 H 497.553 -3.80689 1.80705 0
M  V30 5158 H 496.228 -3.13136 0.820233 0
M  V30 5159 H 495.135 -2.27177 2.97223 0
M  V30 5160 H 496.468 -3.00456 3.89855 0
M  V30 5161 N 498.12 -1.38341 -0.754957 0
M  V30 5162 C 499.366 -1.35678 -1.51536 0
M  V30 5163 C 499.721 0.0533985 -1.92326 0
M  V30 5164 O 499.014 1.01573 -1.6246 0
M  V30 5165 C 499.208 -2.2452 -2.78075 0
M  V30 5166 C 499.037 -3.74035 -2.49655 0
M  V30 5167 C 497.807 -4.43066 -2.42942 0
M  V30 5168 C 500.005 -4.665 -2.16523 0
M  V30 5169 N 497.987 -5.78026 -2.06783 0
M  V30 5170 C 499.358 -5.89962 -1.90644 0
M  V30 5171 C 501.413 -4.54718 -2.02821 0
M  V30 5172 C 500.116 -7.0296 -1.52444 0
M  V30 5173 C 502.142 -5.67618 -1.66023 0
M  V30 5174 C 501.504 -6.90141 -1.41015 0
M  V30 5175 H 497.603 -0.551764 -0.554148 0
M  V30 5176 H 500.187 -1.73716 -0.879258 0
M  V30 5177 H 498.358 -1.88673 -3.39496 0
M  V30 5178 H 500.09 -2.12993 -3.44116 0
M  V30 5179 H 496.845 -3.96264 -2.59367 0
M  V30 5180 H 497.269 -6.49394 -1.91353 0
M  V30 5181 H 501.911 -3.60546 -2.20831 0
M  V30 5182 H 499.629 -7.97051 -1.33174 0
M  V30 5183 H 503.215 -5.6048 -1.56055 0
M  V30 5184 H 502.095 -7.76021 -1.12965 0
M  V30 5185 N 499.598 0.982988 -1.23187 0
M  V30 5186 C 501.014 1.2487 -0.993967 0
M  V30 5187 C 501.214 1.99155 0.306498 0
M  V30 5188 O 500.27 2.30688 1.0266 0
M  V30 5189 C 501.583 2.05078 -2.19917 0
M  V30 5190 C 503.131 2.18227 -2.2438 0
M  V30 5191 C 503.606 3.01825 -3.44479 0
M  V30 5192 N 505.097 3.09411 -3.44702 0
M  V30 5193 C 505.832 3.74412 -4.34285 0
M  V30 5194 N 505.328 4.41259 -5.341 0
M  V30 5195 N 507.121 3.71273 -4.22035 0
M  V30 5196 H 499.272 0.485253 -2.06783 0
M  V30 5197 H 501.535 0.276979 -0.906635 0
M  V30 5198 H 501.241 1.57867 -3.14279 0
M  V30 5199 H 501.115 3.05829 -2.2079 0
M  V30 5200 H 503.502 2.64648 -1.30559 0
M  V30 5201 H 503.583 1.16873 -2.2754 0
M  V30 5202 H 503.227 2.56102 -4.38605 0
M  V30 5203 H 503.157 4.03342 -3.38559 0
M  V30 5204 H 505.648 2.61845 -2.7248 0
M  V30 5205 H 505.961 4.88629 -5.98717 0
M  V30 5206 H 504.306 4.39975 -5.38002 0
M  V30 5207 H 507.497 3.18217 -3.43301 0
M  V30 5208 H 507.67 4.21649 -4.92053 0
M  V30 5209 N 501.076 1.04316 1.18135 0
M  V30 5210 C 502.026 0.606731 2.19779 0
M  V30 5211 C 503.01 -0.352144 1.56999 0
M  V30 5212 O 504.202 -0.170795 1.76174 0
M  V30 5213 C 501.331 -0.0262443 3.4329 0
M  V30 5214 C 500.417 0.955928 4.13186 0
M  V30 5215 N 500.808 2.12395 4.59045 0
M  V30 5216 C 499.106 0.782473 4.39082 0
M  V30 5217 C 499.807 2.74458 5.12882 0
M  V30 5218 N 498.783 2.02316 5.04548 0
M  V30 5219 H 502.585 1.49679 2.5293 0
M  V30 5220 H 500.099 0.912088 1.34368 0
M  V30 5221 H 502.096 -0.356617 4.15372 0
M  V30 5222 H 500.756 -0.911811 3.11635 0
M  V30 5223 H 501.767 2.50272 4.53414 0
M  V30 5224 H 498.444 -0.0527906 4.17467 0
M  V30 5225 H 499.834 3.73459 5.5855 0
M  V30 5226 N 502.554 -1.34406 0.822964 0
M  V30 5227 C 503.831 -1.92733 0.333641 0
M  V30 5228 C 504.211 -1.75107 -1.17901 0
M  V30 5229 O 503.559 -1.12983 -1.98613 0
M  V30 5230 C 503.769 -3.40557 0.763023 0
M  V30 5231 C 505.117 -4.17709 0.761879 0
M  V30 5232 O 506.141 -3.49141 0.705606 0
M  V30 5233 O 505 -5.40082 0.835109 0
M  V30 5234 H 502.094 -0.821964 0.0911249 0
M  V30 5235 H 504.64 -1.4338 0.907757 0
M  V30 5236 H 503.412 -3.47187 1.8049 0
M  V30 5237 H 503.035 -3.97259 0.164605 0
M  V30 5238 N 504.032 -0.577932 -1.46621 0
M  V30 5239 C 504.979 0.158048 -2.30258 0
M  V30 5240 C 505.949 0.888669 -1.40328 0
M  V30 5241 O 507.134 0.880283 -1.6928 0
M  V30 5242 C 504.274 1.16884 -3.24703 0
M  V30 5243 C 503.387 0.442163 -4.29731 0
M  V30 5244 C 502.522 1.44007 -5.11308 0
M  V30 5245 C 501.561 0.69952 -6.0809 0
M  V30 5246 N 500.698 1.64525 -6.82551 0
M  V30 5247 H 505.538 -0.561242 -2.92667 0
M  V30 5248 H 503.075 -0.288591 -1.44241 0
M  V30 5249 H 505.033 1.7677 -3.779 0
M  V30 5250 H 503.663 1.85591 -2.64113 0
M  V30 5251 H 502.715 -0.271632 -3.79429 0
M  V30 5252 H 504.027 -0.136992 -4.98612 0
M  V30 5253 H 503.181 2.11186 -5.68758 0
M  V30 5254 H 501.92 2.05315 -4.42377 0
M  V30 5255 H 500.925 0.0139217 -5.49798 0
M  V30 5256 H 502.15 0.091894 -6.79038 0
M  V30 5257 H 500.096 2.24653 -6.16334 0
M  V30 5258 H 500.013 1.11878 -7.47676 0
M  V30 5259 H 501.281 2.30754 -7.44562 0
M  V30 5260 N 505.51 1.54411 -0.315457 0
M  V30 5261 C 506.44 2.27002 0.547039 0
M  V30 5262 C 507.421 1.27492 1.12605 0
M  V30 5263 O 508.606 1.5629 1.15269 0
M  V30 5264 C 505.736 3.02171 1.71201 0
M  V30 5265 C 504.69 4.0895 1.26268 0
M  V30 5266 C 504.016 4.71915 2.51396 0
M  V30 5267 C 505.316 5.20891 0.383419 0
M  V30 5268 H 507.01 2.99343 -0.0584517 0
M  V30 5269 H 504.556 1.4397 -0.0295527 0
M  V30 5270 H 506.509 3.51681 2.32161 0
M  V30 5271 H 505.233 2.27433 2.34397 0
M  V30 5272 H 503.892 3.60312 0.676062 0
M  V30 5273 H 503.54 3.93801 3.12937 0
M  V30 5274 H 503.24 5.44039 2.22026 0
M  V30 5275 H 504.764 5.24195 3.13133 0
M  V30 5276 H 506.178 5.66206 0.899082 0
M  V30 5277 H 504.575 5.99821 0.182857 0
M  V30 5278 H 505.645 4.81324 -0.587821 0
M  V30 5279 N 506.988 0.0434614 1.5754 0
M  V30 5280 C 508.213 -0.645358 1.97104 0
M  V30 5281 C 508.638 -1.64037 0.920521 0
M  V30 5282 O 507.996 -1.80922 -0.11708 0
M  V30 5283 C 508.044 -1.31547 3.35749 0
M  V30 5284 O 507.148 -2.43103 3.33129 0
M  V30 5285 H 506.489 -0.168403 0.64229 0
M  V30 5286 H 509.019 0.109573 2.04306 0
M  V30 5287 H 509.029 -1.66895 3.72304 0
M  V30 5288 H 507.704 -0.586205 4.11748 0
M  V30 5289 H 506.281 -2.0976 3.0831 0
M  V30 5290 N 508.466 -1.55915 -0.229846 0
M  V30 5291 C 509.743 -1.6932 -0.979295 0
M  V30 5292 C 510.123 -0.588321 -2.02736 0
M  V30 5293 O 509.471 0.40586 -2.24867 0
M  V30 5294 C 509.681 -3.10305 -1.59724 0
M  V30 5295 C 511.029 -3.6945 -2.09264 0
M  V30 5296 O 512.053 -3.13214 -1.69633 0
M  V30 5297 O 510.912 -4.68072 -2.82082 0
M  V30 5298 H 508.006 -0.689314 -0.456919 0
M  V30 5299 H 510.552 -1.68238 -0.222283 0
M  V30 5300 H 509.324 -3.82177 -0.840039 0
M  V30 5301 H 508.947 -3.1547 -2.42001 0
M  V30 5302 N 509.944 0.496216 -1.49584 0
M  V30 5303 C 510.907 1.57952 -1.66084 0
M  V30 5304 C 511.907 1.51729 -0.53244 0
M  V30 5305 O 513.097 1.54796 -0.79899 0
M  V30 5306 C 510.229 2.97604 -1.66268 0
M  V30 5307 H 511.422 1.44649 -2.6271 0
M  V30 5308 H 508.975 0.7208 -1.38687 0
M  V30 5309 H 509.71 3.16378 -0.712432 0
M  V30 5310 H 509.495 3.03528 -2.4822 0
M  V30 5311 H 510.985 3.76301 -1.81073 0
M  V30 5312 N 511.423 1.38739 0.74761 0
M  V30 5313 C 512.669 1.35475 1.50912 0
M  V30 5314 C 513.002 -0.0533093 1.94127 0
M  V30 5315 O 512.277 -1.01572 1.65871 0
M  V30 5316 C 512.56 2.31582 2.75757 0
M  V30 5317 C 512.413 3.81274 2.38642 0
M  V30 5318 C 513.732 2.25722 3.77806 0
M  V30 5319 H 510.851 0.493427 0.547447 0
M  V30 5320 H 513.493 1.69634 0.855823 0
M  V30 5321 H 511.643 2.02582 3.31501 0
M  V30 5322 H 513.315 4.20972 1.88626 0
M  V30 5323 H 511.558 3.98664 1.71025 0
M  V30 5324 H 512.229 4.4399 3.27989 0
M  V30 5325 H 514.705 2.51336 3.31616 0
M  V30 5326 H 513.581 2.95069 4.62845 0
M  V30 5327 H 513.842 1.25803 4.23823 0
M  V30 5328 N 512.901 -0.976442 1.23707 0
M  V30 5329 C 513.849 -2.09078 1.01927 0
M  V30 5330 C 514.843 -1.69345 -0.0430193 0
M  V30 5331 O 516.049 -1.79659 0.110814 0
M  V30 5332 H 512.424 -0.68398 0.312531 0
M  V30 5333 H 514.395 -2.24614 1.96447 0
M  V30 5334 C 513.144 -3.41919 0.631385 0
M  V30 5335 H 512.467 -3.72946 1.44053 0
M  V30 5336 H 513.907 -4.20817 0.518532 0
M  V30 5337 C 512.366 -3.30357 -0.660723 0
M  V30 5338 O 512.896 -3.63542 -1.70881 0
M  V30 5339 N 511.102 -2.83507 -0.638139 0
M  V30 5340 H 510.649 -2.567 0.215108 0
M  V30 5341 H 510.607 -2.76153 -1.50289 0
M  V30 5342 N 514.379 -1.04941 -1.1758 0
M  V30 5343 C 515.309 -0.669172 -2.23706 0
M  V30 5344 C 516.29 0.331835 -1.66832 0
M  V30 5345 O 517.475 0.209988 -1.93061 0
M  V30 5346 C 514.605 -0.0404889 -3.47276 0
M  V30 5347 C 513.559 -0.965983 -4.16957 0
M  V30 5348 C 512.885 -0.201312 -5.34321 0
M  V30 5349 C 514.185 -2.28902 -4.69469 0
M  V30 5350 H 515.879 -1.55639 -2.55767 0
M  V30 5351 H 513.425 -0.749793 -1.22939 0
M  V30 5352 H 515.378 0.237298 -4.20731 0
M  V30 5353 H 514.102 0.881658 -3.14475 0
M  V30 5354 H 512.761 -1.22829 -3.45411 0
M  V30 5355 H 512.409 0.723519 -4.97769 0
M  V30 5356 H 512.109 -0.817968 -5.81879 0
M  V30 5357 H 513.633 0.0692499 -6.10561 0
M  V30 5358 H 515.047 -2.07132 -5.34574 0
M  V30 5359 H 513.444 -2.85942 -5.27596 0
M  V30 5360 H 514.514 -2.92937 -3.86414 0
M  V30 5361 N 515.857 1.33968 -0.830081 0
M  V30 5362 C 517.085 2.0228 -0.434773 0
M  V30 5363 C 517.5 1.62487 0.961419 0
M  V30 5364 O 516.857 0.833849 1.62337 0
M  V30 5365 C 516.908 3.5751 -0.535625 0
M  V30 5366 O 516.629 3.95864 -1.87679 0
M  V30 5367 C 518.13 4.43091 -0.136137 0
M  V30 5368 H 515.35 0.648151 -0.173613 0
M  V30 5369 H 517.894 1.71089 -1.12022 0
M  V30 5370 H 516.049 3.87266 0.101817 0
M  V30 5371 H 516.463 4.9056 -1.85609 0
M  V30 5372 H 517.937 5.51398 -0.257772 0
M  V30 5373 H 518.414 4.29433 0.921076 0
M  V30 5374 H 519.02 4.18677 -0.747662 0
M  V30 5375 N 517.335 0.585699 1.46312 0
M  V30 5376 C 518.583 0.072278 2.01971 0
M  V30 5377 C 518.904 -1.29345 1.45928 0
M  V30 5378 O 518.174 -1.84973 0.645109 0
M  V30 5379 H 516.754 0.023729 0.746623 0
M  V30 5380 H 519.416 0.762155 1.7938 0
M  V30 5381 H 518.512 0.00552767 3.121 0
M  V30 5382 N 518.813 -1.54241 0.323641 0
M  V30 5383 C 520.061 -2.00174 -0.278359 0
M  V30 5384 C 520.382 -1.2134 -1.52648 0
M  V30 5385 O 519.652 -0.315244 -1.93347 0
M  V30 5386 H 518.232 -0.739463 -0.105845 0
M  V30 5387 H 520.894 -1.89864 0.440204 0
M  V30 5388 H 519.99 -3.07486 -0.5347 0
M  V30 5389 N 520.291 -0.0518155 -1.57515 0
M  V30 5390 C 521.519 0.631395 -1.9703 0
M  V30 5391 C 521.934 1.64341 -0.92938 0
M  V30 5392 O 521.291 1.82296 0.0863266 0
M  V30 5393 C 521.342 1.31774 -3.36627 0
M  V30 5394 O 521.063 0.346247 -4.3673 0
M  V30 5395 C 522.564 2.09065 -3.90905 0
M  V30 5396 H 519.784 0.172576 -0.648428 0
M  V30 5397 H 522.328 -0.118306 -2.04158 0
M  V30 5398 H 520.483 2.01867 -3.30649 0
M  V30 5399 H 520.897 0.836226 -5.17791 0
M  V30 5400 H 522.371 2.52508 -4.9086 0
M  V30 5401 H 522.848 2.93908 -3.26366 0
M  V30 5402 H 523.454 1.43882 -4.00223 0
M  V30 5403 N 521.769 1.56035 0.221574 0
M  V30 5404 C 522.994 1.83476 0.967026 0
M  V30 5405 C 523.419 0.632139 1.7716 0
M  V30 5406 O 522.777 -0.419082 1.7639 0
M  V30 5407 C 522.825 3.08907 1.86034 0
M  V30 5408 O 521.929 2.876 2.95567 0
M  V30 5409 H 521.27 0.604913 0.273817 0
M  V30 5410 H 523.8 2.03247 0.234893 0
M  V30 5411 H 523.81 3.3901 2.27016 0
M  V30 5412 H 522.485 3.96068 1.26898 0
M  V30 5413 H 521.062 2.6873 2.58532 0
M  V30 5414 N 523.247 -0.488276 1.49845 0
M  V30 5415 C 524.472 -1.26997 1.63971 0
M  V30 5416 C 524.897 -1.85427 0.315994 0
M  V30 5417 O 524.255 -1.66475 -0.718032 0
M  V30 5418 C 524.303 -2.36689 2.72049 0
M  V30 5419 O 523.407 -3.40882 2.32107 0
M  V30 5420 H 522.748 -0.374376 0.548396 0
M  V30 5421 H 525.278 -0.583104 1.96115 0
M  V30 5422 H 525.288 -2.82262 2.94605 0
M  V30 5423 H 523.963 -1.93529 3.68129 0
M  V30 5424 H 522.54 -3.01139 2.19931 0
M  V30 5425 N 524.725 -1.39134 -0.740242 0
M  V30 5426 C 525.672 -1.37434 -1.8542 0
M  V30 5427 C 526.642 -0.234822 -1.64432 0
M  V30 5428 O 527.827 -0.429125 -1.85912 0
M  V30 5429 C 524.967 -1.21844 -3.22875 0
M  V30 5430 C 524.08 -2.45296 -3.55603 0
M  V30 5431 C 523.215 -2.22334 -4.82432 0
M  V30 5432 C 522.254 -3.41488 -5.07988 0
M  V30 5433 N 521.391 -3.17877 -6.26018 0
M  V30 5434 H 526.231 -2.3266 -1.86207 0
M  V30 5435 H 523.768 -1.15578 -0.909946 0
M  V30 5436 H 525.726 -1.10818 -4.02213 0
M  V30 5437 H 524.356 -0.3025 -3.21379 0
M  V30 5438 H 523.408 -2.66945 -2.71006 0
M  V30 5439 H 524.72 -3.34063 -3.7041 0
M  V30 5440 H 523.874 -2.0852 -5.69741 0
M  V30 5441 H 522.613 -1.30954 -4.6979 0
M  V30 5442 H 521.618 -3.55807 -4.19144 0
M  V30 5443 H 522.843 -4.33763 -5.22519 0
M  V30 5444 H 520.789 -2.29156 -6.14673 0
M  V30 5445 H 520.706 -4.00198 -6.41387 0
M  V30 5446 H 521.974 -3.07746 -7.16179 0
M  V30 5447 N 526.204 0.969867 -1.24223 0
M  V30 5448 C 527.432 1.74756 -1.10761 0
M  V30 5449 C 527.847 1.85713 0.340041 0
M  V30 5450 O 527.204 1.34389 1.23474 0
M  V30 5451 C 527.255 3.16915 -1.73917 0
M  V30 5452 O 526.976 3.06511 -3.13021 0
M  V30 5453 C 528.477 4.11032 -1.66036 0
M  V30 5454 H 525.697 0.548092 -0.387087 0
M  V30 5455 H 528.241 1.2178 -1.64286 0
M  V30 5456 H 526.396 3.66884 -1.244 0
M  V30 5457 H 526.81 3.96079 -3.43834 0
M  V30 5458 H 528.284 5.08446 -2.14911 0
M  V30 5459 H 528.761 4.34785 -0.621159 0
M  V30 5460 H 529.367 3.66972 -2.14969 0
M  V30 5461 N 527.682 1.05563 1.17022 0
M  V30 5462 C 528.907 0.788437 1.91829 0
M  V30 5463 C 529.332 -0.650356 1.76499 0
M  V30 5464 O 528.69 -1.45229 1.08527 0
M  V30 5465 C 528.738 1.1786 3.40795 0
M  V30 5466 O 527.842 0.312965 4.11211 0
M  V30 5467 H 527.183 0.288794 0.597908 0
M  V30 5468 H 529.713 1.40948 1.48307 0
M  V30 5469 H 529.723 1.14697 3.91546 0
M  V30 5470 H 528.398 2.22666 3.51273 0
M  V30 5471 H 526.975 0.405515 3.70689 0
M  V30 5472 N 529.16 -1.33526 0.837174 0
M  V30 5473 C 530.123 -2.27551 0.274421 0
M  V30 5474 C 531.123 -1.50886 -0.555881 0
M  V30 5475 O 532.313 -1.70227 -0.369918 0
M  V30 5476 C 529.445 -3.35332 -0.613605 0
M  V30 5477 H 530.638 -2.78837 1.10408 0
M  V30 5478 H 528.191 -1.439 0.610126 0
M  V30 5479 H 528.926 -2.89285 -1.46577 0
M  V30 5480 H 528.711 -3.92095 -0.0195341 0
M  V30 5481 H 530.201 -4.05433 -1.00068 0
M  V30 5482 N 530.638 -0.59345 -1.46 0
M  V30 5483 C 531.863 -0.0872365 -2.07216 0
M  V30 5484 C 532.288 1.2131 -1.43755 0
M  V30 5485 O 531.646 1.73528 -0.525152 0
M  V30 5486 C 531.694 0.0538197 -3.6056 0
M  V30 5487 O 530.798 1.10765 -3.97247 0
M  V30 5488 H 530.139 -0.0676598 -0.660544 0
M  V30 5489 H 532.669 -0.819445 -1.87473 0
M  V30 5490 H 532.679 0.256567 -4.07193 0
M  V30 5491 H 531.354 -0.895739 -4.0614 0
M  V30 5492 H 529.931 0.882501 -3.62307 0
M  V30 5493 N 532.116 1.54067 -0.331816 0
M  V30 5494 C 533.048 2.22139 0.564538 0
M  V30 5495 C 534.061 1.22408 1.07332 0
M  V30 5496 O 535.25 1.4883 0.985481 0
M  V30 5497 C 532.35 2.87876 1.78831 0
M  V30 5498 C 531.523 4.13817 1.41682 0
M  V30 5499 C 530.582 4.63072 2.49901 0
M  V30 5500 O 529.608 5.27562 2.13699 0
M  V30 5501 N 530.81 4.38001 3.80967 0
M  V30 5502 H 533.575 2.99694 -0.0183736 0
M  V30 5503 H 531.136 1.61153 -0.155396 0
M  V30 5504 H 533.128 3.17747 2.50637 0
M  V30 5505 H 531.698 2.13977 2.27887 0
M  V30 5506 H 530.918 3.9062 0.530044 0
M  V30 5507 H 532.206 4.95762 1.14443 0
M  V30 5508 H 531.604 3.864 4.13173 0
M  V30 5509 H 530.161 4.72507 4.48977 0
M  V30 5510 N 533.594 0.0601682 1.57485 0
M  V30 5511 C 534.824 -0.620037 1.97076 0
M  V30 5512 C 535.232 -1.64381 0.936784 0
M  V30 5513 O 534.575 -1.83497 -0.0863377 0
M  V30 5514 C 534.637 -1.35617 3.32939 0
M  V30 5515 C 534.301 -0.487208 4.54396 0
M  V30 5516 C 535.298 0.250428 5.19297 0
M  V30 5517 C 532.983 -0.415494 5.00579 0
M  V30 5518 C 534.977 1.04812 6.28723 0
M  V30 5519 C 532.664 0.385879 6.0988 0
M  V30 5520 C 533.662 1.11637 6.73815 0
M  V30 5521 O 533.35 1.90454 7.81014 0
M  V30 5522 H 533.082 -0.173664 0.653312 0
M  V30 5523 H 535.636 0.1256 2.05016 0
M  V30 5524 H 533.866 -2.14763 3.2158 0
M  V30 5525 H 535.555 -1.92749 3.57215 0
M  V30 5526 H 536.321 0.204546 4.84568 0
M  V30 5527 H 532.2 -0.973679 4.506 0
M  V30 5528 H 535.744 1.6188 6.78558 0
M  V30 5529 H 531.641 0.433366 6.44044 0
M  V30 5530 H 532.409 1.82762 7.97835 0
M  V30 5531 N 535.072 -1.5615 -0.213296 0
M  V30 5532 C 536.035 -1.92249 -1.24792 0
M  V30 5533 C 537.035 -0.801828 -1.39382 0
M  V30 5534 O 538.225 -1.06948 -1.37506 0
M  V30 5535 C 535.357 -2.18056 -2.62039 0
M  V30 5536 H 536.55 -2.84793 -0.939845 0
M  V30 5537 H 534.103 -1.49559 -0.454062 0
M  V30 5538 H 534.838 -1.2809 -2.97932 0
M  V30 5539 H 534.623 -2.99703 -2.52825 0
M  V30 5540 H 536.113 -2.47051 -3.36683 0
M  V30 5541 N 536.55 0.480323 -1.50102 0
M  V30 5542 C 537.48 1.58769 -1.71215 0
M  V30 5543 C 538.461 1.60583 -0.560997 0
M  V30 5544 O 539.646 1.76996 -0.799127 0
M  V30 5545 C 536.776 2.97148 -1.79778 0
M  V30 5546 C 535.73 3.10201 -2.94888 0
M  V30 5547 C 535.056 4.50137 -2.88584 0
M  V30 5548 C 536.356 2.88283 -4.35534 0
M  V30 5549 H 538.05 1.41354 -2.6393 0
M  V30 5550 H 535.596 0.678591 -1.27008 0
M  V30 5551 H 537.549 3.74536 -1.93133 0
M  V30 5552 H 536.273 3.15699 -0.836772 0
M  V30 5553 H 534.932 2.35244 -2.81169 0
M  V30 5554 H 534.58 4.65593 -1.90349 0
M  V30 5555 H 534.28 4.59808 -3.65856 0
M  V30 5556 H 535.804 5.29558 -3.03976 0
M  V30 5557 H 537.218 3.55427 -4.49827 0
M  V30 5558 H 535.615 3.09408 -5.14186 0
M  V30 5559 H 536.685 1.84219 -4.48544 0
M  V30 5560 N 538.028 1.39524 0.732853 0
M  V30 5561 C 539.275 1.36865 1.49246 0
M  V30 5562 C 539.603 -0.0347118 1.94469 0
M  V30 5563 O 538.858 -1.01596 1.67262 0
M  V30 5564 C 539.157 2.28916 2.74468 0
M  V30 5565 C 538.823 3.76506 2.481 0
M  V30 5566 C 537.485 4.16721 2.40619 0
M  V30 5567 C 539.837 4.69846 2.25598 0
M  V30 5568 C 537.165 5.48334 2.08679 0
M  V30 5569 C 539.517 6.01739 1.95174 0
M  V30 5570 C 538.181 6.41015 1.86163 0
M  V30 5571 H 537.451 0.500824 0.546129 0
M  V30 5572 H 540.098 1.72047 0.840958 0
M  V30 5573 H 538.403 1.86859 3.4437 0
M  V30 5574 H 540.1 2.2415 3.32502 0
M  V30 5575 H 536.69 3.44635 2.54803 0
M  V30 5576 H 540.874 4.39608 2.30344 0
M  V30 5577 H 536.13 5.77685 2.00226 0
M  V30 5578 H 540.304 6.73591 1.76771 0
M  V30 5579 H 537.931 7.42917 1.61179 0
M  V30 5580 N 539.506 -0.963266 1.24736 0
M  V30 5581 C 540.752 -1.70933 1.09131 0
M  V30 5582 C 541.085 -1.90676 -0.368273 0
M  V30 5583 O 540.36 -1.47147 -1.27193 0
M  V30 5584 C 540.643 -3.09744 1.83658 0
M  V30 5585 C 540.496 -2.97465 3.37394 0
M  V30 5586 C 541.815 -4.09483 1.61282 0
M  V30 5587 H 538.934 -0.620398 0.397838 0
M  V30 5588 H 541.576 -1.12028 1.53459 0
M  V30 5589 H 539.726 -3.60031 1.4598 0
M  V30 5590 H 541.398 -2.54571 3.84696 0
M  V30 5591 H 539.641 -2.33576 3.65547 0
M  V30 5592 H 540.312 -3.95822 3.84745 0
M  V30 5593 H 542.788 -3.68073 1.94066 0
M  V30 5594 H 541.664 -5.04666 2.15878 0
M  V30 5595 H 541.925 -4.38639 0.552102 0
M  V30 5596 N 540.985 -1.06182 -1.16461 0
M  V30 5597 C 541.895 -0.682671 -2.24448 0
M  V30 5598 C 542.911 0.30078 -1.71381 0
M  V30 5599 O 544.087 0.150376 -2.00838 0
M  V30 5600 C 541.152 -0.0737202 -3.46622 0
M  V30 5601 C 540.213 -1.10889 -4.14731 0
M  V30 5602 C 539.446 -0.528908 -5.31073 0
M  V30 5603 O 539.669 0.65868 -5.66584 0
M  V30 5604 O 538.603 -1.26805 -5.88391 0
M  V30 5605 H 542.429 -1.58291 -2.59187 0
M  V30 5606 H 540.014 -0.834013 -1.23954 0
M  V30 5607 H 541.896 0.264192 -4.20571 0
M  V30 5608 H 540.571 0.800015 -3.13658 0
M  V30 5609 H 539.478 -1.49896 -3.42756 0
M  V30 5610 H 540.811 -1.95412 -4.51747 0
M  V30 5611 N 542.463 1.3308 -0.844243 0
M  V30 5612 C 543.74 1.92178 -0.364261 0
M  V30 5613 C 544.12 1.76961 1.15101 0
M  V30 5614 O 543.468 1.16128 1.9679 0
M  V30 5615 C 543.678 3.393 -0.817106 0
M  V30 5616 C 545.026 4.16444 -0.828236 0
M  V30 5617 O 546.05 3.47975 -0.761062 0
M  V30 5618 O 544.909 5.38685 -0.920926 0
M  V30 5619 H 542.003 0.820411 -0.10419 0
M  V30 5620 H 544.549 1.41918 -0.930453 0
M  V30 5621 H 543.321 3.44272 -1.85991 0
M  V30 5622 H 542.944 3.96947 -0.227785 0
M  V30 5623 N 543.941 0.601185 1.45683 0
M  V30 5624 C 544.851 -0.123395 2.34275 0
M  V30 5625 C 545.867 -0.86702 1.5086 0
M  V30 5626 O 547.043 -0.826049 1.8368 0
M  V30 5627 C 544.108 -1.11237 3.2837 0
M  V30 5628 C 543.169 -0.371405 4.2769 0
M  V30 5629 C 542.402 -1.31327 5.1729 0
M  V30 5630 O 542.625 -2.55078 5.10188 0
M  V30 5631 O 541.559 -0.813811 5.96373 0
M  V30 5632 H 545.385 0.604483 2.97623 0
M  V30 5633 H 542.97 0.361477 1.44961 0
M  V30 5634 H 544.852 -1.68214 3.8637 0
M  V30 5635 H 543.527 -1.82139 2.67595 0
M  V30 5636 H 542.434 0.24067 3.73325 0
M  V30 5637 H 543.767 0.296998 4.91303 0
M  V30 5638 N 545.419 -1.53889 0.339982 0
M  V30 5639 C 546.665 -2.01849 -0.250694 0
M  V30 5640 C 547.02 -1.22356 -1.48482 0
M  V30 5641 O 546.313 -0.301906 -1.89206 0
M  V30 5642 C 546.507 -3.51968 -0.620735 0
M  V30 5643 C 546.336 -4.45996 0.575981 0
M  V30 5644 C 545.106 -4.93619 1.08019 0
M  V30 5645 C 547.304 -4.93923 1.43332 0
M  V30 5646 N 545.286 -5.7159 2.2396 0
M  V30 5647 C 546.657 -5.69982 2.43969 0
M  V30 5648 C 548.712 -4.76038 1.45918 0
M  V30 5649 C 547.415 -6.30057 3.47016 0
M  V30 5650 C 549.441 -5.36961 2.47845 0
M  V30 5651 C 548.803 -6.12884 3.47208 0
M  V30 5652 H 544.902 -0.780054 -0.0551368 0
M  V30 5653 H 547.486 -1.88722 0.478741 0
M  V30 5654 H 545.657 -3.65308 -1.31928 0
M  V30 5655 H 547.389 -3.86677 -1.19429 0
M  V30 5656 H 544.144 -4.69134 0.64884 0
M  V30 5657 H 544.568 -6.15247 2.82489 0
M  V30 5658 H 549.21 -4.16887 0.704608 0
M  V30 5659 H 546.928 -6.88319 4.23371 0
M  V30 5660 H 550.514 -5.2503 2.50668 0
M  V30 5661 H 549.394 -6.59187 4.24785 0
M  V30 5662 N 546.897 -0.0685191 -1.57451 0
M  V30 5663 C 548.313 0.288101 -1.56978 0
M  V30 5664 C 548.513 1.70262 -1.07765 0
M  V30 5665 O 547.569 2.4135 -0.742054 0
M  V30 5666 C 548.882 0.100745 -3.00531 0
M  V30 5667 C 550.43 0.170531 -3.12535 0
M  V30 5668 C 550.905 0.0114944 -4.57999 0
M  V30 5669 N 552.396 0.0672065 -4.63151 0
M  V30 5670 C 553.131 -0.0314813 -5.73391 0
M  V30 5671 N 552.627 -0.183503 -6.92557 0
M  V30 5672 N 554.42 0.0253489 -5.62094 0
M  V30 5673 H 546.571 -0.993026 -1.87757 0
M  V30 5674 H 548.834 -0.386981 -0.865419 0
M  V30 5675 H 548.54 -0.875197 -3.40636 0
M  V30 5676 H 548.414 0.854457 -3.67395 0
M  V30 5677 H 550.801 1.13696 -2.72318 0
M  V30 5678 H 550.882 -0.614229 -2.48316 0
M  V30 5679 H 550.526 -0.951684 -4.98904 0
M  V30 5680 H 550.456 0.815617 -5.20245 0
M  V30 5681 H 552.947 0.183246 -3.77455 0
M  V30 5682 H 553.26 -0.251041 -7.72392 0
M  V30 5683 H 551.605 -0.218822 -6.94655 0
M  V30 5684 H 554.796 0.142794 -4.67882 0
M  V30 5685 H 554.969 -0.0550166 -6.47977 0
M  V30 5686 N 548.375 1.56261 0.205012 0
M  V30 5687 C 549.624 1.79236 0.925058 0
M  V30 5688 C 549.937 0.640011 1.84833 0
M  V30 5689 O 551.143 0.753809 2.60826 0
M  V30 5690 C 549.599 3.17475 1.69522 0
M  V30 5691 C 549.207 4.40482 0.817269 0
M  V30 5692 C 550.951 3.49766 2.4055 0
M  V30 5693 C 548.858 5.69744 1.58573 0
M  V30 5694 H 547.788 0.668287 0.349153 0
M  V30 5695 H 550.439 1.82629 0.178544 0
M  V30 5696 H 548.821 3.08304 2.48526 0
M  V30 5697 H 549.995 4.60752 0.0665988 0
M  V30 5698 H 548.31 4.15827 0.218316 0
M  V30 5699 H 550.907 4.43573 2.98575 0
M  V30 5700 H 551.25 2.73041 3.14252 0
M  V30 5701 H 551.783 3.60341 1.68522 0
M  V30 5702 H 548.522 6.49407 0.891679 0
M  V30 5703 H 548.042 5.53509 2.31059 0
M  V30 5704 H 549.721 6.1051 2.14212 0
M  V30 5705 N 549.853 -0.472356 1.50355 0
M  V30 5706 C 551.1 -1.22453 1.61281 0
M  V30 5707 C 551.428 -1.91972 0.31256 0
M  V30 5708 O 550.683 -1.82696 -0.701475 0
M  V30 5709 C 550.982 -2.29257 2.74182 0
M  V30 5710 C 550.648 -1.76999 4.14708 0
M  V30 5711 C 549.31 -1.62467 4.52944 0
M  V30 5712 C 551.662 -1.38215 5.0254 0
M  V30 5713 C 548.99 -1.07574 5.76754 0
M  V30 5714 C 551.342 -0.847638 6.26895 0
M  V30 5715 C 550.006 -0.688946 6.63935 0
M  V30 5716 H 549.276 -0.448087 0.590168 0
M  V30 5717 H 551.923 -0.520744 1.84284 0
M  V30 5718 H 550.228 -3.05538 2.45263 0
M  V30 5719 H 551.925 -2.87212 2.7984 0
M  V30 5720 H 548.515 -1.89276 3.84542 0
M  V30 5721 H 552.699 -1.48276 4.73633 0
M  V30 5722 H 547.955 -0.940237 6.04127 0
M  V30 5723 H 552.129 -0.538455 6.94315 0
M  V30 5724 H 549.756 -0.261435 7.5975 0
M  V30 5725 N 551.331 -1.39911 -0.725443 0
M  V30 5726 C 552.241 -1.41688 -1.8698 0
M  V30 5727 C 553.257 -0.310579 -1.71206 0
M  V30 5728 O 554.433 -0.55359 -1.93642 0
M  V30 5729 C 551.498 -1.26811 -3.22676 0
M  V30 5730 C 550.559 -2.47497 -3.50776 0
M  V30 5731 C 549.792 -2.3332 -4.79997 0
M  V30 5732 O 550.015 -1.34175 -5.54394 0
M  V30 5733 O 548.949 -3.22498 -5.08211 0
M  V30 5734 H 552.775 -2.38171 -1.88436 0
M  V30 5735 H 550.36 -1.21128 -0.874548 0
M  V30 5736 H 552.242 -1.20684 -4.03749 0
M  V30 5737 H 550.917 -0.334289 -3.21969 0
M  V30 5738 H 549.824 -2.59201 -2.69751 0
M  V30 5739 H 551.157 -3.39606 -3.5627 0
M  V30 5740 N 552.809 0.956637 -1.25245 0
M  V30 5741 C 554.22 1.51569 -1.09012 0
M  V30 5742 C 554.571 1.93322 0.334813 0
M  V30 5743 O 553.696 1.78421 1.22454 0
M  V30 5744 C 554.291 2.75444 -1.97271 0
M  V30 5745 C 552.85 3.27669 -1.8523 0
M  V30 5746 C 551.997 2.00517 -1.91542 0
M  V30 5747 H 554.948 0.773746 -1.3856 0
M  V30 5748 H 554.969 3.4919 -1.51151 0
M  V30 5749 H 554.481 2.45024 -3.00973 0
M  V30 5750 H 552.582 3.62914 -0.844045 0
M  V30 5751 H 552.695 3.9582 -2.69932 0
M  V30 5752 H 551.059 2.15727 -1.35404 0
M  V30 5753 H 551.842 1.72448 -2.96844 0
M  V30 5754 N 554.287 1.06798 1.15896 0
M  V30 5755 C 555.217 0.704677 2.22613 0
M  V30 5756 C 556.198 -0.305252 1.67339 0
M  V30 5757 O 557.383 -0.179247 1.93371 0
M  V30 5758 C 554.513 0.0957325 3.47168 0
M  V30 5759 C 553.467 1.0322 4.15367 0
M  V30 5760 C 552.793 0.286293 5.33933 0
M  V30 5761 C 554.093 2.36341 4.65768 0
M  V30 5762 H 555.787 1.59688 2.53259 0
M  V30 5763 H 553.333 0.769257 1.21731 0
M  V30 5764 H 555.286 -0.170333 4.21056 0
M  V30 5765 H 554.01 -0.831516 3.15838 0
M  V30 5766 H 552.669 1.28309 3.43413 0
M  V30 5767 H 552.317 -0.644237 4.98857 0
M  V30 5768 H 552.017 0.910436 5.80504 0
M  V30 5769 H 553.541 0.0278938 6.10594 0
M  V30 5770 H 554.955 2.1561 5.31211 0
M  V30 5771 H 553.352 2.94299 5.2298 0
M  V30 5772 H 554.422 2.99047 3.81705 0
M  V30 5773 N 555.766 -1.3263 0.851289 0
M  V30 5774 C 556.729 -2.27247 0.298541 0
M  V30 5775 C 557.729 -1.51467 -0.539847 0
M  V30 5776 O 558.919 -1.7061 -0.351843 0
M  V30 5777 C 556.051 -3.35964 -0.578004 0
M  V30 5778 H 557.244 -2.7765 1.13359 0
M  V30 5779 H 554.797 -1.43245 0.625354 0
M  V30 5780 H 555.532 -2.90823 -1.435 0
M  V30 5781 H 555.317 -3.92094 0.0220539 0
M  V30 5782 H 556.807 -4.06472 -0.957626 0
M  V30 5783 N 557.244 -0.608902 -1.45362 0
M  V30 5784 C 558.174 0.0964526 -2.33301 0
M  V30 5785 C 559.155 0.857444 -1.46908 0
M  V30 5786 O 560.34 0.827735 -1.75676 0
M  V30 5787 C 557.47 1.09354 -3.29635 0
M  V30 5788 C 556.424 0.445676 -4.25673 0
M  V30 5789 C 555.75 1.5511 -5.11708 0
M  V30 5790 C 557.05 -0.633972 -5.18438 0
M  V30 5791 H 558.744 -0.637829 -2.92527 0
M  V30 5792 H 556.29 -0.308178 -1.40664 0
M  V30 5793 H 558.243 1.59556 -3.90025 0
M  V30 5794 H 556.967 1.85843 -2.6857 0
M  V30 5795 H 555.626 -0.0354897 -3.66583 0
M  V30 5796 H 555.274 2.30631 -4.4701 0
M  V30 5797 H 554.974 1.12311 -5.76767 0
M  V30 5798 H 556.498 2.05537 -5.74967 0
M  V30 5799 H 557.912 -0.215974 -5.72893 0
M  V30 5800 H 556.309 -0.983789 -5.91981 0
M  V30 5801 H 557.379 -1.51005 -4.60788 0
M  V30 5802 N 558.722 1.53707 -0.348139 0
M  V30 5803 C 559.95 2.05406 0.248224 0
M  V30 5804 C 560.365 1.22282 1.43849 0
M  V30 5805 O 559.722 0.259244 1.80649 0
M  V30 5806 C 559.773 3.55446 0.658793 0
M  V30 5807 O 559.494 4.35417 -0.484149 0
M  V30 5808 C 560.995 4.23335 1.31539 0
M  V30 5809 H 558.215 0.669344 0.0471075 0
M  V30 5810 H 560.759 1.98257 -0.501456 0
M  V30 5811 H 558.914 3.62803 1.35841 0
M  V30 5812 H 559.328 5.24268 -0.155949 0
M  V30 5813 H 560.802 5.29692 1.55338 0
M  V30 5814 H 561.279 3.75967 2.27036 0
M  V30 5815 H 561.885 4.20184 0.657683 0
M  V30 5816 N 560.2 0.0768682 1.57412 0
M  V30 5817 C 561.428 -0.59997 1.9801 0
M  V30 5818 C 561.843 -1.62842 0.955408 0
M  V30 5819 O 561.2 -1.8241 -0.057314 0
M  V30 5820 C 561.251 -1.26401 3.38681 0
M  V30 5821 O 560.972 -0.276723 4.37225 0
M  V30 5822 C 562.473 -2.0282 3.94182 0
M  V30 5823 H 559.693 -0.162239 0.651091 0
M  V30 5824 H 562.237 0.150771 2.03943 0
M  V30 5825 H 560.392 -1.96581 3.33819 0
M  V30 5826 H 560.806 -0.753744 5.19056 0
M  V30 5827 H 562.28 -2.44667 4.94815 0
M  V30 5828 H 562.757 -2.88678 3.31001 0
M  V30 5829 H 563.363 -1.37496 4.02461 0
M  V30 5830 N 561.678 -1.56367 -0.196722 0
M  V30 5831 C 562.926 -1.80172 -0.915554 0
M  V30 5832 C 563.247 -0.649649 -1.8386 0
M  V30 5833 O 562.517 0.332111 -1.93064 0
M  V30 5834 H 561.097 -0.664592 -0.341067 0
M  V30 5835 H 563.759 -1.93844 -0.202622 0
M  V30 5836 H 562.855 -2.7327 -1.50764 0
M  V30 5837 N 563.156 0.464375 -1.50603 0
M  V30 5838 C 564.402 1.21776 -1.62168 0
M  V30 5839 C 564.735 1.91476 -0.324154 0
M  V30 5840 O 564.01 1.8242 0.674782 0
M  V30 5841 C 564.293 2.25614 -2.80661 0
M  V30 5842 C 564.146 1.60175 -4.20314 0
M  V30 5843 C 565.465 3.26862 -2.94702 0
M  V30 5844 H 562.584 0.44137 -0.590222 0
M  V30 5845 H 565.226 0.510623 -1.8301 0
M  V30 5846 H 563.376 2.85923 -2.63021 0
M  V30 5847 H 565.048 1.03411 -4.4956 0
M  V30 5848 H 563.291 0.904697 -4.24261 0
M  V30 5849 H 563.962 2.35665 -4.99165 0
M  V30 5850 H 566.438 2.76582 -3.10872 0
M  V30 5851 H 565.314 3.96839 -3.79223 0
M  V30 5852 H 565.575 3.91382 -2.05603 0
M  V30 5853 N 564.634 1.40294 0.718013 0
M  V30 5854 C 566.05 1.2227 1.02577 0
M  V30 5855 C 566.25 0.0961976 2.0127 0
M  V30 5856 O 565.306 -0.546695 2.46511 0
M  V30 5857 C 566.619 2.56348 1.57182 0
M  V30 5858 C 568.167 2.6334 1.69178 0
M  V30 5859 C 568.642 3.9768 2.27188 0
M  V30 5860 N 570.133 3.99409 2.34578 0
M  V30 5861 C 570.868 5.00141 2.8044 0
M  V30 5862 N 570.364 6.11268 3.26073 0
M  V30 5863 N 572.157 4.87511 2.79802 0
M  V30 5864 H 564.308 2.12304 0.0637899 0
M  V30 5865 H 566.571 0.943632 0.0909036 0
M  V30 5866 H 566.277 3.3942 0.921262 0
M  V30 5867 H 566.151 2.77266 2.55741 0
M  V30 5868 H 568.538 1.80641 2.33351 0
M  V30 5869 H 568.619 2.46255 0.692247 0
M  V30 5870 H 568.263 4.80817 1.63638 0
M  V30 5871 H 568.193 4.12093 3.27852 0
M  V30 5872 H 570.684 3.19162 2.02346 0
M  V30 5873 H 570.997 6.84023 3.59628 0
M  V30 5874 H 569.342 6.14837 3.24038 0
M  V30 5875 H 572.533 3.9979 2.43487 0
M  V30 5876 H 572.706 5.66158 3.15228 0
M  V30 5877 N 566.112 -0.949982 1.2575 0
M  V30 5878 C 567.045 -2.047 1.00862 0
M  V30 5879 C 568.023 -1.62475 -0.0636982 0
M  V30 5880 O 569.207 -1.88343 0.0769153 0
M  V30 5881 C 566.334 -3.34597 0.525613 0
M  V30 5882 C 565.38 -3.95788 1.58916 0
M  V30 5883 S 566.213 -4.31175 3.17567 0
M  V30 5884 C 567.369 -5.64183 2.71013 0
M  V30 5885 H 567.602 -2.25497 1.93749 0
M  V30 5886 H 565.135 -1.09022 1.09332 0
M  V30 5887 H 567.093 -4.09716 0.25359 0
M  V30 5888 H 565.754 -3.11758 -0.382828 0
M  V30 5889 H 564.947 -4.89457 1.20201 0
M  V30 5890 H 564.549 -3.27168 1.81211 0
M  V30 5891 H 566.841 -6.42504 2.14928 0
M  V30 5892 H 567.784 -6.07774 3.6334 0
M  V30 5893 H 568.192 -5.2364 2.1086 0
M  V30 5894 N 567.59 -1.07411 -1.15328 0
M  V30 5895 C 568.867 -0.710732 -1.82231 0
M  V30 5896 C 569.247 0.806732 -1.95077 0
M  V30 5897 O 568.595 1.72139 -1.50268 0
M  V30 5898 C 568.805 -1.42586 -3.18544 0
M  V30 5899 C 570.153 -1.57836 -3.94174 0
M  V30 5900 O 571.177 -1.38669 -3.281 0
M  V30 5901 O 570.036 -1.8938 -5.12638 0
M  V30 5902 H 567.13 -0.25297 -0.78736 0
M  V30 5903 H 569.676 -1.17508 -1.22434 0
M  V30 5904 H 568.448 -2.46008 -3.04296 0
M  V30 5905 H 568.071 -0.952332 -3.86026 0
M  V30 5906 N 569.068 1.32177 -0.85831 0
M  V30 5907 C 570.345 1.91781 -0.384624 0
M  V30 5908 C 570.725 1.78171 1.13217 0
M  V30 5909 O 570.073 1.18209 1.95548 0
M  V30 5910 C 570.283 3.38414 -0.853047 0
M  V30 5911 C 571.631 4.15542 -0.872359 0
M  V30 5912 O 572.655 3.47148 -0.797926 0
M  V30 5913 O 571.514 5.37678 -0.978009 0
M  V30 5914 H 568.608 0.819259 -0.112886 0
M  V30 5915 H 571.154 1.40923 -0.945453 0
M  V30 5916 H 569.926 3.4228 -1.89632 0
M  V30 5917 H 569.549 3.96683 -0.269874 0
M  V30 5918 N 570.547 0.616602 1.45037 0
M  V30 5919 C 571.497 -0.118543 2.27692 0
M  V30 5920 C 572.481 -0.830025 1.37838 0
M  V30 5921 O 573.673 -0.718528 1.6176 0
M  V30 5922 C 570.802 -1.10924 3.24886 0
M  V30 5923 C 569.888 -0.398134 4.22227 0
M  V30 5924 N 570.279 0.565233 5.02632 0
M  V30 5925 C 568.577 -0.644506 4.41319 0
M  V30 5926 C 569.278 0.984043 5.73316 0
M  V30 5927 N 568.254 0.325879 5.42622 0
M  V30 5928 H 572.056 0.621239 2.87259 0
M  V30 5929 H 569.57 0.440968 1.56299 0
M  V30 5930 H 571.567 -1.65038 3.82842 0
M  V30 5931 H 570.227 -1.84948 2.66879 0
M  V30 5932 H 571.238 0.942395 5.09254 0
M  V30 5933 H 567.915 -1.36873 3.94426 0
M  V30 5934 H 569.305 1.77911 6.47918 0
M  V30 5935 N 572.025 -1.5352 0.356285 0
M  V30 5936 C 572.935 -2.29151 -0.502712 0
M  V30 5937 C 573.951 -1.34753 -1.1008 0
M  V30 5938 O 575.127 -1.67803 -1.11374 0
M  V30 5939 C 572.192 -3.05911 -1.63154 0
M  V30 5940 C 571.253 -4.15958 -1.06194 0
M  V30 5941 C 570.486 -4.8905 -2.13696 0
M  V30 5942 O 570.709 -4.61919 -3.34645 0
M  V30 5943 O 569.643 -5.75202 -1.77275 0
M  V30 5944 H 573.469 -3.03492 0.112466 0
M  V30 5945 H 571.054 -1.4891 0.120942 0
M  V30 5946 H 572.936 -3.53874 -2.28804 0
M  V30 5947 H 571.611 -2.34415 -2.23229 0
M  V30 5948 H 570.518 -3.7227 -0.369603 0
M  V30 5949 H 571.851 -4.89593 -0.505872 0
M  V30 5950 N 573.503 -0.0852151 -1.57369 0
M  V30 5951 C 574.731 0.58946 -1.98325 0
M  V30 5952 C 575.146 1.62333 -0.96403 0
M  V30 5953 O 574.503 1.82438 0.0476395 0
M  V30 5954 C 574.554 1.24604 -3.39347 0
M  V30 5955 O 574.275 0.253532 -4.37366 0
M  V30 5956 C 575.776 2.00726 -3.95252 0
M  V30 5957 H 572.996 0.158783 -0.651942 0
M  V30 5958 H 575.54 -0.161584 -2.03861 0
M  V30 5959 H 573.695 1.94808 -3.34856 0
M  V30 5960 H 574.109 0.726207 -5.19448 0
M  V30 5961 H 575.583 2.42039 -4.96106 0
M  V30 5962 H 576.06 2.86919 -3.32527 0
M  V30 5963 H 576.666 1.3536 -4.03185 0
M  V30 5964 N 574.981 1.5647 0.188427 0
M  V30 5965 C 576.211 1.84863 0.922463 0
M  V30 5966 C 576.619 0.666413 1.77075 0
M  V30 5967 O 575.962 -0.374044 1.79852 0
M  V30 5968 C 576.024 3.07447 1.86324 0
M  V30 5969 C 575.688 4.41066 1.19625 0
M  V30 5970 C 576.685 5.16767 0.569946 0
M  V30 5971 C 574.37 4.87802 1.19811 0
M  V30 5972 C 576.364 6.37384 -0.045594 0
M  V30 5973 C 574.051 6.08353 0.57874 0
M  V30 5974 C 575.049 6.82987 -0.0420259 0
M  V30 5975 O 574.737 8.01254 -0.651675 0
M  V30 5976 H 574.469 0.61784 0.274316 0
M  V30 5977 H 577.023 2.04437 0.198613 0
M  V30 5978 H 575.253 2.83774 2.62696 0
M  V30 5979 H 576.942 3.2243 2.46564 0
M  V30 5980 H 577.708 4.81749 0.560601 0
M  V30 5981 H 573.587 4.29662 1.67069 0
M  V30 5982 H 577.131 6.95578 -0.530731 0
M  V30 5983 H 573.028 6.42838 0.58561 0
M  V30 5984 H 573.796 8.16655 -0.549236 0
M  V30 5985 N 576.459 -0.456382 1.50847 0
M  V30 5986 C 577.707 -1.20497 1.62249 0
M  V30 5987 C 578.028 -1.92156 0.331839 0
M  V30 5988 O 577.298 -1.84751 -0.651443 0
M  V30 5989 H 575.878 -0.447775 0.597918 0
M  V30 5990 H 578.54 -0.525099 1.87693 0
M  V30 5991 H 577.636 -1.94492 2.44089 0
M  V30 5992 N 577.937 -1.40673 -0.710563 0
M  V30 5993 C 578.847 -1.43663 -1.85467 0
M  V30 5994 C 579.863 -0.328721 -1.70867 0
M  V30 5995 O 581.039 -0.574098 -1.93044 0
M  V30 5996 C 578.104 -1.30226 -3.21313 0
M  V30 5997 C 577.165 -2.51204 -3.48131 0
M  V30 5998 C 576.398 -2.38398 -4.77495 0
M  V30 5999 O 576.621 -1.40048 -5.5294 0
M  V30 6000 O 575.555 -3.2787 -5.04762 0
M  V30 6001 H 579.381 -2.40156 -1.859 0
M  V30 6002 H 576.966 -1.22049 -0.861652 0
M  V30 6003 H 578.848 -1.2496 -4.02446 0
M  V30 6004 H 577.523 -0.368419 -3.21597 0
M  V30 6005 H 576.43 -2.62048 -2.66987 0
M  V30 6006 H 577.763 -3.43366 -3.52648 0
M  V30 6007 N 579.415 0.9433 -1.26252 0
M  V30 6008 C 580.365 2.02746 -1.04297 0
M  V30 6009 C 581.349 1.60882 0.0239435 0
M  V30 6010 O 582.541 1.75947 -0.192757 0
M  V30 6011 C 579.67 3.36585 -0.6757 0
M  V30 6012 C 578.756 3.84939 -1.77996 0
M  V30 6013 N 579.147 4.05966 -3.01704 0
M  V30 6014 C 577.445 4.13833 -1.66308 0
M  V30 6015 C 578.146 4.45987 -3.73458 0
M  V30 6016 N 577.122 4.52569 -3.01135 0
M  V30 6017 H 580.924 2.17012 -1.98199 0
M  V30 6018 H 578.438 1.12898 -1.16738 0
M  V30 6019 H 580.435 4.13896 -0.499571 0
M  V30 6020 H 579.095 3.2369 0.255863 0
M  V30 6021 H 580.106 3.92716 -3.37631 0
M  V30 6022 H 576.783 4.09739 -0.801267 0
M  V30 6023 H 578.173 4.70465 -4.79701 0
M  V30 6024 N 580.893 1.08022 1.14757 0
M  V30 6025 C 582.139 0.818552 1.86202 0
M  V30 6026 C 582.494 -0.648563 1.81139 0
M  V30 6027 O 581.787 -1.4704 1.22841 0
M  V30 6028 C 581.981 1.26964 3.34088 0
M  V30 6029 C 581.81 2.77907 3.5355 0
M  V30 6030 C 580.58 3.45604 3.68627 0
M  V30 6031 C 582.778 3.7609 3.50801 0
M  V30 6032 N 580.76 4.85119 3.76209 0
M  V30 6033 C 582.131 5.0148 3.64579 0
M  V30 6034 C 584.186 3.6915 3.34115 0
M  V30 6035 C 582.889 6.20755 3.63395 0
M  V30 6036 C 584.915 4.87896 3.34233 0
M  V30 6037 C 584.277 6.12123 3.48547 0
M  V30 6038 H 580.376 0.352186 0.698204 0
M  V30 6039 H 582.96 1.37781 1.37567 0
M  V30 6040 H 581.131 0.738008 3.81324 0
M  V30 6041 H 582.863 0.954806 3.93275 0
M  V30 6042 H 579.618 2.96016 3.69691 0
M  V30 6043 H 580.042 5.57748 3.83726 0
M  V30 6044 H 584.684 2.74045 3.21961 0
M  V30 6045 H 582.402 7.16175 3.74326 0
M  V30 6046 H 585.988 4.8421 3.2254 0
M  V30 6047 H 584.868 7.02468 3.48581 0
M  V30 6048 N 582.371 -1.3172 0.865308 0
M  V30 6049 C 583.596 -2.01591 0.487415 0
M  V30 6050 C 584.021 -1.6455 -0.911307 0
M  V30 6051 O 583.379 -0.851689 -1.6005 0
M  V30 6052 C 583.427 -3.54759 0.646401 0
M  V30 6053 O 582.531 -4.11185 -0.316284 0
M  V30 6054 H 581.872 -0.634884 0.194468 0
M  V30 6055 H 584.402 -1.68024 1.16744 0
M  V30 6056 H 584.412 -4.04438 0.537932 0
M  V30 6057 H 583.087 -3.8106 1.66632 0
M  V30 6058 H 581.664 -3.72543 -0.163162 0
M  V30 6059 N 583.85 -0.624285 -1.44708 0
M  V30 6060 C 585.26 -0.2092 -1.85524 0
M  V30 6061 C 585.611 1.23783 -1.52225 0
M  V30 6062 O 584.736 1.94089 -0.956986 0
M  V30 6063 C 585.332 -0.372897 -3.36742 0
M  V30 6064 C 583.891 -0.012374 -3.76398 0
M  V30 6065 C 583.038 -0.68951 -2.68591 0
M  V30 6066 H 585.989 -0.829894 -1.35272 0
M  V30 6067 H 586.01 0.390134 -3.78495 0
M  V30 6068 H 585.522 -1.42615 -3.60947 0
M  V30 6069 H 583.623 1.03941 -3.57809 0
M  V30 6070 H 583.736 -0.417663 -4.77276 0
M  V30 6071 H 582.1 -0.125484 -2.54391 0
M  V30 6072 H 582.883 -1.74522 -2.9563 0
M  V30 6073 N 585.328 1.53329 -0.364422 0
M  V30 6074 C 586.744 1.59594 -0.0133165 0
M  V30 6075 C 586.944 1.37959 1.46865 0
M  V30 6076 O 586 1.18418 2.2301 0
M  V30 6077 C 587.313 2.97032 -0.468213 0
M  V30 6078 C 588.861 3.10138 -0.422334 0
M  V30 6079 C 589.336 4.49986 -0.853024 0
M  V30 6080 N 590.827 4.56098 -0.808037 0
M  V30 6081 C 591.562 5.62495 -1.11299 0
M  V30 6082 N 591.058 6.7665 -1.48717 0
M  V30 6083 N 592.851 5.52473 -1.03586 0
M  V30 6084 H 585.002 1.65644 -1.32951 0
M  V30 6085 H 587.265 0.77684 -0.543345 0
M  V30 6086 H 586.971 3.18 -1.5023 0
M  V30 6087 H 586.845 3.76918 0.145775 0
M  V30 6088 H 589.232 2.88881 0.602622 0
M  V30 6089 H 589.313 2.32263 -1.0718 0
M  V30 6090 H 588.957 4.7198 -1.87609 0
M  V30 6091 H 588.887 5.26289 -0.180819 0
M  V30 6092 H 591.378 3.74131 -0.532361 0
M  V30 6093 H 591.691 7.53776 -1.70415 0
M  V30 6094 H 590.036 6.78044 -1.52581 0
M  V30 6095 H 593.227 4.6217 -0.742736 0
M  V30 6096 H 593.4 6.35295 -1.27686 0
M  V30 6097 N 586.806 0.0935595 1.57322 0
M  V30 6098 C 587.769 -0.851426 2.12799 0
M  V30 6099 C 588.769 -1.21187 1.0569 0
M  V30 6100 O 589.959 -1.14156 1.31583 0
M  V30 6101 C 587.091 -2.14779 2.64731 0
M  V30 6102 H 588.284 -0.369733 2.97612 0
M  V30 6103 H 585.837 -0.155417 1.55525 0
M  V30 6104 H 586.572 -2.67437 1.83434 0
M  V30 6105 H 586.357 -1.89907 3.43042 0
M  V30 6106 H 587.847 -2.82383 3.07651 0
M  V30 6107 N 588.284 -1.56567 -0.180126 0
M  V30 6108 C 589.514 -1.85349 -0.912647 0
M  V30 6109 C 589.922 -0.675795 -1.76719 0
M  V30 6110 O 589.265 0.3645 -1.80047 0
M  V30 6111 C 589.327 -3.08431 -1.84691 0
M  V30 6112 C 588.991 -4.41694 -1.17284 0
M  V30 6113 C 589.988 -5.17062 -0.542532 0
M  V30 6114 C 587.673 -4.8843 -1.17223 0
M  V30 6115 C 589.667 -6.37351 0.0793953 0
M  V30 6116 C 587.354 -6.08652 -0.54647 0
M  V30 6117 C 588.352 -6.82955 0.0782458 0
M  V30 6118 O 588.04 -8.00897 0.694158 0
M  V30 6119 H 587.772 -0.619286 -0.271036 0
M  V30 6120 H 590.326 -2.0454 -0.187768 0
M  V30 6121 H 588.556 -2.85163 -2.61188 0
M  V30 6122 H 590.245 -3.23733 -2.44851 0
M  V30 6123 H 591.011 -4.8204 -0.535045 0
M  V30 6124 H 586.89 -4.30542 -1.64788 0
M  V30 6125 H 590.434 -6.95287 0.567612 0
M  V30 6126 H 586.331 -6.4314 -0.55151 0
M  V30 6127 H 587.099 -8.16352 0.592537 0
M  V30 6128 N 589.762 0.448376 -1.51087 0
M  V30 6129 C 590.692 1.55102 -1.74544 0
M  V30 6130 C 591.673 1.59357 -0.594932 0
M  V30 6131 O 592.858 1.75261 -0.836491 0
M  V30 6132 C 589.988 2.93268 -1.86041 0
M  V30 6133 C 588.942 3.03877 -3.01402 0
M  V30 6134 C 588.268 4.43914 -2.98068 0
M  V30 6135 C 589.568 2.7898 -4.41551 0
M  V30 6136 H 591.262 1.35724 -2.66869 0
M  V30 6137 H 588.808 0.651498 -1.28419 0
M  V30 6138 H 590.761 3.70356 -2.01034 0
M  V30 6139 H 589.485 3.13853 -0.903548 0
M  V30 6140 H 588.144 2.29227 -2.86096 0
M  V30 6141 H 587.792 4.6145 -2.00182 0
M  V30 6142 H 587.492 4.51944 -3.75527 0
M  V30 6143 H 589.016 5.22991 -3.1514 0
M  V30 6144 H 590.43 3.45805 -4.57265 0
M  V30 6145 H 588.827 2.98431 -5.20633 0
M  V30 6146 H 589.897 1.74663 -4.5235 0
M  V30 6147 N 591.24 1.41047 0.703093 0
M  V30 6148 C 592.486 1.40207 1.46526 0
M  V30 6149 C 592.819 0.00847763 1.94198 0
M  V30 6150 O 592.094 -0.962437 1.69019 0
M  V30 6151 C 592.377 2.40238 2.6825 0
M  V30 6152 C 592.23 3.88674 2.26391 0
M  V30 6153 C 593.549 2.37627 3.70434 0
M  V30 6154 H 590.668 0.510594 0.531472 0
M  V30 6155 H 593.31 1.72271 0.801422 0
M  V30 6156 H 591.46 2.13026 3.24888 0
M  V30 6157 H 593.132 4.2676 1.75138 0
M  V30 6158 H 591.375 4.03903 1.58255 0
M  V30 6159 H 592.046 4.542 3.13698 0
M  V30 6160 H 594.522 2.61759 3.23452 0
M  V30 6161 H 593.398 3.09645 4.53223 0
M  V30 6162 H 593.659 1.39223 4.19606 0
M  V30 6163 N 592.718 -0.936591 1.26751 0
M  V30 6164 C 593.948 -1.71509 1.15188 0
M  V30 6165 C 594.356 -1.86885 -0.295037 0
M  V30 6166 O 593.699 -1.37915 -1.21347 0
M  V30 6167 C 593.761 -3.13853 1.75318 0
M  V30 6168 C 593.425 -3.21845 3.24445 0
M  V30 6169 C 594.422 -3.04771 4.21201 0
M  V30 6170 C 592.107 -3.45088 3.64992 0
M  V30 6171 C 594.101 -3.10816 5.56482 0
M  V30 6172 C 591.788 -3.50767 5.00405 0
M  V30 6173 C 592.786 -3.33648 5.9596 0
M  V30 6174 O 592.474 -3.39045 7.28906 0
M  V30 6175 H 592.206 -0.543658 0.401761 0
M  V30 6176 H 594.76 -1.18234 1.67958 0
M  V30 6177 H 592.99 -3.6857 1.17016 0
M  V30 6178 H 594.679 -3.73634 1.58596 0
M  V30 6179 H 595.445 -2.86665 3.91214 0
M  V30 6180 H 591.324 -3.57467 2.91098 0
M  V30 6181 H 594.868 -2.97372 6.31043 0
M  V30 6182 H 590.765 -3.68396 5.30052 0
M  V30 6183 H 591.533 -3.55558 7.37238 0
M  V30 6184 N 594.196 -1.08629 -1.14182 0
M  V30 6185 C 595.144 -0.71284 -2.21408 0
M  V30 6186 C 596.138 0.282457 -1.67029 0
M  V30 6187 O 597.344 0.144783 -1.79417 0
M  V30 6188 H 593.719 -0.212497 -0.721352 0
M  V30 6189 H 595.69 -1.6265 -2.50175 0
M  V30 6190 C 594.439 -0.140704 -3.47415 0
M  V30 6191 H 593.762 -0.897739 -3.8959 0
M  V30 6192 H 595.202 0.0827677 -4.23919 0
M  V30 6193 C 593.661 1.122 -3.17668 0
M  V30 6194 O 594.191 2.20652 -3.35672 0
M  V30 6195 N 592.397 1.03328 -2.71609 0
M  V30 6196 H 591.944 0.150666 -2.57159 0
M  V30 6197 H 591.902 1.8789 -2.52081 0
M  V30 6198 N 595.674 1.31259 -0.872281 0
M  V30 6199 C 596.637 2.26744 -0.334656 0
M  V30 6200 C 597.637 1.52307 0.515681 0
M  V30 6201 O 598.827 1.71148 0.324656 0
M  V30 6202 C 595.959 3.36841 0.524482 0
M  V30 6203 H 597.152 2.75812 -1.17762 0
M  V30 6204 H 594.705 1.42232 -0.648064 0
M  V30 6205 H 595.44 2.93069 1.38855 0
M  V30 6206 H 595.225 3.92009 -0.0844299 0
M  V30 6207 H 596.715 4.07944 0.892838 0
M  V30 6208 N 597.152 0.631951 1.44375 0
M  V30 6209 C 598.38 0.143867 2.06399 0
M  V30 6210 C 598.795 -1.18188 1.47231 0
M  V30 6211 O 598.152 -1.72511 0.595498 0
M  V30 6212 C 598.203 0.0238253 3.61492 0
M  V30 6213 O 597.924 1.29715 4.18456 0
M  V30 6214 C 599.425 -0.492856 4.40552 0
M  V30 6215 H 596.645 0.0800542 0.666207 0
M  V30 6216 H 599.189 0.866586 1.85231 0
M  V30 6217 H 597.344 -0.649338 3.81919 0
M  V30 6218 H 597.758 1.14252 5.11905 0
M  V30 6219 H 599.232 -0.525861 5.49489 0
M  V30 6220 H 599.709 -1.52006 4.12057 0
M  V30 6221 H 600.315 0.147085 4.25046 0
M  V30 6222 N 598.631 -1.53133 0.372548 0
M  V30 6223 C 599.908 -1.93704 -0.271693 0
M  V30 6224 C 600.288 -1.30667 -1.65799 0
M  V30 6225 O 599.636 -0.46838 -2.23648 0
M  V30 6226 C 599.846 -3.47576 -0.314903 0
M  V30 6227 C 601.194 -4.20998 -0.551912 0
M  V30 6228 O 602.218 -3.53994 -0.39582 0
M  V30 6229 O 601.077 -5.39748 -0.85639 0
M  V30 6230 H 598.171 -0.810457 -0.164586 0
M  V30 6231 H 600.717 -1.6427 0.425838 0
M  V30 6232 H 599.489 -3.85749 0.656792 0
M  V30 6233 H 599.112 -3.83264 -1.05804 0
M  V30 6234 N 600.109 -0.101901 -1.5727 0
M  V30 6235 C 601.337 0.568392 -1.98939 0
M  V30 6236 C 601.752 1.61301 -0.981194 0
M  V30 6237 O 601.109 1.82478 0.0282869 0
M  V30 6238 C 601.16 1.20997 -3.40649 0
M  V30 6239 O 600.881 0.207129 -4.3761 0
M  V30 6240 C 602.382 1.96523 -3.97358 0
M  V30 6241 H 599.602 0.15186 -0.65359 0
M  V30 6242 H 602.146 -0.183198 -2.03678 0
M  V30 6243 H 600.301 1.91245 -3.36904 0
M  V30 6244 H 600.715 0.671071 -5.20189 0
M  V30 6245 H 602.189 2.36764 -4.98645 0
M  V30 6246 H 602.666 2.83376 -3.35552 0
M  V30 6247 H 603.272 1.31076 -4.04598 0
M  V30 6248 N 601.587 1.56661 0.17182 0
M  V30 6249 C 602.833 1.82235 0.889845 0
M  V30 6250 C 603.166 0.679673 1.81918 0
M  V30 6251 O 602.441 -0.318404 1.91876 0
M  V30 6252 C 602.724 3.18195 1.68595 0
M  V30 6253 C 602.577 4.42989 0.779773 0
M  V30 6254 C 603.896 3.5109 2.65375 0
M  V30 6255 H 601.015 0.66291 0.322056 0
M  V30 6256 H 603.657 1.89358 0.15608 0
M  V30 6257 H 601.807 3.12253 2.3115 0
M  V30 6258 H 603.479 4.60997 0.16714 0
M  V30 6259 H 601.722 4.33711 0.0877964 0
M  V30 6260 H 602.393 5.3467 1.3723 0
M  V30 6261 H 604.869 3.57482 2.12946 0
M  V30 6262 H 603.745 4.47298 3.18144 0
M  V30 6263 H 604.006 2.75768 3.45549 0
M  V30 6264 N 603.065 -0.440357 1.51323 0
M  V30 6265 C 604.293 -1.21255 1.67645 0
M  V30 6266 C 604.708 -1.85088 0.37252 0
M  V30 6267 O 604.065 -1.70582 -0.648683 0
M  V30 6268 C 604.116 -2.29881 2.78993 0
M  V30 6269 O 603.837 -1.68659 4.04334 0
M  V30 6270 C 605.338 -3.20214 3.06558 0
M  V30 6271 H 602.558 -0.36558 0.562666 0
M  V30 6272 H 605.102 -0.52214 1.97722 0
M  V30 6273 H 603.257 -2.94643 2.51524 0
M  V30 6274 H 603.671 -2.40426 4.6615 0
M  V30 6275 H 605.145 -3.92575 3.88058 0
M  V30 6276 H 605.622 -3.80794 2.18844 0
M  V30 6277 H 606.228 -2.61156 3.35675 0
M  V30 6278 N 604.543 -1.41418 -0.695603 0
M  V30 6279 C 605.789 -1.40982 -1.4578 0
M  V30 6280 C 606.122 -0.0187763 -1.94191 0
M  V30 6281 O 605.397 0.95346 -1.69527 0
M  V30 6282 C 605.68 -2.41657 -2.66972 0
M  V30 6283 C 605.533 -3.89869 -2.24327 0
M  V30 6284 C 606.852 -2.39589 -3.69168 0
M  V30 6285 H 603.971 -0.513405 -0.528757 0
M  V30 6286 H 606.613 -1.72693 -0.792275 0
M  V30 6287 H 604.763 -2.14746 -3.23754 0
M  V30 6288 H 606.435 -4.27683 -1.72872 0
M  V30 6289 H 604.678 -4.04737 -1.56111 0
M  V30 6290 H 605.349 -4.55857 -3.11285 0
M  V30 6291 H 607.825 -2.63471 -3.2206 0
M  V30 6292 H 606.701 -3.12044 -4.51575 0
M  V30 6293 H 606.962 -1.41447 -4.18862 0
M  V30 6294 N 606.021 0.929856 -1.27246 0
M  V30 6295 C 606.968 2.03017 -1.09785 0
M  V30 6296 C 607.938 1.661 0.000456744 0
M  V30 6297 O 609.123 1.90116 -0.161462 0
M  V30 6298 C 606.263 3.36878 -0.748816 0
M  V30 6299 C 605.376 3.86763 -1.92453 0
M  V30 6300 C 604.511 5.09061 -1.51758 0
M  V30 6301 C 603.55 5.51237 -2.66091 0
M  V30 6302 N 602.687 6.64732 -2.25999 0
M  V30 6303 H 607.527 2.17285 -2.03939 0
M  V30 6304 H 605.064 1.06448 -1.01524 0
M  V30 6305 H 607.022 4.13855 -0.527283 0
M  V30 6306 H 605.652 3.22424 0.155771 0
M  V30 6307 H 604.704 3.06086 -2.25867 0
M  V30 6308 H 606.016 4.13994 -2.78227 0
M  V30 6309 H 605.17 5.93532 -1.25716 0
M  V30 6310 H 603.909 4.83602 -0.630896 0
M  V30 6311 H 602.914 4.65316 -2.92849 0
M  V30 6312 H 604.139 5.78692 -3.55377 0
M  V30 6313 H 602.085 6.40935 -1.3978 0
M  V30 6314 H 602.002 6.91607 -3.05313 0
M  V30 6315 H 603.27 7.52549 -2.03199 0
M  V30 6316 N 607.499 1.09233 1.13605 0
M  V30 6317 C 608.747 0.825525 1.84471 0
M  V30 6318 C 609.068 -0.650702 1.83823 0
M  V30 6319 O 608.338 -1.47204 1.29259 0
M  V30 6320 H 606.918 0.3024 0.683054 0
M  V30 6321 H 609.58 1.38006 1.37624 0
M  V30 6322 H 608.676 1.17727 2.89045 0
M  V30 6323 N 608.977 -1.30795 0.87923 0
M  V30 6324 C 610.225 -1.95974 0.493809 0
M  V30 6325 C 610.546 -1.69787 -0.959021 0
M  V30 6326 O 609.816 -1.01832 -1.67353 0
M  V30 6327 H 608.396 -0.725083 0.179622 0
M  V30 6328 H 611.058 -1.59432 1.12105 0
M  V30 6329 H 610.154 -3.05058 0.659263 0
M  V30 6330 N 610.455 -0.639598 -1.44038 0
M  V30 6331 C 611.701 -0.156248 -2.02799 0
M  V30 6332 C 612.056 1.21145 -1.49471 0
M  V30 6333 O 611.349 1.79406 -0.672608 0
M  V30 6334 C 611.543 -0.0925348 -3.5728 0
M  V30 6335 C 611.372 -1.45252 -4.25596 0
M  V30 6336 C 610.142 -2.04145 -4.62226 0
M  V30 6337 C 612.34 -2.38812 -4.55492 0
M  V30 6338 N 610.322 -3.3329 -5.15549 0
M  V30 6339 C 611.693 -3.52578 -5.09989 0
M  V30 6340 C 613.748 -2.37785 -4.3745 0
M  V30 6341 C 612.451 -4.65525 -5.48342 0
M  V30 6342 C 614.477 -3.49802 -4.76857 0
M  V30 6343 C 613.839 -4.62292 -5.31475 0
M  V30 6344 H 609.938 -0.101292 -0.775412 0
M  V30 6345 H 612.522 -0.844938 -1.75411 0
M  V30 6346 H 610.693 0.565459 -3.84262 0
M  V30 6347 H 612.425 0.400426 -4.02714 0
M  V30 6348 H 609.18 -1.56999 -4.4682 0
M  V30 6349 H 609.604 -3.9934 -5.46678 0
M  V30 6350 H 614.246 -1.52061 -3.94509 0
M  V30 6351 H 611.964 -5.51951 -5.90233 0
M  V30 6352 H 615.55 -3.50193 -4.64603 0
M  V30 6353 H 614.43 -5.47536 -5.61403 0
M  V30 6354 N 611.933 1.52934 -0.380664 0
M  V30 6355 C 612.896 2.24809 0.446473 0
M  V30 6356 C 613.896 1.26133 0.997347 0
M  V30 6357 O 615.086 1.50297 0.880714 0
M  V30 6358 C 612.218 2.99649 1.62553 0
M  V30 6359 H 613.411 2.99343 -0.182677 0
M  V30 6360 H 610.964 1.55736 -0.132618 0
M  V30 6361 H 611.699 2.29395 2.29235 0
M  V30 6362 H 611.484 3.72066 1.23732 0
M  V30 6363 H 612.974 3.54246 2.21133 0
M  V30 6364 N 613.412 0.11024 1.57214 0
M  V30 6365 C 614.64 -0.557834 1.99238 0
M  V30 6366 C 615.055 -1.60778 0.989734 0
M  V30 6367 O 614.412 -1.82491 -0.0186092 0
M  V30 6368 C 614.463 -1.19189 3.41286 0
M  V30 6369 O 614.184 -0.183919 4.37714 0
M  V30 6370 C 615.685 -1.94413 3.98395 0
M  V30 6371 H 612.905 -0.148392 0.654386 0
M  V30 6372 H 615.449 0.193996 2.03578 0
M  V30 6373 H 613.604 -1.89456 3.37913 0
M  V30 6374 H 614.018 -0.643475 5.20538 0
M  V30 6375 H 615.492 -2.34116 4.99894 0
M  V30 6376 H 615.969 -2.81592 3.3705 0
M  V30 6377 H 616.575 -1.28928 4.05287 0
M  V30 6378 N 614.89 -1.56749 -0.16351 0
M  V30 6379 C 615.853 -1.96121 -1.18613 0
M  V30 6380 C 616.853 -0.845765 -1.36761 0
M  V30 6381 O 618.043 -1.11268 -1.34033 0
M  V30 6382 C 615.175 -2.26282 -2.54969 0
M  V30 6383 H 616.368 -2.87639 -0.848764 0
M  V30 6384 H 613.921 -1.50928 -0.406251 0
M  V30 6385 H 614.656 -1.37504 -2.93706 0
M  V30 6386 H 614.441 -3.07595 -2.43162 0
M  V30 6387 H 615.931 -2.57638 -3.28653 0
M  V30 6388 N 616.368 0.432326 -1.51554 0
M  V30 6389 C 617.615 1.18134 -1.64471 0
M  V30 6390 C 617.943 1.91076 -0.363349 0
M  V30 6391 O 617.198 1.84492 0.65279 0
M  V30 6392 C 617.497 2.21907 -2.80164 0
M  V30 6393 C 617.163 1.65941 -4.19255 0
M  V30 6394 C 615.825 1.50401 -4.57092 0
M  V30 6395 C 618.177 1.24843 -5.06027 0
M  V30 6396 C 615.505 0.922443 -5.79403 0
M  V30 6397 C 617.857 0.68113 -6.28922 0
M  V30 6398 C 616.521 0.512673 -6.65528 0
M  V30 6399 H 615.791 0.432283 -0.601841 0
M  V30 6400 H 618.438 0.471701 -1.856 0
M  V30 6401 H 616.743 2.98928 -2.53277 0
M  V30 6402 H 618.44 2.79691 -2.87357 0
M  V30 6403 H 615.03 1.79014 -3.89425 0
M  V30 6404 H 619.214 1.35667 -4.77397 0
M  V30 6405 H 614.47 0.779733 -6.06408 0
M  V30 6406 H 618.644 0.35418 -6.95499 0
M  V30 6407 H 616.271 0.0599084 -7.60176 0
M  V30 6408 N 617.846 1.41785 0.688094 0
M  V30 6409 C 618.793 1.44221 1.80191 0
M  V30 6410 C 619.763 0.295688 1.63447 0
M  V30 6411 O 620.948 0.49783 1.84191 0
M  V30 6412 C 618.088 1.33743 3.1813 0
M  V30 6413 C 617.201 2.58325 3.46254 0
M  V30 6414 C 616.336 2.40086 4.73848 0
M  V30 6415 C 615.375 3.60107 4.94964 0
M  V30 6416 N 614.512 3.40892 6.13789 0
M  V30 6417 H 619.352 2.39411 1.77444 0
M  V30 6418 H 616.889 1.18876 0.866423 0
M  V30 6419 H 618.847 1.25669 3.97823 0
M  V30 6420 H 617.477 0.42157 3.20035 0
M  V30 6421 H 616.529 2.7682 2.60912 0
M  V30 6422 H 617.841 3.4758 3.57756 0
M  V30 6423 H 616.995 2.29522 5.61609 0
M  V30 6424 H 615.734 1.483 4.64606 0
M  V30 6425 H 614.739 3.71118 4.05649 0
M  V30 6426 H 615.964 4.52857 5.06061 0
M  V30 6427 H 613.91 2.51812 6.05745 0
M  V30 6428 H 613.827 4.23727 6.26092 0
M  V30 6429 H 615.095 3.34114 7.04264 0
M  V30 6430 N 619.324 -0.923095 1.27737 0
M  V30 6431 C 620.287 -2.00587 1.10894 0
M  V30 6432 C 621.287 -1.60718 0.0514927 0
M  V30 6433 O 622.477 -1.71658 0.296481 0
M  V30 6434 C 619.609 -3.33829 0.690717 0
M  V30 6435 H 620.802 -2.16959 2.07048 0
M  V30 6436 H 618.355 -1.10451 1.1059 0
M  V30 6437 H 619.09 -3.23157 -0.272 0
M  V30 6438 H 618.875 -3.64125 1.45448 0
M  V30 6439 H 620.365 -4.13336 0.595252 0
M  V30 6440 N 620.802 -1.09834 -1.13024 0
M  V30 6441 C 622.213 -0.855651 -1.65938 0
M  V30 6442 C 622.564 0.615159 -1.86307 0
M  V30 6443 O 621.689 1.47335 -1.58497 0
M  V30 6444 C 622.284 -1.5467 -3.01434 0
M  V30 6445 C 620.843 -1.35088 -3.51323 0
M  V30 6446 C 619.99 -1.6001 -2.26478 0
M  V30 6447 H 622.941 -1.25691 -0.968889 0
M  V30 6448 H 622.962 -0.982179 -3.67605 0
M  V30 6449 H 622.474 -2.61715 -2.86578 0
M  V30 6450 H 620.575 -0.30179 -3.71376 0
M  V30 6451 H 620.688 -2.0886 -4.31178 0
M  V30 6452 H 619.052 -1.02246 -2.33276 0
M  V30 6453 H 619.835 -2.68293 -2.14182 0
M  V30 6454 N 622.28 1.30327 -0.886154 0
M  V30 6455 C 623.505 2.0079 -0.519425 0
M  V30 6456 C 623.93 1.65979 0.885013 0
M  V30 6457 O 623.288 0.877043 1.58675 0
M  V30 6458 C 623.336 3.53686 -0.702758 0
M  V30 6459 O 622.44 4.11637 0.250828 0
M  V30 6460 H 621.781 0.63171 -0.204544 0
M  V30 6461 H 624.311 1.66145 -1.19402 0
M  V30 6462 H 624.321 4.03531 -0.602207 0
M  V30 6463 H 622.996 3.78361 -1.72673 0
M  V30 6464 H 621.573 3.72755 0.103873 0
M  V30 6465 N 623.758 0.647228 1.43697 0
M  V30 6466 C 624.688 -0.0345631 2.33474 0
M  V30 6467 C 625.669 -0.818193 1.4913 0
M  V30 6468 O 626.854 -0.780867 1.77809 0
M  V30 6469 C 623.984 -1.00576 3.32418 0
M  V30 6470 C 622.938 -0.33266 4.26705 0
M  V30 6471 C 622.264 -1.41489 5.1564 0
M  V30 6472 C 623.564 0.771204 5.16575 0
M  V30 6473 H 625.258 0.715163 2.90733 0
M  V30 6474 H 622.804 0.345364 1.39797 0
M  V30 6475 H 624.757 -1.49159 3.94119 0
M  V30 6476 H 623.481 -1.78657 2.73403 0
M  V30 6477 H 622.14 0.13267 3.6636 0
M  V30 6478 H 621.788 -2.18698 4.52968 0
M  V30 6479 H 621.488 -0.969799 5.79542 0
M  V30 6480 H 623.012 -1.9022 5.80214 0
M  V30 6481 H 624.426 0.36779 5.72119 0
M  V30 6482 H 622.823 1.1404 5.89165 0
M  V30 6483 H 623.893 1.63169 4.56622 0
M  V30 6484 N 625.236 -1.5273 0.388769 0
M  V30 6485 C 626.166 -2.29353 -0.438111 0
M  V30 6486 C 627.147 -1.32719 -1.06394 0
M  V30 6487 O 628.332 -1.61612 -1.07681 0
M  V30 6488 C 625.462 -3.09995 -1.56589 0
M  V30 6489 C 624.416 -4.14509 -1.06613 0
M  V30 6490 C 623.742 -4.83372 -2.28594 0
M  V30 6491 C 625.042 -5.22127 -0.134459 0
M  V30 6492 H 626.736 -2.98723 0.201206 0
M  V30 6493 H 624.282 -1.43665 0.0982089 0
M  V30 6494 H 626.235 -3.62357 -2.15118 0
M  V30 6495 H 624.959 -2.38357 -2.23279 0
M  V30 6496 H 623.618 -3.63128 -0.503383 0
M  V30 6497 H 623.266 -4.08283 -2.93792 0
M  V30 6498 H 622.966 -5.54012 -1.95817 0
M  V30 6499 H 624.49 -5.38538 -2.87766 0
M  V30 6500 H 625.904 -5.69851 -0.627914 0
M  V30 6501 H 624.301 -6.00011 0.103534 0
M  V30 6502 H 625.371 -4.77971 0.816798 0
M  V30 6503 N 626.714 -0.118576 -1.57153 0
M  V30 6504 C 627.646 0.862247 -2.12363 0
M  V30 6505 C 628.659 1.23025 -1.06625 0
M  V30 6506 O 629.848 1.17927 -1.33998 0
M  V30 6507 C 626.948 2.16425 -2.60794 0
M  V30 6508 C 626.121 1.96801 -3.90626 0
M  V30 6509 C 625.18 3.10726 -4.2466 0
M  V30 6510 O 624.206 2.83659 -4.93484 0
M  V30 6511 N 625.408 4.37147 -3.81946 0
M  V30 6512 H 628.173 0.390564 -2.97144 0
M  V30 6513 H 625.734 0.0658591 -1.61766 0
M  V30 6514 H 627.726 2.91633 -2.80593 0
M  V30 6515 H 626.296 2.54943 -1.80895 0
M  V30 6516 H 625.516 1.05787 -3.7974 0
M  V30 6517 H 626.804 1.80993 -4.7552 0
M  V30 6518 H 626.202 4.62014 -3.26435 0
M  V30 6519 H 624.759 5.09229 -4.06853 0
M  V30 6520 N 628.193 1.56834 0.155195 0
M  V30 6521 C 629.123 2.00678 1.19376 0
M  V30 6522 C 630.104 0.884973 1.45266 0
M  V30 6523 O 631.289 1.1522 1.56326 0
M  V30 6524 C 628.419 2.38042 2.5289 0
M  V30 6525 C 627.373 3.53332 2.41538 0
M  V30 6526 C 626.699 3.76485 3.79688 0
M  V30 6527 C 627.999 4.86265 1.9064 0
M  V30 6528 H 629.693 2.87688 0.829232 0
M  V30 6529 H 627.239 1.38407 0.397445 0
M  V30 6530 H 629.192 2.67314 3.25763 0
M  V30 6531 H 627.916 1.4796 2.91162 0
M  V30 6532 H 626.575 3.24213 1.71117 0
M  V30 6533 H 626.223 2.83667 4.15382 0
M  V30 6534 H 625.923 4.54068 3.72956 0
M  V30 6535 H 627.447 4.08174 4.54122 0
M  V30 6536 H 628.861 5.14308 2.53299 0
M  V30 6537 H 627.258 5.67597 1.94818 0
M  V30 6538 H 628.328 4.77184 0.861596 0
M  V30 6539 N 629.671 -0.424282 1.51781 0
M  V30 6540 C 630.896 -1.19928 1.6921 0
M  V30 6541 C 631.321 -1.8392 0.394355 0
M  V30 6542 O 630.679 -1.69371 -0.646778 0
M  V30 6543 C 630.727 -2.24937 2.81843 0
M  V30 6544 O 629.831 -3.3073 2.46356 0
M  V30 6545 H 629.172 -0.35078 0.563781 0
M  V30 6546 H 631.702 -0.499401 1.98412 0
M  V30 6547 H 631.712 -2.69512 3.06312 0
M  V30 6548 H 630.387 -1.77742 3.76006 0
M  V30 6549 H 628.964 -2.9154 2.32505 0
M  V30 6550 N 631.149 -1.42148 -0.680565 0
M  V30 6551 C 632.56 -1.3768 -1.26099 0
M  V30 6552 C 632.911 -0.0672348 -1.96085 0
M  V30 6553 O 632.036 0.834172 -1.99676 0
M  V30 6554 C 632.631 -2.49387 -2.29328 0
M  V30 6555 C 631.19 -2.4827 -2.82911 0
M  V30 6556 C 630.337 -2.2847 -1.57152 0
M  V30 6557 H 633.288 -1.51446 -0.474326 0
M  V30 6558 H 633.309 -2.19307 -3.10941 0
M  V30 6559 H 632.821 -3.44686 -1.78363 0
M  V30 6560 H 630.922 -1.56773 -3.38013 0
M  V30 6561 H 631.035 -3.45109 -3.3232 0
M  V30 6562 H 629.399 -1.76623 -1.83511 0
M  V30 6563 H 630.182 -3.25816 -1.0816 0
M  V30 6564 N 632.627 0.916307 -1.28225 0
M  V30 6565 C 633.904 1.64429 -1.05936 0
M  V30 6566 C 634.284 2.07234 0.402139 0
M  V30 6567 O 633.632 1.81535 1.3877 0
M  V30 6568 C 633.842 2.83773 -2.03159 0
M  V30 6569 C 635.19 3.54852 -2.33164 0
M  V30 6570 O 636.214 2.93918 -2.01223 0
M  V30 6571 O 635.073 4.64663 -2.87664 0
M  V30 6572 H 632.167 0.721221 -0.404683 0
M  V30 6573 H 634.713 0.965838 -1.39534 0
M  V30 6574 H 633.485 2.49217 -3.01673 0
M  V30 6575 H 633.108 3.59333 -1.70192 0
M  V30 6576 N 634.105 1.10431 1.1244 0
M  V30 6577 C 635.351 0.857864 1.84424 0
M  V30 6578 C 635.706 -0.609995 1.82474 0
M  V30 6579 O 634.999 -1.44401 1.25932 0
M  V30 6580 C 635.193 1.34022 3.3132 0
M  V30 6581 C 635.022 2.85344 3.47576 0
M  V30 6582 C 633.792 3.53345 3.61213 0
M  V30 6583 C 635.99 3.83446 3.42744 0
M  V30 6584 N 633.972 4.92989 3.65834 0
M  V30 6585 C 635.343 5.09101 3.5386 0
M  V30 6586 C 637.398 3.76154 3.26209 0
M  V30 6587 C 636.101 6.28323 3.50146 0
M  V30 6588 C 638.127 4.94876 3.23809 0
M  V30 6589 C 637.489 6.19378 3.35485 0
M  V30 6590 H 633.588 0.366917 0.690577 0
M  V30 6591 H 636.172 1.40668 1.34613 0
M  V30 6592 H 634.343 0.818727 3.79673 0
M  V30 6593 H 636.075 1.03801 3.91162 0
M  V30 6594 H 632.83 3.03791 3.63329 0
M  V30 6595 H 633.254 5.65762 3.71809 0
M  V30 6596 H 637.896 2.80813 3.16076 0
M  V30 6597 H 635.614 7.23953 3.5905 0
M  V30 6598 H 639.2 4.90942 3.12197 0
M  V30 6599 H 638.08 7.09704 3.33602 0
M  V30 6600 N 635.583 -1.29855 0.893053 0
M  V30 6601 C 636.811 -1.99976 0.530788 0
M  V30 6602 C 637.226 -1.66889 -0.882799 0
M  V30 6603 O 636.583 -0.910352 -1.58173 0
M  V30 6604 C 636.634 -3.54547 0.705587 0
M  V30 6605 O 636.355 -3.86458 2.06353 0
M  V30 6606 C 637.856 -4.41937 0.347387 0
M  V30 6607 H 635.076 -0.639129 0.204339 0
M  V30 6608 H 637.62 -1.65549 1.20057 0
M  V30 6609 H 635.775 -3.87311 0.0830685 0
M  V30 6610 H 636.189 -4.81146 2.08803 0
M  V30 6611 H 637.663 -5.4954 0.520557 0
M  V30 6612 H 638.14 -4.33339 -0.715139 0
M  V30 6613 H 638.746 -4.14633 0.946567 0
M  V30 6614 N 637.061 -0.65484 -1.43351 0
M  V30 6615 C 638.286 -0.175046 -2.0666 0
M  V30 6616 C 638.711 1.15104 -1.4877 0
M  V30 6617 O 638.069 1.71144 -0.598279 0
M  V30 6618 C 638.117 -0.0991544 -3.60464 0
M  V30 6619 O 637.221 0.938169 -4.01587 0
M  V30 6620 H 636.562 -0.0956148 -0.65708 0
M  V30 6621 H 639.092 -0.898222 -1.83829 0
M  V30 6622 H 639.102 0.083632 -4.07914 0
M  V30 6623 H 637.777 -1.06719 -4.01975 0
M  V30 6624 H 636.354 0.72804 -3.65724 0
M  V30 6625 N 638.539 1.52521 -0.396863 0
M  V30 6626 C 639.487 2.28217 0.44943 0
M  V30 6627 C 640.481 1.32416 1.05652 0
M  V30 6628 O 641.687 1.49925 0.996124 0
M  V30 6629 H 638.062 0.733966 0.1637 0
M  V30 6630 H 640.033 2.97658 -0.210367 0
M  V30 6631 C 638.782 3.10713 1.56054 0
M  V30 6632 H 638.105 3.84291 1.10273 0
M  V30 6633 H 639.545 3.66803 2.12677 0
M  V30 6634 C 638.004 2.23499 2.52091 0
M  V30 6635 O 638.534 1.8669 3.55682 0
M  V30 6636 N 636.74 1.8751 2.2201 0
M  V30 6637 H 636.287 2.17643 1.37802 0
M  V30 6638 H 636.245 1.29448 2.86514 0
M  V30 6639 N 640.017 0.126909 1.57088 0
M  V30 6640 C 641.242 -0.53997 2.00248 0
M  V30 6641 C 641.667 -1.58927 1.00618 0
M  V30 6642 O 641.025 -1.81288 -0.0210131 0
M  V30 6643 C 641.073 -1.13565 3.4225 0
M  V30 6644 O 640.177 -2.25103 3.45547 0
M  V30 6645 H 639.518 -0.13412 0.650314 0
M  V30 6646 H 642.048 0.217718 2.03438 0
M  V30 6647 H 642.058 -1.46925 3.80627 0
M  V30 6648 H 640.733 -0.367122 4.14277 0
M  V30 6649 H 639.31 -1.93123 3.18995 0
M  V30 6650 N 641.495 -1.56914 -0.146875 0
M  V30 6651 C 642.735 -1.85163 -0.86568 0
M  V30 6652 C 643.099 -0.711215 -1.78342 0
M  V30 6653 O 644.3 -0.874754 -2.54168 0
M  V30 6654 C 642.571 -3.18593 -1.61967 0
M  V30 6655 S 644.13 -3.68397 -2.38388 0
M  V30 6656 H 640.948 -0.6494 -0.289483 0
M  V30 6657 H 643.55 -1.95096 -0.125679 0
M  V30 6658 H 642.254 -3.99562 -0.93694 0
M  V30 6659 H 641.785 -3.11666 -2.40058 0
M  V30 6660 H 643.8 -3.37672 -3.63582 0
M  V30 6661 N 642.974 0.416227 -1.52004 0
M  V30 6662 C 644.39 0.754319 -1.40649 0
M  V30 6663 C 644.59 1.95059 -0.505392 0
M  V30 6664 O 643.646 2.5248 0.0315057 0
M  V30 6665 C 644.959 1.0149 -2.83055 0
M  V30 6666 C 646.507 1.11805 -2.9235 0
M  V30 6667 C 646.982 1.41144 -4.35709 0
M  V30 6668 N 648.473 1.48024 -4.38911 0
M  V30 6669 C 649.208 1.72338 -5.46889 0
M  V30 6670 N 648.704 1.94303 -6.64995 0
M  V30 6671 N 650.497 1.74294 -5.34395 0
M  V30 6672 H 642.648 -0.371324 -2.09129 0
M  V30 6673 H 644.911 -0.103811 -0.942299 0
M  V30 6674 H 644.617 0.208345 -3.51082 0
M  V30 6675 H 644.491 1.93697 -3.23668 0
M  V30 6676 H 646.878 1.91521 -2.24508 0
M  V30 6677 H 646.959 0.17451 -2.55204 0
M  V30 6678 H 646.603 0.619484 -5.04108 0
M  V30 6679 H 646.533 2.36739 -4.70385 0
M  V30 6680 H 649.024 1.32868 -3.53772 0
M  V30 6681 H 649.337 2.12286 -7.43071 0
M  V30 6682 H 647.682 1.91582 -6.68073 0
M  V30 6683 H 650.873 1.56667 -4.41104 0
M  V30 6684 H 651.046 1.92904 -6.18621 0
M  V30 6685 N 644.452 1.42507 0.673017 0
M  V30 6686 C 645.7 1.42789 1.43023 0
M  V30 6687 C 646.021 0.0459738 1.94946 0
M  V30 6688 O 645.291 -0.915765 1.73178 0
M  V30 6689 H 643.871 0.525657 0.530748 0
M  V30 6690 H 646.533 1.77944 0.795113 0
M  V30 6691 H 645.629 2.12872 2.28237 0
M  V30 6692 N 645.93 -0.909495 1.28709 0
M  V30 6693 C 646.893 -1.99399 1.13016 0
M  V30 6694 C 647.893 -1.60654 0.068536 0
M  V30 6695 O 649.083 -1.71334 0.314671 0
M  V30 6696 C 646.215 -3.33078 0.726085 0
M  V30 6697 H 647.408 -2.14751 2.09338 0
M  V30 6698 H 644.961 -1.09272 1.11756 0
M  V30 6699 H 645.696 -3.23428 -0.23771 0
M  V30 6700 H 645.481 -3.62562 1.49302 0
M  V30 6701 H 646.971 -4.12681 0.639058 0
M  V30 6702 N 647.408 -1.11026 -1.11852 0
M  V30 6703 C 648.648 -0.866348 -1.85132 0
M  V30 6704 C 649.012 0.597236 -1.82475 0
M  V30 6705 O 650.213 0.957744 -2.51159 0
M  V30 6706 C 648.484 -1.40721 -3.28531 0
M  V30 6707 S 650.043 -1.29964 -4.19112 0
M  V30 6708 H 646.861 -0.312899 -0.638447 0
M  V30 6709 H 649.463 -1.41691 -1.34699 0
M  V30 6710 H 648.167 -2.46631 -3.28027 0
M  V30 6711 H 647.698 -0.85349 -3.8403 0
M  V30 6712 H 649.713 -0.261333 -4.95511 0
M  V30 6713 N 648.886 1.2938 -0.899927 0
M  V30 6714 C 649.833 2.27713 -0.376243 0
M  V30 6715 C 650.803 1.57016 0.541774 0
M  V30 6716 O 651.988 1.84997 0.466966 0
M  V30 6717 C 649.128 3.42889 0.39 0
M  V30 6718 C 648.241 4.28369 -0.558938 0
M  V30 6719 C 647.376 5.30726 0.224379 0
M  V30 6720 C 646.415 6.07862 -0.719068 0
M  V30 6721 N 645.552 7.02094 0.0298569 0
M  V30 6722 H 650.392 2.71888 -1.21988 0
M  V30 6723 H 647.929 1.33724 -0.612879 0
M  V30 6724 H 649.887 4.08443 0.850314 0
M  V30 6725 H 648.517 2.99743 1.19809 0
M  V30 6726 H 647.569 3.62986 -1.13777 0
M  V30 6727 H 648.881 4.82068 -1.2811 0
M  V30 6728 H 648.035 6.02098 0.745881 0
M  V30 6729 H 646.774 4.77759 0.979674 0
M  V30 6730 H 645.779 5.35353 -1.25207 0
M  V30 6731 H 647.004 6.62917 -1.4737 0
M  V30 6732 H 644.95 6.51496 0.767415 0
M  V30 6733 H 644.867 7.5335 -0.632391 0
M  V30 6734 H 646.135 7.77685 0.531615 0
M  V30 6735 N 650.364 0.662433 1.43002 0
M  V30 6736 C 651.613 0.176873 2.00923 0
M  V30 6737 C 651.926 -1.21954 1.52927 0
M  V30 6738 O 653.132 -1.80081 2.03182 0
M  V30 6739 C 651.588 0.265379 3.5892 0
M  V30 6740 C 651.196 1.66507 4.15908 0
M  V30 6741 C 652.94 -0.162103 4.2419 0
M  V30 6742 C 650.847 1.707 5.66229 0
M  V30 6743 H 649.777 0.0623627 0.751417 0
M  V30 6744 H 652.428 0.825813 1.63868 0
M  V30 6745 H 650.81 -0.451235 3.93421 0
M  V30 6746 H 651.984 2.40777 3.92891 0
M  V30 6747 H 650.299 2.03932 3.63044 0
M  V30 6748 H 652.896 -0.150745 5.34487 0
M  V30 6749 H 653.239 -1.19519 3.98774 0
M  V30 6750 H 653.772 0.503075 3.94606 0
M  V30 6751 H 650.511 2.7195 5.96426 0
M  V30 6752 H 650.031 1.00768 5.91275 0
M  V30 6753 H 651.71 1.45487 6.3043 0
M  V30 6754 N 651.842 -1.52309 0.404946 0
M  V30 6755 C 653.088 -2.02065 -0.172455 0
M  V30 6756 C 653.421 -1.29022 -1.45145 0
M  V30 6757 O 652.696 -0.395284 -1.90441 0
M  V30 6758 C 652.979 -3.5759 -0.424433 0
M  V30 6759 C 652.832 -4.41287 0.870945 0
M  V30 6760 C 654.151 -4.23186 -1.20837 0
M  V30 6761 H 651.27 -0.734454 -0.0612035 0
M  V30 6762 H 653.912 -1.82236 0.53759 0
M  V30 6763 H 652.062 -3.74617 -1.02929 0
M  V30 6764 H 653.734 -4.3598 1.50729 0
M  V30 6765 H 651.977 -4.07669 1.48284 0
M  V30 6766 H 652.648 -5.48171 0.649083 0
M  V30 6767 H 655.124 -4.10232 -0.696338 0
M  V30 6768 H 654 -5.31953 -1.35343 0
M  V30 6769 H 654.261 -3.81862 -2.22786 0
M  V30 6770 N 653.32 -0.135238 -1.57019 0
M  V30 6771 C 654.568 0.51777 -1.95355 0
M  V30 6772 C 654.889 1.6617 -1.02042 0
M  V30 6773 O 654.159 1.95738 -0.0797343 0
M  V30 6774 H 652.739 0.194264 -0.721298 0
M  V30 6775 H 655.401 -0.207983 -1.93787 0
M  V30 6776 H 654.497 0.901675 -2.98791 0
M  V30 6777 N 654.798 1.5699 0.138552 0
M  V30 6778 C 656.023 1.88344 0.86841 0
M  V30 6779 C 656.448 0.725159 1.7356 0
M  V30 6780 O 655.806 -0.324992 1.78363 0
M  V30 6781 C 655.854 3.18334 1.69398 0
M  V30 6782 O 654.958 3.02863 2.79907 0
M  V30 6783 H 654.299 0.618577 0.241367 0
M  V30 6784 H 656.829 2.04207 0.126826 0
M  V30 6785 H 656.839 3.50567 2.08726 0
M  V30 6786 H 655.514 4.02238 1.05725 0
M  V30 6787 H 654.091 2.82056 2.43924 0
M  V30 6788 N 656.276 -0.40816 1.52223 0
M  V30 6789 C 657.687 -0.986929 1.58482 0
M  V30 6790 C 658.038 -1.91521 0.425917 0
M  V30 6791 O 657.163 -2.11593 -0.453593 0
M  V30 6792 C 657.758 -1.7967 2.87235 0
M  V30 6793 C 656.317 -2.32549 2.9597 0
M  V30 6794 C 655.464 -1.12558 2.53428 0
M  V30 6795 H 658.415 -0.188362 1.57578 0
M  V30 6796 H 658.436 -2.65417 2.72642 0
M  V30 6797 H 657.948 -1.12082 3.71563 0
M  V30 6798 H 656.049 -3.03505 2.16137 0
M  V30 6799 H 656.162 -2.63348 4.00231 0
M  V30 6800 H 654.526 -1.47984 2.07299 0
M  V30 6801 H 655.309 -0.465351 3.40131 0
M  V30 6802 N 657.755 -1.42862 -0.66545 0
M  V30 6803 C 659.032 -1.3431 -1.42197 0
M  V30 6804 C 659.412 0.0150265 -2.11095 0
M  V30 6805 O 658.76 1.03101 -2.03918 0
M  V30 6806 C 658.97 -2.51783 -2.41674 0
M  V30 6807 C 660.318 -2.94321 -3.0604 0
M  V30 6808 O 661.342 -2.51741 -2.52001 0
M  V30 6809 O 660.201 -3.68047 -4.03985 0
M  V30 6810 H 657.295 -0.530159 -0.634713 0
M  V30 6811 H 659.841 -1.54888 -0.693386 0
M  V30 6812 H 658.613 -3.42282 -1.89627 0
M  V30 6813 H 658.236 -2.33241 -3.22001 0
M  V30 6814 N 659.233 0.902656 -1.29189 0
M  V30 6815 C 660.163 2.02294 -1.16616 0
M  V30 6816 C 661.144 1.6999 -0.0611175 0
M  V30 6817 O 662.329 1.9271 -0.240072 0
M  V30 6818 C 659.459 3.37018 -0.83882 0
M  V30 6819 C 658.413 3.83522 -1.89986 0
M  V30 6820 C 657.739 5.15337 -1.42589 0
M  V30 6821 C 659.039 4.04169 -3.30824 0
M  V30 6822 H 660.733 2.13071 -2.10336 0
M  V30 6823 H 658.279 1.02378 -1.01266 0
M  V30 6824 H 660.232 4.14895 -0.737584 0
M  V30 6825 H 658.956 3.26325 0.134071 0
M  V30 6826 H 657.615 3.07859 -1.99043 0
M  V30 6827 H 657.263 5.01056 -0.441759 0
M  V30 6828 H 656.963 5.47423 -2.13547 0
M  V30 6829 H 658.487 5.95758 -1.3381 0
M  V30 6830 H 659.901 4.72537 -3.24626 0
M  V30 6831 H 658.298 4.47604 -3.99713 0
M  V30 6832 H 659.368 3.08604 -3.74021 0
M  V30 6833 N 660.711 1.11618 1.11262 0
M  V30 6834 C 661.658 0.7762 2.17356 0
M  V30 6835 C 662.628 -0.253152 1.6416 0
M  V30 6836 O 663.813 -0.129655 1.90359 0
M  V30 6837 C 660.953 0.227581 3.44349 0
M  V30 6838 C 660.066 1.31372 4.1154 0
M  V30 6839 C 659.201 0.72544 5.26223 0
M  V30 6840 C 658.24 1.7913 5.85302 0
M  V30 6841 N 657.377 1.22237 6.91377 0
M  V30 6842 H 662.217 1.68508 2.45783 0
M  V30 6843 H 659.754 0.841475 1.20655 0
M  V30 6844 H 661.712 -0.108483 4.17059 0
M  V30 6845 H 660.342 -0.644486 3.16301 0
M  V30 6846 H 659.394 1.7667 3.36885 0
M  V30 6847 H 660.706 2.12005 4.51504 0
M  V30 6848 H 659.86 0.339541 6.05749 0
M  V30 6849 H 658.599 -0.112188 4.87571 0
M  V30 6850 H 657.604 2.18648 5.04453 0
M  V30 6851 H 658.829 2.63199 6.26022 0
M  V30 6852 H 656.775 0.406423 6.5474 0
M  V30 6853 H 656.692 1.9654 7.30006 0
M  V30 6854 H 657.96 0.863426 7.74703 0
M  V30 6855 N 662.189 -1.289 0.906776 0
M  V30 6856 C 663.6 -1.77336 0.58384 0
M  V30 6857 C 663.951 -1.74304 -0.900697 0
M  V30 6858 O 663.076 -1.33335 -1.70443 0
M  V30 6859 C 663.671 -3.22019 1.05304 0
M  V30 6860 C 662.23 -3.68205 0.781148 0
M  V30 6861 C 661.377 -2.48837 1.22373 0
M  V30 6862 H 664.328 -1.15462 1.08877 0
M  V30 6863 H 664.349 -3.78481 0.391414 0
M  V30 6864 H 663.861 -3.24194 2.13353 0
M  V30 6865 H 661.962 -3.71497 -0.28643 0
M  V30 6866 H 662.075 -4.58675 1.384 0
M  V30 6867 H 660.439 -2.46461 0.642594 0
M  V30 6868 H 661.222 -2.53736 2.31242 0
M  V30 6869 N 663.667 -0.670007 -1.42649 0
M  V30 6870 C 664.577 0.0114788 -2.34597 0
M  V30 6871 C 665.593 0.794055 -1.54825 0
M  V30 6872 O 666.769 0.737472 -1.87412 0
M  V30 6873 C 663.834 0.954436 -3.33304 0
M  V30 6874 C 662.895 0.166925 -4.28975 0
M  V30 6875 C 662.128 1.06497 -5.22967 0
M  V30 6876 O 662.351 2.30446 -5.21777 0
M  V30 6877 O 661.285 0.528347 -5.99577 0
M  V30 6878 H 665.111 -0.745794 -2.944 0
M  V30 6879 H 662.696 -0.430228 -1.43071 0
M  V30 6880 H 664.578 1.49589 -3.93956 0
M  V30 6881 H 663.253 1.69164 -2.7598 0
M  V30 6882 H 662.16 -0.418515 -3.71752 0
M  V30 6883 H 663.493 -0.531067 -4.89327 0
M  V30 6884 N 665.145 1.52092 -0.413018 0
M  V30 6885 C 666.373 2.06274 0.160881 0
M  V30 6886 C 666.788 1.28273 1.38533 0
M  V30 6887 O 666.145 0.33563 1.79387 0
M  V30 6888 C 666.196 3.57921 0.507443 0
M  V30 6889 O 665.917 4.32971 -0.668388 0
M  V30 6890 C 667.418 4.28533 1.13465 0
M  V30 6891 H 664.638 0.67074 0.0186759 0
M  V30 6892 H 667.182 1.95951 -0.585092 0
M  V30 6893 H 665.337 3.68238 1.20331 0
M  V30 6894 H 665.751 5.23135 -0.378169 0
M  V30 6895 H 667.225 5.35804 1.32732 0
M  V30 6896 H 667.702 3.85258 2.10886 0
M  V30 6897 H 668.308 4.22595 0.478876 0
M  V30 6898 N 666.623 0.143563 1.56945 0
M  V30 6899 C 667.848 -0.518701 2.00809 0
M  V30 6900 C 668.273 -1.5785 1.02298 0
M  V30 6901 O 667.631 -1.813 -0.0017839 0
M  V30 6902 C 667.679 -1.09929 3.43436 0
M  V30 6903 O 666.783 -2.21425 3.47915 0
M  V30 6904 H 666.124 -0.127215 0.6517 0
M  V30 6905 H 668.654 0.239283 2.03196 0
M  V30 6906 H 668.664 -1.4288 3.82164 0
M  V30 6907 H 667.339 -0.323162 4.14643 0
M  V30 6908 H 665.916 -1.89728 3.21026 0
M  V30 6909 N 668.101 -1.57061 -0.130224 0
M  V30 6910 C 669.011 -2.02802 -1.17934 0
M  V30 6911 C 670.027 -0.946378 -1.46013 0
M  V30 6912 O 671.203 -1.25708 -1.57351 0
M  V30 6913 C 668.268 -2.41368 -2.48882 0
M  V30 6914 C 667.329 -3.63561 -2.28301 0
M  V30 6915 C 666.562 -4.00279 -3.53005 0
M  V30 6916 O 666.785 -3.37463 -4.59864 0
M  V30 6917 O 665.719 -4.93441 -3.44673 0
M  V30 6918 H 669.545 -2.92394 -0.820958 0
M  V30 6919 H 667.13 -1.45475 -0.340197 0
M  V30 6920 H 669.012 -2.66958 -3.26054 0
M  V30 6921 H 667.687 -1.54926 -2.84217 0
M  V30 6922 H 666.594 -3.43136 -1.49025 0
M  V30 6923 H 667.927 -4.50673 -1.97875 0
M  V30 6924 N 669.579 0.400081 -1.52437 0
M  V30 6925 C 670.804 1.17221 -1.71096 0
M  V30 6926 C 671.229 1.83269 -0.423565 0
M  V30 6927 O 670.587 1.70378 0.619751 0
M  V30 6928 C 670.635 2.20425 -2.85386 0
M  V30 6929 O 669.739 3.26769 -2.51586 0
M  V30 6930 H 669.08 0.341766 -0.569291 0
M  V30 6931 H 671.61 0.467772 -1.99181 0
M  V30 6932 H 671.62 2.64605 -3.10561 0
M  V30 6933 H 670.295 1.71737 -3.78786 0
M  V30 6934 H 668.872 2.87804 -2.37114 0
M  V30 6935 N 671.057 1.43213 0.657864 0
M  V30 6936 C 672.303 1.45795 1.41829 0
M  V30 6937 C 672.658 0.0792176 1.92237 0
M  V30 6938 O 671.951 -0.901406 1.69072 0
M  V30 6939 C 672.145 2.43143 2.61947 0
M  V30 6940 C 671.974 3.90345 2.23295 0
M  V30 6941 C 670.744 4.58749 2.11843 0
M  V30 6942 C 672.942 4.80308 1.83873 0
M  V30 6943 N 670.924 5.90898 1.66473 0
M  V30 6944 C 672.295 6.01693 1.49549 0
M  V30 6945 C 674.35 4.67609 1.71015 0
M  V30 6946 C 673.053 7.11792 1.03657 0
M  V30 6947 C 675.079 5.77707 1.26527 0
M  V30 6948 C 674.441 6.98215 0.931379 0
M  V30 6949 H 670.54 0.588628 0.514822 0
M  V30 6950 H 673.124 1.7936 0.7575 0
M  V30 6951 H 671.295 2.11612 3.25692 0
M  V30 6952 H 673.027 2.36193 3.28626 0
M  V30 6953 H 669.782 4.1319 2.31453 0
M  V30 6954 H 670.206 6.61034 1.46163 0
M  V30 6955 H 674.848 3.74902 1.95469 0
M  V30 6956 H 672.566 8.04332 0.779502 0
M  V30 6957 H 676.152 5.69899 1.17074 0
M  V30 6958 H 675.032 7.81959 0.592379 0
M  V30 6959 N 672.536 -0.895792 1.29666 0
M  V30 6960 C 673.446 -2.03329 1.17024 0
M  V30 6961 C 674.462 -1.73753 0.0925962 0
M  V30 6962 O 675.638 -1.99071 0.305431 0
M  V30 6963 C 672.703 -3.36072 0.851841 0
M  V30 6964 C 671.764 -3.7914 2.01373 0
M  V30 6965 C 670.997 -5.05549 1.71043 0
M  V30 6966 O 671.22 -5.66874 0.633213 0
M  V30 6967 O 670.154 -5.44764 2.5596 0
M  V30 6968 H 673.98 -2.16918 2.12556 0
M  V30 6969 H 671.565 -1.02007 1.09156 0
M  V30 6970 H 673.447 -4.15729 0.689006 0
M  V30 6971 H 672.122 -3.23616 -0.0736634 0
M  V30 6972 H 671.029 -3.00233 2.23183 0
M  V30 6973 H 672.362 -3.96186 2.92058 0
M  V30 6974 N 674.014 -1.12206 -1.10668 0
M  V30 6975 C 674.944 -0.810086 -2.18997 0
M  V30 6976 C 675.925 0.225065 -1.68604 0
M  V30 6977 O 677.11 0.086783 -1.94006 0
M  V30 6978 C 674.24 -0.261262 -3.46316 0
M  V30 6979 C 673.194 -1.2292 -4.09969 0
M  V30 6980 C 672.52 -0.540713 -5.31959 0
M  V30 6981 C 673.82 -2.58295 -4.53962 0
M  V30 6982 H 675.514 -1.7159 -2.45352 0
M  V30 6983 H 673.06 -0.82646 -1.17922 0
M  V30 6984 H 675.013 -0.0307522 -4.21389 0
M  V30 6985 H 673.737 0.679879 -3.19445 0
M  V30 6986 H 672.396 -1.44548 -3.369 0
M  V30 6987 H 672.044 0.405492 -5.01363 0
M  V30 6988 H 671.744 -1.18637 -5.75499 0
M  V30 6989 H 673.268 -0.319184 -6.09765 0
M  V30 6990 H 674.682 -2.40709 -5.20319 0
M  V30 6991 H 673.079 -3.18916 -5.08343 0
M  V30 6992 H 674.149 -3.16918 -3.67002 0
M  V30 6993 N 675.492 1.28418 -0.913599 0
M  V30 6994 C 676.74 1.94596 -0.545594 0
M  V30 6995 C 677.061 1.7227 0.913668 0
M  V30 6996 O 676.331 1.06233 1.64595 0
M  V30 6997 H 674.911 0.720065 -0.198783 0
M  V30 6998 H 677.573 1.56404 -1.16292 0
M  V30 6999 H 676.669 3.03202 -0.739911 0
M  V30 7000 N 676.97 0.677563 1.42291 0
M  V30 7001 C 677.9 0.014968 2.33495 0
M  V30 7002 C 678.881 -0.786376 1.50831 0
M  V30 7003 O 680.066 -0.742975 1.79426 0
M  V30 7004 C 677.196 -0.935023 3.34477 0
M  V30 7005 C 676.15 -0.242074 4.27315 0
M  V30 7006 C 675.476 -1.30519 5.18526 0
M  V30 7007 C 676.776 0.880604 5.14823 0
M  V30 7008 H 678.47 0.776671 2.89151 0
M  V30 7009 H 676.016 0.37494 1.39033 0
M  V30 7010 H 677.969 -1.40766 3.97194 0
M  V30 7011 H 676.693 -1.72818 2.77131 0
M  V30 7012 H 675.352 0.210351 3.65996 0
M  V30 7013 H 675 -2.09041 4.57505 0
M  V30 7014 H 674.7 -0.846652 5.81468 0
M  V30 7015 H 676.224 -1.7787 5.84119 0
M  V30 7016 H 677.638 0.489062 5.7121 0
M  V30 7017 H 676.035 1.26511 5.86613 0
M  V30 7018 H 677.105 1.72818 4.53059 0
M  V30 7019 N 678.448 -1.51871 0.421078 0
M  V30 7020 C 679.678 -2.06057 -0.149723 0
M  V30 7021 C 680.086 -1.29002 -1.38402 0
M  V30 7022 O 679.429 -0.338385 -1.80556 0
M  V30 7023 C 679.491 -3.55216 -0.553339 0
M  V30 7024 C 679.155 -4.53408 0.571879 0
M  V30 7025 C 680.152 -4.99586 1.4391 0
M  V30 7026 C 677.837 -4.967 0.747979 0
M  V30 7027 C 679.831 -5.87711 2.46727 0
M  V30 7028 C 677.518 -5.84619 1.77944 0
M  V30 7029 C 678.516 -6.30021 2.63748 0
M  V30 7030 O 678.204 -7.16197 3.65126 0
M  V30 7031 H 677.936 -0.675744 -0.0186102 0
M  V30 7032 H 680.49 -1.96618 0.594166 0
M  V30 7033 H 678.72 -3.62381 -1.34969 0
M  V30 7034 H 680.409 -3.91992 -1.05342 0
M  V30 7035 H 681.175 -4.66846 1.31451 0
M  V30 7036 H 677.054 -4.60913 0.0897357 0
M  V30 7037 H 680.598 -6.2307 3.13734 0
M  V30 7038 H 676.495 -6.16771 1.90429 0
M  V30 7039 H 677.263 -7.34337 3.61512 0
M  V30 7040 N 679.926 -0.151884 -1.56866 0
M  V30 7041 C 681.156 0.504081 -2.00356 0
M  V30 7042 C 681.564 1.58639 -1.03103 0
M  V30 7043 O 680.907 1.83688 -0.0207931 0
M  V30 7044 C 680.969 1.15975 -3.40279 0
M  V30 7045 C 680.633 0.221453 -4.56463 0
M  V30 7046 C 681.63 -0.552766 -5.16953 0
M  V30 7047 C 679.315 0.122936 -5.0215 0
M  V30 7048 C 681.309 -1.4129 -6.21543 0
M  V30 7049 C 678.996 -0.740801 -6.06593 0
M  V30 7050 C 679.994 -1.50732 -6.6616 0
M  V30 7051 O 679.682 -2.35666 -7.68581 0
M  V30 7052 H 679.414 0.135279 -0.662326 0
M  V30 7053 H 681.968 -0.244916 -2.03935 0
M  V30 7054 H 680.198 1.95649 -3.33554 0
M  V30 7055 H 681.887 1.71594 -3.67846 0
M  V30 7056 H 682.653 -0.486716 -4.82552 0
M  V30 7057 H 678.532 0.70931 -4.5551 0
M  V30 7058 H 682.076 -2.01166 -6.67966 0
M  V30 7059 H 677.973 -0.808125 -6.40421 0
M  V30 7060 H 678.741 -2.28967 -7.85822 0
M  V30 7061 N 681.404 1.57128 0.121893 0
M  V30 7062 C 682.337 1.95327 1.17995 0
M  V30 7063 C 683.315 0.822524 1.40262 0
M  V30 7064 O 684.499 1.08044 1.54463 0
M  V30 7065 C 681.626 2.24699 2.53432 0
M  V30 7066 C 680.672 3.47263 2.4761 0
M  V30 7067 S 681.505 4.99951 1.91857 0
M  V30 7068 C 682.661 5.32473 3.28973 0
M  V30 7069 H 682.894 2.84765 0.854182 0
M  V30 7070 H 680.427 1.50864 0.328534 0
M  V30 7071 H 682.385 2.423 3.31362 0
M  V30 7072 H 681.046 1.3588 2.83188 0
M  V30 7073 H 680.239 3.65171 3.4737 0
M  V30 7074 H 679.841 3.29034 1.778 0
M  V30 7075 H 682.133 5.27478 4.25175 0
M  V30 7076 H 683.076 6.33732 3.15895 0
M  V30 7077 H 683.484 4.59952 3.27268 0
M  V30 7078 N 682.882 -0.391992 1.52647 0
M  V30 7079 C 684.13 -1.13507 1.67214 0
M  V30 7080 C 684.451 -1.90575 0.41304 0
M  V30 7081 O 683.721 -1.87348 -0.572498 0
M  V30 7082 H 682.301 -0.422013 0.616372 0
M  V30 7083 H 684.963 -0.44502 1.89751 0
M  V30 7084 H 684.059 -1.83964 2.52118 0
M  V30 7085 N 684.36 -1.4356 -0.65026 0
M  V30 7086 C 685.27 -1.514 -1.79207 0
M  V30 7087 C 686.286 -0.400895 -1.69319 0
M  V30 7088 O 687.462 -0.655458 -1.90436 0
M  V30 7089 C 684.527 -1.43737 -3.155 0
M  V30 7090 C 683.588 -2.65743 -3.37163 0
M  V30 7091 C 682.821 -2.58436 -4.66954 0
M  V30 7092 O 683.044 -1.63374 -5.46503 0
M  V30 7093 O 681.978 -3.48984 -4.90402 0
M  V30 7094 H 685.804 -2.47825 -1.75547 0
M  V30 7095 H 683.389 -1.25594 -0.809111 0
M  V30 7096 H 685.271 -1.41916 -3.96784 0
M  V30 7097 H 683.946 -0.504488 -3.19745 0
M  V30 7098 H 682.853 -2.73136 -2.55632 0
M  V30 7099 H 684.186 -3.58014 -3.37768 0
M  V30 7100 N 685.838 0.888903 -1.30139 0
M  V30 7101 C 686.748 2.02705 -1.18101 0
M  V30 7102 C 687.764 1.73702 -0.101809 0
M  V30 7103 O 688.94 1.98906 -0.315984 0
M  V30 7104 C 686.005 3.35616 -0.869651 0
M  V30 7105 C 685.066 3.78067 -2.03381 0
M  V30 7106 C 684.299 5.04635 -1.73721 0
M  V30 7107 O 684.522 5.66531 -0.663267 0
M  V30 7108 O 683.456 5.43399 -2.58845 0
M  V30 7109 H 687.282 2.15788 -2.13704 0
M  V30 7110 H 684.867 1.01426 -1.09695 0
M  V30 7111 H 686.749 4.15358 -0.711043 0
M  V30 7112 H 685.424 3.23651 0.0565002 0
M  V30 7113 H 684.331 2.99046 -2.24772 0
M  V30 7114 H 685.664 3.94631 -2.94155 0
M  V30 7115 N 687.317 1.12792 1.10072 0
M  V30 7116 C 688.565 0.883796 1.81751 0
M  V30 7117 C 688.886 -0.591891 1.858 0
M  V30 7118 O 688.156 -1.43017 1.33876 0
M  V30 7119 H 686.736 0.323978 0.673088 0
M  V30 7120 H 689.398 1.42314 1.33164 0
M  V30 7121 H 688.494 1.26863 2.85153 0
M  V30 7122 N 688.795 -1.27931 0.920396 0
M  V30 7123 C 690.041 -1.95329 0.5673 0
M  V30 7124 C 690.396 -1.7107 -0.880506 0
M  V30 7125 O 689.689 -1.02497 -1.61879 0
M  V30 7126 C 689.883 -3.47853 0.820558 0
M  V30 7127 C 689.712 -3.86941 2.29143 0
M  V30 7128 C 688.482 -4.10766 2.94278 0
M  V30 7129 C 690.68 -3.97091 3.26838 0
M  V30 7130 N 688.662 -4.36578 4.31594 0
M  V30 7131 C 690.033 -4.27194 4.49339 0
M  V30 7132 C 692.088 -3.79639 3.22147 0
M  V30 7133 C 690.791 -4.41662 5.67739 0
M  V30 7134 C 692.817 -3.95328 4.39852 0
M  V30 7135 C 692.179 -4.2581 5.61128 0
M  V30 7136 H 688.278 -0.73836 0.257583 0
M  V30 7137 H 690.862 -1.54447 1.1855 0
M  V30 7138 H 689.033 -3.87709 0.231571 0
M  V30 7139 H 690.765 -4.024 0.430824 0
M  V30 7140 H 687.52 -4.05318 2.44979 0
M  V30 7141 H 687.944 -4.53555 5.0261 0
M  V30 7142 H 692.586 -3.55119 2.29457 0
M  V30 7143 H 690.304 -4.65011 6.60901 0
M  V30 7144 H 693.89 -3.83253 4.37731 0
M  V30 7145 H 692.77 -4.37691 6.50689 0
M  V30 7146 N 690.273 -0.685099 -1.4193 0
M  V30 7147 C 691.203 -0.0273506 -2.33484 0
M  V30 7148 C 692.184 0.778366 -1.51246 0
M  V30 7149 O 693.369 0.733449 -1.79817 0
M  V30 7150 C 690.499 0.917272 -3.34968 0
M  V30 7151 C 689.453 0.21941 -4.27437 0
M  V30 7152 C 688.779 1.27768 -5.1921 0
M  V30 7153 C 690.079 -0.907894 -5.14349 0
M  V30 7154 H 691.773 -0.791994 -2.88735 0
M  V30 7155 H 689.319 -0.382308 -1.38832 0
M  V30 7156 H 691.272 1.38657 -3.97935 0
M  V30 7157 H 689.996 1.71346 -2.78043 0
M  V30 7158 H 688.655 -0.229757 -3.65879 0
M  V30 7159 H 688.303 2.06612 -4.58607 0
M  V30 7160 H 688.003 0.815803 -5.81909 0
M  V30 7161 H 689.527 1.7477 -5.85054 0
M  V30 7162 H 690.941 -0.519348 -5.70943 0
M  V30 7163 H 689.338 -1.2962 -5.85934 0
M  V30 7164 H 690.408 -1.75218 -4.52136 0
M  V30 7165 N 691.751 1.51645 -0.429126 0
M  V30 7166 C 692.661 2.31288 0.392809 0
M  V30 7167 C 693.677 1.39852 1.03525 0
M  V30 7168 O 694.853 1.72926 1.03241 0
M  V30 7169 C 691.918 3.13347 1.48372 0
M  V30 7170 C 690.979 4.20551 0.862268 0
M  V30 7171 C 690.212 4.98688 1.9012 0
M  V30 7172 O 690.435 4.77359 3.12225 0
M  V30 7173 O 689.369 5.83005 1.4963 0
M  V30 7174 H 693.195 3.02609 -0.257138 0
M  V30 7175 H 690.78 1.48163 -0.191851 0
M  V30 7176 H 692.662 3.64387 2.1166 0
M  V30 7177 H 691.337 2.44799 2.1179 0
M  V30 7178 H 690.244 3.73609 0.191568 0
M  V30 7179 H 691.577 4.91449 0.271704 0
M  V30 7180 N 693.229 0.160201 1.56784 0
M  V30 7181 C 694.477 -0.486625 1.96154 0
M  V30 7182 C 694.798 -1.64525 1.04673 0
M  V30 7183 O 694.068 -1.95586 0.110864 0
M  V30 7184 H 692.648 -0.182764 0.724297 0
M  V30 7185 H 695.31 0.238787 1.93432 0
M  V30 7186 H 694.406 -0.854025 3.00188 0
M  V30 7187 N 694.707 -1.5719 -0.113559 0
M  V30 7188 C 695.953 -1.85412 -0.821597 0
M  V30 7189 C 696.286 -0.746722 -1.7927 0
M  V30 7190 O 695.561 0.246971 -1.92926 0
M  V30 7191 C 695.844 -3.24233 -1.56669 0
M  V30 7192 C 695.697 -4.45578 -0.614823 0
M  V30 7193 C 697.016 -3.60697 -2.52161 0
M  V30 7194 H 694.135 -0.674406 -0.29723 0
M  V30 7195 H 696.777 -1.89807 -0.085694 0
M  V30 7196 H 694.927 -3.20617 -2.19401 0
M  V30 7197 H 696.599 -4.613 0.00407137 0
M  V30 7198 H 694.842 -4.33738 0.0732332 0
M  V30 7199 H 695.513 -5.39395 -1.17292 0
M  V30 7200 H 697.989 -3.65139 -1.99532 0
M  V30 7201 H 696.865 -4.58798 -3.01323 0
M  V30 7202 H 697.126 -2.88403 -3.35076 0
M  V30 7203 N 696.185 0.383891 -1.52853 0
M  V30 7204 C 697.095 1.49343 -1.80925 0
M  V30 7205 C 698.111 1.59458 -0.696348 0
M  V30 7206 O 699.287 1.75698 -0.984481 0
M  V30 7207 C 696.352 2.84819 -1.97684 0
M  V30 7208 C 695.413 2.84382 -3.21598 0
M  V30 7209 C 694.646 4.13397 -3.37548 0
M  V30 7210 O 694.869 5.08619 -2.58192 0
M  V30 7211 O 693.803 4.20325 -4.30826 0
M  V30 7212 H 697.629 1.2855 -2.75152 0
M  V30 7213 H 695.214 0.572229 -1.38007 0
M  V30 7214 H 697.096 3.65125 -2.10385 0
M  V30 7215 H 695.771 3.05627 -1.06647 0
M  V30 7216 H 694.678 2.0284 -3.14336 0
M  V30 7217 H 696.011 2.68526 -4.12498 0
M  V30 7218 N 697.663 1.43903 0.642637 0
M  V30 7219 C 698.888 1.49758 1.43483 0
M  V30 7220 C 699.313 0.119911 1.87717 0
M  V30 7221 O 698.671 -0.888558 1.58033 0
M  V30 7222 C 698.719 2.45744 2.63898 0
M  V30 7223 O 697.823 1.95101 3.63331 0
M  V30 7224 H 697.164 0.506138 0.429791 0
M  V30 7225 H 699.694 1.88923 0.785438 0
M  V30 7226 H 699.704 2.63399 3.11584 0
M  V30 7227 H 698.379 3.45818 2.31046 0
M  V30 7228 H 696.956 1.87158 3.22531 0
M  V30 7229 N 699.141 -0.881989 1.30609 0
M  V30 7230 C 700.366 -1.67236 1.22665 0
M  V30 7231 C 700.791 -1.8696 -0.206777 0
M  V30 7232 O 700.149 -1.4027 -1.14865 0
M  V30 7233 C 700.197 -3.02446 1.96363 0
M  V30 7234 O 699.301 -3.91614 1.29276 0
M  V30 7235 H 698.642 -0.510902 0.424117 0
M  V30 7236 H 701.172 -1.10055 1.72479 0
M  V30 7237 H 701.182 -3.52468 2.055 0
M  V30 7238 H 699.857 -2.8741 3.00613 0
M  V30 7239 H 698.434 -3.50055 1.28514 0
M  V30 7240 N 700.619 -1.13374 -1.09472 0
M  V30 7241 C 701.865 -0.896516 -1.81908 0
M  V30 7242 C 702.198 0.575933 -1.85463 0
M  V30 7243 O 701.473 1.42618 -1.32251 0
M  V30 7244 C 701.756 -1.48445 -3.28079 0
M  V30 7245 C 701.609 -3.02598 -3.32798 0
M  V30 7246 C 702.928 -1.15226 -4.24748 0
M  V30 7247 H 700.047 -0.327127 -0.660422 0
M  V30 7248 H 702.689 -1.40195 -1.2824 0
M  V30 7249 H 700.839 -1.0546 -3.73912 0
M  V30 7250 H 702.511 -3.54335 -2.95372 0
M  V30 7251 H 700.754 -3.37613 -2.72397 0
M  V30 7252 H 701.425 -3.38835 -4.3577 0
M  V30 7253 H 703.901 -1.52369 -3.87199 0
M  V30 7254 H 702.777 -1.59012 -5.25363 0
M  V30 7255 H 703.038 -0.0658891 -4.42051 0
M  V30 7256 N 702.098 1.27442 -0.927168 0
M  V30 7257 C 703.326 1.98498 -0.583622 0
M  V30 7258 C 703.741 1.69171 0.838241 0
M  V30 7259 O 703.098 0.951969 1.55704 0
M  V30 7260 C 703.149 3.52552 -0.799341 0
M  V30 7261 O 702.87 3.80851 -2.16527 0
M  V30 7262 C 704.371 4.4086 -0.464436 0
M  V30 7263 H 701.591 0.633487 -0.221213 0
M  V30 7264 H 704.135 1.62308 -1.24404 0
M  V30 7265 H 702.29 3.86955 -0.185728 0
M  V30 7266 H 702.704 4.75441 -2.21487 0
M  V30 7267 H 704.178 5.47967 -0.666075 0
M  V30 7268 H 704.655 4.35082 0.599995 0
M  V30 7269 H 705.261 4.11977 -1.05617 0
M  V30 7270 N 703.576 0.692616 1.41565 0
M  V30 7271 C 704.822 0.222664 2.01574 0
M  V30 7272 C 705.155 -1.1737 1.54719 0
M  V30 7273 O 704.43 -1.79161 0.757084 0
M  V30 7274 C 704.713 0.277064 3.59033 0
M  V30 7275 C 704.566 1.71016 4.16021 0
M  V30 7276 C 705.885 -0.36479 4.38586 0
M  V30 7277 H 703.004 0.0823839 0.732381 0
M  V30 7278 H 705.646 0.880778 1.68352 0
M  V30 7279 H 703.796 -0.283288 3.87466 0
M  V30 7280 H 705.468 2.32413 3.98475 0
M  V30 7281 H 703.711 2.24525 3.71175 0
M  V30 7282 H 704.382 1.69978 5.25178 0
M  V30 7283 H 706.858 0.112404 4.15948 0
M  V30 7284 H 705.734 -0.296169 5.481 0
M  V30 7285 H 705.995 -1.44506 4.17816 0
M  V30 7286 N 705.054 -1.51416 0.437162 0
M  V30 7287 C 706.301 -2.02086 -0.129364 0
M  V30 7288 C 706.629 -1.32133 -1.42728 0
M  V30 7289 O 705.884 -0.424916 -1.91031 0
M  V30 7290 C 706.183 -3.55203 -0.39564 0
M  V30 7291 C 705.849 -4.43447 0.81644 0
M  V30 7292 C 704.511 -4.67285 1.14884 0
M  V30 7293 C 706.863 -4.95219 1.62503 0
M  V30 7294 C 704.191 -5.40141 2.29052 0
M  V30 7295 C 706.543 -5.69327 2.7577 0
M  V30 7296 C 705.207 -5.91429 3.09464 0
M  V30 7297 H 704.477 -0.739486 -0.0473375 0
M  V30 7298 H 707.124 -1.82368 0.584321 0
M  V30 7299 H 705.429 -3.73252 -1.19121 0
M  V30 7300 H 707.126 -3.91944 -0.847399 0
M  V30 7301 H 703.716 -4.2509 0.547422 0
M  V30 7302 H 707.9 -4.76686 1.38144 0
M  V30 7303 H 703.156 -5.55468 2.55471 0
M  V30 7304 H 707.33 -6.08433 3.38795 0
M  V30 7305 H 704.957 -6.47662 3.98042 0
M  V30 7306 N 706.532 -0.168513 -1.56696 0
M  V30 7307 C 707.948 0.187686 -1.58493 0
M  V30 7308 C 708.148 1.63063 -1.18375 0
M  V30 7309 O 707.204 2.36142 -0.894042 0
M  V30 7310 C 708.517 -0.0905858 -3.00564 0
M  V30 7311 C 710.065 -0.028575 -3.12987 0
M  V30 7312 C 710.54 -0.279799 -4.57145 0
M  V30 7313 N 712.031 -0.227476 -4.62641 0
M  V30 7314 C 712.766 -0.396073 -5.7203 0
M  V30 7315 N 712.262 -0.623572 -6.89988 0
M  V30 7316 N 714.055 -0.332173 -5.61118 0
M  V30 7317 H 706.206 -1.11042 -1.81062 0
M  V30 7318 H 708.469 -0.441235 -0.839056 0
M  V30 7319 H 708.175 -1.09006 -3.34381 0
M  V30 7320 H 708.049 0.619078 -3.72085 0
M  V30 7321 H 710.436 0.961471 -2.78998 0
M  V30 7322 H 710.517 -0.770905 -2.43907 0
M  V30 7323 H 710.161 -1.26704 -4.91842 0
M  V30 7324 H 710.091 0.48311 -5.24379 0
M  V30 7325 H 712.582 -0.0571723 -3.77857 0
M  V30 7326 H 712.895 -0.741745 -7.69232 0
M  V30 7327 H 711.24 -0.660153 -6.91858 0
M  V30 7328 H 714.431 -0.155051 -4.67843 0
M  V30 7329 H 714.604 -0.466994 -6.46315 0
M  V30 7330 N 708.01 1.57248 0.105221 0
M  V30 7331 C 708.958 2.02337 1.14728 0
M  V30 7332 C 709.952 0.922652 1.42069 0
M  V30 7333 O 711.158 1.10785 1.41869 0
M  V30 7334 H 707.533 0.644682 0.387155 0
M  V30 7335 H 709.504 2.89063 0.740607 0
M  V30 7336 C 708.253 2.45513 2.46209 0
M  V30 7337 H 707.576 3.29785 2.26013 0
M  V30 7338 H 709.016 2.80846 3.1765 0
M  V30 7339 C 707.475 1.3243 3.09781 0
M  V30 7340 O 708.005 0.647841 3.96442 0
M  V30 7341 N 706.211 1.07785 2.69872 0
M  V30 7342 H 705.758 1.62973 1.99493 0
M  V30 7343 H 705.716 0.323204 3.12734 0
M  V30 7344 N 709.488 -0.375779 1.53054 0
M  V30 7345 C 710.765 -1.13453 1.59336 0
M  V30 7346 C 711.145 -2.07379 0.394614 0
M  V30 7347 O 710.493 -2.2004 -0.616 0
M  V30 7348 C 710.703 -1.8826 2.93869 0
M  V30 7349 C 712.051 -2.43155 3.48081 0
M  V30 7350 O 713.075 -1.984 2.95831 0
M  V30 7351 O 711.934 -3.24944 4.39401 0
M  V30 7352 H 709.028 -0.519856 0.643179 0
M  V30 7353 H 711.574 -0.379865 1.65394 0
M  V30 7354 H 710.346 -1.19652 3.72558 0
M  V30 7355 H 709.969 -2.70658 2.91256 0
M  V30 7356 N 710.966 -1.44241 -0.634997 0
M  V30 7357 C 712.212 -1.47038 -1.39669 0
M  V30 7358 C 712.545 -0.101122 -1.93937 0
M  V30 7359 O 711.82 0.880699 -1.73418 0
M  V30 7360 C 712.103 -2.52763 -2.56482 0
M  V30 7361 C 711.956 -3.99032 -2.07589 0
M  V30 7362 C 713.275 -2.55031 -3.58674 0
M  V30 7363 H 710.394 -0.53537 -0.506506 0
M  V30 7364 H 713.036 -1.75898 -0.718317 0
M  V30 7365 H 711.186 -2.28284 -3.14354 0
M  V30 7366 H 712.858 -4.3463 -1.54577 0
M  V30 7367 H 711.101 -4.10994 -1.38804 0
M  V30 7368 H 711.772 -4.68649 -2.91671 0
M  V30 7369 H 714.248 -2.76893 -3.10595 0
M  V30 7370 H 713.124 -3.30916 -4.37934 0
M  V30 7371 H 713.385 -1.59085 -4.12486 0
M  V30 7372 N 712.444 0.87505 -1.31075 0
M  V30 7373 C 713.391 1.98178 -1.18296 0
M  V30 7374 C 714.361 1.65952 -0.0699923 0
M  V30 7375 O 715.546 1.8926 -0.241951 0
M  V30 7376 C 712.686 3.33399 -0.891024 0
M  V30 7377 C 711.799 3.78253 -2.08684 0
M  V30 7378 C 710.934 5.02166 -1.73212 0
M  V30 7379 C 709.973 5.39455 -2.89231 0
M  V30 7380 N 709.11 6.54549 -2.53989 0
M  V30 7381 H 713.95 2.0844 -2.12971 0
M  V30 7382 H 711.487 1.02047 -1.05948 0
M  V30 7383 H 713.445 4.11246 -0.702338 0
M  V30 7384 H 712.075 3.22794 0.0188799 0
M  V30 7385 H 711.127 2.9623 -2.38646 0
M  V30 7386 H 712.439 4.01821 -2.95536 0
M  V30 7387 H 711.593 5.87666 -1.50777 0
M  V30 7388 H 710.332 4.80491 -0.83544 0
M  V30 7389 H 709.337 4.52477 -3.12321 0
M  V30 7390 H 710.562 5.63098 -3.79601 0
M  V30 7391 H 708.508 6.3443 -1.66838 0
M  V30 7392 H 708.425 6.78035 -3.34372 0
M  V30 7393 H 709.693 7.43254 -2.34934 0
M  V30 7394 N 713.922 1.13953 1.08869 0
M  V30 7395 C 715.199 0.815768 1.77777 0
M  V30 7396 C 715.579 -0.691624 1.99449 0
M  V30 7397 O 714.927 -1.63085 1.60049 0
M  V30 7398 C 715.137 1.60916 3.09689 0
M  V30 7399 C 716.485 1.80549 3.84301 0
M  V30 7400 O 717.509 1.57562 3.19457 0
M  V30 7401 O 716.368 2.18946 5.00724 0
M  V30 7402 H 713.462 0.298445 0.771271 0
M  V30 7403 H 716.008 1.24446 1.15374 0
M  V30 7404 H 714.78 2.6333 2.89435 0
M  V30 7405 H 714.403 1.17578 3.79817 0
M  V30 7406 N 715.4 -1.26948 0.933913 0
M  V30 7407 C 716.816 -1.46419 0.635103 0
M  V30 7408 C 717.016 -1.84336 -0.813785 0
M  V30 7409 O 716.072 -1.96061 -1.59111 0
M  V30 7410 C 717.385 -2.55206 1.5903 0
M  V30 7411 C 718.933 -2.69062 1.5992 0
M  V30 7412 C 719.408 -3.81013 2.54152 0
M  V30 7413 N 720.899 -3.88395 2.52395 0
M  V30 7414 C 721.634 -4.74454 3.21996 0
M  V30 7415 N 721.13 -5.64954 4.00997 0
M  V30 7416 N 722.923 -4.68237 3.10983 0
M  V30 7417 H 715.074 -1.00622 1.87053 0
M  V30 7418 H 717.337 -0.503189 0.803433 0
M  V30 7419 H 717.043 -2.34153 2.62422 0
M  V30 7420 H 716.917 -3.52719 1.33677 0
M  V30 7421 H 719.304 -2.89492 0.572569 0
M  V30 7422 H 719.385 -1.72016 1.89325 0
M  V30 7423 H 719.029 -3.61336 3.5693 0
M  V30 7424 H 718.959 -4.77499 2.22041 0
M  V30 7425 H 721.45 -3.23687 1.95025 0
M  V30 7426 H 721.763 -6.27496 4.51074 0
M  V30 7427 H 720.108 -5.6473 4.05099 0
M  V30 7428 H 723.299 -3.96535 2.48753 0
M  V30 7429 H 723.472 -5.35087 3.65494 0
M  V30 7430 N 716.879 -0.700114 -1.41195 0
M  V30 7431 C 718.128 -0.230082 -2.00383 0
M  V30 7432 C 718.441 1.17857 -1.56106 0
M  V30 7433 O 719.647 1.74631 -2.07885 0
M  V30 7434 C 718.103 -0.360447 -3.5809 0
M  V30 7435 C 717.711 -1.77475 -4.11347 0
M  V30 7436 C 719.455 0.0495799 -4.24471 0
M  V30 7437 C 717.362 -1.85653 -5.61504 0
M  V30 7438 H 716.292 -0.0822633 -0.749499 0
M  V30 7439 H 718.943 -0.868969 -1.6162 0
M  V30 7440 H 717.325 0.346768 -3.94479 0
M  V30 7441 H 718.499 -2.51109 -3.86369 0
M  V30 7442 H 716.814 -2.13486 -3.57509 0
M  V30 7443 H 719.411 0.00898219 -5.34699 0
M  V30 7444 H 719.754 1.08904 -4.01803 0
M  V30 7445 H 720.287 -0.607521 -3.93134 0
M  V30 7446 H 717.026 -2.87667 -5.89006 0
M  V30 7447 H 716.546 -1.1641 -5.88395 0
M  V30 7448 H 718.225 -1.62151 -6.26351 0
M  V30 7449 N 718.357 1.51182 -0.445186 0
M  V30 7450 C 719.582 2.07056 0.119445 0
M  V30 7451 C 720.007 1.30966 1.35016 0
M  V30 7452 O 719.365 0.349827 1.77893 0
M  V30 7453 C 719.413 3.58234 0.412428 0
M  V30 7454 O 718.517 3.84249 1.49754 0
M  V30 7455 H 717.858 0.663998 -0.00157797 0
M  V30 7456 H 720.388 1.94699 -0.628779 0
M  V30 7457 H 720.398 4.02617 0.660583 0
M  V30 7458 H 719.073 4.13038 -0.487049 0
M  V30 7459 H 717.65 3.51724 1.23873 0
M  V30 7460 N 719.835 0.176821 1.56605 0
M  V30 7461 C 721.084 -0.466833 1.96223 0
M  V30 7462 C 721.397 -1.64015 1.06576 0
M  V30 7463 O 722.603 -2.3504 1.35898 0
M  V30 7464 C 721.059 -0.881921 3.48927 0
M  V30 7465 C 720.667 0.266102 4.47209 0
M  V30 7466 C 722.411 -1.49368 3.97353 0
M  V30 7467 C 720.318 -0.168923 5.91159 0
M  V30 7468 H 719.248 -0.178178 0.732645 0
M  V30 7469 H 721.899 0.265929 1.81563 0
M  V30 7470 H 720.281 -1.67082 3.59026 0
M  V30 7471 H 721.455 1.04349 4.4883 0
M  V30 7472 H 719.77 0.788178 4.08872 0
M  V30 7473 H 722.367 -1.8313 5.02362 0
M  V30 7474 H 722.71 -2.3936 3.40606 0
M  V30 7475 H 723.243 -0.769114 3.90294 0
M  V30 7476 H 719.982 0.696351 6.51791 0
M  V30 7477 H 719.502 -0.911552 5.92833 0
M  V30 7478 H 721.181 -0.610938 6.44109 0
M  V30 7479 N 721.313 -1.57302 -0.09688 0
M  V30 7480 C 722.538 -1.9058 -0.818169 0
M  V30 7481 C 722.963 -0.770921 -1.71576 0
M  V30 7482 O 722.321 0.277588 -1.79162 0
M  V30 7483 C 722.369 -3.22714 -1.60898 0
M  V30 7484 O 721.473 -3.10178 -2.71779 0
M  V30 7485 H 720.814 -0.624759 -0.224882 0
M  V30 7486 H 723.344 -2.04471 -0.07264 0
M  V30 7487 H 723.354 -3.55978 -1.99358 0
M  V30 7488 H 722.029 -4.04899 -0.950227 0
M  V30 7489 H 720.606 -2.88424 -2.3636 0
M  V30 7490 N 722.791 0.367657 -1.53252 0
M  V30 7491 C 724.207 0.709191 -1.42978 0
M  V30 7492 C 724.407 1.93352 -0.567193 0
M  V30 7493 O 723.463 2.52453 -0.0488349 0
M  V30 7494 C 724.776 0.924338 -2.86141 0
M  V30 7495 C 726.324 1.02448 -2.95759 0
M  V30 7496 C 726.799 1.27211 -4.39979 0
M  V30 7497 N 728.29 1.33986 -4.43398 0
M  V30 7498 C 729.025 1.54852 -5.52095 0
M  V30 7499 N 728.521 1.73049 -6.7084 0
M  V30 7500 N 730.314 1.57205 -5.39669 0
M  V30 7501 H 722.465 -0.437669 -2.07842 0
M  V30 7502 H 724.728 -0.133737 -0.938519 0
M  V30 7503 H 724.434 0.0965455 -3.51567 0
M  V30 7504 H 724.308 1.83302 -3.29667 0
M  V30 7505 H 726.695 1.84282 -2.30487 0
M  V30 7506 H 726.776 0.0932301 -2.5563 0
M  V30 7507 H 726.42 0.458792 -5.05824 0
M  V30 7508 H 726.35 2.21654 -4.77679 0
M  V30 7509 H 728.841 1.21545 -3.5782 0
M  V30 7510 H 729.154 1.88538 -7.49449 0
M  V30 7511 H 727.499 1.70231 -6.7383 0
M  V30 7512 H 730.69 1.42555 -4.45865 0
M  V30 7513 H 730.863 1.73126 -6.24445 0
M  V30 7514 N 724.269 1.44576 0.627338 0
M  V30 7515 C 725.497 1.51048 1.41394 0
M  V30 7516 C 725.912 0.136568 1.88305 0
M  V30 7517 O 725.269 -0.858251 1.6106 0
M  V30 7518 C 725.32 2.47837 2.63172 0
M  V30 7519 O 725.041 3.79887 2.18215 0
M  V30 7520 C 726.542 2.63811 3.56257 0
M  V30 7521 H 723.762 0.512171 0.4335 0
M  V30 7522 H 726.306 1.89576 0.766878 0
M  V30 7523 H 724.461 2.12433 3.23961 0
M  V30 7524 H 724.875 4.32177 2.97192 0
M  V30 7525 H 726.349 3.35554 4.38301 0
M  V30 7526 H 726.826 1.69169 4.05313 0
M  V30 7527 H 727.432 3.0013 3.01333 0
M  V30 7528 N 725.747 -0.868086 1.31537 0
M  V30 7529 C 726.972 -1.65926 1.24432 0
M  V30 7530 C 727.397 -1.87169 -0.186936 0
M  V30 7531 O 726.755 -1.4148 -1.13371 0
M  V30 7532 C 726.803 -3.00347 1.9956 0
M  V30 7533 O 725.907 -3.90221 1.33422 0
M  V30 7534 H 725.248 -0.506375 0.429512 0
M  V30 7535 H 727.778 -1.0822 1.73637 0
M  V30 7536 H 727.788 -3.50269 2.09226 0
M  V30 7537 H 726.463 -2.84205 3.03645 0
M  V30 7538 H 725.04 -3.48672 1.32219 0
M  V30 7539 N 727.225 -1.14528 -1.08264 0
M  V30 7540 C 728.502 -0.825185 -1.77342 0
M  V30 7541 C 728.882 0.681037 -1.99813 0
M  V30 7542 O 728.23 1.62234 -1.60912 0
M  V30 7543 C 728.44 -1.62556 -3.08831 0
M  V30 7544 C 729.788 -1.82585 -3.83338 0
M  V30 7545 O 730.812 -1.59254 -3.18617 0
M  V30 7546 O 729.671 -2.21598 -4.99556 0
M  V30 7547 H 726.765 -0.302531 -0.769678 0
M  V30 7548 H 729.311 -1.25056 -1.14713 0
M  V30 7549 H 728.083 -2.64862 -2.88035 0
M  V30 7550 H 727.706 -1.1959 -3.79189 0
M  V30 7551 N 728.703 1.26451 -0.940633 0
M  V30 7552 C 729.949 1.94065 -0.58878 0
M  V30 7553 C 730.282 1.7363 0.869853 0
M  V30 7554 O 729.557 1.073 1.62225 0
M  V30 7555 C 729.84 3.47852 -0.931199 0
M  V30 7556 C 729.693 3.77575 -2.44453 0
M  V30 7557 C 731.012 4.37832 -0.446229 0
M  V30 7558 H 728.131 0.704827 -0.21538 0
M  V30 7559 H 730.773 1.4933 -1.17475 0
M  V30 7560 H 728.923 3.86085 -0.432539 0
M  V30 7561 H 730.595 3.49059 -3.01588 0
M  V30 7562 H 728.838 3.23671 -2.88825 0
M  V30 7563 H 729.509 4.85068 -2.63464 0
M  V30 7564 H 731.985 4.06822 -0.873778 0
M  V30 7565 H 730.861 5.44228 -0.714648 0
M  V30 7566 H 731.122 4.37239 0.653815 0
M  V30 7567 N 730.181 0.707592 1.40822 0
M  V30 7568 C 731.129 0.0386643 2.32568 0
M  V30 7569 C 732.123 -0.755653 1.51612 0
M  V30 7570 O 733.329 -0.659921 1.67467 0
M  V30 7571 H 729.704 -0.00629912 0.751974 0
M  V30 7572 H 731.675 0.8293 2.86645 0
M  V30 7573 C 730.424 -0.87496 3.36511 0
M  V30 7574 H 729.747 -0.273157 3.98866 0
M  V30 7575 H 731.187 -1.31111 4.03219 0
M  V30 7576 C 729.646 -1.99672 2.71353 0
M  V30 7577 O 730.176 -3.08676 2.57064 0
M  V30 7578 N 728.382 -1.77799 2.29861 0
M  V30 7579 H 727.929 -0.89147 2.41683 0
M  V30 7580 H 727.887 -2.53036 1.86601 0
M  V30 7581 N 731.66 -1.50943 0.453197 0
M  V30 7582 C 732.623 -2.26684 -0.338705 0
M  V30 7583 C 733.623 -1.30748 -0.936032 0
M  V30 7584 O 734.813 -1.54327 -0.808002 0
M  V30 7585 C 731.945 -3.07063 -1.48071 0
M  V30 7586 H 733.138 -2.98131 0.325289 0
M  V30 7587 H 730.691 -1.54926 0.206771 0
M  V30 7588 H 731.426 -2.4007 -2.18029 0
M  V30 7589 H 731.211 -3.77545 -1.0584 0
M  V30 7590 H 732.701 -3.64393 -2.0398 0
M  V30 7591 N 733.138 -0.185124 -1.56509 0
M  V30 7592 C 734.101 0.72591 -2.17401 0
M  V30 7593 C 735.101 1.14819 -1.12575 0
M  V30 7594 O 736.291 1.0629 -1.38015 0
M  V30 7595 C 733.423 1.98979 -2.76803 0
M  V30 7596 H 734.616 0.195588 -2.99262 0
M  V30 7597 H 732.169 0.0644772 -1.56167 0
M  V30 7598 H 732.904 2.56287 -1.98714 0
M  V30 7599 H 732.689 1.69583 -3.53531 0
M  V30 7600 H 734.179 2.63966 -3.23592 0
M  V30 7601 N 734.616 1.57351 0.0885366 0
M  V30 7602 C 736.027 1.75303 0.642308 0
M  V30 7603 C 736.378 0.808238 1.78779 0
M  V30 7604 O 735.503 -0.01171 2.16397 0
M  V30 7605 C 736.098 3.17885 1.17194 0
M  V30 7606 C 734.657 3.37239 1.67172 0
M  V30 7607 C 733.804 2.7108 0.584045 0
M  V30 7608 H 736.755 1.58103 -0.137567 0
M  V30 7609 H 736.776 3.2112 2.04114 0
M  V30 7610 H 736.288 3.86625 0.338024 0
M  V30 7611 H 734.389 2.73588 2.52943 0
M  V30 7612 H 734.502 4.45594 1.76019 0
M  V30 7613 H 732.866 2.33161 1.02508 0
M  V30 7614 H 733.649 3.42464 -0.239403 0
M  V30 7615 N 736.094 -0.359525 1.53444 0
M  V30 7616 C 737.342 -1.09935 1.69584 0
M  V30 7617 C 737.663 -1.89656 0.453371 0
M  V30 7618 O 736.933 -1.8852 -0.53263 0
M  V30 7619 H 735.513 -0.408843 0.625185 0
M  V30 7620 H 738.175 -0.40467 1.90653 0
M  V30 7621 H 737.271 -1.78575 2.55964 0
M  V30 7622 N 737.572 -1.44907 -0.619662 0
M  V30 7623 C 738.802 -1.51575 -1.40387 0
M  V30 7624 C 739.21 -0.14309 -1.88658 0
M  V30 7625 O 738.553 0.863403 -1.62145 0
M  V30 7626 C 738.615 -2.42858 -2.65067 0
M  V30 7627 C 738.279 -3.8982 -2.38515 0
M  V30 7628 C 739.276 -4.80047 -1.99627 0
M  V30 7629 C 736.961 -4.34628 -2.51801 0
M  V30 7630 C 738.955 -6.13086 -1.74369 0
M  V30 7631 C 736.642 -5.67712 -2.26156 0
M  V30 7632 C 737.64 -6.56759 -1.875 0
M  V30 7633 O 737.328 -7.87377 -1.62148 0
M  V30 7634 H 737.06 -0.51612 -0.436573 0
M  V30 7635 H 739.614 -1.90664 -0.763959 0
M  V30 7636 H 737.844 -1.98717 -3.31735 0
M  V30 7637 H 739.533 -2.40346 -3.27091 0
M  V30 7638 H 740.299 -4.46697 -1.8891 0
M  V30 7639 H 736.178 -3.65568 -2.80857 0
M  V30 7640 H 739.722 -6.8255 -1.44122 0
M  V30 7641 H 735.619 -6.0062 -2.36486 0
M  V30 7642 H 736.387 -7.99288 -1.763 0
M  V30 7643 N 739.05 0.861098 -1.31996 0
M  V30 7644 C 739.982 1.97551 -1.16216 0
M  V30 7645 C 740.995 1.625 -0.0988527 0
M  V30 7646 O 742.184 1.75091 -0.3472 0
M  V30 7647 C 739.284 3.30376 -0.755307 0
M  V30 7648 C 738.457 3.93711 -1.90552 0
M  V30 7649 C 737.516 5.04862 -1.48328 0
M  V30 7650 O 736.542 5.25204 -2.19431 0
M  V30 7651 N 737.744 5.79283 -0.375656 0
M  V30 7652 H 740.509 2.11632 -2.12208 0
M  V30 7653 H 738.07 1.03559 -1.24448 0
M  V30 7654 H 740.062 4.0213 -0.455364 0
M  V30 7655 H 738.632 3.12395 0.113269 0
M  V30 7656 H 737.852 3.14825 -2.37231 0
M  V30 7657 H 739.14 4.32762 -2.67571 0
M  V30 7658 H 738.538 5.65286 0.216284 0
M  V30 7659 H 737.095 6.5166 -0.135289 0
M  V30 7660 N 740.528 1.15101 1.07655 0
M  V30 7661 C 741.476 0.840714 2.16875 0
M  V30 7662 C 742.47 -0.184594 1.68391 0
M  V30 7663 O 743.676 -0.0399315 1.79956 0
M  V30 7664 H 740.051 0.254192 0.707736 0
M  V30 7665 H 742.022 1.76959 2.40266 0
M  V30 7666 C 740.771 0.343018 3.46004 0
M  V30 7667 H 740.094 1.12335 3.83694 0
M  V30 7668 H 741.534 0.16453 4.23681 0
M  V30 7669 C 739.993 -0.934881 3.23669 0
M  V30 7670 O 740.523 -2.00706 3.47965 0
M  V30 7671 N 738.729 -0.873167 2.77172 0
M  V30 7672 H 738.276 -0.000479072 2.576 0
M  V30 7673 H 738.234 -1.72873 2.62607 0
M  V30 7674 N 742.006 -1.2595 0.947325 0
M  V30 7675 C 743.253 -1.93463 0.598178 0
M  V30 7676 C 743.581 -1.74271 -0.863705 0
M  V30 7677 O 742.836 -1.07684 -1.63409 0
M  V30 7678 C 743.135 -3.46034 0.894158 0
M  V30 7679 C 742.801 -3.85373 2.3409 0
M  V30 7680 C 741.463 -3.95823 2.73637 0
M  V30 7681 C 743.815 -4.04986 3.2808 0
M  V30 7682 C 741.143 -4.23288 4.06257 0
M  V30 7683 C 743.495 -4.3394 4.60303 0
M  V30 7684 C 742.159 -4.42606 4.99656 0
M  V30 7685 H 741.429 -0.707933 0.218889 0
M  V30 7686 H 744.076 -1.4964 1.19499 0
M  V30 7687 H 742.381 -3.9121 0.214874 0
M  V30 7688 H 744.078 -3.96445 0.602698 0
M  V30 7689 H 740.668 -3.7779 2.02417 0
M  V30 7690 H 744.852 -3.96333 2.9872 0
M  V30 7691 H 740.108 -4.28211 4.36401 0
M  V30 7692 H 744.282 -4.48061 5.33118 0
M  V30 7693 H 741.909 -4.63641 6.02446 0
M  V30 7694 N 743.484 -0.715051 -1.40445 0
M  V30 7695 C 744.73 -0.254705 -2.01194 0
M  V30 7696 C 745.063 1.14894 -1.56567 0
M  V30 7697 O 744.338 1.77933 -0.785491 0
M  V30 7698 C 744.621 -0.334148 -3.58546 0
M  V30 7699 C 744.474 -1.77613 -4.13248 0
M  V30 7700 C 745.793 0.294968 -4.3911 0
M  V30 7701 H 742.912 -0.094025 -0.730978 0
M  V30 7702 H 745.554 -0.907449 -1.66929 0
M  V30 7703 H 743.704 0.221609 -3.87867 0
M  V30 7704 H 745.376 -2.38723 -3.94727 0
M  V30 7705 H 743.619 -2.30402 -3.67556 0
M  V30 7706 H 744.29 -1.78311 -5.22407 0
M  V30 7707 H 746.766 -0.178563 -4.15717 0
M  V30 7708 H 745.642 0.208934 -5.48502 0
M  V30 7709 H 745.903 1.37841 -4.20062 0
M  V30 7710 N 744.962 1.50701 -0.461195 0
M  V30 7711 C 746.21 2.01867 0.0970051 0
M  V30 7712 C 746.531 1.34591 1.41104 0
M  V30 7713 O 745.801 0.488041 1.89723 0
M  V30 7714 H 744.381 0.74599 0.0388392 0
M  V30 7715 H 747.043 1.85129 -0.609357 0
M  V30 7716 H 746.139 3.11051 0.255688 0
M  V30 7717 N 746.441 0.193421 1.56409 0
M  V30 7718 C 747.688 -0.445789 1.97532 0
M  V30 7719 C 748.016 -1.61744 1.08024 0
M  V30 7720 O 747.271 -1.95338 0.118982 0
M  V30 7721 C 747.57 -0.949718 3.44551 0
M  V30 7722 C 747.236 0.108383 4.5077 0
M  V30 7723 C 745.898 0.399126 4.79542 0
M  V30 7724 C 748.25 0.825423 5.14622 0
M  V30 7725 C 745.578 1.41192 5.69457 0
M  V30 7726 C 747.93 1.82735 6.05632 0
M  V30 7727 C 746.594 2.12531 6.32761 0
M  V30 7728 H 745.864 -0.163126 0.722822 0
M  V30 7729 H 748.511 0.290035 1.89291 0
M  V30 7730 H 746.816 -1.76378 3.49854 0
M  V30 7731 H 748.513 -1.45367 3.73724 0
M  V30 7732 H 745.103 -0.128392 4.28408 0
M  V30 7733 H 749.287 0.61403 4.92487 0
M  V30 7734 H 744.543 1.6487 5.88751 0
M  V30 7735 H 748.717 2.3882 6.5417 0
M  V30 7736 H 746.344 2.91155 7.02234 0
M  V30 7737 N 747.919 -1.57396 -0.0801906 0
M  V30 7738 C 748.829 -2.06451 -1.11423 0
M  V30 7739 C 749.845 -0.992352 -1.42928 0
M  V30 7740 O 751.021 -1.30651 -1.53272 0
M  V30 7741 C 748.086 -2.49164 -2.41077 0
M  V30 7742 C 747.147 -3.70641 -2.16619 0
M  V30 7743 C 746.38 -4.11307 -3.40092 0
M  V30 7744 O 746.603 -3.51922 -4.48895 0
M  V30 7745 O 745.537 -5.04157 -3.288 0
M  V30 7746 H 749.363 -2.94857 -0.727519 0
M  V30 7747 H 746.948 -1.46484 -0.293743 0
M  V30 7748 H 748.83 -2.77196 -3.17396 0
M  V30 7749 H 747.505 -1.6389 -2.79145 0
M  V30 7750 H 746.412 -3.47703 -1.38033 0
M  V30 7751 H 747.745 -4.5674 -1.83437 0
M  V30 7752 N 749.397 0.351382 -1.53633 0
M  V30 7753 C 750.625 1.11275 -1.74429 0
M  V30 7754 C 751.04 1.82602 -0.479798 0
M  V30 7755 O 750.397 1.74074 0.548125 0
M  V30 7756 C 750.448 2.13223 -2.91921 0
M  V30 7757 O 750.169 1.44798 -4.13479 0
M  V30 7758 C 751.67 3.01797 -3.24706 0
M  V30 7759 H 748.89 0.332153 -0.583023 0
M  V30 7760 H 751.434 0.405974 -2.0043 0
M  V30 7761 H 749.589 2.79477 -2.68274 0
M  V30 7762 H 750.003 2.12839 -4.79374 0
M  V30 7763 H 751.477 3.69282 -4.10286 0
M  V30 7764 H 751.954 3.67387 -2.40673 0
M  V30 7765 H 752.56 2.41141 -3.5033 0
M  V30 7766 N 750.875 1.45233 0.611969 0
M  V30 7767 C 752.123 1.48727 1.36838 0
M  V30 7768 C 752.444 0.128616 1.94575 0
M  V30 7769 O 751.714 -0.84149 1.76906 0
M  V30 7770 H 750.294 0.547695 0.507976 0
M  V30 7771 H 752.956 1.81156 0.718925 0
M  V30 7772 H 752.052 2.2236 2.19003 0
M  V30 7773 N 752.353 -0.854086 1.3245 0
M  V30 7774 C 753.316 -1.94427 1.21371 0
M  V30 7775 C 754.316 -1.60219 0.136613 0
M  V30 7776 O 755.506 -1.69846 0.387057 0
M  V30 7777 C 752.638 -3.29698 0.866701 0
M  V30 7778 H 753.831 -2.05679 2.18257 0
M  V30 7779 H 751.384 -1.04434 1.1629 0
M  V30 7780 H 752.119 -3.24145 -0.100319 0
M  V30 7781 H 751.904 -3.55903 1.64545 0
M  V30 7782 H 753.394 -4.09599 0.813515 0
M  V30 7783 N 753.831 -1.1567 -1.07043 0
M  V30 7784 C 754.779 -0.852204 -2.16426 0
M  V30 7785 C 755.773 0.175661 -1.68487 0
M  V30 7786 O 756.979 0.0303874 -1.79974 0
M  V30 7787 H 753.354 -0.257942 -0.706378 0
M  V30 7788 H 755.325 -1.78231 -2.39324 0
M  V30 7789 C 754.074 -0.361362 -3.45817 0
M  V30 7790 H 753.397 -1.14369 -3.83092 0
M  V30 7791 H 754.837 -0.186997 -4.23587 0
M  V30 7792 C 753.296 0.917703 -3.2416 0
M  V30 7793 O 753.826 1.98858 -3.49025 0
M  V30 7794 N 752.032 0.858456 -2.77631 0
M  V30 7795 H 751.579 -0.0131821 -2.57597 0
M  V30 7796 H 751.537 1.71478 -2.6352 0
M  V30 7797 N 755.309 1.25446 -0.953992 0
M  V30 7798 C 756.557 1.92762 -0.607227 0
M  V30 7799 C 756.878 1.7509 0.858399 0
M  V30 7800 O 756.148 1.11416 1.61132 0
M  V30 7801 H 754.728 0.713377 -0.221591 0
M  V30 7802 H 757.39 1.52625 -1.21209 0
M  V30 7803 H 756.486 3.00695 -0.835998 0
M  V30 7804 N 756.787 0.722489 1.40064 0
M  V30 7805 C 758.203 0.396758 1.5459 0
M  V30 7806 C 758.403 -1.09375 1.69232 0
M  V30 7807 O 757.459 -1.87984 1.68578 0
M  V30 7808 C 758.772 1.16885 2.77053 0
M  V30 7809 C 760.32 1.15583 2.90877 0
M  V30 7810 C 760.795 1.91023 4.16262 0
M  V30 7811 N 762.286 1.88126 4.23276 0
M  V30 7812 C 763.021 2.43315 5.19216 0
M  V30 7813 N 762.517 3.07089 6.21022 0
M  V30 7814 N 764.31 2.33418 5.11344 0
M  V30 7815 H 756.461 1.68887 1.28806 0
M  V30 7816 H 758.724 0.714231 0.62336 0
M  V30 7817 H 758.43 2.22301 2.72534 0
M  V30 7818 H 758.304 0.765011 3.69361 0
M  V30 7819 H 760.691 0.10984 2.94896 0
M  V30 7820 H 760.772 1.59895 1.99668 0
M  V30 7821 H 760.416 2.95616 4.13006 0
M  V30 7822 H 760.346 1.44126 5.06493 0
M  V30 7823 H 762.837 1.41654 3.50346 0
M  V30 7824 H 763.15 3.467 6.90666 0
M  V30 7825 H 761.495 3.11175 6.21446 0
M  V30 7826 H 764.686 1.83248 4.30741 0
M  V30 7827 H 764.859 2.7673 5.85939 0
M  V30 7828 N 758.265 -1.50454 0.469181 0
M  V30 7829 C 759.681 -1.59124 0.123226 0
M  V30 7830 C 759.881 -1.47749 -1.37013 0
M  V30 7831 O 758.937 -1.335 -2.14322 0
M  V30 7832 C 760.25 -2.93101 0.67172 0
M  V30 7833 C 761.798 -3.06491 0.634978 0
M  V30 7834 C 762.273 -4.43041 1.16098 0
M  V30 7835 N 763.764 -4.49448 1.12031 0
M  V30 7836 C 764.499 -5.53491 1.49784 0
M  V30 7837 N 763.995 -6.64798 1.94976 0
M  V30 7838 N 765.788 -5.44025 1.41399 0
M  V30 7839 H 757.939 -1.56091 1.44046 0
M  V30 7840 H 760.202 -0.737564 0.59557 0
M  V30 7841 H 759.908 -3.06895 1.7178 0
M  V30 7842 H 759.782 -3.77027 0.114222 0
M  V30 7843 H 762.169 -2.92346 -0.402187 0
M  V30 7844 H 762.25 -2.24328 1.22926 0
M  V30 7845 H 761.894 -4.57935 2.19677 0
M  V30 7846 H 761.824 -5.23794 0.542939 0
M  V30 7847 H 764.315 -3.69575 0.788828 0
M  V30 7848 H 764.628 -7.40246 2.21936 0
M  V30 7849 H 762.973 -6.65923 1.98927 0
M  V30 7850 H 766.164 -4.55955 1.05935 0
M  V30 7851 H 766.337 -6.2499 1.71147 0
M  V30 7852 N 759.743 -0.201713 -1.56304 0
M  V30 7853 C 760.992 0.435557 -1.96941 0
M  V30 7854 C 761.305 1.62299 -1.09172 0
M  V30 7855 O 762.511 2.32849 -1.3962 0
M  V30 7856 C 760.967 0.826298 -3.50286 0
M  V30 7857 C 760.575 -0.337216 -4.46729 0
M  V30 7858 C 762.319 1.43028 -3.99679 0
M  V30 7859 C 760.226 0.0748539 -5.91353 0
M  V30 7860 H 759.156 0.1665 -0.735387 0
M  V30 7861 H 761.807 -0.294781 -1.81117 0
M  V30 7862 H 760.189 1.61349 -3.61639 0
M  V30 7863 H 761.363 -1.11476 -4.47113 0
M  V30 7864 H 759.678 -0.853126 -4.07567 0
M  V30 7865 H 762.275 1.75115 -5.05212 0
M  V30 7866 H 762.618 2.33911 -3.44371 0
M  V30 7867 H 763.151 0.706924 -3.91468 0
M  V30 7868 H 759.89 -0.799957 -6.506 0
M  V30 7869 H 759.41 0.817122 -5.94208 0
M  V30 7870 H 761.089 0.508389 -6.45 0
M  V30 7871 N 761.222 1.57436 0.0718424 0
M  V30 7872 C 762.633 1.75975 0.623678 0
M  V30 7873 C 762.984 0.827155 1.77912 0
M  V30 7874 O 762.109 0.0112425 2.16397 0
M  V30 7875 C 762.704 3.1911 1.13816 0
M  V30 7876 C 761.263 3.38994 1.63586 0
M  V30 7877 C 760.41 2.71684 0.555261 0
M  V30 7878 H 763.361 1.57948 -0.154328 0
M  V30 7879 H 763.382 3.23267 2.00696 0
M  V30 7880 H 762.894 3.86962 0.296998 0
M  V30 7881 H 760.995 2.76256 2.50027 0
M  V30 7882 H 761.108 4.47436 1.71283 0
M  V30 7883 H 759.472 2.34236 1.00029 0
M  V30 7884 H 760.255 3.42191 -0.275712 0
M  V30 7885 N 762.7 -0.34323 1.53817 0
M  V30 7886 C 763.946 -1.08504 1.71332 0
M  V30 7887 C 764.279 -1.88294 0.475285 0
M  V30 7888 O 763.554 -1.87205 -0.527688 0
M  V30 7889 C 763.837 -2.02597 2.97702 0
M  V30 7890 C 763.69 -1.26268 4.31713 0
M  V30 7891 C 765.009 -3.0241 3.19744 0
M  V30 7892 H 762.128 -0.393072 0.623429 0
M  V30 7893 H 764.77 -0.363579 1.86489 0
M  V30 7894 H 762.92 -2.64118 2.8491 0
M  V30 7895 H 764.592 -0.673594 4.56356 0
M  V30 7896 H 762.835 -0.564696 4.30109 0
M  V30 7897 H 763.506 -1.95253 5.16314 0
M  V30 7898 H 765.982 -2.51004 3.31868 0
M  V30 7899 H 764.858 -3.65449 4.09558 0
M  V30 7900 H 765.119 -3.73806 2.36054 0
M  V30 7901 N 764.178 -1.45556 -0.604258 0
M  V30 7902 C 765.425 -1.49746 -1.36317 0
M  V30 7903 C 765.753 -0.140516 -1.93992 0
M  V30 7904 O 765.008 0.861244 -1.7573 0
M  V30 7905 C 765.307 -2.52697 -2.52743 0
M  V30 7906 C 764.973 -3.97315 -2.13195 0
M  V30 7907 C 763.635 -4.36692 -2.02123 0
M  V30 7908 C 765.987 -4.88249 -1.8238 0
M  V30 7909 C 763.315 -5.64895 -1.58463 0
M  V30 7910 C 765.667 -6.16867 -1.40205 0
M  V30 7911 C 764.331 -6.55172 -1.27694 0
M  V30 7912 H 763.601 -0.54796 -0.49882 0
M  V30 7913 H 766.248 -1.7892 -0.682643 0
M  V30 7914 H 764.553 -2.17105 -3.26148 0
M  V30 7915 H 766.25 -2.53176 -3.10971 0
M  V30 7916 H 762.84 -3.66176 -2.22739 0
M  V30 7917 H 767.024 -4.58561 -1.89829 0
M  V30 7918 H 762.28 -5.93365 -1.47402 0
M  V30 7919 H 766.454 -6.86771 -1.15408 0
M  V30 7920 H 764.081 -7.54411 -0.936375 0
M  V30 7921 N 765.656 0.84705 -1.32902 0
M  V30 7922 C 766.881 1.63925 -1.27056 0
M  V30 7923 C 767.306 1.87443 0.157136 0
M  V30 7924 O 766.664 1.43266 1.11106 0
M  V30 7925 C 766.712 2.97134 -2.04313 0
M  V30 7926 O 765.816 3.88049 -1.39614 0
M  V30 7927 H 765.157 0.499477 -0.437514 0
M  V30 7928 H 767.687 1.05443 -1.75336 0
M  V30 7929 H 767.697 3.46896 -2.14772 0
M  V30 7930 H 766.372 2.79339 -3.08128 0
M  V30 7931 H 764.949 3.46525 -1.3775 0
M  V30 7932 N 767.134 1.16236 1.06428 0
M  V30 7933 C 768.364 0.965782 1.82637 0
M  V30 7934 C 768.772 -0.489284 1.82764 0
M  V30 7935 O 768.115 -1.35133 1.24438 0
M  V30 7936 C 768.177 1.41458 3.30499 0
M  V30 7937 C 767.841 2.88926 3.54077 0
M  V30 7938 C 768.838 3.86939 3.47238 0
M  V30 7939 C 766.523 3.26814 3.81442 0
M  V30 7940 C 768.517 5.20841 3.67428 0
M  V30 7941 C 766.204 4.60886 4.01282 0
M  V30 7942 C 767.202 5.57708 3.94272 0
M  V30 7943 O 766.89 6.89357 4.13573 0
M  V30 7944 H 766.622 0.342569 0.582772 0
M  V30 7945 H 769.176 1.54641 1.35187 0
M  V30 7946 H 767.406 0.777426 3.78805 0
M  V30 7947 H 769.095 1.18563 3.88198 0
M  V30 7948 H 769.861 3.59014 3.26089 0
M  V30 7949 H 765.74 2.5203 3.86008 0
M  V30 7950 H 769.284 5.96401 3.61873 0
M  V30 7951 H 765.181 4.88522 4.21921 0
M  V30 7952 H 765.949 6.95913 4.30869 0
M  V30 7953 N 768.612 -1.24939 0.960631 0
M  V30 7954 C 769.842 -1.96595 0.635123 0
M  V30 7955 C 770.25 -1.71538 -0.798206 0
M  V30 7956 O 769.593 -0.991727 -1.5463 0
M  V30 7957 C 769.655 -3.49994 0.821248 0
M  V30 7958 C 769.319 -3.98738 2.23287 0
M  V30 7959 C 770.316 -4.08965 3.21004 0
M  V30 7960 C 768.001 -4.32247 2.55867 0
M  V30 7961 C 769.995 -4.52025 4.49391 0
M  V30 7962 C 767.682 -4.74991 3.84482 0
M  V30 7963 C 768.68 -4.84844 4.81056 0
M  V30 7964 O 768.368 -5.26638 6.07378 0
M  V30 7965 H 768.1 -0.633265 0.23654 0
M  V30 7966 H 770.654 -1.5991 1.28911 0
M  V30 7967 H 768.884 -3.86543 0.110105 0
M  V30 7968 H 770.573 -4.02859 0.495892 0
M  V30 7969 H 771.339 -3.83302 2.97161 0
M  V30 7970 H 767.218 -4.23801 1.81421 0
M  V30 7971 H 770.762 -4.5963 5.24773 0
M  V30 7972 H 766.659 -5.00101 4.08129 0
M  V30 7973 H 767.427 -5.44807 6.10842 0
M  V30 7974 N 770.09 -0.729906 -1.39679 0
M  V30 7975 C 771.038 -0.0756589 -2.32477 0
M  V30 7976 C 772.032 0.731438 -1.52795 0
M  V30 7977 O 773.238 0.633195 -1.68495 0
M  V30 7978 H 769.613 -0.00566492 -0.751979 0
M  V30 7979 H 771.584 -0.874797 -2.85289 0
M  V30 7980 C 770.333 0.821313 -3.37861 0
M  V30 7981 H 769.656 0.209666 -3.9925 0
M  V30 7982 H 771.096 1.24679 -4.05254 0
M  V30 7983 C 769.555 1.9533 -2.74495 0
M  V30 7984 O 770.085 3.04548 -2.61942 0
M  V30 7985 N 768.291 1.74119 -2.3266 0
M  V30 7986 H 767.838 0.852908 -2.4307 0
M  V30 7987 H 767.796 2.50036 -1.90603 0
M  V30 7988 N 771.568 1.50203 -0.477153 0
M  V30 7989 C 772.814 2.02658 0.0758507 0
M  V30 7990 C 773.147 1.358 1.38824 0
M  V30 7991 O 772.422 0.485696 1.88338 0
M  V30 7992 C 772.705 3.59208 0.253339 0
M  V30 7993 C 772.558 4.36629 -1.0805 0
M  V30 7994 C 773.877 4.28469 1.00509 0
M  V30 7995 H 770.996 0.736538 0.0260921 0
M  V30 7996 H 773.638 1.79464 -0.623925 0
M  V30 7997 H 771.788 3.79101 0.849378 0
M  V30 7998 H 773.46 4.28292 -1.71358 0
M  V30 7999 H 771.703 4.0013 -1.67566 0
M  V30 8000 H 772.374 5.44449 -0.909883 0
M  V30 8001 H 774.85 4.13087 0.499818 0
M  V30 8002 H 773.726 5.37804 1.09808 0
M  V30 8003 H 773.987 3.92057 2.04314 0
M  V30 8004 N 773.046 0.209999 1.56195 0
M  V30 8005 C 773.994 -0.721416 2.2113 0
M  V30 8006 C 774.988 -1.20852 1.18706 0
M  V30 8007 O 776.194 -1.16968 1.36815 0
M  V30 8008 H 772.569 -0.251033 0.708863 0
M  V30 8009 H 774.54 -0.150193 2.98022 0
M  V30 8010 C 773.289 -1.92392 2.89621 0
M  V30 8011 H 772.612 -1.5582 3.68185 0
M  V30 8012 H 774.052 -2.55367 3.38473 0
M  V30 8013 C 772.511 -2.77208 1.91461 0
M  V30 8014 O 773.041 -3.75603 1.42426 0
M  V30 8015 N 771.247 -2.43006 1.59363 0
M  V30 8016 H 770.794 -1.63047 1.99433 0
M  V30 8017 H 770.752 -3.00036 0.939449 0
M  V30 8018 N 774.524 -1.57472 -0.0634922 0
M  V30 8019 C 775.471 -2.04258 -1.07457 0
M  V30 8020 C 776.441 -0.924804 -1.37973 0
M  V30 8021 O 777.626 -1.19305 -1.48899 0
M  V30 8022 C 774.766 -2.49832 -2.38071 0
M  V30 8023 C 773.879 -3.75263 -2.14014 0
M  V30 8024 C 773.014 -4.09585 -3.38251 0
M  V30 8025 C 772.053 -5.28032 -3.09594 0
M  V30 8026 N 771.19 -5.57953 -4.26185 0
M  V30 8027 H 776.03 -2.90402 -0.668626 0
M  V30 8028 H 773.567 -1.43609 -0.318572 0
M  V30 8029 H 775.525 -2.7431 -3.14341 0
M  V30 8030 H 774.155 -1.66654 -2.76453 0
M  V30 8031 H 773.207 -3.58075 -1.28399 0
M  V30 8032 H 774.519 -4.61667 -1.88852 0
M  V30 8033 H 773.673 -4.35008 -4.2291 0
M  V30 8034 H 772.412 -3.21765 -3.66495 0
M  V30 8035 H 771.417 -5.02397 -2.23332 0
M  V30 8036 H 772.642 -6.17477 -2.82663 0
M  V30 8037 H 770.588 -4.73092 -4.54445 0
M  V30 8038 H 770.505 -6.38793 -4.04326 0
M  V30 8039 H 771.773 -5.87931 -5.11817 0
M  V30 8040 N 776.003 0.335068 -1.53997 0
M  V30 8041 C 776.966 1.39481 -1.81872 0
M  V30 8042 C 777.966 1.4524 -0.690078 0
M  V30 8043 O 779.156 1.45467 -0.958377 0
M  V30 8044 C 776.288 2.78329 -1.9684 0
M  V30 8045 H 777.481 1.16024 -2.76547 0
M  V30 8046 H 775.034 0.569926 -1.45539 0
M  V30 8047 H 775.769 3.07058 -1.04337 0
M  V30 8048 H 775.554 2.75544 -2.78958 0
M  V30 8049 H 777.044 3.55016 -2.19894 0
M  V30 8050 N 777.481 1.45874 0.596531 0
M  V30 8051 C 778.897 1.30524 0.918459 0
M  V30 8052 C 779.097 0.266429 1.99731 0
M  V30 8053 O 778.153 -0.335809 2.50257 0
M  V30 8054 C 779.466 2.68747 1.3489 0
M  V30 8055 C 781.014 2.7673 1.46251 0
M  V30 8056 C 781.489 4.15504 1.92667 0
M  V30 8057 N 782.98 4.17853 1.99883 0
M  V30 8058 C 783.715 5.22109 2.37044 0
M  V30 8059 N 783.211 6.36704 2.73094 0
M  V30 8060 N 785.004 5.09471 2.37479 0
M  V30 8061 H 777.155 2.12081 -0.116368 0
M  V30 8062 H 779.418 0.947941 0.0106033 0
M  V30 8063 H 779.124 3.46006 0.630288 0
M  V30 8064 H 778.998 2.97942 2.31323 0
M  V30 8065 H 781.385 1.99768 2.17202 0
M  V30 8066 H 781.466 2.51236 0.481054 0
M  V30 8067 H 781.11 4.92956 1.223 0
M  V30 8068 H 781.04 4.38396 2.91747 0
M  V30 8069 H 783.531 3.35163 1.74568 0
M  V30 8070 H 783.844 7.12041 3.00362 0
M  V30 8071 H 782.189 6.40087 2.70764 0
M  V30 8072 H 785.38 4.18987 2.08728 0
M  V30 8073 H 785.553 5.90837 2.66112 0
M  V30 8074 N 778.959 -0.83999 1.33349 0
M  V30 8075 C 780.208 -1.59011 1.2409 0
M  V30 8076 C 780.521 -1.94655 -0.192029 0
M  V30 8077 O 781.727 -2.68438 -0.406617 0
M  V30 8078 C 780.183 -2.86801 2.17425 0
M  V30 8079 C 779.791 -2.58525 3.65881 0
M  V30 8080 C 781.535 -3.64823 2.17036 0
M  V30 8081 C 779.442 -3.82404 4.51133 0
M  V30 8082 H 778.372 -0.596731 0.460899 0
M  V30 8083 H 781.023 -0.926274 1.58406 0
M  V30 8084 H 779.405 -3.54719 1.7604 0
M  V30 8085 H 780.579 -1.98824 4.15699 0
M  V30 8086 H 778.894 -1.93808 3.68548 0
M  V30 8087 H 781.491 -4.56774 2.7796 0
M  V30 8088 H 781.834 -3.99663 1.16513 0
M  V30 8089 H 782.367 -3.03826 2.56777 0
M  V30 8090 H 779.106 -3.52696 5.52527 0
M  V30 8091 H 778.626 -4.41447 4.0606 0
M  V30 8092 H 780.305 -4.49995 4.6488 0
M  V30 8093 N 780.437 -1.16799 -1.0581 0
M  V30 8094 C 781.369 -0.836774 -2.13379 0
M  V30 8095 C 782.382 0.158116 -1.6203 0
M  V30 8096 O 783.571 -0.0673211 -1.78373 0
M  V30 8097 C 780.671 -0.225959 -3.38146 0
M  V30 8098 C 779.844 -1.26217 -4.18794 0
M  V30 8099 C 778.903 -0.670257 -5.21914 0
M  V30 8100 O 777.929 -1.34042 -5.53192 0
M  V30 8101 N 779.131 0.540683 -5.77977 0
M  V30 8102 H 781.896 -1.76257 -2.42391 0
M  V30 8103 H 779.457 -1.06599 -1.21853 0
M  V30 8104 H 781.449 0.18317 -4.04285 0
M  V30 8105 H 780.019 0.603494 -3.06719 0
M  V30 8106 H 779.239 -1.84729 -3.48237 0
M  V30 8107 H 780.527 -1.9613 -4.69479 0
M  V30 8108 H 779.925 1.10322 -5.54838 0
M  V30 8109 H 778.482 0.891958 -6.45668 0
M  V30 8110 N 781.915 1.24427 -0.967243 0
M  V30 8111 C 783.163 1.92107 -0.627638 0
M  V30 8112 C 783.484 1.75991 0.83978 0
M  V30 8113 O 782.754 1.13118 1.59941 0
M  V30 8114 H 781.334 0.710986 -0.229145 0
M  V30 8115 H 783.996 1.51331 -1.22821 0
M  V30 8116 H 783.092 2.99791 -0.867844 0
M  V30 8117 N 783.393 0.737304 1.3929 0
M  V30 8118 C 784.639 0.286681 2.00763 0
M  V30 8119 C 784.972 -1.12388 1.58375 0
M  V30 8120 O 784.247 -1.76661 0.813699 0
M  V30 8121 C 784.53 0.391147 3.57969 0
M  V30 8122 C 784.383 1.84165 4.1037 0
M  V30 8123 C 785.702 -0.225072 4.39524 0
M  V30 8124 H 782.821 0.105642 0.729389 0
M  V30 8125 H 785.463 0.933892 1.65464 0
M  V30 8126 H 783.613 -0.159875 3.88171 0
M  V30 8127 H 785.285 2.44972 3.90879 0
M  V30 8128 H 783.528 2.3622 3.63844 0
M  V30 8129 H 784.199 1.866 5.19504 0
M  V30 8130 H 786.675 0.244677 4.1538 0
M  V30 8131 H 785.551 -0.121646 5.48765 0
M  V30 8132 H 785.812 -1.31141 4.22202 0
M  V30 8133 N 784.871 -1.49948 0.485112 0
M  V30 8134 C 785.781 -2.32587 -0.306697 0
M  V30 8135 C 786.797 -1.43598 -0.982632 0
M  V30 8136 O 787.973 -1.76638 -0.967519 0
M  V30 8137 C 785.038 -3.18638 -1.3664 0
M  V30 8138 C 784.099 -4.23462 -0.705589 0
M  V30 8139 C 783.332 -5.05401 -1.7148 0
M  V30 8140 O 783.555 -4.88618 -2.94293 0
M  V30 8141 O 782.489 -5.88157 -1.27889 0
M  V30 8142 H 786.315 -3.01447 0.369272 0
M  V30 8143 H 783.9 -1.47349 0.246709 0
M  V30 8144 H 785.782 -3.71992 -1.9799 0
M  V30 8145 H 784.457 -2.52491 -2.02559 0
M  V30 8146 H 783.364 -3.74063 -0.0527733 0
M  V30 8147 H 784.697 -4.92119 -0.0891187 0
M  V30 8148 N 786.349 -0.21828 -1.56081 0
M  V30 8149 C 787.577 0.419258 -2.02608 0
M  V30 8150 C 787.992 1.53578 -1.09814 0
M  V30 8151 O 787.349 1.82185 -0.107149 0
M  V30 8152 C 787.4 0.953955 -3.48686 0
M  V30 8153 O 787.121 -0.11805 -4.37941 0
M  V30 8154 C 788.622 1.66506 -4.10841 0
M  V30 8155 H 785.842 0.10296 -0.663054 0
M  V30 8156 H 788.386 -0.333776 -2.01758 0
M  V30 8157 H 786.541 1.65727 -3.50162 0
M  V30 8158 H 786.955 0.283359 -5.23734 0
M  V30 8159 H 788.429 1.99123 -5.14834 0
M  V30 8160 H 788.906 2.57705 -3.55647 0
M  V30 8161 H 789.512 1.00703 -4.13206 0
M  V30 8162 N 787.827 1.57504 0.0551401 0
M  V30 8163 C 788.737 2.08198 1.08124 0
M  V30 8164 C 789.753 1.01496 1.41331 0
M  V30 8165 O 790.929 1.33073 1.51174 0
M  V30 8166 C 787.994 2.52968 2.37083 0
M  V30 8167 C 787.055 3.7404 2.10696 0
M  V30 8168 C 786.288 4.16665 3.33505 0
M  V30 8169 O 786.511 3.59019 4.4324 0
M  V30 8170 O 785.445 5.09324 3.20737 0
M  V30 8171 H 789.271 2.95977 0.680518 0
M  V30 8172 H 786.856 1.46933 0.270401 0
M  V30 8173 H 788.738 2.82211 3.12946 0
M  V30 8174 H 787.413 1.6831 2.76502 0
M  V30 8175 H 786.32 3.49855 1.32484 0
M  V30 8176 H 787.653 4.59601 1.76148 0
M  V30 8177 N 789.305 -0.326896 1.54172 0
M  V30 8178 C 790.235 -1.40741 1.86317 0
M  V30 8179 C 791.216 -1.54125 0.719684 0
M  V30 8180 O 792.401 -1.6806 0.973117 0
M  V30 8181 C 789.531 -2.77557 2.08757 0
M  V30 8182 C 788.485 -2.78965 3.24596 0
M  V30 8183 C 787.811 -4.18824 3.32401 0
M  V30 8184 C 789.111 -2.4301 4.62324 0
M  V30 8185 H 790.805 -1.14088 2.76811 0
M  V30 8186 H 788.351 -0.547389 1.3319 0
M  V30 8187 H 790.304 -3.53209 2.29829 0
M  V30 8188 H 789.028 -3.0568 1.15009 0
M  V30 8189 H 787.687 -2.05767 3.03406 0
M  V30 8190 H 787.335 -4.44083 2.36218 0
M  V30 8191 H 787.035 -4.20673 4.10253 0
M  V30 8192 H 788.559 -4.96294 3.55703 0
M  V30 8193 H 789.973 -3.08375 4.83299 0
M  V30 8194 H 788.37 -2.56116 5.42701 0
M  V30 8195 H 789.44 -1.38165 4.64799 0
M  V30 8196 N 790.784 -1.46188 -0.588786 0
M  V30 8197 C 791.731 -1.56292 -1.69828 0
M  V30 8198 C 792.701 -0.407581 -1.61022 0
M  V30 8199 O 793.886 -0.623532 -1.80324 0
M  V30 8200 C 791.026 -1.55341 -3.08161 0
M  V30 8201 C 790.139 -2.81564 -3.27636 0
M  V30 8202 C 789.274 -2.72158 -4.56183 0
M  V30 8203 C 788.313 -3.93348 -4.68981 0
M  V30 8204 N 787.45 -3.82365 -5.88848 0
M  V30 8205 H 792.29 -2.51066 -1.6053 0
M  V30 8206 H 789.827 -1.24562 -0.782474 0
M  V30 8207 H 791.785 -1.52776 -3.88221 0
M  V30 8208 H 790.415 -0.641034 -3.16371 0
M  V30 8209 H 789.467 -2.94136 -2.41223 0
M  V30 8210 H 790.779 -3.714 -3.32962 0
M  V30 8211 H 789.933 -2.67665 -5.44464 0
M  V30 8212 H 788.672 -1.79953 -4.53286 0
M  V30 8213 H 787.677 -3.98181 -3.7912 0
M  V30 8214 H 788.902 -4.86643 -4.73662 0
M  V30 8215 H 786.848 -2.92942 -5.86959 0
M  V30 8216 H 786.765 -4.65851 -5.95415 0
M  V30 8217 H 788.033 -3.81836 -6.79575 0
M  V30 8218 N 792.262 0.832906 -1.33792 0
M  V30 8219 C 793.511 1.58351 -1.24932 0
M  V30 8220 C 793.824 1.94754 0.181703 0
M  V30 8221 O 795.03 2.6865 0.392375 0
M  V30 8222 C 793.486 2.85643 -2.18943 0
M  V30 8223 C 793.094 2.56581 -3.67247 0
M  V30 8224 C 794.838 3.63667 -2.18968 0
M  V30 8225 C 792.745 3.80006 -4.53155 0
M  V30 8226 H 791.675 0.594278 -0.464058 0
M  V30 8227 H 794.326 0.91786 -1.58895 0
M  V30 8228 H 792.708 3.53781 -1.77919 0
M  V30 8229 H 793.882 1.96617 -4.16747 0
M  V30 8230 H 792.197 1.91851 -3.6957 0
M  V30 8231 H 794.794 4.55293 -2.80379 0
M  V30 8232 H 795.137 3.99039 -1.18631 0
M  V30 8233 H 795.67 3.0246 -2.58384 0
M  V30 8234 H 792.409 3.4976 -5.5439 0
M  V30 8235 H 791.929 4.39288 -4.08395 0
M  V30 8236 H 793.608 4.47523 -4.6726 0
M  V30 8237 N 793.74 1.17359 1.05189 0
M  V30 8238 C 795.151 0.96793 1.5965 0
M  V30 8239 C 795.502 -0.485355 1.90102 0
M  V30 8240 O 794.627 -1.36066 1.6827 0
M  V30 8241 C 795.222 1.75068 2.90063 0
M  V30 8242 C 793.781 1.58969 3.41183 0
M  V30 8243 C 792.928 1.75231 2.14917 0
M  V30 8244 H 795.879 1.32067 0.880001 0
M  V30 8245 H 795.9 1.23308 3.59966 0
M  V30 8246 H 795.412 2.80835 2.67868 0
M  V30 8247 H 793.513 0.556906 3.68415 0
M  V30 8248 H 793.626 2.38067 4.15766 0
M  V30 8249 H 791.99 1.18073 2.25679 0
M  V30 8250 H 792.773 2.8241 1.95191 0
M  V30 8251 N 795.218 -1.23913 0.973828 0
M  V30 8252 C 796.465 -1.92151 0.639079 0
M  V30 8253 C 796.793 -1.76064 -0.826545 0
M  V30 8254 O 796.048 -1.11126 -1.61088 0
M  V30 8255 C 796.347 -3.4406 0.967356 0
M  V30 8256 C 796.013 -3.80321 2.42212 0
M  V30 8257 C 794.675 -3.8993 2.81971 0
M  V30 8258 C 797.027 -3.97935 3.36596 0
M  V30 8259 C 794.355 -4.14575 4.15144 0
M  V30 8260 C 796.707 -4.24079 4.69404 0
M  V30 8261 C 795.371 -4.31908 5.08932 0
M  V30 8262 H 794.641 -0.70313 0.233856 0
M  V30 8263 H 797.288 -1.47072 1.22646 0
M  V30 8264 H 795.593 -3.90667 0.297807 0
M  V30 8265 H 797.29 -3.95077 0.686654 0
M  V30 8266 H 793.88 -3.73411 2.10385 0
M  V30 8267 H 798.064 -3.89908 3.07059 0
M  V30 8268 H 793.32 -4.18858 4.45385 0
M  V30 8269 H 797.494 -4.36652 5.42502 0
M  V30 8270 H 795.121 -4.50758 6.12145 0
M  V30 8271 N 796.696 -0.74468 -1.38897 0
M  V30 8272 C 797.644 -0.100312 -2.32384 0
M  V30 8273 C 798.638 0.715191 -1.53562 0
M  V30 8274 O 799.844 0.615288 -1.69157 0
M  V30 8275 H 796.219 -0.0136403 -0.751876 0
M  V30 8276 H 798.19 -0.905007 -2.84345 0
M  V30 8277 C 796.939 0.785432 -3.38713 0
M  V30 8278 H 796.262 0.167308 -3.9945 0
M  V30 8279 H 797.702 1.20374 -4.06554 0
M  V30 8280 C 796.161 1.92408 -2.76552 0
M  V30 8281 O 796.691 3.01752 -2.65157 0
M  V30 8282 N 794.897 1.71642 -2.34494 0
M  V30 8283 H 794.444 0.827079 -2.43961 0
M  V30 8284 H 794.402 2.48 -1.93244 0
M  V30 8285 N 798.174 1.49689 -0.493057 0
M  V30 8286 C 799.451 1.9525 0.116907 0
M  V30 8287 C 799.831 1.43429 1.54892 0
M  V30 8288 O 799.179 0.644621 2.19219 0
M  V30 8289 C 799.389 3.4898 0.037705 0
M  V30 8290 C 800.737 4.24052 0.215621 0
M  V30 8291 O 801.761 3.5602 0.113266 0
M  V30 8292 O 800.62 5.44847 0.42477 0
M  V30 8293 H 797.714 0.820973 0.099662 0
M  V30 8294 H 800.26 1.60367 -0.555029 0
M  V30 8295 H 799.032 3.79309 -0.961251 0
M  V30 8296 H 798.655 3.9046 0.750137 0
M  V30 8297 N 799.652 0.226554 1.55963 0
M  V30 8298 C 800.562 -0.692725 2.24139 0
M  V30 8299 C 801.578 -1.20971 1.25068 0
M  V30 8300 O 802.754 -1.25027 1.57893 0
M  V30 8301 C 799.819 -1.88183 2.91184 0
M  V30 8302 C 798.88 -1.40633 4.05612 0
M  V30 8303 C 798.113 -2.53875 4.6945 0
M  V30 8304 O 798.336 -3.72129 4.32292 0
M  V30 8305 O 797.27 -2.24792 5.58348 0
M  V30 8306 H 801.096 -0.141921 3.03368 0
M  V30 8307 H 798.681 -0.0041049 1.49399 0
M  V30 8308 H 800.563 -2.57617 3.33484 0
M  V30 8309 H 799.238 -2.42064 2.14911 0
M  V30 8310 H 798.145 -0.67986 3.67871 0
M  V30 8311 H 799.478 -0.913838 4.83642 0
M  V30 8312 N 801.13 -1.57531 -0.0467866 0
M  V30 8313 C 802.376 -1.89584 -0.736837 0
M  V30 8314 C 802.731 -0.82317 -1.73901 0
M  V30 8315 O 802.024 0.170098 -1.90843 0
M  V30 8316 C 802.218 -3.26091 -1.46285 0
M  V30 8317 C 802.047 -4.46536 -0.532502 0
M  V30 8318 C 800.817 -5.05046 -0.160109 0
M  V30 8319 C 803.015 -5.13979 0.181555 0
M  V30 8320 N 800.997 -6.09009 0.773349 0
M  V30 8321 C 802.368 -6.12345 0.971297 0
M  V30 8322 C 804.423 -4.9727 0.250382 0
M  V30 8323 C 803.126 -6.95802 1.82351 0
M  V30 8324 C 805.152 -5.81275 1.08965 0
M  V30 8325 C 804.514 -6.79197 1.86737 0
M  V30 8326 H 800.613 -0.742868 -0.244277 0
M  V30 8327 H 803.197 -1.947 0.0025481 0
M  V30 8328 H 801.368 -3.21938 -2.1728 0
M  V30 8329 H 803.1 -3.45715 -2.10389 0
M  V30 8330 H 799.855 -4.70754 -0.518457 0
M  V30 8331 H 800.279 -6.65658 1.23406 0
M  V30 8332 H 804.921 -4.21458 -0.336578 0
M  V30 8333 H 802.639 -7.70971 2.42134 0
M  V30 8334 H 806.225 -5.70397 1.14621 0
M  V30 8335 H 805.105 -7.4307 2.50631 0
M  V30 8336 N 802.608 0.318715 -1.54344 0
M  V30 8337 C 803.555 1.39242 -1.84066 0
M  V30 8338 C 804.525 1.51175 -0.688134 0
M  V30 8339 O 805.71 1.66318 -0.935039 0
M  V30 8340 C 802.85 2.75528 -2.07794 0
M  V30 8341 C 801.963 2.72187 -3.35467 0
M  V30 8342 C 801.098 4.00352 -3.4913 0
M  V30 8343 C 800.137 3.91338 -4.7066 0
M  V30 8344 N 799.274 5.11242 -4.81224 0
M  V30 8345 H 804.114 1.13196 -2.75664 0
M  V30 8346 H 801.651 0.547857 -1.36517 0
M  V30 8347 H 803.609 3.54763 -2.19543 0
M  V30 8348 H 802.239 2.99873 -1.19482 0
M  V30 8349 H 801.291 1.84917 -3.3243 0
M  V30 8350 H 802.603 2.61411 -4.24812 0
M  V30 8351 H 801.757 4.88019 -3.60448 0
M  V30 8352 H 800.496 4.1394 -2.57886 0
M  V30 8353 H 799.501 3.02055 -4.59394 0
M  V30 8354 H 800.726 3.7931 -5.63294 0
M  V30 8355 H 798.672 5.25327 -3.92897 0
M  V30 8356 H 798.589 5.0282 -5.64543 0
M  V30 8357 H 799.857 6.0061 -4.96879 0
M  V30 8358 N 804.086 1.46499 0.581025 0
M  V30 8359 C 805.016 1.60052 1.70017 0
M  V30 8360 C 805.997 0.450788 1.64018 0
M  V30 8361 O 807.182 0.677237 1.82009 0
M  V30 8362 C 804.312 1.5921 3.08658 0
M  V30 8363 C 803.266 2.73169 3.29488 0
M  V30 8364 C 802.592 2.57389 4.68674 0
M  V30 8365 C 803.892 4.14978 3.1716 0
M  V30 8366 H 805.586 2.53735 1.5893 0
M  V30 8367 H 803.132 1.22113 0.763173 0
M  V30 8368 H 805.085 1.67285 3.86773 0
M  V30 8369 H 803.809 0.620718 3.20647 0
M  V30 8370 H 802.468 2.64566 2.53773 0
M  V30 8371 H 802.116 1.58331 4.77431 0
M  V30 8372 H 801.816 3.33826 4.83564 0
M  V30 8373 H 803.34 2.67358 5.48956 0
M  V30 8374 H 804.754 4.24684 3.85119 0
M  V30 8375 H 803.151 4.92016 3.4357 0
M  V30 8376 H 804.221 4.35016 2.14218 0
M  V30 8377 N 805.565 -0.825799 1.34232 0
M  V30 8378 C 806.79 -1.61883 1.29648 0
M  V30 8379 C 807.215 -1.87669 -0.127295 0
M  V30 8380 O 806.573 -1.45016 -1.08813 0
M  V30 8381 C 806.621 -2.93846 2.09014 0
M  V30 8382 O 805.725 -3.85778 1.4577 0
M  V30 8383 H 805.066 -0.492454 0.445405 0
M  V30 8384 H 807.596 -1.02641 1.76992 0
M  V30 8385 H 807.606 -3.43435 2.20264 0
M  V30 8386 H 806.281 -2.74401 3.12533 0
M  V30 8387 H 804.858 -3.4429 1.43245 0
M  V30 8388 N 807.043 -1.17915 -1.04565 0
M  V30 8389 C 808.292 -0.965816 -1.77073 0
M  V30 8390 C 808.605 0.506005 -1.88942 0
M  V30 8391 O 809.811 0.837717 -2.58253 0
M  V30 8392 C 808.267 -1.67894 -3.18339 0
M  V30 8393 C 807.875 -3.18972 -3.1458 0
M  V30 8394 C 809.619 -1.54823 -3.9526 0
M  V30 8395 C 807.526 -3.82946 -4.50674 0
M  V30 8396 H 806.456 -0.357729 -0.663736 0
M  V30 8397 H 809.107 -1.41235 -1.17153 0
M  V30 8398 H 807.489 -1.16016 -3.78624 0
M  V30 8399 H 808.663 -3.77835 -2.63776 0
M  V30 8400 H 806.978 -3.32127 -2.51159 0
M  V30 8401 H 809.575 -1.99984 -4.95894 0
M  V30 8402 H 809.918 -0.499727 -4.1329 0
M  V30 8403 H 810.451 -2.03953 -3.41538 0
M  V30 8404 H 807.19 -4.8782 -4.37849 0
M  V30 8405 H 806.71 -3.2887 -5.01602 0
M  V30 8406 H 808.389 -3.85518 -5.196 0
M  V30 8407 N 808.521 1.23394 -0.980386 0
M  V30 8408 C 809.469 2.26872 -0.513018 0
M  V30 8409 C 810.463 1.63853 0.429948 0
M  V30 8410 O 811.669 1.77417 0.303842 0
M  V30 8411 H 808.044 0.737398 -0.147473 0
M  V30 8412 H 810.015 2.63654 -1.39746 0
M  V30 8413 C 808.764 3.47289 0.168962 0
M  V30 8414 H 808.087 3.96033 -0.547546 0
M  V30 8415 H 809.527 4.21502 0.459616 0
M  V30 8416 C 807.986 3.06425 1.40019 0
M  V30 8417 O 808.516 3.14708 2.49643 0
M  V30 8418 N 806.722 2.61339 1.27084 0
M  V30 8419 H 806.269 2.54799 0.378872 0
M  V30 8420 H 806.227 2.34364 2.09573 0
M  V30 8421 N 809.999 0.752036 1.385 0
M  V30 8422 C 811.229 0.317812 2.04141 0
M  V30 8423 C 811.637 -1.05822 1.56839 0
M  V30 8424 O 810.98 -1.68311 0.736016 0
M  V30 8425 C 811.042 0.260205 3.58557 0
M  V30 8426 C 810.706 1.57753 4.28909 0
M  V30 8427 C 811.703 2.52642 4.54387 0
M  V30 8428 C 809.388 1.84653 4.67128 0
M  V30 8429 C 811.382 3.72653 5.17116 0
M  V30 8430 C 809.069 3.04938 5.29581 0
M  V30 8431 C 810.067 3.98759 5.54509 0
M  V30 8432 O 809.755 5.16929 6.15662 0
M  V30 8433 H 809.487 0.133931 0.6626 0
M  V30 8434 H 812.041 1.02138 1.78205 0
M  V30 8435 H 810.271 -0.499596 3.83459 0
M  V30 8436 H 811.96 -0.144295 4.05643 0
M  V30 8437 H 812.726 2.33135 4.25292 0
M  V30 8438 H 808.605 1.12464 4.47071 0
M  V30 8439 H 812.149 4.45898 5.36489 0
M  V30 8440 H 808.046 3.24339 5.58099 0
M  V30 8441 H 808.814 5.1749 6.3415 0
M  V30 8442 N 811.477 -1.49425 0.500989 0
M  V30 8443 C 812.705 -2.06861 -0.0403443 0
M  V30 8444 C 813.12 -1.36132 -1.30819 0
M  V30 8445 O 812.477 -0.439647 -1.77125 0
M  V30 8446 C 812.528 -3.6027 -0.297902 0
M  V30 8447 O 812.249 -4.28338 0.919686 0
M  V30 8448 C 813.75 -4.34419 -0.882876 0
M  V30 8449 H 810.97 -0.670688 0.0204619 0
M  V30 8450 H 813.514 -1.92207 0.698342 0
M  V30 8451 H 811.669 -3.74627 -0.98657 0
M  V30 8452 H 812.083 -5.2004 0.682528 0
M  V30 8453 H 813.557 -5.42631 -1.01268 0
M  V30 8454 H 814.034 -3.96898 -1.88066 0
M  V30 8455 H 814.64 -4.24669 -0.231677 0
M  V30 8456 N 812.955 -0.234822 -1.55841 0
M  V30 8457 C 814.185 0.397168 -2.02746 0
M  V30 8458 C 814.593 1.52951 -1.11367 0
M  V30 8459 O 813.936 1.8332 -0.118133 0
M  V30 8460 C 813.998 0.977748 -3.45948 0
M  V30 8461 C 813.662 -0.0208193 -4.56995 0
M  V30 8462 C 814.659 -0.826015 -5.13296 0
M  V30 8463 C 812.344 -0.143416 -5.02095 0
M  V30 8464 C 814.338 -1.74038 -6.1318 0
M  V30 8465 C 812.025 -1.0613 -6.01814 0
M  V30 8466 C 813.023 -1.85832 -6.57233 0
M  V30 8467 O 812.711 -2.76075 -7.55008 0
M  V30 8468 H 812.443 0.0999802 -0.668566 0
M  V30 8469 H 814.997 -0.352673 -2.0235 0
M  V30 8470 H 813.227 1.77693 -3.43456 0
M  V30 8471 H 814.916 1.51854 -3.76424 0
M  V30 8472 H 815.682 -0.741822 -4.79293 0
M  V30 8473 H 811.561 0.466857 -4.5863 0
M  V30 8474 H 815.105 -2.36291 -6.56363 0
M  V30 8475 H 811.002 -1.14646 -6.35237 0
M  V30 8476 H 811.77 -2.703 -7.7258 0
M  V30 8477 N 814.433 1.57553 0.0384317 0
M  V30 8478 C 815.381 2.07021 1.06043 0
M  V30 8479 C 816.375 0.982078 1.38028 0
M  V30 8480 O 817.581 1.16702 1.37042 0
M  V30 8481 H 813.956 0.660522 0.359464 0
M  V30 8482 H 815.927 2.91944 0.617339 0
M  V30 8483 C 814.676 2.55734 2.35574 0
M  V30 8484 H 813.999 3.39074 2.11822 0
M  V30 8485 H 815.439 2.94066 3.05452 0
M  V30 8486 C 813.898 1.45449 3.03885 0
M  V30 8487 O 814.428 0.815402 3.93337 0
M  V30 8488 N 812.634 1.19134 2.65058 0
M  V30 8489 H 812.181 1.71288 1.92401 0
M  V30 8490 H 812.139 0.455554 3.11082 0
M  V30 8491 N 815.911 -0.310526 1.54511 0
M  V30 8492 C 817.188 -1.06593 1.64004 0
M  V30 8493 C 817.568 -2.05519 0.482216 0
M  V30 8494 O 816.916 -2.22455 -0.52212 0
M  V30 8495 C 817.126 -1.75627 3.01589 0
M  V30 8496 C 818.474 -2.28173 3.58081 0
M  V30 8497 O 819.498 -1.85674 3.03979 0
M  V30 8498 O 818.357 -3.06015 4.52788 0
M  V30 8499 H 815.451 -0.492109 0.664649 0
M  V30 8500 H 817.997 -0.309374 1.66856 0
M  V30 8501 H 816.769 -1.03743 3.77297 0
M  V30 8502 H 816.392 -2.58061 3.02473 0
M  V30 8503 N 817.389 -1.46805 -0.573248 0
M  V30 8504 C 818.637 -1.52302 -1.32847 0
M  V30 8505 C 818.958 -0.180159 -1.94166 0
M  V30 8506 O 818.228 0.794291 -1.79075 0
M  V30 8507 H 816.808 -0.56097 -0.493276 0
M  V30 8508 H 819.47 -1.82998 -0.670642 0
M  V30 8509 H 818.566 -2.28089 -2.13031 0
M  V30 8510 N 818.867 0.818669 -1.34668 0
M  V30 8511 C 820.283 1.11243 -1.14443 0
M  V30 8512 C 820.483 2.01435 0.0512212 0
M  V30 8513 O 819.539 2.41854 0.725471 0
M  V30 8514 C 820.852 1.75504 -2.4417 0
M  V30 8515 C 822.4 1.8798 -2.50265 0
M  V30 8516 C 822.875 2.55657 -3.80004 0
M  V30 8517 N 824.366 2.63153 -3.81189 0
M  V30 8518 C 825.101 3.16258 -4.78298 0
M  V30 8519 N 824.597 3.69893 -5.85791 0
M  V30 8520 N 826.39 3.14698 -4.65748 0
M  V30 8521 H 818.541 0.218848 -2.1127 0
M  V30 8522 H 820.804 0.159655 -0.934459 0
M  V30 8523 H 820.51 1.16697 -3.31775 0
M  V30 8524 H 820.384 2.75329 -2.57825 0
M  V30 8525 H 822.771 2.45934 -1.63096 0
M  V30 8526 H 822.852 0.870447 -2.40535 0
M  V30 8527 H 822.496 1.98356 -4.67565 0
M  V30 8528 H 822.426 3.57105 -3.87019 0
M  V30 8529 H 824.917 2.2514 -3.03513 0
M  V30 8530 H 825.23 4.08678 -6.55898 0
M  V30 8531 H 823.575 3.68125 -5.89499 0
M  V30 8532 H 826.766 2.72066 -3.80917 0
M  V30 8533 H 826.939 3.5578 -5.41594 0
M  V30 8534 N 820.346 1.18468 1.03938 0
M  V30 8535 C 821.623 0.890435 1.74157 0
M  V30 8536 C 822.003 -0.606409 2.02203 0
M  V30 8537 O 821.351 -1.5615 1.66822 0
M  V30 8538 C 821.561 1.73906 3.02585 0
M  V30 8539 C 822.909 1.96686 3.76297 0
M  V30 8540 O 823.933 1.70969 3.12487 0
M  V30 8541 O 822.792 2.39986 4.90988 0
M  V30 8542 H 819.886 0.330889 0.757919 0
M  V30 8543 H 822.432 1.29228 1.09992 0
M  V30 8544 H 821.204 2.75369 2.78006 0
M  V30 8545 H 820.827 1.33581 3.74489 0
M  V30 8546 N 821.824 -1.22873 0.986916 0
M  V30 8547 C 823.07 -1.91746 0.660401 0
M  V30 8548 C 823.403 -1.76738 -0.804812 0
M  V30 8549 O 822.678 -1.13246 -1.58131 0
M  V30 8550 C 822.961 -3.44156 1.05966 0
M  V30 8551 C 822.814 -3.68242 2.58298 0
M  V30 8552 C 824.133 -4.35874 0.60842 0
M  V30 8553 H 821.252 -0.696347 0.241391 0
M  V30 8554 H 823.894 -1.44867 1.22937 0
M  V30 8555 H 822.044 -3.84213 0.575534 0
M  V30 8556 H 823.716 -3.37626 3.14335 0
M  V30 8557 H 821.959 -3.12728 3.00638 0
M  V30 8558 H 822.63 -4.74956 2.81285 0
M  V30 8559 H 825.106 -4.03299 1.02417 0
M  V30 8560 H 823.982 -5.41201 0.916142 0
M  V30 8561 H 824.243 -4.39364 -0.491086 0
M  V30 8562 N 823.302 -0.75937 -1.38099 0
M  V30 8563 C 824.527 -0.327859 -2.04792 0
M  V30 8564 C 824.952 1.03752 -1.56899 0
M  V30 8565 O 824.31 1.66235 -0.723581 0
M  V30 8566 C 824.358 -0.366264 -3.58735 0
M  V30 8567 O 823.462 0.637697 -4.0744 0
M  V30 8568 H 822.803 -0.144092 -0.648177 0
M  V30 8569 H 825.333 -1.03211 -1.7666 0
M  V30 8570 H 825.343 -0.219179 -4.07411 0
M  V30 8571 H 824.018 -1.36243 -3.92951 0
M  V30 8572 H 822.595 0.454749 -3.70117 0
M  V30 8573 N 824.78 1.49157 -0.508906 0
M  V30 8574 C 825.728 2.30922 0.278906 0
M  V30 8575 C 826.722 1.39889 0.955382 0
M  V30 8576 O 827.928 1.56901 0.882169 0
M  V30 8577 H 824.303 0.744087 0.108805 0
M  V30 8578 H 826.274 2.95277 -0.430583 0
M  V30 8579 C 825.023 3.21432 1.32576 0
M  V30 8580 H 824.346 3.91413 0.814634 0
M  V30 8581 H 825.786 3.81568 1.84882 0
M  V30 8582 C 824.245 2.41583 2.34817 0
M  V30 8583 O 824.775 2.1256 3.40854 0
M  V30 8584 N 822.981 2.03462 2.07489 0
M  V30 8585 H 822.528 2.27265 1.21278 0
M  V30 8586 H 822.486 1.50345 2.76123 0
M  V30 8587 N 826.258 0.243083 1.55714 0
M  V30 8588 C 827.506 -0.381964 1.98458 0
M  V30 8589 C 827.827 -1.58745 1.13247 0
M  V30 8590 O 827.097 -1.94723 0.214384 0
M  V30 8591 H 825.677 -0.144114 0.732967 0
M  V30 8592 H 828.339 0.340985 1.91894 0
M  V30 8593 H 827.435 -0.693702 3.04293 0
M  V30 8594 N 827.736 -1.57571 -0.0300757 0
M  V30 8595 C 828.646 -2.09892 -1.04798 0
M  V30 8596 C 829.662 -1.03732 -1.39698 0
M  V30 8597 O 830.838 -1.35461 -1.49038 0
M  V30 8598 C 827.903 -2.56707 -2.33028 0
M  V30 8599 C 826.964 -3.77345 -2.04718 0
M  V30 8600 C 826.197 -4.21918 -3.26834 0
M  V30 8601 O 826.42 -3.66025 -4.37472 0
M  V30 8602 O 825.354 -5.14362 -3.12594 0
M  V30 8603 H 829.18 -2.97023 -0.633344 0
M  V30 8604 H 826.765 -1.47344 -0.246991 0
M  V30 8605 H 828.647 -2.87154 -3.08417 0
M  V30 8606 H 827.322 -1.72688 -2.73789 0
M  V30 8607 H 826.229 -3.51919 -1.26901 0
M  V30 8608 H 827.562 -4.62345 -1.68813 0
M  V30 8609 N 829.214 0.302327 -1.54673 0
M  V30 8610 C 830.162 1.39286 -1.86285 0
M  V30 8611 C 831.156 1.52553 -0.736478 0
M  V30 8612 O 832.362 1.54686 -0.92045 0
M  V30 8613 H 828.737 0.465228 -0.590819 0
M  V30 8614 H 830.708 1.09859 -2.77441 0
M  V30 8615 C 829.457 2.75155 -2.12567 0
M  V30 8616 H 828.78 2.65728 -2.98712 0
M  V30 8617 H 830.22 3.50476 -2.38627 0
M  V30 8618 C 828.679 3.23987 -0.923813 0
M  V30 8619 O 829.209 4.01443 -0.143649 0
M  V30 8620 N 827.415 2.81293 -0.72956 0
M  V30 8621 H 826.962 2.18421 -1.36565 0
M  V30 8622 H 826.92 3.14315 0.0730351 0
M  V30 8623 N 830.692 1.47107 0.565454 0
M  V30 8624 C 831.639 1.58974 1.6732 0
M  V30 8625 C 832.609 0.433146 1.60353 0
M  V30 8626 O 833.794 0.652141 1.79309 0
M  V30 8627 C 830.934 1.60224 3.05651 0
M  V30 8628 C 830.047 2.86741 3.23116 0
M  V30 8629 C 829.182 2.79381 4.51796 0
M  V30 8630 C 828.221 4.0076 4.62664 0
M  V30 8631 N 827.358 3.91685 5.8269 0
M  V30 8632 H 832.198 2.53588 1.56515 0
M  V30 8633 H 829.735 1.25791 0.762558 0
M  V30 8634 H 831.693 1.58933 3.85741 0
M  V30 8635 H 830.323 0.691285 3.15311 0
M  V30 8636 H 829.375 2.97936 2.36513 0
M  V30 8637 H 830.687 3.7665 3.27011 0
M  V30 8638 H 829.841 2.76293 5.40136 0
M  V30 8639 H 828.58 1.87142 4.50366 0
M  V30 8640 H 827.585 4.04162 3.72738 0
M  V30 8641 H 828.81 4.94117 4.6586 0
M  V30 8642 H 826.756 3.02243 5.82224 0
M  V30 8643 H 826.673 4.75264 5.87929 0
M  V30 8644 H 827.941 3.92599 6.73414 0
M  V30 8645 N 832.17 -0.811516 1.35101 0
M  V30 8646 C 833.581 -1.38515 1.25182 0
M  V30 8647 C 833.932 -1.95846 -0.117883 0
M  V30 8648 O 833.057 -1.90925 -1.01866 0
M  V30 8649 C 833.652 -2.51813 2.26662 0
M  V30 8650 C 832.211 -3.05052 2.20499 0
M  V30 8651 C 831.358 -1.77987 2.12641 0
M  V30 8652 H 834.309 -0.614959 1.46301 0
M  V30 8653 H 834.33 -3.30228 1.89023 0
M  V30 8654 H 833.842 -2.10057 3.2634 0
M  V30 8655 H 831.943 -3.51285 1.24215 0
M  V30 8656 H 832.056 -3.63368 3.1225 0
M  V30 8657 H 830.42 -1.99342 1.5854 0
M  V30 8658 H 831.203 -1.38389 3.14171 0
M  V30 8659 N 833.648 -1.19017 -1.03309 0
M  V30 8660 C 834.578 -0.94772 -2.13402 0
M  V30 8661 C 835.559 0.117383 -1.69694 0
M  V30 8662 O 836.744 -0.0367733 -1.94165 0
M  V30 8663 C 833.874 -0.480977 -3.43953 0
M  V30 8664 C 832.828 -1.48743 -4.01322 0
M  V30 8665 C 832.154 -0.877924 -5.27443 0
M  V30 8666 C 833.454 -2.86642 -4.36616 0
M  V30 8667 H 835.148 -1.86846 -2.33942 0
M  V30 8668 H 832.694 -0.899781 -1.12427 0
M  V30 8669 H 834.647 -0.298677 -4.2034 0
M  V30 8670 H 833.371 0.475348 -3.23122 0
M  V30 8671 H 832.03 -1.65681 -3.27025 0
M  V30 8672 H 831.678 0.0858232 -5.02927 0
M  V30 8673 H 831.378 -1.54996 -5.66789 0
M  V30 8674 H 832.902 -0.706326 -6.06501 0
M  V30 8675 H 834.316 -2.73312 -5.03958 0
M  V30 8676 H 832.713 -3.50599 -4.87032 0
M  V30 8677 H 833.783 -3.39617 -3.46105 0
M  V30 8678 N 835.127 1.22348 -0.993418 0
M  V30 8679 C 836.352 1.95666 -0.687727 0
M  V30 8680 C 836.777 1.72883 0.741161 0
M  V30 8681 O 836.135 1.00837 1.50671 0
M  V30 8682 C 836.183 3.46457 -0.99998 0
M  V30 8683 O 835.287 4.12281 -0.0989386 0
M  V30 8684 H 834.628 0.612102 -0.257346 0
M  V30 8685 H 837.158 1.55428 -1.33054 0
M  V30 8686 H 837.168 3.96976 -0.942035 0
M  V30 8687 H 835.843 3.62365 -2.04118 0
M  V30 8688 H 834.42 3.72295 -0.212413 0
M  V30 8689 N 836.605 0.766683 1.37694 0
M  V30 8690 C 837.882 0.25366 1.93948 0
M  V30 8691 C 838.262 -1.25041 1.70082 0
M  V30 8692 O 837.61 -2.03115 1.04674 0
M  V30 8693 C 837.82 0.621549 3.43421 0
M  V30 8694 C 839.168 0.588504 4.20502 0
M  V30 8695 O 840.192 0.560632 3.5176 0
M  V30 8696 O 839.051 0.61107 5.43073 0
M  V30 8697 H 836.145 0.0570586 0.825029 0
M  V30 8698 H 838.691 0.847693 1.47011 0
M  V30 8699 H 837.463 1.65979 3.54354 0
M  V30 8700 H 837.086 0.000197027 3.976 0
M  V30 8701 N 838.083 -1.48885 0.516809 0
M  V30 8702 C 839.013 -2.32241 -0.242157 0
M  V30 8703 C 839.994 -1.41258 -0.947633 0
M  V30 8704 O 841.179 -1.70156 -0.935973 0
M  V30 8705 C 838.309 -3.22151 -1.29754 0
M  V30 8706 C 837.263 -4.22053 -0.710995 0
M  V30 8707 C 836.589 -5.01007 -1.86806 0
M  V30 8708 C 837.889 -5.21388 0.30853 0
M  V30 8709 H 839.583 -2.95943 0.453651 0
M  V30 8710 H 837.129 -1.42316 0.219612 0
M  V30 8711 H 839.082 -3.79284 -1.83634 0
M  V30 8712 H 837.806 -2.56423 -2.02274 0
M  V30 8713 H 836.465 -3.66087 -0.193819 0
M  V30 8714 H 836.113 -4.31713 -2.58133 0
M  V30 8715 H 835.813 -5.68615 -1.48159 0
M  V30 8716 H 837.337 -5.60989 -2.4109 0
M  V30 8717 H 838.751 -5.73122 -0.142703 0
M  V30 8718 H 837.148 -5.96975 0.611673 0
M  V30 8719 H 838.218 -4.69329 1.21894 0
M  V30 8720 N 839.561 -0.251338 -1.55583 0
M  V30 8721 C 840.972 0.25098 -1.85005 0
M  V30 8722 C 841.323 1.57259 -1.17321 0
M  V30 8723 O 840.448 2.11603 -0.453136 0
M  V30 8724 C 841.043 0.462161 -3.35633 0
M  V30 8725 C 839.602 0.908737 -3.65266 0
M  V30 8726 C 838.749 -0.0115418 -2.77298 0
M  V30 8727 H 841.7 -0.473782 -1.51463 0
M  V30 8728 H 841.721 1.30415 -3.57452 0
M  V30 8729 H 841.233 -0.499886 -3.84867 0
M  V30 8730 H 839.334 1.8831 -3.21512 0
M  V30 8731 H 839.447 0.762526 -4.72993 0
M  V30 8732 H 837.811 0.500612 -2.49732 0
M  V30 8733 H 838.594 -0.969042 -3.29339 0
M  V30 8734 N 841.039 1.57585 0.0217189 0
M  V30 8735 C 842.286 1.89606 0.711045 0
M  V30 8736 C 842.614 0.849535 1.74966 0
M  V30 8737 O 841.869 -0.14856 1.95135 0
M  V30 8738 C 842.168 3.28377 1.41079 0
M  V30 8739 C 841.834 4.48035 0.507454 0
M  V30 8740 C 840.496 4.80504 0.258672 0
M  V30 8741 C 842.848 5.21071 -0.115793 0
M  V30 8742 C 840.176 5.83393 -0.622013 0
M  V30 8743 C 842.528 6.24897 -0.984224 0
M  V30 8744 C 841.192 6.55836 -1.2424 0
M  V30 8745 H 840.462 0.693817 0.26019 0
M  V30 8746 H 843.109 1.91478 -0.0291424 0
M  V30 8747 H 841.414 3.22528 2.22448 0
M  V30 8748 H 843.111 3.50404 1.94982 0
M  V30 8749 H 839.701 4.22653 0.711516 0
M  V30 8750 H 843.885 4.96259 0.0634327 0
M  V30 8751 H 839.141 6.05736 -0.830267 0
M  V30 8752 H 843.315 6.8063 -1.47363 0
M  V30 8753 H 840.942 7.35383 -1.92653 0
M  V30 8754 N 842.517 -0.29412 1.54831 0
M  V30 8755 C 843.467 -1.36476 1.82643 0
M  V30 8756 C 844.451 -1.45638 0.683984 0
M  V30 8757 O 845.643 -1.49675 0.944801 0
M  V30 8758 C 842.772 -2.72865 2.08326 0
M  V30 8759 C 841.858 -2.67898 3.28773 0
M  V30 8760 N 842.249 -2.32547 4.49172 0
M  V30 8761 C 840.547 -2.98991 3.30939 0
M  V30 8762 C 841.248 -2.37048 5.31209 0
M  V30 8763 N 840.224 -2.74679 4.69097 0
M  V30 8764 H 844.026 -1.08119 2.7329 0
M  V30 8765 H 841.54 -0.502718 1.54423 0
M  V30 8766 H 843.537 -3.5007 2.264 0
M  V30 8767 H 842.197 -3.02127 1.1895 0
M  V30 8768 H 843.208 -2.04883 4.7565 0
M  V30 8769 H 839.885 -3.33104 2.51691 0
M  V30 8770 H 841.275 -2.12457 6.37426 0
M  V30 8771 N 843.995 -1.47404 -0.557645 0
M  V30 8772 C 845.223 -1.57622 -1.34026 0
M  V30 8773 C 845.638 -0.226256 -1.87439 0
M  V30 8774 O 844.995 0.78043 -1.64971 0
M  V30 8775 C 845.046 -2.60111 -2.51047 0
M  V30 8776 O 844.767 -3.89866 -1.99841 0
M  V30 8777 C 846.268 -2.80508 -3.43264 0
M  V30 8778 H 843.488 -0.532271 -0.40857 0
M  V30 8779 H 846.032 -1.93019 -0.675555 0
M  V30 8780 H 844.187 -2.27648 -3.13457 0
M  V30 8781 H 844.601 -4.45864 -2.76234 0
M  V30 8782 H 846.075 -3.56084 -4.21792 0
M  V30 8783 H 846.552 -1.88314 -3.9678 0
M  V30 8784 H 847.158 -3.14166 -2.86671 0
M  V30 8785 N 845.473 0.80434 -1.35529 0
M  V30 8786 C 846.436 1.89788 -1.28503 0
M  V30 8787 C 847.436 1.59601 -0.195983 0
M  V30 8788 O 848.626 1.68292 -0.449827 0
M  V30 8789 C 845.758 3.26255 -0.98847 0
M  V30 8790 H 846.951 1.97436 -2.25741 0
M  V30 8791 H 844.504 1.00046 -1.20086 0
M  V30 8792 H 845.239 3.24294 -0.0200541 0
M  V30 8793 H 845.024 3.49551 -1.77641 0
M  V30 8794 H 846.514 4.06298 -0.964975 0
M  V30 8795 N 846.951 1.19563 1.02676 0
M  V30 8796 C 847.899 0.931942 2.13114 0
M  V30 8797 C 848.893 -0.113007 1.69023 0
M  V30 8798 O 850.099 0.0364298 1.79963 0
M  V30 8799 H 846.474 0.283981 0.696318 0
M  V30 8800 H 848.445 1.86991 2.32545 0
M  V30 8801 C 847.194 0.489461 3.44238 0
M  V30 8802 H 846.517 1.28508 3.78584 0
M  V30 8803 H 847.957 0.34408 4.22602 0
M  V30 8804 C 846.416 -0.796761 3.27343 0
M  V30 8805 O 846.946 -1.85767 3.56165 0
M  V30 8806 N 845.152 -0.754824 2.80626 0
M  V30 8807 H 844.699 0.108778 2.5737 0
M  V30 8808 H 844.657 -1.6158 2.69702 0
M  V30 8809 N 848.429 -1.21819 0.999893 0
M  V30 8810 C 849.677 -1.90375 0.678351 0
M  V30 8811 C 849.998 -1.78155 -0.792824 0
M  V30 8812 O 849.268 -1.17319 -1.56885 0
M  V30 8813 H 847.848 -0.704661 0.247915 0
M  V30 8814 H 850.51 -1.48021 1.2679 0
M  V30 8815 H 849.606 -2.97385 0.947023 0
M  V30 8816 N 849.908 -0.773975 -1.37286 0
M  V30 8817 C 851.136 -0.350758 -2.03905 0
M  V30 8818 C 851.551 1.02779 -1.58373 0
M  V30 8819 O 850.908 1.65646 -0.766009 0
M  V30 8820 C 850.959 -0.387335 -3.59419 0
M  V30 8821 O 850.68 -1.7115 -4.03286 0
M  V30 8822 C 852.181 0.047198 -4.43275 0
M  V30 8823 H 849.401 -0.146663 -0.654775 0
M  V30 8824 H 851.945 -1.04852 -1.75574 0
M  V30 8825 H 850.1 0.261865 -3.86514 0
M  V30 8826 H 850.514 -1.65166 -4.97816 0
M  V30 8827 H 851.988 -0.0295474 -5.51992 0
M  V30 8828 H 852.465 1.09786 -4.25257 0
M  V30 8829 H 853.071 -0.573899 -4.2141 0
M  V30 8830 N 851.386 1.48609 -0.524698 0
M  V30 8831 C 852.316 2.32366 0.229837 0
M  V30 8832 C 853.297 1.41759 0.940129 0
M  V30 8833 O 854.482 1.7065 0.926936 0
M  V30 8834 C 851.612 3.22835 1.28043 0
M  V30 8835 C 850.566 4.22424 0.688603 0
M  V30 8836 C 849.892 5.0199 1.84146 0
M  V30 8837 C 851.192 5.21217 -0.336176 0
M  V30 8838 H 852.886 2.95698 -0.469339 0
M  V30 8839 H 850.432 1.42197 -0.227156 0
M  V30 8840 H 852.385 3.80253 1.8162 0
M  V30 8841 H 851.109 2.57492 2.00912 0
M  V30 8842 H 849.768 3.66185 0.174402 0
M  V30 8843 H 849.416 4.33076 2.5584 0
M  V30 8844 H 849.116 5.69392 1.45142 0
M  V30 8845 H 850.64 5.62259 2.38111 0
M  V30 8846 H 852.054 5.7319 0.112307 0
M  V30 8847 H 850.451 5.96642 -0.643324 0
M  V30 8848 H 851.521 4.68676 -1.24381 0
M  V30 8849 N 852.864 0.259585 1.55447 0
M  V30 8850 C 854.141 -0.412595 1.91199 0
M  V30 8851 C 854.521 -1.74909 1.18194 0
M  V30 8852 O 853.869 -2.26474 0.303603 0
M  V30 8853 C 854.079 -0.568195 3.44344 0
M  V30 8854 C 855.427 -0.858253 4.15836 0
M  V30 8855 O 856.451 -0.653588 3.50152 0
M  V30 8856 O 855.31 -1.24874 5.32042 0
M  V30 8857 H 852.404 -0.223403 0.796254 0
M  V30 8858 H 854.95 0.30459 1.66944 0
M  V30 8859 H 853.722 0.372989 3.89518 0
M  V30 8860 H 853.345 -1.33544 3.74502 0
M  V30 8861 N 854.342 -1.57594 -0.0133615 0
M  V30 8862 C 855.588 -1.91105 -0.696457 0
M  V30 8863 C 855.943 -0.859872 -1.72116 0
M  V30 8864 O 855.236 0.129579 -1.91161 0
M  V30 8865 C 855.43 -3.29121 -1.39336 0
M  V30 8866 C 855.259 -4.47565 -0.437666 0
M  V30 8867 C 854.029 -5.05272 -0.0529454 0
M  V30 8868 C 856.227 -5.13479 0.290537 0
M  V30 8869 N 854.209 -6.07232 0.902355 0
M  V30 8870 C 855.58 -6.10147 1.10097 0
M  V30 8871 C 857.635 -4.96627 0.355804 0
M  V30 8872 C 856.338 -6.91778 1.97069 0
M  V30 8873 C 858.364 -5.78833 1.21271 0
M  V30 8874 C 857.726 -6.75083 2.01102 0
M  V30 8875 H 853.825 -0.747882 -0.228464 0
M  V30 8876 H 856.409 -1.94651 0.0438462 0
M  V30 8877 H 854.58 -3.26474 -2.10403 0
M  V30 8878 H 856.312 -3.501 -2.03008 0
M  V30 8879 H 853.067 -4.71747 -0.418486 0
M  V30 8880 H 853.491 -6.6289 1.37498 0
M  V30 8881 H 858.133 -4.22077 -0.247105 0
M  V30 8882 H 855.851 -7.65662 2.58433 0
M  V30 8883 H 859.437 -5.67838 1.26694 0
M  V30 8884 H 858.317 -7.37587 2.66337 0
M  V30 8885 N 855.82 0.285905 -1.54985 0
M  V30 8886 C 856.767 1.35306 -1.86978 0
M  V30 8887 C 857.737 1.49682 -0.720046 0
M  V30 8888 O 858.922 1.64297 -0.970107 0
M  V30 8889 C 856.062 2.71059 -2.13591 0
M  V30 8890 C 855.175 2.6501 -3.41165 0
M  V30 8891 C 854.31 3.92856 -3.57544 0
M  V30 8892 C 853.349 3.81266 -4.78855 0
M  V30 8893 N 852.486 5.00919 -4.9196 0
M  V30 8894 H 857.326 1.07323 -2.78003 0
M  V30 8895 H 854.863 0.518776 -1.37649 0
M  V30 8896 H 856.821 3.50026 -2.27019 0
M  V30 8897 H 855.451 2.97271 -1.25816 0
M  V30 8898 H 854.503 1.77824 -3.36278 0
M  V30 8899 H 855.815 2.52342 -4.30262 0
M  V30 8900 H 854.969 4.80263 -3.70718 0
M  V30 8901 H 853.708 4.08377 -2.66608 0
M  V30 8902 H 852.713 2.92243 -4.65698 0
M  V30 8903 H 853.938 3.67277 -5.71213 0
M  V30 8904 H 851.884 5.16875 -4.03951 0
M  V30 8905 H 851.801 4.90732 -5.75081 0
M  V30 8906 H 853.069 5.89935 -5.09507 0
M  V30 8907 N 857.298 1.47698 0.54982 0
M  V30 8908 C 858.709 1.48474 1.13191 0
M  V30 8909 C 859.06 0.243504 1.94683 0
M  V30 8910 O 858.185 -0.651009 2.06375 0
M  V30 8911 C 858.78 2.69022 2.05944 0
M  V30 8912 C 857.339 2.72733 2.5941 0
M  V30 8913 C 856.486 2.41691 1.35944 0
M  V30 8914 H 859.437 1.55101 0.336048 0
M  V30 8915 H 859.458 2.46412 2.89934 0
M  V30 8916 H 858.97 3.59345 1.46605 0
M  V30 8917 H 857.071 1.86568 3.22526 0
M  V30 8918 H 857.184 3.73628 2.99899 0
M  V30 8919 H 855.548 1.92428 1.66864 0
M  V30 8920 H 856.331 3.34231 0.783869 0
M  V30 8921 N 858.776 -0.797141 1.35954 0
M  V30 8922 C 859.706 -1.92387 1.32323 0
M  V30 8923 C 860.687 -1.68967 0.196007 0
M  V30 8924 O 861.872 -1.90193 0.39245 0
M  V30 8925 C 859.002 -3.29286 1.10398 0
M  V30 8926 C 857.956 -3.67212 2.19862 0
M  V30 8927 C 857.282 -5.02377 1.8309 0
M  V30 8928 C 858.582 -3.76602 3.61896 0
M  V30 8929 H 860.276 -1.95683 2.26602 0
M  V30 8930 H 857.822 -0.94007 1.09081 0
M  V30 8931 H 859.775 -4.07721 1.06495 0
M  V30 8932 H 858.499 -3.26358 0.125668 0
M  V30 8933 H 857.158 -2.91069 2.22878 0
M  V30 8934 H 856.806 -4.95961 0.838527 0
M  V30 8935 H 856.506 -5.28722 2.56372 0
M  V30 8936 H 858.03 -5.8324 1.80729 0
M  V30 8937 H 859.444 -4.45246 3.6115 0
M  V30 8938 H 857.841 -4.14425 4.34018 0
M  V30 8939 H 858.911 -2.77906 3.97361 0
M  V30 8940 N 860.254 -1.20106 -1.0204 0
M  V30 8941 C 861.217 -0.948261 -2.08664 0
M  V30 8942 C 862.217 0.0746753 -1.60627 0
M  V30 8943 O 863.407 -0.160981 -1.73455 0
M  V30 8944 C 860.539 -0.426854 -3.38217 0
M  V30 8945 H 861.732 -1.894 -2.32524 0
M  V30 8946 H 859.285 -1.0159 -1.18782 0
M  V30 8947 H 860.02 0.524532 -3.2003 0
M  V30 8948 H 859.805 -1.16451 -3.74408 0
M  V30 8949 H 861.295 -0.269346 -4.1673 0
M  V30 8950 N 861.732 1.21287 -1.00634 0
M  V30 8951 C 862.662 2.25973 -0.588089 0
M  V30 8952 C 863.643 1.65527 0.391764 0
M  V30 8953 O 864.828 1.92179 0.279452 0
M  V30 8954 C 861.958 3.47197 0.0847336 0
M  V30 8955 C 860.912 4.20168 -0.815039 0
M  V30 8956 C 860.238 5.34699 -0.00855393 0
M  V30 8957 C 861.538 4.77416 -2.11828 0
M  V30 8958 H 863.232 2.61212 -1.46317 0
M  V30 8959 H 860.778 1.25563 -0.704985 0
M  V30 8960 H 862.731 4.19602 0.388821 0
M  V30 8961 H 861.455 3.11092 0.994456 0
M  V30 8962 H 860.114 3.49614 -1.10297 0
M  V30 8963 H 859.762 4.94837 0.902499 0
M  V30 8964 H 859.462 5.84449 -0.607664 0
M  V30 8965 H 860.986 6.09914 0.289317 0
M  V30 8966 H 862.4 5.41694 -1.87725 0
M  V30 8967 H 860.797 5.37561 -2.66736 0
M  V30 8968 H 861.867 3.96724 -2.78816 0
M  V30 8969 N 863.21 0.781244 1.36873 0
M  V30 8970 C 864.12 0.174981 2.33947 0
M  V30 8971 C 865.136 -0.668512 1.60645 0
M  V30 8972 O 866.312 -0.586213 1.9268 0
M  V30 8973 C 863.377 -0.686557 3.39834 0
M  V30 8974 C 862.438 0.174489 4.28945 0
M  V30 8975 C 861.671 -0.646024 5.29776 0
M  V30 8976 O 861.894 -1.88254 5.38439 0
M  V30 8977 O 860.828 -0.0502214 6.01879 0
M  V30 8978 H 864.654 0.977382 2.87543 0
M  V30 8979 H 862.239 0.542559 1.392 0
M  V30 8980 H 864.121 -1.1781 4.04597 0
M  V30 8981 H 862.796 -1.46699 2.8855 0
M  V30 8982 H 861.703 0.712604 3.6725 0
M  V30 8983 H 863.036 0.918232 4.83559 0
M  V30 8984 N 864.689 -1.48329 0.532571 0
M  V30 8985 C 865.966 -1.95492 -0.0650985 0
M  V30 8986 C 866.346 -1.47485 -1.51034 0
M  V30 8987 O 865.694 -0.702516 -2.17433 0
M  V30 8988 C 865.904 -3.48957 0.0548341 0
M  V30 8989 C 867.252 -4.24475 -0.103115 0
M  V30 8990 O 868.276 -3.56195 -0.0188343 0
M  V30 8991 O 867.135 -5.45781 -0.280164 0
M  V30 8992 H 864.229 -0.823327 -0.0778603 0
M  V30 8993 H 866.775 -1.58839 0.597353 0
M  V30 8994 H 865.547 -3.76628 1.06148 0
M  V30 8995 H 865.17 -3.92311 -0.64635 0
M  V30 8996 N 866.167 -0.267825 -1.55308 0
M  V30 8997 C 867.413 0.34458 -2.0046 0
M  V30 8998 C 867.768 1.54028 -1.15296 0
M  V30 8999 O 867.061 1.90409 -0.213316 0
M  V30 9000 C 867.255 0.784247 -3.48689 0
M  V30 9001 C 867.084 -0.367304 -4.48197 0
M  V30 9002 C 865.854 -0.848746 -4.98121 0
M  V30 9003 C 868.052 -1.20136 -5.00072 0
M  V30 9004 N 866.034 -1.97052 -5.81415 0
M  V30 9005 C 867.405 -2.17115 -5.80742 0
M  V30 9006 C 869.46 -1.23553 -4.82327 0
M  V30 9007 C 868.163 -3.17248 -6.45559 0
M  V30 9008 C 870.189 -2.22527 -5.47938 0
M  V30 9009 C 869.551 -3.1824 -6.28413 0
M  V30 9010 H 865.65 0.091465 -0.776633 0
M  V30 9011 H 868.234 -0.390184 -1.9075 0
M  V30 9012 H 866.405 1.48825 -3.58756 0
M  V30 9013 H 868.137 1.37337 -3.80684 0
M  V30 9014 H 864.892 -0.429291 -4.7165 0
M  V30 9015 H 865.316 -2.53481 -6.27755 0
M  V30 9016 H 869.958 -0.50937 -4.1972 0
M  V30 9017 H 867.676 -3.90801 -7.07319 0
M  V30 9018 H 871.262 -2.25904 -5.36152 0
M  V30 9019 H 870.142 -3.93573 -6.78285 0
M  V30 9020 N 867.645 1.57599 0.00500368 0
M  V30 9021 C 868.87 1.95026 0.705663 0
M  V30 9022 C 869.295 0.869643 1.6679 0
M  V30 9023 O 868.653 -0.172659 1.80476 0
M  V30 9024 C 868.701 3.31545 1.4181 0
M  V30 9025 O 867.805 3.25495 2.53232 0
M  V30 9026 H 867.146 0.636808 0.188074 0
M  V30 9027 H 869.676 2.04547 -0.046696 0
M  V30 9028 H 869.686 3.66996 1.78265 0
M  V30 9029 H 868.361 4.09751 0.712543 0
M  V30 9030 H 866.938 3.01714 2.19142 0
M  V30 9031 N 869.123 -0.277682 1.55134 0
M  V30 9032 C 870.37 -1.0099 1.7552 0
M  V30 9033 C 870.698 -1.86452 0.553712 0
M  V30 9034 O 869.953 -1.90122 -0.463896 0
M  V30 9035 C 870.252 -1.92599 3.01065 0
M  V30 9036 C 869.918 -1.22926 4.3382 0
M  V30 9037 C 868.58 -1.03659 4.69902 0
M  V30 9038 C 870.932 -0.733071 5.16019 0
M  V30 9039 C 868.26 -0.334933 5.85743 0
M  V30 9040 C 870.612 -0.0450319 6.32584 0
M  V30 9041 C 869.276 0.159393 6.6731 0
M  V30 9042 H 868.546 -0.36955 0.642273 0
M  V30 9043 H 871.193 -0.282611 1.89403 0
M  V30 9044 H 869.498 -2.71934 2.82062 0
M  V30 9045 H 871.195 -2.49367 3.14034 0
M  V30 9046 H 867.785 -1.38933 4.05457 0
M  V30 9047 H 871.969 -0.869565 4.88623 0
M  V30 9048 H 867.225 -0.165783 6.11175 0
M  V30 9049 H 871.399 0.34723 6.95534 0
M  V30 9050 H 869.026 0.70507 7.56923 0
M  V30 9051 N 870.601 -1.47988 -0.541979 0
M  V30 9052 C 871.831 -1.58804 -1.32155 0
M  V30 9053 C 872.239 -0.242893 -1.87634 0
M  V30 9054 O 871.582 0.776239 -1.66494 0
M  V30 9055 C 871.644 -2.56567 -2.51821 0
M  V30 9056 C 871.308 -4.01915 -2.17517 0
M  V30 9057 C 872.305 -4.89954 -1.73901 0
M  V30 9058 C 869.99 -4.47365 -2.28408 0
M  V30 9059 C 871.984 -6.21467 -1.41625 0
M  V30 9060 C 869.671 -5.78902 -1.95745 0
M  V30 9061 C 870.669 -6.65775 -1.52423 0
M  V30 9062 O 870.357 -7.94866 -1.20183 0
M  V30 9063 H 870.089 -0.538536 -0.408601 0
M  V30 9064 H 872.643 -1.94446 -0.661818 0
M  V30 9065 H 870.873 -2.16023 -3.20735 0
M  V30 9066 H 872.562 -2.57347 -3.13891 0
M  V30 9067 H 873.328 -4.56082 -1.64966 0
M  V30 9068 H 869.207 -3.79942 -2.61084 0
M  V30 9069 H 872.751 -6.8923 -1.07738 0
M  V30 9070 H 868.648 -6.12311 -2.04316 0
M  V30 9071 H 869.416 -8.07509 -1.33683 0
M  V30 9072 N 872.079 0.78992 -1.36375 0
M  V30 9073 C 873.325 1.55007 -1.3077 0
M  V30 9074 C 873.658 1.93871 0.112979 0
M  V30 9075 O 872.933 1.6267 1.06625 0
M  V30 9076 C 873.216 2.82748 -2.22993 0
M  V30 9077 C 873.069 2.50253 -3.73756 0
M  V30 9078 C 874.388 3.84569 -2.13998 0
M  V30 9079 H 871.507 0.562362 -0.476359 0
M  V30 9080 H 874.149 0.907582 -1.66922 0
M  V30 9081 H 872.299 3.37573 -1.92292 0
M  V30 9082 H 873.971 2.01482 -4.14973 0
M  V30 9083 H 872.214 1.83203 -3.93216 0
M  V30 9084 H 872.885 3.41487 -4.33694 0
M  V30 9085 H 875.361 3.39188 -2.4102 0
M  V30 9086 H 874.237 4.717 -2.80697 0
M  V30 9087 H 874.498 4.27491 -1.12711 0
M  V30 9088 N 873.557 1.20646 1.01402 0
M  V30 9089 C 874.782 1.04462 1.79172 0
M  V30 9090 C 875.207 -0.401588 1.83763 0
M  V30 9091 O 874.565 -1.28934 1.27459 0
M  V30 9092 C 874.613 1.63583 3.21361 0
M  V30 9093 O 873.717 0.875198 4.03006 0
M  V30 9094 H 873.058 0.368235 0.552539 0
M  V30 9095 H 875.588 1.59994 1.27526 0
M  V30 9096 H 875.598 1.67426 3.72065 0
M  V30 9097 H 874.273 2.68835 3.17334 0
M  V30 9098 H 872.85 0.911172 3.61597 0
M  V30 9099 N 875.035 -1.20752 1.01276 0
M  V30 9100 C 876.283 -1.89645 0.698505 0
M  V30 9101 C 876.604 -1.78986 -0.773883 0
M  V30 9102 O 875.874 -1.18977 -1.55632 0
M  V30 9103 H 874.454 -0.701992 0.255375 0
M  V30 9104 H 877.116 -1.46668 1.28353 0
M  V30 9105 H 876.212 -2.96364 0.978512 0
M  V30 9106 N 876.513 -0.788492 -1.36457 0
M  V30 9107 C 877.463 -0.159377 -2.27442 0
M  V30 9108 C 878.447 0.656146 -1.46913 0
M  V30 9109 O 879.639 0.516372 -1.693 0
M  V30 9110 C 876.768 0.705703 -3.35968 0
M  V30 9111 C 875.854 -0.11856 -4.23934 0
M  V30 9112 N 876.245 -1.1726 -4.9202 0
M  V30 9113 C 874.543 0.102752 -4.45882 0
M  V30 9114 C 875.244 -1.6743 -5.57083 0
M  V30 9115 N 874.22 -0.983682 -5.34626 0
M  V30 9116 H 878.022 -0.96614 -2.77566 0
M  V30 9117 H 875.536 -0.627864 -1.49772 0
M  V30 9118 H 877.533 1.17231 -4.00078 0
M  V30 9119 H 876.193 1.51102 -2.87399 0
M  V30 9120 H 877.204 -1.55502 -4.94004 0
M  V30 9121 H 873.881 0.878651 -4.08149 0
M  V30 9122 H 875.271 -2.55423 -6.21457 0
M  V30 9123 N 877.991 1.48044 -0.54043 0
M  V30 9124 C 879.221 2.06595 -0.0144943 0
M  V30 9125 C 879.629 1.39593 1.27713 0
M  V30 9126 O 878.972 0.480794 1.77297 0
M  V30 9127 C 879.034 3.5849 0.269316 0
M  V30 9128 C 878.698 4.47429 -0.930372 0
M  V30 9129 C 879.695 4.8657 -1.83155 0
M  V30 9130 C 877.38 4.89185 -1.14032 0
M  V30 9131 C 879.374 5.66246 -2.92649 0
M  V30 9132 C 877.061 5.6863 -2.23838 0
M  V30 9133 C 878.059 6.07069 -3.12979 0
M  V30 9134 O 877.747 6.84917 -4.20884 0
M  V30 9135 H 877.479 0.675086 -0.0351467 0
M  V30 9136 H 880.033 1.91275 -0.74853 0
M  V30 9137 H 878.263 3.71961 1.05745 0
M  V30 9138 H 879.952 3.99124 0.738595 0
M  V30 9139 H 880.718 4.54924 -1.68134 0
M  V30 9140 H 876.597 4.58742 -0.455717 0
M  V30 9141 H 880.141 5.96169 -3.62254 0
M  V30 9142 H 876.038 5.99688 -2.38839 0
M  V30 9143 H 876.806 7.03287 -4.18723 0
M  V30 9144 N 879.47 0.276058 1.55163 0
M  V30 9145 C 880.698 -0.343772 2.04024 0
M  V30 9146 C 881.113 -1.49397 1.15438 0
M  V30 9147 O 880.47 -1.81662 0.174692 0
M  V30 9148 C 880.521 -0.823885 3.51986 0
M  V30 9149 O 880.242 0.280507 4.37201 0
M  V30 9150 C 881.743 -1.51143 4.16738 0
M  V30 9151 H 878.963 -0.07828 0.666418 0
M  V30 9152 H 881.507 0.408427 2.0038 0
M  V30 9153 H 879.662 -1.52617 3.56071 0
M  V30 9154 H 880.076 -0.0887831 5.24425 0
M  V30 9155 H 881.55 -1.79878 5.2187 0
M  V30 9156 H 882.027 -2.44327 3.64967 0
M  V30 9157 H 882.633 -0.852975 4.16659 0
M  V30 9158 N 880.948 -1.576 0.00335426 0
M  V30 9159 C 882.196 -1.90336 -0.679446 0
M  V30 9160 C 882.517 -0.877777 -1.74127 0
M  V30 9161 O 881.787 0.0843585 -1.95718 0
M  V30 9162 H 880.367 -0.702509 -0.253948 0
M  V30 9163 H 883.029 -1.94848 0.0450731 0
M  V30 9164 H 882.125 -2.90197 -1.14857 0
M  V30 9165 N 882.426 0.269451 -1.5528 0
M  V30 9166 C 883.358 1.35553 -1.84819 0
M  V30 9167 C 884.371 1.45369 -0.732914 0
M  V30 9168 O 885.56 1.47122 -1.0108 0
M  V30 9169 C 882.66 2.73645 -1.9993 0
M  V30 9170 C 881.833 2.86376 -3.30617 0
M  V30 9171 C 880.892 4.05165 -3.35749 0
M  V30 9172 O 879.918 3.95756 -4.09104 0
M  V30 9173 N 881.12 5.17297 -2.63408 0
M  V30 9174 H 883.885 1.10557 -2.78563 0
M  V30 9175 H 881.446 0.459566 -1.5524 0
M  V30 9176 H 883.438 3.51411 -2.00729 0
M  V30 9177 H 882.008 2.91448 -1.13035 0
M  V30 9178 H 881.228 1.95465 -3.42326 0
M  V30 9179 H 882.516 2.91815 -4.16799 0
M  V30 9180 H 881.914 5.2783 -2.03501 0
M  V30 9181 H 880.471 5.93281 -2.69927 0
M  V30 9182 N 883.904 1.48273 0.534124 0
M  V30 9183 C 884.851 1.62487 1.6391 0
M  V30 9184 C 885.821 0.467062 1.59398 0
M  V30 9185 O 887.006 0.690029 1.77885 0
M  V30 9186 C 884.146 1.66671 3.02183 0
M  V30 9187 C 883.259 2.9353 3.16961 0
M  V30 9188 C 882.394 2.88902 4.45768 0
M  V30 9189 C 881.433 4.10483 4.54059 0
M  V30 9190 N 880.57 4.03956 5.74251 0
M  V30 9191 H 885.41 2.56851 1.51101 0
M  V30 9192 H 882.947 1.27381 0.735704 0
M  V30 9193 H 884.905 1.67079 3.82283 0
M  V30 9194 H 883.535 0.758011 3.13774 0
M  V30 9195 H 882.587 3.02886 2.3014 0
M  V30 9196 H 883.899 3.83501 3.18949 0
M  V30 9197 H 883.053 2.87688 5.34154 0
M  V30 9198 H 881.792 1.96652 4.46295 0
M  V30 9199 H 880.797 4.11977 3.64081 0
M  V30 9200 H 882.022 5.03887 4.55274 0
M  V30 9201 H 879.968 3.14525 5.75682 0
M  V30 9202 H 879.885 4.87628 5.77715 0
M  V30 9203 H 881.153 4.06795 6.64935 0
M  V30 9204 N 885.382 -0.782676 1.36792 0
M  V30 9205 C 886.798 -1.08169 1.17352 0
M  V30 9206 C 886.998 -2.015 0.0022037 0
M  V30 9207 O 886.054 -2.43692 -0.661093 0
M  V30 9208 C 887.367 -1.68969 2.48737 0
M  V30 9209 C 888.915 -1.81278 2.55161 0
M  V30 9210 C 889.39 -2.45492 3.86649 0
M  V30 9211 N 890.881 -2.52954 3.88032 0
M  V30 9212 C 891.616 -3.03465 4.86515 0
M  V30 9213 N 891.112 -3.54232 5.95392 0
M  V30 9214 N 892.905 -3.02239 4.73928 0
M  V30 9215 H 885.056 -0.162757 2.11775 0
M  V30 9216 H 887.319 -0.134823 0.938364 0
M  V30 9217 H 887.025 -1.07859 3.34753 0
M  V30 9218 H 886.899 -2.68397 2.65034 0
M  V30 9219 H 889.286 -2.41524 1.69559 0
M  V30 9220 H 889.367 -0.806367 2.42758 0
M  V30 9221 H 889.011 -1.85889 4.7266 0
M  V30 9222 H 888.941 -3.46718 3.96351 0
M  V30 9223 H 891.432 -2.17014 3.09376 0
M  V30 9224 H 891.745 -3.91145 6.66503 0
M  V30 9225 H 890.09 -3.52366 5.99052 0
M  V30 9226 H 893.281 -2.61871 3.87996 0
M  V30 9227 H 893.454 -3.41295 5.50837 0
M  V30 9228 N 886.86 -1.21182 -1.00761 0
M  V30 9229 C 887.823 -0.970339 -2.07646 0
M  V30 9230 C 888.823 0.0576345 -1.60697 0
M  V30 9231 O 890.013 -0.179369 -1.73274 0
M  V30 9232 C 887.145 -0.462703 -3.37745 0
M  V30 9233 H 888.338 -1.91856 -2.30502 0
M  V30 9234 H 885.891 -1.02844 -1.17698 0
M  V30 9235 H 886.626 0.490559 -3.20568 0
M  V30 9236 H 886.411 -1.20416 -3.73152 0
M  V30 9237 H 887.901 -0.313531 -4.16421 0
M  V30 9238 N 888.338 1.20213 -1.01915 0
M  V30 9239 C 889.615 1.85348 -0.62495 0
M  V30 9240 C 889.995 1.91101 0.896854 0
M  V30 9241 O 889.343 1.42075 1.78961 0
M  V30 9242 C 889.553 3.24849 -1.27571 0
M  V30 9243 C 890.901 4.01107 -1.39277 0
M  V30 9244 O 891.925 3.34211 -1.23212 0
M  V30 9245 O 890.784 5.20914 -1.6526 0
M  V30 9246 H 887.878 0.798303 -0.215965 0
M  V30 9247 H 890.424 1.27782 -1.11669 0
M  V30 9248 H 889.196 3.1544 -2.31545 0
M  V30 9249 H 888.819 3.90049 -0.77122 0
M  V30 9250 N 889.816 0.795718 1.36037 0
M  V30 9251 C 891.041 0.38204 2.03851 0
M  V30 9252 C 891.466 -0.995553 1.59594 0
M  V30 9253 O 890.824 -1.64258 0.767401 0
M  V30 9254 C 890.872 0.461248 3.57638 0
M  V30 9255 O 889.976 -0.529448 4.08987 0
M  V30 9256 H 889.317 0.161227 0.644129 0
M  V30 9257 H 891.847 1.07858 1.73861 0
M  V30 9258 H 891.857 0.32712 4.06687 0
M  V30 9259 H 890.532 1.46613 3.89201 0
M  V30 9260 H 889.109 -0.35646 3.71192 0
M  V30 9261 N 891.294 -1.47756 0.548274 0
M  V30 9262 C 892.257 -2.28379 -0.193857 0
M  V30 9263 C 893.257 -1.36436 -0.850986 0
M  V30 9264 O 894.447 -1.59154 -0.70822 0
M  V30 9265 C 891.579 -3.15858 -1.28243 0
M  V30 9266 H 892.772 -2.95458 0.514231 0
M  V30 9267 H 890.325 -1.53298 0.304879 0
M  V30 9268 H 891.06 -2.5345 -2.0232 0
M  V30 9269 H 890.845 -3.83512 -0.816148 0
M  V30 9270 H 892.335 -3.76627 -1.80393 0
M  V30 9271 N 892.772 -0.284283 -1.55015 0
M  V30 9272 C 894 0.332948 -2.04203 0
M  V30 9273 C 894.415 1.48783 -1.16229 0
M  V30 9274 O 893.772 1.81567 -0.184323 0
M  V30 9275 C 893.823 0.805207 -3.52418 0
M  V30 9276 O 893.544 -0.303689 -4.37046 0
M  V30 9277 C 895.045 1.48931 -4.17534 0
M  V30 9278 H 892.265 0.0747447 -0.666824 0
M  V30 9279 H 894.809 -0.419048 -2.00161 0
M  V30 9280 H 892.964 1.50727 -3.56876 0
M  V30 9281 H 893.378 0.0609703 -5.24465 0
M  V30 9282 H 894.852 1.77108 -5.22816 0
M  V30 9283 H 895.329 2.42389 -3.66257 0
M  V30 9284 H 895.935 0.830867 -4.17105 0
M  V30 9285 N 894.251 1.57596 -0.0117121 0
M  V30 9286 C 895.214 2.08089 0.960816 0
M  V30 9287 C 896.214 0.992519 1.26514 0
M  V30 9288 O 897.404 1.25475 1.20837 0
M  V30 9289 C 894.536 2.53217 2.28241 0
M  V30 9290 H 895.729 2.9529 0.523829 0
M  V30 9291 H 893.282 1.54508 0.235995 0
M  V30 9292 H 894.017 1.69294 2.76604 0
M  V30 9293 H 893.802 3.32714 2.0747 0
M  V30 9294 H 895.292 2.92568 2.97983 0
M  V30 9295 N 895.729 -0.261212 1.5542 0
M  V30 9296 C 896.676 -1.32315 1.89107 0
M  V30 9297 C 897.646 -1.48517 0.743767 0
M  V30 9298 O 898.831 -1.62733 0.996123 0
M  V30 9299 C 895.971 -2.67626 2.17877 0
M  V30 9300 C 895.084 -2.59549 3.45338 0
M  V30 9301 C 894.219 -3.87118 3.63748 0
M  V30 9302 C 893.258 -3.736 4.8486 0
M  V30 9303 N 892.395 -4.93029 4.99867 0
M  V30 9304 H 897.235 -1.02886 2.79675 0
M  V30 9305 H 894.772 -0.496812 1.38456 0
M  V30 9306 H 896.73 -3.4637 2.32559 0
M  V30 9307 H 895.36 -2.95232 1.30529 0
M  V30 9308 H 894.412 -1.72452 3.39064 0
M  V30 9309 H 895.724 -2.45465 4.34222 0
M  V30 9310 H 894.878 -4.74305 3.78312 0
M  V30 9311 H 893.617 -4.04084 2.73071 0
M  V30 9312 H 892.622 -2.84797 4.70288 0
M  V30 9313 H 893.847 -3.58143 5.76984 0
M  V30 9314 H 891.793 -5.10383 4.12123 0
M  V30 9315 H 891.71 -4.81521 5.82815 0
M  V30 9316 H 892.978 -5.81754 5.18828 0
M  V30 9317 N 897.207 -1.48554 -0.526253 0
M  V30 9318 C 898.435 -1.60429 -1.30652 0
M  V30 9319 C 898.85 -0.265963 -1.86917 0
M  V30 9320 O 898.207 0.745262 -1.6659 0
M  V30 9321 C 898.258 -2.65377 -2.45473 0
M  V30 9322 O 897.979 -3.94017 -1.91527 0
M  V30 9323 C 899.48 -2.87726 -3.37237 0
M  V30 9324 H 896.7 -0.540817 -0.397187 0
M  V30 9325 H 899.244 -1.94409 -0.634461 0
M  V30 9326 H 897.399 -2.34246 -3.08557 0
M  V30 9327 H 897.813 -4.51623 -2.66715 0
M  V30 9328 H 899.287 -3.64951 -4.14144 0
M  V30 9329 H 899.764 -1.96688 -3.92696 0
M  V30 9330 H 900.37 -3.20176 -2.79942 0
M  V30 9331 N 898.685 0.775411 -1.37205 0
M  V30 9332 C 900.096 1.35147 -1.28811 0
M  V30 9333 C 900.447 1.96089 0.0659168 0
M  V30 9334 O 899.572 1.93558 0.967684 0
M  V30 9335 C 900.167 2.45715 -2.33258 0
M  V30 9336 C 898.726 2.99099 -2.2851 0
M  V30 9337 C 897.873 1.72286 -2.17285 0
M  V30 9338 H 900.824 0.575954 -1.4788 0
M  V30 9339 H 900.845 3.251 -1.97712 0
M  V30 9340 H 900.357 2.01331 -3.31795 0
M  V30 9341 H 898.458 3.47868 -1.33485 0
M  V30 9342 H 898.571 3.54962 -3.21774 0
M  V30 9343 H 896.935 1.95068 -1.6377 0
M  V30 9344 H 897.718 1.3001 -3.1773 0
M  V30 9345 N 900.163 1.21714 1.00117 0
M  V30 9346 C 901.411 1.03465 1.73607 0
M  V30 9347 C 901.732 -0.432295 1.90148 0
M  V30 9348 O 901.002 -1.31157 1.45515 0
M  V30 9349 H 899.582 0.379857 0.643209 0
M  V30 9350 H 902.244 1.53088 1.20624 0
M  V30 9351 H 901.34 1.50574 2.73375 0
M  V30 9352 N 901.641 -1.19671 1.02551 0
M  V30 9353 C 902.889 -1.88894 0.71858 0
M  V30 9354 C 903.21 -1.79797 -0.754856 0
M  V30 9355 O 902.48 -1.20621 -1.54362 0
M  V30 9356 H 901.06 -0.699244 0.262806 0
M  V30 9357 H 903.722 -1.45298 1.29902 0
M  V30 9358 H 902.818 -2.95309 1.00989 0
M  V30 9359 N 903.119 -0.802921 -1.35613 0
M  V30 9360 C 904.349 -0.393359 -2.02821 0
M  V30 9361 C 904.757 0.999282 -1.60658 0
M  V30 9362 O 904.1 1.65463 -0.797977 0
M  V30 9363 C 904.162 -0.393102 -3.57344 0
M  V30 9364 C 903.826 -1.73563 -4.22759 0
M  V30 9365 C 904.823 -2.69333 -4.44698 0
M  V30 9366 C 902.508 -2.01863 -4.59953 0
M  V30 9367 C 904.502 -3.91589 -5.02928 0
M  V30 9368 C 902.189 -3.24383 -5.17898 0
M  V30 9369 C 903.187 -4.19064 -5.39328 0
M  V30 9370 O 902.875 -5.39422 -5.96053 0
M  V30 9371 H 902.607 -0.158431 -0.657172 0
M  V30 9372 H 905.161 -1.08682 -1.74291 0
M  V30 9373 H 903.391 0.356934 -3.85049 0
M  V30 9374 H 905.08 -0.00635596 -4.059 0
M  V30 9375 H 905.846 -2.48759 -4.16346 0
M  V30 9376 H 901.725 -1.28979 -4.42589 0
M  V30 9377 H 905.269 -4.65502 -5.1957 0
M  V30 9378 H 901.166 -3.44829 -5.45677 0
M  V30 9379 H 901.934 -5.40669 -6.14507 0
M  V30 9380 N 904.597 1.47463 -0.556102 0
M  V30 9381 C 905.825 2.06868 -0.0364585 0
M  V30 9382 C 906.24 1.40893 1.25677 0
M  V30 9383 O 905.597 0.505083 1.75371 0
M  V30 9384 C 905.648 3.61128 0.163984 0
M  V30 9385 O 905.369 4.24629 -1.07803 0
M  V30 9386 C 906.87 4.37397 0.721036 0
M  V30 9387 H 904.09 0.669466 -0.0453399 0
M  V30 9388 H 906.634 1.89482 -0.769198 0
M  V30 9389 H 904.789 3.78031 0.84685 0
M  V30 9390 H 905.203 5.17149 -0.875067 0
M  V30 9391 H 906.677 5.46016 0.810584 0
M  V30 9392 H 907.154 4.03604 1.73206 0
M  V30 9393 H 907.76 4.25236 0.073904 0
M  V30 9394 N 906.075 0.2925 1.54862 0
M  V30 9395 C 907.324 -0.319994 1.99146 0
M  V30 9396 C 907.637 -1.55658 1.18448 0
M  V30 9397 O 908.843 -2.24312 1.52959 0
M  V30 9398 C 907.299 -0.620665 3.54508 0
M  V30 9399 C 906.907 0.597098 4.44003 0
M  V30 9400 C 908.651 -1.19482 4.07338 0
M  V30 9401 C 906.558 0.270049 5.90783 0
M  V30 9402 H 905.488 -0.123342 0.743843 0
M  V30 9403 H 908.139 0.399876 1.7909 0
M  V30 9404 H 906.521 -1.3999 3.7043 0
M  V30 9405 H 907.695 1.37354 4.39853 0
M  V30 9406 H 906.01 1.0893 4.019 0
M  V30 9407 H 908.607 -1.45362 5.14562 0
M  V30 9408 H 908.95 -2.13435 3.57423 0
M  V30 9409 H 909.483 -0.477485 3.94924 0
M  V30 9410 H 906.222 1.17791 6.4483 0
M  V30 9411 H 905.742 -0.469292 5.97961 0
M  V30 9412 H 907.421 -0.131471 6.46866 0
M  V30 9413 N 907.553 -1.57587 0.0200696 0
M  V30 9414 C 908.799 -1.92539 -0.655764 0
M  V30 9415 C 909.154 -0.896187 -1.70253 0
M  V30 9416 O 908.447 0.0890022 -1.91393 0
M  V30 9417 C 908.641 -3.32002 -1.32323 0
M  V30 9418 C 908.47 -4.48393 -0.342632 0
M  V30 9419 C 907.24 -5.05271 0.0542423 0
M  V30 9420 C 909.438 -5.12747 0.399388 0
M  V30 9421 N 907.42 -6.05181 1.03095 0
M  V30 9422 C 908.791 -6.07674 1.23014 0
M  V30 9423 C 910.846 -4.95761 0.461065 0
M  V30 9424 C 909.549 -6.87442 2.11698 0
M  V30 9425 C 911.575 -5.7613 1.33521 0
M  V30 9426 C 910.937 -6.70666 2.15376 0
M  V30 9427 H 907.036 -0.75256 -0.212549 0
M  V30 9428 H 909.62 -1.94514 0.0851247 0
M  V30 9429 H 907.791 -3.30863 -2.0343 0
M  V30 9430 H 909.523 -3.54327 -1.95537 0
M  V30 9431 H 906.278 -4.72529 -0.318327 0
M  V30 9432 H 906.702 -6.59824 1.51528 0
M  V30 9433 H 911.344 -4.22506 -0.15752 0
M  V30 9434 H 909.062 -7.60008 2.74616 0
M  V30 9435 H 912.648 -5.65023 1.38711 0
M  V30 9436 H 911.528 -7.31772 2.81922 0
M  V30 9437 N 909.032 0.252966 -1.55557 0
M  V30 9438 C 909.98 1.33289 -1.90622 0
M  V30 9439 C 910.974 1.50133 -0.784638 0
M  V30 9440 O 912.18 1.51679 -0.969196 0
M  V30 9441 H 908.555 0.446196 -0.605321 0
M  V30 9442 H 910.526 1.00977 -2.80796 0
M  V30 9443 C 909.275 2.68254 -2.21213 0
M  V30 9444 H 908.598 2.5609 -3.07014 0
M  V30 9445 H 910.038 3.42707 -2.49656 0
M  V30 9446 C 908.497 3.20884 -1.02642 0
M  V30 9447 O 909.027 4.00783 -0.271292 0
M  V30 9448 N 907.233 2.7883 -0.818682 0
M  V30 9449 H 906.78 2.13966 -1.43444 0
M  V30 9450 H 906.738 3.14388 -0.0269989 0
M  V30 9451 N 910.51 1.48831 0.518367 0
M  V30 9452 C 911.738 1.6112 1.298 0
M  V30 9453 C 912.153 0.275872 1.86774 0
M  V30 9454 O 911.51 -0.736416 1.66983 0
M  V30 9455 C 911.561 2.66675 2.44063 0
M  V30 9456 O 911.282 3.95027 1.89434 0
M  V30 9457 C 912.783 2.8951 3.35706 0
M  V30 9458 H 910.003 0.542916 0.394314 0
M  V30 9459 H 912.547 1.94743 0.624142 0
M  V30 9460 H 910.702 2.35879 3.07311 0
M  V30 9461 H 911.116 4.53031 2.64316 0
M  V30 9462 H 912.59 3.67142 4.12202 0
M  V30 9463 H 913.067 1.98768 3.91648 0
M  V30 9464 H 913.673 3.21656 2.7824 0
M  V30 9465 N 911.988 -0.768124 1.37614 0
M  V30 9466 C 913.236 -1.52379 1.3276 0
M  V30 9467 C 913.557 -1.94809 -0.0863564 0
M  V30 9468 O 912.827 -1.66568 -1.03112 0
M  V30 9469 H 911.407 -0.565179 0.488448 0
M  V30 9470 H 914.069 -0.913974 1.72141 0
M  V30 9471 H 913.165 -2.4215 1.96901 0
M  V30 9472 N 913.466 -1.22244 -0.994698 0
M  V30 9473 C 914.429 -0.992308 -2.06606 0
M  V30 9474 C 915.429 0.0405872 -1.60749 0
M  V30 9475 O 916.619 -0.197737 -1.73074 0
M  V30 9476 C 913.751 -0.498499 -3.37236 0
M  V30 9477 H 914.944 -1.9429 -2.28455 0
M  V30 9478 H 912.497 -1.04087 -1.166 0
M  V30 9479 H 913.232 0.456531 -3.21071 0
M  V30 9480 H 913.017 -1.24367 -3.71854 0
M  V30 9481 H 914.507 -0.35768 -4.16065 0
M  V30 9482 N 914.944 1.19125 -1.03184 0
M  V30 9483 C 915.907 2.20662 -0.619766 0
M  V30 9484 C 916.907 1.57621 0.318179 0
M  V30 9485 O 918.097 1.73885 0.104783 0
M  V30 9486 C 915.229 3.40774 0.0926696 0
M  V30 9487 H 916.422 2.58633 -1.5182 0
M  V30 9488 H 913.975 1.32855 -0.823364 0
M  V30 9489 H 914.71 3.08324 1.00531 0
M  V30 9490 H 914.495 3.87766 -0.581344 0
M  V30 9491 H 915.985 4.15977 0.367792 0
M  V30 9492 N 916.422 0.810101 1.35185 0
M  V30 9493 C 917.668 0.401839 1.99391 0
M  V30 9494 C 918.023 -1.02059 1.63101 0
M  V30 9495 O 917.316 -1.69889 0.8859 0
M  V30 9496 C 917.51 0.526561 3.535 0
M  V30 9497 C 917.339 1.95956 4.04761 0
M  V30 9498 C 916.109 2.58869 4.33953 0
M  V30 9499 C 918.307 2.92459 4.23051 0
M  V30 9500 N 916.289 3.93542 4.71166 0
M  V30 9501 C 917.66 4.12011 4.633 0
M  V30 9502 C 919.715 2.89244 4.05268 0
M  V30 9503 C 918.418 5.28784 4.87627 0
M  V30 9504 C 920.444 4.05223 4.30753 0
M  V30 9505 C 919.806 5.23524 4.71277 0
M  V30 9506 H 915.905 0.194886 0.757327 0
M  V30 9507 H 918.489 1.05209 1.63827 0
M  V30 9508 H 916.66 -0.0937151 3.88287 0
M  V30 9509 H 918.392 0.0925434 4.04594 0
M  V30 9510 H 915.147 2.10198 4.24398 0
M  V30 9511 H 915.571 4.62889 4.94027 0
M  V30 9512 H 920.213 1.98932 3.73076 0
M  V30 9513 H 917.931 6.19666 5.18691 0
M  V30 9514 H 921.517 4.04121 4.18542 0
M  V30 9515 H 920.397 6.11776 4.90612 0
M  V30 9516 N 917.9 -1.47166 0.563914 0
M  V30 9517 C 918.832 -2.28165 -0.217583 0
M  V30 9518 C 919.845 -1.37405 -0.873134 0
M  V30 9519 O 921.034 -1.6217 -0.745857 0
M  V30 9520 C 918.134 -3.11873 -1.32621 0
M  V30 9521 C 917.307 -4.30637 -0.766177 0
M  V30 9522 C 916.366 -4.95889 -1.76014 0
M  V30 9523 O 915.392 -5.54071 -1.3036 0
M  V30 9524 N 916.594 -4.91191 -3.09373 0
M  V30 9525 H 919.359 -2.95876 0.477256 0
M  V30 9526 H 916.92 -1.5687 0.40043 0
M  V30 9527 H 918.912 -3.52392 -1.99003 0
M  V30 9528 H 917.482 -2.46361 -1.92419 0
M  V30 9529 H 916.702 -3.94129 0.0745998 0
M  V30 9530 H 917.99 -5.07442 -0.371472 0
M  V30 9531 H 917.388 -4.45133 -3.49104 0
M  V30 9532 H 915.945 -5.35708 -3.71295 0
M  V30 9533 N 919.378 -0.300708 -1.54705 0
M  V30 9534 C 920.624 0.309111 -2.0043 0
M  V30 9535 C 920.957 1.53562 -1.1888 0
M  V30 9536 O 920.232 1.92683 -0.265205 0
M  V30 9537 C 920.515 0.665995 -3.53888 0
M  V30 9538 C 920.368 -0.56963 -4.46178 0
M  V30 9539 C 921.687 1.49262 -4.14016 0
M  V30 9540 H 918.806 0.110878 -0.728612 0
M  V30 9541 H 921.448 -0.412748 -1.85463 0
M  V30 9542 H 919.598 1.281 -3.66773 0
M  V30 9543 H 921.27 -1.20811 -4.45199 0
M  V30 9544 H 919.513 -1.20292 -4.16788 0
M  V30 9545 H 920.184 -0.275785 -5.51311 0
M  V30 9546 H 922.66 0.972979 -4.04564 0
M  V30 9547 H 921.536 1.71111 -5.21548 0
M  V30 9548 H 921.797 2.48174 -3.65872 0
M  V30 9549 N 920.856 1.57574 -0.0284266 0
M  V30 9550 C 922.084 1.96071 0.660575 0
M  V30 9551 C 922.499 0.904881 1.65703 0
M  V30 9552 O 921.856 -0.113379 1.82147 0
M  V30 9553 C 921.907 3.34634 1.36756 0
M  V30 9554 O 921.628 4.36167 0.411041 0
M  V30 9555 C 923.129 3.87758 2.14845 0
M  V30 9556 H 920.349 0.645794 0.182183 0
M  V30 9557 H 922.893 2.04311 -0.0879858 0
M  V30 9558 H 921.048 3.27616 2.06753 0
M  V30 9559 H 921.462 5.16493 0.913 0
M  V30 9560 H 922.936 4.87058 2.59767 0
M  V30 9561 H 923.413 3.21967 2.9872 0
M  V30 9562 H 924.019 3.98043 1.49807 0
M  V30 9563 N 922.334 -0.244713 1.55689 0
M  V30 9564 C 923.281 -1.30301 1.905 0
M  V30 9565 C 924.251 -1.4772 0.759478 0
M  V30 9566 O 925.436 -1.61667 1.01333 0
M  V30 9567 C 922.576 -2.653 2.20703 0
M  V30 9568 C 921.689 -2.55872 3.48071 0
M  V30 9569 C 920.824 -3.83238 3.67834 0
M  V30 9570 C 919.863 -3.68436 4.88796 0
M  V30 9571 N 919 -4.877 5.05068 0
M  V30 9572 H 923.84 -0.999143 2.80751 0
M  V30 9573 H 921.377 -0.482099 1.38976 0
M  V30 9574 H 923.335 -3.43884 2.36219 0
M  V30 9575 H 921.965 -2.93831 1.33653 0
M  V30 9576 H 921.017 -1.68846 3.40874 0
M  V30 9577 H 922.329 -2.40845 4.36801 0
M  V30 9578 H 921.483 -4.70266 3.83321 0
M  V30 9579 H 920.222 -4.01165 2.77341 0
M  V30 9580 H 919.227 -2.79793 4.73282 0
M  V30 9581 H 920.452 -3.52003 5.8075 0
M  V30 9582 H 918.398 -5.05983 4.17513 0
M  V30 9583 H 918.315 -4.75312 5.8789 0
M  V30 9584 H 919.583 -5.76219 5.24969 0
M  V30 9585 N 923.813 -1.49104 -0.510467 0
M  V30 9586 C 925.09 -1.48609 -1.27179 0
M  V30 9587 C 925.47 -0.208537 -2.10067 0
M  V30 9588 O 924.818 0.809335 -2.13687 0
M  V30 9589 C 925.028 -2.75953 -2.1366 0
M  V30 9590 C 926.376 -3.25067 -2.73161 0
M  V30 9591 O 927.4 -2.77005 -2.23934 0
M  V30 9592 O 926.259 -4.08747 -3.62751 0
M  V30 9593 H 923.353 -0.594374 -0.57502 0
M  V30 9594 H 925.899 -1.61358 -0.525515 0
M  V30 9595 H 924.671 -3.60434 -1.52325 0
M  V30 9596 H 924.294 -2.66019 -2.95499 0
M  V30 9597 N 925.291 0.760815 -1.38019 0
M  V30 9598 C 926.537 1.52198 -1.34028 0
M  V30 9599 C 926.87 1.94067 0.0718309 0
M  V30 9600 O 926.145 1.64895 1.0315 0
M  V30 9601 C 926.428 2.77954 -2.2894 0
M  V30 9602 C 926.281 2.42269 -3.7898 0
M  V30 9603 C 927.6 3.79943 -2.22107 0
M  V30 9604 H 924.719 0.552131 -0.488181 0
M  V30 9605 H 927.361 0.871971 -1.6881 0
M  V30 9606 H 925.511 3.33419 -1.9941 0
M  V30 9607 H 927.183 1.92635 -4.19153 0
M  V30 9608 H 925.426 1.74822 -3.97014 0
M  V30 9609 H 926.097 3.32211 -4.4084 0
M  V30 9610 H 928.573 3.34 -2.4816 0
M  V30 9611 H 927.449 4.6564 -2.90639 0
M  V30 9612 H 927.71 4.25004 -1.21753 0
M  V30 9613 N 926.769 1.22769 0.988202 0
M  V30 9614 C 927.716 1.00195 2.07917 0
M  V30 9615 C 928.686 -0.0779391 1.65917 0
M  V30 9616 O 929.871 0.0726005 1.90662 0
M  V30 9617 C 927.011 0.590853 3.40004 0
M  V30 9618 C 926.124 1.74202 3.9532 0
M  V30 9619 C 925.259 1.27846 5.15586 0
M  V30 9620 C 924.298 2.40087 5.63049 0
M  V30 9621 N 923.435 1.94744 6.74551 0
M  V30 9622 H 928.275 1.93581 2.26562 0
M  V30 9623 H 925.812 0.96448 1.11068 0
M  V30 9624 H 927.77 0.333653 4.15864 0
M  V30 9625 H 926.4 -0.306007 3.21346 0
M  V30 9626 H 925.452 2.11342 3.16289 0
M  V30 9627 H 926.764 2.58612 4.26522 0
M  V30 9628 H 925.918 0.978919 5.9875 0
M  V30 9629 H 924.657 0.404617 4.86019 0
M  V30 9630 H 923.662 2.70824 4.78471 0
M  V30 9631 H 924.887 3.27995 5.9464 0
M  V30 9632 H 922.833 1.09729 6.46758 0
M  V30 9633 H 922.75 2.72718 7.05096 0
M  V30 9634 H 924.018 1.67873 7.61209 0
M  V30 9635 N 928.247 -1.18576 1.03814 0
M  V30 9636 C 929.177 -2.24334 0.647795 0
M  V30 9637 C 930.158 -1.66508 -0.34774 0
M  V30 9638 O 931.343 -1.92852 -0.228401 0
M  V30 9639 C 928.473 -3.47299 0.00734922 0
M  V30 9640 C 927.427 -4.17859 0.926152 0
M  V30 9641 C 926.753 -5.34489 0.150317 0
M  V30 9642 C 928.053 -4.71632 2.24411 0
M  V30 9643 H 929.747 -2.57241 1.53191 0
M  V30 9644 H 927.293 -1.23649 0.738028 0
M  V30 9645 H 929.246 -4.20486 -0.277434 0
M  V30 9646 H 927.97 -3.13619 -0.911626 0
M  V30 9647 H 926.629 -3.46567 1.19528 0
M  V30 9648 H 926.277 -4.97056 -0.770985 0
M  V30 9649 H 925.977 -5.82633 0.762407 0
M  V30 9650 H 927.501 -6.10467 -0.127508 0
M  V30 9651 H 928.915 -5.36526 2.02021 0
M  V30 9652 H 927.312 -5.303 2.80894 0
M  V30 9653 H 928.382 -3.89192 2.89236 0
M  V30 9654 N 929.725 -0.817259 -1.34754 0
M  V30 9655 C 931.141 -0.502309 -1.51489 0
M  V30 9656 C 931.341 0.974568 -1.76364 0
M  V30 9657 O 930.397 1.75924 -1.81127 0
M  V30 9658 C 931.71 -1.35693 -2.68343 0
M  V30 9659 C 933.258 -1.35347 -2.82224 0
M  V30 9660 C 933.733 -2.19244 -4.02114 0
M  V30 9661 N 935.224 -2.16837 -4.09311 0
M  V30 9662 C 935.959 -2.78505 -5.01221 0
M  V30 9663 N 935.455 -3.4914 -5.98392 0
M  V30 9664 N 937.248 -2.68089 -4.94049 0
M  V30 9665 H 929.399 -1.77359 -1.16866 0
M  V30 9666 H 931.662 -0.755476 -0.572678 0
M  V30 9667 H 931.368 -2.40548 -2.56573 0
M  V30 9668 H 931.242 -1.01764 -3.63213 0
M  V30 9669 H 933.629 -0.312727 -2.93438 0
M  V30 9670 H 933.71 -1.7327 -1.88179 0
M  V30 9671 H 933.354 -3.23365 -3.9166 0
M  V30 9672 H 933.284 -1.78675 -4.95361 0
M  V30 9673 H 935.775 -1.65452 -3.39756 0
M  V30 9674 H 936.088 -3.93455 -6.65141 0
M  V30 9675 H 934.433 -3.53246 -5.98533 0
M  V30 9676 H 937.624 -2.12485 -4.17094 0
M  V30 9677 H 937.797 -3.16436 -5.65484 0
M  V30 9678 N 931.203 1.46865 -0.571711 0
M  V30 9679 C 932.166 2.28658 0.157499 0
M  V30 9680 C 933.166 1.37773 0.829172 0
M  V30 9681 O 934.356 1.6026 0.682811 0
M  V30 9682 C 931.488 3.17859 1.23202 0
M  V30 9683 H 932.681 2.94603 -0.561171 0
M  V30 9684 H 930.234 1.52793 -0.329229 0
M  V30 9685 H 930.969 2.56637 1.98262 0
M  V30 9686 H 930.754 3.84762 0.755031 0
M  V30 9687 H 932.244 3.7945 1.74378 0
M  V30 9688 N 932.681 0.308908 1.54543 0
M  V30 9689 C 933.929 -0.297447 1.99899 0
M  V30 9690 C 934.25 -1.53799 1.19878 0
M  V30 9691 O 933.52 -1.93639 0.29678 0
M  V30 9692 H 932.1 -0.112897 0.738419 0
M  V30 9693 H 934.762 0.422067 1.90275 0
M  V30 9694 H 933.858 -0.564016 3.06961 0
M  V30 9695 N 934.159 -1.57557 0.0367827 0
M  V30 9696 C 935.405 -1.92399 -0.641133 0
M  V30 9697 C 935.738 -0.914191 -1.71336 0
M  V30 9698 O 935.013 0.0619616 -1.94401 0
M  V30 9699 C 935.296 -3.37689 -1.25052 0
M  V30 9700 C 935.149 -4.4941 -0.187326 0
M  V30 9701 C 936.468 -3.8309 -2.16634 0
M  V30 9702 H 933.587 -0.699666 -0.231597 0
M  V30 9703 H 936.229 -1.89759 0.0956083 0
M  V30 9704 H 934.379 -3.40069 -1.87843 0
M  V30 9705 H 936.051 -4.59161 0.443736 0
M  V30 9706 H 934.294 -4.31065 0.486313 0
M  V30 9707 H 934.965 -5.48119 -0.653459 0
M  V30 9708 H 937.441 -3.82494 -1.63821 0
M  V30 9709 H 936.317 -4.85429 -2.56222 0
M  V30 9710 H 936.578 -3.19028 -3.06062 0
M  V30 9711 N 935.637 0.236453 -1.55816 0
M  V30 9712 C 936.567 1.29639 -1.94206 0
M  V30 9713 C 937.548 1.49667 -0.808319 0
M  V30 9714 O 938.733 1.621 -1.06945 0
M  V30 9715 C 935.863 2.64914 -2.24584 0
M  V30 9716 C 934.817 2.59565 -3.40308 0
M  V30 9717 C 934.143 3.98732 -3.56254 0
M  V30 9718 C 935.443 2.15642 -4.75706 0
M  V30 9719 H 937.137 0.977552 -2.82992 0
M  V30 9720 H 934.683 0.468804 -1.36155 0
M  V30 9721 H 936.636 3.39209 -2.50031 0
M  V30 9722 H 935.36 2.98455 -1.32636 0
M  V30 9723 H 934.019 1.87728 -3.14887 0
M  V30 9724 H 933.667 4.29556 -2.61707 0
M  V30 9725 H 933.367 3.96039 -4.34082 0
M  V30 9726 H 934.891 4.74711 -3.84033 0
M  V30 9727 H 936.305 2.79673 -5.00456 0
M  V30 9728 H 934.702 2.24039 -5.56711 0
M  V30 9729 H 935.772 1.10831 -4.72064 0
M  V30 9730 N 937.115 1.49373 0.502552 0
M  V30 9731 C 938.063 1.66411 1.62512 0
M  V30 9732 C 939.057 0.530062 1.60893 0
M  V30 9733 O 940.263 0.709648 1.65421 0
M  V30 9734 H 936.638 0.524707 0.538689 0
M  V30 9735 H 938.609 2.60639 1.45293 0
M  V30 9736 C 937.358 1.74648 3.00655 0
M  V30 9737 H 936.681 2.61285 3.02606 0
M  V30 9738 H 938.121 1.90605 3.78742 0
M  V30 9739 C 936.58 0.490963 3.33303 0
M  V30 9740 O 937.11 -0.384039 3.9986 0
M  V30 9741 N 935.316 0.354375 2.88431 0
M  V30 9742 H 934.863 1.06742 2.34444 0
M  V30 9743 H 934.821 -0.484593 3.10643 0
M  V30 9744 N 938.594 -0.753485 1.38421 0
M  V30 9745 C 939.524 -1.8808 1.38377 0
M  V30 9746 C 940.505 -1.68258 0.249664 0
M  V30 9747 O 941.69 -1.88848 0.45276 0
M  V30 9748 C 938.82 -3.25608 1.20818 0
M  V30 9749 C 937.774 -3.60032 2.31433 0
M  V30 9750 C 937.1 -4.96297 1.9898 0
M  V30 9751 C 938.4 -3.64898 3.73694 0
M  V30 9752 H 940.094 -1.88375 2.32713 0
M  V30 9753 H 937.64 -0.90489 1.12017 0
M  V30 9754 H 939.593 -4.04127 1.19412 0
M  V30 9755 H 938.317 -3.25793 0.229433 0
M  V30 9756 H 936.976 -2.83831 2.32025 0
M  V30 9757 H 936.624 -4.93043 0.995889 0
M  V30 9758 H 936.324 -5.20298 2.73063 0
M  V30 9759 H 937.848 -5.77196 1.99193 0
M  V30 9760 H 939.262 -4.33531 3.75132 0
M  V30 9761 H 937.659 -4.00407 4.46983 0
M  V30 9762 H 938.729 -2.65124 4.06002 0
M  V30 9763 N 940.072 -1.23292 -0.981677 0
M  V30 9764 C 941.32 -1.06214 -1.71939 0
M  V30 9765 C 941.641 0.401989 -1.90812 0
M  V30 9766 O 940.911 1.28825 -1.47584 0
M  V30 9767 H 939.491 -0.390042 -0.637084 0
M  V30 9768 H 942.153 -1.54988 -1.18173 0
M  V30 9769 H 941.249 -1.54904 -2.70945 0
M  V30 9770 N 941.55 1.18024 -1.04442 0
M  V30 9771 C 942.827 1.8398 -0.664125 0
M  V30 9772 C 943.207 1.92961 0.856116 0
M  V30 9773 O 942.555 1.45839 1.75907 0
M  V30 9774 C 942.765 3.22069 -1.34433 0
M  V30 9775 C 944.113 3.98063 -1.47754 0
M  V30 9776 O 945.137 3.31523 -1.30274 0
M  V30 9777 O 943.996 5.17291 -1.76272 0
M  V30 9778 H 941.09 0.793543 -0.23285 0
M  V30 9779 H 943.636 1.25385 -1.14354 0
M  V30 9780 H 942.408 3.10458 -2.38184 0
M  V30 9781 H 942.031 3.88325 -0.853782 0
M  V30 9782 N 943.028 0.824394 1.34319 0
M  V30 9783 C 943.975 0.245282 2.29493 0
M  V30 9784 C 944.945 -0.630762 1.53657 0
M  V30 9785 O 946.13 -0.572094 1.82021 0
M  V30 9786 C 943.27 -0.585631 3.40095 0
M  V30 9787 C 942.383 0.312821 4.30866 0
M  V30 9788 C 941.518 -0.527801 5.28571 0
M  V30 9789 C 940.557 0.369946 6.10981 0
M  V30 9790 N 939.694 -0.43169 7.00772 0
M  V30 9791 H 944.534 1.06225 2.78425 0
M  V30 9792 H 942.071 0.53533 1.37013 0
M  V30 9793 H 944.029 -1.08271 4.02906 0
M  V30 9794 H 942.659 -1.3677 2.92393 0
M  V30 9795 H 941.711 0.928129 3.68904 0
M  V30 9796 H 943.023 1.00306 4.8861 0
M  V30 9797 H 942.177 -1.0893 5.96841 0
M  V30 9798 H 940.916 -1.25154 4.71368 0
M  V30 9799 H 939.921 0.943577 5.41643 0
M  V30 9800 H 941.146 1.09182 6.70266 0
M  V30 9801 H 939.092 -1.13908 6.46035 0
M  V30 9802 H 939.009 0.200133 7.55735 0
M  V30 9803 H 940.277 -0.975894 7.73367 0
M  V30 9804 N 944.506 -1.46559 0.579492 0
M  V30 9805 C 945.783 -1.956 -0.00287136 0
M  V30 9806 C 946.163 -1.52215 -1.46266 0
M  V30 9807 O 945.511 -0.771335 -2.15088 0
M  V30 9808 C 945.721 -3.48606 0.165824 0
M  V30 9809 C 947.069 -4.24588 0.0319807 0
M  V30 9810 O 948.093 -3.56075 0.094496 0
M  V30 9811 O 946.952 -5.46396 -0.106386 0
M  V30 9812 H 944.046 -0.825387 -0.0516274 0
M  V30 9813 H 946.592 -1.56858 0.647584 0
M  V30 9814 H 945.364 -3.7306 1.18076 0
M  V30 9815 H 944.987 -3.94169 -0.521212 0
M  V30 9816 N 945.984 -0.3171 -1.54377 0
M  V30 9817 C 946.914 0.544623 -2.2706 0
M  V30 9818 C 947.895 1.12469 -1.27611 0
M  V30 9819 O 949.08 1.15103 -1.56413 0
M  V30 9820 C 946.21 1.70879 -3.02353 0
M  V30 9821 C 945.164 1.25833 -4.09084 0
M  V30 9822 C 944.49 2.50894 -4.72182 0
M  V30 9823 C 945.79 0.377876 -5.20931 0
M  V30 9824 H 947.484 -0.0616372 -2.99337 0
M  V30 9825 H 945.03 -0.0310848 -1.43966 0
M  V30 9826 H 946.983 2.31787 -3.51927 0
M  V30 9827 H 945.707 2.34155 -2.27682 0
M  V30 9828 H 944.366 0.672228 -3.60384 0
M  V30 9829 H 944.014 3.12518 -3.94134 0
M  V30 9830 H 943.714 2.21447 -5.44275 0
M  V30 9831 H 945.238 3.12575 -5.24528 0
M  V30 9832 H 946.652 0.893056 -5.66302 0
M  V30 9833 H 945.049 0.176474 -5.9984 0
M  V30 9834 H 946.119 -0.592943 -4.81261 0
M  V30 9835 N 947.462 1.57535 -0.0451378 0
M  V30 9836 C 948.687 1.97172 0.64326 0
M  V30 9837 C 949.112 0.922266 1.63939 0
M  V30 9838 O 948.47 -0.115155 1.80934 0
M  V30 9839 C 948.518 3.35889 1.3119 0
M  V30 9840 O 947.622 3.33387 2.42748 0
M  V30 9841 H 946.963 0.642469 0.167719 0
M  V30 9842 H 949.493 2.04295 -0.111747 0
M  V30 9843 H 949.503 3.72481 1.66499 0
M  V30 9844 H 948.178 4.1181 0.581823 0
M  V30 9845 H 946.755 3.08533 2.09432 0
M  V30 9846 N 948.94 -0.228186 1.55939 0
M  V30 9847 C 950.356 -0.577583 1.48782 0
M  V30 9848 C 950.556 -1.87461 0.738972 0
M  V30 9849 O 949.612 -2.50988 0.275929 0
M  V30 9850 C 950.925 -0.662961 2.93301 0
M  V30 9851 C 952.473 -0.754035 3.03782 0
M  V30 9852 C 952.948 -0.870815 4.49645 0
M  V30 9853 N 954.439 -0.935208 4.53661 0
M  V30 9854 C 955.174 -1.04516 5.63794 0
M  V30 9855 N 954.67 -1.11948 6.83696 0
M  V30 9856 N 956.463 -1.07978 5.51631 0
M  V30 9857 H 948.614 0.623018 2.03057 0
M  V30 9858 H 950.877 0.217692 0.922667 0
M  V30 9859 H 950.583 0.220375 3.51009 0
M  V30 9860 H 950.457 -1.52876 3.44831 0
M  V30 9861 H 952.844 -1.62782 2.46143 0
M  V30 9862 H 952.925 0.137301 2.55431 0
M  V30 9863 H 952.569 -0.0015186 5.079 0
M  V30 9864 H 952.499 -1.77747 4.95695 0
M  V30 9865 H 954.99 -0.88836 3.6731 0
M  V30 9866 H 955.303 -1.20297 7.6338 0
M  V30 9867 H 953.648 -1.08873 6.8642 0
M  V30 9868 H 956.839 -1.01833 4.56889 0
M  V30 9869 H 957.012 -1.16202 6.37496 0
M  V30 9870 N 950.418 -1.49637 -0.494624 0
M  V30 9871 C 951.695 -1.4995 -1.25596 0
M  V30 9872 C 952.075 -0.230805 -2.09834 0
M  V30 9873 O 951.423 0.786625 -2.14533 0
M  V30 9874 C 951.633 -2.78204 -2.10721 0
M  V30 9875 C 952.981 -3.27946 -2.69698 0
M  V30 9876 O 954.005 -2.79365 -2.20984 0
M  V30 9877 O 952.864 -4.12571 -3.58395 0
M  V30 9878 H 949.958 -0.60044 -0.568684 0
M  V30 9879 H 952.504 -1.61906 -0.508371 0
M  V30 9880 H 951.276 -3.62029 -1.48494 0
M  V30 9881 H 950.899 -2.69139 -2.92661 0
M  V30 9882 N 951.896 0.746133 -1.38819 0
M  V30 9883 C 953.173 1.49652 -1.25951 0
M  V30 9884 C 953.553 2.10663 0.135833 0
M  V30 9885 O 952.901 1.97682 1.14604 0
M  V30 9886 C 953.111 2.5569 -2.37537 0
M  V30 9887 C 954.459 3.22385 -2.76321 0
M  V30 9888 O 955.483 2.65998 -2.36904 0
M  V30 9889 O 954.342 4.2439 -3.44319 0
M  V30 9890 H 951.436 0.664019 -0.492958 0
M  V30 9891 H 953.982 0.780908 -1.50665 0
M  V30 9892 H 952.754 2.08908 -3.30867 0
M  V30 9893 H 952.377 3.34823 -2.14427 0
M  V30 9894 N 953.375 1.23811 0.975125 0
M  V30 9895 C 954.605 1.0986 1.7497 0
M  V30 9896 C 955.013 -0.352366 1.8589 0
M  V30 9897 O 954.356 -1.2553 1.34119 0
M  V30 9898 C 954.418 1.65584 3.19096 0
M  V30 9899 C 954.082 3.14395 3.3167 0
M  V30 9900 C 955.079 4.1163 3.17579 0
M  V30 9901 C 952.764 3.54208 3.56149 0
M  V30 9902 C 954.758 5.46661 3.27781 0
M  V30 9903 C 952.445 4.89382 3.65989 0
M  V30 9904 C 953.443 5.85418 3.51817 0
M  V30 9905 O 953.131 7.18135 3.61299 0
M  V30 9906 H 952.863 0.384854 0.555755 0
M  V30 9907 H 955.417 1.64242 1.23343 0
M  V30 9908 H 953.647 1.05627 3.71994 0
M  V30 9909 H 955.336 1.47032 3.78334 0
M  V30 9910 H 956.102 3.82214 2.98559 0
M  V30 9911 H 951.981 2.79968 3.66249 0
M  V30 9912 H 955.525 6.21601 3.16636 0
M  V30 9913 H 951.422 5.18473 3.84521 0
M  V30 9914 H 952.19 7.25956 3.78061 0
M  V30 9915 N 954.853 -1.17469 1.05066 0
M  V30 9916 C 956.078 -1.92162 0.780298 0
M  V30 9917 C 956.503 -1.76222 -0.657832 0
M  V30 9918 O 955.861 -1.0791 -1.45688 0
M  V30 9919 C 955.909 -3.41292 1.16414 0
M  V30 9920 O 955.013 -4.1134 0.295531 0
M  V30 9921 H 954.354 -0.599127 0.286257 0
M  V30 9922 H 956.884 -1.48903 1.40318 0
M  V30 9923 H 956.894 -3.92029 1.13036 0
M  V30 9924 H 955.569 -3.52214 2.21175 0
M  V30 9925 H 954.146 -3.70857 0.389797 0
M  V30 9926 N 956.331 -0.831506 -1.3388 0
M  V30 9927 C 957.561 -0.436292 -2.01941 0
M  V30 9928 C 957.969 0.964979 -1.62741 0
M  V30 9929 O 957.312 1.63733 -0.832894 0
M  V30 9930 C 957.374 -0.468811 -3.5643 0
M  V30 9931 C 957.038 -1.82491 -4.18982 0
M  V30 9932 C 958.035 -2.78705 -4.38885 0
M  V30 9933 C 955.72 -2.11574 -4.55568 0
M  V30 9934 C 957.714 -4.02168 -4.94509 0
M  V30 9935 C 955.401 -3.35296 -5.10901 0
M  V30 9936 C 956.399 -4.3041 -5.30317 0
M  V30 9937 O 956.087 -5.51944 -5.84477 0
M  V30 9938 H 955.819 -0.172335 -0.653664 0
M  V30 9939 H 958.373 -1.12354 -1.71947 0
M  V30 9940 H 956.603 0.275179 -3.8572 0
M  V30 9941 H 958.292 -0.0924518 -4.05795 0
M  V30 9942 H 959.058 -2.57534 -4.10976 0
M  V30 9943 H 954.937 -1.38338 -4.39754 0
M  V30 9944 H 958.481 -4.76418 -5.09579 0
M  V30 9945 H 954.378 -3.56326 -5.3824 0
M  V30 9946 H 955.146 -5.53582 -6.029 0
M  V30 9947 N 957.809 1.4625 -0.587256 0
M  V30 9948 C 958.757 2.32076 0.156108 0
M  V30 9949 C 959.751 1.44756 0.879887 0
M  V30 9950 O 960.957 1.61356 0.797759 0
M  V30 9951 H 957.332 0.748808 0.0692098 0
M  V30 9952 H 959.303 2.9258 -0.586497 0
M  V30 9953 C 958.052 3.28008 1.15352 0
M  V30 9954 H 957.375 3.9518 0.60601 0
M  V30 9955 H 958.815 3.90832 1.64396 0
M  V30 9956 C 957.274 2.53691 2.21681 0
M  V30 9957 O 957.804 2.30329 3.29107 0
M  V30 9958 N 956.01 2.14174 1.96412 0
M  V30 9959 H 955.557 2.33374 1.09061 0
M  V30 9960 H 955.515 1.6477 2.67765 0
M  V30 9961 N 959.287 0.325282 1.54207 0
M  V30 9962 C 960.197 -0.548778 2.28091 0
M  V30 9963 C 961.213 -1.12772 1.32508 0
M  V30 9964 O 962.389 -1.14732 1.65525 0
M  V30 9965 C 959.454 -1.69284 3.02562 0
M  V30 9966 C 958.515 -1.14553 4.13734 0
M  V30 9967 C 957.748 -2.23506 4.84645 0
M  V30 9968 O 957.971 -3.43884 4.55082 0
M  V30 9969 O 956.905 -1.88828 5.71513 0
M  V30 9970 H 960.731 0.0512974 3.03657 0
M  V30 9971 H 958.316 0.0909159 1.49123 0
M  V30 9972 H 960.198 -2.35887 3.49192 0
M  V30 9973 H 958.873 -2.27906 2.2987 0
M  V30 9974 H 957.78 -0.444532 3.71449 0
M  V30 9975 H 959.113 -0.60441 4.88475 0
M  V30 9976 N 960.765 -1.57509 0.0534917 0
M  V30 9977 C 962.042 -1.84137 -0.659767 0
M  V30 9978 C 962.422 -0.942362 -1.88899 0
M  V30 9979 O 961.77 -0.00398566 -2.285 0
M  V30 9980 C 961.98 -3.33919 -1.01486 0
M  V30 9981 C 963.328 -4.00989 -1.39616 0
M  V30 9982 O 964.352 -3.38557 -1.10713 0
M  V30 9983 O 963.211 -5.11071 -1.93567 0
M  V30 9984 H 960.305 -0.760081 -0.325893 0
M  V30 9985 H 962.851 -1.69497 0.0830315 0
M  V30 9986 H 961.623 -3.91046 -0.141041 0
M  V30 9987 H 961.246 -3.53755 -1.81503 0
M  V30 9988 N 962.243 0.219913 -1.56058 0
M  V30 9989 C 963.491 0.942199 -1.78793 0
M  V30 9990 C 963.812 1.84804 -0.622284 0
M  V30 9991 O 963.082 1.9255 0.360735 0
M  V30 9992 H 961.662 0.350895 -0.659455 0
M  V30 9993 H 964.324 0.231376 -1.93522 0
M  V30 9994 H 963.42 1.54804 -2.71002 0
M  V30 9995 N 963.721 1.49897 0.486681 0
M  V30 9996 C 965.137 1.36977 0.819109 0
M  V30 9997 C 965.337 0.41385 1.97204 0
M  V30 9998 O 964.393 -0.149249 2.52059 0
M  V30 9999 C 965.706 2.78013 1.14584 0
M  V30 10000 C 967.254 2.86816 1.25321 0
M  V30 10001 C 967.729 4.28651 1.61316 0
M  V30 10002 N 969.22 4.31528 1.68337 0
M  V30 10003 C 969.955 5.38254 1.97662 0
M  V30 10004 N 969.451 6.55207 2.25113 0
M  V30 10005 N 971.244 5.25683 1.99033 0
M  V30 10006 H 963.395 2.10634 -0.273364 0
M  V30 10007 H 965.658 0.946116 -0.0597418 0
M  V30 10008 H 965.364 3.49728 0.371892 0
M  V30 10009 H 965.238 3.1428 2.08585 0
M  V30 10010 H 967.625 2.15329 2.01785 0
M  V30 10011 H 967.706 2.54112 0.293368 0
M  V30 10012 H 967.35 5.00669 0.853968 0
M  V30 10013 H 967.28 4.5883 2.58424 0
M  V30 10014 H 969.771 3.47189 1.49226 0
M  V30 10015 H 970.084 7.32359 2.46717 0
M  V30 10016 H 968.429 6.58408 2.22538 0
M  V30 10017 H 971.62 4.33316 1.77074 0
M  V30 10018 H 971.793 6.08949 2.21552 0
M  V30 10019 N 965.199 -0.738761 1.39212 0
M  V30 10020 C 966.615 -1.04381 1.20734 0
M  V30 10021 C 966.815 -2.01391 0.0663082 0
M  V30 10022 O 965.871 -2.45672 -0.583229 0
M  V30 10023 C 967.184 -1.6097 2.53987 0
M  V30 10024 C 968.732 -1.73069 2.60799 0
M  V30 10025 C 969.207 -2.33067 3.94264 0
M  V30 10026 N 970.698 -2.40481 3.95883 0
M  V30 10027 C 971.433 -2.87834 4.95923 0
M  V30 10028 N 970.929 -3.35111 6.0636 0
M  V30 10029 N 972.722 -2.87009 4.83304 0
M  V30 10030 H 964.873 -0.0952996 2.12186 0
M  V30 10031 H 967.136 -0.104902 0.942178 0
M  V30 10032 H 966.842 -0.971548 3.38015 0
M  V30 10033 H 966.716 -2.59829 2.73439 0
M  V30 10034 H 969.103 -2.36007 1.77157 0
M  V30 10035 H 969.184 -0.728728 2.452 0
M  V30 10036 H 968.828 -1.70758 4.78335 0
M  V30 10037 H 968.758 -3.33933 4.07181 0
M  V30 10038 H 971.249 -2.07061 3.16123 0
M  V30 10039 H 971.562 -3.69742 6.78609 0
M  V30 10040 H 969.907 -3.33129 6.09959 0
M  V30 10041 H 973.098 -2.49395 3.96131 0
M  V30 10042 H 973.271 -3.23598 5.61416 0
M  V30 10043 N 966.677 -1.24326 -0.968545 0
M  V30 10044 C 967.907 -1.10786 -1.74385 0
M  V30 10045 C 968.315 0.342503 -1.86074 0
M  V30 10046 O 967.658 1.24817 -1.34782 0
M  V30 10047 C 967.72 -1.67274 -3.18213 0
M  V30 10048 C 967.384 -3.1615 -3.29998 0
M  V30 10049 C 968.381 -4.13309 -3.15392 0
M  V30 10050 C 966.066 -3.56092 -3.54265 0
M  V30 10051 C 968.06 -5.48392 -3.24878 0
M  V30 10052 C 965.747 -4.91316 -3.63389 0
M  V30 10053 C 966.745 -5.87275 -3.48707 0
M  V30 10054 O 966.433 -7.20041 -3.57485 0
M  V30 10055 H 966.165 -0.387795 -0.553706 0
M  V30 10056 H 968.719 -1.64894 -1.22471 0
M  V30 10057 H 966.949 -1.07598 -3.71429 0
M  V30 10058 H 968.638 -1.49036 -3.77549 0
M  V30 10059 H 969.404 -3.83792 -2.96528 0
M  V30 10060 H 965.283 -2.81907 -3.6476 0
M  V30 10061 H 968.827 -6.23271 -3.13335 0
M  V30 10062 H 964.724 -5.20505 -3.81766 0
M  V30 10063 H 965.492 -7.27951 -3.74205 0
M  V30 10064 N 968.156 1.1691 -1.05688 0
M  V30 10065 C 969.403 1.87292 -0.76993 0
M  V30 10066 C 969.731 1.81339 0.703295 0
M  V30 10067 O 968.986 1.21959 1.5305 0
M  V30 10068 C 969.285 3.36578 -1.20207 0
M  V30 10069 C 968.951 3.62732 -2.67836 0
M  V30 10070 C 967.613 3.69579 -3.08163 0
M  V30 10071 C 969.965 3.73803 -3.63209 0
M  V30 10072 C 967.293 3.84992 -4.42717 0
M  V30 10073 C 969.645 3.90735 -4.97503 0
M  V30 10074 C 968.309 3.95823 -5.37476 0
M  V30 10075 H 967.579 0.68535 -0.281737 0
M  V30 10076 H 970.226 1.38274 -1.32486 0
M  V30 10077 H 968.531 3.87687 -0.566222 0
M  V30 10078 H 970.228 3.89409 -0.957183 0
M  V30 10079 H 966.818 3.58031 -2.35609 0
M  V30 10080 H 971.002 3.67829 -3.3319 0
M  V30 10081 H 966.258 3.87181 -4.73182 0
M  V30 10082 H 970.432 3.98243 -5.71293 0
M  V30 10083 H 968.059 4.07518 -6.41742 0
M  V30 10084 N 969.634 0.838594 1.33437 0
M  V30 10085 C 970.567 0.216651 2.27169 0
M  V30 10086 C 971.545 -0.636065 1.49643 0
M  V30 10087 O 972.729 -0.596388 1.78817 0
M  V30 10088 C 969.856 -0.69584 3.31475 0
M  V30 10089 C 968.902 0.0813808 4.26422 0
M  V30 10090 S 969.735 1.43909 5.15801 0
M  V30 10091 C 970.891 0.531887 6.23636 0
M  V30 10092 H 971.124 1.01128 2.79572 0
M  V30 10093 H 968.657 0.635332 1.40723 0
M  V30 10094 H 970.615 -1.21671 3.92054 0
M  V30 10095 H 969.276 -1.46413 2.77888 0
M  V30 10096 H 968.469 -0.612944 5.00259 0
M  V30 10097 H 968.071 0.533304 3.70178 0
M  V30 10098 H 970.363 -0.270371 6.7696 0
M  V30 10099 H 971.306 1.24041 6.97151 0
M  V30 10100 H 971.714 0.113357 5.64386 0
M  V30 10101 N 971.112 -1.45937 0.595003 0
M  V30 10102 C 972.075 -2.2888 -0.121102 0
M  V30 10103 C 973.075 -1.39075 -0.807149 0
M  V30 10104 O 974.265 -1.61326 -0.657228 0
M  V30 10105 C 971.397 -3.19778 -1.1813 0
M  V30 10106 H 972.59 -2.93673 0.607968 0
M  V30 10107 H 970.143 -1.5225 0.353495 0
M  V30 10108 H 970.878 -2.59759 -1.94154 0
M  V30 10109 H 970.663 -3.85914 -0.693724 0
M  V30 10110 H 972.153 -3.82176 -1.68319 0
M  V30 10111 N 972.59 -0.333456 -1.54032 0
M  V30 10112 C 973.836 0.266527 -2.01041 0
M  V30 10113 C 974.169 1.51006 -1.2211 0
M  V30 10114 O 973.444 1.92078 -0.306016 0
M  V30 10115 C 973.727 0.59078 -3.55221 0
M  V30 10116 C 973.58 -0.664143 -4.4487 0
M  V30 10117 C 974.899 1.40447 -4.17088 0
M  V30 10118 H 972.018 0.0953979 -0.7308 0
M  V30 10119 H 974.66 -0.451995 -1.84545 0
M  V30 10120 H 972.81 1.20292 -3.69408 0
M  V30 10121 H 974.482 -1.30227 -4.42537 0
M  V30 10122 H 972.725 -1.29106 -4.14143 0
M  V30 10123 H 973.396 -0.392664 -5.50602 0
M  V30 10124 H 975.872 0.886946 -4.06537 0
M  V30 10125 H 974.748 1.6001 -5.2506 0
M  V30 10126 H 975.009 2.40357 -3.71054 0
M  V30 10127 N 974.068 1.57479 -0.061844 0
M  V30 10128 C 975.345 1.84484 0.649993 0
M  V30 10129 C 975.725 0.952366 1.88396 0
M  V30 10130 O 975.073 0.0161035 2.28494 0
M  V30 10131 C 975.283 3.34452 0.997133 0
M  V30 10132 C 976.631 4.01724 1.37488 0
M  V30 10133 O 977.655 3.3914 1.08916 0
M  V30 10134 O 976.514 5.12091 1.90854 0
M  V30 10135 H 973.608 0.761798 0.321858 0
M  V30 10136 H 976.154 1.6945 -0.0920192 0
M  V30 10137 H 974.926 3.91115 0.120301 0
M  V30 10138 H 974.549 3.54713 1.79624 0
M  V30 10139 N 975.546 -0.211634 1.56173 0
M  V30 10140 C 976.776 -0.949805 1.83473 0
M  V30 10141 C 977.184 -1.78045 0.640053 0
M  V30 10142 O 976.527 -1.79277 -0.400702 0
M  V30 10143 C 976.589 -1.90868 3.04647 0
M  V30 10144 C 976.253 -1.26159 4.39241 0
M  V30 10145 C 977.25 -0.646597 5.15863 0
M  V30 10146 C 974.935 -1.27039 4.85969 0
M  V30 10147 C 976.929 -0.0490313 6.37381 0
M  V30 10148 C 974.616 -0.668987 6.07427 0
M  V30 10149 C 975.614 -0.0593687 6.82974 0
M  V30 10150 O 975.302 0.532656 8.02133 0
M  V30 10151 H 975.034 -0.283458 0.6137 0
M  V30 10152 H 977.588 -0.22894 2.0412 0
M  V30 10153 H 975.818 -2.6688 2.79843 0
M  V30 10154 H 977.507 -2.51323 3.18734 0
M  V30 10155 H 978.273 -0.632056 4.80864 0
M  V30 10156 H 974.152 -1.73429 4.27134 0
M  V30 10157 H 977.696 0.427414 6.96289 0
M  V30 10158 H 973.593 -0.680975 6.41898 0
M  V30 10159 H 974.361 0.427942 8.17381 0
M  V30 10160 N 977.024 -1.50153 -0.478725 0
M  V30 10161 C 978.44 -1.3741 -0.811833 0
M  V30 10162 C 978.64 -0.424303 -1.96982 0
M  V30 10163 O 977.696 0.13588 -2.52134 0
M  V30 10164 C 979.009 -2.78616 -1.13108 0
M  V30 10165 C 980.557 -2.87477 -1.23798 0
M  V30 10166 C 981.032 -4.295 -1.5904 0
M  V30 10167 N 982.523 -4.32415 -1.66047 0
M  V30 10168 C 983.258 -5.39295 -1.94805 0
M  V30 10169 N 982.754 -6.56392 -2.21635 0
M  V30 10170 N 984.547 -5.26731 -1.96243 0
M  V30 10171 H 976.698 -2.10486 0.284531 0
M  V30 10172 H 978.961 -0.945786 0.0647585 0
M  V30 10173 H 978.667 -3.49921 -0.35334 0
M  V30 10174 H 978.541 -3.15382 -2.06915 0
M  V30 10175 H 980.928 -2.16396 -2.00641 0
M  V30 10176 H 981.009 -2.54264 -0.279888 0
M  V30 10177 H 980.653 -5.01115 -0.827404 0
M  V30 10178 H 980.583 -4.60194 -2.55987 0
M  V30 10179 H 983.074 -3.47975 -1.47383 0
M  V30 10180 H 983.387 -7.33658 -2.4283 0
M  V30 10181 H 981.732 -6.59579 -2.19043 0
M  V30 10182 H 984.923 -4.34249 -1.74773 0
M  V30 10183 H 985.096 -6.10115 -2.1832 0
M  V30 10184 N 978.502 0.731368 -1.39602 0
M  V30 10185 C 979.749 1.491 -1.37024 0
M  V30 10186 C 980.077 1.94473 0.0326423 0
M  V30 10187 O 979.332 1.6737 1.01418 0
M  V30 10188 C 979.631 2.74224 -2.29208 0
M  V30 10189 C 979.297 2.477 -3.7677 0
M  V30 10190 C 977.959 2.40175 -4.16976 0
M  V30 10191 C 980.311 2.25098 -4.70086 0
M  V30 10192 C 977.639 2.08095 -5.48556 0
M  V30 10193 C 979.991 1.94534 -6.01946 0
M  V30 10194 C 978.655 1.85481 -6.41212 0
M  V30 10195 H 977.925 0.545595 -0.501405 0
M  V30 10196 H 980.572 0.839127 -1.72136 0
M  V30 10197 H 978.877 3.44171 -1.87225 0
M  V30 10198 H 980.574 3.32264 -2.24504 0
M  V30 10199 H 977.164 2.54436 -3.44906 0
M  V30 10200 H 981.348 2.29876 -4.39853 0
M  V30 10201 H 976.604 1.99611 -5.77897 0
M  V30 10202 H 980.778 1.76054 -6.73779 0
M  V30 10203 H 978.405 1.60389 -7.43088 0
M  V30 10204 O 980.019 1.35899 0.872571 0
M  V30 10205 H 980.71 1.21196 1.511 0
M  V30 END ATOM
M  V30 BEGIN BOND
M  V30 END BOND
M  V30 END CTAB
M  END
$$$$
