drugbank_target|P17443 UDP-N-acetylglucosamine--N-acetylmuramyl-(pentapeptide) pyrophosphoryl-undecaprenol N-acetylglucosamine transferase (DB02196)
 OpenBabel12092119543D

  0  0  0     0  0            999 V3000
M  V30 BEGIN CTAB
M  V30 COUNTS 5373 5430 0 0 0
M  V30 BEGIN ATOM
M  V30 1 H -0.908 1.98254 -0.117106 0
M  V30 2 N 0 1.576 0 0
M  V30 3 C 0.933 2.03868 1.02534 0
M  V30 4 C 1.911 0.928543 1.3348 0
M  V30 5 O 3.095 1.19667 1.45644 0
M  V30 6 C 0.222 2.43627 2.35294 0
M  V30 7 C -0.732 3.65373 2.2001 0
M  V30 8 S 0.101 5.13292 1.52614 0
M  V30 9 C 1.257 5.56322 2.86805 0
M  V30 10 H 1.49 2.90518 0.631377 0
M  V30 11 H -0.977 1.52953 0.210867 0
M  V30 12 H 0.981 2.67203 3.11629 0
M  V30 13 H -0.358 1.57376 2.7183 0
M  V30 14 H -1.165 3.90944 3.18086 0
M  V30 15 H -1.563 3.418 1.51819 0
M  V30 16 H 0.729 5.58782 3.83104 0
M  V30 17 H 1.672 6.56266 2.65933 0
M  V30 18 H 2.08 4.83886 2.90714 0
M  V30 19 N 1.4781 -0.272755 1.55222 0
M  V30 20 C 2.7031 -1.02683 1.80197 0
M  V30 21 C 3.1281 -1.79142 0.573551 0
M  V30 22 O 2.4861 -1.74917 -0.476849 0
M  V30 23 C 2.5341 -1.9609 3.02624 0
M  V30 24 O 1.6381 -3.04863 2.77727 0
M  V30 25 H 0.9791 -0.293557 0.595584 0
M  V30 26 H 3.5091 -0.30159 2.02365 0
M  V30 27 H 3.5191 -2.38039 3.31363 0
M  V30 28 H 2.1941 -1.39851 3.91682 0
M  V30 29 H 0.7711 -2.67228 2.60084 0
M  V30 30 N 2.9562 -1.48159 -0.537278 0
M  V30 31 C 4.2042 -1.55497 -1.29094 0
M  V30 32 C 4.5252 -0.227454 -1.93669 0
M  V30 33 O 3.7952 0.750386 -1.80959 0
M  V30 34 H 2.3752 -0.572832 -0.47945 0
M  V30 35 H 5.0372 -1.84579 -0.625818 0
M  V30 36 H 4.1332 -2.33216 -2.07405 0
M  V30 37 N 4.4343 0.785586 -1.36625 0
M  V30 38 C 5.3663 1.90711 -1.2713 0
M  V30 39 C 6.3793 1.61688 -0.189986 0
M  V30 40 O 7.5683 1.72864 -0.445014 0
M  V30 41 C 4.6683 3.25611 -0.939713 0
M  V30 42 C 3.8413 3.82385 -2.12369 0
M  V30 43 C 2.9003 4.95732 -1.76456 0
M  V30 44 O 1.9263 5.12047 -2.48589 0
M  V30 45 N 3.1283 5.76258 -0.700492 0
M  V30 46 H 5.8933 1.99376 -2.23762 0
M  V30 47 H 3.4543 0.964041 -1.30069 0
M  V30 48 H 5.4463 3.98937 -0.680554 0
M  V30 49 H 4.0163 3.12538 -0.0624074 0
M  V30 50 H 3.2363 3.01001 -2.54543 0
M  V30 51 H 4.5243 4.17047 -2.9146 0
M  V30 52 H 3.9223 5.65609 -0.101624 0
M  V30 53 H 2.4793 6.4987 -0.501165 0
M  V30 54 N 5.9124 1.20967 1.01018 0
M  V30 55 C 7.1604 1.02172 1.74371 0
M  V30 56 C 7.4814 -0.446414 1.89821 0
M  V30 57 O 6.7514 -1.32234 1.44537 0
M  V30 58 H 5.3314 0.375066 0.646014 0
M  V30 59 H 7.9934 1.52187 1.21758 0
M  V30 60 H 7.0894 1.48538 2.74487 0
M  V30 61 N 7.3905 -1.2043 1.01659 0
M  V30 62 C 8.3375 -2.23215 0.586822 0
M  V30 63 C 9.3075 -1.61382 -0.393085 0
M  V30 64 O 10.4925 -1.88544 -0.292525 0
M  V30 65 C 7.6325 -3.45032 -0.0687464 0
M  V30 66 C 6.7455 -4.21296 0.955724 0
M  V30 67 C 5.8805 -5.30507 0.271208 0
M  V30 68 C 4.9195 -5.98515 1.28244 0
M  V30 69 N 4.0565 -6.99316 0.62459 0
M  V30 70 H 8.8965 -2.59336 1.46796 0
M  V30 71 H 6.4335 -1.27431 0.734836 0
M  V30 72 H 8.3915 -4.1459 -0.465965 0
M  V30 73 H 7.0215 -3.09604 -0.913529 0
M  V30 74 H 6.0735 -3.50803 1.4711 0
M  V30 75 H 7.3855 -4.6803 1.72479 0
M  V30 76 H 6.5395 -6.06428 -0.18151 0
M  V30 77 H 5.2785 -4.8481 -0.530163 0
M  V30 78 H 4.2835 -5.21355 1.74554 0
M  V30 79 H 5.5085 -6.46298 2.08509 0
M  V30 80 H 3.4545 -6.55812 -0.156914 0
M  V30 81 H 3.3715 -7.44178 1.33172 0
M  V30 82 H 4.6395 -7.79255 0.195462 0
M  V30 83 N 8.8686 -0.792821 -1.36206 0
M  V30 84 C 10.2846 -0.474903 -1.52371 0
M  V30 85 C 10.4846 1.00622 -1.74578 0
M  V30 86 O 9.5406 1.79162 -1.77924 0
M  V30 87 C 10.8536 -1.3083 -2.70747 0
M  V30 88 C 12.4016 -1.30234 -2.84619 0
M  V30 89 C 12.8766 -2.11956 -4.06004 0
M  V30 90 N 14.3676 -2.09419 -4.13156 0
M  V30 91 C 15.1026 -2.69419 -5.06163 0
M  V30 92 N 14.5986 -3.3829 -6.04592 0
M  V30 93 N 16.3916 -2.59134 -4.98804 0
M  V30 94 H 8.5426 -1.75222 -1.20046 0
M  V30 95 H 10.8056 -0.745024 -0.586211 0
M  V30 96 H 10.5116 -2.35881 -2.6087 0
M  V30 97 H 10.3856 -0.95196 -3.6499 0
M  V30 98 H 12.7726 -0.259748 -2.93955 0
M  V30 99 H 12.8536 -1.69847 -1.91274 0
M  V30 100 H 12.4976 -3.16248 -3.97429 0
M  V30 101 H 12.4276 -1.69711 -4.98503 0
M  V30 102 H 14.9186 -1.59297 -3.42685 0
M  V30 103 H 15.2316 -3.81394 -6.7213 0
M  V30 104 H 13.5766 -3.42393 -6.04807 0
M  V30 105 H 16.7676 -2.04927 -4.20859 0
M  V30 106 H 16.9406 -3.06185 -5.711 0
M  V30 107 N 10.3467 1.47872 -0.545128 0
M  V30 108 C 11.2767 2.32661 0.197793 0
M  V30 109 C 12.2577 1.43041 0.920504 0
M  V30 110 O 13.4427 1.71912 0.90333 0
M  V30 111 C 10.5727 3.24569 1.23582 0
M  V30 112 C 9.5267 4.23333 0.630323 0
M  V30 113 C 8.8527 5.0448 1.77211 0
M  V30 114 C 10.1527 5.20704 -0.407974 0
M  V30 115 H 11.8467 2.95024 -0.510045 0
M  V30 116 H 9.3927 1.4187 -0.246731 0
M  V30 117 H 11.3457 3.8272 1.76362 0
M  V30 118 H 10.0697 2.60236 1.97344 0
M  V30 119 H 8.7287 3.6639 0.123922 0
M  V30 120 H 8.3767 4.36561 2.49847 0
M  V30 121 H 8.0767 5.71339 1.37281 0
M  V30 122 H 9.6007 5.65487 2.3034 0
M  V30 123 H 11.0147 5.7329 0.033305 0
M  V30 124 H 9.4117 5.95699 -0.725486 0
M  V30 125 H 10.4817 4.66917 -1.30828 0
M  V30 126 N 11.8248 0.280983 1.55075 0
M  V30 127 C 12.7578 -0.645439 2.18882 0
M  V30 128 C 13.7358 -1.14786 1.15165 0
M  V30 129 O 14.9198 -1.21975 1.43716 0
M  V30 130 C 12.0468 -1.88088 2.81674 0
M  V30 131 C 11.0928 -1.51343 3.98745 0
M  V30 132 S 11.9258 -0.586548 5.32278 0
M  V30 133 C 13.0818 -1.83024 5.98543 0
M  V30 134 H 13.3148 -0.1033 2.9712 0
M  V30 135 H 10.8478 0.0652099 1.54262 0
M  V30 136 H 12.8058 -2.58997 3.18482 0
M  V30 137 H 11.4668 -2.39417 2.03318 0
M  V30 138 H 10.6598 -2.43289 4.41392 0
M  V30 139 H 10.2618 -0.884477 3.63391 0
M  V30 140 H 12.5538 -2.77342 6.18133 0
M  V30 141 H 13.4968 -1.44668 6.93164 0
M  V30 142 H 13.9048 -1.99785 5.27964 0
M  V30 143 N 13.3029 -1.57598 0.00835791 0
M  V30 144 C 14.5489 -1.91211 -0.675732 0
M  V30 145 C 14.8819 -0.883139 -1.72958 0
M  V30 146 O 14.1569 0.097016 -1.94258 0
M  V30 147 C 14.4399 -3.35379 -1.31123 0
M  V30 148 C 14.2929 -4.48999 -0.268356 0
M  V30 149 C 15.6119 -3.7912 -2.23508 0
M  V30 150 H 12.7309 -0.695374 -0.244179 0
M  V30 151 H 15.3729 -1.89901 0.0613655 0
M  V30 152 H 13.5229 -3.36626 -1.93946 0
M  V30 153 H 15.1949 -4.59887 0.360844 0
M  V30 154 H 13.4379 -4.31873 0.408482 0
M  V30 155 H 14.1089 -5.46851 -0.752218 0
M  V30 156 H 16.5849 -3.79477 -1.70693 0
M  V30 157 H 15.4609 -4.80729 -2.64936 0
M  V30 158 H 15.7219 -3.13455 -3.11766 0
M  V30 159 N 14.781 0.264519 -1.55364 0
M  V30 160 C 15.714 1.35297 -1.83766 0
M  V30 161 C 16.692 1.47171 -0.691336 0
M  V30 162 O 17.876 1.63663 -0.935238 0
M  V30 163 C 15.003 2.72847 -2.00679 0
M  V30 164 C 14.049 2.78214 -3.23263 0
M  V30 165 S 14.882 2.36601 -4.80396 0
M  V30 166 C 16.038 3.7611 -5.00292 0
M  V30 167 H 16.271 1.11003 -2.758 0
M  V30 168 H 13.804 0.464596 -1.47244 0
M  V30 169 H 15.762 3.52057 -2.11108 0
M  V30 170 H 14.423 2.94388 -1.09518 0
M  V30 171 H 13.616 3.7919 -3.3201 0
M  V30 172 H 13.218 2.07034 -3.11469 0
M  V30 173 H 15.51 4.71457 -4.86554 0
M  V30 174 H 16.453 3.7231 -6.02321 0
M  V30 175 H 16.861 3.67806 -4.28228 0
M  V30 176 N 16.2591 1.48442 0.529413 0
M  V30 177 C 17.2221 1.62524 1.61612 0
M  V30 178 C 18.2221 0.498509 1.52877 0
M  V30 179 O 19.4121 0.76431 1.56537 0
M  V30 180 C 16.5441 1.59597 3.01233 0
M  V30 181 H 17.7371 2.59423 1.50465 0
M  V30 182 H 15.2901 1.37047 0.751514 0
M  V30 183 H 16.0251 0.641781 3.17886 0
M  V30 184 H 15.8101 2.41397 3.08982 0
M  V30 185 H 17.3001 1.72646 3.80241 0
M  V30 186 N 17.7372 -0.778329 1.37039 0
M  V30 187 C 18.9852 -1.53361 1.31623 0
M  V30 188 C 19.3062 -1.94739 -0.100831 0
M  V30 189 O 18.5762 -1.65797 -1.04347 0
M  V30 190 H 17.1562 -0.568794 0.484234 0
M  V30 191 H 19.8182 -0.926742 1.71457 0
M  V30 192 H 18.9142 -2.43606 1.95096 0
M  V30 193 N 19.2153 -1.21501 -1.00376 0
M  V30 194 C 20.4633 -1.03095 -1.73827 0
M  V30 195 C 20.7843 0.436341 -1.90055 0
M  V30 196 O 20.0543 1.31466 -1.45236 0
M  V30 197 H 18.6343 -0.378487 -0.644016 0
M  V30 198 H 21.2963 -1.52831 -1.20949 0
M  V30 199 H 20.3923 -1.49991 -2.73695 0
M  V30 200 N 20.6934 1.19889 -1.02296 0
M  V30 201 C 21.9214 1.9339 -0.735399 0
M  V30 202 C 22.3364 1.75148 0.704887 0
M  V30 203 O 21.6934 1.06954 1.47875 0
M  V30 204 C 21.7444 3.45313 -1.06962 0
M  V30 205 O 21.4654 3.62964 -2.45334 0
M  V30 206 C 22.9664 4.35948 -0.804021 0
M  V30 207 H 20.1864 0.61448 -0.269546 0
M  V30 208 H 22.7304 1.522 -1.36585 0
M  V30 209 H 20.8854 3.84359 -0.484455 0
M  V30 210 H 21.2994 4.56886 -2.57595 0
M  V30 211 H 22.7734 5.41174 -1.0879 0
M  V30 212 H 23.2504 4.3842 0.261691 0
M  V30 213 H 23.8564 4.02574 -1.37164 0
M  V30 214 N 22.1715 0.800033 1.35784 0
M  V30 215 C 23.4195 0.376597 1.9856 0
M  V30 216 C 23.7405 -1.05812 1.63795 0
M  V30 217 O 23.0105 -1.73103 0.917171 0
M  V30 218 H 21.5905 0.136261 0.734467 0
M  V30 219 H 24.2525 1.02442 1.65806 0
M  V30 220 H 23.3485 0.477002 3.08433 0
M  V30 221 N 23.6496 -1.47581 0.552962 0
M  V30 222 C 24.8976 -2.02082 0.0272703 0
M  V30 223 C 25.2186 -1.4301 -1.32563 0
M  V30 224 O 24.4886 -0.603745 -1.86365 0
M  V30 225 H 23.0686 -0.746966 0.00709182 0
M  V30 226 H 25.7306 -1.81033 0.722008 0
M  V30 227 H 24.8266 -3.12034 -0.0639951 0
M  V30 228 N 25.1277 -0.289203 -1.54924 0
M  V30 229 C 26.0777 0.606939 -2.19773 0
M  V30 230 C 27.0617 1.10783 -1.16687 0
M  V30 231 O 28.2537 1.05057 -1.4245 0
M  V30 232 C 25.3827 1.78398 -2.93307 0
M  V30 233 C 24.4687 1.29961 -4.03697 0
M  V30 234 N 24.8597 0.532377 -5.0299 0
M  V30 235 C 23.1577 1.58136 -4.17024 0
M  V30 236 C 23.8587 0.275912 -5.81045 0
M  V30 237 N 22.8347 0.852365 -5.36876 0
M  V30 238 H 26.6367 0.0130779 -2.93897 0
M  V30 239 H 24.1507 -0.09341 -1.62131 0
M  V30 240 H 26.1477 2.43741 -3.38225 0
M  V30 241 H 24.8077 2.38166 -2.20697 0
M  V30 242 H 25.8187 0.17838 -5.17593 0
M  V30 243 H 22.4957 2.18738 -3.55612 0
M  V30 244 H 23.8857 -0.339502 -6.71042 0
M  V30 245 N 26.6058 1.57591 -0.0167156 0
M  V30 246 C 27.8518 1.91567 0.665582 0
M  V30 247 C 28.1848 0.892298 1.72487 0
M  V30 248 O 27.4598 -0.0867127 1.94307 0
M  V30 249 C 27.7428 3.36069 1.29342 0
M  V30 250 C 27.5958 4.49135 0.244541 0
M  V30 251 C 28.9148 3.803 2.21495 0
M  V30 252 H 26.0338 0.69666 0.240488 0
M  V30 253 H 28.6758 1.89866 -0.0714356 0
M  V30 254 H 26.8258 3.3765 1.92158 0
M  V30 255 H 28.4978 4.59689 -0.385228 0
M  V30 256 H 26.7408 4.3165 -0.431379 0
M  V30 257 H 27.4118 5.47242 0.723207 0
M  V30 258 H 29.8878 3.80377 1.68678 0
M  V30 259 H 28.7638 4.82127 2.62382 0
M  V30 260 H 29.0248 3.15104 3.101 0
M  V30 261 N 28.0839 -0.256276 1.55502 0
M  V30 262 C 29.3309 -0.985619 1.76895 0
M  V30 263 C 29.6589 -1.85671 0.579355 0
M  V30 264 O 28.9139 -1.90744 -0.437651 0
M  V30 265 C 29.2129 -1.88432 3.03691 0
M  V30 266 C 28.8789 -1.16936 4.35473 0
M  V30 267 C 27.5409 -0.97173 4.71286 0
M  V30 268 C 29.8929 -0.661889 5.1698 0
M  V30 269 C 27.2209 -0.254179 5.86149 0
M  V30 270 C 29.5729 0.042149 6.32586 0
M  V30 271 C 28.2369 0.25134 6.67027 0
M  V30 272 H 27.5069 -0.360663 0.647304 0
M  V30 273 H 30.1539 -0.256483 1.89775 0
M  V30 274 H 28.4589 -2.68021 2.85783 0
M  V30 275 H 30.1559 -2.45015 3.1744 0
M  V30 276 H 26.7459 -1.33332 4.07333 0
M  V30 277 H 30.9299 -0.802145 4.89775 0
M  V30 278 H 26.1859 -0.0815408 6.11346 0
M  V30 279 H 30.3599 0.443049 6.94989 0
M  V30 280 H 27.9869 0.809314 7.5588 0
M  V30 281 N 29.562 -1.4872 -0.521534 0
M  V30 282 C 30.973 -1.50607 -1.10337 0
M  V30 283 C 31.324 -0.280612 -1.94183 0
M  V30 284 O 30.449 0.611507 -2.0758 0
M  V30 285 C 31.044 -2.72903 -2.00772 0
M  V30 286 C 29.603 -2.77634 -2.54158 0
M  V30 287 C 28.75 -2.44241 -1.31307 0
M  V30 288 H 31.701 -1.55714 -0.306388 0
M  V30 289 H 31.722 -2.519 -2.85178 0
M  V30 290 H 31.234 -3.62077 -1.39721 0
M  V30 291 H 29.335 -1.92689 -3.18907 0
M  V30 292 H 29.448 -3.79283 -2.92714 0
M  V30 293 H 27.812 -1.95577 -1.63161 0
M  V30 294 H 28.595 -3.35666 -0.719943 0
M  V30 295 N 31.0401 0.771051 -1.3745 0
M  V30 296 C 32.2881 1.52661 -1.32435 0
M  V30 297 C 32.6091 1.9479 0.0905024 0
M  V30 298 O 31.8791 1.66348 1.03466 0
M  V30 299 H 30.4591 0.566218 -0.487244 0
M  V30 300 H 33.1211 0.917636 -1.71946 0
M  V30 301 H 32.2171 2.42568 -1.96385 0
M  V30 302 N 32.5182 1.22032 0.997298 0
M  V30 303 C 33.4482 1.01065 2.10495 0
M  V30 304 C 34.4292 -0.0669542 1.69968 0
M  V30 305 O 35.6142 0.0943987 1.9397 0
M  V30 306 C 32.7442 0.582874 3.42374 0
M  V30 307 C 31.6982 1.60592 3.96729 0
M  V30 308 C 31.0242 1.03412 5.24605 0
M  V30 309 C 32.3242 2.99478 4.27914 0
M  V30 310 H 34.0182 1.93708 2.28292 0
M  V30 311 H 31.5642 0.932761 1.09707 0
M  V30 312 H 33.5172 0.423332 4.19268 0
M  V30 313 H 32.2412 -0.379213 3.24391 0
M  V30 314 H 30.9002 1.75316 3.21963 0
M  V30 315 H 30.5482 0.063518 5.0296 0
M  V30 316 H 30.2482 1.71754 5.61938 0
M  V30 317 H 31.7722 0.886066 6.04137 0
M  V30 318 H 33.1862 2.88153 4.95622 0
M  V30 319 H 31.5832 3.64903 4.76409 0
M  V30 320 H 32.6532 3.49742 3.3587 0
M  V30 321 N 33.9963 -1.19345 1.0293 0
M  V30 322 C 34.9593 -2.20793 0.615069 0
M  V30 323 C 35.9593 -1.57553 -0.321533 0
M  V30 324 O 37.1493 -1.73862 -0.108483 0
M  V30 325 C 34.2813 -3.40754 -0.0999222 0
M  V30 326 H 35.4743 -2.58955 1.51269 0
M  V30 327 H 33.0273 -1.3303 0.820534 0
M  V30 328 H 33.7623 -3.0811 -1.01187 0
M  V30 329 H 33.5473 -3.87889 0.57309 0
M  V30 330 H 35.0373 -4.15898 -0.376645 0
M  V30 331 N 35.4744 -0.807222 -1.35358 0
M  V30 332 C 36.7204 -0.388463 -1.99045 0
M  V30 333 C 37.0534 1.04184 -1.63888 0
M  V30 334 O 36.3284 1.72292 -0.902535 0
M  V30 335 C 36.6114 -0.572783 -3.55515 0
M  V30 336 C 36.4644 -2.04807 -4.00468 0
M  V30 337 C 37.7834 0.00114064 -4.401 0
M  V30 338 H 34.9024 -0.142619 -0.723069 0
M  V30 339 H 37.5444 -1.01687 -1.60498 0
M  V30 340 H 35.6944 -0.0378425 -3.88482 0
M  V30 341 H 37.3664 -2.64544 -3.77908 0
M  V30 342 H 35.6094 -2.54427 -3.51353 0
M  V30 343 H 36.2804 -2.12792 -5.09337 0
M  V30 344 H 38.7564 -0.455716 -4.13597 0
M  V30 345 H 37.6324 -0.157737 -5.48673 0
M  V30 346 H 37.8934 1.09488 -4.28328 0
M  V30 347 N 36.9525 1.47285 -0.560781 0
M  V30 348 C 37.9155 2.28535 0.174488 0
M  V30 349 C 38.9155 1.37153 0.839388 0
M  V30 350 O 40.1055 1.59748 0.694702 0
M  V30 351 C 37.2375 3.16934 1.25561 0
M  V30 352 H 38.4305 2.95012 -0.539262 0
M  V30 353 H 35.9835 1.53034 -0.317865 0
M  V30 354 H 36.7185 2.55157 2.00164 0
M  V30 355 H 36.5035 3.8419 0.783604 0
M  V30 356 H 37.9935 3.78143 1.77193 0
M  V30 357 N 38.4306 0.297415 1.54768 0
M  V30 358 C 39.3806 -0.595275 2.20092 0
M  V30 359 C 40.3646 -1.10163 1.17273 0
M  V30 360 O 41.5566 -1.043 1.43006 0
M  V30 361 C 38.6856 -1.7684 2.94249 0
M  V30 362 C 37.7716 -1.27818 4.0438 0
M  V30 363 N 38.1626 -0.505695 5.03266 0
M  V30 364 C 36.4606 -1.55923 4.17857 0
M  V30 365 C 37.1616 -0.245094 5.81183 0
M  V30 366 N 36.1376 -0.823881 5.3732 0
M  V30 367 H 39.9396 0.00250837 2.939 0
M  V30 368 H 37.4536 0.102007 1.62079 0
M  V30 369 H 39.4506 -2.41944 3.39513 0
M  V30 370 H 38.1106 -2.36992 2.21957 0
M  V30 371 H 39.1216 -0.150928 5.1768 0
M  V30 372 H 35.7986 -2.16849 3.56767 0
M  V30 373 H 37.1886 0.375084 6.70852 0
M  V30 374 N 39.9087 -1.5758 0.0250728 0
M  V30 375 C 40.8587 -2.06468 -0.967201 0
M  V30 376 C 41.8427 -0.964376 -1.28797 0
M  V30 377 O 43.0347 -1.22797 -1.27475 0
M  V30 378 C 40.1637 -2.59203 -2.25097 0
M  V30 379 C 39.2497 -3.76157 -1.95874 0
M  V30 380 N 39.6407 -4.86919 -1.36905 0
M  V30 381 C 37.9387 -3.84566 -2.25887 0
M  V30 382 C 38.6397 -5.68172 -1.24724 0
M  V30 383 N 37.6157 -5.14953 -1.74138 0
M  V30 384 H 41.4177 -2.89508 -0.506176 0
M  V30 385 H 38.9317 -1.61399 -0.18004 0
M  V30 386 H 40.9287 -2.92517 -2.97052 0
M  V30 387 H 39.5887 -1.77592 -2.71829 0
M  V30 388 H 40.5997 -5.07256 -1.04459 0
M  V30 389 H 37.2767 -3.13854 -2.75321 0
M  V30 390 H 38.6667 -6.67221 -0.791605 0
M  V30 391 N 41.3868 0.248026 -1.55636 0
M  V30 392 C 42.3168 1.31079 -1.93237 0
M  V30 393 C 43.2978 1.50264 -0.797174 0
M  V30 394 O 44.4828 1.62891 -1.05737 0
M  V30 395 C 41.6128 2.66575 -2.22609 0
M  V30 396 C 40.5668 2.62087 -3.3837 0
M  V30 397 C 39.8928 4.01369 -3.53281 0
M  V30 398 C 41.1928 2.19171 -4.7409 0
M  V30 399 H 42.8868 0.998556 -2.82257 0
M  V30 400 H 40.4328 0.47891 -1.35803 0
M  V30 401 H 42.3858 3.41057 -2.47503 0
M  V30 402 H 41.1098 2.99432 -1.30414 0
M  V30 403 H 39.7688 1.90063 -3.13483 0
M  V30 404 H 39.4168 4.31489 -2.58508 0
M  V30 405 H 39.1168 3.99254 -4.31127 0
M  V30 406 H 40.6408 4.77552 -3.80495 0
M  V30 407 H 42.0548 2.83384 -4.98363 0
M  V30 408 H 40.4518 2.2817 -5.5503 0
M  V30 409 H 41.5218 1.14336 -4.71227 0
M  V30 410 N 42.8649 1.48995 0.513639 0
M  V30 411 C 43.7979 1.59319 1.63379 0
M  V30 412 C 44.7759 0.442816 1.56454 0
M  V30 413 O 45.9599 0.656655 1.76693 0
M  V30 414 C 43.0869 1.5364 3.01848 0
M  V30 415 C 42.1329 2.7372 3.27078 0
M  V30 416 S 42.9659 4.35528 3.1157 0
M  V30 417 C 44.1219 4.32473 4.52458 0
M  V30 418 H 44.3549 2.54079 1.54374 0
M  V30 419 H 41.8879 1.3773 0.697849 0
M  V30 420 H 43.8459 1.51049 3.81699 0
M  V30 421 H 42.5069 0.601898 3.08279 0
M  V30 422 H 41.6999 2.6593 4.28132 0
M  V30 423 H 41.3019 2.73657 2.54927 0
M  V30 424 H 43.5939 4.03414 5.44301 0
M  V30 425 H 44.5369 5.33762 4.65299 0
M  V30 426 H 44.9449 3.62718 4.32546 0
M  V30 427 N 44.343 -0.763751 1.37857 0
M  V30 428 C 45.306 -1.85889 1.34081 0
M  V30 429 C 46.306 -1.58949 0.243277 0
M  V30 430 O 47.496 -1.66882 0.499589 0
M  V30 431 C 44.628 -3.23176 1.08489 0
M  V30 432 H 45.821 -1.90648 2.31502 0
M  V30 433 H 43.374 -0.964367 1.23003 0
M  V30 434 H 44.109 -3.24091 0.116318 0
M  V30 435 H 43.894 -3.44124 1.8794 0
M  V30 436 H 45.384 -4.03254 1.08517 0
M  V30 437 N 45.8211 -1.22559 -0.990812 0
M  V30 438 C 46.7531 -0.955325 -2.08342 0
M  V30 439 C 47.7661 0.0668408 -1.62663 0
M  V30 440 O 48.9551 -0.167421 -1.77713 0
M  V30 441 C 46.0551 -0.415566 -3.36342 0
M  V30 442 C 45.2281 -1.49544 -4.11042 0
M  V30 443 C 44.2871 -0.962399 -5.17324 0
M  V30 444 O 43.3131 -1.64907 -5.44788 0
M  V30 445 N 44.5151 0.215134 -5.80101 0
M  V30 446 H 47.2801 -1.89596 -2.32106 0
M  V30 447 H 44.8411 -1.13276 -1.15673 0
M  V30 448 H 46.8331 -0.0442386 -4.04676 0
M  V30 449 H 45.4031 0.430232 -3.09625 0
M  V30 450 H 44.6231 -2.04 -3.37309 0
M  V30 451 H 45.9111 -2.22195 -4.57719 0
M  V30 452 H 45.3091 0.789779 -5.6016 0
M  V30 453 H 43.8661 0.527826 -6.49659 0
M  V30 454 N 47.2992 1.18797 -1.03562 0
M  V30 455 C 48.5472 1.88278 -0.734569 0
M  V30 456 C 48.8682 1.8043 0.739586 0
M  V30 457 O 48.1382 1.21925 1.53333 0
M  V30 458 H 46.7182 0.696991 -0.268725 0
M  V30 459 H 49.3802 1.44192 -1.31129 0
M  V30 460 H 48.4762 2.94443 -1.03489 0
M  V30 461 N 48.7773 0.814389 1.34928 0
M  V30 462 C 50.0233 0.408167 1.99263 0
M  V30 463 C 50.3783 -1.0154 1.63424 0
M  V30 464 O 49.6713 -1.69607 0.891289 0
M  V30 465 C 49.8653 0.537781 3.53331 0
M  V30 466 C 49.6943 1.9724 4.04137 0
M  V30 467 C 48.4643 2.60245 4.33129 0
M  V30 468 C 50.6623 2.93801 4.2212 0
M  V30 469 N 48.6443 3.95036 4.69914 0
M  V30 470 C 50.0153 4.1348 4.6199 0
M  V30 471 C 52.0703 2.9053 4.04348 0
M  V30 472 C 50.7733 5.3033 4.85945 0
M  V30 473 C 52.7993 4.06589 4.29464 0
M  V30 474 C 52.1613 5.25017 4.69613 0
M  V30 475 H 48.2603 0.197289 0.756704 0
M  V30 476 H 50.8443 1.05728 1.63492 0
M  V30 477 H 49.0153 -0.0813868 3.88315 0
M  V30 478 H 50.7473 0.105389 4.04563 0
M  V30 479 H 47.5023 2.11545 4.23728 0
M  V30 480 H 47.9263 4.64455 4.92555 0
M  V30 481 H 52.5683 2.00115 3.72443 0
M  V30 482 H 50.2863 6.21309 5.16721 0
M  V30 483 H 53.8723 4.05447 4.17257 0
M  V30 484 H 52.7523 6.1333 4.88667 0
M  V30 485 N 50.2554 -1.46986 0.568584 0
M  V30 486 C 51.1874 -2.28233 -0.210337 0
M  V30 487 C 52.2004 -1.37682 -0.868767 0
M  V30 488 O 53.3894 -1.62406 -0.740705 0
M  V30 489 C 50.4894 -3.12293 -1.3163 0
M  V30 490 C 49.6624 -4.30878 -0.7525 0
M  V30 491 C 48.7214 -4.96445 -1.74439 0
M  V30 492 O 47.7474 -5.54482 -1.286 0
M  V30 493 N 48.9494 -4.92171 -3.07812 0
M  V30 494 H 51.7144 -2.95723 0.486648 0
M  V30 495 H 49.2754 -1.56742 0.405409 0
M  V30 496 H 51.2674 -3.53022 -1.97883 0
M  V30 497 H 49.8374 -2.46971 -1.91636 0
M  V30 498 H 49.0574 -3.94104 0.0871128 0
M  V30 499 H 50.3454 -5.07558 -0.35536 0
M  V30 500 H 49.7434 -4.46239 -3.47688 0
M  V30 501 H 48.3004 -5.36884 -3.69592 0
M  V30 502 N 51.7335 -0.305618 -1.54608 0
M  V30 503 C 52.9795 0.302746 -2.00528 0
M  V30 504 C 53.3125 1.53184 -1.19367 0
M  V30 505 O 52.5875 1.92598 -0.271321 0
M  V30 506 C 52.8705 0.654756 -3.54097 0
M  V30 507 C 52.7235 -0.583793 -4.45995 0
M  V30 508 C 54.0425 1.47947 -4.14487 0
M  V30 509 H 51.1615 0.108564 -0.72896 0
M  V30 510 H 53.8035 -0.418634 -1.85331 0
M  V30 511 H 51.9535 1.26935 -3.67178 0
M  V30 512 H 53.6255 -1.22224 -4.44814 0
M  V30 513 H 51.8685 -1.21615 -4.16404 0
M  V30 514 H 52.5395 -0.293287 -5.5122 0
M  V30 515 H 55.0155 0.96013 -4.04871 0
M  V30 516 H 53.8915 1.69454 -5.22088 0
M  V30 517 H 54.1525 2.47011 -3.66658 0
M  V30 518 N 53.2116 1.57565 -0.0334293 0
M  V30 519 C 54.6276 1.56297 0.322997 0
M  V30 520 C 54.8276 1.03945 1.7262 0
M  V30 521 O 53.8836 0.688109 2.42943 0
M  V30 522 C 55.1966 3.00232 0.167664 0
M  V30 523 C 56.7446 3.12078 0.240107 0
M  V30 524 C 57.2196 4.57859 0.113513 0
M  V30 525 N 58.7106 4.62887 0.170359 0
M  V30 526 C 59.4456 5.73319 0.0962517 0
M  V30 527 N 58.9416 6.92794 -0.0291881 0
M  V30 528 N 60.7346 5.61898 0.150551 0
M  V30 529 H 52.8856 1.89923 -0.950956 0
M  V30 530 H 55.1486 0.873824 -0.367608 0
M  V30 531 H 54.8546 3.42501 -0.799102 0
M  V30 532 H 54.7286 3.654 0.936083 0
M  V30 533 H 57.1156 2.69718 1.19733 0
M  V30 534 H 57.1966 2.49623 -0.558763 0
M  V30 535 H 56.8406 5.009 -0.840314 0
M  V30 536 H 56.7706 5.18299 0.931302 0
M  V30 537 H 59.2616 3.76954 0.26728 0
M  V30 538 H 59.5746 7.7276 -0.0789252 0
M  V30 539 H 57.9196 6.94971 -0.0640299 0
M  V30 540 H 61.1106 4.67448 0.246981 0
M  V30 541 H 61.2836 6.47938 0.0893365 0
M  V30 542 N 54.6897 -0.239769 1.55765 0
M  V30 543 C 55.9357 -0.963942 1.79108 0
M  V30 544 C 56.2907 -1.82689 0.60352 0
M  V30 545 O 55.5837 -1.87313 -0.403033 0
M  V30 546 C 55.7777 -1.852 3.05672 0
M  V30 547 C 55.6067 -1.07651 4.36625 0
M  V30 548 C 54.3767 -0.778738 4.99263 0
M  V30 549 C 56.5747 -0.45062 5.12322 0
M  V30 550 N 54.5567 0.0200708 6.13897 0
M  V30 551 C 55.9277 0.212429 6.19636 0
M  V30 552 C 57.9827 -0.361806 4.96584 0
M  V30 553 C 56.6857 0.955772 7.12922 0
M  V30 554 C 58.7117 0.368023 5.90254 0
M  V30 555 C 58.0737 1.01968 6.96981 0
M  V30 556 H 54.1727 -0.333601 0.707272 0
M  V30 557 H 56.7567 -0.236425 1.93259 0
M  V30 558 H 54.9277 -2.55149 2.92837 0
M  V30 559 H 56.6597 -2.51228 3.1728 0
M  V30 560 H 53.4147 -1.09229 4.60832 0
M  V30 561 H 53.8387 0.407777 6.75771 0
M  V30 562 H 58.4807 -0.851286 4.14141 0
M  V30 563 H 56.1987 1.45683 7.9486 0
M  V30 564 H 59.7847 0.437504 5.80153 0
M  V30 565 H 58.6647 1.5754 7.68213 0
M  V30 566 N 56.1678 -1.49265 -0.50573 0
M  V30 567 C 57.0978 -1.68495 -1.61653 0
M  V30 568 C 58.0788 -0.53366 -1.61512 0
M  V30 569 O 59.2638 -0.76897 -1.78327 0
M  V30 570 C 56.3938 -1.74709 -3.00157 0
M  V30 571 C 55.3478 -2.89581 -3.15162 0
M  V30 572 C 54.6738 -2.80903 -4.5497 0
M  V30 573 C 55.9738 -4.30578 -2.95634 0
M  V30 574 H 57.6678 -2.61493 -1.45814 0
M  V30 575 H 55.2138 -1.25838 -0.70005 0
M  V30 576 H 57.1668 -1.86748 -3.77761 0
M  V30 577 H 55.8908 -0.783067 -3.17074 0
M  V30 578 H 54.5498 -2.77136 -2.39982 0
M  V30 579 H 54.1978 -1.82419 -4.68756 0
M  V30 580 H 53.8978 -3.57999 -4.65951 0
M  V30 581 H 55.4218 -2.94944 -5.34641 0
M  V30 582 H 56.8358 -4.4373 -3.63011 0
M  V30 583 H 55.2328 -5.0886 -3.18091 0
M  V30 584 H 56.3028 -4.45352 -1.91806 0
M  V30 585 N 57.6459 0.756429 -1.3826 0
M  V30 586 C 58.8939 1.51248 -1.34047 0
M  V30 587 C 59.2149 1.94875 0.0698372 0
M  V30 588 O 58.4849 1.67436 1.01696 0
M  V30 589 H 57.0649 0.561018 -0.493222 0
M  V30 590 H 59.7269 0.899347 -1.7291 0
M  V30 591 H 58.8229 2.40472 -1.98947 0
M  V30 592 N 59.124 1.23083 0.984299 0
M  V30 593 C 60.352 1.08714 1.76037 0
M  V30 594 C 60.767 -0.361691 1.85303 0
M  V30 595 O 60.124 -1.25034 1.32939 0
M  V30 596 C 60.175 1.70206 3.18923 0
M  V30 597 O 59.896 3.09423 3.10144 0
M  V30 598 C 61.397 1.61227 4.12941 0
M  V30 599 H 58.617 0.380664 0.552572 0
M  V30 600 H 61.161 1.62853 1.23689 0
M  V30 601 H 59.316 1.20109 3.6831 0
M  V30 602 H 59.73 3.39188 4.00065 0
M  V30 603 H 61.204 2.08962 5.10919 0
M  V30 604 H 61.681 0.570375 4.35481 0
M  V30 605 H 62.287 2.10671 3.69456 0
M  V30 606 N 60.6021 -1.18246 1.0419 0
M  V30 607 C 61.5651 -2.20128 0.638452 0
M  V30 608 C 62.5651 -1.57885 -0.304805 0
M  V30 609 O 63.7551 -1.73967 -0.0900369 0
M  V30 610 C 60.8871 -3.4084 -0.0637751 0
M  V30 611 H 62.0801 -2.57336 1.54007 0
M  V30 612 H 59.6331 -1.32152 0.834598 0
M  V30 613 H 60.3681 -3.09166 -0.979136 0
M  V30 614 H 60.1531 -3.8726 0.614198 0
M  V30 615 H 61.6431 -4.16274 -0.332512 0
M  V30 616 N 62.0802 -0.821533 -1.34494 0
M  V30 617 C 63.3572 -0.33159 -1.92769 0
M  V30 618 C 63.7372 1.18088 -1.74981 0
M  V30 619 O 63.0852 1.98733 -1.12772 0
M  V30 620 C 63.2952 -0.759398 -3.40638 0
M  V30 621 C 64.6432 -0.757433 -4.1779 0
M  V30 622 O 65.6672 -0.70189 -3.49216 0
M  V30 623 O 64.5262 -0.829361 -5.4017 0
M  V30 624 H 61.6202 -0.0902502 -0.822061 0
M  V30 625 H 64.1662 -0.906231 -1.43477 0
M  V30 626 H 62.9382 -1.8012 -3.47379 0
M  V30 627 H 62.5612 -0.160378 -3.97276 0
M  V30 628 N 63.5583 1.46682 -0.576371 0
M  V30 629 C 64.9743 1.57822 -0.237562 0
M  V30 630 C 65.1743 1.57237 1.26011 0
M  V30 631 O 64.2303 1.48596 2.04146 0
M  V30 632 C 65.5433 2.87499 -0.881168 0
M  V30 633 C 67.0913 3.01119 -0.85417 0
M  V30 634 C 67.5663 4.33524 -1.4772 0
M  V30 635 N 69.0573 4.40207 -1.44125 0
M  V30 636 C 69.7923 5.4126 -1.89276 0
M  V30 637 N 69.2883 6.49021 -2.42371 0
M  V30 638 N 71.0813 5.32422 -1.80231 0
M  V30 639 H 63.2323 1.45306 -1.54919 0
M  V30 640 H 65.4953 0.692733 -0.647167 0
M  V30 641 H 65.2013 2.9372 -1.93447 0
M  V30 642 H 65.0753 3.75224 -0.385592 0
M  V30 643 H 67.4623 2.94485 0.190491 0
M  V30 644 H 67.5433 2.14887 -1.3877 0
M  V30 645 H 67.1873 4.40916 -2.52103 0
M  V30 646 H 67.1173 5.1852 -0.918947 0
M  V30 647 H 69.6083 3.62931 -1.05307 0
M  V30 648 H 69.9213 7.2233 -2.74698 0
M  V30 649 H 68.2663 6.49858 -2.46393 0
M  V30 650 H 71.4573 4.47137 -1.38514 0
M  V30 651 H 71.6303 6.11034 -2.15735 0
M  V30 652 N 65.0364 0.313813 1.54444 0
M  V30 653 C 65.9694 -0.598866 2.20202 0
M  V30 654 C 66.9474 -1.12318 1.17573 0
M  V30 655 O 68.1314 -1.18899 1.46271 0
M  V30 656 C 65.2584 -1.82071 2.85601 0
M  V30 657 C 64.3044 -1.42851 4.01865 0
M  V30 658 S 65.1374 -0.473512 5.33402 0
M  V30 659 C 66.2934 -1.70286 6.0229 0
M  V30 660 H 66.5264 -0.0402532 2.97273 0
M  V30 661 H 64.0594 0.0979165 1.54089 0
M  V30 662 H 66.0174 -2.52184 3.23904 0
M  V30 663 H 64.6784 -2.3505 2.08351 0
M  V30 664 H 63.8714 -2.33871 4.46453 0
M  V30 665 H 63.4734 -0.807198 3.65185 0
M  V30 666 H 65.7654 -2.64168 6.23876 0
M  V30 667 H 66.7084 -1.29932 6.96077 0
M  V30 668 H 67.1164 -1.88541 5.32083 0
M  V30 669 N 66.5145 -1.57545 0.0417849 0
M  V30 670 C 67.4245 -2.14451 -0.951213 0
M  V30 671 C 68.4405 -1.09992 -1.34825 0
M  V30 672 O 69.6165 -1.42114 -1.42708 0
M  V30 673 C 66.6815 -2.67063 -2.21084 0
M  V30 674 C 65.7425 -3.86284 -1.87304 0
M  V30 675 C 64.9755 -4.36378 -3.07261 0
M  V30 676 O 65.1985 -3.85587 -4.20332 0
M  V30 677 O 64.1325 -5.28077 -2.88822 0
M  V30 678 H 67.9585 -2.99601 -0.497287 0
M  V30 679 H 65.5435 -1.48317 -0.179567 0
M  V30 680 H 67.4255 -3.00914 -2.95006 0
M  V30 681 H 66.1005 -1.84989 -2.65633 0
M  V30 682 H 65.0075 -3.57338 -1.10727 0
M  V30 683 H 66.3405 -4.6956 -1.47562 0
M  V30 684 N 67.9926 0.231505 -1.5589 0
M  V30 685 C 68.9556 1.27028 -1.90779 0
M  V30 686 C 69.9556 1.40308 -0.785507 0
M  V30 687 O 71.1456 1.38744 -1.05336 0
M  V30 688 C 68.2776 2.64566 -2.14983 0
M  V30 689 H 69.4706 0.973017 -2.83677 0
M  V30 690 H 67.0236 0.471486 -1.49019 0
M  V30 691 H 67.7586 2.99406 -1.24604 0
M  V30 692 H 67.5436 2.56305 -2.96732 0
M  V30 693 H 69.0336 3.39543 -2.43105 0
M  V30 694 N 69.4707 1.49531 0.497807 0
M  V30 695 C 70.7477 1.49682 1.25915 0
M  V30 696 C 71.1277 0.226339 2.09883 0
M  V30 697 O 70.4757 -0.791189 2.14365 0
M  V30 698 C 70.6857 2.77755 2.11313 0
M  V30 699 C 72.0337 3.27371 2.70395 0
M  V30 700 O 73.0577 2.78894 2.21578 0
M  V30 701 O 71.9167 4.11808 3.59272 0
M  V30 702 H 69.0107 0.599228 0.56996 0
M  V30 703 H 71.5567 1.61798 0.511816 0
M  V30 704 H 70.3287 3.61713 1.49264 0
M  V30 705 H 69.9517 2.68515 2.93233 0
M  V30 706 N 70.9488 -0.749086 1.3866 0
M  V30 707 C 71.8788 -1.8764 1.38973 0
M  V30 708 C 72.8598 -1.68178 0.255004 0
M  V30 709 O 74.0448 -1.88704 0.458754 0
M  V30 710 C 71.1748 -3.25222 1.21851 0
M  V30 711 C 70.1288 -3.59295 2.32575 0
M  V30 712 C 69.4548 -4.95663 2.00555 0
M  V30 713 C 70.7548 -3.63709 3.7485 0
M  V30 714 H 72.4488 -1.87635 2.3331 0
M  V30 715 H 69.9948 -0.901329 1.12303 0
M  V30 716 H 71.9478 -4.03746 1.20695 0
M  V30 717 H 70.6718 -3.25719 0.239775 0
M  V30 718 H 69.3308 -2.83093 2.32925 0
M  V30 719 H 68.9788 -4.92724 1.01154 0
M  V30 720 H 68.6788 -5.19429 2.74714 0
M  V30 721 H 70.2028 -5.7656 2.01024 0
M  V30 722 H 71.6168 -4.32338 3.76506 0
M  V30 723 H 70.0138 -3.98986 4.48252 0
M  V30 724 H 71.0838 -2.63834 4.06841 0
M  V30 725 N 72.4269 -1.23603 -0.977757 0
M  V30 726 C 73.6729 -1.07129 -1.72195 0
M  V30 727 C 74.0059 0.390501 -1.90233 0
M  V30 728 O 73.2809 1.28902 -1.45653 0
M  V30 729 C 73.5639 -1.80031 -3.11867 0
M  V30 730 C 73.4169 -3.33899 -3.01383 0
M  V30 731 C 74.7359 -1.56492 -4.11337 0
M  V30 732 H 71.8549 -0.390571 -0.624999 0
M  V30 733 H 74.4969 -1.52142 -1.13811 0
M  V30 734 H 72.6469 -1.41768 -3.6171 0
M  V30 735 H 74.3189 -3.81699 -2.59043 0
M  V30 736 H 72.5619 -3.62796 -2.37827 0
M  V30 737 H 73.2329 -3.801 -4.00285 0
M  V30 738 H 75.7089 -1.89757 -3.70313 0
M  V30 739 H 74.5849 -2.09973 -5.07151 0
M  V30 740 H 74.8459 -0.500874 -4.39254 0
M  V30 741 N 73.905 1.17692 -1.04816 0
M  V30 742 C 75.316 1.69501 -0.782698 0
M  V30 743 C 75.667 1.83456 0.695577 0
M  V30 744 O 74.792 1.51942 1.54086 0
M  V30 745 C 75.387 3.07874 -1.41419 0
M  V30 746 C 73.946 3.56864 -1.19686 0
M  V30 747 C 73.093 2.3322 -1.50012 0
M  V30 748 H 76.044 1.02262 -1.2136 0
M  V30 749 H 76.065 3.71528 -0.821428 0
M  V30 750 H 75.577 2.97685 -2.49009 0
M  V30 751 H 73.678 3.72337 -0.140043 0
M  V30 752 H 73.791 4.39851 -1.89916 0
M  V30 753 H 72.155 2.37501 -0.920071 0
M  V30 754 H 72.938 2.25644 -2.58727 0
M  V30 755 N 75.3831 0.828654 1.34056 0
M  V30 756 C 76.3301 0.252567 2.29414 0
M  V30 757 C 77.3001 -0.62588 1.53857 0
M  V30 758 O 78.4851 -0.566312 1.82202 0
M  V30 759 C 75.6251 -0.574831 3.40279 0
M  V30 760 C 74.7381 0.326499 4.30764 0
M  V30 761 C 73.8731 -0.511016 5.28736 0
M  V30 762 C 72.9121 0.389342 6.1086 0
M  V30 763 N 72.0491 -0.409439 7.00905 0
M  V30 764 H 76.8891 1.07108 2.78086 0
M  V30 765 H 74.4261 0.539677 1.36843 0
M  V30 766 H 76.3841 -1.06992 4.03248 0
M  V30 767 H 75.0141 -1.35841 2.92826 0
M  V30 768 H 74.0661 0.939837 3.68607 0
M  V30 769 H 75.3781 1.01857 4.88289 0
M  V30 770 H 74.5321 -1.07035 5.97184 0
M  V30 771 H 73.2711 -1.23657 4.71763 0
M  V30 772 H 72.2761 0.960769 5.4134 0
M  V30 773 H 73.5011 1.1131 6.69916 0
M  V30 774 H 71.4471 -1.11856 6.46393 0
M  V30 775 H 71.3641 0.224126 7.55668 0
M  V30 776 H 72.6321 -0.951336 7.73673 0
M  V30 777 N 76.8612 -1.46375 0.584142 0
M  V30 778 C 77.8112 -2.27371 -0.169232 0
M  V30 779 C 78.7952 -1.35955 -0.860523 0
M  V30 780 O 79.9872 -1.60119 -0.754382 0
M  V30 781 C 77.1162 -3.22334 -1.18134 0
M  V30 782 C 76.2022 -4.21235 -0.492088 0
M  V30 783 N 76.5932 -5.03766 0.453129 0
M  V30 784 C 74.8912 -4.39773 -0.742652 0
M  V30 785 C 75.5922 -5.75366 0.85609 0
M  V30 786 N 74.5682 -5.43214 0.204926 0
M  V30 787 H 78.3702 -2.88572 0.557097 0
M  V30 788 H 75.8842 -1.57242 0.406042 0
M  V30 789 H 77.8812 -3.79071 -1.73525 0
M  V30 790 H 76.5412 -2.62693 -1.90847 0
M  V30 791 H 77.5522 -5.11227 0.828723 0
M  V30 792 H 74.2292 -3.91279 -1.45625 0
M  V30 793 H 75.6192 -6.5172 1.63434 0
M  V30 794 N 78.3393 -0.321999 -1.54275 0
M  V30 795 C 79.5873 0.280489 -2.00144 0
M  V30 796 C 79.9083 1.52777 -1.21178 0
M  V30 797 O 79.1783 1.9338 -0.313187 0
M  V30 798 H 77.7583 0.106632 -0.73935 0
M  V30 799 H 80.4203 -0.438184 -1.8991 0
M  V30 800 H 79.5163 0.537972 -3.07428 0
M  V30 801 N 79.8174 1.5752 -0.0501392 0
M  V30 802 C 81.0664 1.91827 0.623328 0
M  V30 803 C 81.3794 0.930222 1.72065 0
M  V30 804 O 82.5854 1.1653 2.4522 0
M  V30 805 C 81.0414 3.40692 1.16003 0
M  V30 806 C 80.6494 4.479 0.0948811 0
M  V30 807 C 82.3934 3.84034 1.80881 0
M  V30 808 C 80.3004 5.87879 0.644411 0
M  V30 809 H 79.2304 0.715918 0.236596 0
M  V30 810 H 81.8814 1.83115 -0.118861 0
M  V30 811 H 80.2634 3.44405 1.9545 0
M  V30 812 H 81.4374 4.55775 -0.678675 0
M  V30 813 H 79.7524 4.13892 -0.45637 0
M  V30 814 H 82.3494 4.85984 2.22988 0
M  V30 815 H 82.6924 3.20225 2.6601 0
M  V30 816 H 83.2254 3.82833 1.0809 0
M  V30 817 H 79.9644 6.55282 -0.169229 0
M  V30 818 H 79.4844 5.83567 1.38598 0
M  V30 819 H 81.1634 6.37098 1.12763 0
M  V30 820 N 81.2955 -0.223234 1.56011 0
M  V30 821 C 82.2055 -1.29766 1.95443 0
M  V30 822 C 83.2215 -1.51373 0.858028 0
M  V30 823 O 84.3975 -1.64536 1.16146 0
M  V30 824 C 81.4625 -2.62772 2.26167 0
M  V30 825 C 80.5235 -2.49482 3.49367 0
M  V30 826 C 79.7565 -3.76145 3.78616 0
M  V30 827 O 79.9795 -4.79087 3.09568 0
M  V30 828 O 78.9135 -3.73358 4.72109 0
M  V30 829 H 82.7395 -0.99309 2.87004 0
M  V30 830 H 80.3245 -0.425958 1.43199 0
M  V30 831 H 82.2065 -3.41327 2.47131 0
M  V30 832 H 80.8815 -2.92913 1.37781 0
M  V30 833 H 79.7885 -1.69133 3.33684 0
M  V30 834 H 81.1215 -2.2428 4.38131 0
M  V30 835 N 82.7736 -1.49793 -0.48987 0
M  V30 836 C 84.0226 -1.59085 -1.23995 0
M  V30 837 C 84.3356 -0.287907 -1.9347 0
M  V30 838 O 85.5416 -0.259506 -2.70257 0
M  V30 839 C 83.9976 -2.80736 -2.252 0
M  V30 840 C 83.6056 -4.17833 -1.61614 0
M  V30 841 C 85.3496 -2.99364 -3.00967 0
M  V30 842 C 83.2566 -5.30693 -2.60996 0
M  V30 843 H 82.1866 -0.592372 -0.466488 0
M  V30 844 H 84.8376 -1.76197 -0.51252 0
M  V30 845 H 83.2196 -2.57142 -3.01154 0
M  V30 846 H 84.3936 -4.51608 -0.915774 0
M  V30 847 H 82.7086 -4.04656 -0.981977 0
M  V30 848 H 85.3056 -3.80851 -3.75308 0
M  V30 849 H 85.6486 -2.10356 -3.59244 0
M  V30 850 H 86.1816 -3.2305 -2.32128 0
M  V30 851 H 82.9206 -6.21796 -2.07485 0
M  V30 852 H 82.4406 -5.01359 -3.2924 0
M  V30 853 H 84.1196 -5.6049 -3.23202 0
M  V30 854 N 84.2517 0.741722 -1.39055 0
M  V30 855 C 85.5287 1.49252 -1.26425 0
M  V30 856 C 85.9087 2.10705 0.129144 0
M  V30 857 O 85.2567 1.98045 1.13976 0
M  V30 858 C 85.4667 2.54934 -2.38347 0
M  V30 859 C 86.8147 3.21506 -2.77343 0
M  V30 860 O 87.8387 2.65245 -2.37747 0
M  V30 861 O 86.6977 4.23294 -3.45665 0
M  V30 862 H 83.7917 0.662451 -0.495064 0
M  V30 863 H 86.3377 0.776121 -1.50912 0
M  V30 864 H 85.1097 2.07857 -3.31529 0
M  V30 865 H 84.7327 3.34141 -2.15489 0
M  V30 866 N 85.7298 1.2412 0.971189 0
M  V30 867 C 86.9768 1.07881 1.71371 0
M  V30 868 C 87.3048 -0.382901 1.90694 0
M  V30 869 O 86.5598 -1.29945 1.46331 0
M  V30 870 C 86.8588 1.75983 3.11071 0
M  V30 871 C 86.5248 3.25909 3.11599 0
M  V30 872 C 85.1868 3.66813 3.11451 0
M  V30 873 C 87.5388 4.21771 3.062 0
M  V30 874 C 84.8668 5.02021 3.03631 0
M  V30 875 C 87.2188 5.56982 2.99923 0
M  V30 876 C 85.8828 5.97237 2.98102 0
M  V30 877 H 85.1528 0.394764 0.62709 0
M  V30 878 H 87.7998 1.54176 1.13587 0
M  V30 879 H 86.1048 1.22072 3.72298 0
M  V30 880 H 87.8018 1.60887 3.6731 0
M  V30 881 H 84.3918 2.93353 3.12477 0
M  V30 882 H 88.5758 3.91172 3.05447 0
M  V30 883 H 83.8318 5.32411 3.0058 0
M  V30 884 H 88.0058 6.30969 2.94704 0
M  V30 885 H 85.6328 7.01967 2.91798 0
M  V30 886 N 87.2079 -1.17134 1.05439 0
M  V30 887 C 88.4569 -1.86791 0.761049 0
M  V30 888 C 88.7699 -1.82072 -0.714795 0
M  V30 889 O 89.9759 -2.47223 -1.12218 0
M  V30 890 C 88.4319 -3.35166 1.31117 0
M  V30 891 C 88.0399 -3.48381 2.81664 0
M  V30 892 C 89.7839 -4.10134 1.09499 0
M  V30 893 C 87.6909 -4.90793 3.29964 0
M  V30 894 H 86.6209 -0.699681 0.281002 0
M  V30 895 H 89.2719 -1.3226 1.27199 0
M  V30 896 H 87.6539 -3.8925 0.72803 0
M  V30 897 H 88.8279 -3.04502 3.45855 0
M  V30 898 H 87.1429 -2.86836 3.01851 0
M  V30 899 H 89.7399 -5.152 1.43084 0
M  V30 900 H 90.0829 -4.16287 0.0328772 0
M  V30 901 H 90.6159 -3.62264 1.64346 0
M  V30 902 H 87.3549 -4.89816 4.35616 0
M  V30 903 H 86.8749 -5.35333 2.70516 0
M  V30 904 H 88.5539 -5.59573 3.24787 0
M  V30 905 N 88.686 -0.835752 -1.33615 0
M  V30 906 C 90.102 -0.523139 -1.50783 0
M  V30 907 C 90.302 0.950171 -1.77691 0
M  V30 908 O 89.358 1.73411 -1.83534 0
M  V30 909 C 90.671 -1.39378 -2.66448 0
M  V30 910 C 92.219 -1.39223 -2.80332 0
M  V30 911 C 92.694 -2.24765 -3.99055 0
M  V30 912 N 94.185 -2.22458 -4.06284 0
M  V30 913 C 94.92 -2.85386 -4.97336 0
M  V30 914 N 94.416 -3.57354 -5.93523 0
M  V30 915 N 96.209 -2.74872 -4.90308 0
M  V30 916 H 88.36 -1.78952 -1.14411 0
M  V30 917 H 90.623 -0.763297 -0.562212 0
M  V30 918 H 90.329 -2.44061 -2.53234 0
M  V30 919 H 90.203 -1.0676 -3.61776 0
M  V30 920 H 92.59 -0.353136 -2.92979 0
M  V30 921 H 92.671 -1.75846 -1.85773 0
M  V30 922 H 92.315 -3.28732 -3.87167 0
M  V30 923 H 92.245 -1.85485 -4.92852 0
M  V30 924 H 94.736 -1.70119 -3.37443 0
M  V30 925 H 95.049 -4.02584 -6.59656 0
M  V30 926 H 93.394 -3.61461 -5.93608 0
M  V30 927 H 96.585 -2.18213 -4.14126 0
M  V30 928 H 96.758 -3.24199 -5.61069 0
M  V30 929 N 90.1641 1.46063 -0.591896 0
M  V30 930 C 91.4131 2.01547 -0.0786637 0
M  V30 931 C 91.7261 1.46796 1.29268 0
M  V30 932 O 92.9321 1.94157 1.89777 0
M  V30 933 C 91.3881 3.59787 -0.0900024 0
M  V30 934 C 90.9961 4.23534 -1.46023 0
M  V30 935 C 92.7401 4.22895 0.368806 0
M  V30 936 C 90.6471 5.73881 -1.4288 0
M  V30 937 H 89.5771 0.753564 -0.0256388 0
M  V30 938 H 92.2281 1.677 -0.744905 0
M  V30 939 H 90.6101 3.90752 0.642586 0
M  V30 940 H 91.7841 4.04167 -2.21328 0
M  V30 941 H 90.0991 3.72558 -1.85982 0
M  V30 942 H 92.6961 5.33116 0.411258 0
M  V30 943 H 93.0391 3.9247 1.38827 0
M  V30 944 H 93.5721 3.9659 -0.31001 0
M  V30 945 H 90.3111 6.0898 -2.42536 0
M  V30 946 H 89.8311 5.95486 -0.718095 0
M  V30 947 H 91.5101 6.36776 -1.14565 0
M  V30 948 N 91.6422 0.330177 1.54103 0
M  V30 949 C 92.8672 -0.274893 2.0557 0
M  V30 950 C 93.2922 -1.44487 1.20437 0
M  V30 951 O 92.6502 -1.80021 0.214991 0
M  V30 952 C 92.6982 -0.68079 3.54115 0
M  V30 953 O 91.8022 -1.7824 3.71893 0
M  V30 954 H 91.1432 -0.0483849 0.662235 0
M  V30 955 H 93.6732 0.480508 1.98878 0
M  V30 956 H 93.6832 -0.961635 3.96505 0
M  V30 957 H 92.3582 0.174903 4.15532 0
M  V30 958 H 90.9352 -1.49985 3.41407 0
M  V30 959 N 93.1203 -1.57491 0.0584922 0
M  V30 960 C 94.3683 -1.92597 -0.612436 0
M  V30 961 C 94.6893 -0.938162 -1.70949 0
M  V30 962 O 93.9593 0.0158301 -1.95894 0
M  V30 963 H 92.5393 -0.710964 -0.229214 0
M  V30 964 H 95.2013 -1.94571 0.113218 0
M  V30 965 H 94.2973 -2.94038 -1.04633 0
M  V30 966 N 94.5984 0.214957 -1.56127 0
M  V30 967 C 95.5284 1.2695 -1.95974 0
M  V30 968 C 96.5094 1.48539 -0.828868 0
M  V30 969 O 97.6944 1.60611 -1.09168 0
M  V30 970 C 94.8244 2.61794 -2.28214 0
M  V30 971 C 93.7784 2.54851 -3.43853 0
M  V30 972 C 93.1044 3.93785 -3.61715 0
M  V30 973 C 94.4044 2.09065 -4.78632 0
M  V30 974 H 96.0984 0.93846 -2.84312 0
M  V30 975 H 93.6444 0.449996 -1.36788 0
M  V30 976 H 95.5974 3.35731 -2.54682 0
M  V30 977 H 94.3214 2.96599 -1.36736 0
M  V30 978 H 92.9804 1.8337 -3.17444 0
M  V30 979 H 92.6284 4.25908 -2.67602 0
M  V30 980 H 92.3284 3.90019 -4.39498 0
M  V30 981 H 93.8524 4.69374 -3.90539 0
M  V30 982 H 95.2664 2.7275 -5.04262 0
M  V30 983 H 93.6634 2.16346 -5.59745 0
M  V30 984 H 94.7334 1.04315 -4.73547 0
M  V30 985 N 96.0765 1.50051 0.48192 0
M  V30 986 C 97.4925 1.37237 0.814756 0
M  V30 987 C 97.6925 0.420109 1.97072 0
M  V30 988 O 96.7485 -0.141246 2.52105 0
M  V30 989 C 98.0615 2.78375 1.13701 0
M  V30 990 C 99.6095 2.87213 1.2441 0
M  V30 991 C 100.084 4.29161 1.59954 0
M  V30 992 N 101.575 4.32061 1.66967 0
M  V30 993 C 102.31 5.38879 1.95952 0
M  V30 994 N 101.806 6.55918 2.23031 0
M  V30 995 N 103.599 5.26312 1.97363 0
M  V30 996 H 95.7505 2.10546 -0.28005 0
M  V30 997 H 98.0135 0.945921 -0.0627454 0
M  V30 998 H 97.7195 3.49845 0.360787 0
M  V30 999 H 97.5935 3.14941 2.07586 0
M  V30 1000 H 99.9805 2.15969 2.01101 0
M  V30 1001 H 100.061 2.54204 0.285299 0
M  V30 1002 H 99.7055 5.00938 0.838067 0
M  V30 1003 H 99.6355 4.59648 2.56966 0
M  V30 1004 H 102.126 3.47661 1.48123 0
M  V30 1005 H 102.439 7.33139 2.44391 0
M  V30 1006 H 100.784 6.59112 2.20447 0
M  V30 1007 H 103.975 4.33876 1.75697 0
M  V30 1008 H 104.148 6.09649 2.19618 0
M  V30 1009 N 97.5546 -0.734337 1.39446 0
M  V30 1010 C 98.8026 -1.49096 1.36436 0
M  V30 1011 C 99.1236 -1.94961 -0.0388255 0
M  V30 1012 O 98.3936 -1.69033 -0.990191 0
M  V30 1013 H 96.9736 -0.5531 0.502085 0
M  V30 1014 H 99.6356 -0.871725 1.74319 0
M  V30 1015 H 98.7316 -2.37276 2.02747 0
M  V30 1016 N 99.0327 -1.24633 -0.964593 0
M  V30 1017 C 99.9797 -1.04144 -2.05968 0
M  V30 1018 C 100.95 0.046262 -1.66036 0
M  V30 1019 O 102.135 -0.108972 -1.90489 0
M  V30 1020 C 99.2747 -0.65563 -3.38815 0
M  V30 1021 C 98.3877 -1.81714 -3.91923 0
M  V30 1022 C 97.5227 -1.37662 -5.13052 0
M  V30 1023 C 96.5617 -2.50788 -5.58365 0
M  V30 1024 N 95.6987 -2.07582 -6.70712 0
M  V30 1025 H 100.539 -1.9787 -2.22827 0
M  V30 1026 H 98.0757 -0.9855 -1.09208 0
M  V30 1027 H 100.034 -0.412954 -4.15151 0
M  V30 1028 H 98.6637 0.244627 -3.21872 0
M  V30 1029 H 97.7157 -2.1734 -3.12198 0
M  V30 1030 H 99.0277 -2.66705 -4.21509 0
M  V30 1031 H 98.1817 -1.093 -5.96773 0
M  V30 1032 H 96.9207 -0.497293 -4.85158 0
M  V30 1033 H 95.9257 -2.79906 -4.73215 0
M  V30 1034 H 97.1507 -3.39283 -5.88272 0
M  V30 1035 H 95.0967 -1.22051 -6.44546 0
M  V30 1036 H 95.0137 -2.86125 -6.99763 0
M  V30 1037 H 96.2817 -1.82369 -7.57867 0
M  V30 1038 N 100.511 1.16574 -1.06058 0
M  V30 1039 C 101.759 1.86677 -0.77434 0
M  V30 1040 C 102.08 1.81959 0.701147 0
M  V30 1041 O 101.35 1.2515 1.50713 0
M  V30 1042 H 99.9298 0.691134 -0.283449 0
M  V30 1043 H 102.592 1.41378 -1.34158 0
M  V30 1044 H 101.688 2.92181 -1.09711 0
M  V30 1045 N 101.989 0.842826 1.3317 0
M  V30 1046 C 103.238 0.436738 1.96915 0
M  V30 1047 C 103.551 -1.01025 1.67491 0
M  V30 1048 O 104.757 -1.5212 2.24881 0
M  V30 1049 C 103.213 0.730021 3.52418 0
M  V30 1050 C 102.821 2.19195 3.90714 0
M  V30 1051 C 104.565 0.391076 4.22695 0
M  V30 1052 C 102.472 2.42907 5.39212 0
M  V30 1053 H 101.402 0.15958 0.736919 0
M  V30 1054 H 104.053 1.03196 1.51733 0
M  V30 1055 H 102.435 0.0643755 3.95948 0
M  V30 1056 H 103.609 2.8984 3.58231 0
M  V30 1057 H 101.924 2.49425 3.33431 0
M  V30 1058 H 104.521 0.545817 5.31907 0
M  V30 1059 H 104.864 -0.666294 4.10933 0
M  V30 1060 H 105.397 1.01212 3.84709 0
M  V30 1061 H 102.136 3.47224 5.55982 0
M  V30 1062 H 101.656 1.76827 5.73142 0
M  V30 1063 H 103.335 2.2626 6.06148 0
M  V30 1064 N 103.467 -1.45747 0.599634 0
M  V30 1065 C 104.414 -2.30467 -0.123849 0
M  V30 1066 C 105.384 -1.41632 -0.86774 0
M  V30 1067 O 106.569 -1.70568 -0.855056 0
M  V30 1068 C 103.709 -3.26402 -1.12051 0
M  V30 1069 C 102.822 -4.3034 -0.37832 0
M  V30 1070 C 101.957 -5.13389 -1.364 0
M  V30 1071 C 100.996 -6.09061 -0.609171 0
M  V30 1072 N 100.133 -6.84918 -1.54374 0
M  V30 1073 H 104.973 -2.91802 0.604627 0
M  V30 1074 H 102.51 -1.43797 0.309972 0
M  V30 1075 H 104.468 -3.80482 -1.7114 0
M  V30 1076 H 103.098 -2.66839 -1.8165 0
M  V30 1077 H 102.15 -3.78984 0.327929 0
M  V30 1078 H 103.462 -4.98354 0.210997 0
M  V30 1079 H 102.616 -5.7183 -2.02719 0
M  V30 1080 H 101.355 -4.45376 -1.98725 0
M  V30 1081 H 100.36 -5.49758 0.0676979 0
M  V30 1082 H 101.585 -6.79099 0.00891991 0
M  V30 1083 H 99.531 -6.19601 -2.15478 0
M  V30 1084 H 99.448 -7.49254 -1.00766 0
M  V30 1085 H 100.716 -7.47906 -2.19676 0
M  V30 1086 N 104.945 -0.338344 -1.53925 0
M  V30 1087 C 105.908 0.508299 -2.23493 0
M  V30 1088 C 106.908 1.03175 -1.23335 0
M  V30 1089 O 108.098 0.921826 -1.47811 0
M  V30 1090 C 105.23 1.70754 -2.95052 0
M  V30 1091 H 106.423 -0.100058 -2.99733 0
M  V30 1092 H 103.976 -0.0896198 -1.56043 0
M  V30 1093 H 104.711 2.35474 -2.22986 0
M  V30 1094 H 104.496 1.33946 -3.68512 0
M  V30 1095 H 105.986 2.30818 -3.48013 0
M  V30 1096 N 106.423 1.57458 -0.0668435 0
M  V30 1097 C 107.353 2.15468 0.899764 0
M  V30 1098 C 108.334 1.08042 1.31381 0
M  V30 1099 O 109.519 1.36054 1.38574 0
M  V30 1100 C 106.649 2.71232 2.16911 0
M  V30 1101 C 105.603 3.83781 1.89463 0
M  V30 1102 C 104.929 4.26127 3.22986 0
M  V30 1103 C 106.229 5.08238 1.20381 0
M  V30 1104 H 107.923 2.96488 0.416529 0
M  V30 1105 H 105.469 1.4262 0.198908 0
M  V30 1106 H 107.422 3.10458 2.84945 0
M  V30 1107 H 106.146 1.87426 2.67468 0
M  V30 1108 H 104.805 3.45051 1.23836 0
M  V30 1109 H 104.453 3.39249 3.71374 0
M  V30 1110 H 104.153 5.01993 3.05413 0
M  V30 1111 H 105.677 4.67966 3.92225 0
M  V30 1112 H 107.091 5.44811 1.78475 0
M  V30 1113 H 105.488 5.89349 1.13083 0
M  V30 1114 H 106.558 4.84558 0.182153 0
M  V30 1115 N 107.901 -0.206675 1.56239 0
M  V30 1116 C 109.15 -0.926964 1.79138 0
M  V30 1117 C 109.463 -1.84901 0.638043 0
M  V30 1118 O 110.669 -2.60906 0.751033 0
M  V30 1119 C 109.125 -1.6986 3.17294 0
M  V30 1120 C 108.733 -0.821956 4.40395 0
M  V30 1121 C 110.477 -2.40922 3.4951 0
M  V30 1122 C 108.384 -1.59179 5.69575 0
M  V30 1123 H 107.314 -0.349864 0.667915 0
M  V30 1124 H 109.965 -0.180487 1.8261 0
M  V30 1125 H 108.347 -2.48853 3.08039 0
M  V30 1126 H 109.521 -0.0715019 4.60745 0
M  V30 1127 H 107.836 -0.222741 4.15804 0
M  V30 1128 H 110.433 -2.99047 4.43255 0
M  V30 1129 H 110.776 -3.14542 2.72707 0
M  V30 1130 H 111.309 -1.68905 3.60161 0
M  V30 1131 H 108.048 -0.898589 6.49312 0
M  V30 1132 H 107.568 -2.31648 5.53262 0
M  V30 1133 H 109.247 -2.14862 6.10281 0
M  V30 1134 N 109.379 -1.50304 -0.473955 0
M  V30 1135 C 110.342 -1.6841 -1.55469 0
M  V30 1136 C 111.342 -0.554905 -1.50922 0
M  V30 1137 O 112.532 -0.821882 -1.53593 0
M  V30 1138 C 109.664 -1.70667 -2.95102 0
M  V30 1139 H 110.857 -2.64828 -1.40733 0
M  V30 1140 H 108.41 -1.39742 -0.700132 0
M  V30 1141 H 109.145 -0.75932 -3.15285 0
M  V30 1142 H 108.93 -2.52698 -2.9981 0
M  V30 1143 H 110.42 -1.8664 -3.73571 0
M  V30 1144 N 110.857 0.726932 -1.39834 0
M  V30 1145 C 111.82 1.82269 -1.38962 0
M  V30 1146 C 112.82 1.58248 -0.285334 0
M  V30 1147 O 114.01 1.65499 -0.54366 0
M  V30 1148 C 111.142 3.20186 -1.17019 0
M  V30 1149 H 112.335 1.84443 -2.36476 0
M  V30 1150 H 109.888 0.931416 -1.25516 0
M  V30 1151 H 110.623 3.23669 -0.202204 0
M  V30 1152 H 110.408 3.3902 -1.96998 0
M  V30 1153 H 111.898 4.00235 -1.1917 0
M  V30 1154 N 112.336 1.25143 0.95797 0
M  V30 1155 C 113.747 1.08851 1.51685 0
M  V30 1156 C 114.098 -0.33687 1.93286 0
M  V30 1157 O 113.223 -1.22644 1.7829 0
M  V30 1158 C 113.818 1.96978 2.75654 0
M  V30 1159 C 112.377 1.84881 3.27866 0
M  V30 1160 C 111.524 1.91329 2.0072 0
M  V30 1161 H 114.475 1.38478 0.77522 0
M  V30 1162 H 114.496 1.5078 3.4935 0
M  V30 1163 H 114.008 3.00712 2.45345 0
M  V30 1164 H 112.109 0.840182 3.63004 0
M  V30 1165 H 112.222 2.6951 3.96107 0
M  V30 1166 H 110.586 1.35174 2.15871 0
M  V30 1167 H 111.369 2.96661 1.72764 0
M  V30 1168 N 113.814 -1.1601 1.06675 0
M  V30 1169 C 114.744 -2.22688 0.702307 0
M  V30 1170 C 115.725 -1.67306 -0.307032 0
M  V30 1171 O 116.91 -1.93352 -0.181305 0
M  V30 1172 C 114.04 -3.47178 0.092038 0
M  V30 1173 C 112.994 -4.15477 1.02777 0
M  V30 1174 C 112.32 -5.33963 0.28061 0
M  V30 1175 C 113.62 -4.66019 2.35846 0
M  V30 1176 H 115.314 -2.53429 1.59419 0
M  V30 1177 H 112.86 -1.21813 0.767961 0
M  V30 1178 H 114.813 -4.21037 -0.174814 0
M  V30 1179 H 113.537 -3.15749 -0.834877 0
M  V30 1180 H 112.196 -3.43549 1.27944 0
M  V30 1181 H 111.844 -4.98788 -0.649545 0
M  V30 1182 H 111.544 -5.806 0.904258 0
M  V30 1183 H 113.068 -6.10596 0.021396 0
M  V30 1184 H 114.482 -5.3144 2.15045 0
M  V30 1185 H 112.879 -5.23293 2.93743 0
M  V30 1186 H 113.949 -3.82023 2.98641 0
M  V30 1187 N 115.292 -0.849877 -1.32721 0
M  V30 1188 C 116.708 -0.539102 -1.50219 0
M  V30 1189 C 116.908 0.931271 -1.78689 0
M  V30 1190 O 115.964 1.71455 -1.85363 0
M  V30 1191 C 117.277 -1.42196 -2.64954 0
M  V30 1192 C 118.825 -1.42189 -2.78839 0
M  V30 1193 C 119.3 -2.28985 -3.96648 0
M  V30 1194 N 120.791 -2.26754 -4.03902 0
M  V30 1195 C 121.526 -2.90644 -4.94281 0
M  V30 1196 N 121.022 -3.63629 -5.897 0
M  V30 1197 N 122.815 -2.80057 -4.87365 0
M  V30 1198 H 114.966 -1.80156 -1.12506 0
M  V30 1199 H 117.229 -0.769217 -0.554085 0
M  V30 1200 H 116.935 -2.46733 -2.50631 0
M  V30 1201 H 116.809 -1.10591 -3.60624 0
M  V30 1202 H 119.196 -0.38419 -2.92588 0
M  V30 1203 H 119.277 -1.77807 -1.83898 0
M  V30 1204 H 118.921 -3.32819 -3.83658 0
M  V30 1205 H 118.851 -1.90702 -4.90857 0
M  V30 1206 H 121.342 -1.73688 -3.3562 0
M  V30 1207 H 121.655 -4.09558 -6.55349 0
M  V30 1208 H 120 -3.67737 -5.89741 0
M  V30 1209 H 123.191 -2.22593 -4.11789 0
M  V30 1210 H 123.364 -3.30132 -5.57599 0
M  V30 1211 N 116.77 1.45427 -0.607355 0
M  V30 1212 C 118.019 2.01452 -0.100036 0
M  V30 1213 C 118.332 1.48159 1.27704 0
M  V30 1214 O 119.538 1.96159 1.87707 0
M  V30 1215 C 117.994 3.59672 -0.128158 0
M  V30 1216 C 117.602 4.21962 -1.50507 0
M  V30 1217 C 119.346 4.23262 0.323932 0
M  V30 1218 C 117.253 5.72333 -1.48959 0
M  V30 1219 H 116.183 0.75325 -0.0336299 0
M  V30 1220 H 118.834 1.66901 -0.76265 0
M  V30 1221 H 117.216 3.91411 0.601105 0
M  V30 1222 H 118.39 4.01796 -2.25602 0
M  V30 1223 H 116.705 3.70565 -1.89923 0
M  V30 1224 H 119.302 5.33522 0.354691 0
M  V30 1225 H 119.645 3.93921 1.34656 0
M  V30 1226 H 120.178 3.96239 -0.352056 0
M  V30 1227 H 116.917 6.06373 -2.48981 0
M  V30 1228 H 116.437 5.94691 -0.781214 0
M  V30 1229 H 118.116 6.35525 -1.21313 0
M  V30 1230 N 118.248 0.346503 1.53744 0
M  V30 1231 C 119.495 -0.249104 2.00962 0
M  V30 1232 C 119.823 -1.5032 1.23426 0
M  V30 1233 O 119.078 -1.93217 0.310761 0
M  V30 1234 C 119.377 -0.605809 3.52228 0
M  V30 1235 C 119.043 0.551747 4.47512 0
M  V30 1236 C 117.705 0.86941 4.73281 0
M  V30 1237 C 120.057 1.32818 5.03993 0
M  V30 1238 C 117.385 1.96582 5.52786 0
M  V30 1239 C 119.737 2.41486 5.84694 0
M  V30 1240 C 118.401 2.73808 6.08757 0
M  V30 1241 H 117.671 -0.0911538 0.735372 0
M  V30 1242 H 120.318 0.475027 1.85515 0
M  V30 1243 H 118.623 -1.4107 3.65522 0
M  V30 1244 H 120.32 -1.07858 3.86222 0
M  V30 1245 H 116.91 0.294102 4.2759 0
M  V30 1246 H 121.094 1.09602 4.84047 0
M  V30 1247 H 116.35 2.22045 5.69654 0
M  V30 1248 H 120.524 3.02078 6.27473 0
M  V30 1249 H 118.151 3.58892 6.7015 0
M  V30 1250 N 119.726 -1.57421 0.075193 0
M  V30 1251 C 120.674 -2.14124 -0.908508 0
M  V30 1252 C 121.668 -1.07898 -1.30592 0
M  V30 1253 O 122.874 -1.26273 -1.28277 0
M  V30 1254 H 119.249 -0.684707 -0.310935 0
M  V30 1255 H 121.22 -2.95634 -0.405374 0
M  V30 1256 C 119.969 -2.72044 -2.16535 0
M  V30 1257 H 119.292 -3.53456 -1.86839 0
M  V30 1258 H 120.732 -3.15311 -2.83469 0
M  V30 1259 C 119.191 -1.66968 -2.92615 0
M  V30 1260 O 119.721 -1.0967 -3.86439 0
M  V30 1261 N 117.927 -1.37923 -2.55784 0
M  V30 1262 H 117.474 -1.84706 -1.79559 0
M  V30 1263 H 117.432 -0.67852 -3.06991 0
M  V30 1264 N 121.204 0.198386 -1.56346 0
M  V30 1265 C 122.167 1.22952 -1.93431 0
M  V30 1266 C 123.167 1.38611 -0.815092 0
M  V30 1267 O 124.357 1.36479 -1.08255 0
M  V30 1268 C 121.489 2.59946 -2.20546 0
M  V30 1269 H 122.682 0.912626 -2.85677 0
M  V30 1270 H 120.235 0.43977 -1.49986 0
M  V30 1271 H 120.97 2.96696 -1.30927 0
M  V30 1272 H 120.755 2.49953 -3.02102 0
M  V30 1273 H 122.245 3.3431 -2.50253 0
M  V30 1274 N 122.682 1.50554 0.465978 0
M  V30 1275 C 123.928 1.63006 1.21658 0
M  V30 1276 C 124.283 0.328613 1.89573 0
M  V30 1277 O 123.576 -0.673813 1.79361 0
M  V30 1278 C 123.77 2.75152 2.28093 0
M  V30 1279 C 123.599 4.16075 1.7062 0
M  V30 1280 C 122.369 4.82408 1.50368 0
M  V30 1281 C 124.567 5.00145 1.1983 0
M  V30 1282 N 122.549 6.07532 0.881924 0
M  V30 1283 C 123.92 6.16035 0.700083 0
M  V30 1284 C 125.975 4.85882 1.08733 0
M  V30 1285 C 124.678 7.19228 0.101835 0
M  V30 1286 C 126.704 5.89257 0.503016 0
M  V30 1287 C 126.066 7.04398 0.0152005 0
M  V30 1288 H 122.165 0.650596 0.433877 0
M  V30 1289 H 124.749 1.8769 0.517746 0
M  V30 1290 H 122.92 2.52181 2.95397 0
M  V30 1291 H 124.652 2.76935 2.95109 0
M  V30 1292 H 121.407 4.39788 1.75737 0
M  V30 1293 H 121.831 6.7443 0.589312 0
M  V30 1294 H 126.473 3.97144 1.4504 0
M  V30 1295 H 124.191 8.07637 -0.273426 0
M  V30 1296 H 127.777 5.80286 0.419451 0
M  V30 1297 H 126.657 7.83021 -0.429856 0
M  V30 1298 N 124.16 -0.719506 1.40217 0
M  V30 1299 C 125.576 -1.02707 1.22161 0
M  V30 1300 C 125.776 -2.0128 0.0940557 0
M  V30 1301 O 124.832 -2.46452 -0.549318 0
M  V30 1302 C 126.145 -1.57454 2.56181 0
M  V30 1303 C 127.693 -1.69458 2.63159 0
M  V30 1304 C 128.168 -2.27611 3.97438 0
M  V30 1305 N 129.659 -2.35002 3.99159 0
M  V30 1306 C 130.394 -2.80972 4.99842 0
M  V30 1307 N 129.89 -3.26723 6.10921 0
M  V30 1308 N 131.683 -2.80321 4.87213 0
M  V30 1309 H 123.834 -0.0660492 2.12297 0
M  V30 1310 H 126.097 -0.0919077 0.943534 0
M  V30 1311 H 125.803 -0.924873 3.39321 0
M  V30 1312 H 125.677 -2.56036 2.76993 0
M  V30 1313 H 128.064 -2.33543 1.80393 0
M  V30 1314 H 128.145 -0.694867 2.46181 0
M  V30 1315 H 127.789 -1.6415 4.80643 0
M  V30 1316 H 127.719 -3.2829 4.11744 0
M  V30 1317 H 130.21 -2.02685 3.18947 0
M  V30 1318 H 130.523 -3.60355 6.8364 0
M  V30 1319 H 128.868 -3.24692 6.14492 0
M  V30 1320 H 132.059 -2.43912 3.9953 0
M  V30 1321 H 132.232 -3.15831 5.65822 0
M  V30 1322 N 125.638 -1.25649 -0.95132 0
M  V30 1323 C 126.57 -1.02112 -2.05197 0
M  V30 1324 C 127.583 0.0150571 -1.62793 0
M  V30 1325 O 128.772 -0.223874 -1.77091 0
M  V30 1326 C 125.872 -0.522361 -3.3485 0
M  V30 1327 C 125.045 -1.62546 -4.06076 0
M  V30 1328 C 124.104 -1.12649 -5.14001 0
M  V30 1329 O 123.13 -1.82156 -5.39266 0
M  V30 1330 N 124.332 0.03047 -5.80492 0
M  V30 1331 H 127.097 -1.96885 -2.25957 0
M  V30 1332 H 124.658 -1.16899 -1.1201 0
M  V30 1333 H 126.65 -0.172961 -4.0433 0
M  V30 1334 H 125.22 0.33151 -3.10837 0
M  V30 1335 H 124.44 -2.14628 -3.30649 0
M  V30 1336 H 125.728 -2.36644 -4.50419 0
M  V30 1337 H 125.126 0.611169 -5.62389 0
M  V30 1338 H 123.683 0.320875 -6.5101 0
M  V30 1339 N 127.117 1.15442 -1.07289 0
M  V30 1340 C 128.08 2.18358 -0.696591 0
M  V30 1341 C 129.08 1.58637 0.262837 0
M  V30 1342 O 130.27 1.74145 0.0438809 0
M  V30 1343 C 127.402 3.4089 -0.0266151 0
M  V30 1344 H 128.595 2.53162 -1.60776 0
M  V30 1345 H 126.148 1.29893 -0.869342 0
M  V30 1346 H 126.883 3.11653 0.896822 0
M  V30 1347 H 126.668 3.85495 -0.716657 0
M  V30 1348 H 128.158 4.17009 0.222028 0
M  V30 1349 N 128.595 0.856903 1.32268 0
M  V30 1350 C 130.011 0.547061 1.49931 0
M  V30 1351 C 130.211 -0.921781 1.7918 0
M  V30 1352 O 129.267 -1.70469 1.8627 0
M  V30 1353 C 130.58 1.43599 2.64196 0
M  V30 1354 C 132.128 1.43665 2.78081 0
M  V30 1355 C 132.603 2.31085 3.95428 0
M  V30 1356 N 134.094 2.28893 4.02694 0
M  V30 1357 C 134.829 2.93262 4.92732 0
M  V30 1358 N 134.325 3.66751 5.87763 0
M  V30 1359 N 136.118 2.82638 4.85873 0
M  V30 1360 H 128.269 1.8075 1.11549 0
M  V30 1361 H 130.532 0.772144 0.549997 0
M  V30 1362 H 130.238 2.48058 2.49319 0
M  V30 1363 H 130.112 1.12502 3.60032 0
M  V30 1364 H 132.499 0.399701 2.92381 0
M  V30 1365 H 132.58 1.7878 1.82952 0
M  V30 1366 H 132.224 3.34849 3.81888 0
M  V30 1367 H 132.154 1.93302 4.89839 0
M  V30 1368 H 134.645 1.75466 3.34694 0
M  V30 1369 H 134.958 4.13027 6.53168 0
M  V30 1370 H 133.303 3.70859 5.87783 0
M  V30 1371 H 136.494 2.24774 4.10602 0
M  V30 1372 H 136.667 3.33084 5.55841 0
M  V30 1373 N 130.073 -1.45103 0.615059 0
M  V30 1374 C 131.036 -2.29025 -0.0895485 0
M  V30 1375 C 132.036 -1.40174 -0.787906 0
M  V30 1376 O 133.226 -1.62217 -0.634933 0
M  V30 1377 C 130.358 -3.21376 -1.13711 0
M  V30 1378 H 131.551 -2.92807 0.648382 0
M  V30 1379 H 129.104 -1.51749 0.374444 0
M  V30 1380 H 129.839 -2.6241 -1.90556 0
M  V30 1381 H 129.624 -3.86834 -0.640475 0
M  V30 1382 H 131.114 -3.84459 -1.63036 0
M  V30 1383 N 131.551 -0.354651 -1.53558 0
M  V30 1384 C 132.8 0.239504 -2.00273 0
M  V30 1385 C 133.113 1.50759 -1.24623 0
M  V30 1386 O 134.319 2.17968 -1.61871 0
M  V30 1387 C 132.775 0.477341 -3.5672 0
M  V30 1388 C 132.383 -0.775488 -4.41237 0
M  V30 1389 C 134.127 1.02975 -4.11821 0
M  V30 1390 C 132.034 -0.507838 -5.89216 0
M  V30 1391 H 130.964 0.0932743 -0.748208 0
M  V30 1392 H 133.615 -0.471701 -1.77334 0
M  V30 1393 H 131.997 1.24953 -3.7577 0
M  V30 1394 H 133.171 -1.54963 -4.33962 0
M  V30 1395 H 131.486 -1.25033 -3.97185 0
M  V30 1396 H 134.083 1.24513 -5.2 0
M  V30 1397 H 134.426 1.98862 -3.65731 0
M  V30 1398 H 134.959 0.317994 -3.96527 0
M  V30 1399 H 131.698 -1.43674 -6.39561 0
M  V30 1400 H 131.218 0.228011 -5.99366 0
M  V30 1401 H 132.897 -0.129238 -6.46871 0
M  V30 1402 N 133.029 1.57378 -0.0835403 0
M  V30 1403 C 133.962 2.09016 0.915833 0
M  V30 1404 C 134.94 0.997993 1.2837 0
M  V30 1405 O 136.124 1.27219 1.39096 0
M  V30 1406 C 133.251 2.55757 2.22049 0
M  V30 1407 C 132.297 3.76522 2.00333 0
M  V30 1408 S 133.13 5.20661 1.25191 0
M  V30 1409 C 134.286 5.70743 2.56912 0
M  V30 1410 H 134.519 2.93457 0.476492 0
M  V30 1411 H 132.052 1.53856 0.129493 0
M  V30 1412 H 134.01 2.83346 2.97027 0
M  V30 1413 H 132.671 1.71564 2.63106 0
M  V30 1414 H 131.864 4.07256 2.96916 0
M  V30 1415 H 131.466 3.49367 1.33488 0
M  V30 1416 H 133.758 5.78304 3.52946 0
M  V30 1417 H 134.701 6.6944 2.30772 0
M  V30 1418 H 135.109 4.98616 2.64655 0
M  V30 1419 N 134.507 -0.190092 1.56449 0
M  V30 1420 C 135.454 -1.23557 1.94942 0
M  V30 1421 C 136.424 -1.44972 0.810696 0
M  V30 1422 O 137.609 -1.58023 1.06927 0
M  V30 1423 C 134.749 -2.57416 2.2985 0
M  V30 1424 C 133.862 -2.43537 3.5681 0
M  V30 1425 C 132.997 -3.70134 3.81017 0
M  V30 1426 C 132.036 -3.51109 5.01387 0
M  V30 1427 N 131.173 -4.6973 5.21822 0
M  V30 1428 H 136.013 -0.900304 2.84075 0
M  V30 1429 H 133.55 -0.43318 1.40577 0
M  V30 1430 H 135.508 -3.35409 2.48106 0
M  V30 1431 H 134.138 -2.88975 1.43852 0
M  V30 1432 H 133.19 -1.56816 3.46573 0
M  V30 1433 H 134.502 -2.25415 4.4496 0
M  V30 1434 H 133.656 -4.56566 3.9954 0
M  V30 1435 H 132.395 -3.91215 2.91207 0
M  V30 1436 H 131.4 -2.63063 4.82782 0
M  V30 1437 H 132.625 -3.31468 5.9271 0
M  V30 1438 H 130.571 -4.91065 4.34961 0
M  V30 1439 H 130.488 -4.54452 6.0416 0
M  V30 1440 H 131.756 -5.57499 5.44808 0
M  V30 1441 N 135.985 -1.50799 -0.457987 0
M  V30 1442 C 136.948 -1.7005 -1.53674 0
M  V30 1443 C 137.948 -0.570881 -1.50325 0
M  V30 1444 O 139.138 -0.838126 -1.52712 0
M  V30 1445 C 136.27 -1.73788 -2.93276 0
M  V30 1446 H 137.463 -2.66306 -1.37917 0
M  V30 1447 H 135.016 -1.40477 -0.685271 0
M  V30 1448 H 135.751 -0.792717 -3.14462 0
M  V30 1449 H 135.536 -2.55864 -2.97113 0
M  V30 1450 H 137.026 -1.90591 -3.71571 0
M  V30 1451 N 137.463 0.71206 -1.40597 0
M  V30 1452 C 138.693 1.49894 -1.42181 0
M  V30 1453 C 139.101 1.89189 -0.0208078 0
M  V30 1454 O 138.444 1.56223 0.966436 0
M  V30 1455 C 138.506 2.80215 -2.25211 0
M  V30 1456 C 138.17 2.63221 -3.73582 0
M  V30 1457 C 139.167 2.30249 -4.66135 0
M  V30 1458 C 136.852 2.79376 -4.17438 0
M  V30 1459 C 138.846 2.13645 -6.00529 0
M  V30 1460 C 136.533 2.6239 -5.51901 0
M  V30 1461 C 137.531 2.29573 -6.43262 0
M  V30 1462 O 137.219 2.12719 -7.75246 0
M  V30 1463 H 136.951 0.469031 -0.486812 0
M  V30 1464 H 139.505 0.88564 -1.85326 0
M  V30 1465 H 137.735 3.4389 -1.76852 0
M  V30 1466 H 139.424 3.41947 -2.18694 0
M  V30 1467 H 140.19 2.17398 -4.33547 0
M  V30 1468 H 136.069 3.03906 -3.46644 0
M  V30 1469 H 139.613 1.87953 -6.71803 0
M  V30 1470 H 135.51 2.74826 -5.84073 0
M  V30 1471 H 136.278 2.27611 -7.86216 0
M  V30 1472 N 138.941 1.26152 0.944643 0
M  V30 1473 C 139.888 1.07408 2.04285 0
M  V30 1474 C 140.858 -0.0198413 1.66088 0
M  V30 1475 O 142.043 0.139264 1.90291 0
M  V30 1476 C 139.183 0.70945 3.37729 0
M  V30 1477 C 138.296 1.87926 3.88983 0
M  V30 1478 C 137.431 1.45807 5.10797 0
M  V30 1479 C 136.47 2.5964 5.54305 0
M  V30 1480 N 135.607 2.18226 6.67324 0
M  V30 1481 H 140.447 2.01389 2.1965 0
M  V30 1482 H 137.984 1.00275 1.07626 0
M  V30 1483 H 139.942 0.478948 4.14442 0
M  V30 1484 H 138.572 -0.193389 3.2222 0
M  V30 1485 H 137.624 2.22279 3.08701 0
M  V30 1486 H 138.936 2.73377 4.17213 0
M  V30 1487 H 138.09 1.18781 5.94959 0
M  V30 1488 H 136.829 0.574414 4.84305 0
M  V30 1489 H 135.834 2.87399 4.68702 0
M  V30 1490 H 137.059 3.48599 5.828 0
M  V30 1491 H 135.005 1.3229 6.42523 0
M  V30 1492 H 134.922 2.97221 6.95123 0
M  V30 1493 H 136.19 1.94403 7.54869 0
M  V30 1494 N 140.419 -1.14872 1.07899 0
M  V30 1495 C 141.83 -1.67367 0.827363 0
M  V30 1496 C 142.181 -1.85236 -0.646693 0
M  V30 1497 O 141.306 -1.55974 -1.50004 0
M  V30 1498 C 141.901 -3.04016 1.49532 0
M  V30 1499 C 140.46 -3.53566 1.29106 0
M  V30 1500 C 139.607 -2.29161 1.56143 0
M  V30 1501 H 142.558 -0.990083 1.24028 0
M  V30 1502 H 142.579 -3.69219 0.919643 0
M  V30 1503 H 142.091 -2.90978 2.56814 0
M  V30 1504 H 140.192 -3.71835 0.238713 0
M  V30 1505 H 140.305 -4.34661 2.01511 0
M  V30 1506 H 138.669 -2.34978 0.982717 0
M  V30 1507 H 139.452 -2.18705 2.64619 0
M  V30 1508 N 141.898 -0.863906 -1.31812 0
M  V30 1509 C 143.175 -0.39275 -1.91616 0
M  V30 1510 C 143.555 1.12461 -1.7865 0
M  V30 1511 O 142.903 1.95045 -1.19037 0
M  V30 1512 C 143.113 -0.867385 -3.38049 0
M  V30 1513 C 144.461 -0.889966 -4.15168 0
M  V30 1514 O 145.485 -0.812635 -3.46806 0
M  V30 1515 O 144.344 -1.00079 -5.37258 0
M  V30 1516 H 141.438 -0.116358 -0.818773 0
M  V30 1517 H 143.984 -0.951418 -1.40521 0
M  V30 1518 H 142.756 -1.91081 -3.41473 0
M  V30 1519 H 142.379 -0.286687 -3.96565 0
M  V30 1520 N 143.376 1.44774 -0.622745 0
M  V30 1521 C 144.622 2.0242 -0.124083 0
M  V30 1522 C 144.955 1.4881 1.24777 0
M  V30 1523 O 144.23 0.668799 1.8264 0
M  V30 1524 C 144.513 3.59957 -0.101619 0
M  V30 1525 C 144.366 4.23867 -1.50521 0
M  V30 1526 C 145.685 4.36284 0.578272 0
M  V30 1527 H 142.804 0.735528 -0.0465645 0
M  V30 1528 H 145.446 1.72447 -0.797617 0
M  V30 1529 H 143.596 3.85623 0.471934 0
M  V30 1530 H 145.268 4.09336 -2.12701 0
M  V30 1531 H 143.511 3.81684 -2.06154 0
M  V30 1532 H 144.182 5.32843 -1.4416 0
M  V30 1533 H 146.658 4.16001 0.0906057 0
M  V30 1534 H 145.534 5.46004 0.563149 0
M  V30 1535 H 145.795 4.10271 1.64713 0
M  V30 1536 N 144.854 0.36279 1.53368 0
M  V30 1537 C 146.1 -0.228113 2.01513 0
M  V30 1538 C 146.433 -1.48648 1.2497 0
M  V30 1539 O 145.708 -1.91459 0.342616 0
M  V30 1540 C 145.991 -0.522884 3.56284 0
M  V30 1541 C 145.844 0.74892 4.43521 0
M  V30 1542 C 147.163 -1.32461 4.19693 0
M  V30 1543 H 144.282 -0.0814343 0.732487 0
M  V30 1544 H 146.924 0.48713 1.83649 0
M  V30 1545 H 145.074 -1.1322 3.71636 0
M  V30 1546 H 146.746 1.38648 4.39971 0
M  V30 1547 H 144.989 1.36986 4.11603 0
M  V30 1548 H 145.66 0.497667 5.49752 0
M  V30 1549 H 148.136 -0.809203 4.08156 0
M  V30 1550 H 147.012 -1.49961 5.28018 0
M  V30 1551 H 147.273 -2.33232 3.75573 0
M  V30 1552 N 146.332 -1.57332 0.0918853 0
M  V30 1553 C 147.262 -2.16872 -0.865371 0
M  V30 1554 C 148.243 -1.10118 -1.29646 0
M  V30 1555 O 149.428 -1.38242 -1.36392 0
M  V30 1556 C 146.558 -2.74649 -2.12569 0
M  V30 1557 C 145.512 -3.86747 -1.83333 0
M  V30 1558 C 144.838 -4.31212 -3.16166 0
M  V30 1559 C 146.138 -5.10089 -1.1228 0
M  V30 1560 H 147.832 -2.97114 -0.369307 0
M  V30 1561 H 145.378 -1.42918 -0.176194 0
M  V30 1562 H 147.331 -3.14952 -2.7997 0
M  V30 1563 H 146.055 -1.91657 -2.64452 0
M  V30 1564 H 144.714 -3.46978 -1.18331 0
M  V30 1565 H 144.362 -3.45115 -3.6593 0
M  V30 1566 H 144.062 -5.06788 -2.97388 0
M  V30 1567 H 145.586 -4.74146 -3.84731 0
M  V30 1568 H 147 -5.47582 -1.69785 0
M  V30 1569 H 145.397 -5.91073 -1.03693 0
M  V30 1570 H 146.467 -4.84786 -0.105041 0
M  V30 1571 N 147.81 0.181792 -1.56548 0
M  V30 1572 C 149.058 0.89832 -1.81038 0
M  V30 1573 C 149.379 1.83232 -0.667164 0
M  V30 1574 O 148.649 1.93372 0.313673 0
M  V30 1575 H 147.229 0.33471 -0.667816 0
M  V30 1576 H 149.891 0.184116 -1.94028 0
M  V30 1577 H 148.987 1.4815 -2.74696 0
M  V30 1578 N 149.288 1.51039 0.449983 0
M  V30 1579 C 150.221 1.66105 1.56474 0
M  V30 1580 C 151.199 0.508776 1.54435 0
M  V30 1581 O 152.383 0.731005 1.73749 0
M  V30 1582 C 149.51 1.66304 2.9506 0
M  V30 1583 C 148.556 2.87346 3.15174 0
M  V30 1584 S 149.389 4.4835 2.92818 0
M  V30 1585 C 150.545 4.51274 4.33708 0
M  V30 1586 H 150.778 2.60397 1.43459 0
M  V30 1587 H 148.311 1.40565 0.638805 0
M  V30 1588 H 150.269 1.67103 3.74949 0
M  V30 1589 H 148.93 0.732108 3.05449 0
M  V30 1590 H 148.123 2.83849 4.16468 0
M  V30 1591 H 147.725 2.84223 2.43091 0
M  V30 1592 H 150.017 4.26136 5.26701 0
M  V30 1593 H 150.96 5.53017 4.42242 0
M  V30 1594 H 151.368 3.80738 4.16772 0
M  V30 1595 N 150.766 -0.704594 1.40972 0
M  V30 1596 C 152.014 -1.46169 1.39568 0
M  V30 1597 C 152.335 -1.95 0.00253745 0
M  V30 1598 O 151.605 -1.71095 -0.954114 0
M  V30 1599 H 150.185 -0.542326 0.513704 0
M  V30 1600 H 152.847 -0.834553 1.76128 0
M  V30 1601 H 151.943 -2.32922 2.07735 0
M  V30 1602 N 152.244 -1.26651 -0.937939 0
M  V30 1603 C 153.492 -1.12165 -1.68118 0
M  V30 1604 C 153.813 0.334983 -1.92101 0
M  V30 1605 O 153.083 1.23583 -1.52 0
M  V30 1606 H 151.663 -0.412093 -0.623048 0
M  V30 1607 H 154.325 -1.59027 -1.12678 0
M  V30 1608 H 153.421 -1.64289 -2.6536 0
M  V30 1609 N 153.722 1.14298 -1.08507 0
M  V30 1610 C 154.952 1.88945 -0.835663 0
M  V30 1611 C 155.36 1.78894 0.615928 0
M  V30 1612 O 154.703 1.1468 1.43506 0
M  V30 1613 C 154.765 3.39585 -1.17994 0
M  V30 1614 C 154.429 3.7342 -2.63451 0
M  V30 1615 C 155.426 3.73454 -3.61702 0
M  V30 1616 C 153.111 4.03368 -2.99332 0
M  V30 1617 C 155.105 4.02961 -4.93864 0
M  V30 1618 C 152.792 4.32538 -4.31687 0
M  V30 1619 C 153.79 4.32318 -5.28763 0
M  V30 1620 O 153.478 4.6078 -6.58739 0
M  V30 1621 H 153.21 0.605307 -0.300965 0
M  V30 1622 H 155.764 1.45673 -1.44806 0
M  V30 1623 H 153.994 3.83315 -0.51055 0
M  V30 1624 H 155.683 3.9554 -0.911182 0
M  V30 1625 H 156.449 3.50403 -3.35325 0
M  V30 1626 H 152.328 4.02692 -2.24411 0
M  V30 1627 H 155.872 4.02704 -5.69627 0
M  V30 1628 H 151.769 4.55059 -4.57812 0
M  V30 1629 H 152.537 4.78492 -6.64069 0
M  V30 1630 N 155.201 0.870884 1.31352 0
M  V30 1631 C 156.447 0.482987 1.96965 0
M  V30 1632 C 156.78 -0.962462 1.68672 0
M  V30 1633 O 156.055 -1.6779 0.98371 0
M  V30 1634 C 156.338 0.741752 3.52378 0
M  V30 1635 C 156.191 2.2368 3.9024 0
M  V30 1636 C 157.51 0.208838 4.39604 0
M  V30 1637 H 154.629 0.176955 0.715441 0
M  V30 1638 H 157.271 1.09229 1.55464 0
M  V30 1639 H 155.421 0.223149 3.87859 0
M  V30 1640 H 157.093 2.82273 3.64856 0
M  V30 1641 H 155.336 2.70901 3.38814 0
M  V30 1642 H 156.007 2.3685 4.98604 0
M  V30 1643 H 158.483 0.652529 4.10952 0
M  V30 1644 H 157.359 0.419336 5.47296 0
M  V30 1645 H 157.62 -0.889275 4.33064 0
M  V30 1646 N 156.679 -1.44442 0.630414 0
M  V30 1647 C 157.904 -2.06927 0.139944 0
M  V30 1648 C 158.329 -1.46795 -1.17613 0
M  V30 1649 O 157.687 -0.569144 -1.72135 0
M  V30 1650 C 157.735 -3.6058 0.0379581 0
M  V30 1651 O 156.839 -3.99937 -1.0062 0
M  V30 1652 H 156.18 -0.658608 0.0844483 0
M  V30 1653 H 158.71 -1.85327 0.866891 0
M  V30 1654 H 158.72 -4.07714 -0.152856 0
M  V30 1655 H 157.395 -4.03728 0.998809 0
M  V30 1656 H 155.972 -3.64436 -0.79001 0
M  V30 1657 N 158.157 -0.370918 -1.53173 0
M  V30 1658 C 159.405 0.216673 -2.00935 0
M  V30 1659 C 159.726 1.48845 -1.25977 0
M  V30 1660 O 158.996 1.92286 -0.374551 0
M  V30 1661 H 157.576 0.0830565 -0.742368 0
M  V30 1662 H 160.238 -0.49838 -1.8842 0
M  V30 1663 H 159.334 0.439893 -3.08984 0
M  V30 1664 N 159.635 1.57281 -0.100228 0
M  V30 1665 C 161.046 1.81725 0.428107 0
M  V30 1666 C 161.397 1.01619 1.67833 0
M  V30 1667 O 160.522 0.247098 2.14985 0
M  V30 1668 C 161.117 3.29617 0.78347 0
M  V30 1669 C 159.676 3.54808 1.25653 0
M  V30 1670 C 158.823 2.76118 0.255752 0
M  V30 1671 H 161.774 1.55324 -0.325608 0
M  V30 1672 H 161.795 3.4322 1.64256 0
M  V30 1673 H 161.307 3.87893 -0.12665 0
M  V30 1674 H 159.408 3.01868 2.18418 0
M  V30 1675 H 159.521 4.63443 1.21482 0
M  V30 1676 H 157.885 2.43745 0.738956 0
M  V30 1677 H 158.668 3.37145 -0.647136 0
M  V30 1678 N 161.113 -0.173488 1.56642 0
M  V30 1679 C 162.361 -0.888706 1.81512 0
M  V30 1680 C 162.682 -1.82875 0.676872 0
M  V30 1681 O 161.952 -1.93536 -0.303414 0
M  V30 1682 H 160.532 -0.331164 0.669582 0
M  V30 1683 H 163.194 -0.173823 1.94123 0
M  V30 1684 H 162.29 -1.46691 2.75478 0
M  V30 1685 N 162.591 -1.51276 -0.441967 0
M  V30 1686 C 163.839 -1.63392 -1.18943 0
M  V30 1687 C 164.16 -0.350159 -1.9183 0
M  V30 1688 O 163.43 0.633784 -1.85364 0
M  V30 1689 H 162.01 -0.602164 -0.442049 0
M  V30 1690 H 164.672 -1.88186 -0.507165 0
M  V30 1691 H 163.768 -2.45934 -1.92154 0
M  V30 1692 N 164.069 0.697108 -1.41344 0
M  V30 1693 C 164.999 1.82353 -1.45841 0
M  V30 1694 C 165.98 1.67115 -0.317247 0
M  V30 1695 O 167.165 1.86871 -0.528474 0
M  V30 1696 C 164.295 3.20476 -1.33838 0
M  V30 1697 C 163.249 3.50415 -2.4575 0
M  V30 1698 C 162.575 4.87878 -2.18813 0
M  V30 1699 C 163.875 3.49546 -3.88091 0
M  V30 1700 H 165.569 1.78846 -2.40113 0
M  V30 1701 H 163.115 0.859028 -1.15571 0
M  V30 1702 H 165.068 3.98988 -1.35596 0
M  V30 1703 H 163.792 3.24604 -0.360498 0
M  V30 1704 H 162.451 2.74253 -2.43271 0
M  V30 1705 H 162.099 4.8863 -1.19371 0
M  V30 1706 H 161.799 5.08875 -2.93803 0
M  V30 1707 H 163.323 5.68702 -2.22284 0
M  V30 1708 H 164.737 4.18066 -3.92293 0
M  V30 1709 H 163.134 3.82075 -4.62751 0
M  V30 1710 H 164.204 2.48552 -4.16353 0
M  V30 1711 N 165.547 1.27147 0.931209 0
M  V30 1712 C 166.51 1.09615 2.01289 0
M  V30 1713 C 167.51 0.0412581 1.60747 0
M  V30 1714 O 168.7 0.285545 1.71844 0
M  V30 1715 C 165.832 0.669447 3.34262 0
M  V30 1716 H 167.025 2.05662 2.18273 0
M  V30 1717 H 164.578 1.09885 1.11153 0
M  V30 1718 H 165.313 -0.292572 3.22978 0
M  V30 1719 H 165.098 1.43127 3.65044 0
M  V30 1720 H 166.588 0.568921 4.13706 0
M  V30 1721 N 167.025 -1.13721 1.09112 0
M  V30 1722 C 167.988 -2.17222 0.731241 0
M  V30 1723 C 168.988 -1.59035 -0.237566 0
M  V30 1724 O 170.178 -1.74192 -0.0161704 0
M  V30 1725 C 167.31 -3.40804 0.0808443 0
M  V30 1726 H 168.503 -2.50573 1.64783 0
M  V30 1727 H 166.056 -1.28493 0.889897 0
M  V30 1728 H 166.791 -3.1304 -0.847127 0
M  V30 1729 H 166.576 -3.84306 0.777896 0
M  V30 1730 H 168.066 -4.1731 -0.155657 0
M  V30 1731 N 168.503 -0.877838 -1.30888 0
M  V30 1732 C 169.749 -0.502773 -1.97088 0
M  V30 1733 C 170.104 0.936274 -1.68082 0
M  V30 1734 O 169.397 1.65162 -0.971196 0
M  V30 1735 C 169.591 -0.705748 -3.50363 0
M  V30 1736 C 169.42 -2.16297 -3.94266 0
M  V30 1737 C 168.19 -2.80614 -4.20219 0
M  V30 1738 C 170.388 -3.13606 -4.07622 0
M  V30 1739 N 168.37 -4.17007 -4.50532 0
M  V30 1740 C 169.741 -4.35051 -4.41736 0
M  V30 1741 C 171.796 -3.09491 -3.90026 0
M  V30 1742 C 170.499 -5.52911 -4.60089 0
M  V30 1743 C 172.525 -4.26616 -4.09576 0
M  V30 1744 C 171.887 -5.46825 -4.44029 0
M  V30 1745 H 167.986 -0.233168 -0.746429 0
M  V30 1746 H 170.57 -1.13408 -1.58261 0
M  V30 1747 H 168.741 -0.103976 -3.88261 0
M  V30 1748 H 170.473 -0.298291 -4.03599 0
M  V30 1749 H 167.228 -2.3152 -4.13153 0
M  V30 1750 H 167.652 -4.87426 -4.69834 0
M  V30 1751 H 172.294 -2.17657 -3.62471 0
M  V30 1752 H 170.012 -6.45255 -4.86489 0
M  V30 1753 H 173.598 -4.24894 -3.97438 0
M  V30 1754 H 172.478 -6.35947 -4.58848 0
M  V30 1755 N 169.982 1.44106 -0.638065 0
M  V30 1756 C 171.207 2.0685 -0.150916 0
M  V30 1757 C 171.632 1.47417 1.16833 0
M  V30 1758 O 170.99 0.578264 1.71831 0
M  V30 1759 C 171.038 3.60555 -0.05708 0
M  V30 1760 O 170.142 4.00465 0.984972 0
M  V30 1761 H 169.483 0.658151 -0.0879399 0
M  V30 1762 H 172.013 1.84865 -0.876707 0
M  V30 1763 H 172.023 4.07789 0.131232 0
M  V30 1764 H 170.698 4.03193 -1.02021 0
M  V30 1765 H 169.275 3.64849 0.770672 0
M  V30 1766 N 171.46 0.379036 1.52974 0
M  V30 1767 C 172.39 -0.452706 2.29069 0
M  V30 1768 C 173.371 -1.07237 1.32039 0
M  V30 1769 O 174.556 -1.08708 1.60923 0
M  V30 1770 C 171.686 -1.5856 3.08992 0
M  V30 1771 C 170.64 -1.0925 4.13822 0
M  V30 1772 C 169.966 -2.31668 4.81907 0
M  V30 1773 C 171.266 -0.167702 5.22031 0
M  V30 1774 H 172.96 0.182181 2.98845 0
M  V30 1775 H 170.506 0.0890592 1.43724 0
M  V30 1776 H 172.459 -2.1742 3.6098 0
M  V30 1777 H 171.183 -2.24792 2.36931 0
M  V30 1778 H 169.842 -0.526494 3.628 0
M  V30 1779 H 169.49 -2.96386 4.06404 0
M  V30 1780 H 169.19 -1.9934 5.52754 0
M  V30 1781 H 170.714 -2.91189 5.36695 0
M  V30 1782 H 172.128 -0.664186 5.6944 0
M  V30 1783 H 170.525 0.0653265 6.00064 0
M  V30 1784 H 171.595 0.786347 4.78482 0
M  V30 1785 N 172.938 -1.57226 0.108567 0
M  V30 1786 C 174.186 -1.94448 -0.550853 0
M  V30 1787 C 174.507 -0.992074 -1.67878 0
M  V30 1788 O 173.777 -0.0465 -1.95845 0
M  V30 1789 H 172.357 -0.717897 -0.206479 0
M  V30 1790 H 175.019 -1.94112 0.175062 0
M  V30 1791 H 174.115 -2.97218 -0.952259 0
M  V30 1792 N 174.416 0.165178 -1.56732 0
M  V30 1793 C 175.665 0.879143 -1.81532 0
M  V30 1794 C 175.978 1.83144 -0.686842 0
M  V30 1795 O 177.184 2.58823 -0.819944 0
M  V30 1796 C 175.64 1.61388 -3.21686 0
M  V30 1797 C 175.248 0.704904 -4.4242 0
M  V30 1798 C 176.992 2.3157 -3.55774 0
M  V30 1799 C 174.899 1.44022 -5.73595 0
M  V30 1800 H 173.829 0.332033 -0.676957 0
M  V30 1801 H 176.48 0.132008 -1.83025 0
M  V30 1802 H 174.862 2.40599 -3.14529 0
M  V30 1803 H 176.036 -0.0506815 -4.60772 0
M  V30 1804 H 174.351 0.112419 -4.16248 0
M  V30 1805 H 176.948 2.8719 -4.51028 0
M  V30 1806 H 177.291 3.07201 -2.8095 0
M  V30 1807 H 177.824 1.59297 -3.64513 0
M  V30 1808 H 174.563 0.72612 -6.51466 0
M  V30 1809 H 174.083 2.16898 -5.5921 0
M  V30 1810 H 175.762 1.98606 -6.15764 0
M  V30 1811 N 175.894 1.51508 0.433938 0
M  V30 1812 C 177.305 1.56784 1.01369 0
M  V30 1813 C 177.656 0.393349 1.92217 0
M  V30 1814 O 176.781 -0.489441 2.10792 0
M  V30 1815 C 177.376 2.84144 1.8452 0
M  V30 1816 C 175.935 2.9198 2.37539 0
M  V30 1817 C 175.082 2.51482 1.16843 0
M  V30 1818 H 178.033 1.57236 0.215081 0
M  V30 1819 H 178.054 2.68098 2.70007 0
M  V30 1820 H 177.566 3.69607 1.18373 0
M  V30 1821 H 175.667 2.10955 3.0713 0
M  V30 1822 H 175.78 3.95704 2.70103 0
M  V30 1823 H 174.144 2.04758 1.51481 0
M  V30 1824 H 174.927 3.39293 0.523015 0
M  V30 1825 N 177.372 -0.689602 1.41712 0
M  V30 1826 C 178.618 -1.45181 1.41599 0
M  V30 1827 C 178.951 -1.94181 0.0270081 0
M  V30 1828 O 178.226 -1.6993 -0.946265 0
M  V30 1829 C 178.509 -2.65945 2.42787 0
M  V30 1830 C 178.362 -2.22672 3.90816 0
M  V30 1831 C 179.681 -3.68149 2.41151 0
M  V30 1832 H 176.8 -0.526576 0.515642 0
M  V30 1833 H 179.442 -0.784947 1.73028 0
M  V30 1834 H 177.592 -3.2284 2.16116 0
M  V30 1835 H 179.264 -1.71058 4.28412 0
M  V30 1836 H 177.507 -1.54394 4.05395 0
M  V30 1837 H 178.178 -3.0935 4.57172 0
M  V30 1838 H 180.654 -3.2094 2.64834 0
M  V30 1839 H 179.53 -4.50248 3.13955 0
M  V30 1840 H 179.791 -4.18259 1.43221 0
M  V30 1841 N 178.85 -1.27639 -0.924453 0
M  V30 1842 C 180.096 -1.14336 -1.67497 0
M  V30 1843 C 180.429 0.309465 -1.91718 0
M  V30 1844 O 179.704 1.22608 -1.50989 0
M  V30 1845 C 179.987 -1.93096 -3.0395 0
M  V30 1846 C 179.84 -3.46381 -2.8695 0
M  V30 1847 C 181.159 -1.73798 -4.0433 0
M  V30 1848 H 178.278 -0.416728 -0.607871 0
M  V30 1849 H 180.92 -1.56832 -1.07256 0
M  V30 1850 H 179.07 -1.56982 -3.55372 0
M  V30 1851 H 180.742 -3.92343 -2.42621 0
M  V30 1852 H 178.985 -3.72557 -2.22225 0
M  V30 1853 H 179.656 -3.96735 -3.83804 0
M  V30 1854 H 182.132 -2.05293 -3.61931 0
M  V30 1855 H 181.008 -2.31294 -4.97789 0
M  V30 1856 H 181.269 -0.686725 -4.36734 0
M  V30 1857 N 180.328 1.1314 -1.09713 0
M  V30 1858 C 181.258 2.20748 -0.761102 0
M  V30 1859 C 182.239 1.68061 0.262566 0
M  V30 1860 O 183.424 1.93765 0.129977 0
M  V30 1861 C 180.554 3.46812 -0.184054 0
M  V30 1862 C 179.508 4.12606 -1.13757 0
M  V30 1863 C 178.834 5.33031 -0.422083 0
M  V30 1864 C 180.134 4.59603 -2.48118 0
M  V30 1865 H 181.828 2.49113 -1.66082 0
M  V30 1866 H 179.374 1.19734 -0.799987 0
M  V30 1867 H 181.327 4.21353 0.0631215 0
M  V30 1868 H 180.051 3.17851 0.750868 0
M  V30 1869 H 178.71 3.40036 -1.37007 0
M  V30 1870 H 178.358 5.00335 0.517072 0
M  V30 1871 H 178.058 5.77999 -1.05788 0
M  V30 1872 H 179.582 6.10325 -0.183277 0
M  V30 1873 H 180.996 5.25552 -2.29059 0
M  V30 1874 H 179.393 5.15321 -3.07514 0
M  V30 1875 H 180.463 3.73971 -3.08665 0
M  V30 1876 N 181.806 0.884767 1.30421 0
M  V30 1877 C 182.756 0.322846 2.25703 0
M  V30 1878 C 183.74 -0.548582 1.51259 0
M  V30 1879 O 184.932 -0.39304 1.72581 0
M  V30 1880 C 182.061 -0.461787 3.4018 0
M  V30 1881 C 181.147 0.423717 4.21978 0
M  V30 1882 N 181.538 1.52408 4.82292 0
M  V30 1883 C 179.836 0.218795 4.45463 0
M  V30 1884 C 180.537 2.07136 5.43571 0
M  V30 1885 N 179.513 1.36635 5.26148 0
M  V30 1886 H 183.315 1.16363 2.69883 0
M  V30 1887 H 180.829 0.73415 1.44859 0
M  V30 1888 H 182.826 -0.880985 4.07485 0
M  V30 1889 H 181.486 -1.30001 2.9754 0
M  V30 1890 H 182.497 1.90693 4.81515 0
M  V30 1891 H 179.174 -0.582275 4.1342 0
M  V30 1892 H 180.564 2.99538 6.01437 0
M  V30 1893 N 183.284 -1.43765 0.645699 0
M  V30 1894 C 184.194 -2.34544 -0.0512957 0
M  V30 1895 C 185.21 -1.53455 -0.82022 0
M  V30 1896 O 186.386 -1.86133 -0.769176 0
M  V30 1897 C 183.451 -3.31636 -1.01087 0
M  V30 1898 C 182.512 -4.2863 -0.239712 0
M  V30 1899 C 181.745 -5.21084 -1.15358 0
M  V30 1900 O 181.968 -5.1779 -2.39269 0
M  V30 1901 O 180.902 -5.98593 -0.630038 0
M  V30 1902 H 184.728 -2.95624 0.695718 0
M  V30 1903 H 182.313 -1.43781 0.405882 0
M  V30 1904 H 184.195 -3.9136 -1.56254 0
M  V30 1905 H 182.87 -2.73069 -1.73824 0
M  V30 1906 H 181.777 -3.72408 0.355356 0
M  V30 1907 H 183.11 -4.90157 0.447936 0
M  V30 1908 N 184.763 -0.387143 -1.52771 0
M  V30 1909 C 185.695 0.484089 -2.2403 0
M  V30 1910 C 186.708 1.02849 -1.26198 0
M  V30 1911 O 187.897 0.931186 -1.52286 0
M  V30 1912 C 184.997 1.68337 -2.94136 0
M  V30 1913 C 184.17 1.26672 -4.18656 0
M  V30 1914 C 183.229 2.33045 -4.7178 0
M  V30 1915 O 182.255 1.94541 -5.34923 0
M  V30 1916 N 183.457 3.64929 -4.5145 0
M  V30 1917 H 186.222 -0.126404 -2.99433 0
M  V30 1918 H 183.783 -0.213392 -1.60488 0
M  V30 1919 H 185.775 2.39019 -3.26577 0
M  V30 1920 H 184.345 2.20025 -2.22053 0
M  V30 1921 H 183.565 0.388878 -3.92277 0
M  V30 1922 H 184.853 0.964964 -4.99566 0
M  V30 1923 H 184.251 3.98974 -4.01044 0
M  V30 1924 H 182.808 4.31651 -4.88386 0
M  V30 1925 N 186.241 1.57166 -0.116904 0
M  V30 1926 C 187.189 2.16457 0.851418 0
M  V30 1927 C 188.183 1.11323 1.27686 0
M  V30 1928 O 189.389 1.2963 1.24884 0
M  V30 1929 H 185.764 0.69271 0.292672 0
M  V30 1930 H 187.735 2.96605 0.32685 0
M  V30 1931 C 186.484 2.77689 2.09246 0
M  V30 1932 H 185.807 3.58285 1.77402 0
M  V30 1933 H 187.247 3.22716 2.7501 0
M  V30 1934 C 185.706 1.74667 2.88085 0
M  V30 1935 O 186.236 1.19877 3.83396 0
M  V30 1936 N 184.442 1.44656 2.52038 0
M  V30 1937 H 183.989 1.89402 1.74599 0
M  V30 1938 H 183.947 0.759675 3.05084 0
M  V30 1939 N 187.719 -0.156864 1.56817 0
M  V30 1940 C 188.967 -0.869404 1.82444 0
M  V30 1941 C 189.288 -1.82147 0.69623 0
M  V30 1942 O 188.558 -1.93847 -0.28287 0
M  V30 1943 H 187.138 -0.324043 0.673056 0
M  V30 1944 H 189.8 -0.153224 1.94297 0
M  V30 1945 H 188.896 -1.43761 2.77019 0
M  V30 1946 N 189.197 -1.51736 -0.425897 0
M  V30 1947 C 190.446 -1.64201 -1.17136 0
M  V30 1948 C 190.759 -0.369705 -1.92074 0
M  V30 1949 O 191.965 -0.373898 -2.68913 0
M  V30 1950 C 190.421 -2.90035 -2.13091 0
M  V30 1951 C 190.029 -4.24312 -1.43747 0
M  V30 1952 C 191.773 -3.1186 -2.87999 0
M  V30 1953 C 189.68 -5.41285 -2.38253 0
M  V30 1954 H 188.61 -0.611624 -0.440944 0
M  V30 1955 H 191.261 -1.78212 -0.437328 0
M  V30 1956 H 189.643 -2.69684 -2.89977 0
M  V30 1957 H 190.817 -4.55086 -0.723408 0
M  V30 1958 H 189.132 -4.08456 -0.809465 0
M  V30 1959 H 191.729 -3.96427 -3.58817 0
M  V30 1960 H 192.072 -2.25403 -3.49999 0
M  V30 1961 H 192.605 -3.32605 -2.18217 0
M  V30 1962 H 189.344 -6.30037 -1.80925 0
M  V30 1963 H 188.864 -5.14872 -3.0768 0
M  V30 1964 H 190.543 -5.73694 -2.99139 0
M  V30 1965 N 190.675 0.682077 -1.42076 0
M  V30 1966 C 191.638 1.77756 -1.44691 0
M  V30 1967 C 192.638 1.5726 -0.335535 0
M  V30 1968 O 193.828 1.63686 -0.596037 0
M  V30 1969 C 190.96 3.16301 -1.27146 0
M  V30 1970 H 192.153 1.76826 -2.42224 0
M  V30 1971 H 189.706 0.891012 -1.28416 0
M  V30 1972 H 190.441 3.22862 -0.305075 0
M  V30 1973 H 190.226 3.32581 -2.07683 0
M  V30 1974 H 191.716 3.96241 -1.31843 0
M  V30 1975 N 192.153 1.28127 0.917671 0
M  V30 1976 C 193.401 1.14825 1.66312 0
M  V30 1977 C 193.722 -0.304379 1.9261 0
M  V30 1978 O 192.992 -1.21149 1.53947 0
M  V30 1979 H 191.572 0.421953 0.616413 0
M  V30 1980 H 194.234 1.608 1.10134 0
M  V30 1981 H 193.33 1.68489 2.62712 0
M  V30 1982 N 193.631 -1.12557 1.10312 0
M  V30 1983 C 194.561 -2.20341 0.772798 0
M  V30 1984 C 195.542 -1.68198 -0.25365 0
M  V30 1985 O 196.727 -1.93831 -0.119699 0
M  V30 1986 C 193.857 -3.46709 0.202443 0
M  V30 1987 C 192.811 -4.11996 1.15943 0
M  V30 1988 C 192.137 -5.328 0.450345 0
M  V30 1989 C 193.437 -4.5828 2.50552 0
M  V30 1990 H 195.131 -2.48229 1.674 0
M  V30 1991 H 192.677 -1.19308 0.806326 0
M  V30 1992 H 194.63 -4.2138 -0.0407752 0
M  V30 1993 H 193.354 -3.18245 -0.734001 0
M  V30 1994 H 192.013 -3.39305 1.38808 0
M  V30 1995 H 191.661 -5.00602 -0.490531 0
M  V30 1996 H 191.361 -5.7743 1.08851 0
M  V30 1997 H 192.885 -6.10219 0.215642 0
M  V30 1998 H 194.299 -5.2433 2.31843 0
M  V30 1999 H 192.696 -5.13683 3.10242 0
M  V30 2000 H 193.766 -3.72329 3.10643 0
M  V30 2001 N 195.109 -0.891671 -1.2995 0
M  V30 2002 C 196.337 -0.52866 -2.00032 0
M  V30 2003 C 196.752 0.884574 -1.66795 0
M  V30 2004 O 196.109 1.5827 -0.908669 0
M  V30 2005 C 196.16 -0.701814 -3.54622 0
M  V30 2006 O 195.881 -2.05942 -3.86678 0
M  V30 2007 C 197.382 -0.342683 -4.41973 0
M  V30 2008 H 194.602 -0.203659 -0.639347 0
M  V30 2009 H 197.146 -1.19881 -1.65677 0
M  V30 2010 H 195.301 -0.0789468 -3.8732 0
M  V30 2011 H 195.715 -2.08291 -4.81368 0
M  V30 2012 H 197.189 -0.514709 -5.49595 0
M  V30 2013 H 197.666 0.71975 -4.33262 0
M  V30 2014 H 198.272 -0.942154 -4.14733 0
M  V30 2015 N 196.587 1.43421 -0.653314 0
M  V30 2016 C 197.535 2.32546 0.0501531 0
M  V30 2017 C 198.529 1.48617 0.812985 0
M  V30 2018 O 199.735 1.64825 0.723375 0
M  V30 2019 H 196.11 0.751185 0.0350032 0
M  V30 2020 H 198.081 2.89602 -0.719261 0
M  V30 2021 C 196.83 3.32925 1.00279 0
M  V30 2022 H 196.153 3.97532 0.425236 0
M  V30 2023 H 197.593 3.9792 1.46409 0
M  V30 2024 C 196.052 2.63532 2.09886 0
M  V30 2025 O 196.582 2.45092 3.18265 0
M  V30 2026 N 194.788 2.22905 1.86445 0
M  V30 2027 H 194.335 2.38103 0.98309 0
M  V30 2028 H 194.293 1.76805 2.59976 0
M  V30 2029 N 198.065 0.39524 1.52563 0
M  V30 2030 C 199.012 -0.437036 2.26624 0
M  V30 2031 C 199.982 -1.05281 1.28472 0
M  V30 2032 O 201.167 -1.07971 1.57311 0
M  V30 2033 C 198.307 -1.55524 3.08069 0
M  V30 2034 C 197.42 -0.961745 4.21158 0
M  V30 2035 C 196.555 -2.05149 4.89987 0
M  V30 2036 C 195.594 -1.4342 5.95061 0
M  V30 2037 N 194.731 -2.46351 6.57462 0
M  V30 2038 H 199.571 0.200976 2.97322 0
M  V30 2039 H 197.108 0.110944 1.46681 0
M  V30 2040 H 199.066 -2.21437 3.53584 0
M  V30 2041 H 197.696 -2.16348 2.3957 0
M  V30 2042 H 196.748 -0.192048 3.79915 0
M  V30 2043 H 198.06 -0.470701 4.96574 0
M  V30 2044 H 197.214 -2.78819 5.38837 0
M  V30 2045 H 195.953 -2.57615 4.14109 0
M  V30 2046 H 194.958 -0.682774 5.45544 0
M  V30 2047 H 196.183 -0.917416 6.72875 0
M  V30 2048 H 194.129 -2.97975 5.8442 0
M  V30 2049 H 194.046 -2.02019 7.28508 0
M  V30 2050 H 195.314 -3.19633 7.10954 0
M  V30 2051 N 199.544 -1.57102 0.125237 0
M  V30 2052 C 200.79 -1.96488 -0.525753 0
M  V30 2053 C 201.145 -1.00786 -1.6389 0
M  V30 2054 O 200.438 -0.038979 -1.9156 0
M  V30 2055 C 200.632 -3.40096 -1.09862 0
M  V30 2056 C 200.461 -4.4968 -0.0425004 0
M  V30 2057 C 199.231 -5.03781 0.391463 0
M  V30 2058 C 201.429 -5.08936 0.740829 0
M  V30 2059 N 199.411 -5.96948 1.4327 0
M  V30 2060 C 200.782 -5.98105 1.6331 0
M  V30 2061 C 202.837 -4.91576 0.791029 0
M  V30 2062 C 201.54 -6.71774 2.57122 0
M  V30 2063 C 203.566 -5.6593 1.71688 0
M  V30 2064 C 202.928 -6.5479 2.59672 0
M  V30 2065 H 199.027 -0.765072 -0.161831 0
M  V30 2066 H 201.611 -1.93511 0.214801 0
M  V30 2067 H 199.782 -3.43707 -1.80887 0
M  V30 2068 H 201.514 -3.66591 -1.71444 0
M  V30 2069 H 198.269 -4.736 -0.00213584 0
M  V30 2070 H 198.693 -6.48236 1.95243 0
M  V30 2071 H 203.335 -4.22615 0.124915 0
M  V30 2072 H 201.053 -7.39977 3.24744 0
M  V30 2073 H 204.639 -5.54501 1.76125 0
M  V30 2074 H 203.519 -7.11316 3.30149 0
M  V30 2075 N 201.022 0.148545 -1.56898 0
M  V30 2076 C 201.952 1.18524 -2.01182 0
M  V30 2077 C 202.933 1.4489 -0.891123 0
M  V30 2078 O 204.118 1.55836 -1.15882 0
M  V30 2079 C 201.248 2.51879 -2.39112 0
M  V30 2080 C 200.202 2.40038 -3.54353 0
M  V30 2081 C 199.528 3.78089 -3.78091 0
M  V30 2082 C 200.828 1.88577 -4.87069 0
M  V30 2083 H 202.522 0.817029 -2.88036 0
M  V30 2084 H 200.068 0.391575 -1.38574 0
M  V30 2085 H 202.021 3.24627 -2.68692 0
M  V30 2086 H 200.745 2.90532 -1.49193 0
M  V30 2087 H 199.404 1.69742 -3.24936 0
M  V30 2088 H 199.052 4.14175 -2.85426 0
M  V30 2089 H 198.752 3.71028 -4.55645 0
M  V30 2090 H 200.276 4.52387 -4.10095 0
M  V30 2091 H 201.69 2.51117 -5.15377 0
M  V30 2092 H 200.087 1.9241 -5.68417 0
M  V30 2093 H 201.157 0.84136 -4.77545 0
M  V30 2094 N 202.5 1.5196 0.417844 0
M  V30 2095 C 203.463 1.74065 1.49111 0
M  V30 2096 C 204.463 0.610537 1.48758 0
M  V30 2097 O 205.653 0.87832 1.50437 0
M  V30 2098 C 202.785 1.81502 2.88565 0
M  V30 2099 H 203.978 2.69869 1.30807 0
M  V30 2100 H 201.531 1.42244 0.647785 0
M  V30 2101 H 202.266 0.875813 3.1225 0
M  V30 2102 H 202.051 2.63651 2.90225 0
M  V30 2103 H 203.541 2.00376 3.66387 0
M  V30 2104 N 203.978 -0.674533 1.42435 0
M  V30 2105 C 204.925 -1.78807 1.45934 0
M  V30 2106 C 205.895 -1.63157 0.311271 0
M  V30 2107 O 207.08 -1.83707 0.515383 0
M  V30 2108 C 204.22 -3.16839 1.36773 0
M  V30 2109 C 203.333 -3.43774 2.61617 0
M  V30 2110 C 202.468 -4.71536 2.44597 0
M  V30 2111 C 201.507 -4.91505 3.64814 0
M  V30 2112 N 200.644 -6.10508 3.46734 0
M  V30 2113 H 205.484 -1.75151 2.41093 0
M  V30 2114 H 203.021 -0.85504 1.19697 0
M  V30 2115 H 204.979 -3.96606 1.29459 0
M  V30 2116 H 203.609 -3.19619 0.452089 0
M  V30 2117 H 202.661 -2.58259 2.79297 0
M  V30 2118 H 203.973 -3.54423 3.50978 0
M  V30 2119 H 203.127 -5.59393 2.3487 0
M  V30 2120 H 201.866 -4.6317 1.52726 0
M  V30 2121 H 200.871 -4.0209 3.74972 0
M  V30 2122 H 202.096 -5.01716 4.57665 0
M  V30 2123 H 200.042 -6.03315 2.5758 0
M  V30 2124 H 199.959 -6.2202 4.29682 0
M  V30 2125 H 201.227 -7.01044 3.40819 0
M  V30 2126 N 205.456 -1.28612 -0.910864 0
M  V30 2127 C 206.705 -1.15311 -1.65488 0
M  V30 2128 C 207.018 0.296999 -1.93332 0
M  V30 2129 O 208.224 0.551168 -2.65847 0
M  V30 2130 C 206.68 -2.01599 -2.98137 0
M  V30 2131 C 206.288 -3.51367 -2.7793 0
M  V30 2132 C 208.032 -1.96993 -3.76024 0
M  V30 2133 C 205.939 -4.29797 -4.06237 0
M  V30 2134 H 204.869 -0.42796 -0.620779 0
M  V30 2135 H 207.52 -1.53166 -1.01057 0
M  V30 2136 H 205.902 -1.56603 -3.63719 0
M  V30 2137 H 207.076 -4.0434 -2.21011 0
M  V30 2138 H 205.391 -3.57529 -2.13452 0
M  V30 2139 H 207.988 -2.52856 -4.71135 0
M  V30 2140 H 208.331 -0.94733 -4.05378 0
M  V30 2141 H 208.864 -2.39973 -3.17266 0
M  V30 2142 H 205.603 -5.32648 -3.82055 0
M  V30 2143 H 205.123 -3.81596 -4.62757 0
M  V30 2144 H 206.802 -4.39869 -4.74473 0
M  V30 2145 N 206.934 1.1197 -1.10907 0
M  V30 2146 C 207.897 2.16031 -0.765707 0
M  V30 2147 C 208.897 1.59393 0.212235 0
M  V30 2148 O 210.087 1.74196 -0.0115441 0
M  V30 2149 C 207.219 3.40632 -0.135053 0
M  V30 2150 H 208.412 2.47919 -1.68748 0
M  V30 2151 H 205.965 1.27061 -0.910226 0
M  V30 2152 H 206.7 3.14348 0.797218 0
M  V30 2153 H 206.485 3.8302 -0.838937 0
M  V30 2154 H 207.975 4.17505 0.0892469 0
M  V30 2155 N 208.412 0.89855 1.29475 0
M  V30 2156 C 209.64 0.539261 1.99749 0
M  V30 2157 C 210.055 -0.875716 1.67262 0
M  V30 2158 O 209.412 -1.57786 0.917049 0
M  V30 2159 C 209.463 0.72061 3.54245 0
M  V30 2160 O 209.184 2.07989 3.8558 0
M  V30 2161 C 210.685 0.366118 4.41786 0
M  V30 2162 H 207.905 0.207047 0.638258 0
M  V30 2163 H 210.449 1.20758 1.65039 0
M  V30 2164 H 208.604 0.0994862 3.87272 0
M  V30 2165 H 209.018 2.10841 4.80257 0
M  V30 2166 H 210.492 0.543848 5.49314 0
M  V30 2167 H 210.969 -0.696763 4.33638 0
M  V30 2168 H 211.575 0.964135 4.14228 0
M  V30 2169 N 209.89 -1.43072 0.660911 0
M  V30 2170 C 210.837 -2.30785 -0.0259884 0
M  V30 2171 C 211.807 -1.45184 -0.806888 0
M  V30 2172 O 212.992 -1.74041 -0.781943 0
M  V30 2173 C 210.132 -3.30861 -0.981067 0
M  V30 2174 C 209.245 -4.31558 -0.195458 0
M  V30 2175 C 208.38 -5.18712 -1.14503 0
M  V30 2176 C 207.419 -6.11097 -0.350299 0
M  V30 2177 N 206.556 -6.90849 -1.25186 0
M  V30 2178 H 211.396 -2.88975 0.727846 0
M  V30 2179 H 208.933 -1.42353 0.370682 0
M  V30 2180 H 210.891 -3.87399 -1.54849 0
M  V30 2181 H 209.521 -2.74304 -1.70169 0
M  V30 2182 H 208.573 -3.77252 0.488374 0
M  V30 2183 H 209.885 -4.9701 0.422176 0
M  V30 2184 H 209.039 -5.79914 -1.78284 0
M  V30 2185 H 207.778 -4.53404 -1.79656 0
M  V30 2186 H 206.783 -5.48976 0.300808 0
M  V30 2187 H 208.008 -6.7845 0.296941 0
M  V30 2188 H 205.954 -6.28182 -1.89005 0
M  V30 2189 H 205.871 -7.52854 -0.688971 0
M  V30 2190 H 207.139 -7.5655 -1.87757 0
M  V30 2191 N 211.368 -0.403325 -1.52352 0
M  V30 2192 C 212.614 0.174605 -2.02047 0
M  V30 2193 C 212.947 1.45282 -1.28867 0
M  V30 2194 O 212.222 1.90483 -0.393257 0
M  V30 2195 C 212.505 0.428238 -3.57545 0
M  V30 2196 C 212.358 -0.866248 -4.4138 0
M  V30 2197 C 213.677 1.21287 -4.23057 0
M  V30 2198 H 210.796 0.0619851 -0.734389 0
M  V30 2199 H 213.438 -0.53565 -1.82293 0
M  V30 2200 H 211.588 1.03327 -3.74507 0
M  V30 2201 H 213.26 -1.50265 -4.3614 0
M  V30 2202 H 211.503 -1.47851 -4.07827 0
M  V30 2203 H 212.174 -0.643249 -5.48239 0
M  V30 2204 H 214.65 0.700703 -4.10158 0
M  V30 2205 H 213.526 1.35909 -5.31808 0
M  V30 2206 H 213.787 2.23193 -3.81625 0
M  V30 2207 N 212.846 1.57033 -0.133567 0
M  V30 2208 C 213.779 2.11824 0.848872 0
M  V30 2209 C 214.757 1.03833 1.2513 0
M  V30 2210 O 215.941 1.31579 1.34978 0
M  V30 2211 C 213.068 2.62692 2.138 0
M  V30 2212 C 212.114 3.82705 1.88253 0
M  V30 2213 S 212.947 5.2438 1.08563 0
M  V30 2214 C 214.103 5.78627 2.38624 0
M  V30 2215 H 214.336 2.94824 0.38289 0
M  V30 2216 H 211.869 1.5419 0.0804796 0
M  V30 2217 H 213.827 2.92652 2.87863 0
M  V30 2218 H 212.488 1.79847 2.57515 0
M  V30 2219 H 211.681 4.16496 2.83809 0
M  V30 2220 H 211.283 3.53437 1.22305 0
M  V30 2221 H 213.575 5.8924 3.34369 0
M  V30 2222 H 214.518 6.76443 2.09358 0
M  V30 2223 H 214.926 5.06783 2.48658 0
M  V30 2224 N 214.325 -0.140222 1.56975 0
M  V30 2225 C 215.257 -1.19818 1.95388 0
M  V30 2226 C 216.27 -1.38816 0.850525 0
M  V30 2227 O 217.459 -1.38267 1.12891 0
M  V30 2228 C 214.559 -2.56189 2.21857 0
M  V30 2229 C 213.732 -2.58077 3.5315 0
M  V30 2230 C 212.791 -3.76037 3.6808 0
M  V30 2231 O 211.817 -3.60598 4.40406 0
M  V30 2232 N 213.019 -4.93763 3.05251 0
M  V30 2233 H 215.784 -0.871609 2.86746 0
M  V30 2234 H 213.345 -0.32972 1.58507 0
M  V30 2235 H 215.337 -3.33623 2.2908 0
M  V30 2236 H 213.907 -2.81111 1.36731 0
M  V30 2237 H 213.127 -1.6651 3.57307 0
M  V30 2238 H 214.415 -2.56377 4.39486 0
M  V30 2239 H 213.813 -5.09209 2.46419 0
M  V30 2240 H 212.37 -5.68949 3.18026 0
M  V30 2241 N 215.803 -1.52179 -0.40978 0
M  V30 2242 C 216.766 -1.74853 -1.48186 0
M  V30 2243 C 217.766 -0.618417 -1.48433 0
M  V30 2244 O 218.956 -0.886286 -1.49969 0
M  V30 2245 C 216.088 -1.8303 -2.87598 0
M  V30 2246 H 217.281 -2.70559 -1.29374 0
M  V30 2247 H 214.834 -1.42586 -0.640233 0
M  V30 2248 H 215.569 -0.89236 -3.11781 0
M  V30 2249 H 215.354 -2.65187 -2.88822 0
M  V30 2250 H 216.844 -2.02316 -3.65319 0
M  V30 2251 N 217.281 0.66697 -1.42791 0
M  V30 2252 C 218.528 1.42699 -1.43678 0
M  V30 2253 C 218.856 1.94419 -0.0560425 0
M  V30 2254 O 218.111 1.7182 0.936831 0
M  V30 2255 C 218.41 2.6349 -2.4147 0
M  V30 2256 C 218.076 2.30267 -3.8767 0
M  V30 2257 C 216.738 2.20918 -4.27491 0
M  V30 2258 C 219.09 2.03435 -4.79858 0
M  V30 2259 C 216.418 1.82873 -5.57471 0
M  V30 2260 C 218.77 1.66892 -6.10188 0
M  V30 2261 C 217.434 1.56058 -6.49001 0
M  V30 2262 H 216.704 0.522171 -0.525755 0
M  V30 2263 H 219.351 0.759785 -1.75783 0
M  V30 2264 H 217.656 3.35279 -2.0272 0
M  V30 2265 H 219.353 3.21684 -2.39417 0
M  V30 2266 H 215.943 2.38449 -3.56146 0
M  V30 2267 H 220.127 2.09586 -4.49875 0
M  V30 2268 H 215.383 1.7306 -5.86396 0
M  V30 2269 H 219.557 1.45157 -6.81104 0
M  V30 2270 H 217.184 1.26348 -7.49627 0
M  V30 2271 N 218.759 1.29093 0.90403 0
M  V30 2272 C 220.17 1.15186 1.46932 0
M  V30 2273 C 220.521 -0.254587 1.94541 0
M  V30 2274 O 219.646 -1.14972 1.83332 0
M  V30 2275 C 220.241 2.08492 2.67051 0
M  V30 2276 C 218.8 1.98621 3.19729 0
M  V30 2277 C 217.947 1.9967 1.92425 0
M  V30 2278 H 220.898 1.41641 0.715789 0
M  V30 2279 H 220.919 1.65461 3.42641 0
M  V30 2280 H 220.431 3.10847 2.3237 0
M  V30 2281 H 218.532 0.993389 3.59114 0
M  V30 2282 H 218.645 2.86068 3.8432 0
M  V30 2283 H 217.009 1.44208 2.09943 0
M  V30 2284 H 217.792 3.03721 1.60026 0
M  V30 2285 N 220.237 -1.11381 1.11499 0
M  V30 2286 C 221.485 -1.8277 0.862524 0
M  V30 2287 C 221.806 -1.85097 -0.613534 0
M  V30 2288 O 221.076 -1.32198 -1.4457 0
M  V30 2289 H 219.656 -0.676823 0.316101 0
M  V30 2290 H 222.318 -1.34816 1.4075 0
M  V30 2291 H 221.414 -2.86614 1.23527 0
M  V30 2292 N 221.715 -0.905404 -1.28997 0
M  V30 2293 C 222.678 -0.392253 -2.25819 0
M  V30 2294 C 223.678 0.476753 -1.5357 0
M  V30 2295 O 224.868 0.280994 -1.71919 0
M  V30 2296 C 222 0.438588 -3.38067 0
M  V30 2297 H 223.193 -1.24743 -2.72725 0
M  V30 2298 H 220.746 -0.684051 -1.40536 0
M  V30 2299 H 221.481 1.31352 -2.96508 0
M  V30 2300 H 221.266 -0.184167 -3.91667 0
M  V30 2301 H 222.756 0.78873 -4.10084 0
M  V30 2302 N 223.193 1.4272 -0.668489 0
M  V30 2303 C 224.44 2.01624 -0.18814 0
M  V30 2304 C 224.768 1.5282 1.20317 0
M  V30 2305 O 224.023 0.718323 1.8204 0
M  V30 2306 C 224.322 3.57021 -0.164499 0
M  V30 2307 C 223.988 4.25232 -1.49962 0
M  V30 2308 C 222.65 4.4358 -1.8652 0
M  V30 2309 C 225.002 4.63727 -2.37921 0
M  V30 2310 C 222.33 4.97694 -3.10674 0
M  V30 2311 C 224.682 5.19218 -3.6138 0
M  V30 2312 C 223.346 5.3578 -3.98115 0
M  V30 2313 H 222.616 0.737795 -0.0688454 0
M  V30 2314 H 225.263 1.70991 -0.862225 0
M  V30 2315 H 223.568 3.87285 0.593079 0
M  V30 2316 H 225.265 4.00372 0.224271 0
M  V30 2317 H 221.855 4.11306 -1.20522 0
M  V30 2318 H 226.039 4.4923 -2.10964 0
M  V30 2319 H 221.295 5.08702 -3.39164 0
M  V30 2320 H 225.469 5.4799 -4.29743 0
M  V30 2321 H 223.096 5.77475 -4.94395 0
M  V30 2322 N 224.671 0.411399 1.52136 0
M  V30 2323 C 226.082 -0.0576826 1.86611 0
M  V30 2324 C 226.433 -1.44238 1.33003 0
M  V30 2325 O 225.558 -2.05759 0.670228 0
M  V30 2326 C 226.153 -0.111448 3.38617 0
M  V30 2327 C 224.712 -0.52487 3.72723 0
M  V30 2328 C 223.859 0.299176 2.75681 0
M  V30 2329 H 226.81 0.628368 1.4573 0
M  V30 2330 H 226.831 -0.926252 3.69054 0
M  V30 2331 H 226.343 0.896488 3.77604 0
M  V30 2332 H 224.444 -1.53936 3.39315 0
M  V30 2333 H 224.557 -0.267681 4.78352 0
M  V30 2334 H 222.921 -0.238814 2.53578 0
M  V30 2335 H 223.704 1.3055 3.17508 0
M  V30 2336 N 226.149 -1.5696 0.141893 0
M  V30 2337 C 227.097 -2.17784 -0.816874 0
M  V30 2338 C 228.091 -1.1334 -1.25899 0
M  V30 2339 O 229.297 -1.316 -1.22806 0
M  V30 2340 H 225.672 -0.697278 -0.281615 0
M  V30 2341 H 227.643 -2.97087 -0.279621 0
M  V30 2342 C 226.392 -2.80983 -2.04802 0
M  V30 2343 H 225.715 -3.61062 -1.7168 0
M  V30 2344 H 227.155 -3.2705 -2.69841 0
M  V30 2345 C 225.614 -1.79228 -2.8527 0
M  V30 2346 O 226.144 -1.25962 -3.8144 0
M  V30 2347 N 224.35 -1.48647 -2.49704 0
M  V30 2348 H 223.897 -1.92155 -1.71564 0
M  V30 2349 H 223.855 -0.808115 -3.03837 0
M  V30 2350 N 227.627 0.131896 -1.57047 0
M  V30 2351 C 228.59 1.14638 -1.98471 0
M  V30 2352 C 229.59 1.35029 -0.873148 0
M  V30 2353 O 230.78 1.31764 -1.13946 0
M  V30 2354 C 227.912 2.50358 -2.31373 0
M  V30 2355 H 229.105 0.79064 -2.8929 0
M  V30 2356 H 226.658 0.375761 -1.51716 0
M  V30 2357 H 227.393 2.90876 -1.43393 0
M  V30 2358 H 227.178 2.36915 -3.12432 0
M  V30 2359 H 228.668 3.23395 -2.64207 0
M  V30 2360 N 229.106 1.52395 0.401703 0
M  V30 2361 C 230.016 1.7917 1.51444 0
M  V30 2362 C 231.032 0.677691 1.6026 0
M  V30 2363 O 232.208 0.963909 1.76835 0
M  V30 2364 C 229.273 1.94347 2.87107 0
M  V30 2365 C 228.334 3.18257 2.88116 0
M  V30 2366 C 227.567 3.32701 4.17308 0
M  V30 2367 O 227.79 2.52238 5.11598 0
M  V30 2368 O 226.724 4.25891 4.25324 0
M  V30 2369 H 230.55 2.73633 1.31752 0
M  V30 2370 H 228.135 1.3733 0.588296 0
M  V30 2371 H 230.017 2.06109 3.67555 0
M  V30 2372 H 228.692 1.03073 3.06851 0
M  V30 2373 H 227.599 3.11947 2.06494 0
M  V30 2374 H 228.932 4.09336 2.73322 0
M  V30 2375 N 230.584 -0.659388 1.43143 0
M  V30 2376 C 231.83 -1.42145 1.44647 0
M  V30 2377 C 232.163 -1.9408 0.0681907 0
M  V30 2378 O 231.438 -1.71899 -0.910007 0
M  V30 2379 C 231.721 -2.60735 2.48373 0
M  V30 2380 C 231.574 -2.14332 3.95451 0
M  V30 2381 C 232.893 -3.62951 2.48906 0
M  V30 2382 H 230.012 -0.51552 0.526696 0
M  V30 2383 H 232.654 -0.748069 1.74654 0
M  V30 2384 H 230.804 -3.18184 2.22916 0
M  V30 2385 H 232.476 -1.61932 4.31944 0
M  V30 2386 H 230.719 -1.4576 4.08578 0
M  V30 2387 H 231.39 -2.99583 4.63631 0
M  V30 2388 H 233.866 -3.1525 2.71582 0
M  V30 2389 H 232.742 -4.43487 3.23435 0
M  V30 2390 H 233.003 -4.15126 1.52061 0
M  V30 2391 N 232.062 -1.29571 -0.897171 0
M  V30 2392 C 233.308 -1.17863 -1.65034 0
M  V30 2393 C 233.641 0.268729 -1.92332 0
M  V30 2394 O 232.916 1.19378 -1.53555 0
M  V30 2395 C 233.199 -1.995 -2.99786 0
M  V30 2396 C 233.052 -3.5239 -2.79538 0
M  V30 2397 C 234.371 -1.82335 -4.00552 0
M  V30 2398 H 231.49 -0.429528 -0.598895 0
M  V30 2399 H 234.132 -1.59072 -1.03905 0
M  V30 2400 H 232.282 -1.64485 -3.51962 0
M  V30 2401 H 233.954 -3.97401 -2.34244 0
M  V30 2402 H 232.197 -3.77187 -2.14273 0
M  V30 2403 H 232.868 -4.04787 -3.75302 0
M  V30 2404 H 235.344 -2.12924 -3.57495 0
M  V30 2405 H 234.22 -2.41801 -4.92771 0
M  V30 2406 H 234.481 -0.779209 -4.35179 0
M  V30 2407 N 233.54 1.10788 -1.12088 0
M  V30 2408 C 234.788 1.8231 -0.872205 0
M  V30 2409 C 235.109 1.85419 0.603709 0
M  V30 2410 O 234.379 1.32963 1.43867 0
M  V30 2411 H 232.959 0.675137 -0.319686 0
M  V30 2412 H 235.621 1.34068 -1.41463 0
M  V30 2413 H 234.717 2.85955 -1.25045 0
M  V30 2414 N 235.018 0.912232 1.28515 0
M  V30 2415 C 235.966 0.389597 2.29314 0
M  V30 2416 C 236.96 -0.517915 1.61289 0
M  V30 2417 O 238.166 -0.399328 1.75515 0
M  V30 2418 H 234.541 0.107386 0.744293 0
M  V30 2419 H 236.512 1.25286 2.70825 0
M  V30 2420 C 235.261 -0.356496 3.45868 0
M  V30 2421 H 234.584 0.332608 3.98414 0
M  V30 2422 H 236.024 -0.686851 4.184 0
M  V30 2423 C 234.483 -1.56383 2.98406 0
M  V30 2424 O 235.013 -2.66294 3.00749 0
M  V30 2425 N 233.219 -1.41029 2.54085 0
M  V30 2426 H 232.766 -0.516089 2.52377 0
M  V30 2427 H 232.724 -2.21939 2.22689 0
M  V30 2428 N 236.496 -1.42363 0.676048 0
M  V30 2429 C 237.907 -1.84649 0.275948 0
M  V30 2430 C 238.258 -1.56588 -1.18214 0
M  V30 2431 O 237.383 -1.02634 -1.90513 0
M  V30 2432 C 237.978 -3.35178 0.494053 0
M  V30 2433 C 236.537 -3.76109 0.148061 0
M  V30 2434 C 235.684 -2.65931 0.785891 0
M  V30 2435 H 238.635 -1.32192 0.878121 0
M  V30 2436 H 238.656 -3.79655 -0.25343 0
M  V30 2437 H 238.168 -3.55571 1.55535 0
M  V30 2438 H 236.269 -3.61323 -0.909742 0
M  V30 2439 H 236.382 -4.7546 0.589454 0
M  V30 2440 H 234.746 -2.53773 0.217113 0
M  V30 2441 H 235.529 -2.89146 1.85067 0
M  V30 2442 N 237.974 -0.419461 -1.51915 0
M  V30 2443 C 239.22 0.153166 -2.02221 0
M  V30 2444 C 239.553 1.43907 -1.30401 0
M  V30 2445 O 238.828 1.90055 -0.413438 0
M  V30 2446 C 239.111 0.390291 -3.57979 0
M  V30 2447 C 238.964 -0.913014 -4.40436 0
M  V30 2448 C 240.283 1.16794 -4.2432 0
M  V30 2449 H 237.402 0.0541924 -0.735005 0
M  V30 2450 H 240.044 -0.554955 -1.81715 0
M  V30 2451 H 238.194 0.993491 -3.75582 0
M  V30 2452 H 239.866 -1.54882 -4.34522 0
M  V30 2453 H 238.109 -1.52168 -4.06236 0
M  V30 2454 H 238.78 -0.701361 -5.47526 0
M  V30 2455 H 241.256 0.657161 -4.10878 0
M  V30 2456 H 240.132 1.3026 -5.3322 0
M  V30 2457 H 240.393 2.19132 -3.83971 0
M  V30 2458 N 239.452 1.56882 -0.150215 0
M  V30 2459 C 240.868 1.58263 0.20617 0
M  V30 2460 C 241.068 1.16464 1.64434 0
M  V30 2461 O 240.124 0.866422 2.3717 0
M  V30 2462 C 241.437 3.00649 -0.0555025 0
M  V30 2463 C 242.985 3.12999 0.00795388 0
M  V30 2464 C 243.46 4.5744 -0.226429 0
M  V30 2465 N 244.951 4.62875 -0.173469 0
M  V30 2466 C 245.686 5.72454 -0.329288 0
M  V30 2467 N 245.182 6.90669 -0.543005 0
M  V30 2468 N 246.975 5.61467 -0.266666 0
M  V30 2469 H 239.126 1.82345 -1.08922 0
M  V30 2470 H 241.389 0.844149 -0.431413 0
M  V30 2471 H 241.095 3.3563 -1.05096 0
M  V30 2472 H 240.969 3.71337 0.66246 0
M  V30 2473 H 243.356 2.77857 0.993966 0
M  V30 2474 H 243.437 2.4479 -0.742388 0
M  V30 2475 H 243.081 4.93287 -1.20956 0
M  V30 2476 H 243.011 5.2378 0.544274 0
M  V30 2477 H 245.502 3.77898 -0.0130709 0
M  V30 2478 H 245.815 7.70045 -0.651922 0
M  V30 2479 H 244.16 6.92581 -0.579366 0
M  V30 2480 H 247.351 4.67992 -0.100441 0
M  V30 2481 H 247.524 6.46816 -0.391535 0
M  V30 2482 N 240.93 -0.123565 1.57115 0
M  V30 2483 C 242.158 -0.846461 1.88793 0
M  V30 2484 C 242.573 -1.73652 0.740976 0
M  V30 2485 O 241.93 -1.80207 -0.288393 0
M  V30 2486 C 241.981 -1.6837 3.19897 0
M  V30 2487 O 241.702 -0.829477 4.30176 0
M  V30 2488 C 243.203 -2.51214 3.65248 0
M  V30 2489 H 240.423 -0.243573 0.625231 0
M  V30 2490 H 242.967 -0.109324 2.04208 0
M  V30 2491 H 241.122 -2.37364 3.06165 0
M  V30 2492 H 241.536 -1.40651 5.0529 0
M  V30 2493 H 243.01 -3.05497 4.59756 0
M  V30 2494 H 243.487 -3.28359 2.9168 0
M  V30 2495 H 244.093 -1.8747 3.81752 0
M  V30 2496 N 242.408 -1.52605 -0.393616 0
M  V30 2497 C 243.685 -1.58001 -1.15304 0
M  V30 2498 C 244.065 -0.370385 -2.07825 0
M  V30 2499 O 243.413 0.641638 -2.19306 0
M  V30 2500 C 243.623 -2.91652 -1.91677 0
M  V30 2501 C 244.971 -3.4522 -2.47201 0
M  V30 2502 O 245.995 -2.93495 -2.01839 0
M  V30 2503 O 244.854 -4.35579 -3.3005 0
M  V30 2504 H 241.948 -0.637068 -0.527327 0
M  V30 2505 H 244.494 -1.64939 -0.399141 0
M  V30 2506 H 243.266 -3.71136 -1.23992 0
M  V30 2507 H 242.889 -2.88077 -2.74039 0
M  V30 2508 N 243.887 0.651787 -1.4349 0
M  V30 2509 C 245.133 1.41376 -1.45398 0
M  V30 2510 C 245.466 1.94041 -0.0784823 0
M  V30 2511 O 244.741 1.72379 0.900878 0
M  V30 2512 C 245.024 2.59414 -2.49752 0
M  V30 2513 C 244.877 2.12232 -3.96582 0
M  V30 2514 C 246.196 3.61626 -2.50827 0
M  V30 2515 H 243.315 0.512719 -0.529422 0
M  V30 2516 H 245.957 0.738796 -1.75048 0
M  V30 2517 H 244.107 3.16997 -2.246 0
M  V30 2518 H 245.779 1.59639 -4.32797 0
M  V30 2519 H 244.022 1.43592 -4.09346 0
M  V30 2520 H 244.693 2.9712 -4.65214 0
M  V30 2521 H 247.169 3.13805 -2.7325 0
M  V30 2522 H 246.045 4.41766 -3.25783 0
M  V30 2523 H 246.306 4.14314 -1.5426 0
M  V30 2524 N 245.365 1.30045 0.890287 0
M  V30 2525 C 246.295 1.18541 2.01172 0
M  V30 2526 C 247.276 0.0773356 1.69924 0
M  V30 2527 O 248.461 0.25845 1.92473 0
M  V30 2528 C 245.591 0.870941 3.36202 0
M  V30 2529 C 244.545 1.93637 3.81692 0
M  V30 2530 C 243.871 1.475 5.13953 0
M  V30 2531 C 245.171 3.34666 4.00994 0
M  V30 2532 H 246.865 2.12359 2.11054 0
M  V30 2533 H 244.411 1.02238 1.01407 0
M  V30 2534 H 246.364 0.777141 4.14172 0
M  V30 2535 H 245.088 -0.102926 3.26438 0
M  V30 2536 H 243.747 2.01972 3.05946 0
M  V30 2537 H 243.395 0.489551 5.00612 0
M  V30 2538 H 243.095 2.1876 5.4536 0
M  V30 2539 H 244.619 1.39489 5.94454 0
M  V30 2540 H 246.033 3.2912 4.69417 0
M  V30 2541 H 244.43 4.03966 4.43769 0
M  V30 2542 H 245.5 3.76949 3.05021 0
M  V30 2543 N 246.843 -1.10192 1.12674 0
M  V30 2544 C 247.806 -2.14786 0.799979 0
M  V30 2545 C 248.806 -1.59711 -0.18685 0
M  V30 2546 O 249.996 -1.74156 0.0392558 0
M  V30 2547 C 247.128 -3.40374 0.189228 0
M  V30 2548 H 248.321 -2.45203 1.72671 0
M  V30 2549 H 245.874 -1.25597 0.930326 0
M  V30 2550 H 246.609 -3.15577 -0.747107 0
M  V30 2551 H 246.394 -3.81637 0.899766 0
M  V30 2552 H 247.884 -4.17594 -0.0228143 0
M  V30 2553 N 248.321 -0.919034 -1.28029 0
M  V30 2554 C 249.251 -0.428581 -2.29533 0
M  V30 2555 C 250.232 0.50659 -1.62381 0
M  V30 2556 O 251.417 0.413195 -1.89753 0
M  V30 2557 C 248.547 0.327388 -3.45753 0
M  V30 2558 C 247.501 -0.519137 -4.2484 0
M  V30 2559 C 246.827 0.365486 -5.33449 0
M  V30 2560 C 248.127 -1.77914 -4.91064 0
M  V30 2561 H 249.821 -1.27687 -2.70807 0
M  V30 2562 H 247.367 -0.615428 -1.30186 0
M  V30 2563 H 249.32 0.681378 -4.15855 0
M  V30 2564 H 248.044 1.20963 -3.03374 0
M  V30 2565 H 246.703 -0.855717 -3.56473 0
M  V30 2566 H 246.351 1.24642 -4.87312 0
M  V30 2567 H 246.051 -0.197356 -5.87268 0
M  V30 2568 H 247.575 0.715241 -6.06396 0
M  V30 2569 H 248.989 -1.49374 -5.53498 0
M  V30 2570 H 247.386 -2.2848 -5.54903 0
M  V30 2571 H 248.456 -2.50382 -4.15255 0
M  V30 2572 N 249.799 1.42003 -0.683588 0
M  V30 2573 C 251.21 1.84501 -0.285736 0
M  V30 2574 C 251.561 1.57213 1.17382 0
M  V30 2575 O 250.686 1.03642 1.89966 0
M  V30 2576 C 251.281 3.34912 -0.511821 0
M  V30 2577 C 249.84 3.76025 -0.168005 0
M  V30 2578 C 248.987 2.6551 -0.799983 0
M  V30 2579 H 251.938 1.31724 -0.885119 0
M  V30 2580 H 251.959 3.79784 0.233292 0
M  V30 2581 H 251.471 3.54741 -1.57418 0
M  V30 2582 H 249.572 3.61801 0.890567 0
M  V30 2583 H 249.685 4.75141 -0.614661 0
M  V30 2584 H 248.049 2.53654 -0.230568 0
M  V30 2585 H 248.832 2.8816 -1.86597 0
M  V30 2586 N 251.277 0.427512 1.51691 0
M  V30 2587 C 252.207 -0.3796 2.30394 0
M  V30 2588 C 253.188 -1.02982 1.35384 0
M  V30 2589 O 254.373 -1.03534 1.643 0
M  V30 2590 C 251.503 -1.48649 3.1388 0
M  V30 2591 C 250.457 -0.960294 4.17088 0
M  V30 2592 C 249.783 -2.16219 4.89033 0
M  V30 2593 C 251.083 -0.00153679 5.223 0
M  V30 2594 H 252.777 0.277164 2.98114 0
M  V30 2595 H 250.323 0.134739 1.43368 0
M  V30 2596 H 252.276 -2.05826 3.67714 0
M  V30 2597 H 251 -2.1714 2.43962 0
M  V30 2598 H 249.659 -0.410806 3.64291 0
M  V30 2599 H 249.307 -2.83307 4.15628 0
M  V30 2600 H 249.007 -1.81654 5.58816 0
M  V30 2601 H 250.531 -2.73968 5.45687 0
M  V30 2602 H 251.945 -0.482687 5.71264 0
M  V30 2603 H 250.342 0.256199 5.99553 0
M  V30 2604 H 251.412 0.938174 4.75738 0
M  V30 2605 N 252.755 -1.56801 0.158532 0
M  V30 2606 C 254.166 -1.83189 -0.360366 0
M  V30 2607 C 254.517 -1.07778 -1.63946 0
M  V30 2608 O 253.642 -0.326718 -2.13919 0
M  V30 2609 C 254.237 -3.32297 -0.660595 0
M  V30 2610 C 252.796 -3.59227 -1.12398 0
M  V30 2611 C 251.943 -2.76877 -0.153097 0
M  V30 2612 H 254.894 -1.54008 0.383031 0
M  V30 2613 H 254.915 -3.4908 -1.51405 0
M  V30 2614 H 254.427 -3.87156 0.270527 0
M  V30 2615 H 252.528 -3.09766 -2.07064 0
M  V30 2616 H 252.641 -4.67632 -1.04197 0
M  V30 2617 H 251.005 -2.46319 -0.647983 0
M  V30 2618 H 251.788 -3.34511 0.77182 0
M  V30 2619 N 254.233 0.115231 -1.57178 0
M  V30 2620 C 255.165 1.16694 -1.97269 0
M  V30 2621 C 256.178 1.37445 -0.872502 0
M  V30 2622 O 257.367 1.36454 -1.15077 0
M  V30 2623 C 254.467 2.52627 -2.25905 0
M  V30 2624 C 253.64 2.52427 -3.57211 0
M  V30 2625 C 252.699 3.70134 -3.74016 0
M  V30 2626 O 251.725 3.53546 -4.46087 0
M  V30 2627 N 252.927 4.88844 -3.13068 0
M  V30 2628 H 255.692 0.82588 -2.88096 0
M  V30 2629 H 253.253 0.304461 -1.59011 0
M  V30 2630 H 255.245 3.29937 -2.34359 0
M  V30 2631 H 253.815 2.789 -1.41186 0
M  V30 2632 H 253.035 1.60805 -3.5991 0
M  V30 2633 H 254.323 2.49353 -4.43509 0
M  V30 2634 H 253.721 5.05225 -2.54489 0
M  V30 2635 H 252.278 5.63817 -3.27037 0
M  V30 2636 N 255.711 1.52812 0.385517 0
M  V30 2637 C 256.643 1.74096 1.49074 0
M  V30 2638 C 257.656 0.621462 1.50472 0
M  V30 2639 O 258.845 0.897245 1.54311 0
M  V30 2640 C 255.945 1.78774 2.87911 0
M  V30 2641 C 255.118 3.08134 3.10439 0
M  V30 2642 C 254.177 3.04313 4.29278 0
M  V30 2643 O 253.203 3.78168 4.25415 0
M  V30 2644 N 254.405 2.23741 5.35649 0
M  V30 2645 H 257.17 2.69455 1.31202 0
M  V30 2646 H 254.731 1.51343 0.575065 0
M  V30 2647 H 256.723 1.73721 3.65518 0
M  V30 2648 H 255.293 0.907869 2.99126 0
M  V30 2649 H 254.513 3.26649 2.20667 0
M  V30 2650 H 255.801 3.93662 3.22347 0
M  V30 2651 H 255.199 1.63211 5.41645 0
M  V30 2652 H 253.756 2.24524 6.11909 0
M  V30 2653 N 257.189 -0.644168 1.43834 0
M  V30 2654 C 258.605 -0.960875 1.27434 0
M  V30 2655 C 258.805 -2.00499 0.200618 0
M  V30 2656 O 257.861 -2.49018 -0.417906 0
M  V30 2657 C 259.174 -1.43653 2.64167 0
M  V30 2658 C 260.722 -1.55271 2.71772 0
M  V30 2659 C 261.197 -2.06224 4.08944 0
M  V30 2660 N 262.688 -2.13513 4.11055 0
M  V30 2661 C 263.423 -2.54081 5.14033 0
M  V30 2662 N 262.919 -2.9388 6.27381 0
M  V30 2663 N 264.712 -2.54101 5.01387 0
M  V30 2664 H 256.863 0.0465779 2.12349 0
M  V30 2665 H 259.126 -0.0417638 0.94708 0
M  V30 2666 H 258.832 -0.743706 3.43747 0
M  V30 2667 H 258.706 -2.40993 2.90176 0
M  V30 2668 H 261.093 -2.23653 1.92519 0
M  V30 2669 H 261.174 -0.563395 2.49519 0
M  V30 2670 H 260.818 -1.38441 4.88668 0
M  V30 2671 H 260.748 -3.06003 4.28567 0
M  V30 2672 H 263.239 -1.85493 3.29242 0
M  V30 2673 H 263.552 -3.2361 7.01781 0
M  V30 2674 H 261.897 -2.91663 6.30839 0
M  V30 2675 H 265.088 -2.22391 4.11898 0
M  V30 2676 H 265.261 -2.85394 5.81768 0
M  V30 2677 N 258.668 -1.30515 -0.883378 0
M  V30 2678 C 259.598 -1.19607 -2.00541 0
M  V30 2679 C 260.579 -0.086346 -1.69881 0
M  V30 2680 O 261.764 -0.268654 -1.92333 0
M  V30 2681 C 258.894 -0.888758 -3.35736 0
M  V30 2682 C 257.848 -1.95659 -3.8066 0
M  V30 2683 C 257.174 -1.50224 -5.13164 0
M  V30 2684 C 258.474 -3.36788 -3.99213 0
M  V30 2685 H 260.168 -2.13476 -2.09925 0
M  V30 2686 H 257.714 -1.02775 -1.00863 0
M  V30 2687 H 259.667 -0.799094 -4.13754 0
M  V30 2688 H 258.391 0.0856125 -3.26488 0
M  V30 2689 H 257.05 -2.03591 -3.04871 0
M  V30 2690 H 256.698 -0.516092 -5.00345 0
M  V30 2691 H 256.398 -2.2165 -5.44192 0
M  V30 2692 H 257.922 -1.42639 -5.93706 0
M  V30 2693 H 259.336 -3.31605 -4.67665 0
M  V30 2694 H 257.733 -4.06314 -4.41621 0
M  V30 2695 H 258.803 -3.78561 -3.03017 0
M  V30 2696 N 260.146 1.09593 -1.13257 0
M  V30 2697 C 261.109 2.14359 -0.811358 0
M  V30 2698 C 262.109 1.59808 0.178377 0
M  V30 2699 O 263.299 1.74132 -0.0484911 0
M  V30 2700 C 260.431 3.40269 -0.207276 0
M  V30 2701 H 261.624 2.44284 -1.73969 0
M  V30 2702 H 259.177 1.25102 -0.936973 0
M  V30 2703 H 259.912 3.15969 0.73036 0
M  V30 2704 H 259.697 3.81154 -0.919992 0
M  V30 2705 H 261.187 4.176 0.000667944 0
M  V30 2706 N 261.624 0.925811 1.2754 0
M  V30 2707 C 262.872 0.564138 1.94067 0
M  V30 2708 C 263.193 -0.897188 1.73134 0
M  V30 2709 O 262.463 -1.63573 1.07799 0
M  V30 2710 H 261.043 0.205645 0.718136 0
M  V30 2711 H 263.705 1.1778 1.55287 0
M  V30 2712 H 262.801 0.76881 3.02483 0
M  V30 2713 N 263.102 -1.41638 0.69111 0
M  V30 2714 C 264.518 -1.55435 0.362224 0
M  V30 2715 C 264.718 -1.66754 -1.13117 0
M  V30 2716 O 263.774 -1.64348 -1.91692 0
M  V30 2717 C 265.087 -2.79588 1.10684 0
M  V30 2718 C 266.635 -2.9338 1.09075 0
M  V30 2719 C 267.11 -4.20414 1.81703 0
M  V30 2720 N 268.601 -4.27362 1.7865 0
M  V30 2721 C 269.336 -5.24507 2.31689 0
M  V30 2722 N 268.832 -6.27708 2.93179 0
M  V30 2723 N 270.625 -5.16416 2.2197 0
M  V30 2724 H 262.776 -1.32536 1.65976 0
M  V30 2725 H 265.039 -0.639115 0.700168 0
M  V30 2726 H 264.745 -2.77419 2.16175 0
M  V30 2727 H 264.619 -3.70973 0.682545 0
M  V30 2728 H 267.006 -2.95067 0.0441238 0
M  V30 2729 H 267.087 -2.0318 1.55407 0
M  V30 2730 H 266.731 -4.19488 2.86343 0
M  V30 2731 H 266.661 -5.09578 1.32808 0
M  V30 2732 H 269.152 -3.53415 1.33815 0
M  V30 2733 H 269.465 -6.98217 3.31229 0
M  V30 2734 H 267.81 -6.28223 2.97255 0
M  V30 2735 H 271.001 -4.34716 1.73607 0
M  V30 2736 H 271.174 -5.91958 2.63609 0
M  V30 2737 N 264.58 -0.43555 -1.51462 0
M  V30 2738 C 265.49 0.383001 -2.31453 0
M  V30 2739 C 266.506 1.02931 -1.4029 0
M  V30 2740 O 267.682 1.02507 -1.73362 0
M  V30 2741 C 264.747 1.47043 -3.13973 0
M  V30 2742 C 263.808 0.844433 -4.20913 0
M  V30 2743 C 263.041 1.88004 -4.9949 0
M  V30 2744 O 263.264 3.10199 -4.78678 0
M  V30 2745 O 262.198 1.47157 -5.83634 0
M  V30 2746 H 266.024 -0.269964 -3.02498 0
M  V30 2747 H 263.609 -0.19813 -1.4808 0
M  V30 2748 H 265.491 2.10113 -3.65281 0
M  V30 2749 H 264.166 2.10751 -2.45695 0
M  V30 2750 H 263.073 0.175729 -3.73687 0
M  V30 2751 H 264.406 0.250869 -4.9156 0
M  V30 2752 N 266.058 1.56714 -0.166846 0
M  V30 2753 C 267.306 1.96358 0.478305 0
M  V30 2754 C 267.627 1.0537 1.6408 0
M  V30 2755 O 266.897 0.119154 1.95537 0
M  V30 2756 H 265.477 0.725065 0.179692 0
M  V30 2757 H 268.139 1.93329 -0.246985 0
M  V30 2758 H 267.235 3.00547 0.841292 0
M  V30 2759 N 267.536 -0.106894 1.57237 0
M  V30 2760 C 268.947 -0.662723 1.74542 0
M  V30 2761 C 269.298 -1.7971 0.787319 0
M  V30 2762 O 268.423 -2.16368 -0.0369636 0
M  V30 2763 C 269.018 -1.20896 3.16496 0
M  V30 2764 C 267.577 -1.71096 3.35266 0
M  V30 2765 C 266.724 -0.615642 2.7038 0
M  V30 2766 H 269.675 0.119106 1.58252 0
M  V30 2767 H 269.696 -2.07847 3.18716 0
M  V30 2768 H 269.208 -0.383122 3.86204 0
M  V30 2769 H 267.309 -2.56119 2.70618 0
M  V30 2770 H 267.422 -1.81208 4.43509 0
M  V30 2771 H 265.786 -1.05222 2.31949 0
M  V30 2772 H 266.569 0.199419 3.4272 0
M  V30 2773 N 269.014 -1.53014 -0.377408 0
M  V30 2774 C 270.26 -1.68872 -1.12294 0
M  V30 2775 C 270.593 -0.433224 -1.89306 0
M  V30 2776 O 269.868 0.569258 -1.85983 0
M  V30 2777 C 270.151 -2.93115 -2.09179 0
M  V30 2778 C 270.004 -4.28794 -1.35853 0
M  V30 2779 C 271.323 -3.12928 -3.09458 0
M  V30 2780 H 268.442 -0.614518 -0.406862 0
M  V30 2781 H 271.084 -1.85633 -0.40503 0
M  V30 2782 H 269.234 -2.78956 -2.70399 0
M  V30 2783 H 270.906 -4.54742 -0.775082 0
M  V30 2784 H 269.149 -4.28744 -0.660364 0
M  V30 2785 H 269.82 -5.11837 -2.06706 0
M  V30 2786 H 272.296 -3.26194 -2.58334 0
M  V30 2787 H 271.172 -4.01316 -3.74482 0
M  V30 2788 H 271.433 -2.27669 -3.78971 0
M  V30 2789 N 270.492 0.636531 -1.44174 0
M  V30 2790 C 271.908 0.954104 -1.27941 0
M  V30 2791 C 272.108 2.0039 -0.211248 0
M  V30 2792 O 271.164 2.49236 0.404695 0
M  V30 2793 C 272.477 1.4225 -2.64925 0
M  V30 2794 C 274.025 1.53827 -2.72592 0
M  V30 2795 C 274.5 2.04053 -4.10032 0
M  V30 2796 N 275.991 2.11331 -4.12182 0
M  V30 2797 C 276.726 2.51352 -5.15374 0
M  V30 2798 N 276.222 2.90549 -6.2893 0
M  V30 2799 N 278.015 2.51438 -5.02728 0
M  V30 2800 H 270.166 -0.0578386 -2.12321 0
M  V30 2801 H 272.429 0.0367406 -0.947288 0
M  V30 2802 H 272.135 0.725466 -3.44136 0
M  V30 2803 H 272.009 2.39451 -2.9145 0
M  V30 2804 H 274.396 2.22628 -1.93702 0
M  V30 2805 H 274.477 0.550154 -2.49814 0
M  V30 2806 H 274.121 1.35848 -4.89395 0
M  V30 2807 H 274.051 3.03726 -4.30184 0
M  V30 2808 H 276.542 1.83745 -3.30222 0
M  V30 2809 H 276.855 3.19884 -7.03487 0
M  V30 2810 H 275.2 2.88313 -6.32377 0
M  V30 2811 H 278.391 2.20203 -4.13072 0
M  V30 2812 H 278.564 2.82304 -5.83274 0
M  V30 2813 N 271.97 1.30982 0.876444 0
M  V30 2814 C 273.216 1.20474 1.63138 0
M  V30 2815 C 273.549 -0.238096 1.92735 0
M  V30 2816 O 272.824 -1.1692 1.55435 0
M  V30 2817 C 273.107 2.04244 2.96574 0
M  V30 2818 C 272.96 3.56793 2.73896 0
M  V30 2819 C 274.279 1.88684 3.97601 0
M  V30 2820 H 271.398 0.439001 0.591985 0
M  V30 2821 H 274.04 1.60704 1.01361 0
M  V30 2822 H 272.19 1.70063 3.493 0
M  V30 2823 H 273.862 4.01077 2.27892 0
M  V30 2824 H 272.105 3.80548 2.08245 0
M  V30 2825 H 272.776 4.10706 3.68815 0
M  V30 2826 H 275.252 2.18584 3.54062 0
M  V30 2827 H 274.128 2.4961 4.88862 0
M  V30 2828 H 274.389 0.848343 4.33884 0
M  V30 2829 N 273.449 -1.08991 1.13837 0
M  V30 2830 C 274.379 -2.17771 0.842507 0
M  V30 2831 C 275.36 -1.6892 -0.20001 0
M  V30 2832 O 276.545 -1.94113 -0.0579731 0
M  V30 2833 C 273.675 -3.4589 0.312644 0
M  V30 2834 C 272.629 -4.08099 1.28992 0
M  V30 2835 C 271.955 -5.31098 0.619623 0
M  V30 2836 C 273.255 -4.50077 2.65005 0
M  V30 2837 H 274.949 -2.42777 1.75213 0
M  V30 2838 H 272.495 -1.16682 0.843875 0
M  V30 2839 H 274.448 -4.21297 0.0933043 0
M  V30 2840 H 273.172 -3.20419 -0.632382 0
M  V30 2841 H 271.831 -3.34717 1.49533 0
M  V30 2842 H 271.479 -5.0191 -0.33102 0
M  V30 2843 H 271.179 -5.73674 1.27167 0
M  V30 2844 H 272.703 -6.09224 0.409669 0
M  V30 2845 H 274.117 -5.16688 2.48407 0
M  V30 2846 H 272.514 -5.03553 3.26427 0
M  V30 2847 H 273.584 -3.62257 3.22332 0
M  V30 2848 N 274.927 -0.932562 -1.27047 0
M  V30 2849 C 276.173 -0.576412 -1.94436 0
M  V30 2850 C 276.506 0.880891 -1.73072 0
M  V30 2851 O 275.781 1.62905 -1.06264 0
M  V30 2852 C 276.064 -0.909031 -3.48437 0
M  V30 2853 C 275.917 -2.42044 -3.79123 0
M  V30 2854 C 277.236 -0.418341 -4.38107 0
M  V30 2855 H 274.355 -0.210888 -0.706184 0
M  V30 2856 H 276.997 -1.16522 -1.50075 0
M  V30 2857 H 275.147 -0.407947 -3.86352 0
M  V30 2858 H 276.819 -2.99359 -3.50973 0
M  V30 2859 H 275.062 -2.86758 -3.25503 0
M  V30 2860 H 275.733 -2.6037 -4.86736 0
M  V30 2861 H 278.209 -0.847856 -4.0737 0
M  V30 2862 H 277.085 -0.679981 -5.44672 0
M  V30 2863 H 277.346 0.681642 -4.36814 0
M  V30 2864 N 276.405 1.4127 -0.698611 0
M  V30 2865 C 277.651 2.01478 -0.231207 0
M  V30 2866 C 277.984 1.55215 1.16713 0
M  V30 2867 O 277.259 0.764672 1.78838 0
M  V30 2868 C 277.542 3.58912 -0.292281 0
M  V30 2869 C 277.395 4.15293 -1.72778 0
M  V30 2870 C 278.714 4.38736 0.346194 0
M  V30 2871 H 275.833 0.732025 -0.0854878 0
M  V30 2872 H 278.475 1.67977 -0.887906 0
M  V30 2873 H 276.625 3.87582 0.26686 0
M  V30 2874 H 278.297 3.97486 -2.341 0
M  V30 2875 H 276.54 3.7022 -2.26096 0
M  V30 2876 H 277.211 5.24452 -1.72202 0
M  V30 2877 H 279.687 4.15897 -0.130035 0
M  V30 2878 H 278.563 5.48221 0.272932 0
M  V30 2879 H 278.824 4.18425 1.42734 0
M  V30 2880 N 277.883 0.443576 1.51229 0
M  V30 2881 C 279.131 -0.120557 2.0174 0
M  V30 2882 C 279.452 -1.42665 1.32935 0
M  V30 2883 O 278.722 -1.9028 0.465866 0
M  V30 2884 H 277.302 -0.0475426 0.745486 0
M  V30 2885 H 279.964 0.587711 1.85828 0
M  V30 2886 H 279.06 -0.291972 3.10731 0
M  V30 2887 N 279.361 -1.56624 0.175154 0
M  V30 2888 C 280.609 -1.96609 -0.467885 0
M  V30 2889 C 280.93 -1.06238 -1.63519 0
M  V30 2890 O 280.2 -0.129523 -1.95471 0
M  V30 2891 H 278.78 -0.726008 -0.175845 0
M  V30 2892 H 281.442 -1.93195 0.257234 0
M  V30 2893 H 280.538 -3.00989 -0.825342 0
M  V30 2894 N 280.839 0.0985539 -1.57292 0
M  V30 2895 C 282.064 0.820196 -1.90493 0
M  V30 2896 C 282.489 1.71658 -0.769094 0
M  V30 2897 O 281.847 1.79133 0.279495 0
M  V30 2898 C 281.895 1.61242 -3.22542 0
M  V30 2899 O 280.999 2.72108 -3.09888 0
M  V30 2900 H 280.34 0.225547 -0.62452 0
M  V30 2901 H 282.87 0.0748159 -2.04463 0
M  V30 2902 H 282.88 1.99737 -3.55766 0
M  V30 2903 H 281.555 0.954535 -4.04798 0
M  V30 2904 H 280.132 2.36667 -2.88172 0
M  V30 2905 N 282.317 1.53212 0.369288 0
M  V30 2906 C 283.249 1.75668 1.47219 0
M  V30 2907 C 284.262 0.637387 1.49804 0
M  V30 2908 O 285.451 0.913561 1.5335 0
M  V30 2909 C 282.551 1.81818 2.85999 0
M  V30 2910 C 281.724 3.11409 3.07153 0
M  V30 2911 C 280.783 3.08849 4.26026 0
M  V30 2912 O 279.809 3.82659 4.2138 0
M  V30 2913 N 281.011 2.29409 5.33246 0
M  V30 2914 H 283.776 2.70832 1.28337 0
M  V30 2915 H 281.337 1.51944 0.55898 0
M  V30 2916 H 283.329 1.77588 3.63655 0
M  V30 2917 H 281.899 0.939544 2.98146 0
M  V30 2918 H 281.119 3.28971 2.1719 0
M  V30 2919 H 282.407 3.97059 3.18154 0
M  V30 2920 H 281.805 1.68946 5.39883 0
M  V30 2921 H 280.362 2.31001 6.09493 0
M  V30 2922 N 283.795 -0.628877 1.44509 0
M  V30 2923 C 285.043 -1.38565 1.4712 0
M  V30 2924 C 285.364 -1.94712 0.105899 0
M  V30 2925 O 284.634 -1.75912 -0.862079 0
M  V30 2926 H 283.214 -0.514333 0.541729 0
M  V30 2927 H 285.876 -0.740018 1.80305 0
M  V30 2928 H 284.972 -2.21583 2.19789 0
M  V30 2929 N 285.273 -1.31445 -0.869486 0
M  V30 2930 C 286.236 -1.19094 -1.9583 0
M  V30 2931 C 287.236 -0.117906 -1.60367 0
M  V30 2932 O 288.426 -0.367208 -1.70286 0
M  V30 2933 C 285.558 -0.828165 -3.30688 0
M  V30 2934 H 286.751 -2.15842 -2.08212 0
M  V30 2935 H 284.304 -1.15063 -1.05784 0
M  V30 2936 H 285.039 0.138142 -3.24006 0
M  V30 2937 H 284.824 -1.6038 -3.578 0
M  V30 2938 H 286.314 -0.765658 -4.10521 0
M  V30 2939 N 286.751 1.08385 -1.14413 0
M  V30 2940 C 288.167 1.32844 -0.884563 0
M  V30 2941 C 288.367 1.95841 0.474181 0
M  V30 2942 O 287.423 2.21158 1.21842 0
M  V30 2943 C 288.736 2.22978 -2.01745 0
M  V30 2944 C 290.284 2.36458 -2.05077 0
M  V30 2945 C 290.759 3.29934 -3.1766 0
M  V30 2946 N 292.25 3.37511 -3.17239 0
M  V30 2947 C 292.985 4.09871 -4.0099 0
M  V30 2948 N 292.481 4.84936 -4.94781 0
M  V30 2949 N 294.274 4.05704 -3.89051 0
M  V30 2950 H 286.425 0.658756 -2.01926 0
M  V30 2951 H 288.688 0.352821 -0.879899 0
M  V30 2952 H 288.394 1.83934 -2.99769 0
M  V30 2953 H 288.268 3.23441 -1.94077 0
M  V30 2954 H 290.655 2.7476 -1.0766 0
M  V30 2955 H 290.736 1.35736 -2.16816 0
M  V30 2956 H 290.38 2.92352 -4.15322 0
M  V30 2957 H 290.31 4.30584 -3.03158 0
M  V30 2958 H 292.801 2.83996 -2.49308 0
M  V30 2959 H 293.114 5.37612 -5.55151 0
M  V30 2960 H 291.459 4.83988 -4.98779 0
M  V30 2961 H 294.65 3.46167 -3.15097 0
M  V30 2962 H 294.823 4.61834 -4.54547 0
M  V30 2963 N 288.23 0.939286 1.26551 0
M  V30 2964 C 289.479 0.581601 1.93133 0
M  V30 2965 C 289.792 -0.883224 1.74524 0
M  V30 2966 O 290.998 -1.3502 2.35546 0
M  V30 2967 C 289.454 0.989425 3.46032 0
M  V30 2968 C 289.062 2.47573 3.73379 0
M  V30 2969 C 290.806 0.703544 4.18629 0
M  V30 2970 C 288.713 2.82235 5.19709 0
M  V30 2971 H 287.643 0.213803 0.723052 0
M  V30 2972 H 290.294 1.14167 1.4366 0
M  V30 2973 H 288.676 0.357902 3.94379 0
M  V30 2974 H 289.85 3.15614 3.35744 0
M  V30 2975 H 288.165 2.73471 3.1401 0
M  V30 2976 H 290.762 0.938869 5.26393 0
M  V30 2977 H 291.105 -0.359639 4.14744 0
M  V30 2978 H 291.638 1.2947 3.76141 0
M  V30 2979 H 288.377 3.87509 5.28694 0
M  V30 2980 H 287.897 2.18854 5.58447 0
M  V30 2981 H 289.576 2.70599 5.87695 0
M  V30 2982 N 289.708 -1.40897 0.706093 0
M  V30 2983 C 290.638 -2.33418 0.0620085 0
M  V30 2984 C 291.619 -1.52385 -0.755827 0
M  V30 2985 O 292.804 -1.80886 -0.706674 0
M  V30 2986 C 289.934 -3.36293 -0.867445 0
M  V30 2987 C 288.888 -4.27716 -0.155932 0
M  V30 2988 C 288.214 -5.2105 -1.20046 0
M  V30 2989 C 289.514 -5.12944 0.984149 0
M  V30 2990 H 291.208 -2.87527 0.83477 0
M  V30 2991 H 288.754 -1.38249 0.402875 0
M  V30 2992 H 290.707 -3.99949 -1.32735 0
M  V30 2993 H 289.431 -2.80556 -1.67199 0
M  V30 2994 H 288.09 -3.65498 0.284047 0
M  V30 2995 H 287.738 -4.61624 -1.99781 0
M  V30 2996 H 287.438 -5.83056 -0.729328 0
M  V30 2997 H 288.962 -5.87584 -1.66066 0
M  V30 2998 H 290.376 -5.70109 0.604048 0
M  V30 2999 H 288.773 -5.83945 1.38304 0
M  V30 3000 H 289.843 -4.49485 1.81911 0
M  V30 3001 N 291.186 -0.45159 -1.50991 0
M  V30 3002 C 292.134 0.366864 -2.29689 0
M  V30 3003 C 293.128 1.00809 -1.36139 0
M  V30 3004 O 294.334 0.941427 -1.53418 0
M  V30 3005 H 290.709 0.137133 -0.739391 0
M  V30 3006 H 292.68 -0.317538 -2.96706 0
M  V30 3007 C 291.429 1.44751 -3.16137 0
M  V30 3008 H 290.752 0.963473 -3.88017 0
M  V30 3009 H 292.192 1.99315 -3.74232 0
M  V30 3010 C 290.651 2.43869 -2.32442 0
M  V30 3011 O 291.181 3.4872 -1.99392 0
M  V30 3012 N 289.387 2.15105 -1.95392 0
M  V30 3013 H 288.934 1.29866 -2.22469 0
M  V30 3014 H 288.892 2.81661 -1.39693 0
M  V30 3015 N 292.664 1.56529 -0.183458 0
M  V30 3016 C 293.596 2.15747 0.773697 0
M  V30 3017 C 294.609 1.1162 1.1851 0
M  V30 3018 O 295.798 1.3876 1.12285 0
M  V30 3019 C 292.898 2.6952 2.05456 0
M  V30 3020 C 292.071 3.98429 1.8048 0
M  V30 3021 C 291.13 4.37145 2.92901 0
M  V30 3022 O 290.156 5.04791 2.6301 0
M  V30 3023 N 291.358 3.99695 4.2098 0
M  V30 3024 H 294.123 2.98505 0.26736 0
M  V30 3025 H 291.684 1.619 -0.0010878 0
M  V30 3026 H 293.676 2.92412 2.79781 0
M  V30 3027 H 292.246 1.91282 2.47245 0
M  V30 3028 H 291.466 3.8379 0.899947 0
M  V30 3029 H 292.754 4.82597 1.61175 0
M  V30 3030 H 292.152 3.4526 4.48121 0
M  V30 3031 H 290.709 4.27562 4.9197 0
M  V30 3032 N 294.142 -0.090211 1.57342 0
M  V30 3033 C 295.37 -0.806224 1.90546 0
M  V30 3034 C 295.785 -1.72041 0.777644 0
M  V30 3035 O 295.142 -1.80778 -0.250103 0
M  V30 3036 C 295.193 -1.61546 3.23396 0
M  V30 3037 O 294.914 -0.738043 4.31839 0
M  V30 3038 C 296.415 -2.4341 3.70495 0
M  V30 3039 H 293.635 -0.230256 0.630257 0
M  V30 3040 H 296.179 -0.0659843 2.04394 0
M  V30 3041 H 294.334 -2.30816 3.11131 0
M  V30 3042 H 294.748 -1.29901 5.08159 0
M  V30 3043 H 296.222 -2.95676 4.66133 0
M  V30 3044 H 296.699 -3.22098 2.98579 0
M  V30 3045 H 297.305 -1.79331 3.85643 0
M  V30 3046 N 295.62 -1.53406 -0.361157 0
M  V30 3047 C 296.553 -1.74946 -1.46524 0
M  V30 3048 C 297.531 -0.59795 -1.51206 0
M  V30 3049 O 298.715 -0.831062 -1.69191 0
M  V30 3050 C 295.842 -1.83224 -2.84863 0
M  V30 3051 C 294.888 -3.05233 -2.97885 0
M  V30 3052 S 295.721 -4.6466 -2.66179 0
M  V30 3053 C 296.877 -4.75793 -4.06659 0
M  V30 3054 H 297.11 -2.68319 -1.28033 0
M  V30 3055 H 294.643 -1.44051 -0.555764 0
M  V30 3056 H 296.601 -1.88679 -3.64569 0
M  V30 3057 H 295.262 -0.908948 -3.00661 0
M  V30 3058 H 294.455 -3.07648 -3.9921 0
M  V30 3059 H 294.057 -2.97913 -2.26106 0
M  V30 3060 H 296.349 -4.5612 -5.0096 0
M  V30 3061 H 297.292 -5.7786 -4.09247 0
M  V30 3062 H 297.7 -4.04389 -3.93865 0
M  V30 3063 N 297.098 0.621204 -1.44841 0
M  V30 3064 C 298.509 1.20298 -1.42777 0
M  V30 3065 C 298.86 1.95639 -0.148259 0
M  V30 3066 O 297.985 2.02955 0.750892 0
M  V30 3067 C 298.58 2.1882 -2.58657 0
M  V30 3068 C 297.139 2.72403 -2.59756 0
M  V30 3069 C 296.286 1.4757 -2.34773 0
M  V30 3070 H 299.237 0.411297 -1.53278 0
M  V30 3071 H 299.258 3.01607 -2.31977 0
M  V30 3072 H 298.77 1.63957 -3.51766 0
M  V30 3073 H 296.871 3.31242 -1.70615 0
M  V30 3074 H 296.984 3.17765 -3.58556 0
M  V30 3075 H 295.348 1.76051 -1.8406 0
M  V30 3076 H 296.131 0.945954 -3.3001 0
M  V30 3077 N 298.576 1.31904 0.862503 0
M  V30 3078 C 299.508 1.16005 1.97675 0
M  V30 3079 C 300.521 0.0971234 1.6251 0
M  V30 3080 O 301.71 0.345337 1.75128 0
M  V30 3081 C 298.81 0.751791 3.30456 0
M  V30 3082 C 297.983 1.90133 3.93914 0
M  V30 3083 C 297.042 1.4779 5.05019 0
M  V30 3084 O 296.068 2.18872 5.25437 0
M  V30 3085 N 297.27 0.369491 5.79323 0
M  V30 3086 H 300.035 2.11982 2.11857 0
M  V30 3087 H 297.596 1.24337 1.03691 0
M  V30 3088 H 299.588 0.451084 4.02178 0
M  V30 3089 H 298.158 -0.116593 3.12382 0
M  V30 3090 H 297.378 2.36896 3.15078 0
M  V30 3091 H 298.666 2.67111 4.33047 0
M  V30 3092 H 298.064 -0.222299 5.65263 0
M  V30 3093 H 296.621 0.128354 6.51674 0
M  V30 3094 N 300.054 -1.07777 1.14986 0
M  V30 3095 C 301.3 -1.80557 0.923422 0
M  V30 3096 C 301.633 -1.86298 -0.548337 0
M  V30 3097 O 300.908 -1.34354 -1.40639 0
M  V30 3098 C 301.191 -3.25839 1.53299 0
M  V30 3099 C 301.044 -3.28269 3.07505 0
M  V30 3100 C 302.363 -4.22991 1.21518 0
M  V30 3101 H 299.482 -0.655493 0.336894 0
M  V30 3102 H 302.124 -1.26144 1.42083 0
M  V30 3103 H 300.274 -3.72306 1.10999 0
M  V30 3104 H 301.946 -2.90079 3.58681 0
M  V30 3105 H 300.189 -2.67355 3.4162 0
M  V30 3106 H 300.86 -4.30691 3.45266 0
M  V30 3107 H 303.336 -3.84894 1.581 0
M  V30 3108 H 302.212 -5.22945 1.66793 0
M  V30 3109 H 302.473 -4.41904 0.131505 0
M  V30 3110 N 301.532 -0.945985 -1.26051 0
M  V30 3111 C 302.495 -0.463897 -2.24456 0
M  V30 3112 C 303.495 0.427655 -1.55009 0
M  V30 3113 O 304.685 0.226157 -1.72726 0
M  V30 3114 C 301.817 0.330812 -3.39291 0
M  V30 3115 H 303.01 -1.33357 -2.68619 0
M  V30 3116 H 300.563 -0.728416 -1.38289 0
M  V30 3117 H 301.298 1.21852 -3.00537 0
M  V30 3118 H 301.083 -0.308679 -3.90883 0
M  V30 3119 H 302.573 0.657865 -4.12386 0
M  V30 3120 N 303.011 1.40521 -0.713556 0
M  V30 3121 C 303.974 2.29098 -0.0684347 0
M  V30 3122 C 304.974 1.45268 0.689472 0
M  V30 3123 O 306.164 1.66205 0.521677 0
M  V30 3124 C 303.296 3.28446 0.913024 0
M  V30 3125 H 304.489 2.87645 -0.84855 0
M  V30 3126 H 302.042 1.48809 -0.47809 0
M  V30 3127 H 302.777 2.74913 1.72027 0
M  V30 3128 H 302.562 3.90327 0.372472 0
M  V30 3129 H 304.052 3.94777 1.36165 0
M  V30 3130 N 304.489 0.459591 1.5075 0
M  V30 3131 C 305.436 -0.340524 2.28274 0
M  V30 3132 C 306.406 -0.997371 1.32822 0
M  V30 3133 O 307.591 -1.01202 1.61749 0
M  V30 3134 C 304.731 -1.42317 3.14388 0
M  V30 3135 C 303.844 -0.782251 4.24859 0
M  V30 3136 C 302.979 -1.84182 4.98247 0
M  V30 3137 C 302.018 -1.18053 6.00608 0
M  V30 3138 N 301.155 -2.18244 6.67319 0
M  V30 3139 H 305.995 0.326899 2.96202 0
M  V30 3140 H 303.532 0.173057 1.46078 0
M  V30 3141 H 305.49 -2.06241 3.62658 0
M  V30 3142 H 304.12 -2.05992 2.4853 0
M  V30 3143 H 303.172 -0.0307404 3.80388 0
M  V30 3144 H 304.484 -0.259663 4.98124 0
M  V30 3145 H 303.638 -2.55714 5.50177 0
M  V30 3146 H 302.377 -2.39819 4.24662 0
M  V30 3147 H 301.382 -0.450776 5.47949 0
M  V30 3148 H 302.607 -0.631202 6.7616 0
M  V30 3149 H 300.553 -2.72919 5.96533 0
M  V30 3150 H 300.47 -1.70938 7.36421 0
M  V30 3151 H 301.738 -2.89191 7.23871 0
M  V30 3152 N 305.967 -1.56429 0.191757 0
M  V30 3153 C 306.897 -2.21937 -0.725696 0
M  V30 3154 C 307.878 -1.1814 -1.2238 0
M  V30 3155 O 309.063 -1.46636 -1.27325 0
M  V30 3156 C 306.193 -2.87611 -1.94672 0
M  V30 3157 C 305.147 -3.97623 -1.58366 0
M  V30 3158 C 304.473 -4.50446 -2.88102 0
M  V30 3159 C 305.773 -5.16197 -0.796133 0
M  V30 3160 H 307.467 -2.98861 -0.179606 0
M  V30 3161 H 305.013 -1.43749 -0.0849464 0
M  V30 3162 H 306.966 -3.3212 -2.59373 0
M  V30 3163 H 305.69 -2.08087 -2.51728 0
M  V30 3164 H 304.349 -3.53801 -0.960247 0
M  V30 3165 H 303.997 -3.67688 -3.43241 0
M  V30 3166 H 303.697 -5.24675 -2.64556 0
M  V30 3167 H 305.221 -4.97654 -3.53798 0
M  V30 3168 H 306.635 -5.57271 -1.34618 0
M  V30 3169 H 305.032 -5.96471 -0.658928 0
M  V30 3170 H 306.102 -4.84473 0.203478 0
M  V30 3171 N 307.445 0.0818655 -1.57387 0
M  V30 3172 C 308.693 0.781368 -1.86384 0
M  V30 3173 C 309.014 1.78618 -0.782342 0
M  V30 3174 O 308.284 1.94976 0.190061 0
M  V30 3175 H 306.864 0.291562 -0.687751 0
M  V30 3176 H 309.526 0.060348 -1.94807 0
M  V30 3177 H 308.622 1.3038 -2.83562 0
M  V30 3178 N 308.923 1.53595 0.353017 0
M  V30 3179 C 310.2 1.61002 1.11075 0
M  V30 3180 C 310.58 0.425356 2.0677 0
M  V30 3181 O 309.928 -0.583267 2.2093 0
M  V30 3182 C 310.138 2.96631 1.83877 0
M  V30 3183 C 311.486 3.51653 2.37961 0
M  V30 3184 O 312.51 2.98743 1.93987 0
M  V30 3185 O 311.369 4.44177 3.18386 0
M  V30 3186 H 308.463 0.650825 0.510251 0
M  V30 3187 H 311.009 1.6594 0.35527 0
M  V30 3188 H 309.781 3.74293 1.14108 0
M  V30 3189 H 309.404 2.95242 2.66304 0
M  V30 3190 N 310.401 -0.613514 1.45168 0
M  V30 3191 C 311.626 -1.40437 1.52618 0
M  V30 3192 C 312.051 -1.87438 0.157707 0
M  V30 3193 O 311.409 -1.59791 -0.856537 0
M  V30 3194 C 311.457 -2.58894 2.51011 0
M  V30 3195 O 310.561 -3.59326 2.02382 0
M  V30 3196 H 309.902 -0.419506 0.514695 0
M  V30 3197 H 312.432 -0.747215 1.90467 0
M  V30 3198 H 312.442 -3.06214 2.69624 0
M  V30 3199 H 311.117 -2.24032 3.50403 0
M  V30 3200 H 309.694 -3.18695 1.93618 0
M  V30 3201 N 311.879 -1.3236 -0.855495 0
M  V30 3202 C 313.125 -1.23054 -1.612 0
M  V30 3203 C 313.458 0.207404 -1.93089 0
M  V30 3204 O 312.733 1.14432 -1.57275 0
M  V30 3205 C 313.016 -2.08937 -2.93287 0
M  V30 3206 C 312.869 -3.61105 -2.68185 0
M  V30 3207 C 314.188 -1.94986 -3.94549 0
M  V30 3208 H 311.307 -0.448364 -0.584926 0
M  V30 3209 H 313.949 -1.62297 -0.987917 0
M  V30 3210 H 312.099 -1.75599 -3.46551 0
M  V30 3211 H 313.771 -4.04652 -2.21483 0
M  V30 3212 H 312.014 -3.83813 -2.02164 0
M  V30 3213 H 312.685 -4.16522 -3.62234 0
M  V30 3214 H 315.161 -2.24189 -3.5054 0
M  V30 3215 H 314.037 -2.57356 -4.84829 0
M  V30 3216 H 314.298 -0.917263 -4.3248 0
M  V30 3217 N 313.357 1.07166 -1.15556 0
M  V30 3218 C 314.585 1.83514 -0.955519 0
M  V30 3219 C 315 1.82163 0.49621 0
M  V30 3220 O 314.357 1.23441 1.34419 0
M  V30 3221 C 314.408 3.30515 -1.46432 0
M  V30 3222 O 314.129 3.31937 -2.85918 0
M  V30 3223 C 315.63 4.23625 -1.30603 0
M  V30 3224 H 312.85 0.578926 -0.339244 0
M  V30 3225 H 315.394 1.35265 -1.53374 0
M  V30 3226 H 313.549 3.76106 -0.928584 0
M  V30 3227 H 313.963 4.23794 -3.09029 0
M  V30 3228 H 315.437 5.24831 -1.71047 0
M  V30 3229 H 315.914 4.38485 -0.250441 0
M  V30 3230 H 316.52 3.83871 -1.83094 0
M  V30 3231 N 314.835 0.952656 1.25548 0
M  V30 3232 C 316.084 0.602053 1.92505 0
M  V30 3233 C 316.397 -0.864663 1.75451 0
M  V30 3234 O 317.603 -1.32514 2.36965 0
M  V30 3235 C 316.059 1.02607 3.44963 0
M  V30 3236 C 315.667 2.51519 3.70732 0
M  V30 3237 C 317.411 0.747905 4.1786 0
M  V30 3238 C 315.318 2.87732 5.16686 0
M  V30 3239 H 314.248 0.22146 0.720744 0
M  V30 3240 H 316.899 1.15684 1.42441 0
M  V30 3241 H 315.281 0.399712 3.93978 0
M  V30 3242 H 316.455 3.19157 3.32378 0
M  V30 3243 H 314.77 2.76786 3.11092 0
M  V30 3244 H 317.367 0.994647 5.25367 0
M  V30 3245 H 317.71 -0.315629 4.15102 0
M  V30 3246 H 318.243 1.33452 3.74747 0
M  V30 3247 H 314.982 3.93095 5.24554 0
M  V30 3248 H 314.502 2.24765 5.56094 0
M  V30 3249 H 316.181 2.76817 5.84792 0
M  V30 3250 N 316.313 -1.40141 0.720998 0
M  V30 3251 C 317.559 -2.01572 0.272075 0
M  V30 3252 C 317.914 -1.5616 -1.12391 0
M  V30 3253 O 317.207 -0.774198 -1.75262 0
M  V30 3254 C 317.401 -3.56165 0.296892 0
M  V30 3255 C 317.23 -4.16584 1.69375 0
M  V30 3256 C 316 -4.49783 2.30269 0
M  V30 3257 C 318.198 -4.41076 2.64493 0
M  V30 3258 N 316.18 -4.95626 3.62254 0
M  V30 3259 C 317.551 -4.88971 3.81192 0
M  V30 3260 C 319.606 -4.23122 2.62435 0
M  V30 3261 C 318.309 -5.20796 4.96149 0
M  V30 3262 C 320.335 -4.56052 3.76524 0
M  V30 3263 C 319.697 -5.04141 4.91956 0
M  V30 3264 H 315.796 -0.768343 0.145511 0
M  V30 3265 H 318.38 -1.70287 0.943959 0
M  V30 3266 H 316.551 -3.86868 -0.344578 0
M  V30 3267 H 318.283 -4.04346 -0.169254 0
M  V30 3268 H 315.038 -4.37101 1.82318 0
M  V30 3269 H 315.462 -5.22923 4.29977 0
M  V30 3270 H 320.104 -3.85158 1.74393 0
M  V30 3271 H 317.822 -5.57672 5.84831 0
M  V30 3272 H 321.408 -4.43796 3.76213 0
M  V30 3273 H 320.288 -5.29142 5.78774 0
M  V30 3274 N 317.792 -0.46758 -1.50504 0
M  V30 3275 C 318.742 0.34698 -2.25344 0
M  V30 3276 C 319.726 0.964469 -1.2879 0
M  V30 3277 O 320.918 0.8776 -1.53711 0
M  V30 3278 C 318.047 1.43042 -3.1208 0
M  V30 3279 C 317.133 0.82084 -4.16081 0
M  V30 3280 N 317.524 -0.0567602 -5.05768 0
M  V30 3281 C 315.822 1.08517 -4.32597 0
M  V30 3282 C 316.523 -0.402343 -5.80307 0
M  V30 3283 N 315.499 0.221607 -5.43148 0
M  V30 3284 H 319.301 -0.329129 -2.92051 0
M  V30 3285 H 316.815 -0.281508 -1.59942 0
M  V30 3286 H 318.812 2.02712 -3.64299 0
M  V30 3287 H 317.472 2.10856 -2.46921 0
M  V30 3288 H 318.483 -0.425349 -5.1615 0
M  V30 3289 H 315.16 1.75855 -3.78657 0
M  V30 3290 H 316.55 -1.11834 -6.62528 0
M  V30 3291 N 319.27 1.56325 -0.20005 0
M  V30 3292 C 320.202 2.16555 0.750771 0
M  V30 3293 C 321.215 1.12871 1.1732 0
M  V30 3294 O 322.404 1.39943 1.10807 0
M  V30 3295 C 319.504 2.71684 2.02586 0
M  V30 3296 C 318.677 4.00321 1.76244 0
M  V30 3297 C 317.736 4.40227 2.88248 0
M  V30 3298 O 316.762 5.07552 2.57642 0
M  V30 3299 N 317.964 4.04138 4.16717 0
M  V30 3300 H 320.729 2.98772 0.235685 0
M  V30 3301 H 318.29 1.6189 -0.0182594 0
M  V30 3302 H 320.282 2.95363 2.76664 0
M  V30 3303 H 318.852 1.93893 2.45202 0
M  V30 3304 H 318.072 3.84723 0.85919 0
M  V30 3305 H 319.36 4.84279 1.56048 0
M  V30 3306 H 318.758 3.49993 4.44434 0
M  V30 3307 H 317.315 4.32756 4.87407 0
M  V30 3308 N 320.748 -0.0735177 1.57428 0
M  V30 3309 C 321.973 -0.789787 1.91774 0
M  V30 3310 C 322.398 -1.70413 0.796306 0
M  V30 3311 O 321.756 -1.79555 -0.250961 0
M  V30 3312 C 321.804 -1.5609 3.25067 0
M  V30 3313 O 320.908 -2.67144 3.14178 0
M  V30 3314 H 320.249 -0.215582 0.628029 0
M  V30 3315 H 322.779 -0.0422781 2.04556 0
M  V30 3316 H 322.789 -1.94052 3.58898 0
M  V30 3317 H 321.464 -0.890015 4.06265 0
M  V30 3318 H 320.041 -2.32052 2.91901 0
M  V30 3319 N 322.226 -1.5378 -0.344866 0
M  V30 3320 C 323.474 -1.70625 -1.08311 0
M  V30 3321 C 323.795 -0.471447 -1.89215 0
M  V30 3322 O 323.065 0.514616 -1.8902 0
M  V30 3323 H 321.645 -0.629058 -0.402859 0
M  V30 3324 H 324.307 -1.9103 -0.386459 0
M  V30 3325 H 323.403 -2.57656 -1.76124 0
M  V30 3326 N 323.704 0.605807 -1.45491 0
M  V30 3327 C 324.651 1.7164 -1.54299 0
M  V30 3328 C 325.621 1.61486 -0.388761 0
M  V30 3329 O 326.806 1.81039 -0.602445 0
M  V30 3330 C 323.946 3.09953 -1.51734 0
M  V30 3331 C 323.059 3.309 -2.77721 0
M  V30 3332 C 322.194 4.59329 -2.66816 0
M  V30 3333 C 321.233 4.7354 -3.87848 0
M  V30 3334 N 320.37 5.9327 -3.75467 0
M  V30 3335 H 325.21 1.63449 -2.49176 0
M  V30 3336 H 322.747 0.796957 -1.23641 0
M  V30 3337 H 324.705 3.89977 -1.48235 0
M  V30 3338 H 323.335 3.17098 -0.604068 0
M  V30 3339 H 322.387 2.44639 -2.913 0
M  V30 3340 H 323.699 3.37274 -3.67488 0
M  V30 3341 H 322.853 5.4755 -2.61292 0
M  V30 3342 H 321.592 4.55355 -1.74651 0
M  V30 3343 H 320.597 3.83741 -3.93729 0
M  V30 3344 H 321.822 4.79309 -4.81082 0
M  V30 3345 H 319.768 5.90338 -2.86072 0
M  V30 3346 H 319.685 6.00811 -4.5887 0
M  V30 3347 H 320.953 6.83984 -3.73879 0
M  V30 3348 N 325.182 1.32811 0.848464 0
M  V30 3349 C 326.43 1.23479 1.59991 0
M  V30 3350 C 326.751 -0.201853 1.93952 0
M  V30 3351 O 326.021 -1.12818 1.60153 0
M  V30 3352 H 324.601 0.454034 0.593179 0
M  V30 3353 H 327.263 1.66412 1.01455 0
M  V30 3354 H 326.359 1.82178 2.53412 0
M  V30 3355 N 326.66 -1.06551 1.16123 0
M  V30 3356 C 327.885 -1.83544 0.965735 0
M  V30 3357 C 328.31 -1.81843 -0.481102 0
M  V30 3358 O 327.668 -1.21732 -1.34354 0
M  V30 3359 C 327.716 -3.28169 1.49457 0
M  V30 3360 O 326.82 -4.0643 0.699157 0
M  V30 3361 H 326.161 -0.568026 0.343864 0
M  V30 3362 H 328.691 -1.34362 1.54299 0
M  V30 3363 H 328.701 -3.78992 1.51092 0
M  V30 3364 H 327.376 -3.28722 2.54784 0
M  V30 3365 H 325.953 -3.65216 0.7531 0
M  V30 3366 N 328.138 -0.959301 -1.25041 0
M  V30 3367 C 329.07 -0.440543 -2.24926 0
M  V30 3368 C 330.083 0.446131 -1.56568 0
M  V30 3369 O 331.272 0.253657 -1.76689 0
M  V30 3370 C 328.372 0.38412 -3.36716 0
M  V30 3371 C 327.545 -0.490658 -4.34639 0
M  V30 3372 C 326.604 0.276587 -5.25473 0
M  V30 3373 O 325.63 -0.326614 -5.68262 0
M  V30 3374 N 326.832 1.56844 -5.5891 0
M  V30 3375 H 329.597 -1.29931 -2.70071 0
M  V30 3376 H 327.158 -0.830181 -1.38995 0
M  V30 3377 H 329.15 0.905228 -3.94446 0
M  V30 3378 H 327.72 1.14377 -2.90924 0
M  V30 3379 H 326.94 -1.19282 -3.7572 0
M  V30 3380 H 328.228 -1.08756 -4.97041 0
M  V30 3381 H 327.626 2.08036 -5.26059 0
M  V30 3382 H 326.183 2.03541 -6.19205 0
M  V30 3383 N 329.616 1.39756 -0.72842 0
M  V30 3384 C 330.548 2.29157 -0.0446202 0
M  V30 3385 C 331.561 1.46484 0.710367 0
M  V30 3386 O 332.75 1.69632 0.55562 0
M  V30 3387 C 329.85 3.24987 0.961071 0
M  V30 3388 C 329.023 4.36572 0.268967 0
M  V30 3389 C 328.082 5.12756 1.18184 0
M  V30 3390 O 327.108 5.6534 0.661794 0
M  V30 3391 N 328.31 5.23331 2.51206 0
M  V30 3392 H 331.075 2.88482 -0.812295 0
M  V30 3393 H 328.636 1.51265 -0.577098 0
M  V30 3394 H 330.628 3.72827 1.57423 0
M  V30 3395 H 329.198 2.66739 1.63 0
M  V30 3396 H 328.418 3.90694 -0.524574 0
M  V30 3397 H 329.706 5.08363 -0.210934 0
M  V30 3398 H 329.104 4.82116 2.9594 0
M  V30 3399 H 327.661 5.74634 3.07634 0
M  V30 3400 N 331.094 0.475555 1.50254 0
M  V30 3401 C 332.319 -0.0777042 2.07254 0
M  V30 3402 C 332.744 -1.3235 1.3366 0
M  V30 3403 O 332.102 -1.77152 0.385597 0
M  V30 3404 C 332.15 -0.340169 3.58992 0
M  V30 3405 O 331.254 -1.41982 3.87188 0
M  V30 3406 H 330.595 0.0149556 0.663832 0
M  V30 3407 H 333.125 0.667878 1.93392 0
M  V30 3408 H 333.135 -0.579332 4.03866 0
M  V30 3409 H 331.81 0.570167 4.11973 0
M  V30 3410 H 330.387 -1.16762 3.54148 0
M  V30 3411 N 332.573 -1.56217 0.208337 0
M  V30 3412 C 333.819 -1.98242 -0.427552 0
M  V30 3413 C 334.152 -1.09554 -1.60348 0
M  V30 3414 O 333.427 -0.15035 -1.93918 0
M  V30 3415 C 333.71 -3.4931 -0.874907 0
M  V30 3416 C 333.563 -4.48773 0.303751 0
M  V30 3417 C 334.882 -4.04424 -1.73577 0
M  V30 3418 H 332.001 -0.720744 -0.153936 0
M  V30 3419 H 334.643 -1.87586 0.30192 0
M  V30 3420 H 332.793 -3.58522 -1.49648 0
M  V30 3421 H 334.465 -4.51586 0.941682 0
M  V30 3422 H 332.708 -4.23194 0.953375 0
M  V30 3423 H 333.379 -5.51976 -0.0519883 0
M  V30 3424 H 335.855 -3.98075 -1.21143 0
M  V30 3425 H 334.731 -5.1047 -2.01771 0
M  V30 3426 H 334.992 -3.50494 -2.69456 0
M  V30 3427 N 334.051 0.0651679 -1.57465 0
M  V30 3428 C 334.961 1.09448 -2.07505 0
M  V30 3429 C 335.977 1.41974 -1.00595 0
M  V30 3430 O 337.153 1.52018 -1.32107 0
M  V30 3431 C 334.218 2.38689 -2.51453 0
M  V30 3432 C 333.279 2.13073 -3.72691 0
M  V30 3433 C 332.512 3.36152 -4.14533 0
M  V30 3434 O 332.735 4.45517 -3.56189 0
M  V30 3435 O 331.669 3.23974 -5.07272 0
M  V30 3436 H 335.495 0.69935 -2.95538 0
M  V30 3437 H 333.08 0.279752 -1.46757 0
M  V30 3438 H 334.962 3.14736 -2.80212 0
M  V30 3439 H 333.637 2.77568 -1.66546 0
M  V30 3440 H 332.544 1.34709 -3.49005 0
M  V30 3441 H 333.877 1.79071 -4.5847 0
M  V30 3442 N 335.529 1.53961 0.336706 0
M  V30 3443 C 336.461 1.78751 1.4346 0
M  V30 3444 C 337.474 0.669019 1.48418 0
M  V30 3445 O 338.663 0.945884 1.51378 0
M  V30 3446 C 335.763 1.87844 2.82078 0
M  V30 3447 C 334.936 3.17854 3.00479 0
M  V30 3448 C 333.995 3.17816 4.19379 0
M  V30 3449 O 333.021 3.91511 4.13168 0
M  V30 3450 N 334.223 2.40669 5.2826 0
M  V30 3451 H 336.988 2.73493 1.22563 0
M  V30 3452 H 334.549 1.53096 0.526625 0
M  V30 3453 H 336.541 1.85261 3.59806 0
M  V30 3454 H 335.111 1.00257 2.96086 0
M  V30 3455 H 334.331 3.33504 2.10163 0
M  V30 3456 H 335.619 4.03718 3.0966 0
M  V30 3457 H 335.017 1.8036 5.36178 0
M  V30 3458 H 333.574 2.43877 6.04456 0
M  V30 3459 N 337.007 -0.598083 1.45811 0
M  V30 3460 C 337.97 -1.69018 1.54808 0
M  V30 3461 C 338.97 -1.55037 0.426652 0
M  V30 3462 O 340.16 -1.59932 0.690456 0
M  V30 3463 C 337.292 -3.0835 1.45371 0
M  V30 3464 H 338.485 -1.62403 2.52121 0
M  V30 3465 H 336.038 -0.814626 1.33392 0
M  V30 3466 H 336.773 -3.20534 0.492793 0
M  V30 3467 H 336.558 -3.19907 2.26721 0
M  V30 3468 H 338.048 -3.8788 1.54721 0
M  V30 3469 N 338.485 -1.33259 -0.841409 0
M  V30 3470 C 339.715 -1.2742 -1.62628 0
M  V30 3471 C 340.123 0.157604 -1.88542 0
M  V30 3472 O 339.466 1.10938 -1.46419 0
M  V30 3473 C 339.528 -1.97797 -3.00194 0
M  V30 3474 C 339.192 -3.47109 -2.97261 0
M  V30 3475 C 340.189 -4.42358 -2.73159 0
M  V30 3476 C 337.874 -3.89247 -3.17478 0
M  V30 3477 C 339.868 -5.77718 -2.69296 0
M  V30 3478 C 337.555 -5.24713 -3.13241 0
M  V30 3479 C 338.553 -6.1876 -2.89181 0
M  V30 3480 O 338.241 -7.51745 -2.84843 0
M  V30 3481 H 337.973 -0.440436 -0.512827 0
M  V30 3482 H 340.527 -1.76153 -1.05638 0
M  V30 3483 H 338.757 -1.43652 -3.59028 0
M  V30 3484 H 340.446 -1.8549 -3.61038 0
M  V30 3485 H 341.212 -4.11127 -2.57294 0
M  V30 3486 H 337.091 -3.16456 -3.35226 0
M  V30 3487 H 340.635 -6.51097 -2.50436 0
M  V30 3488 H 336.532 -5.55569 -3.28654 0
M  V30 3489 H 337.3 -7.61262 -3.00702 0
M  V30 3490 N 339.963 1.05934 -1.16686 0
M  V30 3491 C 340.926 2.11669 -0.879144 0
M  V30 3492 C 341.926 1.60294 0.127445 0
M  V30 3493 O 343.116 1.7389 -0.103865 0
M  V30 3494 C 340.248 3.39438 -0.315425 0
M  V30 3495 H 341.441 2.38626 -1.81653 0
M  V30 3496 H 338.994 1.22058 -0.976299 0
M  V30 3497 H 339.729 3.18132 0.629468 0
M  V30 3498 H 339.514 3.78034 -1.04079 0
M  V30 3499 H 341.004 4.17391 -0.132189 0
M  V30 3500 N 341.441 0.965919 1.2453 0
M  V30 3501 C 342.351 0.502154 2.29163 0
M  V30 3502 C 343.367 -0.436017 1.68448 0
M  V30 3503 O 344.543 -0.309497 1.99008 0
M  V30 3504 C 341.608 -0.201956 3.46111 0
M  V30 3505 C 340.669 0.775821 4.22232 0
M  V30 3506 C 339.902 0.105217 5.33596 0
M  V30 3507 O 340.125 -1.10683 5.59558 0
M  V30 3508 O 339.059 0.796475 5.96607 0
M  V30 3509 H 342.885 1.37194 2.70946 0
M  V30 3510 H 340.47 0.732875 1.30189 0
M  V30 3511 H 342.352 -0.597564 4.17142 0
M  V30 3512 H 341.027 -1.04673 3.06309 0
M  V30 3513 H 339.934 1.22185 3.53584 0
M  V30 3514 H 341.267 1.58896 4.65846 0
M  V30 3515 N 342.919 -1.39368 0.735821 0
M  V30 3516 C 343.882 -2.2896 0.104874 0
M  V30 3517 C 344.882 -1.46347 -0.666274 0
M  V30 3518 O 346.072 -1.67014 -0.49517 0
M  V30 3519 C 343.204 -3.29857 -0.860656 0
M  V30 3520 H 344.397 -2.86259 0.894205 0
M  V30 3521 H 341.95 -1.48029 0.501704 0
M  V30 3522 H 342.685 -2.77615 -1.67631 0
M  V30 3523 H 342.47 -3.9087 -0.310327 0
M  V30 3524 H 343.96 -3.96893 -1.29867 0
M  V30 3525 N 344.397 -0.483516 -1.5 0
M  V30 3526 C 345.645 0.067027 -2.01989 0
M  V30 3527 C 345.966 1.3909 -1.36671 0
M  V30 3528 O 345.236 1.88978 -0.516152 0
M  V30 3529 H 343.816 0.0277606 -0.746484 0
M  V30 3530 H 346.478 -0.636773 -1.84204 0
M  V30 3531 H 345.574 0.209484 -3.11396 0
M  V30 3532 N 345.875 1.56104 -0.216619 0
M  V30 3533 C 346.807 2.17339 0.72776 0
M  V30 3534 C 347.82 1.14109 1.16116 0
M  V30 3535 O 349.009 1.4111 1.09317 0
M  V30 3536 C 346.109 2.73818 1.99693 0
M  V30 3537 C 345.282 4.02168 1.71988 0
M  V30 3538 C 344.341 4.43259 2.83562 0
M  V30 3539 O 343.367 5.10257 2.52244 0
M  V30 3540 N 344.569 4.08535 4.12407 0
M  V30 3541 H 347.334 2.99005 0.203983 0
M  V30 3542 H 344.895 1.61861 -0.0354289 0
M  V30 3543 H 346.887 2.9828 2.73516 0
M  V30 3544 H 345.457 1.96483 2.43132 0
M  V30 3545 H 344.677 3.85612 0.818337 0
M  V30 3546 H 345.965 4.85907 1.50903 0
M  V30 3547 H 345.363 3.54687 4.40696 0
M  V30 3548 H 343.92 4.37901 4.8279 0
M  V30 3549 N 347.353 -0.0568162 1.57498 0
M  V30 3550 C 348.764 -0.606858 1.76562 0
M  V30 3551 C 349.115 -1.77114 0.844094 0
M  V30 3552 O 348.24 -2.16376 0.0318911 0
M  V30 3553 C 348.835 -1.10766 3.20182 0
M  V30 3554 C 347.394 -1.60344 3.40539 0
M  V30 3555 C 346.541 -0.529311 2.72201 0
M  V30 3556 H 349.492 0.169393 1.57793 0
M  V30 3557 H 349.513 -1.97602 3.25167 0
M  V30 3558 H 349.025 -0.26006 3.87228 0
M  V30 3559 H 347.126 -2.47379 2.78629 0
M  V30 3560 H 347.239 -1.67006 4.4905 0
M  V30 3561 H 345.603 -0.977893 2.35179 0
M  V30 3562 H 346.386 0.308352 3.41912 0
M  V30 3563 N 348.832 -1.54138 -0.328536 0
M  V30 3564 C 349.764 -1.79509 -1.4251 0
M  V30 3565 C 350.777 -0.67688 -1.48061 0
M  V30 3566 O 351.966 -0.953898 -1.50874 0
M  V30 3567 C 349.066 -1.89337 -2.81078 0
M  V30 3568 C 348.239 -3.19443 -2.98789 0
M  V30 3569 C 347.298 -3.20036 -4.17688 0
M  V30 3570 O 346.324 -3.93697 -4.11086 0
M  V30 3571 N 347.526 -2.43467 -5.26976 0
M  V30 3572 H 350.291 -2.74139 -1.21111 0
M  V30 3573 H 347.852 -1.53373 -0.518499 0
M  V30 3574 H 349.844 -1.87167 -3.58818 0
M  V30 3575 H 348.414 -1.01826 -2.95551 0
M  V30 3576 H 347.634 -3.34614 -2.08391 0
M  V30 3577 H 348.922 -4.05354 -3.07515 0
M  V30 3578 H 348.32 -1.83201 -5.35214 0
M  V30 3579 H 346.877 -2.4708 -6.03154 0
M  V30 3580 N 350.31 0.590341 -1.46126 0
M  V30 3581 C 351.26 1.69466 -1.5253 0
M  V30 3582 C 352.244 1.56179 -0.386917 0
M  V30 3583 O 353.436 1.65223 -0.634858 0
M  V30 3584 C 350.565 3.08245 -1.5113 0
M  V30 3585 C 349.651 3.26856 -2.70233 0
M  V30 3586 N 350.042 3.15657 -3.95214 0
M  V30 3587 C 348.34 3.57775 -2.66296 0
M  V30 3588 C 349.041 3.36066 -4.74799 0
M  V30 3589 N 348.017 3.60865 -4.06543 0
M  V30 3590 H 351.819 1.59326 -2.46966 0
M  V30 3591 H 349.333 0.79414 -1.41659 0
M  V30 3592 H 351.33 3.87492 -1.53804 0
M  V30 3593 H 349.99 3.19521 -0.577636 0
M  V30 3594 H 351.001 2.93686 -4.26578 0
M  V30 3595 H 347.678 3.75782 -1.81918 0
M  V30 3596 H 349.068 3.32655 -5.83772 0
M  V30 3597 N 351.788 1.33704 0.83433 0
M  V30 3598 C 352.735 1.24335 1.94447 0
M  V30 3599 C 353.705 0.120991 1.65659 0
M  V30 3600 O 354.89 0.300035 1.88426 0
M  V30 3601 C 352.03 0.993124 3.30501 0
M  V30 3602 C 351.143 2.20217 3.71657 0
M  V30 3603 C 350.278 1.88572 4.96602 0
M  V30 3604 C 349.317 3.05683 5.30306 0
M  V30 3605 N 348.454 2.73997 6.46429 0
M  V30 3606 H 353.294 2.1928 2.01792 0
M  V30 3607 H 350.831 1.09035 0.987404 0
M  V30 3608 H 352.789 0.828467 4.08892 0
M  V30 3609 H 351.419 0.0803902 3.227 0
M  V30 3610 H 350.471 2.47642 2.88752 0
M  V30 3611 H 351.783 3.07752 3.92543 0
M  V30 3612 H 350.937 1.68776 5.82752 0
M  V30 3613 H 349.676 0.982799 4.77695 0
M  V30 3614 H 348.681 3.26088 4.42659 0
M  V30 3615 H 349.906 3.96737 5.51159 0
M  V30 3616 H 347.852 1.86268 6.28999 0
M  V30 3617 H 347.769 3.55064 6.67432 0
M  V30 3618 H 349.037 2.57679 7.35678 0
M  V30 3619 N 353.266 -1.05314 1.17247 0
M  V30 3620 C 354.512 -1.78557 0.961513 0
M  V30 3621 C 354.845 -1.87419 -0.508697 0
M  V30 3622 O 354.12 -1.37307 -1.37757 0
M  V30 3623 C 354.403 -3.22514 1.60176 0
M  V30 3624 C 354.256 -3.21673 3.14399 0
M  V30 3625 C 355.575 -4.20318 1.30463 0
M  V30 3626 H 352.694 -0.6482 0.350723 0
M  V30 3627 H 355.336 -1.23102 1.44727 0
M  V30 3628 H 353.486 -3.69867 1.18871 0
M  V30 3629 H 355.158 -2.82405 3.64753 0
M  V30 3630 H 353.401 -2.60048 3.47214 0
M  V30 3631 H 354.072 -4.23271 3.54324 0
M  V30 3632 H 356.548 -3.81454 1.66229 0
M  V30 3633 H 355.424 -5.19289 1.77848 0
M  V30 3634 H 355.685 -4.41526 0.22521 0
M  V30 3635 N 354.744 -0.972509 -1.24016 0
M  V30 3636 C 355.972 -0.654803 -1.96265 0
M  V30 3637 C 356.387 0.776708 -1.72083 0
M  V30 3638 O 355.744 1.52171 -1.00748 0
M  V30 3639 C 355.795 -0.92592 -3.49441 0
M  V30 3640 O 355.516 -2.30116 -3.72798 0
M  V30 3641 C 357.017 -0.623068 -4.38899 0
M  V30 3642 H 354.237 -0.243907 -0.6251 0
M  V30 3643 H 356.781 -1.30175 -1.57717 0
M  V30 3644 H 354.936 -0.325108 -3.86033 0
M  V30 3645 H 355.35 -2.38483 -4.67147 0
M  V30 3646 H 356.824 -0.863189 -5.45209 0
M  V30 3647 H 357.301 0.442754 -4.36963 0
M  V30 3648 H 357.907 -1.204 -4.07902 0
M  V30 3649 N 356.222 1.38976 -0.743202 0
M  V30 3650 C 357.132 2.3434 -0.110399 0
M  V30 3651 C 358.148 1.58741 0.712559 0
M  V30 3652 O 359.324 1.9099 0.639125 0
M  V30 3653 C 356.389 3.37812 0.780012 0
M  V30 3654 C 355.45 4.29263 -0.0561319 0
M  V30 3655 C 354.683 5.27793 0.791875 0
M  V30 3656 O 354.906 5.33043 2.03031 0
M  V30 3657 O 353.84 6.01512 0.216183 0
M  V30 3658 H 357.666 2.90129 -0.897714 0
M  V30 3659 H 355.251 1.40643 -0.503966 0
M  V30 3660 H 357.133 4.01194 1.28923 0
M  V30 3661 H 355.808 2.84395 1.546 0
M  V30 3662 H 354.715 3.69076 -0.611056 0
M  V30 3663 H 356.048 4.85907 -0.784531 0
M  V30 3664 N 357.7 0.491464 1.49741 0
M  V30 3665 C 358.947 -0.0564256 2.02421 0
M  V30 3666 C 359.275 -1.37872 1.37192 0
M  V30 3667 O 358.53 -1.89375 0.493508 0
M  V30 3668 C 358.829 -0.267329 3.56399 0
M  V30 3669 C 358.495 0.975775 4.40215 0
M  V30 3670 C 357.157 1.31655 4.62839 0
M  V30 3671 C 359.509 1.80251 4.89039 0
M  V30 3672 C 356.837 2.48375 5.31532 0
M  V30 3673 C 359.189 2.96116 5.59015 0
M  V30 3674 C 357.853 3.30585 5.79888 0
M  V30 3675 H 357.123 -0.0206476 0.740712 0
M  V30 3676 H 359.77 0.649686 1.80143 0
M  V30 3677 H 358.075 -1.05588 3.77304 0
M  V30 3678 H 359.772 -0.705549 3.94744 0
M  V30 3679 H 356.362 0.700315 4.2284 0
M  V30 3680 H 360.546 1.55239 4.71396 0
M  V30 3681 H 355.802 2.7533 5.45897 0
M  V30 3682 H 359.976 3.60509 5.95824 0
M  V30 3683 H 357.603 4.21132 6.32892 0
M  V30 3684 N 359.178 -1.55987 0.224894 0
M  V30 3685 C 360.427 -1.97566 -0.406273 0
M  V30 3686 C 360.74 -1.11569 -1.6066 0
M  V30 3687 O 361.946 -1.43062 -2.3075 0
M  V30 3688 C 360.402 -3.51474 -0.774207 0
M  V30 3689 C 360.01 -4.46179 0.403496 0
M  V30 3690 C 361.754 -4.01758 -1.37079 0
M  V30 3691 C 359.661 -5.91399 0.0129412 0
M  V30 3692 H 358.591 -0.737777 -0.155565 0
M  V30 3693 H 361.242 -1.80659 0.321635 0
M  V30 3694 H 359.624 -3.63994 -1.55963 0
M  V30 3695 H 360.798 -4.45409 1.18101 0
M  V30 3696 H 359.113 -4.06255 0.913536 0
M  V30 3697 H 361.71 -5.07756 -1.67596 0
M  V30 3698 H 362.053 -3.47805 -2.28773 0
M  V30 3699 H 362.586 -3.92475 -0.648733 0
M  V30 3700 H 359.325 -6.49341 0.896451 0
M  V30 3701 H 358.845 -5.95356 -0.728821 0
M  V30 3702 H 360.524 -6.45683 -0.412582 0
M  V30 3703 N 360.656 0.0484629 -1.57525 0
M  V30 3704 C 361.933 0.777447 -1.79486 0
M  V30 3705 C 362.313 1.94597 -0.818251 0
M  V30 3706 O 361.661 2.28047 0.143767 0
M  V30 3707 C 361.871 1.22864 -3.26658 0
M  V30 3708 C 363.219 1.65251 -3.91123 0
M  V30 3709 O 364.243 1.32372 -3.3069 0
M  V30 3710 O 363.102 2.26207 -4.97486 0
M  V30 3711 H 360.196 0.374357 -0.737419 0
M  V30 3712 H 362.742 0.0267359 -1.69679 0
M  V30 3713 H 361.514 0.393589 -3.89316 0
M  V30 3714 H 361.137 2.03996 -3.41279 0
M  V30 3715 N 362.134 1.5431 0.320358 0
M  V30 3716 C 363.411 1.63322 1.07635 0
M  V30 3717 C 363.791 0.46912 2.05821 0
M  V30 3718 O 363.139 -0.536274 2.22118 0
M  V30 3719 C 363.349 3.00465 1.77544 0
M  V30 3720 C 364.697 3.56621 2.30449 0
M  V30 3721 O 365.721 3.02791 1.87606 0
M  V30 3722 O 364.58 4.5083 3.08892 0
M  V30 3723 H 361.674 0.661502 0.496331 0
M  V30 3724 H 364.22 1.66656 0.319992 0
M  V30 3725 H 362.992 3.76629 1.06143 0
M  V30 3726 H 362.615 3.00824 2.59982 0
M  V30 3727 N 363.613 -0.582584 1.46437 0
M  V30 3728 C 364.546 -1.70633 1.51524 0
M  V30 3729 C 365.524 -1.58349 0.369351 0
M  V30 3730 O 366.708 -1.79563 0.573516 0
M  V30 3731 C 363.835 -3.08687 1.39392 0
M  V30 3732 C 362.881 -3.3949 2.58164 0
M  V30 3733 S 363.714 -3.31548 4.20519 0
M  V30 3734 C 364.87 -4.72139 4.10896 0
M  V30 3735 H 365.103 -1.66058 2.46601 0
M  V30 3736 H 362.636 -0.761337 1.34324 0
M  V30 3737 H 364.594 -3.8833 1.33079 0
M  V30 3738 H 363.255 -3.10751 0.457436 0
M  V30 3739 H 362.448 -4.40071 2.45669 0
M  V30 3740 H 362.05 -2.67415 2.61468 0
M  V30 3741 H 364.342 -5.62527 3.77584 0
M  V30 3742 H 365.285 -4.89692 5.11476 0
M  V30 3743 H 365.693 -4.48995 3.42146 0
M  V30 3744 N 365.091 -1.34144 -0.827227 0
M  V30 3745 C 366.054 -1.25264 -1.91942 0
M  V30 3746 C 367.054 -0.168866 -1.59911 0
M  V30 3747 O 368.244 -0.421198 -1.69031 0
M  V30 3748 C 365.376 -0.932952 -3.27885 0
M  V30 3749 H 366.569 -2.22357 -2.0124 0
M  V30 3750 H 364.122 -1.1837 -1.0207 0
M  V30 3751 H 364.857 0.0349917 -3.24281 0
M  V30 3752 H 364.642 -1.71682 -3.52516 0
M  V30 3753 H 366.132 -0.895874 -4.07877 0
M  V30 3754 N 366.569 1.04691 -1.17803 0
M  V30 3755 C 367.532 2.10724 -0.901545 0
M  V30 3756 C 368.532 1.6042 0.110437 0
M  V30 3757 O 369.722 1.7377 -0.122303 0
M  V30 3758 C 366.854 3.39084 -0.351409 0
M  V30 3759 H 368.047 2.36686 -1.84174 0
M  V30 3760 H 365.6 1.21015 -0.98919 0
M  V30 3761 H 366.335 3.18782 0.59569 0
M  V30 3762 H 366.12 3.76909 -1.08083 0
M  V30 3763 H 367.61 4.17227 -0.176451 0
M  V30 3764 N 368.047 0.979072 1.23499 0
M  V30 3765 C 369.01 0.523244 2.23147 0
M  V30 3766 C 370.01 -0.386406 1.56088 0
M  V30 3767 O 371.2 -0.180283 1.73265 0
M  V30 3768 C 368.332 -0.240739 3.40049 0
M  V30 3769 H 369.525 1.40432 2.64989 0
M  V30 3770 H 367.078 0.764824 1.36309 0
M  V30 3771 H 367.813 -1.13841 3.03662 0
M  V30 3772 H 367.598 0.412207 3.89927 0
M  V30 3773 H 369.088 -0.548297 4.13985 0
M  V30 3774 N 369.525 -1.3858 0.750561 0
M  V30 3775 C 370.755 -2.04175 0.31564 0
M  V30 3776 C 371.163 -1.56726 -1.05989 0
M  V30 3777 O 370.506 -0.734225 -1.68389 0
M  V30 3778 C 370.568 -3.58585 0.256389 0
M  V30 3779 C 370.232 -4.29077 1.57296 0
M  V30 3780 C 371.229 -4.54656 2.52159 0
M  V30 3781 C 368.914 -4.67324 1.84156 0
M  V30 3782 C 370.908 -5.17512 3.72103 0
M  V30 3783 C 368.595 -5.29905 3.04374 0
M  V30 3784 C 369.593 -5.54933 3.98168 0
M  V30 3785 O 369.281 -6.16212 5.16273 0
M  V30 3786 H 369.013 -0.662742 0.133226 0
M  V30 3787 H 371.567 -1.78313 1.01948 0
M  V30 3788 H 369.797 -3.83406 -0.503677 0
M  V30 3789 H 371.486 -4.05628 -0.148612 0
M  V30 3790 H 372.252 -4.25539 2.32683 0
M  V30 3791 H 368.131 -4.47191 1.11988 0
M  V30 3792 H 371.675 -5.36963 4.45327 0
M  V30 3793 H 367.572 -5.58444 3.23745 0
M  V30 3794 H 368.34 -6.34701 5.16815 0
M  V30 3795 N 371.003 -0.499398 -1.49478 0
M  V30 3796 C 371.966 0.268838 -2.27618 0
M  V30 3797 C 372.966 0.895383 -1.33565 0
M  V30 3798 O 374.156 0.760164 -1.56739 0
M  V30 3799 C 371.288 1.38559 -3.11471 0
M  V30 3800 H 372.481 -0.416812 -2.96989 0
M  V30 3801 H 370.034 -0.254313 -1.54217 0
M  V30 3802 H 370.769 2.10544 -2.46661 0
M  V30 3803 H 370.554 0.941797 -3.80621 0
M  V30 3804 H 372.044 1.92678 -3.70493 0
M  V30 3805 N 372.481 1.55866 -0.233164 0
M  V30 3806 C 373.727 1.99643 0.389148 0
M  V30 3807 C 374.082 1.11836 1.56558 0
M  V30 3808 O 373.375 0.170848 1.90837 0
M  V30 3809 C 373.569 3.46856 0.861724 0
M  V30 3810 C 373.398 4.48904 -0.267376 0
M  V30 3811 C 372.168 4.99888 -0.737577 0
M  V30 3812 C 374.366 5.02624 -1.08966 0
M  V30 3813 N 372.348 5.8566 -1.84052 0
M  V30 3814 C 373.719 5.85434 -2.04125 0
M  V30 3815 C 375.774 4.84959 -1.12779 0
M  V30 3816 C 374.477 6.52466 -3.02789 0
M  V30 3817 C 376.503 5.52759 -2.10266 0
M  V30 3818 C 375.865 6.35346 -3.04162 0
M  V30 3819 H 371.964 0.774402 0.108742 0
M  V30 3820 H 374.548 1.91572 -0.347596 0
M  V30 3821 H 372.719 3.55352 1.5678 0
M  V30 3822 H 374.451 3.77531 1.45783 0
M  V30 3823 H 371.206 4.7249 -0.324122 0
M  V30 3824 H 371.63 6.33246 -2.39434 0
M  V30 3825 H 376.272 4.20751 -0.415749 0
M  V30 3826 H 373.99 7.15849 -3.74948 0
M  V30 3827 H 377.576 5.41051 -2.13905 0
M  V30 3828 H 376.456 6.86883 -3.78366 0
M  V30 3829 N 373.959 -0.0401083 1.57549 0
M  V30 3830 C 374.922 -1.02871 2.04817 0
M  V30 3831 C 375.922 -1.29708 0.950388 0
M  V30 3832 O 377.112 -1.24897 1.21435 0
M  V30 3833 C 374.244 -2.36443 2.45576 0
M  V30 3834 H 375.437 -0.620631 2.93408 0
M  V30 3835 H 372.99 -0.286667 1.53649 0
M  V30 3836 H 373.725 -2.82021 1.60108 0
M  V30 3837 H 373.51 -2.18296 3.25713 0
M  V30 3838 H 375 -3.07441 2.82612 0
M  V30 3839 N 375.437 -1.54477 -0.31217 0
M  V30 3840 C 376.714 -1.63891 -1.06767 0
M  V30 3841 C 377.094 -0.480028 -2.0557 0
M  V30 3842 O 376.442 0.524487 -2.22399 0
M  V30 3843 C 376.652 -3.01402 -1.75948 0
M  V30 3844 C 378 -3.57838 -2.28554 0
M  V30 3845 O 379.024 -3.03782 -1.85998 0
M  V30 3846 O 377.883 -4.52462 -3.06497 0
M  V30 3847 H 374.977 -0.664125 -0.492816 0
M  V30 3848 H 377.523 -1.66823 -0.311149 0
M  V30 3849 H 376.295 -3.77187 -1.04144 0
M  V30 3850 H 375.918 -3.02199 -2.58383 0
M  V30 3851 N 376.915 0.57481 -1.46744 0
M  V30 3852 C 378.161 1.3347 -1.52688 0
M  V30 3853 C 378.494 1.93353 -0.181229 0
M  V30 3854 O 377.769 1.76912 0.808237 0
M  V30 3855 C 378.052 2.45811 -2.63152 0
M  V30 3856 C 377.905 1.90912 -4.07275 0
M  V30 3857 C 379.224 3.47822 -2.69644 0
M  V30 3858 H 376.343 0.483935 -0.555856 0
M  V30 3859 H 378.985 0.644968 -1.78718 0
M  V30 3860 H 377.135 3.04646 -2.41088 0
M  V30 3861 H 378.807 1.36473 -4.4065 0
M  V30 3862 H 377.05 1.21691 -4.16382 0
M  V30 3863 H 377.721 2.72042 -4.80309 0
M  V30 3864 H 380.197 2.9888 -2.895 0
M  V30 3865 H 379.073 4.23876 -3.48742 0
M  V30 3866 H 379.334 4.05555 -1.76005 0
M  V30 3867 N 378.394 1.34581 0.820102 0
M  V30 3868 C 379.64 1.27285 1.57881 0
M  V30 3869 C 379.973 -0.156137 1.93571 0
M  V30 3870 O 379.248 -1.10222 1.60254 0
M  V30 3871 C 379.531 2.16639 2.87645 0
M  V30 3872 C 379.384 3.68088 2.58517 0
M  V30 3873 C 380.703 2.05378 3.8924 0
M  V30 3874 H 377.822 0.463714 0.572833 0
M  V30 3875 H 380.464 1.64859 0.944539 0
M  V30 3876 H 378.614 1.84725 3.41773 0
M  V30 3877 H 380.286 4.10382 2.10676 0
M  V30 3878 H 378.529 3.89038 1.91917 0
M  V30 3879 H 379.2 4.2598 3.51063 0
M  V30 3880 H 381.676 2.33404 3.44473 0
M  V30 3881 H 380.552 2.7012 4.77835 0
M  V30 3882 H 380.813 1.0316 4.29896 0
M  V30 3883 N 379.872 -1.04064 1.18357 0
M  V30 3884 C 381.118 -1.77528 0.980397 0
M  V30 3885 C 381.451 -1.87948 -0.48879 0
M  V30 3886 O 380.726 -1.3876 -1.36293 0
M  V30 3887 C 381.009 -3.20797 1.63588 0
M  V30 3888 C 380.862 -3.1832 3.17793 0
M  V30 3889 C 382.181 -4.18911 1.34914 0
M  V30 3890 H 379.3 -0.644443 0.357578 0
M  V30 3891 H 381.942 -1.2156 1.46024 0
M  V30 3892 H 380.092 -3.68586 1.22788 0
M  V30 3893 H 381.764 -2.78521 3.67728 0
M  V30 3894 H 380.007 -2.56351 3.49952 0
M  V30 3895 H 380.678 -4.19489 3.58794 0
M  V30 3896 H 383.154 -3.7967 1.70265 0
M  V30 3897 H 382.03 -5.17374 1.83346 0
M  V30 3898 H 382.291 -4.41262 0.272027 0
M  V30 3899 N 381.35 -0.985608 -1.22978 0
M  V30 3900 C 382.59 -0.665487 -1.93263 0
M  V30 3901 C 382.954 0.78706 -1.75127 0
M  V30 3902 O 384.155 1.21826 -2.39608 0
M  V30 3903 C 382.426 -1.0515 -3.41582 0
M  V30 3904 S 383.985 -0.848637 -4.30516 0
M  V30 3905 H 380.803 -0.24355 -0.667985 0
M  V30 3906 H 383.405 -1.26635 -1.48942 0
M  V30 3907 H 382.109 -2.10517 -3.52293 0
M  V30 3908 H 381.64 -0.442134 -3.90908 0
M  V30 3909 H 383.655 0.264717 -4.95493 0
M  V30 3910 N 382.828 1.3818 -0.7579 0
M  V30 3911 C 384.244 1.5353 -0.435972 0
M  V30 3912 C 384.444 1.71961 1.05032 0
M  V30 3913 O 383.5 1.73307 1.83633 0
M  V30 3914 C 384.813 2.73989 -1.23898 0
M  V30 3915 C 386.361 2.87841 -1.22949 0
M  V30 3916 C 386.836 4.11266 -2.01554 0
M  V30 3917 N 388.327 4.18352 -1.98837 0
M  V30 3918 C 389.062 5.12856 -2.5645 0
M  V30 3919 N 388.558 6.13005 -3.22794 0
M  V30 3920 N 390.351 5.05238 -2.46356 0
M  V30 3921 H 382.502 1.24467 -1.7211 0
M  V30 3922 H 384.765 0.604982 -0.729864 0
M  V30 3923 H 384.471 2.66789 -2.29165 0
M  V30 3924 H 384.345 3.67294 -0.858764 0
M  V30 3925 H 386.732 2.9452 -0.184854 0
M  V30 3926 H 386.813 1.95534 -1.64924 0
M  V30 3927 H 386.457 4.05349 -3.06031 0
M  V30 3928 H 386.387 5.02661 -1.5697 0
M  V30 3929 H 388.878 3.46628 -1.50524 0
M  V30 3930 H 389.191 6.81619 -3.64165 0
M  V30 3931 H 387.536 6.13325 -3.2689 0
M  V30 3932 H 390.727 4.25938 -1.9415 0
M  V30 3933 H 390.9 5.78707 -2.91552 0
M  V30 3934 N 384.306 0.507319 1.49211 0
M  V30 3935 C 385.531 -0.033725 2.07373 0
M  V30 3936 C 385.956 -1.29485 1.36437 0
M  V30 3937 O 385.314 -1.76294 0.423087 0
M  V30 3938 C 385.362 -0.263945 3.59633 0
M  V30 3939 O 384.466 -1.33737 3.90113 0
M  V30 3940 H 383.807 0.0290331 0.663365 0
M  V30 3941 H 386.337 0.708749 1.91932 0
M  V30 3942 H 386.347 -0.493536 4.05004 0
M  V30 3943 H 385.022 0.657424 4.10671 0
M  V30 3944 H 383.599 -1.09224 3.56545 0
M  V30 3945 N 385.784 -1.5574 0.241426 0
M  V30 3946 C 387.032 -1.98417 -0.384075 0
M  V30 3947 C 387.353 -1.13078 -1.58866 0
M  V30 3948 O 386.623 -0.212312 -1.94746 0
M  V30 3949 H 385.203 -0.732813 -0.144894 0
M  V30 3950 H 387.865 -1.9193 0.338943 0
M  V30 3951 H 386.961 -3.04219 -0.696939 0
M  V30 3952 N 387.262 0.0317525 -1.57568 0
M  V30 3953 C 388.225 1.01783 -2.0536 0
M  V30 3954 C 389.225 1.29203 -0.957253 0
M  V30 3955 O 390.415 1.24251 -1.22095 0
M  V30 3956 C 387.547 2.35137 -2.46827 0
M  V30 3957 H 388.74 0.605062 -2.93733 0
M  V30 3958 H 386.293 0.278514 -1.53799 0
M  V30 3959 H 387.028 2.81168 -1.61602 0
M  V30 3960 H 386.813 2.16566 -3.26866 0
M  V30 3961 H 388.303 3.05938 -2.84239 0
M  V30 3962 N 388.74 1.54641 0.303973 0
M  V30 3963 C 389.67 1.88386 1.3796 0
M  V30 3964 C 390.651 0.742485 1.5304 0
M  V30 3965 O 391.836 0.997959 1.66597 0
M  V30 3966 C 388.966 2.12854 2.74427 0
M  V30 3967 C 387.92 3.28702 2.74115 0
M  V30 3968 C 387.246 3.38582 4.13844 0
M  V30 3969 C 388.546 4.65881 2.3612 0
M  V30 3970 H 390.24 2.78474 1.09966 0
M  V30 3971 H 387.786 1.33988 0.527556 0
M  V30 3972 H 389.739 2.35047 3.49758 0
M  V30 3973 H 388.463 1.19535 3.03939 0
M  V30 3974 H 387.122 3.06428 2.0124 0
M  V30 3975 H 386.77 2.42784 4.40528 0
M  V30 3976 H 386.47 4.16453 4.14537 0
M  V30 3977 H 387.994 3.63031 4.90959 0
M  V30 3978 H 389.408 4.87823 3.01167 0
M  V30 3979 H 387.805 5.46444 2.48031 0
M  V30 3980 H 388.875 4.66799 1.3125 0
M  V30 3981 N 390.218 -0.567019 1.47046 0
M  V30 3982 C 391.446 -1.35027 1.56765 0
M  V30 3983 C 391.861 -1.8758 0.214316 0
M  V30 3984 O 391.218 -1.64471 -0.790919 0
M  V30 3985 C 391.269 -2.52698 2.58507 0
M  V30 3986 O 390.99 -2.0232 3.88585 0
M  V30 3987 C 392.491 -3.45043 2.78316 0
M  V30 3988 H 389.711 -0.41195 0.529658 0
M  V30 3989 H 392.255 -0.687832 1.92585 0
M  V30 3990 H 390.41 -3.149 2.25648 0
M  V30 3991 H 390.824 -2.79068 4.44096 0
M  V30 3992 H 392.298 -4.2405 3.53391 0
M  V30 3993 H 392.775 -3.97971 1.85784 0
M  V30 3994 H 393.381 -2.88665 3.12334 0
M  V30 3995 N 391.696 -1.35014 -0.812953 0
M  V30 3996 C 392.942 -1.2812 -1.57204 0
M  V30 3997 C 393.275 0.145869 -1.93651 0
M  V30 3998 O 392.55 1.0937 -1.60836 0
M  V30 3999 C 392.833 -2.18162 -2.86492 0
M  V30 4000 C 392.686 -3.69454 -2.56561 0
M  V30 4001 C 394.005 -2.07439 -3.88145 0
M  V30 4002 H 391.124 -0.466746 -0.570366 0
M  V30 4003 H 393.766 -1.65357 -0.935783 0
M  V30 4004 H 391.916 -1.86535 -3.40789 0
M  V30 4005 H 393.588 -4.11493 -2.08497 0
M  V30 4006 H 391.831 -3.9005 -1.89851 0
M  V30 4007 H 392.502 -4.27835 -3.48799 0
M  V30 4008 H 394.978 -2.35228 -3.4323 0
M  V30 4009 H 393.854 -2.7265 -4.76396 0
M  V30 4010 H 394.115 -1.05439 -4.29343 0
M  V30 4011 N 393.175 1.03435 -1.18907 0
M  V30 4012 C 394.4 1.80919 -1.01406 0
M  V30 4013 C 394.825 1.83055 0.432721 0
M  V30 4014 O 394.183 1.25252 1.31079 0
M  V30 4015 C 394.231 3.24091 -1.58105 0
M  V30 4016 O 393.335 4.04434 -0.806669 0
M  V30 4017 H 392.676 0.558709 -0.358803 0
M  V30 4018 H 395.206 1.30223 -1.57807 0
M  V30 4019 H 395.216 3.74853 -1.61087 0
M  V30 4020 H 393.891 3.21851 -2.6341 0
M  V30 4021 H 392.468 3.63091 -0.849666 0
M  V30 4022 N 394.653 0.992116 1.22453 0
M  V30 4023 C 395.563 0.55065 2.28046 0
M  V30 4024 C 396.579 -0.400189 1.69335 0
M  V30 4025 O 397.755 -0.267215 1.99619 0
M  V30 4026 C 394.82 -0.128496 3.46462 0
M  V30 4027 C 393.881 0.865208 4.20491 0
M  V30 4028 C 393.114 0.218377 5.33253 0
M  V30 4029 O 393.337 -0.987894 5.6178 0
M  V30 4030 O 392.271 0.922845 5.94783 0
M  V30 4031 H 396.097 1.4291 2.67975 0
M  V30 4032 H 393.682 0.760326 1.28606 0
M  V30 4033 H 395.564 -0.508947 4.18315 0
M  V30 4034 H 394.239 -0.981526 3.0846 0
M  V30 4035 H 393.146 1.29658 3.50913 0
M  V30 4036 H 394.479 1.68741 4.62371 0
M  V30 4037 N 396.131 -1.37776 0.765217 0
M  V30 4038 C 397.38 -1.99092 0.323307 0
M  V30 4039 C 397.693 -1.61434 -1.10446 0
M  V30 4040 O 398.899 -2.15805 -1.64743 0
M  V30 4041 C 397.355 -3.56019 0.527098 0
M  V30 4042 C 396.963 -4.0262 1.96471 0
M  V30 4043 C 398.707 -4.2424 0.148483 0
M  V30 4044 C 396.614 -5.52233 2.11644 0
M  V30 4045 H 395.544 -0.744846 0.117137 0
M  V30 4046 H 398.195 -1.57391 0.943417 0
M  V30 4047 H 396.577 -3.95667 -0.162372 0
M  V30 4048 H 397.751 -3.74234 2.68859 0
M  V30 4049 H 396.066 -3.47161 2.29931 0
M  V30 4050 H 398.663 -5.34159 0.240456 0
M  V30 4051 H 399.006 -4.06446 -0.900422 0
M  V30 4052 H 399.539 -3.89872 0.79025 0
M  V30 4053 H 396.278 -5.74945 3.1483 0
M  V30 4054 H 395.798 -5.82324 1.4373 0
M  V30 4055 H 397.477 -6.18106 1.91193 0
M  V30 4056 N 397.609 -0.515225 -1.4894 0
M  V30 4057 C 398.572 0.244681 -2.2789 0
M  V30 4058 C 399.572 0.881166 -1.34507 0
M  V30 4059 O 400.762 0.743497 -1.57537 0
M  V30 4060 C 397.894 1.35247 -3.12923 0
M  V30 4061 H 399.087 -0.448289 -2.96531 0
M  V30 4062 H 396.64 -0.270656 -1.53939 0
M  V30 4063 H 397.375 2.07916 -2.48881 0
M  V30 4064 H 397.16 0.901374 -3.81599 0
M  V30 4065 H 398.65 1.88737 -3.72516 0
M  V30 4066 N 399.087 1.5561 -0.249682 0
M  V30 4067 C 400.05 2.20217 0.635394 0
M  V30 4068 C 401.05 1.17227 1.10066 0
M  V30 4069 O 402.24 1.42292 1.00492 0
M  V30 4070 C 399.372 2.84794 1.87363 0
M  V30 4071 H 400.565 2.99814 0.0716752 0
M  V30 4072 H 398.118 1.563 -0.000153234 0
M  V30 4073 H 398.853 2.09142 2.47851 0
M  V30 4074 H 398.638 3.60241 1.5482 0
M  V30 4075 H 400.128 3.3423 2.5036 0
M  V30 4076 N 400.565 -0.0233959 1.57583 0
M  V30 4077 C 401.528 -1.00693 2.05897 0
M  V30 4078 C 402.528 -1.28693 0.964092 0
M  V30 4079 O 403.718 -1.23602 1.22753 0
M  V30 4080 C 400.85 -2.33825 2.4807 0
M  V30 4081 H 402.043 -0.589476 2.9405 0
M  V30 4082 H 399.596 -0.270354 1.53944 0
M  V30 4083 H 400.331 -2.80307 1.6309 0
M  V30 4084 H 400.116 -2.1483 3.2801 0
M  V30 4085 H 401.606 -3.04426 2.85857 0
M  V30 4086 N 402.043 -1.548 -0.295768 0
M  V30 4087 C 403.291 -1.73985 -1.02828 0
M  V30 4088 C 403.612 -0.531406 -1.87619 0
M  V30 4089 O 402.882 0.454221 -1.90561 0
M  V30 4090 H 401.462 -0.641556 -0.382642 0
M  V30 4091 H 404.124 -1.92163 -0.325489 0
M  V30 4092 H 403.22 -2.63129 -1.67838 0
M  V30 4093 N 403.521 0.559213 -1.47345 0
M  V30 4094 C 404.451 1.67622 -1.62558 0
M  V30 4095 C 405.432 1.63331 -0.475087 0
M  V30 4096 O 406.617 1.80983 -0.704182 0
M  V30 4097 C 403.747 3.0626 -1.63774 0
M  V30 4098 C 402.701 3.25397 -2.7803 0
M  V30 4099 C 402.027 4.64801 -2.64318 0
M  V30 4100 C 403.327 3.10965 -4.19641 0
M  V30 4101 H 405.021 1.55146 -2.56067 0
M  V30 4102 H 402.567 0.744961 -1.23233 0
M  V30 4103 H 404.52 3.84247 -1.73008 0
M  V30 4104 H 403.244 3.1969 -0.66825 0
M  V30 4105 H 401.903 2.49817 -2.68304 0
M  V30 4106 H 401.551 4.75028 -1.65401 0
M  V30 4107 H 401.251 4.78555 -3.40968 0
M  V30 4108 H 402.775 5.44926 -2.75478 0
M  V30 4109 H 404.189 3.78772 -4.30354 0
M  V30 4110 H 402.586 3.36229 -4.97062 0
M  V30 4111 H 403.656 2.07736 -4.38148 0
M  V30 4112 N 404.999 1.35443 0.805782 0
M  V30 4113 C 406.41 1.25768 1.37983 0
M  V30 4114 C 406.761 -0.10958 1.95894 0
M  V30 4115 O 405.886 -1.01056 1.91355 0
M  V30 4116 C 406.481 2.27727 2.5085 0
M  V30 4117 C 405.04 2.2179 3.04115 0
M  V30 4118 C 404.187 2.13393 1.77084 0
M  V30 4119 H 407.138 1.4656 0.608752 0
M  V30 4120 H 407.159 1.90422 3.29424 0
M  V30 4121 H 406.671 3.27227 2.08671 0
M  V30 4122 H 404.772 1.25703 3.50756 0
M  V30 4123 H 404.885 3.13788 3.62042 0
M  V30 4124 H 403.249 1.59384 1.98668 0
M  V30 4125 H 404.032 3.14755 1.37056 0
M  V30 4126 N 406.477 -1.02803 1.19454 0
M  V30 4127 C 407.44 -2.09264 0.934955 0
M  V30 4128 C 408.44 -1.60576 -0.0849015 0
M  V30 4129 O 409.63 -1.73554 0.149933 0
M  V30 4130 C 406.762 -3.38482 0.40531 0
M  V30 4131 H 407.955 -2.33726 1.87916 0
M  V30 4132 H 405.508 -1.19426 1.00832 0
M  V30 4133 H 406.243 -3.19689 -0.544899 0
M  V30 4134 H 406.028 -3.75142 1.14065 0
M  V30 4135 H 407.518 -4.16894 0.242806 0
M  V30 4136 N 407.956 -0.998596 -1.21925 0
M  V30 4137 C 408.886 -0.573688 -2.26343 0
M  V30 4138 C 409.867 0.402296 -1.65274 0
M  V30 4139 O 411.052 0.291683 -1.91997 0
M  V30 4140 C 408.182 0.106839 -3.47136 0
M  V30 4141 C 407.136 -0.788269 -4.20678 0
M  V30 4142 C 406.462 0.0254927 -5.34694 0
M  V30 4143 C 407.762 -2.08784 -4.78755 0
M  V30 4144 H 409.456 -1.44651 -2.62138 0
M  V30 4145 H 407.002 -0.696975 -1.26009 0
M  V30 4146 H 408.955 0.415531 -4.19346 0
M  V30 4147 H 407.679 1.01424 -3.10452 0
M  V30 4148 H 406.338 -1.08069 -3.50309 0
M  V30 4149 H 405.986 0.933989 -4.94253 0
M  V30 4150 H 405.686 -0.570437 -5.84825 0
M  V30 4151 H 407.21 0.328147 -6.09718 0
M  V30 4152 H 408.624 -1.84272 -5.42878 0
M  V30 4153 H 407.021 -2.63307 -5.39249 0
M  V30 4154 H 408.091 -2.76284 -3.98491 0
M  V30 4155 N 409.434 1.37368 -0.772513 0
M  V30 4156 C 410.681 1.99673 -0.337182 0
M  V30 4157 C 411.009 1.61324 1.0865 0
M  V30 4158 O 410.264 0.851377 1.7621 0
M  V30 4159 C 410.563 3.54817 -0.428876 0
M  V30 4160 C 410.229 4.12936 -1.81092 0
M  V30 4161 C 408.891 4.28523 -2.1891 0
M  V30 4162 C 411.243 4.44801 -2.71664 0
M  V30 4163 C 408.571 4.73277 -3.46735 0
M  V30 4164 C 410.923 4.90981 -3.98899 0
M  V30 4165 C 409.587 5.04773 -4.36761 0
M  V30 4166 H 408.857 0.730656 -0.123384 0
M  V30 4167 H 411.504 1.64124 -0.986686 0
M  V30 4168 H 409.809 3.90618 0.304167 0
M  V30 4169 H 411.506 4.00933 -0.0733334 0
M  V30 4170 H 408.096 4.01233 -1.50699 0
M  V30 4171 H 412.28 4.32344 -2.43706 0
M  V30 4172 H 407.536 4.82142 -3.75964 0
M  V30 4173 H 411.71 5.14603 -4.69208 0
M  V30 4174 H 409.337 5.39211 -5.35868 0
M  V30 4175 N 410.912 0.523116 1.48665 0
M  V30 4176 C 412.158 -0.0134963 2.02796 0
M  V30 4177 C 412.491 -1.34582 1.40004 0
M  V30 4178 O 411.766 -1.86756 0.543381 0
M  V30 4179 C 412.049 -0.14276 3.59817 0
M  V30 4180 C 411.902 1.21425 4.331 0
M  V30 4181 C 413.221 -0.872856 4.31357 0
M  V30 4182 H 410.34 -0.00343074 0.736992 0
M  V30 4183 H 412.982 0.678816 1.7746 0
M  V30 4184 H 411.132 -0.732401 3.81534 0
M  V30 4185 H 412.804 1.84447 4.2282 0
M  V30 4186 H 411.047 1.79791 3.94788 0
M  V30 4187 H 411.718 1.07687 5.41394 0
M  V30 4188 H 414.194 -0.372555 4.14429 0
M  V30 4189 H 413.07 -0.932185 5.40927 0
M  V30 4190 H 413.331 -1.92161 3.98154 0
M  V30 4191 N 412.39 -1.55475 0.257931 0
M  V30 4192 C 413.801 -1.8511 -0.243135 0
M  V30 4193 C 414.152 -1.17986 -1.5676 0
M  V30 4194 O 413.277 -0.462102 -2.11409 0
M  V30 4195 C 413.872 -3.35826 -0.447929 0
M  V30 4196 C 412.431 -3.65647 -0.893245 0
M  V30 4197 C 411.578 -2.7729 0.0232965 0
M  V30 4198 H 414.529 -1.51261 0.480199 0
M  V30 4199 H 414.55 -3.58002 -1.28898 0
M  V30 4200 H 414.062 -3.84652 0.516196 0
M  V30 4201 H 412.163 -3.22308 -1.86945 0
M  V30 4202 H 412.276 -4.73312 -0.742469 0
M  V30 4203 H 410.64 -2.49942 -0.490021 0
M  V30 4204 H 411.423 -3.28926 0.982994 0
M  V30 4205 N 413.868 0.0150385 -1.57593 0
M  V30 4206 C 415.115 0.703001 -1.89906 0
M  V30 4207 C 415.443 1.74604 -0.856944 0
M  V30 4208 O 414.698 1.95197 0.140287 0
M  V30 4209 C 414.997 1.39686 -3.28972 0
M  V30 4210 C 414.663 0.488457 -4.48246 0
M  V30 4211 C 413.325 0.2383 -4.8061 0
M  V30 4212 C 415.677 -0.137881 -5.21018 0
M  V30 4213 C 413.005 -0.646738 -5.83125 0
M  V30 4214 C 415.357 -1.0107 -6.24474 0
M  V30 4215 C 414.021 -1.27019 -6.55303 0
M  V30 4216 H 413.291 0.257246 -0.694914 0
M  V30 4217 H 415.938 -0.037259 -1.91464 0
M  V30 4218 H 414.243 2.21079 -3.23468 0
M  V30 4219 H 415.94 1.93495 -3.51227 0
M  V30 4220 H 412.53 0.693593 -4.22951 0
M  V30 4221 H 416.714 0.0423953 -4.96282 0
M  V30 4222 H 411.97 -0.855937 -6.05379 0
M  V30 4223 H 416.144 -1.50247 -6.79999 0
M  V30 4224 H 413.771 -1.95769 -7.3456 0
M  V30 4225 N 415.346 1.54954 0.287554 0
M  V30 4226 C 416.278 1.83224 1.37701 0
M  V30 4227 C 417.291 0.715898 1.46215 0
M  V30 4228 O 418.48 0.993565 1.48292 0
M  V30 4229 C 415.58 1.96723 2.75959 0
M  V30 4230 C 414.753 3.27253 2.90215 0
M  V30 4231 C 413.812 3.30998 4.09056 0
M  V30 4232 O 412.838 4.04457 4.00503 0
M  V30 4233 N 414.04 2.57353 5.20336 0
M  V30 4234 H 416.805 2.77254 1.138 0
M  V30 4235 H 414.366 1.54694 0.477652 0
M  V30 4236 H 416.358 1.96615 3.5373 0
M  V30 4237 H 414.928 1.09626 2.92747 0
M  V30 4238 H 414.148 3.40022 1.99447 0
M  V30 4239 H 415.436 4.13365 2.96659 0
M  V30 4240 H 414.834 1.97327 5.30169 0
M  V30 4241 H 413.391 2.62984 5.96391 0
M  V30 4242 N 416.824 -0.551391 1.4764 0
M  V30 4243 C 417.774 -1.65362 1.56969 0
M  V30 4244 C 418.758 -1.55098 0.428189 0
M  V30 4245 O 419.95 -1.63481 0.678441 0
M  V30 4246 C 417.079 -3.04129 1.59249 0
M  V30 4247 C 416.165 -3.19576 2.78804 0
M  V30 4248 N 416.556 -3.05067 4.03445 0
M  V30 4249 C 414.854 -3.50588 2.75688 0
M  V30 4250 C 415.555 -3.2336 4.83543 0
M  V30 4251 N 414.531 -3.4996 4.15968 0
M  V30 4252 H 418.333 -1.52722 2.51104 0
M  V30 4253 H 415.847 -0.756303 1.43714 0
M  V30 4254 H 417.844 -3.83278 1.64024 0
M  V30 4255 H 416.504 -3.17877 0.662148 0
M  V30 4256 H 417.515 -2.82273 4.34215 0
M  V30 4257 H 414.192 -3.70827 1.91817 0
M  V30 4258 H 415.582 -3.17061 5.92387 0
M  V30 4259 N 418.302 -1.35869 -0.798587 0
M  V30 4260 C 419.249 -1.29446 -1.91082 0
M  V30 4261 C 420.219 -0.16487 -1.6528 0
M  V30 4262 O 421.404 -0.349888 -1.87564 0
M  V30 4263 C 418.544 -1.0804 -3.27752 0
M  V30 4264 C 417.657 -2.29993 -3.65687 0
M  V30 4265 C 416.792 -2.01673 -4.91428 0
M  V30 4266 C 415.831 -3.19636 -5.22015 0
M  V30 4267 N 414.968 -2.91039 -6.38937 0
M  V30 4268 H 419.808 -2.24553 -1.95907 0
M  V30 4269 H 417.345 -1.11615 -0.958148 0
M  V30 4270 H 419.303 -0.936586 -4.06551 0
M  V30 4271 H 417.933 -0.16592 -3.22373 0
M  V30 4272 H 416.985 -2.55211 -2.82085 0
M  V30 4273 H 418.297 -3.18052 -3.84245 0
M  V30 4274 H 417.451 -1.84168 -5.78072 0
M  V30 4275 H 416.19 -1.10911 -4.74921 0
M  V30 4276 H 415.195 -3.37709 -4.33858 0
M  V30 4277 H 416.42 -4.11211 -5.40447 0
M  V30 4278 H 414.366 -2.0288 -6.2384 0
M  V30 4279 H 414.283 -3.72635 -6.57784 0
M  V30 4280 H 415.551 -2.77093 -7.28587 0
M  V30 4281 N 419.78 1.02168 -1.19998 0
M  V30 4282 C 421.057 1.72816 -0.916191 0
M  V30 4283 C 421.437 2.03081 0.576325 0
M  V30 4284 O 420.785 1.69122 1.53656 0
M  V30 4285 C 420.995 2.9997 -1.78378 0
M  V30 4286 C 422.343 3.73336 -2.02251 0
M  V30 4287 O 423.367 3.09914 -1.75589 0
M  V30 4288 O 422.226 4.87371 -2.47249 0
M  V30 4289 H 419.32 0.752924 -0.342103 0
M  V30 4290 H 421.866 1.08062 -1.30846 0
M  V30 4291 H 420.638 2.73888 -2.79466 0
M  V30 4292 H 420.261 3.72464 -1.39126 0
M  V30 4293 N 421.258 1.00505 1.21394 0
M  V30 4294 C 422.674 0.717873 1.42544 0
M  V30 4295 C 422.874 -0.706936 1.88692 0
M  V30 4296 O 421.93 -1.47627 2.04847 0
M  V30 4297 C 423.243 1.73377 2.45684 0
M  V30 4298 C 424.791 1.75059 2.59467 0
M  V30 4299 C 425.266 2.75545 3.6584 0
M  V30 4300 N 426.757 2.74213 3.73311 0
M  V30 4301 C 427.492 3.48626 4.55245 0
M  V30 4302 N 426.988 4.32678 5.41075 0
M  V30 4303 N 428.781 3.37276 4.49668 0
M  V30 4304 H 420.932 1.92506 0.897503 0
M  V30 4305 H 423.195 0.830919 0.456375 0
M  V30 4306 H 422.901 2.75395 2.18748 0
M  V30 4307 H 422.775 1.53647 3.44489 0
M  V30 4308 H 425.162 0.737337 2.8574 0
M  V30 4309 H 425.243 1.98861 1.60897 0
M  V30 4310 H 424.887 3.77028 3.40313 0
M  V30 4311 H 424.817 2.49009 4.64007 0
M  V30 4312 H 427.308 2.13234 3.11993 0
M  V30 4313 H 427.621 4.86253 6.00648 0
M  V30 4314 H 425.966 4.3676 5.40616 0
M  V30 4315 H 429.157 2.71043 3.81646 0
M  V30 4316 H 429.33 3.95524 5.13288 0
M  V30 4317 N 422.737 -1.36956 0.779787 0
M  V30 4318 C 423.669 -2.28833 0.129639 0
M  V30 4319 C 424.682 -1.4902 -0.655511 0
M  V30 4320 O 425.871 -1.71578 -0.492279 0
M  V30 4321 C 422.971 -3.2833 -0.839792 0
M  V30 4322 C 422.144 -4.3727 -0.10675 0
M  V30 4323 C 421.203 -5.16789 -0.990717 0
M  V30 4324 O 420.229 -5.67406 -0.451516 0
M  V30 4325 N 421.431 -5.32294 -2.3161 0
M  V30 4326 H 424.196 -2.85268 0.918803 0
M  V30 4327 H 421.757 -1.49019 0.632841 0
M  V30 4328 H 423.749 -3.78413 -1.43477 0
M  V30 4329 H 422.319 -2.72605 -1.52988 0
M  V30 4330 H 421.539 -3.88478 0.669216 0
M  V30 4331 H 422.827 -5.07229 0.399464 0
M  V30 4332 H 422.225 -4.92768 -2.77843 0
M  V30 4333 H 420.782 -5.85656 -2.86095 0
M  V30 4334 N 424.215 -0.530993 -1.48385 0
M  V30 4335 C 425.147 0.268353 -2.27624 0
M  V30 4336 C 426.16 0.903525 -1.35426 0
M  V30 4337 O 427.349 0.781796 -1.60469 0
M  V30 4338 C 424.449 1.39535 -3.08842 0
M  V30 4339 C 423.622 0.861913 -4.28824 0
M  V30 4340 C 422.681 1.87016 -4.91845 0
M  V30 4341 O 421.707 1.4267 -5.5103 0
M  V30 4342 N 422.909 3.20238 -4.84178 0
M  V30 4343 H 425.674 -0.41123 -2.96865 0
M  V30 4344 H 423.235 -0.365387 -1.57723 0
M  V30 4345 H 425.227 2.06803 -3.47871 0
M  V30 4346 H 423.797 1.97859 -2.42014 0
M  V30 4347 H 423.017 0.0132126 -3.94198 0
M  V30 4348 H 424.305 0.484415 -5.06489 0
M  V30 4349 H 423.703 3.58932 -4.37246 0
M  V30 4350 H 422.26 3.83136 -5.27305 0
M  V30 4351 N 425.693 1.55336 -0.266172 0
M  V30 4352 C 426.923 2.03506 0.356239 0
M  V30 4353 C 427.331 1.14426 1.50676 0
M  V30 4354 O 426.674 0.155043 1.83045 0
M  V30 4355 C 426.736 3.47848 0.90785 0
M  V30 4356 C 426.4 4.56861 -0.112888 0
M  V30 4357 C 427.397 5.11528 -0.929264 0
M  V30 4358 C 425.082 5.01704 -0.244546 0
M  V30 4359 C 427.076 6.09549 -1.86357 0
M  V30 4360 C 424.763 5.99553 -1.18234 0
M  V30 4361 C 425.761 6.53356 -1.99036 0
M  V30 4362 O 425.449 7.49293 -2.91231 0
M  V30 4363 H 425.181 0.670444 0.08649 0
M  V30 4364 H 427.735 2.01598 -0.39337 0
M  V30 4365 H 425.965 3.46967 1.70737 0
M  V30 4366 H 427.654 3.79407 1.44239 0
M  V30 4367 H 428.42 4.77701 -0.838237 0
M  V30 4368 H 424.299 4.59477 0.374359 0
M  V30 4369 H 427.843 6.51469 -2.49467 0
M  V30 4370 H 423.74 6.32799 -1.27421 0
M  V30 4371 H 424.508 7.66978 -2.8581 0
M  V30 4372 N 427.171 -0.0066808 1.57599 0
M  V30 4373 C 428.417 -0.68835 1.91398 0
M  V30 4374 C 428.772 -1.7175 0.86716 0
M  V30 4375 O 428.065 -1.91215 -0.121475 0
M  V30 4376 C 428.259 -1.37939 3.29708 0
M  V30 4377 C 428.088 -0.418689 4.47747 0
M  V30 4378 C 426.858 -0.031526 5.0529 0
M  V30 4379 C 429.056 0.312301 5.13351 0
M  V30 4380 N 427.038 0.928088 6.06844 0
M  V30 4381 C 428.409 1.12682 6.09674 0
M  V30 4382 C 430.464 0.376853 4.96472 0
M  V30 4383 C 429.167 2 6.90936 0
M  V30 4384 C 431.193 1.23723 5.78314 0
M  V30 4385 C 430.555 2.03962 6.74225 0
M  V30 4386 H 426.654 -0.225292 0.748844 0
M  V30 4387 H 429.238 0.0520973 1.9463 0
M  V30 4388 H 427.409 -2.09017 3.27363 0
M  V30 4389 H 429.141 -2.01522 3.50957 0
M  V30 4390 H 425.896 -0.398485 4.71921 0
M  V30 4391 H 426.32 1.40307 6.62301 0
M  V30 4392 H 430.962 -0.22921 4.22178 0
M  V30 4393 H 428.68 2.61676 7.64559 0
M  V30 4394 H 432.266 1.291 5.67296 0
M  V30 4395 H 431.146 2.69461 7.36451 0
M  V30 4396 N 428.649 -1.55105 -0.279332 0
M  V30 4397 C 429.597 -1.88333 -1.36505 0
M  V30 4398 C 430.591 -0.759043 -1.51443 0
M  V30 4399 O 431.797 -0.943312 -1.53302 0
M  V30 4400 H 428.172 -0.59766 -0.456406 0
M  V30 4401 H 430.143 -2.79041 -1.05728 0
M  V30 4402 C 428.892 -2.16628 -2.7197 0
M  V30 4403 H 428.215 -3.02624 -2.61264 0
M  V30 4404 H 429.655 -2.43803 -3.46895 0
M  V30 4405 C 428.114 -0.971807 -3.22579 0
M  V30 4406 O 428.644 -0.203228 -4.01186 0
M  V30 4407 N 426.85 -0.771238 -2.80179 0
M  V30 4408 H 426.397 -1.39792 -2.1637 0
M  V30 4409 H 426.355 0.0263667 -3.14389 0
M  V30 4410 N 430.127 0.543554 -1.4793 0
M  V30 4411 C 431.09 1.63156 -1.60975 0
M  V30 4412 C 432.09 1.53346 -0.483899 0
M  V30 4413 O 433.28 1.5726 -0.749339 0
M  V30 4414 C 430.412 3.02743 -1.56716 0
M  V30 4415 H 431.605 1.52934 -2.57975 0
M  V30 4416 H 429.158 0.764557 -1.36324 0
M  V30 4417 H 429.893 3.18484 -0.611418 0
M  V30 4418 H 429.678 3.11272 -2.38438 0
M  V30 4419 H 431.168 3.81871 -1.6901 0
M  V30 4420 N 431.605 1.3629 0.791371 0
M  V30 4421 C 432.535 1.33137 1.91825 0
M  V30 4422 C 433.516 0.203168 1.68882 0
M  V30 4423 O 434.701 0.400509 1.90025 0
M  V30 4424 C 431.831 1.11793 3.28816 0
M  V30 4425 C 430.785 2.21417 3.66277 0
M  V30 4426 C 430.111 1.85218 5.01596 0
M  V30 4427 C 431.411 3.63489 3.75064 0
M  V30 4428 H 433.105 2.2743 1.9472 0
M  V30 4429 H 430.651 1.09479 0.935437 0
M  V30 4430 H 432.604 1.08222 4.07266 0
M  V30 4431 H 431.328 0.139501 3.26302 0
M  V30 4432 H 429.987 2.2411 2.90121 0
M  V30 4433 H 429.635 0.859544 4.95602 0
M  V30 4434 H 429.335 2.58611 5.27631 0
M  V30 4435 H 430.859 1.832 5.82469 0
M  V30 4436 H 432.273 3.63034 4.43711 0
M  V30 4437 H 430.67 4.35771 4.12582 0
M  V30 4438 H 431.74 3.98536 2.76219 0
M  V30 4439 N 433.083 -1.0153 1.20538 0
M  V30 4440 C 434.494 -1.56598 1.01657 0
M  V30 4441 C 434.845 -1.91505 -0.426668 0
M  V30 4442 O 433.97 -1.72375 -1.30827 0
M  V30 4443 C 434.565 -2.84542 1.83905 0
M  V30 4444 C 433.124 -3.36133 1.69386 0
M  V30 4445 C 432.271 -2.09427 1.81757 0
M  V30 4446 H 435.222 -0.838974 1.34711 0
M  V30 4447 H 435.243 -3.56004 1.34319 0
M  V30 4448 H 434.755 -2.59105 2.8894 0
M  V30 4449 H 432.856 -3.66528 0.669933 0
M  V30 4450 H 432.969 -4.08248 2.50739 0
M  V30 4451 H 431.333 -2.21941 1.24957 0
M  V30 4452 H 432.116 -1.86414 2.88279 0
M  V30 4453 N 434.561 -1.01147 -1.20859 0
M  V30 4454 C 435.491 -0.597663 -2.25722 0
M  V30 4455 C 436.472 0.384744 -1.65692 0
M  V30 4456 O 437.657 0.271303 -1.92296 0
M  V30 4457 C 434.787 0.0700149 -3.47229 0
M  V30 4458 C 433.741 -0.832843 -4.19819 0
M  V30 4459 C 433.067 -0.0312202 -5.34691 0
M  V30 4460 C 434.367 -2.1385 -4.76514 0
M  V30 4461 H 436.061 -1.47423 -2.60589 0
M  V30 4462 H 433.607 -0.710301 -1.25263 0
M  V30 4463 H 435.56 0.37103 -4.19763 0
M  V30 4464 H 434.284 0.981259 -3.11511 0
M  V30 4465 H 432.943 -1.11778 -3.49144 0
M  V30 4466 H 432.591 0.881515 -4.95215 0
M  V30 4467 H 432.291 -0.632434 -5.84187 0
M  V30 4468 H 433.815 0.26346 -6.10031 0
M  V30 4469 H 435.229 -1.9002 -5.40893 0
M  V30 4470 H 433.626 -2.69012 -5.36426 0
M  V30 4471 H 434.696 -2.80495 -3.95538 0
M  V30 4472 N 436.039 1.36541 -0.78704 0
M  V30 4473 C 436.949 2.3387 -0.184896 0
M  V30 4474 C 437.965 1.60927 0.661697 0
M  V30 4475 O 439.141 1.92927 0.57804 0
M  V30 4476 C 436.206 3.40122 0.672145 0
M  V30 4477 C 435.267 4.28867 -0.19267 0
M  V30 4478 C 434.5 5.30045 0.623561 0
M  V30 4479 O 434.723 5.39232 1.8597 0
M  V30 4480 O 433.657 6.01895 0.0247068 0
M  V30 4481 H 437.483 2.87126 -0.989562 0
M  V30 4482 H 435.068 1.38969 -0.548455 0
M  V30 4483 H 436.95 4.05093 1.16094 0
M  V30 4484 H 435.625 2.89169 1.45474 0
M  V30 4485 H 434.532 3.66945 -0.728166 0
M  V30 4486 H 435.865 4.83165 -0.938722 0
M  V30 4487 N 437.518 0.538854 1.48102 0
M  V30 4488 C 438.465 -0.219042 2.29758 0
M  V30 4489 C 439.435 -0.925562 1.37922 0
M  V30 4490 O 440.62 -0.924855 1.66886 0
M  V30 4491 C 437.76 -1.25452 3.2149 0
M  V30 4492 C 436.873 -0.555943 4.28408 0
M  V30 4493 C 436.008 -1.57512 5.0731 0
M  V30 4494 C 435.047 -0.860498 6.06021 0
M  V30 4495 N 434.184 -1.82564 6.77949 0
M  V30 4496 H 439.024 0.483449 2.94052 0
M  V30 4497 H 436.561 0.250247 1.44956 0
M  V30 4498 H 438.519 -1.86727 3.7308 0
M  V30 4499 H 437.149 -1.92528 2.591 0
M  V30 4500 H 436.201 0.170938 3.80016 0
M  V30 4501 H 437.513 0.00474616 4.988 0
M  V30 4502 H 436.667 -2.26191 5.62959 0
M  V30 4503 H 435.406 -2.16972 4.36778 0
M  V30 4504 H 434.411 -0.159686 5.49568 0
M  V30 4505 H 435.636 -0.271897 6.78555 0
M  V30 4506 H 433.582 -2.40915 6.10161 0
M  V30 4507 H 433.499 -1.31662 7.44447 0
M  V30 4508 H 434.767 -2.50414 7.38182 0
M  V30 4509 N 438.996 -1.55193 0.274407 0
M  V30 4510 C 439.959 -2.212 -0.600279 0
M  V30 4511 C 440.959 -1.18963 -1.08187 0
M  V30 4512 O 442.149 -1.43873 -0.982158 0
M  V30 4513 C 439.281 -2.87739 -1.82809 0
M  V30 4514 H 440.474 -2.9989 -0.0239682 0
M  V30 4515 H 438.027 -1.5628 0.0250192 0
M  V30 4516 H 438.762 -2.13058 -2.44493 0
M  V30 4517 H 438.547 -3.62658 -1.49069 0
M  V30 4518 H 440.037 -3.38171 -2.45011 0
M  V30 4519 N 440.474 -0.00167713 -1.576 0
M  V30 4520 C 441.722 0.681471 -1.90264 0
M  V30 4521 C 442.043 1.7422 -0.875924 0
M  V30 4522 O 441.313 1.95709 0.0864412 0
M  V30 4523 H 439.893 0.254696 -0.702239 0
M  V30 4524 H 442.555 -0.0429996 -1.94853 0
M  V30 4525 H 441.651 1.15166 -2.90075 0
M  V30 4526 N 441.952 1.55251 0.271103 0
M  V30 4527 C 442.915 1.87484 1.31842 0
M  V30 4528 C 443.915 0.749545 1.42262 0
M  V30 4529 O 445.105 1.01771 1.4138 0
M  V30 4530 C 442.237 2.0818 2.69951 0
M  V30 4531 H 443.43 2.81108 1.0449 0
M  V30 4532 H 440.983 1.47771 0.509258 0
M  V30 4533 H 441.718 1.16944 3.02481 0
M  V30 4534 H 441.503 2.90114 2.63774 0
M  V30 4535 H 442.993 2.34385 3.4562 0
M  V30 4536 N 443.43 -0.535701 1.48216 0
M  V30 4537 C 444.393 -1.623 1.61838 0
M  V30 4538 C 445.393 -1.53087 0.492024 0
M  V30 4539 O 446.583 -1.5686 0.757668 0
M  V30 4540 C 443.715 -3.01907 1.58319 0
M  V30 4541 H 444.908 -1.51564 2.58783 0
M  V30 4542 H 442.461 -0.757317 1.36727 0
M  V30 4543 H 443.196 -3.18155 0.628299 0
M  V30 4544 H 442.981 -3.10003 2.40085 0
M  V30 4545 H 444.471 -3.80969 1.71033 0
M  V30 4546 N 444.908 -1.36708 -0.784132 0
M  V30 4547 C 445.855 -1.31466 -1.89698 0
M  V30 4548 C 446.825 -0.18239 -1.65096 0
M  V30 4549 O 448.01 -0.369762 -1.87183 0
M  V30 4550 C 445.15 -1.1151 -3.26588 0
M  V30 4551 C 444.263 -2.33859 -3.63227 0
M  V30 4552 C 443.398 -2.06873 -4.89262 0
M  V30 4553 C 442.437 -3.25154 -5.18595 0
M  V30 4554 N 441.574 -2.978 -6.35814 0
M  V30 4555 H 446.414 -2.26619 -1.93515 0
M  V30 4556 H 443.951 -1.12625 -0.946256 0
M  V30 4557 H 445.909 -0.979653 -4.05535 0
M  V30 4558 H 444.539 -0.200103 -3.22179 0
M  V30 4559 H 443.591 -2.58188 -2.79362 0
M  V30 4560 H 444.903 -3.22109 -3.8085 0
M  V30 4561 H 444.057 -1.90289 -5.76086 0
M  V30 4562 H 442.796 -1.15942 -4.73718 0
M  V30 4563 H 441.801 -3.42292 -4.30251 0
M  V30 4564 H 443.026 -4.1692 -5.36055 0
M  V30 4565 H 440.972 -2.09485 -6.21653 0
M  V30 4566 H 440.889 -3.7959 -6.53794 0
M  V30 4567 H 442.157 -2.84805 -7.25607 0
M  V30 4568 N 446.386 1.0089 -1.21074 0
M  V30 4569 C 447.635 1.74019 -1.01981 0
M  V30 4570 C 447.948 1.90408 0.447665 0
M  V30 4571 O 449.154 2.60707 0.757906 0
M  V30 4572 C 447.61 3.13026 -1.77603 0
M  V30 4573 C 447.218 3.04623 -3.28495 0
M  V30 4574 C 448.962 3.90312 -1.66904 0
M  V30 4575 C 446.869 4.38685 -3.96623 0
M  V30 4576 H 445.799 0.652422 -0.377971 0
M  V30 4577 H 448.45 1.12755 -1.44771 0
M  V30 4578 H 446.832 3.74878 -1.27604 0
M  V30 4579 H 448.006 2.52032 -3.85767 0
M  V30 4580 H 446.321 2.40827 -3.39693 0
M  V30 4581 H 448.918 4.8951 -2.15138 0
M  V30 4582 H 449.261 4.11558 -0.62658 0
M  V30 4583 H 449.794 3.35104 -2.14359 0
M  V30 4584 H 446.533 4.22641 -5.01054 0
M  V30 4585 H 446.053 4.91252 -3.4414 0
M  V30 4586 H 447.732 5.075 -4.01314 0
M  V30 4587 N 447.864 1.01787 1.20321 0
M  V30 4588 C 449.113 0.703249 1.89043 0
M  V30 4589 C 449.426 -0.770445 1.79787 0
M  V30 4590 O 450.632 -1.19767 2.43656 0
M  V30 4591 C 449.088 1.20749 3.3904 0
M  V30 4592 C 448.696 2.70817 3.56878 0
M  V30 4593 C 450.44 0.968352 4.13308 0
M  V30 4594 C 448.347 3.14716 5.00708 0
M  V30 4595 H 447.277 0.259354 0.707991 0
M  V30 4596 H 449.928 1.23072 1.36108 0
M  V30 4597 H 448.31 0.607989 3.91305 0
M  V30 4598 H 449.484 3.36327 3.14993 0
M  V30 4599 H 447.799 2.92888 2.95983 0
M  V30 4600 H 450.396 1.27173 5.19356 0
M  V30 4601 H 450.739 -0.095149 4.16191 0
M  V30 4602 H 451.272 1.53129 3.67146 0
M  V30 4603 H 448.011 4.20347 5.02979 0
M  V30 4604 H 447.531 2.53927 5.43398 0
M  V30 4605 H 449.21 3.07426 5.69296 0
M  V30 4606 N 449.342 -1.36122 0.79427 0
M  V30 4607 C 450.252 -2.33769 0.197296 0
M  V30 4608 C 451.268 -1.61276 -0.653153 0
M  V30 4609 O 452.444 -1.9323 -0.5678 0
M  V30 4610 C 449.509 -3.40474 -0.654098 0
M  V30 4611 C 448.57 -4.28759 0.215411 0
M  V30 4612 C 447.803 -5.30368 -0.595443 0
M  V30 4613 O 448.026 -5.40211 -1.83107 0
M  V30 4614 O 446.96 -6.019 0.00721351 0
M  V30 4615 H 450.786 -2.86597 1.00478 0
M  V30 4616 H 448.371 -1.38676 0.555818 0
M  V30 4617 H 450.253 -4.05703 -1.13944 0
M  V30 4618 H 448.928 -2.89937 -1.43938 0
M  V30 4619 H 447.835 -3.66554 0.747615 0
M  V30 4620 H 449.168 -4.82661 0.964332 0
M  V30 4621 N 450.82 -0.546701 -1.47814 0
M  V30 4622 C 451.752 0.244196 -2.27895 0
M  V30 4623 C 452.765 0.88911 -1.36377 0
M  V30 4624 O 453.954 0.764733 -1.61289 0
M  V30 4625 C 451.054 1.36252 -3.10304 0
M  V30 4626 C 450.227 0.816382 -4.29714 0
M  V30 4627 C 449.286 1.81789 -4.93801 0
M  V30 4628 O 448.312 1.36818 -5.52512 0
M  V30 4629 N 449.514 3.15085 -4.87547 0
M  V30 4630 H 452.279 -0.442694 -2.96412 0
M  V30 4631 H 449.84 -0.382095 -1.57327 0
M  V30 4632 H 451.832 2.03102 -3.50045 0
M  V30 4633 H 450.402 1.95281 -2.44099 0
M  V30 4634 H 449.622 -0.0285981 -3.9419 0
M  V30 4635 H 450.91 0.430668 -5.06974 0
M  V30 4636 H 450.308 3.54275 -4.41028 0
M  V30 4637 H 448.865 3.77522 -5.31339 0
M  V30 4638 N 452.299 1.55045 -0.282633 0
M  V30 4639 C 453.71 1.85473 0.213655 0
M  V30 4640 C 454.061 1.20465 1.54863 0
M  V30 4641 O 453.186 0.495676 2.10647 0
M  V30 4642 C 453.781 3.36496 0.394445 0
M  V30 4643 C 452.34 3.67022 0.834961 0
M  V30 4644 C 451.487 2.77218 -0.0674081 0
M  V30 4645 H 454.438 1.50478 -0.504202 0
M  V30 4646 H 454.459 3.60007 1.23186 0
M  V30 4647 H 453.971 3.83782 -0.577326 0
M  V30 4648 H 452.072 3.25241 1.81794 0
M  V30 4649 H 452.185 4.74433 0.667075 0
M  V30 4650 H 450.549 2.5069 0.450196 0
M  V30 4651 H 451.332 3.2732 -1.0352 0
M  V30 4652 N 453.777 0.010035 1.57597 0
M  V30 4653 C 454.709 -1.00649 2.05918 0
M  V30 4654 C 455.722 -1.30077 0.978964 0
M  V30 4655 O 456.911 -1.26878 1.25556 0
M  V30 4656 C 454.011 -2.33876 2.45265 0
M  V30 4657 C 453.184 -2.23242 3.7614 0
M  V30 4658 C 452.243 -3.39242 4.02245 0
M  V30 4659 O 451.269 -3.1698 4.72771 0
M  V30 4660 N 452.471 -4.6242 3.50924 0
M  V30 4661 H 455.236 -0.594333 2.93748 0
M  V30 4662 H 452.797 -0.17714 1.60928 0
M  V30 4663 H 454.789 -3.1027 2.59836 0
M  V30 4664 H 453.359 -2.66799 1.62902 0
M  V30 4665 H 452.579 -1.31696 3.71551 0
M  V30 4666 H 453.867 -2.13321 4.61922 0
M  V30 4667 H 453.265 -4.83404 2.93832 0
M  V30 4668 H 451.822 -5.36046 3.70807 0
M  V30 4669 N 455.255 -1.55392 -0.262866 0
M  V30 4670 C 456.185 -1.91978 -1.32917 0
M  V30 4671 C 457.166 -0.7828 -1.51017 0
M  V30 4672 O 458.351 -1.04178 -1.63892 0
M  V30 4673 C 455.481 -2.20055 -2.68687 0
M  V30 4674 C 454.435 -3.35854 -2.65304 0
M  V30 4675 C 453.761 -3.49435 -4.04721 0
M  V30 4676 C 455.061 -4.71977 -2.23685 0
M  V30 4677 H 456.755 -2.81292 -1.02544 0
M  V30 4678 H 454.301 -1.3534 -0.491846 0
M  V30 4679 H 456.254 -2.44237 -3.43404 0
M  V30 4680 H 454.978 -1.27551 -3.00663 0
M  V30 4681 H 453.637 -3.11655 -1.93045 0
M  V30 4682 H 453.285 -2.54379 -4.33936 0
M  V30 4683 H 452.985 -4.27297 -4.0335 0
M  V30 4684 H 454.509 -3.7592 -4.81161 0
M  V30 4685 H 455.923 -4.95637 -2.88127 0
M  V30 4686 H 454.32 -5.52828 -2.33456 0
M  V30 4687 H 455.39 -4.70115 -1.18827 0
M  V30 4688 N 456.733 0.527833 -1.48498 0
M  V30 4689 C 457.958 1.313 -1.60546 0
M  V30 4690 C 458.383 1.86199 -0.26672 0
M  V30 4691 O 457.741 1.64513 0.761918 0
M  V30 4692 C 457.789 2.43818 -2.65678 0
M  V30 4693 O 456.893 3.46916 -2.22987 0
M  V30 4694 H 456.234 0.388784 -0.538277 0
M  V30 4695 H 458.764 0.634896 -1.945 0
M  V30 4696 H 458.774 2.89973 -2.87018 0
M  V30 4697 H 457.449 2.03222 -3.62869 0
M  V30 4698 H 456.026 3.06864 -2.11869 0
M  V30 4699 N 458.211 1.37122 0.776871 0
M  V30 4700 C 459.457 1.32243 1.53752 0
M  V30 4701 C 459.79 -0.0944745 1.9397 0
M  V30 4702 O 459.065 -1.05068 1.6368 0
M  V30 4703 C 459.348 2.25681 2.80607 0
M  V30 4704 C 459.201 3.76127 2.46676 0
M  V30 4705 C 460.52 2.17657 3.82509 0
M  V30 4706 H 457.639 0.481704 0.557791 0
M  V30 4707 H 460.281 1.6778 0.891612 0
M  V30 4708 H 458.431 1.95505 3.35723 0
M  V30 4709 H 460.103 4.16877 1.97513 0
M  V30 4710 H 458.346 3.94946 1.79443 0
M  V30 4711 H 459.017 4.36933 3.37333 0
M  V30 4712 H 461.493 2.44245 3.36873 0
M  V30 4713 H 460.369 2.85185 4.69 0
M  V30 4714 H 460.63 1.16785 4.26396 0
M  V30 4715 N 459.689 -1.00246 1.21608 0
M  V30 4716 C 460.966 -1.71336 0.943568 0
M  V30 4717 C 461.346 -2.03972 -0.543943 0
M  V30 4718 O 460.694 -1.71545 -1.50946 0
M  V30 4719 C 460.904 -2.97094 1.83128 0
M  V30 4720 C 462.252 -3.70071 2.08165 0
M  V30 4721 O 463.276 -3.07081 1.80498 0
M  V30 4722 O 462.135 -4.83376 2.54971 0
M  V30 4723 H 459.229 -0.747386 0.354039 0
M  V30 4724 H 461.775 -1.05967 1.32549 0
M  V30 4725 H 460.547 -2.69407 2.83788 0
M  V30 4726 H 460.17 -3.70204 1.45034 0
M  V30 4727 N 461.167 -1.02423 -1.1978 0
M  V30 4728 C 462.13 -0.605703 -2.21052 0
M  V30 4729 C 463.13 0.328209 -1.57415 0
M  V30 4730 O 464.32 0.115853 -1.73814 0
M  V30 4731 C 461.452 0.114366 -3.40708 0
M  V30 4732 H 462.645 -1.5017 -2.59594 0
M  V30 4733 H 460.198 -0.814888 -1.33376 0
M  V30 4734 H 460.933 1.02492 -3.07678 0
M  V30 4735 H 460.718 -0.556641 -3.88129 0
M  V30 4736 H 462.208 0.394272 -4.15735 0
M  V30 4737 N 462.645 1.35699 -0.801477 0
M  V30 4738 C 463.891 1.99208 -0.380022 0
M  V30 4739 C 464.224 1.63445 1.04878 0
M  V30 4740 O 463.499 0.895223 1.72673 0
M  V30 4741 C 463.782 3.55755 -0.557708 0
M  V30 4742 C 463.635 4.01332 -2.03107 0
M  V30 4743 C 464.954 4.40096 0.0197968 0
M  V30 4744 H 462.073 0.723667 -0.139552 0
M  V30 4745 H 464.715 1.60928 -1.01006 0
M  V30 4746 H 462.865 3.88494 -0.0213741 0
M  V30 4747 H 464.537 3.79026 -2.62939 0
M  V30 4748 H 462.78 3.52429 -2.52936 0
M  V30 4749 H 463.451 5.10234 -2.1063 0
M  V30 4750 H 465.927 4.13786 -0.438179 0
M  V30 4751 H 464.803 5.48735 -0.134477 0
M  V30 4752 H 465.064 4.2786 1.11303 0
M  V30 4753 N 464.123 0.554532 1.47522 0
M  V30 4754 C 465.086 -0.184174 2.28459 0
M  V30 4755 C 466.086 -0.845195 1.36796 0
M  V30 4756 O 467.276 -0.701467 1.59452 0
M  V30 4757 C 464.408 -1.26903 3.16399 0
M  V30 4758 H 465.601 0.526751 2.95238 0
M  V30 4759 H 463.154 0.311375 1.53167 0
M  V30 4760 H 463.889 -2.01244 2.54306 0
M  V30 4761 H 463.674 -0.799883 3.83854 0
M  V30 4762 H 465.164 -1.78794 3.77389 0
M  V30 4763 N 465.601 -1.54893 0.290851 0
M  V30 4764 C 466.549 -2.24579 -0.605576 0
M  V30 4765 C 467.543 -1.24824 -1.14522 0
M  V30 4766 O 468.749 -1.42706 -1.09704 0
M  V30 4767 H 465.124 -0.720946 -0.213872 0
M  V30 4768 H 467.095 -2.984 0.0048173 0
M  V30 4769 C 465.844 -2.99224 -1.77088 0
M  V30 4770 H 465.167 -3.75782 -1.36484 0
M  V30 4771 H 466.607 -3.51281 -2.3744 0
M  V30 4772 C 465.066 -2.05602 -2.66888 0
M  V30 4773 O 465.596 -1.61745 -3.67698 0
M  V30 4774 N 463.802 -1.71771 -2.34399 0
M  V30 4775 H 463.349 -2.07633 -1.52468 0
M  V30 4776 H 463.307 -1.09403 -2.94751 0
M  V30 4777 N 467.08 -0.0183926 -1.57589 0
M  V30 4778 C 468.308 0.673046 -1.95647 0
M  V30 4779 C 468.723 1.66275 -0.894312 0
M  V30 4780 O 468.08 1.82072 0.124975 0
M  V30 4781 C 468.131 1.38884 -3.33756 0
M  V30 4782 O 467.852 0.438806 -4.35897 0
M  V30 4783 C 469.353 2.1731 -3.86383 0
M  V30 4784 H 466.573 0.186292 -0.644621 0
M  V30 4785 H 469.117 -0.0749748 -2.04363 0
M  V30 4786 H 467.272 2.08835 -3.26293 0
M  V30 4787 H 467.686 0.945869 -5.15901 0
M  V30 4788 H 469.16 2.62863 -4.85394 0
M  V30 4789 H 469.637 3.00764 -3.20059 0
M  V30 4790 H 470.243 1.52339 -3.97081 0
M  V30 4791 N 468.558 1.5553 0.254621 0
M  V30 4792 C 469.488 1.9268 1.31897 0
M  V30 4793 C 470.469 0.790797 1.506 0
M  V30 4794 O 471.654 1.05045 1.63337 0
M  V30 4795 C 468.784 2.21477 2.67517 0
M  V30 4796 C 467.738 3.37256 2.63519 0
M  V30 4797 C 467.064 3.51576 4.02862 0
M  V30 4798 C 468.364 4.73157 2.21179 0
M  V30 4799 H 470.058 2.81832 1.01051 0
M  V30 4800 H 467.604 1.35599 0.484662 0
M  V30 4801 H 469.557 2.46055 3.42104 0
M  V30 4802 H 468.281 1.29144 2.99982 0
M  V30 4803 H 466.94 3.12675 1.9139 0
M  V30 4804 H 466.588 2.56676 4.32581 0
M  V30 4805 H 466.288 4.2943 4.01078 0
M  V30 4806 H 467.812 3.78467 4.79161 0
M  V30 4807 H 469.226 4.97158 2.85494 0
M  V30 4808 H 467.623 5.54058 2.30521 0
M  V30 4809 H 468.693 4.70739 1.16332 0
M  V30 4810 N 470.036 -0.519951 1.48776 0
M  V30 4811 C 470.999 -1.60574 1.6355 0
M  V30 4812 C 471.999 -1.52557 0.508234 0
M  V30 4813 O 473.189 -1.56047 0.774262 0
M  V30 4814 C 470.321 -3.00211 1.61512 0
M  V30 4815 H 471.514 -1.4881 2.60376 0
M  V30 4816 H 469.067 -0.742772 1.37523 0
M  V30 4817 H 469.802 -3.17471 0.662009 0
M  V30 4818 H 469.587 -3.07439 2.43359 0
M  V30 4819 H 471.077 -3.79134 1.75064 0
M  V30 4820 N 471.514 -1.37532 -0.769588 0
M  V30 4821 C 472.762 -1.32597 -1.5252 0
M  V30 4822 C 473.083 0.0884294 -1.94799 0
M  V30 4823 O 472.353 1.03289 -1.66458 0
M  V30 4824 H 470.933 -0.487846 -0.565699 0
M  V30 4825 H 473.595 -1.72044 -0.915806 0
M  V30 4826 H 472.691 -1.96643 -2.42359 0
M  V30 4827 N 472.992 0.995999 -1.22138 0
M  V30 4828 C 474.238 1.7386 -1.05567 0
M  V30 4829 C 474.593 1.8808 0.405418 0
M  V30 4830 O 473.886 1.41062 1.29661 0
M  V30 4831 C 474.08 3.14553 -1.6968 0
M  V30 4832 C 473.909 3.14053 -3.21871 0
M  V30 4833 C 472.679 3.20121 -3.90961 0
M  V30 4834 C 474.877 2.98451 -4.18845 0
M  V30 4835 N 472.859 3.09342 -5.30265 0
M  V30 4836 C 474.23 2.95667 -5.4496 0
M  V30 4837 C 476.285 2.8282 -4.09777 0
M  V30 4838 C 474.988 2.78852 -6.63049 0
M  V30 4839 C 477.014 2.67364 -5.27513 0
M  V30 4840 C 476.376 2.65264 -6.52544 0
M  V30 4841 H 472.475 0.645989 -0.440706 0
M  V30 4842 H 475.059 1.1831 -1.54631 0
M  V30 4843 H 473.23 3.68353 -1.2317 0
M  V30 4844 H 474.962 3.77358 -1.4623 0
M  V30 4845 H 471.717 3.27679 -3.4194 0
M  V30 4846 H 472.141 3.0727 -6.03253 0
M  V30 4847 H 476.783 2.83243 -3.139 0
M  V30 4848 H 474.501 2.77175 -7.59078 0
M  V30 4849 H 478.087 2.56256 -5.22326 0
M  V30 4850 H 476.967 2.5345 -7.42114 0
M  V30 4851 N 474.47 1.03057 1.19235 0
M  V30 4852 C 475.695 0.74757 1.93458 0
M  V30 4853 C 476.12 -0.687648 1.7508 0
M  V30 4854 O 475.478 -1.47499 1.05422 0
M  V30 4855 C 475.526 1.10604 3.43219 0
M  V30 4856 O 474.63 0.225671 4.11782 0
M  V30 4857 H 473.971 0.276047 0.603899 0
M  V30 4858 H 476.501 1.3777 1.51263 0
M  V30 4859 H 476.511 1.06366 3.93891 0
M  V30 4860 H 475.186 2.15165 3.55917 0
M  V30 4861 H 473.763 0.326795 3.71465 0
M  V30 4862 N 475.948 -1.35272 0.808662 0
M  V30 4863 C 477.364 -1.51806 0.492653 0
M  V30 4864 C 477.564 -1.7574 -0.985778 0
M  V30 4865 O 476.62 -1.80003 -1.77074 0
M  V30 4866 C 477.933 -2.69202 1.33981 0
M  V30 4867 C 479.481 -2.8308 1.33547 0
M  V30 4868 C 479.956 -4.03502 2.16679 0
M  V30 4869 N 481.447 -4.10684 2.14227 0
M  V30 4870 C 482.182 -5.02984 2.75308 0
M  V30 4871 N 481.678 -6.00603 3.45323 0
M  V30 4872 N 483.471 -4.95746 2.64938 0
M  V30 4873 H 475.622 -1.17993 1.76611 0
M  V30 4874 H 477.885 -0.577476 0.751814 0
M  V30 4875 H 477.591 -2.581 2.38909 0
M  V30 4876 H 477.465 -3.63854 0.994491 0
M  V30 4877 H 479.852 -2.93631 0.294036 0
M  V30 4878 H 479.933 -1.89278 1.72068 0
M  V30 4879 H 479.577 -3.93711 3.20864 0
M  V30 4880 H 479.507 -4.96489 1.75517 0
M  V30 4881 H 481.998 -3.40802 1.63285 0
M  V30 4882 H 482.311 -6.67633 3.89212 0
M  V30 4883 H 480.656 -6.0077 3.49428 0
M  V30 4884 H 483.847 -4.18439 2.09825 0
M  V30 4885 H 484.02 -5.67487 3.12829 0
M  V30 4886 N 477.426 -0.562348 -1.47226 0
M  V30 4887 C 478.336 0.185466 -2.33866 0
M  V30 4888 C 479.352 0.906713 -1.48508 0
M  V30 4889 O 480.528 0.874458 -1.81425 0
M  V30 4890 C 477.593 1.19904 -3.25306 0
M  V30 4891 C 476.654 0.484669 -4.26555 0
M  V30 4892 C 475.887 1.44996 -5.13626 0
M  V30 4893 O 476.11 2.68515 -5.03245 0
M  V30 4894 O 475.044 0.971642 -5.94006 0
M  V30 4895 H 478.87 -0.525361 -2.99121 0
M  V30 4896 H 476.455 -0.322916 -1.45868 0
M  V30 4897 H 478.337 1.78399 -3.81774 0
M  V30 4898 H 477.012 1.8917 -2.62672 0
M  V30 4899 H 475.919 -0.141605 -3.73832 0
M  V30 4900 H 477.252 -0.166634 -4.91918 0
M  V30 4901 N 478.904 1.54736 -0.299062 0
M  V30 4902 C 480.132 2.04512 0.313447 0
M  V30 4903 C 480.547 1.17643 1.47667 0
M  V30 4904 O 479.904 0.20164 1.81383 0
M  V30 4905 C 479.955 3.53171 0.771542 0
M  V30 4906 O 479.676 4.36736 -0.345379 0
M  V30 4907 C 481.177 4.18936 1.4494 0
M  V30 4908 H 478.397 0.667507 0.0683784 0
M  V30 4909 H 480.941 1.99752 -0.438129 0
M  V30 4910 H 479.096 3.58298 1.47314 0
M  V30 4911 H 479.51 5.24499 0.0109219 0
M  V30 4912 H 480.984 5.24482 1.72111 0
M  V30 4913 H 481.461 3.68554 2.38883 0
M  V30 4914 H 482.067 4.17879 0.791028 0
M  V30 4915 N 480.382 0.0267497 1.57577 0
M  V30 4916 C 481.312 -0.954308 2.13108 0
M  V30 4917 C 482.293 -1.34088 1.04663 0
M  V30 4918 O 483.478 -1.41992 1.32484 0
M  V30 4919 C 480.608 -2.23744 2.65624 0
M  V30 4920 C 479.562 -1.99168 3.78835 0
M  V30 4921 C 478.888 -3.33726 4.17769 0
M  V30 4922 C 480.188 -1.33277 5.0501 0
M  V30 4923 H 481.882 -0.491848 2.95332 0
M  V30 4924 H 479.428 -0.23514 1.42067 0
M  V30 4925 H 481.381 -2.92754 3.03106 0
M  V30 4926 H 480.105 -2.72151 1.80558 0
M  V30 4927 H 478.764 -1.32577 3.41788 0
M  V30 4928 H 478.412 -3.79888 3.29688 0
M  V30 4929 H 478.112 -3.18089 4.94058 0
M  V30 4930 H 479.636 -4.04008 4.57832 0
M  V30 4931 H 481.05 -1.92283 5.40093 0
M  V30 4932 H 479.447 -1.28045 5.8628 0
M  V30 4933 H 480.517 -0.305411 4.83937 0
M  V30 4934 N 481.861 -1.55662 -0.24637 0
M  V30 4935 C 482.791 -1.93377 -1.30873 0
M  V30 4936 C 483.772 -0.798773 -1.50179 0
M  V30 4937 O 484.957 -1.0591 -1.62778 0
M  V30 4938 C 482.087 -2.22893 -2.66338 0
M  V30 4939 C 481.041 -3.38649 -2.61727 0
M  V30 4940 C 480.367 -3.53708 -4.00992 0
M  V30 4941 C 481.667 -4.74323 -2.18666 0
M  V30 4942 H 483.361 -2.82363 -0.995552 0
M  V30 4943 H 480.907 -1.35854 -0.477464 0
M  V30 4944 H 482.86 -2.47866 -3.40794 0
M  V30 4945 H 481.584 -1.30733 -2.99293 0
M  V30 4946 H 480.243 -3.13685 -1.89729 0
M  V30 4947 H 479.891 -2.58967 -4.31214 0
M  V30 4948 H 479.591 -4.31551 -3.98795 0
M  V30 4949 H 481.115 -3.81003 -4.77147 0
M  V30 4950 H 482.529 -4.98665 -2.82854 0
M  V30 4951 H 480.926 -5.55273 -2.27579 0
M  V30 4952 H 481.996 -4.71349 -1.13834 0
M  V30 4953 N 483.339 0.512053 -1.4905 0
M  V30 4954 C 484.567 1.29116 -1.61669 0
M  V30 4955 C 484.982 1.86655 -0.283787 0
M  V30 4956 O 484.339 1.67293 0.729331 0
M  V30 4957 C 484.39 2.4293 -2.67707 0
M  V30 4958 O 484.111 1.87758 -3.95826 0
M  V30 4959 C 485.612 3.34476 -2.90931 0
M  V30 4960 H 482.832 0.392009 -0.544583 0
M  V30 4961 H 485.376 0.615881 -1.95006 0
M  V30 4962 H 483.531 3.06308 -2.37179 0
M  V30 4963 H 483.945 2.62393 -4.54148 0
M  V30 4964 H 485.419 4.10642 -3.68886 0
M  V30 4965 H 485.896 3.90801 -2.00427 0
M  V30 4966 H 486.502 2.76874 -3.22832 0
M  V30 4967 N 484.817 1.37938 0.762283 0
M  V30 4968 C 485.75 1.2884 1.88349 0
M  V30 4969 C 486.728 0.167084 1.61739 0
M  V30 4970 O 487.912 0.34292 1.85355 0
M  V30 4971 C 485.039 0.994257 3.23778 0
M  V30 4972 C 484.085 2.13376 3.69287 0
M  V30 4973 S 484.918 3.75439 3.81845 0
M  V30 4974 C 486.074 3.48195 5.20107 0
M  V30 4975 H 486.307 2.23736 1.95779 0
M  V30 4976 H 483.84 1.23672 0.924368 0
M  V30 4977 H 485.798 0.83138 4.01993 0
M  V30 4978 H 484.459 0.0626251 3.14038 0
M  V30 4979 H 483.652 1.88319 4.67495 0
M  V30 4980 H 483.254 2.25726 2.98201 0
M  V30 4981 H 485.546 3.0377 6.05583 0
M  V30 4982 H 486.489 4.45765 5.50181 0
M  V30 4983 H 486.897 2.82905 4.88493 0
M  V30 4984 N 486.295 -0.989507 1.22664 0
M  V30 4985 C 487.258 -2.06183 1.00106 0
M  V30 4986 C 488.258 -1.60765 -0.0337726 0
M  V30 4987 O 489.448 -1.72989 0.205072 0
M  V30 4988 C 486.58 -3.37021 0.51279 0
M  V30 4989 H 487.773 -2.27629 1.95256 0
M  V30 4990 H 485.326 -1.16158 1.0458 0
M  V30 4991 H 486.061 -3.21261 -0.442917 0
M  V30 4992 H 485.846 -3.71323 1.25942 0
M  V30 4993 H 487.336 -4.1591 0.375315 0
M  V30 4994 N 487.773 -1.03688 -1.18687 0
M  V30 4995 C 488.683 -0.634908 -2.25845 0
M  V30 4996 C 489.699 0.337065 -1.70704 0
M  V30 4997 O 490.875 0.192943 -2.00474 0
M  V30 4998 C 487.94 -0.000180054 -3.467 0
M  V30 4999 C 487.001 -1.02067 -4.1699 0
M  V30 5000 C 486.234 -0.41614 -5.32075 0
M  V30 5001 O 486.457 0.778712 -5.65059 0
M  V30 5002 O 485.391 -1.14296 -5.90948 0
M  V30 5003 H 489.217 -1.52757 -2.62486 0
M  V30 5004 H 486.802 -0.807533 -1.25695 0
M  V30 5005 H 488.684 0.353342 -4.19916 0
M  V30 5006 H 487.359 0.866367 -3.11891 0
M  V30 5007 H 486.266 -1.42592 -3.45859 0
M  V30 5008 H 487.599 -1.85786 -4.5579 0
M  V30 5009 N 489.251 1.34841 -0.815825 0
M  V30 5010 C 490.667 1.51543 -0.500697 0
M  V30 5011 C 490.867 1.76261 0.976444 0
M  V30 5012 O 489.923 1.8094 1.76117 0
M  V30 5013 C 491.236 2.68487 -1.35407 0
M  V30 5014 C 492.784 2.82368 -1.35046 0
M  V30 5015 C 493.259 4.02347 -2.18816 0
M  V30 5016 N 494.75 4.09542 -2.16402 0
M  V30 5017 C 495.485 5.01517 -2.77971 0
M  V30 5018 N 494.981 5.98763 -3.48503 0
M  V30 5019 N 496.774 4.94334 -2.67563 0
M  V30 5020 H 488.925 1.17055 -1.77234 0
M  V30 5021 H 491.188 0.573481 -0.754866 0
M  V30 5022 H 490.894 2.56829 -2.40274 0
M  V30 5023 H 490.768 3.63321 -1.01377 0
M  V30 5024 H 493.155 2.93471 -0.309604 0
M  V30 5025 H 493.236 1.88363 -1.73069 0
M  V30 5026 H 492.88 3.92004 -3.22948 0
M  V30 5027 H 492.81 4.95551 -1.78148 0
M  V30 5028 H 495.301 3.39932 -1.65091 0
M  V30 5029 H 495.614 6.6556 -3.92747 0
M  V30 5030 H 493.959 5.98909 -3.52609 0
M  V30 5031 H 497.15 4.1732 -2.12041 0
M  V30 5032 H 497.323 5.6582 -3.15834 0
M  V30 5033 N 490.729 0.570148 1.46925 0
M  V30 5034 C 491.692 -0.159933 2.28641 0
M  V30 5035 C 492.692 -0.830638 1.37685 0
M  V30 5036 O 493.882 -0.684516 1.60187 0
M  V30 5037 C 491.014 -1.2354 3.17727 0
M  V30 5038 H 492.207 0.558035 2.94662 0
M  V30 5039 H 489.76 0.327603 1.52828 0
M  V30 5040 H 490.495 -1.98535 2.56426 0
M  V30 5041 H 490.28 -0.759125 3.84681 0
M  V30 5042 H 491.77 -1.74782 3.79264 0
M  V30 5043 N 492.207 -1.54576 0.307264 0
M  V30 5044 C 493.623 -1.59534 -0.0459251 0
M  V30 5045 C 493.823 -1.32414 -1.51884 0
M  V30 5046 O 492.879 -1.1006 -2.27251 0
M  V30 5047 C 494.192 -2.98566 0.357649 0
M  V30 5048 C 495.74 -3.11491 0.306937 0
M  V30 5049 C 496.215 -4.52842 0.685427 0
M  V30 5050 N 497.706 -4.58782 0.638203 0
M  V30 5051 C 498.441 -5.66238 0.903458 0
M  V30 5052 N 497.937 -6.81703 1.23501 0
M  V30 5053 N 499.73 -5.55937 0.830102 0
M  V30 5054 H 491.881 -1.70464 1.26712 0
M  V30 5055 H 494.144 -0.79647 0.514139 0
M  V30 5056 H 493.85 -3.23356 1.38325 0
M  V30 5057 H 493.724 -3.76117 -0.285565 0
M  V30 5058 H 496.111 -2.86446 -0.709424 0
M  V30 5059 H 496.192 -2.36081 0.984861 0
M  V30 5060 H 495.836 -4.78618 1.69963 0
M  V30 5061 H 495.766 -5.26598 -0.0146346 0
M  V30 5062 H 498.257 -3.75849 0.393138 0
M  V30 5063 H 498.57 -7.59582 1.42322 0
M  V30 5064 H 496.915 -6.8324 1.27311 0
M  V30 5065 H 500.106 -4.64608 0.570693 0
M  V30 5066 H 500.279 -6.39597 1.04019 0
M  V30 5067 N 493.685 -0.035106 -1.57561 0
M  V30 5068 C 494.648 0.929819 -2.09492 0
M  V30 5069 C 495.648 1.25026 -1.01119 0
M  V30 5070 O 496.838 1.18961 -1.27255 0
M  V30 5071 C 493.97 2.24457 -2.56577 0
M  V30 5072 H 495.163 0.479935 -2.96035 0
M  V30 5073 H 492.716 0.213033 -1.54841 0
M  V30 5074 H 493.451 2.74061 -1.73382 0
M  V30 5075 H 493.236 2.02508 -3.35757 0
M  V30 5076 H 494.726 2.93607 -2.96959 0
M  V30 5077 N 495.163 1.55791 0.238111 0
M  V30 5078 C 496.126 1.90239 1.27835 0
M  V30 5079 C 497.126 0.779552 1.4064 0
M  V30 5080 O 498.316 1.04747 1.3919 0
M  V30 5081 C 495.448 2.13859 2.65475 0
M  V30 5082 H 496.641 2.83262 0.985034 0
M  V30 5083 H 494.194 1.48818 0.477799 0
M  V30 5084 H 494.929 1.23334 2.99932 0
M  V30 5085 H 494.714 2.95643 2.57561 0
M  V30 5086 H 496.204 2.41664 3.40571 0
M  V30 5087 N 496.642 -0.504142 1.49319 0
M  V30 5088 C 497.867 -1.28729 1.62615 0
M  V30 5089 C 498.292 -1.85752 0.296309 0
M  V30 5090 O 497.65 -1.65704 -0.735649 0
M  V30 5091 C 497.698 -2.39561 2.69524 0
M  V30 5092 O 496.802 -3.43324 2.28478 0
M  V30 5093 H 496.143 -0.380172 0.544395 0
M  V30 5094 H 498.673 -0.603872 1.95485 0
M  V30 5095 H 498.683 -2.8537 2.91595 0
M  V30 5096 H 497.358 -1.97423 3.66056 0
M  V30 5097 H 495.935 -3.03455 2.16725 0
M  V30 5098 N 498.12 -1.38341 -0.754957 0
M  V30 5099 C 499.369 -1.33791 -1.5094 0
M  V30 5100 C 499.682 0.0699267 -1.95475 0
M  V30 5101 O 500.888 0.237956 -2.70455 0
M  V30 5102 C 499.344 -2.34934 -2.72643 0
M  V30 5103 C 498.952 -3.81332 -2.35138 0
M  V30 5104 C 500.696 -2.39425 -3.50536 0
M  V30 5105 C 498.603 -4.74164 -3.53444 0
M  V30 5106 H 497.533 -0.497314 -0.566741 0
M  V30 5107 H 500.184 -1.63888 -0.825403 0
M  V30 5108 H 498.566 -1.97878 -3.43017 0
M  V30 5109 H 499.74 -4.27319 -1.7244 0
M  V30 5110 H 498.055 -3.79946 -1.70382 0
M  V30 5111 H 500.652 -3.0598 -4.38498 0
M  V30 5112 H 500.995 -1.41278 -3.91594 0
M  V30 5113 H 501.528 -2.75274 -2.87174 0
M  V30 5114 H 498.267 -5.73501 -3.17453 0
M  V30 5115 H 497.787 -4.3287 -4.15191 0
M  V30 5116 H 499.466 -4.92111 -4.20043 0
M  V30 5117 N 499.598 0.982988 -1.23187 0
M  V30 5118 C 501.009 1.53847 -1.05773 0
M  V30 5119 C 501.36 1.92568 0.375744 0
M  V30 5120 O 500.485 1.75783 1.26211 0
M  V30 5121 C 501.08 2.79567 -1.91384 0
M  V30 5122 C 499.639 3.31524 -1.78238 0
M  V30 5123 C 498.786 2.04534 -1.87246 0
M  V30 5124 H 501.737 0.802962 -1.36888 0
M  V30 5125 H 501.758 3.52317 -1.43711 0
M  V30 5126 H 501.27 2.51353 -2.95708 0
M  V30 5127 H 499.371 3.64623 -0.766875 0
M  V30 5128 H 499.484 4.01457 -2.61475 0
M  V30 5129 H 497.848 2.1855 -1.30797 0
M  V30 5130 H 498.631 1.78706 -2.9312 0
M  V30 5131 N 501.076 1.04316 1.18135 0
M  V30 5132 C 502.353 0.662166 1.84051 0
M  V30 5133 C 502.733 -0.858169 1.9287 0
M  V30 5134 O 502.081 -1.76062 1.45652 0
M  V30 5135 C 502.291 1.3409 3.22212 0
M  V30 5136 C 503.639 1.4733 3.9822 0
M  V30 5137 O 504.663 1.29921 3.31661 0
M  V30 5138 O 503.522 1.75722 5.17479 0
M  V30 5139 H 500.616 0.232005 0.79379 0
M  V30 5140 H 503.162 1.1422 1.25506 0
M  V30 5141 H 501.934 2.37853 3.10711 0
M  V30 5142 H 501.557 0.849649 3.88416 0
M  V30 5143 N 502.554 -1.34406 0.822964 0
M  V30 5144 C 503.517 -2.2783 0.250271 0
M  V30 5145 C 504.517 -1.50288 -0.571854 0
M  V30 5146 O 505.707 -1.69825 -0.387952 0
M  V30 5147 C 502.839 -3.34663 -0.649137 0
M  V30 5148 H 504.032 -2.79992 1.07444 0
M  V30 5149 H 501.585 -1.44539 0.594829 0
M  V30 5150 H 502.32 -2.87714 -1.49637 0
M  V30 5151 H 502.105 -3.92052 -0.0611199 0
M  V30 5152 H 503.595 -4.04349 -1.04363 0
M  V30 5153 N 504.032 -0.577932 -1.46621 0
M  V30 5154 C 505.26 -0.0671642 -2.06791 0
M  V30 5155 C 505.675 1.23571 -1.42743 0
M  V30 5156 O 505.032 1.74602 -0.531062 0
M  V30 5157 C 505.083 0.110357 -3.61332 0
M  V30 5158 O 504.804 -1.14095 -4.22982 0
M  V30 5159 C 506.305 0.656025 -4.38419 0
M  V30 5160 H 503.525 -0.0552732 -0.66872 0
M  V30 5161 H 506.069 -0.797242 -1.8832 0
M  V30 5162 H 504.224 0.790637 -3.79246 0
M  V30 5163 H 504.638 -0.951742 -5.15793 0
M  V30 5164 H 506.112 0.729438 -5.47159 0
M  V30 5165 H 506.589 1.67195 -4.06131 0
M  V30 5166 H 507.195 0.0107692 -4.25299 0
M  V30 5167 N 505.51 1.54411 -0.315457 0
M  V30 5168 C 506.42 2.27737 0.56329 0
M  V30 5169 C 507.436 1.31787 1.13614 0
M  V30 5170 O 508.612 1.64791 1.15784 0
M  V30 5171 C 505.677 3.01478 1.71207 0
M  V30 5172 C 504.738 4.12997 1.17185 0
M  V30 5173 C 503.971 4.83212 2.26588 0
M  V30 5174 O 504.194 4.52884 3.46775 0
M  V30 5175 O 503.128 5.70299 1.92463 0
M  V30 5176 H 506.954 3.03683 -0.0319614 0
M  V30 5177 H 504.539 1.49178 -0.0814188 0
M  V30 5178 H 506.421 3.47683 2.38106 0
M  V30 5179 H 505.096 2.28414 2.29366 0
M  V30 5180 H 504.003 3.71159 0.468174 0
M  V30 5181 H 505.336 4.8808 0.635501 0
M  V30 5182 N 506.988 0.0434614 1.5754 0
M  V30 5183 C 508.404 -0.313039 1.565 0
M  V30 5184 C 508.604 -1.71954 1.05043 0
M  V30 5185 O 507.66 -2.425 0.703564 0
M  V30 5186 C 508.973 -0.148544 3.00333 0
M  V30 5187 C 510.521 -0.220231 3.12224 0
M  V30 5188 C 510.996 -0.0843565 4.57922 0
M  V30 5189 N 512.487 -0.140881 4.62986 0
M  V30 5190 C 513.222 -0.0597443 5.73369 0
M  V30 5191 N 512.718 0.0733004 6.92761 0
M  V30 5192 N 514.511 -0.11477 5.61983 0
M  V30 5193 H 506.662 0.96303 1.89313 0
M  V30 5194 H 508.925 0.373164 0.871466 0
M  V30 5195 H 508.631 0.820894 3.41986 0
M  V30 5196 H 508.505 -0.912798 3.65989 0
M  V30 5197 H 510.892 -1.18014 2.70475 0
M  V30 5198 H 510.973 0.574646 2.49262 0
M  V30 5199 H 510.617 0.872192 5.00355 0
M  V30 5200 H 510.547 -0.898281 5.18882 0
M  V30 5201 H 513.038 -0.243273 3.77116 0
M  V30 5202 H 513.351 0.128128 7.72694 0
M  V30 5203 H 511.696 0.10828 6.94916 0
M  V30 5204 H 514.887 -0.217212 4.67596 0
M  V30 5205 H 515.06 -0.0480779 6.47982 0
M  V30 5206 N 508.466 -1.55915 -0.229846 0
M  V30 5207 C 509.712 -1.78807 -0.956868 0
M  V30 5208 C 510.045 -0.611687 -1.84315 0
M  V30 5209 O 509.32 0.389398 -1.90562 0
M  V30 5210 C 509.603 -3.11718 -1.80288 0
M  V30 5211 C 509.456 -4.3979 -0.943649 0
M  V30 5212 C 510.775 -3.40999 -2.78222 0
M  V30 5213 H 507.894 -0.6505 -0.346437 0
M  V30 5214 H 510.536 -1.88648 -0.226252 0
M  V30 5215 H 508.686 -3.03459 -2.42579 0
M  V30 5216 H 510.358 -4.60059 -0.338121 0
M  V30 5217 H 508.601 -4.33086 -0.248705 0
M  V30 5218 H 509.272 -5.29208 -1.5698 0
M  V30 5219 H 511.748 -3.49332 -2.26067 0
M  V30 5220 H 510.624 -4.35183 -3.34526 0
M  V30 5221 H 510.885 -2.62754 -3.55546 0
M  V30 5222 N 509.944 0.496216 -1.49584 0
M  V30 5223 C 510.907 1.57952 -1.66084 0
M  V30 5224 C 511.907 1.51729 -0.53244 0
M  V30 5225 O 513.097 1.54796 -0.79899 0
M  V30 5226 C 510.229 2.97604 -1.66268 0
M  V30 5227 H 511.422 1.44649 -2.6271 0
M  V30 5228 H 508.975 0.7208 -1.38687 0
M  V30 5229 H 509.71 3.16378 -0.712432 0
M  V30 5230 H 509.495 3.03528 -2.4822 0
M  V30 5231 H 510.985 3.76301 -1.81073 0
M  V30 5232 N 511.423 1.38739 0.74761 0
M  V30 5233 C 512.371 1.36573 1.88283 0
M  V30 5234 C 513.365 0.250712 1.67534 0
M  V30 5235 O 514.571 0.420073 1.7503 0
M  V30 5236 H 510.946 0.42619 0.619569 0
M  V30 5237 H 512.917 2.32356 1.87226 0
M  V30 5238 C 511.666 1.21361 3.25832 0
M  V30 5239 H 510.989 2.06424 3.42388 0
M  V30 5240 H 512.429 1.23901 4.05493 0
M  V30 5241 C 510.888 -0.0790099 3.36807 0
M  V30 5242 O 511.418 -1.05385 3.8763 0
M  V30 5243 N 509.624 -0.13785 2.90273 0
M  V30 5244 H 509.171 0.656128 2.49104 0
M  V30 5245 H 509.129 -1.00228 2.97996 0
M  V30 5246 N 512.901 -0.976442 1.23707 0
M  V30 5247 C 513.811 -2.10359 1.03856 0
M  V30 5248 C 514.827 -1.73991 -0.0180919 0
M  V30 5249 O 516.003 -2.0061 0.178211 0
M  V30 5250 C 513.068 -3.40809 0.636387 0
M  V30 5251 C 512.129 -3.91179 1.76854 0
M  V30 5252 C 511.362 -5.15404 1.38546 0
M  V30 5253 O 511.585 -5.69754 0.27142 0
M  V30 5254 O 510.519 -5.5994 2.20797 0
M  V30 5255 H 514.345 -2.29997 1.98331 0
M  V30 5256 H 511.93 -1.08742 1.02448 0
M  V30 5257 H 513.812 -4.19269 0.423223 0
M  V30 5258 H 512.487 -3.22493 -0.279322 0
M  V30 5259 H 511.394 -3.13819 2.03638 0
M  V30 5260 H 512.727 -4.13958 2.6627 0
M  V30 5261 N 514.379 -1.04941 -1.1758 0
M  V30 5262 C 515.625 -0.759112 -1.88057 0
M  V30 5263 C 515.958 0.711918 -1.8068 0
M  V30 5264 O 515.233 1.52035 -1.21308 0
M  V30 5265 C 515.516 -1.237 -3.38187 0
M  V30 5266 C 515.369 -2.77078 -3.54327 0
M  V30 5267 C 516.688 -0.834014 -4.32125 0
M  V30 5268 H 513.807 -0.277237 -0.682868 0
M  V30 5269 H 516.449 -1.30296 -1.38286 0
M  V30 5270 H 514.599 -0.774337 -3.80705 0
M  V30 5271 H 516.271 -3.31449 -3.20842 0
M  V30 5272 H 514.514 -3.16477 -2.96689 0
M  V30 5273 H 515.185 -3.05577 -4.59703 0
M  V30 5274 H 517.661 -1.23228 -3.97434 0
M  V30 5275 H 516.537 -1.19603 -5.35711 0
M  V30 5276 H 516.798 0.262195 -4.41322 0
M  V30 5277 N 515.857 1.33968 -0.830081 0
M  V30 5278 C 517.082 2.02813 -0.433796 0
M  V30 5279 C 517.507 1.62076 0.954614 0
M  V30 5280 O 516.865 0.808955 1.62252 0
M  V30 5281 C 516.913 3.56348 -0.552115 0
M  V30 5282 O 516.017 4.10202 0.425191 0
M  V30 5283 H 515.358 0.639817 -0.177567 0
M  V30 5284 H 517.888 1.7106 -1.12248 0
M  V30 5285 H 517.898 4.05722 -0.430513 0
M  V30 5286 H 516.573 3.85344 -1.56471 0
M  V30 5287 H 515.15 3.71979 0.261878 0
M  V30 5288 N 517.335 0.585699 1.46312 0
M  V30 5289 C 518.751 0.247607 1.57668 0
M  V30 5290 C 518.951 -1.25007 1.58037 0
M  V30 5291 O 518.007 -2.03196 1.49893 0
M  V30 5292 C 519.32 0.899456 2.86933 0
M  V30 5293 C 520.868 0.873326 3.00569 0
M  V30 5294 C 521.343 1.50477 4.32574 0
M  V30 5295 N 522.834 1.46925 4.3928 0
M  V30 5296 C 523.569 1.92719 5.40044 0
M  V30 5297 N 523.065 2.46499 6.47464 0
M  V30 5298 N 524.858 1.83617 5.31264 0
M  V30 5299 H 517.009 1.55841 1.44317 0
M  V30 5300 H 519.272 0.651564 0.688599 0
M  V30 5301 H 518.978 1.95313 2.92482 0
M  V30 5302 H 518.852 0.409476 3.74971 0
M  V30 5303 H 521.239 -0.171736 2.946 0
M  V30 5304 H 521.32 1.40136 2.13999 0
M  V30 5305 H 520.964 2.54905 4.39302 0
M  V30 5306 H 520.894 0.951944 5.17924 0
M  V30 5307 H 523.385 1.07616 3.62253 0
M  V30 5308 H 523.698 2.79291 7.20567 0
M  V30 5309 H 522.043 2.50526 6.48276 0
M  V30 5310 H 525.234 1.41358 4.46246 0
M  V30 5311 H 525.407 2.19622 6.09648 0
M  V30 5312 N 518.813 -1.54241 0.323641 0
M  V30 5313 C 520.059 -2.00867 -0.279323 0
M  V30 5314 C 520.392 -1.21146 -1.5178 0
M  V30 5315 O 519.667 -0.29378 -1.92269 0
M  V30 5316 C 519.95 -3.54837 -0.613387 0
M  V30 5317 C 519.803 -4.45284 0.635803 0
M  V30 5318 C 521.122 -4.16186 -1.43099 0
M  V30 5319 H 518.241 -0.730177 -0.100049 0
M  V30 5320 H 520.883 -1.84829 0.440235 0
M  V30 5321 H 519.033 -3.68634 -1.22641 0
M  V30 5322 H 520.705 -4.43357 1.27406 0
M  V30 5323 H 518.948 -4.14956 1.26466 0
M  V30 5324 H 519.619 -5.5084 0.357597 0
M  V30 5325 H 522.095 -4.05964 -0.912814 0
M  V30 5326 H 520.971 -5.24031 -1.6335 0
M  V30 5327 H 521.232 -3.69516 -2.42715 0
M  V30 5328 N 520.291 -0.0518155 -1.57515 0
M  V30 5329 C 521.254 0.907547 -2.10467 0
M  V30 5330 C 522.254 1.23947 -1.02439 0
M  V30 5331 O 523.444 1.17604 -1.2851 0
M  V30 5332 C 520.576 2.21723 -2.58944 0
M  V30 5333 H 521.769 0.44851 -2.96527 0
M  V30 5334 H 519.322 0.196598 -1.55059 0
M  V30 5335 H 520.057 2.72206 -1.76279 0
M  V30 5336 H 519.842 1.98935 -3.37886 0
M  V30 5337 H 521.332 2.90441 -3.00056 0
M  V30 5338 N 521.769 1.56035 0.221574 0
M  V30 5339 C 523.185 1.49026 0.571271 0
M  V30 5340 C 523.385 0.746912 1.87146 0
M  V30 5341 O 522.441 0.286566 2.50869 0
M  V30 5342 C 523.754 2.93579 0.650522 0
M  V30 5343 C 525.302 3.04099 0.741151 0
M  V30 5344 C 525.777 4.5001 0.851747 0
M  V30 5345 N 527.268 4.54053 0.915968 0
M  V30 5346 C 528.003 5.64232 1.02125 0
M  V30 5347 N 527.499 6.84164 1.09049 0
M  V30 5348 N 529.292 5.52084 1.05639 0
M  V30 5349 H 521.443 2.02791 -0.63162 0
M  V30 5350 H 523.706 0.921736 -0.221602 0
M  V30 5351 H 523.412 3.50912 -0.235253 0
M  V30 5352 H 523.286 3.45476 1.51413 0
M  V30 5353 H 525.673 2.4683 1.61737 0
M  V30 5354 H 525.754 2.55371 -0.148128 0
M  V30 5355 H 525.398 5.07896 -0.0200117 0
M  V30 5356 H 525.328 4.96444 1.75644 0
M  V30 5357 H 527.819 3.67683 0.872782 0
M  V30 5358 H 528.132 7.63883 1.1706 0
M  V30 5359 H 526.477 6.86875 1.05962 0
M  V30 5360 H 529.668 4.57317 0.998953 0
M  V30 5361 H 529.841 6.37983 1.13498 0
M  V30 5362 N 523.247 -0.488276 1.49845 0
M  V30 5363 C 524.21 -1.57069 1.66919 0
M  V30 5364 C 525.21 -1.51445 0.540479 0
M  V30 5365 O 526.4 -1.5437 0.807188 0
M  V30 5366 C 523.532 -2.96718 1.67844 0
M  V30 5367 H 524.725 -1.43254 2.63474 0
M  V30 5368 H 522.278 -0.713435 1.39068 0
M  V30 5369 H 523.013 -3.15996 0.7292 0
M  V30 5370 H 522.798 -3.02208 2.49826 0
M  V30 5371 H 524.288 -3.75335 1.83066 0
M  V30 5372 O 524.764 -1.48549 -0.633678 0
M  V30 5373 H 525.455 -1.447 -1.28769 0
M  V30 END ATOM
M  V30 BEGIN BOND
M  V30 END BOND
M  V30 END CTAB
M  END
$$$$
