drugbank_target|P17412 Fumarate reductase flavoprotein subunit (DB07669)
 OpenBabel12092120453D

  0  0  0     0  0            999 V3000
M  V30 BEGIN CTAB
M  V30 COUNTS 10185 10281 0 0 0
M  V30 BEGIN ATOM
M  V30 1 H -0.908 1.98254 -0.117106 0
M  V30 2 N 0 1.576 0 0
M  V30 3 C 0.933 2.03868 1.02534 0
M  V30 4 C 1.911 0.928543 1.3348 0
M  V30 5 O 3.095 1.19667 1.45644 0
M  V30 6 C 0.222 2.43627 2.35294 0
M  V30 7 C -0.732 3.65373 2.2001 0
M  V30 8 S 0.101 5.13292 1.52614 0
M  V30 9 C 1.257 5.56322 2.86805 0
M  V30 10 H 1.49 2.90518 0.631377 0
M  V30 11 H -0.977 1.52953 0.210867 0
M  V30 12 H 0.981 2.67203 3.11629 0
M  V30 13 H -0.358 1.57376 2.7183 0
M  V30 14 H -1.165 3.90944 3.18086 0
M  V30 15 H -1.563 3.418 1.51819 0
M  V30 16 H 0.729 5.58782 3.83104 0
M  V30 17 H 1.672 6.56266 2.65933 0
M  V30 18 H 2.08 4.83886 2.90714 0
M  V30 19 N 1.4781 -0.272755 1.55222 0
M  V30 20 C 2.4251 -1.33716 1.88119 0
M  V30 21 C 3.3951 -1.49066 0.73271 0
M  V30 22 O 4.5801 -1.63469 0.984002 0
M  V30 23 C 1.7201 -2.69238 2.15882 0
M  V30 24 C 0.8331 -2.62108 3.43399 0
M  V30 25 C -0.0319 -3.89811 3.60861 0
M  V30 26 C -0.9929 -3.77193 4.8207 0
M  V30 27 N -1.8559 -4.9673 4.96189 0
M  V30 28 H 2.9841 -1.04962 2.78903 0
M  V30 29 H 0.5211 -0.507088 1.38083 0
M  V30 30 H 2.4791 -3.48089 2.29978 0
M  V30 31 H 1.1091 -2.96194 1.28331 0
M  V30 32 H 0.1611 -1.74967 3.37773 0
M  V30 33 H 1.4731 -2.48685 4.32386 0
M  V30 34 H 0.6271 -4.77103 3.74777 0
M  V30 35 H -0.6339 -4.06102 2.7006 0
M  V30 36 H -1.6289 -2.88284 4.68159 0
M  V30 37 H -0.4039 -3.62421 5.74307 0
M  V30 38 H -2.4579 -5.13431 4.08319 0
M  V30 39 H -2.5409 -4.85839 5.79221 0
M  V30 40 H -1.2729 -5.85594 5.1449 0
M  V30 41 N 2.9562 -1.48159 -0.537278 0
M  V30 42 C 4.2022 -1.56035 -1.29541 0
M  V30 43 C 4.5352 -0.230377 -1.92829 0
M  V30 44 O 3.8102 0.762952 -1.78911 0
M  V30 45 C 4.0932 -2.69323 -2.39034 0
M  V30 46 C 3.9462 -4.12002 -1.80485 0
M  V30 47 C 5.2652 -2.78408 -3.40847 0
M  V30 48 H 2.3842 -0.567992 -0.469632 0
M  V30 49 H 5.0262 -1.80302 -0.599277 0
M  V30 50 H 3.1762 -2.48763 -2.98412 0
M  V30 51 H 4.8482 -4.43981 -1.25215 0
M  V30 52 H 3.0912 -4.19344 -1.11055 0
M  V30 53 H 3.7622 -4.87077 -2.59731 0
M  V30 54 H 6.2382 -2.97012 -2.91416 0
M  V30 55 H 5.1142 -3.59416 -4.14863 0
M  V30 56 H 5.3752 -1.86269 -4.00944 0
M  V30 57 N 4.4343 0.785586 -1.36625 0
M  V30 58 C 5.3663 1.90711 -1.2713 0
M  V30 59 C 6.3793 1.61688 -0.189986 0
M  V30 60 O 7.5683 1.72864 -0.445014 0
M  V30 61 C 4.6683 3.25611 -0.939713 0
M  V30 62 C 3.8413 3.82385 -2.12369 0
M  V30 63 C 2.9003 4.95732 -1.76456 0
M  V30 64 O 1.9263 5.12047 -2.48589 0
M  V30 65 N 3.1283 5.76258 -0.700492 0
M  V30 66 H 5.8933 1.99376 -2.23762 0
M  V30 67 H 3.4543 0.964041 -1.30069 0
M  V30 68 H 5.4463 3.98937 -0.680554 0
M  V30 69 H 4.0163 3.12538 -0.0624074 0
M  V30 70 H 3.2363 3.01001 -2.54543 0
M  V30 71 H 4.5243 4.17047 -2.9146 0
M  V30 72 H 3.9223 5.65609 -0.101624 0
M  V30 73 H 2.4793 6.4987 -0.501165 0
M  V30 74 N 5.9124 1.20967 1.01018 0
M  V30 75 C 7.1424 1.04803 1.78044 0
M  V30 76 C 7.5504 -0.405462 1.84804 0
M  V30 77 O 6.8934 -1.2932 1.30468 0
M  V30 78 C 6.9554 1.56377 3.23707 0
M  V30 79 C 6.6194 3.04767 3.40538 0
M  V30 80 C 7.6164 4.02366 3.29239 0
M  V30 81 C 5.3014 3.43862 3.66147 0
M  V30 82 C 7.2954 5.37049 3.43304 0
M  V30 83 C 4.9824 4.78699 3.79855 0
M  V30 84 C 5.9804 5.75101 3.68439 0
M  V30 85 O 5.6684 7.07493 3.81719 0
M  V30 86 H 5.4004 0.368778 0.56655 0
M  V30 87 H 7.9544 1.60642 1.27997 0
M  V30 88 H 6.1844 0.949297 3.74867 0
M  V30 89 H 7.8734 1.36136 3.8239 0
M  V30 90 H 8.6394 3.73506 3.09384 0
M  V30 91 H 4.5184 2.69364 3.74118 0
M  V30 92 H 8.0624 6.12277 3.34309 0
M  V30 93 H 3.9594 5.07247 3.99213 0
M  V30 94 H 4.7274 7.1483 3.98697 0
M  V30 95 N 7.3905 -1.2043 1.01659 0
M  V30 96 C 8.6305 -1.91507 0.714456 0
M  V30 97 C 8.9945 -1.77073 -0.742237 0
M  V30 98 O 10.1955 -2.42631 -1.15688 0
M  V30 99 C 8.4665 -3.38795 1.13809 0
M  V30 100 S 10.0255 -4.28216 0.957925 0
M  V30 101 H 6.8435 -0.661571 0.260471 0
M  V30 102 H 9.4455 -1.45671 1.30384 0
M  V30 103 H 8.1495 -3.46822 2.19415 0
M  V30 104 H 7.6805 -3.89656 0.541474 0
M  V30 105 H 9.6955 -4.96007 -0.138531 0
M  V30 106 N 8.8686 -0.792821 -1.36206 0
M  V30 107 C 10.1456 -0.290627 -1.93429 0
M  V30 108 C 10.5256 1.21773 -1.72437 0
M  V30 109 O 9.8736 2.0108 -1.08531 0
M  V30 110 C 10.0836 -0.686973 -3.42172 0
M  V30 111 C 11.4316 -0.668643 -4.19302 0
M  V30 112 O 12.4556 -0.627658 -3.50626 0
M  V30 113 O 11.3146 -0.714597 -5.41808 0
M  V30 114 H 8.4086 -0.0727927 -0.82379 0
M  V30 115 H 10.9546 -0.875593 -1.45367 0
M  V30 116 H 9.7266 -1.72711 -3.51122 0
M  V30 117 H 9.3496 -0.0760733 -3.97527 0
M  V30 118 N 10.3467 1.47872 -0.545128 0
M  V30 119 C 11.5717 2.07391 -0.0190611 0
M  V30 120 C 11.9967 1.39688 1.25971 0
M  V30 121 O 11.3547 0.467816 1.7516 0
M  V30 122 C 11.4027 3.60188 0.172335 0
M  V30 123 O 10.5067 3.9339 1.23766 0
M  V30 124 H 9.8477 0.662411 -0.0459059 0
M  V30 125 H 12.3777 1.90066 -0.757365 0
M  V30 126 H 12.3877 4.06129 0.390305 0
M  V30 127 H 11.0627 4.08865 -0.761725 0
M  V30 128 H 9.6397 3.5921 1.00114 0
M  V30 129 N 11.8248 0.280983 1.55075 0
M  V30 130 C 12.7548 -0.597469 2.25727 0
M  V30 131 C 13.7358 -1.15417 1.24952 0
M  V30 132 O 14.9208 -1.18722 1.53684 0
M  V30 133 C 12.0508 -1.7789 2.98283 0
M  V30 134 C 11.0048 -1.35347 4.06036 0
M  V30 135 C 10.3308 -2.61846 4.66198 0
M  V30 136 C 11.6308 -0.499354 5.19907 0
M  V30 137 H 13.3248 -0.00824265 2.99399 0
M  V30 138 H 10.8708 -0.0025244 1.44 0
M  V30 139 H 12.8238 -2.39937 3.46422 0
M  V30 140 H 11.5478 -2.39405 2.22155 0
M  V30 141 H 10.2068 -0.756156 3.58717 0
M  V30 142 H 9.8548 -3.21632 3.86732 0
M  V30 143 H 9.5548 -2.3409 5.38958 0
M  V30 144 H 11.0788 -3.24732 5.1709 0
M  V30 145 H 12.4928 -1.02498 5.64063 0
M  V30 146 H 10.8898 -0.316424 5.99265 0
M  V30 147 H 11.9598 0.480459 4.82514 0
M  V30 148 N 13.3029 -1.57598 0.00835791 0
M  V30 149 C 14.5489 -1.91211 -0.675732 0
M  V30 150 C 14.8819 -0.883139 -1.72958 0
M  V30 151 O 14.1569 0.097016 -1.94258 0
M  V30 152 C 14.4399 -3.35379 -1.31123 0
M  V30 153 C 14.2929 -4.48999 -0.268356 0
M  V30 154 C 15.6119 -3.7912 -2.23508 0
M  V30 155 H 12.7309 -0.695374 -0.244179 0
M  V30 156 H 15.3729 -1.89901 0.0613655 0
M  V30 157 H 13.5229 -3.36626 -1.93946 0
M  V30 158 H 15.1949 -4.59887 0.360844 0
M  V30 159 H 13.4379 -4.31873 0.408482 0
M  V30 160 H 14.1089 -5.46851 -0.752218 0
M  V30 161 H 16.5849 -3.79477 -1.70693 0
M  V30 162 H 15.4609 -4.80729 -2.64936 0
M  V30 163 H 15.7219 -3.13455 -3.11766 0
M  V30 164 N 14.781 0.264519 -1.55364 0
M  V30 165 C 16.03 0.992812 -1.75574 0
M  V30 166 C 16.343 1.87142 -0.568979 0
M  V30 167 O 17.549 2.63513 -0.653682 0
M  V30 168 C 16.005 1.81519 -3.10771 0
M  V30 169 C 15.613 0.984839 -4.37041 0
M  V30 170 C 17.357 2.53727 -3.40327 0
M  V30 171 C 15.264 1.80209 -5.63275 0
M  V30 172 H 14.194 0.374412 -0.65447 0
M  V30 173 H 16.845 0.248138 -1.81815 0
M  V30 174 H 15.227 2.60115 -2.98591 0
M  V30 175 H 16.401 0.242455 -4.60162 0
M  V30 176 H 14.716 0.37691 -4.14691 0
M  V30 177 H 17.313 3.15292 -4.3185 0
M  V30 178 H 17.656 3.24447 -2.60845 0
M  V30 179 H 18.189 1.82156 -3.53644 0
M  V30 180 H 14.928 1.13896 -6.45529 0
M  V30 181 H 14.448 2.52022 -5.44284 0
M  V30 182 H 16.127 2.37364 -6.01887 0
M  V30 183 N 16.2591 1.48442 0.529413 0
M  V30 184 C 17.5071 1.56179 1.28267 0
M  V30 185 C 17.8281 0.237721 1.93546 0
M  V30 186 O 17.0981 -0.740779 1.81354 0
M  V30 187 H 15.6781 0.575367 0.476405 0
M  V30 188 H 18.3401 1.84909 0.61602 0
M  V30 189 H 17.4361 2.34312 2.06165 0
M  V30 190 N 17.7372 -0.778329 1.37039 0
M  V30 191 C 18.9852 -1.53361 1.31623 0
M  V30 192 C 19.3062 -1.94739 -0.100831 0
M  V30 193 O 18.5762 -1.65797 -1.04347 0
M  V30 194 H 17.1562 -0.568794 0.484234 0
M  V30 195 H 19.8182 -0.926742 1.71457 0
M  V30 196 H 18.9142 -2.43606 1.95096 0
M  V30 197 N 19.2153 -1.21501 -1.00376 0
M  V30 198 C 20.4633 -1.03095 -1.73827 0
M  V30 199 C 20.7843 0.436341 -1.90055 0
M  V30 200 O 20.0543 1.31466 -1.45236 0
M  V30 201 H 18.6343 -0.378487 -0.644016 0
M  V30 202 H 21.2963 -1.52831 -1.20949 0
M  V30 203 H 20.3923 -1.49991 -2.73695 0
M  V30 204 N 20.6934 1.19889 -1.02296 0
M  V30 205 C 21.6234 2.25141 -0.619174 0
M  V30 206 C 22.6044 1.66051 0.368915 0
M  V30 207 O 23.7894 1.92546 0.252941 0
M  V30 208 C 20.9194 3.4728 0.0368783 0
M  V30 209 C 19.8734 4.19005 -0.872865 0
M  V30 210 C 19.1994 5.34637 -0.0822402 0
M  V30 211 C 20.4994 4.74452 -2.18387 0
M  V30 212 H 22.1934 2.59171 -1.49903 0
M  V30 213 H 19.7394 1.24579 -0.722222 0
M  V30 214 H 21.6924 4.20098 0.330958 0
M  V30 215 H 20.4164 3.12433 0.95149 0
M  V30 216 H 19.0754 3.48061 -1.15105 0
M  V30 217 H 18.7234 4.96034 0.83422 0
M  V30 218 H 18.4234 5.83557 -0.688149 0
M  V30 219 H 19.9474 6.10255 0.205238 0
M  V30 220 H 21.3614 5.39055 -1.95172 0
M  V30 221 H 19.7584 5.33834 -2.74119 0
M  V30 222 H 20.8284 3.92844 -2.84257 0
M  V30 223 N 22.1715 0.800033 1.35784 0
M  V30 224 C 23.1345 0.211565 2.28221 0
M  V30 225 C 24.1345 -0.59728 1.49296 0
M  V30 226 O 25.3245 -0.416721 1.69142 0
M  V30 227 C 22.4565 -0.705846 3.33513 0
M  V30 228 H 23.6495 1.02677 2.81776 0
M  V30 229 H 21.2025 0.570211 1.45528 0
M  V30 230 H 21.9375 -1.54498 2.85133 0
M  V30 231 H 21.7225 -0.127655 3.91892 0
M  V30 232 H 23.2125 -1.11211 4.02519 0
M  V30 233 N 23.6496 -1.47581 0.552962 0
M  V30 234 C 24.8976 -2.02082 0.0272703 0
M  V30 235 C 25.2186 -1.4301 -1.32563 0
M  V30 236 O 24.4886 -0.603745 -1.86365 0
M  V30 237 H 23.0686 -0.746966 0.00709182 0
M  V30 238 H 25.7306 -1.81033 0.722008 0
M  V30 239 H 24.8266 -3.12034 -0.0639951 0
M  V30 240 N 25.1277 -0.289203 -1.54924 0
M  V30 241 C 26.0577 0.58549 -2.2604 0
M  V30 242 C 27.0387 1.14753 -1.25562 0
M  V30 243 O 28.2237 1.17906 -1.54311 0
M  V30 244 C 25.3537 1.76305 -2.99222 0
M  V30 245 C 24.3077 1.33191 -4.06748 0
M  V30 246 C 23.6337 2.5937 -4.6758 0
M  V30 247 C 24.9337 0.471775 -5.20165 0
M  V30 248 H 26.6277 -0.00763532 -2.99399 0
M  V30 249 H 24.1737 -0.00511229 -1.43999 0
M  V30 250 H 26.1267 2.38097 -3.47689 0
M  V30 251 H 24.8507 2.38223 -2.23422 0
M  V30 252 H 23.5097 0.737121 -3.59113 0
M  V30 253 H 23.1577 3.19576 -3.88433 0
M  V30 254 H 22.8577 2.31228 -5.40192 0
M  V30 255 H 24.3817 3.21985 -5.18804 0
M  V30 256 H 25.7957 0.995056 -5.64599 0
M  V30 257 H 24.1927 0.284639 -5.99425 0
M  V30 258 H 25.2627 -0.506041 -4.82252 0
M  V30 259 N 26.6058 1.57591 -0.0167156 0
M  V30 260 C 28.0218 1.55946 0.339557 0
M  V30 261 C 28.2218 1.02109 1.73713 0
M  V30 262 O 27.2778 0.662303 2.43659 0
M  V30 263 C 28.5908 3.00037 0.199499 0
M  V30 264 C 30.1388 3.11805 0.273193 0
M  V30 265 C 30.6138 4.57713 0.162068 0
M  V30 266 N 32.1048 4.6268 0.219444 0
M  V30 267 C 32.8398 5.73185 0.157054 0
M  V30 268 N 32.3358 6.92786 0.0442936 0
M  V30 269 N 34.1288 5.61707 0.21014 0
M  V30 270 H 26.2798 1.90921 -0.930758 0
M  V30 271 H 28.5428 0.877674 -0.358319 0
M  V30 272 H 28.2488 3.4333 -0.76273 0
M  V30 273 H 28.1228 3.64387 0.974786 0
M  V30 274 H 30.5098 2.68433 1.22587 0
M  V30 275 H 30.5908 2.50201 -0.532256 0
M  V30 276 H 30.2348 5.01763 -0.78714 0
M  V30 277 H 30.1648 5.17283 0.986222 0
M  V30 278 H 32.6558 3.76649 0.307246 0
M  V30 279 H 32.9688 7.728 0.00304069 0
M  V30 280 H 31.3138 6.94999 0.00968457 0
M  V30 281 H 34.5048 4.6716 0.296546 0
M  V30 282 H 34.6778 6.47807 0.158054 0
M  V30 283 N 28.0839 -0.256276 1.55502 0
M  V30 284 C 29.0469 -1.30047 1.88734 0
M  V30 285 C 30.0469 -1.4154 0.763086 0
M  V30 286 O 31.2369 -1.40403 1.03115 0
M  V30 287 C 28.3689 -2.67953 2.10747 0
M  V30 288 H 29.5619 -1.01802 2.82093 0
M  V30 289 H 27.1149 -0.495134 1.4825 0
M  V30 290 H 27.8499 -3.01351 1.19825 0
M  V30 291 H 27.6349 -2.60993 2.92617 0
M  V30 292 H 29.1249 -3.43368 2.37673 0
M  V30 293 N 29.562 -1.4872 -0.521534 0
M  V30 294 C 30.525 -1.63379 -1.60748 0
M  V30 295 C 31.525 -0.50661 -1.52611 0
M  V30 296 O 32.715 -0.772601 -1.5613 0
M  V30 297 C 29.847 -1.61192 -3.00383 0
M  V30 298 H 31.04 -2.60217 -1.49087 0
M  V30 299 H 28.593 -1.37444 -0.744235 0
M  V30 300 H 29.328 -0.65863 -3.17541 0
M  V30 301 H 29.113 -2.43032 -3.07698 0
M  V30 302 H 30.603 -1.7466 -3.7932 0
M  V30 303 N 31.0401 0.771051 -1.3745 0
M  V30 304 C 32.2861 1.5319 -1.32894 0
M  V30 305 C 32.6191 1.94008 0.0862511 0
M  V30 306 O 31.8941 1.64124 1.04373 0
M  V30 307 C 32.1771 2.79648 -2.26868 0
M  V30 308 C 32.0301 2.45079 -3.77169 0
M  V30 309 C 33.3491 3.81583 -2.19277 0
M  V30 310 H 30.4681 0.555744 -0.484064 0
M  V30 311 H 33.1101 0.884492 -1.68157 0
M  V30 312 H 31.2601 3.34891 -1.96926 0
M  V30 313 H 32.9321 1.95745 -4.1771 0
M  V30 314 H 31.1751 1.77767 -3.95704 0
M  V30 315 H 31.8461 3.35478 -4.38359 0
M  V30 316 H 34.3221 3.35835 -2.45671 0
M  V30 317 H 33.1981 4.67787 -2.87171 0
M  V30 318 H 33.4591 4.25897 -1.18592 0
M  V30 319 N 32.5182 1.22032 0.997298 0
M  V30 320 C 33.4812 0.987909 2.06816 0
M  V30 321 C 34.4812 -0.0440084 1.6074 0
M  V30 322 O 35.6712 0.194053 1.73116 0
M  V30 323 C 32.8032 0.49132 3.37341 0
M  V30 324 H 33.9962 1.93803 2.28868 0
M  V30 325 H 31.5492 1.03838 1.16822 0
M  V30 326 H 32.2842 -0.463364 3.20973 0
M  V30 327 H 32.0692 1.23575 3.72118 0
M  V30 328 H 33.5592 0.348824 4.16141 0
M  V30 329 N 33.9963 -1.19345 1.0293 0
M  V30 330 C 35.2243 -1.92997 0.745644 0
M  V30 331 C 35.6393 -1.75519 -0.695589 0
M  V30 332 O 34.9963 -1.07737 -1.47306 0
M  V30 333 C 35.0473 -3.44741 1.08792 0
M  V30 334 O 34.7683 -3.61658 2.47256 0
M  V30 335 C 36.2693 -4.35515 0.827129 0
M  V30 336 H 33.4893 -0.613042 0.272801 0
M  V30 337 H 36.0333 -1.51473 1.3739 0
M  V30 338 H 34.1883 -3.84097 0.504832 0
M  V30 339 H 34.6023 -4.55514 2.60015 0
M  V30 340 H 36.0763 -5.40589 1.11658 0
M  V30 341 H 36.5533 -4.38552 -0.238436 0
M  V30 342 H 37.1593 -4.01841 1.39297 0
M  V30 343 N 35.4744 -0.807222 -1.35358 0
M  V30 344 C 36.4064 -0.175717 -2.28525 0
M  V30 345 C 37.4194 0.625354 -1.5031 0
M  V30 346 O 38.6084 0.457611 -1.72535 0
M  V30 347 C 35.7084 0.773471 -3.29956 0
M  V30 348 C 34.8814 0.0186296 -4.37396 0
M  V30 349 C 33.9404 0.886395 -5.18681 0
M  V30 350 O 32.9664 0.337106 -5.68201 0
M  V30 351 N 34.1684 2.20839 -5.36852 0
M  V30 352 H 36.9334 -0.976091 -2.83359 0
M  V30 353 H 34.4944 -0.662737 -1.47714 0
M  V30 354 H 36.4864 1.35824 -3.81227 0
M  V30 355 H 35.0564 1.47465 -2.75632 0
M  V30 356 H 34.2764 -0.747349 -3.87051 0
M  V30 357 H 35.5644 -0.501577 -5.06322 0
M  V30 358 H 34.9624 2.67858 -4.98265 0
M  V30 359 H 33.5194 2.74237 -5.91301 0
M  V30 360 N 36.9525 1.47285 -0.560781 0
M  V30 361 C 37.8845 2.28118 0.222438 0
M  V30 362 C 38.8975 1.37219 0.876056 0
M  V30 363 O 40.0865 1.62011 0.749307 0
M  V30 364 C 37.1865 3.1159 1.33285 0
M  V30 365 C 36.3595 4.30473 0.77534 0
M  V30 366 C 35.4185 4.95513 1.77069 0
M  V30 367 O 34.4445 5.53792 1.31539 0
M  V30 368 N 35.6465 4.90531 3.10418 0
M  V30 369 H 38.4115 2.95976 -0.470958 0
M  V30 370 H 35.9725 1.56955 -0.39709 0
M  V30 371 H 37.9645 3.51967 1.99752 0
M  V30 372 H 36.5345 2.45951 1.92943 0
M  V30 373 H 35.7545 3.94144 -0.0662113 0
M  V30 374 H 37.0425 5.07362 0.382272 0
M  V30 375 H 36.4405 4.44389 3.5005 0
M  V30 376 H 34.9975 5.34917 3.72434 0
M  V30 377 N 38.4306 0.297415 1.54768 0
M  V30 378 C 39.3776 -0.580276 2.23386 0
M  V30 379 C 40.3476 -1.13238 1.21517 0
M  V30 380 O 41.5326 -1.17757 1.50126 0
M  V30 381 C 38.6726 -1.74801 2.97555 0
M  V30 382 C 37.7856 -1.22764 4.1419 0
M  V30 383 C 36.9206 -2.35895 4.75949 0
M  V30 384 C 35.9596 -1.80974 5.84735 0
M  V30 385 N 35.0966 -2.87664 6.40464 0
M  V30 386 H 39.9366 0.0114833 2.97998 0
M  V30 387 H 37.4736 0.0174361 1.4709 0
M  V30 388 H 39.4316 -2.43475 3.38786 0
M  V30 389 H 38.0616 -2.31145 2.25326 0
M  V30 390 H 37.1136 -0.433271 3.77924 0
M  V30 391 H 38.4256 -0.785551 4.92575 0
M  V30 392 H 37.5796 -3.12523 5.20014 0
M  V30 393 H 36.3186 -2.83429 3.96887 0
M  V30 394 H 35.3236 -1.02834 5.40097 0
M  V30 395 H 36.5486 -1.34348 6.65678 0
M  V30 396 H 34.4946 -3.34538 5.64287 0
M  V30 397 H 34.4116 -2.4794 7.14186 0
M  V30 398 H 35.6796 -3.642 6.89187 0
M  V30 399 N 39.9087 -1.5758 0.0250728 0
M  V30 400 C 41.1567 -1.91255 -0.653151 0
M  V30 401 C 41.4777 -0.901691 -1.729 0
M  V30 402 O 40.7477 0.0573785 -1.95816 0
M  V30 403 H 39.3277 -0.705942 -0.244243 0
M  V30 404 H 41.9897 -1.94767 0.0719209 0
M  V30 405 H 41.0857 -2.91752 -1.10847 0
M  V30 406 N 41.3868 0.248026 -1.55636 0
M  V30 407 C 42.3168 1.31079 -1.93237 0
M  V30 408 C 43.2978 1.50264 -0.797174 0
M  V30 409 O 44.4828 1.62891 -1.05737 0
M  V30 410 C 41.6128 2.66575 -2.22609 0
M  V30 411 C 40.5668 2.62087 -3.3837 0
M  V30 412 C 39.8928 4.01369 -3.53281 0
M  V30 413 C 41.1928 2.19171 -4.7409 0
M  V30 414 H 42.8868 0.998556 -2.82257 0
M  V30 415 H 40.4328 0.47891 -1.35803 0
M  V30 416 H 42.3858 3.41057 -2.47503 0
M  V30 417 H 41.1098 2.99432 -1.30414 0
M  V30 418 H 39.7688 1.90063 -3.13483 0
M  V30 419 H 39.4168 4.31489 -2.58508 0
M  V30 420 H 39.1168 3.99254 -4.31127 0
M  V30 421 H 40.6408 4.77552 -3.80495 0
M  V30 422 H 42.0548 2.83384 -4.98363 0
M  V30 423 H 40.4518 2.2817 -5.5503 0
M  V30 424 H 41.5218 1.14336 -4.71227 0
M  V30 425 N 42.8649 1.48995 0.513639 0
M  V30 426 C 44.0899 1.61792 1.29762 0
M  V30 427 C 44.5149 0.284475 1.85936 0
M  V30 428 O 43.8729 -0.746185 1.65232 0
M  V30 429 C 43.9209 2.67993 2.41272 0
M  V30 430 O 43.0249 2.26287 3.44772 0
M  V30 431 H 42.3659 0.541963 0.38363 0
M  V30 432 H 44.8959 1.95097 0.616307 0
M  V30 433 H 44.9059 2.89772 2.87221 0
M  V30 434 H 43.5809 3.64791 1.9975 0
M  V30 435 H 42.1579 2.14788 3.04829 0
M  V30 436 N 44.343 -0.763751 1.37857 0
M  V30 437 C 45.571 -1.55293 1.36718 0
M  V30 438 C 45.986 -1.88745 -0.0455434 0
M  V30 439 O 45.343 -1.52039 -1.00947 0
M  V30 440 C 45.394 -2.85831 2.2132 0
M  V30 441 O 45.115 -2.5381 3.57089 0
M  V30 442 C 46.616 -3.80023 2.28249 0
M  V30 443 H 43.836 -0.480841 0.468009 0
M  V30 444 H 46.38 -0.946009 1.81303 0
M  V30 445 H 44.535 -3.42926 1.80223 0
M  V30 446 H 44.949 -3.37459 4.01524 0
M  V30 447 H 46.423 -4.68599 2.91752 0
M  V30 448 H 46.9 -4.1973 1.2932 0
M  V30 449 H 47.506 -3.28855 2.69693 0
M  V30 450 N 45.8211 -1.22559 -0.990812 0
M  V30 451 C 47.0701 -1.04553 -1.72486 0
M  V30 452 C 47.3831 0.419349 -1.91052 0
M  V30 453 O 48.5891 0.719121 -2.61803 0
M  V30 454 C 47.0451 -1.82231 -3.10355 0
M  V30 455 C 46.6531 -3.32981 -2.99713 0
M  V30 456 C 48.3971 -1.7268 -3.87791 0
M  V30 457 C 46.3041 -4.03091 -4.32748 0
M  V30 458 H 45.2341 -0.387614 -0.646739 0
M  V30 459 H 47.8851 -1.46429 -1.10593 0
M  V30 460 H 46.2671 -1.33155 -3.72942 0
M  V30 461 H 47.4411 -3.89466 -2.46278 0
M  V30 462 H 45.7561 -3.43231 -2.35758 0
M  V30 463 H 48.3531 -2.22381 -4.86262 0
M  V30 464 H 48.6961 -0.687607 -4.10582 0
M  V30 465 H 49.2291 -2.1931 -3.31885 0
M  V30 466 H 45.9681 -5.07273 -4.15156 0
M  V30 467 H 45.4881 -3.51394 -4.86089 0
M  V30 468 H 47.1671 -4.08804 -5.01486 0
M  V30 469 N 47.2992 1.18797 -1.03562 0
M  V30 470 C 48.5452 1.8893 -0.737113 0
M  V30 471 C 48.8782 1.79837 0.732956 0
M  V30 472 O 48.1532 1.19525 1.5344 0
M  V30 473 C 48.4362 3.39607 -1.19745 0
M  V30 474 C 48.2892 3.57537 -2.72924 0
M  V30 475 C 49.6082 4.33069 -0.783526 0
M  V30 476 H 46.7272 0.686057 -0.269249 0
M  V30 477 H 49.3692 1.39797 -1.28673 0
M  V30 478 H 47.5192 3.81583 -0.729855 0
M  V30 479 H 49.1912 3.24688 -3.27682 0
M  V30 480 H 47.4342 3.00363 -3.12993 0
M  V30 481 H 48.1052 4.63238 -3.00191 0
M  V30 482 H 50.5812 3.98846 -1.18581 0
M  V30 483 H 49.4572 5.3707 -1.13343 0
M  V30 484 H 49.7182 4.40986 0.313681 0
M  V30 485 N 48.7773 0.814389 1.34928 0
M  V30 486 C 49.7073 0.244827 2.32213 0
M  V30 487 C 50.6883 -0.634024 1.57842 0
M  V30 488 O 51.8733 -0.562676 1.8587 0
M  V30 489 C 49.0033 -0.601106 3.42058 0
M  V30 490 C 47.9573 0.179896 4.27622 0
M  V30 491 C 47.2833 -0.788237 5.28858 0
M  V30 492 C 48.5833 1.38329 5.03649 0
M  V30 493 H 50.2773 1.05763 2.80097 0
M  V30 494 H 47.8233 0.510029 1.34665 0
M  V30 495 H 49.7763 -1.00968 4.09125 0
M  V30 496 H 48.5003 -1.44688 2.92802 0
M  V30 497 H 47.1593 0.569739 3.62146 0
M  V30 498 H 46.8073 -1.62973 4.75866 0
M  V30 499 H 46.5073 -0.269942 5.8698 0
M  V30 500 H 48.0313 -1.19485 5.98795 0
M  V30 501 H 49.4453 1.04918 5.63618 0
M  V30 502 H 47.8423 1.83662 5.71304 0
M  V30 503 H 48.9123 2.16592 4.33839 0
M  V30 504 N 50.2554 -1.46986 0.568584 0
M  V30 505 C 51.4804 -2.07335 0.0520528 0
M  V30 506 C 51.9054 -1.41675 -1.23733 0
M  V30 507 O 51.2634 -0.495623 -1.74394 0
M  V30 508 C 51.3114 -3.60417 -0.11501 0
M  V30 509 O 50.4154 -3.95309 -1.17492 0
M  V30 510 H 49.7564 -0.661597 0.0564385 0
M  V30 511 H 52.2864 -1.88837 0.787507 0
M  V30 512 H 52.2964 -4.06698 -0.325644 0
M  V30 513 H 50.9714 -4.07601 0.826675 0
M  V30 514 H 49.5484 -3.60757 -0.943869 0
M  V30 515 N 51.7335 -0.305618 -1.54608 0
M  V30 516 C 52.6635 0.561482 -2.26649 0
M  V30 517 C 53.6445 1.13415 -1.26772 0
M  V30 518 O 54.8295 1.16262 -1.55553 0
M  V30 519 C 51.9595 1.73122 -3.01075 0
M  V30 520 C 50.9135 1.2887 -4.08138 0
M  V30 521 C 50.2395 2.54396 -4.70305 0
M  V30 522 C 51.5395 0.416578 -5.20636 0
M  V30 523 H 53.2335 -0.0393902 -2.99374 0
M  V30 524 H 50.7795 -0.020385 -1.43986 0
M  V30 525 H 52.7325 2.34396 -3.50195 0
M  V30 526 H 51.4565 2.3584 -2.25936 0
M  V30 527 H 50.1155 0.698991 -3.59875 0
M  V30 528 H 49.7635 3.15439 -3.918 0
M  V30 529 H 49.4635 2.25486 -5.42614 0
M  V30 530 H 50.9875 3.16464 -5.2219 0
M  V30 531 H 52.4015 0.935116 -5.65622 0
M  V30 532 H 50.7985 0.221046 -5.99693 0
M  V30 533 H 51.8685 -0.557162 -4.81688 0
M  V30 534 N 53.2116 1.57565 -0.0334293 0
M  V30 535 C 54.4606 1.91155 0.643639 0
M  V30 536 C 54.7736 0.91192 1.73042 0
M  V30 537 O 55.9796 1.13923 2.46442 0
M  V30 538 C 54.4356 3.39443 1.1961 0
M  V30 539 C 54.0436 4.47774 0.142381 0
M  V30 540 C 55.7876 3.82094 1.84944 0
M  V30 541 C 53.6946 5.87162 0.706727 0
M  V30 542 H 52.6246 0.713368 0.244176 0
M  V30 543 H 55.2756 1.8323 -0.0994323 0
M  V30 544 H 53.6576 3.42313 1.99092 0
M  V30 545 H 54.8316 4.56469 -0.630296 0
M  V30 546 H 53.1466 4.14352 -0.412446 0
M  V30 547 H 55.7436 4.83591 2.2813 0
M  V30 548 H 56.0866 3.17386 2.69392 0
M  V30 549 H 56.6196 3.81665 1.12145 0
M  V30 550 H 53.3586 6.55424 -0.0997178 0
M  V30 551 H 52.8786 5.82064 1.44779 0
M  V30 552 H 54.5576 6.35866 1.19514 0
M  V30 553 N 54.6897 -0.239769 1.55765 0
M  V30 554 C 56.1007 -0.808263 1.68297 0
M  V30 555 C 56.4517 -1.85736 0.632181 0
M  V30 556 O 55.5767 -2.15277 -0.220204 0
M  V30 557 C 56.1717 -1.47284 3.05111 0
M  V30 558 C 54.7307 -1.98895 3.19559 0
M  V30 559 C 53.8777 -0.842575 2.64189 0
M  V30 560 H 56.8287 -0.0154422 1.58692 0
M  V30 561 H 56.8497 -2.34111 2.99954 0
M  V30 562 H 56.3617 -0.709053 3.81568 0
M  V30 563 H 54.4627 -2.78132 2.47938 0
M  V30 564 H 54.5757 -2.18143 4.26556 0
M  V30 565 H 52.9397 -1.24501 2.22197 0
M  V30 566 H 53.7227 -0.0917552 3.43177 0
M  V30 567 N 56.1678 -1.49265 -0.50573 0
M  V30 568 C 57.4138 -1.58748 -1.26202 0
M  V30 569 C 57.7468 -0.271227 -1.92297 0
M  V30 570 O 57.0218 0.724831 -1.80489 0
M  V30 571 C 57.3048 -2.74332 -2.33268 0
M  V30 572 C 57.1578 -4.15737 -1.71705 0
M  V30 573 C 58.4768 -2.85576 -3.34865 0
M  V30 574 H 55.5958 -0.577826 -0.457478 0
M  V30 575 H 58.2378 -1.81532 -0.560897 0
M  V30 576 H 56.3878 -2.55036 -2.93068 0
M  V30 577 H 58.0598 -4.46537 -1.15769 0
M  V30 578 H 56.3028 -4.21605 -1.02135 0
M  V30 579 H 56.9738 -4.92477 -2.49341 0
M  V30 580 H 59.4498 -3.03127 -2.8505 0
M  V30 581 H 58.3258 -3.68135 -4.07146 0
M  V30 582 H 58.5868 -1.94732 -3.96903 0
M  V30 583 N 57.6459 0.756429 -1.3826 0
M  V30 584 C 58.5929 1.87011 -1.35261 0
M  V30 585 C 59.5629 1.64695 -0.215616 0
M  V30 586 O 60.7479 1.864 -0.407399 0
M  V30 587 C 57.8879 3.24275 -1.18068 0
M  V30 588 C 57.0009 3.58442 -2.41129 0
M  V30 589 C 56.1359 4.84994 -2.16689 0
M  V30 590 C 55.1749 5.11939 -3.35537 0
M  V30 591 N 54.3119 6.29685 -3.10549 0
M  V30 592 H 59.1519 1.8891 -2.30472 0
M  V30 593 H 56.6889 0.923373 -1.14509 0
M  V30 594 H 58.6469 4.03479 -1.06116 0
M  V30 595 H 57.2769 3.21711 -0.264973 0
M  V30 596 H 56.3289 2.74103 -2.63764 0
M  V30 597 H 57.6409 3.74283 -3.29717 0
M  V30 598 H 56.7949 5.72135 -2.01857 0
M  V30 599 H 55.5339 4.71286 -1.25462 0
M  V30 600 H 54.5389 4.23268 -3.50891 0
M  V30 601 H 55.7639 5.27546 -4.27635 0
M  V30 602 H 53.7099 6.17306 -2.21967 0
M  V30 603 H 53.6269 6.46014 -3.92686 0
M  V30 604 H 54.8949 7.19722 -2.99367 0
M  V30 605 N 59.124 1.23083 0.984299 0
M  V30 606 C 60.54 0.992637 1.24975 0
M  V30 607 C 60.74 -0.308618 1.99123 0
M  V30 608 O 59.796 -1.02905 2.30579 0
M  V30 609 C 61.109 2.19698 2.05312 0
M  V30 610 C 62.657 2.24147 2.18465 0
M  V30 611 C 63.132 3.44157 3.02192 0
M  V30 612 N 64.623 3.44372 3.09777 0
M  V30 613 C 65.358 4.33886 3.74874 0
M  V30 614 N 64.854 5.3363 4.41827 0
M  V30 615 N 66.647 4.21639 3.71721 0
M  V30 616 H 58.798 2.06731 0.487453 0
M  V30 617 H 61.061 0.906339 0.277944 0
M  V30 618 H 60.767 3.1411 1.58201 0
M  V30 619 H 60.641 2.20465 3.06064 0
M  V30 620 H 63.028 1.30277 2.64786 0
M  V30 621 H 63.109 2.27415 1.17115 0
M  V30 622 H 62.753 4.38332 2.56568 0
M  V30 623 H 62.683 3.3813 4.03702 0
M  V30 624 H 65.174 2.72201 2.62135 0
M  V30 625 H 65.487 5.98196 4.89266 0
M  V30 626 H 63.832 5.37534 4.40548 0
M  V30 627 H 67.023 3.42962 3.18582 0
M  V30 628 H 67.196 4.91604 4.22173 0
M  V30 629 N 60.6021 -1.18246 1.0419 0
M  V30 630 C 61.8271 -1.92736 0.765996 0
M  V30 631 C 62.2521 -1.75728 -0.67091 0
M  V30 632 O 61.6101 -1.06825 -1.46486 0
M  V30 633 C 61.6581 -3.42148 1.13875 0
M  V30 634 O 60.7621 -4.11548 0.264954 0
M  V30 635 H 60.1031 -0.601238 0.281797 0
M  V30 636 H 62.6331 -1.49942 1.39207 0
M  V30 637 H 62.6431 -3.92858 1.1012 0
M  V30 638 H 61.3181 -3.53848 2.18551 0
M  V30 639 H 59.8951 -3.71137 0.362226 0
M  V30 640 N 62.0802 -0.821533 -1.34494 0
M  V30 641 C 63.0302 -0.214793 -2.26986 0
M  V30 642 C 64.0142 0.620125 -1.4847 0
M  V30 643 O 65.2062 0.474933 -1.70509 0
M  V30 644 C 62.3352 0.623566 -3.37589 0
M  V30 645 C 61.4212 -0.221904 -4.23519 0
M  V30 646 N 61.8122 -1.29223 -4.89014 0
M  V30 647 C 60.1102 -0.00600922 -4.46 0
M  V30 648 C 60.8112 -1.80965 -5.52835 0
M  V30 649 N 59.7872 -1.11376 -5.32068 0
M  V30 650 H 63.5892 -1.03354 -2.75128 0
M  V30 651 H 61.1032 -0.6642 -1.48196 0
M  V30 652 H 63.1002 1.0744 -4.02818 0
M  V30 653 H 61.7602 1.44049 -2.90998 0
M  V30 654 H 62.7712 -1.67502 -4.90065 0
M  V30 655 H 59.4482 0.77886 -4.10171 0
M  V30 656 H 60.8382 -2.70502 -6.15043 0
M  V30 657 N 63.5583 1.46682 -0.576371 0
M  V30 658 C 64.7833 2.07304 -0.0630475 0
M  V30 659 C 65.2083 1.42329 1.2298 0
M  V30 660 O 64.5663 0.504865 1.74129 0
M  V30 661 C 64.6143 3.60472 0.095895 0
M  V30 662 O 63.7183 3.95927 1.15394 0
M  V30 663 H 63.0593 0.661288 -0.0599463 0
M  V30 664 H 65.5893 1.88417 -0.797511 0
M  V30 665 H 65.5993 4.06865 0.304071 0
M  V30 666 H 64.2743 4.07157 -0.84828 0
M  V30 667 H 62.8513 3.61252 0.924724 0
M  V30 668 N 65.0364 0.313813 1.54444 0
M  V30 669 C 65.9994 -0.54379 2.22656 0
M  V30 670 C 66.9994 -1.05124 1.21678 0
M  V30 671 O 68.1894 -0.945225 1.46325 0
M  V30 672 C 65.3214 -1.75427 2.92298 0
M  V30 673 H 66.5144 0.0523599 2.99854 0
M  V30 674 H 64.0674 0.0647834 1.56166 0
M  V30 675 H 64.8024 -2.38991 2.19211 0
M  V30 676 H 64.5874 -1.39791 3.66334 0
M  V30 677 H 66.0774 -2.36325 3.44297 0
M  V30 678 N 66.5145 -1.57545 0.0417849 0
M  V30 679 C 67.4775 -2.09885 -0.92093 0
M  V30 680 C 68.4775 -1.01648 -1.24596 0
M  V30 681 O 69.6675 -1.27759 -1.1842 0
M  V30 682 C 66.7995 -2.57527 -2.23367 0
M  V30 683 H 67.9925 -2.96236 -0.467382 0
M  V30 684 H 65.5455 -1.5493 -0.206467 0
M  V30 685 H 66.2805 -1.74542 -2.73323 0
M  V30 686 H 66.0655 -3.36613 -2.01083 0
M  V30 687 H 67.5555 -2.98201 -2.92346 0
M  V30 688 N 67.9926 0.231505 -1.5589 0
M  V30 689 C 68.9556 1.27028 -1.90779 0
M  V30 690 C 69.9556 1.40308 -0.785507 0
M  V30 691 O 71.1456 1.38744 -1.05336 0
M  V30 692 C 68.2776 2.64566 -2.14983 0
M  V30 693 H 69.4706 0.973017 -2.83677 0
M  V30 694 H 67.0236 0.471486 -1.49019 0
M  V30 695 H 67.7586 2.99406 -1.24604 0
M  V30 696 H 67.5436 2.56305 -2.96732 0
M  V30 697 H 69.0336 3.39543 -2.43105 0
M  V30 698 N 69.4707 1.49531 0.497807 0
M  V30 699 C 70.4027 1.62559 1.61578 0
M  V30 700 C 71.4157 0.508134 1.54667 0
M  V30 701 O 72.6047 0.780309 1.60541 0
M  V30 702 C 69.7047 1.56925 3.00379 0
M  V30 703 C 68.8777 2.84257 3.3244 0
M  V30 704 C 67.9367 2.71632 4.50669 0
M  V30 705 O 66.9627 3.4557 4.52294 0
M  V30 706 N 68.1647 1.83391 5.5077 0
M  V30 707 H 70.9297 2.58981 1.50828 0
M  V30 708 H 68.4907 1.4666 0.685743 0
M  V30 709 H 70.4827 1.46129 3.77397 0
M  V30 710 H 69.0527 0.683483 3.05037 0
M  V30 711 H 68.2727 3.09381 2.44289 0
M  V30 712 H 69.5607 3.68666 3.5066 0
M  V30 713 H 68.9587 1.22583 5.52259 0
M  V30 714 H 67.5157 1.78515 6.26878 0
M  V30 715 N 70.9488 -0.749086 1.3866 0
M  V30 716 C 72.1968 -1.50535 1.34847 0
M  V30 717 C 72.5178 -1.94909 -0.0595016 0
M  V30 718 O 71.7878 -1.67973 -1.00806 0
M  V30 719 H 70.3678 -0.558395 0.49619 0
M  V30 720 H 73.0298 -0.890165 1.73384 0
M  V30 721 H 72.1258 -2.39413 2.00219 0
M  V30 722 N 72.4269 -1.23603 -0.977757 0
M  V30 723 C 73.6749 -1.06759 -1.71601 0
M  V30 724 C 73.9959 0.395929 -1.90938 0
M  V30 725 O 73.2659 1.28356 -1.47992 0
M  V30 726 H 71.8459 -0.392062 -0.635843 0
M  V30 727 H 74.5079 -1.55362 -1.1768 0
M  V30 728 H 73.6039 -1.55763 -2.70452 0
M  V30 729 N 73.905 1.17692 -1.04816 0
M  V30 730 C 74.838 2.20436 -0.590173 0
M  V30 731 C 75.816 1.58115 0.379244 0
M  V30 732 O 77 1.86228 0.291762 0
M  V30 733 C 74.127 3.38424 0.136817 0
M  V30 734 C 73.173 4.19176 -0.787023 0
M  V30 735 S 74.006 4.84815 -2.27409 0
M  V30 736 C 75.162 6.06195 -1.55817 0
M  V30 737 H 75.395 2.58944 -1.46067 0
M  V30 738 H 72.928 1.28246 -0.859784 0
M  V30 739 H 74.886 4.06798 0.550076 0
M  V30 740 H 73.547 2.98312 0.983299 0
M  V30 741 H 72.74 5.03499 -0.224681 0
M  V30 742 H 72.342 3.56219 -1.13947 0
M  V30 743 H 74.634 6.72078 -0.855387 0
M  V30 744 H 75.577 6.6695 -2.37873 0
M  V30 745 H 75.985 5.54701 -1.04722 0
M  V30 746 N 75.3831 0.828654 1.34056 0
M  V30 747 C 76.3151 0.212052 2.28217 0
M  V30 748 C 77.3281 -0.601362 1.51286 0
M  V30 749 O 78.5171 -0.430104 1.73241 0
M  V30 750 C 75.6171 -0.72088 3.31144 0
M  V30 751 C 74.7901 0.0509587 4.3737 0
M  V30 752 C 73.8491 -0.803766 5.20025 0
M  V30 753 O 72.8751 -0.246667 5.68665 0
M  V30 754 N 74.0771 -2.1227 5.40298 0
M  V30 755 H 76.8421 1.02105 2.81771 0
M  V30 756 H 74.4031 0.686153 1.46641 0
M  V30 757 H 76.3951 -1.29742 3.8334 0
M  V30 758 H 74.9651 -1.43061 2.77943 0
M  V30 759 H 74.1851 0.808831 3.85813 0
M  V30 760 H 75.4731 0.582065 5.0546 0
M  V30 761 H 74.8711 -2.59898 5.02464 0
M  V30 762 H 73.4281 -2.64796 5.95589 0
M  V30 763 N 76.8612 -1.46375 0.584142 0
M  V30 764 C 77.8242 -2.28784 -0.138108 0
M  V30 765 C 78.8242 -1.38471 -0.817462 0
M  V30 766 O 80.0142 -1.60833 -0.669199 0
M  V30 767 C 77.1462 -3.18892 -1.20503 0
M  V30 768 H 78.3392 -2.94117 0.586127 0
M  V30 769 H 75.8922 -1.52509 0.342171 0
M  V30 770 H 76.6272 -2.58309 -1.96079 0
M  V30 771 H 76.4122 -3.85388 -0.722384 0
M  V30 772 H 77.9022 -3.80914 -1.71155 0
M  V30 773 N 78.3393 -0.321999 -1.54275 0
M  V30 774 C 79.5643 0.285791 -2.05422 0
M  V30 775 C 79.9893 1.45124 -1.19669 0
M  V30 776 O 79.3473 1.80132 -0.205441 0
M  V30 777 C 79.3953 0.69956 -3.53749 0
M  V30 778 O 78.4993 1.8021 -3.70942 0
M  V30 779 H 77.8403 0.0518962 -0.661969 0
M  V30 780 H 80.3703 -0.469954 -1.9913 0
M  V30 781 H 80.3803 0.982649 -3.9599 0
M  V30 782 H 79.0553 -0.152864 -4.15619 0
M  V30 783 H 77.6323 1.51794 -3.40607 0
M  V30 784 N 79.8174 1.5752 -0.0501392 0
M  V30 785 C 80.7474 2.14502 0.922566 0
M  V30 786 C 81.7284 1.06642 1.3252 0
M  V30 787 O 82.9134 1.34577 1.4001 0
M  V30 788 C 80.0434 2.68916 2.19776 0
M  V30 789 C 78.9974 3.8175 1.93523 0
M  V30 790 C 78.3234 4.22677 3.27487 0
M  V30 791 C 79.6234 5.06932 1.25765 0
M  V30 792 H 81.3174 2.9603 0.447952 0
M  V30 793 H 78.8634 1.42401 0.214024 0
M  V30 794 H 80.8164 3.07419 2.88222 0
M  V30 795 H 79.5404 1.84578 2.69441 0
M  V30 796 H 78.1994 3.43718 1.27489 0
M  V30 797 H 77.8474 3.35291 3.74952 0
M  V30 798 H 77.5474 4.98725 3.1072 0
M  V30 799 H 79.0714 4.63779 3.97166 0
M  V30 800 H 80.4854 5.42888 1.84244 0
M  V30 801 H 78.8824 5.88116 1.19328 0
M  V30 802 H 79.9524 4.84337 0.233536 0
M  V30 803 N 81.2955 -0.223234 1.56011 0
M  V30 804 C 82.5435 -0.946003 1.78592 0
M  V30 805 C 82.8645 -1.84936 0.618349 0
M  V30 806 O 82.1345 -1.92473 -0.364833 0
M  V30 807 H 80.7145 -0.352298 0.658707 0
M  V30 808 H 83.3765 -0.235494 1.93472 0
M  V30 809 H 82.4725 -1.55381 2.70672 0
M  V30 810 N 82.7736 -1.49793 -0.48987 0
M  V30 811 C 83.7216 -1.67783 -1.61095 0
M  V30 812 C 84.7156 -0.543683 -1.60438 0
M  V30 813 O 85.9216 -0.723647 -1.64813 0
M  V30 814 H 82.2966 -0.529255 -0.534222 0
M  V30 815 H 84.2676 -2.61861 -1.43078 0
M  V30 816 C 83.0166 -1.77191 -2.99164 0
M  V30 817 H 82.3396 -2.63841 -3.0038 0
M  V30 818 H 83.7796 -1.93809 -3.77113 0
M  V30 819 C 82.2386 -0.519203 -3.32875 0
M  V30 820 O 82.7686 0.350124 -4.00171 0
M  V30 821 N 80.9746 -0.378816 -2.8812 0
M  V30 822 H 80.5216 -1.08725 -2.33531 0
M  V30 823 H 80.4796 0.458239 -3.11043 0
M  V30 824 N 84.2517 0.741722 -1.39055 0
M  V30 825 C 85.4767 1.53607 -1.39354 0
M  V30 826 C 85.9017 1.88096 0.0116905 0
M  V30 827 O 85.2597 1.5143 0.996924 0
M  V30 828 C 85.3077 2.80441 -2.26682 0
M  V30 829 O 84.4117 3.76088 -1.69208 0
M  V30 830 H 83.7527 0.464142 -0.474835 0
M  V30 831 H 86.2827 0.915665 -1.82967 0
M  V30 832 H 86.2927 3.29246 -2.40959 0
M  V30 833 H 84.9677 2.5467 -3.2881 0
M  V30 834 H 83.5447 3.34833 -1.64138 0
M  V30 835 N 85.7298 1.2412 0.971189 0
M  V30 836 C 86.6768 1.0305 2.06517 0
M  V30 837 C 87.6468 -0.0550666 1.66009 0
M  V30 838 O 88.8318 0.0988688 1.90544 0
M  V30 839 C 85.9718 0.637653 3.39158 0
M  V30 840 C 85.0848 1.79633 3.92882 0
M  V30 841 C 84.2198 1.34939 5.13775 0
M  V30 842 C 83.2588 2.47823 5.59687 0
M  V30 843 N 82.3958 2.04022 6.71803 0
M  V30 844 H 87.2358 1.96685 2.23873 0
M  V30 845 H 84.7728 0.979694 1.09729 0
M  V30 846 H 86.7308 0.390931 4.15364 0
M  V30 847 H 85.3608 -0.261693 3.21737 0
M  V30 848 H 84.4128 2.15681 3.13346 0
M  V30 849 H 85.7248 2.64466 4.22918 0
M  V30 850 H 84.8788 1.06134 5.97345 0
M  V30 851 H 83.6178 0.471557 4.85415 0
M  V30 852 H 82.6228 2.77392 4.74693 0
M  V30 853 H 83.8478 3.36158 5.90063 0
M  V30 854 H 81.7938 1.18632 6.45184 0
M  V30 855 H 81.7108 2.82409 7.01271 0
M  V30 856 H 82.9788 1.78347 7.58823 0
M  V30 857 N 87.2079 -1.17134 1.05439 0
M  V30 858 C 88.1409 -2.2012 0.601855 0
M  V30 859 C 89.1189 -1.58314 -0.370854 0
M  V30 860 O 90.3029 -1.8638 -0.281882 0
M  V30 861 C 87.4299 -3.38491 -0.118868 0
M  V30 862 C 86.4759 -4.18752 0.809242 0
M  V30 863 S 87.3089 -4.83602 2.29977 0
M  V30 864 C 88.4649 -6.0536 1.59029 0
M  V30 865 H 88.6979 -2.58165 1.47438 0
M  V30 866 H 86.2309 -1.27788 0.866573 0
M  V30 867 H 88.1889 -4.07084 -0.528495 0
M  V30 868 H 86.8499 -2.98829 -0.967465 0
M  V30 869 H 86.0429 -5.03373 0.251379 0
M  V30 870 H 85.6449 -3.5561 1.15835 0
M  V30 871 H 87.9369 -6.71615 0.891017 0
M  V30 872 H 88.8799 -6.65679 2.41407 0
M  V30 873 H 89.2879 -5.54138 1.07663 0
M  V30 874 N 88.686 -0.835752 -1.33615 0
M  V30 875 C 89.911 -0.442389 -2.02627 0
M  V30 876 C 90.336 0.947735 -1.62479 0
M  V30 877 O 89.694 1.61907 -0.815826 0
M  V30 878 C 89.742 -0.567216 -3.56111 0
M  V30 879 O 88.846 0.407799 -4.10379 0
M  V30 880 H 88.187 -0.180278 -0.639059 0
M  V30 881 H 90.717 -1.12972 -1.70583 0
M  V30 882 H 90.727 -0.447708 -4.05536 0
M  V30 883 H 89.402 -1.58103 -3.84677 0
M  V30 884 H 87.979 0.246107 -3.72087 0
M  V30 885 N 90.1641 1.46063 -0.591896 0
M  V30 886 C 91.4411 1.95595 -0.0137119 0
M  V30 887 C 91.8211 1.5345 1.4497 0
M  V30 888 O 91.1691 0.789543 2.14426 0
M  V30 889 C 91.3791 3.48453 -0.195373 0
M  V30 890 C 92.7271 4.24546 -0.0679765 0
M  V30 891 O 93.7511 3.55982 -0.124681 0
M  V30 892 O 92.6101 5.46467 0.0600579 0
M  V30 893 H 89.7041 0.825795 0.0446279 0
M  V30 894 H 92.2501 1.56303 -0.660859 0
M  V30 895 H 91.0221 3.72045 -1.21235 0
M  V30 896 H 90.6451 3.94597 0.487775 0
M  V30 897 N 91.6422 0.330177 1.54103 0
M  V30 898 C 92.8902 -0.269871 2.0029 0
M  V30 899 C 93.2112 -1.52133 1.21986 0
M  V30 900 O 92.4812 -1.93212 0.323438 0
M  V30 901 H 91.0612 -0.10271 0.739905 0
M  V30 902 H 93.7232 0.448249 1.89675 0
M  V30 903 H 92.8192 -0.52166 3.07709 0
M  V30 904 N 93.1203 -1.57491 0.0584922 0
M  V30 905 C 94.3973 -1.84346 -0.653918 0
M  V30 906 C 94.7773 -0.948355 -1.88599 0
M  V30 907 O 94.1253 -0.0112403 -2.28497 0
M  V30 908 C 94.3353 -3.34239 -1.00425 0
M  V30 909 C 95.6833 -4.01431 -1.38342 0
M  V30 910 O 96.7073 -3.38907 -1.09637 0
M  V30 911 O 95.5663 -5.11683 -1.91943 0
M  V30 912 H 92.6603 -0.761112 -0.323478 0
M  V30 913 H 95.2063 -1.6947 0.0884125 0
M  V30 914 H 93.9783 -3.91089 -0.128625 0
M  V30 915 H 93.6013 -3.54329 -1.80378 0
M  V30 916 N 94.5984 0.214957 -1.56127 0
M  V30 917 C 95.5464 1.28601 -1.93816 0
M  V30 918 C 96.5404 1.48175 -0.821016 0
M  V30 919 O 97.7464 1.49271 -1.0059 0
M  V30 920 H 94.1214 0.431302 -0.616022 0
M  V30 921 H 96.0924 0.940991 -2.83175 0
M  V30 922 C 94.8414 2.62779 -2.27689 0
M  V30 923 H 94.1644 2.48527 -3.13168 0
M  V30 924 H 95.6044 3.36517 -2.57939 0
M  V30 925 C 94.0634 3.18285 -1.10436 0
M  V30 926 O 94.5934 4.00002 -0.368945 0
M  V30 927 N 92.7994 2.7675 -0.886433 0
M  V30 928 H 92.3464 2.10404 -1.48619 0
M  V30 929 H 92.3044 3.14229 -0.103656 0
M  V30 930 N 96.0765 1.50051 0.48192 0
M  V30 931 C 96.9865 1.7089 1.60728 0
M  V30 932 C 98.0025 0.591788 1.63627 0
M  V30 933 O 99.1785 0.868817 1.81696 0
M  V30 934 C 96.2435 1.78855 2.97005 0
M  V30 935 C 95.3045 3.02537 3.04581 0
M  V30 936 C 94.5375 3.10112 4.34357 0
M  V30 937 O 94.7605 2.24765 5.24249 0
M  V30 938 O 93.6945 4.02747 4.47301 0
M  V30 939 H 97.5205 2.66264 1.46072 0
M  V30 940 H 95.1055 1.34018 0.660264 0
M  V30 941 H 96.9875 1.86336 3.77964 0
M  V30 942 H 95.6625 0.866628 3.11883 0
M  V30 943 H 94.5695 3.00563 2.22739 0
M  V30 944 H 95.9025 3.94272 2.94636 0
M  V30 945 N 97.5546 -0.734337 1.39446 0
M  V30 946 C 98.8316 -1.48579 1.27215 0
M  V30 947 C 99.2116 -2.1077 -0.117968 0
M  V30 948 O 98.5596 -1.98646 -1.12924 0
M  V30 949 C 98.7696 -2.53667 2.39696 0
M  V30 950 C 100.118 -3.20031 2.79044 0
M  V30 951 O 101.142 -2.6398 2.39151 0
M  V30 952 O 100.001 -4.21455 3.47905 0
M  V30 953 H 97.0946 -0.659816 0.49857 0
M  V30 954 H 99.6406 -0.768106 1.51322 0
M  V30 955 H 98.4126 -2.06096 3.32626 0
M  V30 956 H 98.0356 -3.32994 2.17258 0
M  V30 957 N 99.0327 -1.24633 -0.964593 0
M  V30 958 C 99.9627 -1.06611 -2.07741 0
M  V30 959 C 100.944 0.0218666 -1.70086 0
M  V30 960 O 102.129 -0.145793 -1.93652 0
M  V30 961 C 99.2587 -0.673444 -3.40708 0
M  V30 962 C 98.2127 -1.71054 -3.92332 0
M  V30 963 C 97.5387 -1.17285 -5.21678 0
M  V30 964 C 98.8387 -3.10718 -4.19824 0
M  V30 965 H 100.533 -1.99693 -2.23076 0
M  V30 966 H 98.0787 -0.96152 -1.07195 0
M  V30 967 H 100.032 -0.534345 -4.17998 0
M  V30 968 H 98.7557 0.293073 -3.25282 0
M  V30 969 H 97.4147 -1.83791 -3.17201 0
M  V30 970 H 97.0627 -0.196847 -5.02615 0
M  V30 971 H 96.7627 -1.86592 -5.57187 0
M  V30 972 H 98.2867 -1.04593 -6.01575 0
M  V30 973 H 99.7007 -3.01192 -4.87808 0
M  V30 974 H 98.0977 -3.77406 -4.66567 0
M  V30 975 H 99.1677 -3.58524 -3.26479 0
M  V30 976 N 100.511 1.16574 -1.06058 0
M  V30 977 C 101.461 2.18854 -0.63929 0
M  V30 978 C 102.445 1.57505 0.328798 0
M  V30 979 O 103.637 1.76408 0.144623 0
M  V30 980 C 100.766 3.43291 -0.0247203 0
M  V30 981 C 99.8518 4.11722 -1.01716 0
M  V30 982 N 100.243 4.55841 -2.19186 0
M  V30 983 C 98.5408 4.37872 -0.847569 0
M  V30 984 C 99.2418 5.08751 -2.82042 0
M  V30 985 N 98.2178 5.01489 -2.09784 0
M  V30 986 H 102.02 2.5068 -1.53417 0
M  V30 987 H 99.5338 1.32999 -0.931935 0
M  V30 988 H 101.531 4.15856 0.294915 0
M  V30 989 H 100.191 3.12954 0.865448 0
M  V30 990 H 101.202 4.49649 -2.56975 0
M  V30 991 H 97.8788 4.17499 -0.00918848 0
M  V30 992 H 99.2688 5.52944 -3.81709 0
M  V30 993 N 101.989 0.842826 1.3317 0
M  V30 994 C 103.236 0.440447 1.97652 0
M  V30 995 C 103.564 -1.00123 1.6675 0
M  V30 996 O 102.819 -1.7155 0.941761 0
M  V30 997 C 103.118 0.612607 3.52111 0
M  V30 998 C 102.784 2.02297 4.02972 0
M  V30 999 C 101.446 2.40874 4.16573 0
M  V30 1000 C 103.798 2.94402 4.30089 0
M  V30 1001 C 101.126 3.70852 4.54627 0
M  V30 1002 C 103.478 4.23865 4.69597 0
M  V30 1003 C 102.142 4.62392 4.81404 0
M  V30 1004 H 101.412 0.161171 0.72326 0
M  V30 1005 H 104.059 1.07061 1.58777 0
M  V30 1006 H 102.364 -0.100849 3.9167 0
M  V30 1007 H 104.061 0.2815 4.00011 0
M  V30 1008 H 100.651 1.71338 3.92863 0
M  V30 1009 H 104.835 2.65835 4.19101 0
M  V30 1010 H 100.091 4.00501 4.61962 0
M  V30 1011 H 104.265 4.95306 4.89536 0
M  V30 1012 H 101.892 5.63154 5.10648 0
M  V30 1013 N 103.467 -1.45747 0.599634 0
M  V30 1014 C 104.4 -2.27547 -0.172552 0
M  V30 1015 C 105.378 -1.36657 -0.881116 0
M  V30 1016 O 106.562 -1.66081 -0.891595 0
M  V30 1017 C 103.689 -3.14829 -1.24903 0
M  V30 1018 C 102.735 -4.21603 -0.644465 0
M  V30 1019 S 103.568 -5.32754 0.541606 0
M  V30 1020 C 104.724 -6.23604 -0.535656 0
M  V30 1021 H 104.957 -2.92691 0.521468 0
M  V30 1022 H 102.49 -1.49473 0.386947 0
M  V30 1023 H 104.448 -3.65675 -1.86527 0
M  V30 1024 H 103.109 -2.48965 -1.91508 0
M  V30 1025 H 102.302 -4.82566 -1.45417 0
M  V30 1026 H 101.904 -3.73857 -0.103534 0
M  V30 1027 H 104.196 -6.62519 -1.41686 0
M  V30 1028 H 105.139 -7.0809 0.0376246 0
M  V30 1029 H 105.547 -5.58103 -0.84741 0
M  V30 1030 N 104.945 -0.338344 -1.53925 0
M  V30 1031 C 106.222 0.314774 -1.93051 0
M  V30 1032 C 106.602 1.68669 -1.26941 0
M  V30 1033 O 105.95 2.24636 -0.418445 0
M  V30 1034 C 106.16 0.392249 -3.46789 0
M  V30 1035 C 107.508 0.645554 -4.19664 0
M  V30 1036 O 108.532 0.474575 -3.53024 0
M  V30 1037 O 107.391 0.976408 -5.37707 0
M  V30 1038 H 104.485 0.182598 -0.80659 0
M  V30 1039 H 107.031 -0.389141 -1.65178 0
M  V30 1040 H 105.803 -0.570702 -3.87116 0
M  V30 1041 H 105.426 1.14316 -3.80812 0
M  V30 1042 N 106.423 1.57458 -0.0668435 0
M  V30 1043 C 107.651 1.97624 0.612565 0
M  V30 1044 C 108.066 0.94502 1.63447 0
M  V30 1045 O 107.423 -0.0689276 1.8237 0
M  V30 1046 C 107.474 3.37869 1.28555 0
M  V30 1047 O 107.195 4.3704 0.304557 0
M  V30 1048 C 108.696 3.92882 2.05325 0
M  V30 1049 H 105.916 0.650045 0.166381 0
M  V30 1050 H 108.46 2.04035 -0.137782 0
M  V30 1051 H 106.615 3.3256 1.98702 0
M  V30 1052 H 107.029 5.18565 0.786779 0
M  V30 1053 H 108.503 4.93247 2.47812 0
M  V30 1054 H 108.98 3.29156 2.9078 0
M  V30 1055 H 109.586 4.01577 1.40056 0
M  V30 1056 N 107.901 -0.206675 1.56239 0
M  V30 1057 C 109.147 -0.930218 1.80208 0
M  V30 1058 C 109.48 -1.83387 0.638981 0
M  V30 1059 O 108.755 -1.91119 -0.361066 0
M  V30 1060 C 109.038 -1.75641 3.1436 0
M  V30 1061 C 108.891 -0.878257 4.41142 0
M  V30 1062 C 110.21 -2.73129 3.45092 0
M  V30 1063 H 107.329 -0.336742 0.655571 0
M  V30 1064 H 109.971 -0.198222 1.88963 0
M  V30 1065 H 108.121 -2.38048 3.07027 0
M  V30 1066 H 109.793 -0.269787 4.6051 0
M  V30 1067 H 108.036 -0.184385 4.33408 0
M  V30 1068 H 108.707 -1.49106 5.3148 0
M  V30 1069 H 111.183 -2.20856 3.52649 0
M  V30 1070 H 110.059 -3.28028 4.40101 0
M  V30 1071 H 110.32 -3.51606 2.68003 0
M  V30 1072 N 109.379 -1.50304 -0.473955 0
M  V30 1073 C 110.326 -1.68959 -1.57231 0
M  V30 1074 C 111.296 -0.530899 -1.57387 0
M  V30 1075 O 112.481 -0.761133 -1.74961 0
M  V30 1076 C 109.621 -1.7871 -2.95223 0
M  V30 1077 C 108.734 -3.06061 -3.04878 0
M  V30 1078 C 107.869 -3.06626 -4.33767 0
M  V30 1079 C 106.908 -4.28443 -4.37154 0
M  V30 1080 N 106.045 -4.26763 -5.5751 0
M  V30 1081 H 110.885 -2.6273 -1.40631 0
M  V30 1082 H 108.422 -1.30241 -0.683789 0
M  V30 1083 H 110.38 -1.82344 -3.75242 0
M  V30 1084 H 109.01 -0.883806 -3.10465 0
M  V30 1085 H 108.062 -3.11911 -2.17751 0
M  V30 1086 H 109.374 -3.96039 -3.0324 0
M  V30 1087 H 108.528 -3.08973 -5.22131 0
M  V30 1088 H 107.267 -2.14473 -4.3801 0
M  V30 1089 H 106.272 -4.2631 -3.47188 0
M  V30 1090 H 107.497 -5.2182 -4.34605 0
M  V30 1091 H 105.443 -3.37462 -5.62544 0
M  V30 1092 H 105.36 -5.10507 -5.57601 0
M  V30 1093 H 106.628 -4.33253 -6.48006 0
M  V30 1094 N 110.857 0.726932 -1.39834 0
M  V30 1095 C 112.105 1.4837 -1.37225 0
M  V30 1096 C 112.426 1.94979 0.0284857 0
M  V30 1097 O 111.696 1.69555 0.981213 0
M  V30 1098 H 110.276 0.55043 -0.505011 0
M  V30 1099 H 112.938 0.862468 -1.74778 0
M  V30 1100 H 112.034 2.36198 -2.04003 0
M  V30 1101 N 112.336 1.25143 0.95797 0
M  V30 1102 C 113.561 1.12521 1.74223 0
M  V30 1103 C 113.986 -0.317402 1.85403 0
M  V30 1104 O 113.344 -1.2299 1.33204 0
M  V30 1105 C 113.392 1.78062 3.1357 0
M  V30 1106 O 112.496 1.058 3.98598 0
M  V30 1107 H 111.837 0.39304 0.535178 0
M  V30 1108 H 114.367 1.65641 1.201 0
M  V30 1109 H 114.377 1.84213 3.64046 0
M  V30 1110 H 113.052 2.83021 3.04749 0
M  V30 1111 H 111.629 1.07506 3.57067 0
M  V30 1112 N 113.814 -1.1601 1.06675 0
M  V30 1113 C 115.091 -1.82679 0.699114 0
M  V30 1114 C 115.471 -1.94559 -0.819137 0
M  V30 1115 O 114.819 -1.49169 -1.73092 0
M  V30 1116 C 115.029 -3.19445 1.40555 0
M  V30 1117 C 116.377 -3.95171 1.55323 0
M  V30 1118 O 117.401 -3.28976 1.36577 0
M  V30 1119 O 116.26 -5.13833 1.86112 0
M  V30 1120 H 113.354 -0.788954 0.247951 0
M  V30 1121 H 115.9 -1.23179 1.16726 0
M  V30 1122 H 114.672 -3.05856 2.44065 0
M  V30 1123 H 114.295 -3.86625 0.927733 0
M  V30 1124 N 115.292 -0.849877 -1.32721 0
M  V30 1125 C 116.538 -0.460855 -1.9811 0
M  V30 1126 C 116.893 0.971716 -1.66059 0
M  V30 1127 O 116.186 1.67184 -0.935944 0
M  V30 1128 C 116.38 -0.631272 -3.51781 0
M  V30 1129 C 116.209 -2.07886 -3.98765 0
M  V30 1130 C 114.979 -2.71637 -4.26077 0
M  V30 1131 C 117.177 -3.04889 -4.14182 0
M  V30 1132 N 115.159 -4.07356 -4.59276 0
M  V30 1133 C 116.53 -4.25583 -4.50865 0
M  V30 1134 C 118.585 -3.01148 -3.96503 0
M  V30 1135 C 117.288 -5.43027 -4.71714 0
M  V30 1136 C 119.314 -4.17832 -4.18533 0
M  V30 1137 C 118.676 -5.37284 -4.55528 0
M  V30 1138 H 114.775 -0.217283 -0.751207 0
M  V30 1139 H 117.359 -1.10026 -1.60631 0
M  V30 1140 H 115.53 -0.0215966 -3.88394 0
M  V30 1141 H 117.262 -0.212614 -4.04141 0
M  V30 1142 H 114.017 -2.22705 -4.17971 0
M  V30 1143 H 114.441 -4.77351 -4.80068 0
M  V30 1144 H 119.083 -2.0992 -3.67006 0
M  V30 1145 H 116.801 -6.34791 -5.00066 0
M  V30 1146 H 120.387 -4.16368 -4.06361 0
M  V30 1147 H 119.267 -6.26071 -4.72234 0
M  V30 1148 N 116.77 1.45427 -0.607355 0
M  V30 1149 C 118.018 2.01841 -0.102253 0
M  V30 1150 C 118.339 1.47832 1.27164 0
M  V30 1151 O 117.609 0.672497 1.83995 0
M  V30 1152 H 116.189 0.746188 -0.0348101 0
M  V30 1153 H 118.851 1.78229 -0.7887 0
M  V30 1154 H 117.947 3.12057 -0.0518585 0
M  V30 1155 N 118.248 0.346503 1.53744 0
M  V30 1156 C 119.488 -0.249413 2.02873 0
M  V30 1157 C 119.852 -1.47532 1.22876 0
M  V30 1158 O 121.053 -2.1456 1.61918 0
M  V30 1159 C 119.324 -0.552909 3.53097 0
M  V30 1160 S 120.883 -1.12521 4.24128 0
M  V30 1161 H 117.701 -0.074042 0.707134 0
M  V30 1162 H 120.303 0.48495 1.8939 0
M  V30 1163 H 119.007 0.347083 4.0893 0
M  V30 1164 H 118.538 -1.31686 3.70705 0
M  V30 1165 H 120.553 -2.41075 4.33702 0
M  V30 1166 N 119.726 -1.57421 0.075193 0
M  V30 1167 C 121.003 -1.85029 -0.634329 0
M  V30 1168 C 121.383 -0.968305 -1.87582 0
M  V30 1169 O 120.731 -0.0354749 -2.28472 0
M  V30 1170 C 120.941 -3.35286 -0.968742 0
M  V30 1171 C 122.289 -4.02875 -1.34077 0
M  V30 1172 O 123.313 -3.40051 -1.06037 0
M  V30 1173 O 122.172 -5.13691 -1.86506 0
M  V30 1174 H 119.266 -0.7645 -0.315387 0
M  V30 1175 H 121.812 -1.69366 0.106382 0
M  V30 1176 H 120.584 -3.91203 -0.0871376 0
M  V30 1177 H 120.207 -3.56223 -1.7661 0
M  V30 1178 N 121.204 0.198386 -1.56346 0
M  V30 1179 C 122.136 1.26987 -1.90806 0
M  V30 1180 C 123.149 1.41877 -0.798419 0
M  V30 1181 O 124.338 1.42362 -1.07682 0
M  V30 1182 C 121.438 2.64246 -2.12196 0
M  V30 1183 C 120.611 2.71007 -3.43328 0
M  V30 1184 C 119.67 3.89439 -3.5387 0
M  V30 1185 O 118.696 3.76695 -4.26719 0
M  V30 1186 N 119.898 5.04752 -2.86715 0
M  V30 1187 H 122.663 0.977433 -2.83313 0
M  V30 1188 H 120.224 0.388322 -1.57174 0
M  V30 1189 H 122.216 3.41896 -2.1654 0
M  V30 1190 H 120.786 2.85992 -1.26204 0
M  V30 1191 H 120.006 1.79657 -3.50881 0
M  V30 1192 H 121.294 2.72512 -4.29668 0
M  V30 1193 H 120.692 5.18004 -2.2735 0
M  V30 1194 H 119.249 5.8036 -2.96691 0
M  V30 1195 N 122.682 1.50554 0.465978 0
M  V30 1196 C 123.629 1.6979 1.56333 0
M  V30 1197 C 124.599 0.539239 1.57103 0
M  V30 1198 O 125.784 0.770401 1.74555 0
M  V30 1199 C 122.924 1.80273 2.94271 0
M  V30 1200 C 122.037 3.07674 3.0325 0
M  V30 1201 C 121.172 3.08922 4.32135 0
M  V30 1202 C 120.211 4.30755 4.34875 0
M  V30 1203 N 119.348 4.29714 5.55239 0
M  V30 1204 H 124.188 2.63472 1.39235 0
M  V30 1205 H 121.725 1.30602 0.676873 0
M  V30 1206 H 123.683 1.84332 3.74269 0
M  V30 1207 H 122.313 0.900258 3.09992 0
M  V30 1208 H 121.365 3.13062 2.16094 0
M  V30 1209 H 122.677 3.97642 3.01135 0
M  V30 1210 H 121.831 3.11738 5.20485 0
M  V30 1211 H 120.57 2.16792 4.36866 0
M  V30 1212 H 119.575 4.28146 3.44922 0
M  V30 1213 H 120.8 5.24117 4.31831 0
M  V30 1214 H 118.746 3.4044 5.60746 0
M  V30 1215 H 118.663 5.13456 5.54886 0
M  V30 1216 H 119.931 4.36683 6.457 0
M  V30 1217 N 124.16 -0.719506 1.40217 0
M  V30 1218 C 125.406 -1.48152 1.38488 0
M  V30 1219 C 125.739 -1.94195 -0.0141867 0
M  V30 1220 O 125.014 -1.67884 -0.982096 0
M  V30 1221 C 125.297 -2.71035 2.37091 0
M  V30 1222 C 125.15 -2.30912 3.86005 0
M  V30 1223 C 126.469 -3.73182 2.33288 0
M  V30 1224 H 123.588 -0.537395 0.504357 0
M  V30 1225 H 126.23 -0.821472 1.71324 0
M  V30 1226 H 124.38 -3.27352 2.0922 0
M  V30 1227 H 126.052 -1.80107 4.24687 0
M  V30 1228 H 124.295 -1.62958 4.02029 0
M  V30 1229 H 124.966 -3.18978 4.50508 0
M  V30 1230 H 127.442 -3.26485 2.57966 0
M  V30 1231 H 126.318 -4.56806 3.04334 0
M  V30 1232 H 126.579 -4.21202 1.34317 0
M  V30 1233 N 125.638 -1.25649 -0.95132 0
M  V30 1234 C 126.601 -1.06399 -2.03007 0
M  V30 1235 C 127.601 -0.0156794 -1.60792 0
M  V30 1236 O 128.791 -0.25817 -1.72276 0
M  V30 1237 C 125.923 -0.616184 -3.35285 0
M  V30 1238 H 127.116 -2.02164 -2.21517 0
M  V30 1239 H 124.669 -1.08103 -1.12887 0
M  V30 1240 H 125.404 0.343917 -3.22471 0
M  V30 1241 H 125.189 -1.37301 -3.67275 0
M  V30 1242 H 126.679 -0.503032 -4.14559 0
M  V30 1243 N 127.117 1.15442 -1.07289 0
M  V30 1244 C 128.533 1.38201 -0.798288 0
M  V30 1245 C 128.733 1.92429 0.597769 0
M  V30 1246 O 127.789 2.12962 1.3566 0
M  V30 1247 C 129.102 2.35357 -1.87156 0
M  V30 1248 C 130.65 2.49021 -1.89624 0
M  V30 1249 C 131.125 3.49468 -2.96034 0
M  V30 1250 N 132.616 3.57003 -2.95132 0
M  V30 1251 C 133.351 4.34543 -3.74112 0
M  V30 1252 N 132.847 5.15421 -4.6294 0
M  V30 1253 N 134.64 4.29625 -3.62462 0
M  V30 1254 H 126.791 0.78584 -1.97328 0
M  V30 1255 H 129.054 0.408065 -0.855679 0
M  V30 1256 H 128.76 2.02626 -2.87464 0
M  V30 1257 H 128.634 3.35129 -1.73114 0
M  V30 1258 H 131.021 2.81051 -0.899687 0
M  V30 1259 H 131.102 1.4925 -2.07745 0
M  V30 1260 H 130.746 3.18173 -3.95889 0
M  V30 1261 H 130.676 4.48992 -2.75161 0
M  V30 1262 H 133.167 2.99276 -2.30743 0
M  V30 1263 H 133.48 5.7183 -5.19837 0
M  V30 1264 H 131.825 5.14729 -4.66989 0
M  V30 1265 H 135.016 3.65505 -2.92444 0
M  V30 1266 H 135.189 4.89807 -4.24256 0
M  V30 1267 N 128.595 0.856903 1.32268 0
M  V30 1268 C 129.528 0.247937 2.26849 0
M  V30 1269 C 130.506 -0.615382 1.50505 0
M  V30 1270 O 131.69 -0.571689 1.79622 0
M  V30 1271 C 128.817 -0.650093 3.32403 0
M  V30 1272 C 127.863 0.140138 4.2627 0
M  V30 1273 S 128.696 1.51004 5.13769 0
M  V30 1274 C 129.852 0.61778 6.22844 0
M  V30 1275 H 130.085 1.04971 2.78152 0
M  V30 1276 H 127.618 0.654665 1.39834 0
M  V30 1277 H 129.576 -1.16256 3.93694 0
M  V30 1278 H 128.237 -1.4257 2.7988 0
M  V30 1279 H 127.43 -0.543945 5.01056 0
M  V30 1280 H 127.032 0.584267 3.69408 0
M  V30 1281 H 129.324 -0.177053 6.77269 0
M  V30 1282 H 130.267 1.33636 6.95375 0
M  V30 1283 H 130.675 0.191124 5.64176 0
M  V30 1284 N 130.073 -1.45103 0.615059 0
M  V30 1285 C 131.32 -2.02183 0.113179 0
M  V30 1286 C 131.648 -1.48249 -1.25906 0
M  V30 1287 O 130.903 -0.650265 -1.84581 0
M  V30 1288 C 131.202 -3.57386 0.0318797 0
M  V30 1289 C 130.868 -4.30505 1.34077 0
M  V30 1290 C 129.53 -4.50197 1.69929 0
M  V30 1291 C 131.882 -4.72238 2.20546 0
M  V30 1292 C 129.21 -5.08881 2.91988 0
M  V30 1293 C 131.562 -5.32272 3.41861 0
M  V30 1294 C 130.226 -5.50187 3.77956 0
M  V30 1295 H 129.496 -0.739842 0.0414151 0
M  V30 1296 H 132.143 -1.74073 0.798168 0
M  V30 1297 H 130.448 -3.84817 -0.736409 0
M  V30 1298 H 132.145 -3.99264 -0.372712 0
M  V30 1299 H 128.735 -4.15496 1.05173 0
M  V30 1300 H 132.919 -4.56751 1.94146 0
M  V30 1301 H 128.175 -5.20939 3.2005 0
M  V30 1302 H 132.349 -5.63563 4.09109 0
M  V30 1303 H 129.976 -5.95427 4.72622 0
M  V30 1304 N 131.551 -0.354651 -1.53558 0
M  V30 1305 C 132.797 0.238797 -2.01389 0
M  V30 1306 C 133.13 1.49309 -1.2418 0
M  V30 1307 O 132.405 1.91638 -0.332457 0
M  V30 1308 C 132.688 0.541771 -3.56001 0
M  V30 1309 C 132.541 -0.725388 -4.43912 0
M  V30 1310 C 133.86 1.34685 -4.18984 0
M  V30 1311 H 130.979 0.0853177 -0.732045 0
M  V30 1312 H 133.621 -0.477384 -1.83905 0
M  V30 1313 H 131.771 1.15189 -3.71031 0
M  V30 1314 H 133.443 -1.36313 -4.407 0
M  V30 1315 H 131.686 -1.34801 -4.12324 0
M  V30 1316 H 132.357 -0.468505 -5.50008 0
M  V30 1317 H 134.833 0.830837 -4.07721 0
M  V30 1318 H 133.709 1.52759 -5.27215 0
M  V30 1319 H 133.97 2.35221 -3.74331 0
M  V30 1320 N 133.029 1.57378 -0.0835403 0
M  V30 1321 C 133.977 2.14602 0.89714 0
M  V30 1322 C 134.971 1.08589 1.30018 0
M  V30 1323 O 136.177 1.26952 1.27606 0
M  V30 1324 H 132.552 0.686346 0.3073 0
M  V30 1325 H 134.523 2.95845 0.38969 0
M  V30 1326 C 133.272 2.73188 2.15089 0
M  V30 1327 H 132.595 3.54442 1.84962 0
M  V30 1328 H 134.035 3.1681 2.81793 0
M  V30 1329 C 132.494 1.68517 2.91725 0
M  V30 1330 O 133.024 1.11718 3.85852 0
M  V30 1331 N 131.23 1.39277 2.55049 0
M  V30 1332 H 130.777 1.85655 1.78577 0
M  V30 1333 H 130.735 0.694791 3.06627 0
M  V30 1334 N 134.507 -0.190092 1.56449 0
M  V30 1335 C 135.735 -0.925772 1.85033 0
M  V30 1336 C 136.15 -1.76638 0.666658 0
M  V30 1337 O 135.507 -1.78822 -0.364565 0
M  V30 1338 C 135.558 -1.81786 3.12468 0
M  V30 1339 O 135.279 -1.01118 4.26271 0
M  V30 1340 C 136.78 -2.6648 3.54265 0
M  V30 1341 H 134 -0.269872 0.614337 0
M  V30 1342 H 136.544 -0.195837 2.0356 0
M  V30 1343 H 134.699 -2.50136 2.95822 0
M  V30 1344 H 135.113 -1.61956 4.98869 0
M  V30 1345 H 136.587 -3.24722 4.46385 0
M  V30 1346 H 137.064 -3.40434 2.77491 0
M  V30 1347 H 137.67 -2.03493 3.73458 0
M  V30 1348 N 135.985 -1.50799 -0.457987 0
M  V30 1349 C 136.948 -1.7005 -1.53674 0
M  V30 1350 C 137.948 -0.570881 -1.50325 0
M  V30 1351 O 139.138 -0.838126 -1.52712 0
M  V30 1352 C 136.27 -1.73788 -2.93276 0
M  V30 1353 H 137.463 -2.66306 -1.37917 0
M  V30 1354 H 135.016 -1.40477 -0.685271 0
M  V30 1355 H 135.751 -0.792717 -3.14462 0
M  V30 1356 H 135.536 -2.55864 -2.97113 0
M  V30 1357 H 137.026 -1.90591 -3.71571 0
M  V30 1358 N 137.463 0.71206 -1.40597 0
M  V30 1359 C 138.874 1.29135 -1.34837 0
M  V30 1360 C 139.225 1.96186 -0.0235395 0
M  V30 1361 O 138.35 1.97768 0.878444 0
M  V30 1362 C 138.945 2.34827 -2.44217 0
M  V30 1363 C 137.504 2.88371 -2.41907 0
M  V30 1364 C 136.651 1.62202 -2.24913 0
M  V30 1365 H 139.602 0.507944 -1.50352 0
M  V30 1366 H 139.623 3.15749 -2.12327 0
M  V30 1367 H 139.135 1.85996 -3.40627 0
M  V30 1368 H 137.236 3.41422 -1.49204 0
M  V30 1369 H 137.349 3.39925 -3.37621 0
M  V30 1370 H 135.713 1.874 -1.72492 0
M  V30 1371 H 136.496 1.15391 -3.23326 0
M  V30 1372 N 138.941 1.26152 0.944643 0
M  V30 1373 C 139.888 1.07408 2.04285 0
M  V30 1374 C 140.858 -0.0198413 1.66088 0
M  V30 1375 O 142.043 0.139264 1.90291 0
M  V30 1376 C 139.183 0.70945 3.37729 0
M  V30 1377 C 138.296 1.87926 3.88983 0
M  V30 1378 C 137.431 1.45807 5.10797 0
M  V30 1379 C 136.47 2.5964 5.54305 0
M  V30 1380 N 135.607 2.18226 6.67324 0
M  V30 1381 H 140.447 2.01389 2.1965 0
M  V30 1382 H 137.984 1.00275 1.07626 0
M  V30 1383 H 139.942 0.478948 4.14442 0
M  V30 1384 H 138.572 -0.193389 3.2222 0
M  V30 1385 H 137.624 2.22279 3.08701 0
M  V30 1386 H 138.936 2.73377 4.17213 0
M  V30 1387 H 138.09 1.18781 5.94959 0
M  V30 1388 H 136.829 0.574414 4.84305 0
M  V30 1389 H 135.834 2.87399 4.68702 0
M  V30 1390 H 137.059 3.48599 5.828 0
M  V30 1391 H 135.005 1.3229 6.42523 0
M  V30 1392 H 134.922 2.97221 6.95123 0
M  V30 1393 H 136.19 1.94403 7.54869 0
M  V30 1394 N 140.419 -1.14872 1.07899 0
M  V30 1395 C 141.382 -2.17986 0.708161 0
M  V30 1396 C 142.382 -1.58775 -0.25442 0
M  V30 1397 O 143.572 -1.74166 -0.034645 0
M  V30 1398 C 140.704 -3.40871 0.0446929 0
M  V30 1399 H 141.897 -2.52306 1.62116 0
M  V30 1400 H 139.45 -1.2943 0.876218 0
M  V30 1401 H 140.185 -3.12124 -0.880281 0
M  V30 1402 H 139.97 -3.8511 0.737091 0
M  V30 1403 H 141.46 -4.17121 -0.19991 0
M  V30 1404 N 141.898 -0.863906 -1.31812 0
M  V30 1405 C 143.147 -0.46801 -1.96195 0
M  V30 1406 C 143.46 0.983474 -1.69077 0
M  V30 1407 O 144.666 1.48523 -2.27273 0
M  V30 1408 C 143.122 -0.785995 -3.51212 0
M  V30 1409 C 142.73 -2.25383 -3.87178 0
M  V30 1410 C 144.474 -0.458274 -4.22019 0
M  V30 1411 C 142.381 -2.51455 -5.3528 0
M  V30 1412 H 141.311 -0.171283 -0.734287 0
M  V30 1413 H 143.962 -1.05597 -1.50072 0
M  V30 1414 H 142.344 -0.127359 -3.95795 0
M  V30 1415 H 143.518 -2.95502 -3.53575 0
M  V30 1416 H 141.833 -2.54698 -3.2942 0
M  V30 1417 H 144.43 -0.630369 -5.30971 0
M  V30 1418 H 144.773 0.600834 -4.11941 0
M  V30 1419 H 145.306 -1.07319 -3.8305 0
M  V30 1420 H 142.045 -3.56025 -5.50387 0
M  V30 1421 H 141.565 -1.85923 -5.70257 0
M  V30 1422 H 143.244 -2.35874 -6.02472 0
M  V30 1423 N 143.376 1.44774 -0.622745 0
M  V30 1424 C 144.792 1.56986 -0.287652 0
M  V30 1425 C 144.992 1.61167 1.20944 0
M  V30 1426 O 144.048 1.55015 1.99315 0
M  V30 1427 C 145.361 2.84551 -0.972188 0
M  V30 1428 C 146.909 2.9825 -0.949536 0
M  V30 1429 C 147.384 4.28605 -1.61437 0
M  V30 1430 N 148.875 4.35399 -1.58057 0
M  V30 1431 C 149.61 5.34964 -2.064 0
M  V30 1432 N 149.106 6.40981 -2.62897 0
M  V30 1433 N 150.899 5.26419 -1.97078 0
M  V30 1434 H 143.05 1.40304 -1.59463 0
M  V30 1435 H 145.313 0.671794 -0.668878 0
M  V30 1436 H 145.019 2.87417 -2.02693 0
M  V30 1437 H 144.893 3.73807 -0.504771 0
M  V30 1438 H 147.28 2.94941 0.0967067 0
M  V30 1439 H 147.361 2.10364 -1.45536 0
M  V30 1440 H 147.005 4.32672 -2.66002 0
M  V30 1441 H 146.935 5.15334 -1.08344 0
M  V30 1442 H 149.426 3.59397 -1.16801 0
M  V30 1443 H 149.739 7.13225 -2.97539 0
M  V30 1444 H 148.084 6.4169 -2.66943 0
M  V30 1445 H 151.275 4.42504 -1.52669 0
M  V30 1446 H 151.448 6.03861 -2.35066 0
M  V30 1447 N 144.854 0.36279 1.53368 0
M  V30 1448 C 145.764 -0.492994 2.29362 0
M  V30 1449 C 146.78 -1.09507 1.35219 0
M  V30 1450 O 147.956 -1.10662 1.68273 0
M  V30 1451 C 145.021 -1.61855 3.066 0
M  V30 1452 C 144.082 -1.04429 4.16405 0
M  V30 1453 C 143.315 -2.11621 4.89951 0
M  V30 1454 O 143.538 -3.32684 4.63333 0
M  V30 1455 O 142.472 -1.74835 5.75948 0
M  V30 1456 H 146.298 0.125331 3.03441 0
M  V30 1457 H 143.883 0.127253 1.48857 0
M  V30 1458 H 145.765 -2.27302 3.54841 0
M  V30 1459 H 144.44 -2.22233 2.3536 0
M  V30 1460 H 143.347 -0.353819 3.72423 0
M  V30 1461 H 144.68 -0.485113 4.89804 0
M  V30 1462 N 146.332 -1.57332 0.0918853 0
M  V30 1463 C 147.262 -2.16872 -0.865371 0
M  V30 1464 C 148.243 -1.10118 -1.29646 0
M  V30 1465 O 149.428 -1.38242 -1.36392 0
M  V30 1466 C 146.558 -2.74649 -2.12569 0
M  V30 1467 C 145.512 -3.86747 -1.83333 0
M  V30 1468 C 144.838 -4.31212 -3.16166 0
M  V30 1469 C 146.138 -5.10089 -1.1228 0
M  V30 1470 H 147.832 -2.97114 -0.369307 0
M  V30 1471 H 145.378 -1.42918 -0.176194 0
M  V30 1472 H 147.331 -3.14952 -2.7997 0
M  V30 1473 H 146.055 -1.91657 -2.64452 0
M  V30 1474 H 144.714 -3.46978 -1.18331 0
M  V30 1475 H 144.362 -3.45115 -3.6593 0
M  V30 1476 H 144.062 -5.06788 -2.97388 0
M  V30 1477 H 145.586 -4.74146 -3.84731 0
M  V30 1478 H 147 -5.47582 -1.69785 0
M  V30 1479 H 145.397 -5.91073 -1.03693 0
M  V30 1480 H 146.467 -4.84786 -0.105041 0
M  V30 1481 N 147.81 0.181792 -1.56548 0
M  V30 1482 C 148.773 1.20894 -1.94724 0
M  V30 1483 C 149.773 1.37738 -0.829747 0
M  V30 1484 O 150.963 1.35323 -1.09697 0
M  V30 1485 C 148.095 2.57593 -2.23291 0
M  V30 1486 H 149.288 0.882275 -2.86629 0
M  V30 1487 H 146.841 0.423838 -1.50444 0
M  V30 1488 H 147.576 2.95291 -1.34067 0
M  V30 1489 H 147.361 2.46735 -3.04736 0
M  V30 1490 H 148.851 3.31637 -2.53785 0
M  V30 1491 N 149.288 1.51039 0.449983 0
M  V30 1492 C 150.251 1.70863 1.5277 0
M  V30 1493 C 151.251 0.578846 1.5002 0
M  V30 1494 O 152.441 0.846213 1.52266 0
M  V30 1495 C 149.573 1.75341 2.9235 0
M  V30 1496 H 150.766 2.67034 1.36502 0
M  V30 1497 H 148.319 1.40838 0.677812 0
M  V30 1498 H 149.054 0.809383 3.14037 0
M  V30 1499 H 148.839 2.57436 2.95752 0
M  V30 1500 H 150.329 1.92559 3.70555 0
M  V30 1501 N 150.766 -0.704594 1.40972 0
M  V30 1502 C 152.012 -1.46546 1.41053 0
M  V30 1503 C 152.367 -1.92393 0.0159714 0
M  V30 1504 O 151.66 -1.66017 -0.956506 0
M  V30 1505 C 151.854 -2.698 2.34399 0
M  V30 1506 C 151.683 -2.36008 3.82793 0
M  V30 1507 C 150.453 -2.26812 4.51536 0
M  V30 1508 C 152.651 -1.99565 4.74003 0
M  V30 1509 N 150.633 -1.8581 5.85105 0
M  V30 1510 C 152.004 -1.69251 5.96451 0
M  V30 1511 C 154.059 -1.86296 4.61734 0
M  V30 1512 C 152.762 -1.27003 7.07999 0
M  V30 1513 C 154.788 -1.45452 5.73234 0
M  V30 1514 C 154.15 -1.16043 6.94776 0
M  V30 1515 H 150.249 -0.533896 0.571383 0
M  V30 1516 H 152.833 -0.816061 1.76773 0
M  V30 1517 H 151.004 -3.32473 2.00789 0
M  V30 1518 H 152.736 -3.36214 2.25261 0
M  V30 1519 H 149.491 -2.44913 4.05357 0
M  V30 1520 H 149.915 -1.67817 6.55871 0
M  V30 1521 H 154.557 -2.0769 3.68273 0
M  V30 1522 H 152.275 -1.04353 8.01334 0
M  V30 1523 H 155.861 -1.35748 5.65742 0
M  V30 1524 H 154.741 -0.84915 7.79589 0
M  V30 1525 N 152.244 -1.26651 -0.937939 0
M  V30 1526 C 153.492 -1.12165 -1.68118 0
M  V30 1527 C 153.813 0.334983 -1.92101 0
M  V30 1528 O 153.083 1.23583 -1.52 0
M  V30 1529 H 151.663 -0.412093 -0.623048 0
M  V30 1530 H 154.325 -1.59027 -1.12678 0
M  V30 1531 H 153.421 -1.64289 -2.6536 0
M  V30 1532 N 153.722 1.14298 -1.08507 0
M  V30 1533 C 154.968 1.85633 -0.816581 0
M  V30 1534 C 155.301 1.82784 0.656021 0
M  V30 1535 O 154.576 1.25926 1.48233 0
M  V30 1536 C 154.859 3.34223 -1.34041 0
M  V30 1537 C 154.712 3.45639 -2.87843 0
M  V30 1538 C 156.031 4.29356 -0.9665 0
M  V30 1539 H 153.15 0.67402 -0.298104 0
M  V30 1540 H 155.792 1.34214 -1.34487 0
M  V30 1541 H 153.942 3.78144 -0.89104 0
M  V30 1542 H 155.614 3.10498 -3.41158 0
M  V30 1543 H 153.857 2.86817 -3.25451 0
M  V30 1544 H 154.528 4.50089 -3.19569 0
M  V30 1545 H 157.004 3.93457 -1.35391 0
M  V30 1546 H 155.88 5.3178 -1.3602 0
M  V30 1547 H 156.141 4.41919 0.126362 0
M  V30 1548 N 155.201 0.870884 1.31352 0
M  V30 1549 C 156.612 0.534714 1.78879 0
M  V30 1550 C 156.963 -0.948423 1.71754 0
M  V30 1551 O 156.088 -1.74055 1.28584 0
M  V30 1552 C 156.683 0.963839 3.24801 0
M  V30 1553 C 155.242 0.679311 3.70219 0
M  V30 1554 C 154.389 1.15465 2.52117 0
M  V30 1555 H 157.34 1.05651 1.18421 0
M  V30 1556 H 157.361 0.286892 3.79417 0
M  V30 1557 H 156.873 2.04332 3.29955 0
M  V30 1558 H 154.974 -0.388769 3.70566 0
M  V30 1559 H 155.087 1.25698 4.62317 0
M  V30 1560 H 153.451 0.574383 2.48139 0
M  V30 1561 H 154.234 2.24157 2.60016 0
M  V30 1562 N 156.679 -1.44442 0.630414 0
M  V30 1563 C 157.925 -2.02894 0.143332 0
M  V30 1564 C 158.28 -1.48697 -1.22094 0
M  V30 1565 O 157.573 -0.661171 -1.79831 0
M  V30 1566 C 157.767 -3.57332 0.0697835 0
M  V30 1567 C 157.596 -4.26512 1.42539 0
M  V30 1568 C 156.366 -4.63516 2.01198 0
M  V30 1569 C 158.564 -4.57004 2.35907 0
M  V30 1570 N 156.546 -5.17661 3.30001 0
M  V30 1571 C 157.917 -5.12223 3.49324 0
M  V30 1572 C 159.972 -4.38955 2.34995 0
M  V30 1573 C 158.675 -5.51295 4.62024 0
M  V30 1574 C 160.701 -4.79075 3.46758 0
M  V30 1575 C 160.063 -5.34407 4.58899 0
M  V30 1576 H 156.162 -0.776041 0.0963523 0
M  V30 1577 H 158.746 -1.75945 0.833752 0
M  V30 1578 H 156.917 -3.83894 -0.589915 0
M  V30 1579 H 158.649 -4.02451 -0.42606 0
M  V30 1580 H 155.404 -4.47811 1.54151 0
M  V30 1581 H 155.828 -5.4921 3.95851 0
M  V30 1582 H 160.47 -3.95469 1.49545 0
M  V30 1583 H 158.188 -5.93736 5.48182 0
M  V30 1584 H 161.774 -4.66824 3.47227 0
M  V30 1585 H 160.654 -5.64878 5.4395 0
M  V30 1586 N 158.157 -0.370918 -1.53173 0
M  V30 1587 C 159.385 0.217704 -2.05751 0
M  V30 1588 C 159.8 1.42018 -1.24404 0
M  V30 1589 O 159.157 1.80245 -0.286033 0
M  V30 1590 C 159.208 0.605954 -3.56385 0
M  V30 1591 O 158.929 -0.548734 -4.3465 0
M  V30 1592 C 160.43 1.2524 -4.25241 0
M  V30 1593 H 157.65 0.0371659 -0.66997 0
M  V30 1594 H 160.194 -0.530832 -1.9749 0
M  V30 1595 H 158.349 1.3044 -3.6478 0
M  V30 1596 H 158.763 -0.23376 -5.23979 0
M  V30 1597 H 160.237 1.47458 -5.3194 0
M  V30 1598 H 160.714 2.2143 -3.79296 0
M  V30 1599 H 161.32 0.595233 -4.21114 0
M  V30 1600 N 159.635 1.57281 -0.100228 0
M  V30 1601 C 161.051 1.57527 0.256416 0
M  V30 1602 C 161.251 1.11173 1.68056 0
M  V30 1603 O 160.307 0.79053 2.39806 0
M  V30 1604 C 161.62 3.00673 0.0401747 0
M  V30 1605 C 163.168 3.12815 0.107528 0
M  V30 1606 C 163.643 4.57929 -0.0807834 0
M  V30 1607 N 165.134 4.63193 -0.0261207 0
M  V30 1608 C 165.869 5.73212 -0.146999 0
M  V30 1609 N 165.365 6.92047 -0.322999 0
M  V30 1610 N 167.158 5.62031 -0.0879044 0
M  V30 1611 H 159.309 1.85718 -1.03065 0
M  V30 1612 H 161.572 0.857446 -0.404339 0
M  V30 1613 H 161.278 3.38804 -0.943649 0
M  V30 1614 H 161.152 3.69042 0.780262 0
M  V30 1615 H 163.539 2.74554 1.08186 0
M  V30 1616 H 163.62 2.47028 -0.664134 0
M  V30 1617 H 163.264 4.96886 -1.05201 0
M  V30 1618 H 163.194 5.21783 0.710635 0
M  V30 1619 H 165.685 3.77748 0.107161 0
M  V30 1620 H 165.998 7.7173 -0.406608 0
M  V30 1621 H 164.343 6.94074 -0.358733 0
M  V30 1622 H 167.534 4.68075 0.048498 0
M  V30 1623 H 167.707 6.47734 -0.185557 0
M  V30 1624 N 161.113 -0.173488 1.56642 0
M  V30 1625 C 162.362 -0.888758 1.81063 0
M  V30 1626 C 162.675 -1.83506 0.67712 0
M  V30 1627 O 163.881 -2.59254 0.806206 0
M  V30 1628 C 162.337 -1.63091 3.20826 0
M  V30 1629 C 161.945 -0.728357 4.4204 0
M  V30 1630 C 163.689 -2.33454 3.54541 0
M  V30 1631 C 161.596 -1.47062 5.72823 0
M  V30 1632 H 160.526 -0.335618 0.675186 0
M  V30 1633 H 163.177 -0.141712 1.82952 0
M  V30 1634 H 161.559 -2.42263 3.13248 0
M  V30 1635 H 162.733 0.0262449 4.60793 0
M  V30 1636 H 161.048 -0.134492 4.16183 0
M  V30 1637 H 163.645 -2.89578 4.49498 0
M  V30 1638 H 163.988 -3.08687 2.79317 0
M  V30 1639 H 164.521 -1.61227 3.63663 0
M  V30 1640 H 161.26 -0.760658 6.51072 0
M  V30 1641 H 160.78 -2.1986 5.58052 0
M  V30 1642 H 162.459 -2.01868 6.14702 0
M  V30 1643 N 162.591 -1.51276 -0.441967 0
M  V30 1644 C 163.541 -1.6864 -1.53442 0
M  V30 1645 C 164.525 -0.540444 -1.51552 0
M  V30 1646 O 165.717 -0.796157 -1.58083 0
M  V30 1647 C 162.846 -1.8106 -2.91672 0
M  V30 1648 C 161.932 -3.01424 -2.98336 0
M  V30 1649 N 162.323 -4.2467 -2.74752 0
M  V30 1650 C 160.621 -3.00584 -3.29493 0
M  V30 1651 C 161.322 -5.05891 -2.87139 0
M  V30 1652 N 160.298 -4.40442 -3.18609 0
M  V30 1653 H 164.1 -2.61598 -1.33954 0
M  V30 1654 H 161.614 -1.4886 -0.6492 0
M  V30 1655 H 163.611 -1.91609 -3.70259 0
M  V30 1656 H 162.271 -0.892795 -3.12185 0
M  V30 1657 H 163.282 -4.53691 -2.49769 0
M  V30 1658 H 159.959 -2.18417 -3.55809 0
M  V30 1659 H 161.349 -6.13983 -2.72899 0
M  V30 1660 N 164.069 0.697108 -1.41344 0
M  V30 1661 C 165.016 1.81106 -1.43071 0
M  V30 1662 C 165.986 1.63632 -0.285275 0
M  V30 1663 O 167.171 1.84504 -0.486091 0
M  V30 1664 C 164.311 3.18975 -1.31715 0
M  V30 1665 C 163.424 3.47892 -2.56115 0
M  V30 1666 C 162.559 4.75367 -2.37064 0
M  V30 1667 C 161.598 4.97247 -3.56948 0
M  V30 1668 N 160.735 6.15947 -3.36977 0
M  V30 1669 H 165.575 1.78965 -2.38276 0
M  V30 1670 H 163.112 0.873975 -1.18322 0
M  V30 1671 H 165.07 3.98615 -1.23133 0
M  V30 1672 H 163.7 3.20297 -0.401183 0
M  V30 1673 H 162.752 2.62669 -2.75153 0
M  V30 1674 H 164.064 3.59962 -3.45295 0
M  V30 1675 H 163.218 5.63059 -2.25941 0
M  V30 1676 H 161.957 4.65541 -1.45338 0
M  V30 1677 H 160.962 4.08004 -3.68527 0
M  V30 1678 H 162.187 5.08934 -4.49626 0
M  V30 1679 H 160.133 6.07336 -2.47949 0
M  V30 1680 H 160.05 6.28777 -4.19732 0
M  V30 1681 H 161.318 7.06377 -3.29623 0
M  V30 1682 N 165.547 1.27147 0.931209 0
M  V30 1683 C 166.795 1.13055 1.6752 0
M  V30 1684 C 167.116 -0.324791 1.92276 0
M  V30 1685 O 166.386 -1.22775 1.52654 0
M  V30 1686 H 164.966 0.415391 0.620854 0
M  V30 1687 H 167.628 1.59623 1.11833 0
M  V30 1688 H 166.724 1.65694 2.64485 0
M  V30 1689 N 167.025 -1.13721 1.09112 0
M  V30 1690 C 168.302 -1.81155 0.737706 0
M  V30 1691 C 168.682 -1.96253 -0.777683 0
M  V30 1692 O 168.03 -1.52807 -1.69889 0
M  V30 1693 C 168.24 -3.16392 1.47299 0
M  V30 1694 C 169.588 -3.91787 1.63671 0
M  V30 1695 O 170.612 -3.26005 1.43524 0
M  V30 1696 O 169.471 -5.0977 1.96969 0
M  V30 1697 H 166.565 -0.783518 0.26463 0
M  V30 1698 H 169.111 -1.20676 1.19312 0
M  V30 1699 H 167.883 -3.0061 2.50498 0
M  V30 1700 H 167.506 -3.8457 1.00953 0
M  V30 1701 N 168.503 -0.877838 -1.30888 0
M  V30 1702 C 169.919 -0.570844 -1.49042 0
M  V30 1703 C 170.119 0.893159 -1.80624 0
M  V30 1704 O 169.175 1.67485 -1.88958 0
M  V30 1705 C 170.488 -1.47784 -2.61878 0
M  V30 1706 C 172.036 -1.48071 -2.75761 0
M  V30 1707 C 172.511 -2.37347 -3.91702 0
M  V30 1708 N 174.002 -2.35271 -3.99001 0
M  V30 1709 C 174.737 -3.01063 -4.88004 0
M  V30 1710 N 174.233 -3.76055 -5.81854 0
M  V30 1711 N 176.026 -2.90332 -4.81315 0
M  V30 1712 H 168.177 -1.82502 -1.0866 0
M  V30 1713 H 170.44 -0.780797 -0.537644 0
M  V30 1714 H 170.146 -2.51993 -2.45341 0
M  V30 1715 H 170.02 -1.18215 -3.58197 0
M  V30 1716 H 172.407 -0.446166 -2.91708 0
M  V30 1717 H 172.488 -1.81668 -1.80085 0
M  V30 1718 H 172.132 -3.40883 -3.76512 0
M  V30 1719 H 172.062 -2.01071 -4.86701 0
M  V30 1720 H 174.553 -1.80768 -3.3186 0
M  V30 1721 H 174.866 -4.23366 -6.46514 0
M  V30 1722 H 173.211 -3.80163 -5.81808 0
M  V30 1723 H 176.402 -2.31278 -4.06974 0
M  V30 1724 H 176.575 -3.41885 -5.50471 0
M  V30 1725 N 169.982 1.44106 -0.638065 0
M  V30 1726 C 170.915 2.27924 0.112161 0
M  V30 1727 C 171.893 1.38945 0.844574 0
M  V30 1728 O 173.077 1.68386 0.847248 0
M  V30 1729 C 170.204 3.18029 1.16512 0
M  V30 1730 C 169.25 4.23163 0.532458 0
M  V30 1731 S 170.083 5.31131 -0.682666 0
M  V30 1732 C 171.239 6.24805 0.37013 0
M  V30 1733 H 171.472 2.91205 -0.598887 0
M  V30 1734 H 169.005 1.48394 -0.426441 0
M  V30 1735 H 170.963 3.70492 1.76766 0
M  V30 1736 H 169.624 2.53955 1.8484 0
M  V30 1737 H 168.817 4.86252 1.32571 0
M  V30 1738 H 168.419 3.74 0.00437644 0
M  V30 1739 H 170.711 6.66042 1.24071 0
M  V30 1740 H 171.654 7.07741 -0.225349 0
M  V30 1741 H 172.062 5.60154 0.699141 0
M  V30 1742 N 171.46 0.379036 1.52974 0
M  V30 1743 C 172.423 -0.448865 2.24762 0
M  V30 1744 C 173.423 -0.998689 1.26027 0
M  V30 1745 O 174.613 -0.882313 1.50203 0
M  V30 1746 C 171.745 -1.62872 2.99476 0
M  V30 1747 H 172.938 0.179491 2.99362 0
M  V30 1748 H 170.491 0.13096 1.5575 0
M  V30 1749 H 171.226 -2.29479 2.29151 0
M  V30 1750 H 171.011 -1.24128 3.71934 0
M  V30 1751 H 172.501 -2.2151 3.5401 0
M  V30 1752 N 172.938 -1.57226 0.108567 0
M  V30 1753 C 174.187 -1.94008 -0.551703 0
M  V30 1754 C 174.5 -0.993442 -1.68494 0
M  V30 1755 O 175.706 -1.25551 -2.40726 0
M  V30 1756 C 174.162 -3.44763 -1.03279 0
M  V30 1757 C 173.77 -4.47943 0.0714193 0
M  V30 1758 C 175.514 -3.90483 -1.66503 0
M  V30 1759 C 173.421 -5.89865 -0.425779 0
M  V30 1760 H 172.351 -0.724206 -0.209863 0
M  V30 1761 H 175.002 -1.82547 0.186741 0
M  V30 1762 H 173.384 -3.51422 -1.82533 0
M  V30 1763 H 174.558 -4.52942 0.847365 0
M  V30 1764 H 172.873 -4.11913 0.609669 0
M  V30 1765 H 175.47 -4.93925 -2.04798 0
M  V30 1766 H 175.813 -3.29877 -2.53942 0
M  V30 1767 H 176.346 -3.86581 -0.938074 0
M  V30 1768 H 173.085 -6.54202 0.412316 0
M  V30 1769 H 172.605 -5.88309 -1.16843 0
M  V30 1770 H 174.284 -6.40844 -0.890397 0
M  V30 1771 N 174.416 0.165178 -1.56732 0
M  V30 1772 C 175.665 0.879143 -1.81532 0
M  V30 1773 C 175.978 1.83144 -0.686842 0
M  V30 1774 O 177.184 2.58823 -0.819944 0
M  V30 1775 C 175.64 1.61388 -3.21686 0
M  V30 1776 C 175.248 0.704904 -4.4242 0
M  V30 1777 C 176.992 2.3157 -3.55774 0
M  V30 1778 C 174.899 1.44022 -5.73595 0
M  V30 1779 H 173.829 0.332033 -0.676957 0
M  V30 1780 H 176.48 0.132008 -1.83025 0
M  V30 1781 H 174.862 2.40599 -3.14529 0
M  V30 1782 H 176.036 -0.0506815 -4.60772 0
M  V30 1783 H 174.351 0.112419 -4.16248 0
M  V30 1784 H 176.948 2.8719 -4.51028 0
M  V30 1785 H 177.291 3.07201 -2.8095 0
M  V30 1786 H 177.824 1.59297 -3.64513 0
M  V30 1787 H 174.563 0.72612 -6.51466 0
M  V30 1788 H 174.083 2.16898 -5.5921 0
M  V30 1789 H 175.762 1.98606 -6.15764 0
M  V30 1790 N 175.894 1.51508 0.433938 0
M  V30 1791 C 176.842 1.73646 1.54757 0
M  V30 1792 C 177.836 0.602854 1.5831 0
M  V30 1793 O 179.042 0.784318 1.62014 0
M  V30 1794 H 175.417 0.548718 0.51421 0
M  V30 1795 H 177.388 2.66991 1.33261 0
M  V30 1796 C 176.137 1.88172 2.92381 0
M  V30 1797 H 175.46 2.74808 2.90381 0
M  V30 1798 H 176.9 2.07672 3.6966 0
M  V30 1799 C 175.359 0.64239 3.30719 0
M  V30 1800 O 175.889 -0.201362 4.01195 0
M  V30 1801 N 174.095 0.485489 2.86516 0
M  V30 1802 H 173.642 1.17318 2.29334 0
M  V30 1803 H 173.6 -0.342482 3.12529 0
M  V30 1804 N 177.372 -0.689602 1.41712 0
M  V30 1805 C 178.335 -1.78521 1.43746 0
M  V30 1806 C 179.335 -1.57436 0.327191 0
M  V30 1807 O 180.525 -1.64 0.587348 0
M  V30 1808 C 177.657 -3.16971 1.25467 0
M  V30 1809 H 178.85 -1.78108 2.41283 0
M  V30 1810 H 176.403 -0.89781 1.27942 0
M  V30 1811 H 177.138 -3.23019 0.287948 0
M  V30 1812 H 176.923 -3.33678 2.05917 0
M  V30 1813 H 178.413 -3.96935 1.2974 0
M  V30 1814 N 178.85 -1.27639 -0.924453 0
M  V30 1815 C 179.782 -1.06442 -2.02985 0
M  V30 1816 C 180.795 -0.0194771 -1.62788 0
M  V30 1817 O 181.984 -0.261388 -1.76576 0
M  V30 1818 C 179.084 -0.59327 -3.33667 0
M  V30 1819 C 178.257 -1.71123 -4.02537 0
M  V30 1820 C 177.316 -1.23527 -5.11495 0
M  V30 1821 O 176.342 -1.93553 -5.35281 0
M  V30 1822 N 177.544 -0.0926678 -5.80426 0
M  V30 1823 H 180.309 -2.01633 -2.2173 0
M  V30 1824 H 177.87 -1.19248 -1.09505 0
M  V30 1825 H 179.862 -0.258686 -4.03872 0
M  V30 1826 H 178.432 0.265502 -3.1147 0
M  V30 1827 H 177.652 -2.21593 -3.26022 0
M  V30 1828 H 178.94 -2.46145 -4.45298 0
M  V30 1829 H 178.338 0.491741 -5.63559 0
M  V30 1830 H 176.895 0.182714 -6.51544 0
M  V30 1831 N 180.328 1.1314 -1.09713 0
M  V30 1832 C 181.275 2.18642 -0.739196 0
M  V30 1833 C 182.245 1.63706 0.280978 0
M  V30 1834 O 183.43 1.90111 0.161946 0
M  V30 1835 C 180.57 3.44685 -0.169102 0
M  V30 1836 C 179.683 4.13711 -1.24367 0
M  V30 1837 C 178.818 5.27379 -0.636019 0
M  V30 1838 C 177.857 5.88259 -1.69169 0
M  V30 1839 N 176.994 6.93352 -1.10485 0
M  V30 1840 H 181.834 2.48607 -1.64312 0
M  V30 1841 H 179.371 1.22066 -0.820875 0
M  V30 1842 H 181.329 4.16815 0.179256 0
M  V30 1843 H 179.959 3.15161 0.698079 0
M  V30 1844 H 179.011 3.39835 -1.70927 0
M  V30 1845 H 180.323 4.55037 -2.04311 0
M  V30 1846 H 179.477 6.06238 -0.236677 0
M  V30 1847 H 178.216 4.8731 0.194928 0
M  V30 1848 H 177.221 5.08092 -2.10055 0
M  V30 1849 H 178.446 6.30399 -2.52536 0
M  V30 1850 H 176.392 6.55335 -0.295234 0
M  V30 1851 H 176.309 7.33236 -1.84121 0
M  V30 1852 H 177.577 7.76057 -0.73181 0
M  V30 1853 N 181.806 0.884767 1.30421 0
M  V30 1854 C 183.034 0.518044 2.0031 0
M  V30 1855 C 183.449 -0.893408 1.66324 0
M  V30 1856 O 182.806 -1.5875 0.900262 0
M  V30 1857 C 182.857 0.682997 3.54989 0
M  V30 1858 O 182.578 2.03888 3.87764 0
M  V30 1859 C 184.079 0.31924 4.42149 0
M  V30 1860 H 181.299 0.200265 0.640418 0
M  V30 1861 H 183.843 1.19001 1.6631 0
M  V30 1862 H 181.998 0.0584052 3.87356 0
M  V30 1863 H 182.412 2.05735 4.82466 0
M  V30 1864 H 183.886 0.485555 5.4986 0
M  V30 1865 H 184.363 -0.742717 4.32875 0
M  V30 1866 H 184.969 0.920147 4.15227 0
M  V30 1867 N 183.284 -1.43765 0.645699 0
M  V30 1868 C 184.512 -2.06253 0.163556 0
M  V30 1869 C 184.927 -1.48352 -1.16778 0
M  V30 1870 O 184.284 -0.611932 -1.71935 0
M  V30 1871 C 184.335 -3.61453 0.0583186 0
M  V30 1872 O 184.056 -4.172 1.33702 0
M  V30 1873 C 185.557 -4.41002 -0.450795 0
M  V30 1874 H 182.777 -0.665413 0.0864077 0
M  V30 1875 H 185.321 -1.84396 0.884222 0
M  V30 1876 H 183.476 -3.82522 -0.612865 0
M  V30 1877 H 183.89 -5.10791 1.19131 0
M  V30 1878 H 185.364 -5.49966 -0.473403 0
M  V30 1879 H 185.841 -4.13488 -1.48068 0
M  V30 1880 H 186.447 -4.24886 0.187637 0
M  V30 1881 N 184.763 -0.387143 -1.52771 0
M  V30 1882 C 186.012 0.19697 -2.00736 0
M  V30 1883 C 186.325 1.48082 -1.27793 0
M  V30 1884 O 187.531 2.14485 -1.66458 0
M  V30 1885 C 185.987 0.401568 -3.57653 0
M  V30 1886 C 185.595 -0.868907 -4.39493 0
M  V30 1887 C 187.339 0.942164 -4.13912 0
M  V30 1888 C 185.246 -0.632705 -5.88006 0
M  V30 1889 H 184.176 0.0773827 -0.750019 0
M  V30 1890 H 186.827 -0.50921 -1.76293 0
M  V30 1891 H 185.209 1.16954 -3.78335 0
M  V30 1892 H 186.383 -1.64133 -4.30577 0
M  V30 1893 H 184.698 -1.33429 -3.94443 0
M  V30 1894 H 187.295 1.13455 -5.22525 0
M  V30 1895 H 187.638 1.9106 -3.69867 0
M  V30 1896 H 188.171 0.233814 -3.97112 0
M  V30 1897 H 184.91 -1.57208 -6.36369 0
M  V30 1898 H 184.43 0.100825 -5.99715 0
M  V30 1899 H 186.109 -0.26642 -6.46451 0
M  V30 1900 N 186.241 1.57166 -0.116904 0
M  V30 1901 C 187.469 1.99473 0.549383 0
M  V30 1902 C 187.884 0.996541 1.60357 0
M  V30 1903 O 187.241 -0.0108731 1.82497 0
M  V30 1904 C 187.292 3.41788 1.17741 0
M  V30 1905 O 187.013 4.37788 0.165362 0
M  V30 1906 C 188.514 3.99216 1.92722 0
M  V30 1907 H 185.734 0.655009 0.145616 0
M  V30 1908 H 188.278 2.03494 -0.202625 0
M  V30 1909 H 186.433 3.38713 1.88021 0
M  V30 1910 H 186.847 5.20806 0.621403 0
M  V30 1911 H 188.321 5.00882 2.31995 0
M  V30 1912 H 188.798 3.3824 2.80161 0
M  V30 1913 H 189.404 4.0583 1.27209 0
M  V30 1914 N 187.719 -0.156864 1.56817 0
M  V30 1915 C 188.629 -1.2136 2.00771 0
M  V30 1916 C 189.645 -1.47598 0.921459 0
M  V30 1917 O 190.821 -1.59462 1.2302 0
M  V30 1918 C 187.886 -2.52943 2.37109 0
M  V30 1919 C 186.947 -2.34439 3.59634 0
M  V30 1920 C 186.18 -3.59748 3.94229 0
M  V30 1921 O 186.403 -4.65526 3.29609 0
M  V30 1922 O 185.337 -3.52998 4.8752 0
M  V30 1923 H 189.163 -0.870468 2.90958 0
M  V30 1924 H 186.748 -0.36484 1.44877 0
M  V30 1925 H 188.63 -3.30538 2.61386 0
M  V30 1926 H 187.305 -2.86806 1.5008 0
M  V30 1927 H 186.212 -1.54828 3.40557 0
M  V30 1928 H 187.545 -2.05496 4.4725 0
M  V30 1929 N 189.197 -1.51736 -0.425897 0
M  V30 1930 C 190.107 -1.76738 -1.54275 0
M  V30 1931 C 191.123 -0.65211 -1.61318 0
M  V30 1932 O 192.299 -0.935654 -1.78346 0
M  V30 1933 C 189.364 -1.89755 -2.90162 0
M  V30 1934 C 188.425 -3.13633 -2.93143 0
M  V30 1935 C 187.658 -3.2602 -4.22548 0
M  V30 1936 O 187.881 -2.44067 -5.15546 0
M  V30 1937 O 186.815 -4.19071 -4.32046 0
M  V30 1938 H 190.641 -2.71502 -1.36089 0
M  V30 1939 H 188.226 -1.36376 -0.610069 0
M  V30 1940 H 190.108 -2.00236 -3.70788 0
M  V30 1941 H 188.783 -0.981785 -3.08452 0
M  V30 1942 H 187.69 -3.08622 -2.11431 0
M  V30 1943 H 189.023 -4.04936 -2.798 0
M  V30 1944 N 190.675 0.682077 -1.42076 0
M  V30 1945 C 191.952 1.43755 -1.32642 0
M  V30 1946 C 192.332 2.11063 0.0396611 0
M  V30 1947 O 191.68 2.02701 1.05474 0
M  V30 1948 C 191.89 2.44596 -2.48946 0
M  V30 1949 C 193.238 3.09454 -2.9073 0
M  V30 1950 O 194.262 2.54922 -2.48783 0
M  V30 1951 O 193.121 4.08253 -3.63307 0
M  V30 1952 H 190.215 0.640857 -0.522715 0
M  V30 1953 H 192.761 0.711415 -1.54068 0
M  V30 1954 H 191.533 1.93609 -3.40046 0
M  V30 1955 H 191.156 3.24701 -2.29467 0
M  V30 1956 N 192.153 1.28127 0.917671 0
M  V30 1957 C 193.4 1.15052 1.66641 0
M  V30 1958 C 193.728 -0.301677 1.92146 0
M  V30 1959 O 192.983 -1.23622 1.51711 0
M  V30 1960 C 193.282 1.89018 3.03327 0
M  V30 1961 C 192.948 3.38832 2.97496 0
M  V30 1962 C 191.61 3.79693 2.95613 0
M  V30 1963 C 193.962 4.34378 2.88036 0
M  V30 1964 C 191.29 5.14447 2.82066 0
M  V30 1965 C 193.642 5.69201 2.7603 0
M  V30 1966 C 192.306 6.09343 2.72502 0
M  V30 1967 H 191.576 0.421006 0.609783 0
M  V30 1968 H 194.223 1.58855 1.06945 0
M  V30 1969 H 192.528 1.37752 3.66785 0
M  V30 1970 H 194.225 1.76321 3.60156 0
M  V30 1971 H 190.815 3.06342 2.99754 0
M  V30 1972 H 194.999 4.03775 2.88581 0
M  V30 1973 H 190.255 5.44681 2.77728 0
M  V30 1974 H 194.429 6.42901 2.67678 0
M  V30 1975 H 192.056 7.13712 2.61762 0
M  V30 1976 N 193.631 -1.12557 1.10312 0
M  V30 1977 C 195.047 -1.36036 0.834649 0
M  V30 1978 C 195.247 -1.93946 -0.546539 0
M  V30 1979 O 194.303 -2.16484 -1.29966 0
M  V30 1980 C 195.616 -2.30312 1.9333 0
M  V30 1981 C 197.164 -2.43906 1.9616 0
M  V30 1982 C 197.639 -3.41496 3.05195 0
M  V30 1983 N 199.13 -3.49053 3.04494 0
M  V30 1984 C 199.865 -4.24471 3.85502 0
M  V30 1985 N 199.361 -5.02966 4.76442 0
M  V30 1986 N 201.154 -4.19864 3.73725 0
M  V30 1987 H 193.305 -0.733246 1.99342 0
M  V30 1988 H 195.568 -0.385234 0.866198 0
M  V30 1989 H 195.274 -1.94933 2.92735 0
M  V30 1990 H 195.148 -3.30421 1.81939 0
M  V30 1991 H 197.535 -2.78567 0.973886 0
M  V30 1992 H 197.616 -1.4369 2.11629 0
M  V30 1993 H 197.26 -3.07565 4.04186 0
M  V30 1994 H 197.19 -4.41539 2.86968 0
M  V30 1995 H 199.681 -2.93053 2.38596 0
M  V30 1996 H 199.994 -5.57846 5.34815 0
M  V30 1997 H 198.339 -5.02167 4.80472 0
M  V30 1998 H 201.53 -3.57623 3.02032 0
M  V30 1999 H 201.703 -4.78386 4.37093 0
M  V30 2000 N 195.109 -0.891671 -1.2995 0
M  V30 2001 C 196.059 -0.334811 -2.25528 0
M  V30 2002 C 197.043 0.540553 -1.51548 0
M  V30 2003 O 198.235 0.383882 -1.72787 0
M  V30 2004 C 195.364 0.44374 -3.4042 0
M  V30 2005 C 194.45 -0.44609 -4.21747 0
M  V30 2006 N 194.841 -1.54963 -4.81477 0
M  V30 2007 C 193.139 -0.242415 -4.45341 0
M  V30 2008 C 193.84 -2.10015 -5.42465 0
M  V30 2009 N 192.816 -1.39423 -5.25416 0
M  V30 2010 H 196.618 -1.17792 -2.69262 0
M  V30 2011 H 194.132 -0.741822 -1.44467 0
M  V30 2012 H 196.129 0.859362 -4.07947 0
M  V30 2013 H 194.789 1.28421 -2.98225 0
M  V30 2014 H 195.8 -1.93244 -4.80497 0
M  V30 2015 H 192.477 0.560342 -4.13723 0
M  V30 2016 H 193.867 -3.02724 -5.9984 0
M  V30 2017 N 196.587 1.43421 -0.653314 0
M  V30 2018 C 197.835 2.01414 -0.166415 0
M  V30 2019 C 198.156 1.51803 1.22397 0
M  V30 2020 O 197.426 0.730693 1.81763 0
M  V30 2021 H 196.006 0.744703 -0.0585319 0
M  V30 2022 H 198.668 1.75629 -0.845003 0
M  V30 2023 H 197.764 3.11734 -0.151111 0
M  V30 2024 N 198.065 0.39524 1.52563 0
M  V30 2025 C 198.995 -0.428384 2.29537 0
M  V30 2026 C 199.976 -1.05831 1.33169 0
M  V30 2027 O 201.161 -1.06995 1.62067 0
M  V30 2028 C 198.291 -1.55274 3.10656 0
M  V30 2029 C 197.245 -1.04855 4.14957 0
M  V30 2030 C 196.571 -2.26543 4.84337 0
M  V30 2031 C 197.871 -0.112324 5.22179 0
M  V30 2032 H 199.565 0.213867 2.98635 0
M  V30 2033 H 197.111 0.104298 1.43622 0
M  V30 2034 H 199.064 -2.1358 3.63265 0
M  V30 2035 H 197.788 -2.22266 2.39302 0
M  V30 2036 H 196.447 -0.487985 3.63338 0
M  V30 2037 H 196.095 -2.92059 4.09525 0
M  V30 2038 H 195.795 -1.93466 5.54837 0
M  V30 2039 H 197.319 -2.85481 5.39753 0
M  V30 2040 H 198.733 -0.603752 5.70112 0
M  V30 2041 H 197.13 0.128968 5.99961 0
M  V30 2042 H 198.2 0.837052 4.77621 0
M  V30 2043 N 199.544 -1.57102 0.125237 0
M  V30 2044 C 200.793 -1.94582 -0.531095 0
M  V30 2045 C 201.106 -1.01126 -1.6743 0
M  V30 2046 O 202.312 -1.28097 -2.39381 0
M  V30 2047 C 200.768 -3.45839 -0.996164 0
M  V30 2048 C 200.376 -4.47842 0.118926 0
M  V30 2049 C 202.12 -3.92227 -1.62352 0
M  V30 2050 C 200.027 -5.90284 -0.363192 0
M  V30 2051 H 198.957 -0.726391 -0.20217 0
M  V30 2052 H 201.608 -1.82339 0.206092 0
M  V30 2053 H 199.99 -3.53338 -1.78796 0
M  V30 2054 H 201.164 -4.52018 0.895358 0
M  V30 2055 H 199.479 -4.11243 0.653324 0
M  V30 2056 H 202.076 -4.96069 -1.99548 0
M  V30 2057 H 202.419 -3.32552 -2.50429 0
M  V30 2058 H 202.952 -3.87554 -0.897019 0
M  V30 2059 H 199.691 -6.53728 0.481679 0
M  V30 2060 H 199.211 -5.89515 -1.10597 0
M  V30 2061 H 200.89 -6.41752 -0.822377 0
M  V30 2062 N 201.022 0.148545 -1.56898 0
M  V30 2063 C 201.972 1.1886 -1.94567 0
M  V30 2064 C 202.956 1.3863 -0.816735 0
M  V30 2065 O 204.148 1.40218 -1.08018 0
M  V30 2066 C 201.277 2.52262 -2.32849 0
M  V30 2067 C 200.363 2.36092 -3.52309 0
M  V30 2068 N 200.754 1.89674 -4.6889 0
M  V30 2069 C 199.052 2.66848 -3.57363 0
M  V30 2070 C 199.753 1.86511 -5.50989 0
M  V30 2071 N 198.729 2.29766 -4.92655 0
M  V30 2072 H 202.531 0.821793 -2.82177 0
M  V30 2073 H 200.045 0.356615 -1.58436 0
M  V30 2074 H 202.042 3.27447 -2.58039 0
M  V30 2075 H 200.702 2.89727 -1.46589 0
M  V30 2076 H 201.713 1.59663 -4.92674 0
M  V30 2077 H 198.39 3.08198 -2.81639 0
M  V30 2078 H 199.78 1.52128 -6.54452 0
M  V30 2079 N 202.5 1.5196 0.417844 0
M  V30 2080 C 203.725 1.69717 1.1921 0
M  V30 2081 C 204.15 0.402148 1.83751 0
M  V30 2082 O 203.508 -0.639593 1.69643 0
M  V30 2083 C 203.556 2.82794 2.2374 0
M  V30 2084 O 202.66 2.47756 3.29683 0
M  V30 2085 H 202.001 0.565263 0.348387 0
M  V30 2086 H 204.531 1.98621 0.490985 0
M  V30 2087 H 204.541 3.07452 2.68212 0
M  V30 2088 H 203.216 3.76756 1.76146 0
M  V30 2089 H 201.793 2.33739 2.90552 0
M  V30 2090 N 203.978 -0.674533 1.42435 0
M  V30 2091 C 205.394 -0.98769 1.25367 0
M  V30 2092 C 205.594 -2.00879 0.158044 0
M  V30 2093 O 204.65 -2.48075 -0.470633 0
M  V30 2094 C 205.963 -1.49224 2.6106 0
M  V30 2095 C 207.511 -1.61 2.68417 0
M  V30 2096 C 207.986 -2.14852 4.04478 0
M  V30 2097 N 209.477 -2.22185 4.06434 0
M  V30 2098 C 210.212 -2.64928 5.08528 0
M  V30 2099 N 209.708 -3.07121 6.21006 0
M  V30 2100 N 211.501 -2.64679 4.95885 0
M  V30 2101 H 203.652 0.00152503 2.124 0
M  V30 2102 H 205.915 -0.0618434 0.945981 0
M  V30 2103 H 205.621 -0.816453 3.42092 0
M  V30 2104 H 205.495 -2.47094 2.84999 0
M  V30 2105 H 207.882 -2.27686 1.87732 0
M  V30 2106 H 207.963 -0.616195 2.48267 0
M  V30 2107 H 207.607 -1.48775 4.85622 0
M  V30 2108 H 207.537 -3.15024 4.2198 0
M  V30 2109 H 210.028 -1.92435 3.25234 0
M  V30 2110 H 210.341 -3.38423 6.94759 0
M  V30 2111 H 208.686 -3.04978 6.24511 0
M  V30 2112 H 211.877 -2.31078 4.07088 0
M  V30 2113 H 212.05 -2.9767 5.75584 0
M  V30 2114 N 205.456 -1.28612 -0.910864 0
M  V30 2115 C 206.733 -1.06632 -1.63979 0
M  V30 2116 C 207.113 0.393351 -2.07403 0
M  V30 2117 O 206.461 1.37999 -1.82122 0
M  V30 2118 C 206.671 -2.0436 -2.8291 0
M  V30 2119 C 208.019 -2.34666 -3.5386 0
M  V30 2120 O 209.043 -2.02467 -2.93062 0
M  V30 2121 O 207.902 -2.89631 -4.63439 0
M  V30 2122 H 204.996 -0.407737 -0.7195 0
M  V30 2123 H 207.542 -1.39942 -0.959914 0
M  V30 2124 H 206.314 -3.02727 -2.47936 0
M  V30 2125 H 205.937 -1.71714 -3.58609 0
M  V30 2126 N 206.934 1.1197 -1.10907 0
M  V30 2127 C 208.181 1.83588 -0.854507 0
M  V30 2128 C 208.509 1.84357 0.6199 0
M  V30 2129 O 207.764 1.28809 1.47332 0
M  V30 2130 C 208.063 3.30749 -1.35425 0
M  V30 2131 C 207.729 3.50146 -2.84093 0
M  V30 2132 C 206.391 3.55148 -3.2469 0
M  V30 2133 C 208.743 3.56857 -3.79872 0
M  V30 2134 C 206.071 3.6441 -4.59806 0
M  V30 2135 C 208.423 3.6765 -5.14797 0
M  V30 2136 C 207.087 3.7091 -5.54961 0
M  V30 2137 H 206.357 0.671795 -0.312686 0
M  V30 2138 H 209.004 1.32091 -1.38652 0
M  V30 2139 H 207.309 3.84703 -0.742361 0
M  V30 2140 H 209.006 3.8464 -1.1337 0
M  V30 2141 H 205.596 3.46919 -2.51685 0
M  V30 2142 H 209.78 3.52258 -3.49611 0
M  V30 2143 H 205.036 3.65208 -4.9034 0
M  V30 2144 H 209.21 3.71786 -5.88853 0
M  V30 2145 H 206.837 3.7784 -6.59652 0
M  V30 2146 N 208.412 0.89855 1.29475 0
M  V30 2147 C 209.66 0.522847 1.9522 0
M  V30 2148 C 209.981 -0.93371 1.71192 0
M  V30 2149 O 209.251 -1.65823 1.04305 0
M  V30 2150 H 207.831 0.190366 0.722336 0
M  V30 2151 H 210.493 1.14459 1.5775 0
M  V30 2152 H 209.589 0.704476 3.04045 0
M  V30 2153 N 209.89 -1.43072 0.660911 0
M  V30 2154 C 211.138 -2.01323 0.177094 0
M  V30 2155 C 211.459 -1.5245 -1.2159 0
M  V30 2156 O 210.729 -0.740322 -1.81373 0
M  V30 2157 H 209.309 -0.744382 0.0624804 0
M  V30 2158 H 211.971 -1.75179 0.854305 0
M  V30 2159 H 211.067 -3.11649 0.167641 0
M  V30 2160 N 211.368 -0.403325 -1.52352 0
M  V30 2161 C 212.596 0.174012 -2.06167 0
M  V30 2162 C 213.011 1.39347 -1.27388 0
M  V30 2163 O 212.368 1.79597 -0.324201 0
M  V30 2164 C 212.419 0.530223 -3.5759 0
M  V30 2165 O 212.14 -0.640806 -4.33388 0
M  V30 2166 C 213.641 1.16192 -4.27802 0
M  V30 2167 H 210.861 0.0229464 -0.670608 0
M  V30 2168 H 213.405 -0.572604 -1.9632 0
M  V30 2169 H 211.56 1.22673 -3.67464 0
M  V30 2170 H 211.974 -0.344851 -5.23365 0
M  V30 2171 H 213.448 1.36141 -5.34948 0
M  V30 2172 H 213.925 2.13335 -3.83907 0
M  V30 2173 H 214.531 0.505775 -4.22282 0
M  V30 2174 N 212.846 1.57033 -0.133567 0
M  V30 2175 C 213.793 2.16074 0.811208 0
M  V30 2176 C 214.763 1.08979 1.2535 0
M  V30 2177 O 215.948 1.36958 1.32843 0
M  V30 2178 C 213.088 2.77595 2.05024 0
M  V30 2179 C 212.201 3.99042 1.65498 0
M  V30 2180 C 211.336 4.48603 2.84479 0
M  V30 2181 C 210.375 5.62547 2.41262 0
M  V30 2182 N 209.512 6.06787 3.53206 0
M  V30 2183 H 214.352 2.96477 0.300906 0
M  V30 2184 H 211.889 1.46462 0.136822 0
M  V30 2185 H 213.847 3.11402 2.77642 0
M  V30 2186 H 212.477 1.99859 2.53488 0
M  V30 2187 H 211.529 3.71302 0.826981 0
M  V30 2188 H 212.841 4.81629 1.29748 0
M  V30 2189 H 211.995 4.84395 3.65303 0
M  V30 2190 H 210.734 3.64995 3.23465 0
M  V30 2191 H 209.739 5.26345 1.58874 0
M  V30 2192 H 210.964 6.47931 2.03377 0
M  V30 2193 H 208.91 5.26117 3.91838 0
M  V30 2194 H 208.827 6.84266 3.21427 0
M  V30 2195 H 210.095 6.4722 4.34427 0
M  V30 2196 N 214.325 -0.140222 1.56975 0
M  V30 2197 C 215.272 -1.17292 1.98774 0
M  V30 2198 C 216.242 -1.4232 0.856408 0
M  V30 2199 O 217.427 -1.54541 1.119 0
M  V30 2200 C 214.567 -2.49973 2.37923 0
M  V30 2201 C 213.68 -2.32062 3.64378 0
M  V30 2202 C 212.815 -3.57825 3.926 0
M  V30 2203 C 211.854 -3.3498 5.12303 0
M  V30 2204 N 210.991 -4.52891 5.36502 0
M  V30 2205 H 215.831 -0.809472 2.86795 0
M  V30 2206 H 213.368 -0.388237 1.41884 0
M  V30 2207 H 215.326 -3.27346 2.58652 0
M  V30 2208 H 213.956 -2.84252 1.52972 0
M  V30 2209 H 213.008 -1.45711 3.51387 0
M  V30 2210 H 214.32 -2.11145 4.51906 0
M  V30 2211 H 213.474 -4.43624 4.13863 0
M  V30 2212 H 212.213 -3.81753 3.03506 0
M  V30 2213 H 211.218 -2.4757 4.90906 0
M  V30 2214 H 212.443 -3.12444 6.02956 0
M  V30 2215 H 210.389 -4.76979 4.50363 0
M  V30 2216 H 210.306 -4.35001 6.18312 0
M  V30 2217 H 211.574 -5.39884 5.62268 0
M  V30 2218 N 215.803 -1.52179 -0.40978 0
M  V30 2219 C 217.049 -1.67408 -1.15525 0
M  V30 2220 C 217.404 -0.398746 -1.88223 0
M  V30 2221 O 216.697 0.60678 -1.81738 0
M  V30 2222 C 216.891 -2.83428 -2.17723 0
M  V30 2223 C 216.72 -4.22121 -1.55061 0
M  V30 2224 C 215.49 -4.87657 -1.3236 0
M  V30 2225 C 217.688 -5.04248 -1.01185 0
M  V30 2226 N 215.67 -6.10387 -0.655834 0
M  V30 2227 C 217.041 -6.18209 -0.470963 0
M  V30 2228 C 219.096 -4.89583 -0.906252 0
M  V30 2229 C 217.799 -7.1911 0.165172 0
M  V30 2230 C 219.825 -5.90718 -0.28397 0
M  V30 2231 C 219.187 -7.03969 0.246243 0
M  V30 2232 H 215.286 -0.666251 -0.409431 0
M  V30 2233 H 217.87 -1.89482 -0.447729 0
M  V30 2234 H 216.041 -2.6297 -2.85834 0
M  V30 2235 H 217.773 -2.87697 -2.84627 0
M  V30 2236 H 214.528 -4.46007 -1.59294 0
M  V30 2237 H 214.952 -6.76153 -0.338596 0
M  V30 2238 H 219.594 -4.02253 -1.302 0
M  V30 2239 H 217.312 -8.06066 0.572986 0
M  V30 2240 H 220.898 -5.81443 -0.203792 0
M  V30 2241 H 219.778 -7.80886 0.720173 0
M  V30 2242 N 217.281 0.66697 -1.42791 0
M  V30 2243 C 218.697 0.981027 -1.25889 0
M  V30 2244 C 218.897 2.00793 -0.168695 0
M  V30 2245 O 217.953 2.48321 0.45747 0
M  V30 2246 C 219.266 1.47838 -2.61848 0
M  V30 2247 C 220.814 1.59575 -2.69267 0
M  V30 2248 C 221.289 2.12704 -4.05612 0
M  V30 2249 N 222.78 2.20026 -4.07606 0
M  V30 2250 C 223.515 2.62227 -5.09926 0
M  V30 2251 N 223.011 3.03824 -6.22626 0
M  V30 2252 N 224.804 2.62045 -4.97281 0
M  V30 2253 H 216.955 -0.0127891 -2.12396 0
M  V30 2254 H 219.218 0.0568258 -0.946295 0
M  V30 2255 H 218.924 0.798299 -3.4252 0
M  V30 2256 H 218.798 2.45579 -2.86305 0
M  V30 2257 H 221.185 2.26687 -1.88936 0
M  V30 2258 H 221.266 0.60302 -2.48591 0
M  V30 2259 H 220.91 1.46198 -4.86404 0
M  V30 2260 H 220.84 3.12782 -4.23645 0
M  V30 2261 H 223.331 1.90708 -3.2625 0
M  V30 2262 H 223.644 3.34734 -6.96544 0
M  V30 2263 H 221.989 3.01662 -6.26119 0
M  V30 2264 H 225.18 2.28916 -4.08308 0
M  V30 2265 H 225.353 2.94613 -5.77154 0
M  V30 2266 N 218.759 1.29093 0.90403 0
M  V30 2267 C 219.987 1.19689 1.68766 0
M  V30 2268 C 220.402 -0.243113 1.87228 0
M  V30 2269 O 219.759 -1.16326 1.40621 0
M  V30 2270 C 219.81 1.90144 3.07453 0
M  V30 2271 O 219.531 3.2852 2.89838 0
M  V30 2272 C 221.032 1.87162 4.01852 0
M  V30 2273 H 218.252 0.415035 0.527244 0
M  V30 2274 H 220.796 1.7039 1.13082 0
M  V30 2275 H 218.951 1.43289 3.59926 0
M  V30 2276 H 219.365 3.63944 3.77684 0
M  V30 2277 H 220.839 2.41032 4.96596 0
M  V30 2278 H 221.316 0.84617 4.30972 0
M  V30 2279 H 221.922 2.33741 3.5531 0
M  V30 2280 N 220.237 -1.11381 1.11499 0
M  V30 2281 C 221.477 -1.84763 0.874188 0
M  V30 2282 C 221.841 -1.82726 -0.589496 0
M  V30 2283 O 223.042 -2.51562 -0.947089 0
M  V30 2284 C 221.313 -3.27931 1.42112 0
M  V30 2285 S 222.872 -4.18557 1.31739 0
M  V30 2286 H 219.69 -0.637115 0.315603 0
M  V30 2287 H 222.292 -1.34097 1.42261 0
M  V30 2288 H 220.996 -3.26978 2.48019 0
M  V30 2289 H 220.527 -3.83665 0.869761 0
M  V30 2290 H 222.542 -4.95396 0.282335 0
M  V30 2291 N 221.715 -0.905404 -1.28997 0
M  V30 2292 C 222.945 -0.549049 -1.99171 0
M  V30 2293 C 223.353 0.87203 -1.67906 0
M  V30 2294 O 222.696 1.58796 -0.923561 0
M  V30 2295 C 222.758 -0.668306 -3.53234 0
M  V30 2296 C 222.422 -2.0574 -4.08069 0
M  V30 2297 C 223.419 -3.0292 -4.22534 0
M  V30 2298 C 221.104 -2.36833 -4.42962 0
M  V30 2299 C 223.098 -4.29314 -4.71135 0
M  V30 2300 C 220.785 -3.63467 -4.91258 0
M  V30 2301 C 221.783 -4.59522 -5.053 0
M  V30 2302 O 221.471 -5.83907 -5.52546 0
M  V30 2303 H 221.203 -0.208784 -0.64295 0
M  V30 2304 H 223.757 -1.21836 -1.65363 0
M  V30 2305 H 221.987 0.0580547 -3.86656 0
M  V30 2306 H 223.676 -0.320273 -4.04634 0
M  V30 2307 H 224.442 -2.80216 -3.95859 0
M  V30 2308 H 220.321 -1.62824 -4.31288 0
M  V30 2309 H 223.865 -5.04293 -4.8201 0
M  V30 2310 H 219.762 -3.86 -5.17372 0
M  V30 2311 H 220.53 -5.86578 -5.70849 0
M  V30 2312 N 223.193 1.4272 -0.668489 0
M  V30 2313 C 224.421 2.05966 -0.196348 0
M  V30 2314 C 224.836 1.50191 1.14403 0
M  V30 2315 O 224.193 0.639208 1.7094 0
M  V30 2316 C 224.244 3.61314 -0.115815 0
M  V30 2317 O 223.965 4.1502 -1.40322 0
M  V30 2318 C 225.466 4.41663 0.380579 0
M  V30 2319 H 222.686 0.663954 -0.0969829 0
M  V30 2320 H 225.23 1.82966 -0.913446 0
M  V30 2321 H 223.385 3.83448 0.551931 0
M  V30 2322 H 223.799 5.08832 -1.27243 0
M  V30 2323 H 225.273 5.5065 0.385848 0
M  V30 2324 H 225.75 4.15792 1.41471 0
M  V30 2325 H 226.356 4.24534 -0.255209 0
M  V30 2326 N 224.671 0.411399 1.52136 0
M  V30 2327 C 225.634 -0.401089 2.25663 0
M  V30 2328 C 226.634 -0.971732 1.28117 0
M  V30 2329 O 227.824 -0.850254 1.52041 0
M  V30 2330 C 224.956 -1.56483 3.02863 0
M  V30 2331 H 226.149 0.24295 2.98914 0
M  V30 2332 H 223.702 0.163968 1.55438 0
M  V30 2333 H 224.437 -2.24567 2.33967 0
M  V30 2334 H 224.222 -1.16211 3.74483 0
M  V30 2335 H 225.712 -2.13951 3.58629 0
M  V30 2336 N 226.149 -1.5696 0.141893 0
M  V30 2337 C 227.426 -1.87553 -0.555281 0
M  V30 2338 C 227.806 -1.04699 -1.83306 0
M  V30 2339 O 227.154 -0.132346 -2.28116 0
M  V30 2340 C 227.364 -3.39093 -0.825664 0
M  V30 2341 C 228.712 -4.08199 -1.16869 0
M  V30 2342 O 229.736 -3.44242 -0.915185 0
M  V30 2343 O 228.595 -5.21139 -1.6455 0
M  V30 2344 H 225.689 -0.777188 -0.282679 0
M  V30 2345 H 228.235 -1.68763 0.17812 0
M  V30 2346 H 227.007 -3.91221 0.0788633 0
M  V30 2347 H 226.63 -3.63393 -1.61343 0
M  V30 2348 N 227.627 0.131896 -1.57047 0
M  V30 2349 C 228.59 1.14638 -1.98471 0
M  V30 2350 C 229.59 1.35029 -0.873148 0
M  V30 2351 O 230.78 1.31764 -1.13946 0
M  V30 2352 C 227.912 2.50358 -2.31373 0
M  V30 2353 H 229.105 0.79064 -2.8929 0
M  V30 2354 H 226.658 0.375761 -1.51716 0
M  V30 2355 H 227.393 2.90876 -1.43393 0
M  V30 2356 H 227.178 2.36915 -3.12432 0
M  V30 2357 H 228.668 3.23395 -2.64207 0
M  V30 2358 N 229.106 1.52395 0.401703 0
M  V30 2359 C 230.334 1.70676 1.16949 0
M  V30 2360 C 230.749 0.419503 1.8408 0
M  V30 2361 O 230.106 -0.605061 1.72178 0
M  V30 2362 C 230.157 2.84753 2.22706 0
M  V30 2363 O 229.878 4.08495 1.58314 0
M  V30 2364 C 231.379 3.14608 3.12309 0
M  V30 2365 H 228.599 0.571787 0.351142 0
M  V30 2366 H 231.143 1.98987 0.471652 0
M  V30 2367 H 229.298 2.58941 2.88147 0
M  V30 2368 H 229.712 4.72117 2.28485 0
M  V30 2369 H 231.186 3.97923 3.82572 0
M  V30 2370 H 231.663 2.28464 3.75101 0
M  V30 2371 H 232.269 3.42212 2.52529 0
M  V30 2372 N 230.584 -0.659388 1.43143 0
M  V30 2373 C 231.832 -1.41654 1.44147 0
M  V30 2374 C 232.153 -1.94893 0.0645739 0
M  V30 2375 O 231.423 -1.74044 -0.899198 0
M  V30 2376 H 230.003 -0.525708 0.530697 0
M  V30 2377 H 232.665 -0.778097 1.78694 0
M  V30 2378 H 231.761 -2.26195 2.1504 0
M  V30 2379 N 232.062 -1.29571 -0.897171 0
M  V30 2380 C 233.012 -1.11539 -1.98855 0
M  V30 2381 C 233.996 -0.0340716 -1.60864 0
M  V30 2382 O 235.188 -0.256062 -1.75138 0
M  V30 2383 C 232.317 -0.796603 -3.3393 0
M  V30 2384 C 231.403 -1.91758 -3.78272 0
M  V30 2385 N 231.794 -3.16143 -3.94826 0
M  V30 2386 C 230.092 -1.81119 -4.07568 0
M  V30 2387 C 230.793 -3.89293 -4.32233 0
M  V30 2388 N 229.769 -3.17255 -4.41419 0
M  V30 2389 H 233.571 -2.05894 -2.09726 0
M  V30 2390 H 231.085 -1.20732 -1.08616 0
M  V30 2391 H 233.082 -0.648459 -4.11826 0
M  V30 2392 H 231.742 0.139003 -3.24402 0
M  V30 2393 H 232.753 -3.5157 -3.80288 0
M  V30 2394 H 229.43 -0.948461 -4.06584 0
M  V30 2395 H 230.82 -4.9635 -4.52865 0
M  V30 2396 N 233.54 1.10788 -1.12088 0
M  V30 2397 C 234.768 1.86461 -0.896651 0
M  V30 2398 C 235.183 1.80492 0.553912 0
M  V30 2399 O 234.54 1.19102 1.38278 0
M  V30 2400 C 234.591 3.35006 -1.35843 0
M  V30 2401 O 234.312 3.40866 -2.75213 0
M  V30 2402 C 235.813 4.27565 -1.1706 0
M  V30 2403 H 233.033 0.589425 -0.320654 0
M  V30 2404 H 235.577 1.40076 -1.48993 0
M  V30 2405 H 233.732 3.7887 -0.808458 0
M  V30 2406 H 234.146 4.33411 -2.9539 0
M  V30 2407 H 235.62 5.30007 -1.54263 0
M  V30 2408 H 236.097 4.3906 -0.110814 0
M  V30 2409 H 236.703 3.89501 -1.70789 0
M  V30 2410 N 235.018 0.912232 1.28515 0
M  V30 2411 C 235.951 0.343928 2.25593 0
M  V30 2412 C 236.929 -0.550994 1.5298 0
M  V30 2413 O 238.113 -0.494991 1.81885 0
M  V30 2414 C 235.24 -0.508525 3.34861 0
M  V30 2415 C 234.286 0.320808 4.25292 0
M  V30 2416 S 235.119 1.72658 5.06902 0
M  V30 2417 C 236.275 0.881394 6.19663 0
M  V30 2418 H 236.508 1.16674 2.73449 0
M  V30 2419 H 234.041 0.713384 1.36931 0
M  V30 2420 H 235.999 -0.994539 3.9827 0
M  V30 2421 H 234.66 -1.30571 2.85675 0
M  V30 2422 H 233.853 -0.330941 5.02912 0
M  V30 2423 H 233.455 0.74042 3.66598 0
M  V30 2424 H 235.747 0.110359 6.7741 0
M  V30 2425 H 236.69 1.63009 6.89082 0
M  V30 2426 H 237.098 0.430239 5.62858 0
M  V30 2427 N 236.496 -1.42363 0.676048 0
M  V30 2428 C 237.426 -2.33497 0.0124832 0
M  V30 2429 C 238.407 -1.50748 -0.787981 0
M  V30 2430 O 239.592 -1.79346 -0.744884 0
M  V30 2431 C 236.722 -3.34377 -0.938582 0
M  V30 2432 C 235.676 -4.27289 -0.246622 0
M  V30 2433 C 235.002 -5.18386 -1.31071 0
M  V30 2434 C 236.302 -5.14916 0.875125 0
M  V30 2435 H 237.996 -2.89233 0.773593 0
M  V30 2436 H 235.542 -1.39073 0.37346 0
M  V30 2437 H 237.495 -3.97044 -1.41188 0
M  V30 2438 H 236.219 -2.76947 -1.73113 0
M  V30 2439 H 234.878 -3.66018 0.206456 0
M  V30 2440 H 234.526 -4.57282 -2.09528 0
M  V30 2441 H 234.226 -5.81378 -0.852839 0
M  V30 2442 H 235.75 -5.83929 -1.78492 0
M  V30 2443 H 237.164 -5.71262 0.482983 0
M  V30 2444 H 235.561 -5.86747 1.25887 0
M  V30 2445 H 236.631 -4.53242 1.72335 0
M  V30 2446 N 237.974 -0.419461 -1.51915 0
M  V30 2447 C 239.221 0.152939 -2.01922 0
M  V30 2448 C 239.549 1.4426 -1.30458 0
M  V30 2449 O 238.804 1.91514 -0.402593 0
M  V30 2450 C 239.103 0.437067 -3.54717 0
M  V30 2451 C 238.769 -0.764632 -4.44369 0
M  V30 2452 C 237.431 -1.09423 -4.68594 0
M  V30 2453 C 239.783 -1.56713 -4.97082 0
M  V30 2454 C 237.111 -2.22732 -5.42777 0
M  V30 2455 C 239.463 -2.69107 -5.72507 0
M  V30 2456 C 238.127 -3.02541 -5.95 0
M  V30 2457 H 237.397 0.0559644 -0.738884 0
M  V30 2458 H 240.044 -0.562998 -1.83037 0
M  V30 2459 H 238.349 1.23469 -3.71837 0
M  V30 2460 H 240.046 0.893083 -3.90928 0
M  V30 2461 H 236.636 -0.497775 -4.257 0
M  V30 2462 H 240.82 -1.32571 -4.78266 0
M  V30 2463 H 236.076 -2.48971 -5.58411 0
M  V30 2464 H 240.25 -3.31671 -6.12346 0
M  V30 2465 H 237.877 -3.90457 -6.52264 0
M  V30 2466 N 239.452 1.56882 -0.150215 0
M  V30 2467 C 240.415 2.1573 0.774157 0
M  V30 2468 C 241.415 1.0999 1.17298 0
M  V30 2469 O 242.605 1.35613 1.09338 0
M  V30 2470 C 239.737 2.72302 2.05096 0
M  V30 2471 H 240.93 2.98752 0.262201 0
M  V30 2472 H 238.483 1.55985 0.099248 0
M  V30 2473 H 239.218 1.92956 2.6065 0
M  V30 2474 H 239.003 3.49665 1.77416 0
M  V30 2475 H 240.493 3.17632 2.71109 0
M  V30 2476 N 240.93 -0.123565 1.57115 0
M  V30 2477 C 242.176 -0.833386 1.84885 0
M  V30 2478 C 242.509 -1.79742 0.735292 0
M  V30 2479 O 241.784 -1.92764 -0.25925 0
M  V30 2480 C 242.067 -1.5873 3.23228 0
M  V30 2481 C 241.92 -0.643183 4.45178 0
M  V30 2482 C 243.239 -2.54453 3.59085 0
M  V30 2483 H 240.358 -0.301518 0.6725 0
M  V30 2484 H 243 -0.097778 1.89748 0
M  V30 2485 H 241.15 -2.21438 3.19214 0
M  V30 2486 H 242.822 -0.0253015 4.61293 0
M  V30 2487 H 241.065 0.0456139 4.33776 0
M  V30 2488 H 241.736 -1.20724 5.38637 0
M  V30 2489 H 244.212 -2.01853 3.63861 0
M  V30 2490 H 243.088 -3.04238 4.5687 0
M  V30 2491 H 243.349 -3.36906 2.86264 0
M  V30 2492 N 242.408 -1.52605 -0.393616 0
M  V30 2493 C 243.371 -1.76415 -1.46323 0
M  V30 2494 C 244.371 -0.634126 -1.47768 0
M  V30 2495 O 245.561 -0.902142 -1.4902 0
M  V30 2496 C 242.693 -1.8607 -2.85641 0
M  V30 2497 H 243.886 -2.71916 -1.26498 0
M  V30 2498 H 241.439 -1.43257 -0.625073 0
M  V30 2499 H 242.174 -0.925378 -3.10817 0
M  V30 2500 H 241.959 -2.68235 -2.85993 0
M  V30 2501 H 243.449 -2.06179 -3.63153 0
M  V30 2502 N 243.887 0.651787 -1.4349 0
M  V30 2503 C 244.835 1.78586 -1.49029 0
M  V30 2504 C 245.829 1.65448 -0.363767 0
M  V30 2505 O 247.035 1.71777 -0.537821 0
M  V30 2506 H 243.41 0.589236 -0.467231 0
M  V30 2507 H 245.381 1.71035 -2.44519 0
M  V30 2508 C 244.13 3.16851 -1.43181 0
M  V30 2509 H 243.453 3.27598 -2.29171 0
M  V30 2510 H 244.893 3.96156 -1.51118 0
M  V30 2511 C 243.352 3.36568 -0.149616 0
M  V30 2512 O 243.882 3.93885 0.788509 0
M  V30 2513 N 242.088 2.90539 -0.0593484 0
M  V30 2514 H 241.635 2.4408 -0.823575 0
M  V30 2515 H 241.593 3.04108 0.797853 0
M  V30 2516 N 245.365 1.30045 0.890287 0
M  V30 2517 C 246.275 1.17885 2.02831 0
M  V30 2518 C 247.291 0.0999609 1.73713 0
M  V30 2519 O 248.467 0.313867 1.98939 0
M  V30 2520 C 245.532 0.866079 3.35708 0
M  V30 2521 C 244.593 2.02979 3.78283 0
M  V30 2522 C 243.826 1.73184 5.0482 0
M  V30 2523 O 244.049 0.657237 5.66601 0
M  V30 2524 O 242.983 2.58267 5.43674 0
M  V30 2525 H 246.809 2.13474 2.16015 0
M  V30 2526 H 244.394 1.09587 1.01543 0
M  V30 2527 H 246.276 0.706623 4.15433 0
M  V30 2528 H 244.951 -0.0599443 3.23644 0
M  V30 2529 H 243.858 2.24454 2.99285 0
M  V30 2530 H 245.191 2.93734 3.94944 0
M  V30 2531 N 246.843 -1.10192 1.12674 0
M  V30 2532 C 248.083 -1.83825 0.893736 0
M  V30 2533 C 248.447 -1.83341 -0.570082 0
M  V30 2534 O 249.648 -2.52553 -0.920354 0
M  V30 2535 C 247.919 -3.26405 1.45582 0
M  V30 2536 S 249.478 -4.17136 1.36171 0
M  V30 2537 H 246.296 -0.633732 0.322342 0
M  V30 2538 H 248.898 -1.32581 1.43675 0
M  V30 2539 H 247.602 -3.24329 2.51473 0
M  V30 2540 H 247.133 -3.82721 0.910405 0
M  V30 2541 H 249.148 -4.95069 0.334863 0
M  V30 2542 N 248.321 -0.919034 -1.28029 0
M  V30 2543 C 249.251 -0.428581 -2.29533 0
M  V30 2544 C 250.232 0.50659 -1.62381 0
M  V30 2545 O 251.417 0.413195 -1.89753 0
M  V30 2546 C 248.547 0.327388 -3.45753 0
M  V30 2547 C 247.501 -0.519137 -4.2484 0
M  V30 2548 C 246.827 0.365486 -5.33449 0
M  V30 2549 C 248.127 -1.77914 -4.91064 0
M  V30 2550 H 249.821 -1.27687 -2.70807 0
M  V30 2551 H 247.367 -0.615428 -1.30186 0
M  V30 2552 H 249.32 0.681378 -4.15855 0
M  V30 2553 H 248.044 1.20963 -3.03374 0
M  V30 2554 H 246.703 -0.855717 -3.56473 0
M  V30 2555 H 246.351 1.24642 -4.87312 0
M  V30 2556 H 246.051 -0.197356 -5.87268 0
M  V30 2557 H 247.575 0.715241 -6.06396 0
M  V30 2558 H 248.989 -1.49374 -5.53498 0
M  V30 2559 H 247.386 -2.2848 -5.54903 0
M  V30 2560 H 248.456 -2.50382 -4.15255 0
M  V30 2561 N 249.799 1.42003 -0.683588 0
M  V30 2562 C 250.746 2.30798 -0.0107309 0
M  V30 2563 C 251.716 1.4645 0.783688 0
M  V30 2564 O 252.901 1.75263 0.754156 0
M  V30 2565 C 250.041 3.3238 0.928306 0
M  V30 2566 C 249.154 4.31814 0.126776 0
M  V30 2567 C 248.289 5.20468 1.06236 0
M  V30 2568 C 247.328 6.11577 0.253035 0
M  V30 2569 N 246.465 6.92754 1.14179 0
M  V30 2570 H 251.305 2.8778 -0.773727 0
M  V30 2571 H 248.842 1.41745 -0.393283 0
M  V30 2572 H 250.8 3.89813 1.48666 0
M  V30 2573 H 249.43 2.76976 1.65783 0
M  V30 2574 H 248.482 3.76427 -0.54833 0
M  V30 2575 H 249.794 4.96276 -0.501192 0
M  V30 2576 H 248.948 5.82677 1.69035 0
M  V30 2577 H 247.687 4.56204 1.7242 0
M  V30 2578 H 246.692 5.48428 -0.388108 0
M  V30 2579 H 247.917 6.77892 -0.404839 0
M  V30 2580 H 245.863 6.3111 1.78987 0
M  V30 2581 H 245.78 7.53855 0.569111 0
M  V30 2582 H 247.048 7.59441 1.75697 0
M  V30 2583 N 251.277 0.427512 1.51691 0
M  V30 2584 C 252.207 -0.3796 2.30394 0
M  V30 2585 C 253.188 -1.02982 1.35384 0
M  V30 2586 O 254.373 -1.03534 1.643 0
M  V30 2587 C 251.503 -1.48649 3.1388 0
M  V30 2588 C 250.457 -0.960294 4.17088 0
M  V30 2589 C 249.783 -2.16219 4.89033 0
M  V30 2590 C 251.083 -0.00153679 5.223 0
M  V30 2591 H 252.777 0.277164 2.98114 0
M  V30 2592 H 250.323 0.134739 1.43368 0
M  V30 2593 H 252.276 -2.05826 3.67714 0
M  V30 2594 H 251 -2.1714 2.43962 0
M  V30 2595 H 249.659 -0.410806 3.64291 0
M  V30 2596 H 249.307 -2.83307 4.15628 0
M  V30 2597 H 249.007 -1.81654 5.58816 0
M  V30 2598 H 250.531 -2.73968 5.45687 0
M  V30 2599 H 251.945 -0.482687 5.71264 0
M  V30 2600 H 250.342 0.256199 5.99553 0
M  V30 2601 H 251.412 0.938174 4.75738 0
M  V30 2602 N 252.755 -1.56801 0.158532 0
M  V30 2603 C 254.003 -1.96102 -0.488712 0
M  V30 2604 C 254.324 -1.04498 -1.64636 0
M  V30 2605 O 253.594 -0.108783 -1.95598 0
M  V30 2606 H 252.174 -0.724102 -0.183535 0
M  V30 2607 H 254.836 -1.93457 0.236728 0
M  V30 2608 H 253.932 -3.00097 -0.857219 0
M  V30 2609 N 254.233 0.115231 -1.57178 0
M  V30 2610 C 255.479 0.82357 -1.85325 0
M  V30 2611 C 255.812 1.79349 -0.744814 0
M  V30 2612 O 255.087 1.92899 0.249024 0
M  V30 2613 C 255.37 1.57014 -3.24066 0
M  V30 2614 C 255.223 0.619565 -4.45513 0
M  V30 2615 C 256.542 2.52545 -3.60429 0
M  V30 2616 H 253.661 0.297948 -0.674089 0
M  V30 2617 H 256.303 0.0877138 -1.89797 0
M  V30 2618 H 254.453 2.19742 -3.20383 0
M  V30 2619 H 256.125 0.000837639 -4.613 0
M  V30 2620 H 254.368 -0.0686174 -4.33746 0
M  V30 2621 H 255.039 1.17866 -5.3927 0
M  V30 2622 H 257.515 1.9992 -3.64926 0
M  V30 2623 H 256.391 3.01811 -4.58477 0
M  V30 2624 H 256.652 3.35383 -2.88047 0
M  V30 2625 N 255.711 1.52812 0.385517 0
M  V30 2626 C 256.936 1.72207 1.15583 0
M  V30 2627 C 257.361 0.441034 1.82857 0
M  V30 2628 O 256.719 -0.603465 1.70962 0
M  V30 2629 C 256.767 2.87476 2.17692 0
M  V30 2630 O 255.871 2.54693 3.24354 0
M  V30 2631 H 255.212 0.572526 0.336319 0
M  V30 2632 H 257.742 1.99618 0.448744 0
M  V30 2633 H 257.752 3.13072 2.6163 0
M  V30 2634 H 256.427 3.80408 1.68115 0
M  V30 2635 H 255.004 2.3985 2.85529 0
M  V30 2636 N 257.189 -0.644168 1.43834 0
M  V30 2637 C 258.438 -1.39985 1.45214 0
M  V30 2638 C 258.751 -1.95421 0.0835494 0
M  V30 2639 O 259.957 -2.71488 -0.0251748 0
M  V30 2640 C 258.413 -2.53384 2.55587 0
M  V30 2641 C 258.021 -2.04517 3.98594 0
M  V30 2642 C 259.765 -3.30685 2.66172 0
M  V30 2643 C 257.672 -3.1518 5.00416 0
M  V30 2644 H 256.602 -0.526005 0.540218 0
M  V30 2645 H 259.253 -0.694367 1.69855 0
M  V30 2646 H 257.635 -3.26446 2.24163 0
M  V30 2647 H 258.809 -1.38405 4.39523 0
M  V30 2648 H 257.124 -1.40068 3.92135 0
M  V30 2649 H 259.721 -4.13158 3.39418 0
M  V30 2650 H 260.064 -3.79312 1.71546 0
M  V30 2651 H 260.597 -2.64708 2.96942 0
M  V30 2652 H 257.336 -2.71511 5.96625 0
M  V30 2653 H 256.856 -3.79974 4.64091 0
M  V30 2654 H 258.535 -3.80166 5.23529 0
M  V30 2655 N 258.668 -1.30515 -0.883378 0
M  V30 2656 C 259.6 -1.12846 -1.99496 0
M  V30 2657 C 260.613 -0.0712571 -1.62644 0
M  V30 2658 O 261.802 -0.317432 -1.75655 0
M  V30 2659 C 258.902 -0.699123 -3.3161 0
M  V30 2660 C 258.075 -1.83842 -3.96889 0
M  V30 2661 C 257.134 -1.39737 -5.07307 0
M  V30 2662 O 256.16 -2.10485 -5.28852 0
M  V30 2663 N 257.362 -0.277279 -5.79837 0
M  V30 2664 H 260.127 -2.08585 -2.15203 0
M  V30 2665 H 257.688 -1.22672 -1.05656 0
M  V30 2666 H 259.68 -0.387044 -4.02845 0
M  V30 2667 H 258.25 0.166276 -3.12157 0
M  V30 2668 H 257.47 -2.31853 -3.18807 0
M  V30 2669 H 258.758 -2.60187 -4.37241 0
M  V30 2670 H 258.156 0.3122 -5.64838 0
M  V30 2671 H 256.713 -0.0246623 -6.51795 0
M  V30 2672 N 260.146 1.09593 -1.13257 0
M  V30 2673 C 261.423 1.78293 -0.804432 0
M  V30 2674 C 261.803 1.99004 0.70431 0
M  V30 2675 O 261.151 1.59007 1.641 0
M  V30 2676 C 261.361 3.10707 -1.5894 0
M  V30 2677 C 262.709 3.85443 -1.78099 0
M  V30 2678 O 263.733 3.20454 -1.55525 0
M  V30 2679 O 262.592 5.02108 -2.15753 0
M  V30 2680 H 259.686 0.773156 -0.293528 0
M  V30 2681 H 262.232 1.16164 -1.23709 0
M  V30 2682 H 261.004 2.91106 -2.61482 0
M  V30 2683 H 260.627 3.80558 -1.15157 0
M  V30 2684 N 261.624 0.925811 1.2754 0
M  V30 2685 C 263.04 0.625767 1.46821 0
M  V30 2686 C 263.24 -0.825506 1.83814 0
M  V30 2687 O 262.296 -1.60356 1.95044 0
M  V30 2688 C 263.609 1.57402 2.56213 0
M  V30 2689 C 265.157 1.58204 2.70075 0
M  V30 2690 C 265.632 2.51721 3.82623 0
M  V30 2691 N 267.123 2.49917 3.89994 0
M  V30 2692 C 267.858 3.18968 4.76494 0
M  V30 2693 N 267.354 3.97391 5.67496 0
M  V30 2694 N 269.147 3.07996 4.70208 0
M  V30 2695 H 261.298 1.86409 1.01811 0
M  V30 2696 H 263.561 0.800213 0.508295 0
M  V30 2697 H 263.267 2.60925 2.35819 0
M  V30 2698 H 263.141 1.31428 3.53563 0
M  V30 2699 H 265.528 0.554124 2.89851 0
M  V30 2700 H 265.609 1.88226 1.73218 0
M  V30 2701 H 265.253 3.54622 3.63601 0
M  V30 2702 H 265.183 2.18996 4.78903 0
M  V30 2703 H 267.674 1.9296 3.24923 0
M  V30 2704 H 267.987 4.4707 6.30356 0
M  V30 2705 H 266.332 4.01495 5.67298 0
M  V30 2706 H 269.523 2.46223 3.9811 0
M  V30 2707 H 269.696 3.6208 5.37403 0
M  V30 2708 N 263.102 -1.41638 0.69111 0
M  V30 2709 C 264.049 -2.30789 0.0229705 0
M  V30 2710 C 265.019 -1.46863 -0.775911 0
M  V30 2711 O 266.204 -1.75661 -0.74485 0
M  V30 2712 C 263.344 -3.32868 -0.910666 0
M  V30 2713 C 262.457 -4.31875 -0.103874 0
M  V30 2714 C 261.592 -5.21024 -1.03475 0
M  V30 2715 C 260.631 -6.11702 -0.220598 0
M  V30 2716 N 259.768 -6.93349 -1.10504 0
M  V30 2717 H 264.608 -2.87366 0.788978 0
M  V30 2718 H 262.145 -1.41535 0.400794 0
M  V30 2719 H 264.103 -3.90596 -1.46597 0
M  V30 2720 H 262.733 -2.77851 -1.64312 0
M  V30 2721 H 261.785 -3.76131 0.568285 0
M  V30 2722 H 263.097 -4.96003 0.527504 0
M  V30 2723 H 262.251 -5.83565 -1.65943 0
M  V30 2724 H 260.99 -4.57112 -1.69999 0
M  V30 2725 H 259.995 -5.48215 0.417187 0
M  V30 2726 H 261.22 -6.77668 0.440784 0
M  V30 2727 H 259.166 -6.3205 -1.75638 0
M  V30 2728 H 259.083 -7.54146 -0.529125 0
M  V30 2729 H 260.351 -7.60362 -1.71667 0
M  V30 2730 N 264.58 -0.43555 -1.51462 0
M  V30 2731 C 265.49 0.383001 -2.31453 0
M  V30 2732 C 266.506 1.02931 -1.4029 0
M  V30 2733 O 267.682 1.02507 -1.73362 0
M  V30 2734 C 264.747 1.47043 -3.13973 0
M  V30 2735 C 263.808 0.844433 -4.20913 0
M  V30 2736 C 263.041 1.88004 -4.9949 0
M  V30 2737 O 263.264 3.10199 -4.78678 0
M  V30 2738 O 262.198 1.47157 -5.83634 0
M  V30 2739 H 266.024 -0.269964 -3.02498 0
M  V30 2740 H 263.609 -0.19813 -1.4808 0
M  V30 2741 H 265.491 2.10113 -3.65281 0
M  V30 2742 H 264.166 2.10751 -2.45695 0
M  V30 2743 H 263.073 0.175729 -3.73687 0
M  V30 2744 H 264.406 0.250869 -4.9156 0
M  V30 2745 N 266.058 1.56714 -0.166846 0
M  V30 2746 C 267.021 2.16539 0.751232 0
M  V30 2747 C 268.021 1.11228 1.16125 0
M  V30 2748 O 269.211 1.36765 1.07894 0
M  V30 2749 C 266.343 2.74462 2.02196 0
M  V30 2750 H 267.536 2.99013 0.230499 0
M  V30 2751 H 265.089 1.56081 0.0826982 0
M  V30 2752 H 265.824 1.95709 2.58589 0
M  V30 2753 H 265.609 3.51527 1.73698 0
M  V30 2754 H 267.099 3.20489 2.67725 0
M  V30 2755 N 267.536 -0.106894 1.57237 0
M  V30 2756 C 268.785 -0.811163 1.8467 0
M  V30 2757 C 269.098 -1.80469 0.754342 0
M  V30 2758 O 270.304 -2.55601 0.915439 0
M  V30 2759 C 268.76 -1.49337 3.27454 0
M  V30 2760 C 268.368 -0.540217 4.44731 0
M  V30 2761 C 270.112 -2.18206 3.64124 0
M  V30 2762 C 268.019 -1.22634 5.78545 0
M  V30 2763 H 266.949 -0.306679 0.688813 0
M  V30 2764 H 269.6 -0.0639887 1.83388 0
M  V30 2765 H 267.982 -2.2876 3.23241 0
M  V30 2766 H 269.156 0.221659 4.60267 0
M  V30 2767 H 267.471 0.042146 4.16379 0
M  V30 2768 H 270.068 -2.70253 4.61376 0
M  V30 2769 H 270.411 -2.96562 2.92158 0
M  V30 2770 H 270.944 -1.45658 3.70174 0
M  V30 2771 H 267.683 -0.483832 6.53712 0
M  V30 2772 H 267.203 -1.95993 5.66874 0
M  V30 2773 H 268.882 -1.75615 6.2271 0
M  V30 2774 N 269.014 -1.53014 -0.377408 0
M  V30 2775 C 269.977 -1.77957 -1.44444 0
M  V30 2776 C 270.977 -0.649763 -1.47087 0
M  V30 2777 O 272.167 -0.917897 -1.48055 0
M  V30 2778 C 269.299 -1.89089 -2.83651 0
M  V30 2779 H 270.492 -2.73243 -1.23606 0
M  V30 2780 H 268.045 -1.43912 -0.609844 0
M  V30 2781 H 268.78 -0.958293 -3.09818 0
M  V30 2782 H 268.565 -2.71254 -2.83132 0
M  V30 2783 H 270.055 -2.1002 -3.60945 0
M  V30 2784 N 270.492 0.636531 -1.44174 0
M  V30 2785 C 271.422 1.76003 -1.53444 0
M  V30 2786 C 272.403 1.65619 -0.387841 0
M  V30 2787 O 273.588 1.84461 -0.607257 0
M  V30 2788 C 270.718 3.14511 -1.4731 0
M  V30 2789 C 269.672 3.39677 -2.60391 0
M  V30 2790 C 268.998 4.78159 -2.39308 0
M  V30 2791 C 270.298 3.32772 -4.02567 0
M  V30 2792 H 271.992 1.68501 -2.47483 0
M  V30 2793 H 269.538 0.809237 -1.19111 0
M  V30 2794 H 271.491 3.92878 -1.52397 0
M  V30 2795 H 270.215 3.22783 -0.49785 0
M  V30 2796 H 268.874 2.63688 -2.54684 0
M  V30 2797 H 268.522 4.83128 -1.39988 0
M  V30 2798 H 268.222 4.95956 -3.15122 0
M  V30 2799 H 269.746 5.58762 -2.46205 0
M  V30 2800 H 271.16 4.01051 -4.09672 0
M  V30 2801 H 269.557 3.62104 -4.7854 0
M  V30 2802 H 270.627 2.30669 -4.2652 0
M  V30 2803 N 271.97 1.30982 0.876444 0
M  V30 2804 C 273.219 1.19658 1.62373 0
M  V30 2805 C 273.532 -0.245636 1.94052 0
M  V30 2806 O 274.738 -0.48049 2.67214 0
M  V30 2807 C 273.194 2.09433 2.92687 0
M  V30 2808 C 272.802 3.58613 2.68516 0
M  V30 2809 C 274.546 2.06893 3.70669 0
M  V30 2810 C 272.453 4.40416 3.94699 0
M  V30 2811 H 271.383 0.444268 0.609214 0
M  V30 2812 H 274.034 1.55791 0.969605 0
M  V30 2813 H 272.416 1.66191 3.59439 0
M  V30 2814 H 273.59 4.10058 2.10212 0
M  V30 2815 H 271.905 3.63063 2.03898 0
M  V30 2816 H 274.502 2.65258 4.64265 0
M  V30 2817 H 274.845 1.05448 4.02724 0
M  V30 2818 H 275.378 2.48301 3.10792 0
M  V30 2819 H 272.117 5.42591 3.67798 0
M  V30 2820 H 271.637 3.93731 4.52477 0
M  V30 2821 H 273.316 4.52294 4.62644 0
M  V30 2822 N 273.449 -1.08991 1.13837 0
M  V30 2823 C 274.399 -2.1393 0.788535 0
M  V30 2824 C 275.383 -1.59396 -0.219516 0
M  V30 2825 O 276.575 -1.76985 -0.0227557 0
M  V30 2826 C 273.704 -3.42305 0.261147 0
M  V30 2827 C 272.79 -4.03736 1.29837 0
M  V30 2828 N 273.181 -4.39659 2.50067 0
M  V30 2829 C 271.479 -4.30993 1.1472 0
M  V30 2830 C 272.18 -4.88113 3.16419 0
M  V30 2831 N 271.156 -4.85846 2.43832 0
M  V30 2832 H 274.958 -2.39516 1.70322 0
M  V30 2833 H 272.472 -1.26263 1.02134 0
M  V30 2834 H 274.469 -4.16899 -0.0077405 0
M  V30 2835 H 273.129 -3.18172 -0.647805 0
M  V30 2836 H 274.14 -4.30878 2.8734 0
M  V30 2837 H 270.817 -4.16444 0.296773 0
M  V30 2838 H 272.207 -5.25336 4.18894 0
M  V30 2839 N 274.927 -0.932562 -1.27047 0
M  V30 2840 C 275.859 -0.392734 -2.2581 0
M  V30 2841 C 276.872 0.479241 -1.55586 0
M  V30 2842 O 278.061 0.291078 -1.76111 0
M  V30 2843 C 275.161 0.455456 -3.35826 0
M  V30 2844 C 274.334 -0.398355 -4.35582 0
M  V30 2845 C 273.393 0.387985 -5.24768 0
M  V30 2846 O 272.419 -0.206003 -5.68827 0
M  V30 2847 N 273.621 1.68664 -5.55457 0
M  V30 2848 H 276.386 -1.24173 -2.72766 0
M  V30 2849 H 273.947 -0.800511 -1.40725 0
M  V30 2850 H 275.939 0.988692 -3.92437 0
M  V30 2851 H 274.509 1.20522 -2.88432 0
M  V30 2852 H 273.729 -1.11286 -3.78165 0
M  V30 2853 H 275.017 -0.981889 -4.99236 0
M  V30 2854 H 274.415 2.19147 -5.21528 0
M  V30 2855 H 272.972 2.1663 -6.14748 0
M  V30 2856 N 276.405 1.4127 -0.698611 0
M  V30 2857 C 277.682 1.94955 -0.158762 0
M  V30 2858 C 278.062 1.63781 1.33188 0
M  V30 2859 O 277.41 0.946423 2.07979 0
M  V30 2860 C 277.62 3.46044 -0.453309 0
M  V30 2861 C 278.968 4.22872 -0.382707 0
M  V30 2862 O 279.992 3.54076 -0.388396 0
M  V30 2863 O 278.851 5.45407 -0.345463 0
M  V30 2864 H 275.945 0.82683 -0.0167505 0
M  V30 2865 H 278.491 1.50971 -0.77498 0
M  V30 2866 H 277.263 3.62028 -1.48498 0
M  V30 2867 H 276.886 3.97128 0.19373 0
M  V30 2868 N 277.883 0.443576 1.51229 0
M  V30 2869 C 279.131 -0.120557 2.0174 0
M  V30 2870 C 279.452 -1.42665 1.32935 0
M  V30 2871 O 278.722 -1.9028 0.465866 0
M  V30 2872 H 277.302 -0.0475426 0.745486 0
M  V30 2873 H 279.964 0.587711 1.85828 0
M  V30 2874 H 279.06 -0.291972 3.10731 0
M  V30 2875 N 279.361 -1.56624 0.175154 0
M  V30 2876 C 280.308 -2.18149 -0.753634 0
M  V30 2877 C 281.278 -1.12265 -1.22417 0
M  V30 2878 O 282.463 -1.40432 -1.29165 0
M  V30 2879 C 279.603 -2.82933 -1.97592 0
M  V30 2880 C 278.716 -4.03289 -1.5486 0
M  V30 2881 C 277.851 -4.55988 -2.72485 0
M  V30 2882 C 276.89 -5.68746 -2.26262 0
M  V30 2883 N 276.027 -6.15938 -3.36994 0
M  V30 2884 H 280.867 -2.9717 -0.222195 0
M  V30 2885 H 278.404 -1.46774 -0.0979422 0
M  V30 2886 H 280.362 -3.18653 -2.69288 0
M  V30 2887 H 278.992 -2.06509 -2.481 0
M  V30 2888 H 278.044 -3.73364 -0.728246 0
M  V30 2889 H 279.356 -4.849 -1.16933 0
M  V30 2890 H 278.51 -4.9391 -3.52332 0
M  V30 2891 H 277.249 -3.73443 -3.13674 0
M  V30 2892 H 276.254 -5.30372 -1.44863 0
M  V30 2893 H 277.479 -6.53095 -1.86127 0
M  V30 2894 H 275.425 -5.36321 -3.77751 0
M  V30 2895 H 275.342 -6.92548 -3.03172 0
M  V30 2896 H 276.61 -6.58511 -4.17114 0
M  V30 2897 N 280.839 0.0985539 -1.57292 0
M  V30 2898 C 282.079 0.808332 -1.87737 0
M  V30 2899 C 282.443 1.7607 -0.76572 0
M  V30 2900 O 283.644 2.51358 -0.952499 0
M  V30 2901 C 281.915 1.52093 -3.23423 0
M  V30 2902 S 283.474 2.26947 -3.75554 0
M  V30 2903 H 280.292 0.269377 -0.657995 0
M  V30 2904 H 282.894 0.0656269 -1.9539 0
M  V30 2905 H 281.598 0.81363 -4.02254 0
M  V30 2906 H 281.129 2.30361 -3.189 0
M  V30 2907 H 283.144 3.53027 -3.48692 0
M  V30 2908 N 282.317 1.53212 0.369288 0
M  V30 2909 C 283.547 1.72868 1.13139 0
M  V30 2910 C 283.955 0.455754 1.83629 0
M  V30 2911 O 283.298 -0.580861 1.74275 0
M  V30 2912 C 283.36 2.83667 2.20847 0
M  V30 2913 C 283.024 4.24142 1.70155 0
M  V30 2914 C 284.021 5.06619 1.16763 0
M  V30 2915 C 281.706 4.70539 1.7578 0
M  V30 2916 C 283.7 6.33581 0.696678 0
M  V30 2917 C 281.387 5.97481 1.28297 0
M  V30 2918 C 282.385 6.78833 0.753307 0
M  V30 2919 O 282.073 8.03393 0.285475 0
M  V30 2920 H 281.805 0.581707 0.344373 0
M  V30 2921 H 284.359 2.00736 0.435243 0
M  V30 2922 H 282.589 2.51265 2.93944 0
M  V30 2923 H 284.278 2.91536 2.82421 0
M  V30 2924 H 285.044 4.71948 1.11758 0
M  V30 2925 H 280.923 4.07293 2.15949 0
M  V30 2926 H 284.467 6.97027 0.282581 0
M  V30 2927 H 280.364 6.31651 1.32994 0
M  V30 2928 H 281.132 8.17497 0.405145 0
M  V30 2929 N 283.795 -0.628877 1.44509 0
M  V30 2930 C 285.043 -1.38565 1.4712 0
M  V30 2931 C 285.364 -1.94712 0.105899 0
M  V30 2932 O 284.634 -1.75912 -0.862079 0
M  V30 2933 H 283.214 -0.514333 0.541729 0
M  V30 2934 H 285.876 -0.740018 1.80305 0
M  V30 2935 H 284.972 -2.21583 2.19789 0
M  V30 2936 N 285.273 -1.31445 -0.869486 0
M  V30 2937 C 286.236 -1.19094 -1.9583 0
M  V30 2938 C 287.236 -0.117906 -1.60367 0
M  V30 2939 O 288.426 -0.367208 -1.70286 0
M  V30 2940 C 285.558 -0.828165 -3.30688 0
M  V30 2941 H 286.751 -2.15842 -2.08212 0
M  V30 2942 H 284.304 -1.15063 -1.05784 0
M  V30 2943 H 285.039 0.138142 -3.24006 0
M  V30 2944 H 284.824 -1.6038 -3.578 0
M  V30 2945 H 286.314 -0.765658 -4.10521 0
M  V30 2946 N 286.751 1.08385 -1.14413 0
M  V30 2947 C 287.997 1.81044 -0.913834 0
M  V30 2948 C 288.33 1.86004 0.558209 0
M  V30 2949 O 287.605 1.33606 1.4135 0
M  V30 2950 C 287.888 3.26648 -1.51569 0
M  V30 2951 C 287.741 3.29895 -3.0576 0
M  V30 2952 C 289.06 4.23629 -1.19273 0
M  V30 2953 H 286.179 0.65727 -0.333414 0
M  V30 2954 H 288.821 1.26896 -1.41412 0
M  V30 2955 H 286.971 3.72889 -1.09023 0
M  V30 2956 H 288.643 2.91977 -3.57137 0
M  V30 2957 H 286.886 2.69163 -3.40197 0
M  V30 2958 H 287.557 4.32516 -3.42977 0
M  V30 2959 H 290.033 3.85727 -1.56057 0
M  V30 2960 H 288.909 5.23822 -1.64017 0
M  V30 2961 H 289.17 4.41968 -0.108068 0
M  V30 2962 N 288.23 0.939286 1.26551 0
M  V30 2963 C 289.476 0.586715 1.94128 0
M  V30 2964 C 289.809 -0.8717 1.73537 0
M  V30 2965 O 289.084 -1.62339 1.07127 0
M  V30 2966 C 289.367 0.927497 3.4795 0
M  V30 2967 C 289.22 2.44052 3.77834 0
M  V30 2968 C 290.539 0.441569 4.37879 0
M  V30 2969 H 287.658 0.21463 0.705055 0
M  V30 2970 H 290.3 1.17316 1.49455 0
M  V30 2971 H 288.45 0.428431 3.8613 0
M  V30 2972 H 290.122 3.01216 3.4938 0
M  V30 2973 H 288.365 2.8848 3.23978 0
M  V30 2974 H 289.036 2.62947 4.85348 0
M  V30 2975 H 291.512 0.869448 4.06915 0
M  V30 2976 H 290.388 0.708856 5.44304 0
M  V30 2977 H 290.649 -0.658467 4.37169 0
M  V30 2978 N 289.708 -1.40897 0.706093 0
M  V30 2979 C 291.124 -1.55042 0.37869 0
M  V30 2980 C 291.324 -1.67944 -1.11342 0
M  V30 2981 O 290.38 -1.66372 -1.89938 0
M  V30 2982 C 291.693 -2.78398 1.13643 0
M  V30 2983 C 293.241 -2.92206 1.12181 0
M  V30 2984 C 293.716 -4.18463 1.86152 0
M  V30 2985 N 295.207 -4.25443 1.83173 0
M  V30 2986 C 295.942 -5.2202 2.37239 0
M  V30 2987 N 295.438 -6.24563 2.99821 0
M  V30 2988 N 297.231 -5.14033 2.27435 0
M  V30 2989 H 289.382 -1.30769 1.67372 0
M  V30 2990 H 291.645 -0.631653 0.706907 0
M  V30 2991 H 291.351 -2.7511 2.19106 0
M  V30 2992 H 291.225 -3.70228 0.721853 0
M  V30 2993 H 293.612 -2.95004 0.0754171 0
M  V30 2994 H 293.693 -2.01521 1.57554 0
M  V30 2995 H 293.337 -4.16427 2.90776 0
M  V30 2996 H 293.267 -5.08141 1.38206 0
M  V30 2997 H 295.758 -3.51976 1.37556 0
M  V30 2998 H 296.071 -6.94665 3.38616 0
M  V30 2999 H 294.416 -6.25035 3.03902 0
M  V30 3000 H 297.607 -4.3285 1.78208 0
M  V30 3001 H 297.78 -5.89129 2.69873 0
M  V30 3002 N 291.186 -0.45159 -1.50991 0
M  V30 3003 C 292.463 0.170707 -1.94854 0
M  V30 3004 C 292.843 1.58788 -1.39103 0
M  V30 3005 O 292.191 2.20913 -0.583921 0
M  V30 3006 C 292.401 0.133929 -3.48743 0
M  V30 3007 C 293.749 0.33248 -4.23296 0
M  V30 3008 O 294.773 0.211403 -3.55572 0
M  V30 3009 O 293.632 0.57486 -5.43468 0
M  V30 3010 H 290.726 0.122264 -0.817912 0
M  V30 3011 H 293.272 -0.510594 -1.61836 0
M  V30 3012 H 292.044 -0.856283 -3.81816 0
M  V30 3013 H 291.667 0.857529 -3.88242 0
M  V30 3014 N 292.664 1.56529 -0.183458 0
M  V30 3015 C 293.594 2.21549 0.737456 0
M  V30 3016 C 294.575 1.17489 1.23005 0
M  V30 3017 O 295.76 1.45959 1.281 0
M  V30 3018 C 292.89 2.86575 1.96194 0
M  V30 3019 C 291.844 3.96778 1.60473 0
M  V30 3020 C 291.17 4.48911 2.90487 0
M  V30 3021 C 292.47 5.15767 0.823497 0
M  V30 3022 H 294.164 2.98761 0.195453 0
M  V30 3023 H 291.71 1.43702 0.0925686 0
M  V30 3024 H 293.663 3.30739 2.61131 0
M  V30 3025 H 292.387 2.06749 2.52828 0
M  V30 3026 H 291.046 3.53286 0.978997 0
M  V30 3027 H 290.694 3.65862 3.45186 0
M  V30 3028 H 290.394 5.23265 2.67335 0
M  V30 3029 H 291.918 4.95771 3.56432 0
M  V30 3030 H 293.332 5.56549 1.37571 0
M  V30 3031 H 291.729 5.96114 0.690551 0
M  V30 3032 H 292.799 4.84574 -0.177782 0
M  V30 3033 N 294.142 -0.090211 1.57342 0
M  V30 3034 C 295.388 -0.793982 1.86611 0
M  V30 3035 C 295.721 -1.78142 0.773252 0
M  V30 3036 O 294.996 -1.93271 -0.218304 0
M  V30 3037 C 295.279 -1.51839 3.26523 0
M  V30 3038 C 295.132 -0.548609 4.46442 0
M  V30 3039 C 296.451 -2.46779 3.64401 0
M  V30 3040 H 293.57 -0.287186 0.678744 0
M  V30 3041 H 296.212 -0.0575076 1.89913 0
M  V30 3042 H 294.362 -2.14617 3.23839 0
M  V30 3043 H 296.034 0.0725513 4.61243 0
M  V30 3044 H 294.277 0.137614 4.33582 0
M  V30 3045 H 294.948 -1.09271 5.41076 0
M  V30 3046 H 297.424 -1.94089 3.68061 0
M  V30 3047 H 296.3 -2.94479 4.63221 0
M  V30 3048 H 296.561 -3.30758 2.93346 0
M  V30 3049 N 295.62 -1.53406 -0.361157 0
M  V30 3050 C 296.848 -1.73717 -1.12383 0
M  V30 3051 C 297.263 -0.468161 -1.82904 0
M  V30 3052 O 296.62 0.559198 -1.73722 0
M  V30 3053 C 296.671 -2.90558 -2.15078 0
M  V30 3054 O 296.392 -4.12549 -1.47428 0
M  V30 3055 C 297.893 -3.22777 -3.03858 0
M  V30 3056 H 295.113 -0.580896 -0.335858 0
M  V30 3057 H 297.657 -2.00167 -0.418728 0
M  V30 3058 H 295.812 -2.66489 -2.8118 0
M  V30 3059 H 296.226 -4.78009 -2.15887 0
M  V30 3060 H 297.7 -4.07927 -3.71887 0
M  V30 3061 H 298.177 -2.38329 -3.68912 0
M  V30 3062 H 298.783 -3.48787 -2.43367 0
M  V30 3063 N 297.098 0.621204 -1.44841 0
M  V30 3064 C 298.346 1.37783 -1.47852 0
M  V30 3065 C 298.667 1.94653 -0.116224 0
M  V30 3066 O 297.937 1.76367 0.852737 0
M  V30 3067 H 296.517 0.511453 -0.544449 0
M  V30 3068 H 299.179 0.730446 -1.80694 0
M  V30 3069 H 298.275 2.20414 -2.20961 0
M  V30 3070 N 298.576 1.31904 0.862503 0
M  V30 3071 C 299.853 1.12644 1.59908 0
M  V30 3072 C 300.233 -0.316104 2.0872 0
M  V30 3073 O 299.581 -1.31145 1.87118 0
M  V30 3074 C 299.791 2.1472 2.7513 0
M  V30 3075 C 301.139 2.47637 3.44907 0
M  V30 3076 O 302.163 2.13205 2.85346 0
M  V30 3077 O 301.022 3.06632 4.52371 0
M  V30 3078 H 298.116 0.43416 0.703871 0
M  V30 3079 H 300.662 1.43408 0.907314 0
M  V30 3080 H 299.434 3.1172 2.3653 0
M  V30 3081 H 299.057 1.84905 3.51989 0
M  V30 3082 N 300.054 -1.07777 1.14986 0
M  V30 3083 C 301.303 -1.79669 0.916617 0
M  V30 3084 C 301.616 -1.87474 -0.557917 0
M  V30 3085 O 302.822 -2.55845 -0.908617 0
M  V30 3086 C 301.278 -3.22848 1.59051 0
M  V30 3087 C 300.886 -3.23257 3.10176 0
M  V30 3088 C 302.63 -3.99379 1.43864 0
M  V30 3089 C 300.537 -4.61063 3.70372 0
M  V30 3090 H 299.467 -0.673349 0.33929 0
M  V30 3091 H 302.118 -1.21003 1.37951 0
M  V30 3092 H 300.5 -3.8168 1.0553 0
M  V30 3093 H 301.674 -2.74095 3.70417 0
M  V30 3094 H 299.989 -2.60222 3.25074 0
M  V30 3095 H 302.586 -5.0122 1.86232 0
M  V30 3096 H 302.929 -4.14511 0.385564 0
M  V30 3097 H 303.462 -3.47032 1.94457 0
M  V30 3098 H 300.201 -4.51135 4.7556 0
M  V30 3099 H 299.721 -5.1048 3.14913 0
M  V30 3100 H 301.4 -5.30034 3.71043 0
M  V30 3101 N 301.532 -0.945985 -1.26051 0
M  V30 3102 C 302.781 -0.591836 -1.92822 0
M  V30 3103 C 303.094 0.873956 -1.7499 0
M  V30 3104 O 304.3 1.33769 -2.36259 0
M  V30 3105 C 302.756 -1.00776 -3.45503 0
M  V30 3106 C 302.364 -2.4955 -3.7206 0
M  V30 3107 C 304.108 -0.725735 -4.1825 0
M  V30 3108 C 302.015 -2.84988 -5.18205 0
M  V30 3109 H 300.945 -0.217635 -0.721908 0
M  V30 3110 H 303.596 -1.14927 -1.43052 0
M  V30 3111 H 301.978 -0.378812 -3.94184 0
M  V30 3112 H 303.152 -3.1739 -3.34066 0
M  V30 3113 H 301.467 -2.75133 -3.12555 0
M  V30 3114 H 304.064 -0.966771 -5.25887 0
M  V30 3115 H 304.407 0.337639 -4.14929 0
M  V30 3116 H 304.94 -1.31463 -3.7545 0
M  V30 3117 H 301.679 -3.90307 -5.26631 0
M  V30 3118 H 301.199 -2.21813 -5.57278 0
M  V30 3119 H 302.878 -2.73712 -5.86252 0
M  V30 3120 N 303.011 1.40521 -0.713556 0
M  V30 3121 C 303.974 2.29098 -0.0684347 0
M  V30 3122 C 304.974 1.45268 0.689472 0
M  V30 3123 O 306.164 1.66205 0.521677 0
M  V30 3124 C 303.296 3.28446 0.913024 0
M  V30 3125 H 304.489 2.87645 -0.84855 0
M  V30 3126 H 302.042 1.48809 -0.47809 0
M  V30 3127 H 302.777 2.74913 1.72027 0
M  V30 3128 H 302.562 3.90327 0.372472 0
M  V30 3129 H 304.052 3.94777 1.36165 0
M  V30 3130 N 304.489 0.459591 1.5075 0
M  V30 3131 C 305.719 -0.0972338 2.06371 0
M  V30 3132 C 306.127 -1.35074 1.32483 0
M  V30 3133 O 305.47 -1.79637 0.384226 0
M  V30 3134 C 305.532 -0.462759 3.56509 0
M  V30 3135 C 305.196 0.687084 4.51805 0
M  V30 3136 C 306.193 1.56578 4.95761 0
M  V30 3137 C 303.878 0.874144 4.94635 0
M  V30 3138 C 305.872 2.61604 5.81242 0
M  V30 3139 C 303.559 1.92765 5.79901 0
M  V30 3140 C 304.557 2.79697 6.23104 0
M  V30 3141 O 304.245 3.83235 7.06673 0
M  V30 3142 H 303.977 -0.00140687 0.675999 0
M  V30 3143 H 306.531 0.644011 1.95043 0
M  V30 3144 H 304.761 -1.25703 3.65699 0
M  V30 3145 H 306.45 -0.953323 3.94546 0
M  V30 3146 H 307.216 1.4329 4.6335 0
M  V30 3147 H 303.095 0.207006 4.60535 0
M  V30 3148 H 306.639 3.29489 6.14884 0
M  V30 3149 H 302.536 2.06064 6.11725 0
M  V30 3150 H 303.304 3.80084 7.24899 0
M  V30 3151 N 305.967 -1.56429 0.191757 0
M  V30 3152 C 307.213 -1.97777 -0.448554 0
M  V30 3153 C 307.546 -1.07847 -1.61501 0
M  V30 3154 O 306.821 -0.129774 -1.94067 0
M  V30 3155 C 307.104 -3.48362 -0.911906 0
M  V30 3156 C 306.957 -4.4907 0.256136 0
M  V30 3157 C 308.276 -4.02561 -1.77857 0
M  V30 3158 H 305.395 -0.719071 -0.161572 0
M  V30 3159 H 308.037 -1.87896 0.282007 0
M  V30 3160 H 306.187 -3.56914 -1.53442 0
M  V30 3161 H 307.859 -4.5256 0.893733 0
M  V30 3162 H 306.102 -4.24181 0.908436 0
M  V30 3163 H 306.773 -5.51889 -0.11053 0
M  V30 3164 H 309.249 -3.96767 -1.25359 0
M  V30 3165 H 308.125 -5.08301 -2.07174 0
M  V30 3166 H 308.386 -3.47616 -2.73158 0
M  V30 3167 N 307.445 0.0818655 -1.57387 0
M  V30 3168 C 308.408 1.08265 -2.02018 0
M  V30 3169 C 309.408 1.32183 -0.915664 0
M  V30 3170 O 310.598 1.28073 -1.18081 0
M  V30 3171 C 307.73 2.42871 -2.39221 0
M  V30 3172 H 308.923 0.698204 -2.91659 0
M  V30 3173 H 306.476 0.327303 -1.52835 0
M  V30 3174 H 307.211 2.86167 -1.52575 0
M  V30 3175 H 306.996 2.26855 -3.19811 0
M  V30 3176 H 308.486 3.14826 -2.74362 0
M  V30 3177 N 308.923 1.53595 0.353017 0
M  V30 3178 C 309.87 1.80919 1.43308 0
M  V30 3179 C 310.84 0.654288 1.5267 0
M  V30 3180 O 312.025 0.897759 1.6836 0
M  V30 3181 C 309.165 2.01605 2.80089 0
M  V30 3182 C 308.278 3.29321 2.79593 0
M  V30 3183 C 307.413 3.40125 4.0803 0
M  V30 3184 C 306.452 4.61826 4.01725 0
M  V30 3185 N 305.589 4.69716 5.21834 0
M  V30 3186 H 310.429 2.73074 1.19308 0
M  V30 3187 H 307.966 1.35263 0.578131 0
M  V30 3188 H 309.924 2.11586 3.59565 0
M  V30 3189 H 308.554 1.12772 3.0246 0
M  V30 3190 H 307.606 3.28229 1.92276 0
M  V30 3191 H 308.918 4.18884 2.70809 0
M  V30 3192 H 308.072 3.49488 4.95927 0
M  V30 3193 H 306.811 2.48601 4.19582 0
M  V30 3194 H 305.816 4.52552 3.12213 0
M  V30 3195 H 307.041 5.54705 3.91764 0
M  V30 3196 H 304.987 3.81097 5.33948 0
M  V30 3197 H 304.904 5.53202 5.1527 0
M  V30 3198 H 306.172 4.83376 6.11529 0
M  V30 3199 N 310.401 -0.613514 1.45168 0
M  V30 3200 C 311.649 -1.36997 1.48581 0
M  V30 3201 C 311.97 -1.94589 0.126545 0
M  V30 3202 O 311.24 -1.76816 -0.843372 0
M  V30 3203 H 309.82 -0.508558 0.547154 0
M  V30 3204 H 312.482 -0.720853 1.81079 0
M  V30 3205 H 311.578 -2.1924 2.22127 0
M  V30 3206 N 311.879 -1.3236 -0.855495 0
M  V30 3207 C 313.107 -1.2587 -1.64208 0
M  V30 3208 C 313.522 0.173457 -1.88002 0
M  V30 3209 O 312.879 1.11027 -1.44842 0
M  V30 3210 C 312.93 -2.01424 -3.00184 0
M  V30 3211 O 312.651 -3.39051 -2.77445 0
M  V30 3212 C 314.152 -2.01948 -3.94629 0
M  V30 3213 H 311.372 -0.434318 -0.511477 0
M  V30 3214 H 313.916 -1.74469 -1.0668 0
M  V30 3215 H 312.071 -1.56549 -3.5436 0
M  V30 3216 H 312.485 -3.77711 -3.63916 0
M  V30 3217 H 313.959 -2.59297 -4.87308 0
M  V30 3218 H 314.436 -1.00554 -4.27534 0
M  V30 3219 H 315.042 -2.46767 -3.4639 0
M  V30 3220 N 313.357 1.07166 -1.15556 0
M  V30 3221 C 314.287 2.16403 -0.877046 0
M  V30 3222 C 315.268 1.69217 0.173111 0
M  V30 3223 O 316.453 1.94181 0.027084 0
M  V30 3224 C 313.583 3.45349 -0.367632 0
M  V30 3225 C 312.537 4.05995 -1.35468 0
M  V30 3226 C 311.863 5.30045 -0.704038 0
M  V30 3227 C 313.163 4.45804 -2.72132 0
M  V30 3228 H 314.857 2.39959 -1.79053 0
M  V30 3229 H 312.403 1.15325 -0.862331 0
M  V30 3230 H 314.356 4.21095 -0.160317 0
M  V30 3231 H 313.08 3.21385 0.581326 0
M  V30 3232 H 311.739 3.32296 -1.54839 0
M  V30 3233 H 311.387 5.02373 0.251128 0
M  V30 3234 H 311.087 5.71579 -1.36277 0
M  V30 3235 H 312.611 6.08495 -0.50654 0
M  V30 3236 H 314.025 5.12671 -2.56595 0
M  V30 3237 H 312.422 4.98296 -3.34397 0
M  V30 3238 H 313.492 3.57083 -3.28054 0
M  V30 3239 N 314.835 0.952656 1.25548 0
M  V30 3240 C 316.084 0.602053 1.92505 0
M  V30 3241 C 316.397 -0.864663 1.75451 0
M  V30 3242 O 317.603 -1.32514 2.36965 0
M  V30 3243 C 316.059 1.02607 3.44963 0
M  V30 3244 C 315.667 2.51519 3.70732 0
M  V30 3245 C 317.411 0.747905 4.1786 0
M  V30 3246 C 315.318 2.87732 5.16686 0
M  V30 3247 H 314.248 0.22146 0.720744 0
M  V30 3248 H 316.899 1.15684 1.42441 0
M  V30 3249 H 315.281 0.399712 3.93978 0
M  V30 3250 H 316.455 3.19157 3.32378 0
M  V30 3251 H 314.77 2.76786 3.11092 0
M  V30 3252 H 317.367 0.994647 5.25367 0
M  V30 3253 H 317.71 -0.315629 4.15102 0
M  V30 3254 H 318.243 1.33452 3.74747 0
M  V30 3255 H 314.982 3.93095 5.24554 0
M  V30 3256 H 314.502 2.24765 5.56094 0
M  V30 3257 H 316.181 2.76817 5.84792 0
M  V30 3258 N 316.313 -1.40141 0.720998 0
M  V30 3259 C 317.276 -2.29058 0.0805834 0
M  V30 3260 C 318.276 -1.45632 -0.681758 0
M  V30 3261 O 319.466 -1.6648 -0.512856 0
M  V30 3262 C 316.598 -3.28925 -0.895593 0
M  V30 3263 H 317.791 -2.87191 0.863793 0
M  V30 3264 H 315.344 -1.48553 0.485975 0
M  V30 3265 H 316.079 -2.75822 -1.70566 0
M  V30 3266 H 315.864 -3.90519 -0.351766 0
M  V30 3267 H 317.354 -3.95494 -1.34069 0
M  V30 3268 N 317.792 -0.46758 -1.50504 0
M  V30 3269 C 319.02 0.0864133 -2.06719 0
M  V30 3270 C 319.435 1.33819 -1.33184 0
M  V30 3271 O 318.792 1.78061 -0.400083 0
M  V30 3272 C 318.843 0.378079 -3.59517 0
M  V30 3273 O 318.564 -0.824044 -4.3028 0
M  V30 3274 C 320.065 0.979426 -4.32345 0
M  V30 3275 H 317.285 -0.00551697 -0.670977 0
M  V30 3276 H 319.829 -0.655354 -1.93715 0
M  V30 3277 H 317.984 1.06977 -3.72337 0
M  V30 3278 H 318.398 -0.566518 -5.21432 0
M  V30 3279 H 319.872 1.1333 -5.40241 0
M  V30 3280 H 320.349 1.9686 -3.9261 0
M  V30 3281 H 320.955 0.326216 -4.24047 0
M  V30 3282 N 319.27 1.56325 -0.20005 0
M  V30 3283 C 320.518 1.97329 0.436547 0
M  V30 3284 C 320.839 1.08826 1.61808 0
M  V30 3285 O 320.109 0.160604 1.95241 0
M  V30 3286 H 318.689 0.728714 0.164272 0
M  V30 3287 H 321.351 1.92761 -0.287937 0
M  V30 3288 H 320.447 3.02264 0.777353 0
M  V30 3289 N 320.748 -0.0735177 1.57428 0
M  V30 3290 C 321.996 -0.771472 1.86796 0
M  V30 3291 C 322.317 -1.78201 0.791804 0
M  V30 3292 O 321.587 -1.95074 -0.179718 0
M  V30 3293 H 320.167 -0.28791 0.689287 0
M  V30 3294 H 322.829 -0.0500161 1.94836 0
M  V30 3295 H 321.925 -1.28874 2.8425 0
M  V30 3296 N 322.226 -1.5378 -0.344866 0
M  V30 3297 C 323.456 -1.74646 -1.10374 0
M  V30 3298 C 323.864 -0.48491 -1.8288 0
M  V30 3299 O 323.207 0.553062 -1.75177 0
M  V30 3300 C 323.269 -2.87145 -2.16306 0
M  V30 3301 C 322.933 -4.26795 -1.63386 0
M  V30 3302 C 323.93 -5.08412 -1.08688 0
M  V30 3303 C 321.615 -4.73276 -1.68272 0
M  V30 3304 C 323.609 -6.34609 -0.595792 0
M  V30 3305 C 321.296 -5.99446 -1.18776 0
M  V30 3306 C 322.294 -6.79946 -0.645215 0
M  V30 3307 O 321.982 -8.03745 -0.157626 0
M  V30 3308 H 321.714 -0.587112 -0.335075 0
M  V30 3309 H 324.268 -2.01403 -0.403252 0
M  V30 3310 H 322.498 -2.55909 -2.89909 0
M  V30 3311 H 324.187 -2.95992 -2.77747 0
M  V30 3312 H 324.953 -4.73666 -1.04236 0
M  V30 3313 H 320.832 -4.10677 -2.09442 0
M  V30 3314 H 324.376 -6.97389 -0.171654 0
M  V30 3315 H 320.273 -6.33687 -1.22928 0
M  V30 3316 H 321.041 -8.18038 -0.275037 0
M  V30 3317 N 323.704 0.605807 -1.45491 0
M  V30 3318 C 324.952 1.36207 -1.49305 0
M  V30 3319 C 325.273 1.94519 -0.136863 0
M  V30 3320 O 324.543 1.77261 0.833983 0
M  V30 3321 H 323.123 0.50565 -0.549843 0
M  V30 3322 H 325.785 0.711239 -1.81459 0
M  V30 3323 H 324.881 2.18058 -2.23287 0
M  V30 3324 N 325.182 1.32811 0.848464 0
M  V30 3325 C 326.598 1.11937 1.13764 0
M  V30 3326 C 326.798 -0.0960789 2.01271 0
M  V30 3327 O 325.854 -0.779165 2.40178 0
M  V30 3328 C 327.167 2.402 1.809 0
M  V30 3329 C 328.715 2.46016 1.93508 0
M  V30 3330 C 329.19 3.74215 2.64059 0
M  V30 3331 N 330.681 3.75232 2.71579 0
M  V30 3332 C 331.416 4.71134 3.26833 0
M  V30 3333 N 330.912 5.77406 3.8285 0
M  V30 3334 N 332.705 4.58623 3.24995 0
M  V30 3335 H 324.856 2.1073 0.265855 0
M  V30 3336 H 327.119 0.930671 0.180431 0
M  V30 3337 H 326.825 3.29093 1.24058 0
M  V30 3338 H 326.699 2.51628 2.81004 0
M  V30 3339 H 329.086 1.57577 2.49506 0
M  V30 3340 H 329.167 2.38536 0.923811 0
M  V30 3341 H 328.811 4.63031 2.08722 0
M  V30 3342 H 328.741 3.78968 3.65637 0
M  V30 3343 H 331.232 2.98423 2.31845 0
M  V30 3344 H 331.545 6.46632 4.23187 0
M  V30 3345 H 329.89 5.81152 3.81165 0
M  V30 3346 H 333.081 3.74762 2.80484 0
M  V30 3347 H 333.254 5.33535 3.67756 0
M  V30 3348 N 326.66 -1.06551 1.16123 0
M  V30 3349 C 327.909 -1.78687 0.935622 0
M  V30 3350 C 328.222 -1.88056 -0.538001 0
M  V30 3351 O 329.428 -2.56794 -0.88143 0
M  V30 3352 C 327.884 -3.21143 1.62466 0
M  V30 3353 C 327.492 -3.19949 3.13587 0
M  V30 3354 C 329.236 -3.9783 1.48092 0
M  V30 3355 C 327.143 -4.57108 3.75241 0
M  V30 3356 H 326.073 -0.669712 0.346412 0
M  V30 3357 H 328.724 -1.19534 1.39226 0
M  V30 3358 H 327.106 -3.80539 1.09572 0
M  V30 3359 H 328.28 -2.70151 3.73303 0
M  V30 3360 H 326.595 -2.5676 3.27816 0
M  V30 3361 H 329.192 -4.99217 1.91538 0
M  V30 3362 H 329.535 -4.14078 0.429507 0
M  V30 3363 H 330.068 -3.4495 1.98127 0
M  V30 3364 H 326.807 -4.46065 4.80319 0
M  V30 3365 H 326.327 -5.07111 3.20309 0
M  V30 3366 H 328.006 -5.26069 3.76644 0
M  V30 3367 N 328.138 -0.959301 -1.25041 0
M  V30 3368 C 329.368 -0.63303 -1.96663 0
M  V30 3369 C 329.776 0.800031 -1.71453 0
M  V30 3370 O 329.119 1.54736 -0.99008 0
M  V30 3371 C 329.181 -0.817523 -3.50081 0
M  V30 3372 C 328.845 -2.22863 -3.98975 0
M  V30 3373 C 329.842 -3.20569 -4.09306 0
M  V30 3374 C 327.527 -2.55407 -4.32519 0
M  V30 3375 C 329.521 -4.4891 -4.52503 0
M  V30 3376 C 327.208 -3.83976 -4.754 0
M  V30 3377 C 328.206 -4.8054 -4.85356 0
M  V30 3378 O 327.894 -6.06817 -5.27284 0
M  V30 3379 H 327.626 -0.235866 -0.633516 0
M  V30 3380 H 330.18 -1.2874 -1.60047 0
M  V30 3381 H 328.41 -0.105992 -3.86555 0
M  V30 3382 H 330.099 -0.491604 -4.02912 0
M  V30 3383 H 330.865 -2.96753 -3.83618 0
M  V30 3384 H 326.744 -1.8097 -4.23994 0
M  V30 3385 H 330.288 -5.24283 -4.60188 0
M  V30 3386 H 326.185 -4.07596 -5.00535 0
M  V30 3387 H 326.953 -6.10262 -5.45457 0
M  V30 3388 N 329.616 1.39756 -0.72842 0
M  V30 3389 C 330.563 2.30647 -0.0841519 0
M  V30 3390 C 331.533 1.48869 0.7367 0
M  V30 3391 O 332.718 1.77574 0.698015 0
M  V30 3392 C 329.858 3.35165 0.822091 0
M  V30 3393 C 328.971 4.31999 -0.0106663 0
M  V30 3394 C 328.106 5.23585 0.896241 0
M  V30 3395 C 327.145 6.12072 0.0583381 0
M  V30 3396 N 326.282 6.96035 0.920818 0
M  V30 3397 H 331.122 2.85173 -0.864891 0
M  V30 3398 H 328.659 1.40422 -0.438179 0
M  V30 3399 H 330.617 3.94345 1.36189 0
M  V30 3400 H 329.247 2.8211 1.56888 0
M  V30 3401 H 328.299 3.74492 -0.66781 0
M  V30 3402 H 329.611 4.9443 -0.658825 0
M  V30 3403 H 328.765 5.87759 1.50412 0
M  V30 3404 H 327.504 4.61459 1.57819 0
M  V30 3405 H 326.509 5.46916 -0.562389 0
M  V30 3406 H 327.734 6.76261 -0.6203 0
M  V30 3407 H 325.68 6.36485 1.58818 0
M  V30 3408 H 325.597 7.55284 0.32899 0
M  V30 3409 H 326.865 7.64646 1.51447 0
M  V30 3410 N 331.094 0.475555 1.50254 0
M  V30 3411 C 332.042 -0.330276 2.30243 0
M  V30 3412 C 333.036 -0.986306 1.37726 0
M  V30 3413 O 334.242 -0.9169 1.54897 0
M  V30 3414 H 330.617 -0.125353 0.741479 0
M  V30 3415 H 332.588 0.364702 2.96163 0
M  V30 3416 C 331.337 -1.39704 3.18399 0
M  V30 3417 H 330.66 -0.901621 3.89501 0
M  V30 3418 H 332.1 -1.93336 3.77355 0
M  V30 3419 C 330.559 -2.4014 2.36293 0
M  V30 3420 O 331.089 -3.45504 2.04914 0
M  V30 3421 N 329.295 -2.1197 1.98789 0
M  V30 3422 H 328.842 -1.2631 2.24507 0
M  V30 3423 H 328.8 -2.79403 1.44157 0
M  V30 3424 N 332.573 -1.56217 0.208337 0
M  V30 3425 C 333.801 -2.02337 -0.43215 0
M  V30 3426 C 334.216 -1.08834 -1.54275 0
M  V30 3427 O 333.573 -0.0955462 -1.8225 0
M  V30 3428 C 333.624 -3.48072 -0.976138 0
M  V30 3429 O 333.345 -4.38007 0.0901621 0
M  V30 3430 C 334.846 -4.09773 -1.69119 0
M  V30 3431 H 332.066 -0.662385 -0.10718 0
M  V30 3432 H 334.61 -2.01966 0.320923 0
M  V30 3433 H 332.765 -3.49099 -1.67954 0
M  V30 3434 H 333.179 -5.23543 -0.316701 0
M  V30 3435 H 334.653 -5.13556 -2.02397 0
M  V30 3436 H 335.13 -3.53999 -2.59964 0
M  V30 3437 H 335.736 -4.12556 -1.03332 0
M  V30 3438 N 334.051 0.0651679 -1.57465 0
M  V30 3439 C 335.279 0.775808 -1.91804 0
M  V30 3440 C 335.694 1.70782 -0.804916 0
M  V30 3441 O 335.051 1.81153 0.221311 0
M  V30 3442 C 335.102 1.56381 -3.25925 0
M  V30 3443 O 334.823 0.669248 -4.32958 0
M  V30 3444 C 336.324 2.37485 -3.7432 0
M  V30 3445 H 333.544 0.2202 -0.63384 0
M  V30 3446 H 336.088 0.0334587 -2.04473 0
M  V30 3447 H 334.243 2.25837 -3.14764 0
M  V30 3448 H 334.657 1.21801 -5.10162 0
M  V30 3449 H 336.131 2.88223 -4.70778 0
M  V30 3450 H 336.608 3.17307 -3.03666 0
M  V30 3451 H 337.214 1.73173 -3.88447 0
M  V30 3452 N 335.529 1.53961 0.336706 0
M  V30 3453 C 336.477 1.83136 1.43401 0
M  V30 3454 C 337.471 0.702313 1.54156 0
M  V30 3455 O 338.677 0.885765 1.56698 0
M  V30 3456 H 335.052 0.580309 0.478273 0
M  V30 3457 H 337.023 2.74925 1.16012 0
M  V30 3458 C 335.772 2.06385 2.79822 0
M  V30 3459 H 335.095 2.92718 2.72316 0
M  V30 3460 H 336.535 2.30761 3.55704 0
M  V30 3461 C 334.994 0.851414 3.25964 0
M  V30 3462 O 335.524 0.0541904 4.01663 0
M  V30 3463 N 333.73 0.66672 2.82848 0
M  V30 3464 H 333.277 1.31665 2.21409 0
M  V30 3465 H 333.235 -0.143032 3.14074 0
M  V30 3466 N 337.007 -0.598083 1.45811 0
M  V30 3467 C 337.97 -1.69018 1.54808 0
M  V30 3468 C 338.97 -1.55037 0.426652 0
M  V30 3469 O 340.16 -1.59932 0.690456 0
M  V30 3470 C 337.292 -3.0835 1.45371 0
M  V30 3471 H 338.485 -1.62403 2.52121 0
M  V30 3472 H 336.038 -0.814626 1.33392 0
M  V30 3473 H 336.773 -3.20534 0.492793 0
M  V30 3474 H 336.558 -3.19907 2.26721 0
M  V30 3475 H 338.048 -3.8788 1.54721 0
M  V30 3476 N 338.485 -1.33259 -0.841409 0
M  V30 3477 C 339.731 -1.24757 -1.59886 0
M  V30 3478 C 340.064 0.186913 -1.93298 0
M  V30 3479 O 339.339 1.12757 -1.5848 0
M  V30 3480 C 339.622 -2.12036 -2.91055 0
M  V30 3481 C 339.475 -3.63929 -2.6434 0
M  V30 3482 C 340.794 -1.9916 -3.92458 0
M  V30 3483 H 337.913 -0.454542 -0.580138 0
M  V30 3484 H 340.555 -1.63335 -0.970647 0
M  V30 3485 H 338.705 -1.79265 -3.44669 0
M  V30 3486 H 340.377 -4.06978 -2.17178 0
M  V30 3487 H 338.62 -3.85935 -1.98082 0
M  V30 3488 H 339.291 -4.20341 -3.57796 0
M  V30 3489 H 341.767 -2.27895 -3.48143 0
M  V30 3490 H 340.643 -2.62484 -4.82072 0
M  V30 3491 H 340.904 -0.963082 -4.31482 0
M  V30 3492 N 339.963 1.05934 -1.16686 0
M  V30 3493 C 341.209 1.79065 -0.95203 0
M  V30 3494 C 341.542 1.87147 0.518629 0
M  V30 3495 O 340.817 1.36574 1.38484 0
M  V30 3496 C 341.1 3.23359 -1.58464 0
M  V30 3497 C 340.953 3.23336 -3.12689 0
M  V30 3498 C 342.272 4.21004 -1.28232 0
M  V30 3499 H 339.391 0.65005 -0.34728 0
M  V30 3500 H 342.033 1.23868 -1.44072 0
M  V30 3501 H 340.183 3.70493 -1.16908 0
M  V30 3502 H 341.855 2.84336 -3.6325 0
M  V30 3503 H 340.098 2.61886 -3.4583 0
M  V30 3504 H 340.769 4.25144 -3.52075 0
M  V30 3505 H 343.245 3.8233 -1.64203 0
M  V30 3506 H 342.121 5.20225 -1.75092 0
M  V30 3507 H 342.382 4.41639 -0.201791 0
M  V30 3508 N 341.441 0.965919 1.2453 0
M  V30 3509 C 342.681 0.634656 1.94297 0
M  V30 3510 C 343.045 -0.814822 1.73852 0
M  V30 3511 O 344.246 -1.25622 2.3764 0
M  V30 3512 C 342.517 0.99702 3.43212 0
M  V30 3513 S 344.076 0.780038 4.31811 0
M  V30 3514 H 340.894 0.232893 0.671775 0
M  V30 3515 H 343.496 1.24249 1.50938 0
M  V30 3516 H 342.2 2.04886 3.55598 0
M  V30 3517 H 341.731 0.379888 3.91562 0
M  V30 3518 H 343.746 -0.343512 4.9501 0
M  V30 3519 N 342.919 -1.39368 0.735821 0
M  V30 3520 C 343.829 -2.34395 0.0979693 0
M  V30 3521 C 344.845 -1.58361 -0.720968 0
M  V30 3522 O 346.021 -1.90648 -0.649245 0
M  V30 3523 C 343.086 -3.37393 -0.797916 0
M  V30 3524 C 342.147 -4.29287 0.0333662 0
M  V30 3525 C 341.38 -5.27365 -0.819854 0
M  V30 3526 O 341.603 -5.31959 -2.05855 0
M  V30 3527 O 340.537 -6.01389 -0.248079 0
M  V30 3528 H 344.363 -2.90601 0.882315 0
M  V30 3529 H 341.948 -1.40909 0.4965 0
M  V30 3530 H 343.83 -4.00505 -1.31048 0
M  V30 3531 H 342.505 -2.83571 -1.56106 0
M  V30 3532 H 341.412 -3.69395 0.591475 0
M  V30 3533 H 342.745 -4.86317 0.758752 0
M  V30 3534 N 344.397 -0.483516 -1.5 0
M  V30 3535 C 345.645 0.067027 -2.01989 0
M  V30 3536 C 345.966 1.3909 -1.36671 0
M  V30 3537 O 345.236 1.88978 -0.516152 0
M  V30 3538 H 343.816 0.0277606 -0.746484 0
M  V30 3539 H 346.478 -0.636773 -1.84204 0
M  V30 3540 H 345.574 0.209484 -3.11396 0
M  V30 3541 N 345.875 1.56104 -0.216619 0
M  V30 3542 C 347.103 2.02563 0.421413 0
M  V30 3543 C 347.518 1.0965 1.53695 0
M  V30 3544 O 346.875 0.10521 1.82196 0
M  V30 3545 C 346.926 3.48584 0.957665 0
M  V30 3546 O 346.647 4.37953 -0.113389 0
M  V30 3547 C 348.148 4.10664 1.66943 0
M  V30 3548 H 345.368 0.662944 0.103665 0
M  V30 3549 H 347.912 2.01793 -0.331629 0
M  V30 3550 H 346.067 3.49985 1.661 0
M  V30 3551 H 346.481 5.23704 0.288932 0
M  V30 3552 H 347.955 5.14622 1.99671 0
M  V30 3553 H 348.432 3.55373 2.58083 0
M  V30 3554 H 349.038 4.13098 1.01142 0
M  V30 3555 N 347.353 -0.0568162 1.57498 0
M  V30 3556 C 348.601 -0.751617 1.87604 0
M  V30 3557 C 348.922 -1.77351 0.81066 0
M  V30 3558 O 348.192 -1.95254 -0.159018 0
M  V30 3559 H 346.772 -0.280583 0.692302 0
M  V30 3560 H 349.434 -0.0293483 1.94878 0
M  V30 3561 H 348.53 -1.25852 2.856 0
M  V30 3562 N 348.832 -1.54138 -0.328536 0
M  V30 3563 C 350.06 -1.76062 -1.08673 0
M  V30 3564 C 350.475 -0.506852 -1.81869 0
M  V30 3565 O 349.832 0.522223 -1.74869 0
M  V30 3566 C 349.883 -2.95054 -2.08866 0
M  V30 3567 O 349.604 -4.15583 -1.38644 0
M  V30 3568 C 351.105 -3.2915 -2.96943 0
M  V30 3569 H 348.325 -0.587889 -0.323461 0
M  V30 3570 H 350.869 -2.0101 -0.376175 0
M  V30 3571 H 349.024 -2.72394 -2.75464 0
M  V30 3572 H 349.438 -4.82481 -2.05699 0
M  V30 3573 H 350.912 -4.15723 -3.63151 0
M  V30 3574 H 351.389 -2.461 -3.63774 0
M  V30 3575 H 351.995 -3.53871 -2.35914 0
M  V30 3576 N 350.31 0.590341 -1.46126 0
M  V30 3577 C 351.273 1.68194 -1.55703 0
M  V30 3578 C 352.273 1.54808 -0.434868 0
M  V30 3579 O 353.463 1.59564 -0.698928 0
M  V30 3580 C 350.595 3.07575 -1.47005 0
M  V30 3581 H 351.788 1.61064 -2.52979 0
M  V30 3582 H 349.341 0.807541 -1.33823 0
M  V30 3583 H 350.076 3.20268 -0.509785 0
M  V30 3584 H 349.861 3.187 -2.28414 0
M  V30 3585 H 351.351 3.87055 -1.56776 0
M  V30 3586 N 351.788 1.33704 0.83433 0
M  V30 3587 C 353.037 1.24763 1.58484 0
M  V30 3588 C 353.35 -0.183775 1.94735 0
M  V30 3589 O 354.556 -0.395234 2.68608 0
M  V30 3590 C 353.012 2.18638 2.85876 0
M  V30 3591 C 352.62 3.66974 2.56971 0
M  V30 3592 C 354.364 2.18581 3.63899 0
M  V30 3593 C 352.271 4.5275 3.80488 0
M  V30 3594 H 351.201 0.463425 0.594772 0
M  V30 3595 H 353.852 1.58797 0.919551 0
M  V30 3596 H 352.234 1.77542 3.5397 0
M  V30 3597 H 353.408 4.16538 1.9706 0
M  V30 3598 H 351.723 3.69366 1.92244 0
M  V30 3599 H 354.32 2.79894 4.55591 0
M  V30 3600 H 354.663 1.18207 3.99165 0
M  V30 3601 H 355.196 2.58062 3.02735 0
M  V30 3602 H 351.935 5.54017 3.5035 0
M  V30 3603 H 351.455 4.07927 4.39722 0
M  V30 3604 H 353.134 4.66784 4.4802 0
M  V30 3605 N 353.266 -1.05314 1.17247 0
M  V30 3606 C 354.229 -2.112 0.890357 0
M  V30 3607 C 355.229 -1.60359 -0.118943 0
M  V30 3608 O 356.419 -1.73833 0.113086 0
M  V30 3609 C 353.551 -3.39266 0.333422 0
M  V30 3610 H 354.744 -2.37659 1.82916 0
M  V30 3611 H 352.297 -1.21538 0.982758 0
M  V30 3612 H 353.032 -3.18462 -0.612587 0
M  V30 3613 H 352.817 -3.77477 1.06082 0
M  V30 3614 H 354.307 -4.17315 0.154322 0
M  V30 3615 N 354.744 -0.972509 -1.24016 0
M  V30 3616 C 355.674 -0.525548 -2.27509 0
M  V30 3617 C 356.655 0.437262 -1.64384 0
M  V30 3618 O 357.84 0.332343 -1.91335 0
M  V30 3619 C 354.97 0.180448 -3.46831 0
M  V30 3620 C 353.924 -0.698859 -4.22256 0
M  V30 3621 C 353.25 0.138903 -5.3452 0
M  V30 3622 C 354.55 -1.98582 -4.83076 0
M  V30 3623 H 356.244 -1.39058 -2.65148 0
M  V30 3624 H 353.79 -0.67009 -1.27459 0
M  V30 3625 H 355.743 0.504387 -4.18371 0
M  V30 3626 H 354.467 1.07987 -3.08231 0
M  V30 3627 H 353.126 -1.00614 -3.52523 0
M  V30 3628 H 352.774 1.03862 -4.9216 0
M  V30 3629 H 352.474 -0.446259 -5.85903 0
M  V30 3630 H 353.998 0.457404 -6.08884 0
M  V30 3631 H 355.412 -1.72715 -5.46665 0
M  V30 3632 H 353.809 -2.5181 -5.44713 0
M  V30 3633 H 354.879 -2.67769 -4.04262 0
M  V30 3634 N 356.222 1.38976 -0.743202 0
M  V30 3635 C 357.132 2.3434 -0.110399 0
M  V30 3636 C 358.148 1.58741 0.712559 0
M  V30 3637 O 359.324 1.9099 0.639125 0
M  V30 3638 C 356.389 3.37812 0.780012 0
M  V30 3639 C 355.45 4.29263 -0.0561319 0
M  V30 3640 C 354.683 5.27793 0.791875 0
M  V30 3641 O 354.906 5.33043 2.03031 0
M  V30 3642 O 353.84 6.01512 0.216183 0
M  V30 3643 H 357.666 2.90129 -0.897714 0
M  V30 3644 H 355.251 1.40643 -0.503966 0
M  V30 3645 H 357.133 4.01194 1.28923 0
M  V30 3646 H 355.808 2.84395 1.546 0
M  V30 3647 H 354.715 3.69076 -0.611056 0
M  V30 3648 H 356.048 4.85907 -0.784531 0
M  V30 3649 N 357.7 0.491464 1.49741 0
M  V30 3650 C 358.928 -0.0535151 2.06831 0
M  V30 3651 C 359.343 -1.31683 1.35296 0
M  V30 3652 O 358.7 -1.77402 0.42836 0
M  V30 3653 C 358.751 -0.320835 3.60073 0
M  V30 3654 O 358.472 0.892394 4.28915 0
M  V30 3655 C 359.973 -0.910519 4.33848 0
M  V30 3656 H 357.193 0.0161909 0.670805 0
M  V30 3657 H 359.737 0.68609 1.92647 0
M  V30 3658 H 357.892 -1.0104 3.73991 0
M  V30 3659 H 358.306 0.649401 5.20464 0
M  V30 3660 H 359.78 -1.04721 5.41976 0
M  V30 3661 H 360.257 -1.90589 3.95692 0
M  V30 3662 H 360.863 -0.258712 4.24512 0
M  V30 3663 N 359.178 -1.55987 0.224894 0
M  V30 3664 C 360.426 -1.97998 -0.405099 0
M  V30 3665 C 360.747 -1.11387 -1.60056 0
M  V30 3666 O 360.017 -0.191645 -1.9496 0
M  V30 3667 H 358.597 -0.731235 -0.152658 0
M  V30 3668 H 361.259 -1.92279 0.318567 0
M  V30 3669 H 360.355 -3.03463 -0.729167 0
M  V30 3670 N 360.656 0.0484629 -1.57525 0
M  V30 3671 C 361.905 0.742065 -1.87553 0
M  V30 3672 C 362.218 1.77545 -0.820802 0
M  V30 3673 O 363.424 2.52027 -1.00967 0
M  V30 3674 C 361.88 1.37081 -3.32771 0
M  V30 3675 C 361.488 0.374786 -4.4643 0
M  V30 3676 C 363.232 2.04542 -3.71972 0
M  V30 3677 C 361.139 1.01077 -5.82698 0
M  V30 3678 H 360.069 0.280903 -0.699721 0
M  V30 3679 H 362.72 -0.00411877 -1.835 0
M  V30 3680 H 361.102 2.16605 -3.31509 0
M  V30 3681 H 362.276 -0.392331 -4.59127 0
M  V30 3682 H 360.591 -0.196653 -4.15935 0
M  V30 3683 H 363.188 2.52943 -4.71088 0
M  V30 3684 H 363.531 2.85515 -3.02964 0
M  V30 3685 H 364.064 1.31819 -3.75325 0
M  V30 3686 H 360.803 0.240878 -6.55057 0
M  V30 3687 H 360.323 1.74819 -5.73758 0
M  V30 3688 H 362.002 1.52383 -6.28799 0
M  V30 3689 N 362.134 1.5431 0.320358 0
M  V30 3690 C 363.097 1.83195 1.3774 0
M  V30 3691 C 364.097 0.703906 1.44575 0
M  V30 3692 O 365.287 0.972214 1.44546 0
M  V30 3693 C 362.419 1.99487 2.76438 0
M  V30 3694 H 363.612 2.77642 1.1338 0
M  V30 3695 H 361.165 1.46076 0.556012 0
M  V30 3696 H 361.9 1.07262 3.06048 0
M  V30 3697 H 361.685 2.81575 2.7287 0
M  V30 3698 H 363.175 2.23271 3.52902 0
M  V30 3699 N 363.613 -0.582584 1.46437 0
M  V30 3700 C 364.545 -1.70618 1.53043 0
M  V30 3701 C 365.558 -1.57322 0.418769 0
M  V30 3702 O 366.747 -1.64744 0.687136 0
M  V30 3703 C 363.847 -3.08869 1.39474 0
M  V30 3704 C 363.02 -3.48166 2.64762 0
M  V30 3705 C 362.079 -4.65478 2.4539 0
M  V30 3706 O 361.105 -4.71333 3.19114 0
M  V30 3707 N 362.307 -5.60365 1.51564 0
M  V30 3708 H 365.072 -1.65405 2.49923 0
M  V30 3709 H 362.633 -0.768567 1.42494 0
M  V30 3710 H 364.625 -3.85143 1.24287 0
M  V30 3711 H 363.195 -3.08449 0.507758 0
M  V30 3712 H 362.415 -2.61598 2.9489 0
M  V30 3713 H 363.703 -3.71188 3.4799 0
M  V30 3714 H 363.101 -5.5837 0.907705 0
M  V30 3715 H 361.658 -6.36068 1.4234 0
M  V30 3716 N 365.091 -1.34144 -0.827227 0
M  V30 3717 C 366.021 -1.28005 -1.95287 0
M  V30 3718 C 367.002 -0.158321 -1.69362 0
M  V30 3719 O 368.187 -0.349987 -1.9102 0
M  V30 3720 C 365.317 -1.03036 -3.31664 0
M  V30 3721 C 364.271 -2.11628 -3.72019 0
M  V30 3722 C 363.597 -1.71854 -5.0633 0
M  V30 3723 C 364.897 -3.53417 -3.8457 0
M  V30 3724 H 366.591 -2.22187 -2.00682 0
M  V30 3725 H 364.137 -1.0696 -0.964135 0
M  V30 3726 H 366.09 -0.973863 -4.09993 0
M  V30 3727 H 364.814 -0.0529391 -3.26557 0
M  V30 3728 H 363.473 -2.16339 -2.95961 0
M  V30 3729 H 363.121 -0.727841 -4.97706 0
M  V30 3730 H 362.821 -2.44531 -5.34302 0
M  V30 3731 H 364.345 -1.67692 -5.87122 0
M  V30 3732 H 365.759 -3.51142 -4.5318 0
M  V30 3733 H 364.156 -4.24679 -4.2399 0
M  V30 3734 H 365.226 -3.91072 -2.86689 0
M  V30 3735 N 366.569 1.04691 -1.17803 0
M  V30 3736 C 367.817 1.7743 -0.967617 0
M  V30 3737 C 368.138 1.88359 0.504574 0
M  V30 3738 O 367.408 1.40402 1.36617 0
M  V30 3739 H 365.988 0.657242 -0.355024 0
M  V30 3740 H 368.65 1.2638 -1.48371 0
M  V30 3741 H 367.746 2.78924 -1.40027 0
M  V30 3742 N 368.047 0.979072 1.23499 0
M  V30 3743 C 368.995 0.510604 2.26926 0
M  V30 3744 C 369.989 -0.431691 1.63807 0
M  V30 3745 O 371.195 -0.30573 1.77385 0
M  V30 3746 H 367.57 0.146688 0.737554 0
M  V30 3747 H 369.541 1.39466 2.63803 0
M  V30 3748 C 368.29 -0.172658 3.47271 0
M  V30 3749 H 367.613 0.543331 3.96091 0
M  V30 3750 H 369.053 -0.464101 4.21452 0
M  V30 3751 C 367.512 -1.40345 3.06276 0
M  V30 3752 O 368.042 -2.49978 3.14442 0
M  V30 3753 N 366.248 -1.27362 2.61203 0
M  V30 3754 H 365.795 -0.381584 2.54758 0
M  V30 3755 H 365.753 -2.09822 2.34141 0
M  V30 3756 N 369.525 -1.3858 0.750561 0
M  V30 3757 C 370.458 -2.28095 0.0693139 0
M  V30 3758 C 371.436 -1.45217 -0.731491 0
M  V30 3759 O 372.62 -1.74587 -0.71076 0
M  V30 3760 C 369.747 -3.26282 -0.90871 0
M  V30 3761 C 368.793 -4.26056 -0.194507 0
M  V30 3762 S 369.626 -5.24026 1.10257 0
M  V30 3763 C 370.782 -6.2577 0.127542 0
M  V30 3764 H 371.015 -2.85526 0.8284 0
M  V30 3765 H 368.548 -1.44536 0.543014 0
M  V30 3766 H 370.506 -3.83367 -1.46766 0
M  V30 3767 H 369.167 -2.6784 -1.64075 0
M  V30 3768 H 368.36 -4.95249 -0.93512 0
M  V30 3769 H 367.962 -3.72852 0.292837 0
M  V30 3770 H 370.254 -6.73796 -0.707516 0
M  V30 3771 H 371.197 -7.03712 0.787044 0
M  V30 3772 H 371.605 -5.63938 -0.251803 0
M  V30 3773 N 371.003 -0.499398 -1.49478 0
M  V30 3774 C 371.913 0.284489 -2.32869 0
M  V30 3775 C 372.929 0.968885 -1.44529 0
M  V30 3776 O 374.105 0.95062 -1.77553 0
M  V30 3777 C 371.17 1.33594 -3.19928 0
M  V30 3778 C 370.231 0.665149 -4.24116 0
M  V30 3779 C 369.464 1.6665 -5.07014 0
M  V30 3780 O 369.687 2.89618 -4.91404 0
M  V30 3781 O 368.621 1.22271 -5.8935 0
M  V30 3782 H 372.447 -0.39802 -3.01081 0
M  V30 3783 H 370.032 -0.260758 -1.47107 0
M  V30 3784 H 371.914 1.94431 -3.73864 0
M  V30 3785 H 370.589 2.0014 -2.54412 0
M  V30 3786 H 369.496 0.0170769 -3.74096 0
M  V30 3787 H 370.829 0.0421555 -4.92182 0
M  V30 3788 N 372.481 1.55866 -0.233164 0
M  V30 3789 C 373.444 2.1953 0.658715 0
M  V30 3790 C 374.444 1.16053 1.11303 0
M  V30 3791 O 375.634 1.41218 1.01996 0
M  V30 3792 C 372.766 2.82791 1.90373 0
M  V30 3793 H 373.959 2.99721 0.10347 0
M  V30 3794 H 371.512 1.56291 0.0164245 0
M  V30 3795 H 372.247 2.06501 2.50056 0
M  V30 3796 H 372.032 3.58578 1.58632 0
M  V30 3797 H 373.522 3.31556 2.53891 0
M  V30 3798 N 373.959 -0.0401083 1.57549 0
M  V30 3799 C 375.205 -0.734211 1.89043 0
M  V30 3800 C 375.538 -1.75591 0.829535 0
M  V30 3801 O 374.813 -1.93868 -0.156706 0
M  V30 3802 C 375.096 -1.41374 3.31188 0
M  V30 3803 C 374.949 -0.406299 4.47961 0
M  V30 3804 C 376.268 -2.35061 3.72068 0
M  V30 3805 H 373.387 -0.265447 0.687537 0
M  V30 3806 H 376.029 0.00294087 1.9 0
M  V30 3807 H 374.179 -2.04206 3.30503 0
M  V30 3808 H 375.851 0.219255 4.60779 0
M  V30 3809 H 374.094 0.275485 4.32924 0
M  V30 3810 H 374.765 -0.920022 5.44279 0
M  V30 3811 H 377.241 -1.82282 3.74049 0
M  V30 3812 H 376.117 -2.79593 4.72355 0
M  V30 3813 H 376.378 -3.21258 3.0372 0
M  V30 3814 N 375.437 -1.54477 -0.31217 0
M  V30 3815 C 376.369 -1.81011 -1.40598 0
M  V30 3816 C 377.382 -0.692546 -1.47335 0
M  V30 3817 O 378.571 -0.969847 -1.49854 0
M  V30 3818 C 375.671 -1.92307 -2.79054 0
M  V30 3819 C 374.844 -3.22594 -2.95384 0
M  V30 3820 C 373.903 -3.24448 -4.1427 0
M  V30 3821 O 372.929 -3.98035 -4.06887 0
M  V30 3822 N 374.131 -2.49042 -5.24365 0
M  V30 3823 H 376.896 -2.75408 -1.18196 0
M  V30 3824 H 374.457 -1.53914 -0.502202 0
M  V30 3825 H 376.449 -1.90962 -3.56813 0
M  V30 3826 H 375.019 -1.04955 -2.94454 0
M  V30 3827 H 374.239 -3.36806 -2.04831 0
M  V30 3828 H 375.527 -4.08593 -3.03198 0
M  V30 3829 H 374.925 -1.88867 -5.33241 0
M  V30 3830 H 373.482 -2.53463 -6.005 0
M  V30 3831 N 376.915 0.57481 -1.46744 0
M  V30 3832 C 378.162 1.33272 -1.52462 0
M  V30 3833 C 378.49 1.93669 -0.179572 0
M  V30 3834 O 377.745 1.7743 0.825664 0
M  V30 3835 C 378.044 2.476 -2.57738 0
M  V30 3836 C 377.71 2.05146 -4.01529 0
M  V30 3837 C 376.372 1.93284 -4.40676 0
M  V30 3838 C 378.724 1.72506 -4.91824 0
M  V30 3839 C 376.052 1.47049 -5.67973 0
M  V30 3840 C 378.404 1.27748 -6.19567 0
M  V30 3841 C 377.068 1.14468 -6.57612 0
M  V30 3842 H 376.338 0.487678 -0.557899 0
M  V30 3843 H 378.985 0.646456 -1.80259 0
M  V30 3844 H 377.29 3.21708 -2.23632 0
M  V30 3845 H 378.987 3.05807 -2.5939 0
M  V30 3846 H 375.577 2.15316 -3.7059 0
M  V30 3847 H 379.761 1.80552 -4.62293 0
M  V30 3848 H 375.017 1.35417 -5.96215 0
M  V30 3849 H 379.191 1.01547 -6.88957 0
M  V30 3850 H 376.818 0.78419 -7.56145 0
M  V30 3851 N 378.394 1.34581 0.820102 0
M  V30 3852 C 379.344 1.22943 1.92013 0
M  V30 3853 C 380.328 0.127802 1.60392 0
M  V30 3854 O 381.52 0.357737 1.73347 0
M  V30 3855 C 378.649 0.989938 3.28717 0
M  V30 3856 C 377.735 2.13486 3.66449 0
M  V30 3857 N 378.126 3.38625 3.75722 0
M  V30 3858 C 376.424 2.04573 3.96315 0
M  V30 3859 C 377.125 4.13832 4.08801 0
M  V30 3860 N 376.101 3.42451 4.22171 0
M  V30 3861 H 379.903 2.17771 1.97365 0
M  V30 3862 H 377.417 1.2686 1.01392 0
M  V30 3863 H 379.414 0.887462 4.07345 0
M  V30 3864 H 378.074 0.0503691 3.24661 0
M  V30 3865 H 379.085 3.73143 3.59144 0
M  V30 3866 H 375.762 1.1839 4.00362 0
M  V30 3867 H 377.152 5.21909 4.23156 0
M  V30 3868 N 379.872 -1.04064 1.18357 0
M  V30 3869 C 381.283 -1.58719 0.98312 0
M  V30 3870 C 381.634 -1.90556 -0.467193 0
M  V30 3871 O 380.759 -1.69561 -1.34454 0
M  V30 3872 C 381.354 -2.88379 1.77828 0
M  V30 3873 C 379.913 -3.3965 1.62218 0
M  V30 3874 C 379.06 -2.13235 1.77274 0
M  V30 3875 H 382.011 -0.867359 1.32901 0
M  V30 3876 H 382.032 -3.58773 1.26737 0
M  V30 3877 H 381.544 -2.65176 2.83379 0
M  V30 3878 H 379.645 -3.67866 0.592036 0
M  V30 3879 H 379.758 -4.13475 2.42023 0
M  V30 3880 H 378.122 -2.24542 1.20221 0
M  V30 3881 H 378.905 -1.92487 2.8426 0
M  V30 3882 N 381.35 -0.985608 -1.22978 0
M  V30 3883 C 382.578 -0.675582 -1.95559 0
M  V30 3884 C 382.993 0.758413 -1.72897 0
M  V30 3885 O 382.35 1.51094 -1.02357 0
M  V30 3886 C 382.401 -0.96293 -3.48439 0
M  V30 3887 O 382.122 -2.34057 -3.70336 0
M  V30 3888 C 383.623 -0.669585 -4.38214 0
M  V30 3889 H 380.843 -0.250523 -0.622478 0
M  V30 3890 H 383.387 -1.3184 -1.56328 0
M  V30 3891 H 381.542 -0.366033 -3.85667 0
M  V30 3892 H 381.956 -2.43424 -4.64591 0
M  V30 3893 H 383.43 -0.920967 -5.44263 0
M  V30 3894 H 383.907 0.396383 -4.37408 0
M  V30 3895 H 384.513 -1.2472 -4.06602 0
M  V30 3896 N 382.828 1.3818 -0.7579 0
M  V30 3897 C 384.239 1.82726 -0.383134 0
M  V30 3898 C 384.59 1.63214 1.08884 0
M  V30 3899 O 383.715 1.13566 1.84205 0
M  V30 3900 C 384.31 3.31728 -0.688631 0
M  V30 3901 C 382.869 3.74606 -0.367091 0
M  V30 3902 C 382.016 2.60896 -0.939599 0
M  V30 3903 H 384.967 1.26847 -0.953699 0
M  V30 3904 H 384.988 3.80487 0.0316492 0
M  V30 3905 H 384.5 3.45898 -1.76001 0
M  V30 3906 H 382.601 3.66013 0.697532 0
M  V30 3907 H 382.714 4.71215 -0.865658 0
M  V30 3908 H 381.078 2.52075 -0.3647 0
M  V30 3909 H 381.861 2.77864 -2.0161 0
M  V30 3910 N 384.306 0.507319 1.49211 0
M  V30 3911 C 385.236 -0.256939 2.32082 0
M  V30 3912 C 386.217 -0.956609 1.40652 0
M  V30 3913 O 387.402 -0.946788 1.69557 0
M  V30 3914 C 384.532 -1.31802 3.21318 0
M  V30 3915 C 383.486 -0.737855 4.21592 0
M  V30 3916 C 382.812 -1.89992 4.99807 0
M  V30 3917 C 384.112 0.275325 5.21574 0
M  V30 3918 H 385.806 0.434798 2.96226 0
M  V30 3919 H 383.352 0.210546 1.42452 0
M  V30 3920 H 385.305 -1.86045 3.78107 0
M  V30 3921 H 384.029 -2.03903 2.5513 0
M  V30 3922 H 382.688 -0.217126 3.65956 0
M  V30 3923 H 382.336 -2.60877 4.30061 0
M  V30 3924 H 382.036 -1.51777 5.6766 0
M  V30 3925 H 383.56 -2.44657 5.59442 0
M  V30 3926 H 384.974 -0.179193 5.7302 0
M  V30 3927 H 383.371 0.573649 5.97352 0
M  V30 3928 H 384.441 1.18903 4.70096 0
M  V30 3929 N 385.784 -1.5574 0.241426 0
M  V30 3930 C 387.031 -1.9881 -0.384836 0
M  V30 3931 C 387.359 -1.12947 -1.58346 0
M  V30 3932 O 386.614 -0.178993 -1.9488 0
M  V30 3933 C 386.913 -3.47308 -0.843317 0
M  V30 3934 C 386.579 -4.50223 0.246946 0
M  V30 3935 C 385.241 -4.78088 0.546399 0
M  V30 3936 C 387.593 -5.11841 0.983282 0
M  V30 3937 C 384.921 -5.64846 1.58636 0
M  V30 3938 C 387.273 -5.99727 2.01272 0
M  V30 3939 C 385.937 -6.25927 2.31888 0
M  V30 3940 H 385.207 -0.727496 -0.140821 0
M  V30 3941 H 387.854 -1.8831 0.348106 0
M  V30 3942 H 386.159 -3.55112 -1.65537 0
M  V30 3943 H 387.856 -3.78017 -1.33806 0
M  V30 3944 H 384.446 -4.286 0.00340639 0
M  V30 3945 H 388.63 -4.90366 0.765182 0
M  V30 3946 H 383.886 -5.83403 1.82896 0
M  V30 3947 H 388.06 -6.46517 2.58823 0
M  V30 3948 H 385.687 -6.92949 3.12611 0
M  V30 3949 N 387.262 0.0317525 -1.57568 0
M  V30 3950 C 388.673 0.578692 -1.77505 0
M  V30 3951 C 389.024 1.75749 -0.872164 0
M  V30 3952 O 388.149 2.16298 -0.0663106 0
M  V30 3953 C 388.744 1.05658 -3.21904 0
M  V30 3954 C 387.303 1.54906 -3.43047 0
M  V30 3955 C 386.45 0.485939 -2.73009 0
M  V30 3956 H 389.401 -0.194475 -1.57504 0
M  V30 3957 H 389.422 1.92404 -3.28269 0
M  V30 3958 H 388.934 0.198422 -3.87592 0
M  V30 3959 H 387.035 2.42915 -2.82529 0
M  V30 3960 H 387.148 1.59841 -4.5165 0
M  V30 3961 H 385.512 0.940354 -2.36705 0
M  V30 3962 H 386.295 -0.362709 -3.41379 0
M  V30 3963 N 388.74 1.54641 0.303973 0
M  V30 3964 C 389.965 1.78092 1.06292 0
M  V30 3965 C 390.39 0.537342 1.80262 0
M  V30 3966 O 389.748 -0.511993 1.7392 0
M  V30 3967 C 389.796 2.98612 2.02147 0
M  V30 3968 O 388.9 2.71528 3.10397 0
M  V30 3969 H 388.241 0.589548 0.305497 0
M  V30 3970 H 390.771 2.01716 0.3423 0
M  V30 3971 H 390.781 3.265 2.44667 0
M  V30 3972 H 389.456 3.88785 1.47714 0
M  V30 3973 H 388.033 2.54648 2.72413 0
M  V30 3974 N 390.218 -0.567019 1.47046 0
M  V30 3975 C 391.466 -1.322 1.52864 0
M  V30 3976 C 391.787 -1.94088 0.188388 0
M  V30 3977 O 391.057 -1.7941 -0.786693 0
M  V30 3978 H 389.637 -0.490894 0.563056 0
M  V30 3979 H 392.299 -0.662879 1.83281 0
M  V30 3980 H 391.395 -2.12062 2.2899 0
M  V30 3981 N 391.696 -1.35014 -0.812953 0
M  V30 3982 C 392.945 -1.27269 -1.56479 0
M  V30 3983 C 393.258 0.152771 -1.95002 0
M  V30 3984 O 394.464 0.352451 -2.69203 0
M  V30 3985 C 392.92 -2.23159 -2.82362 0
M  V30 3986 C 392.528 -3.71016 -2.511 0
M  V30 3987 C 394.272 -2.24342 -3.60376 0
M  V30 3988 C 392.179 -4.58746 -3.73237 0
M  V30 3989 H 391.109 -0.472829 -0.587324 0
M  V30 3990 H 393.76 -1.6024 -0.894171 0
M  V30 3991 H 392.142 -1.83151 -3.51101 0
M  V30 3992 H 393.316 -4.1962 -1.90409 0
M  V30 3993 H 391.631 -3.72378 -1.86343 0
M  V30 3994 H 394.228 -2.87107 -4.51081 0
M  V30 3995 H 394.571 -1.24542 -3.97234 0
M  V30 3996 H 395.104 -2.62846 -2.98591 0
M  V30 3997 H 391.843 -5.59521 -3.41492 0
M  V30 3998 H 391.363 -4.14871 -4.33176 0
M  V30 3999 H 393.042 -4.73852 -4.40537 0
M  V30 4000 N 393.175 1.03435 -1.18907 0
M  V30 4001 C 394.105 2.13503 -0.945448 0
M  V30 4002 C 395.086 1.69682 0.119189 0
M  V30 4003 O 396.271 1.94169 -0.034707 0
M  V30 4004 C 393.401 3.44004 -0.477316 0
M  V30 4005 C 392.355 4.0148 -1.48316 0
M  V30 4006 C 391.681 5.27537 -0.872311 0
M  V30 4007 C 392.981 4.36921 -2.86177 0
M  V30 4008 H 394.675 2.34141 -1.86597 0
M  V30 4009 H 392.221 1.12523 -0.898584 0
M  V30 4010 H 394.174 4.20372 -0.294204 0
M  V30 4011 H 392.898 3.23072 0.478786 0
M  V30 4012 H 391.557 3.27201 -1.65332 0
M  V30 4013 H 391.205 5.02917 0.0911752 0
M  V30 4014 H 390.905 5.66954 -1.54393 0
M  V30 4015 H 392.429 6.06576 -0.699871 0
M  V30 4016 H 393.843 5.04248 -2.72776 0
M  V30 4017 H 392.24 4.87405 -3.50081 0
M  V30 4018 H 393.31 3.46466 -3.39248 0
M  V30 4019 N 394.653 0.992116 1.22453 0
M  V30 4020 C 395.583 0.561677 2.26644 0
M  V30 4021 C 396.564 -0.411055 1.65059 0
M  V30 4022 O 397.749 -0.301861 1.9184 0
M  V30 4023 C 394.879 -0.125247 3.47074 0
M  V30 4024 C 393.833 0.765948 4.21091 0
M  V30 4025 C 393.159 -0.0538484 5.34673 0
M  V30 4026 C 394.459 2.06242 4.79856 0
M  V30 4027 H 396.153 1.43259 2.62902 0
M  V30 4028 H 393.699 0.690283 1.26377 0
M  V30 4029 H 395.652 -0.437764 4.1912 0
M  V30 4030 H 394.376 -1.03069 3.0991 0
M  V30 4031 H 393.035 1.0621 3.50878 0
M  V30 4032 H 392.683 -0.960188 4.9375 0
M  V30 4033 H 392.383 0.539415 5.85119 0
M  V30 4034 H 393.907 -0.360477 6.09535 0
M  V30 4035 H 395.321 1.8139 5.43848 0
M  V30 4036 H 393.718 2.60444 5.40638 0
M  V30 4037 H 394.788 2.74167 3.99951 0
M  V30 4038 N 396.131 -1.37776 0.765217 0
M  V30 4039 C 397.359 -2.04124 0.337767 0
M  V30 4040 C 397.774 -1.57715 -1.03785 0
M  V30 4041 O 397.131 -0.755447 -1.6613 0
M  V30 4042 C 397.182 -3.59658 0.364442 0
M  V30 4043 O 396.903 -4.04367 1.68579 0
M  V30 4044 C 398.404 -4.43236 -0.0754221 0
M  V30 4045 H 395.624 -0.655696 0.142491 0
M  V30 4046 H 398.168 -1.76238 1.03732 0
M  V30 4047 H 396.323 -3.86339 -0.286471 0
M  V30 4048 H 396.737 -4.98857 1.61993 0
M  V30 4049 H 398.211 -5.52 -0.00560067 0
M  V30 4050 H 398.688 -4.2455 -1.12491 0
M  V30 4051 H 399.294 -4.21767 0.547055 0
M  V30 4052 N 397.609 -0.515225 -1.4894 0
M  V30 4053 C 398.519 0.259774 -2.33157 0
M  V30 4054 C 399.535 0.953501 -1.45548 0
M  V30 4055 O 400.711 0.931735 -1.78552 0
M  V30 4056 C 397.776 1.30193 -3.21326 0
M  V30 4057 C 396.837 0.620129 -4.24797 0
M  V30 4058 C 396.07 1.61263 -5.08753 0
M  V30 4059 O 396.293 2.84389 -4.94448 0
M  V30 4060 O 395.227 1.16013 -5.90614 0
M  V30 4061 H 399.053 -0.429932 -3.00641 0
M  V30 4062 H 396.638 -0.276346 -1.46822 0
M  V30 4063 H 398.52 1.90455 -3.75905 0
M  V30 4064 H 397.195 1.97431 -2.56521 0
M  V30 4065 H 396.102 -0.0226019 -3.74093 0
M  V30 4066 H 397.435 -0.0100493 -4.92199 0
M  V30 4067 N 399.087 1.5561 -0.249682 0
M  V30 4068 C 400.335 1.98618 0.373548 0
M  V30 4069 C 400.656 1.13919 1.58264 0
M  V30 4070 O 399.926 0.222637 1.94631 0
M  V30 4071 H 398.506 0.733571 0.141006 0
M  V30 4072 H 401.168 1.91748 -0.349117 0
M  V30 4073 H 400.264 3.04584 0.680796 0
M  V30 4074 N 400.565 -0.0233959 1.57583 0
M  V30 4075 C 401.805 -0.71784 1.9138 0
M  V30 4076 C 402.169 -1.72216 0.848853 0
M  V30 4077 O 403.37 -2.46527 1.07134 0
M  V30 4078 C 401.641 -1.36489 3.30311 0
M  V30 4079 S 403.2 -2.0877 3.85954 0
M  V30 4080 H 400.018 -0.237676 0.670098 0
M  V30 4081 H 402.62 0.0276709 1.9548 0
M  V30 4082 H 401.324 -0.620782 4.05678 0
M  V30 4083 H 400.855 -2.14883 3.29528 0
M  V30 4084 H 402.87 -3.35988 3.65139 0
M  V30 4085 N 402.043 -1.548 -0.295768 0
M  V30 4086 C 403.459 -1.4613 -0.641722 0
M  V30 4087 C 403.659 -0.656771 -1.90496 0
M  V30 4088 O 402.715 -0.166547 -2.5195 0
M  V30 4089 C 404.028 -2.90141 -0.789852 0
M  V30 4090 C 405.576 -3.00216 -0.885396 0
M  V30 4091 C 406.051 -4.45434 -1.06548 0
M  V30 4092 N 407.542 -4.49166 -1.13156 0
M  V30 4093 C 408.277 -5.58717 -1.28929 0
M  V30 4094 N 407.773 -6.78182 -1.41567 0
M  V30 4095 N 409.566 -5.46415 -1.31859 0
M  V30 4096 H 401.717 -2.05574 0.534147 0
M  V30 4097 H 403.98 -0.931259 0.177372 0
M  V30 4098 H 403.686 -3.51635 0.0675598 0
M  V30 4099 H 403.56 -3.37859 -1.67724 0
M  V30 4100 H 405.947 -2.38833 -1.73329 0
M  V30 4101 H 406.028 -2.55787 0.0261185 0
M  V30 4102 H 405.672 -5.07413 -0.222335 0
M  V30 4103 H 405.602 -4.87499 -1.9913 0
M  V30 4104 H 408.093 -3.631 -1.04721 0
M  V30 4105 H 408.406 -7.57428 -1.53372 0
M  V30 4106 H 406.751 -6.81037 -1.38613 0
M  V30 4107 H 409.942 -4.5203 -1.21601 0
M  V30 4108 H 410.115 -6.31841 -1.43808 0
M  V30 4109 N 403.521 0.559213 -1.47345 0
M  V30 4110 C 404.769 1.31388 -1.53563 0
M  V30 4111 C 405.09 1.93985 -0.198678 0
M  V30 4112 O 404.36 1.79825 0.777167 0
M  V30 4113 H 402.94 0.487901 -0.565652 0
M  V30 4114 H 405.602 0.65315 -1.8363 0
M  V30 4115 H 404.698 2.10844 -2.30111 0
M  V30 4116 N 404.999 1.35443 0.805782 0
M  V30 4117 C 406.276 1.19325 1.54987 0
M  V30 4118 C 406.656 -0.227294 2.09873 0
M  V30 4119 O 406.004 -1.2309 1.92512 0
M  V30 4120 C 406.214 2.26196 2.65775 0
M  V30 4121 C 407.562 2.62043 3.34094 0
M  V30 4122 O 408.586 2.25115 2.76046 0
M  V30 4123 O 407.445 3.25542 4.38958 0
M  V30 4124 H 404.539 0.463623 0.684823 0
M  V30 4125 H 407.085 1.47127 0.845674 0
M  V30 4126 H 405.857 3.21471 2.23096 0
M  V30 4127 H 405.48 1.99667 3.43829 0
M  V30 4128 N 406.477 -1.02803 1.19454 0
M  V30 4129 C 407.725 -1.75869 0.995722 0
M  V30 4130 C 408.046 -1.89138 -0.474543 0
M  V30 4131 O 407.316 -1.42558 -1.34366 0
M  V30 4132 H 405.896 -0.651511 0.365435 0
M  V30 4133 H 408.558 -1.24004 1.50363 0
M  V30 4134 H 407.654 -2.76661 1.44447 0
M  V30 4135 N 407.956 -0.998596 -1.21925 0
M  V30 4136 C 409.204 -0.676325 -1.90448 0
M  V30 4137 C 409.525 0.794719 -1.78071 0
M  V30 4138 O 408.795 1.5701 -1.17152 0
M  V30 4139 H 407.375 -0.247165 -0.704925 0
M  V30 4140 H 410.037 -1.26633 -1.48156 0
M  V30 4141 H 409.133 -0.943858 -2.97486 0
M  V30 4142 N 409.434 1.37368 -0.772513 0
M  V30 4143 C 410.683 1.98918 -0.333861 0
M  V30 4144 C 410.996 1.62017 1.09589 0
M  V30 4145 O 412.202 2.16676 1.63596 0
M  V30 4146 C 410.658 3.55735 -0.545971 0
M  V30 4147 C 410.266 4.01573 -1.98603 0
M  V30 4148 C 412.01 4.24156 -0.170979 0
M  V30 4149 C 409.917 5.51102 -2.1457 0
M  V30 4150 H 408.847 0.744214 -0.121085 0
M  V30 4151 H 411.498 1.56888 -0.95175 0
M  V30 4152 H 409.88 3.95748 0.141387 0
M  V30 4153 H 411.054 3.72803 -2.7084 0
M  V30 4154 H 409.369 3.45937 -2.31769 0
M  V30 4155 H 411.966 5.34024 -0.26878 0
M  V30 4156 H 412.309 4.06917 0.878855 0
M  V30 4157 H 412.842 3.89447 -0.810914 0
M  V30 4158 H 409.581 5.73268 -3.17875 0
M  V30 4159 H 409.101 5.81554 -1.46817 0
M  V30 4160 H 410.78 6.17083 -1.94468 0
M  V30 4161 N 410.912 0.523116 1.48665 0
M  V30 4162 C 411.842 -0.23231 2.32342 0
M  V30 4163 C 412.823 -0.941637 1.41659 0
M  V30 4164 O 414.008 -0.928751 1.70552 0
M  V30 4165 C 411.138 -1.28387 3.22698 0
M  V30 4166 C 410.092 -0.693098 4.22351 0
M  V30 4167 C 409.418 -1.8468 5.01794 0
M  V30 4168 C 410.718 0.33063 5.21252 0
M  V30 4169 H 412.412 0.466192 2.95748 0
M  V30 4170 H 409.958 0.225643 1.42221 0
M  V30 4171 H 411.911 -1.82024 3.80059 0
M  V30 4172 H 410.635 -2.01186 2.57278 0
M  V30 4173 H 409.294 -0.178299 3.66166 0
M  V30 4174 H 408.942 -2.56301 4.32804 0
M  V30 4175 H 408.642 -1.45747 5.69238 0
M  V30 4176 H 410.166 -2.38709 5.62006 0
M  V30 4177 H 411.58 -0.118407 5.73178 0
M  V30 4178 H 409.977 0.636974 5.9671 0
M  V30 4179 H 411.047 1.23883 4.68808 0
M  V30 4180 N 412.39 -1.55475 0.257931 0
M  V30 4181 C 413.806 -1.59307 -0.0966563 0
M  V30 4182 C 414.006 -1.27514 -1.5602 0
M  V30 4183 O 413.062 -1.02774 -2.30637 0
M  V30 4184 C 414.375 -2.99552 0.262481 0
M  V30 4185 C 415.923 -3.1231 0.207683 0
M  V30 4186 C 416.398 -4.54793 0.541012 0
M  V30 4187 N 417.889 -4.6058 0.491921 0
M  V30 4188 C 418.624 -5.68825 0.722857 0
M  V30 4189 N 418.12 -6.85287 1.0175 0
M  V30 4190 N 419.913 -5.58296 0.652815 0
M  V30 4191 H 412.064 -1.74409 1.21224 0
M  V30 4192 H 414.327 -0.812424 0.48854 0
M  V30 4193 H 414.033 -3.27593 1.27967 0
M  V30 4194 H 413.907 -3.75019 -0.40508 0
M  V30 4195 H 416.294 -2.84044 -0.800195 0
M  V30 4196 H 416.375 -2.39095 0.909255 0
M  V30 4197 H 416.019 -4.83783 1.5465 0
M  V30 4198 H 415.949 -5.26285 -0.18216 0
M  V30 4199 H 418.44 -3.7691 0.273366 0
M  V30 4200 H 418.753 -7.63725 1.18084 0
M  V30 4201 H 417.098 -6.86945 1.05509 0
M  V30 4202 H 420.289 -4.66189 0.422592 0
M  V30 4203 H 420.462 -6.42582 0.836182 0
M  V30 4204 N 413.868 0.0150385 -1.57593 0
M  V30 4205 C 415.145 0.7392 -1.81094 0
M  V30 4206 C 415.525 1.92817 -0.859344 0
M  V30 4207 O 414.873 2.28301 0.095362 0
M  V30 4208 C 415.083 1.15907 -3.29191 0
M  V30 4209 C 416.431 1.56918 -3.9454 0
M  V30 4210 O 417.455 1.25328 -3.33424 0
M  V30 4211 O 416.314 2.15604 -5.02173 0
M  V30 4212 H 413.408 0.358631 -0.745193 0
M  V30 4213 H 415.954 -0.00926156 -1.69697 0
M  V30 4214 H 414.726 0.310921 -3.90063 0
M  V30 4215 H 414.349 1.96711 -3.45529 0
M  V30 4216 N 415.346 1.54954 0.287554 0
M  V30 4217 C 416.592 1.75132 1.02257 0
M  V30 4218 C 416.925 0.542858 1.86458 0
M  V30 4219 O 416.2 -0.459856 1.88986 0
M  V30 4220 C 416.483 3.04812 1.91733 0
M  V30 4221 C 416.336 4.35985 1.10622 0
M  V30 4222 C 417.655 3.30438 2.90687 0
M  V30 4223 H 414.774 0.637194 0.370341 0
M  V30 4224 H 417.416 1.87678 0.296111 0
M  V30 4225 H 415.566 2.94247 2.53675 0
M  V30 4226 H 417.238 4.58487 0.508636 0
M  V30 4227 H 415.481 4.31865 0.409271 0
M  V30 4228 H 416.152 5.23017 1.76513 0
M  V30 4229 H 418.628 3.40701 2.38877 0
M  V30 4230 H 417.504 4.22467 3.50447 0
M  V30 4231 H 417.765 2.49377 3.65053 0
M  V30 4232 N 416.824 -0.551391 1.4764 0
M  V30 4233 C 418.101 -1.31229 1.45046 0
M  V30 4234 C 418.481 -2.10563 0.150527 0
M  V30 4235 O 417.829 -2.11374 -0.867956 0
M  V30 4236 C 418.039 -2.21189 2.69956 0
M  V30 4237 C 419.387 -2.82021 3.1741 0
M  V30 4238 O 420.411 -2.31488 2.70724 0
M  V30 4239 O 419.27 -3.73885 3.98588 0
M  V30 4240 H 416.364 -0.591193 0.578291 0
M  V30 4241 H 418.91 -0.569813 1.59847 0
M  V30 4242 H 417.682 -1.62207 3.56096 0
M  V30 4243 H 417.305 -3.02722 2.57769 0
M  V30 4244 N 418.302 -1.35869 -0.798587 0
M  V30 4245 C 419.55 -1.29332 -1.55298 0
M  V30 4246 C 419.871 0.129729 -1.94568 0
M  V30 4247 O 419.141 1.06796 -1.6423 0
M  V30 4248 H 417.721 -0.475737 -0.57592 0
M  V30 4249 H 420.383 -1.70062 -0.952093 0
M  V30 4250 H 419.479 -1.91458 -2.46476 0
M  V30 4251 N 419.78 1.02168 -1.19998 0
M  V30 4252 C 420.73 2.08969 -0.911921 0
M  V30 4253 C 421.714 1.60404 0.12621 0
M  V30 4254 O 422.906 1.76817 -0.0804706 0
M  V30 4255 C 420.035 3.402 -0.460277 0
M  V30 4256 C 419.121 3.9548 -1.53155 0
M  V30 4257 N 419.512 4.24332 -2.75275 0
M  V30 4258 C 417.81 4.23572 -1.39653 0
M  V30 4259 C 418.511 4.68834 -3.44339 0
M  V30 4260 N 417.487 4.70804 -2.71744 0
M  V30 4261 H 421.289 2.29178 -1.83997 0
M  V30 4262 H 418.803 1.20094 -1.09322 0
M  V30 4263 H 420.8 4.16235 -0.235337 0
M  V30 4264 H 419.46 3.21408 0.4612 0
M  V30 4265 H 420.471 4.13393 -3.11973 0
M  V30 4266 H 417.148 4.14005 -0.539067 0
M  V30 4267 H 418.538 5.00019 -4.4881 0
M  V30 4268 N 421.258 1.00505 1.21394 0
M  V30 4269 C 422.674 0.717873 1.42544 0
M  V30 4270 C 422.874 -0.706936 1.88692 0
M  V30 4271 O 421.93 -1.47627 2.04847 0
M  V30 4272 C 423.243 1.73377 2.45684 0
M  V30 4273 C 424.791 1.75059 2.59467 0
M  V30 4274 C 425.266 2.75545 3.6584 0
M  V30 4275 N 426.757 2.74213 3.73311 0
M  V30 4276 C 427.492 3.48626 4.55245 0
M  V30 4277 N 426.988 4.32678 5.41075 0
M  V30 4278 N 428.781 3.37276 4.49668 0
M  V30 4279 H 420.932 1.92506 0.897503 0
M  V30 4280 H 423.195 0.830919 0.456375 0
M  V30 4281 H 422.901 2.75395 2.18748 0
M  V30 4282 H 422.775 1.53647 3.44489 0
M  V30 4283 H 425.162 0.737337 2.8574 0
M  V30 4284 H 425.243 1.98861 1.60897 0
M  V30 4285 H 424.887 3.77028 3.40313 0
M  V30 4286 H 424.817 2.49009 4.64007 0
M  V30 4287 H 427.308 2.13234 3.11993 0
M  V30 4288 H 427.621 4.86253 6.00648 0
M  V30 4289 H 425.966 4.3676 5.40616 0
M  V30 4290 H 429.157 2.71043 3.81646 0
M  V30 4291 H 429.33 3.95524 5.13288 0
M  V30 4292 N 422.737 -1.36956 0.779787 0
M  V30 4293 C 423.984 -1.99491 0.347766 0
M  V30 4294 C 424.312 -1.61898 -1.07793 0
M  V30 4295 O 423.567 -0.86071 -1.75756 0
M  V30 4296 C 423.866 -3.54585 0.447686 0
M  V30 4297 C 423.532 -4.1197 1.83279 0
M  V30 4298 C 422.194 -4.27356 2.2118 0
M  V30 4299 C 424.546 -4.43354 2.74019 0
M  V30 4300 C 421.874 -4.71432 3.4924 0
M  V30 4301 C 424.226 -4.88858 4.01497 0
M  V30 4302 C 422.89 -5.0245 4.39432 0
M  V30 4303 H 422.16 -0.729991 0.127257 0
M  V30 4304 H 424.807 -1.63599 0.995376 0
M  V30 4305 H 423.112 -3.90773 -0.283447 0
M  V30 4306 H 424.809 -4.00888 0.0945948 0
M  V30 4307 H 421.399 -4.00428 1.52825 0
M  V30 4308 H 425.583 -4.31045 2.45995 0
M  V30 4309 H 420.839 -4.80141 3.78516 0
M  V30 4310 H 425.013 -5.12108 4.71931 0
M  V30 4311 H 422.64 -5.36362 5.38721 0
M  V30 4312 N 424.215 -0.530993 -1.48385 0
M  V30 4313 C 425.148 0.278511 -2.26494 0
M  V30 4314 C 426.126 0.943905 -1.32398 0
M  V30 4315 O 427.31 0.968098 -1.61741 0
M  V30 4316 C 424.437 1.39453 -3.08659 0
M  V30 4317 C 423.483 0.840434 -4.18137 0
M  V30 4318 S 424.316 -0.292496 -5.34701 0
M  V30 4319 C 425.472 0.825973 -6.20426 0
M  V30 4320 H 425.705 -0.384365 -2.94805 0
M  V30 4321 H 423.238 -0.316799 -1.51115 0
M  V30 4322 H 425.196 2.03382 -3.56575 0
M  V30 4323 H 423.857 2.02913 -2.3976 0
M  V30 4324 H 423.05 1.67769 -4.75257 0
M  V30 4325 H 422.652 0.277819 -3.72967 0
M  V30 4326 H 424.944 1.72438 -6.55188 0
M  V30 4327 H 425.887 0.292728 -7.07495 0
M  V30 4328 H 426.295 1.10683 -5.53543 0
M  V30 4329 N 425.693 1.55336 -0.266172 0
M  V30 4330 C 427.104 1.85236 0.233315 0
M  V30 4331 C 427.455 1.18816 1.56132 0
M  V30 4332 O 426.58 0.473307 2.11161 0
M  V30 4333 C 427.175 3.36059 0.430113 0
M  V30 4334 C 425.734 3.66116 0.873842 0
M  V30 4335 C 424.881 2.77274 -0.0380016 0
M  V30 4336 H 427.832 1.51004 -0.488214 0
M  V30 4337 H 427.853 3.58681 1.26998 0
M  V30 4338 H 427.365 3.84373 -0.536588 0
M  V30 4339 H 425.466 3.23295 1.85233 0
M  V30 4340 H 425.579 4.73699 0.717358 0
M  V30 4341 H 423.943 2.50198 0.476759 0
M  V30 4342 H 424.726 3.284 -1.00042 0
M  V30 4343 N 427.171 -0.0066808 1.57599 0
M  V30 4344 C 428.448 -0.729586 1.81484 0
M  V30 4345 C 428.828 -1.92359 0.869558 0
M  V30 4346 O 428.176 -2.28348 -0.0832533 0
M  V30 4347 C 428.386 -1.1416 3.29801 0
M  V30 4348 C 429.734 -1.54823 3.95367 0
M  V30 4349 O 430.758 -1.23558 3.34084 0
M  V30 4350 O 429.617 -2.12937 5.03309 0
M  V30 4351 H 426.711 -0.354674 0.747085 0
M  V30 4352 H 429.257 0.0182609 1.6969 0
M  V30 4353 H 428.029 -0.290231 3.90222 0
M  V30 4354 H 427.652 -1.94876 3.46568 0
M  V30 4355 N 428.649 -1.55105 -0.279332 0
M  V30 4356 C 429.879 -1.7917 -1.02867 0
M  V30 4357 C 430.287 -0.56204 -1.80659 0
M  V30 4358 O 429.63 0.478266 -1.77365 0
M  V30 4359 C 429.692 -2.96061 -2.03932 0
M  V30 4360 C 429.356 -4.33341 -1.45137 0
M  V30 4361 C 430.353 -5.12565 -0.870266 0
M  V30 4362 C 428.038 -4.79987 -1.48048 0
M  V30 4363 C 430.032 -6.36565 -0.326097 0
M  V30 4364 C 427.719 -6.03944 -0.932443 0
M  V30 4365 C 428.717 -6.8207 -0.356247 0
M  V30 4366 O 428.405 -8.03691 0.183412 0
M  V30 4367 H 428.137 -0.600796 -0.309872 0
M  V30 4368 H 430.691 -2.02932 -0.317468 0
M  V30 4369 H 428.921 -2.67975 -2.78794 0
M  V30 4370 H 430.61 -3.07506 -2.64943 0
M  V30 4371 H 431.376 -4.77661 -0.840521 0
M  V30 4372 H 427.255 -4.1919 -1.91835 0
M  V30 4373 H 430.799 -6.97489 0.124286 0
M  V30 4374 H 426.696 -6.3833 -0.959407 0
M  V30 4375 H 427.464 -8.18468 0.0721681 0
M  V30 4376 N 430.127 0.543554 -1.4793 0
M  V30 4377 C 431.037 1.67657 -1.64098 0
M  V30 4378 C 432.053 1.65934 -0.523622 0
M  V30 4379 O 433.229 1.85133 -0.792943 0
M  V30 4380 C 430.294 3.04146 -1.66421 0
M  V30 4381 C 429.355 3.16831 -2.89684 0
M  V30 4382 C 428.588 4.46809 -2.91886 0
M  V30 4383 O 428.811 5.33095 -2.02895 0
M  V30 4384 O 427.745 4.63573 -3.83906 0
M  V30 4385 H 431.571 1.56957 -2.59997 0
M  V30 4386 H 429.156 0.715116 -1.31173 0
M  V30 4387 H 431.038 3.85346 -1.70548 0
M  V30 4388 H 429.713 3.152 -0.736923 0
M  V30 4389 H 428.62 2.34977 -2.91095 0
M  V30 4390 H 429.953 3.10687 -3.81752 0
M  V30 4391 N 431.605 1.3629 0.791371 0
M  V30 4392 C 433.016 1.27225 1.36641 0
M  V30 4393 C 433.367 -0.0887968 1.95999 0
M  V30 4394 O 432.492 -0.990207 1.92416 0
M  V30 4395 C 433.087 2.30375 2.48421 0
M  V30 4396 C 431.646 2.25004 3.01746 0
M  V30 4397 C 430.793 2.15259 1.7481 0
M  V30 4398 H 433.744 1.47198 0.593173 0
M  V30 4399 H 433.765 1.93905 3.27385 0
M  V30 4400 H 433.277 3.29422 2.05189 0
M  V30 4401 H 431.378 1.29417 3.49403 0
M  V30 4402 H 431.491 3.1761 3.58693 0
M  V30 4403 H 429.855 1.61482 1.96966 0
M  V30 4404 H 430.638 3.16191 1.33709 0
M  V30 4405 N 433.083 -1.0153 1.20538 0
M  V30 4406 C 433.993 -2.13557 0.971113 0
M  V30 4407 C 435.009 -1.73845 -0.0734366 0
M  V30 4408 O 436.185 -2.01075 0.114299 0
M  V30 4409 C 433.25 -3.42661 0.527639 0
M  V30 4410 C 432.311 -3.96608 1.64319 0
M  V30 4411 C 431.544 -5.1955 1.22078 0
M  V30 4412 O 431.767 -5.70329 0.0900198 0
M  V30 4413 O 430.701 -5.66681 2.02871 0
M  V30 4414 H 434.527 -2.3619 1.90913 0
M  V30 4415 H 432.112 -1.11946 0.989362 0
M  V30 4416 H 433.994 -4.20404 0.289621 0
M  V30 4417 H 432.669 -3.21441 -0.381779 0
M  V30 4418 H 431.576 -3.20139 1.93551 0
M  V30 4419 H 432.909 -4.22219 2.52966 0
M  V30 4420 N 434.561 -1.01147 -1.20859 0
M  V30 4421 C 435.508 -0.577354 -2.23462 0
M  V30 4422 C 436.478 0.399922 -1.61214 0
M  V30 4423 O 437.663 0.300515 -1.88419 0
M  V30 4424 C 434.803 0.083372 -3.44999 0
M  V30 4425 C 433.916 -0.937856 -4.21697 0
M  V30 4426 C 433.051 -0.248717 -5.30617 0
M  V30 4427 C 432.09 -1.25705 -5.99053 0
M  V30 4428 N 431.227 -0.594939 -6.99575 0
M  V30 4429 H 436.067 -1.45695 -2.59956 0
M  V30 4430 H 433.604 -0.729428 -1.27741 0
M  V30 4431 H 435.562 0.483535 -4.14388 0
M  V30 4432 H 434.192 0.926645 -3.09214 0
M  V30 4433 H 433.244 -1.45622 -3.51423 0
M  V30 4434 H 434.556 -1.70493 -4.68757 0
M  V30 4435 H 433.71 0.207215 -6.06346 0
M  V30 4436 H 432.449 0.55071 -4.84581 0
M  V30 4437 H 431.454 -1.72343 -5.2209 0
M  V30 4438 H 432.679 -2.05767 -6.47176 0
M  V30 4439 H 430.625 0.184713 -6.5574 0
M  V30 4440 H 430.542 -1.30017 -7.44736 0
M  V30 4441 H 431.81 -0.162427 -7.79331 0
M  V30 4442 N 436.039 1.36541 -0.78704 0
M  V30 4443 C 436.986 2.30082 -0.181901 0
M  V30 4444 C 437.956 1.5186 0.672896 0
M  V30 4445 O 439.141 1.80374 0.622072 0
M  V30 4446 C 436.281 3.3835 0.679197 0
M  V30 4447 C 435.394 4.31565 -0.193882 0
M  V30 4448 C 434.529 5.26915 0.673364 0
M  V30 4449 C 433.568 6.11769 -0.201315 0
M  V30 4450 N 432.705 6.99315 0.624777 0
M  V30 4451 H 437.545 2.81248 -0.985064 0
M  V30 4452 H 435.082 1.38437 -0.497342 0
M  V30 4453 H 437.04 3.99767 1.19341 0
M  V30 4454 H 435.67 2.8851 1.44781 0
M  V30 4455 H 434.722 3.71323 -0.826044 0
M  V30 4456 H 436.034 4.91191 -0.867937 0
M  V30 4457 H 435.188 5.9361 1.25348 0
M  V30 4458 H 433.927 4.67737 1.38105 0
M  V30 4459 H 432.932 5.44039 -0.793849 0
M  V30 4460 H 434.157 6.73022 -0.906568 0
M  V30 4461 H 432.103 6.42648 1.3168 0
M  V30 4462 H 432.02 7.56 0.00835237 0
M  V30 4463 H 433.288 7.70382 1.18879 0
M  V30 4464 N 437.518 0.538854 1.48102 0
M  V30 4465 C 438.428 -0.222648 2.33541 0
M  V30 4466 C 439.444 -0.930225 1.47047 0
M  V30 4467 O 440.62 -0.903211 1.80011 0
M  V30 4468 C 437.685 -1.25064 3.23357 0
M  V30 4469 C 436.746 -0.552469 4.2573 0
M  V30 4470 C 435.979 -1.53149 5.11254 0
M  V30 4471 O 436.202 -2.76487 4.9891 0
M  V30 4472 O 435.136 -1.06602 5.92385 0
M  V30 4473 H 438.962 0.477707 2.99919 0
M  V30 4474 H 436.547 0.299669 1.46364 0
M  V30 4475 H 438.429 -1.8445 3.78888 0
M  V30 4476 H 437.104 -1.93325 2.59629 0
M  V30 4477 H 436.011 0.082114 3.7401 0
M  V30 4478 H 437.344 0.0883526 4.92121 0
M  V30 4479 N 438.996 -1.55193 0.274407 0
M  V30 4480 C 439.926 -2.25471 -0.607032 0
M  V30 4481 C 440.907 -1.24461 -1.15946 0
M  V30 4482 O 442.092 -1.53179 -1.19373 0
M  V30 4483 C 439.222 -2.97526 -1.79153 0
M  V30 4484 C 438.176 -4.05459 -1.37067 0
M  V30 4485 C 437.502 -4.65084 -2.6382 0
M  V30 4486 C 438.802 -5.19691 -0.521389 0
M  V30 4487 H 440.496 -2.99393 -0.0209343 0
M  V30 4488 H 438.042 -1.43997 -0.00862866 0
M  V30 4489 H 439.995 -3.45402 -2.41404 0
M  V30 4490 H 438.719 -2.21138 -2.40344 0
M  V30 4491 H 437.378 -3.58393 -0.771355 0
M  V30 4492 H 437.026 -3.85365 -3.23268 0
M  V30 4493 H 436.726 -5.37961 -2.36372 0
M  V30 4494 H 438.25 -5.15708 -3.26921 0
M  V30 4495 H 439.664 -5.63623 -1.04889 0
M  V30 4496 H 438.061 -5.99126 -0.341825 0
M  V30 4497 H 439.131 -4.82713 0.46 0
M  V30 4498 N 440.474 -0.00167713 -1.576 0
M  V30 4499 C 441.437 0.974046 -2.07473 0
M  V30 4500 C 442.437 1.27143 -0.984444 0
M  V30 4501 O 443.627 1.21633 -1.24703 0
M  V30 4502 C 440.759 2.29849 -2.51759 0
M  V30 4503 H 441.952 0.54262 -2.9495 0
M  V30 4504 H 439.505 0.245829 -1.54355 0
M  V30 4505 H 440.24 2.77677 -1.67529 0
M  V30 4506 H 440.025 2.09584 -3.31386 0
M  V30 4507 H 441.515 2.9984 -2.90664 0
M  V30 4508 N 441.952 1.55251 0.271103 0
M  V30 4509 C 443.177 1.80306 1.02491 0
M  V30 4510 C 443.602 0.575457 1.79081 0
M  V30 4511 O 442.96 -0.474987 1.74967 0
M  V30 4512 C 443.008 3.02832 1.95768 0
M  V30 4513 O 442.112 2.78051 3.04568 0
M  V30 4514 H 441.453 0.595896 0.292923 0
M  V30 4515 H 443.983 2.02397 0.299436 0
M  V30 4516 H 443.993 3.31616 2.37686 0
M  V30 4517 H 442.668 3.9183 1.39434 0
M  V30 4518 H 441.245 2.60369 2.66951 0
M  V30 4519 N 443.43 -0.535701 1.48216 0
M  V30 4520 C 444.846 -0.863701 1.3421 0
M  V30 4521 C 445.046 -1.98458 0.34879 0
M  V30 4522 O 444.102 -2.51432 -0.23204 0
M  V30 4523 C 445.415 -1.23662 2.74095 0
M  V30 4524 C 446.963 -1.34683 2.82541 0
M  V30 4525 C 447.438 -1.75322 4.23115 0
M  V30 4526 N 448.929 -1.82434 4.2576 0
M  V30 4527 C 449.664 -2.15252 5.31464 0
M  V30 4528 N 449.16 -2.46533 6.47452 0
M  V30 4529 N 450.953 -2.16209 5.18855 0
M  V30 4530 H 443.104 0.203965 2.11418 0
M  V30 4531 H 445.367 0.0286033 0.947568 0
M  V30 4532 H 445.073 -0.486674 3.48316 0
M  V30 4533 H 444.947 -2.18805 3.07253 0
M  V30 4534 H 447.334 -2.08756 2.08579 0
M  V30 4535 H 447.415 -0.376756 2.5301 0
M  V30 4536 H 447.059 -1.01812 4.97591 0
M  V30 4537 H 446.989 -2.7337 4.50085 0
M  V30 4538 H 449.48 -1.6056 3.42095 0
M  V30 4539 H 449.793 -2.70662 7.23852 0
M  V30 4540 H 448.138 -2.44065 6.50736 0
M  V30 4541 H 451.329 -1.91224 4.2726 0
M  V30 4542 H 451.502 -2.41453 6.01335 0
M  V30 4543 N 444.908 -1.36708 -0.784132 0
M  V30 4544 C 446.185 -1.21776 -1.53069 0
M  V30 4545 C 446.565 0.193876 -2.10208 0
M  V30 4546 O 445.913 1.20012 -1.94446 0
M  V30 4547 C 446.123 -2.30395 -2.62143 0
M  V30 4548 C 447.471 -2.67325 -3.29882 0
M  V30 4549 O 448.495 -2.29478 -2.7243 0
M  V30 4550 O 447.354 -3.32485 -4.33724 0
M  V30 4551 H 444.448 -0.474459 -0.677361 0
M  V30 4552 H 446.994 -1.48454 -0.82216 0
M  V30 4553 H 445.766 -3.2498 -2.17953 0
M  V30 4554 H 445.389 -2.05112 -3.40609 0
M  V30 4555 N 446.386 1.0089 -1.21074 0
M  V30 4556 C 447.632 1.74866 -1.02712 0
M  V30 4557 C 447.965 1.89178 0.438787 0
M  V30 4558 O 447.24 1.42325 1.32567 0
M  V30 4559 C 447.523 3.16347 -1.72036 0
M  V30 4560 C 447.376 3.09782 -3.26121 0
M  V30 4561 C 448.695 4.15187 -1.45973 0
M  V30 4562 H 445.814 0.634736 -0.374539 0
M  V30 4563 H 448.456 1.17646 -1.49196 0
M  V30 4564 H 446.606 3.65201 -1.32517 0
M  V30 4565 H 448.278 2.68673 -3.74983 0
M  V30 4566 H 446.521 2.46982 -3.56626 0
M  V30 4567 H 447.192 4.09829 -3.6979 0
M  V30 4568 H 449.668 3.75022 -1.80272 0
M  V30 4569 H 448.544 5.12331 -1.96999 0
M  V30 4570 H 448.805 4.40386 -0.388924 0
M  V30 4571 N 447.864 1.01787 1.20321 0
M  V30 4572 C 449.11 0.708985 1.90003 0
M  V30 4573 C 449.443 -0.759572 1.78729 0
M  V30 4574 O 448.718 -1.55198 1.17234 0
M  V30 4575 C 449.001 1.1469 3.41348 0
M  V30 4576 C 448.854 2.67586 3.61549 0
M  V30 4577 C 450.173 0.71915 4.34185 0
M  V30 4578 H 447.292 0.259034 0.689978 0
M  V30 4579 H 449.934 1.26584 1.41692 0
M  V30 4580 H 448.084 0.673128 3.82624 0
M  V30 4581 H 449.756 3.22826 3.29517 0
M  V30 4582 H 447.999 3.085 3.04976 0
M  V30 4583 H 448.67 2.93281 4.67643 0
M  V30 4584 H 451.146 1.12647 4.00562 0
M  V30 4585 H 450.022 1.05358 5.38694 0
M  V30 4586 H 450.283 -0.379111 4.40472 0
M  V30 4587 N 449.342 -1.36122 0.79427 0
M  V30 4588 C 450.567 -2.03891 0.379871 0
M  V30 4589 C 450.992 -1.59488 -0.997251 0
M  V30 4590 O 450.35 -0.765652 -1.64339 0
M  V30 4591 C 450.398 -3.57687 0.457442 0
M  V30 4592 O 449.502 -4.08931 -0.5338 0
M  V30 4593 H 448.843 -0.6443 0.160541 0
M  V30 4594 H 451.373 -1.73976 1.07673 0
M  V30 4595 H 451.383 -4.06721 0.322792 0
M  V30 4596 H 450.058 -3.89357 1.46199 0
M  V30 4597 H 448.635 -3.71154 -0.360409 0
M  V30 4598 N 450.82 -0.546701 -1.47814 0
M  V30 4599 C 452.236 -0.205717 -1.58269 0
M  V30 4600 C 452.436 1.29153 -1.54667 0
M  V30 4601 O 451.492 2.07098 -1.44453 0
M  V30 4602 C 452.805 -0.823065 -2.89216 0
M  V30 4603 C 454.353 -0.793328 -3.02779 0
M  V30 4604 C 454.828 -1.38955 -4.36412 0
M  V30 4605 N 456.319 -1.35227 -4.43021 0
M  V30 4606 C 457.054 -1.78333 -5.44963 0
M  V30 4607 N 456.55 -2.29246 -6.53772 0
M  V30 4608 N 458.343 -1.69467 -5.35945 0
M  V30 4609 H 450.494 -1.5196 -1.48398 0
M  V30 4610 H 452.757 -0.633078 -0.705632 0
M  V30 4611 H 452.463 -1.8749 -2.97558 0
M  V30 4612 H 452.337 -0.309915 -3.75925 0
M  V30 4613 H 454.724 0.249784 -2.94041 0
M  V30 4614 H 454.805 -1.34412 -2.17639 0
M  V30 4615 H 454.449 -2.43168 -4.45906 0
M  V30 4616 H 454.379 -0.814291 -5.20266 0
M  V30 4617 H 456.87 -0.979739 -3.64979 0
M  V30 4618 H 457.183 -2.60089 -7.27718 0
M  V30 4619 H 455.528 -2.3325 -6.5469 0
M  V30 4620 H 458.719 -1.29477 -4.49837 0
M  V30 4621 H 458.892 -2.03381 -6.15256 0
M  V30 4622 N 452.299 1.55045 -0.282633 0
M  V30 4623 C 453.715 1.59441 0.0712997 0
M  V30 4624 C 453.915 1.2998 1.53972 0
M  V30 4625 O 452.971 1.06431 2.28973 0
M  V30 4626 C 454.284 2.99097 -0.310104 0
M  V30 4627 C 455.832 3.1194 -0.257343 0
M  V30 4628 C 456.307 4.53875 -0.613297 0
M  V30 4629 N 457.798 4.5974 -0.565134 0
M  V30 4630 C 458.533 5.67603 -0.81326 0
M  V30 4631 N 458.029 6.83582 -1.1264 0
M  V30 4632 N 459.822 5.57187 -0.741553 0
M  V30 4633 H 451.973 1.72458 -1.23984 0
M  V30 4634 H 454.236 0.804549 -0.501403 0
M  V30 4635 H 453.942 3.25516 -1.33163 0
M  V30 4636 H 453.816 3.75616 0.345366 0
M  V30 4637 H 456.203 2.85281 0.754905 0
M  V30 4638 H 456.284 2.37618 -0.947178 0
M  V30 4639 H 455.928 4.81261 -1.62327 0
M  V30 4640 H 455.858 5.26508 0.09841 0
M  V30 4641 H 458.349 3.76427 -0.333294 0
M  V30 4642 H 458.662 7.6175 -1.30219 0
M  V30 4643 H 457.007 6.85179 -1.16425 0
M  V30 4644 H 460.198 4.65457 -0.496705 0
M  V30 4645 H 460.371 6.41171 -0.938306 0
M  V30 4646 N 453.777 0.010035 1.57597 0
M  V30 4647 C 454.71 -1.01234 2.04516 0
M  V30 4648 C 455.688 -1.32886 0.937024 0
M  V30 4649 O 456.872 -1.44879 1.20592 0
M  V30 4650 C 453.999 -2.33738 2.45121 0
M  V30 4651 C 453.045 -2.17679 3.66767 0
M  V30 4652 S 453.878 -1.49343 5.14254 0
M  V30 4653 C 455.034 -2.83256 5.58137 0
M  V30 4654 H 455.267 -0.612866 2.90914 0
M  V30 4655 H 452.8 -0.201124 1.53084 0
M  V30 4656 H 454.758 -3.09922 2.69182 0
M  V30 4657 H 453.419 -2.70823 1.59103 0
M  V30 4658 H 452.612 -3.1559 3.92962 0
M  V30 4659 H 452.214 -1.4964 3.42759 0
M  V30 4660 H 454.506 -3.79538 5.6121 0
M  V30 4661 H 455.449 -2.61749 6.57946 0
M  V30 4662 H 455.857 -2.87627 4.85727 0
M  V30 4663 N 455.255 -1.55392 -0.262866 0
M  V30 4664 C 456.504 -1.75679 -0.990943 0
M  V30 4665 C 456.817 -0.57097 -1.87081 0
M  V30 4666 O 458.023 -0.656486 -2.63444 0
M  V30 4667 C 456.479 -3.10964 -1.81188 0
M  V30 4668 C 456.087 -4.37146 -0.980188 0
M  V30 4669 C 457.831 -3.40597 -2.53365 0
M  V30 4670 C 455.738 -5.63466 -1.7961 0
M  V30 4671 H 454.668 -0.654868 -0.373716 0
M  V30 4672 H 457.319 -1.81841 -0.246203 0
M  V30 4673 H 455.701 -2.98867 -2.59797 0
M  V30 4674 H 456.875 -4.60187 -0.237558 0
M  V30 4675 H 455.19 -4.14731 -0.372497 0
M  V30 4676 H 457.787 -4.32186 -3.14833 0
M  V30 4677 H 458.13 -2.6119 -3.24169 0
M  V30 4678 H 458.663 -3.53838 -1.81779 0
M  V30 4679 H 455.402 -6.4565 -1.13209 0
M  V30 4680 H 454.922 -5.44552 -2.51443 0
M  V30 4681 H 456.601 -6.02139 -2.36723 0
M  V30 4682 N 456.733 0.527833 -1.48498 0
M  V30 4683 C 457.643 1.65907 -1.65867 0
M  V30 4684 C 458.659 1.6537 -0.541192 0
M  V30 4685 O 459.835 1.84282 -0.812534 0
M  V30 4686 C 456.9 3.02364 -1.69637 0
M  V30 4687 C 455.961 3.1374 -2.93028 0
M  V30 4688 C 455.194 4.43688 -2.96609 0
M  V30 4689 O 455.417 5.30913 -2.08538 0
M  V30 4690 O 454.351 4.59475 -3.88802 0
M  V30 4691 H 458.177 1.5419 -2.61647 0
M  V30 4692 H 455.762 0.701163 -1.31924 0
M  V30 4693 H 457.644 3.83515 -1.74625 0
M  V30 4694 H 456.319 3.14401 -0.770312 0
M  V30 4695 H 455.226 2.31877 -2.93571 0
M  V30 4696 H 456.559 3.06621 -3.85026 0
M  V30 4697 N 458.211 1.37122 0.776871 0
M  V30 4698 C 459.161 1.28989 1.88005 0
M  V30 4699 C 460.145 0.178765 1.59904 0
M  V30 4700 O 461.337 0.412705 1.72121 0
M  V30 4701 C 458.466 1.09402 3.25402 0
M  V30 4702 C 457.552 2.25036 3.59471 0
M  V30 4703 N 457.943 3.50407 3.64759 0
M  V30 4704 C 456.241 2.17078 3.89607 0
M  V30 4705 C 456.942 4.26628 3.95428 0
M  V30 4706 N 455.918 3.55709 4.11062 0
M  V30 4707 H 459.72 2.2394 1.90337 0
M  V30 4708 H 457.234 1.30021 0.973052 0
M  V30 4709 H 459.231 1.01661 4.04315 0
M  V30 4710 H 457.891 0.153632 3.24336 0
M  V30 4711 H 458.902 3.8438 3.47091 0
M  V30 4712 H 455.579 1.31067 3.96393 0
M  V30 4713 H 456.969 5.35107 4.06338 0
M  V30 4714 N 459.689 -1.00246 1.21608 0
M  V30 4715 C 460.938 -1.73476 1.02902 0
M  V30 4716 C 461.251 -1.90643 -0.437561 0
M  V30 4717 O 462.457 -2.61105 -0.74407 0
M  V30 4718 C 460.913 -3.12079 1.79261 0
M  V30 4719 C 460.521 -3.02877 3.30106 0
M  V30 4720 C 462.265 -3.89421 1.68972 0
M  V30 4721 C 460.172 -4.36575 3.98944 0
M  V30 4722 H 459.102 -0.650408 0.381425 0
M  V30 4723 H 461.753 -1.11985 1.45367 0
M  V30 4724 H 460.135 -3.74196 1.2959 0
M  V30 4725 H 461.309 -2.49983 3.87098 0
M  V30 4726 H 459.624 -2.39022 3.40965 0
M  V30 4727 H 462.221 -4.88362 2.17731 0
M  V30 4728 H 462.564 -4.1122 0.648397 0
M  V30 4729 H 463.097 -3.33963 2.16133 0
M  V30 4730 H 459.836 -4.19978 5.03288 0
M  V30 4731 H 459.356 -4.8942 3.4674 0
M  V30 4732 H 461.035 -5.05364 4.04 0
M  V30 4733 N 461.167 -1.02423 -1.1978 0
M  V30 4734 C 462.583 -0.740459 -1.41384 0
M  V30 4735 C 462.783 0.676827 -1.89793 0
M  V30 4736 O 461.839 1.4435 -2.0717 0
M  V30 4737 C 463.152 -1.77264 -2.42895 0
M  V30 4738 C 464.7 -1.79165 -2.56649 0
M  V30 4739 C 465.175 -2.8133 -3.6141 0
M  V30 4740 N 466.666 -2.80118 -3.68901 0
M  V30 4741 C 467.401 -3.55824 -4.49641 0
M  V30 4742 N 466.897 -4.41231 -5.34123 0
M  V30 4743 N 468.69 -3.44387 -4.44246 0
M  V30 4744 H 460.841 -1.9391 -0.866764 0
M  V30 4745 H 463.104 -0.838074 -0.443098 0
M  V30 4746 H 462.81 -2.7884 -2.14339 0
M  V30 4747 H 462.684 -1.59108 -3.42001 0
M  V30 4748 H 465.071 -0.782702 -2.84531 0
M  V30 4749 H 465.152 -2.01396 -1.57713 0
M  V30 4750 H 464.796 -3.82394 -3.34271 0
M  V30 4751 H 464.726 -2.56359 -4.59986 0
M  V30 4752 H 467.217 -2.1817 -3.08562 0
M  V30 4753 H 467.53 -4.95747 -5.92836 0
M  V30 4754 H 465.875 -4.45306 -5.33599 0
M  V30 4755 H 469.066 -2.7708 -3.77285 0
M  V30 4756 H 469.239 -4.0364 -5.06931 0
M  V30 4757 N 462.645 1.35699 -0.801477 0
M  V30 4758 C 463.592 2.29876 -0.206294 0
M  V30 4759 C 464.562 1.52565 0.656752 0
M  V30 4760 O 465.747 1.81024 0.602906 0
M  V30 4761 C 462.887 3.39052 0.643272 0
M  V30 4762 C 462 4.31335 -0.239644 0
M  V30 4763 C 461.135 5.27599 0.61744 0
M  V30 4764 C 460.174 6.11521 -0.26619 0
M  V30 4765 N 459.311 6.99938 0.550571 0
M  V30 4766 H 464.151 2.80187 -1.01484 0
M  V30 4767 H 461.688 1.37902 -0.511997 0
M  V30 4768 H 463.646 4.0101 1.15094 0
M  V30 4769 H 462.276 2.9003 1.41713 0
M  V30 4770 H 461.328 3.70426 -0.865381 0
M  V30 4771 H 462.64 4.90243 -0.919985 0
M  V30 4772 H 461.794 5.94906 1.19045 0
M  V30 4773 H 460.533 4.69176 1.33137 0
M  V30 4774 H 459.538 5.43166 -0.851507 0
M  V30 4775 H 460.763 6.72022 -0.9779 0
M  V30 4776 H 458.709 6.44008 1.24856 0
M  V30 4777 H 458.626 7.55966 -0.071832 0
M  V30 4778 H 459.894 7.71599 1.10702 0
M  V30 4779 N 464.123 0.554532 1.47522 0
M  V30 4780 C 465.371 0.0294208 2.02079 0
M  V30 4781 C 465.692 -1.32411 1.43151 0
M  V30 4782 O 464.962 -1.863 0.605728 0
M  V30 4783 H 463.542 0.00788672 0.746958 0
M  V30 4784 H 466.204 0.723934 1.80956 0
M  V30 4785 H 465.3 -0.0606745 3.12041 0
M  V30 4786 N 465.601 -1.54893 0.290851 0
M  V30 4787 C 466.548 -2.23138 -0.58974 0
M  V30 4788 C 467.518 -1.21036 -1.13752 0
M  V30 4789 O 468.703 -1.49626 -1.18392 0
M  V30 4790 C 465.843 -2.96811 -1.76061 0
M  V30 4791 C 464.956 -4.13665 -1.24519 0
M  V30 4792 C 464.091 -4.74944 -2.3791 0
M  V30 4793 C 463.13 -5.83963 -1.83451 0
M  V30 4794 N 462.267 -6.39239 -2.90376 0
M  V30 4795 H 467.107 -2.98 -0.00114915 0
M  V30 4796 H 464.644 -1.47096 0.0112006 0
M  V30 4797 H 466.602 -3.37751 -2.44909 0
M  V30 4798 H 465.232 -2.24344 -2.32098 0
M  V30 4799 H 464.284 -3.77737 -0.449288 0
M  V30 4800 H 465.596 -4.92238 -0.806424 0
M  V30 4801 H 464.75 -5.18684 -3.14724 0
M  V30 4802 H 463.489 -3.95682 -2.85109 0
M  V30 4803 H 462.494 -5.39657 -1.05122 0
M  V30 4804 H 463.719 -6.65103 -1.37169 0
M  V30 4805 H 461.665 -5.62864 -3.36927 0
M  V30 4806 H 461.582 -7.13129 -2.50965 0
M  V30 4807 H 462.85 -6.87637 -3.67118 0
M  V30 4808 N 467.08 -0.0183926 -1.57589 0
M  V30 4809 C 468.328 0.661253 -1.90976 0
M  V30 4810 C 468.649 1.73281 -0.894353 0
M  V30 4811 O 467.919 1.9579 0.0656788 0
M  V30 4812 H 466.499 0.247233 -0.704901 0
M  V30 4813 H 469.161 -0.0636639 -1.94796 0
M  V30 4814 H 468.257 1.12083 -2.9128 0
M  V30 4815 N 468.558 1.5553 0.254621 0
M  V30 4816 C 469.804 1.77262 0.985193 0
M  V30 4817 C 470.137 0.582286 1.85265 0
M  V30 4818 O 469.412 -0.419666 1.89919 0
M  V30 4819 C 469.695 3.0881 1.85225 0
M  V30 4820 C 469.548 4.38233 1.0135 0
M  V30 4821 C 470.867 3.3653 2.83612 0
M  V30 4822 H 467.986 0.644906 0.356742 0
M  V30 4823 H 470.628 1.88264 0.256236 0
M  V30 4824 H 468.778 2.99562 2.47376 0
M  V30 4825 H 470.45 4.59463 0.411269 0
M  V30 4826 H 468.693 4.32636 0.317574 0
M  V30 4827 H 469.364 5.26644 1.65379 0
M  V30 4828 H 471.84 3.45691 2.31596 0
M  V30 4829 H 470.716 4.29805 3.41407 0
M  V30 4830 H 470.977 2.57064 3.59681 0
M  V30 4831 N 470.036 -0.519951 1.48776 0
M  V30 4832 C 470.968 -1.63973 1.60142 0
M  V30 4833 C 471.981 -1.55404 0.485117 0
M  V30 4834 O 473.17 -1.61682 0.756391 0
M  V30 4835 C 470.27 -3.02676 1.52449 0
M  V30 4836 C 469.443 -3.36624 2.79291 0
M  V30 4837 C 468.502 -4.54652 2.64912 0
M  V30 4838 O 467.528 -4.57374 3.38818 0
M  V30 4839 N 468.73 -5.53432 1.75195 0
M  V30 4840 H 471.495 -1.54656 2.56713 0
M  V30 4841 H 469.056 -0.707439 1.45626 0
M  V30 4842 H 471.048 -3.79525 1.4051 0
M  V30 4843 H 469.618 -3.06018 0.638125 0
M  V30 4844 H 468.838 -2.48855 3.0572 0
M  V30 4845 H 470.126 -3.56094 3.6342 0
M  V30 4846 H 469.524 -5.54018 1.14371 0
M  V30 4847 H 468.081 -6.29459 1.69189 0
M  V30 4848 N 471.514 -1.37532 -0.769588 0
M  V30 4849 C 472.739 -1.36231 -1.56384 0
M  V30 4850 C 473.164 0.0495849 -1.88035 0
M  V30 4851 O 472.522 1.02723 -1.49391 0
M  V30 4852 C 472.57 -2.20986 -2.84952 0
M  V30 4853 O 471.674 -1.61597 -3.79421 0
M  V30 4854 H 471.015 -0.465387 -0.473615 0
M  V30 4855 H 473.545 -1.81085 -0.952342 0
M  V30 4856 H 473.555 -2.34277 -3.34034 0
M  V30 4857 H 472.23 -3.23612 -2.61243 0
M  V30 4858 H 470.807 -1.57359 -3.38072 0
M  V30 4859 N 472.992 0.995999 -1.22138 0
M  V30 4860 C 474.403 1.54961 -1.04135 0
M  V30 4861 C 474.754 1.92159 0.396147 0
M  V30 4862 O 473.879 1.74435 1.28069 0
M  V30 4863 C 474.474 2.81581 -1.88408 0
M  V30 4864 C 473.033 3.33396 -1.74712 0
M  V30 4865 C 472.18 2.06509 -1.85066 0
M  V30 4866 H 475.131 0.817436 -1.36028 0
M  V30 4867 H 475.152 3.53822 -1.39966 0
M  V30 4868 H 474.664 2.54476 -2.93025 0
M  V30 4869 H 472.765 3.65416 -0.728159 0
M  V30 4870 H 472.878 4.04208 -2.57202 0
M  V30 4871 H 471.242 2.19925 -1.28472 0
M  V30 4872 H 472.025 1.81804 -2.91208 0
M  V30 4873 N 474.47 1.03057 1.19235 0
M  V30 4874 C 475.7 0.746613 1.92638 0
M  V30 4875 C 476.108 -0.698708 1.75826 0
M  V30 4876 O 475.451 -1.487 1.07861 0
M  V30 4877 C 475.513 1.02024 3.44719 0
M  V30 4878 C 475.177 2.45745 3.85303 0
M  V30 4879 C 476.174 3.43887 3.8992 0
M  V30 4880 C 473.859 2.8019 4.16892 0
M  V30 4881 C 475.853 4.74529 4.2556 0
M  V30 4882 C 473.54 4.1104 4.52205 0
M  V30 4883 C 474.538 5.0802 4.56513 0
M  V30 4884 O 474.226 6.36527 4.91008 0
M  V30 4885 H 473.958 0.272401 0.618687 0
M  V30 4886 H 476.512 1.37853 1.52269 0
M  V30 4887 H 474.742 0.331184 3.85279 0
M  V30 4888 H 476.431 0.725677 3.9936 0
M  V30 4889 H 477.197 3.18614 3.65664 0
M  V30 4890 H 473.076 2.05382 4.12722 0
M  V30 4891 H 476.62 5.50222 4.28838 0
M  V30 4892 H 472.517 4.36086 4.7592 0
M  V30 4893 H 473.285 6.41025 5.08949 0
M  V30 4894 N 475.948 -1.35272 0.808662 0
M  V30 4895 C 477.196 -1.98316 0.389233 0
M  V30 4896 C 477.517 -1.64465 -1.04767 0
M  V30 4897 O 476.787 -0.928175 -1.72516 0
M  V30 4898 H 475.367 -0.733585 0.140935 0
M  V30 4899 H 478.029 -1.6515 1.03496 0
M  V30 4900 H 477.125 -3.08123 0.496631 0
M  V30 4901 N 477.426 -0.562348 -1.47226 0
M  V30 4902 C 478.358 0.220011 -2.28142 0
M  V30 4903 C 479.371 0.874596 -1.37312 0
M  V30 4904 O 480.56 0.747583 -1.62091 0
M  V30 4905 C 477.66 1.32953 -3.11732 0
M  V30 4906 C 476.833 0.770759 -4.30556 0
M  V30 4907 C 475.892 1.76541 -4.95701 0
M  V30 4908 O 474.918 1.3095 -5.53932 0
M  V30 4909 N 476.12 3.09896 -4.90861 0
M  V30 4910 H 478.885 -0.474107 -2.95926 0
M  V30 4911 H 476.446 -0.398761 -1.56912 0
M  V30 4912 H 478.438 1.99378 -3.5218 0
M  V30 4913 H 477.008 1.92681 -2.46156 0
M  V30 4914 H 476.228 -0.0704056 -3.94137 0
M  V30 4915 H 477.516 0.376872 -5.07402 0
M  V30 4916 H 476.914 3.49577 -4.44761 0
M  V30 4917 H 475.471 3.71865 -5.35313 0
M  V30 4918 N 478.904 1.54736 -0.299062 0
M  V30 4919 C 479.854 2.20155 0.592932 0
M  V30 4920 C 480.838 1.1739 1.10038 0
M  V30 4921 O 482.03 1.43116 1.04147 0
M  V30 4922 C 479.159 2.94437 1.76527 0
M  V30 4923 C 478.245 4.04516 1.27388 0
M  V30 4924 N 478.636 5.03319 0.500339 0
M  V30 4925 C 476.934 4.18022 1.55478 0
M  V30 4926 C 477.635 5.81209 0.238909 0
M  V30 4927 N 476.611 5.37408 0.818163 0
M  V30 4928 H 480.413 2.93899 -0.00563596 0
M  V30 4929 H 477.927 1.62068 -0.103732 0
M  V30 4930 H 479.924 3.3977 2.41582 0
M  V30 4931 H 478.584 2.22209 2.36756 0
M  V30 4932 H 479.595 5.17696 0.145419 0
M  V30 4933 H 476.272 3.56998 2.16469 0
M  V30 4934 H 477.662 6.70812 -0.382223 0
M  V30 4935 N 480.382 0.0267497 1.57577 0
M  V30 4936 C 481.312 -0.954308 2.13108 0
M  V30 4937 C 482.293 -1.34088 1.04663 0
M  V30 4938 O 483.478 -1.41992 1.32484 0
M  V30 4939 C 480.608 -2.23744 2.65624 0
M  V30 4940 C 479.562 -1.99168 3.78835 0
M  V30 4941 C 478.888 -3.33726 4.17769 0
M  V30 4942 C 480.188 -1.33277 5.0501 0
M  V30 4943 H 481.882 -0.491848 2.95332 0
M  V30 4944 H 479.428 -0.23514 1.42067 0
M  V30 4945 H 481.381 -2.92754 3.03106 0
M  V30 4946 H 480.105 -2.72151 1.80558 0
M  V30 4947 H 478.764 -1.32577 3.41788 0
M  V30 4948 H 478.412 -3.79888 3.29688 0
M  V30 4949 H 478.112 -3.18089 4.94058 0
M  V30 4950 H 479.636 -4.04008 4.57832 0
M  V30 4951 H 481.05 -1.92283 5.40093 0
M  V30 4952 H 479.447 -1.28045 5.8628 0
M  V30 4953 H 480.517 -0.305411 4.83937 0
M  V30 4954 N 481.861 -1.55662 -0.24637 0
M  V30 4955 C 483.107 -1.78698 -0.971525 0
M  V30 4956 C 483.462 -0.59577 -1.82944 0
M  V30 4957 O 482.755 0.41097 -1.87141 0
M  V30 4958 C 482.949 -3.04885 -1.86494 0
M  V30 4959 C 482.778 -4.36165 -1.09501 0
M  V30 4960 C 481.548 -4.98929 -0.799895 0
M  V30 4961 C 483.746 -5.12126 -0.472334 0
M  V30 4962 N 481.728 -6.139 -0.00595299 0
M  V30 4963 C 483.099 -6.1972 0.18616 0
M  V30 4964 C 485.154 -4.96426 -0.382854 0
M  V30 4965 C 483.857 -7.13321 0.925542 0
M  V30 4966 C 485.883 -5.90405 0.342999 0
M  V30 4967 C 485.245 -6.97407 0.990128 0
M  V30 4968 H 481.344 -0.705852 -0.336597 0
M  V30 4969 H 483.928 -1.93157 -0.244615 0
M  V30 4970 H 482.099 -2.91753 -2.56388 0
M  V30 4971 H 483.831 -3.16212 -2.5257 0
M  V30 4972 H 480.586 -4.60365 -1.11181 0
M  V30 4973 H 481.01 -6.75938 0.379127 0
M  V30 4974 H 485.652 -4.13777 -0.868834 0
M  V30 4975 H 483.37 -7.9547 1.42312 0
M  V30 4976 H 486.956 -5.80333 0.412907 0
M  V30 4977 H 485.836 -7.68874 1.54282 0
M  V30 4978 N 483.339 0.512053 -1.4905 0
M  V30 4979 C 484.269 1.62365 -1.67809 0
M  V30 4980 C 485.25 1.61737 -0.526809 0
M  V30 4981 O 486.435 1.78651 -0.761404 0
M  V30 4982 C 483.565 3.00895 -1.73435 0
M  V30 4983 C 482.519 3.16387 -2.88242 0
M  V30 4984 C 481.845 4.56157 -2.78971 0
M  V30 4985 C 483.145 2.97457 -4.29321 0
M  V30 4986 H 484.839 1.46921 -2.60873 0
M  V30 4987 H 482.385 0.705379 -1.2554 0
M  V30 4988 H 484.338 3.78549 -1.85145 0
M  V30 4989 H 483.062 3.17403 -0.769619 0
M  V30 4990 H 481.721 2.41155 -2.76116 0
M  V30 4991 H 481.369 4.69525 -1.8043 0
M  V30 4992 H 481.069 4.67465 -3.5602 0
M  V30 4993 H 482.593 5.35886 -2.92675 0
M  V30 4994 H 484.007 3.64888 -4.42187 0
M  V30 4995 H 482.404 3.20245 -5.07507 0
M  V30 4996 H 483.474 1.93692 -4.44535 0
M  V30 4997 N 484.817 1.37938 0.762283 0
M  V30 4998 C 486.094 1.24196 1.51112 0
M  V30 4999 C 486.474 -0.160409 2.1049 0
M  V30 5000 O 485.822 -1.16904 1.96331 0
M  V30 5001 C 486.032 2.34537 2.58445 0
M  V30 5002 C 487.38 2.7254 3.25588 0
M  V30 5003 O 488.404 2.33783 2.68745 0
M  V30 5004 O 487.263 3.39343 4.28379 0
M  V30 5005 H 484.357 0.485175 0.669727 0
M  V30 5006 H 486.903 1.49743 0.798438 0
M  V30 5007 H 485.675 3.28406 2.12756 0
M  V30 5008 H 485.298 2.10505 3.37303 0
M  V30 5009 N 486.295 -0.989507 1.22664 0
M  V30 5010 C 487.544 -1.72375 1.04737 0
M  V30 5011 C 487.857 -1.91096 -0.417316 0
M  V30 5012 O 489.063 -2.6188 -0.716334 0
M  V30 5013 C 487.519 -3.10161 1.82561 0
M  V30 5014 C 487.127 -2.99358 3.333 0
M  V30 5015 C 488.871 -3.87607 1.73093 0
M  V30 5016 C 486.778 -4.32319 4.03552 0
M  V30 5017 H 485.708 -0.646326 0.388302 0
M  V30 5018 H 488.359 -1.10437 1.46546 0
M  V30 5019 H 486.741 -3.728 1.33552 0
M  V30 5020 H 487.915 -2.45863 3.89728 0
M  V30 5021 H 486.23 -2.35392 3.43481 0
M  V30 5022 H 488.827 -4.86025 2.22899 0
M  V30 5023 H 489.17 -4.10509 0.691976 0
M  V30 5024 H 489.703 -3.31652 2.19663 0
M  V30 5025 H 486.442 -4.14616 5.07714 0
M  V30 5026 H 485.962 -4.85714 3.51911 0
M  V30 5027 H 487.641 -5.01051 4.09337 0
M  V30 5028 N 487.773 -1.03688 -1.18687 0
M  V30 5029 C 488.998 -0.757819 -1.93059 0
M  V30 5030 C 489.423 0.678353 -1.75442 0
M  V30 5031 O 488.781 1.46938 -1.06203 0
M  V30 5032 C 488.829 -1.12423 -3.42627 0
M  V30 5033 O 487.933 -0.247505 -4.11657 0
M  V30 5034 H 487.274 -0.279245 -0.602427 0
M  V30 5035 H 489.804 -1.3857 -1.5053 0
M  V30 5036 H 489.814 -1.08454 -3.93322 0
M  V30 5037 H 488.489 -2.17049 -3.54771 0
M  V30 5038 H 487.066 -0.34649 -3.71287 0
M  V30 5039 N 489.251 1.34841 -0.815825 0
M  V30 5040 C 490.5 1.97755 -0.396976 0
M  V30 5041 C 490.813 1.65422 1.04379 0
M  V30 5042 O 492.019 2.21771 1.5662 0
M  V30 5043 C 490.475 3.53818 -0.658869 0
M  V30 5044 C 490.083 3.95051 -2.11278 0
M  V30 5045 C 491.827 4.23397 -0.305834 0
M  V30 5046 C 489.734 5.43997 -2.31994 0
M  V30 5047 H 488.664 0.739985 -0.1447 0
M  V30 5048 H 491.315 1.53781 -1.00118 0
M  V30 5049 H 489.697 3.95997 0.0154112 0
M  V30 5050 H 490.871 3.63998 -2.82564 0
M  V30 5051 H 489.186 3.38388 -2.42657 0
M  V30 5052 H 491.783 5.32899 -0.43854 0
M  V30 5053 H 492.126 4.09508 0.748952 0
M  V30 5054 H 492.659 3.8667 -0.934403 0
M  V30 5055 H 489.398 5.62865 -3.35952 0
M  V30 5056 H 488.918 5.76589 -1.65244 0
M  V30 5057 H 490.597 6.10584 -2.14001 0
M  V30 5058 N 490.729 0.570148 1.46925 0
M  V30 5059 C 491.659 -0.158274 2.32963 0
M  V30 5060 C 492.64 -0.896093 1.44583 0
M  V30 5061 O 493.825 -0.874022 1.7342 0
M  V30 5062 C 490.955 -1.18055 3.26619 0
M  V30 5063 C 489.909 -0.558379 4.24342 0
M  V30 5064 C 489.235 -1.68623 5.07415 0
M  V30 5065 C 490.535 0.496295 5.19937 0
M  V30 5066 H 492.229 0.560046 2.94115 0
M  V30 5067 H 489.775 0.270775 1.41431 0
M  V30 5068 H 491.728 -1.69841 3.85658 0
M  V30 5069 H 490.452 -1.92899 2.63548 0
M  V30 5070 H 489.111 -0.0617157 3.66548 0
M  V30 5071 H 488.759 -2.42402 4.40738 0
M  V30 5072 H 488.459 -1.27564 5.73586 0
M  V30 5073 H 489.983 -2.20709 5.69315 0
M  V30 5074 H 491.397 0.0640052 5.73264 0
M  V30 5075 H 489.794 0.82649 5.94381 0
M  V30 5076 H 490.864 1.38735 4.6463 0
M  V30 5077 N 492.207 -1.54576 0.307264 0
M  V30 5078 C 493.455 -1.99867 -0.299574 0
M  V30 5079 C 493.776 -1.19714 -1.53927 0
M  V30 5080 O 493.046 -0.29472 -1.9367 0
M  V30 5081 H 491.626 -0.738299 -0.113683 0
M  V30 5082 H 494.288 -1.9032 0.420042 0
M  V30 5083 H 493.384 -3.06901 -0.567283 0
M  V30 5084 N 493.685 -0.035106 -1.57561 0
M  V30 5085 C 495.101 0.321334 -1.56332 0
M  V30 5086 C 495.301 1.72509 -1.04129 0
M  V30 5087 O 494.357 2.4287 -0.690694 0
M  V30 5088 C 495.67 0.164469 -3.0025 0
M  V30 5089 C 497.218 0.236786 -3.12103 0
M  V30 5090 C 497.693 0.10864 -4.57871 0
M  V30 5091 N 499.184 0.165433 -4.62904 0
M  V30 5092 C 499.919 0.0901506 -5.73329 0
M  V30 5093 N 499.415 -0.0365606 -6.9279 0
M  V30 5094 N 501.208 0.144572 -5.61914 0
M  V30 5095 H 493.359 -0.952976 -1.89821 0
M  V30 5096 H 495.622 -0.368537 -0.873432 0
M  V30 5097 H 495.328 -0.802746 -3.42416 0
M  V30 5098 H 495.202 0.932194 -3.655 0
M  V30 5099 H 497.589 1.19446 -2.69845 0
M  V30 5100 H 497.67 -0.561419 -2.49563 0
M  V30 5101 H 497.314 -0.845644 -5.00811 0
M  V30 5102 H 497.244 0.925786 -5.18398 0
M  V30 5103 H 499.735 0.263269 -3.76982 0
M  V30 5104 H 500.048 -0.0871487 -7.72751 0
M  V30 5105 H 498.393 -0.0714256 -6.94963 0
M  V30 5106 H 501.584 0.242006 -4.67474 0
M  V30 5107 H 501.757 0.0824413 -6.47948 0
M  V30 5108 N 495.163 1.55791 0.238111 0
M  V30 5109 C 496.11 1.9105 1.29493 0
M  V30 5110 C 497.08 0.765733 1.47397 0
M  V30 5111 O 498.265 1.02017 1.61236 0
M  V30 5112 C 495.405 2.21826 2.64362 0
M  V30 5113 C 494.518 3.49153 2.54394 0
M  V30 5114 C 493.653 3.69455 3.81676 0
M  V30 5115 C 492.692 4.90353 3.66361 0
M  V30 5116 N 491.829 5.07131 4.85554 0
M  V30 5117 H 496.669 2.81172 0.987233 0
M  V30 5118 H 494.206 1.39179 0.476203 0
M  V30 5119 H 496.164 2.37675 3.4288 0
M  V30 5120 H 494.794 1.34897 2.93262 0
M  V30 5121 H 493.846 3.41587 1.67399 0
M  V30 5122 H 495.158 4.37818 2.38991 0
M  V30 5123 H 494.312 3.85311 4.68636 0
M  V30 5124 H 493.051 2.7904 3.99985 0
M  V30 5125 H 492.056 4.74464 2.77784 0
M  V30 5126 H 493.281 5.82237 3.49538 0
M  V30 5127 H 491.227 4.19654 5.04209 0
M  V30 5128 H 491.144 5.89899 4.72816 0
M  V30 5129 H 492.412 5.27407 5.73988 0
M  V30 5130 N 496.642 -0.504142 1.49319 0
M  V30 5131 C 497.592 -1.60284 1.62151 0
M  V30 5132 C 498.576 -1.53657 0.477315 0
M  V30 5133 O 499.768 -1.6124 0.730108 0
M  V30 5134 C 496.897 -2.98909 1.68844 0
M  V30 5135 C 495.983 -3.10544 2.8883 0
M  V30 5136 N 496.374 -2.92078 4.12946 0
M  V30 5137 C 494.672 -3.4164 2.86702 0
M  V30 5138 C 495.373 -3.07812 4.93585 0
M  V30 5139 N 494.349 -3.36549 4.26891 0
M  V30 5140 H 498.151 -1.44656 2.55835 0
M  V30 5141 H 495.665 -0.710198 1.46048 0
M  V30 5142 H 497.662 -3.77865 1.76134 0
M  V30 5143 H 496.322 -3.15609 0.762943 0
M  V30 5144 H 497.333 -2.68316 4.42975 0
M  V30 5145 H 494.01 -3.64537 2.03517 0
M  V30 5146 H 495.4 -2.98054 6.02174 0
M  V30 5147 N 498.12 -1.38341 -0.754957 0
M  V30 5148 C 499.369 -1.33791 -1.5094 0
M  V30 5149 C 499.682 0.0699267 -1.95475 0
M  V30 5150 O 500.888 0.237956 -2.70455 0
M  V30 5151 C 499.344 -2.34934 -2.72643 0
M  V30 5152 C 498.952 -3.81332 -2.35138 0
M  V30 5153 C 500.696 -2.39425 -3.50536 0
M  V30 5154 C 498.603 -4.74164 -3.53444 0
M  V30 5155 H 497.533 -0.497314 -0.566741 0
M  V30 5156 H 500.184 -1.63888 -0.825403 0
M  V30 5157 H 498.566 -1.97878 -3.43017 0
M  V30 5158 H 499.74 -4.27319 -1.7244 0
M  V30 5159 H 498.055 -3.79946 -1.70382 0
M  V30 5160 H 500.652 -3.0598 -4.38498 0
M  V30 5161 H 500.995 -1.41278 -3.91594 0
M  V30 5162 H 501.528 -2.75274 -2.87174 0
M  V30 5163 H 498.267 -5.73501 -3.17453 0
M  V30 5164 H 497.787 -4.3287 -4.15191 0
M  V30 5165 H 499.466 -4.92111 -4.20043 0
M  V30 5166 N 499.598 0.982988 -1.23187 0
M  V30 5167 C 500.508 2.10907 -1.02739 0
M  V30 5168 C 501.524 1.73979 0.0273188 0
M  V30 5169 O 502.7 2.00702 -0.16757 0
M  V30 5170 C 499.765 3.41142 -0.618304 0
M  V30 5171 C 498.826 3.92112 -1.74777 0
M  V30 5172 C 498.059 5.16131 -1.3581 0
M  V30 5173 O 498.282 5.6989 -0.241201 0
M  V30 5174 O 497.216 5.61103 -2.17824 0
M  V30 5175 H 501.042 2.31046 -1.97108 0
M  V30 5176 H 498.627 1.09284 -1.01869 0
M  V30 5177 H 500.509 4.19488 -0.400982 0
M  V30 5178 H 499.184 3.2234 0.296421 0
M  V30 5179 H 498.091 3.14895 -2.0197 0
M  V30 5180 H 499.424 4.15364 -2.64071 0
M  V30 5181 N 501.076 1.04316 1.18135 0
M  V30 5182 C 502.304 0.768117 1.92113 0
M  V30 5183 C 502.719 -0.675057 1.76319 0
M  V30 5184 O 502.076 -1.46038 1.09449 0
M  V30 5185 C 502.127 1.12808 3.43448 0
M  V30 5186 O 501.848 2.5146 3.58747 0
M  V30 5187 C 503.349 0.8779 4.3452 0
M  V30 5188 H 500.569 0.279937 0.609817 0
M  V30 5189 H 503.113 1.39149 1.49859 0
M  V30 5190 H 501.268 0.549623 3.83481 0
M  V30 5191 H 501.682 2.65313 4.52448 0
M  V30 5192 H 503.156 1.17959 5.39249 0
M  V30 5193 H 503.633 -0.187239 4.38801 0
M  V30 5194 H 504.239 1.43977 4.00188 0
M  V30 5195 N 502.554 -1.34406 0.822964 0
M  V30 5196 C 503.502 -2.31428 0.233165 0
M  V30 5197 C 504.496 -1.57404 -0.626118 0
M  V30 5198 O 505.702 -1.72402 -0.517453 0
M  V30 5199 H 502.077 -0.749863 0.0566557 0
M  V30 5200 H 504.048 -2.78699 1.06628 0
M  V30 5201 C 502.797 -3.42653 -0.590264 0
M  V30 5202 H 502.12 -3.99753 0.0616129 0
M  V30 5203 H 503.56 -4.12778 -0.969054 0
M  V30 5204 C 502.019 -2.87112 -1.76262 0
M  V30 5205 O 502.549 -2.81995 -2.8608 0
M  V30 5206 N 500.755 -2.43934 -1.57938 0
M  V30 5207 H 500.302 -2.48296 -0.686078 0
M  V30 5208 H 500.26 -2.07123 -2.36532 0
M  V30 5209 N 504.032 -0.577932 -1.46621 0
M  V30 5210 C 504.962 0.145917 -2.33044 0
M  V30 5211 C 505.943 0.888412 -1.45056 0
M  V30 5212 O 507.128 0.864812 -1.73881 0
M  V30 5213 C 504.258 1.16322 -3.27241 0
M  V30 5214 C 503.212 0.535868 -4.24632 0
M  V30 5215 C 502.538 1.65929 -5.08303 0
M  V30 5216 C 503.838 -0.523861 -5.19666 0
M  V30 5217 H 505.532 -0.575636 -2.93814 0
M  V30 5218 H 503.078 -0.278272 -1.41286 0
M  V30 5219 H 505.031 1.67793 -3.86553 0
M  V30 5220 H 503.755 1.91498 -2.64567 0
M  V30 5221 H 502.414 0.0422759 -3.66576 0
M  V30 5222 H 502.062 2.40061 -4.42018 0
M  V30 5223 H 501.762 1.2452 -5.74255 0
M  V30 5224 H 503.286 2.17686 -5.70478 0
M  V30 5225 H 504.7 -0.0944059 -5.73222 0
M  V30 5226 H 503.097 -0.858 -5.93935 0
M  V30 5227 H 504.167 -1.41197 -4.63887 0
M  V30 5228 N 505.51 1.54411 -0.315457 0
M  V30 5229 C 506.926 1.59556 0.037464 0
M  V30 5230 C 507.126 1.33217 1.5118 0
M  V30 5231 O 506.182 1.11264 2.26664 0
M  V30 5232 C 507.495 2.98372 -0.373477 0
M  V30 5233 C 509.043 3.11324 -0.323452 0
M  V30 5234 C 509.518 4.52472 -0.709433 0
M  V30 5235 N 511.009 4.58437 -0.662524 0
M  V30 5236 C 511.744 5.65751 -0.933474 0
M  V30 5237 N 511.24 6.81039 -1.27114 0
M  V30 5238 N 513.033 5.55489 -0.859573 0
M  V30 5239 H 505.184 1.6979 -1.27614 0
M  V30 5240 H 507.447 0.793732 -0.518356 0
M  V30 5241 H 507.153 3.22618 -1.40037 0
M  V30 5242 H 507.027 3.76264 0.265615 0
M  V30 5243 H 509.414 2.86818 0.694223 0
M  V30 5244 H 509.495 2.35555 -0.997367 0
M  V30 5245 H 509.139 4.7771 -1.72498 0
M  V30 5246 H 509.069 5.26598 -0.0132923 0
M  V30 5247 H 511.56 3.75636 -0.413065 0
M  V30 5248 H 511.873 7.58816 -1.46348 0
M  V30 5249 H 510.218 6.82555 -1.30932 0
M  V30 5250 H 513.409 4.64299 -0.595324 0
M  V30 5251 H 513.582 6.39036 -1.0741 0
M  V30 5252 N 506.988 0.0434614 1.5754 0
M  V30 5253 C 508.265 -0.671479 1.83713 0
M  V30 5254 C 508.645 -1.89495 0.930315 0
M  V30 5255 O 507.993 -2.28498 -0.0105639 0
M  V30 5256 C 508.203 -1.0361 3.33266 0
M  V30 5257 C 509.551 -1.42167 4.00092 0
M  V30 5258 O 510.575 -1.12866 3.37846 0
M  V30 5259 O 509.434 -1.96817 5.09829 0
M  V30 5260 H 506.528 -0.330726 0.75799 0
M  V30 5261 H 509.074 0.0722373 1.69546 0
M  V30 5262 H 507.846 -0.165938 3.90948 0
M  V30 5263 H 507.469 -1.83751 3.52592 0
M  V30 5264 N 508.466 -1.55915 -0.229846 0
M  V30 5265 C 509.712 -1.78807 -0.956868 0
M  V30 5266 C 510.045 -0.611687 -1.84315 0
M  V30 5267 O 509.32 0.389398 -1.90562 0
M  V30 5268 C 509.603 -3.11718 -1.80288 0
M  V30 5269 C 509.456 -4.3979 -0.943649 0
M  V30 5270 C 510.775 -3.40999 -2.78222 0
M  V30 5271 H 507.894 -0.6505 -0.346437 0
M  V30 5272 H 510.536 -1.88648 -0.226252 0
M  V30 5273 H 508.686 -3.03459 -2.42579 0
M  V30 5274 H 510.358 -4.60059 -0.338121 0
M  V30 5275 H 508.601 -4.33086 -0.248705 0
M  V30 5276 H 509.272 -5.29208 -1.5698 0
M  V30 5277 H 511.748 -3.49332 -2.26067 0
M  V30 5278 H 510.624 -4.35183 -3.34526 0
M  V30 5279 H 510.885 -2.62754 -3.55546 0
M  V30 5280 N 509.944 0.496216 -1.49584 0
M  V30 5281 C 510.876 1.61404 -1.62731 0
M  V30 5282 C 511.889 1.54613 -0.50978 0
M  V30 5283 O 513.078 1.60458 -0.782017 0
M  V30 5284 C 510.178 3.00212 -1.57245 0
M  V30 5285 C 509.351 3.32138 -2.84611 0
M  V30 5286 C 508.41 4.5038 -2.72112 0
M  V30 5287 O 507.436 4.51926 -3.46051 0
M  V30 5288 N 508.638 5.50575 -1.83977 0
M  V30 5289 H 511.403 1.50552 -2.59141 0
M  V30 5290 H 508.964 0.684182 -1.46733 0
M  V30 5291 H 510.956 3.77241 -1.4653 0
M  V30 5292 H 509.526 3.04964 -0.686729 0
M  V30 5293 H 508.746 2.4396 -3.09641 0
M  V30 5294 H 510.034 3.50268 -3.69039 0
M  V30 5295 H 509.432 5.52128 -1.23171 0
M  V30 5296 H 507.989 6.26687 -1.79182 0
M  V30 5297 N 511.423 1.38739 0.74761 0
M  V30 5298 C 512.333 1.38696 1.89211 0
M  V30 5299 C 513.349 0.283303 1.71678 0
M  V30 5300 O 514.525 0.522713 1.94498 0
M  V30 5301 C 511.59 1.21662 3.24653 0
M  V30 5302 C 510.651 2.41886 3.54669 0
M  V30 5303 C 509.884 2.25655 4.83648 0
M  V30 5304 O 510.107 1.25339 5.56459 0
M  V30 5305 O 509.041 3.14372 5.13277 0
M  V30 5306 H 512.867 2.35143 1.92202 0
M  V30 5307 H 510.452 1.19721 0.893708 0
M  V30 5308 H 512.334 1.14246 4.05618 0
M  V30 5309 H 511.009 0.283024 3.2246 0
M  V30 5310 H 509.916 2.54877 2.73841 0
M  V30 5311 H 511.249 3.33895 3.61628 0
M  V30 5312 N 512.901 -0.976442 1.23707 0
M  V30 5313 C 514.15 -1.71254 1.06559 0
M  V30 5314 C 514.463 -1.91528 -0.397024 0
M  V30 5315 O 515.669 -2.62625 -0.688518 0
M  V30 5316 C 514.125 -3.08207 1.8584 0
M  V30 5317 C 513.733 -2.95806 3.36456 0
M  V30 5318 C 515.477 -3.85749 1.77194 0
M  V30 5319 C 513.384 -4.28015 4.08114 0
M  V30 5320 H 512.314 -0.642171 0.395136 0
M  V30 5321 H 514.965 -1.08877 1.4771 0
M  V30 5322 H 513.347 -3.71363 1.37498 0
M  V30 5323 H 514.521 -2.41716 3.92314 0
M  V30 5324 H 512.836 -2.31736 3.45959 0
M  V30 5325 H 515.433 -4.83633 2.28041 0
M  V30 5326 H 515.776 -4.09752 0.735477 0
M  V30 5327 H 516.309 -3.29303 2.23169 0
M  V30 5328 H 513.048 -4.09208 5.12083 0
M  V30 5329 H 512.568 -4.81955 3.57043 0
M  V30 5330 H 514.247 -4.96681 4.14629 0
M  V30 5331 N 514.379 -1.04941 -1.1758 0
M  V30 5332 C 515.619 -0.766996 -1.89464 0
M  V30 5333 C 515.983 0.693123 -1.79053 0
M  V30 5334 O 517.184 1.08953 -2.45729 0
M  V30 5335 C 515.455 -1.23108 -3.35528 0
M  V30 5336 S 517.014 -1.07565 -4.25412 0
M  V30 5337 H 513.832 -0.278616 -0.654136 0
M  V30 5338 H 516.434 -1.34352 -1.4202 0
M  V30 5339 H 515.138 -2.28896 -3.40639 0
M  V30 5340 H 514.669 -0.648724 -3.88014 0
M  V30 5341 H 516.684 0.00169467 -4.962 0
M  V30 5342 N 515.857 1.33968 -0.830081 0
M  V30 5343 C 516.767 2.33164 -0.259207 0
M  V30 5344 C 517.783 1.62951 0.610164 0
M  V30 5345 O 518.959 1.94668 0.516369 0
M  V30 5346 C 516.024 3.42088 0.563598 0
M  V30 5347 C 515.085 4.28037 -0.329014 0
M  V30 5348 C 514.318 5.3176 0.454616 0
M  V30 5349 O 514.541 5.44876 1.6872 0
M  V30 5350 O 513.475 6.01669 -0.166794 0
M  V30 5351 H 517.301 2.83832 -1.08041 0
M  V30 5352 H 514.886 1.37154 -0.59239 0
M  V30 5353 H 516.768 4.08581 1.03147 0
M  V30 5354 H 515.443 2.93651 1.36201 0
M  V30 5355 H 514.35 3.64443 -0.844538 0
M  V30 5356 H 515.683 4.79934 -1.09196 0
M  V30 5357 N 517.335 0.585699 1.46312 0
M  V30 5358 C 518.565 0.0780166 2.06453 0
M  V30 5359 C 518.973 -1.2336 1.43454 0
M  V30 5360 O 518.316 -1.75734 0.535086 0
M  V30 5361 C 518.378 -0.158951 3.59148 0
M  V30 5362 C 518.042 1.06752 4.44357 0
M  V30 5363 C 519.039 1.98031 4.80708 0
M  V30 5364 C 516.724 1.2902 4.85447 0
M  V30 5365 C 518.718 3.09924 5.5698 0
M  V30 5366 C 516.405 2.41218 5.61478 0
M  V30 5367 C 517.403 3.31499 5.97158 0
M  V30 5368 O 517.091 4.41747 6.71651 0
M  V30 5369 H 516.823 0.0558894 0.673686 0
M  V30 5370 H 519.377 0.806994 1.88883 0
M  V30 5371 H 517.607 -0.942575 3.75037 0
M  V30 5372 H 519.296 -0.615513 4.01206 0
M  V30 5373 H 520.062 1.82043 4.49539 0
M  V30 5374 H 515.941 0.596567 4.57124 0
M  V30 5375 H 519.485 3.80415 5.84748 0
M  V30 5376 H 515.382 2.57167 5.9206 0
M  V30 5377 H 516.15 4.40152 6.90079 0
M  V30 5378 N 518.813 -1.54241 0.323641 0
M  V30 5379 C 520.06 -2.0057 -0.27891 0
M  V30 5380 C 520.388 -1.21181 -1.52136 0
M  V30 5381 O 519.643 -0.282043 -1.93657 0
M  V30 5382 C 519.942 -3.5129 -0.658031 0
M  V30 5383 C 519.608 -4.48281 0.485252 0
M  V30 5384 C 518.27 -4.74519 0.799055 0
M  V30 5385 C 520.622 -5.05909 1.25322 0
M  V30 5386 C 517.95 -5.55643 1.88354 0
M  V30 5387 C 520.302 -5.88215 2.32779 0
M  V30 5388 C 518.966 -6.12755 2.64741 0
M  V30 5389 H 518.236 -0.733938 -0.10206 0
M  V30 5390 H 520.883 -1.862 0.447435 0
M  V30 5391 H 519.188 -3.63388 -1.4648 0
M  V30 5392 H 520.885 -3.84578 -1.1358 0
M  V30 5393 H 517.475 -4.27979 0.230593 0
M  V30 5394 H 521.659 -4.8562 1.02404 0
M  V30 5395 H 516.915 -5.72888 2.13564 0
M  V30 5396 H 521.089 -6.31888 2.92729 0
M  V30 5397 H 518.716 -6.75404 3.48904 0
M  V30 5398 N 520.291 -0.0518155 -1.57515 0
M  V30 5399 C 521.254 0.907547 -2.10467 0
M  V30 5400 C 522.254 1.23947 -1.02439 0
M  V30 5401 O 523.444 1.17604 -1.2851 0
M  V30 5402 C 520.576 2.21723 -2.58944 0
M  V30 5403 H 521.769 0.44851 -2.96527 0
M  V30 5404 H 519.322 0.196598 -1.55059 0
M  V30 5405 H 520.057 2.72206 -1.76279 0
M  V30 5406 H 519.842 1.98935 -3.37886 0
M  V30 5407 H 521.332 2.90441 -3.00056 0
M  V30 5408 N 521.769 1.56035 0.221574 0
M  V30 5409 C 523.017 1.78693 0.944102 0
M  V30 5410 C 523.338 0.620317 1.8487 0
M  V30 5411 O 522.608 -0.362784 1.92512 0
M  V30 5412 H 521.188 0.659082 0.351597 0
M  V30 5413 H 523.85 1.93497 0.233435 0
M  V30 5414 H 522.946 2.70837 1.55093 0
M  V30 5415 N 523.247 -0.488276 1.49845 0
M  V30 5416 C 524.496 -1.23826 1.59217 0
M  V30 5417 C 524.809 -1.93439 0.289966 0
M  V30 5418 O 526.015 -2.70229 0.262382 0
M  V30 5419 C 524.471 -2.24902 2.80976 0
M  V30 5420 C 524.079 -1.6117 4.18005 0
M  V30 5421 C 525.823 -3.00648 2.99685 0
M  V30 5422 C 523.73 -2.60431 5.3097 0
M  V30 5423 H 522.66 -0.465858 0.592868 0
M  V30 5424 H 525.311 -0.510645 1.76252 0
M  V30 5425 H 523.693 -3.0088 2.57463 0
M  V30 5426 H 524.867 -0.910968 4.51706 0
M  V30 5427 H 523.182 -0.97767 4.0476 0
M  V30 5428 H 525.779 -3.74903 3.81251 0
M  V30 5429 H 526.122 -3.5902 2.10738 0
M  V30 5430 H 526.655 -2.31784 3.23297 0
M  V30 5431 H 523.394 -2.06823 6.22017 0
M  V30 5432 H 522.914 -3.28707 5.01709 0
M  V30 5433 H 524.593 -3.22606 5.60834 0
M  V30 5434 N 524.725 -1.39134 -0.740242 0
M  V30 5435 C 526.002 -1.26584 -1.49117 0
M  V30 5436 C 526.382 0.126902 -2.10718 0
M  V30 5437 O 525.73 1.13765 -1.98166 0
M  V30 5438 C 525.94 -2.38619 -2.54681 0
M  V30 5439 C 527.288 -2.77685 -3.21211 0
M  V30 5440 O 528.312 -2.38029 -2.64991 0
M  V30 5441 O 527.171 -3.46115 -4.22926 0
M  V30 5442 H 524.265 -0.495769 -0.661923 0
M  V30 5443 H 526.811 -1.50995 -0.774514 0
M  V30 5444 H 525.583 -3.3175 -2.07504 0
M  V30 5445 H 525.206 -2.15845 -3.33911 0
M  V30 5446 N 526.204 0.969867 -1.24223 0
M  V30 5447 C 527.615 1.52717 -1.07399 0
M  V30 5448 C 527.966 1.92956 0.355298 0
M  V30 5449 O 527.091 1.77112 1.2434 0
M  V30 5450 C 527.686 2.77521 -1.94339 0
M  V30 5451 C 526.245 3.29615 -1.81744 0
M  V30 5452 C 525.392 2.02537 -1.89405 0
M  V30 5453 H 528.343 0.788399 -1.37732 0
M  V30 5454 H 528.364 3.50773 -1.47439 0
M  V30 5455 H 527.876 2.48203 -2.98357 0
M  V30 5456 H 525.977 3.63789 -0.805505 0
M  V30 5457 H 526.09 3.98661 -2.65718 0
M  V30 5458 H 524.454 2.17151 -1.33108 0
M  V30 5459 H 525.237 1.75587 -2.94999 0
M  V30 5460 N 527.682 1.05563 1.17022 0
M  V30 5461 C 528.645 0.664098 2.19368 0
M  V30 5462 C 529.645 -0.286358 1.5823 0
M  V30 5463 O 530.835 -0.069728 1.7406 0
M  V30 5464 C 527.967 -0.0239932 3.40892 0
M  V30 5465 H 529.16 1.57 2.55521 0
M  V30 5466 H 526.713 0.849964 1.31169 0
M  V30 5467 H 527.448 -0.942988 3.10287 0
M  V30 5468 H 527.233 0.659351 3.86516 0
M  V30 5469 H 528.723 -0.283909 4.16634 0
M  V30 5470 N 529.16 -1.33526 0.837174 0
M  V30 5471 C 530.07 -2.33023 0.271568 0
M  V30 5472 C 531.086 -1.63272 -0.601514 0
M  V30 5473 O 532.262 -1.94939 -0.506038 0
M  V30 5474 C 529.327 -3.42382 -0.545448 0
M  V30 5475 C 528.388 -4.27857 0.351709 0
M  V30 5476 C 527.621 -5.31994 -0.426409 0
M  V30 5477 O 527.844 -5.45763 -1.65828 0
M  V30 5478 O 526.778 -6.01572 0.1987 0
M  V30 5479 H 530.604 -2.83256 1.09545 0
M  V30 5480 H 528.189 -1.36837 0.599655 0
M  V30 5481 H 530.071 -4.09122 -1.00979 0
M  V30 5482 H 528.746 -2.94369 -1.34641 0
M  V30 5483 H 527.653 -3.6399 0.863853 0
M  V30 5484 H 528.986 -4.79349 1.1174 0
M  V30 5485 N 530.638 -0.59345 -1.46 0
M  V30 5486 C 531.585 0.133618 -2.30413 0
M  V30 5487 C 532.555 0.873736 -1.41262 0
M  V30 5488 O 533.74 0.862279 -1.70204 0
M  V30 5489 C 530.88 1.13434 -3.25924 0
M  V30 5490 C 529.993 0.39656 -4.30176 0
M  V30 5491 C 529.128 1.38575 -5.12806 0
M  V30 5492 C 528.167 0.634984 -6.08797 0
M  V30 5493 N 527.304 1.57276 -6.84258 0
M  V30 5494 H 532.144 -0.592252 -2.92055 0
M  V30 5495 H 529.681 -0.303874 -1.43927 0
M  V30 5496 H 531.639 1.72752 -3.79753 0
M  V30 5497 H 530.269 1.82779 -2.66067 0
M  V30 5498 H 529.321 -0.311861 -3.79119 0
M  V30 5499 H 530.633 -0.189869 -4.98438 0
M  V30 5500 H 529.787 2.05141 -5.70966 0
M  V30 5501 H 528.526 2.00611 -4.44529 0
M  V30 5502 H 527.531 -0.0443925 -5.49782 0
M  V30 5503 H 528.756 0.0198678 -6.79097 0
M  V30 5504 H 526.702 2.18103 -6.18682 0
M  V30 5505 H 526.619 1.03941 -7.48821 0
M  V30 5506 H 527.887 2.22844 -7.46968 0
M  V30 5507 N 532.116 1.54067 -0.331816 0
M  V30 5508 C 533.362 2.01713 0.261395 0
M  V30 5509 C 533.717 1.21566 1.49129 0
M  V30 5510 O 533.01 0.291867 1.89364 0
M  V30 5511 C 533.204 3.51634 0.639392 0
M  V30 5512 C 533.033 4.46295 -0.552321 0
M  V30 5513 C 531.803 4.94185 -1.05399 0
M  V30 5514 C 534.001 4.94677 -1.40711 0
M  V30 5515 N 531.983 5.7277 -2.20925 0
M  V30 5516 C 533.354 5.71267 -2.40943 0
M  V30 5517 C 535.409 4.76805 -1.43392 0
M  V30 5518 C 534.112 6.31889 -3.4367 0
M  V30 5519 C 536.138 5.38268 -2.44994 0
M  V30 5520 C 535.5 6.14716 -3.43952 0
M  V30 5521 H 531.599 0.77975 0.0592729 0
M  V30 5522 H 534.183 1.88974 -0.468726 0
M  V30 5523 H 532.354 3.64603 1.33863 0
M  V30 5524 H 534.086 3.86038 1.21478 0
M  V30 5525 H 530.841 4.69472 -0.623952 0
M  V30 5526 H 531.265 6.16737 -2.79222 0
M  V30 5527 H 535.907 4.17255 -0.682489 0
M  V30 5528 H 533.625 6.90554 -4.19715 0
M  V30 5529 H 537.211 5.26352 -2.4788 0
M  V30 5530 H 536.091 6.6143 -4.21283 0
M  V30 5531 N 533.594 0.0601682 1.57485 0
M  V30 5532 C 534.557 -0.896373 2.10945 0
M  V30 5533 C 535.557 -1.23402 1.03095 0
M  V30 5534 O 536.747 -1.16921 1.29132 0
M  V30 5535 C 533.879 -2.20346 2.60116 0
M  V30 5536 H 535.072 -0.432778 2.96761 0
M  V30 5537 H 532.625 -0.188372 1.55161 0
M  V30 5538 H 533.36 -2.71268 1.7772 0
M  V30 5539 H 533.145 -1.9714 3.38937 0
M  V30 5540 H 534.635 -2.88846 3.01592 0
M  V30 5541 N 535.072 -1.5615 -0.213296 0
M  V30 5542 C 536.483 -1.69645 -0.779582 0
M  V30 5543 C 536.834 -0.663615 -1.84636 0
M  V30 5544 O 535.959 0.183633 -2.15619 0
M  V30 5545 C 536.554 -3.07567 -1.42084 0
M  V30 5546 C 535.113 -3.22889 -1.93442 0
M  V30 5547 C 534.26 -2.65581 -0.797612 0
M  V30 5548 H 537.211 -1.58696 0.0114951 0
M  V30 5549 H 537.232 -3.03884 -2.28986 0
M  V30 5550 H 536.744 -3.82716 -0.644187 0
M  V30 5551 H 534.845 -2.52623 -2.73884 0
M  V30 5552 H 534.958 -4.30197 -2.10872 0
M  V30 5553 H 533.322 -2.24278 -1.20712 0
M  V30 5554 H 534.105 -3.43284 -0.033494 0
M  V30 5555 N 536.55 0.480323 -1.50102 0
M  V30 5556 C 537.796 1.23489 -1.60867 0
M  V30 5557 C 538.129 1.91809 -0.303827 0
M  V30 5558 O 537.404 1.81694 0.694092 0
M  V30 5559 C 537.687 2.28578 -2.78252 0
M  V30 5560 C 537.54 1.64624 -4.18592 0
M  V30 5561 C 538.859 3.2997 -2.91218 0
M  V30 5562 H 535.978 0.447605 -0.585507 0
M  V30 5563 H 538.62 0.530005 -1.82458 0
M  V30 5564 H 536.77 2.88697 -2.59974 0
M  V30 5565 H 538.442 1.08173 -4.48438 0
M  V30 5566 H 536.685 0.949645 -4.23278 0
M  V30 5567 H 537.356 2.40946 -4.96638 0
M  V30 5568 H 539.832 2.79864 -3.07921 0
M  V30 5569 H 538.708 4.00839 -3.74993 0
M  V30 5570 H 538.969 3.93541 -2.0144 0
M  V30 5571 N 538.028 1.39524 0.732853 0
M  V30 5572 C 538.958 1.41153 1.86005 0
M  V30 5573 C 539.939 0.274614 1.67869 0
M  V30 5574 O 541.124 0.480745 1.88155 0
M  V30 5575 C 538.254 1.25638 3.23778 0
M  V30 5576 C 537.208 2.36752 3.56556 0
M  V30 5577 C 536.534 2.06326 4.93289 0
M  V30 5578 C 537.834 3.79069 3.5931 0
M  V30 5579 H 539.528 2.35484 1.84899 0
M  V30 5580 H 537.074 1.13348 0.888162 0
M  V30 5581 H 539.027 1.25398 4.0231 0
M  V30 5582 H 537.751 0.277772 3.25417 0
M  V30 5583 H 536.41 2.36213 2.80355 0
M  V30 5584 H 536.058 1.06897 4.9151 0
M  V30 5585 H 535.758 2.80757 5.16187 0
M  V30 5586 H 537.282 2.07739 5.74175 0
M  V30 5587 H 538.696 3.81526 4.27914 0
M  V30 5588 H 537.093 4.52878 3.93728 0
M  V30 5589 H 538.163 4.09893 2.59068 0
M  V30 5590 N 539.506 -0.963266 1.24736 0
M  V30 5591 C 540.917 -1.52145 1.08207 0
M  V30 5592 C 541.268 -1.93142 -0.345061 0
M  V30 5593 O 540.393 -1.77769 -1.23399 0
M  V30 5594 C 540.988 -2.76486 1.95808 0
M  V30 5595 C 539.547 -3.28646 1.8349 0
M  V30 5596 C 538.694 -2.01529 1.90476 0
M  V30 5597 H 541.645 -0.781083 1.38148 0
M  V30 5598 H 541.666 -3.49986 1.49297 0
M  V30 5599 H 541.178 -2.46617 2.99669 0
M  V30 5600 H 539.279 -3.63357 0.824787 0
M  V30 5601 H 539.392 -3.97246 2.67829 0
M  V30 5602 H 537.756 -2.16442 1.34258 0
M  V30 5603 H 538.539 -1.7402 2.95926 0
M  V30 5604 N 540.985 -1.06182 -1.16461 0
M  V30 5605 C 541.918 -0.615859 -2.19733 0
M  V30 5606 C 542.896 0.360766 -1.58547 0
M  V30 5607 O 544.08 0.270009 -1.86556 0
M  V30 5608 C 541.207 0.097312 -3.3856 0
M  V30 5609 C 540.253 -0.835889 -4.18229 0
M  V30 5610 S 541.086 -2.33052 -4.82128 0
M  V30 5611 C 542.242 -1.62881 -6.04335 0
M  V30 5612 H 542.475 -1.49079 -2.57221 0
M  V30 5613 H 540.008 -0.874692 -1.27234 0
M  V30 5614 H 541.966 0.502563 -4.07412 0
M  V30 5615 H 540.627 0.948418 -2.99439 0
M  V30 5616 H 539.82 -0.283426 -5.03202 0
M  V30 5617 H 539.422 -1.18097 -3.54865 0
M  V30 5618 H 541.714 -0.933764 -6.71034 0
M  V30 5619 H 542.657 -2.45641 -6.64128 0
M  V30 5620 H 543.065 -1.11189 -5.53441 0
M  V30 5621 N 542.463 1.3308 -0.844243 0
M  V30 5622 C 543.395 2.27954 -0.238671 0
M  V30 5623 C 544.408 1.51978 0.583665 0
M  V30 5624 O 545.597 1.73731 0.409857 0
M  V30 5625 C 542.697 3.31963 0.682185 0
M  V30 5626 C 541.87 4.37281 -0.101998 0
M  V30 5627 C 540.929 5.20928 0.743022 0
M  V30 5628 O 539.955 5.68914 0.180285 0
M  V30 5629 N 541.157 5.42738 2.0595 0
M  V30 5630 H 543.922 2.8056 -1.05386 0
M  V30 5631 H 541.483 1.4583 -0.70322 0
M  V30 5632 H 543.475 3.84828 1.25259 0
M  V30 5633 H 542.045 2.79594 1.39808 0
M  V30 5634 H 541.265 3.84843 -0.853802 0
M  V30 5635 H 542.553 5.04746 -0.641015 0
M  V30 5636 H 541.951 5.05463 2.54016 0
M  V30 5637 H 540.508 5.98639 2.57827 0
M  V30 5638 N 543.941 0.601185 1.45683 0
M  V30 5639 C 544.891 -0.142686 2.27553 0
M  V30 5640 C 545.875 -0.844598 1.3695 0
M  V30 5641 O 547.067 -0.735644 1.60988 0
M  V30 5642 C 544.196 -1.14364 3.23691 0
M  V30 5643 C 543.282 -0.442894 4.21781 0
M  V30 5644 N 543.673 0.51189 5.03203 0
M  V30 5645 C 541.971 -0.691277 4.4061 0
M  V30 5646 C 542.672 0.92318 5.74328 0
M  V30 5647 N 541.648 0.268308 5.42937 0
M  V30 5648 H 545.45 0.590736 2.87902 0
M  V30 5649 H 542.964 0.424365 1.56757 0
M  V30 5650 H 544.961 -1.6909 3.8107 0
M  V30 5651 H 543.621 -1.87768 2.64902 0
M  V30 5652 H 544.632 0.888329 5.10225 0
M  V30 5653 H 541.309 -1.41049 3.92952 0
M  V30 5654 H 542.699 1.71029 6.49768 0
M  V30 5655 N 545.419 -1.53889 0.339982 0
M  V30 5656 C 546.649 -2.04973 -0.258738 0
M  V30 5657 C 547.057 -1.21485 -1.45045 0
M  V30 5658 O 546.4 -0.2422 -1.82096 0
M  V30 5659 C 546.462 -3.51783 -0.740853 0
M  V30 5660 C 546.126 -4.55802 0.330734 0
M  V30 5661 C 547.123 -5.06512 1.17226 0
M  V30 5662 C 544.808 -4.99966 0.483637 0
M  V30 5663 C 546.802 -5.99963 2.15227 0
M  V30 5664 C 544.489 -5.93229 1.46704 0
M  V30 5665 C 545.487 -6.43115 2.29981 0
M  V30 5666 O 545.175 -7.34545 3.26649 0
M  V30 5667 H 544.907 -0.673807 -0.0544037 0
M  V30 5668 H 547.461 -1.99492 0.489107 0
M  V30 5669 H 545.691 -3.54717 -1.53988 0
M  V30 5670 H 547.38 -3.85857 -1.25973 0
M  V30 5671 H 548.146 -4.73158 1.0652 0
M  V30 5672 H 544.025 -4.6074 -0.15471 0
M  V30 5673 H 547.569 -6.38825 2.80265 0
M  V30 5674 H 543.466 -6.25998 1.57468 0
M  V30 5675 H 544.234 -7.52468 3.22078 0
M  V30 5676 N 546.897 -0.0685191 -1.57451 0
M  V30 5677 C 548.122 0.613919 -1.98106 0
M  V30 5678 C 548.547 1.62551 -0.946501 0
M  V30 5679 O 547.905 1.81085 0.0882824 0
M  V30 5680 C 547.953 1.26189 -3.378 0
M  V30 5681 O 547.057 2.37773 -3.36954 0
M  V30 5682 H 546.398 0.158163 -0.644888 0
M  V30 5683 H 548.928 -0.142063 -2.04106 0
M  V30 5684 H 548.938 1.60951 -3.74912 0
M  V30 5685 H 547.613 0.520625 -4.12629 0
M  V30 5686 H 546.19 2.04829 -3.11608 0
M  V30 5687 N 548.375 1.56261 0.205012 0
M  V30 5688 C 549.308 1.88797 1.28183 0
M  V30 5689 C 550.286 0.747018 1.44424 0
M  V30 5690 O 551.47 0.997039 1.59973 0
M  V30 5691 C 548.597 2.10949 2.64987 0
M  V30 5692 C 547.643 3.33649 2.6567 0
M  V30 5693 S 548.476 4.89078 2.18088 0
M  V30 5694 C 549.632 5.14286 3.56736 0
M  V30 5695 H 549.865 2.79837 1.00393 0
M  V30 5696 H 547.398 1.48911 0.408042 0
M  V30 5697 H 549.356 2.24395 3.4374 0
M  V30 5698 H 548.017 1.20678 2.89993 0
M  V30 5699 H 547.21 3.46245 3.66239 0
M  V30 5700 H 546.812 3.19146 1.94992 0
M  V30 5701 H 549.104 5.04198 4.52537 0
M  V30 5702 H 550.047 6.16096 3.49043 0
M  V30 5703 H 550.455 4.41957 3.51189 0
M  V30 5704 N 549.853 -0.472356 1.50355 0
M  V30 5705 C 551.101 -1.22211 1.60962 0
M  V30 5706 C 551.422 -1.92497 0.311439 0
M  V30 5707 O 550.692 -1.8405 -0.671002 0
M  V30 5708 H 549.272 -0.454092 0.593135 0
M  V30 5709 H 551.934 -0.544977 1.87126 0
M  V30 5710 H 551.03 -1.9707 2.42012 0
M  V30 5711 N 551.331 -1.39911 -0.725443 0
M  V30 5712 C 552.579 -1.37382 -1.48224 0
M  V30 5713 C 552.9 0.0264107 -1.94982 0
M  V30 5714 O 552.17 0.979408 -1.6966 0
M  V30 5715 H 550.75 -0.505596 -0.549892 0
M  V30 5716 H 553.412 -1.7487 -0.860608 0
M  V30 5717 H 552.508 -2.04254 -2.3598 0
M  V30 5718 N 552.809 0.956637 -1.25245 0
M  V30 5719 C 554.058 1.69537 -1.0927 0
M  V30 5720 C 554.371 1.92136 0.366503 0
M  V30 5721 O 555.577 2.63687 0.64665 0
M  V30 5722 C 554.033 3.05211 -1.9072 0
M  V30 5723 C 553.641 2.90416 -3.41119 0
M  V30 5724 C 555.385 3.82882 -1.83308 0
M  V30 5725 C 553.292 4.21468 -4.14872 0
M  V30 5726 H 552.222 0.635804 -0.405302 0
M  V30 5727 H 554.873 1.06513 -1.49423 0
M  V30 5728 H 553.255 3.69128 -1.43389 0
M  V30 5729 H 554.429 2.35444 -3.9611 0
M  V30 5730 H 552.744 2.26203 -3.49602 0
M  V30 5731 H 555.341 4.79944 -2.35706 0
M  V30 5732 H 555.684 4.0853 -0.800572 0
M  V30 5733 H 556.217 3.25711 -2.28379 0
M  V30 5734 H 552.956 4.01009 -5.18529 0
M  V30 5735 H 552.476 4.76213 -3.64665 0
M  V30 5736 H 554.155 4.90022 -4.22478 0
M  V30 5737 N 554.287 1.06798 1.15896 0
M  V30 5738 C 555.703 0.792423 1.38538 0
M  V30 5739 C 555.903 -0.60592 1.92174 0
M  V30 5740 O 554.959 -1.36561 2.12385 0
M  V30 5741 C 556.272 1.86157 2.36149 0
M  V30 5742 C 557.82 1.88567 2.49823 0
M  V30 5743 C 558.295 2.9455 3.5072 0
M  V30 5744 N 559.786 2.93616 3.58251 0
M  V30 5745 C 560.521 3.72267 4.36125 0
M  V30 5746 N 560.017 4.60751 5.17379 0
M  V30 5747 N 561.81 3.60637 4.31158 0
M  V30 5748 H 553.961 1.96993 0.794198 0
M  V30 5749 H 556.224 0.853942 0.411688 0
M  V30 5750 H 555.93 2.86603 2.03843 0
M  V30 5751 H 555.804 1.71692 3.3586 0
M  V30 5752 H 558.191 0.887765 2.8143 0
M  V30 5753 H 558.272 2.0711 1.5013 0
M  V30 5754 H 557.916 3.94537 3.19849 0
M  V30 5755 H 557.846 2.73255 4.50155 0
M  V30 5756 H 560.337 2.29472 3.00252 0
M  V30 5757 H 560.65 5.17408 5.74028 0
M  V30 5758 H 558.995 4.64803 5.16704 0
M  V30 5759 H 562.186 2.90892 3.66742 0
M  V30 5760 H 562.359 4.22176 4.91601 0
M  V30 5761 N 555.766 -1.3263 0.851289 0
M  V30 5762 C 556.994 -2.01563 0.466899 0
M  V30 5763 C 557.409 -1.63996 -0.935447 0
M  V30 5764 O 556.766 -0.85957 -1.6099 0
M  V30 5765 C 556.817 -3.56613 0.592433 0
M  V30 5766 O 556.538 -3.92828 1.93954 0
M  V30 5767 C 558.039 -4.42818 0.206612 0
M  V30 5768 H 555.259 -0.645307 0.183902 0
M  V30 5769 H 557.803 -1.69285 1.1473 0
M  V30 5770 H 555.958 -3.87379 -0.0401936 0
M  V30 5771 H 556.372 -4.87545 1.9339 0
M  V30 5772 H 557.846 -5.50918 0.345462 0
M  V30 5773 H 558.323 -4.30844 -0.85264 0
M  V30 5774 H 558.929 -4.17434 0.814176 0
M  V30 5775 N 557.244 -0.608902 -1.45362 0
M  V30 5776 C 558.521 -0.0365378 -1.95566 0
M  V30 5777 C 558.901 1.43169 -1.55131 0
M  V30 5778 O 558.249 2.1349 -0.814513 0
M  V30 5779 C 558.459 -0.236026 -3.48201 0
M  V30 5780 C 559.807 -0.117518 -4.24437 0
M  V30 5781 O 560.831 -0.166217 -3.55812 0
M  V30 5782 O 559.69 -0.00372127 -5.465 0
M  V30 5783 H 556.784 0.0349874 -0.82626 0
M  V30 5784 H 559.33 -0.679055 -1.55521 0
M  V30 5785 H 558.102 -1.25569 -3.70605 0
M  V30 5786 H 557.725 0.441691 -3.95139 0
M  V30 5787 N 558.722 1.53707 -0.348139 0
M  V30 5788 C 559.952 2.05108 0.247864 0
M  V30 5789 C 560.36 1.22252 1.44399 0
M  V30 5790 O 559.703 0.251853 1.81965 0
M  V30 5791 C 559.765 3.52171 0.722187 0
M  V30 5792 C 559.429 4.5562 -0.354902 0
M  V30 5793 C 560.426 5.05883 -1.19911 0
M  V30 5794 C 558.111 4.99703 -0.510145 0
M  V30 5795 C 560.105 5.98814 -2.18406 0
M  V30 5796 C 557.792 5.92443 -1.49848 0
M  V30 5797 C 558.79 6.41887 -2.33389 0
M  V30 5798 O 558.478 7.32802 -3.3054 0
M  V30 5799 H 558.21 0.674086 0.0508296 0
M  V30 5800 H 560.764 1.99229 -0.49968 0
M  V30 5801 H 558.994 3.55529 1.52105 0
M  V30 5802 H 560.683 3.8652 1.23925 0
M  V30 5803 H 561.449 4.72586 -1.09028 0
M  V30 5804 H 557.328 4.60816 0.130274 0
M  V30 5805 H 560.872 6.3733 -2.83649 0
M  V30 5806 H 556.769 6.25155 -1.60786 0
M  V30 5807 H 557.537 7.50749 -3.26064 0
M  V30 5808 N 560.2 0.0768682 1.57412 0
M  V30 5809 C 561.616 -0.279772 1.57129 0
M  V30 5810 C 561.816 -1.69688 1.08666 0
M  V30 5811 O 560.872 -2.40953 0.754843 0
M  V30 5812 C 562.185 -0.0848055 3.0058 0
M  V30 5813 C 563.733 -0.153954 3.12621 0
M  V30 5814 C 564.208 0.0127946 4.57998 0
M  V30 5815 N 565.699 -0.0426435 4.6318 0
M  V30 5816 C 566.434 0.0618892 5.73367 0
M  V30 5817 N 565.93 0.220229 6.9245 0
M  V30 5818 N 567.723 0.00446072 5.621 0
M  V30 5819 H 559.874 1.00297 1.87228 0
M  V30 5820 H 562.137 0.391565 0.863354 0
M  V30 5821 H 561.843 0.89325 3.40168 0
M  V30 5822 H 561.717 -0.834961 3.67843 0
M  V30 5823 H 564.104 -1.1225 2.72917 0
M  V30 5824 H 564.185 0.627389 2.47987 0
M  V30 5825 H 563.829 0.978128 4.98392 0
M  V30 5826 H 563.759 -0.788016 5.20671 0
M  V30 5827 H 566.25 -0.163226 3.77547 0
M  V30 5828 H 566.563 0.291999 7.72248 0
M  V30 5829 H 564.908 0.255658 6.9453 0
M  V30 5830 H 568.099 -0.117979 4.67951 0
M  V30 5831 H 568.272 0.0893796 6.47938 0
M  V30 5832 N 561.678 -1.56367 -0.196722 0
M  V30 5833 C 562.926 -1.80172 -0.915554 0
M  V30 5834 C 563.247 -0.649649 -1.8386 0
M  V30 5835 O 562.517 0.332111 -1.93064 0
M  V30 5836 H 561.097 -0.664592 -0.341067 0
M  V30 5837 H 563.759 -1.93844 -0.202622 0
M  V30 5838 H 562.855 -2.7327 -1.50764 0
M  V30 5839 N 563.156 0.464375 -1.50603 0
M  V30 5840 C 564.066 1.58723 -1.72754 0
M  V30 5841 C 565.082 1.62925 -0.610844 0
M  V30 5842 O 566.258 1.8067 -0.889963 0
M  V30 5843 C 563.323 2.94897 -1.82309 0
M  V30 5844 C 562.384 3.0103 -3.06071 0
M  V30 5845 C 561.617 4.30708 -3.1516 0
M  V30 5846 O 561.84 5.2159 -2.30868 0
M  V30 5847 O 560.774 4.42571 -4.0794 0
M  V30 5848 H 564.6 1.42954 -2.67951 0
M  V30 5849 H 562.185 0.644579 -1.3478 0
M  V30 5850 H 564.067 3.75764 -1.90735 0
M  V30 5851 H 562.742 3.10851 -0.902967 0
M  V30 5852 H 561.649 2.19217 -3.03142 0
M  V30 5853 H 562.982 2.90014 -3.97684 0
M  V30 5854 N 564.634 1.40294 0.718013 0
M  V30 5855 C 565.597 1.4012 1.81381 0
M  V30 5856 C 566.597 0.295405 1.58063 0
M  V30 5857 O 567.787 0.554187 1.6515 0
M  V30 5858 C 564.919 1.19056 3.19435 0
M  V30 5859 H 566.112 2.37645 1.82933 0
M  V30 5860 H 563.665 1.26107 0.923405 0
M  V30 5861 H 564.4 0.222809 3.23534 0
M  V30 5862 H 564.185 1.99152 3.37758 0
M  V30 5863 H 565.675 1.21716 3.99468 0
M  V30 5864 N 566.112 -0.949982 1.2575 0
M  V30 5865 C 567.059 -2.04738 1.06541 0
M  V30 5866 C 568.029 -1.66078 -0.0268818 0
M  V30 5867 O 569.214 -1.90348 0.131196 0
M  V30 5868 C 566.354 -3.38027 0.695127 0
M  V30 5869 C 565.467 -3.89776 1.86276 0
M  V30 5870 C 564.602 -5.11411 1.4364 0
M  V30 5871 C 563.641 -5.554 2.57287 0
M  V30 5872 N 562.778 -6.68244 2.15395 0
M  V30 5873 H 567.618 -2.20502 2.00457 0
M  V30 5874 H 565.155 -1.0805 0.998178 0
M  V30 5875 H 567.113 -4.14641 0.461375 0
M  V30 5876 H 565.743 -3.22135 -0.207046 0
M  V30 5877 H 564.795 -3.0964 2.20969 0
M  V30 5878 H 566.107 -4.18368 2.71606 0
M  V30 5879 H 565.261 -5.95457 1.16257 0
M  V30 5880 H 564 -4.84545 0.553879 0
M  V30 5881 H 563.005 -4.69916 2.85409 0
M  V30 5882 H 564.23 -5.84272 3.46125 0
M  V30 5883 H 562.176 -6.43078 1.29565 0
M  V30 5884 H 562.093 -6.96377 2.94272 0
M  V30 5885 H 563.361 -7.55687 1.91201 0
M  V30 5886 N 567.59 -1.07411 -1.15328 0
M  V30 5887 C 568.52 -0.716472 -2.22236 0
M  V30 5888 C 569.501 0.296373 -1.67498 0
M  V30 5889 O 570.686 0.168989 -1.93463 0
M  V30 5890 C 567.816 -0.114142 -3.47112 0
M  V30 5891 C 566.77 -1.05421 -4.14814 0
M  V30 5892 C 566.096 -0.314604 -5.33774 0
M  V30 5893 C 567.396 -2.38808 -4.64508 0
M  V30 5894 H 569.09 -1.61029 -2.52408 0
M  V30 5895 H 566.636 -0.775702 -1.21321 0
M  V30 5896 H 568.589 0.148001 -4.2114 0
M  V30 5897 H 567.313 0.814755 -3.16274 0
M  V30 5898 H 565.972 -1.30128 -3.42728 0
M  V30 5899 H 565.62 0.617772 -4.99192 0
M  V30 5900 H 565.32 -0.941209 -5.80013 0
M  V30 5901 H 566.844 -0.0602747 -6.1057 0
M  V30 5902 H 568.258 -2.18424 -5.3006 0
M  V30 5903 H 566.655 -2.97069 -5.21412 0
M  V30 5904 H 567.725 -3.01067 -3.80114 0
M  V30 5905 N 569.068 1.32177 -0.85831 0
M  V30 5906 C 570.015 2.28794 -0.303607 0
M  V30 5907 C 570.985 1.55213 0.591453 0
M  V30 5908 O 572.17 1.83418 0.525585 0
M  V30 5909 C 569.31 3.41475 0.49889 0
M  V30 5910 C 568.423 4.2993 -0.422373 0
M  V30 5911 C 567.558 5.29743 0.393111 0
M  V30 5912 C 566.597 6.09842 -0.525317 0
M  V30 5913 N 565.734 7.01643 0.253208 0
M  V30 5914 H 570.574 2.75631 -1.13276 0
M  V30 5915 H 568.111 1.35606 -0.570026 0
M  V30 5916 H 570.069 4.05531 0.979826 0
M  V30 5917 H 568.699 2.95779 1.29284 0
M  V30 5918 H 567.751 3.66422 -1.02171 0
M  V30 5919 H 569.063 4.85899 -1.12709 0
M  V30 5920 H 568.217 5.9942 0.937056 0
M  V30 5921 H 566.956 4.744 1.13117 0
M  V30 5922 H 565.961 5.39066 -1.08112 0
M  V30 5923 H 567.186 6.6727 -1.26205 0
M  V30 5924 H 565.132 6.48725 0.974295 0
M  V30 5925 H 565.049 7.54981 -0.392398 0
M  V30 5926 H 566.317 7.756 0.778761 0
M  V30 5927 N 570.547 0.616602 1.45037 0
M  V30 5928 C 571.795 0.115103 2.01772 0
M  V30 5929 C 572.116 -1.2622 1.48639 0
M  V30 5930 O 571.386 -1.83563 0.684199 0
M  V30 5931 H 569.966 0.0395607 0.745952 0
M  V30 5932 H 572.628 0.800032 1.77723 0
M  V30 5933 H 571.724 0.0717274 3.12018 0
M  V30 5934 N 572.025 -1.5352 0.356285 0
M  V30 5935 C 572.955 -2.28372 -0.486661 0
M  V30 5936 C 573.936 -1.30432 -1.09185 0
M  V30 5937 O 575.121 -1.59291 -1.11085 0
M  V30 5938 C 572.251 -3.06604 -1.63129 0
M  V30 5939 C 571.205 -4.12154 -1.15381 0
M  V30 5940 C 570.531 -4.78415 -2.38796 0
M  V30 5941 C 571.831 -5.21724 -0.245179 0
M  V30 5942 H 573.525 -2.99083 0.137797 0
M  V30 5943 H 571.071 -1.43841 0.0677134 0
M  V30 5944 H 573.024 -3.57712 -2.22755 0
M  V30 5945 H 571.748 -2.33568 -2.28284 0
M  V30 5946 H 570.407 -3.61978 -0.580294 0
M  V30 5947 H 570.055 -4.01959 -3.02387 0
M  V30 5948 H 569.755 -5.49734 -2.07524 0
M  V30 5949 H 571.279 -5.32313 -2.99125 0
M  V30 5950 H 572.693 -5.68391 -0.748646 0
M  V30 5951 H 571.09 -6.00095 -0.0237608 0
M  V30 5952 H 572.16 -4.79596 0.715229 0
M  V30 5953 N 573.503 -0.0852151 -1.57369 0
M  V30 5954 C 574.75 0.580806 -1.93992 0
M  V30 5955 C 575.078 1.68801 -0.966252 0
M  V30 5956 O 574.333 1.95694 0.0158649 0
M  V30 5957 C 574.632 1.18482 -3.3719 0
M  V30 5958 C 574.298 0.2024 -4.50446 0
M  V30 5959 C 572.96 -0.0678318 -4.81152 0
M  V30 5960 C 575.312 -0.46895 -5.19086 0
M  V30 5961 C 572.64 -1.01627 -5.77831 0
M  V30 5962 C 574.992 -1.4058 -6.16782 0
M  V30 5963 C 573.656 -1.68436 -6.45899 0
M  V30 5964 H 572.926 0.212532 -0.709867 0
M  V30 5965 H 575.573 -0.158947 -1.90839 0
M  V30 5966 H 573.878 2.0006 -3.36873 0
M  V30 5967 H 575.575 1.70767 -3.62822 0
M  V30 5968 H 572.165 0.423208 -4.26505 0
M  V30 5969 H 576.349 -0.273307 -4.95547 0
M  V30 5970 H 571.605 -1.2392 -5.9871 0
M  V30 5971 H 575.779 -1.93188 -6.69068 0
M  V30 5972 H 573.406 -2.42088 -7.20623 0
M  V30 5973 N 574.981 1.5647 0.188427 0
M  V30 5974 C 576.206 1.85486 0.927891 0
M  V30 5975 C 576.631 0.669575 1.75779 0
M  V30 5976 O 575.989 -0.381573 1.77239 0
M  V30 5977 C 576.037 3.12784 1.7944 0
M  V30 5978 O 575.141 2.93805 2.894 0
M  V30 5979 H 574.482 0.610585 0.260925 0
M  V30 5980 H 577.012 2.037 0.191729 0
M  V30 5981 H 577.022 3.43749 2.19774 0
M  V30 5982 H 575.697 3.98671 1.18468 0
M  V30 5983 H 574.274 2.74153 2.52774 0
M  V30 5984 N 576.459 -0.456382 1.50847 0
M  V30 5985 C 577.422 -1.53493 1.70213 0
M  V30 5986 C 578.422 -1.50264 0.572481 0
M  V30 5987 O 579.612 -1.52623 0.839751 0
M  V30 5988 C 576.744 -2.93091 1.741 0
M  V30 5989 H 577.937 -1.37633 2.66453 0
M  V30 5990 H 575.49 -0.683776 1.4055 0
M  V30 5991 H 576.225 -3.14378 0.796063 0
M  V30 5992 H 576.01 -2.9684 2.5618 0
M  V30 5993 H 577.5 -3.71368 1.90987 0
M  V30 5994 N 577.937 -1.40673 -0.710563 0
M  V30 5995 C 579.185 -1.38947 -1.46759 0
M  V30 5996 C 579.506 0.00572879 -1.94999 0
M  V30 5997 O 578.776 0.961358 -1.70689 0
M  V30 5998 H 577.356 -0.5114 -0.544499 0
M  V30 5999 H 580.018 -1.75773 -0.842012 0
M  V30 6000 H 579.114 -2.06745 -2.33801 0
M  V30 6001 N 579.415 0.9433 -1.26252 0
M  V30 6002 C 580.325 2.07532 -1.09397 0
M  V30 6003 C 581.341 1.73977 -0.0280449 0
M  V30 6004 O 582.517 2.00067 -0.231337 0
M  V30 6005 C 579.582 3.39002 -0.726523 0
M  V30 6006 C 578.643 3.86353 -1.87163 0
M  V30 6007 C 577.876 5.11549 -1.52162 0
M  V30 6008 O 578.099 5.68834 -0.422385 0
M  V30 6009 O 577.033 5.53889 -2.35565 0
M  V30 6010 H 580.859 2.24658 -2.04359 0
M  V30 6011 H 578.444 1.05988 -1.05295 0
M  V30 6012 H 580.326 4.18 -0.534236 0
M  V30 6013 H 579.001 3.2312 0.193721 0
M  V30 6014 H 577.908 3.0831 -2.11886 0
M  V30 6015 H 579.241 4.06752 -2.77152 0
M  V30 6016 N 580.893 1.08022 1.14757 0
M  V30 6017 C 581.856 0.71048 2.1791 0
M  V30 6018 C 582.856 -0.252731 1.58801 0
M  V30 6019 O 584.046 -0.0327915 1.74169 0
M  V30 6020 C 581.178 0.0483203 3.40866 0
M  V30 6021 H 582.371 1.62384 2.52134 0
M  V30 6022 H 579.924 0.877595 1.29337 0
M  V30 6023 H 580.659 -0.876959 3.12218 0
M  V30 6024 H 580.444 0.741189 3.85031 0
M  V30 6025 H 581.934 -0.195471 4.17142 0
M  V30 6026 N 582.371 -1.3172 0.865308 0
M  V30 6027 C 583.334 -2.26918 0.322627 0
M  V30 6028 C 584.334 -1.52031 -0.523751 0
M  V30 6029 O 585.524 -1.70973 -0.333727 0
M  V30 6030 C 582.656 -3.36558 -0.542338 0
M  V30 6031 H 583.849 -2.76432 1.16298 0
M  V30 6032 H 581.402 -1.42573 0.640512 0
M  V30 6033 H 582.137 -2.92329 -1.40407 0
M  V30 6034 H 581.922 -3.92048 0.0636395 0
M  V30 6035 H 583.412 -4.07465 -0.91446 0
M  V30 6036 N 583.85 -0.624285 -1.44708 0
M  V30 6037 C 585.09 -0.129273 -2.03991 0
M  V30 6038 C 585.454 1.22321 -1.47992 0
M  V30 6039 O 586.654 1.80993 -1.98734 0
M  V30 6040 C 584.926 -0.108231 -3.57236 0
M  V30 6041 S 586.485 0.323158 -4.37608 0
M  V30 6042 H 583.303 -0.0577318 -0.708652 0
M  V30 6043 H 585.904 -0.826139 -1.77187 0
M  V30 6044 H 584.609 -1.0958 -3.955 0
M  V30 6045 H 584.139 0.610101 -3.8864 0
M  V30 6046 H 586.154 1.56894 -4.70743 0
M  V30 6047 N 585.328 1.53329 -0.364422 0
M  V30 6048 C 586.574 2.02222 0.21855 0
M  V30 6049 C 586.929 1.24702 1.46517 0
M  V30 6050 O 586.222 0.331969 1.88702 0
M  V30 6051 C 586.416 3.52911 0.564661 0
M  V30 6052 C 586.245 4.45023 -0.646862 0
M  V30 6053 C 585.015 4.91838 -1.15858 0
M  V30 6054 C 587.213 4.91581 -1.51172 0
M  V30 6055 N 585.195 5.67955 -2.33025 0
M  V30 6056 C 586.566 5.66028 -2.53006 0
M  V30 6057 C 588.621 4.73656 -1.53473 0
M  V30 6058 C 587.324 6.24457 -3.56996 0
M  V30 6059 C 589.35 5.3295 -2.56356 0
M  V30 6060 C 588.712 6.07282 -3.56914 0
M  V30 6061 H 584.811 0.780832 0.0427199 0
M  V30 6062 H 587.395 1.87937 -0.508704 0
M  V30 6063 H 585.566 3.6736 1.26099 0
M  V30 6064 H 587.298 3.88528 1.13262 0
M  V30 6065 H 584.053 4.68043 -0.723393 0
M  V30 6066 H 584.477 6.10675 -2.92241 0
M  V30 6067 H 589.119 4.15714 -0.770842 0
M  V30 6068 H 586.837 6.81496 -4.34268 0
M  V30 6069 H 590.423 5.20976 -2.58989 0
M  V30 6070 H 589.303 6.52345 -4.35218 0
M  V30 6071 N 586.806 0.0935595 1.57322 0
M  V30 6072 C 588.083 -0.612692 1.85756 0
M  V30 6073 C 588.463 -1.86439 0.99013 0
M  V30 6074 O 587.811 -2.28416 0.0621362 0
M  V30 6075 C 588.021 -0.929547 3.36393 0
M  V30 6076 C 589.369 -1.29366 4.04413 0
M  V30 6077 O 590.393 -1.02061 3.41265 0
M  V30 6078 O 589.252 -1.80498 5.15832 0
M  V30 6079 H 586.346 -0.306444 0.768128 0
M  V30 6080 H 588.892 0.126141 1.69231 0
M  V30 6081 H 587.664 -0.0414766 3.91278 0
M  V30 6082 H 587.287 -1.72441 3.5826 0
M  V30 6083 N 588.284 -1.56567 -0.180126 0
M  V30 6084 C 589.217 -1.90813 -1.25163 0
M  V30 6085 C 590.195 -0.7699 -1.43218 0
M  V30 6086 O 591.379 -1.02236 -1.58367 0
M  V30 6087 C 588.506 -2.15138 -2.61597 0
M  V30 6088 C 587.552 -3.37834 -2.60328 0
M  V30 6089 S 588.385 -4.92486 -2.1028 0
M  V30 6090 C 589.541 -5.19896 -3.48509 0
M  V30 6091 H 589.774 -2.81398 -0.959283 0
M  V30 6092 H 587.307 -1.49541 -0.3843 0
M  V30 6093 H 589.265 -2.29835 -3.40127 0
M  V30 6094 H 587.926 -1.25276 -2.88036 0
M  V30 6095 H 587.119 -3.52027 -3.60684 0
M  V30 6096 H 586.721 -3.22208 -1.8989 0
M  V30 6097 H 589.013 -5.11334 -4.44459 0
M  V30 6098 H 589.956 -6.21571 -3.39198 0
M  V30 6099 H 590.364 -4.47489 -3.44114 0
M  V30 6100 N 589.762 0.448376 -1.51087 0
M  V30 6101 C 590.712 1.54156 -1.67988 0
M  V30 6102 C 591.696 1.5178 -0.534015 0
M  V30 6103 O 592.888 1.58419 -0.789448 0
M  V30 6104 C 590.017 2.92437 -1.79822 0
M  V30 6105 C 589.103 2.99611 -3.00157 0
M  V30 6106 N 589.494 2.7655 -4.23502 0
M  V30 6107 C 587.792 3.30764 -2.99184 0
M  V30 6108 C 588.493 2.89281 -5.0467 0
M  V30 6109 N 587.469 3.20473 -4.39088 0
M  V30 6110 H 591.271 1.35061 -2.61028 0
M  V30 6111 H 588.785 0.655504 -1.48583 0
M  V30 6112 H 590.782 3.71068 -1.90037 0
M  V30 6113 H 589.442 3.1256 -0.879554 0
M  V30 6114 H 590.453 2.5169 -4.52628 0
M  V30 6115 H 587.13 3.56732 -2.16907 0
M  V30 6116 H 588.52 2.75499 -6.12821 0
M  V30 6117 N 591.24 1.41047 0.703093 0
M  V30 6118 C 592.488 1.39723 1.4602 0
M  V30 6119 C 592.809 0.00461257 1.94999 0
M  V30 6120 O 592.079 -0.952292 1.71196 0
M  V30 6121 H 590.659 0.514281 0.541779 0
M  V30 6122 H 593.321 1.76217 0.832678 0
M  V30 6123 H 592.417 2.07982 2.32701 0
M  V30 6124 N 592.718 -0.936591 1.26751 0
M  V30 6125 C 593.965 -1.68331 1.12566 0
M  V30 6126 C 594.293 -1.91677 -0.330168 0
M  V30 6127 O 593.548 -1.49859 -1.2586 0
M  V30 6128 C 593.847 -3.06099 1.84494 0
M  V30 6129 C 593.513 -3.02493 3.34378 0
M  V30 6130 C 592.175 -3.01217 3.75262 0
M  V30 6131 C 594.527 -2.94453 4.30055 0
M  V30 6132 C 591.855 -2.89672 5.10203 0
M  V30 6133 C 594.207 -2.84449 5.65041 0
M  V30 6134 C 592.871 -2.81518 6.0523 0
M  V30 6135 H 592.141 -0.615965 0.411907 0
M  V30 6136 H 594.788 -1.09292 1.5725 0
M  V30 6137 H 593.093 -3.6879 1.32292 0
M  V30 6138 H 594.79 -3.62733 1.70955 0
M  V30 6139 H 591.38 -3.04269 3.01858 0
M  V30 6140 H 595.564 -2.94544 3.99447 0
M  V30 6141 H 590.82 -2.85783 5.40498 0
M  V30 6142 H 594.994 -2.77192 6.38856 0
M  V30 6143 H 592.621 -2.72329 7.09747 0
M  V30 6144 N 594.196 -1.08629 -1.14182 0
M  V30 6145 C 595.144 -0.71284 -2.21408 0
M  V30 6146 C 596.138 0.282457 -1.67029 0
M  V30 6147 O 597.344 0.144783 -1.79417 0
M  V30 6148 H 593.719 -0.212497 -0.721352 0
M  V30 6149 H 595.69 -1.6265 -2.50175 0
M  V30 6150 C 594.439 -0.140704 -3.47415 0
M  V30 6151 H 593.762 -0.897739 -3.8959 0
M  V30 6152 H 595.202 0.0827677 -4.23919 0
M  V30 6153 C 593.661 1.122 -3.17668 0
M  V30 6154 O 594.191 2.20652 -3.35672 0
M  V30 6155 N 592.397 1.03328 -2.71609 0
M  V30 6156 H 591.944 0.150666 -2.57159 0
M  V30 6157 H 591.902 1.8789 -2.52081 0
M  V30 6158 N 595.674 1.31259 -0.872281 0
M  V30 6159 C 597.09 1.49283 -0.564521 0
M  V30 6160 C 597.29 1.80243 0.900807 0
M  V30 6161 O 596.346 1.88246 1.68284 0
M  V30 6162 C 597.659 2.62503 -1.46673 0
M  V30 6163 C 599.207 2.76386 -1.46901 0
M  V30 6164 C 599.682 3.92705 -2.35684 0
M  V30 6165 N 601.173 3.99995 -2.33577 0
M  V30 6166 C 601.908 4.89276 -2.98992 0
M  V30 6167 N 601.404 5.83443 -3.73585 0
M  V30 6168 N 603.197 4.82541 -2.88289 0
M  V30 6169 H 595.348 1.09432 -1.82039 0
M  V30 6170 H 597.611 0.540949 -0.77851 0
M  V30 6171 H 597.317 2.46407 -2.50951 0
M  V30 6172 H 597.191 3.58695 -1.16696 0
M  V30 6173 H 599.578 2.91894 -0.433796 0
M  V30 6174 H 599.659 1.80853 -1.80903 0
M  V30 6175 H 599.303 3.77954 -3.39283 0
M  V30 6176 H 599.233 4.87549 -1.99006 0
M  V30 6177 H 601.724 3.32624 -1.7936 0
M  V30 6178 H 602.037 6.48303 -4.20622 0
M  V30 6179 H 600.382 5.83415 -3.77694 0
M  V30 6180 H 603.573 4.07951 -2.2955 0
M  V30 6181 H 603.746 5.51916 -3.39549 0
M  V30 6182 N 597.152 0.631951 1.44375 0
M  V30 6183 C 598.082 -0.0593243 2.33425 0
M  V30 6184 C 599.063 -0.833964 1.48253 0
M  V30 6185 O 600.248 -0.799682 1.76971 0
M  V30 6186 C 597.378 -1.04096 3.31333 0
M  V30 6187 C 596.332 -0.377899 4.26328 0
M  V30 6188 C 595.658 -1.4695 5.14111 0
M  V30 6189 C 596.958 0.716371 5.17364 0
M  V30 6190 H 598.652 0.684287 2.91475 0
M  V30 6191 H 596.198 0.330518 1.40156 0
M  V30 6192 H 598.151 -1.53331 3.92514 0
M  V30 6193 H 596.875 -1.81547 2.71493 0
M  V30 6194 H 595.534 0.0938054 3.6648 0
M  V30 6195 H 595.182 -2.2349 4.50623 0
M  V30 6196 H 594.882 -1.03121 5.78481 0
M  V30 6197 H 596.406 -1.96363 5.78164 0
M  V30 6198 H 597.82 0.307089 5.72477 0
M  V30 6199 H 596.217 1.07784 5.90341 0
M  V30 6200 H 597.287 1.58316 4.58327 0
M  V30 6201 N 598.631 -1.53133 0.372548 0
M  V30 6202 C 599.879 -2.00958 -0.214534 0
M  V30 6203 C 600.2 -1.26135 -1.48711 0
M  V30 6204 O 599.47 -0.376597 -1.92246 0
M  V30 6205 H 598.05 -0.742456 -0.0822664 0
M  V30 6206 H 600.712 -1.88367 0.500385 0
M  V30 6207 H 599.808 -3.09031 -0.436605 0
M  V30 6208 N 600.109 -0.101901 -1.5727 0
M  V30 6209 C 601.357 0.559091 -1.94213 0
M  V30 6210 C 601.678 1.68297 -0.984948 0
M  V30 6211 O 600.948 1.95863 -0.0381975 0
M  V30 6212 H 599.528 0.20952 -0.717015 0
M  V30 6213 H 602.19 -0.166831 -1.94185 0
M  V30 6214 H 601.286 0.96485 -2.96811 0
M  V30 6215 N 601.587 1.56661 0.17182 0
M  V30 6216 C 602.535 1.97289 1.23207 0
M  V30 6217 C 603.529 0.861566 1.45854 0
M  V30 6218 O 604.735 1.04668 1.4644 0
M  V30 6219 H 601.11 0.627681 0.41415 0
M  V30 6220 H 603.081 2.85662 0.862542 0
M  V30 6221 C 601.83 2.34849 2.564 0
M  V30 6222 H 601.153 3.19903 2.39797 0
M  V30 6223 H 602.593 2.67121 3.29276 0
M  V30 6224 C 601.052 1.19172 3.15119 0
M  V30 6225 O 601.582 0.479113 3.98833 0
M  V30 6226 N 599.788 0.962415 2.74201 0
M  V30 6227 H 599.335 1.54365 2.06226 0
M  V30 6228 H 599.293 0.190272 3.13824 0
M  V30 6229 N 603.065 -0.440357 1.51323 0
M  V30 6230 C 604.29 -1.21716 1.67928 0
M  V30 6231 C 604.715 -1.84328 0.374826 0
M  V30 6232 O 604.073 -1.68675 -0.664706 0
M  V30 6233 C 604.121 -2.27914 2.79442 0
M  V30 6234 O 603.225 -3.33325 2.42834 0
M  V30 6235 H 602.566 -0.35674 0.560029 0
M  V30 6236 H 605.096 -0.520417 1.97871 0
M  V30 6237 H 605.106 -2.72746 3.03436 0
M  V30 6238 H 603.781 -1.8172 3.741 0
M  V30 6239 H 602.358 -2.9399 2.294 0
M  V30 6240 N 604.543 -1.41418 -0.695603 0
M  V30 6241 C 605.789 -1.40982 -1.4578 0
M  V30 6242 C 606.122 -0.0187763 -1.94191 0
M  V30 6243 O 605.397 0.95346 -1.69527 0
M  V30 6244 C 605.68 -2.41657 -2.66972 0
M  V30 6245 C 605.533 -3.89869 -2.24327 0
M  V30 6246 C 606.852 -2.39589 -3.69168 0
M  V30 6247 H 603.971 -0.513405 -0.528757 0
M  V30 6248 H 606.613 -1.72693 -0.792275 0
M  V30 6249 H 604.763 -2.14746 -3.23754 0
M  V30 6250 H 606.435 -4.27683 -1.72872 0
M  V30 6251 H 604.678 -4.04737 -1.56111 0
M  V30 6252 H 605.349 -4.55857 -3.11285 0
M  V30 6253 H 607.825 -2.63471 -3.2206 0
M  V30 6254 H 606.701 -3.12044 -4.51575 0
M  V30 6255 H 606.962 -1.41447 -4.18862 0
M  V30 6256 N 606.021 0.929856 -1.27246 0
M  V30 6257 C 607.246 1.71674 -1.16374 0
M  V30 6258 C 607.671 1.86064 0.276024 0
M  V30 6259 O 607.029 1.3591 1.19992 0
M  V30 6260 C 607.077 3.09526 -1.85003 0
M  V30 6261 O 606.181 3.96142 -1.14653 0
M  V30 6262 H 605.522 0.52629 -0.404863 0
M  V30 6263 H 608.052 1.16381 -1.68276 0
M  V30 6264 H 608.062 3.59852 -1.92276 0
M  V30 6265 H 606.737 2.98369 -2.89739 0
M  V30 6266 H 605.314 3.54584 -1.15433 0
M  V30 6267 N 607.499 1.09233 1.13605 0
M  V30 6268 C 608.409 0.741939 2.22559 0
M  V30 6269 C 609.425 -0.255236 1.72118 0
M  V30 6270 O 610.601 -0.0970747 2.01166 0
M  V30 6271 C 607.666 0.165595 3.46304 0
M  V30 6272 C 606.727 1.21846 4.11645 0
M  V30 6273 C 605.96 0.669526 5.29484 0
M  V30 6274 O 606.183 -0.508228 5.68131 0
M  V30 6275 O 605.117 1.42361 5.84822 0
M  V30 6276 H 608.943 1.65107 2.54899 0
M  V30 6277 H 606.528 0.866584 1.21699 0
M  V30 6278 H 608.41 -0.152592 4.21124 0
M  V30 6279 H 607.085 -0.716573 3.15669 0
M  V30 6280 H 605.992 1.58931 3.38662 0
M  V30 6281 H 607.325 2.07321 4.46407 0
M  V30 6282 N 608.977 -1.30795 0.87923 0
M  V30 6283 C 609.94 -2.26563 0.346676 0
M  V30 6284 C 610.94 -1.52578 -0.507597 0
M  V30 6285 O 612.13 -1.71318 -0.315575 0
M  V30 6286 C 609.262 -3.37115 -0.506611 0
M  V30 6287 H 610.455 -2.75183 1.19223 0
M  V30 6288 H 608.008 -1.41886 0.655598 0
M  V30 6289 H 608.743 -2.93802 -1.37299 0
M  V30 6290 H 608.528 -3.91959 0.105218 0
M  V30 6291 H 610.018 -4.08412 -0.871192 0
M  V30 6292 N 610.455 -0.639598 -1.44038 0
M  V30 6293 C 611.701 -0.147698 -2.02261 0
M  V30 6294 C 612.034 1.23031 -1.50256 0
M  V30 6295 O 611.309 1.81847 -0.690068 0
M  V30 6296 C 611.592 -0.14362 -3.59813 0
M  V30 6297 C 611.445 -1.55458 -4.22082 0
M  V30 6298 C 612.764 0.527317 -4.36929 0
M  V30 6299 H 609.883 -0.0551453 -0.734934 0
M  V30 6300 H 612.525 -0.817688 -1.71505 0
M  V30 6301 H 610.675 0.426898 -3.86147 0
M  V30 6302 H 612.347 -2.17464 -4.06826 0
M  V30 6303 H 610.59 -2.10594 -3.79253 0
M  V30 6304 H 611.261 -1.50369 -5.31124 0
M  V30 6305 H 613.737 0.0420504 -4.16079 0
M  V30 6306 H 612.613 0.499389 -5.46624 0
M  V30 6307 H 612.874 1.59914 -4.12165 0
M  V30 6308 N 611.933 1.52934 -0.380664 0
M  V30 6309 C 613.179 2.01765 0.20458 0
M  V30 6310 C 613.512 1.26696 1.47179 0
M  V30 6311 O 612.787 0.364936 1.91046 0
M  V30 6312 C 613.07 3.56869 0.481269 0
M  V30 6313 C 612.923 4.42617 -0.800629 0
M  V30 6314 C 614.242 4.2121 1.27554 0
M  V30 6315 H 611.361 0.733388 0.0728803 0
M  V30 6316 H 614.003 1.83068 -0.50853 0
M  V30 6317 H 612.153 3.72932 1.08875 0
M  V30 6318 H 613.825 4.38323 -1.43773 0
M  V30 6319 H 612.068 4.09977 -1.4178 0
M  V30 6320 H 612.739 5.49134 -0.561791 0
M  V30 6321 H 615.215 4.09072 0.761514 0
M  V30 6322 H 614.091 5.29732 1.43788 0
M  V30 6323 H 614.352 3.78269 2.28833 0
M  V30 6324 N 613.412 0.11024 1.57214 0
M  V30 6325 C 614.375 -0.828808 2.1369 0
M  V30 6326 C 615.375 -1.20059 1.06969 0
M  V30 6327 O 616.565 -1.12754 1.32786 0
M  V30 6328 C 613.697 -2.11959 2.66994 0
M  V30 6329 H 614.89 -0.338146 2.97988 0
M  V30 6330 H 612.443 -0.138913 1.55681 0
M  V30 6331 H 613.178 -2.65476 1.8626 0
M  V30 6332 H 612.963 -1.86258 3.45037 0
M  V30 6333 H 614.453 -2.79105 3.10629 0
M  V30 6334 N 614.89 -1.56749 -0.16351 0
M  V30 6335 C 616.138 -1.82074 -0.87713 0
M  V30 6336 C 616.459 -0.688503 -1.82441 0
M  V30 6337 O 615.729 0.291085 -1.93725 0
M  V30 6338 H 614.309 -0.671677 -0.326893 0
M  V30 6339 H 616.971 -1.9423 -0.161459 0
M  V30 6340 H 616.067 -2.76407 -1.44934 0
M  V30 6341 N 616.368 0.432326 -1.51554 0
M  V30 6342 C 617.301 1.54525 -1.6792 0
M  V30 6343 C 618.279 1.53831 -0.526764 0
M  V30 6344 O 619.463 1.72884 -0.751233 0
M  V30 6345 C 616.59 2.931 -1.69736 0
M  V30 6346 C 615.636 3.11799 -2.91005 0
M  V30 6347 S 616.469 2.87565 -4.51737 0
M  V30 6348 C 617.625 4.28412 -4.56305 0
M  V30 6349 H 617.858 1.4041 -2.62054 0
M  V30 6350 H 615.391 0.622357 -1.41301 0
M  V30 6351 H 617.349 3.72974 -1.71467 0
M  V30 6352 H 616.01 3.04574 -0.767705 0
M  V30 6353 H 615.203 4.13127 -2.8869 0
M  V30 6354 H 614.805 2.39757 -2.87041 0
M  V30 6355 H 617.097 5.21692 -4.32254 0
M  V30 6356 H 618.04 4.35758 -5.58141 0
M  V30 6357 H 618.448 4.12301 -3.85576 0
M  V30 6358 N 617.846 1.41785 0.688094 0
M  V30 6359 C 619.095 1.4084 1.44385 0
M  V30 6360 C 619.408 0.0234166 1.95586 0
M  V30 6361 O 620.614 -0.108647 2.71283 0
M  V30 6362 C 619.07 2.47675 2.61123 0
M  V30 6363 C 618.678 3.92116 2.16677 0
M  V30 6364 C 620.422 2.55877 3.38714 0
M  V30 6365 C 618.329 4.90487 3.30419 0
M  V30 6366 H 617.259 0.523787 0.542368 0
M  V30 6367 H 619.91 1.6764 0.74627 0
M  V30 6368 H 618.292 2.14018 3.33185 0
M  V30 6369 H 619.466 4.35059 1.51856 0
M  V30 6370 H 617.781 3.87642 1.5206 0
M  V30 6371 H 620.378 3.26553 4.234 0
M  V30 6372 H 620.721 1.59801 3.84408 0
M  V30 6373 H 621.254 2.88662 2.73714 0
M  V30 6374 H 617.993 5.87994 2.89729 0
M  V30 6375 H 617.513 4.52187 3.94065 0
M  V30 6376 H 619.192 5.11591 3.96085 0
M  V30 6377 N 619.324 -0.923095 1.27737 0
M  V30 6378 C 620.57 -1.67375 1.14514 0
M  V30 6379 C 620.903 -1.91751 -0.307424 0
M  V30 6380 O 620.178 -1.51119 -1.22447 0
M  V30 6381 C 620.461 -3.03745 1.9342 0
M  V30 6382 C 620.314 -2.86581 3.46686 0
M  V30 6383 C 621.633 -4.04144 1.74228 0
M  V30 6384 H 618.752 -0.607427 0.417374 0
M  V30 6385 H 621.394 -1.07089 1.56946 0
M  V30 6386 H 619.544 -3.55204 1.5736 0
M  V30 6387 H 621.216 -2.42203 3.92601 0
M  V30 6388 H 619.459 -2.21829 3.72793 0
M  V30 6389 H 620.13 -3.83381 3.97143 0
M  V30 6390 H 622.606 -3.61712 2.05678 0
M  V30 6391 H 621.482 -4.97543 2.31824 0
M  V30 6392 H 621.743 -4.36661 0.691373 0
M  V30 6393 N 620.802 -1.09834 -1.13024 0
M  V30 6394 C 622.05 -0.835297 -1.8403 0
M  V30 6395 C 622.371 0.640944 -1.84165 0
M  V30 6396 O 621.641 1.46517 -1.30037 0
M  V30 6397 H 620.221 -0.306018 -0.681441 0
M  V30 6398 H 622.883 -1.38734 -1.36891 0
M  V30 6399 H 621.979 -1.19258 -2.88416 0
M  V30 6400 N 622.28 1.30327 -0.886154 0
M  V30 6401 C 623.19 2.31854 -0.357866 0
M  V30 6402 C 624.206 1.65392 0.540502 0
M  V30 6403 O 625.382 1.96683 0.433339 0
M  V30 6404 C 622.447 3.44171 0.417999 0
M  V30 6405 C 621.508 4.26257 -0.510263 0
M  V30 6406 C 620.741 5.3321 0.228669 0
M  V30 6407 O 620.964 5.51542 1.45458 0
M  V30 6408 O 619.898 6.0042 -0.421832 0
M  V30 6409 H 623.724 2.78995 -1.19982 0
M  V30 6410 H 621.309 1.34518 -0.650028 0
M  V30 6411 H 623.191 4.12588 0.857251 0
M  V30 6412 H 621.866 2.99164 1.23623 0
M  V30 6413 H 620.773 3.60533 -0.99835 0
M  V30 6414 H 622.106 4.74871 -1.29454 0
M  V30 6415 N 623.758 0.647228 1.43697 0
M  V30 6416 C 624.988 0.16551 2.05936 0
M  V30 6417 C 625.396 -1.17164 1.48557 0
M  V30 6418 O 624.739 -1.73307 0.60914 0
M  V30 6419 C 624.801 -0.00648082 3.59499 0
M  V30 6420 C 624.465 1.25503 4.39429 0
M  V30 6421 C 625.462 2.18241 4.71876 0
M  V30 6422 C 623.147 1.49494 4.79538 0
M  V30 6423 C 625.141 3.33268 5.43333 0
M  V30 6424 C 622.828 2.64815 5.50742 0
M  V30 6425 C 623.826 3.56528 5.82561 0
M  V30 6426 O 623.514 4.69836 6.52311 0
M  V30 6427 H 623.246 0.0844124 0.670709 0
M  V30 6428 H 625.8 0.88638 1.8529 0
M  V30 6429 H 624.03 -0.782661 3.78697 0
M  V30 6430 H 625.719 -0.444794 4.03456 0
M  V30 6431 H 626.485 2.00946 4.41413 0
M  V30 6432 H 622.364 0.789912 4.54182 0
M  V30 6433 H 625.908 4.04874 5.68087 0
M  V30 6434 H 621.805 2.82047 5.8062 0
M  V30 6435 H 622.573 4.69024 6.70789 0
M  V30 6436 N 625.236 -1.5273 0.388769 0
M  V30 6437 C 626.483 -2.01573 -0.19359 0
M  V30 6438 C 626.811 -1.27525 -1.46859 0
M  V30 6439 O 626.066 -0.363926 -1.92286 0
M  V30 6440 C 626.365 -3.53765 -0.508445 0
M  V30 6441 C 626.031 -4.4582 0.674947 0
M  V30 6442 C 624.693 -4.70703 0.999596 0
M  V30 6443 C 627.045 -5.00138 1.46666 0
M  V30 6444 C 624.373 -5.47155 2.11751 0
M  V30 6445 C 626.725 -5.77812 2.57518 0
M  V30 6446 C 625.389 -6.00975 2.90492 0
M  V30 6447 H 624.659 -0.737606 -0.0708397 0
M  V30 6448 H 627.306 -1.84134 0.526006 0
M  V30 6449 H 625.611 -3.69274 -1.30936 0
M  V30 6450 H 627.308 -3.8905 -0.971664 0
M  V30 6451 H 623.898 -4.26616 0.411906 0
M  V30 6452 H 628.082 -4.8084 1.22909 0
M  V30 6453 H 623.338 -5.63314 2.3767 0
M  V30 6454 H 627.512 -6.18904 3.19267 0
M  V30 6455 H 625.139 -6.59998 3.77236 0
M  V30 6456 N 626.714 -0.118576 -1.57153 0
M  V30 6457 C 627.677 0.817464 -2.14127 0
M  V30 6458 C 628.677 1.1949 -1.07604 0
M  V30 6459 O 629.867 1.12048 -1.33382 0
M  V30 6460 C 626.999 2.10541 -2.68115 0
M  V30 6461 H 628.192 0.322339 -2.98163 0
M  V30 6462 H 625.745 0.130655 -1.55753 0
M  V30 6463 H 626.48 2.64485 -1.87665 0
M  V30 6464 H 626.265 1.84425 -3.4602 0
M  V30 6465 H 627.755 2.77453 -3.12105 0
M  V30 6466 N 628.193 1.56834 0.155195 0
M  V30 6467 C 629.103 2.009 1.21146 0
M  V30 6468 C 630.119 0.923029 1.475 0
M  V30 6469 O 631.295 1.23189 1.59331 0
M  V30 6470 C 628.36 2.37378 2.52691 0
M  V30 6471 C 627.421 3.59883 2.34057 0
M  V30 6472 C 626.654 3.94612 3.59329 0
M  V30 6473 O 626.877 3.30104 4.65175 0
M  V30 6474 O 625.811 4.87895 3.52479 0
M  V30 6475 H 629.637 2.9105 0.867371 0
M  V30 6476 H 627.222 1.44916 0.363298 0
M  V30 6477 H 629.104 2.61737 3.3026 0
M  V30 6478 H 627.779 1.50385 2.86646 0
M  V30 6479 H 626.686 3.40722 1.54465 0
M  V30 6480 H 628.019 4.47468 2.0502 0
M  V30 6481 N 629.671 -0.424282 1.51781 0
M  V30 6482 C 630.621 -1.51464 1.70419 0
M  V30 6483 C 631.605 -1.50911 0.558094 0
M  V30 6484 O 632.797 -1.57143 0.814552 0
M  V30 6485 C 629.926 -2.89539 1.84451 0
M  V30 6486 C 629.012 -2.94798 3.04886 0
M  V30 6487 N 629.403 -2.69778 4.27848 0
M  V30 6488 C 627.701 -3.25962 3.04408 0
M  V30 6489 C 628.402 -2.81216 5.09208 0
M  V30 6490 N 627.378 -3.13447 4.44131 0
M  V30 6491 H 631.18 -1.30892 2.63144 0
M  V30 6492 H 628.694 -0.631783 1.49607 0
M  V30 6493 H 630.691 -3.67998 1.95917 0
M  V30 6494 H 629.351 -3.11121 0.929168 0
M  V30 6495 H 630.362 -2.44458 4.56575 0
M  V30 6496 H 627.039 -3.53236 2.22555 0
M  V30 6497 H 628.429 -2.65715 6.17127 0
M  V30 6498 N 631.149 -1.42148 -0.680565 0
M  V30 6499 C 632.389 -1.4379 -1.45271 0
M  V30 6500 C 632.753 -0.0504426 -1.91934 0
M  V30 6501 O 633.954 0.0583916 -2.68737 0
M  V30 6502 C 632.225 -2.42904 -2.62168 0
M  V30 6503 S 633.784 -2.63201 -3.51099 0
M  V30 6504 H 630.602 -0.509185 -0.496237 0
M  V30 6505 H 633.204 -1.78706 -0.792744 0
M  V30 6506 H 631.908 -3.4249 -2.26116 0
M  V30 6507 H 631.439 -2.09394 -3.33043 0
M  V30 6508 H 633.454 -1.91068 -4.57938 0
M  V30 6509 N 632.627 0.916307 -1.28225 0
M  V30 6510 C 633.59 1.99996 -1.11957 0
M  V30 6511 C 634.59 1.60688 -0.0600152 0
M  V30 6512 O 635.78 1.71499 -0.30558 0
M  V30 6513 C 632.912 3.33458 -0.708411 0
M  V30 6514 H 634.105 2.15858 -2.08196 0
M  V30 6515 H 631.658 1.09863 -1.11175 0
M  V30 6516 H 632.393 3.23297 0.254859 0
M  V30 6517 H 632.178 3.63349 -1.47377 0
M  V30 6518 H 633.668 4.13014 -0.617164 0
M  V30 6519 N 634.105 1.10431 1.1244 0
M  V30 6520 C 635.053 0.747974 2.20246 0
M  V30 6521 C 636.047 -0.255848 1.67457 0
M  V30 6522 O 637.253 -0.116221 1.79624 0
M  V30 6523 H 633.628 0.223946 0.71788 0
M  V30 6524 H 635.599 1.6661 2.47556 0
M  V30 6525 C 634.348 0.195957 3.47147 0
M  V30 6526 H 633.671 0.959606 3.88113 0
M  V30 6527 H 635.111 -0.0153154 4.23997 0
M  V30 6528 C 633.57 -1.07132 3.19413 0
M  V30 6529 O 634.1 -2.15284 3.3914 0
M  V30 6530 N 632.306 -0.98994 2.73219 0
M  V30 6531 H 631.853 -0.109736 2.57366 0
M  V30 6532 H 631.811 -1.83856 2.55038 0
M  V30 6533 N 635.583 -1.29855 0.893053 0
M  V30 6534 C 636.811 -1.99976 0.530788 0
M  V30 6535 C 637.226 -1.66889 -0.882799 0
M  V30 6536 O 636.583 -0.910352 -1.58173 0
M  V30 6537 C 636.634 -3.54547 0.705587 0
M  V30 6538 O 636.355 -3.86458 2.06353 0
M  V30 6539 C 637.856 -4.41937 0.347387 0
M  V30 6540 H 635.076 -0.639129 0.204339 0
M  V30 6541 H 637.62 -1.65549 1.20057 0
M  V30 6542 H 635.775 -3.87311 0.0830685 0
M  V30 6543 H 636.189 -4.81146 2.08803 0
M  V30 6544 H 637.663 -5.4954 0.520557 0
M  V30 6545 H 638.14 -4.33339 -0.715139 0
M  V30 6546 H 638.746 -4.14633 0.946567 0
M  V30 6547 N 637.061 -0.65484 -1.43351 0
M  V30 6548 C 637.993 0.0744757 -2.29079 0
M  V30 6549 C 639.006 0.7855 -1.42596 0
M  V30 6550 O 640.195 0.642986 -1.66517 0
M  V30 6551 C 637.295 1.12859 -3.19556 0
M  V30 6552 C 636.468 0.495381 -4.34586 0
M  V30 6553 C 635.527 1.44659 -5.05925 0
M  V30 6554 O 634.553 0.954567 -5.61139 0
M  V30 6555 N 635.755 2.78051 -5.09576 0
M  V30 6556 H 638.52 -0.661346 -2.92312 0
M  V30 6557 H 636.081 -0.497744 -1.54059 0
M  V30 6558 H 638.073 1.76577 -3.64147 0
M  V30 6559 H 636.643 1.76636 -2.57912 0
M  V30 6560 H 635.863 -0.32092 -3.92892 0
M  V30 6561 H 637.151 0.0534203 -5.08772 0
M  V30 6562 H 636.549 3.20584 -4.66093 0
M  V30 6563 H 635.106 3.37068 -5.57878 0
M  V30 6564 N 638.539 1.52521 -0.396863 0
M  V30 6565 C 639.785 2.01971 0.183169 0
M  V30 6566 C 640.118 1.2825 1.45827 0
M  V30 6567 O 639.393 0.385179 1.90648 0
M  V30 6568 C 639.676 3.5736 0.443391 0
M  V30 6569 C 639.529 4.41743 -0.84753 0
M  V30 6570 C 640.848 4.22539 1.2308 0
M  V30 6571 H 637.967 0.734119 0.0650976 0
M  V30 6572 H 640.609 1.82519 -0.527918 0
M  V30 6573 H 638.759 3.74066 1.04914 0
M  V30 6574 H 640.431 4.36773 -1.48414 0
M  V30 6575 H 638.674 4.0845 -1.4612 0
M  V30 6576 H 639.345 5.48507 -0.620003 0
M  V30 6577 H 641.821 4.09857 0.718084 0
M  V30 6578 H 640.697 5.31227 1.38162 0
M  V30 6579 H 640.958 3.80675 2.24808 0
M  V30 6580 N 640.017 0.126909 1.57088 0
M  V30 6581 C 641.294 -0.573152 1.87014 0
M  V30 6582 C 641.674 -1.84297 1.02945 0
M  V30 6583 O 641.022 -2.28232 0.110573 0
M  V30 6584 C 641.232 -0.857984 3.38289 0
M  V30 6585 C 642.58 -1.20759 4.07066 0
M  V30 6586 O 643.604 -0.947992 3.43353 0
M  V30 6587 O 642.463 -1.69516 5.19545 0
M  V30 6588 H 639.557 -0.290082 0.774456 0
M  V30 6589 H 642.103 0.162008 1.68925 0
M  V30 6590 H 640.875 0.0415286 3.91278 0
M  V30 6591 H 640.498 -1.64803 3.61837 0
M  V30 6592 N 641.495 -1.56914 -0.146875 0
M  V30 6593 C 642.425 -2.01308 -1.1831 0
M  V30 6594 C 643.406 -0.892664 -1.44795 0
M  V30 6595 O 644.591 -1.16048 -1.55713 0
M  V30 6596 C 641.721 -2.3938 -2.51624 0
M  V30 6597 C 640.675 -3.54608 -2.3966 0
M  V30 6598 C 640.001 -3.78493 -3.77686 0
M  V30 6599 C 641.301 -4.87269 -1.88058 0
M  V30 6600 H 642.995 -2.88123 -0.813964 0
M  V30 6601 H 640.541 -1.38615 -0.3901 0
M  V30 6602 H 642.494 -2.69037 -3.24341 0
M  V30 6603 H 641.218 -1.49502 -2.90373 0
M  V30 6604 H 639.877 -3.25116 -1.69396 0
M  V30 6605 H 639.525 -2.85866 -4.13871 0
M  V30 6606 H 639.225 -4.56039 -3.70543 0
M  V30 6607 H 640.749 -4.10576 -4.51951 0
M  V30 6608 H 642.163 -5.15644 -2.50568 0
M  V30 6609 H 640.56 -5.68622 -1.91805 0
M  V30 6610 H 641.63 -4.77634 -0.836277 0
M  V30 6611 N 642.974 0.416227 -1.52004 0
M  V30 6612 C 643.884 1.53147 -1.77717 0
M  V30 6613 C 644.9 1.609 -0.662368 0
M  V30 6614 O 646.076 1.77747 -0.946991 0
M  V30 6615 C 643.141 2.88948 -1.91598 0
M  V30 6616 C 642.202 2.9114 -3.15493 0
M  V30 6617 C 641.435 4.20464 -3.28703 0
M  V30 6618 O 641.658 5.13981 -2.47345 0
M  V30 6619 O 640.592 4.29368 -4.21813 0
M  V30 6620 H 644.418 1.34357 -2.72363 0
M  V30 6621 H 642.003 0.601373 -1.36762 0
M  V30 6622 H 643.885 3.69505 -2.02593 0
M  V30 6623 H 642.56 3.07821 -1.00141 0
M  V30 6624 H 641.467 2.09461 -3.09962 0
M  V30 6625 H 642.8 2.77216 -4.06709 0
M  V30 6626 N 644.452 1.42507 0.673017 0
M  V30 6627 C 645.68 1.46473 1.46128 0
M  V30 6628 C 646.095 0.0765912 1.88645 0
M  V30 6629 O 645.452 -0.909057 1.58248 0
M  V30 6630 C 645.503 2.39339 2.70923 0
M  V30 6631 O 645.224 3.72752 2.3019 0
M  V30 6632 C 646.725 2.52343 3.64469 0
M  V30 6633 H 643.945 0.49812 0.449575 0
M  V30 6634 H 646.489 1.87041 0.826802 0
M  V30 6635 H 644.644 2.02019 3.30556 0
M  V30 6636 H 645.058 4.22503 3.10791 0
M  V30 6637 H 646.532 3.2144 4.48754 0
M  V30 6638 H 647.009 1.56189 4.1049 0
M  V30 6639 H 647.615 2.90392 3.10729 0
M  V30 6640 N 645.93 -0.909495 1.28709 0
M  V30 6641 C 646.877 -2.01245 1.13 0
M  V30 6642 C 647.847 -1.6608 0.0259684 0
M  V30 6643 O 649.032 -1.89835 0.191687 0
M  V30 6644 C 646.172 -3.35644 0.802315 0
M  V30 6645 C 645.285 -3.83653 1.98582 0
M  V30 6646 C 644.42 -5.06582 1.59837 0
M  V30 6647 C 643.459 -5.46934 2.74827 0
M  V30 6648 N 642.596 -6.61053 2.36546 0
M  V30 6649 H 647.436 -2.14013 2.0737 0
M  V30 6650 H 644.973 -1.0482 1.03205 0
M  V30 6651 H 646.931 -4.12963 0.593057 0
M  V30 6652 H 645.561 -3.22631 -0.104457 0
M  V30 6653 H 644.613 -3.02454 2.30708 0
M  V30 6654 H 645.925 -4.09515 2.84779 0
M  V30 6655 H 645.079 -5.91457 1.35143 0
M  V30 6656 H 643.818 -4.82537 0.707753 0
M  V30 6657 H 642.823 -4.60599 3.00215 0
M  V30 6658 H 644.048 -5.72965 3.64538 0
M  V30 6659 H 641.994 -6.3863 1.49959 0
M  V30 6660 H 641.911 -6.86662 3.16277 0
M  V30 6661 H 643.179 -7.49221 2.15146 0
M  V30 6662 N 647.408 -1.11026 -1.11852 0
M  V30 6663 C 648.636 -0.878818 -1.87308 0
M  V30 6664 C 649.051 0.57111 -1.79955 0
M  V30 6665 O 648.408 1.39409 -1.17777 0
M  V30 6666 C 648.459 -1.3264 -3.36287 0
M  V30 6667 O 648.18 -2.71948 -3.43476 0
M  V30 6668 C 649.681 -1.12974 -4.28663 0
M  V30 6669 H 646.901 -0.315015 -0.592458 0
M  V30 6670 H 649.445 -1.47649 -1.41492 0
M  V30 6671 H 647.6 -0.772269 -3.79625 0
M  V30 6672 H 648.014 -2.91241 -4.3621 0
M  V30 6673 H 649.488 -1.49198 -5.31454 0
M  V30 6674 H 649.965 -0.0689127 -4.39146 0
M  V30 6675 H 650.571 -1.67064 -3.91113 0
M  V30 6676 N 648.886 1.2938 -0.899927 0
M  V30 6677 C 649.816 2.30144 -0.39446 0
M  V30 6678 C 650.797 1.61611 0.530639 0
M  V30 6679 O 651.982 1.89119 0.441319 0
M  V30 6680 C 649.112 3.45229 0.37868 0
M  V30 6681 C 648.066 4.25564 -0.456012 0
M  V30 6682 C 647.392 5.32848 0.444637 0
M  V30 6683 C 648.692 4.93651 -1.70605 0
M  V30 6684 H 650.386 2.72673 -1.23653 0
M  V30 6685 H 647.932 1.31086 -0.596034 0
M  V30 6686 H 649.885 4.14797 0.743037 0
M  V30 6687 H 648.609 3.01545 1.25453 0
M  V30 6688 H 647.268 3.57704 -0.802704 0
M  V30 6689 H 646.916 4.85408 1.31863 0
M  V30 6690 H 646.616 5.87497 -0.110154 0
M  V30 6691 H 648.14 6.05268 0.805182 0
M  V30 6692 H 649.554 5.55655 -1.41141 0
M  V30 6693 H 647.951 5.58233 -2.20217 0
M  V30 6694 H 649.021 4.18926 -2.4419 0
M  V30 6695 N 650.364 0.662433 1.43002 0
M  V30 6696 C 651.274 -0.0239199 2.34588 0
M  V30 6697 C 652.29 -0.802255 1.54402 0
M  V30 6698 O 653.466 -0.747401 1.87018 0
M  V30 6699 C 650.531 -0.972098 3.32793 0
M  V30 6700 C 649.592 -0.189673 4.28881 0
M  V30 6701 C 648.825 -1.09269 5.22395 0
M  V30 6702 O 649.048 -2.33209 5.20547 0
M  V30 6703 O 647.982 -0.560136 5.99288 0
M  V30 6704 H 651.808 0.730171 2.94792 0
M  V30 6705 H 649.393 0.422635 1.43297 0
M  V30 6706 H 651.275 -1.51676 3.93157 0
M  V30 6707 H 649.95 -1.70626 2.75079 0
M  V30 6708 H 648.857 0.398794 3.71968 0
M  V30 6709 H 650.19 0.50511 4.89601 0
M  V30 6710 N 651.842 -1.52309 0.404946 0
M  V30 6711 C 652.789 -2.26898 -0.422597 0
M  V30 6712 C 653.759 -1.2914 -1.04461 0
M  V30 6713 O 654.944 -1.57996 -1.06967 0
M  V30 6714 C 652.084 -3.09053 -1.53559 0
M  V30 6715 C 651.197 -4.21762 -0.934908 0
M  V30 6716 C 650.332 -4.91283 -2.02025 0
M  V30 6717 C 649.371 -5.95962 -1.39628 0
M  V30 6718 N 648.508 -6.59017 -2.42159 0
M  V30 6719 H 653.348 -2.97188 0.219903 0
M  V30 6720 H 650.885 -1.46607 0.120282 0
M  V30 6721 H 652.843 -3.54987 -2.19181 0
M  V30 6722 H 651.473 -2.40942 -2.14818 0
M  V30 6723 H 650.525 -3.80029 -0.167854 0
M  V30 6724 H 651.837 -4.96864 -0.439073 0
M  V30 6725 H 650.991 -5.40601 -2.75383 0
M  V30 6726 H 649.73 -4.15741 -2.54973 0
M  V30 6727 H 648.735 -5.45968 -0.648023 0
M  V30 6728 H 649.96 -6.73445 -0.874553 0
M  V30 6729 H 647.906 -5.86306 -2.94247 0
M  V30 6730 H 647.823 -7.2978 -1.97376 0
M  V30 6731 H 649.091 -7.12974 -3.15099 0
M  V30 6732 N 653.32 -0.135238 -1.57019 0
M  V30 6733 C 654.567 0.518794 -1.95742 0
M  V30 6734 C 654.895 1.65642 -1.01947 0
M  V30 6735 O 654.15 1.95645 -0.0464016 0
M  V30 6736 C 654.449 1.07694 -3.40788 0
M  V30 6737 C 654.115 0.058992 -4.50861 0
M  V30 6738 C 652.777 -0.220872 -4.80693 0
M  V30 6739 C 655.129 -0.633856 -5.17331 0
M  V30 6740 C 652.457 -1.19959 -5.74305 0
M  V30 6741 C 654.809 -1.60131 -6.11997 0
M  V30 6742 C 653.473 -1.889 -6.40213 0
M  V30 6743 H 652.743 0.18984 -0.716269 0
M  V30 6744 H 655.39 -0.219581 -1.90237 0
M  V30 6745 H 653.695 1.89241 -3.43067 0
M  V30 6746 H 655.392 1.59137 -3.68071 0
M  V30 6747 H 651.982 0.287304 -4.27636 0
M  V30 6748 H 656.166 -0.430823 -4.94427 0
M  V30 6749 H 651.422 -1.42905 -5.94465 0
M  V30 6750 H 655.596 -2.14376 -6.62583 0
M  V30 6751 H 653.223 -2.64891 -7.12556 0
M  V30 6752 N 654.798 1.5699 0.138552 0
M  V30 6753 C 656.044 1.84081 0.85099 0
M  V30 6754 C 656.377 0.718107 1.80435 0
M  V30 6755 O 655.652 -0.277633 1.92508 0
M  V30 6756 C 655.935 3.21699 1.61808 0
M  V30 6757 C 655.788 4.44544 0.685633 0
M  V30 6758 C 657.107 3.5664 2.57868 0
M  V30 6759 H 654.226 0.669592 0.307922 0
M  V30 6760 H 656.868 1.89646 0.11588 0
M  V30 6761 H 655.018 3.17086 2.24474 0
M  V30 6762 H 656.69 4.61248 0.0693179 0
M  V30 6763 H 654.933 4.338 -0.00421993 0
M  V30 6764 H 655.604 5.3746 1.25858 0
M  V30 6765 H 658.08 3.61918 2.05316 0
M  V30 6766 H 656.956 4.53946 3.08584 0
M  V30 6767 H 657.217 2.83036 3.39622 0
M  V30 6768 N 656.276 -0.40816 1.52223 0
M  V30 6769 C 657.223 -1.49737 1.75635 0
M  V30 6770 C 658.193 -1.5493 0.598824 0
M  V30 6771 O 659.378 -1.71487 0.83648 0
M  V30 6772 C 656.518 -2.87174 1.91376 0
M  V30 6773 C 655.631 -2.91283 3.19027 0
M  V30 6774 C 654.766 -4.20026 3.25195 0
M  V30 6775 C 653.805 -4.18113 4.47044 0
M  V30 6776 N 652.942 -5.38429 4.50598 0
M  V30 6777 H 657.782 -1.29075 2.68596 0
M  V30 6778 H 655.319 -0.626518 1.33091 0
M  V30 6779 H 657.277 -3.66959 1.98486 0
M  V30 6780 H 655.907 -3.06329 1.01795 0
M  V30 6781 H 654.959 -2.03984 3.21084 0
M  V30 6782 H 656.271 -2.85734 4.08849 0
M  V30 6783 H 655.425 -5.08204 3.31382 0
M  V30 6784 H 654.164 -4.28271 2.33313 0
M  V30 6785 H 653.169 -3.28325 4.41002 0
M  V30 6786 H 654.394 -4.11507 5.40221 0
M  V30 6787 H 652.34 -5.4734 3.616 0
M  V30 6788 H 652.257 -5.34879 5.34266 0
M  V30 6789 H 653.525 -6.28557 4.61016 0
M  V30 6790 N 657.755 -1.42862 -0.66545 0
M  V30 6791 C 659.003 -1.43546 -1.42264 0
M  V30 6792 C 659.324 -0.0563116 -1.94919 0
M  V30 6793 O 658.594 0.906568 -1.73661 0
M  V30 6794 H 657.174 -0.528464 -0.527953 0
M  V30 6795 H 659.836 -1.78363 -0.785665 0
M  V30 6796 H 658.932 -2.14079 -2.27105 0
M  V30 6797 N 659.233 0.902656 -1.29189 0
M  V30 6798 C 660.165 2.01149 -1.09872 0
M  V30 6799 C 661.178 1.62732 -0.0471046 0
M  V30 6800 O 662.367 1.76107 -0.29132 0
M  V30 6801 C 659.467 3.32612 -0.649818 0
M  V30 6802 C 658.64 3.99574 -1.7793 0
M  V30 6803 C 657.699 5.09325 -1.32191 0
M  V30 6804 O 656.725 5.31919 -2.02611 0
M  V30 6805 N 657.927 5.80185 -0.191171 0
M  V30 6806 H 660.692 2.18276 -2.05368 0
M  V30 6807 H 658.253 1.07466 -1.2109 0
M  V30 6808 H 660.245 4.03375 -0.327199 0
M  V30 6809 H 658.815 3.11876 0.212597 0
M  V30 6810 H 658.035 3.22213 -2.27095 0
M  V30 6811 H 659.323 4.41056 -2.53668 0
M  V30 6812 H 658.721 5.64312 0.396016 0
M  V30 6813 H 657.278 6.5176 0.0721001 0
M  V30 6814 N 660.711 1.11618 1.11262 0
M  V30 6815 C 661.621 0.78898 2.20935 0
M  V30 6816 C 662.637 -0.21867 1.7262 0
M  V30 6817 O 663.813 -0.0543826 2.01327 0
M  V30 6818 C 660.878 0.239014 3.45875 0
M  V30 6819 C 659.939 1.3055 4.08968 0
M  V30 6820 C 659.172 0.781687 5.27944 0
M  V30 6821 O 659.395 -0.387605 5.69082 0
M  V30 6822 O 658.329 1.54734 5.81671 0
M  V30 6823 H 662.155 1.70477 2.51339 0
M  V30 6824 H 659.74 0.892203 1.19834 0
M  V30 6825 H 661.622 -0.0632312 4.21353 0
M  V30 6826 H 660.297 -0.649454 3.17118 0
M  V30 6827 H 659.204 1.66079 3.35214 0
M  V30 6828 H 660.537 2.16743 4.41909 0
M  V30 6829 N 662.189 -1.289 0.906776 0
M  V30 6830 C 663.152 -2.25777 0.394656 0
M  V30 6831 C 664.152 -1.53621 -0.475119 0
M  V30 6832 O 665.342 -1.71949 -0.279165 0
M  V30 6833 C 662.474 -3.38113 -0.43499 0
M  V30 6834 H 663.667 -2.72592 1.25033 0
M  V30 6835 H 661.22 -1.40463 0.685547 0
M  V30 6836 H 661.955 -2.96648 -1.31036 0
M  V30 6837 H 661.74 -3.91647 0.188334 0
M  V30 6838 H 663.23 -4.10168 -0.784365 0
M  V30 6839 N 663.667 -0.670007 -1.42649 0
M  V30 6840 C 664.897 -0.198252 -2.05647 0
M  V30 6841 C 665.305 1.14786 -1.50402 0
M  V30 6842 O 664.648 1.72316 -0.636634 0
M  V30 6843 C 664.71 -0.0507132 -3.59464 0
M  V30 6844 C 664.374 -1.32478 -4.37377 0
M  V30 6845 C 665.371 -2.2572 -4.68344 0
M  V30 6846 C 663.056 -1.57104 -4.77099 0
M  V30 6847 C 665.05 -3.4187 -5.37963 0
M  V30 6848 C 662.737 -2.73543 -5.46459 0
M  V30 6849 C 663.735 -3.65751 -5.76815 0
M  V30 6850 O 663.423 -4.80154 -6.44753 0
M  V30 6851 H 663.155 -0.0950721 -0.669281 0
M  V30 6852 H 665.709 -0.915745 -1.83857 0
M  V30 6853 H 663.939 0.722314 -3.79894 0
M  V30 6854 H 665.628 0.380552 -4.04112 0
M  V30 6855 H 666.394 -2.07943 -4.38161 0
M  V30 6856 H 662.273 -0.862069 -4.52868 0
M  V30 6857 H 665.817 -4.13861 -5.61574 0
M  V30 6858 H 661.714 -2.91248 -5.7606 0
M  V30 6859 H 662.482 -4.79637 -6.63243 0
M  V30 6860 N 665.145 1.52092 -0.413018 0
M  V30 6861 C 666.078 2.23613 0.455234 0
M  V30 6862 C 667.056 1.2459 1.04481 0
M  V30 6863 O 668.24 1.53653 1.09193 0
M  V30 6864 C 665.367 2.96775 1.63224 0
M  V30 6865 C 664.413 4.10261 1.16568 0
M  V30 6866 S 665.246 5.35348 0.127633 0
M  V30 6867 C 666.402 6.1204 1.30987 0
M  V30 6868 H 666.635 2.96911 -0.152042 0
M  V30 6869 H 664.168 1.53134 -0.197343 0
M  V30 6870 H 666.126 3.39532 2.30713 0
M  V30 6871 H 664.787 2.23113 2.21087 0
M  V30 6872 H 663.98 4.6064 2.04515 0
M  V30 6873 H 663.582 3.6964 0.569386 0
M  V30 6874 H 665.874 6.39651 2.23276 0
M  V30 6875 H 666.817 7.03022 0.846533 0
M  V30 6876 H 667.225 5.43161 1.53743 0
M  V30 6877 N 666.623 0.143563 1.56945 0
M  V30 6878 C 667.57 -0.797433 2.16586 0
M  V30 6879 C 668.54 -1.24654 1.09775 0
M  V30 6880 O 669.725 -1.31968 1.37801 0
M  V30 6881 C 666.865 -2.03253 2.78895 0
M  V30 6882 C 665.978 -1.62954 4.00087 0
M  V30 6883 C 665.113 -2.81617 4.50406 0
M  V30 6884 C 664.152 -2.37675 5.64072 0
M  V30 6885 N 663.289 -3.49335 6.09023 0
M  V30 6886 H 668.129 -0.282023 2.96662 0
M  V30 6887 H 665.666 -0.127494 1.46546 0
M  V30 6888 H 667.624 -2.75653 3.13163 0
M  V30 6889 H 666.254 -2.52211 2.01469 0
M  V30 6890 H 665.306 -0.803322 3.71821 0
M  V30 6891 H 666.618 -1.26679 4.82446 0
M  V30 6892 H 665.772 -3.62212 4.86711 0
M  V30 6893 H 664.511 -3.21134 3.67048 0
M  V30 6894 H 663.516 -1.55519 5.27346 0
M  V30 6895 H 664.741 -1.99247 6.49213 0
M  V30 6896 H 662.687 -3.8848 5.28601 0
M  V30 6897 H 662.604 -3.17064 6.86299 0
M  V30 6898 H 663.872 -4.30297 6.49973 0
M  V30 6899 N 668.101 -1.57061 -0.130224 0
M  V30 6900 C 669.326 -1.88802 -0.858409 0
M  V30 6901 C 669.751 -0.734353 -1.73173 0
M  V30 6902 O 669.109 0.315529 -1.78533 0
M  V30 6903 C 669.157 -3.19228 -1.67708 0
M  V30 6904 O 668.261 -3.04343 -2.78297 0
M  V30 6905 H 667.602 -0.619849 -0.238083 0
M  V30 6906 H 670.132 -2.04271 -0.115995 0
M  V30 6907 H 670.142 -3.51669 -2.06864 0
M  V30 6908 H 668.817 -4.02793 -1.0359 0
M  V30 6909 H 667.394 -2.83346 -2.42425 0
M  V30 6910 N 669.579 0.400081 -1.52437 0
M  V30 6911 C 670.509 1.4947 -1.7939 0
M  V30 6912 C 671.49 1.57383 -0.645329 0
M  V30 6913 O 672.675 1.72511 -0.891826 0
M  V30 6914 C 669.805 2.87201 -1.95276 0
M  V30 6915 C 668.759 2.94134 -3.10917 0
M  V30 6916 C 668.085 4.34207 -3.1204 0
M  V30 6917 C 669.385 2.64791 -4.50203 0
M  V30 6918 H 671.079 1.27165 -2.71052 0
M  V30 6919 H 668.625 0.610312 -1.30427 0
M  V30 6920 H 670.578 3.63772 -2.12715 0
M  V30 6921 H 669.302 3.10819 -1.00294 0
M  V30 6922 H 667.961 2.20009 -2.93243 0
M  V30 6923 H 667.609 4.54848 -2.14761 0
M  V30 6924 H 667.309 4.39768 -3.89715 0
M  V30 6925 H 668.833 5.127 -3.31619 0
M  V30 6926 H 670.247 3.31083 -4.68035 0
M  V30 6927 H 668.644 2.81717 -5.29864 0
M  V30 6928 H 669.714 1.60184 -4.57678 0
M  V30 6929 N 671.057 1.43213 0.657864 0
M  V30 6930 C 672.303 1.44798 1.41991 0
M  V30 6931 C 672.636 0.070256 1.94073 0
M  V30 6932 O 671.911 -0.908177 1.71995 0
M  V30 6933 C 672.194 2.4865 2.60471 0
M  V30 6934 C 672.047 3.95679 2.13911 0
M  V30 6935 C 673.366 2.49292 3.62686 0
M  V30 6936 H 670.485 0.527244 0.514959 0
M  V30 6937 H 673.127 1.74733 0.74621 0
M  V30 6938 H 671.277 2.23254 3.17946 0
M  V30 6939 H 672.949 4.32116 1.61472 0
M  V30 6940 H 671.192 4.08733 1.45325 0
M  V30 6941 H 671.863 4.6395 2.99089 0
M  V30 6942 H 674.339 2.71917 3.14961 0
M  V30 6943 H 673.215 3.23907 4.43143 0
M  V30 6944 H 673.476 1.52502 4.14964 0
M  V30 6945 N 672.536 -0.895792 1.29666 0
M  V30 6946 C 673.446 -2.03329 1.17024 0
M  V30 6947 C 674.462 -1.73753 0.0925962 0
M  V30 6948 O 675.638 -1.99071 0.305431 0
M  V30 6949 C 672.703 -3.36072 0.851841 0
M  V30 6950 C 671.764 -3.7914 2.01373 0
M  V30 6951 C 670.997 -5.05549 1.71043 0
M  V30 6952 O 671.22 -5.66874 0.633213 0
M  V30 6953 O 670.154 -5.44764 2.5596 0
M  V30 6954 H 673.98 -2.16918 2.12556 0
M  V30 6955 H 671.565 -1.02007 1.09156 0
M  V30 6956 H 673.447 -4.15729 0.689006 0
M  V30 6957 H 672.122 -3.23616 -0.0736634 0
M  V30 6958 H 671.029 -3.00233 2.23183 0
M  V30 6959 H 672.362 -3.96186 2.92058 0
M  V30 6960 N 674.014 -1.12206 -1.10668 0
M  V30 6961 C 675.239 -0.898938 -1.86906 0
M  V30 6962 C 675.664 0.546346 -1.79991 0
M  V30 6963 O 675.022 1.38655 -1.1681 0
M  V30 6964 C 675.07 -1.37529 -3.33344 0
M  V30 6965 O 674.174 -0.55218 -4.08687 0
M  V30 6966 H 673.515 -0.323163 -0.580053 0
M  V30 6967 H 676.045 -1.49355 -1.39837 0
M  V30 6968 H 676.055 -1.3733 -3.84193 0
M  V30 6969 H 674.73 -2.42767 -3.37693 0
M  V30 6970 H 673.307 -0.620947 -3.67694 0
M  V30 6971 N 675.492 1.28418 -0.913599 0
M  V30 6972 C 676.439 2.27301 -0.400373 0
M  V30 6973 C 677.409 1.57582 0.52509 0
M  V30 6974 O 678.594 1.85482 0.447318 0
M  V30 6975 C 675.734 3.43284 0.35361 0
M  V30 6976 C 674.847 4.27752 -0.604341 0
M  V30 6977 C 673.982 5.30934 0.168075 0
M  V30 6978 C 673.021 6.07065 -0.783499 0
M  V30 6979 N 672.158 7.02086 -0.0446112 0
M  V30 6980 H 676.998 2.70579 -1.24865 0
M  V30 6981 H 674.535 1.33067 -0.627028 0
M  V30 6982 H 676.493 4.09322 0.806945 0
M  V30 6983 H 675.123 3.00997 1.16623 0
M  V30 6984 H 674.175 3.61759 -1.17621 0
M  V30 6985 H 675.487 4.80682 -1.33216 0
M  V30 6986 H 674.641 6.02855 0.681979 0
M  V30 6987 H 673.38 4.78771 0.928947 0
M  V30 6988 H 672.385 5.33995 -1.30878 0
M  V30 6989 H 673.61 6.61317 -1.54392 0
M  V30 6990 H 671.556 6.52273 0.698272 0
M  V30 6991 H 671.473 7.52637 -0.712258 0
M  V30 6992 H 672.741 7.78205 0.449102 0
M  V30 6993 N 676.97 0.677563 1.42291 0
M  V30 6994 C 678.218 0.200578 2.01102 0
M  V30 6995 C 678.539 -1.19803 1.53858 0
M  V30 6996 O 677.809 -1.80496 0.761439 0
M  V30 6997 H 676.389 0.0711634 0.743603 0
M  V30 6998 H 679.051 0.874691 1.7417 0
M  V30 6999 H 678.147 0.204 3.11433 0
M  V30 7000 N 678.448 -1.51871 0.421078 0
M  V30 7001 C 679.676 -2.06356 -0.14994 0
M  V30 7002 C 680.091 -1.29006 -1.37851 0
M  V30 7003 O 679.448 -0.345139 -1.79207 0
M  V30 7004 C 679.499 -3.58185 -0.488454 0
M  V30 7005 O 679.22 -4.32611 0.691341 0
M  V30 7006 C 680.721 -4.29129 -1.11191 0
M  V30 7007 H 677.941 -0.67083 -0.0151186 0
M  V30 7008 H 680.485 -1.95638 0.595476 0
M  V30 7009 H 678.64 -3.68871 -1.18376 0
M  V30 7010 H 679.054 -5.22927 0.405906 0
M  V30 7011 H 680.528 -5.36501 -1.29889 0
M  V30 7012 H 681.005 -3.86371 -2.0884 0
M  V30 7013 H 681.611 -4.22843 -0.456458 0
M  V30 7014 N 679.926 -0.151884 -1.56866 0
M  V30 7015 C 680.836 0.798876 -2.20579 0
M  V30 7016 C 681.852 1.268 -1.19154 0
M  V30 7017 O 683.028 1.32418 -1.51748 0
M  V30 7018 C 680.093 2.01861 -2.81874 0
M  V30 7019 C 679.154 1.59825 -3.9844 0
M  V30 7020 C 678.387 2.75984 -4.56802 0
M  V30 7021 O 678.61 3.92331 -4.14044 0
M  V30 7022 O 677.544 2.51175 -5.46987 0
M  V30 7023 H 681.37 0.2865 -3.02346 0
M  V30 7024 H 678.955 0.0753806 -1.4921 0
M  V30 7025 H 680.837 2.73235 -3.20813 0
M  V30 7026 H 679.512 2.52042 -2.03117 0
M  V30 7027 H 678.419 0.854601 -3.64208 0
M  V30 7028 H 679.752 1.14355 -4.78731 0
M  V30 7029 N 681.404 1.57128 0.121893 0
M  V30 7030 C 682.681 1.75664 0.860327 0
M  V30 7031 C 683.061 0.726585 1.98202 0
M  V30 7032 O 682.409 -0.24999 2.27128 0
M  V30 7033 C 682.619 3.20571 1.37968 0
M  V30 7034 C 683.967 3.82988 1.83317 0
M  V30 7035 O 684.991 3.24156 1.47654 0
M  V30 7036 O 683.85 4.86393 2.49168 0
M  V30 7037 H 680.944 0.719153 0.408348 0
M  V30 7038 H 683.49 1.6937 0.105859 0
M  V30 7039 H 682.262 3.87056 0.57477 0
M  V30 7040 H 681.885 3.31392 2.19694 0
M  V30 7041 N 682.882 -0.391992 1.52647 0
M  V30 7042 C 684.128 -1.139 1.67793 0
M  V30 7043 C 684.461 -1.89711 0.41514 0
M  V30 7044 O 683.736 -1.85431 -0.586979 0
M  V30 7045 C 684.019 -2.11966 2.91105 0
M  V30 7046 C 683.872 -1.39939 4.27478 0
M  V30 7047 C 685.191 -3.1243 3.09961 0
M  V30 7048 H 682.31 -0.412707 0.610608 0
M  V30 7049 H 684.952 -0.422725 1.85238 0
M  V30 7050 H 683.102 -2.73048 2.76364 0
M  V30 7051 H 684.774 -0.818439 4.53982 0
M  V30 7052 H 683.017 -0.701246 4.28095 0
M  V30 7053 H 683.688 -2.1158 5.09841 0
M  V30 7054 H 686.164 -2.61435 3.23714 0
M  V30 7055 H 685.04 -3.78294 3.97725 0
M  V30 7056 H 685.301 -3.81127 2.24042 0
M  V30 7057 N 684.36 -1.4356 -0.65026 0
M  V30 7058 C 685.607 -1.45333 -1.41012 0
M  V30 7059 C 685.935 -0.0787282 -1.94341 0
M  V30 7060 O 685.19 0.916715 -1.72901 0
M  V30 7061 C 685.489 -2.44528 -2.60654 0
M  V30 7062 C 685.155 -3.90331 -2.25727 0
M  V30 7063 C 683.817 -4.3004 -2.15914 0
M  V30 7064 C 686.169 -4.822 -1.97821 0
M  V30 7065 C 683.497 -5.59568 -1.76354 0
M  V30 7066 C 685.849 -6.12095 -1.59759 0
M  V30 7067 C 684.513 -6.50778 -1.48473 0
M  V30 7068 H 683.783 -0.531813 -0.516 0
M  V30 7069 H 686.43 -1.76657 -0.739219 0
M  V30 7070 H 684.735 -2.06619 -3.3289 0
M  V30 7071 H 686.432 -2.43155 -3.18868 0
M  V30 7072 H 683.022 -3.58905 -2.34276 0
M  V30 7073 H 687.206 -4.5229 -2.04322 0
M  V30 7074 H 682.462 -5.88376 -1.66205 0
M  V30 7075 H 686.636 -6.82751 -1.37198 0
M  V30 7076 H 684.263 -7.5105 -1.17591 0
M  V30 7077 N 685.838 0.888903 -1.30139 0
M  V30 7078 C 686.785 1.99422 -1.16188 0
M  V30 7079 C 687.755 1.66017 -0.0523869 0
M  V30 7080 O 688.94 1.89506 -0.221864 0
M  V30 7081 C 686.08 3.34325 -0.855612 0
M  V30 7082 C 685.193 3.80445 -2.0466 0
M  V30 7083 C 684.328 5.03975 -1.67876 0
M  V30 7084 C 683.367 5.42492 -2.83493 0
M  V30 7085 N 682.504 6.57206 -2.47032 0
M  V30 7086 H 687.344 2.10687 -2.10749 0
M  V30 7087 H 684.881 1.03165 -1.04859 0
M  V30 7088 H 686.839 4.11968 -0.658681 0
M  V30 7089 H 685.469 3.22756 0.0531155 0
M  V30 7090 H 684.521 2.98745 -2.3549 0
M  V30 7091 H 685.833 4.04933 -2.91257 0
M  V30 7092 H 684.987 5.89232 -1.44535 0
M  V30 7093 H 683.726 4.8135 -0.784431 0
M  V30 7094 H 682.731 4.55764 -3.07505 0
M  V30 7095 H 683.956 5.67093 -3.73607 0
M  V30 7096 H 681.902 6.36164 -1.601 0
M  V30 7097 H 681.819 6.81543 -3.27161 0
M  V30 7098 H 683.087 7.45704 -2.27038 0
M  V30 7099 N 687.317 1.12792 1.10072 0
M  V30 7100 C 688.566 0.880232 1.81479 0
M  V30 7101 C 688.879 -0.595575 1.86312 0
M  V30 7102 O 690.085 -0.959979 2.53962 0
M  V30 7103 C 688.541 1.52514 3.25987 0
M  V30 7104 C 688.149 3.036 3.29441 0
M  V30 7105 C 689.893 1.35788 4.02196 0
M  V30 7106 C 687.8 3.61007 4.68431 0
M  V30 7107 H 686.73 0.325654 0.680048 0
M  V30 7108 H 689.381 1.35485 1.23758 0
M  V30 7109 H 687.763 0.978188 3.83728 0
M  V30 7110 H 688.937 3.64819 2.81502 0
M  V30 7111 H 687.252 3.19765 2.66719 0
M  V30 7112 H 689.849 1.76096 5.0487 0
M  V30 7113 H 690.192 0.301972 4.15203 0
M  V30 7114 H 690.725 1.87426 3.50879 0
M  V30 7115 H 687.464 4.66375 4.60625 0
M  V30 7116 H 686.984 3.04564 5.16721 0
M  V30 7117 H 688.663 3.60289 5.37402 0
M  V30 7118 N 688.795 -1.27931 0.920396 0
M  V30 7119 C 689.742 -2.27085 0.412422 0
M  V30 7120 C 690.712 -1.57858 -0.516725 0
M  V30 7121 O 691.897 -1.85717 -0.437475 0
M  V30 7122 C 689.037 -3.43466 -0.335399 0
M  V30 7123 C 688.15 -4.27425 0.627017 0
M  V30 7124 C 687.285 -5.31016 -0.139916 0
M  V30 7125 C 686.324 -6.06641 0.815683 0
M  V30 7126 N 685.461 -7.02052 0.0818439 0
M  V30 7127 H 690.301 -2.69913 1.26298 0
M  V30 7128 H 687.838 -1.32732 0.634076 0
M  V30 7129 H 689.796 -4.09744 -0.785226 0
M  V30 7130 H 688.426 -3.01611 -1.15025 0
M  V30 7131 H 687.478 -3.6113 1.19537 0
M  V30 7132 H 688.79 -4.79969 1.35763 0
M  V30 7133 H 687.944 -6.03208 -0.649998 0
M  V30 7134 H 686.683 -4.79257 -0.903543 0
M  V30 7135 H 685.688 -5.33294 1.33708 0
M  V30 7136 H 686.913 -6.60489 1.57897 0
M  V30 7137 H 684.859 -6.52634 -0.663671 0
M  V30 7138 H 684.776 -7.52249 0.752163 0
M  V30 7139 H 686.044 -7.78432 -0.407825 0
M  V30 7140 N 690.273 -0.685099 -1.4193 0
M  V30 7141 C 691.221 -0.00165985 -2.326 0
M  V30 7142 C 692.215 0.779678 -1.50391 0
M  V30 7143 O 693.421 0.68648 -1.66395 0
M  V30 7144 H 689.796 0.0182616 -0.751778 0
M  V30 7145 H 691.767 -0.783592 -2.87928 0
M  V30 7146 C 690.516 0.928385 -3.35077 0
M  V30 7147 H 689.839 0.336578 -3.98381 0
M  V30 7148 H 691.279 1.37509 -4.01083 0
M  V30 7149 C 689.738 2.03964 -2.68142 0
M  V30 7150 O 690.268 3.12727 -2.5212 0
M  V30 7151 N 688.474 1.81433 -2.27003 0
M  V30 7152 H 688.021 0.929807 -2.40234 0
M  V30 7153 H 687.979 2.55973 -1.82552 0
M  V30 7154 N 691.751 1.51645 -0.429126 0
M  V30 7155 C 693.167 1.59394 -0.080994 0
M  V30 7156 C 693.367 1.44064 1.40882 0
M  V30 7157 O 692.423 1.27771 2.17786 0
M  V30 7158 C 693.736 2.94779 -0.593773 0
M  V30 7159 C 695.284 3.08067 -0.553494 0
M  V30 7160 C 695.759 4.45963 -1.04311 0
M  V30 7161 N 697.25 4.5226 -1.00076 0
M  V30 7162 C 697.985 5.57268 -1.35056 0
M  V30 7163 N 697.481 6.69734 -1.77282 0
M  V30 7164 N 699.274 5.47582 -1.26925 0
M  V30 7165 H 691.425 1.59856 -1.39857 0
M  V30 7166 H 693.688 0.753095 -0.575805 0
M  V30 7167 H 693.394 3.11342 -1.63583 0
M  V30 7168 H 693.268 3.77197 -0.0142202 0
M  V30 7169 H 695.655 2.91177 0.479556 0
M  V30 7170 H 695.736 2.27508 -1.16935 0
M  V30 7171 H 695.38 4.63598 -2.07459 0
M  V30 7172 H 695.31 5.25049 -0.403873 0
M  V30 7173 H 697.801 3.71537 -0.690564 0
M  V30 7174 H 698.114 7.4587 -2.02232 0
M  V30 7175 H 696.459 6.70963 -1.81202 0
M  V30 7176 H 699.65 4.58604 -0.93809 0
M  V30 7177 H 699.823 6.29308 -1.54516 0
M  V30 7178 N 693.229 0.160201 1.56784 0
M  V30 7179 C 694.162 -0.812797 2.13234 0
M  V30 7180 C 695.14 -1.2335 1.05942 0
M  V30 7181 O 696.324 -1.32725 1.33852 0
M  V30 7182 C 693.451 -2.09311 2.66283 0
M  V30 7183 C 692.497 -1.8173 3.85845 0
M  V30 7184 S 693.33 -0.996473 5.26147 0
M  V30 7185 C 694.486 -2.28769 5.82594 0
M  V30 7186 H 694.719 -0.332794 2.95432 0
M  V30 7187 H 692.252 -0.0542971 1.54304 0
M  V30 7188 H 694.21 -2.82854 2.97496 0
M  V30 7189 H 692.871 -2.54425 1.84192 0
M  V30 7190 H 692.064 -2.76699 4.21253 0
M  V30 7191 H 691.666 -1.16289 3.55462 0
M  V30 7192 H 693.958 -3.24319 5.9483 0
M  V30 7193 H 694.901 -1.97846 6.79899 0
M  V30 7194 H 695.309 -2.40021 5.10931 0
M  V30 7195 N 694.707 -1.5719 -0.113559 0
M  V30 7196 C 695.654 -2.00736 -1.13901 0
M  V30 7197 C 696.624 -0.88044 -1.40846 0
M  V30 7198 O 697.809 -1.14507 -1.5262 0
M  V30 7199 C 694.949 -2.42132 -2.45899 0
M  V30 7200 C 694.062 -3.68264 -2.25844 0
M  V30 7201 C 693.197 -3.98617 -3.5111 0
M  V30 7202 C 692.236 -5.17915 -3.26236 0
M  V30 7203 N 691.373 -5.44111 -4.4372 0
M  V30 7204 H 696.213 -2.88128 -0.760677 0
M  V30 7205 H 693.75 -1.42523 -0.364099 0
M  V30 7206 H 695.708 -2.6417 -3.22908 0
M  V30 7207 H 694.338 -1.57775 -2.81615 0
M  V30 7208 H 693.39 -3.53809 -1.39726 0
M  V30 7209 H 694.702 -4.55425 -2.03444 0
M  V30 7210 H 693.856 -4.21333 -4.36536 0
M  V30 7211 H 692.595 -3.09942 -3.76546 0
M  V30 7212 H 691.6 -4.95038 -2.39202 0
M  V30 7213 H 692.825 -6.08172 -3.02165 0
M  V30 7214 H 690.771 -4.58394 -4.69266 0
M  V30 7215 H 690.688 -6.25606 -4.24444 0
M  V30 7216 H 691.956 -5.71351 -5.30263 0
M  V30 7217 N 696.185 0.383891 -1.52853 0
M  V30 7218 C 697.462 1.14296 -1.58732 0
M  V30 7219 C 697.842 2.07585 -0.383611 0
M  V30 7220 O 697.19 2.1971 0.627661 0
M  V30 7221 C 697.4 1.89816 -2.92867 0
M  V30 7222 C 698.748 2.44998 -3.46787 0
M  V30 7223 O 699.772 1.99966 -2.94774 0
M  V30 7224 O 698.631 3.2727 -4.37672 0
M  V30 7225 H 695.725 0.52326 -0.640413 0
M  V30 7226 H 698.271 0.388631 -1.6519 0
M  V30 7227 H 697.043 1.21626 -3.71918 0
M  V30 7228 H 696.666 2.72199 -2.89816 0
M  V30 7229 N 697.663 1.43903 0.642637 0
M  V30 7230 C 698.909 1.46296 1.40447 0
M  V30 7231 C 699.242 0.0908361 1.93987 0
M  V30 7232 O 698.517 -0.889884 1.72949 0
M  V30 7233 C 698.8 2.51399 2.57819 0
M  V30 7234 C 698.653 3.97926 2.09702 0
M  V30 7235 C 699.972 2.53125 3.60022 0
M  V30 7236 H 697.091 0.532676 0.509338 0
M  V30 7237 H 699.733 1.75515 0.727635 0
M  V30 7238 H 697.883 2.26614 3.1556 0
M  V30 7239 H 699.555 4.33804 1.5688 0
M  V30 7240 H 697.798 4.10252 1.40982 0
M  V30 7241 H 698.469 4.67096 2.94152 0
M  V30 7242 H 700.945 2.75242 3.12059 0
M  V30 7243 H 699.821 3.28589 4.39682 0
M  V30 7244 H 700.082 1.56895 4.13324 0
M  V30 7245 N 699.141 -0.881989 1.30609 0
M  V30 7246 C 700.074 -1.99066 1.11571 0
M  V30 7247 C 701.052 -1.62584 0.022516 0
M  V30 7248 O 702.236 -1.87671 0.176644 0
M  V30 7249 C 699.363 -3.3134 0.702237 0
M  V30 7250 C 698.409 -3.86807 1.79673 0
M  V30 7251 S 699.242 -4.13735 3.39976 0
M  V30 7252 C 700.398 -5.49024 3.00538 0
M  V30 7253 H 700.631 -2.1491 2.05429 0
M  V30 7254 H 698.164 -1.03074 1.14957 0
M  V30 7255 H 700.122 -4.07796 0.470415 0
M  V30 7256 H 698.783 -3.13349 -0.217034 0
M  V30 7257 H 697.976 -4.82397 1.45977 0
M  V30 7258 H 697.578 -3.17102 1.98298 0
M  V30 7259 H 699.87 -6.30208 2.48684 0
M  V30 7260 H 700.813 -5.8766 3.95046 0
M  V30 7261 H 701.221 -5.11726 2.3832 0
M  V30 7262 N 700.619 -1.13374 -1.09472 0
M  V30 7263 C 701.896 -0.806329 -1.78207 0
M  V30 7264 C 702.276 0.702191 -1.99079 0
M  V30 7265 O 701.624 1.63931 -1.59182 0
M  V30 7266 C 701.834 -1.59271 -3.10538 0
M  V30 7267 C 703.182 -1.78509 -3.85253 0
M  V30 7268 O 704.206 -1.55866 -3.20288 0
M  V30 7269 O 703.065 -2.16287 -5.01879 0
M  V30 7270 H 700.159 -0.29435 -0.772843 0
M  V30 7271 H 702.705 -1.23833 -1.16033 0
M  V30 7272 H 701.477 -2.61792 -2.90828 0
M  V30 7273 H 701.1 -1.15562 -3.80436 0
M  V30 7274 N 702.098 1.27442 -0.927168 0
M  V30 7275 C 703.375 1.89473 -0.485742 0
M  V30 7276 C 703.755 1.83922 1.03614 0
M  V30 7277 O 703.103 1.28409 1.89007 0
M  V30 7278 C 703.313 3.33417 -1.03123 0
M  V30 7279 C 704.661 4.10333 -1.0914 0
M  V30 7280 O 705.685 3.4243 -0.98082 0
M  V30 7281 O 704.544 5.31737 -1.26165 0
M  V30 7282 H 701.638 0.812124 -0.156154 0
M  V30 7283 H 704.184 1.35713 -1.01882 0
M  V30 7284 H 702.956 3.31747 -2.07508 0
M  V30 7285 H 702.579 3.94695 -0.479767 0
M  V30 7286 N 703.576 0.692616 1.41565 0
M  V30 7287 C 704.524 0.0139952 2.32596 0
M  V30 7288 C 705.518 -0.771691 1.50802 0
M  V30 7289 O 706.724 -0.677646 1.66757 0
M  V30 7290 H 703.099 -0.0142745 0.751865 0
M  V30 7291 H 705.07 0.798851 2.87508 0
M  V30 7292 C 703.819 -0.910602 3.35564 0
M  V30 7293 H 703.142 -0.315446 3.98554 0
M  V30 7294 H 704.582 -1.3538 4.01806 0
M  V30 7295 C 703.041 -2.02539 2.6922 0
M  V30 7296 O 703.571 -3.11386 2.53775 0
M  V30 7297 N 701.777 -1.80227 2.27962 0
M  V30 7298 H 701.324 -0.917054 2.40724 0
M  V30 7299 H 701.282 -2.55001 1.83907 0
M  V30 7300 N 705.054 -1.51416 0.437162 0
M  V30 7301 C 706.3 -2.02386 -0.129555 0
M  V30 7302 C 706.633 -1.32071 -1.42376 0
M  V30 7303 O 705.908 -0.43559 -1.8956 0
M  V30 7304 C 706.191 -3.5841 -0.348487 0
M  V30 7305 C 706.044 -4.39341 0.964352 0
M  V30 7306 C 707.363 -4.25654 -1.11834 0
M  V30 7307 H 704.482 -0.735587 -0.0456109 0
M  V30 7308 H 707.124 -1.81055 0.576124 0
M  V30 7309 H 705.274 -3.76716 -0.949592 0
M  V30 7310 H 706.946 -4.32685 1.59942 0
M  V30 7311 H 705.189 -4.04432 1.56898 0
M  V30 7312 H 705.86 -5.4667 0.765212 0
M  V30 7313 H 708.336 -4.11617 -0.609165 0
M  V30 7314 H 707.212 -5.34704 -1.24029 0
M  V30 7315 H 707.473 -3.86502 -2.14636 0
M  V30 7316 N 706.532 -0.168513 -1.56696 0
M  V30 7317 C 707.78 0.476216 -1.96409 0
M  V30 7318 C 708.101 1.63968 -1.05544 0
M  V30 7319 O 707.371 1.95525 -0.121235 0
M  V30 7320 H 705.951 0.178921 -0.725256 0
M  V30 7321 H 708.613 -0.249042 -1.93302 0
M  V30 7322 H 707.709 0.838094 -3.00637 0
M  V30 7323 N 708.01 1.57248 0.105221 0
M  V30 7324 C 709.259 1.84756 0.809198 0
M  V30 7325 C 709.572 0.756262 1.80389 0
M  V30 7326 O 710.778 0.918158 2.55504 0
M  V30 7327 C 709.234 3.27613 1.48989 0
M  V30 7328 C 708.842 4.44788 0.535484 0
M  V30 7329 C 710.586 3.64356 2.17819 0
M  V30 7330 C 708.493 5.78676 1.22019 0
M  V30 7331 H 707.423 0.689139 0.305946 0
M  V30 7332 H 710.074 1.83395 0.0620371 0
M  V30 7333 H 708.456 3.23485 2.28415 0
M  V30 7334 H 709.63 4.60243 -0.226557 0
M  V30 7335 H 707.945 4.16374 -0.0465769 0
M  V30 7336 H 710.542 4.61663 2.69761 0
M  V30 7337 H 710.885 2.92474 2.96251 0
M  V30 7338 H 711.418 3.70328 1.45264 0
M  V30 7339 H 708.157 6.53763 0.476875 0
M  V30 7340 H 707.677 5.67083 1.9539 0
M  V30 7341 H 709.356 6.22897 1.74952 0
M  V30 7342 N 709.488 -0.375779 1.53054 0
M  V30 7343 C 710.735 -1.11948 1.68742 0
M  V30 7344 C 711.063 -1.89596 0.434015 0
M  V30 7345 O 710.318 -1.86787 -0.583867 0
M  V30 7346 C 710.617 -2.11356 2.88207 0
M  V30 7347 C 710.283 -1.50266 4.25124 0
M  V30 7348 C 708.945 -1.33333 4.62359 0
M  V30 7349 C 711.297 -1.05976 5.10312 0
M  V30 7350 C 708.625 -0.706765 5.82427 0
M  V30 7351 C 710.977 -0.447241 6.31017 0
M  V30 7352 C 709.641 -0.265314 6.66973 0
M  V30 7353 H 708.911 -0.409648 0.61747 0
M  V30 7354 H 711.558 -0.402492 1.87222 0
M  V30 7355 H 709.863 -2.89322 2.64197 0
M  V30 7356 H 711.56 -2.68833 2.97539 0
M  V30 7357 H 708.15 -1.64437 3.95801 0
M  V30 7358 H 712.334 -1.17855 4.82104 0
M  V30 7359 H 707.59 -0.554132 6.08884 0
M  V30 7360 H 711.764 -0.0958064 6.96334 0
M  V30 7361 H 709.391 0.222267 7.59875 0
M  V30 7362 N 710.966 -1.44241 -0.634997 0
M  V30 7363 C 712.382 -1.28043 -0.952742 0
M  V30 7364 C 712.582 -0.21338 -2.00367 0
M  V30 7365 O 711.638 0.402042 -2.49279 0
M  V30 7366 C 712.951 -2.65076 -1.41968 0
M  V30 7367 C 714.499 -2.72755 -1.53537 0
M  V30 7368 C 714.974 -4.10249 -2.03616 0
M  V30 7369 N 716.465 -4.12406 -2.10892 0
M  V30 7370 C 717.2 -5.15641 -2.50803 0
M  V30 7371 N 716.696 -6.29239 -2.89879 0
M  V30 7372 N 718.489 -5.02995 -2.50903 0
M  V30 7373 H 710.64 -2.12315 0.060098 0
M  V30 7374 H 712.903 -0.947326 -0.0357325 0
M  V30 7375 H 712.609 -3.44213 -0.721804 0
M  V30 7376 H 712.483 -2.91704 -2.39141 0
M  V30 7377 H 714.87 -1.93939 -2.22422 0
M  V30 7378 H 714.951 -2.49872 -0.547496 0
M  V30 7379 H 714.595 -4.8954 -1.35327 0
M  V30 7380 H 714.525 -4.30507 -3.03268 0
M  V30 7381 H 717.016 -3.30417 -1.83393 0
M  V30 7382 H 717.329 -7.03827 -3.19135 0
M  V30 7383 H 715.674 -6.32683 -2.8764 0
M  V30 7384 H 718.865 -4.13306 -2.19763 0
M  V30 7385 H 719.038 -5.83574 -2.81683 0
M  V30 7386 N 712.444 0.87505 -1.31075 0
M  V30 7387 C 713.721 1.60976 -1.11113 0
M  V30 7388 C 714.101 2.08409 0.336006 0
M  V30 7389 O 713.449 1.85858 1.32924 0
M  V30 7390 C 713.659 2.77166 -2.12085 0
M  V30 7391 C 715.007 3.47254 -2.44335 0
M  V30 7392 O 716.031 2.87367 -2.10472 0
M  V30 7393 O 714.89 4.55276 -3.02301 0
M  V30 7394 H 711.984 0.707982 -0.427424 0
M  V30 7395 H 714.53 0.920957 -1.42536 0
M  V30 7396 H 713.302 2.39494 -3.09449 0
M  V30 7397 H 712.925 3.53737 -1.81538 0
M  V30 7398 N 713.922 1.13953 1.08869 0
M  V30 7399 C 715.17 0.903023 1.80803 0
M  V30 7400 C 715.491 -0.572151 1.86417 0
M  V30 7401 O 714.761 -1.41589 1.35386 0
M  V30 7402 H 713.341 0.331099 0.669614 0
M  V30 7403 H 716.003 1.43719 1.31647 0
M  V30 7404 H 715.099 1.29881 2.83791 0
M  V30 7405 N 715.4 -1.26948 0.933913 0
M  V30 7406 C 716.811 -1.76058 0.621324 0
M  V30 7407 C 717.162 -1.76175 -0.863522 0
M  V30 7408 O 716.287 -1.36921 -1.67576 0
M  V30 7409 C 716.882 -3.19713 1.12111 0
M  V30 7410 C 715.441 -3.66465 0.859074 0
M  V30 7411 C 714.588 -2.46186 1.27624 0
M  V30 7412 H 717.539 -1.13127 1.11301 0
M  V30 7413 H 717.56 -3.77566 0.471608 0
M  V30 7414 H 717.072 -3.19596 2.20182 0
M  V30 7415 H 715.173 -3.72021 -0.207566 0
M  V30 7416 H 715.286 -4.55636 1.48098 0
M  V30 7417 H 713.65 -2.45042 0.694727 0
M  V30 7418 H 714.433 -2.48774 2.36572 0
M  V30 7419 N 716.879 -0.700114 -1.41195 0
M  V30 7420 C 717.829 -0.0144098 -2.27995 0
M  V30 7421 C 718.813 0.748249 -1.42443 0
M  V30 7422 O 720.005 0.622995 -1.65674 0
M  V30 7423 C 717.134 0.917938 -3.308 0
M  V30 7424 C 716.22 0.151286 -4.2383 0
M  V30 7425 N 716.611 -0.85732 -4.98481 0
M  V30 7426 C 714.909 0.386108 -4.44326 0
M  V30 7427 C 715.61 -1.31663 -5.66604 0
M  V30 7428 N 714.586 -0.641689 -5.39799 0
M  V30 7429 H 718.388 -0.787662 -2.83149 0
M  V30 7430 H 715.902 -0.531344 -1.53462 0
M  V30 7431 H 717.899 1.42437 -3.91813 0
M  V30 7432 H 716.559 1.69074 -2.77208 0
M  V30 7433 H 717.57 -1.2377 -5.02893 0
M  V30 7434 H 714.247 1.13644 -4.01735 0
M  V30 7435 H 715.637 -2.15384 -6.36443 0
M  V30 7436 N 718.357 1.51182 -0.445186 0
M  V30 7437 C 719.287 2.30821 0.352686 0
M  V30 7438 C 720.268 1.36576 1.01395 0
M  V30 7439 O 721.453 1.65497 1.01609 0
M  V30 7440 C 718.583 3.15593 1.44976 0
M  V30 7441 C 717.537 4.1818 0.911553 0
M  V30 7442 C 716.863 4.91523 2.10497 0
M  V30 7443 C 718.163 5.22266 -0.059418 0
M  V30 7444 H 719.857 2.97771 -0.311936 0
M  V30 7445 H 717.403 1.43201 -0.151461 0
M  V30 7446 H 719.356 3.70091 2.01521 0
M  V30 7447 H 718.08 2.4648 2.14278 0
M  V30 7448 H 716.739 3.64746 0.368264 0
M  V30 7449 H 716.387 4.18906 2.78437 0
M  V30 7450 H 716.087 5.60898 1.7512 0
M  V30 7451 H 717.611 5.48847 2.6758 0
M  V30 7452 H 719.025 5.71789 0.415985 0
M  V30 7453 H 717.422 5.99213 -0.326152 0
M  V30 7454 H 718.492 4.7461 -0.993631 0
M  V30 7455 N 719.835 0.176821 1.56605 0
M  V30 7456 C 720.745 -0.763682 2.21822 0
M  V30 7457 C 721.761 -1.24889 1.21156 0
M  V30 7458 O 722.937 -1.29987 1.53836 0
M  V30 7459 C 720.002 -1.97352 2.8505 0
M  V30 7460 C 719.063 -1.53466 4.00932 0
M  V30 7461 C 718.296 -2.68682 4.61135 0
M  V30 7462 O 718.519 -3.85694 4.20234 0
M  V30 7463 O 717.453 -2.42442 5.50913 0
M  V30 7464 H 721.279 -0.238363 3.02763 0
M  V30 7465 H 718.864 -0.0516331 1.49311 0
M  V30 7466 H 720.746 -2.68096 3.25119 0
M  V30 7467 H 719.421 -2.48779 2.07101 0
M  V30 7468 H 718.328 -0.796551 3.65521 0
M  V30 7469 H 719.661 -1.06724 4.8049 0
M  V30 7470 N 721.313 -1.57302 -0.09688 0
M  V30 7471 C 722.26 -2.01933 -1.11766 0
M  V30 7472 C 723.23 -0.895329 -1.39904 0
M  V30 7473 O 724.415 -1.16119 -1.51397 0
M  V30 7474 C 721.555 -2.44726 -2.43317 0
M  V30 7475 C 720.668 -3.70639 -2.21925 0
M  V30 7476 C 719.803 -4.02318 -3.46862 0
M  V30 7477 C 718.842 -5.21346 -3.20725 0
M  V30 7478 N 717.979 -5.48787 -4.37924 0
M  V30 7479 H 722.819 -2.88919 -0.730075 0
M  V30 7480 H 720.356 -1.42901 -0.348962 0
M  V30 7481 H 722.314 -2.6758 -3.20088 0
M  V30 7482 H 720.944 -1.60753 -2.79926 0
M  V30 7483 H 719.996 -3.55271 -1.35965 0
M  V30 7484 H 721.308 -4.57557 -1.98603 0
M  V30 7485 H 720.462 -4.25939 -4.32042 0
M  V30 7486 H 719.201 -3.13918 -3.73238 0
M  V30 7487 H 718.206 -4.97547 -2.33938 0
M  V30 7488 H 719.431 -6.11343 -2.95697 0
M  V30 7489 H 717.377 -4.63346 -4.64378 0
M  V30 7490 H 717.294 -6.30073 -4.17785 0
M  V30 7491 H 718.562 -5.76943 -5.24173 0
M  V30 7492 N 722.791 0.367657 -1.53252 0
M  V30 7493 C 723.754 1.43308 -1.78873 0
M  V30 7494 C 724.754 1.46671 -0.659115 0
M  V30 7495 O 725.944 1.47468 -0.927306 0
M  V30 7496 C 723.076 2.82442 -1.90892 0
M  V30 7497 H 724.269 1.21864 -2.74024 0
M  V30 7498 H 721.822 0.600668 -1.44297 0
M  V30 7499 H 722.557 3.09202 -0.978 0
M  V30 7500 H 722.342 2.81399 -2.73051 0
M  V30 7501 H 723.832 3.59601 -2.12314 0
M  V30 7502 N 724.269 1.44576 0.627338 0
M  V30 7503 C 725.515 1.47777 1.38888 0
M  V30 7504 C 725.848 0.111406 1.9388 0
M  V30 7505 O 725.123 -0.87149 1.73883 0
M  V30 7506 C 725.406 2.54119 2.55138 0
M  V30 7507 C 725.259 4.00128 2.0547 0
M  V30 7508 C 726.578 2.56929 3.57317 0
M  V30 7509 H 723.697 0.538048 0.50366 0
M  V30 7510 H 726.339 1.76277 0.708978 0
M  V30 7511 H 724.489 2.29948 3.13139 0
M  V30 7512 H 726.161 4.35444 1.5227 0
M  V30 7513 H 724.404 4.11724 1.36623 0
M  V30 7514 H 725.075 4.7019 2.89181 0
M  V30 7515 H 727.551 2.78536 3.09122 0
M  V30 7516 H 726.427 3.33234 4.36173 0
M  V30 7517 H 726.688 1.6127 4.11636 0
M  V30 7518 N 725.747 -0.868086 1.31537 0
M  V30 7519 C 726.694 -1.97548 1.19346 0
M  V30 7520 C 727.664 -1.65913 0.0787922 0
M  V30 7521 O 728.849 -1.89129 0.251985 0
M  V30 7522 C 725.989 -3.32922 0.908692 0
M  V30 7523 C 725.102 -3.77141 2.10687 0
M  V30 7524 C 724.237 -5.01241 1.75873 0
M  V30 7525 C 723.276 -5.37914 2.92088 0
M  V30 7526 N 722.413 -6.53192 2.57457 0
M  V30 7527 H 727.253 -2.07307 2.14074 0
M  V30 7528 H 724.79 -1.01483 1.06487 0
M  V30 7529 H 726.748 -4.10867 0.724138 0
M  V30 7530 H 725.378 -3.228 -0.0017611 0
M  V30 7531 H 724.43 -2.94961 2.40213 0
M  V30 7532 H 725.742 -4.00248 2.97663 0
M  V30 7533 H 724.896 -5.86858 1.53891 0
M  V30 7534 H 723.635 -4.80041 0.86091 0
M  V30 7535 H 722.64 -4.50814 3.14717 0
M  V30 7536 H 723.865 -5.61077 3.82582 0
M  V30 7537 H 721.811 -6.33536 1.702 0
M  V30 7538 H 721.728 -6.76252 3.37963 0
M  V30 7539 H 722.996 -7.41997 2.38873 0
M  V30 7540 N 727.225 -1.14528 -1.08264 0
M  V30 7541 C 728.135 -0.84728 -2.18765 0
M  V30 7542 C 729.151 0.172826 -1.7314 0
M  V30 7543 O 730.327 0.000985336 -2.014 0
M  V30 7544 C 727.392 -0.330633 -3.4512 0
M  V30 7545 C 726.453 -1.41348 -4.05363 0
M  V30 7546 C 725.686 -0.921387 -5.25686 0
M  V30 7547 O 725.909 0.236587 -5.69909 0
M  V30 7548 O 724.843 -1.70101 -5.77364 0
M  V30 7549 H 728.669 -1.7708 -2.46731 0
M  V30 7550 H 726.254 -0.923661 -1.17426 0
M  V30 7551 H 728.136 -0.0485053 -4.21372 0
M  V30 7552 H 726.811 0.565147 -3.18728 0
M  V30 7553 H 725.718 -1.74908 -3.30693 0
M  V30 7554 H 727.051 -2.28383 -4.36007 0
M  V30 7555 N 728.703 1.26451 -0.940633 0
M  V30 7556 C 729.633 2.28773 -0.467479 0
M  V30 7557 C 730.614 1.63218 0.478955 0
M  V30 7558 O 731.799 1.90427 0.380929 0
M  V30 7559 C 728.929 3.46259 0.268656 0
M  V30 7560 C 727.883 4.23898 -0.591171 0
M  V30 7561 C 727.209 5.33993 0.274891 0
M  V30 7562 C 728.509 4.87974 -1.86223 0
M  V30 7563 H 730.203 2.68601 -1.32265 0
M  V30 7564 H 727.749 1.29123 -0.637436 0
M  V30 7565 H 729.702 4.16951 0.610696 0
M  V30 7566 H 728.426 3.05383 1.15796 0
M  V30 7567 H 727.085 3.54969 -0.916098 0
M  V30 7568 H 726.733 4.89358 1.16353 0
M  V30 7569 H 726.433 5.86849 -0.297006 0
M  V30 7570 H 727.957 6.07523 0.612213 0
M  V30 7571 H 729.371 5.50883 -1.58747 0
M  V30 7572 H 727.768 5.50945 -2.37866 0
M  V30 7573 H 728.838 4.10945 -2.57394 0
M  V30 7574 N 730.181 0.707592 1.40822 0
M  V30 7575 C 731.091 0.0507246 2.34545 0
M  V30 7576 C 732.107 -0.752727 1.56876 0
M  V30 7577 O 733.283 -0.687524 1.89302 0
M  V30 7578 C 730.348 -0.865731 3.35717 0
M  V30 7579 C 729.409 -0.0531313 4.29267 0
M  V30 7580 C 728.642 -0.925939 5.25606 0
M  V30 7581 O 728.865 -2.16531 5.27703 0
M  V30 7582 O 727.799 -0.369194 6.00767 0
M  V30 7583 H 731.625 0.823587 2.9232 0
M  V30 7584 H 729.21 0.46801 1.4188 0
M  V30 7585 H 731.092 -1.39091 3.97783 0
M  V30 7586 H 729.767 -1.61788 2.80368 0
M  V30 7587 H 728.674 0.516931 3.70511 0
M  V30 7588 H 730.007 0.660617 4.87747 0
M  V30 7589 N 731.66 -1.50943 0.453197 0
M  V30 7590 C 732.57 -2.31884 -0.355963 0
M  V30 7591 C 733.586 -1.41481 -1.01287 0
M  V30 7592 O 734.762 -1.74546 -1.00477 0
M  V30 7593 C 731.827 -3.15668 -1.43369 0
M  V30 7594 C 730.888 -4.2187 -0.795253 0
M  V30 7595 C 730.121 -5.0165 -1.82162 0
M  V30 7596 O 730.344 -4.82266 -3.04592 0
M  V30 7597 O 729.278 -5.85311 -1.40336 0
M  V30 7598 H 733.104 -3.02162 0.305248 0
M  V30 7599 H 730.689 -1.47839 0.215398 0
M  V30 7600 H 732.571 -3.67709 -2.05836 0
M  V30 7601 H 731.246 -2.48137 -2.07869 0
M  V30 7602 H 730.153 -3.73867 -0.132106 0
M  V30 7603 H 731.486 -4.9182 -0.193484 0
M  V30 7604 N 733.138 -0.185124 -1.56509 0
M  V30 7605 C 734.068 0.735098 -2.21627 0
M  V30 7606 C 735.049 1.2288 -1.1762 0
M  V30 7607 O 736.234 1.27945 -1.46095 0
M  V30 7608 C 733.364 1.95889 -2.86783 0
M  V30 7609 C 732.318 1.6005 -3.96948 0
M  V30 7610 C 731.644 2.90009 -4.4922 0
M  V30 7611 C 732.944 0.818008 -5.15855 0
M  V30 7612 H 734.638 0.192274 -2.98782 0
M  V30 7613 H 732.184 0.0910393 -1.43712 0
M  V30 7614 H 734.137 2.60779 -3.31017 0
M  V30 7615 H 732.861 2.52608 -2.07018 0
M  V30 7616 H 731.52 0.975237 -3.5339 0
M  V30 7617 H 731.168 3.44797 -3.6623 0
M  V30 7618 H 730.868 2.66778 -5.23549 0
M  V30 7619 H 732.392 3.55904 -4.9615 0
M  V30 7620 H 733.806 1.36979 -5.56695 0
M  V30 7621 H 732.203 0.684207 -5.96187 0
M  V30 7622 H 733.273 -0.182939 -4.84555 0
M  V30 7623 N 734.616 1.57351 0.0885366 0
M  V30 7624 C 735.846 1.90355 0.80303 0
M  V30 7625 C 736.254 0.777678 1.72478 0
M  V30 7626 O 735.597 -0.258908 1.81866 0
M  V30 7627 C 735.659 3.18674 1.66395 0
M  V30 7628 C 735.323 4.4778 0.913327 0
M  V30 7629 C 736.32 5.19345 0.240148 0
M  V30 7630 C 734.005 4.94434 0.885462 0
M  V30 7631 C 735.999 6.35803 -0.450854 0
M  V30 7632 C 733.686 6.10802 0.190679 0
M  V30 7633 C 734.684 6.81337 -0.476295 0
M  V30 7634 O 734.372 7.95488 -1.15992 0
M  V30 7635 H 734.104 0.634035 0.234469 0
M  V30 7636 H 736.658 2.05287 0.0681959 0
M  V30 7637 H 734.888 2.99906 2.44117 0
M  V30 7638 H 736.577 3.37458 2.2556 0
M  V30 7639 H 737.343 4.84339 0.253092 0
M  V30 7640 H 733.222 4.39417 1.39406 0
M  V30 7641 H 736.766 6.90795 -0.972019 0
M  V30 7642 H 732.663 6.45261 0.175603 0
M  V30 7643 H 733.431 8.11509 -1.06749 0
M  V30 7644 N 736.094 -0.359525 1.53444 0
M  V30 7645 C 737.041 -1.44073 1.8031 0
M  V30 7646 C 738.011 -1.52946 0.647811 0
M  V30 7647 O 739.196 -1.68739 0.890614 0
M  V30 7648 C 736.336 -2.80941 2.00416 0
M  V30 7649 C 735.449 -2.80986 3.28132 0
M  V30 7650 C 734.584 -4.09468 3.38393 0
M  V30 7651 C 733.623 -4.03679 4.60119 0
M  V30 7652 N 732.76 -5.23821 4.675 0
M  V30 7653 H 737.6 -1.20464 2.72566 0
M  V30 7654 H 735.137 -0.583859 1.35017 0
M  V30 7655 H 737.095 -3.60459 2.1006 0
M  V30 7656 H 735.725 -3.02936 1.11489 0
M  V30 7657 H 734.777 -1.93666 3.27411 0
M  V30 7658 H 736.089 -2.72583 4.17732 0
M  V30 7659 H 735.243 -4.97404 3.47382 0
M  V30 7660 H 733.982 -4.20632 2.4682 0
M  V30 7661 H 732.987 -3.14129 4.51224 0
M  V30 7662 H 734.212 -3.94112 5.5304 0
M  V30 7663 H 732.158 -5.35559 3.7883 0
M  V30 7664 H 732.075 -5.17611 5.51013 0
M  V30 7665 H 733.343 -6.13572 4.8078 0
M  V30 7666 N 737.572 -1.44907 -0.619662 0
M  V30 7667 C 738.519 -1.52654 -1.73105 0
M  V30 7668 C 739.489 -0.373334 -1.6185 0
M  V30 7669 O 740.674 -0.585143 -1.81606 0
M  V30 7670 C 737.814 -1.48769 -3.11387 0
M  V30 7671 C 736.927 -2.74551 -3.33535 0
M  V30 7672 C 736.062 -2.62421 -4.61854 0
M  V30 7673 C 735.101 -3.83312 -4.77219 0
M  V30 7674 N 734.238 -3.69789 -5.96826 0
M  V30 7675 H 739.078 -2.47605 -1.65819 0
M  V30 7676 H 736.615 -1.22875 -0.808719 0
M  V30 7677 H 738.573 -1.44507 -3.91374 0
M  V30 7678 H 737.203 -0.573783 -3.1766 0
M  V30 7679 H 736.255 -2.88953 -2.47408 0
M  V30 7680 H 737.567 -3.64253 -3.40765 0
M  V30 7681 H 736.721 -2.56056 -5.50019 0
M  V30 7682 H 735.46 -1.70298 -4.57001 0
M  V30 7683 H 734.465 -3.90049 -3.87481 0
M  V30 7684 H 735.69 -4.76486 -4.83878 0
M  V30 7685 H 733.636 -2.80426 -5.93041 0
M  V30 7686 H 733.553 -4.53116 -6.05163 0
M  V30 7687 H 734.821 -3.67335 -6.87521 0
M  V30 7688 N 739.05 0.861098 -1.31996 0
M  V30 7689 C 740.275 1.65264 -1.2531 0
M  V30 7690 C 740.7 1.87265 0.177007 0
M  V30 7691 O 740.058 1.4208 1.12619 0
M  V30 7692 C 740.106 2.99284 -2.0115 0
M  V30 7693 O 739.21 3.89508 -1.3549 0
M  V30 7694 H 738.551 0.50409 -0.432192 0
M  V30 7695 H 741.081 1.07297 -1.74208 0
M  V30 7696 H 741.091 3.49154 -2.11081 0
M  V30 7697 H 739.766 2.82591 -3.05148 0
M  V30 7698 H 738.343 3.47966 -1.34066 0
M  V30 7699 N 740.528 1.15101 1.07655 0
M  V30 7700 C 741.475 0.844958 2.14777 0
M  V30 7701 C 742.445 -0.200798 1.64882 0
M  V30 7702 O 743.63 -0.0690278 1.90675 0
M  V30 7703 C 740.77 0.337018 3.4345 0
M  V30 7704 C 739.883 1.44398 4.07153 0
M  V30 7705 C 739.018 0.892487 5.23649 0
M  V30 7706 C 738.057 1.9766 5.79307 0
M  V30 7707 N 737.194 1.44171 6.87138 0
M  V30 7708 H 742.034 1.76242 2.40297 0
M  V30 7709 H 739.571 0.879435 1.17917 0
M  V30 7710 H 741.529 0.024256 4.17193 0
M  V30 7711 H 740.159 -0.543531 3.18191 0
M  V30 7712 H 739.211 1.87299 3.31094 0
M  V30 7713 H 740.523 2.26262 4.4453 0
M  V30 7714 H 739.677 0.532083 6.04362 0
M  V30 7715 H 738.416 0.0429854 4.87681 0
M  V30 7716 H 737.421 2.34586 4.97242 0
M  V30 7717 H 738.646 2.82982 6.17331 0
M  V30 7718 H 736.592 0.614518 6.53115 0
M  V30 7719 H 736.509 2.19665 7.23383 0
M  V30 7720 H 737.777 1.10945 7.71564 0
M  V30 7721 N 742.006 -1.2595 0.947325 0
M  V30 7722 C 742.954 -2.28152 0.452687 0
M  V30 7723 C 743.948 -1.62655 -0.473239 0
M  V30 7724 O 745.154 -1.76549 -0.350774 0
M  V30 7725 H 741.529 -0.741049 0.12787 0
M  V30 7726 H 743.5 -2.67267 1.32707 0
M  V30 7727 C 742.249 -3.46719 -0.26098 0
M  V30 7728 H 741.572 -3.97345 0.442352 0
M  V30 7729 H 743.012 -4.20135 -0.571208 0
M  V30 7730 C 741.471 -3.02605 -1.48094 0
M  V30 7731 O 742.001 -3.07979 -2.57899 0
M  V30 7732 N 740.207 -2.57877 -1.33969 0
M  V30 7733 H 739.754 -2.53704 -0.446295 0
M  V30 7734 H 739.712 -2.28725 -2.15713 0
M  V30 7735 N 743.484 -0.715051 -1.40445 0
M  V30 7736 C 744.73 -0.254705 -2.01194 0
M  V30 7737 C 745.063 1.14894 -1.56567 0
M  V30 7738 O 744.338 1.77933 -0.785491 0
M  V30 7739 C 744.621 -0.334148 -3.58546 0
M  V30 7740 C 744.474 -1.77613 -4.13248 0
M  V30 7741 C 745.793 0.294968 -4.3911 0
M  V30 7742 H 742.912 -0.094025 -0.730978 0
M  V30 7743 H 745.554 -0.907449 -1.66929 0
M  V30 7744 H 743.704 0.221609 -3.87867 0
M  V30 7745 H 745.376 -2.38723 -3.94727 0
M  V30 7746 H 743.619 -2.30402 -3.67556 0
M  V30 7747 H 744.29 -1.78311 -5.22407 0
M  V30 7748 H 746.766 -0.178563 -4.15717 0
M  V30 7749 H 745.642 0.208934 -5.48502 0
M  V30 7750 H 745.903 1.37841 -4.20062 0
M  V30 7751 N 744.962 1.50701 -0.461195 0
M  V30 7752 C 746.21 2.01867 0.0970051 0
M  V30 7753 C 746.531 1.34591 1.41104 0
M  V30 7754 O 745.801 0.488041 1.89723 0
M  V30 7755 H 744.381 0.74599 0.0388392 0
M  V30 7756 H 747.043 1.85129 -0.609357 0
M  V30 7757 H 746.139 3.11051 0.255688 0
M  V30 7758 N 746.441 0.193421 1.56409 0
M  V30 7759 C 747.69 -0.445995 1.96707 0
M  V30 7760 C 748.003 -1.62876 1.08309 0
M  V30 7761 O 749.209 -2.33586 1.38383 0
M  V30 7762 C 747.665 -0.844863 3.49843 0
M  V30 7763 C 747.273 0.31352 4.46902 0
M  V30 7764 C 749.017 -1.45146 3.98915 0
M  V30 7765 C 746.924 -0.106214 5.91305 0
M  V30 7766 H 745.854 -0.170398 0.734493 0
M  V30 7767 H 748.505 0.285172 1.81271 0
M  V30 7768 H 746.887 -1.63265 3.60778 0
M  V30 7769 H 748.061 1.09103 4.47698 0
M  V30 7770 H 746.376 0.8315 4.08014 0
M  V30 7771 H 748.973 -1.77792 5.04276 0
M  V30 7772 H 749.316 -2.35734 3.43126 0
M  V30 7773 H 749.849 -0.727675 3.91088 0
M  V30 7774 H 746.588 0.765442 6.51016 0
M  V30 7775 H 746.108 -0.848623 5.93766 0
M  V30 7776 H 747.787 -0.542588 6.44721 0
M  V30 7777 N 747.919 -1.57396 -0.0801906 0
M  V30 7778 C 748.866 -2.03107 -1.09618 0
M  V30 7779 C 749.836 -0.910118 -1.38946 0
M  V30 7780 O 751.021 -1.17719 -1.50156 0
M  V30 7781 C 748.161 -2.47293 -2.40708 0
M  V30 7782 C 747.274 -3.72972 -2.17982 0
M  V30 7783 C 746.409 -4.05975 -3.42576 0
M  V30 7784 C 745.448 -5.24719 -3.15177 0
M  V30 7785 N 744.585 -5.53401 -4.32078 0
M  V30 7786 H 749.425 -2.89677 -0.69939 0
M  V30 7787 H 746.962 -1.43263 -0.333785 0
M  V30 7788 H 748.92 -2.7096 -3.17232 0
M  V30 7789 H 747.55 -1.63713 -2.78205 0
M  V30 7790 H 746.602 -3.56693 -1.32189 0
M  V30 7791 H 747.914 -4.59638 -1.93738 0
M  V30 7792 H 747.068 -4.30498 -4.275 0
M  V30 7793 H 745.807 -3.17859 -3.69887 0
M  V30 7794 H 744.812 -5 -2.28648 0
M  V30 7795 H 746.037 -6.14445 -2.89197 0
M  V30 7796 H 743.983 -4.68245 -4.59437 0
M  V30 7797 H 743.9 -6.34469 -4.11078 0
M  V30 7798 H 745.168 -5.8247 -5.18024 0
M  V30 7799 N 749.397 0.351382 -1.53633 0
M  V30 7800 C 750.345 1.45142 -1.8176 0
M  V30 7801 C 751.339 1.54819 -0.687571 0
M  V30 7802 O 752.545 1.57536 -0.870772 0
M  V30 7803 H 748.92 0.483789 -0.575719 0
M  V30 7804 H 750.891 1.1863 -2.73806 0
M  V30 7805 C 749.64 2.81779 -2.03706 0
M  V30 7806 H 748.963 2.75097 -2.90107 0
M  V30 7807 H 750.403 3.5789 -2.27356 0
M  V30 7808 C 748.862 3.26762 -0.820271 0
M  V30 7809 O 749.392 4.01697 -0.0158603 0
M  V30 7810 N 747.598 2.83472 -0.639699 0
M  V30 7811 H 747.145 2.22655 -1.29547 0
M  V30 7812 H 747.103 3.13924 0.172995 0
M  V30 7813 N 750.875 1.45233 0.611969 0
M  V30 7814 C 751.822 1.5357 1.72293 0
M  V30 7815 C 752.792 0.381912 1.6165 0
M  V30 7816 O 753.977 0.594765 1.81293 0
M  V30 7817 C 751.117 1.50419 3.10593 0
M  V30 7818 C 750.23 2.76316 3.32074 0
M  V30 7819 C 749.365 2.64866 4.60456 0
M  V30 7820 C 748.404 3.85838 4.7518 0
M  V30 7821 N 747.541 3.72949 5.94856 0
M  V30 7822 H 752.381 2.4848 1.64504 0
M  V30 7823 H 749.918 1.23302 0.802191 0
M  V30 7824 H 751.876 1.4658 3.90602 0
M  V30 7825 H 750.506 0.590621 3.17351 0
M  V30 7826 H 749.558 2.90261 2.45872 0
M  V30 7827 H 750.87 3.66055 3.38829 0
M  V30 7828 H 750.024 2.58969 5.48653 0
M  V30 7829 H 748.763 1.72719 4.56092 0
M  V30 7830 H 747.768 3.92099 3.85407 0
M  V30 7831 H 748.993 4.79045 4.81344 0
M  V30 7832 H 746.939 2.83567 5.91545 0
M  V30 7833 H 746.856 4.56319 6.02751 0
M  V30 7834 H 748.124 3.70976 6.85563 0
M  V30 7835 N 752.353 -0.854086 1.3245 0
M  V30 7836 C 753.769 -1.14238 1.11453 0
M  V30 7837 C 753.969 -2.01228 -0.10461 0
M  V30 7838 O 753.025 -2.39845 -0.789339 0
M  V30 7839 C 754.338 -1.81916 2.39431 0
M  V30 7840 C 755.886 -1.94549 2.45193 0
M  V30 7841 C 756.361 -2.65642 3.73093 0
M  V30 7842 N 757.852 -2.73167 3.74078 0
M  V30 7843 C 758.587 -3.28828 4.69744 0
M  V30 7844 N 758.083 -3.85295 5.75778 0
M  V30 7845 N 759.876 -3.26936 4.57241 0
M  V30 7846 H 752.027 -0.274786 2.10615 0
M  V30 7847 H 754.29 -0.184375 0.929898 0
M  V30 7848 H 753.996 -1.25452 3.28565 0
M  V30 7849 H 753.87 -2.82068 2.50434 0
M  V30 7850 H 756.257 -2.50172 1.56518 0
M  V30 7851 H 756.338 -0.933914 2.38142 0
M  V30 7852 H 755.982 -2.10683 4.62142 0
M  V30 7853 H 755.912 -3.6724 3.77415 0
M  V30 7854 H 758.403 -2.33108 2.97438 0
M  V30 7855 H 758.716 -4.25925 6.44832 0
M  V30 7856 H 757.061 -3.83625 5.79531 0
M  V30 7857 H 760.252 -2.8207 3.7357 0
M  V30 7858 H 760.425 -3.70014 5.31971 0
M  V30 7859 N 753.831 -1.1567 -1.07043 0
M  V30 7860 C 754.761 -0.879348 -2.16309 0
M  V30 7861 C 755.742 0.171311 -1.69235 0
M  V30 7862 O 756.927 0.0250175 -1.94184 0
M  V30 7863 C 754.057 -0.371307 -3.45309 0
M  V30 7864 C 753.011 -1.359 -4.05851 0
M  V30 7865 C 752.337 -0.709678 -5.29969 0
M  V30 7866 C 753.637 -2.72606 -4.45514 0
M  V30 7867 H 755.331 -1.79308 -2.39768 0
M  V30 7868 H 752.877 -0.863558 -1.15233 0
M  V30 7869 H 754.83 -0.164798 -4.21078 0
M  V30 7870 H 753.554 0.577906 -3.21446 0
M  V30 7871 H 752.213 -1.55193 -3.32131 0
M  V30 7872 H 751.861 0.245782 -5.02399 0
M  V30 7873 H 751.561 -1.36886 -5.71433 0
M  V30 7874 H 753.085 -0.513015 -6.08441 0
M  V30 7875 H 754.499 -2.57141 -5.12398 0
M  V30 7876 H 752.896 -3.34927 -4.97939 0
M  V30 7877 H 753.966 -3.28434 -3.56734 0
M  V30 7878 N 755.309 1.25446 -0.953992 0
M  V30 7879 C 756.259 2.23627 -0.444413 0
M  V30 7880 C 757.243 1.54004 0.465993 0
M  V30 7881 O 758.435 1.74454 0.29915 0
M  V30 7882 C 755.564 3.42179 0.277175 0
M  V30 7883 C 754.65 4.1907 -0.651263 0
M  V30 7884 N 755.041 4.73346 -1.78262 0
M  V30 7885 C 753.339 4.43628 -0.459338 0
M  V30 7886 C 754.04 5.31576 -2.36224 0
M  V30 7887 N 753.016 5.17991 -1.64884 0
M  V30 7888 H 756.818 2.63197 -1.30785 0
M  V30 7889 H 754.332 1.40677 -0.811402 0
M  V30 7890 H 756.329 4.11653 0.659367 0
M  V30 7891 H 754.989 3.04134 1.13723 0
M  V30 7892 H 756 4.705 -2.1645 0
M  V30 7893 H 752.677 4.15963 0.357885 0
M  V30 7894 H 754.067 5.84361 -3.3162 0
M  V30 7895 N 756.787 0.722489 1.40064 0
M  V30 7896 C 757.75 0.0830209 2.2905 0
M  V30 7897 C 758.75 -0.680208 1.45705 0
M  V30 7898 O 759.94 -0.511084 1.66534 0
M  V30 7899 C 757.072 -0.892092 3.29021 0
M  V30 7900 H 758.265 0.866848 2.87099 0
M  V30 7901 H 755.818 0.487556 1.48501 0
M  V30 7902 H 756.553 -1.70273 2.76003 0
M  V30 7903 H 756.338 -0.34761 3.90556 0
M  V30 7904 H 757.828 -1.33648 3.95636 0
M  V30 7905 N 758.265 -1.50454 0.469181 0
M  V30 7906 C 759.213 -2.30101 -0.340033 0
M  V30 7907 C 760.207 -1.37306 -0.992135 0
M  V30 7908 O 761.413 -1.54506 -0.923458 0
M  V30 7909 H 757.788 -0.740941 -0.128495 0
M  V30 7910 H 759.759 -2.96315 0.352144 0
M  V30 7911 C 758.508 -3.17804 -1.41052 0
M  V30 7912 H 757.831 -3.89115 -0.918124 0
M  V30 7913 H 759.271 -3.76533 -1.94934 0
M  V30 7914 C 757.73 -2.35272 -2.4114 0
M  V30 7915 O 758.26 -2.03448 -3.4637 0
M  V30 7916 N 756.466 -1.97889 -2.1281 0
M  V30 7917 H 756.013 -2.2397 -1.27261 0
M  V30 7918 H 755.971 -1.42971 -2.80012 0
M  V30 7919 N 759.743 -0.201713 -1.56304 0
M  V30 7920 C 761.154 0.309711 -1.84113 0
M  V30 7921 C 761.505 1.60912 -1.12258 0
M  V30 7922 O 760.63 2.12937 -0.385587 0
M  V30 7923 C 761.225 0.568706 -3.33993 0
M  V30 7924 C 759.784 1.02448 -3.6219 0
M  V30 7925 C 758.931 0.0766842 -2.77194 0
M  V30 7926 H 761.882 -0.425356 -1.52893 0
M  V30 7927 H 761.903 1.41721 -3.53122 0
M  V30 7928 H 761.415 -0.37719 -3.86263 0
M  V30 7929 H 759.516 1.98443 -3.15359 0
M  V30 7930 H 759.629 0.912619 -4.70328 0
M  V30 7931 H 757.993 0.579809 -2.48013 0
M  V30 7932 H 758.776 -0.863774 -3.32256 0
M  V30 7933 N 761.222 1.57436 0.0718424 0
M  V30 7934 C 762.132 2.07039 1.10326 0
M  V30 7935 C 763.148 0.999918 1.424 0
M  V30 7936 O 764.324 1.31462 1.52577 0
M  V30 7937 C 761.389 2.50439 2.39752 0
M  V30 7938 C 760.45 3.71784 2.14651 0
M  V30 7939 C 759.683 4.13104 3.37906 0
M  V30 7940 O 759.906 3.54298 4.47023 0
M  V30 7941 O 758.84 5.05894 3.26121 0
M  V30 7942 H 762.666 2.95239 0.711872 0
M  V30 7943 H 760.251 1.46638 0.28597 0
M  V30 7944 H 762.133 2.78876 3.15921 0
M  V30 7945 H 760.808 1.65368 2.78271 0
M  V30 7946 H 759.715 3.48431 1.36187 0
M  V30 7947 H 761.048 4.57707 1.81012 0
M  V30 7948 N 762.7 -0.34323 1.53817 0
M  V30 7949 C 763.63 -1.42709 1.84814 0
M  V30 7950 C 764.611 -1.5488 0.703297 0
M  V30 7951 O 765.796 -1.69082 0.955237 0
M  V30 7952 C 762.926 -2.79756 2.05801 0
M  V30 7953 C 761.88 -2.82392 3.21619 0
M  V30 7954 C 761.206 -4.22326 3.2794 0
M  V30 7955 C 762.506 -2.479 4.59721 0
M  V30 7956 H 764.2 -1.17018 2.75585 0
M  V30 7957 H 761.746 -0.561485 1.32602 0
M  V30 7958 H 763.699 -3.55627 2.26069 0
M  V30 7959 H 762.423 -3.06883 1.11761 0
M  V30 7960 H 761.082 -2.08974 3.01207 0
M  V30 7961 H 760.73 -4.46564 2.31494 0
M  V30 7962 H 760.43 -4.25001 4.05768 0
M  V30 7963 H 761.954 -5.00039 3.50419 0
M  V30 7964 H 763.368 -3.13484 4.80001 0
M  V30 7965 H 761.765 -2.61857 5.39954 0
M  V30 7966 H 762.835 -1.43087 4.63308 0
M  V30 7967 N 764.178 -1.45556 -0.604258 0
M  V30 7968 C 765.088 -1.57025 -1.74299 0
M  V30 7969 C 766.104 -0.45456 -1.67958 0
M  V30 7970 O 767.28 -0.715711 -1.88254 0
M  V30 7971 C 764.345 -1.53702 -3.10768 0
M  V30 7972 C 763.406 -2.76335 -3.28538 0
M  V30 7973 C 762.639 -2.73161 -4.58496 0
M  V30 7974 O 762.862 -1.80678 -5.41028 0
M  V30 7975 O 761.796 -3.64409 -4.79051 0
M  V30 7976 H 765.622 -2.53284 -1.67573 0
M  V30 7977 H 763.207 -1.28104 -0.768745 0
M  V30 7978 H 765.089 -1.54468 -3.92068 0
M  V30 7979 H 763.764 -0.605957 -3.17978 0
M  V30 7980 H 762.671 -2.8113 -2.46813 0
M  V30 7981 H 764.004 -3.68578 -3.26207 0
M  V30 7982 N 765.656 0.84705 -1.32902 0
M  V30 7983 C 766.566 1.98845 -1.2449 0
M  V30 7984 C 767.582 1.7329 -0.15702 0
M  V30 7985 O 768.758 1.978 -0.379104 0
M  V30 7986 C 765.823 3.32679 -0.975985 0
M  V30 7987 C 764.884 3.71405 -2.15306 0
M  V30 7988 C 764.117 4.98853 -1.89688 0
M  V30 7989 O 764.34 5.64134 -0.843168 0
M  V30 7990 O 763.274 5.34889 -2.76002 0
M  V30 7991 H 767.1 2.0888 -2.2046 0
M  V30 7992 H 764.685 0.978852 -1.12867 0
M  V30 7993 H 766.567 4.12885 -0.842826 0
M  V30 7994 H 765.242 3.23667 -0.0464954 0
M  V30 7995 H 764.149 2.91743 -2.34172 0
M  V30 7996 H 765.482 3.85073 -3.06561 0
M  V30 7997 N 767.134 1.16236 1.06428 0
M  V30 7998 C 768.097 0.870163 2.1204 0
M  V30 7999 C 769.097 -0.134239 1.60239 0
M  V30 8000 O 770.287 0.0964932 1.73933 0
M  V30 8001 C 767.419 0.301033 3.39568 0
M  V30 8002 H 768.612 1.8064 2.39394 0
M  V30 8003 H 766.165 0.971116 1.2247 0
M  V30 8004 H 766.9 -0.642948 3.17863 0
M  V30 8005 H 766.685 1.02475 3.78472 0
M  V30 8006 H 768.175 0.114494 4.17443 0
M  V30 8007 N 768.612 -1.24939 0.960631 0
M  V30 8008 C 769.842 -1.96595 0.635123 0
M  V30 8009 C 770.25 -1.71538 -0.798206 0
M  V30 8010 O 769.593 -0.991727 -1.5463 0
M  V30 8011 C 769.655 -3.49994 0.821248 0
M  V30 8012 C 769.319 -3.98738 2.23287 0
M  V30 8013 C 770.316 -4.08965 3.21004 0
M  V30 8014 C 768.001 -4.32247 2.55867 0
M  V30 8015 C 769.995 -4.52025 4.49391 0
M  V30 8016 C 767.682 -4.74991 3.84482 0
M  V30 8017 C 768.68 -4.84844 4.81056 0
M  V30 8018 O 768.368 -5.26638 6.07378 0
M  V30 8019 H 768.1 -0.633265 0.23654 0
M  V30 8020 H 770.654 -1.5991 1.28911 0
M  V30 8021 H 768.884 -3.86543 0.110105 0
M  V30 8022 H 770.573 -4.02859 0.495892 0
M  V30 8023 H 771.339 -3.83302 2.97161 0
M  V30 8024 H 767.218 -4.23801 1.81421 0
M  V30 8025 H 770.762 -4.5963 5.24773 0
M  V30 8026 H 766.659 -5.00101 4.08129 0
M  V30 8027 H 767.427 -5.44807 6.10842 0
M  V30 8028 N 770.09 -0.729906 -1.39679 0
M  V30 8029 C 771.506 -0.404951 -1.54377 0
M  V30 8030 C 771.706 1.08476 -1.6981 0
M  V30 8031 O 770.762 1.87087 -1.69572 0
M  V30 8032 C 772.075 -1.18352 -2.76429 0
M  V30 8033 C 773.623 -1.17124 -2.9026 0
M  V30 8034 C 774.098 -1.93227 -4.15244 0
M  V30 8035 N 775.589 -1.90368 -4.22273 0
M  V30 8036 C 776.324 -2.46065 -5.17918 0
M  V30 8037 N 775.82 -3.10378 -6.19385 0
M  V30 8038 N 777.613 -2.36127 -5.10099 0
M  V30 8039 H 769.764 -1.69567 -1.27909 0
M  V30 8040 H 772.027 -0.717527 -0.619564 0
M  V30 8041 H 771.733 -2.23743 -2.71352 0
M  V30 8042 H 771.607 -0.784589 -3.6895 0
M  V30 8043 H 773.994 -0.125478 -2.94833 0
M  V30 8044 H 774.075 -1.60951 -1.98817 0
M  V30 8045 H 773.719 -2.97802 -4.11432 0
M  V30 8046 H 773.649 -1.4681 -5.05722 0
M  V30 8047 H 776.14 -1.4351 -3.4959 0
M  V30 8048 H 776.453 -3.50358 -6.88817 0
M  V30 8049 H 774.798 -3.14467 -6.19787 0
M  V30 8050 H 777.989 -1.85529 -4.29763 0
M  V30 8051 H 778.162 -2.79833 -5.84463 0
M  V30 8052 N 771.568 1.50203 -0.477153 0
M  V30 8053 C 772.814 2.02658 0.0758507 0
M  V30 8054 C 773.147 1.358 1.38824 0
M  V30 8055 O 772.422 0.485696 1.88338 0
M  V30 8056 C 772.705 3.59208 0.253339 0
M  V30 8057 C 772.558 4.36629 -1.0805 0
M  V30 8058 C 773.877 4.28469 1.00509 0
M  V30 8059 H 770.996 0.736538 0.0260921 0
M  V30 8060 H 773.638 1.79464 -0.623925 0
M  V30 8061 H 771.788 3.79101 0.849378 0
M  V30 8062 H 773.46 4.28292 -1.71358 0
M  V30 8063 H 771.703 4.0013 -1.67566 0
M  V30 8064 H 772.374 5.44449 -0.909883 0
M  V30 8065 H 774.85 4.13087 0.499818 0
M  V30 8066 H 773.726 5.37804 1.09808 0
M  V30 8067 H 773.987 3.92057 2.04314 0
M  V30 8068 N 773.046 0.209999 1.56195 0
M  V30 8069 C 774.457 -0.299943 1.84275 0
M  V30 8070 C 774.808 -1.60314 1.1311 0
M  V30 8071 O 773.933 -2.1273 0.396874 0
M  V30 8072 C 774.528 -0.550986 3.3429 0
M  V30 8073 C 773.087 -1.00526 3.62728 0
M  V30 8074 C 772.234 -0.0619828 2.77231 0
M  V30 8075 H 775.185 0.433458 1.52666 0
M  V30 8076 H 775.206 -1.39846 3.53869 0
M  V30 8077 H 774.718 0.397669 3.86057 0
M  V30 8078 H 772.819 -1.96768 3.16407 0
M  V30 8079 H 772.932 -0.887664 4.70805 0
M  V30 8080 H 771.296 -0.566648 2.48317 0
M  V30 8081 H 772.079 0.881383 3.31793 0
M  V30 8082 N 774.524 -1.57472 -0.0634922 0
M  V30 8083 C 775.457 -1.99571 -1.10664 0
M  V30 8084 C 776.435 -0.874015 -1.37112 0
M  V30 8085 O 777.619 -1.13702 -1.50347 0
M  V30 8086 C 774.746 -2.3395 -2.44918 0
M  V30 8087 C 773.792 -3.56213 -2.34551 0
M  V30 8088 S 774.625 -5.06727 -1.73169 0
M  V30 8089 C 775.781 -5.44316 -3.08984 0
M  V30 8090 H 776.014 -2.87739 -0.747905 0
M  V30 8091 H 773.547 -1.5198 -0.272316 0
M  V30 8092 H 775.505 -2.54431 -3.22141 0
M  V30 8093 H 774.166 -1.46297 -2.7795 0
M  V30 8094 H 773.359 -3.77812 -3.33578 0
M  V30 8095 H 772.961 -3.35406 -1.65466 0
M  V30 8096 H 775.253 -5.42894 -4.05305 0
M  V30 8097 H 776.196 -6.4502 -2.92156 0
M  V30 8098 H 776.604 -4.71781 -3.09972 0
M  V30 8099 N 776.003 0.335068 -1.53997 0
M  V30 8100 C 776.936 1.43533 -1.77407 0
M  V30 8101 C 777.914 1.5017 -0.623529 0
M  V30 8102 O 779.098 1.67756 -0.85966 0
M  V30 8103 C 776.225 2.81712 -1.88033 0
M  V30 8104 C 775.271 2.92661 -3.10245 0
M  V30 8105 S 776.104 2.58254 -4.69111 0
M  V30 8106 C 777.26 3.98525 -4.82627 0
M  V30 8107 H 777.493 1.2346 -2.70453 0
M  V30 8108 H 775.026 0.531234 -1.44973 0
M  V30 8109 H 776.984 3.61314 -1.9484 0
M  V30 8110 H 775.645 2.99075 -0.959849 0
M  V30 8111 H 774.838 3.93931 -3.14379 0
M  V30 8112 H 774.44 2.21017 -3.01708 0
M  V30 8113 H 776.732 4.93146 -4.64557 0
M  V30 8114 H 777.675 3.9938 -5.84723 0
M  V30 8115 H 778.083 3.86945 -4.11016 0
M  V30 8116 N 777.481 1.45874 0.596531 0
M  V30 8117 C 778.411 1.5824 1.71705 0
M  V30 8118 C 779.392 0.433366 1.64487 0
M  V30 8119 O 780.577 0.657895 1.82717 0
M  V30 8120 C 777.707 1.55927 3.10329 0
M  V30 8121 C 776.661 2.69659 3.32367 0
M  V30 8122 C 775.987 2.52403 4.71377 0
M  V30 8123 C 777.287 4.11591 3.21544 0
M  V30 8124 H 778.981 2.52035 1.61613 0
M  V30 8125 H 776.527 1.21297 0.776082 0
M  V30 8126 H 778.48 1.63173 3.88526 0
M  V30 8127 H 777.204 0.586674 3.21288 0
M  V30 8128 H 775.863 2.61859 2.56564 0
M  V30 8129 H 775.511 1.53258 4.79083 0
M  V30 8130 H 775.211 3.28679 4.87077 0
M  V30 8131 H 776.735 2.6152 5.5176 0
M  V30 8132 H 778.149 4.20576 3.89601 0
M  V30 8133 H 776.546 4.88344 3.4877 0
M  V30 8134 H 777.616 4.32719 2.1882 0
M  V30 8135 N 778.959 -0.83999 1.33349 0
M  V30 8136 C 779.906 -1.94972 1.23509 0
M  V30 8137 C 780.876 -1.65709 0.113967 0
M  V30 8138 O 782.061 -1.88552 0.292045 0
M  V30 8139 C 779.201 -3.30919 0.979105 0
M  V30 8140 C 778.314 -3.72587 2.18639 0
M  V30 8141 C 777.449 -4.97397 1.86465 0
M  V30 8142 C 776.488 -5.31597 3.03432 0
M  V30 8143 N 775.625 -6.47584 2.71254 0
M  V30 8144 H 780.465 -2.0272 2.18423 0
M  V30 8145 H 778.002 -0.992017 1.08616 0
M  V30 8146 H 779.96 -4.09239 0.811126 0
M  V30 8147 H 778.59 -3.22731 0.0667099 0
M  V30 8148 H 777.642 -2.89799 2.46416 0
M  V30 8149 H 778.954 -3.93844 3.06086 0
M  V30 8150 H 778.108 -5.83462 1.66305 0
M  V30 8151 H 776.847 -4.78107 0.96254 0
M  V30 8152 H 775.852 -4.44037 3.24208 0
M  V30 8153 H 777.077 -5.52836 3.94397 0
M  V30 8154 H 775.023 -6.29783 1.836 0
M  V30 8155 H 774.94 -6.68931 3.52231 0
M  V30 8156 H 776.208 -7.36764 2.54558 0
M  V30 8157 N 780.437 -1.16799 -1.0581 0
M  V30 8158 C 781.683 -0.953935 -1.78963 0
M  V30 8159 C 782.016 0.516638 -1.87202 0
M  V30 8160 O 781.291 1.38338 -1.36721 0
M  V30 8161 C 781.574 -1.58808 -3.23191 0
M  V30 8162 C 781.427 -3.13032 -3.23003 0
M  V30 8163 C 782.746 -1.2868 -4.20867 0
M  V30 8164 H 779.865 -0.347972 -0.64968 0
M  V30 8165 H 782.507 -1.44204 -1.23715 0
M  V30 8166 H 780.657 -1.17303 -3.70368 0
M  V30 8167 H 782.329 -3.63553 -2.83949 0
M  V30 8168 H 780.572 -3.46108 -2.61518 0
M  V30 8169 H 781.243 -3.52527 -4.24769 0
M  V30 8170 H 783.719 -1.6461 -3.82155 0
M  V30 8171 H 782.595 -1.75645 -5.20038 0
M  V30 8172 H 782.856 -0.206491 -4.41618 0
M  V30 8173 N 781.915 1.24427 -0.967243 0
M  V30 8174 C 782.878 2.23637 -0.501927 0
M  V30 8175 C 783.878 1.55712 0.401283 0
M  V30 8176 O 785.068 1.73085 0.196808 0
M  V30 8177 C 782.2 3.39804 0.273176 0
M  V30 8178 H 783.393 2.66317 -1.37897 0
M  V30 8179 H 780.946 1.37033 -0.751783 0
M  V30 8180 H 781.681 3.02562 1.16733 0
M  V30 8181 H 781.466 3.90303 -0.37498 0
M  V30 8182 H 782.956 4.13443 0.587776 0
M  V30 8183 N 783.393 0.737304 1.3929 0
M  V30 8184 C 784.323 0.113988 2.33222 0
M  V30 8185 C 785.304 -0.721695 1.54031 0
M  V30 8186 O 786.489 -0.666206 1.82415 0
M  V30 8187 C 783.619 -0.792319 3.38141 0
M  V30 8188 C 782.573 -0.0606178 4.27957 0
M  V30 8189 C 781.899 -1.08409 5.23595 0
M  V30 8190 C 783.199 1.09817 5.10625 0
M  V30 8191 H 784.893 0.898611 2.85596 0
M  V30 8192 H 782.439 0.433571 1.37318 0
M  V30 8193 H 784.392 -1.23793 4.02807 0
M  V30 8194 H 783.116 -1.60908 2.84211 0
M  V30 8195 H 781.775 0.365393 3.64775 0
M  V30 8196 H 781.423 -1.89449 4.6596 0
M  V30 8197 H 781.123 -0.599269 5.84536 0
M  V30 8198 H 782.647 -1.52936 5.91137 0
M  V30 8199 H 784.061 0.730892 5.68622 0
M  V30 8200 H 782.458 1.51278 5.80719 0
M  V30 8201 H 783.528 1.91878 4.45321 0
M  V30 8202 N 784.871 -1.49948 0.485112 0
M  V30 8203 C 786.111 -2.04301 -0.0635728 0
M  V30 8204 C 786.475 -1.35804 -1.35725 0
M  V30 8205 O 787.676 -1.80789 -1.98919 0
M  V30 8206 C 785.947 -3.56666 -0.228962 0
M  V30 8207 S 787.506 -4.32614 -0.734185 0
M  V30 8208 H 784.324 -0.710939 -0.00931895 0
M  V30 8209 H 786.926 -1.84185 0.655455 0
M  V30 8210 H 785.63 -4.04068 0.718148 0
M  V30 8211 H 785.161 -3.8116 -0.973696 0
M  V30 8212 H 787.176 -4.53859 -2.00565 0
M  V30 8213 N 786.349 -0.21828 -1.56081 0
M  V30 8214 C 787.595 0.414921 -1.9851 0
M  V30 8215 C 787.928 1.59648 -1.10573 0
M  V30 8216 O 787.203 1.93818 -0.162695 0
M  V30 8217 C 787.486 0.852647 -3.4986 0
M  V30 8218 C 787.339 -0.33232 -4.48571 0
M  V30 8219 C 788.658 1.70998 -4.05521 0
M  V30 8220 H 785.777 0.149344 -0.72171 0
M  V30 8221 H 788.419 -0.313858 -1.8739 0
M  V30 8222 H 786.569 1.47362 -3.59467 0
M  V30 8223 H 788.241 -0.970418 -4.50977 0
M  V30 8224 H 786.484 -0.980302 -4.22578 0
M  V30 8225 H 787.155 0.0168407 -5.51997 0
M  V30 8226 H 789.631 1.18606 -3.98838 0
M  V30 8227 H 788.507 1.98517 -5.11744 0
M  V30 8228 H 788.768 2.67219 -3.52202 0
M  V30 8229 N 787.827 1.57504 0.0551401 0
M  V30 8230 C 788.79 2.03826 1.04821 0
M  V30 8231 C 789.79 0.937968 1.30609 0
M  V30 8232 O 790.98 1.20237 1.2605 0
M  V30 8233 C 788.112 2.43309 2.38775 0
M  V30 8234 H 789.305 2.92802 0.6486 0
M  V30 8235 H 786.858 1.53368 0.301315 0
M  V30 8236 H 787.593 1.5741 2.83536 0
M  V30 8237 H 787.378 3.23615 2.21395 0
M  V30 8238 H 788.868 2.79666 3.10124 0
M  V30 8239 N 789.305 -0.326896 1.54172 0
M  V30 8240 C 790.252 -1.40216 1.83325 0
M  V30 8241 C 791.222 -1.51538 0.680107 0
M  V30 8242 O 792.407 -1.66811 0.926206 0
M  V30 8243 C 789.547 -2.76626 2.0633 0
M  V30 8244 C 788.66 -2.73963 3.34019 0
M  V30 8245 C 787.795 -4.02198 3.47002 0
M  V30 8246 C 786.834 -3.93828 4.68578 0
M  V30 8247 N 785.971 -5.13787 4.78506 0
M  V30 8248 H 790.811 -1.14656 2.7506 0
M  V30 8249 H 788.348 -0.555089 1.36225 0
M  V30 8250 H 790.306 -3.55922 2.17659 0
M  V30 8251 H 788.936 -3.00503 1.1789 0
M  V30 8252 H 787.988 -1.86677 3.31445 0
M  V30 8253 H 789.3 -2.6366 4.2342 0
M  V30 8254 H 788.454 -4.89923 3.57855 0
M  V30 8255 H 787.193 -4.15302 2.55687 0
M  V30 8256 H 786.198 -3.04487 4.57786 0
M  V30 8257 H 787.423 -3.82292 5.61275 0
M  V30 8258 H 785.369 -5.27403 3.90105 0
M  V30 8259 H 785.286 -5.05807 5.61868 0
M  V30 8260 H 786.554 -6.03236 4.93686 0
M  V30 8261 N 790.784 -1.46188 -0.588786 0
M  V30 8262 C 792.032 -1.50885 -1.34455 0
M  V30 8263 C 792.353 -0.159555 -1.94346 0
M  V30 8264 O 791.623 0.813239 -1.78222 0
M  V30 8265 H 790.203 -0.555707 -0.499198 0
M  V30 8266 H 792.865 -1.82277 -0.690014 0
M  V30 8267 H 791.961 -2.25816 -2.15438 0
M  V30 8268 N 792.262 0.832906 -1.33792 0
M  V30 8269 C 793.225 1.92471 -1.24449 0
M  V30 8270 C 794.225 1.59981 -0.162085 0
M  V30 8271 O 795.415 1.69208 -0.414029 0
M  V30 8272 C 792.547 3.28278 -0.919044 0
M  V30 8273 H 793.74 2.0218 -2.21502 0
M  V30 8274 H 791.293 1.0257 -1.17936 0
M  V30 8275 H 792.028 3.24263 0.048738 0
M  V30 8276 H 791.813 3.53241 -1.70187 0
M  V30 8277 H 793.303 4.08253 -0.878576 0
M  V30 8278 N 793.74 1.17359 1.05189 0
M  V30 8279 C 794.67 0.91365 2.14883 0
M  V30 8280 C 795.651 -0.144365 1.69486 0
M  V30 8281 O 796.836 0.00587861 1.94199 0
M  V30 8282 C 793.966 0.426196 3.44675 0
M  V30 8283 C 792.92 1.4234 4.03638 0
M  V30 8284 C 792.246 0.793902 5.28773 0
M  V30 8285 C 793.546 2.7966 4.41121 0
M  V30 8286 H 795.24 1.831 2.36885 0
M  V30 8287 H 792.786 0.881781 1.13845 0
M  V30 8288 H 794.739 0.231767 4.20762 0
M  V30 8289 H 793.463 -0.526693 3.22325 0
M  V30 8290 H 792.122 1.60457 3.2962 0
M  V30 8291 H 791.77 -0.165824 5.02727 0
M  V30 8292 H 791.47 1.45959 5.69183 0
M  V30 8293 H 792.994 0.609747 6.07548 0
M  V30 8294 H 794.408 2.6526 5.08242 0
M  V30 8295 H 792.805 3.42807 4.92548 0
M  V30 8296 H 793.875 3.34068 3.51464 0
M  V30 8297 N 795.218 -1.23913 0.973828 0
M  V30 8298 C 796.495 -1.87539 0.555729 0
M  V30 8299 C 796.875 -1.87641 -0.967162 0
M  V30 8300 O 796.223 -1.35335 -1.84111 0
M  V30 8301 C 796.433 -3.29359 1.15427 0
M  V30 8302 C 797.781 -4.06 1.24294 0
M  V30 8303 O 798.805 -3.38554 1.10723 0
M  V30 8304 O 797.664 -5.26689 1.45813 0
M  V30 8305 H 794.758 -0.805769 0.186188 0
M  V30 8306 H 797.304 -1.31838 1.06849 0
M  V30 8307 H 796.076 -3.23817 2.19678 0
M  V30 8308 H 795.699 -3.92642 0.625925 0
M  V30 8309 N 796.696 -0.74468 -1.38897 0
M  V30 8310 C 798.112 -0.421302 -1.53939 0
M  V30 8311 C 798.312 1.06668 -1.70951 0
M  V30 8312 O 797.368 1.85278 -1.71547 0
M  V30 8313 C 798.681 -1.21278 -2.75159 0
M  V30 8314 C 800.229 -1.20196 -2.89001 0
M  V30 8315 C 800.704 -1.97621 -4.13171 0
M  V30 8316 N 802.195 -1.94836 -4.2023 0
M  V30 8317 C 802.93 -2.51545 -5.15279 0
M  V30 8318 N 802.426 -3.1693 -6.16058 0
M  V30 8319 N 804.219 -2.41524 -5.07565 0
M  V30 8320 H 796.37 -1.70914 -1.26103 0
M  V30 8321 H 798.633 -0.724058 -0.611919 0
M  V30 8322 H 798.339 -2.26609 -2.68963 0
M  V30 8323 H 798.213 -0.823677 -3.68097 0
M  V30 8324 H 800.6 -0.156742 -2.94683 0
M  V30 8325 H 800.681 -1.63051 -1.97099 0
M  V30 8326 H 800.325 -3.02149 -4.0825 0
M  V30 8327 H 800.255 -1.52166 -5.04136 0
M  V30 8328 H 802.746 -1.4721 -3.48048 0
M  V30 8329 H 803.059 -3.57644 -6.85062 0
M  V30 8330 H 801.404 -3.21023 -6.16417 0
M  V30 8331 H 804.595 -1.90077 -4.27771 0
M  V30 8332 H 804.768 -2.86016 -5.81462 0
M  V30 8333 N 798.174 1.49689 -0.493057 0
M  V30 8334 C 799.402 2.06836 0.0513141 0
M  V30 8335 C 799.817 1.35436 1.31539 0
M  V30 8336 O 799.174 0.430248 1.77356 0
M  V30 8337 C 799.225 3.60107 0.317003 0
M  V30 8338 O 798.946 4.2882 -0.896957 0
M  V30 8339 C 800.447 4.33945 0.905902 0
M  V30 8340 H 797.667 0.670787 -0.0169048 0
M  V30 8341 H 800.211 1.92574 -0.688139 0
M  V30 8342 H 798.366 3.74099 1.00642 0
M  V30 8343 H 798.78 5.20395 -0.654939 0
M  V30 8344 H 800.254 5.42087 1.04144 0
M  V30 8345 H 800.731 3.95895 1.90168 0
M  V30 8346 H 801.337 4.2454 0.254195 0
M  V30 8347 N 799.652 0.226554 1.55963 0
M  V30 8348 C 800.562 -0.692725 2.24139 0
M  V30 8349 C 801.578 -1.20971 1.25068 0
M  V30 8350 O 802.754 -1.25027 1.57893 0
M  V30 8351 C 799.819 -1.88183 2.91184 0
M  V30 8352 C 798.88 -1.40633 4.05612 0
M  V30 8353 C 798.113 -2.53875 4.6945 0
M  V30 8354 O 798.336 -3.72129 4.32292 0
M  V30 8355 O 797.27 -2.24792 5.58348 0
M  V30 8356 H 801.096 -0.141921 3.03368 0
M  V30 8357 H 798.681 -0.0041049 1.49399 0
M  V30 8358 H 800.563 -2.57617 3.33484 0
M  V30 8359 H 799.238 -2.42064 2.14911 0
M  V30 8360 H 798.145 -0.67986 3.67871 0
M  V30 8361 H 799.478 -0.913838 4.83642 0
M  V30 8362 N 801.13 -1.57531 -0.0467866 0
M  V30 8363 C 802.355 -1.93087 -0.757123 0
M  V30 8364 C 802.78 -0.825116 -1.69037 0
M  V30 8365 O 802.138 0.220449 -1.79955 0
M  V30 8366 C 802.186 -3.27669 -1.5055 0
M  V30 8367 O 801.29 -3.18667 -2.61773 0
M  V30 8368 H 800.631 -0.631597 -0.204892 0
M  V30 8369 H 803.161 -2.04599 -0.00755232 0
M  V30 8370 H 803.171 -3.6214 -1.87932 0
M  V30 8371 H 801.846 -4.07717 -0.820931 0
M  V30 8372 H 800.423 -2.95798 -2.27064 0
M  V30 8373 N 802.608 0.318715 -1.54344 0
M  V30 8374 C 804.024 0.663345 -1.45162 0
M  V30 8375 C 804.224 1.9145 -0.62842 0
M  V30 8376 O 803.28 2.5217 -0.129126 0
M  V30 8377 C 804.593 0.832836 -2.88937 0
M  V30 8378 C 806.141 0.929866 -2.98869 0
M  V30 8379 C 806.616 1.13149 -4.43803 0
M  V30 8380 N 808.107 1.19811 -4.47437 0
M  V30 8381 C 808.842 1.37209 -5.56742 0
M  V30 8382 N 808.338 1.51619 -6.76006 0
M  V30 8383 N 810.131 1.39956 -5.44398 0
M  V30 8384 H 802.282 -0.50357 -2.06344 0
M  V30 8385 H 804.545 -0.163528 -0.933789 0
M  V30 8386 H 804.251 -0.0153519 -3.51697 0
M  V30 8387 H 804.125 1.72721 -3.35332 0
M  V30 8388 H 806.512 1.76855 -2.36233 0
M  V30 8389 H 806.593 0.0118561 -2.55797 0
M  V30 8390 H 806.237 0.297636 -5.07027 0
M  V30 8391 H 806.167 2.06345 -4.84489 0
M  V30 8392 H 808.658 1.101 -3.61506 0
M  V30 8393 H 808.971 1.64599 -7.55067 0
M  V30 8394 H 807.316 1.48708 -6.78904 0
M  V30 8395 H 810.507 1.28298 -4.50175 0
M  V30 8396 H 810.68 1.53172 -6.29637 0
M  V30 8397 N 804.086 1.46499 0.581025 0
M  V30 8398 C 805.334 1.51596 1.33653 0
M  V30 8399 C 805.655 0.169859 1.94259 0
M  V30 8400 O 804.925 -0.803776 1.78651 0
M  V30 8401 H 803.505 0.558346 0.496244 0
M  V30 8402 H 806.167 1.8264 0.680338 0
M  V30 8403 H 805.263 2.26956 2.14237 0
M  V30 8404 N 805.565 -0.825799 1.34232 0
M  V30 8405 C 806.528 -1.91808 1.25468 0
M  V30 8406 C 807.528 -1.59893 0.170567 0
M  V30 8407 O 808.718 -1.68986 0.422996 0
M  V30 8408 C 805.85 -3.27786 0.93644 0
M  V30 8409 H 807.043 -2.01003 2.22571 0
M  V30 8410 H 804.596 -1.01944 1.18479 0
M  V30 8411 H 805.331 -3.24285 -0.0315408 0
M  V30 8412 H 805.116 -3.52333 1.72057 0
M  V30 8413 H 806.606 -4.07782 0.900214 0
M  V30 8414 N 807.043 -1.17915 -1.04565 0
M  V30 8415 C 807.993 -0.869634 -2.10764 0
M  V30 8416 C 808.977 0.158502 -1.60117 0
M  V30 8417 O 810.169 -0.04483 -1.76943 0
M  V30 8418 C 807.298 -0.391642 -3.41059 0
M  V30 8419 C 806.384 -1.45156 -3.98485 0
M  V30 8420 N 806.775 -2.6667 -4.29792 0
M  V30 8421 C 805.073 -1.3109 -4.263 0
M  V30 8422 C 805.774 -3.34823 -4.75677 0
M  V30 8423 N 804.75 -2.62203 -4.76183 0
M  V30 8424 H 808.552 -1.79342 -2.32838 0
M  V30 8425 H 806.066 -1.0688 -1.22272 0
M  V30 8426 H 808.063 -0.151428 -4.16625 0
M  V30 8427 H 806.723 0.525862 -3.20413 0
M  V30 8428 H 807.734 -3.0358 -4.19594 0
M  V30 8429 H 804.411 -0.455545 -4.15007 0
M  V30 8430 H 805.801 -4.38645 -5.0896 0
M  V30 8431 N 808.521 1.23394 -0.980386 0
M  V30 8432 C 809.469 2.26872 -0.513018 0
M  V30 8433 C 810.463 1.63853 0.429948 0
M  V30 8434 O 811.669 1.77417 0.303842 0
M  V30 8435 H 808.044 0.737398 -0.147473 0
M  V30 8436 H 810.015 2.63654 -1.39746 0
M  V30 8437 C 808.764 3.47289 0.168962 0
M  V30 8438 H 808.087 3.96033 -0.547546 0
M  V30 8439 H 809.527 4.21502 0.459616 0
M  V30 8440 C 807.986 3.06425 1.40019 0
M  V30 8441 O 808.516 3.14708 2.49643 0
M  V30 8442 N 806.722 2.61339 1.27084 0
M  V30 8443 H 806.269 2.54799 0.378872 0
M  V30 8444 H 806.227 2.34364 2.09573 0
M  V30 8445 N 809.999 0.752036 1.385 0
M  V30 8446 C 811.415 0.42946 1.53713 0
M  V30 8447 C 811.615 -1.0576 1.71514 0
M  V30 8448 O 810.671 -1.84366 1.72527 0
M  V30 8449 C 811.984 1.22735 2.74511 0
M  V30 8450 C 813.532 1.21727 2.8836 0
M  V30 8451 C 814.007 1.99809 4.12117 0
M  V30 8452 N 815.498 1.97062 4.19191 0
M  V30 8453 C 816.233 2.54274 5.13938 0
M  V30 8454 N 815.729 3.20193 6.14368 0
M  V30 8455 N 817.522 2.44212 5.06277 0
M  V30 8456 H 809.673 1.71581 1.25195 0
M  V30 8457 H 811.936 0.727293 0.60807 0
M  V30 8458 H 811.642 2.28032 2.67758 0
M  V30 8459 H 811.516 0.843186 3.67655 0
M  V30 8460 H 813.903 0.172367 2.94596 0
M  V30 8461 H 813.984 1.64094 1.96232 0
M  V30 8462 H 813.628 3.0431 4.06642 0
M  V30 8463 H 813.558 1.54837 5.03322 0
M  V30 8464 H 816.049 1.49054 3.47263 0
M  V30 8465 H 816.362 3.61272 6.83156 0
M  V30 8466 H 814.707 3.24287 6.14705 0
M  V30 8467 H 817.898 1.92343 4.26757 0
M  V30 8468 H 818.071 2.89096 5.79937 0
M  V30 8469 N 811.477 -1.49425 0.500989 0
M  V30 8470 C 812.387 -2.32899 -0.282011 0
M  V30 8471 C 813.403 -1.44632 -0.967346 0
M  V30 8472 O 814.579 -1.77654 -0.94873 0
M  V30 8473 C 811.644 -3.20069 -1.33253 0
M  V30 8474 C 810.705 -4.24186 -0.660636 0
M  V30 8475 C 809.938 -5.07191 -1.6611 0
M  V30 8476 O 810.161 -4.91712 -2.89094 0
M  V30 8477 O 809.095 -5.8948 -1.21643 0
M  V30 8478 H 812.921 -3.01038 0.401224 0
M  V30 8479 H 810.506 -1.47079 0.262323 0
M  V30 8480 H 812.388 -3.74071 -1.94033 0
M  V30 8481 H 811.063 -2.54625 -1.9987 0
M  V30 8482 H 809.97 -3.74098 -0.0130959 0
M  V30 8483 H 811.303 -4.92186 -0.0369179 0
M  V30 8484 N 812.955 -0.234822 -1.55841 0
M  V30 8485 C 814.232 0.442961 -1.90518 0
M  V30 8486 C 814.612 1.76768 -1.15397 0
M  V30 8487 O 813.96 2.26928 -0.267534 0
M  V30 8488 C 814.17 0.622905 -3.43396 0
M  V30 8489 C 815.518 0.9243 -4.14417 0
M  V30 8490 O 816.542 0.709211 -3.49068 0
M  V30 8491 O 815.401 1.33323 -5.29988 0
M  V30 8492 H 812.495 0.236042 -0.792599 0
M  V30 8493 H 815.041 -0.277992 -1.67408 0
M  V30 8494 H 813.813 -0.310973 -3.90062 0
M  V30 8495 H 813.436 1.39485 -3.7233 0
M  V30 8496 N 814.433 1.57553 0.0384317 0
M  V30 8497 C 815.663 1.92813 0.742064 0
M  V30 8498 C 816.071 0.832157 1.69917 0
M  V30 8499 O 815.414 -0.200917 1.82598 0
M  V30 8500 C 815.476 3.23806 1.56172 0
M  V30 8501 C 815.14 4.50459 0.770407 0
M  V30 8502 C 816.137 5.19846 0.0748006 0
M  V30 8503 C 813.822 4.97001 0.727714 0
M  V30 8504 C 815.816 6.34047 -0.652902 0
M  V30 8505 C 813.503 6.111 -0.00373992 0
M  V30 8506 C 814.501 6.79477 -0.692816 0
M  V30 8507 O 814.189 7.91395 -1.41241 0
M  V30 8508 H 813.921 0.641174 0.214179 0
M  V30 8509 H 816.475 2.054 0.00285095 0
M  V30 8510 H 814.705 3.0752 2.34453 0
M  V30 8511 H 816.394 3.44463 2.14709 0
M  V30 8512 H 817.16 4.84899 0.098875 0
M  V30 8513 H 813.039 4.43629 1.25355 0
M  V30 8514 H 816.583 6.87353 -1.1913 0
M  V30 8515 H 812.48 6.45493 -0.0297703 0
M  V30 8516 H 813.248 8.07702 -1.32512 0
M  V30 8517 N 815.911 -0.310526 1.54511 0
M  V30 8518 C 817.322 -0.884142 1.64438 0
M  V30 8519 C 817.673 -1.88425 0.546855 0
M  V30 8520 O 816.798 -2.14049 -0.31811 0
M  V30 8521 C 817.393 -1.6104 2.9808 0
M  V30 8522 C 815.952 -2.13255 3.1016 0
M  V30 8523 C 815.099 -0.96213 2.60074 0
M  V30 8524 H 818.05 -0.0877666 1.58457 0
M  V30 8525 H 818.071 -2.47541 2.8897 0
M  V30 8526 H 817.583 -0.882255 3.77939 0
M  V30 8527 H 815.684 -2.89145 2.35002 0
M  V30 8528 H 815.797 -2.37361 4.16169 0
M  V30 8529 H 814.161 -1.34501 2.16291 0
M  V30 8530 H 814.944 -0.248098 3.42402 0
M  V30 8531 N 817.389 -1.46805 -0.573248 0
M  V30 8532 C 818.336 -1.58084 -1.68161 0
M  V30 8533 C 819.306 -0.424636 -1.6058 0
M  V30 8534 O 820.491 -0.642623 -1.79652 0
M  V30 8535 C 817.631 -1.58601 -3.06496 0
M  V30 8536 C 816.744 -2.85023 -3.24632 0
M  V30 8537 C 815.879 -2.76981 -4.53271 0
M  V30 8538 C 814.918 -3.983 -4.64783 0
M  V30 8539 N 814.055 -3.88589 -5.84759 0
M  V30 8540 H 818.895 -2.52755 -1.57858 0
M  V30 8541 H 816.432 -1.25385 -0.769218 0
M  V30 8542 H 818.39 -1.56885 -3.86579 0
M  V30 8543 H 817.02 -0.674553 -3.15673 0
M  V30 8544 H 816.072 -2.96678 -2.38089 0
M  V30 8545 H 817.384 -3.7491 -3.29004 0
M  V30 8546 H 816.538 -2.73424 -5.41594 0
M  V30 8547 H 815.277 -1.84751 -4.51352 0
M  V30 8548 H 814.282 -4.02179 -3.74876 0
M  V30 8549 H 815.507 -4.91639 -4.68474 0
M  V30 8550 H 813.453 -2.99151 -5.83819 0
M  V30 8551 H 813.37 -4.7214 -5.90441 0
M  V30 8552 H 814.638 -3.89022 -6.75486 0
M  V30 8553 N 818.867 0.818669 -1.34668 0
M  V30 8554 C 820.283 1.11243 -1.14443 0
M  V30 8555 C 820.483 2.01435 0.0512212 0
M  V30 8556 O 819.539 2.41854 0.725471 0
M  V30 8557 C 820.852 1.75504 -2.4417 0
M  V30 8558 C 822.4 1.8798 -2.50265 0
M  V30 8559 C 822.875 2.55657 -3.80004 0
M  V30 8560 N 824.366 2.63153 -3.81189 0
M  V30 8561 C 825.101 3.16258 -4.78298 0
M  V30 8562 N 824.597 3.69893 -5.85791 0
M  V30 8563 N 826.39 3.14698 -4.65748 0
M  V30 8564 H 818.541 0.218848 -2.1127 0
M  V30 8565 H 820.804 0.159655 -0.934459 0
M  V30 8566 H 820.51 1.16697 -3.31775 0
M  V30 8567 H 820.384 2.75329 -2.57825 0
M  V30 8568 H 822.771 2.45934 -1.63096 0
M  V30 8569 H 822.852 0.870447 -2.40535 0
M  V30 8570 H 822.496 1.98356 -4.67565 0
M  V30 8571 H 822.426 3.57105 -3.87019 0
M  V30 8572 H 824.917 2.2514 -3.03513 0
M  V30 8573 H 825.23 4.08678 -6.55898 0
M  V30 8574 H 823.575 3.68125 -5.89499 0
M  V30 8575 H 826.766 2.72066 -3.80917 0
M  V30 8576 H 826.939 3.5578 -5.41594 0
M  V30 8577 N 820.346 1.18468 1.03938 0
M  V30 8578 C 821.623 0.890435 1.74157 0
M  V30 8579 C 822.003 -0.606409 2.02203 0
M  V30 8580 O 821.351 -1.5615 1.66822 0
M  V30 8581 C 821.561 1.73906 3.02585 0
M  V30 8582 C 822.909 1.96686 3.76297 0
M  V30 8583 O 823.933 1.70969 3.12487 0
M  V30 8584 O 822.792 2.39986 4.90988 0
M  V30 8585 H 819.886 0.330889 0.757919 0
M  V30 8586 H 822.432 1.29228 1.09992 0
M  V30 8587 H 821.204 2.75369 2.78006 0
M  V30 8588 H 820.827 1.33581 3.74489 0
M  V30 8589 N 821.824 -1.22873 0.986916 0
M  V30 8590 C 823.101 -1.86939 0.575589 0
M  V30 8591 C 823.481 -1.88656 -0.947205 0
M  V30 8592 O 822.829 -1.3728 -1.82665 0
M  V30 8593 C 823.039 -3.28117 1.18914 0
M  V30 8594 C 824.387 -4.04659 1.28593 0
M  V30 8595 O 825.411 -3.3736 1.14308 0
M  V30 8596 O 824.27 -5.25112 1.51391 0
M  V30 8597 H 821.364 -0.803748 0.194724 0
M  V30 8598 H 823.91 -1.30698 1.08241 0
M  V30 8599 H 822.682 -3.21468 2.231 0
M  V30 8600 H 822.305 -3.91956 0.667535 0
M  V30 8601 N 823.302 -0.75937 -1.38099 0
M  V30 8602 C 824.551 -0.314864 -1.99227 0
M  V30 8603 C 824.864 1.1113 -1.60964 0
M  V30 8604 O 826.07 1.65657 -2.15105 0
M  V30 8605 C 824.526 -0.512001 -3.56239 0
M  V30 8606 C 824.134 -1.94762 -4.0345 0
M  V30 8607 C 825.878 -0.130497 -4.24299 0
M  V30 8608 C 823.785 -2.09301 -5.53125 0
M  V30 8609 H 822.715 -0.113978 -0.745335 0
M  V30 8610 H 825.366 -0.936736 -1.57789 0
M  V30 8611 H 823.748 0.179144 -3.95595 0
M  V30 8612 H 824.922 -2.67271 -3.75371 0
M  V30 8613 H 823.237 -2.28457 -3.48133 0
M  V30 8614 H 825.834 -0.21781 -5.34256 0
M  V30 8615 H 826.177 0.917644 -4.0606 0
M  V30 8616 H 826.71 -0.773716 -3.90203 0
M  V30 8617 H 823.449 -3.1239 -5.76275 0
M  V30 8618 H 822.969 -1.41261 -5.82928 0
M  V30 8619 H 824.648 -1.88571 -6.1891 0
M  V30 8620 N 824.78 1.49157 -0.508906 0
M  V30 8621 C 825.728 2.30922 0.278906 0
M  V30 8622 C 826.722 1.39889 0.955382 0
M  V30 8623 O 827.928 1.56901 0.882169 0
M  V30 8624 H 824.303 0.744087 0.108805 0
M  V30 8625 H 826.274 2.95277 -0.430583 0
M  V30 8626 C 825.023 3.21432 1.32576 0
M  V30 8627 H 824.346 3.91413 0.814634 0
M  V30 8628 H 825.786 3.81568 1.84882 0
M  V30 8629 C 824.245 2.41583 2.34817 0
M  V30 8630 O 824.775 2.1256 3.40854 0
M  V30 8631 N 822.981 2.03462 2.07489 0
M  V30 8632 H 822.528 2.27265 1.21278 0
M  V30 8633 H 822.486 1.50345 2.76123 0
M  V30 8634 N 826.258 0.243083 1.55714 0
M  V30 8635 C 827.504 -0.376428 1.99886 0
M  V30 8636 C 827.859 -1.55843 1.12831 0
M  V30 8637 O 827.152 -1.90724 0.182996 0
M  V30 8638 C 827.346 -0.839621 3.47398 0
M  V30 8639 C 827.175 0.295954 4.48725 0
M  V30 8640 C 825.945 0.769392 4.99408 0
M  V30 8641 C 828.143 1.12165 5.0192 0
M  V30 8642 N 826.125 1.87778 5.84477 0
M  V30 8643 C 827.496 2.07848 5.84123 0
M  V30 8644 C 829.551 1.15864 4.84231 0
M  V30 8645 C 828.254 3.06937 6.50524 0
M  V30 8646 C 830.28 2.13782 5.51409 0
M  V30 8647 C 829.642 3.08202 6.33396 0
M  V30 8648 H 825.741 -0.103809 0.775079 0
M  V30 8649 H 828.325 0.359788 1.91347 0
M  V30 8650 H 826.496 -1.54514 3.56343 0
M  V30 8651 H 828.228 -1.43376 3.78451 0
M  V30 8652 H 824.983 0.354201 4.72274 0
M  V30 8653 H 825.407 2.43462 6.31708 0
M  V30 8654 H 830.049 0.442532 4.20478 0
M  V30 8655 H 827.767 3.79499 7.13447 0
M  V30 8656 H 831.353 2.17345 5.39678 0
M  V30 8657 H 830.233 3.82732 6.8446 0
M  V30 8658 N 827.736 -1.57571 -0.0300757 0
M  V30 8659 C 828.666 -2.0953 -1.03051 0
M  V30 8660 C 829.647 -0.99761 -1.37774 0
M  V30 8661 O 830.832 -1.27279 -1.46676 0
M  V30 8662 C 827.962 -2.57385 -2.33174 0
M  V30 8663 C 826.916 -3.71409 -2.12696 0
M  V30 8664 C 826.242 -4.05467 -3.4857 0
M  V30 8665 C 827.542 -4.99877 -1.51396 0
M  V30 8666 H 829.236 -2.93367 -0.597999 0
M  V30 8667 H 826.782 -1.41127 -0.286203 0
M  V30 8668 H 828.735 -2.92355 -3.03491 0
M  V30 8669 H 827.459 -1.70629 -2.78484 0
M  V30 8670 H 826.118 -3.36786 -1.44813 0
M  V30 8671 H 825.766 -3.15779 -3.91526 0
M  V30 8672 H 825.466 -4.82269 -3.35694 0
M  V30 8673 H 826.99 -4.4297 -4.2025 0
M  V30 8674 H 828.404 -5.3281 -2.11629 0
M  V30 8675 H 826.801 -5.81283 -1.49098 0
M  V30 8676 H 827.871 -4.82522 -0.479676 0
M  V30 8677 N 829.214 0.302327 -1.54673 0
M  V30 8678 C 830.162 1.39286 -1.86285 0
M  V30 8679 C 831.156 1.52553 -0.736478 0
M  V30 8680 O 832.362 1.54686 -0.92045 0
M  V30 8681 H 828.737 0.465228 -0.590819 0
M  V30 8682 H 830.708 1.09859 -2.77441 0
M  V30 8683 C 829.457 2.75155 -2.12567 0
M  V30 8684 H 828.78 2.65728 -2.98712 0
M  V30 8685 H 830.22 3.50476 -2.38627 0
M  V30 8686 C 828.679 3.23987 -0.923813 0
M  V30 8687 O 829.209 4.01443 -0.143649 0
M  V30 8688 N 827.415 2.81293 -0.72956 0
M  V30 8689 H 826.962 2.18421 -1.36565 0
M  V30 8690 H 826.92 3.14315 0.0730351 0
M  V30 8691 N 830.692 1.47107 0.565454 0
M  V30 8692 C 832.108 1.32443 0.890566 0
M  V30 8693 C 832.308 0.308735 1.99121 0
M  V30 8694 O 831.364 -0.28265 2.50913 0
M  V30 8695 C 832.677 2.71548 1.2916 0
M  V30 8696 C 834.225 2.7977 1.40349 0
M  V30 8697 C 834.7 4.19497 1.83811 0
M  V30 8698 N 836.191 4.21998 1.90975 0
M  V30 8699 C 836.926 5.2702 2.25916 0
M  V30 8700 N 836.422 6.42353 2.59527 0
M  V30 8701 N 838.215 5.14393 2.26619 0
M  V30 8702 H 830.366 2.11786 -0.161328 0
M  V30 8703 H 832.629 0.947952 -0.00950631 0
M  V30 8704 H 832.335 3.47265 0.556753 0
M  V30 8705 H 832.209 3.02782 2.24951 0
M  V30 8706 H 834.596 2.0433 2.12916 0
M  V30 8707 H 834.677 2.522 0.427655 0
M  V30 8708 H 834.321 4.95439 1.11816 0
M  V30 8709 H 834.251 4.44486 2.82382 0
M  V30 8710 H 836.742 3.38791 1.6742 0
M  V30 8711 H 837.055 7.18252 2.85191 0
M  V30 8712 H 835.4 6.45687 2.57126 0
M  V30 8713 H 838.591 4.2332 1.99794 0
M  V30 8714 H 838.764 5.96349 2.5352 0
M  V30 8715 N 832.17 -0.811516 1.35101 0
M  V30 8716 C 833.398 -1.59981 1.31201 0
M  V30 8717 C 833.813 -1.8847 -0.111552 0
M  V30 8718 O 833.17 -1.48414 -1.06205 0
M  V30 8719 C 833.221 -2.934 2.11184 0
M  V30 8720 O 832.942 -2.66148 3.4799 0
M  V30 8721 C 834.443 -3.87776 2.14813 0
M  V30 8722 H 831.663 -0.496921 0.450899 0
M  V30 8723 H 834.207 -1.00886 1.77883 0
M  V30 8724 H 832.362 -3.49022 1.68115 0
M  V30 8725 H 832.776 -3.51301 3.89471 0
M  V30 8726 H 834.25 -4.7852 2.75178 0
M  V30 8727 H 834.727 -4.23997 1.14556 0
M  V30 8728 H 835.333 -3.3809 2.58022 0
M  V30 8729 N 833.648 -1.19017 -1.03309 0
M  V30 8730 C 834.578 -0.94772 -2.13402 0
M  V30 8731 C 835.559 0.117383 -1.69694 0
M  V30 8732 O 836.744 -0.0367733 -1.94165 0
M  V30 8733 C 833.874 -0.480977 -3.43953 0
M  V30 8734 C 832.828 -1.48743 -4.01322 0
M  V30 8735 C 832.154 -0.877924 -5.27443 0
M  V30 8736 C 833.454 -2.86642 -4.36616 0
M  V30 8737 H 835.148 -1.86846 -2.33942 0
M  V30 8738 H 832.694 -0.899781 -1.12427 0
M  V30 8739 H 834.647 -0.298677 -4.2034 0
M  V30 8740 H 833.371 0.475348 -3.23122 0
M  V30 8741 H 832.03 -1.65681 -3.27025 0
M  V30 8742 H 831.678 0.0858232 -5.02927 0
M  V30 8743 H 831.378 -1.54996 -5.66789 0
M  V30 8744 H 832.902 -0.706326 -6.06501 0
M  V30 8745 H 834.316 -2.73312 -5.03958 0
M  V30 8746 H 832.713 -3.50599 -4.87032 0
M  V30 8747 H 833.783 -3.39617 -3.46105 0
M  V30 8748 N 835.127 1.22348 -0.993418 0
M  V30 8749 C 836.09 2.22522 -0.549251 0
M  V30 8750 C 837.09 1.56529 0.368164 0
M  V30 8751 O 838.28 1.73463 0.16005 0
M  V30 8752 C 835.412 3.40307 0.201037 0
M  V30 8753 H 836.605 2.63332 -1.43515 0
M  V30 8754 H 834.158 1.35407 -0.78068 0
M  V30 8755 H 834.893 3.0497 1.10289 0
M  V30 8756 H 834.678 3.8942 -0.457685 0
M  V30 8757 H 836.168 4.14597 0.499946 0
M  V30 8758 N 836.605 0.766683 1.37694 0
M  V30 8759 C 837.83 0.338715 2.04615 0
M  V30 8760 C 838.255 -1.02918 1.57447 0
M  V30 8761 O 837.613 -1.65849 0.732386 0
M  V30 8762 C 837.661 0.385284 3.58536 0
M  V30 8763 O 836.765 -0.616081 4.07772 0
M  V30 8764 H 836.106 0.147527 0.647404 0
M  V30 8765 H 838.636 1.04146 1.7611 0
M  V30 8766 H 838.646 0.240782 4.07289 0
M  V30 8767 H 837.321 1.38325 3.92223 0
M  V30 8768 H 835.898 -0.435115 3.70353 0
M  V30 8769 N 838.083 -1.48885 0.516809 0
M  V30 8770 C 839.329 -2.03395 -0.0140225 0
M  V30 8771 C 839.684 -1.38808 -1.33229 0
M  V30 8772 O 838.977 -0.520104 -1.84406 0
M  V30 8773 C 839.171 -3.56801 -0.206798 0
M  V30 8774 C 839 -4.36259 1.09124 0
M  V30 8775 C 837.77 -4.77689 1.64745 0
M  V30 8776 C 839.968 -4.73881 1.99854 0
M  V30 8777 N 837.95 -5.41634 2.88975 0
M  V30 8778 C 839.321 -5.37707 3.08661 0
M  V30 8779 C 841.376 -4.55816 2.00341 0
M  V30 8780 C 840.079 -5.85379 4.18001 0
M  V30 8781 C 842.105 -5.04459 3.08666 0
M  V30 8782 C 841.467 -5.68299 4.16191 0
M  V30 8783 H 837.566 -0.781169 0.036042 0
M  V30 8784 H 840.15 -1.81867 0.695173 0
M  V30 8785 H 838.321 -3.78181 -0.885064 0
M  V30 8786 H 840.053 -3.9795 -0.736053 0
M  V30 8787 H 836.808 -4.58392 1.19054 0
M  V30 8788 H 837.232 -5.78181 3.52187 0
M  V30 8789 H 841.874 -4.05851 1.18511 0
M  V30 8790 H 839.592 -6.34356 5.00618 0
M  V30 8791 H 843.178 -4.92281 3.10082 0
M  V30 8792 H 842.058 -6.05257 4.98631 0
M  V30 8793 N 839.561 -0.251338 -1.55583 0
M  V30 8794 C 840.972 0.25098 -1.85005 0
M  V30 8795 C 841.323 1.57259 -1.17321 0
M  V30 8796 O 840.448 2.11603 -0.453136 0
M  V30 8797 C 841.043 0.462161 -3.35633 0
M  V30 8798 C 839.602 0.908737 -3.65266 0
M  V30 8799 C 838.749 -0.0115418 -2.77298 0
M  V30 8800 H 841.7 -0.473782 -1.51463 0
M  V30 8801 H 841.721 1.30415 -3.57452 0
M  V30 8802 H 841.233 -0.499886 -3.84867 0
M  V30 8803 H 839.334 1.8831 -3.21512 0
M  V30 8804 H 839.447 0.762526 -4.72993 0
M  V30 8805 H 837.811 0.500612 -2.49732 0
M  V30 8806 H 838.594 -0.969042 -3.29339 0
M  V30 8807 N 841.039 1.57585 0.0217189 0
M  V30 8808 C 841.987 2.08134 1.03842 0
M  V30 8809 C 842.981 0.996662 1.36978 0
M  V30 8810 O 844.187 1.18149 1.35797 0
M  V30 8811 H 840.562 0.664298 0.352438 0
M  V30 8812 H 842.533 2.92583 0.58634 0
M  V30 8813 C 841.282 2.58218 2.32849 0
M  V30 8814 H 840.605 3.41302 2.08214 0
M  V30 8815 H 842.045 2.97289 3.02316 0
M  V30 8816 C 840.504 1.48664 3.02325 0
M  V30 8817 O 841.034 0.857075 3.9245 0
M  V30 8818 N 839.24 1.21938 2.63779 0
M  V30 8819 H 838.787 1.73319 1.90574 0
M  V30 8820 H 838.745 0.488523 3.10581 0
M  V30 8821 N 842.517 -0.29412 1.54831 0
M  V30 8822 C 843.928 -0.866651 1.65366 0
M  V30 8823 C 844.279 -1.87834 0.56681 0
M  V30 8824 O 843.404 -2.14374 -0.295389 0
M  V30 8825 C 843.999 -1.57869 2.99771 0
M  V30 8826 C 842.558 -2.09954 3.12404 0
M  V30 8827 C 841.705 -0.934492 2.6108 0
M  V30 8828 H 844.656 -0.0709551 1.58541 0
M  V30 8829 H 844.677 -2.44462 2.91579 0
M  V30 8830 H 844.189 -0.84212 3.78853 0
M  V30 8831 H 842.29 -2.86637 2.38055 0
M  V30 8832 H 842.403 -2.32934 4.18663 0
M  V30 8833 H 840.767 -1.32199 2.17705 0
M  V30 8834 H 841.55 -0.211768 3.42646 0
M  V30 8835 N 843.995 -1.47404 -0.557645 0
M  V30 8836 C 844.905 -1.62491 -1.69216 0
M  V30 8837 C 845.921 -0.507764 -1.66426 0
M  V30 8838 O 847.097 -0.775241 -1.85882 0
M  V30 8839 C 844.162 -1.63511 -3.05721 0
M  V30 8840 C 843.223 -2.86648 -3.1958 0
M  V30 8841 C 842.456 -2.87609 -4.49574 0
M  V30 8842 O 842.679 -1.97799 -5.35006 0
M  V30 8843 O 841.613 -3.79465 -4.67215 0
M  V30 8844 H 845.439 -2.58487 -1.59431 0
M  V30 8845 H 843.024 -1.30485 -0.7276 0
M  V30 8846 H 844.906 -1.66863 -3.86956 0
M  V30 8847 H 843.581 -0.706812 -3.15889 0
M  V30 8848 H 842.488 -2.8884 -2.37744 0
M  V30 8849 H 843.821 -3.7877 -3.14316 0
M  V30 8850 N 845.473 0.80434 -1.35529 0
M  V30 8851 C 846.405 1.92445 -1.2449 0
M  V30 8852 C 847.418 1.61934 -0.167685 0
M  V30 8853 O 848.607 1.73461 -0.42115 0
M  V30 8854 C 845.707 3.26875 -0.894751 0
M  V30 8855 C 844.88 3.85275 -2.07079 0
M  V30 8856 C 843.939 4.98116 -1.69607 0
M  V30 8857 O 842.965 5.15424 -2.41509 0
M  V30 8858 N 844.167 5.77169 -0.621012 0
M  V30 8859 H 846.932 2.02441 -2.20993 0
M  V30 8860 H 844.493 0.981874 -1.28728 0
M  V30 8861 H 846.485 3.99837 -0.625511 0
M  V30 8862 H 845.055 3.12594 -0.0193306 0
M  V30 8863 H 844.275 3.0448 -2.5037 0
M  V30 8864 H 845.563 4.21024 -2.85685 0
M  V30 8865 H 844.961 5.65695 -0.0236679 0
M  V30 8866 H 843.518 6.50499 -0.411558 0
M  V30 8867 N 846.951 1.19563 1.02676 0
M  V30 8868 C 848.179 1.02488 1.79732 0
M  V30 8869 C 848.594 -0.426302 1.83924 0
M  V30 8870 O 847.951 -1.29609 1.28483 0
M  V30 8871 C 848.002 1.58944 3.24683 0
M  V30 8872 O 847.723 2.98382 3.2078 0
M  V30 8873 C 849.224 1.46681 4.1833 0
M  V30 8874 H 846.444 0.361098 0.565552 0
M  V30 8875 H 848.988 1.58426 1.29311 0
M  V30 8876 H 847.143 1.0715 3.72287 0
M  V30 8877 H 847.557 3.24983 4.11687 0
M  V30 8878 H 849.031 1.90959 5.17918 0
M  V30 8879 H 849.508 0.417663 4.3721 0
M  V30 8880 H 850.114 1.97616 3.76601 0
M  V30 8881 N 848.429 -1.21819 0.999893 0
M  V30 8882 C 849.359 -2.26282 0.576096 0
M  V30 8883 C 850.34 -1.65317 -0.400537 0
M  V30 8884 O 851.525 -1.92028 -0.28964 0
M  V30 8885 C 848.655 -3.47147 -0.103145 0
M  V30 8886 C 847.609 -4.20594 0.792745 0
M  V30 8887 C 846.935 -5.34696 -0.0198026 0
M  V30 8888 C 848.235 -4.78533 2.09293 0
M  V30 8889 H 849.929 -2.61984 1.4493 0
M  V30 8890 H 847.475 -1.25935 0.698316 0
M  V30 8891 H 849.428 -4.1939 -0.411068 0
M  V30 8892 H 848.152 -3.1056 -1.01094 0
M  V30 8893 H 846.811 -3.50194 1.08442 0
M  V30 8894 H 846.459 -4.94352 -0.928729 0
M  V30 8895 H 846.159 -5.84764 0.576661 0
M  V30 8896 H 847.683 -6.09752 -0.321659 0
M  V30 8897 H 849.097 -5.42682 1.8485 0
M  V30 8898 H 847.494 -5.38968 2.63881 0
M  V30 8899 H 848.564 -3.98197 2.76708 0
M  V30 8900 N 849.908 -0.773975 -1.37286 0
M  V30 8901 C 851.319 -0.404433 -1.82267 0
M  V30 8902 C 851.67 1.06971 -1.64474 0
M  V30 8903 O 850.795 1.82867 -1.15708 0
M  V30 8904 C 851.39 -0.727298 -3.30902 0
M  V30 8905 C 849.949 -0.410784 -3.74152 0
M  V30 8906 C 849.096 -0.969983 -2.59782 0
M  V30 8907 H 852.047 -0.968437 -1.25726 0
M  V30 8908 H 852.068 -0.0127575 -3.80498 0
M  V30 8909 H 851.58 -1.80026 -3.4382 0
M  V30 8910 H 849.681 0.65477 -3.66802 0
M  V30 8911 H 849.794 -0.920592 -4.70172 0
M  V30 8912 H 848.158 -0.394094 -2.51633 0
M  V30 8913 H 848.941 -2.04839 -2.75492 0
M  V30 8914 N 851.386 1.48609 -0.524698 0
M  V30 8915 C 852.614 2.06899 0.00742946 0
M  V30 8916 C 853.029 1.38196 1.28637 0
M  V30 8917 O 852.386 0.467771 1.76403 0
M  V30 8918 C 852.437 3.60699 0.240548 0
M  V30 8919 O 852.158 4.26821 -0.987715 0
M  V30 8920 C 853.659 4.35769 0.813652 0
M  V30 8921 H 850.879 0.670278 -0.0311294 0
M  V30 8922 H 853.423 1.91071 -0.728832 0
M  V30 8923 H 851.578 3.76149 0.926845 0
M  V30 8924 H 851.992 5.18889 -0.765175 0
M  V30 8925 H 853.466 5.44174 0.926219 0
M  V30 8926 H 853.943 3.9984 1.81728 0
M  V30 8927 H 854.549 4.24983 0.164086 0
M  V30 8928 N 852.864 0.259585 1.55447 0
M  V30 8929 C 853.794 -0.62852 2.24882 0
M  V30 8930 C 854.775 -1.17128 1.23349 0
M  V30 8931 O 855.96 -1.20829 1.52033 0
M  V30 8932 C 853.09 -1.81983 2.95803 0
M  V30 8933 C 852.044 -1.40929 4.04132 0
M  V30 8934 C 851.37 -2.68246 4.62545 0
M  V30 8935 C 852.67 -0.570956 5.1917 0
M  V30 8936 H 854.364 -0.0495021 2.99359 0
M  V30 8937 H 851.91 -0.0223688 1.43983 0
M  V30 8938 H 853.863 -2.44689 3.43082 0
M  V30 8939 H 852.587 -2.42444 2.18835 0
M  V30 8940 H 851.246 -0.805519 3.57641 0
M  V30 8941 H 850.894 -3.26931 3.82263 0
M  V30 8942 H 850.594 -2.41495 5.35681 0
M  V30 8943 H 852.118 -3.31827 5.12565 0
M  V30 8944 H 853.532 -1.10262 5.62597 0
M  V30 8945 H 851.929 -0.398979 5.98772 0
M  V30 8946 H 852.999 0.413918 4.8313 0
M  V30 8947 N 854.342 -1.57594 -0.0133615 0
M  V30 8948 C 855.252 -2.10991 -1.02566 0
M  V30 8949 C 856.268 -1.05208 -1.3859 0
M  V30 8950 O 857.444 -1.37034 -1.47593 0
M  V30 8951 C 854.509 -2.59165 -2.30292 0
M  V30 8952 C 853.57 -3.79495 -2.00704 0
M  V30 8953 C 852.803 -4.25361 -3.22341 0
M  V30 8954 O 853.026 -3.70645 -4.33565 0
M  V30 8955 O 851.96 -5.17649 -3.07121 0
M  V30 8956 H 855.786 -2.97678 -0.601806 0
M  V30 8957 H 853.371 -1.47598 -0.23135 0
M  V30 8958 H 855.253 -2.90409 -3.05354 0
M  V30 8959 H 853.928 -1.75582 -2.71942 0
M  V30 8960 H 852.835 -3.53245 -1.23161 0
M  V30 8961 H 854.168 -4.64109 -1.639 0
M  V30 8962 N 855.82 0.285905 -1.54985 0
M  V30 8963 C 857.05 1.03626 -1.78732 0
M  V30 8964 C 857.458 1.80896 -0.554377 0
M  V30 8965 O 856.801 1.77161 0.48578 0
M  V30 8966 C 856.863 2.05185 -2.95193 0
M  V30 8967 C 856.527 1.46973 -4.32722 0
M  V30 8968 C 857.524 0.891986 -5.12191 0
M  V30 8969 C 855.209 1.50081 -4.79355 0
M  V30 8970 C 857.203 0.353078 -6.36421 0
M  V30 8971 C 854.89 0.958037 -6.03544 0
M  V30 8972 C 855.888 0.385157 -6.81913 0
M  V30 8973 O 855.576 -0.149341 -8.03761 0
M  V30 8974 H 855.308 0.312416 -0.599477 0
M  V30 8975 H 857.862 0.326067 -2.02795 0
M  V30 8976 H 856.092 2.79928 -2.66791 0
M  V30 8977 H 857.781 2.66244 -3.0638 0
M  V30 8978 H 858.547 0.860762 -4.77301 0
M  V30 8979 H 854.426 1.9361 -4.18373 0
M  V30 8980 H 857.97 -0.0947181 -6.97536 0
M  V30 8981 H 853.867 0.986458 -6.37918 0
M  V30 8982 H 854.635 -0.0374719 -8.18491 0
M  V30 8983 N 857.298 1.47698 0.54982 0
M  V30 8984 C 858.208 1.63386 1.68351 0
M  V30 8985 C 859.224 0.516583 1.66155 0
M  V30 8986 O 860.4 0.785088 1.85468 0
M  V30 8987 C 857.465 1.6513 3.04849 0
M  V30 8988 C 856.526 2.88338 3.18056 0
M  V30 8989 C 855.759 2.8999 4.48042 0
M  V30 8990 O 855.982 2.00633 5.3395 0
M  V30 8991 O 854.916 3.81938 4.65196 0
M  V30 8992 H 858.742 2.59329 1.58057 0
M  V30 8993 H 856.327 1.30869 0.72067 0
M  V30 8994 H 858.209 1.68913 3.86065 0
M  V30 8995 H 856.884 0.723555 3.1551 0
M  V30 8996 H 855.791 2.90097 2.36209 0
M  V30 8997 H 857.124 3.80431 3.12302 0
M  V30 8998 N 858.776 -0.797141 1.35954 0
M  V30 8999 C 859.739 -1.89104 1.29508 0
M  V30 9000 C 860.739 -1.59495 0.204444 0
M  V30 9001 O 861.929 -1.68051 0.458746 0
M  V30 9002 C 859.061 -3.25726 1.00576 0
M  V30 9003 H 860.254 -1.96237 2.26785 0
M  V30 9004 H 857.807 -0.994075 1.20614 0
M  V30 9005 H 858.542 -3.24279 0.0372519 0
M  V30 9006 H 858.327 -3.48604 1.79492 0
M  V30 9007 H 859.817 -4.0578 0.986508 0
M  V30 9008 N 860.254 -1.20106 -1.0204 0
M  V30 9009 C 861.184 -0.970301 -2.12385 0
M  V30 9010 C 862.165 0.099378 -1.69809 0
M  V30 9011 O 863.35 -0.057365 -1.94115 0
M  V30 9012 C 860.48 -0.517431 -3.43424 0
M  V30 9013 C 859.434 -1.52992 -3.99722 0
M  V30 9014 C 858.76 -0.933817 -5.26483 0
M  V30 9015 C 860.06 -2.91257 -4.33551 0
M  V30 9016 H 861.754 -1.89316 -2.31948 0
M  V30 9017 H 859.3 -0.911655 -1.11467 0
M  V30 9018 H 861.253 -0.343243 -4.2 0
M  V30 9019 H 859.977 0.441049 -3.23608 0
M  V30 9020 H 858.636 -1.6914 -3.2525 0
M  V30 9021 H 858.284 0.0324763 -5.0299 0
M  V30 9022 H 857.984 -1.60999 -5.65113 0
M  V30 9023 H 859.508 -0.770614 -6.05718 0
M  V30 9024 H 860.922 -2.78642 -5.0103 0
M  V30 9025 H 859.319 -3.55745 -4.83286 0
M  V30 9026 H 860.389 -3.43269 -3.42483 0
M  V30 9027 N 861.732 1.21287 -1.00634 0
M  V30 9028 C 863.009 1.86 -0.605257 0
M  V30 9029 C 863.389 1.90139 0.917072 0
M  V30 9030 O 862.737 1.40169 1.80458 0
M  V30 9031 C 862.947 3.26183 -1.24119 0
M  V30 9032 C 864.295 4.02562 -1.35015 0
M  V30 9033 O 865.319 3.35499 -1.19661 0
M  V30 9034 O 864.178 5.22638 -1.59726 0
M  V30 9035 H 861.272 0.800549 -0.207486 0
M  V30 9036 H 863.818 1.28959 -1.10307 0
M  V30 9037 H 862.59 3.17878 -2.28186 0
M  V30 9038 H 862.213 3.90845 -0.729807 0
M  V30 9039 N 863.21 0.781244 1.36873 0
M  V30 9040 C 864.456 0.350407 1.9975 0
M  V30 9041 C 864.789 -1.07293 1.6187 0
M  V30 9042 O 864.064 -1.73983 0.869491 0
M  V30 9043 C 864.347 0.504834 3.56544 0
M  V30 9044 C 864.2 1.97127 4.04303 0
M  V30 9045 C 865.519 -0.0851272 4.40018 0
M  V30 9046 H 862.638 0.128794 0.725659 0
M  V30 9047 H 865.28 0.98606 1.6241 0
M  V30 9048 H 863.43 -0.0363006 3.88483 0
M  V30 9049 H 865.102 2.57284 3.82887 0
M  V30 9050 H 863.345 2.47676 3.56145 0
M  V30 9051 H 864.016 2.03033 5.13305 0
M  V30 9052 H 866.492 0.376704 4.14391 0
M  V30 9053 H 865.368 0.0530015 5.48874 0
M  V30 9054 H 865.629 -1.17642 4.2616 0
M  V30 9055 N 864.689 -1.48329 0.532571 0
M  V30 9056 C 865.637 -2.31336 -0.242133 0
M  V30 9057 C 866.631 -1.41391 -0.933006 0
M  V30 9058 O 867.837 -1.58284 -0.857096 0
M  V30 9059 H 864.212 -0.745724 -0.0969536 0
M  V30 9060 H 866.183 -2.94555 0.477504 0
M  V30 9061 C 864.932 -3.23501 -1.27446 0
M  V30 9062 H 864.255 -3.92659 -0.752261 0
M  V30 9063 H 865.695 -3.84461 -1.78789 0
M  V30 9064 C 864.154 -2.45288 -2.30944 0
M  V30 9065 O 864.684 -2.17955 -3.37429 0
M  V30 9066 N 862.89 -2.06737 -2.04226 0
M  V30 9067 H 862.437 -2.29166 -1.17647 0
M  V30 9068 H 862.395 -1.54719 -2.73696 0
M  V30 9069 N 866.167 -0.267825 -1.55308 0
M  V30 9070 C 867.077 0.633055 -2.25897 0
M  V30 9071 C 868.093 1.17613 -1.28231 0
M  V30 9072 O 869.269 1.20797 -1.61153 0
M  V30 9073 C 866.334 1.80397 -2.96071 0
M  V30 9074 C 865.395 1.29829 -4.09198 0
M  V30 9075 C 864.628 2.4134 -4.76016 0
M  V30 9076 O 864.851 3.60537 -4.42006 0
M  V30 9077 O 863.785 2.09909 -5.64111 0
M  V30 9078 H 867.611 0.0614381 -3.03638 0
M  V30 9079 H 865.196 -0.0355072 -1.49358 0
M  V30 9080 H 867.078 2.48685 -3.40197 0
M  V30 9081 H 865.753 2.36281 -2.21253 0
M  V30 9082 H 864.66 0.582086 -3.69544 0
M  V30 9083 H 865.993 0.785288 -4.85895 0
M  V30 9084 N 867.645 1.57599 0.00500368 0
M  V30 9085 C 868.578 2.03541 1.03181 0
M  V30 9086 C 869.556 0.924301 1.33774 0
M  V30 9087 O 870.74 1.19204 1.46023 0
M  V30 9088 C 867.867 2.42879 2.36067 0
M  V30 9089 C 866.913 3.64673 2.21169 0
M  V30 9090 S 867.746 5.12805 1.54243 0
M  V30 9091 C 868.902 5.55408 2.88569 0
M  V30 9092 H 869.135 2.90316 0.640598 0
M  V30 9093 H 866.668 1.52886 0.215722 0
M  V30 9094 H 868.626 2.66212 3.12476 0
M  V30 9095 H 867.287 1.56512 2.72329 0
M  V30 9096 H 866.48 3.89932 3.19326 0
M  V30 9097 H 866.082 3.41316 1.52904 0
M  V30 9098 H 868.374 5.57563 3.84876 0
M  V30 9099 H 869.317 6.55418 2.68016 0
M  V30 9100 H 869.725 4.82961 2.92249 0
M  V30 9101 N 869.123 -0.277682 1.55134 0
M  V30 9102 C 870.033 -1.36524 1.90783 0
M  V30 9103 C 871.049 -1.54283 0.804542 0
M  V30 9104 O 872.225 -1.68499 1.10318 0
M  V30 9105 C 869.29 -2.70524 2.16835 0
M  V30 9106 C 868.351 -2.61552 3.40424 0
M  V30 9107 C 867.584 -3.89162 3.65224 0
M  V30 9108 O 867.807 -4.89624 2.92616 0
M  V30 9109 O 866.741 -3.89647 4.58758 0
M  V30 9110 H 870.567 -1.0929 2.83354 0
M  V30 9111 H 868.152 -0.475799 1.41621 0
M  V30 9112 H 870.034 -3.49765 2.35038 0
M  V30 9113 H 868.709 -2.97555 1.27448 0
M  V30 9114 H 867.616 -1.80704 3.27562 0
M  V30 9115 H 868.949 -2.39472 4.30016 0
M  V30 9116 N 870.601 -1.47988 -0.541979 0
M  V30 9117 C 871.85 -1.5465 -1.29485 0
M  V30 9118 C 872.163 -0.220041 -1.94358 0
M  V30 9119 O 873.369 -0.164792 -2.70999 0
M  V30 9120 C 871.825 -2.72685 -2.34885 0
M  V30 9121 C 871.433 -4.11923 -1.76134 0
M  V30 9122 C 873.177 -2.88651 -3.11257 0
M  V30 9123 C 871.084 -5.21237 -2.79404 0
M  V30 9124 H 870.014 -0.575688 -0.486928 0
M  V30 9125 H 872.665 -1.74296 -0.573853 0
M  V30 9126 H 871.047 -2.46448 -3.09966 0
M  V30 9127 H 872.221 -4.48128 -1.07322 0
M  V30 9128 H 870.536 -4.00972 -1.12295 0
M  V30 9129 H 873.133 -3.67487 -3.88404 0
M  V30 9130 H 873.476 -1.97658 -3.66384 0
M  V30 9131 H 874.009 -3.14731 -2.43288 0
M  V30 9132 H 870.748 -6.14156 -2.29113 0
M  V30 9133 H 870.268 -4.89533 -3.4658 0
M  V30 9134 H 871.947 -5.48839 -3.42615 0
M  V30 9135 N 872.079 0.78992 -1.36375 0
M  V30 9136 C 873.042 1.88414 -1.30509 0
M  V30 9137 C 874.042 1.59384 -0.2129 0
M  V30 9138 O 875.232 1.67805 -0.467651 0
M  V30 9139 C 872.364 3.25188 -1.02302 0
M  V30 9140 H 873.557 1.95031 -2.27822 0
M  V30 9141 H 871.11 0.987664 -1.2114 0
M  V30 9142 H 871.845 3.24254 -0.0544486 0
M  V30 9143 H 871.63 3.47647 -1.81338 0
M  V30 9144 H 873.12 4.05252 -1.00801 0
M  V30 9145 N 873.557 1.20646 1.01402 0
M  V30 9146 C 874.968 1.01823 1.56489 0
M  V30 9147 C 875.319 -0.42463 1.9155 0
M  V30 9148 O 874.444 -1.30644 1.72514 0
M  V30 9149 C 875.039 1.84208 2.84347 0
M  V30 9150 C 873.598 1.69743 3.35953 0
M  V30 9151 C 872.745 1.8198 2.09233 0
M  V30 9152 H 875.696 1.348 0.837539 0
M  V30 9153 H 875.717 1.34698 3.55861 0
M  V30 9154 H 875.229 2.89215 2.58798 0
M  V30 9155 H 873.33 0.673833 3.66456 0
M  V30 9156 H 873.443 2.51173 4.07981 0
M  V30 9157 H 871.807 1.25193 2.21808 0
M  V30 9158 H 872.59 2.88477 1.86107 0
M  V30 9159 N 875.035 -1.20752 1.01276 0
M  V30 9160 C 876.283 -1.89645 0.698505 0
M  V30 9161 C 876.604 -1.78986 -0.773883 0
M  V30 9162 O 875.874 -1.18977 -1.55632 0
M  V30 9163 H 874.454 -0.701992 0.255375 0
M  V30 9164 H 877.116 -1.46668 1.28353 0
M  V30 9165 H 876.212 -2.96364 0.978512 0
M  V30 9166 N 876.513 -0.788492 -1.36457 0
M  V30 9167 C 877.743 -0.371825 -2.03227 0
M  V30 9168 C 878.151 1.01627 -1.59589 0
M  V30 9169 O 877.494 1.663 -0.780382 0
M  V30 9170 C 877.556 -0.355179 -3.57741 0
M  V30 9171 C 877.22 -1.69069 -4.24576 0
M  V30 9172 C 878.217 -2.64601 -4.47529 0
M  V30 9173 C 875.902 -1.96973 -4.62068 0
M  V30 9174 C 877.896 -3.86232 -5.07054 0
M  V30 9175 C 875.583 -3.18872 -5.2131 0
M  V30 9176 C 876.581 -4.1332 -5.43742 0
M  V30 9177 O 876.269 -5.3307 -6.0174 0
M  V30 9178 H 876.001 -0.151452 -0.658816 0
M  V30 9179 H 878.555 -1.06827 -1.75434 0
M  V30 9180 H 876.785 0.397753 -3.84649 0
M  V30 9181 H 878.474 0.0366955 -4.05883 0
M  V30 9182 H 879.24 -2.44329 -4.18961 0
M  V30 9183 H 875.119 -1.24277 -4.43933 0
M  V30 9184 H 878.663 -4.59965 -5.24478 0
M  V30 9185 H 874.56 -3.39022 -5.49304 0
M  V30 9186 H 875.328 -5.34121 -6.20207 0
M  V30 9187 N 877.991 1.48044 -0.54043 0
M  V30 9188 C 879.407 1.58354 -0.199006 0
M  V30 9189 C 879.607 1.54118 1.29807 0
M  V30 9190 O 878.663 1.43573 2.07709 0
M  V30 9191 C 879.976 2.89563 -0.810797 0
M  V30 9192 C 881.524 3.03113 -0.780486 0
M  V30 9193 C 881.999 4.36997 -1.37104 0
M  V30 9194 N 883.49 4.43591 -1.33347 0
M  V30 9195 C 884.225 5.45714 -1.76021 0
M  V30 9196 N 883.721 6.54738 -2.26473 0
M  V30 9197 N 885.514 5.36659 -1.67194 0
M  V30 9198 H 877.665 1.49041 -1.51329 0
M  V30 9199 H 879.928 0.708309 -0.630081 0
M  V30 9200 H 879.634 2.9835 -1.86227 0
M  V30 9201 H 879.508 3.76053 -0.293977 0
M  V30 9202 H 881.895 2.93932 0.262246 0
M  V30 9203 H 881.976 2.18207 -1.33489 0
M  V30 9204 H 881.62 4.46932 -2.41276 0
M  V30 9205 H 881.55 5.20607 -0.792229 0
M  V30 9206 H 884.041 3.65391 -0.964259 0
M  V30 9207 H 884.354 7.28814 -2.57002 0
M  V30 9208 H 882.699 6.55673 -2.30473 0
M  V30 9209 H 885.89 4.50382 -1.27569 0
M  V30 9210 H 886.063 6.16113 -2.00771 0
M  V30 9211 N 879.47 0.276058 1.55163 0
M  V30 9212 C 880.718 -0.339782 1.99223 0
M  V30 9213 C 881.039 -1.56307 1.16589 0
M  V30 9214 O 880.309 -1.94225 0.25564 0
M  V30 9215 H 878.889 -0.128534 0.735859 0
M  V30 9216 H 881.551 0.381612 1.91128 0
M  V30 9217 H 880.647 -0.629 3.05696 0
M  V30 9218 N 880.948 -1.576 0.00335426 0
M  V30 9219 C 882.178 -1.94713 -0.690682 0
M  V30 9220 C 882.586 -0.876915 -1.67651 0
M  V30 9221 O 881.929 0.152434 -1.83066 0
M  V30 9222 C 881.991 -3.27833 -1.47532 0
M  V30 9223 C 881.655 -4.52344 -0.650704 0
M  V30 9224 C 882.652 -5.19862 0.0630537 0
M  V30 9225 C 880.337 -4.98755 -0.595687 0
M  V30 9226 C 882.331 -6.32093 0.820779 0
M  V30 9227 C 880.018 -6.10875 0.165761 0
M  V30 9228 C 881.016 -6.77401 0.872724 0
M  V30 9229 O 880.704 -7.87372 1.62174 0
M  V30 9230 H 880.436 -0.646627 -0.197104 0
M  V30 9231 H 882.99 -2.05335 0.0516082 0
M  V30 9232 H 881.22 -3.13628 -2.26217 0
M  V30 9233 H 882.909 -3.50034 -2.05501 0
M  V30 9234 H 883.675 -4.84991 0.0297223 0
M  V30 9235 H 879.554 -4.46797 -1.13549 0
M  V30 9236 H 883.098 -6.83953 1.37312 0
M  V30 9237 H 878.995 -6.45187 0.200901 0
M  V30 9238 H 879.763 -8.03905 1.5388 0
M  V30 9239 N 882.426 0.269451 -1.5528 0
M  V30 9240 C 883.674 0.998604 -1.75705 0
M  V30 9241 C 883.995 1.86691 -0.563175 0
M  V30 9242 O 883.265 1.91305 0.421811 0
M  V30 9243 H 881.845 0.371698 -0.647958 0
M  V30 9244 H 884.507 0.292826 -1.92688 0
M  V30 9245 H 883.603 1.63348 -2.6594 0
M  V30 9246 N 883.904 1.48273 0.534124 0
M  V30 9247 C 884.867 1.6201 1.62127 0
M  V30 9248 C 885.867 0.493653 1.53035 0
M  V30 9249 O 887.057 0.759337 1.56779 0
M  V30 9250 C 884.189 1.5864 3.01739 0
M  V30 9251 H 885.382 2.58944 1.51288 0
M  V30 9252 H 882.935 1.36808 0.755861 0
M  V30 9253 H 883.67 0.631685 3.18088 0
M  V30 9254 H 883.455 2.40415 3.09747 0
M  V30 9255 H 884.945 1.71438 3.80787 0
M  V30 9256 N 885.382 -0.782676 1.36792 0
M  V30 9257 C 886.329 -1.89558 1.31667 0
M  V30 9258 C 887.299 -1.65076 0.184147 0
M  V30 9259 O 888.484 -1.87143 0.371753 0
M  V30 9260 C 885.624 -3.26469 1.11858 0
M  V30 9261 C 884.737 -3.62978 2.34245 0
M  V30 9262 C 883.872 -4.89041 2.07394 0
M  V30 9263 C 882.911 -5.18249 3.25706 0
M  V30 9264 N 882.048 -6.35497 2.98476 0
M  V30 9265 H 886.888 -1.93274 2.26824 0
M  V30 9266 H 884.425 -0.945057 1.12726 0
M  V30 9267 H 886.383 -4.05431 0.983968 0
M  V30 9268 H 885.013 -3.22158 0.203531 0
M  V30 9269 H 884.065 -2.79087 2.58485 0
M  V30 9270 H 885.377 -3.80507 3.22514 0
M  V30 9271 H 884.531 -5.75883 1.90901 0
M  V30 9272 H 883.27 -4.73594 1.16446 0
M  V30 9273 H 882.275 -4.29887 3.4275 0
M  V30 9274 H 883.5 -5.35611 4.1749 0
M  V30 9275 H 881.446 -6.21429 2.10146 0
M  V30 9276 H 881.363 -6.5339 3.80286 0
M  V30 9277 H 882.631 -7.25304 2.85577 0
M  V30 9278 N 886.86 -1.21182 -1.00761 0
M  V30 9279 C 888.108 -1.02543 -1.74153 0
M  V30 9280 C 888.429 0.442372 -1.89916 0
M  V30 9281 O 887.699 1.31927 -1.44818 0
M  V30 9282 H 886.279 -0.37644 -0.645214 0
M  V30 9283 H 888.941 -1.52446 -1.21434 0
M  V30 9284 H 888.037 -1.49122 -2.7417 0
M  V30 9285 N 888.338 1.20213 -1.01915 0
M  V30 9286 C 889.286 2.25125 -0.584936 0
M  V30 9287 C 890.28 1.65138 0.377602 0
M  V30 9288 O 891.486 1.78294 0.247245 0
M  V30 9289 H 887.861 0.732333 -0.170858 0
M  V30 9290 H 889.832 2.59075 -1.48063 0
M  V30 9291 C 888.581 3.47651 0.058389 0
M  V30 9292 H 887.904 3.9409 -0.673263 0
M  V30 9293 H 889.344 4.2275 0.325285 0
M  V30 9294 C 887.803 3.10725 1.30199 0
M  V30 9295 O 888.333 3.22491 2.39505 0
M  V30 9296 N 886.539 2.6525 1.18706 0
M  V30 9297 H 886.086 2.55875 0.297618 0
M  V30 9298 H 886.044 2.40913 2.02011 0
M  V30 9299 N 889.816 0.795718 1.36037 0
M  V30 9300 C 891.046 0.382597 2.03026 0
M  V30 9301 C 891.454 -1.00779 1.60126 0
M  V30 9302 O 890.797 -1.65884 0.78919 0
M  V30 9303 C 890.859 0.374145 3.57548 0
M  V30 9304 C 890.523 1.71318 4.23673 0
M  V30 9305 C 891.52 2.6697 4.4612 0
M  V30 9306 C 889.205 1.99421 4.61017 0
M  V30 9307 C 891.199 3.88916 5.04998 0
M  V30 9308 C 888.886 3.21632 5.19611 0
M  V30 9309 C 889.884 4.16198 5.41542 0
M  V30 9310 O 889.572 5.36254 5.98905 0
M  V30 9311 H 889.304 0.154944 0.658003 0
M  V30 9312 H 891.858 1.07756 1.74865 0
M  V30 9313 H 890.088 -0.377349 3.84854 0
M  V30 9314 H 891.777 -0.01517 4.05897 0
M  V30 9315 H 892.543 2.46548 4.17659 0
M  V30 9316 H 888.422 1.2663 4.43267 0
M  V30 9317 H 891.966 4.6274 5.22032 0
M  V30 9318 H 887.863 3.4193 5.47498 0
M  V30 9319 H 888.631 5.37403 6.17366 0
M  V30 9320 N 891.294 -1.47756 0.548274 0
M  V30 9321 C 892.543 -2.01691 0.0187961 0
M  V30 9322 C 892.856 -1.42894 -1.33569 0
M  V30 9323 O 894.062 -1.88438 -1.95457 0
M  V30 9324 C 892.518 -3.59896 -0.016847 0
M  V30 9325 C 892.126 -4.27683 1.33385 0
M  V30 9326 C 893.87 -4.21614 -0.494188 0
M  V30 9327 C 891.777 -5.7787 1.2578 0
M  V30 9328 H 890.707 -0.753993 0.00325648 0
M  V30 9329 H 893.358 -1.69838 0.694792 0
M  V30 9330 H 891.74 -3.88672 -0.758304 0
M  V30 9331 H 892.914 -4.10559 2.09232 0
M  V30 9332 H 891.229 -3.77915 1.7484 0
M  V30 9333 H 893.826 -5.3166 -0.569342 0
M  V30 9334 H 894.169 -3.88176 -1.50417 0
M  V30 9335 H 894.702 -3.97336 0.192138 0
M  V30 9336 H 891.441 -6.15912 2.2435 0
M  V30 9337 H 890.961 -5.97355 0.540997 0
M  V30 9338 H 892.64 -6.39897 0.956109 0
M  V30 9339 N 892.772 -0.284283 -1.55015 0
M  V30 9340 C 893.682 0.60906 -2.26556 0
M  V30 9341 C 894.698 1.16246 -1.29472 0
M  V30 9342 O 895.874 1.1908 -1.62425 0
M  V30 9343 C 892.939 1.77246 -2.97968 0
M  V30 9344 C 892 1.25482 -4.10552 0
M  V30 9345 C 891.233 2.36277 -4.78549 0
M  V30 9346 O 891.456 3.55829 -4.45805 0
M  V30 9347 O 890.39 2.03914 -5.66306 0
M  V30 9348 H 894.216 0.0292298 -3.03686 0
M  V30 9349 H 891.801 -0.0513466 -1.49312 0
M  V30 9350 H 893.683 2.45062 -3.42815 0
M  V30 9351 H 892.358 2.33921 -2.23747 0
M  V30 9352 H 891.265 0.542859 -3.7014 0
M  V30 9353 H 892.598 0.733708 -4.86701 0
M  V30 9354 N 894.251 1.57596 -0.0117121 0
M  V30 9355 C 895.199 2.1029 0.994035 0
M  V30 9356 C 896.193 1.02549 1.34833 0
M  V30 9357 O 897.399 1.21003 1.3326 0
M  V30 9358 H 893.774 0.671624 0.338268 0
M  V30 9359 H 895.745 2.93761 0.524147 0
M  V30 9360 C 894.494 2.63099 2.27319 0
M  V30 9361 H 893.817 3.45642 2.00927 0
M  V30 9362 H 895.257 3.03635 2.95942 0
M  V30 9363 C 893.716 1.55044 2.99104 0
M  V30 9364 O 894.246 0.940127 3.90544 0
M  V30 9365 N 892.452 1.27506 2.61133 0
M  V30 9366 H 891.999 1.77322 1.86855 0
M  V30 9367 H 891.957 0.554292 3.09475 0
M  V30 9368 N 895.729 -0.261212 1.5542 0
M  V30 9369 C 897.14 -0.83138 1.67167 0
M  V30 9370 C 897.491 -1.8659 0.606525 0
M  V30 9371 O 896.616 -2.14953 -0.24985 0
M  V30 9372 C 897.211 -1.51475 3.03052 0
M  V30 9373 C 895.77 -2.0328 3.16787 0
M  V30 9374 C 894.917 -0.878903 2.63003 0
M  V30 9375 H 897.868 -0.0373102 1.58656 0
M  V30 9376 H 897.889 -2.38222 2.96699 0
M  V30 9377 H 897.401 -0.76157 3.80554 0
M  V30 9378 H 895.502 -2.81523 2.44082 0
M  V30 9379 H 895.615 -2.24001 4.2351 0
M  V30 9380 H 893.979 -1.27551 2.2046 0
M  V30 9381 H 894.762 -0.13904 3.43018 0
M  V30 9382 N 897.207 -1.48554 -0.526253 0
M  V30 9383 C 898.137 -1.66252 -1.63959 0
M  V30 9384 C 899.118 -0.511351 -1.62232 0
M  V30 9385 O 900.303 -0.744322 -1.7937 0
M  V30 9386 C 897.433 -1.70556 -3.02536 0
M  V30 9387 C 896.387 -2.8521 -3.19123 0
M  V30 9388 C 895.713 -2.74606 -4.58798 0
M  V30 9389 C 897.013 -4.26463 -3.0154 0
M  V30 9390 H 898.707 -2.59459 -1.49404 0
M  V30 9391 H 896.253 -1.24862 -0.717326 0
M  V30 9392 H 898.206 -1.81524 -3.80298 0
M  V30 9393 H 896.93 -0.739297 -3.18123 0
M  V30 9394 H 895.589 -2.73802 -2.43779 0
M  V30 9395 H 895.237 -1.75941 -4.71226 0
M  V30 9396 H 894.937 -3.51544 -4.70841 0
M  V30 9397 H 896.461 -2.87548 -5.38655 0
M  V30 9398 H 897.875 -4.38685 -3.69091 0
M  V30 9399 H 896.272 -5.04428 -3.25073 0
M  V30 9400 H 897.342 -4.42667 -1.97925 0
M  V30 9401 N 898.685 0.775411 -1.37205 0
M  V30 9402 C 899.91 1.5696 -1.35567 0
M  V30 9403 C 900.335 1.88012 0.0575554 0
M  V30 9404 O 899.693 1.48954 1.03355 0
M  V30 9405 C 899.741 2.85886 -2.19776 0
M  V30 9406 O 898.845 3.80103 -1.59987 0
M  V30 9407 H 898.186 0.475583 -0.463375 0
M  V30 9408 H 900.716 0.96001 -1.80679 0
M  V30 9409 H 900.726 3.35024 -2.32859 0
M  V30 9410 H 899.401 2.62613 -3.22502 0
M  V30 9411 H 897.978 3.38736 -1.55924 0
M  V30 9412 N 900.163 1.21714 1.00117 0
M  V30 9413 C 901.409 1.03823 1.74208 0
M  V30 9414 C 901.742 -0.426733 1.89454 0
M  V30 9415 O 901.017 -1.31658 1.43166 0
M  V30 9416 C 901.3 1.74047 3.15246 0
M  V30 9417 C 901.153 3.28087 3.077 0
M  V30 9418 C 902.472 1.48614 4.14249 0
M  V30 9419 H 899.591 0.378573 0.632338 0
M  V30 9420 H 902.233 1.49942 1.16694 0
M  V30 9421 H 900.383 1.3484 3.64349 0
M  V30 9422 H 902.055 3.76686 2.6628 0
M  V30 9423 H 900.298 3.58191 2.44707 0
M  V30 9424 H 900.969 3.72392 4.07466 0
M  V30 9425 H 903.445 1.82656 3.73866 0
M  V30 9426 H 902.321 2.00257 5.11066 0
M  V30 9427 H 902.582 0.416957 4.40129 0
M  V30 9428 N 901.641 -1.19671 1.02551 0
M  V30 9429 C 902.588 -2.22773 0.603394 0
M  V30 9430 C 903.558 -1.61669 -0.381081 0
M  V30 9431 O 904.743 -1.88756 -0.278505 0
M  V30 9432 C 901.883 -3.45073 -0.0431034 0
M  V30 9433 C 900.996 -4.20574 0.987006 0
M  V30 9434 C 900.131 -5.30291 0.310626 0
M  V30 9435 C 899.17 -5.97545 1.32688 0
M  V30 9436 N 898.307 -6.98833 0.676542 0
M  V30 9437 H 903.147 -2.58238 1.48719 0
M  V30 9438 H 900.684 -1.26881 0.744286 0
M  V30 9439 H 902.642 -4.14925 -0.435141 0
M  V30 9440 H 901.272 -3.10274 -0.890495 0
M  V30 9441 H 900.324 -3.497 1.49713 0
M  V30 9442 H 901.636 -4.66736 1.75952 0
M  V30 9443 H 900.79 -6.06547 -0.136438 0
M  V30 9444 H 899.529 -4.8519 -0.49412 0
M  V30 9445 H 898.534 -5.20043 1.78424 0
M  V30 9446 H 899.759 -6.4473 2.13306 0
M  V30 9447 H 897.705 -6.55911 -0.108172 0
M  V30 9448 H 897.622 -7.43168 1.38699 0
M  V30 9449 H 898.89 -7.79088 0.253367 0
M  V30 9450 N 903.119 -0.802921 -1.35613 0
M  V30 9451 C 904.535 -0.486214 -1.52014 0
M  V30 9452 C 904.735 0.993219 -1.75321 0
M  V30 9453 O 903.791 1.77835 -1.79251 0
M  V30 9454 C 905.104 -1.32839 -2.69767 0
M  V30 9455 C 906.652 -1.32346 -2.83643 0
M  V30 9456 C 907.127 -2.14967 -4.04417 0
M  V30 9457 N 908.618 -2.12484 -4.11588 0
M  V30 9458 C 909.353 -2.73173 -5.04147 0
M  V30 9459 N 908.849 -3.42774 -6.02061 0
M  V30 9460 N 910.642 -2.62834 -4.96865 0
M  V30 9461 H 902.793 -1.76109 -1.18741 0
M  V30 9462 H 905.056 -0.74936 -0.580658 0
M  V30 9463 H 904.762 -2.37813 -2.5911 0
M  V30 9464 H 904.636 -0.979058 -3.64272 0
M  V30 9465 H 907.023 -0.281586 -2.93753 0
M  V30 9466 H 907.104 -1.71264 -1.90006 0
M  V30 9467 H 906.748 -3.19193 -3.95068 0
M  V30 9468 H 906.678 -1.73411 -4.97228 0
M  V30 9469 H 909.169 -1.61839 -3.41492 0
M  V30 9470 H 909.482 -3.86378 -6.69277 0
M  V30 9471 H 907.827 -3.46878 -6.02246 0
M  V30 9472 H 911.018 -2.08049 -4.19325 0
M  V30 9473 H 911.191 -3.10421 -5.68808 0
M  V30 9474 N 904.597 1.47463 -0.556102 0
M  V30 9475 C 905.529 2.28046 0.22968 0
M  V30 9476 C 906.542 1.3694 0.880409 0
M  V30 9477 O 907.731 1.61773 0.754447 0
M  V30 9478 C 904.831 3.11165 1.34273 0
M  V30 9479 C 904.004 4.30225 0.789004 0
M  V30 9480 C 903.063 4.94948 1.78641 0
M  V30 9481 O 902.089 5.53372 1.33297 0
M  V30 9482 N 903.291 4.89543 3.11974 0
M  V30 9483 H 906.056 2.96125 -0.461558 0
M  V30 9484 H 903.617 1.5708 -0.392105 0
M  V30 9485 H 905.609 3.51331 2.00869 0
M  V30 9486 H 904.179 2.45337 1.93722 0
M  V30 9487 H 903.399 3.94163 -0.0536971 0
M  V30 9488 H 904.687 5.07238 0.398378 0
M  V30 9489 H 904.085 4.43275 3.51459 0
M  V30 9490 H 902.642 5.33732 3.74131 0
M  V30 9491 N 906.075 0.2925 1.54862 0
M  V30 9492 C 906.985 -0.597036 2.26876 0
M  V30 9493 C 908.001 -1.15558 1.30086 0
M  V30 9494 O 909.177 -1.18217 1.63054 0
M  V30 9495 C 906.242 -1.75664 2.98903 0
M  V30 9496 C 905.303 -1.23303 4.11212 0
M  V30 9497 C 904.536 -2.33736 4.79795 0
M  V30 9498 O 904.759 -3.53459 4.47686 0
M  V30 9499 O 903.693 -2.00908 5.67379 0
M  V30 9500 H 907.519 -0.0131242 3.03697 0
M  V30 9501 H 905.104 0.0592642 1.49282 0
M  V30 9502 H 906.986 -2.43241 3.4411 0
M  V30 9503 H 905.661 -2.32731 2.24984 0
M  V30 9504 H 904.568 -0.523222 3.70423 0
M  V30 9505 H 905.901 -0.707887 4.87083 0
M  V30 9506 N 907.553 -1.57587 0.0200696 0
M  V30 9507 C 908.463 -2.13119 -0.980676 0
M  V30 9508 C 909.479 -1.08124 -1.36328 0
M  V30 9509 O 910.655 -1.40134 -1.44653 0
M  V30 9510 C 907.72 -2.63991 -2.24743 0
M  V30 9511 C 906.781 -3.83667 -1.9261 0
M  V30 9512 C 906.014 -4.32103 -3.13246 0
M  V30 9513 O 906.237 -3.79758 -4.25606 0
M  V30 9514 O 905.171 -5.24047 -2.96072 0
M  V30 9515 H 908.997 -2.98887 -0.538528 0
M  V30 9516 H 906.582 -1.48055 -0.19999 0
M  V30 9517 H 908.464 -2.9682 -2.99125 0
M  V30 9518 H 907.139 -1.81311 -2.68157 0
M  V30 9519 H 906.046 -3.55778 -1.15641 0
M  V30 9520 H 907.379 -4.67482 -1.54019 0
M  V30 9521 N 909.032 0.252966 -1.55557 0
M  V30 9522 C 910.281 0.979736 -1.76307 0
M  V30 9523 C 910.594 1.86714 -0.582871 0
M  V30 9524 O 911.8 2.6302 -0.673247 0
M  V30 9525 C 910.256 1.79205 -3.12112 0
M  V30 9526 C 909.864 0.952333 -4.37761 0
M  V30 9527 C 911.608 2.51191 -3.42203 0
M  V30 9528 C 909.515 1.76018 -5.64599 0
M  V30 9529 H 908.445 0.369538 -0.657235 0
M  V30 9530 H 911.096 0.234619 -1.81994 0
M  V30 9531 H 909.478 2.57888 -3.00515 0
M  V30 9532 H 910.652 0.208251 -4.60329 0
M  V30 9533 H 908.967 0.346082 -4.14959 0
M  V30 9534 H 911.564 3.12074 -4.34182 0
M  V30 9535 H 911.907 3.22499 -2.63249 0
M  V30 9536 H 912.44 1.79523 -3.54988 0
M  V30 9537 H 909.179 1.09095 -6.46358 0
M  V30 9538 H 908.699 2.4797 -5.46142 0
M  V30 9539 H 910.378 2.32884 -6.03634 0
M  V30 9540 N 910.51 1.48831 0.518367 0
M  V30 9541 C 911.787 1.47933 1.27966 0
M  V30 9542 C 912.167 0.197393 2.10175 0
M  V30 9543 O 911.515 -0.820656 2.13255 0
M  V30 9544 C 911.725 2.74816 2.15121 0
M  V30 9545 C 913.073 3.23613 2.74881 0
M  V30 9546 O 914.097 2.75814 2.254 0
M  V30 9547 O 912.956 4.06818 3.64913 0
M  V30 9548 H 910.05 0.591316 0.578164 0
M  V30 9549 H 912.596 1.61077 0.534065 0
M  V30 9550 H 911.368 3.59621 1.54234 0
M  V30 9551 H 910.991 2.64449 2.96905 0
M  V30 9552 N 911.988 -0.768124 1.37614 0
M  V30 9553 C 912.935 -1.88151 1.33671 0
M  V30 9554 C 913.905 -1.64871 0.201645 0
M  V30 9555 O 915.09 -1.86739 0.391582 0
M  V30 9556 C 912.23 -3.25264 1.15314 0
M  V30 9557 C 911.343 -3.60473 2.38082 0
M  V30 9558 C 910.478 -4.86814 2.12569 0
M  V30 9559 C 909.517 -5.14765 3.31184 0
M  V30 9560 N 908.654 -6.32295 3.052 0
M  V30 9561 H 913.494 -1.90857 2.28862 0
M  V30 9562 H 911.031 -0.933048 1.13722 0
M  V30 9563 H 912.989 -4.04364 1.02691 0
M  V30 9564 H 911.619 -3.21924 0.237689 0
M  V30 9565 H 910.671 -2.7633 2.61431 0
M  V30 9566 H 911.983 -3.77065 3.26532 0
M  V30 9567 H 911.137 -5.73826 1.96999 0
M  V30 9568 H 909.876 -4.72333 1.21462 0
M  V30 9569 H 908.881 -4.26227 3.4729 0
M  V30 9570 H 910.106 -5.31153 4.23147 0
M  V30 9571 H 908.052 -6.19166 2.16726 0
M  V30 9572 H 907.969 -6.4932 3.87195 0
M  V30 9573 H 909.237 -7.22234 2.93254 0
M  V30 9574 N 913.466 -1.22244 -0.994698 0
M  V30 9575 C 914.715 -1.04005 -1.72817 0
M  V30 9576 C 915.028 0.425413 -1.90918 0
M  V30 9577 O 916.234 0.727429 -2.61574 0
M  V30 9578 C 914.69 -1.81244 -3.10932 0
M  V30 9579 C 914.298 -3.32028 -3.00768 0
M  V30 9580 C 916.042 -1.71448 -3.88337 0
M  V30 9581 C 913.949 -4.01716 -4.34026 0
M  V30 9582 H 912.879 -0.385559 -0.647966 0
M  V30 9583 H 915.53 -1.46077 -1.11058 0
M  V30 9584 H 913.912 -1.3197 -3.73363 0
M  V30 9585 H 915.086 -3.88682 -2.47513 0
M  V30 9586 H 913.401 -3.4248 -2.36846 0
M  V30 9587 H 915.998 -2.20836 -4.86965 0
M  V30 9588 H 916.341 -0.674568 -4.10798 0
M  V30 9589 H 916.874 -2.18256 -3.3258 0
M  V30 9590 H 913.613 -5.05952 -4.16765 0
M  V30 9591 H 913.133 -3.49849 -4.87202 0
M  V30 9592 H 914.812 -4.0721 -5.02782 0
M  V30 9593 N 914.944 1.19125 -1.03184 0
M  V30 9594 C 915.876 2.21914 -0.573294 0
M  V30 9595 C 916.889 1.5894 0.352397 0
M  V30 9596 O 918.078 1.77883 0.148318 0
M  V30 9597 C 915.178 3.38403 0.18355 0
M  V30 9598 C 914.351 4.3096 -0.747817 0
M  V30 9599 C 913.41 5.26188 -0.0358489 0
M  V30 9600 O 912.436 5.65321 -0.663388 0
M  V30 9601 N 913.638 5.67235 1.23387 0
M  V30 9602 H 916.403 2.61881 -1.45734 0
M  V30 9603 H 913.964 1.33821 -0.911231 0
M  V30 9604 H 915.956 3.99124 0.669468 0
M  V30 9605 H 914.526 2.97201 0.969043 0
M  V30 9606 H 913.746 3.67976 -1.41377 0
M  V30 9607 H 915.034 4.89708 -1.38071 0
M  V30 9608 H 914.432 5.37481 1.76439 0
M  V30 9609 H 912.989 6.30196 1.66423 0
M  V30 9610 N 916.422 0.810101 1.35185 0
M  V30 9611 C 917.647 0.40364 2.03434 0
M  V30 9612 C 918.072 -0.97857 1.60641 0
M  V30 9613 O 917.43 -1.63435 0.784779 0
M  V30 9614 C 917.478 0.499154 3.57129 0
M  V30 9615 O 916.582 -0.486039 4.09526 0
M  V30 9616 H 915.923 0.168049 0.642383 0
M  V30 9617 H 918.453 1.09696 1.72708 0
M  V30 9618 H 918.463 0.370236 4.06317 0
M  V30 9619 H 917.138 1.50733 3.87624 0
M  V30 9620 H 915.715 -0.31707 3.7155 0
M  V30 9621 N 917.9 -1.47166 0.563914 0
M  V30 9622 C 918.81 -2.33885 -0.182977 0
M  V30 9623 C 919.826 -1.48605 -0.905132 0
M  V30 9624 O 921.002 -1.81518 -0.872527 0
M  V30 9625 C 918.067 -3.25433 -1.19558 0
M  V30 9626 C 917.128 -4.26607 -0.480129 0
M  V30 9627 C 916.361 -5.1378 -1.44449 0
M  V30 9628 O 916.584 -5.03531 -2.67979 0
M  V30 9629 O 915.518 -5.94109 -0.965321 0
M  V30 9630 H 919.344 -2.99065 0.528544 0
M  V30 9631 H 916.929 -1.45834 0.324468 0
M  V30 9632 H 918.811 -3.81964 -1.77993 0
M  V30 9633 H 917.486 -2.62873 -1.8889 0
M  V30 9634 H 916.393 -3.73817 0.145583 0
M  V30 9635 H 917.726 -4.919 0.171868 0
M  V30 9636 N 919.378 -0.300708 -1.54705 0
M  V30 9637 C 920.308 0.568675 -2.26469 0
M  V30 9638 C 921.289 1.13817 -1.26411 0
M  V30 9639 O 922.474 1.16756 -1.55183 0
M  V30 9640 C 919.604 1.74077 -3.00524 0
M  V30 9641 C 918.558 1.30165 -4.07727 0
M  V30 9642 C 917.884 2.55888 -4.69495 0
M  V30 9643 C 919.184 0.433106 -5.20501 0
M  V30 9644 H 920.878 -0.0298851 -2.99385 0
M  V30 9645 H 918.424 -0.0158135 -1.43991 0
M  V30 9646 H 920.377 2.35506 -3.49449 0
M  V30 9647 H 919.101 2.36556 -2.25186 0
M  V30 9648 H 917.76 0.710414 -3.59651 0
M  V30 9649 H 917.408 3.16681 -3.90797 0
M  V30 9650 H 917.108 2.27207 -5.41895 0
M  V30 9651 H 918.632 3.18121 -5.21183 0
M  V30 9652 H 920.046 0.95307 -5.65322 0
M  V30 9653 H 918.443 0.240085 -5.9962 0
M  V30 9654 H 919.513 -0.541866 -4.81863 0
M  V30 9655 N 920.856 1.57574 -0.0284266 0
M  V30 9656 C 921.766 2.13637 0.96936 0
M  V30 9657 C 922.782 1.08845 1.35752 0
M  V30 9658 O 923.958 1.40899 1.43908 0
M  V30 9659 C 921.023 2.65179 2.2334 0
M  V30 9660 C 920.084 3.84683 1.90572 0
M  V30 9661 C 919.317 4.33758 3.1095 0
M  V30 9662 O 919.54 3.82009 4.23586 0
M  V30 9663 O 918.474 5.2561 2.93288 0
M  V30 9664 H 922.3 2.99169 0.52267 0
M  V30 9665 H 919.885 1.48159 0.192135 0
M  V30 9666 H 921.767 2.98402 2.97547 0
M  V30 9667 H 920.442 1.82731 2.67191 0
M  V30 9668 H 919.349 3.56386 1.13753 0
M  V30 9669 H 920.682 4.68292 1.51538 0
M  V30 9670 N 922.334 -0.244713 1.55689 0
M  V30 9671 C 923.297 -1.2864 1.89695 0
M  V30 9672 C 924.297 -1.40969 0.773583 0
M  V30 9673 O 925.487 -1.39632 1.04156 0
M  V30 9674 C 922.619 -2.66379 2.12732 0
M  V30 9675 H 923.812 -0.997033 2.82841 0
M  V30 9676 H 921.365 -0.484103 1.48614 0
M  V30 9677 H 922.1 -3.00452 1.22062 0
M  V30 9678 H 921.885 -2.58812 2.94549 0
M  V30 9679 H 923.375 -3.41592 2.40218 0
M  V30 9680 N 923.813 -1.49104 -0.510467 0
M  V30 9681 C 924.776 -1.64569 -1.59529 0
M  V30 9682 C 925.776 -0.517937 -1.5223 0
M  V30 9683 O 926.966 -0.784183 -1.55551 0
M  V30 9684 C 924.098 -1.6342 -2.99177 0
M  V30 9685 H 925.291 -2.61318 -1.4715 0
M  V30 9686 H 922.844 -1.37993 -0.734001 0
M  V30 9687 H 923.579 -0.68221 -3.17043 0
M  V30 9688 H 923.364 -2.45312 -3.05883 0
M  V30 9689 H 924.854 -1.77474 -3.78011 0
M  V30 9690 N 925.291 0.760815 -1.38019 0
M  V30 9691 C 926.539 1.51673 -1.33566 0
M  V30 9692 C 926.86 1.94852 0.076024 0
M  V30 9693 O 926.13 1.67112 1.02227 0
M  V30 9694 H 924.71 0.562581 -0.491438 0
M  V30 9695 H 927.372 0.904832 -1.72623 0
M  V30 9696 H 926.468 2.41102 -1.98182 0
M  V30 9697 N 926.769 1.22769 0.988202 0
M  V30 9698 C 927.716 1.00195 2.07917 0
M  V30 9699 C 928.686 -0.0779391 1.65917 0
M  V30 9700 O 929.871 0.0726005 1.90662 0
M  V30 9701 C 927.011 0.590853 3.40004 0
M  V30 9702 C 926.124 1.74202 3.9532 0
M  V30 9703 C 925.259 1.27846 5.15586 0
M  V30 9704 C 924.298 2.40087 5.63049 0
M  V30 9705 N 923.435 1.94744 6.74551 0
M  V30 9706 H 928.275 1.93581 2.26562 0
M  V30 9707 H 925.812 0.96448 1.11068 0
M  V30 9708 H 927.77 0.333653 4.15864 0
M  V30 9709 H 926.4 -0.306007 3.21346 0
M  V30 9710 H 925.452 2.11342 3.16289 0
M  V30 9711 H 926.764 2.58612 4.26522 0
M  V30 9712 H 925.918 0.978919 5.9875 0
M  V30 9713 H 924.657 0.404617 4.86019 0
M  V30 9714 H 923.662 2.70824 4.78471 0
M  V30 9715 H 924.887 3.27995 5.9464 0
M  V30 9716 H 922.833 1.09729 6.46758 0
M  V30 9717 H 922.75 2.72718 7.05096 0
M  V30 9718 H 924.018 1.67873 7.61209 0
M  V30 9719 N 928.247 -1.18576 1.03814 0
M  V30 9720 C 929.524 -1.8433 0.654358 0
M  V30 9721 C 929.904 -1.92504 -0.866338 0
M  V30 9722 O 929.252 -1.44904 -1.76678 0
M  V30 9723 C 929.462 -3.22778 1.32723 0
M  V30 9724 C 930.81 -3.98841 1.45641 0
M  V30 9725 O 931.834 -3.32209 1.28514 0
M  V30 9726 O 930.693 -5.18219 1.73526 0
M  V30 9727 H 927.787 -0.794766 0.228638 0
M  V30 9728 H 930.333 -1.25989 1.13687 0
M  V30 9729 H 929.105 -3.11717 2.36534 0
M  V30 9730 H 928.728 -3.88772 0.833176 0
M  V30 9731 N 929.725 -0.817259 -1.34754 0
M  V30 9732 C 931.141 -0.502309 -1.51489 0
M  V30 9733 C 931.341 0.974568 -1.76364 0
M  V30 9734 O 930.397 1.75924 -1.81127 0
M  V30 9735 C 931.71 -1.35693 -2.68343 0
M  V30 9736 C 933.258 -1.35347 -2.82224 0
M  V30 9737 C 933.733 -2.19244 -4.02114 0
M  V30 9738 N 935.224 -2.16837 -4.09311 0
M  V30 9739 C 935.959 -2.78505 -5.01221 0
M  V30 9740 N 935.455 -3.4914 -5.98392 0
M  V30 9741 N 937.248 -2.68089 -4.94049 0
M  V30 9742 H 929.399 -1.77359 -1.16866 0
M  V30 9743 H 931.662 -0.755476 -0.572678 0
M  V30 9744 H 931.368 -2.40548 -2.56573 0
M  V30 9745 H 931.242 -1.01764 -3.63213 0
M  V30 9746 H 933.629 -0.312727 -2.93438 0
M  V30 9747 H 933.71 -1.7327 -1.88179 0
M  V30 9748 H 933.354 -3.23365 -3.9166 0
M  V30 9749 H 933.284 -1.78675 -4.95361 0
M  V30 9750 H 935.775 -1.65452 -3.39756 0
M  V30 9751 H 936.088 -3.93455 -6.65141 0
M  V30 9752 H 934.433 -3.53246 -5.98533 0
M  V30 9753 H 937.624 -2.12485 -4.17094 0
M  V30 9754 H 937.797 -3.16436 -5.65484 0
M  V30 9755 N 931.203 1.46865 -0.571711 0
M  V30 9756 C 932.153 2.27219 0.188503 0
M  V30 9757 C 933.137 1.35221 0.872019 0
M  V30 9758 O 934.329 1.59474 0.76793 0
M  V30 9759 C 931.458 3.21321 1.20862 0
M  V30 9760 C 930.544 4.20803 0.527783 0
M  V30 9761 N 930.935 5.04132 -0.410403 0
M  V30 9762 C 929.233 4.39128 0.779909 0
M  V30 9763 C 929.934 5.76071 -0.80728 0
M  V30 9764 N 928.91 5.43368 -0.158865 0
M  V30 9765 H 932.712 2.89034 -0.532611 0
M  V30 9766 H 930.226 1.57581 -0.392696 0
M  V30 9767 H 932.223 3.77586 1.76733 0
M  V30 9768 H 930.883 2.61065 1.93067 0
M  V30 9769 H 931.894 5.11911 -0.785351 0
M  V30 9770 H 928.571 3.90031 1.48937 0
M  V30 9771 H 929.961 6.53082 -1.57903 0
M  V30 9772 N 932.681 0.308908 1.54543 0
M  V30 9773 C 933.644 -0.550857 2.22482 0
M  V30 9774 C 934.644 -1.0551 1.21344 0
M  V30 9775 O 935.834 -0.949866 1.46025 0
M  V30 9776 C 932.966 -1.76354 2.9174 0
M  V30 9777 H 934.159 0.0428395 2.99869 0
M  V30 9778 H 931.712 0.059825 1.56185 0
M  V30 9779 H 932.447 -2.39686 2.18451 0
M  V30 9780 H 932.232 -1.40954 3.65889 0
M  V30 9781 H 933.722 -2.37417 3.43545 0
M  V30 9782 N 934.159 -1.57557 0.0367827 0
M  V30 9783 C 935.408 -1.91291 -0.639569 0
M  V30 9784 C 935.721 -0.915601 -1.72847 0
M  V30 9785 O 936.927 -1.14447 -2.46199 0
M  V30 9786 C 935.383 -3.39697 -1.18888 0
M  V30 9787 C 934.991 -4.47803 -0.132851 0
M  V30 9788 C 936.735 -3.82487 -1.8413 0
M  V30 9789 C 934.642 -5.87311 -0.694229 0
M  V30 9790 H 933.572 -0.713886 -0.242658 0
M  V30 9791 H 936.223 -1.83209 0.103332 0
M  V30 9792 H 934.605 -3.42736 -1.98363 0
M  V30 9793 H 935.779 -4.56334 0.640009 0
M  V30 9794 H 934.094 -4.14264 0.421264 0
M  V30 9795 H 936.691 -4.84076 -2.27101 0
M  V30 9796 H 937.034 -3.17959 -2.68716 0
M  V30 9797 H 937.567 -3.81903 -1.11332 0
M  V30 9798 H 934.306 -6.55401 0.113667 0
M  V30 9799 H 933.826 -5.82371 -1.4354 0
M  V30 9800 H 935.505 -6.36119 -1.1816 0
M  V30 9801 N 935.637 0.236453 -1.55816 0
M  V30 9802 C 936.569 1.31602 -1.87653 0
M  V30 9803 C 937.582 1.43782 -0.763584 0
M  V30 9804 O 938.771 1.44945 -1.04178 0
M  V30 9805 C 935.871 2.69342 -2.05689 0
M  V30 9806 C 935.044 2.79298 -3.36617 0
M  V30 9807 C 934.103 3.97952 -3.44268 0
M  V30 9808 O 933.129 3.86989 -4.17406 0
M  V30 9809 N 934.331 5.11594 -2.74321 0
M  V30 9810 H 937.096 1.04623 -2.80845 0
M  V30 9811 H 934.657 0.426534 -1.5618 0
M  V30 9812 H 936.649 3.47074 -2.08138 0
M  V30 9813 H 935.219 2.88984 -1.19192 0
M  V30 9814 H 934.439 1.8816 -3.46395 0
M  V30 9815 H 935.727 2.82908 -4.22895 0
M  V30 9816 H 935.125 5.23394 -2.14651 0
M  V30 9817 H 933.682 5.87422 -2.8245 0
M  V30 9818 N 937.115 1.49373 0.502552 0
M  V30 9819 C 938.025 1.68659 1.63068 0
M  V30 9820 C 939.041 0.569182 1.64427 0
M  V30 9821 O 940.217 0.843695 1.82876 0
M  V30 9822 C 937.282 1.74745 2.99441 0
M  V30 9823 C 936.343 2.98311 3.08721 0
M  V30 9824 C 935.576 3.04097 4.38589 0
M  V30 9825 O 935.799 2.17519 5.27297 0
M  V30 9826 O 934.733 3.96544 4.52809 0
M  V30 9827 H 938.559 2.64226 1.49727 0
M  V30 9828 H 936.144 1.33096 0.67867 0
M  V30 9829 H 938.026 1.8111 3.80496 0
M  V30 9830 H 936.701 0.823565 3.13048 0
M  V30 9831 H 935.608 2.97465 2.2686 0
M  V30 9832 H 936.941 3.90174 3.00041 0
M  V30 9833 N 938.594 -0.753485 1.38421 0
M  V30 9834 C 939.557 -1.84888 1.35459 0
M  V30 9835 C 940.557 -1.58764 0.255083 0
M  V30 9836 O 941.747 -1.66507 0.511978 0
M  V30 9837 C 938.879 -3.22361 1.10888 0
M  V30 9838 H 940.072 -1.88922 2.32913 0
M  V30 9839 H 937.625 -0.955199 1.23716 0
M  V30 9840 H 938.36 -3.23996 0.1404 0
M  V30 9841 H 938.145 -3.42717 1.90492 0
M  V30 9842 H 939.635 -4.02437 1.1151 0
M  V30 9843 N 940.072 -1.23292 -0.981677 0
M  V30 9844 C 941.002 -1.03738 -2.09191 0
M  V30 9845 C 941.983 0.0453041 -1.7004 0
M  V30 9846 O 943.168 -0.119092 -1.93834 0
M  V30 9847 C 940.298 -0.626426 -3.41604 0
M  V30 9848 C 939.252 -1.65631 -3.94652 0
M  V30 9849 C 938.578 -1.10084 -5.23245 0
M  V30 9850 C 939.878 -3.04903 -4.24066 0
M  V30 9851 H 941.572 -1.966 -2.25807 0
M  V30 9852 H 939.118 -0.946656 -1.0851 0
M  V30 9853 H 941.071 -0.476689 -4.18695 0
M  V30 9854 H 939.795 0.337873 -3.24848 0
M  V30 9855 H 938.454 -1.79402 -3.19704 0
M  V30 9856 H 938.102 -0.127562 -5.02838 0
M  V30 9857 H 937.802 -1.78896 -5.59705 0
M  V30 9858 H 939.326 -0.962928 -6.02959 0
M  V30 9859 H 940.74 -2.94441 -4.91912 0
M  V30 9860 H 939.137 -3.70941 -4.71724 0
M  V30 9861 H 940.207 -3.53991 -3.31389 0
M  V30 9862 N 941.55 1.18024 -1.04442 0
M  V30 9863 C 942.483 2.20623 -0.583171 0
M  V30 9864 C 943.461 1.57994 0.384262 0
M  V30 9865 O 944.645 1.86135 0.297673 0
M  V30 9866 C 941.772 3.38378 0.147561 0
M  V30 9867 C 940.818 4.19423 -0.773711 0
M  V30 9868 S 941.651 4.85534 -2.25869 0
M  V30 9869 C 942.807 6.06686 -1.53891 0
M  V30 9870 H 943.04 2.59406 -1.45244 0
M  V30 9871 H 940.573 1.28518 -0.855708 0
M  V30 9872 H 942.531 4.06621 0.562988 0
M  V30 9873 H 941.192 2.97998 0.992765 0
M  V30 9874 H 940.385 5.03568 -0.208694 0
M  V30 9875 H 939.987 3.56579 -1.12816 0
M  V30 9876 H 942.279 6.72347 -0.834045 0
M  V30 9877 H 943.222 6.67702 -2.35755 0
M  V30 9878 H 943.63 5.55031 -1.02961 0
M  V30 9879 N 943.028 0.824394 1.34319 0
M  V30 9880 C 944.439 0.471802 1.8064 0
M  V30 9881 C 944.79 -1.00793 1.6833 0
M  V30 9882 O 943.915 -1.78447 1.22416 0
M  V30 9883 C 944.51 0.849609 3.27974 0
M  V30 9884 C 943.069 0.549365 3.72369 0
M  V30 9885 C 942.216 1.06573 2.56003 0
M  V30 9886 H 945.167 1.01443 1.22045 0
M  V30 9887 H 945.188 0.153968 3.80188 0
M  V30 9888 H 944.7 1.92663 3.36902 0
M  V30 9889 H 942.801 -0.518182 3.68979 0
M  V30 9890 H 942.914 1.09446 4.66432 0
M  V30 9891 H 941.278 0.487214 2.49997 0
M  V30 9892 H 942.061 2.14923 2.677 0
M  V30 9893 N 944.506 -1.46559 0.579492 0
M  V30 9894 C 945.736 -2.06484 0.0692642 0
M  V30 9895 C 946.144 -1.4293 -1.23967 0
M  V30 9896 O 945.487 -0.527632 -1.75959 0
M  V30 9897 C 945.549 -3.59078 -0.174174 0
M  V30 9898 C 945.213 -4.44805 1.04867 0
M  V30 9899 C 946.21 -4.81543 1.95991 0
M  V30 9900 C 943.895 -4.8599 1.26961 0
M  V30 9901 C 945.889 -5.58288 3.0756 0
M  V30 9902 C 943.576 -5.62495 2.38836 0
M  V30 9903 C 944.574 -5.98558 3.28964 0
M  V30 9904 O 944.262 -6.73518 4.38896 0
M  V30 9905 H 943.994 -0.673917 0.0530331 0
M  V30 9906 H 946.548 -1.89223 0.79898 0
M  V30 9907 H 944.778 -3.74634 -0.958464 0
M  V30 9908 H 946.467 -4.00941 -0.632515 0
M  V30 9909 H 947.233 -4.50307 1.80136 0
M  V30 9910 H 943.112 -4.57372 0.577184 0
M  V30 9911 H 946.656 -5.86355 3.77933 0
M  V30 9912 H 942.553 -5.93145 2.54655 0
M  V30 9913 H 943.321 -6.91938 4.37223 0
M  V30 9914 N 945.984 -0.3171 -1.54377 0
M  V30 9915 C 946.894 0.560867 -2.27797 0
M  V30 9916 C 947.91 1.13473 -1.31908 0
M  V30 9917 O 949.086 1.15608 -1.64914 0
M  V30 9918 C 946.151 1.70886 -3.0166 0
M  V30 9919 C 945.212 1.16745 -4.13121 0
M  V30 9920 C 944.445 2.26073 -4.83453 0
M  V30 9921 O 944.668 3.46292 -4.53252 0
M  V30 9922 O 943.602 1.91856 -5.70504 0
M  V30 9923 H 947.428 -0.035193 -3.0368 0
M  V30 9924 H 945.013 -0.0830062 -1.49169 0
M  V30 9925 H 946.895 2.37736 -3.47936 0
M  V30 9926 H 945.57 2.29122 -2.28658 0
M  V30 9927 H 944.477 0.464224 -3.71209 0
M  V30 9928 H 945.81 0.630307 -4.88147 0
M  V30 9929 N 947.462 1.57535 -0.0451378 0
M  V30 9930 C 948.392 2.14208 0.929372 0
M  V30 9931 C 949.373 1.06221 1.32858 0
M  V30 9932 O 950.558 1.34132 1.40436 0
M  V30 9933 C 947.688 2.68217 2.20629 0
M  V30 9934 C 946.642 3.81134 1.94734 0
M  V30 9935 C 945.968 4.21636 3.28828 0
M  V30 9936 C 947.268 5.06531 1.27374 0
M  V30 9937 H 948.962 2.95886 0.457348 0
M  V30 9938 H 946.508 1.42332 0.218544 0
M  V30 9939 H 948.461 3.06502 2.89196 0
M  V30 9940 H 947.185 1.83722 2.70026 0
M  V30 9941 H 945.844 3.43312 1.28579 0
M  V30 9942 H 945.492 3.34099 3.76014 0
M  V30 9943 H 945.192 4.97736 3.12302 0
M  V30 9944 H 946.716 4.62516 3.98637 0
M  V30 9945 H 948.13 5.423 1.85967 0
M  V30 9946 H 946.527 5.87735 1.21194 0
M  V30 9947 H 947.597 4.84261 0.248913 0
M  V30 9948 N 948.94 -0.228186 1.55939 0
M  V30 9949 C 950.351 -0.795734 1.68893 0
M  V30 9950 C 950.702 -1.85261 0.645967 0
M  V30 9951 O 949.827 -2.15434 -0.2042 0
M  V30 9952 C 950.422 -1.45013 3.06197 0
M  V30 9953 C 948.981 -1.96514 3.21028 0
M  V30 9954 C 948.128 -0.822918 2.64808 0
M  V30 9955 H 951.079 -0.0036485 1.587 0
M  V30 9956 H 951.1 -2.31875 3.01685 0
M  V30 9957 H 950.612 -0.680678 3.82084 0
M  V30 9958 H 948.713 -2.76282 2.49998 0
M  V30 9959 H 948.826 -2.14967 4.28166 0
M  V30 9960 H 947.19 -1.22846 2.23116 0
M  V30 9961 H 947.973 -0.0662493 3.43236 0
M  V30 9962 N 950.418 -1.49637 -0.494624 0
M  V30 9963 C 951.381 -1.66252 -1.57775 0
M  V30 9964 C 952.381 -0.534054 -1.51672 0
M  V30 9965 O 953.571 -0.800637 -1.54711 0
M  V30 9966 C 950.703 -1.66584 -2.97426 0
M  V30 9967 H 951.896 -2.62864 -1.4437 0
M  V30 9968 H 949.449 -1.38764 -0.719323 0
M  V30 9969 H 950.184 -0.715798 -3.16302 0
M  V30 9970 H 949.969 -2.48543 -3.03264 0
M  V30 9971 H 951.459 -1.81474 -3.76108 0
M  V30 9972 N 951.896 0.746133 -1.38819 0
M  V30 9973 C 952.843 1.86001 -1.36647 0
M  V30 9974 C 953.813 1.6453 -0.227849 0
M  V30 9975 O 954.998 1.86092 -0.421241 0
M  V30 9976 C 952.138 3.23388 -1.20474 0
M  V30 9977 C 951.251 3.5664 -2.43786 0
M  V30 9978 C 950.386 4.8337 -2.20287 0
M  V30 9979 C 949.425 5.09431 -3.39332 0
M  V30 9980 N 948.562 6.2736 -3.1522 0
M  V30 9981 H 953.402 1.87192 -2.31869 0
M  V30 9982 H 950.939 0.914838 -1.15192 0
M  V30 9983 H 952.897 4.02679 -1.09112 0
M  V30 9984 H 951.527 3.21505 -0.288874 0
M  V30 9985 H 950.579 2.72135 -2.65794 0
M  V30 9986 H 951.891 3.71823 -3.3249 0
M  V30 9987 H 951.045 5.70619 -2.06103 0
M  V30 9988 H 949.784 4.70341 -1.28961 0
M  V30 9989 H 948.789 4.20648 -3.54027 0
M  V30 9990 H 950.014 5.24354 -4.31544 0
M  V30 9991 H 947.96 6.15639 -2.26549 0
M  V30 9992 H 947.877 6.43078 -3.97476 0
M  V30 9993 H 949.145 7.17477 -3.04707 0
M  V30 9994 N 953.375 1.23811 0.975125 0
M  V30 9995 C 954.605 1.0986 1.7497 0
M  V30 9996 C 955.013 -0.352366 1.8589 0
M  V30 9997 O 954.356 -1.2553 1.34119 0
M  V30 9998 C 954.418 1.65584 3.19096 0
M  V30 9999 C 954.082 3.14395 3.3167 0
M  V30 10000 C 955.079 4.1163 3.17579 0
M  V30 10001 C 952.764 3.54208 3.56149 0
M  V30 10002 C 954.758 5.46661 3.27781 0
M  V30 10003 C 952.445 4.89382 3.65989 0
M  V30 10004 C 953.443 5.85418 3.51817 0
M  V30 10005 O 953.131 7.18135 3.61299 0
M  V30 10006 H 952.863 0.384854 0.555755 0
M  V30 10007 H 955.417 1.64242 1.23343 0
M  V30 10008 H 953.647 1.05627 3.71994 0
M  V30 10009 H 955.336 1.47032 3.78334 0
M  V30 10010 H 956.102 3.82214 2.98559 0
M  V30 10011 H 951.981 2.79968 3.66249 0
M  V30 10012 H 955.525 6.21601 3.16636 0
M  V30 10013 H 951.422 5.18473 3.84521 0
M  V30 10014 H 952.19 7.25956 3.78061 0
M  V30 10015 N 954.853 -1.17469 1.05066 0
M  V30 10016 C 955.8 -2.21443 0.650512 0
M  V30 10017 C 956.77 -1.62441 -0.346702 0
M  V30 10018 O 957.955 -1.89305 -0.238404 0
M  V30 10019 C 955.095 -3.45087 0.0301014 0
M  V30 10020 C 954.208 -4.18385 1.07599 0
M  V30 10021 C 953.343 -5.29513 0.423038 0
M  V30 10022 C 952.382 -5.94596 1.45333 0
M  V30 10023 N 951.519 -6.97241 0.824623 0
M  V30 10024 H 956.359 -2.55025 1.54163 0
M  V30 10025 H 953.896 -1.25274 0.771032 0
M  V30 10026 H 955.854 -4.15754 -0.347032 0
M  V30 10027 H 954.484 -3.12093 -0.824481 0
M  V30 10028 H 953.536 -3.46446 1.57097 0
M  V30 10029 H 954.848 -4.62899 1.85813 0
M  V30 10030 H 954.002 -6.067 -0.00774975 0
M  V30 10031 H 952.741 -4.86129 -0.391092 0
M  V30 10032 H 951.746 -5.16142 1.89415 0
M  V30 10033 H 952.971 -6.40061 2.26934 0
M  V30 10034 H 950.917 -6.55993 0.0309804 0
M  V30 10035 H 950.834 -7.40059 1.54432 0
M  V30 10036 H 952.102 -7.78375 0.418567 0
M  V30 10037 N 956.331 -0.831506 -1.3388 0
M  V30 10038 C 957.294 -0.264773 -2.27666 0
M  V30 10039 C 958.294 0.562273 -1.50649 0
M  V30 10040 O 959.484 0.377131 -1.70069 0
M  V30 10041 C 956.616 0.627814 -3.35069 0
M  V30 10042 H 957.809 -1.09225 -2.79303 0
M  V30 10043 H 955.362 -0.604021 -1.44157 0
M  V30 10044 H 956.097 1.47802 -2.88661 0
M  V30 10045 H 955.882 0.0361552 -3.92083 0
M  V30 10046 H 957.372 1.01786 -4.05005 0
M  V30 10047 N 957.809 1.4625 -0.587256 0
M  V30 10048 C 959.225 1.57641 -0.249284 0
M  V30 10049 C 959.425 1.58169 1.24839 0
M  V30 10050 O 958.481 1.50109 2.03036 0
M  V30 10051 C 959.794 2.86837 -0.902509 0
M  V30 10052 C 961.342 3.00476 -0.876524 0
M  V30 10053 C 961.817 4.32414 -1.50938 0
M  V30 10054 N 963.308 4.39124 -1.47392 0
M  V30 10055 C 964.043 5.39838 -1.93293 0
M  V30 10056 N 963.539 6.47202 -2.47188 0
M  V30 10057 N 965.332 5.31068 -1.84183 0
M  V30 10058 H 957.483 1.44151 -1.55994 0
M  V30 10059 H 959.746 0.687905 -0.652297 0
M  V30 10060 H 959.452 2.92274 -1.95624 0
M  V30 10061 H 959.326 3.74927 -0.413466 0
M  V30 10062 H 961.713 2.94618 0.168601 0
M  V30 10063 H 961.794 2.1385 -1.40363 0
M  V30 10064 H 961.438 4.3903 -2.55372 0
M  V30 10065 H 961.368 5.17823 -0.957455 0
M  V30 10066 H 963.859 3.62138 -1.08002 0
M  V30 10067 H 964.172 7.20269 -2.80058 0
M  V30 10068 H 962.517 6.48009 -2.51216 0
M  V30 10069 H 965.708 4.46095 -1.41833 0
M  V30 10070 H 965.881 6.09414 -2.2027 0
M  V30 10071 N 959.287 0.325282 1.54207 0
M  V30 10072 C 960.235 -0.5554 2.25872 0
M  V30 10073 C 961.229 -1.11714 1.27344 0
M  V30 10074 O 962.435 -1.06498 1.45115 0
M  V30 10075 H 958.81 -0.19776 0.725531 0
M  V30 10076 H 960.781 0.0712858 2.98315 0
M  V30 10077 C 959.53 -1.70379 3.03095 0
M  V30 10078 H 958.853 -1.2808 3.78729 0
M  V30 10079 H 960.293 -2.29556 3.56483 0
M  V30 10080 C 958.752 -2.62242 2.11496 0
M  V30 10081 O 959.282 -3.64003 1.69895 0
M  V30 10082 N 957.488 -2.30515 1.7695 0
M  V30 10083 H 957.035 -1.47805 2.10978 0
M  V30 10084 H 956.993 -2.92241 1.15942 0
M  V30 10085 N 960.765 -1.57509 0.0534917 0
M  V30 10086 C 961.675 -2.15152 -0.935249 0
M  V30 10087 C 962.691 -1.10991 -1.34003 0
M  V30 10088 O 963.867 -1.43171 -1.41648 0
M  V30 10089 C 960.932 -2.68699 -2.19093 0
M  V30 10090 C 959.993 -3.87666 -1.84428 0
M  V30 10091 C 959.226 -4.3865 -3.0401 0
M  V30 10092 O 959.449 -3.887 -4.17455 0
M  V30 10093 O 958.383 -5.30209 -2.84889 0
M  V30 10094 H 962.209 -2.99962 -0.475009 0
M  V30 10095 H 959.794 -1.48446 -0.16854 0
M  V30 10096 H 961.676 -3.03098 -2.92762 0
M  V30 10097 H 960.351 -1.86958 -2.6425 0
M  V30 10098 H 959.258 -3.58151 -1.08068 0
M  V30 10099 H 960.591 -4.70643 -1.44068 0
M  V30 10100 N 962.243 0.219913 -1.56058 0
M  V30 10101 C 963.659 0.569685 -1.49086 0
M  V30 10102 C 963.859 1.87066 -0.748903 0
M  V30 10103 O 962.915 2.50838 -0.289235 0
M  V30 10104 C 964.228 0.647397 -2.93648 0
M  V30 10105 C 965.776 0.737914 -3.04177 0
M  V30 10106 C 966.251 0.846957 -4.50101 0
M  V30 10107 N 967.742 0.911136 -4.5415 0
M  V30 10108 C 968.477 1.01525 -5.64341 0
M  V30 10109 N 967.973 1.0832 -6.8428 0
M  V30 10110 N 969.766 1.05051 -5.52196 0
M  V30 10111 H 961.917 -0.633778 -2.02724 0
M  V30 10112 H 964.18 -0.222583 -0.921499 0
M  V30 10113 H 963.886 -0.238987 -3.50887 0
M  V30 10114 H 963.76 1.51046 -3.45637 0
M  V30 10115 H 966.147 1.61474 -2.47002 0
M  V30 10116 H 966.228 -0.150845 -2.55355 0
M  V30 10117 H 965.872 -0.0254166 -5.07894 0
M  V30 10118 H 965.802 1.75116 -4.96631 0
M  V30 10119 H 968.293 0.868869 -3.67776 0
M  V30 10120 H 968.606 1.16247 -7.64007 0
M  V30 10121 H 966.951 1.05231 -6.86987 0
M  V30 10122 H 970.142 0.994086 -4.57423 0
M  V30 10123 H 970.315 1.12819 -6.38103 0
M  V30 10124 N 963.721 1.49897 0.486681 0
M  V30 10125 C 964.651 1.7054 1.59494 0
M  V30 10126 C 965.632 0.554184 1.60819 0
M  V30 10127 O 966.817 0.791617 1.77333 0
M  V30 10128 C 963.947 1.78517 2.97908 0
M  V30 10129 C 962.901 2.93571 3.11449 0
M  V30 10130 C 962.227 2.86674 4.51356 0
M  V30 10131 C 963.527 4.34308 2.90127 0
M  V30 10132 H 965.221 2.63329 1.42472 0
M  V30 10133 H 962.767 1.2672 0.683969 0
M  V30 10134 H 964.72 1.91544 3.75352 0
M  V30 10135 H 963.444 0.823381 3.16051 0
M  V30 10136 H 962.103 2.80169 2.36433 0
M  V30 10137 H 961.751 1.88373 4.66395 0
M  V30 10138 H 961.451 3.63903 4.61355 0
M  V30 10139 H 962.975 3.01728 5.30841 0
M  V30 10140 H 964.389 4.48317 3.57331 0
M  V30 10141 H 962.786 5.12869 3.11585 0
M  V30 10142 H 963.856 4.47759 1.86119 0
M  V30 10143 N 965.199 -0.738761 1.39212 0
M  V30 10144 C 966.447 -1.49529 1.35962 0
M  V30 10145 C 966.768 -1.94948 -0.0450152 0
M  V30 10146 O 966.038 -1.68717 -0.995552 0
M  V30 10147 H 964.618 -0.554692 0.500326 0
M  V30 10148 H 967.28 -0.877255 1.74041 0
M  V30 10149 H 966.376 -2.37919 2.01993 0
M  V30 10150 N 966.677 -1.24326 -0.968545 0
M  V30 10151 C 967.954 -0.990459 -1.68669 0
M  V30 10152 C 968.334 0.487487 -2.05394 0
M  V30 10153 O 967.682 1.46158 -1.75642 0
M  V30 10154 C 967.892 -1.91251 -2.91931 0
M  V30 10155 C 969.24 -2.18291 -3.6419 0
M  V30 10156 O 970.264 -1.88897 -3.01987 0
M  V30 10157 O 969.123 -2.68204 -4.76161 0
M  V30 10158 H 966.217 -0.374515 -0.737338 0
M  V30 10159 H 968.763 -1.35421 -1.02271 0
M  V30 10160 H 967.535 -2.9111 -2.61478 0
M  V30 10161 H 967.158 -1.55188 -3.66064 0
M  V30 10162 N 968.156 1.1691 -1.05688 0
M  V30 10163 C 969.103 2.21095 -0.662246 0
M  V30 10164 C 970.073 1.62623 0.338083 0
M  V30 10165 O 971.258 1.89428 0.228362 0
M  V30 10166 C 968.398 3.45066 -0.0484018 0
M  V30 10167 C 967.511 4.17809 -1.09817 0
M  V30 10168 C 966.646 5.29281 -0.451114 0
M  V30 10169 C 965.685 5.93817 -1.48484 0
M  V30 10170 N 964.822 6.96793 -0.861588 0
M  V30 10171 H 969.662 2.54204 -1.55513 0
M  V30 10172 H 967.199 1.24863 -0.777665 0
M  V30 10173 H 969.157 4.15932 0.324978 0
M  V30 10174 H 967.787 3.12526 0.807918 0
M  V30 10175 H 966.839 3.45608 -1.58932 0
M  V30 10176 H 968.151 4.61907 -1.88265 0
M  V30 10177 H 967.305 6.06695 -0.0244251 0
M  V30 10178 H 966.044 4.8633 0.365306 0
M  V30 10179 H 965.049 5.1513 -1.92149 0
M  V30 10180 H 966.274 6.38848 -2.30325 0
M  V30 10181 H 964.22 6.55967 -0.0657688 0
M  V30 10182 H 964.137 7.39229 -1.58354 0
M  V30 10183 H 965.405 7.78142 -0.45984 0
M  V30 10184 O 969.673 0.973286 1.28877 0
M  V30 10185 H 970.364 0.614502 1.83694 0
M  V30 END ATOM
M  V30 BEGIN BOND
M  V30 END BOND
M  V30 END CTAB
M  END
$$$$
