drugbank_target|P17413 Fumarate reductase cytochrome b subunit (DB07669)
 OpenBabel12092120463D

  0  0  0     0  0            999 V3000
M  V30 BEGIN CTAB
M  V30 COUNTS 4223 4290 0 0 0
M  V30 BEGIN ATOM
M  V30 1 H -0.908 1.98254 -0.117106 0
M  V30 2 N 0 1.576 0 0
M  V30 3 C 0.933 2.03868 1.02534 0
M  V30 4 C 1.911 0.928543 1.3348 0
M  V30 5 O 3.095 1.19667 1.45644 0
M  V30 6 C 0.222 2.43627 2.35294 0
M  V30 7 C -0.732 3.65373 2.2001 0
M  V30 8 S 0.101 5.13292 1.52614 0
M  V30 9 C 1.257 5.56322 2.86805 0
M  V30 10 H 1.49 2.90518 0.631377 0
M  V30 11 H -0.977 1.52953 0.210867 0
M  V30 12 H 0.981 2.67203 3.11629 0
M  V30 13 H -0.358 1.57376 2.7183 0
M  V30 14 H -1.165 3.90944 3.18086 0
M  V30 15 H -1.563 3.418 1.51819 0
M  V30 16 H 0.729 5.58782 3.83104 0
M  V30 17 H 1.672 6.56266 2.65933 0
M  V30 18 H 2.08 4.83886 2.90714 0
M  V30 19 N 1.4781 -0.272755 1.55222 0
M  V30 20 C 2.7061 -1.02255 1.79865 0
M  V30 21 C 3.1211 -1.79924 0.572088 0
M  V30 22 O 2.4781 -1.76638 -0.458842 0
M  V30 23 C 2.5291 -1.98094 3.02392 0
M  V30 24 O 2.2501 -1.23572 4.20311 0
M  V30 25 C 3.7511 -2.84884 3.39641 0
M  V30 26 H 0.9711 -0.302057 0.599168 0
M  V30 27 H 3.5151 -0.303465 2.02236 0
M  V30 28 H 1.6701 -2.65465 2.82147 0
M  V30 29 H 2.0841 -1.88172 4.89583 0
M  V30 30 H 3.5581 -3.47927 4.28545 0
M  V30 31 H 4.0351 -3.54665 2.59055 0
M  V30 32 H 4.6411 -2.23003 3.62146 0
M  V30 33 N 2.9562 -1.48159 -0.537278 0
M  V30 34 C 3.9042 -1.62573 -1.66352 0
M  V30 35 C 4.8982 -0.492366 -1.62087 0
M  V30 36 O 6.1042 -0.670847 -1.67032 0
M  V30 37 H 2.4792 -0.511992 -0.550789 0
M  V30 38 H 4.4502 -2.57176 -1.51337 0
M  V30 39 C 3.1992 -1.67583 -3.04649 0
M  V30 40 H 2.5222 -2.54151 -3.08622 0
M  V30 41 H 3.9622 -1.81713 -3.83088 0
M  V30 42 C 2.4212 -0.413039 -3.34358 0
M  V30 43 O 2.9512 0.477259 -3.98855 0
M  V30 44 N 1.1572 -0.286961 -2.8918 0
M  V30 45 H 0.7042 -1.01241 -2.36871 0
M  V30 46 H 0.6622 0.556963 -3.09427 0
M  V30 47 N 4.4343 0.785586 -1.36625 0
M  V30 48 C 5.3443 1.92964 -1.33425 0
M  V30 49 C 6.3603 1.72394 -0.235851 0
M  V30 50 O 7.5363 1.95866 -0.468878 0
M  V30 51 C 4.6013 3.27884 -1.12662 0
M  V30 52 C 3.6623 3.61204 -2.32013 0
M  V30 53 C 2.8953 4.89687 -2.12231 0
M  V30 54 O 3.1183 5.59704 -1.09945 0
M  V30 55 O 2.0523 5.21752 -3.00098 0
M  V30 56 H 5.8783 1.98613 -2.29753 0
M  V30 57 H 3.4633 0.926384 -1.17211 0
M  V30 58 H 5.3453 4.08614 -1.03016 0
M  V30 59 H 4.0203 3.23118 -0.193991 0
M  V30 60 H 2.9273 2.80765 -2.47228 0
M  V30 61 H 4.2603 3.70698 -3.23796 0
M  V30 62 N 5.9124 1.20967 1.01018 0
M  V30 63 C 7.1374 1.0503 1.78839 0
M  V30 64 C 7.5624 -0.395752 1.8389 0
M  V30 65 O 6.9204 -1.28529 1.27867 0
M  V30 66 C 6.9684 1.64602 3.2084 0
M  V30 67 O 6.0724 0.887988 4.02726 0
M  V30 68 H 5.4134 0.369987 0.551367 0
M  V30 69 H 7.9434 1.60399 1.27018 0
M  V30 70 H 7.9534 1.68607 3.71532 0
M  V30 71 H 6.6284 2.69841 3.16479 0
M  V30 72 H 5.2054 0.922648 3.61305 0
M  V30 73 N 7.3905 -1.2043 1.01659 0
M  V30 74 C 8.6395 -1.89118 0.701237 0
M  V30 75 C 8.9525 -1.79705 -0.772358 0
M  V30 76 O 10.1585 -2.43528 -1.20026 0
M  V30 77 C 8.6145 -3.39168 1.20388 0
M  V30 78 C 8.2225 -3.57166 2.70438 0
M  V30 79 C 9.9665 -4.1341 0.963953 0
M  V30 80 C 7.8735 -5.01042 3.14183 0
M  V30 81 H 6.8035 -0.708267 0.2586 0
M  V30 82 H 9.4545 -1.36239 1.22927 0
M  V30 83 H 7.8365 -3.91369 0.603824 0
M  V30 84 H 9.0105 -3.15351 3.35992 0
M  V30 85 H 7.3255 -2.96294 2.92572 0
M  V30 86 H 9.9225 -5.19491 1.26621 0
M  V30 87 H 10.2655 -4.16181 -0.099578 0
M  V30 88 H 10.7985 -3.67309 1.52738 0
M  V30 89 H 7.5375 -5.03426 4.19812 0
M  V30 90 H 7.0575 -5.43668 2.53348 0
M  V30 91 H 8.7365 -5.69623 3.0682 0
M  V30 92 N 8.8686 -0.792821 -1.36206 0
M  V30 93 C 9.7986 -0.207853 -2.32573 0
M  V30 94 C 10.7796 0.659055 -1.56813 0
M  V30 95 O 11.9646 0.592176 -1.84951 0
M  V30 96 C 9.0946 0.655449 -3.41059 0
M  V30 97 C 8.0486 -0.111842 -4.27854 0
M  V30 98 C 7.3746 0.872274 -5.27537 0
M  V30 99 C 8.6746 -1.30299 -5.05786 0
M  V30 100 H 10.3686 -1.01294 -2.81744 0
M  V30 101 H 7.9146 -0.48854 -1.3546 0
M  V30 102 H 9.8676 1.07464 -4.07467 0
M  V30 103 H 8.5916 1.49328 -2.90463 0
M  V30 104 H 7.2506 -0.512053 -3.63006 0
M  V30 105 H 6.8986 1.70523 -4.73214 0
M  V30 106 H 6.5986 0.363291 -5.86476 0
M  V30 107 H 8.1226 1.28996 -5.96818 0
M  V30 108 H 9.5366 -0.959379 -5.65216 0
M  V30 109 H 7.9336 -1.7455 -5.74154 0
M  V30 110 H 9.0036 -2.09663 -4.37229 0
M  V30 111 N 10.3467 1.47872 -0.545128 0
M  V30 112 C 11.2567 2.33633 0.212746 0
M  V30 113 C 12.2727 1.4744 0.923983 0
M  V30 114 O 13.4487 1.80393 0.895572 0
M  V30 115 C 10.5137 3.23884 1.23693 0
M  V30 116 C 9.5747 4.25961 0.534417 0
M  V30 117 C 8.8077 5.11899 1.5098 0
M  V30 118 O 9.0307 5.00077 2.7437 0
M  V30 119 O 7.9647 5.92831 1.0409 0
M  V30 120 H 11.7907 2.99714 -0.490416 0
M  V30 121 H 9.3757 1.46235 -0.305871 0
M  V30 122 H 11.2577 3.79666 1.82843 0
M  V30 123 H 9.9327 2.60446 1.92222 0
M  V30 124 H 8.8397 3.73972 -0.0979679 0
M  V30 125 H 10.1727 4.92079 -0.109213 0
M  V30 126 N 11.8248 0.280983 1.55075 0
M  V30 127 C 13.0498 -0.340154 2.04592 0
M  V30 128 C 13.4748 -1.48246 1.15779 0
M  V30 129 O 12.8328 -1.80614 0.15761 0
M  V30 130 C 12.8808 -0.793104 3.5177 0
M  V30 131 O 11.9848 -1.89981 3.66034 0
M  V30 132 H 11.3258 -0.0694289 0.66036 0
M  V30 133 H 13.8558 0.416993 2.00306 0
M  V30 134 H 13.8658 -1.08729 3.93245 0
M  V30 135 H 12.5408 0.0426163 4.15878 0
M  V30 136 H 11.1178 -1.60771 3.36463 0
M  V30 137 N 13.3029 -1.57598 0.00835791 0
M  V30 138 C 14.5329 -1.94931 -0.684496 0
M  V30 139 C 14.9409 -0.882233 -1.67372 0
M  V30 140 O 14.2839 0.146621 -1.83114 0
M  V30 141 C 14.3459 -3.283 -1.4649 0
M  V30 142 C 14.0099 -4.52548 -0.63634 0
M  V30 143 C 15.0069 -5.19839 0.0795586 0
M  V30 144 C 12.6919 -4.98942 -0.579849 0
M  V30 145 C 14.6859 -6.3183 0.840843 0
M  V30 146 C 12.3729 -6.10819 0.185155 0
M  V30 147 C 13.3709 -6.77121 0.894227 0
M  V30 148 O 13.0589 -7.86853 1.64673 0
M  V30 149 H 12.7909 -0.647249 -0.19505 0
M  V30 150 H 15.3449 -2.05318 0.0581272 0
M  V30 151 H 13.5749 -3.14345 -2.2522 0
M  V30 152 H 15.2639 -3.50685 -2.04389 0
M  V30 153 H 16.0299 -4.84979 0.0451202 0
M  V30 154 H 11.9089 -4.47155 -1.1213 0
M  V30 155 H 15.4529 -6.83513 1.39483 0
M  V30 156 H 11.3499 -6.4512 0.221384 0
M  V30 157 H 12.1179 -8.03412 1.56432 0
M  V30 158 N 14.781 0.264519 -1.55364 0
M  V30 159 C 16.006 1.01726 -1.80739 0
M  V30 160 C 16.431 1.78836 -0.583044 0
M  V30 161 O 15.789 1.75167 0.467566 0
M  V30 162 C 15.837 1.94482 -3.03659 0
M  V30 163 O 14.941 3.03386 -2.7934 0
M  V30 164 H 14.282 0.290395 -0.597132 0
M  V30 165 H 16.812 0.290854 -2.02522 0
M  V30 166 H 16.822 2.36278 -3.32621 0
M  V30 167 H 15.497 1.37772 -3.92418 0
M  V30 168 H 14.074 2.65844 -2.61498 0
M  V30 169 N 16.2591 1.48442 0.529413 0
M  V30 170 C 17.5071 1.56179 1.28267 0
M  V30 171 C 17.8281 0.237721 1.93546 0
M  V30 172 O 17.0981 -0.740779 1.81354 0
M  V30 173 H 15.6781 0.575367 0.476405 0
M  V30 174 H 18.3401 1.84909 0.61602 0
M  V30 175 H 17.4361 2.34312 2.06165 0
M  V30 176 N 17.7372 -0.778329 1.37039 0
M  V30 177 C 18.9832 -1.53892 1.32079 0
M  V30 178 C 19.3162 -1.9396 -0.0965386 0
M  V30 179 O 18.5912 -1.63568 -1.05242 0
M  V30 180 C 18.8742 -2.80847 2.25382 0
M  V30 181 C 18.7272 -2.47076 3.75864 0
M  V30 182 C 20.0462 -3.82741 2.1725 0
M  V30 183 H 17.1652 -0.558303 0.48111 0
M  V30 184 H 19.8072 -0.893397 1.67685 0
M  V30 185 H 17.9572 -3.35931 1.95148 0
M  V30 186 H 19.6292 -1.97957 4.16666 0
M  V30 187 H 17.8722 -1.79863 3.94755 0
M  V30 188 H 18.5432 -3.37798 4.36574 0
M  V30 189 H 21.0192 -3.37133 2.43887 0
M  V30 190 H 19.8952 -4.69303 2.84686 0
M  V30 191 H 20.1562 -4.2652 1.16331 0
M  V30 192 N 19.2153 -1.21501 -1.00376 0
M  V30 193 C 20.4433 -1.059 -1.77744 0
M  V30 194 C 20.8583 0.391125 -1.84704 0
M  V30 195 O 20.2153 1.27133 -1.30933 0
M  V30 196 C 20.2663 -1.65111 -3.21591 0
M  V30 197 O 19.9873 -3.0445 -3.15027 0
M  V30 198 C 21.4883 -1.54637 -4.15454 0
M  V30 199 H 18.7083 -0.371825 -0.558558 0
M  V30 200 H 21.2523 -1.60865 -1.26264 0
M  V30 201 H 19.4073 -1.14235 -3.70175 0
M  V30 202 H 19.8213 -3.3278 -4.0541 0
M  V30 203 H 21.2953 -2.00808 -5.14179 0
M  V30 204 H 21.7723 -0.501022 -4.36333 0
M  V30 205 H 22.3783 -2.04767 -3.72761 0
M  V30 206 N 20.6934 1.19889 -1.02296 0
M  V30 207 C 22.1044 1.71124 -0.746568 0
M  V30 208 C 22.4554 1.81939 0.734335 0
M  V30 209 O 21.5804 1.48639 1.57275 0
M  V30 210 C 22.1754 3.10804 -1.34857 0
M  V30 211 C 20.7344 3.59323 -1.1209 0
M  V30 212 C 19.8814 2.3635 -1.45031 0
M  V30 213 H 22.8324 1.04813 -1.19163 0
M  V30 214 H 22.8534 3.73186 -0.742437 0
M  V30 215 H 22.3654 3.029 -2.42638 0
M  V30 216 H 20.4664 3.7255 -0.0610337 0
M  V30 217 H 20.5794 4.4378 -1.80544 0
M  V30 218 H 18.9434 2.39399 -0.869487 0
M  V30 219 H 19.7264 2.31081 -2.53883 0
M  V30 220 N 22.1715 0.800033 1.35784 0
M  V30 221 C 23.0815 0.207204 2.33683 0
M  V30 222 C 24.0975 -0.64631 1.61551 0
M  V30 223 O 25.2735 -0.559604 1.93469 0
M  V30 224 C 22.3385 -0.639659 3.40748 0
M  V30 225 C 21.3995 0.233585 4.28664 0
M  V30 226 C 20.6325 -0.572954 5.30616 0
M  V30 227 O 20.8555 -1.80816 5.40982 0
M  V30 228 O 19.7895 0.0327285 6.01891 0
M  V30 229 H 23.6155 1.01692 2.86169 0
M  V30 230 H 21.2005 0.561691 1.38439 0
M  V30 231 H 23.0825 -1.12223 4.06182 0
M  V30 232 H 21.7575 -1.42708 2.90544 0
M  V30 233 H 20.6645 0.763147 3.66233 0
M  V30 234 H 21.9975 0.984784 4.82248 0
M  V30 235 N 23.6496 -1.47581 0.552962 0
M  V30 236 C 25.0656 -1.5818 0.212424 0
M  V30 237 C 25.2656 -1.55213 -1.28496 0
M  V30 238 O 24.3216 -1.45329 -2.06484 0
M  V30 239 C 25.6346 -2.88865 0.835318 0
M  V30 240 C 27.1826 -3.0244 0.806156 0
M  V30 241 C 27.6576 -4.35819 1.40804 0
M  V30 242 N 29.1486 -4.42444 1.37103 0
M  V30 243 C 29.8836 -5.44202 1.80641 0
M  V30 244 N 29.3796 -6.52795 2.32015 0
M  V30 245 N 31.1726 -5.35222 1.71738 0
M  V30 246 H 23.3236 -1.47753 1.52587 0
M  V30 247 H 25.5866 -0.702941 0.636064 0
M  V30 248 H 25.2926 -2.9676 1.88749 0
M  V30 249 H 25.1666 -3.7579 0.325848 0
M  V30 250 H 27.5536 -2.94144 -0.237317 0
M  V30 251 H 27.6346 -2.17068 1.35334 0
M  V30 252 H 27.2786 -4.44871 2.45056 0
M  V30 253 H 27.2086 -5.19916 0.836338 0
M  V30 254 H 29.6996 -3.6456 0.995202 0
M  V30 255 H 30.0126 -7.26609 2.63171 0
M  V30 256 H 28.3576 -6.53696 2.36023 0
M  V30 257 H 31.5486 -4.49284 1.31382 0
M  V30 258 H 31.7216 -6.14389 2.05987 0
M  V30 259 N 25.1277 -0.289203 -1.54924 0
M  V30 260 C 26.0747 0.592115 -2.23075 0
M  V30 261 C 27.0447 1.13881 -1.20915 0
M  V30 262 O 28.2297 1.18551 -1.495 0
M  V30 263 C 25.3697 1.76376 -2.96623 0
M  V30 264 C 24.4827 1.24959 -4.13533 0
M  V30 265 C 23.6177 2.38416 -4.74691 0
M  V30 266 C 22.6567 1.84072 -5.83767 0
M  V30 267 N 21.7937 2.91057 -6.38929 0
M  V30 268 H 26.6337 0.00432038 -2.98 0
M  V30 269 H 24.1707 -0.00963529 -1.47097 0
M  V30 270 H 26.1287 2.45268 -3.3749 0
M  V30 271 H 24.7587 2.32337 -2.24097 0
M  V30 272 H 23.8107 0.453307 -3.77689 0
M  V30 273 H 25.1227 0.811662 -4.92152 0
M  V30 274 H 24.2767 3.15276 -5.18349 0
M  V30 275 H 23.0157 2.8553 -3.95378 0
M  V30 276 H 22.0207 1.05697 -5.39545 0
M  V30 277 H 23.2457 1.37877 -6.64956 0
M  V30 278 H 21.1917 3.37526 -5.62505 0
M  V30 279 H 21.1087 2.51724 -7.12861 0
M  V30 280 H 22.3767 3.6785 -6.87246 0
M  V30 281 N 26.6058 1.57591 -0.0167156 0
M  V30 282 C 27.5528 2.09462 0.969251 0
M  V30 283 C 28.5228 0.99381 1.33089 0
M  V30 284 O 29.7078 1.26726 1.42636 0
M  V30 285 C 26.8478 2.61622 2.25051 0
M  V30 286 C 25.9608 3.85666 1.94642 0
M  V30 287 C 25.0958 4.26266 3.16972 0
M  V30 288 C 24.1348 5.43101 2.82326 0
M  V30 289 N 23.2718 5.78915 3.97243 0
M  V30 290 H 28.1118 2.93428 0.519997 0
M  V30 291 H 25.6488 1.45044 0.245087 0
M  V30 292 H 27.6068 2.89949 2.99976 0
M  V30 293 H 26.2368 1.80505 2.67615 0
M  V30 294 H 25.2888 3.64145 1.10013 0
M  V30 295 H 26.6008 4.70678 1.65117 0
M  V30 296 H 25.7548 4.55963 4.00228 0
M  V30 297 H 24.4938 3.39996 3.49648 0
M  V30 298 H 23.4988 5.1311 1.97479 0
M  V30 299 H 24.7238 6.3106 2.50879 0
M  V30 300 H 22.6698 4.95602 4.29785 0
M  V30 301 H 22.5868 6.58539 3.71299 0
M  V30 302 H 23.8548 6.13212 4.81239 0
M  V30 303 N 28.0839 -0.256276 1.55502 0
M  V30 304 C 29.3089 -1.00766 1.81276 0
M  V30 305 C 29.7339 -1.78524 0.59252 0
M  V30 306 O 29.0919 -1.75413 -0.45827 0
M  V30 307 C 29.1399 -1.92869 3.04687 0
M  V30 308 O 28.2439 -3.019 2.80945 0
M  V30 309 H 27.5849 -0.287224 0.598664 0
M  V30 310 H 30.1149 -0.280109 2.02674 0
M  V30 311 H 30.1249 -2.34511 3.33869 0
M  V30 312 H 28.7999 -1.35689 3.93143 0
M  V30 313 H 27.3769 -2.64454 2.62904 0
M  V30 314 N 29.562 -1.4872 -0.521534 0
M  V30 315 C 30.978 -1.35028 -0.850855 0
M  V30 316 C 31.178 -0.367712 -1.98116 0
M  V30 317 O 30.234 0.208037 -2.51642 0
M  V30 318 C 31.547 -2.75263 -1.21041 0
M  V30 319 C 33.095 -2.83813 -1.31981 0
M  V30 320 C 33.57 -4.24769 -1.71276 0
M  V30 321 N 35.061 -4.27482 -1.78363 0
M  V30 322 C 35.796 -5.33494 -2.1017 0
M  V30 323 N 35.292 -6.49775 -2.40343 0
M  V30 324 N 37.085 -5.20894 -2.11248 0
M  V30 325 H 29.236 -2.11214 0.22413 0
M  V30 326 H 31.499 -0.947252 0.0376439 0
M  V30 327 H 31.205 -3.48765 -0.453415 0
M  V30 328 H 31.079 -3.09327 -2.15863 0
M  V30 329 H 33.466 -2.10561 -2.06756 0
M  V30 330 H 33.547 -2.53358 -0.352596 0
M  V30 331 H 33.191 -4.9854 -0.970588 0
M  V30 332 H 33.121 -4.52673 -2.69062 0
M  V30 333 H 35.612 -3.43611 -1.57288 0
M  V30 334 H 35.925 -7.26402 -2.63743 0
M  V30 335 H 34.27 -6.53035 -2.37844 0
M  V30 336 H 37.461 -4.29065 -1.87139 0
M  V30 337 H 37.634 -6.03612 -2.35704 0
M  V30 338 N 31.0401 0.771051 -1.3745 0
M  V30 339 C 31.9731 1.89166 -1.27638 0
M  V30 340 C 32.9511 1.61842 -0.156782 0
M  V30 341 O 34.1351 1.85569 -0.331111 0
M  V30 342 C 31.2621 3.24405 -0.973621 0
M  V30 343 C 30.3081 3.70638 -2.1102 0
M  V30 344 S 31.1411 3.84228 -3.73 0
M  V30 345 C 32.2971 5.22313 -3.44876 0
M  V30 346 H 32.5301 1.972 -2.22485 0
M  V30 347 H 30.0631 0.932224 -1.23081 0
M  V30 348 H 32.0211 4.02514 -0.805766 0
M  V30 349 H 30.6821 3.14071 -0.0426279 0
M  V30 350 H 29.8751 4.68685 -1.85338 0
M  V30 351 H 29.4771 2.99632 -2.23822 0
M  V30 352 H 31.7691 6.07505 -2.99908 0
M  V30 353 H 32.7121 5.53008 -4.42253 0
M  V30 354 H 33.1201 4.90284 -2.79789 0
M  V30 355 N 32.5182 1.22032 0.997298 0
M  V30 356 C 33.9292 1.0397 1.55071 0
M  V30 357 C 34.2802 -0.398192 1.92117 0
M  V30 358 O 33.4052 -1.28254 1.74298 0
M  V30 359 C 34.0002 1.88109 2.81781 0
M  V30 360 C 32.5592 1.74357 3.33581 0
M  V30 361 C 31.7062 1.84846 2.06706 0
M  V30 362 H 34.6572 1.35941 0.818883 0
M  V30 363 H 34.6782 1.39589 3.53971 0
M  V30 364 H 34.1902 2.92754 2.54787 0
M  V30 365 H 32.2912 0.72427 3.65493 0
M  V30 366 H 32.4042 2.56772 4.04481 0
M  V30 367 H 30.7682 1.28238 2.20062 0
M  V30 368 H 31.5512 2.91014 1.82114 0
M  V30 369 N 33.9963 -1.19345 1.0293 0
M  V30 370 C 34.9593 -2.20793 0.615069 0
M  V30 371 C 35.9593 -1.57553 -0.321533 0
M  V30 372 O 37.1493 -1.73862 -0.108483 0
M  V30 373 C 34.2813 -3.40754 -0.0999222 0
M  V30 374 H 35.4743 -2.58955 1.51269 0
M  V30 375 H 33.0273 -1.3303 0.820534 0
M  V30 376 H 33.7623 -3.0811 -1.01187 0
M  V30 377 H 33.5473 -3.87889 0.57309 0
M  V30 378 H 35.0373 -4.15898 -0.376645 0
M  V30 379 N 35.4744 -0.807222 -1.35358 0
M  V30 380 C 36.4214 -0.216037 -2.29787 0
M  V30 381 C 37.3914 0.650278 -1.52842 0
M  V30 382 O 38.5764 0.595227 -1.81278 0
M  V30 383 C 35.7164 0.628893 -3.39321 0
M  V30 384 C 34.8294 -0.257927 -4.31229 0
M  V30 385 C 33.9644 0.595069 -5.27856 0
M  V30 386 C 33.0034 -0.292111 -6.11403 0
M  V30 387 N 32.1404 0.520895 -7.00165 0
M  V30 388 H 36.9804 -1.02671 -2.79755 0
M  V30 389 H 34.5174 -0.517839 -1.37684 0
M  V30 390 H 36.4754 1.13393 -4.01494 0
M  V30 391 H 35.1054 1.40482 -2.90628 0
M  V30 392 H 34.1574 -0.881076 -3.70056 0
M  V30 393 H 35.4694 -0.940759 -4.89848 0
M  V30 394 H 34.6234 1.16522 -5.95405 0
M  V30 395 H 33.3624 1.31146 -4.69736 0
M  V30 396 H 32.3674 -0.874525 -5.428 0
M  V30 397 H 33.5924 -1.00638 -6.71602 0
M  V30 398 H 31.5384 1.22125 -6.44532 0
M  V30 399 H 31.4554 -0.103877 -7.55929 0
M  V30 400 H 32.7234 1.0743 -7.72062 0
M  V30 401 N 36.9525 1.47285 -0.560781 0
M  V30 402 C 37.8825 2.32857 0.173105 0
M  V30 403 C 38.8635 1.44009 0.905281 0
M  V30 404 O 40.0485 1.7286 0.885046 0
M  V30 405 C 37.1785 3.25861 1.20133 0
M  V30 406 C 36.1325 4.23978 0.585388 0
M  V30 407 C 35.4585 5.06332 1.7185 0
M  V30 408 C 36.7585 5.20242 -0.463178 0
M  V30 409 H 38.4525 2.94466 -0.541307 0
M  V30 410 H 35.9985 1.41601 -0.261764 0
M  V30 411 H 37.9515 3.84569 1.72293 0
M  V30 412 H 36.6755 2.62315 1.94573 0
M  V30 413 H 35.3345 3.66501 0.085054 0
M  V30 414 H 34.9825 4.39186 2.45203 0
M  V30 415 H 34.6825 5.72762 1.31213 0
M  V30 416 H 36.2065 5.67899 2.24329 0
M  V30 417 H 37.6205 5.73293 -0.027502 0
M  V30 418 H 36.0175 5.94896 -0.788627 0
M  V30 419 H 37.0875 4.65504 -1.35773 0
M  V30 420 N 38.4306 0.297415 1.54768 0
M  V30 421 C 39.7076 -0.365847 1.92148 0
M  V30 422 C 40.0876 -1.71975 1.22424 0
M  V30 423 O 39.4356 -2.25666 0.358739 0
M  V30 424 C 39.6456 -0.484056 3.45627 0
M  V30 425 C 40.9936 -0.756594 4.17805 0
M  V30 426 O 42.0176 -0.568007 3.51642 0
M  V30 427 O 40.8766 -1.11863 5.34929 0
M  V30 428 H 37.9706 -0.203919 0.801465 0
M  V30 429 H 40.5166 0.34521 1.66152 0
M  V30 430 H 39.2886 0.467865 3.88493 0
M  V30 431 H 38.9116 -1.24372 3.77647 0
M  V30 432 N 39.9087 -1.5758 0.0250728 0
M  V30 433 C 41.1547 -1.92746 -0.649648 0
M  V30 434 C 41.5097 -0.901588 -1.69968 0
M  V30 435 O 40.8027 0.0829251 -1.9142 0
M  V30 436 C 40.9967 -3.32421 -1.31268 0
M  V30 437 C 40.8257 -4.48499 -0.328394 0
M  V30 438 C 39.5957 -5.05251 0.070284 0
M  V30 439 C 41.7937 -5.12618 0.415665 0
M  V30 440 N 39.7757 -6.04851 1.05016 0
M  V30 441 C 41.1467 -6.0728 1.24943 0
M  V30 442 C 43.2017 -4.95612 0.476803 0
M  V30 443 C 41.9047 -6.86766 2.1388 0
M  V30 444 C 43.9307 -5.75703 1.3535 0
M  V30 445 C 43.2927 -6.69978 2.17504 0
M  V30 446 H 39.3917 -0.753231 -0.210159 0
M  V30 447 H 41.9757 -1.94486 0.0912999 0
M  V30 448 H 40.1467 -3.31508 -2.02379 0
M  V30 449 H 41.8787 -3.54946 -1.94411 0
M  V30 450 H 38.6337 -4.72628 -0.303323 0
M  V30 451 H 39.0577 -6.5934 1.53622 0
M  V30 452 H 43.6997 -4.22554 -0.144105 0
M  V30 453 H 41.4177 -7.59132 2.77027 0
M  V30 454 H 45.0037 -5.64579 1.40504 0
M  V30 455 H 43.8837 -7.30873 2.84244 0
M  V30 456 N 41.3868 0.248026 -1.55636 0
M  V30 457 C 42.6328 0.973427 -1.78594 0
M  V30 458 C 42.9878 1.83007 -0.593823 0
M  V30 459 O 42.2808 1.87097 0.412961 0
M  V30 460 C 42.4748 1.86819 -3.04686 0
M  V30 461 C 42.3038 1.09965 -4.36048 0
M  V30 462 C 41.0738 0.805204 -4.98843 0
M  V30 463 C 43.2718 0.477783 -5.12076 0
M  V30 464 N 41.2538 0.0124859 -6.13899 0
M  V30 465 C 42.6248 -0.179565 -6.1974 0
M  V30 466 C 44.6798 0.388136 -4.96385 0
M  V30 467 C 43.3828 -0.91795 -7.13419 0
M  V30 468 C 45.4088 -0.336716 -5.90441 0
M  V30 469 C 44.7708 -0.982705 -6.97511 0
M  V30 470 H 40.8698 0.337348 -0.705493 0
M  V30 471 H 43.4538 0.24667 -1.93131 0
M  V30 472 H 41.6248 2.56698 -2.9148 0
M  V30 473 H 43.3568 2.52907 -3.15944 0
M  V30 474 H 40.1118 1.11671 -4.60246 0
M  V30 475 H 40.5358 -0.371933 -6.75978 0
M  V30 476 H 45.1778 0.873237 -4.13684 0
M  V30 477 H 42.8958 -1.41466 -7.95621 0
M  V30 478 H 46.4818 -0.406731 -5.80377 0
M  V30 479 H 45.3618 -1.53464 -7.69037 0
M  V30 480 N 42.8649 1.48995 0.513639 0
M  V30 481 C 43.7969 1.60836 1.63293 0
M  V30 482 C 44.8099 0.491701 1.55197 0
M  V30 483 O 45.9989 0.763238 1.6136 0
M  V30 484 C 43.0989 1.53731 3.02027 0
M  V30 485 C 42.2719 2.80715 3.35437 0
M  V30 486 C 41.3309 2.66837 4.53525 0
M  V30 487 O 40.3569 3.40753 4.55934 0
M  V30 488 N 41.5589 1.77539 5.52684 0
M  V30 489 H 44.3239 2.57366 1.53566 0
M  V30 490 H 41.8849 1.45925 0.701259 0
M  V30 491 H 43.8769 1.42118 3.78926 0
M  V30 492 H 42.4469 0.651092 3.05744 0
M  V30 493 H 41.6669 3.06772 2.47557 0
M  V30 494 H 42.9549 3.64927 3.54551 0
M  V30 495 H 42.3529 1.16719 5.53528 0
M  V30 496 H 40.9099 1.71856 6.28736 0
M  V30 497 N 44.343 -0.763751 1.37857 0
M  V30 498 C 45.568 -1.55805 1.36893 0
M  V30 499 C 45.993 -1.88054 -0.0416135 0
M  V30 500 O 45.351 -1.49825 -1.02089 0
M  V30 501 C 45.399 -2.84012 2.22192 0
M  V30 502 O 44.503 -3.78732 1.63204 0
M  V30 503 H 43.844 -0.471638 0.46739 0
M  V30 504 H 46.374 -0.944657 1.81487 0
M  V30 505 H 46.384 -3.33037 2.35691 0
M  V30 506 H 45.059 -2.59869 3.24716 0
M  V30 507 H 43.636 -3.37402 1.58791 0
M  V30 508 N 45.8211 -1.22559 -0.990812 0
M  V30 509 C 46.7841 -0.998863 -2.0629 0
M  V30 510 C 47.7841 0.0354834 -1.60761 0
M  V30 511 O 48.9741 -0.203231 -1.7301 0
M  V30 512 C 46.1061 -0.509203 -3.37076 0
M  V30 513 H 47.2991 -1.95014 -2.27837 0
M  V30 514 H 44.8521 -1.04456 -1.16269 0
M  V30 515 H 45.5871 0.446335 -3.21214 0
M  V30 516 H 45.3721 -1.25547 -3.71457 0
M  V30 517 H 46.8621 -0.370888 -4.1595 0
M  V30 518 N 47.2992 1.18797 -1.03562 0
M  V30 519 C 48.5272 1.92599 -0.755869 0
M  V30 520 C 48.9422 1.75886 0.686271 0
M  V30 521 O 48.2992 1.08517 1.46732 0
M  V30 522 C 48.3502 3.44159 -1.10619 0
M  V30 523 O 48.0712 3.60341 -2.4917 0
M  V30 524 C 49.5722 4.3507 -0.850214 0
M  V30 525 H 46.7922 0.611587 -0.276048 0
M  V30 526 H 49.3362 1.50742 -1.38192 0
M  V30 527 H 47.4912 3.83823 -0.525194 0
M  V30 528 H 47.9052 4.54128 -2.62427 0
M  V30 529 H 49.3792 5.39989 -1.14523 0
M  V30 530 H 49.8562 4.38673 0.215176 0
M  V30 531 H 50.4622 4.01097 -1.41426 0
M  V30 532 N 48.7773 0.814389 1.34928 0
M  V30 533 C 50.0253 0.397636 1.9815 0
M  V30 534 C 50.3463 -1.04069 1.64908 0
M  V30 535 O 49.6163 -1.72121 0.93548 0
M  V30 536 H 48.1963 0.144043 0.732981 0
M  V30 537 H 50.8583 1.04195 1.6471 0
M  V30 538 H 49.9543 0.509688 3.0791 0
M  V30 539 N 50.2554 -1.46986 0.568584 0
M  V30 540 C 51.1854 -2.32946 -0.160753 0
M  V30 541 C 52.1664 -1.44487 -0.897631 0
M  V30 542 O 53.3514 -1.73327 -0.875867 0
M  V30 543 C 50.4814 -3.26494 -1.18403 0
M  V30 544 C 49.4354 -4.24282 -0.562895 0
M  V30 545 C 48.7614 -5.07236 -1.69163 0
M  V30 546 C 50.0614 -5.19989 0.490761 0
M  V30 547 H 51.7554 -2.94175 0.556916 0
M  V30 548 H 49.3014 -1.4146 0.26927 0
M  V30 549 H 51.2544 -3.85477 -1.70251 0
M  V30 550 H 49.9784 -2.63343 -1.93179 0
M  V30 551 H 48.6374 -3.66541 -0.0656164 0
M  V30 552 H 48.2854 -4.4048 -2.42871 0
M  V30 553 H 47.9854 -5.7345 -1.28174 0
M  V30 554 H 49.5094 -5.6908 -2.21314 0
M  V30 555 H 50.9234 -5.73271 0.0579047 0
M  V30 556 H 49.3204 -5.94469 0.820165 0
M  V30 557 H 50.3904 -4.64777 1.3824 0
M  V30 558 N 51.7335 -0.305618 -1.54608 0
M  V30 559 C 52.9805 0.302298 -2.00231 0
M  V30 560 C 53.3085 1.5354 -1.19398 0
M  V30 561 O 52.5635 1.93973 -0.259423 0
M  V30 562 C 52.8625 0.698983 -3.50498 0
M  V30 563 C 52.5285 -0.432903 -4.48817 0
M  V30 564 C 51.1905 -0.743622 -4.75419 0
M  V30 565 C 53.5425 -1.19409 -5.07337 0
M  V30 566 C 50.8705 -1.81857 -5.57804 0
M  V30 567 C 53.2225 -2.25899 -5.90891 0
M  V30 568 C 51.8865 -2.57572 -6.15803 0
M  V30 569 H 51.1565 0.110619 -0.732697 0
M  V30 570 H 53.8035 -0.425674 -1.86709 0
M  V30 571 H 52.1085 1.50711 -3.61654 0
M  V30 572 H 53.8055 1.1806 -3.83227 0
M  V30 573 H 50.3955 -0.18063 -4.28219 0
M  V30 574 H 54.5795 -0.967295 -4.86782 0
M  V30 575 H 49.8355 -2.06864 -5.75341 0
M  V30 576 H 54.0095 -2.85335 -6.35261 0
M  V30 577 H 51.6365 -3.40998 -6.7943 0
M  V30 578 N 53.2116 1.57565 -0.0334293 0
M  V30 579 C 54.1416 2.13511 0.945265 0
M  V30 580 C 55.1226 1.05231 1.33643 0
M  V30 581 O 56.3076 1.33084 1.41429 0
M  V30 582 C 53.4376 2.6657 2.22616 0
M  V30 583 C 52.3916 3.79676 1.97561 0
M  V30 584 C 51.7176 4.1918 3.31952 0
M  V30 585 C 53.0176 5.0557 1.31135 0
M  V30 586 H 54.7116 2.95538 0.479325 0
M  V30 587 H 52.2576 1.42166 0.229115 0
M  V30 588 H 54.2106 3.04344 2.91466 0
M  V30 589 H 52.9346 1.8171 2.71384 0
M  V30 590 H 51.5936 3.42347 1.31127 0
M  V30 591 H 51.2416 3.31296 3.78487 0
M  V30 592 H 50.9416 4.95402 3.15992 0
M  V30 593 H 52.4656 4.59541 4.02063 0
M  V30 594 H 53.8796 5.40903 1.89992 0
M  V30 595 H 52.2766 5.86818 1.25559 0
M  V30 596 H 53.3466 4.84062 0.284894 0
M  V30 597 N 54.6897 -0.239769 1.55765 0
M  V30 598 C 55.9377 -0.964892 1.77579 0
M  V30 599 C 56.2587 -1.85582 0.598699 0
M  V30 600 O 55.5287 -1.92075 -0.385226 0
M  V30 601 H 54.1087 -0.359265 0.654933 0
M  V30 602 H 56.7707 -0.256001 1.93211 0
M  V30 603 H 55.8667 -1.58243 2.69009 0
M  V30 604 N 56.1678 -1.49265 -0.50573 0
M  V30 605 C 57.0978 -1.68495 -1.61653 0
M  V30 606 C 58.0788 -0.53366 -1.61512 0
M  V30 607 O 59.2638 -0.76897 -1.78327 0
M  V30 608 C 56.3938 -1.74709 -3.00157 0
M  V30 609 C 55.3478 -2.89581 -3.15162 0
M  V30 610 C 54.6738 -2.80903 -4.5497 0
M  V30 611 C 55.9738 -4.30578 -2.95634 0
M  V30 612 H 57.6678 -2.61493 -1.45814 0
M  V30 613 H 55.2138 -1.25838 -0.70005 0
M  V30 614 H 57.1668 -1.86748 -3.77761 0
M  V30 615 H 55.8908 -0.783067 -3.17074 0
M  V30 616 H 54.5498 -2.77136 -2.39982 0
M  V30 617 H 54.1978 -1.82419 -4.68756 0
M  V30 618 H 53.8978 -3.57999 -4.65951 0
M  V30 619 H 55.4218 -2.94944 -5.34641 0
M  V30 620 H 56.8358 -4.4373 -3.63011 0
M  V30 621 H 55.2328 -5.0886 -3.18091 0
M  V30 622 H 56.3028 -4.45352 -1.91806 0
M  V30 623 N 57.6459 0.756429 -1.3826 0
M  V30 624 C 58.8929 1.51547 -1.34312 0
M  V30 625 C 59.2209 1.94382 0.0677144 0
M  V30 626 O 58.4759 1.65514 1.04421 0
M  V30 627 C 58.7749 2.78313 -2.24224 0
M  V30 628 C 58.4409 2.54455 -3.72241 0
M  V30 629 C 57.1029 2.47657 -4.12576 0
M  V30 630 C 59.4549 2.3354 -4.65949 0
M  V30 631 C 56.7829 2.17956 -5.44713 0
M  V30 632 C 59.1349 2.05359 -5.9834 0
M  V30 633 C 57.7989 1.97016 -6.37762 0
M  V30 634 H 57.0689 0.55455 -0.491482 0
M  V30 635 H 59.7159 0.870039 -1.70595 0
M  V30 636 H 58.0209 3.47492 -1.80987 0
M  V30 637 H 59.7179 3.36259 -2.18474 0
M  V30 638 H 56.3079 2.60616 -3.40261 0
M  V30 639 H 60.4919 2.37772 -4.35635 0
M  V30 640 H 55.7479 2.10003 -5.74203 0
M  V30 641 H 59.9219 1.88179 -6.70494 0
M  V30 642 H 57.5489 1.73766 -7.40074 0
M  V30 643 N 59.124 1.23083 0.984299 0
M  V30 644 C 60.057 0.951786 2.07404 0
M  V30 645 C 61.035 -0.10848 1.62238 0
M  V30 646 O 62.219 0.0249467 1.88483 0
M  V30 647 C 59.346 0.433142 3.35919 0
M  V30 648 C 58.392 1.47941 4.0002 0
M  V30 649 S 59.225 3.05556 4.39768 0
M  V30 650 C 60.381 2.55351 5.71442 0
M  V30 651 H 60.614 1.87456 2.30754 0
M  V30 652 H 58.147 1.06284 1.11996 0
M  V30 653 H 60.105 0.140506 4.10259 0
M  V30 654 H 58.766 -0.468656 3.10584 0
M  V30 655 H 57.959 1.06658 4.92585 0
M  V30 656 H 57.561 1.7212 3.3204 0
M  V30 657 H 59.853 1.97128 6.48187 0
M  V30 658 H 60.796 3.46441 6.17563 0
M  V30 659 H 61.204 1.96339 5.29255 0
M  V30 660 N 60.6021 -1.18246 1.0419 0
M  V30 661 C 61.8511 -1.87588 0.741194 0
M  V30 662 C 62.1641 -1.81303 -0.734066 0
M  V30 663 O 63.3701 -2.46019 -1.14834 0
M  V30 664 C 61.8261 -3.36538 1.27555 0
M  V30 665 C 61.4341 -3.51349 2.77953 0
M  V30 666 C 63.1781 -4.11273 1.05143 0
M  V30 667 C 61.0851 -4.94265 3.2474 0
M  V30 668 H 60.0151 -0.702622 0.273565 0
M  V30 669 H 62.6661 -1.33601 1.25789 0
M  V30 670 H 61.0481 -3.9 0.686703 0
M  V30 671 H 62.2221 -3.08153 3.42605 0
M  V30 672 H 60.5371 -2.90022 2.98791 0
M  V30 673 H 63.1341 -5.16689 1.37611 0
M  V30 674 H 63.4771 -4.16298 -0.0112774 0
M  V30 675 H 64.0101 -3.63987 1.60495 0
M  V30 676 H 60.7491 -4.94408 4.30396 0
M  V30 677 H 60.2691 -5.38172 2.64823 0
M  V30 678 H 61.9481 -5.62987 3.18834 0
M  V30 679 N 62.0802 -0.821533 -1.34494 0
M  V30 680 C 63.3282 -0.408139 -1.97936 0
M  V30 681 C 63.6492 1.03193 -1.65457 0
M  V30 682 O 62.9192 1.71622 -0.944595 0
M  V30 683 H 61.4992 -0.147928 -0.732206 0
M  V30 684 H 64.1612 -1.05067 -1.64155 0
M  V30 685 H 63.2572 -0.52601 -3.07635 0
M  V30 686 N 63.5583 1.46682 -0.576371 0
M  V30 687 C 64.5083 2.27278 0.181288 0
M  V30 688 C 65.4923 1.35497 0.867721 0
M  V30 689 O 66.6843 1.59717 0.762863 0
M  V30 690 C 63.8133 3.21703 1.19841 0
M  V30 691 C 62.8993 4.20969 0.51442 0
M  V30 692 N 63.2903 5.03999 -0.426407 0
M  V30 693 C 61.5883 4.39373 0.765963 0
M  V30 694 C 62.2893 5.75812 -0.825565 0
M  V30 695 N 61.2653 5.43315 -0.176116 0
M  V30 696 H 65.0673 2.88863 -0.541785 0
M  V30 697 H 62.5813 1.57455 -0.397697 0
M  V30 698 H 64.5783 3.78145 1.75533 0
M  V30 699 H 63.2383 2.61677 1.92238 0
M  V30 700 H 64.2493 5.11659 -0.8016 0
M  V30 701 H 60.9263 3.90502 1.47698 0
M  V30 702 H 62.3163 6.52577 -1.59976 0
M  V30 703 N 65.0364 0.313813 1.54444 0
M  V30 704 C 65.9694 -0.598866 2.20202 0
M  V30 705 C 66.9474 -1.12318 1.17573 0
M  V30 706 O 68.1314 -1.18899 1.46271 0
M  V30 707 C 65.2584 -1.82071 2.85601 0
M  V30 708 C 64.3044 -1.42851 4.01865 0
M  V30 709 S 65.1374 -0.473512 5.33402 0
M  V30 710 C 66.2934 -1.70286 6.0229 0
M  V30 711 H 66.5264 -0.0402532 2.97273 0
M  V30 712 H 64.0594 0.0979165 1.54089 0
M  V30 713 H 66.0174 -2.52184 3.23904 0
M  V30 714 H 64.6784 -2.3505 2.08351 0
M  V30 715 H 63.8714 -2.33871 4.46453 0
M  V30 716 H 63.4734 -0.807198 3.65185 0
M  V30 717 H 65.7654 -2.64168 6.23876 0
M  V30 718 H 66.7084 -1.29932 6.96077 0
M  V30 719 H 67.1164 -1.88541 5.32083 0
M  V30 720 N 66.5145 -1.57545 0.0417849 0
M  V30 721 C 67.7615 -1.92317 -0.634082 0
M  V30 722 C 68.0895 -0.919334 -1.71402 0
M  V30 723 O 67.3445 0.0698253 -1.95575 0
M  V30 724 C 67.6435 -3.33794 -1.27735 0
M  V30 725 C 67.3095 -4.49716 -0.326543 0
M  V30 726 C 65.9715 -4.81156 -0.0648814 0
M  V30 727 C 68.3235 -5.20182 0.325623 0
M  V30 728 C 65.6515 -5.80414 0.856539 0
M  V30 729 C 68.0035 -6.20424 1.23518 0
M  V30 730 C 66.6675 -6.50298 1.5056 0
M  V30 731 H 65.9375 -0.703736 -0.232027 0
M  V30 732 H 68.5845 -1.91205 0.106259 0
M  V30 733 H 66.8895 -3.31228 -2.09274 0
M  V30 734 H 68.5865 -3.57975 -1.80707 0
M  V30 735 H 65.1765 -4.25176 -0.540665 0
M  V30 736 H 69.3605 -4.96112 0.136546 0
M  V30 737 H 64.6165 -6.019 1.07363 0
M  V30 738 H 68.7905 -6.74141 1.74664 0
M  V30 739 H 66.4175 -7.27025 2.22123 0
M  V30 740 N 67.9926 0.231505 -1.5589 0
M  V30 741 C 69.2396 0.957352 -1.78441 0
M  V30 742 C 69.5676 1.84726 -0.60882 0
M  V30 743 O 68.8226 1.91416 0.40725 0
M  V30 744 C 69.1216 1.83577 -3.0665 0
M  V30 745 C 68.7876 1.09993 -4.37278 0
M  V30 746 C 67.4496 0.896629 -4.72773 0
M  V30 747 C 69.8016 0.579558 -5.17968 0
M  V30 748 C 67.1296 0.160896 -5.86479 0
M  V30 749 C 69.4816 -0.142783 -6.32439 0
M  V30 750 C 68.1456 -0.357427 -6.66542 0
M  V30 751 H 67.4156 0.35032 -0.65296 0
M  V30 752 H 70.0626 0.226259 -1.90159 0
M  V30 753 H 68.3676 2.63441 -2.90011 0
M  V30 754 H 70.0646 2.39934 -3.21298 0
M  V30 755 H 66.6546 1.26835 -4.09403 0
M  V30 756 H 70.8386 0.724125 -4.90989 0
M  V30 757 H 66.0946 -0.0157293 -6.11398 0
M  V30 758 H 70.2686 -0.553559 -6.94196 0
M  V30 759 H 67.8956 -0.929466 -7.54497 0
M  V30 760 N 69.4707 1.49531 0.497807 0
M  V30 761 C 70.7167 1.59415 1.25358 0
M  V30 762 C 71.0497 0.281422 1.9215 0
M  V30 763 O 70.3247 -0.715249 1.80871 0
M  V30 764 C 70.6077 2.75566 2.3181 0
M  V30 765 C 70.4607 4.16642 1.69498 0
M  V30 766 C 71.7797 2.87347 3.33346 0
M  V30 767 H 68.8987 0.580244 0.454408 0
M  V30 768 H 71.5407 1.81827 0.551262 0
M  V30 769 H 69.6907 2.56587 2.91711 0
M  V30 770 H 71.3627 4.47145 1.13399 0
M  V30 771 H 69.6057 4.22141 0.998978 0
M  V30 772 H 70.2767 4.93792 2.46725 0
M  V30 773 H 72.7527 3.04634 2.83438 0
M  V30 774 H 71.6287 3.70289 4.05188 0
M  V30 775 H 71.8897 1.96834 3.95865 0
M  V30 776 N 70.9488 -0.749086 1.3866 0
M  V30 777 C 72.1738 -1.54344 1.38538 0
M  V30 778 C 72.5988 -1.88088 -0.0216655 0
M  V30 779 O 71.9568 -1.50899 -1.00494 0
M  V30 780 C 72.0048 -2.8164 2.25192 0
M  V30 781 O 71.1088 -3.7698 1.67212 0
M  V30 782 H 70.4498 -0.466654 0.472367 0
M  V30 783 H 72.9798 -0.925355 1.82478 0
M  V30 784 H 72.9898 -3.30519 2.3921 0
M  V30 785 H 71.6648 -2.56411 3.27454 0
M  V30 786 H 70.2418 -3.35699 1.6236 0
M  V30 787 N 72.4269 -1.23603 -0.977757 0
M  V30 788 C 73.6549 -1.09646 -1.75458 0
M  V30 789 C 74.0699 0.351859 -1.85492 0
M  V30 790 O 73.4269 1.24327 -1.336 0
M  V30 791 C 73.4779 -1.71895 -3.18016 0
M  V30 792 O 73.1989 -3.11063 -3.08498 0
M  V30 793 C 74.6999 -1.63415 -4.12081 0
M  V30 794 H 71.9199 -0.38359 -0.550545 0
M  V30 795 H 74.4639 -1.63507 -1.22824 0
M  V30 796 H 72.6189 -1.22061 -3.67668 0
M  V30 797 H 73.0329 -3.41305 -3.9826 0
M  V30 798 H 74.5069 -2.11669 -5.09804 0
M  V30 799 H 74.9839 -0.593462 -4.35172 0
M  V30 800 H 75.5899 -2.12628 -3.68334 0
M  V30 801 N 73.905 1.17692 -1.04816 0
M  V30 802 C 75.154 1.87192 -0.751132 0
M  V30 803 C 75.467 1.8169 0.724441 0
M  V30 804 O 76.673 2.46625 1.13527 0
M  V30 805 C 75.129 3.35857 -1.29338 0
M  V30 806 C 74.737 3.4987 -2.79812 0
M  V30 807 C 76.481 4.10709 -1.07322 0
M  V30 808 C 74.388 4.92536 -3.27356 0
M  V30 809 H 73.318 0.701162 -0.277288 0
M  V30 810 H 75.969 1.32932 -1.26496 0
M  V30 811 H 74.351 3.89631 -0.707376 0
M  V30 812 H 75.525 3.06332 -3.44235 0
M  V30 813 H 73.84 2.88433 -3.00325 0
M  V30 814 H 76.437 5.15952 -1.4035 0
M  V30 815 H 76.78 4.16299 -0.0108001 0
M  V30 816 H 77.313 3.6313 -1.62423 0
M  V30 817 H 74.052 4.92119 -4.33012 0
M  V30 818 H 73.572 5.3676 -2.67673 0
M  V30 819 H 75.251 5.61288 -3.21815 0
M  V30 820 N 75.3831 0.828654 1.34056 0
M  V30 821 C 76.3131 0.269443 2.3194 0
M  V30 822 C 77.2941 -0.617247 1.58506 0
M  V30 823 O 78.4791 -0.542931 1.86456 0
M  V30 824 C 75.6091 -0.564793 3.42677 0
M  V30 825 C 74.5631 0.225241 4.27407 0
M  V30 826 C 73.8891 -0.7321 5.29664 0
M  V30 827 C 75.1891 1.43663 5.02154 0
M  V30 828 H 76.8831 1.08728 2.7896 0
M  V30 829 H 74.4291 0.524283 1.34117 0
M  V30 830 H 76.3821 -0.966233 4.10173 0
M  V30 831 H 75.1061 -1.41574 2.9432 0
M  V30 832 H 73.7651 0.608117 3.61521 0
M  V30 833 H 73.4131 -1.57916 4.77568 0
M  V30 834 H 73.1131 -0.20767 5.87233 0
M  V30 835 H 74.6371 -1.13128 6.00029 0
M  V30 836 H 76.0511 1.1089 5.62473 0
M  V30 837 H 74.4481 1.89711 5.69324 0
M  V30 838 H 75.5181 2.21181 4.31517 0
M  V30 839 N 76.8612 -1.46375 0.584142 0
M  V30 840 C 77.7912 -2.33103 -0.136037 0
M  V30 841 C 78.7722 -1.45431 -0.882255 0
M  V30 842 O 79.9572 -1.74246 -0.857434 0
M  V30 843 C 77.0872 -3.27731 -1.14933 0
M  V30 844 C 76.0412 -4.24855 -0.517862 0
M  V30 845 C 75.3672 -5.09001 -1.63773 0
M  V30 846 C 76.6672 -5.19439 0.545886 0
M  V30 847 H 78.3612 -2.93568 0.588086 0
M  V30 848 H 75.9072 -1.41166 0.284259 0
M  V30 849 H 77.8602 -3.87261 -1.66153 0
M  V30 850 H 76.5842 -2.65377 -1.90375 0
M  V30 851 H 75.2432 -3.6659 -0.0267361 0
M  V30 852 H 74.8912 -4.43031 -2.38185 0
M  V30 853 H 74.5912 -5.74777 -1.22085 0
M  V30 854 H 76.1152 -5.71396 -2.15266 0
M  V30 855 H 77.5292 -5.73177 0.118704 0
M  V30 856 H 75.9262 -5.93566 0.88317 0
M  V30 857 H 76.9962 -4.63285 1.43162 0
M  V30 858 N 78.3393 -0.321999 -1.54275 0
M  V30 859 C 79.5873 0.280489 -2.00144 0
M  V30 860 C 79.9083 1.52777 -1.21178 0
M  V30 861 O 79.1783 1.9338 -0.313187 0
M  V30 862 H 77.7583 0.106632 -0.73935 0
M  V30 863 H 80.4203 -0.438184 -1.8991 0
M  V30 864 H 79.5163 0.537972 -3.07428 0
M  V30 865 N 79.8174 1.5752 -0.0501392 0
M  V30 866 C 81.0944 1.83996 0.663685 0
M  V30 867 C 81.4744 0.938339 1.89099 0
M  V30 868 O 80.8224 -0.00087759 2.285 0
M  V30 869 C 81.0324 3.33702 1.02196 0
M  V30 870 C 82.3804 4.00691 1.40469 0
M  V30 871 O 83.4044 3.38321 1.11433 0
M  V30 872 O 82.2634 5.10658 1.94654 0
M  V30 873 H 79.3574 0.759385 0.32751 0
M  V30 874 H 81.9034 1.69514 -0.0794238 0
M  V30 875 H 80.6754 3.91015 0.149364 0
M  V30 876 H 80.2984 3.53368 1.82255 0
M  V30 877 N 81.2955 -0.223234 1.56011 0
M  V30 878 C 82.2435 -1.29627 1.93131 0
M  V30 879 C 83.2375 -1.48608 0.813146 0
M  V30 880 O 84.4435 -1.49802 0.997966 0
M  V30 881 H 80.8185 -0.434563 0.613726 0
M  V30 882 H 82.7895 -0.955995 2.82672 0
M  V30 883 C 81.5385 -2.63983 2.26292 0
M  V30 884 H 80.8615 -2.50185 3.11846 0
M  V30 885 H 82.3015 -3.3788 2.56151 0
M  V30 886 C 80.7605 -3.18866 1.08747 0
M  V30 887 O 81.2905 -4.00192 0.347727 0
M  V30 888 N 79.4965 -2.77217 0.871743 0
M  V30 889 H 79.0435 -2.1119 1.47501 0
M  V30 890 H 79.0015 -3.1428 0.0869905 0
M  V30 891 N 82.7736 -1.49793 -0.48987 0
M  V30 892 C 84.0196 -1.60078 -1.24511 0
M  V30 893 C 84.3526 -0.291608 -1.91998 0
M  V30 894 O 83.6276 0.705647 -1.81248 0
M  V30 895 C 83.9106 -2.76791 -2.30345 0
M  V30 896 C 83.7636 -4.17535 -1.67286 0
M  V30 897 C 85.0826 -2.89111 -3.31817 0
M  V30 898 H 82.2016 -0.582645 -0.451324 0
M  V30 899 H 84.8436 -1.82117 -0.541612 0
M  V30 900 H 82.9936 -2.5813 -2.90346 0
M  V30 901 H 84.6656 -4.4774 -1.11026 0
M  V30 902 H 82.9086 -4.22665 -0.976577 0
M  V30 903 H 83.5796 -4.95094 -2.44103 0
M  V30 904 H 86.0556 -3.06133 -2.81819 0
M  V30 905 H 84.9316 -3.72433 -4.03219 0
M  V30 906 H 85.1926 -1.9893 -3.94815 0
M  V30 907 N 84.2517 0.741722 -1.39055 0
M  V30 908 C 85.1847 1.86416 -1.31622 0
M  V30 909 C 86.1627 1.61473 -0.191076 0
M  V30 910 O 87.3467 1.84825 -0.370399 0
M  V30 911 C 84.4737 3.22266 -1.04221 0
M  V30 912 C 83.5197 3.66079 -2.18834 0
M  V30 913 S 84.3527 3.7623 -3.81066 0
M  V30 914 C 85.5087 5.14881 -3.55877 0
M  V30 915 H 85.7417 1.92437 -2.26617 0
M  V30 916 H 83.2747 0.905907 -1.25031 0
M  V30 917 H 85.2327 4.00714 -0.890964 0
M  V30 918 H 83.8937 3.1391 -0.109237 0
M  V30 919 H 83.0867 4.64648 -1.95238 0
M  V30 920 H 82.6887 2.94817 -2.30128 0
M  V30 921 H 84.9807 6.01006 -3.12726 0
M  V30 922 H 85.9237 5.43503 -4.53884 0
M  V30 923 H 86.3317 4.84239 -2.90126 0
M  V30 924 N 85.7298 1.2412 0.971189 0
M  V30 925 C 86.6598 1.05508 2.08304 0
M  V30 926 C 87.6408 -0.0308864 1.70072 0
M  V30 927 O 88.8258 0.135521 1.93727 0
M  V30 928 C 85.9558 0.655365 3.4106 0
M  V30 929 C 84.9098 1.68971 3.93234 0
M  V30 930 C 84.2358 1.14516 5.22293 0
M  V30 931 C 85.5358 3.08487 4.21465 0
M  V30 932 H 87.2298 1.98507 2.24132 0
M  V30 933 H 84.7758 0.955821 1.07704 0
M  V30 934 H 86.7288 0.51217 4.18276 0
M  V30 935 H 85.4528 -0.31032 3.25122 0
M  V30 936 H 84.1118 1.82106 3.18171 0
M  V30 937 H 83.7598 0.170189 5.02712 0
M  V30 938 H 83.4598 1.83635 5.58168 0
M  V30 939 H 84.9838 1.01401 6.02121 0
M  V30 940 H 86.3978 2.98601 4.89398 0
M  V30 941 H 84.7948 3.74926 4.68562 0
M  V30 942 H 85.8648 3.56787 3.28376 0
M  V30 943 N 87.2079 -1.17134 1.05439 0
M  V30 944 C 88.4539 -1.87979 0.776872 0
M  V30 945 C 88.8089 -1.7965 -0.688751 0
M  V30 946 O 88.1019 -1.19535 -1.4974 0
M  V30 947 C 88.2959 -3.36833 1.19491 0
M  V30 948 C 88.1249 -3.59653 2.69963 0
M  V30 949 C 86.8949 -3.76234 3.37307 0
M  V30 950 C 89.0929 -3.59091 3.68182 0
M  V30 951 N 87.0749 -3.86922 4.76618 0
M  V30 952 C 88.4459 -3.75659 4.93235 0
M  V30 953 C 90.5009 -3.42255 3.61616 0
M  V30 954 C 89.2039 -3.77133 6.12506 0
M  V30 955 C 91.2299 -3.45018 4.8033 0
M  V30 956 C 90.5919 -3.62096 6.04207 0
M  V30 957 H 86.6909 -0.705876 0.336546 0
M  V30 958 H 89.2749 -1.40602 1.34682 0
M  V30 959 H 87.4459 -3.82873 0.652884 0
M  V30 960 H 89.1779 -3.95305 0.866966 0
M  V30 961 H 85.9329 -3.76193 2.87708 0
M  V30 962 H 86.3569 -3.96055 5.49062 0
M  V30 963 H 90.9989 -3.27986 2.66805 0
M  V30 964 H 88.7169 -3.90186 7.07659 0
M  V30 965 H 92.3029 -3.33246 4.76905 0
M  V30 966 H 91.1829 -3.64142 6.94529 0
M  V30 967 N 88.686 -0.835752 -1.33615 0
M  V30 968 C 89.932 -0.430596 -1.98176 0
M  V30 969 C 90.265 1.00684 -1.66061 0
M  V30 970 O 89.54 1.70339 -0.938877 0
M  V30 971 C 89.823 -0.648065 -3.5422 0
M  V30 972 C 89.676 -2.13255 -3.96033 0
M  V30 973 C 90.995 -0.0922113 -4.40003 0
M  V30 974 H 88.114 -0.157924 -0.719881 0
M  V30 975 H 90.756 -1.05069 -1.58305 0
M  V30 976 H 88.906 -0.120237 -3.88314 0
M  V30 977 H 90.578 -2.725 -3.72211 0
M  V30 978 H 88.821 -2.61823 -3.45878 0
M  V30 979 H 89.492 -2.23547 -5.04708 0
M  V30 980 H 91.968 -0.543343 -4.12537 0
M  V30 981 H 90.844 -0.274083 -5.48215 0
M  V30 982 H 91.105 1.00378 -4.30554 0
M  V30 983 N 90.1641 1.46063 -0.591896 0
M  V30 984 C 91.3921 2.06717 -0.0868936 0
M  V30 985 C 91.8071 1.43916 1.22203 0
M  V30 986 O 91.1641 0.547698 1.74088 0
M  V30 987 C 91.2151 3.6142 0.0758725 0
M  V30 988 O 90.9361 4.21874 -1.18126 0
M  V30 989 C 92.4371 4.39025 0.61416 0
M  V30 990 H 89.6571 0.668162 -0.0616518 0
M  V30 991 H 92.2011 1.8755 -0.815175 0
M  V30 992 H 90.3561 3.79983 0.754413 0
M  V30 993 H 90.7701 5.14861 -1.00092 0
M  V30 994 H 92.2441 5.4783 0.677193 0
M  V30 995 H 92.7211 4.07708 1.63312 0
M  V30 996 H 93.3271 4.2529 -0.0298142 0
M  V30 997 N 91.6422 0.330177 1.54103 0
M  V30 998 C 92.5892 -0.532762 2.24567 0
M  V30 999 C 93.5592 -1.10635 1.23892 0
M  V30 1000 O 94.7442 -1.14546 1.5259 0
M  V30 1001 C 91.8842 -1.6845 3.01195 0
M  V30 1002 C 90.9972 -1.13951 4.167 0
M  V30 1003 C 90.1322 -2.25746 4.80845 0
M  V30 1004 C 89.1712 -1.6853 5.88442 0
M  V30 1005 N 88.3082 -2.74014 6.46421 0
M  V30 1006 H 93.1482 0.0746905 2.97906 0
M  V30 1007 H 90.6852 0.048632 1.4702 0
M  V30 1008 H 92.6432 -2.36234 3.43874 0
M  V30 1009 H 91.2732 -2.26314 2.30178 0
M  V30 1010 H 90.3252 -0.35301 3.78758 0
M  V30 1011 H 91.6372 -0.680892 4.94131 0
M  V30 1012 H 90.7912 -3.01422 5.26526 0
M  V30 1013 H 89.5302 -2.74947 4.0281 0
M  V30 1014 H 88.5352 -0.913543 5.42157 0
M  V30 1015 H 89.7602 -1.20198 6.68378 0
M  V30 1016 H 87.7062 -3.22494 5.71256 0
M  V30 1017 H 87.6232 -2.32735 7.19285 0
M  V30 1018 H 88.8912 -3.49499 6.96757 0
M  V30 1019 N 93.1203 -1.57491 0.0584922 0
M  V30 1020 C 94.0673 -2.11958 -0.913376 0
M  V30 1021 C 95.0373 -1.02875 -1.30407 0
M  V30 1022 O 96.2223 -1.30464 -1.39226 0
M  V30 1023 C 93.3623 -2.67497 -2.18035 0
M  V30 1024 C 92.4753 -3.90691 -1.84349 0
M  V30 1025 C 91.6103 -4.3452 -3.05559 0
M  V30 1026 C 90.6493 -5.50395 -2.67827 0
M  V30 1027 N 89.7863 -5.89244 -3.81754 0
M  V30 1028 H 94.6263 -2.94704 -0.442017 0
M  V30 1029 H 92.1633 -1.45643 -0.206545 0
M  V30 1030 H 94.1213 -2.978 -2.92183 0
M  V30 1031 H 92.7513 -1.87537 -2.62735 0
M  V30 1032 H 91.8033 -3.66934 -1.00319 0
M  V30 1033 H 93.1153 -4.7489 -1.5258 0
M  V30 1034 H 92.2693 -4.66414 -3.87998 0
M  V30 1035 H 91.0083 -3.49147 -3.40511 0
M  V30 1036 H 90.0133 -5.18165 -1.83806 0
M  V30 1037 H 91.2383 -6.3749 -2.34059 0
M  V30 1038 H 89.1843 -5.06823 -4.16493 0
M  V30 1039 H 89.1013 -6.68151 -3.53708 0
M  V30 1040 H 90.3693 -6.25756 -4.64811 0
M  V30 1041 N 94.5984 0.214957 -1.56127 0
M  V30 1042 C 95.8454 0.938372 -1.79446 0
M  V30 1043 C 96.1734 1.8407 -0.628378 0
M  V30 1044 O 95.4284 1.91837 0.386925 0
M  V30 1045 C 95.7274 1.80314 -3.0858 0
M  V30 1046 C 95.3934 1.05349 -4.3842 0
M  V30 1047 C 94.0554 0.846435 -4.73697 0
M  V30 1048 C 96.4074 0.524588 -5.18553 0
M  V30 1049 C 93.7354 0.098683 -5.86617 0
M  V30 1050 C 96.0874 -0.209853 -6.32252 0
M  V30 1051 C 94.7514 -0.428102 -6.66126 0
M  V30 1052 H 94.0214 0.343375 -0.656639 0
M  V30 1053 H 96.6684 0.206077 -1.90388 0
M  V30 1054 H 94.9734 2.6035 -2.92789 0
M  V30 1055 H 96.6704 2.36513 -3.23825 0
M  V30 1056 H 93.2604 1.22486 -4.10725 0
M  V30 1057 H 97.4444 0.672008 -4.91729 0
M  V30 1058 H 92.7004 -0.0805753 -6.11347 0
M  V30 1059 H 96.8744 -0.627157 -6.9357 0
M  V30 1060 H 94.5014 -1.00944 -7.53468 0
M  V30 1061 N 96.0765 1.50051 0.48192 0
M  V30 1062 C 96.9865 1.7089 1.60728 0
M  V30 1063 C 98.0025 0.591788 1.63627 0
M  V30 1064 O 99.1785 0.868817 1.81696 0
M  V30 1065 C 96.2435 1.78855 2.97005 0
M  V30 1066 C 95.3045 3.02537 3.04581 0
M  V30 1067 C 94.5375 3.10112 4.34357 0
M  V30 1068 O 94.7605 2.24765 5.24249 0
M  V30 1069 O 93.6945 4.02747 4.47301 0
M  V30 1070 H 97.5205 2.66264 1.46072 0
M  V30 1071 H 95.1055 1.34018 0.660264 0
M  V30 1072 H 96.9875 1.86336 3.77964 0
M  V30 1073 H 95.6625 0.866628 3.11883 0
M  V30 1074 H 94.5695 3.00563 2.22739 0
M  V30 1075 H 95.9025 3.94272 2.94636 0
M  V30 1076 N 97.5546 -0.734337 1.39446 0
M  V30 1077 C 98.4846 -1.86155 1.40955 0
M  V30 1078 C 99.4656 -1.67898 0.272827 0
M  V30 1079 O 100.651 -1.88207 0.478743 0
M  V30 1080 C 97.7806 -3.23912 1.25294 0
M  V30 1081 C 96.7346 -3.56808 2.36373 0
M  V30 1082 C 96.0606 -4.93508 2.058 0
M  V30 1083 C 97.3606 -3.59713 3.78687 0
M  V30 1084 H 99.0546 -1.8515 2.35287 0
M  V30 1085 H 96.6006 -0.889367 1.13253 0
M  V30 1086 H 98.5536 -4.02443 1.2497 0
M  V30 1087 H 97.2776 -3.25446 0.274308 0
M  V30 1088 H 95.9366 -2.80606 2.35914 0
M  V30 1089 H 95.5846 -4.91623 1.06374 0
M  V30 1090 H 95.2846 -5.16486 2.80208 0
M  V30 1091 H 96.8086 -5.74396 2.07128 0
M  V30 1092 H 98.2226 -4.2832 3.81071 0
M  V30 1093 H 96.6196 -3.94209 4.52459 0
M  V30 1094 H 97.6896 -2.59504 4.09617 0
M  V30 1095 N 99.0327 -1.24633 -0.964593 0
M  V30 1096 C 100.31 -0.995809 -1.68354 0
M  V30 1097 C 100.69 0.480964 -2.05548 0
M  V30 1098 O 100.038 1.45599 -1.76105 0
M  V30 1099 C 100.248 -1.92177 -2.91323 0
M  V30 1100 C 101.596 -2.19446 -3.63495 0
M  V30 1101 O 102.62 -1.89855 -3.01386 0
M  V30 1102 O 101.479 -2.69714 -4.75307 0
M  V30 1103 H 98.5727 -0.376854 -0.736146 0
M  V30 1104 H 101.119 -1.35745 -1.0184 0
M  V30 1105 H 99.8907 -2.91938 -2.60553 0
M  V30 1106 H 99.5137 -1.56349 -3.65569 0
M  V30 1107 N 100.511 1.16574 -1.06058 0
M  V30 1108 C 101.758 1.87047 -0.775873 0
M  V30 1109 C 102.086 1.81562 0.697534 0
M  V30 1110 O 101.341 1.22445 1.52662 0
M  V30 1111 C 101.64 3.36195 -1.21275 0
M  V30 1112 C 101.306 3.6188 -2.68986 0
M  V30 1113 C 99.9678 3.68599 -3.09335 0
M  V30 1114 C 102.32 3.72648 -3.64394 0
M  V30 1115 C 99.6478 3.83584 -4.43937 0
M  V30 1116 C 102 3.89154 -4.98741 0
M  V30 1117 C 100.664 3.94114 -5.3873 0
M  V30 1118 H 99.9338 0.684452 -0.283912 0
M  V30 1119 H 102.581 1.37853 -1.32925 0
M  V30 1120 H 100.886 3.87505 -0.578528 0
M  V30 1121 H 102.583 3.89103 -0.969542 0
M  V30 1122 H 99.1728 3.57281 -2.36744 0
M  V30 1123 H 103.357 3.66769 -3.34356 0
M  V30 1124 H 98.6128 3.85677 -4.74409 0
M  V30 1125 H 102.787 3.96427 -5.72554 0
M  V30 1126 H 100.414 4.05478 -6.43033 0
M  V30 1127 N 101.989 0.842826 1.3317 0
M  V30 1128 C 103.238 0.436738 1.96915 0
M  V30 1129 C 103.551 -1.01025 1.67491 0
M  V30 1130 O 104.757 -1.5212 2.24881 0
M  V30 1131 C 103.213 0.730021 3.52418 0
M  V30 1132 C 102.821 2.19195 3.90714 0
M  V30 1133 C 104.565 0.391076 4.22695 0
M  V30 1134 C 102.472 2.42907 5.39212 0
M  V30 1135 H 101.402 0.15958 0.736919 0
M  V30 1136 H 104.053 1.03196 1.51733 0
M  V30 1137 H 102.435 0.0643755 3.95948 0
M  V30 1138 H 103.609 2.8984 3.58231 0
M  V30 1139 H 101.924 2.49425 3.33431 0
M  V30 1140 H 104.521 0.545817 5.31907 0
M  V30 1141 H 104.864 -0.666294 4.10933 0
M  V30 1142 H 105.397 1.01212 3.84709 0
M  V30 1143 H 102.136 3.47224 5.55982 0
M  V30 1144 H 101.656 1.76827 5.73142 0
M  V30 1145 H 103.335 2.2626 6.06148 0
M  V30 1146 N 103.467 -1.45747 0.599634 0
M  V30 1147 C 104.714 -2.02292 0.0917284 0
M  V30 1148 C 105.042 -1.46906 -1.27472 0
M  V30 1149 O 104.297 -0.630652 -1.8526 0
M  V30 1150 C 104.596 -3.57399 -0.00602758 0
M  V30 1151 C 104.262 -4.31902 1.29503 0
M  V30 1152 C 102.924 -4.51974 1.65144 0
M  V30 1153 C 105.276 -4.74551 2.15525 0
M  V30 1154 C 102.604 -5.11949 2.86574 0
M  V30 1155 C 104.956 -5.35868 3.36196 0
M  V30 1156 C 103.62 -5.54165 3.72099 0
M  V30 1157 H 102.89 -0.740239 0.0335658 0
M  V30 1158 H 105.537 -1.7491 0.779661 0
M  V30 1159 H 103.842 -3.84014 -0.777183 0
M  V30 1160 H 105.539 -3.98846 -0.415038 0
M  V30 1161 H 102.129 -4.16588 1.00761 0
M  V30 1162 H 106.313 -4.58784 1.8929 0
M  V30 1163 H 101.569 -5.24305 3.14507 0
M  V30 1164 H 105.743 -5.6787 4.03109 0
M  V30 1165 H 103.37 -6.00406 4.6628 0
M  V30 1166 N 104.945 -0.338344 -1.53925 0
M  V30 1167 C 105.855 0.529421 -2.28548 0
M  V30 1168 C 106.871 1.11645 -1.3346 0
M  V30 1169 O 108.047 1.13325 -1.66492 0
M  V30 1170 C 105.112 1.66713 -3.03987 0
M  V30 1171 C 104.173 1.11041 -4.14691 0
M  V30 1172 C 103.406 2.19389 -4.86522 0
M  V30 1173 O 103.629 3.40013 -4.57982 0
M  V30 1174 O 102.563 1.83976 -5.73094 0
M  V30 1175 H 106.389 -0.0770399 -3.03602 0
M  V30 1176 H 103.974 -0.103555 -1.49041 0
M  V30 1177 H 105.856 2.32918 -3.5118 0
M  V30 1178 H 104.531 2.25949 -2.31794 0
M  V30 1179 H 103.438 0.413024 -3.71813 0
M  V30 1180 H 104.771 0.562975 -4.8897 0
M  V30 1181 N 106.423 1.57458 -0.0668435 0
M  V30 1182 C 107.671 1.92919 0.602214 0
M  V30 1183 C 107.992 0.947215 1.70449 0
M  V30 1184 O 107.262 -0.00544117 1.95899 0
M  V30 1185 H 105.842 0.71217 0.22544 0
M  V30 1186 H 108.504 1.94508 -0.123535 0
M  V30 1187 H 107.6 2.94589 1.03073 0
M  V30 1188 N 107.901 -0.206675 1.56239 0
M  V30 1189 C 109.149 -0.927007 1.79586 0
M  V30 1190 C 109.47 -1.8427 0.637929 0
M  V30 1191 O 108.74 -1.92849 -0.344398 0
M  V30 1192 H 107.32 -0.345292 0.662407 0
M  V30 1193 H 109.982 -0.21496 1.93711 0
M  V30 1194 H 109.078 -1.52501 2.72305 0
M  V30 1195 N 109.379 -1.50304 -0.473955 0
M  V30 1196 C 110.326 -1.68959 -1.57231 0
M  V30 1197 C 111.296 -0.530899 -1.57387 0
M  V30 1198 O 112.481 -0.761133 -1.74961 0
M  V30 1199 C 109.621 -1.7871 -2.95223 0
M  V30 1200 C 108.734 -3.06061 -3.04878 0
M  V30 1201 C 107.869 -3.06626 -4.33767 0
M  V30 1202 C 106.908 -4.28443 -4.37154 0
M  V30 1203 N 106.045 -4.26763 -5.5751 0
M  V30 1204 H 110.885 -2.6273 -1.40631 0
M  V30 1205 H 108.422 -1.30241 -0.683789 0
M  V30 1206 H 110.38 -1.82344 -3.75242 0
M  V30 1207 H 109.01 -0.883806 -3.10465 0
M  V30 1208 H 108.062 -3.11911 -2.17751 0
M  V30 1209 H 109.374 -3.96039 -3.0324 0
M  V30 1210 H 108.528 -3.08973 -5.22131 0
M  V30 1211 H 107.267 -2.14473 -4.3801 0
M  V30 1212 H 106.272 -4.2631 -3.47188 0
M  V30 1213 H 107.497 -5.2182 -4.34605 0
M  V30 1214 H 105.443 -3.37462 -5.62544 0
M  V30 1215 H 105.36 -5.10507 -5.57601 0
M  V30 1216 H 106.628 -4.33253 -6.48006 0
M  V30 1217 N 110.857 0.726932 -1.39834 0
M  V30 1218 C 112.268 1.30558 -1.3346 0
M  V30 1219 C 112.619 1.962 -0.00273003 0
M  V30 1220 O 111.744 1.96826 0.899371 0
M  V30 1221 C 112.339 2.37404 -2.41713 0
M  V30 1222 C 110.898 2.90921 -2.38835 0
M  V30 1223 C 110.045 1.64578 -2.2318 0
M  V30 1224 H 112.996 0.523862 -1.49804 0
M  V30 1225 H 113.017 3.17984 -2.08966 0
M  V30 1226 H 112.529 1.89599 -3.38635 0
M  V30 1227 H 110.63 3.42985 -1.45575 0
M  V30 1228 H 110.743 3.43487 -3.33997 0
M  V30 1229 H 109.107 1.89219 -1.70494 0
M  V30 1230 H 109.89 1.18814 -3.22084 0
M  V30 1231 N 112.336 1.25143 0.95797 0
M  V30 1232 C 113.585 1.0909 1.69654 0
M  V30 1233 C 113.898 -0.368548 1.92097 0
M  V30 1234 O 115.104 -0.649455 2.63618 0
M  V30 1235 C 113.56 1.90395 3.05414 0
M  V30 1236 C 113.168 3.4081 2.90779 0
M  V30 1237 C 114.912 1.82901 3.83076 0
M  V30 1238 C 112.819 4.14423 4.21909 0
M  V30 1239 H 111.749 0.404625 0.636235 0
M  V30 1240 H 114.4 1.4931 1.06672 0
M  V30 1241 H 112.782 1.42996 3.69281 0
M  V30 1242 H 113.956 3.95859 2.35865 0
M  V30 1243 H 112.271 3.49361 2.26575 0
M  V30 1244 H 114.868 2.35196 4.80195 0
M  V30 1245 H 115.211 0.796224 4.08615 0
M  V30 1246 H 115.744 2.28033 3.25954 0
M  V30 1247 H 112.483 5.18102 4.01561 0
M  V30 1248 H 112.003 3.64159 4.76601 0
M  V30 1249 H 113.682 4.21956 4.90471 0
M  V30 1250 N 113.814 -1.1601 1.06675 0
M  V30 1251 C 115.06 -1.86909 0.786945 0
M  V30 1252 C 115.393 -1.81717 -0.685018 0
M  V30 1253 O 114.668 -1.23551 -1.50218 0
M  V30 1254 C 114.951 -3.36313 1.28707 0
M  V30 1255 C 114.804 -3.50175 2.82308 0
M  V30 1256 C 116.123 -4.3084 0.898071 0
M  V30 1257 H 113.242 -0.678677 0.287343 0
M  V30 1258 H 115.884 -1.36336 1.32334 0
M  V30 1259 H 114.034 -3.79513 0.830768 0
M  V30 1260 H 115.706 -3.15886 3.36175 0
M  V30 1261 H 113.949 -2.91959 3.20847 0
M  V30 1262 H 114.62 -4.55116 3.12368 0
M  V30 1263 H 117.096 -3.95561 1.29114 0
M  V30 1264 H 115.972 -5.33876 1.27543 0
M  V30 1265 H 116.233 -4.41662 -0.196651 0
M  V30 1266 N 115.292 -0.849877 -1.32721 0
M  V30 1267 C 116.538 -0.451591 -1.97708 0
M  V30 1268 C 116.871 0.989175 -1.6712 0
M  V30 1269 O 116.146 1.69334 -0.956891 0
M  V30 1270 C 116.429 -0.685598 -3.53513 0
M  V30 1271 C 116.282 -2.17444 -3.93749 0
M  V30 1272 C 117.601 -0.138874 -4.39881 0
M  V30 1273 H 114.72 -0.16555 -0.718166 0
M  V30 1274 H 117.362 -1.06742 -1.57182 0
M  V30 1275 H 115.512 -0.161416 -3.88165 0
M  V30 1276 H 117.184 -2.76433 -3.693 0
M  V30 1277 H 115.427 -2.65476 -3.43081 0
M  V30 1278 H 116.098 -2.28888 -5.02309 0
M  V30 1279 H 118.574 -0.587068 -4.11938 0
M  V30 1280 H 117.45 -0.332213 -5.47894 0
M  V30 1281 H 117.711 0.95806 -4.31594 0
M  V30 1282 N 116.77 1.45427 -0.607355 0
M  V30 1283 C 117.995 2.07124 -0.107006 0
M  V30 1284 C 118.42 1.44906 1.19933 0
M  V30 1285 O 117.778 0.541687 1.73019 0
M  V30 1286 C 117.826 3.60595 0.0194119 0
M  V30 1287 O 116.93 3.98285 1.0697 0
M  V30 1288 H 116.271 0.659868 -0.0739597 0
M  V30 1289 H 118.801 1.86683 -0.837297 0
M  V30 1290 H 118.811 4.07419 0.2177 0
M  V30 1291 H 117.486 4.05266 -0.934453 0
M  V30 1292 H 116.063 3.63133 0.847889 0
M  V30 1293 N 118.248 0.346503 1.53744 0
M  V30 1294 C 119.495 -0.249104 2.00962 0
M  V30 1295 C 119.823 -1.5032 1.23426 0
M  V30 1296 O 119.078 -1.93217 0.310761 0
M  V30 1297 C 119.377 -0.605809 3.52228 0
M  V30 1298 C 119.043 0.551747 4.47512 0
M  V30 1299 C 117.705 0.86941 4.73281 0
M  V30 1300 C 120.057 1.32818 5.03993 0
M  V30 1301 C 117.385 1.96582 5.52786 0
M  V30 1302 C 119.737 2.41486 5.84694 0
M  V30 1303 C 118.401 2.73808 6.08757 0
M  V30 1304 H 117.671 -0.0911538 0.735372 0
M  V30 1305 H 120.318 0.475027 1.85515 0
M  V30 1306 H 118.623 -1.4107 3.65522 0
M  V30 1307 H 120.32 -1.07858 3.86222 0
M  V30 1308 H 116.91 0.294102 4.2759 0
M  V30 1309 H 121.094 1.09602 4.84047 0
M  V30 1310 H 116.35 2.22045 5.69654 0
M  V30 1311 H 120.524 3.02078 6.27473 0
M  V30 1312 H 118.151 3.58892 6.7015 0
M  V30 1313 N 119.726 -1.57421 0.075193 0
M  V30 1314 C 120.656 -2.15942 -0.888324 0
M  V30 1315 C 121.637 -1.08737 -1.30806 0
M  V30 1316 O 122.822 -1.36787 -1.37851 0
M  V30 1317 C 119.952 -2.72379 -2.1547 0
M  V30 1318 C 118.906 -3.8478 -1.87425 0
M  V30 1319 C 118.232 -4.27834 -3.20721 0
M  V30 1320 C 119.532 -5.08869 -1.17684 0
M  V30 1321 H 121.226 -2.96705 -0.400799 0
M  V30 1322 H 118.772 -1.42723 -0.191342 0
M  V30 1323 H 120.725 -3.11965 -2.83295 0
M  V30 1324 H 119.449 -1.88841 -2.6647 0
M  V30 1325 H 118.108 -3.45703 -1.22004 0
M  V30 1326 H 117.756 -3.41214 -3.6957 0
M  V30 1327 H 117.456 -5.03605 -3.02746 0
M  V30 1328 H 118.98 -4.70039 -3.89738 0
M  V30 1329 H 120.394 -5.4575 -1.75584 0
M  V30 1330 H 118.791 -5.8994 -1.09956 0
M  V30 1331 H 119.861 -4.84648 -0.156453 0
M  V30 1332 N 121.204 0.198386 -1.56346 0
M  V30 1333 C 122.167 1.22952 -1.93431 0
M  V30 1334 C 123.167 1.38611 -0.815092 0
M  V30 1335 O 124.357 1.36479 -1.08255 0
M  V30 1336 C 121.489 2.59946 -2.20546 0
M  V30 1337 H 122.682 0.912626 -2.85677 0
M  V30 1338 H 120.235 0.43977 -1.49986 0
M  V30 1339 H 120.97 2.96696 -1.30927 0
M  V30 1340 H 120.755 2.49953 -3.02102 0
M  V30 1341 H 122.245 3.3431 -2.50253 0
M  V30 1342 N 122.682 1.50554 0.465978 0
M  V30 1343 C 123.645 1.69233 1.54574 0
M  V30 1344 C 124.645 0.562901 1.50626 0
M  V30 1345 O 125.835 0.830016 1.53155 0
M  V30 1346 C 122.967 1.7223 2.94193 0
M  V30 1347 H 124.16 2.65571 1.39327 0
M  V30 1348 H 121.713 1.40111 0.692711 0
M  V30 1349 H 122.448 0.77603 3.14878 0
M  V30 1350 H 122.233 2.54285 2.98466 0
M  V30 1351 H 123.723 1.88618 3.72576 0
M  V30 1352 N 124.16 -0.719506 1.40217 0
M  V30 1353 C 125.407 -1.47933 1.38283 0
M  V30 1354 C 125.735 -1.94493 -0.0161536 0
M  V30 1355 O 124.99 -1.68224 -0.999956 0
M  V30 1356 C 125.289 -2.72271 2.31524 0
M  V30 1357 C 124.955 -2.44496 3.78857 0
M  V30 1358 C 123.617 -2.36631 4.18998 0
M  V30 1359 C 125.969 -2.21104 4.71977 0
M  V30 1360 C 123.297 -2.03437 5.503 0
M  V30 1361 C 125.649 -1.89423 6.03574 0
M  V30 1362 C 124.313 -1.80038 6.42762 0
M  V30 1363 H 123.583 -0.541325 0.506012 0
M  V30 1364 H 126.23 -0.824502 1.72842 0
M  V30 1365 H 124.535 -3.42572 1.90137 0
M  V30 1366 H 126.232 -3.30348 2.27313 0
M  V30 1367 H 122.822 -2.51503 3.47051 0
M  V30 1368 H 127.006 -2.26139 4.41786 0
M  V30 1369 H 122.262 -1.94705 5.79569 0
M  V30 1370 H 126.436 -1.70336 6.75247 0
M  V30 1371 H 124.063 -1.54083 7.44421 0
M  V30 1372 N 125.638 -1.25649 -0.95132 0
M  V30 1373 C 126.884 -1.10757 -1.69884 0
M  V30 1374 C 127.217 0.350061 -1.91019 0
M  V30 1375 O 126.492 1.25783 -1.48354 0
M  V30 1376 C 126.775 -1.86606 -3.07978 0
M  V30 1377 C 126.628 -3.40217 -2.94232 0
M  V30 1378 C 127.947 -1.65182 -4.07925 0
M  V30 1379 H 125.066 -0.40374 -0.616574 0
M  V30 1380 H 127.708 -1.54521 -1.10558 0
M  V30 1381 H 125.858 -1.49409 -3.58621 0
M  V30 1382 H 127.53 -3.87108 -2.50889 0
M  V30 1383 H 125.773 -3.67759 -2.30078 0
M  V30 1384 H 126.444 -3.88505 -3.92133 0
M  V30 1385 H 128.92 -1.9757 -3.66204 0
M  V30 1386 H 127.796 -2.20683 -5.02583 0
M  V30 1387 H 128.057 -0.593933 -4.38092 0
M  V30 1388 N 127.117 1.15442 -1.07289 0
M  V30 1389 C 128.364 1.86213 -0.795668 0
M  V30 1390 C 128.692 1.82291 0.678238 0
M  V30 1391 O 127.947 1.24057 1.51355 0
M  V30 1392 C 128.246 3.3489 -1.24834 0
M  V30 1393 C 127.912 3.59007 -2.72809 0
M  V30 1394 C 126.574 3.65298 -3.13227 0
M  V30 1395 C 128.926 3.68762 -3.68326 0
M  V30 1396 C 126.254 3.78854 -4.4798 0
M  V30 1397 C 128.606 3.83842 -5.0284 0
M  V30 1398 C 127.27 3.88378 -5.4288 0
M  V30 1399 H 126.54 0.681403 -0.291155 0
M  V30 1400 H 129.187 1.36435 -1.34379 0
M  V30 1401 H 127.492 3.8687 -0.619595 0
M  V30 1402 H 129.189 3.88052 -1.01076 0
M  V30 1403 H 125.779 3.5475 -2.40521 0
M  V30 1404 H 129.963 3.63202 -3.38227 0
M  V30 1405 H 125.219 3.80623 -4.78472 0
M  V30 1406 H 129.393 3.90332 -5.76727 0
M  V30 1407 H 127.02 3.98635 -6.47298 0
M  V30 1408 N 128.595 0.856903 1.32268 0
M  V30 1409 C 129.558 0.308171 2.27119 0
M  V30 1410 C 130.558 -0.533421 1.51695 0
M  V30 1411 O 131.748 -0.344607 1.70757 0
M  V30 1412 C 128.88 -0.563757 3.36206 0
M  V30 1413 H 130.073 1.14535 2.77167 0
M  V30 1414 H 127.626 0.631421 1.42978 0
M  V30 1415 H 128.361 -1.42266 2.91429 0
M  V30 1416 H 128.146 0.0386749 3.92081 0
M  V30 1417 H 129.636 -0.940386 4.06874 0
M  V30 1418 N 130.073 -1.45103 0.615059 0
M  V30 1419 C 131.319 -2.02483 0.113347 0
M  V30 1420 C 131.652 -1.48146 -1.25564 0
M  V30 1421 O 130.927 -0.659104 -1.82992 0
M  V30 1422 C 131.21 -3.60005 0.0825278 0
M  V30 1423 C 131.063 -4.2466 1.48271 0
M  V30 1424 C 132.382 -4.35972 -0.601401 0
M  V30 1425 H 129.501 -0.735764 0.0426632 0
M  V30 1426 H 132.143 -1.72868 0.788461 0
M  V30 1427 H 130.293 -3.85367 -0.492378 0
M  V30 1428 H 131.965 -4.10458 2.10527 0
M  V30 1429 H 130.208 -3.82772 2.04127 0
M  V30 1430 H 130.879 -5.336 1.41332 0
M  V30 1431 H 133.355 -4.15947 -0.112666 0
M  V30 1432 H 132.231 -5.45697 -0.592097 0
M  V30 1433 H 132.492 -4.09391 -1.66887 0
M  V30 1434 N 131.551 -0.354651 -1.53558 0
M  V30 1435 C 132.798 0.238443 -2.01091 0
M  V30 1436 C 133.126 1.49663 -1.24222 0
M  V30 1437 O 132.381 1.93049 -0.321003 0
M  V30 1438 C 132.68 0.587121 -3.52545 0
M  V30 1439 C 132.346 -0.575472 -4.47213 0
M  V30 1440 C 131.008 -0.894497 -4.72813 0
M  V30 1441 C 133.36 -1.35489 -5.03281 0
M  V30 1442 C 130.688 -1.99511 -5.51736 0
M  V30 1443 C 133.04 -2.44583 -5.83405 0
M  V30 1444 C 131.704 -2.77033 -6.07296 0
M  V30 1445 H 130.974 0.0872526 -0.735845 0
M  V30 1446 H 133.621 -0.484859 -1.8526 0
M  V30 1447 H 131.926 1.39129 -3.66265 0
M  V30 1448 H 133.623 1.05809 -3.86789 0
M  V30 1449 H 130.213 -0.316774 -4.27428 0
M  V30 1450 H 134.397 -1.12167 -4.83459 0
M  V30 1451 H 129.653 -2.25063 -5.68469 0
M  V30 1452 H 133.827 -3.05401 -6.25862 0
M  V30 1453 H 131.454 -3.6244 -6.68237 0
M  V30 1454 N 133.029 1.57378 -0.0835403 0
M  V30 1455 C 134.278 1.93106 0.582498 0
M  V30 1456 C 134.591 0.96651 1.70053 0
M  V30 1457 O 135.797 1.21705 2.42693 0
M  V30 1458 C 134.253 3.43076 1.08751 0
M  V30 1459 C 133.861 4.48 -0.000146404 0
M  V30 1460 C 135.605 3.87785 1.72694 0
M  V30 1461 C 133.512 5.89113 0.519568 0
M  V30 1462 H 132.442 0.720775 0.221358 0
M  V30 1463 H 135.093 1.82821 -0.157675 0
M  V30 1464 H 133.475 3.48474 1.88101 0
M  V30 1465 H 134.649 4.54233 -0.775199 0
M  V30 1466 H 132.964 4.1283 -0.54406 0
M  V30 1467 H 135.561 4.90604 2.1263 0
M  V30 1468 H 135.904 3.25796 2.59158 0
M  V30 1469 H 136.437 3.8504 0.999457 0
M  V30 1470 H 133.176 6.54775 -0.308186 0
M  V30 1471 H 132.696 5.86376 1.26188 0
M  V30 1472 H 134.375 6.39346 0.992237 0
M  V30 1473 N 134.507 -0.190092 1.56449 0
M  V30 1474 C 135.47 -1.21925 1.9408 0
M  V30 1475 C 136.47 -1.38176 0.822431 0
M  V30 1476 O 137.66 -1.35903 1.08977 0
M  V30 1477 C 134.792 -2.58773 2.21922 0
M  V30 1478 H 135.985 -0.897464 2.86157 0
M  V30 1479 H 133.538 -0.43181 1.50217 0
M  V30 1480 H 134.273 -2.95998 1.32499 0
M  V30 1481 H 134.058 -2.48348 3.03424 0
M  V30 1482 H 135.548 -3.32978 2.52022 0
M  V30 1483 N 135.985 -1.50799 -0.457987 0
M  V30 1484 C 136.935 -1.67003 -1.55222 0
M  V30 1485 C 137.919 -0.52434 -1.52117 0
M  V30 1486 O 139.111 -0.779345 -1.58919 0
M  V30 1487 C 136.24 -1.77956 -2.93576 0
M  V30 1488 C 135.326 -2.98243 -3.01516 0
M  V30 1489 N 135.717 -4.21732 -2.79241 0
M  V30 1490 C 134.015 -2.97072 -3.32662 0
M  V30 1491 C 134.716 -5.02817 -2.92489 0
M  V30 1492 N 133.692 -4.37038 -3.23262 0
M  V30 1493 H 137.494 -2.60163 -1.36721 0
M  V30 1494 H 135.008 -1.48163 -0.664952 0
M  V30 1495 H 137.005 -1.87671 -3.72271 0
M  V30 1496 H 135.665 -0.859634 -3.13114 0
M  V30 1497 H 136.676 -4.51016 -2.54567 0
M  V30 1498 H 133.353 -2.14631 -3.58106 0
M  V30 1499 H 134.743 -6.11054 -2.79396 0
M  V30 1500 N 137.463 0.71206 -1.40597 0
M  V30 1501 C 138.426 1.80785 -1.40888 0
M  V30 1502 C 139.426 1.57937 -0.302103 0
M  V30 1503 O 140.616 1.64913 -0.561182 0
M  V30 1504 C 137.748 3.18927 -1.20409 0
M  V30 1505 H 138.941 1.81924 -2.38419 0
M  V30 1506 H 136.494 0.91805 -1.26497 0
M  V30 1507 H 137.229 3.23436 -0.236522 0
M  V30 1508 H 137.014 3.36911 -2.00582 0
M  V30 1509 H 138.504 3.98949 -1.23408 0
M  V30 1510 N 138.941 1.26152 0.944643 0
M  V30 1511 C 140.188 1.11492 1.69044 0
M  V30 1512 C 140.516 -0.342366 1.91463 0
M  V30 1513 O 139.771 -1.26812 1.49054 0
M  V30 1514 C 140.07 1.82541 3.07268 0
M  V30 1515 C 139.736 3.32445 3.04616 0
M  V30 1516 C 138.398 3.73337 3.036 0
M  V30 1517 C 140.75 4.28171 2.97185 0
M  V30 1518 C 138.078 5.08348 2.92915 0
M  V30 1519 C 140.43 5.63218 2.88041 0
M  V30 1520 C 139.094 6.03426 2.85366 0
M  V30 1521 H 138.364 0.407977 0.618576 0
M  V30 1522 H 141.011 1.56551 1.10291 0
M  V30 1523 H 139.316 1.29941 3.69625 0
M  V30 1524 H 141.013 1.68642 3.63815 0
M  V30 1525 H 137.603 2.99915 3.06185 0
M  V30 1526 H 141.787 3.97563 2.97081 0
M  V30 1527 H 137.043 5.38667 2.89219 0
M  V30 1528 H 141.217 6.37078 2.81254 0
M  V30 1529 H 138.844 7.07999 2.76842 0
M  V30 1530 N 140.419 -1.14872 1.07899 0
M  V30 1531 C 141.349 -2.2193 0.725887 0
M  V30 1532 C 142.33 -1.67622 -0.28927 0
M  V30 1533 O 143.515 -1.93533 -0.160787 0
M  V30 1534 C 140.645 -3.47061 0.128856 0
M  V30 1535 C 139.599 -4.14363 1.07178 0
M  V30 1536 C 138.925 -5.33636 0.337229 0
M  V30 1537 C 140.225 -4.63492 2.40775 0
M  V30 1538 H 141.919 -2.51724 1.62097 0
M  V30 1539 H 139.465 -1.20991 0.780838 0
M  V30 1540 H 141.418 -4.21199 -0.130147 0
M  V30 1541 H 140.142 -3.16617 -0.80134 0
M  V30 1542 H 138.801 -3.42173 1.3158 0
M  V30 1543 H 138.449 -4.99449 -0.596606 0
M  V30 1544 H 138.149 -5.79609 0.965788 0
M  V30 1545 H 139.673 -6.10539 0.0861567 0
M  V30 1546 H 141.087 -5.2913 2.20669 0
M  V30 1547 H 139.484 -5.20148 2.99276 0
M  V30 1548 H 140.554 -3.78834 3.02676 0
M  V30 1549 N 141.898 -0.863906 -1.31812 0
M  V30 1550 C 142.861 -0.320212 -2.26952 0
M  V30 1551 C 143.861 0.525369 -1.51975 0
M  V30 1552 O 145.051 0.335547 -1.70938 0
M  V30 1553 C 142.183 0.545919 -3.365 0
M  V30 1554 H 143.376 -1.16004 -2.76556 0
M  V30 1555 H 140.929 -0.638995 -1.42641 0
M  V30 1556 H 141.664 1.40718 -2.92179 0
M  V30 1557 H 141.449 -0.0594674 -3.92055 0
M  V30 1558 H 142.939 0.918796 -4.07367 0
M  V30 1559 N 143.376 1.44774 -0.622745 0
M  V30 1560 C 144.309 2.27792 0.136329 0
M  V30 1561 C 145.287 1.38041 0.859264 0
M  V30 1562 O 146.471 1.67478 0.86506 0
M  V30 1563 C 143.598 3.16776 1.19878 0
M  V30 1564 C 142.644 4.22575 0.57731 0
M  V30 1565 S 143.477 5.31825 -0.626294 0
M  V30 1566 C 144.633 6.24377 0.436378 0
M  V30 1567 H 144.866 2.91824 -0.567967 0
M  V30 1568 H 142.399 1.48838 -0.410677 0
M  V30 1569 H 144.357 3.68596 1.80686 0
M  V30 1570 H 143.018 2.5198 1.87523 0
M  V30 1571 H 142.211 4.84818 1.37721 0
M  V30 1572 H 141.813 3.73974 0.0440439 0
M  V30 1573 H 144.105 6.64689 1.31128 0
M  V30 1574 H 145.048 7.07941 -0.150271 0
M  V30 1575 H 145.456 5.59381 0.758513 0
M  V30 1576 N 144.854 0.36279 1.53368 0
M  V30 1577 C 146.27 0.0116182 1.59596 0
M  V30 1578 C 146.47 -1.47012 1.37803 0
M  V30 1579 O 145.526 -2.23136 1.18181 0
M  V30 1580 C 146.839 0.465052 2.97082 0
M  V30 1581 C 148.387 0.419033 3.10182 0
M  V30 1582 C 148.862 0.848235 4.50077 0
M  V30 1583 N 150.353 0.803183 4.56183 0
M  V30 1584 C 151.088 1.107 5.62613 0
M  V30 1585 N 150.584 1.47996 6.76808 0
M  V30 1586 N 152.377 1.02998 5.52583 0
M  V30 1587 H 144.528 1.32775 1.65785 0
M  V30 1588 H 146.791 0.542518 0.777417 0
M  V30 1589 H 146.497 1.49892 3.18159 0
M  V30 1590 H 146.371 -0.149786 3.76902 0
M  V30 1591 H 148.758 -0.605696 2.88817 0
M  V30 1592 H 148.839 1.06933 2.32377 0
M  V30 1593 H 148.483 1.87107 4.7218 0
M  V30 1594 H 148.413 0.175218 5.26308 0
M  V30 1595 H 150.904 0.52838 3.74188 0
M  V30 1596 H 151.217 1.69613 7.53957 0
M  V30 1597 H 149.562 1.51859 6.78206 0
M  V30 1598 H 152.753 0.737817 4.62249 0
M  V30 1599 H 152.926 1.2701 6.35431 0
M  V30 1600 N 146.332 -1.57332 0.0918853 0
M  V30 1601 C 147.279 -2.13847 -0.868211 0
M  V30 1602 C 148.249 -1.05618 -1.28196 0
M  V30 1603 O 149.434 -1.33387 -1.36427 0
M  V30 1604 C 146.574 -2.72062 -2.12312 0
M  V30 1605 C 145.687 -3.94514 -1.7602 0
M  V30 1606 C 144.822 -4.40903 -2.96273 0
M  V30 1607 C 143.861 -5.55953 -2.56092 0
M  V30 1608 N 142.998 -5.97209 -3.69169 0
M  V30 1609 H 147.838 -2.95575 -0.379406 0
M  V30 1610 H 145.375 -1.46048 -0.175606 0
M  V30 1611 H 147.333 -3.03931 -2.858 0
M  V30 1612 H 145.963 -1.93068 -2.58698 0
M  V30 1613 H 145.015 -3.68979 -0.925135 0
M  V30 1614 H 146.327 -4.7802 -1.42472 0
M  V30 1615 H 145.481 -4.74539 -3.78018 0
M  V30 1616 H 144.22 -3.56291 -3.33029 0
M  V30 1617 H 143.225 -5.21948 -1.72773 0
M  V30 1618 H 144.45 -6.42311 -2.20484 0
M  V30 1619 H 142.396 -5.15543 -4.05649 0
M  V30 1620 H 142.313 -6.75504 -3.39456 0
M  V30 1621 H 143.581 -6.35475 -4.51434 0
M  V30 1622 N 147.81 0.181792 -1.56548 0
M  V30 1623 C 149.057 0.900097 -1.81396 0
M  V30 1624 C 149.385 1.82695 -0.667281 0
M  V30 1625 O 148.64 1.92614 0.346146 0
M  V30 1626 C 148.939 1.73728 -3.12335 0
M  V30 1627 C 148.605 0.960255 -4.40556 0
M  V30 1628 C 147.267 0.745766 -4.75386 0
M  V30 1629 C 149.619 0.414477 -5.19549 0
M  V30 1630 C 146.947 -0.0257694 -5.86694 0
M  V30 1631 C 149.299 -0.343916 -6.31664 0
M  V30 1632 C 147.963 -0.569301 -6.65068 0
M  V30 1633 H 147.233 0.329369 -0.663775 0
M  V30 1634 H 149.88 0.165647 -1.90782 0
M  V30 1635 H 148.185 2.54081 -2.98245 0
M  V30 1636 H 149.882 2.29591 -3.28769 0
M  V30 1637 H 146.472 1.13746 -4.13231 0
M  V30 1638 H 150.656 0.567554 -4.93044 0
M  V30 1639 H 145.912 -0.210233 -6.11038 0
M  V30 1640 H 150.086 -0.774133 -6.92084 0
M  V30 1641 H 147.713 -1.16903 -7.51158 0
M  V30 1642 N 149.288 1.51039 0.449983 0
M  V30 1643 C 150.699 1.557 1.03026 0
M  V30 1644 C 151.05 0.372939 1.92623 0
M  V30 1645 O 150.175 -0.511771 2.10261 0
M  V30 1646 C 150.77 2.82171 1.87523 0
M  V30 1647 C 149.329 2.89444 2.40622 0
M  V30 1648 C 148.476 2.50228 1.19504 0
M  V30 1649 H 151.427 1.56999 0.231745 0
M  V30 1650 H 151.448 2.65219 2.72835 0
M  V30 1651 H 150.96 3.68331 1.22286 0
M  V30 1652 H 149.061 2.07685 3.0935 0
M  V30 1653 H 149.174 3.92816 2.74285 0
M  V30 1654 H 147.538 2.03139 1.53644 0
M  V30 1655 H 148.321 3.38719 0.558972 0
M  V30 1656 N 150.766 -0.704594 1.40972 0
M  V30 1657 C 152.015 -1.46018 1.39146 0
M  V30 1658 C 152.328 -1.956 0.000589254 0
M  V30 1659 O 153.534 -2.71137 -0.1403 0
M  V30 1660 C 151.99 -2.63996 2.4461 0
M  V30 1661 C 151.598 -2.21238 3.89561 0
M  V30 1662 C 153.342 -3.41677 2.51907 0
M  V30 1663 C 151.249 -3.3612 4.86598 0
M  V30 1664 H 150.179 -0.548444 0.517422 0
M  V30 1665 H 152.83 -0.765784 1.66757 0
M  V30 1666 H 151.212 -3.3566 2.10115 0
M  V30 1667 H 152.386 -1.56923 4.33257 0
M  V30 1668 H 150.701 -1.56574 3.85841 0
M  V30 1669 H 153.298 -4.27182 3.2159 0
M  V30 1670 H 153.641 -3.86247 1.55303 0
M  V30 1671 H 154.174 -2.77064 2.85448 0
M  V30 1672 H 150.913 -2.96572 5.84573 0
M  V30 1673 H 150.433 -3.99315 4.47557 0
M  V30 1674 H 152.112 -4.02029 5.06934 0
M  V30 1675 N 152.244 -1.26651 -0.937939 0
M  V30 1676 C 153.192 -1.08308 -2.05845 0
M  V30 1677 C 154.186 -0.0090757 -1.69398 0
M  V30 1678 O 155.392 -0.166007 -1.79233 0
M  V30 1679 H 151.767 -0.333416 -0.674046 0
M  V30 1680 H 153.738 -2.03261 -2.18467 0
M  V30 1681 C 152.487 -0.736229 -3.39816 0
M  V30 1682 H 151.81 -1.55453 -3.6834 0
M  V30 1683 H 153.25 -0.64769 -4.19024 0
M  V30 1684 C 151.709 0.558824 -3.32233 0
M  V30 1685 O 152.239 1.59621 -3.68624 0
M  V30 1686 N 150.445 0.550657 -2.85335 0
M  V30 1687 H 149.992 -0.293943 -2.55917 0
M  V30 1688 H 149.95 1.41726 -2.80644 0
M  V30 1689 N 153.722 1.14298 -1.08507 0
M  V30 1690 C 154.952 1.88945 -0.835663 0
M  V30 1691 C 155.36 1.78894 0.615928 0
M  V30 1692 O 154.703 1.1468 1.43506 0
M  V30 1693 C 154.765 3.39585 -1.17994 0
M  V30 1694 C 154.429 3.7342 -2.63451 0
M  V30 1695 C 155.426 3.73454 -3.61702 0
M  V30 1696 C 153.111 4.03368 -2.99332 0
M  V30 1697 C 155.105 4.02961 -4.93864 0
M  V30 1698 C 152.792 4.32538 -4.31687 0
M  V30 1699 C 153.79 4.32318 -5.28763 0
M  V30 1700 O 153.478 4.6078 -6.58739 0
M  V30 1701 H 153.21 0.605307 -0.300965 0
M  V30 1702 H 155.764 1.45673 -1.44806 0
M  V30 1703 H 153.994 3.83315 -0.51055 0
M  V30 1704 H 155.683 3.9554 -0.911182 0
M  V30 1705 H 156.449 3.50403 -3.35325 0
M  V30 1706 H 152.328 4.02692 -2.24411 0
M  V30 1707 H 155.872 4.02704 -5.69627 0
M  V30 1708 H 151.769 4.55059 -4.57812 0
M  V30 1709 H 152.537 4.78492 -6.64069 0
M  V30 1710 N 155.201 0.870884 1.31352 0
M  V30 1711 C 156.617 0.562932 1.49343 0
M  V30 1712 C 156.817 -0.902725 1.80148 0
M  V30 1713 O 155.873 -1.68484 1.88067 0
M  V30 1714 C 157.186 1.46393 2.62659 0
M  V30 1715 C 158.734 1.46607 2.76542 0
M  V30 1716 C 159.209 2.35266 3.92955 0
M  V30 1717 N 160.7 2.33151 4.00243 0
M  V30 1718 C 161.435 2.98471 4.89594 0
M  V30 1719 N 160.931 3.72964 5.8384 0
M  V30 1720 N 162.724 2.87775 4.82848 0
M  V30 1721 H 154.875 1.81923 1.09626 0
M  V30 1722 H 157.138 0.777934 0.541777 0
M  V30 1723 H 156.844 2.50689 2.46674 0
M  V30 1724 H 156.718 1.16314 3.58819 0
M  V30 1725 H 159.105 0.43069 2.9194 0
M  V30 1726 H 159.186 1.8071 1.81046 0
M  V30 1727 H 158.83 3.38881 3.78315 0
M  V30 1728 H 158.76 1.98487 4.87761 0
M  V30 1729 H 161.251 1.79006 3.32814 0
M  V30 1730 H 161.564 4.19932 6.4875 0
M  V30 1731 H 159.909 3.77073 5.83816 0
M  V30 1732 H 163.1 2.29116 4.08195 0
M  V30 1733 H 163.273 3.38961 5.52277 0
M  V30 1734 N 156.679 -1.44442 0.630414 0
M  V30 1735 C 157.611 -2.2892 -0.113347 0
M  V30 1736 C 158.624 -1.41243 -0.80959 0
M  V30 1737 O 159.813 -1.65402 -0.671156 0
M  V30 1738 C 156.913 -3.17594 -1.18266 0
M  V30 1739 C 156.086 -4.33682 -0.569073 0
M  V30 1740 C 155.145 -5.03397 -1.53226 0
M  V30 1741 O 154.171 -5.59438 -1.04967 0
M  V30 1742 N 155.373 -5.04783 -2.86661 0
M  V30 1743 H 158.138 -2.93392 0.611636 0
M  V30 1744 H 155.699 -1.54881 0.471523 0
M  V30 1745 H 157.691 -3.61097 -1.82732 0
M  V30 1746 H 156.261 -2.54876 -1.80988 0
M  V30 1747 H 155.481 -3.9338 0.254187 0
M  V30 1748 H 156.769 -5.08608 -0.139767 0
M  V30 1749 H 156.167 -4.60584 -3.28449 0
M  V30 1750 H 154.724 -5.52077 -3.46489 0
M  V30 1751 N 158.157 -0.370918 -1.53173 0
M  V30 1752 C 159.387 0.217389 -2.05453 0
M  V30 1753 C 159.795 1.42568 -1.24382 0
M  V30 1754 O 159.138 1.81571 -0.278839 0
M  V30 1755 C 159.2 0.669827 -3.53205 0
M  V30 1756 C 158.864 -0.4225 -4.55043 0
M  V30 1757 C 159.861 -1.27407 -5.04047 0
M  V30 1758 C 157.546 -0.58427 -4.9889 0
M  V30 1759 C 159.54 -2.27271 -5.95505 0
M  V30 1760 C 157.227 -1.58627 -5.90153 0
M  V30 1761 C 158.225 -2.42892 -6.38351 0
M  V30 1762 O 157.913 -3.41382 -7.27814 0
M  V30 1763 H 157.645 0.0408171 -0.674767 0
M  V30 1764 H 160.199 -0.5292 -1.98466 0
M  V30 1765 H 158.429 1.4681 -3.57748 0
M  V30 1766 H 160.118 1.18173 -3.88317 0
M  V30 1767 H 160.884 -1.16031 -4.70916 0
M  V30 1768 H 156.763 0.061851 -4.60959 0
M  V30 1769 H 160.307 -2.93079 -6.33049 0
M  V30 1770 H 156.204 -1.70048 -6.22699 0
M  V30 1771 H 156.972 -3.37173 -7.45826 0
M  V30 1772 N 159.635 1.57281 -0.100228 0
M  V30 1773 C 160.565 2.17328 0.853857 0
M  V30 1774 C 161.546 1.10804 1.2906 0
M  V30 1775 O 162.731 1.38963 1.35657 0
M  V30 1776 C 159.861 2.75772 2.11109 0
M  V30 1777 C 158.815 3.87713 1.81279 0
M  V30 1778 C 158.141 4.32882 3.13874 0
M  V30 1779 C 159.441 5.10677 1.09574 0
M  V30 1780 H 161.135 2.97305 0.353545 0
M  V30 1781 H 158.681 1.43009 0.168612 0
M  V30 1782 H 160.634 3.16433 2.78296 0
M  V30 1783 H 159.358 1.93057 2.63432 0
M  V30 1784 H 158.017 3.476 1.16489 0
M  V30 1785 H 157.665 3.47051 3.64095 0
M  V30 1786 H 157.365 5.08358 2.94696 0
M  V30 1787 H 158.889 4.7618 3.82211 0
M  V30 1788 H 160.303 5.48474 1.66879 0
M  V30 1789 H 158.7 5.91615 1.00557 0
M  V30 1790 H 159.77 4.84835 0.0793299 0
M  V30 1791 N 161.113 -0.173488 1.56642 0
M  V30 1792 C 162.341 -0.906095 1.86004 0
M  V30 1793 C 162.756 -1.75921 0.685355 0
M  V30 1794 O 162.113 -1.79198 -0.345578 0
M  V30 1795 C 162.164 -1.78462 3.14378 0
M  V30 1796 O 161.885 -0.965914 4.27319 0
M  V30 1797 C 163.386 -2.62707 3.57071 0
M  V30 1798 H 160.606 -0.263341 0.617165 0
M  V30 1799 H 163.15 -0.174236 2.03756 0
M  V30 1800 H 161.305 -2.46984 2.98459 0
M  V30 1801 H 161.719 -1.56655 5.00559 0
M  V30 1802 H 163.193 -3.19969 4.49804 0
M  V30 1803 H 163.67 -3.37472 2.81086 0
M  V30 1804 H 164.276 -1.99521 3.75595 0
M  V30 1805 N 162.591 -1.51276 -0.441967 0
M  V30 1806 C 163.838 -1.63715 -1.19179 0
M  V30 1807 C 164.166 -0.351175 -1.91303 0
M  V30 1808 O 163.421 0.664524 -1.84072 0
M  V30 1809 C 163.72 -2.78746 -2.23686 0
M  V30 1810 C 163.386 -4.18189 -1.68607 0
M  V30 1811 C 162.048 -4.56125 -1.53308 0
M  V30 1812 C 164.4 -5.05222 -1.28062 0
M  V30 1813 C 161.728 -5.78804 -0.959317 0
M  V30 1814 C 164.08 -6.28476 -0.721162 0
M  V30 1815 C 162.744 -6.65188 -0.55504 0
M  V30 1816 H 162.014 -0.599076 -0.436106 0
M  V30 1817 H 164.661 -1.85296 -0.48351 0
M  V30 1818 H 162.966 -2.51369 -3.00535 0
M  V30 1819 H 164.663 -2.8557 -2.81515 0
M  V30 1820 H 161.253 -3.88277 -1.8149 0
M  V30 1821 H 165.437 -4.76524 -1.38704 0
M  V30 1822 H 160.693 -6.05899 -0.81833 0
M  V30 1823 H 164.867 -6.95259 -0.398458 0
M  V30 1824 H 162.494 -7.60123 -0.108311 0
M  V30 1825 N 164.069 0.697108 -1.41344 0
M  V30 1826 C 165.016 1.81106 -1.43071 0
M  V30 1827 C 165.986 1.63632 -0.285275 0
M  V30 1828 O 167.171 1.84504 -0.486091 0
M  V30 1829 C 164.311 3.18975 -1.31715 0
M  V30 1830 C 163.424 3.47892 -2.56115 0
M  V30 1831 C 162.559 4.75367 -2.37064 0
M  V30 1832 C 161.598 4.97247 -3.56948 0
M  V30 1833 N 160.735 6.15947 -3.36977 0
M  V30 1834 H 165.575 1.78965 -2.38276 0
M  V30 1835 H 163.112 0.873975 -1.18322 0
M  V30 1836 H 165.07 3.98615 -1.23133 0
M  V30 1837 H 163.7 3.20297 -0.401183 0
M  V30 1838 H 162.752 2.62669 -2.75153 0
M  V30 1839 H 164.064 3.59962 -3.45295 0
M  V30 1840 H 163.218 5.63059 -2.25941 0
M  V30 1841 H 161.957 4.65541 -1.45338 0
M  V30 1842 H 160.962 4.08004 -3.68527 0
M  V30 1843 H 162.187 5.08934 -4.49626 0
M  V30 1844 H 160.133 6.07336 -2.47949 0
M  V30 1845 H 160.05 6.28777 -4.19732 0
M  V30 1846 H 161.318 7.06377 -3.29623 0
M  V30 1847 N 165.547 1.27147 0.931209 0
M  V30 1848 C 166.775 1.16082 1.71267 0
M  V30 1849 C 167.19 -0.282772 1.8667 0
M  V30 1850 O 166.547 -1.19283 1.38122 0
M  V30 1851 C 166.598 1.8358 3.11417 0
M  V30 1852 O 166.319 3.22299 2.96741 0
M  V30 1853 C 167.82 1.78597 4.05732 0
M  V30 1854 H 165.04 0.403758 0.535929 0
M  V30 1855 H 167.584 1.67953 1.16671 0
M  V30 1856 H 165.739 1.35623 3.62885 0
M  V30 1857 H 166.153 3.55851 3.85319 0
M  V30 1858 H 167.627 2.30444 5.01597 0
M  V30 1859 H 168.104 0.754564 4.3267 0
M  V30 1860 H 168.71 2.26152 3.60188 0
M  V30 1861 N 167.025 -1.13721 1.09112 0
M  V30 1862 C 167.975 -2.17082 0.697091 0
M  V30 1863 C 168.959 -1.58321 -0.286923 0
M  V30 1864 O 170.151 -1.7673 -0.0978008 0
M  V30 1865 C 167.28 -3.43105 0.115729 0
M  V30 1866 C 166.366 -4.0888 1.12596 0
M  V30 1867 N 166.757 -4.4987 2.31195 0
M  V30 1868 C 165.055 -4.35471 0.963366 0
M  V30 1869 C 165.756 -5.01094 2.95431 0
M  V30 1870 N 164.732 -4.95751 2.23006 0
M  V30 1871 H 168.534 -2.46524 1.6001 0
M  V30 1872 H 166.048 -1.30481 0.966869 0
M  V30 1873 H 168.045 -4.16491 -0.184555 0
M  V30 1874 H 166.705 -3.15138 -0.78217 0
M  V30 1875 H 167.716 -4.42678 2.68806 0
M  V30 1876 H 164.393 -4.17328 0.119878 0
M  V30 1877 H 165.783 -5.4263 3.96236 0
M  V30 1878 N 168.503 -0.877838 -1.30888 0
M  V30 1879 C 169.45 -0.337538 -2.28318 0
M  V30 1880 C 170.42 0.568346 -1.56074 0
M  V30 1881 O 171.605 0.498298 -1.84178 0
M  V30 1882 C 168.745 0.448142 -3.42178 0
M  V30 1883 C 167.858 -0.48615 -4.29256 0
M  V30 1884 C 166.993 0.314427 -5.30269 0
M  V30 1885 C 166.032 -0.615791 -6.08995 0
M  V30 1886 N 165.169 0.14902 -7.01942 0
M  V30 1887 H 170.009 -1.17356 -2.73919 0
M  V30 1888 H 167.546 -0.590094 -1.34745 0
M  V30 1889 H 169.504 0.919517 -4.06941 0
M  V30 1890 H 168.134 1.24879 -2.97666 0
M  V30 1891 H 167.186 -1.076 -3.64865 0
M  V30 1892 H 168.498 -1.19909 -4.84173 0
M  V30 1893 H 167.652 0.847969 -6.00745 0
M  V30 1894 H 166.391 1.06062 -4.76027 0
M  V30 1895 H 165.396 -1.16102 -5.37401 0
M  V30 1896 H 166.621 -1.36097 -6.65323 0
M  V30 1897 H 164.567 0.877884 -6.50099 0
M  V30 1898 H 164.484 -0.504433 -7.54315 0
M  V30 1899 H 165.752 0.663537 -7.76671 0
M  V30 1900 N 169.982 1.44106 -0.638065 0
M  V30 1901 C 171.259 1.95453 -0.0759321 0
M  V30 1902 C 171.639 1.57984 1.40015 0
M  V30 1903 O 170.987 0.857361 2.11806 0
M  V30 1904 C 171.197 3.47655 -0.306132 0
M  V30 1905 C 172.545 4.24114 -0.203008 0
M  V30 1906 O 173.569 3.55405 -0.237871 0
M  V30 1907 O 172.428 5.46381 -0.113827 0
M  V30 1908 H 169.522 0.826797 0.0183332 0
M  V30 1909 H 172.068 1.54122 -0.710251 0
M  V30 1910 H 170.84 3.68 -1.3301 0
M  V30 1911 H 170.463 3.95949 0.361991 0
M  V30 1912 N 171.46 0.379036 1.52974 0
M  V30 1913 C 172.39 -0.452706 2.29069 0
M  V30 1914 C 173.371 -1.07237 1.32039 0
M  V30 1915 O 174.556 -1.08708 1.60923 0
M  V30 1916 C 171.686 -1.5856 3.08992 0
M  V30 1917 C 170.64 -1.0925 4.13822 0
M  V30 1918 C 169.966 -2.31668 4.81907 0
M  V30 1919 C 171.266 -0.167702 5.22031 0
M  V30 1920 H 172.96 0.182181 2.98845 0
M  V30 1921 H 170.506 0.0890592 1.43724 0
M  V30 1922 H 172.459 -2.1742 3.6098 0
M  V30 1923 H 171.183 -2.24792 2.36931 0
M  V30 1924 H 169.842 -0.526494 3.628 0
M  V30 1925 H 169.49 -2.96386 4.06404 0
M  V30 1926 H 169.19 -1.9934 5.52754 0
M  V30 1927 H 170.714 -2.91189 5.36695 0
M  V30 1928 H 172.128 -0.664186 5.6944 0
M  V30 1929 H 170.525 0.0653265 6.00064 0
M  V30 1930 H 171.595 0.786347 4.78482 0
M  V30 1931 N 172.938 -1.57226 0.108567 0
M  V30 1932 C 173.871 -2.10447 -0.882464 0
M  V30 1933 C 174.849 -1.01829 -1.26766 0
M  V30 1934 O 176.033 -1.29415 -1.37054 0
M  V30 1935 C 173.16 -2.59258 -2.17952 0
M  V30 1936 C 172.206 -3.79662 -1.94318 0
M  V30 1937 S 173.039 -5.22586 -1.16892 0
M  V30 1938 C 174.195 -5.74758 -2.47799 0
M  V30 1939 H 174.428 -2.94178 -0.429745 0
M  V30 1940 H 171.961 -1.54043 -0.105 0
M  V30 1941 H 173.919 -2.88036 -2.92482 0
M  V30 1942 H 172.58 -1.75728 -2.60343 0
M  V30 1943 H 171.773 -4.11928 -2.90399 0
M  V30 1944 H 171.375 -3.51446 -1.27913 0
M  V30 1945 H 173.667 -5.83846 -3.43701 0
M  V30 1946 H 174.61 -6.73027 -2.20093 0
M  V30 1947 H 175.018 -5.02763 -2.56689 0
M  V30 1948 N 174.416 0.165178 -1.56732 0
M  V30 1949 C 175.832 0.517174 -1.50988 0
M  V30 1950 C 176.032 1.84331 -0.813894 0
M  V30 1951 O 175.088 2.49672 -0.37682 0
M  V30 1952 C 176.401 0.544261 -2.95733 0
M  V30 1953 C 177.949 0.631039 -3.06573 0
M  V30 1954 C 178.424 0.68896 -4.52788 0
M  V30 1955 N 179.915 0.751683 -4.5706 0
M  V30 1956 C 180.65 0.817177 -5.67547 0
M  V30 1957 N 180.146 0.843129 -6.8765 0
M  V30 1958 N 181.939 0.856668 -5.55534 0
M  V30 1959 H 174.09 -0.704318 -2.00382 0
M  V30 1960 H 176.353 -0.254687 -0.913148 0
M  V30 1961 H 176.059 -0.361607 -3.49836 0
M  V30 1962 H 175.933 1.3886 -3.5071 0
M  V30 1963 H 178.32 1.52733 -2.52501 0
M  V30 1964 H 178.401 -0.240095 -2.54671 0
M  V30 1965 H 178.045 -0.2031 -5.07494 0
M  V30 1966 H 177.975 1.57633 -5.02454 0
M  V30 1967 H 180.466 0.739661 -3.70591 0
M  V30 1968 H 180.779 0.894448 -7.67606 0
M  V30 1969 H 179.124 0.811304 -6.90248 0
M  V30 1970 H 182.315 0.833437 -4.60621 0
M  V30 1971 H 182.488 0.904247 -6.4166 0
M  V30 1972 N 175.894 1.51508 0.433938 0
M  V30 1973 C 176.844 1.69451 1.52546 0
M  V30 1974 C 177.828 0.548474 1.51263 0
M  V30 1975 O 179.02 0.804529 1.57659 0
M  V30 1976 C 176.149 1.82604 2.90707 0
M  V30 1977 C 175.235 3.03002 2.96733 0
M  V30 1978 N 175.626 4.26121 2.72496 0
M  V30 1979 C 173.924 3.02327 3.27894 0
M  V30 1980 C 174.625 5.07407 2.84452 0
M  V30 1981 N 173.601 4.42126 3.16269 0
M  V30 1982 H 177.403 2.62305 1.32564 0
M  V30 1983 H 174.917 1.49202 0.641297 0
M  V30 1984 H 176.914 1.93569 3.69238 0
M  V30 1985 H 175.574 0.909339 3.11707 0
M  V30 1986 H 176.585 4.55009 2.4736 0
M  V30 1987 H 173.262 2.20301 3.54646 0
M  V30 1988 H 174.652 6.15422 2.69639 0
M  V30 1989 N 177.372 -0.689602 1.41712 0
M  V30 1990 C 178.62 -1.4468 1.4111 0
M  V30 1991 C 178.941 -1.94986 0.0232196 0
M  V30 1992 O 178.211 -1.72097 -0.935913 0
M  V30 1993 H 176.791 -0.536847 0.519427 0
M  V30 1994 H 179.453 -0.815825 1.77004 0
M  V30 1995 H 178.549 -2.30706 2.10193 0
M  V30 1996 N 178.85 -1.27639 -0.924453 0
M  V30 1997 C 180.127 -1.04887 -1.651 0
M  V30 1998 C 180.507 0.415327 -2.06974 0
M  V30 1999 O 179.855 1.39923 -1.80648 0
M  V30 2000 C 180.065 -2.01348 -2.85061 0
M  V30 2001 C 181.413 -2.30899 -3.56329 0
M  V30 2002 O 182.437 -1.99348 -2.95193 0
M  V30 2003 O 181.296 -2.84699 -4.66485 0
M  V30 2004 H 178.39 -0.400083 -0.723784 0
M  V30 2005 H 180.936 -1.38916 -0.974703 0
M  V30 2006 H 179.708 -3.0008 -2.51133 0
M  V30 2007 H 179.331 -1.679 -3.6041 0
M  V30 2008 N 180.328 1.1314 -1.09713 0
M  V30 2009 C 181.556 1.88321 -0.856898 0
M  V30 2010 C 181.971 1.79276 0.592073 0
M  V30 2011 O 181.328 1.16142 1.40774 0
M  V30 2012 C 181.379 3.37812 -1.28706 0
M  V30 2013 O 181.1 3.46627 -2.67921 0
M  V30 2014 C 182.601 4.29952 -1.07964 0
M  V30 2015 H 179.821 0.596094 -0.308079 0
M  V30 2016 H 182.365 1.43205 -1.45988 0
M  V30 2017 H 180.52 3.805 -0.727912 0
M  V30 2018 H 180.934 4.39579 -2.8613 0
M  V30 2019 H 182.408 5.33159 -1.42986 0
M  V30 2020 H 182.885 4.39196 -0.0176577 0
M  V30 2021 H 183.491 3.93036 -1.62489 0
M  V30 2022 N 181.806 0.884767 1.30421 0
M  V30 2023 C 183.034 0.518044 2.0031 0
M  V30 2024 C 183.449 -0.893408 1.66324 0
M  V30 2025 O 182.806 -1.5875 0.900262 0
M  V30 2026 C 182.857 0.682997 3.54989 0
M  V30 2027 O 182.578 2.03888 3.87764 0
M  V30 2028 C 184.079 0.31924 4.42149 0
M  V30 2029 H 181.299 0.200265 0.640418 0
M  V30 2030 H 183.843 1.19001 1.6631 0
M  V30 2031 H 181.998 0.0584052 3.87356 0
M  V30 2032 H 182.412 2.05735 4.82466 0
M  V30 2033 H 183.886 0.485555 5.4986 0
M  V30 2034 H 184.363 -0.742717 4.32875 0
M  V30 2035 H 184.969 0.920147 4.15227 0
M  V30 2036 N 183.284 -1.43765 0.645699 0
M  V30 2037 C 184.214 -2.33471 -0.0370477 0
M  V30 2038 C 185.195 -1.49042 -0.819779 0
M  V30 2039 O 186.38 -1.77726 -0.782758 0
M  V30 2040 C 183.51 -3.32311 -1.0093 0
M  V30 2041 C 182.464 -4.2667 -0.337201 0
M  V30 2042 C 181.79 -5.1549 -1.42037 0
M  V30 2043 C 183.09 -5.16657 0.765706 0
M  V30 2044 H 184.784 -2.90809 0.712069 0
M  V30 2045 H 182.33 -1.39834 0.343876 0
M  V30 2046 H 184.283 -3.9396 -1.49578 0
M  V30 2047 H 183.007 -2.73213 -1.78948 0
M  V30 2048 H 181.666 -3.66374 0.128771 0
M  V30 2049 H 181.314 -4.52735 -2.1918 0
M  V30 2050 H 181.014 -5.79438 -0.975966 0
M  V30 2051 H 182.538 -5.80012 -1.90838 0
M  V30 2052 H 183.952 -5.72158 0.361702 0
M  V30 2053 H 182.349 -5.89286 1.13413 0
M  V30 2054 H 183.419 -4.56796 1.62683 0
M  V30 2055 N 184.763 -0.387143 -1.52771 0
M  V30 2056 C 186.009 0.188506 -2.02525 0
M  V30 2057 C 186.364 1.44649 -1.26864 0
M  V30 2058 O 185.657 1.88189 -0.359945 0
M  V30 2059 C 185.851 0.512209 -3.53711 0
M  V30 2060 C 185.68 -0.712855 -4.44014 0
M  V30 2061 C 184.45 -1.23147 -4.90064 0
M  V30 2062 C 186.648 -1.58453 -4.89282 0
M  V30 2063 N 184.63 -2.41431 -5.64433 0
M  V30 2064 C 186.001 -2.61381 -5.6221 0
M  V30 2065 C 188.056 -1.60488 -4.71326 0
M  V30 2066 C 186.759 -3.66227 -6.19088 0
M  V30 2067 C 188.785 -2.6424 -5.29085 0
M  V30 2068 C 188.147 -3.6589 -6.01917 0
M  V30 2069 H 184.246 0.0311236 -0.78138 0
M  V30 2070 H 186.83 -0.536548 -1.87161 0
M  V30 2071 H 185.001 1.20632 -3.69192 0
M  V30 2072 H 186.733 1.07482 -3.90166 0
M  V30 2073 H 183.488 -0.792795 -4.66917 0
M  V30 2074 H 183.912 -3.01274 -6.0627 0
M  V30 2075 H 188.554 -0.83247 -4.14524 0
M  V30 2076 H 186.272 -4.44337 -6.74974 0
M  V30 2077 H 189.858 -2.66695 -5.17074 0
M  V30 2078 H 188.738 -4.44855 -6.45813 0
M  V30 2079 N 186.241 1.57166 -0.116904 0
M  V30 2080 C 187.487 1.96206 0.536166 0
M  V30 2081 C 187.842 0.99915 1.64422 0
M  V30 2082 O 187.135 0.0288195 1.91578 0
M  V30 2083 C 187.329 3.39508 1.11664 0
M  V30 2084 C 187.158 4.49651 0.0663474 0
M  V30 2085 C 185.928 5.03982 -0.36474 0
M  V30 2086 C 188.126 5.09322 -0.713829 0
M  V30 2087 N 186.108 5.97699 -1.40102 0
M  V30 2088 C 187.479 5.98963 -1.60136 0
M  V30 2089 C 189.534 4.91989 -0.764948 0
M  V30 2090 C 188.237 6.73128 -2.53556 0
M  V30 2091 C 190.263 5.66833 -1.68685 0
M  V30 2092 C 189.625 6.56158 -2.56196 0
M  V30 2093 H 185.724 0.764203 0.165886 0
M  V30 2094 H 188.308 1.93623 -0.204535 0
M  V30 2095 H 186.479 3.42743 1.82707 0
M  V30 2096 H 188.211 3.65677 1.73386 0
M  V30 2097 H 184.966 4.73592 0.027252 0
M  V30 2098 H 185.39 6.49262 -1.91802 0
M  V30 2099 H 190.032 4.22676 -0.102501 0
M  V30 2100 H 187.75 7.41689 -3.20816 0
M  V30 2101 H 191.336 5.55427 -1.73181 0
M  V30 2102 H 190.216 7.13057 -3.26372 0
M  V30 2103 N 187.719 -0.156864 1.56817 0
M  V30 2104 C 188.968 -0.869504 1.81996 0
M  V30 2105 C 189.281 -1.82777 0.696545 0
M  V30 2106 O 190.487 -2.58384 0.833658 0
M  V30 2107 C 188.943 -1.59679 3.22538 0
M  V30 2108 C 188.551 -0.681431 4.42787 0
M  V30 2109 C 190.295 -2.2968 3.56997 0
M  V30 2110 C 188.202 -1.40978 5.74351 0
M  V30 2111 H 187.132 -0.328438 0.678708 0
M  V30 2112 H 189.783 -0.1223 1.83092 0
M  V30 2113 H 188.165 -2.38927 3.158 0
M  V30 2114 H 189.339 0.0751166 4.60739 0
M  V30 2115 H 187.654 -0.0903431 4.16302 0
M  V30 2116 H 190.251 -2.84794 4.52544 0
M  V30 2117 H 190.594 -3.05707 2.82576 0
M  V30 2118 H 191.127 -1.57361 3.65352 0
M  V30 2119 H 187.866 -0.691561 6.51842 0
M  V30 2120 H 187.386 -2.13929 5.60352 0
M  V30 2121 H 189.065 -1.95337 6.16808 0
M  V30 2122 N 189.197 -1.51736 -0.425897 0
M  V30 2123 C 190.129 -1.70083 -1.53638 0
M  V30 2124 C 191.142 -0.581349 -1.52066 0
M  V30 2125 O 192.331 -0.856017 -1.56635 0
M  V30 2126 C 189.431 -1.71078 -2.9255 0
M  V30 2127 C 188.604 -2.99795 -3.185 0
M  V30 2128 C 187.663 -2.92825 -4.37196 0
M  V30 2129 O 186.689 -3.66756 -4.35291 0
M  V30 2130 N 187.891 -2.0946 -5.41393 0
M  V30 2131 H 190.656 -2.65882 -1.383 0
M  V30 2132 H 188.217 -1.49765 -0.614988 0
M  V30 2133 H 190.209 -1.63969 -3.69995 0
M  V30 2134 H 188.779 -0.828242 -3.01428 0
M  V30 2135 H 187.999 -3.20684 -2.2925 0
M  V30 2136 H 189.287 -3.84977 -3.32671 0
M  V30 2137 H 188.685 -1.48792 -5.45781 0
M  V30 2138 H 187.242 -2.08221 -6.17647 0
M  V30 2139 N 190.675 0.682077 -1.42076 0
M  V30 2140 C 191.638 1.77756 -1.44691 0
M  V30 2141 C 192.638 1.5726 -0.335535 0
M  V30 2142 O 193.828 1.63686 -0.596037 0
M  V30 2143 C 190.96 3.16301 -1.27146 0
M  V30 2144 H 192.153 1.76826 -2.42224 0
M  V30 2145 H 189.706 0.891012 -1.28416 0
M  V30 2146 H 190.441 3.22862 -0.305075 0
M  V30 2147 H 190.226 3.32581 -2.07683 0
M  V30 2148 H 191.716 3.96241 -1.31843 0
M  V30 2149 N 192.153 1.28127 0.917671 0
M  V30 2150 C 193.086 1.06039 2.02067 0
M  V30 2151 C 194.064 -0.0223285 1.62585 0
M  V30 2152 O 195.248 0.124823 1.88086 0
M  V30 2153 C 192.375 0.610596 3.33151 0
M  V30 2154 C 191.421 1.68937 3.91615 0
M  V30 2155 S 192.254 3.28437 4.22953 0
M  V30 2156 C 193.41 2.85283 5.57103 0
M  V30 2157 H 193.643 1.99425 2.20493 0
M  V30 2158 H 191.176 1.12071 1.06205 0
M  V30 2159 H 193.134 0.357778 4.08938 0
M  V30 2160 H 191.795 -0.303364 3.12632 0
M  V30 2161 H 190.988 1.32619 4.86239 0
M  V30 2162 H 190.59 1.89478 3.2245 0
M  V30 2163 H 192.882 2.3121 6.36827 0
M  V30 2164 H 193.825 3.7869 5.98331 0
M  V30 2165 H 194.233 2.24118 5.18104 0
M  V30 2166 N 193.631 -1.12557 1.10312 0
M  V30 2167 C 194.859 -1.87864 0.866873 0
M  V30 2168 C 195.274 -1.79588 -0.582557 0
M  V30 2169 O 194.631 -1.16887 -1.40156 0
M  V30 2170 C 194.682 -3.37125 1.30496 0
M  V30 2171 O 194.403 -3.45201 2.69755 0
M  V30 2172 C 195.904 -4.29373 1.10243 0
M  V30 2173 H 193.124 -0.594452 0.311236 0
M  V30 2174 H 195.668 -1.42429 1.46745 0
M  V30 2175 H 193.823 -3.80109 0.748081 0
M  V30 2176 H 194.237 -4.38056 2.88457 0
M  V30 2177 H 195.711 -5.32394 1.45811 0
M  V30 2178 H 196.188 -4.39181 0.0409492 0
M  V30 2179 H 196.794 -3.92169 1.64571 0
M  V30 2180 N 195.109 -0.891671 -1.2995 0
M  V30 2181 C 196.357 -0.512486 -1.95494 0
M  V30 2182 C 196.678 0.942776 -1.70695 0
M  V30 2183 O 195.948 1.66374 -1.03424 0
M  V30 2184 H 194.528 -0.186533 -0.723336 0
M  V30 2185 H 197.19 -1.13621 -1.58355 0
M  V30 2186 H 196.286 -0.688342 -3.04415 0
M  V30 2187 N 196.587 1.43421 -0.653314 0
M  V30 2188 C 197.834 2.01812 -0.166745 0
M  V30 2189 C 198.162 1.51535 1.21931 0
M  V30 2190 O 197.417 0.698975 1.82792 0
M  V30 2191 C 197.716 3.57176 -0.126623 0
M  V30 2192 C 197.382 4.26798 -1.45444 0
M  V30 2193 C 196.044 4.45534 -1.81805 0
M  V30 2194 C 198.396 4.66225 -2.32989 0
M  V30 2195 C 195.724 5.00961 -3.05377 0
M  V30 2196 C 198.076 5.23021 -3.55853 0
M  V30 2197 C 196.74 5.39973 -3.9241 0
M  V30 2198 H 196.01 0.738484 -0.0610162 0
M  V30 2199 H 198.657 1.71896 -0.84404 0
M  V30 2200 H 196.962 3.86634 0.634123 0
M  V30 2201 H 198.659 4.00112 0.266723 0
M  V30 2202 H 195.249 4.12561 -1.16153 0
M  V30 2203 H 199.433 4.51443 -2.06187 0
M  V30 2204 H 194.689 5.12271 -3.3375 0
M  V30 2205 H 198.863 5.52518 -4.23907 0
M  V30 2206 H 196.49 5.82687 -4.88242 0
M  V30 2207 N 198.065 0.39524 1.52563 0
M  V30 2208 C 199.028 -0.425001 2.25225 0
M  V30 2209 C 200.028 -0.985266 1.27079 0
M  V30 2210 O 201.218 -0.866332 1.5113 0
M  V30 2211 C 198.35 -1.59686 3.01186 0
M  V30 2212 H 199.543 0.211233 2.99155 0
M  V30 2213 H 197.096 0.147472 1.55603 0
M  V30 2214 H 197.831 -2.27035 2.31572 0
M  V30 2215 H 197.616 -1.20176 3.73229 0
M  V30 2216 H 199.106 -2.17743 3.5634 0
M  V30 2217 N 199.544 -1.57102 0.125237 0
M  V30 2218 C 200.477 -2.11371 -0.860094 0
M  V30 2219 C 201.455 -1.03168 -1.25679 0
M  V30 2220 O 202.639 -1.30862 -1.35674 0
M  V30 2221 C 199.766 -2.61555 -2.1519 0
M  V30 2222 C 198.812 -3.81701 -1.9028 0
M  V30 2223 S 199.645 -5.23797 -1.11343 0
M  V30 2224 C 200.801 -5.77353 -2.41689 0
M  V30 2225 H 201.034 -2.94617 -0.39852 0
M  V30 2226 H 198.567 -1.54145 -0.0886555 0
M  V30 2227 H 200.525 -2.91122 -2.89411 0
M  V30 2228 H 199.186 -1.78479 -2.58465 0
M  V30 2229 H 198.379 -4.14985 -2.86014 0
M  V30 2230 H 197.981 -3.52783 -1.24178 0
M  V30 2231 H 200.273 -5.87458 -3.37489 0
M  V30 2232 H 201.216 -6.75323 -2.12942 0
M  V30 2233 H 201.624 -5.05457 -2.51342 0
M  V30 2234 N 201.022 0.148545 -1.56898 0
M  V30 2235 C 202.269 0.861418 -1.83264 0
M  V30 2236 C 202.597 1.81239 -0.705883 0
M  V30 2237 O 201.852 1.93305 0.305212 0
M  V30 2238 C 202.151 1.67064 -3.1595 0
M  V30 2239 C 201.817 0.866591 -4.42494 0
M  V30 2240 C 200.479 0.644762 -4.76861 0
M  V30 2241 C 202.831 0.30418 -5.20312 0
M  V30 2242 C 200.159 -0.15021 -5.86508 0
M  V30 2243 C 202.511 -0.477824 -6.30793 0
M  V30 2244 C 201.175 -0.710244 -6.63711 0
M  V30 2245 H 200.445 0.315215 -0.670612 0
M  V30 2246 H 203.092 0.125142 -1.91091 0
M  V30 2247 H 201.397 2.47698 -3.03567 0
M  V30 2248 H 203.094 2.22566 -3.33565 0
M  V30 2249 H 199.684 1.04955 -4.15551 0
M  V30 2250 H 203.868 0.462844 -4.94137 0
M  V30 2251 H 199.124 -0.339796 -6.10455 0
M  V30 2252 H 203.298 -0.92076 -6.90286 0
M  V30 2253 H 200.925 -1.3281 -7.48509 0
M  V30 2254 N 202.5 1.5196 0.417844 0
M  V30 2255 C 203.747 1.65591 1.16559 0
M  V30 2256 C 204.075 0.381565 1.90721 0
M  V30 2257 O 203.33 -0.635156 1.85106 0
M  V30 2258 C 203.629 2.82269 2.19223 0
M  V30 2259 C 203.295 4.20819 1.61933 0
M  V30 2260 C 201.957 4.58506 1.46033 0
M  V30 2261 C 204.309 5.07196 1.20008 0
M  V30 2262 C 201.637 5.80257 0.867113 0
M  V30 2263 C 203.989 6.29544 0.621086 0
M  V30 2264 C 202.653 6.65987 0.449144 0
M  V30 2265 H 201.923 0.605939 0.42652 0
M  V30 2266 H 204.57 1.86041 0.45397 0
M  V30 2267 H 202.875 2.56118 2.96498 0
M  V30 2268 H 204.572 2.90012 2.76936 0
M  V30 2269 H 201.162 3.91116 1.7529 0
M  V30 2270 H 205.346 4.7867 1.31105 0
M  V30 2271 H 200.602 6.07124 0.721833 0
M  V30 2272 H 204.776 6.95805 0.287798 0
M  V30 2273 H 202.403 7.60199 -0.012632 0
M  V30 2274 N 203.978 -0.674533 1.42435 0
M  V30 2275 C 204.908 -1.80009 1.48724 0
M  V30 2276 C 205.889 -1.6659 0.343793 0
M  V30 2277 O 207.074 -1.86007 0.558137 0
M  V30 2278 C 204.204 -3.18306 1.38919 0
M  V30 2279 C 203.158 -3.46461 2.51294 0
M  V30 2280 C 202.484 -4.84335 2.26547 0
M  V30 2281 C 203.784 -3.43328 3.93603 0
M  V30 2282 H 205.478 -1.75004 2.42928 0
M  V30 2283 H 203.024 -0.840533 1.16923 0
M  V30 2284 H 204.977 -3.9678 1.41927 0
M  V30 2285 H 203.701 -3.2399 0.412094 0
M  V30 2286 H 202.36 -2.70348 2.47604 0
M  V30 2287 H 202.008 -4.86669 1.2713 0
M  V30 2288 H 201.708 -5.04136 3.01861 0
M  V30 2289 H 203.232 -5.65094 2.31304 0
M  V30 2290 H 204.646 -4.11772 3.98894 0
M  V30 2291 H 203.043 -3.74664 4.68771 0
M  V30 2292 H 204.113 -2.41897 4.20255 0
M  V30 2293 N 205.456 -1.28612 -0.910864 0
M  V30 2294 C 206.704 -1.15705 -1.65701 0
M  V30 2295 C 207.025 0.29416 -1.92769 0
M  V30 2296 O 206.295 1.20331 -1.54588 0
M  V30 2297 H 204.875 -0.425216 -0.614167 0
M  V30 2298 H 207.537 -1.61381 -1.0928 0
M  V30 2299 H 206.633 -1.6988 -2.61815 0
M  V30 2300 N 206.934 1.1197 -1.10907 0
M  V30 2301 C 208.159 1.87942 -0.877064 0
M  V30 2302 C 208.584 1.79341 0.567314 0
M  V30 2303 O 207.942 1.15184 1.40009 0
M  V30 2304 C 207.99 3.34926 -1.33629 0
M  V30 2305 O 207.094 4.09303 -0.504447 0
M  V30 2306 H 206.435 0.583785 -0.316371 0
M  V30 2307 H 208.965 1.4157 -1.47712 0
M  V30 2308 H 208.975 3.8577 -1.32837 0
M  V30 2309 H 207.65 3.40504 -2.3881 0
M  V30 2310 H 206.227 3.68393 -0.577993 0
M  V30 2311 N 208.412 0.89855 1.29475 0
M  V30 2312 C 209.658 0.524658 1.95896 0
M  V30 2313 C 209.991 -0.926468 1.70676 0
M  V30 2314 O 209.266 -1.65665 1.01908 0
M  V30 2315 C 209.549 0.81633 3.50725 0
M  V30 2316 C 209.402 2.31907 3.85408 0
M  V30 2317 C 210.721 0.302038 4.39062 0
M  V30 2318 H 207.84 0.19209 0.711527 0
M  V30 2319 H 210.482 1.12502 1.53112 0
M  V30 2320 H 208.632 0.305369 3.87298 0
M  V30 2321 H 210.304 2.89949 3.58786 0
M  V30 2322 H 208.547 2.78027 3.32992 0
M  V30 2323 H 209.218 2.47373 4.93468 0
M  V30 2324 H 211.694 0.739551 4.09475 0
M  V30 2325 H 210.57 0.535331 5.46283 0
M  V30 2326 H 210.831 -0.797216 4.34853 0
M  V30 2327 N 209.89 -1.43072 0.660911 0
M  V30 2328 C 210.84 -2.27948 -0.04847 0
M  V30 2329 C 211.824 -1.40325 -0.787246 0
M  V30 2330 O 213.016 -1.63893 -0.668446 0
M  V30 2331 C 210.145 -3.28143 -1.00881 0
M  V30 2332 C 209.231 -4.23252 -0.268108 0
M  V30 2333 N 209.622 -5.00656 0.719528 0
M  V30 2334 C 207.92 -4.43092 -0.508493 0
M  V30 2335 C 208.621 -5.70019 1.15988 0
M  V30 2336 N 207.597 -5.41364 0.492584 0
M  V30 2337 H 211.399 -2.85213 0.709279 0
M  V30 2338 H 208.913 -1.54869 0.488822 0
M  V30 2339 H 210.91 -3.87736 -1.53188 0
M  V30 2340 H 209.57 -2.7244 -1.76654 0
M  V30 2341 H 210.581 -5.06115 1.09855 0
M  V30 2342 H 207.258 -3.98449 -1.24679 0
M  V30 2343 H 208.648 -6.4214 1.97751 0
M  V30 2344 N 211.368 -0.403325 -1.52352 0
M  V30 2345 C 212.298 0.416205 -2.29761 0
M  V30 2346 C 213.279 1.05123 -1.33728 0
M  V30 2347 O 214.464 1.06134 -1.62632 0
M  V30 2348 C 211.594 1.53624 -3.11475 0
M  V30 2349 C 210.548 1.02653 -4.15507 0
M  V30 2350 C 209.874 2.23971 -4.85532 0
M  V30 2351 C 211.174 0.08463 -5.22231 0
M  V30 2352 H 212.868 -0.229701 -2.98518 0
M  V30 2353 H 210.414 -0.111913 -1.43564 0
M  V30 2354 H 212.367 2.1165 -3.64393 0
M  V30 2355 H 211.091 2.20994 -2.40477 0
M  V30 2356 H 209.75 0.46871 -3.63591 0
M  V30 2357 H 209.398 2.89883 -4.11068 0
M  V30 2358 H 209.098 1.90521 -5.55856 0
M  V30 2359 H 210.622 2.82614 -5.41259 0
M  V30 2360 H 212.036 0.573509 -5.70424 0
M  V30 2361 H 210.433 -0.160783 -5.99885 0
M  V30 2362 H 211.503 -0.86237 -4.7717 0
M  V30 2363 N 212.846 1.57033 -0.133567 0
M  V30 2364 C 214.076 1.99754 0.527429 0
M  V30 2365 C 214.484 1.01245 1.59832 0
M  V30 2366 O 213.827 -0.000645496 1.837 0
M  V30 2367 C 213.889 3.38903 1.19939 0
M  V30 2368 C 213.553 4.56174 0.274709 0
M  V30 2369 C 214.55 5.17563 -0.492398 0
M  V30 2370 C 212.235 5.01972 0.18153 0
M  V30 2371 C 214.229 6.2315 -1.34027 0
M  V30 2372 C 211.916 6.07416 -0.669958 0
M  V30 2373 C 212.914 6.67874 -1.42947 0
M  V30 2374 O 212.602 7.71279 -2.2668 0
M  V30 2375 H 212.334 0.660702 0.142999 0
M  V30 2376 H 214.888 2.04207 -0.221099 0
M  V30 2377 H 213.118 3.31248 1.99528 0
M  V30 2378 H 214.807 3.65818 1.75875 0
M  V30 2379 H 215.573 4.83087 -0.430367 0
M  V30 2380 H 211.452 4.54652 0.762422 0
M  V30 2381 H 214.996 6.70268 -1.93357 0
M  V30 2382 H 210.893 6.41321 -0.73333 0
M  V30 2383 H 211.661 7.88441 -2.1978 0
M  V30 2384 N 214.325 -0.140222 1.56975 0
M  V30 2385 C 215.574 -0.850152 1.82908 0
M  V30 2386 C 215.887 -1.82028 0.715892 0
M  V30 2387 O 217.093 -2.57485 0.861016 0
M  V30 2388 C 215.549 -1.5625 3.24213 0
M  V30 2389 C 215.157 -0.63443 4.43485 0
M  V30 2390 C 216.901 -2.25881 3.59413 0
M  V30 2391 C 214.808 -1.34879 5.75814 0
M  V30 2392 H 213.738 -0.321221 0.682153 0
M  V30 2393 H 216.389 -0.102874 1.83211 0
M  V30 2394 H 214.771 -2.35565 3.18316 0
M  V30 2395 H 215.945 0.12398 4.60633 0
M  V30 2396 H 214.26 -0.0461836 4.16374 0
M  V30 2397 H 216.857 -2.79978 4.5554 0
M  V30 2398 H 217.2 -3.02693 2.85802 0
M  V30 2399 H 217.733 -1.53477 3.67001 0
M  V30 2400 H 214.472 -0.622385 6.52539 0
M  V30 2401 H 213.992 -2.07974 5.6259 0
M  V30 2402 H 215.671 -1.88784 6.18845 0
M  V30 2403 N 215.803 -1.52179 -0.40978 0
M  V30 2404 C 216.736 -1.70196 -1.52015 0
M  V30 2405 C 217.714 -0.549542 -1.53032 0
M  V30 2406 O 218.898 -0.776815 -1.71749 0
M  V30 2407 C 216.025 -1.74069 -2.90547 0
M  V30 2408 C 215.071 -2.95601 -3.07445 0
M  V30 2409 S 215.904 -4.55956 -2.80827 0
M  V30 2410 C 217.06 -4.62614 -4.21591 0
M  V30 2411 H 217.293 -2.64109 -1.36504 0
M  V30 2412 H 214.826 -1.4221 -0.601312 0
M  V30 2413 H 216.784 -1.76985 -3.70387 0
M  V30 2414 H 215.445 -0.812835 -3.034 0
M  V30 2415 H 214.638 -2.94791 -4.08796 0
M  V30 2416 H 214.24 -2.90569 -2.35469 0
M  V30 2417 H 216.532 -4.39951 -5.15218 0
M  V30 2418 H 217.475 -5.64548 -4.27424 0
M  V30 2419 H 217.883 -3.91654 -4.06531 0
M  V30 2420 N 217.281 0.66697 -1.42791 0
M  V30 2421 C 218.214 1.79177 -1.41318 0
M  V30 2422 C 219.192 1.60234 -0.276401 0
M  V30 2423 O 220.376 1.82602 -0.46785 0
M  V30 2424 C 217.503 3.16289 -1.21157 0
M  V30 2425 C 216.549 3.53964 -2.37932 0
M  V30 2426 S 217.382 3.55501 -4.00474 0
M  V30 2427 C 218.538 4.95292 -3.8267 0
M  V30 2428 H 218.771 1.80153 -2.365 0
M  V30 2429 H 216.304 0.838357 -1.29657 0
M  V30 2430 H 218.262 3.95428 -1.10212 0
M  V30 2431 H 216.923 3.1289 -0.275481 0
M  V30 2432 H 216.116 4.53646 -2.19594 0
M  V30 2433 H 215.718 2.82204 -2.45432 0
M  V30 2434 H 218.01 5.83584 -3.44145 0
M  V30 2435 H 218.953 5.18679 -4.82055 0
M  V30 2436 H 219.361 4.68179 -3.15386 0
M  V30 2437 N 218.759 1.29093 0.90403 0
M  V30 2438 C 219.987 1.19689 1.68766 0
M  V30 2439 C 220.402 -0.243113 1.87228 0
M  V30 2440 O 219.759 -1.16326 1.40621 0
M  V30 2441 C 219.81 1.90144 3.07453 0
M  V30 2442 O 219.531 3.2852 2.89838 0
M  V30 2443 C 221.032 1.87162 4.01852 0
M  V30 2444 H 218.252 0.415035 0.527244 0
M  V30 2445 H 220.796 1.7039 1.13082 0
M  V30 2446 H 218.951 1.43289 3.59926 0
M  V30 2447 H 219.365 3.63944 3.77684 0
M  V30 2448 H 220.839 2.41032 4.96596 0
M  V30 2449 H 221.316 0.84617 4.30972 0
M  V30 2450 H 221.922 2.33741 3.5531 0
M  V30 2451 N 220.237 -1.11381 1.11499 0
M  V30 2452 C 221.169 -2.17207 0.731704 0
M  V30 2453 C 222.182 -1.61066 -0.236957 0
M  V30 2454 O 223.371 -1.78489 -0.0197591 0
M  V30 2455 C 220.471 -3.38846 0.0607624 0
M  V30 2456 C 219.644 -4.24451 1.0564 0
M  V30 2457 C 218.703 -5.24562 0.4149 0
M  V30 2458 O 217.729 -5.59071 1.069 0
M  V30 2459 N 218.931 -5.74651 -0.821943 0
M  V30 2460 H 221.696 -2.50699 1.64225 0
M  V30 2461 H 219.257 -1.26908 1.00529 0
M  V30 2462 H 221.249 -4.02911 -0.380139 0
M  V30 2463 H 219.819 -3.03411 -0.752376 0
M  V30 2464 H 219.039 -3.56833 1.67524 0
M  V30 2465 H 220.327 -4.78486 1.72998 0
M  V30 2466 H 219.725 -5.48797 -1.37252 0
M  V30 2467 H 218.282 -6.40549 -1.20582 0
M  V30 2468 N 221.715 -0.905404 -1.28997 0
M  V30 2469 C 223.126 -0.581953 -1.77398 0
M  V30 2470 C 223.477 0.902552 -1.74208 0
M  V30 2471 O 222.602 1.70584 -1.33154 0
M  V30 2472 C 223.197 -1.04961 -3.22131 0
M  V30 2473 C 221.756 -0.777229 -3.68288 0
M  V30 2474 C 220.903 -1.22109 -2.48967 0
M  V30 2475 H 223.854 -1.08754 -1.15578 0
M  V30 2476 H 223.875 -0.387387 -3.78523 0
M  V30 2477 H 223.387 -2.13008 -3.24421 0
M  V30 2478 H 221.488 0.290383 -3.71467 0
M  V30 2479 H 221.601 -1.37911 -4.58822 0
M  V30 2480 H 219.965 -0.639971 -2.46529 0
M  V30 2481 H 220.748 -2.30972 -2.53982 0
M  V30 2482 N 223.193 1.4272 -0.668489 0
M  V30 2483 C 224.125 2.2914 0.052613 0
M  V30 2484 C 225.138 1.43339 0.771857 0
M  V30 2485 O 226.327 1.67123 0.627067 0
M  V30 2486 C 223.427 3.20618 1.09804 0
M  V30 2487 C 222.6 4.35039 0.45389 0
M  V30 2488 C 221.659 5.07282 1.39825 0
M  V30 2489 O 220.685 5.62024 0.900978 0
M  V30 2490 N 221.887 5.12206 2.73176 0
M  V30 2491 H 224.652 2.91668 -0.689209 0
M  V30 2492 H 222.213 1.53577 -0.512422 0
M  V30 2493 H 224.205 3.65815 1.73094 0
M  V30 2494 H 222.775 2.59585 1.74167 0
M  V30 2495 H 221.995 3.92567 -0.358396 0
M  V30 2496 H 223.283 5.088 0.00486972 0
M  V30 2497 H 222.681 4.6913 3.16122 0
M  V30 2498 H 221.238 5.61069 3.31729 0
M  V30 2499 N 224.671 0.411399 1.52136 0
M  V30 2500 C 225.899 -0.163076 2.06256 0
M  V30 2501 C 226.314 -1.3867 1.28125 0
M  V30 2502 O 225.671 -1.79423 0.333721 0
M  V30 2503 C 225.722 -0.511252 3.57867 0
M  V30 2504 O 225.443 0.66378 4.33042 0
M  V30 2505 C 226.944 -1.13921 4.28412 0
M  V30 2506 H 224.164 -0.0193897 0.67072 0
M  V30 2507 H 226.708 0.583007 1.96013 0
M  V30 2508 H 224.863 -1.20723 3.6811 0
M  V30 2509 H 225.277 0.372601 5.23175 0
M  V30 2510 H 226.751 -1.33302 5.35663 0
M  V30 2511 H 227.228 -2.11296 3.85033 0
M  V30 2512 H 227.834 -0.483373 4.22544 0
M  V30 2513 N 226.149 -1.5696 0.141893 0
M  V30 2514 C 227.398 -1.95135 -0.510427 0
M  V30 2515 C 227.711 -1.02896 -1.66348 0
M  V30 2516 O 228.917 -1.30629 -2.38009 0
M  V30 2517 C 227.373 -3.46876 -0.959427 0
M  V30 2518 C 226.981 -4.47691 0.166419 0
M  V30 2519 C 228.725 -3.93927 -1.58183 0
M  V30 2520 C 226.632 -5.90636 -0.300565 0
M  V30 2521 H 225.562 -0.728494 -0.194454 0
M  V30 2522 H 228.213 -1.8211 0.22542 0
M  V30 2523 H 226.595 -3.55215 -1.75038 0
M  V30 2524 H 227.769 -4.51043 0.94325 0
M  V30 2525 H 226.084 -4.10527 0.696905 0
M  V30 2526 H 228.681 -4.98158 -1.94275 0
M  V30 2527 H 229.024 -3.3519 -2.46888 0
M  V30 2528 H 229.557 -3.88484 -0.855863 0
M  V30 2529 H 226.296 -6.5318 0.550989 0
M  V30 2530 H 225.816 -5.90655 -1.04338 0
M  V30 2531 H 227.495 -6.42588 -0.754265 0
M  V30 2532 N 227.627 0.131896 -1.57047 0
M  V30 2533 C 228.875 0.840269 -1.83804 0
M  V30 2534 C 229.196 1.81017 -0.72512 0
M  V30 2535 O 228.466 1.94272 0.251995 0
M  V30 2536 H 227.046 0.313294 -0.678127 0
M  V30 2537 H 229.708 0.122294 -1.94516 0
M  V30 2538 H 228.804 1.39335 -2.79271 0
M  V30 2539 N 229.106 1.52395 0.401703 0
M  V30 2540 C 230.517 1.58899 0.980202 0
M  V30 2541 C 230.868 0.434032 1.91339 0
M  V30 2542 O 229.993 -0.444619 2.11783 0
M  V30 2543 C 230.588 2.87994 1.78451 0
M  V30 2544 C 229.147 2.96953 2.31292 0
M  V30 2545 C 228.294 2.53903 1.11483 0
M  V30 2546 H 231.245 1.57657 0.18168 0
M  V30 2547 H 231.266 2.73765 2.64259 0
M  V30 2548 H 230.778 3.72035 1.10506 0
M  V30 2549 H 228.879 2.17422 3.02586 0
M  V30 2550 H 228.992 4.01344 2.61649 0
M  V30 2551 H 227.356 2.07925 1.47104 0
M  V30 2552 H 228.139 3.40326 0.450928 0
M  V30 2553 N 230.584 -0.659388 1.43143 0
M  V30 2554 C 231.83 -1.42145 1.44647 0
M  V30 2555 C 232.163 -1.9408 0.0681907 0
M  V30 2556 O 231.438 -1.71899 -0.910007 0
M  V30 2557 C 231.721 -2.60735 2.48373 0
M  V30 2558 C 231.574 -2.14332 3.95451 0
M  V30 2559 C 232.893 -3.62951 2.48906 0
M  V30 2560 H 230.012 -0.51552 0.526696 0
M  V30 2561 H 232.654 -0.748069 1.74654 0
M  V30 2562 H 230.804 -3.18184 2.22916 0
M  V30 2563 H 232.476 -1.61932 4.31944 0
M  V30 2564 H 230.719 -1.4576 4.08578 0
M  V30 2565 H 231.39 -2.99583 4.63631 0
M  V30 2566 H 233.866 -3.1525 2.71582 0
M  V30 2567 H 232.742 -4.43487 3.23435 0
M  V30 2568 H 233.003 -4.15126 1.52061 0
M  V30 2569 N 232.062 -1.29571 -0.897171 0
M  V30 2570 C 233.287 -1.20705 -1.68656 0
M  V30 2571 C 233.712 0.228582 -1.86706 0
M  V30 2572 O 233.07 1.16494 -1.3892 0
M  V30 2573 C 233.118 -1.9282 -3.04717 0
M  V30 2574 O 232.222 -1.24697 -3.93096 0
M  V30 2575 H 231.563 -0.418126 -0.515816 0
M  V30 2576 H 234.093 -1.71183 -1.12061 0
M  V30 2577 H 234.103 -2.01372 -3.54843 0
M  V30 2578 H 232.778 -2.97239 -2.90899 0
M  V30 2579 H 231.355 -1.2442 -3.51531 0
M  V30 2580 N 233.54 1.10788 -1.12088 0
M  V30 2581 C 234.765 1.87002 -0.896949 0
M  V30 2582 C 235.19 1.79933 0.548261 0
M  V30 2583 O 234.548 1.16662 1.38779 0
M  V30 2584 C 234.596 3.3349 -1.37174 0
M  V30 2585 O 233.7 4.08745 -0.547831 0
M  V30 2586 H 233.041 0.580397 -0.322545 0
M  V30 2587 H 235.571 1.39996 -1.49206 0
M  V30 2588 H 235.581 3.84339 -1.36922 0
M  V30 2589 H 234.256 3.37951 -2.42408 0
M  V30 2590 H 232.833 3.6776 -0.617034 0
M  V30 2591 N 235.018 0.912232 1.28515 0
M  V30 2592 C 236.243 0.559774 1.99703 0
M  V30 2593 C 236.668 -0.851393 1.67729 0
M  V30 2594 O 236.026 -1.56875 0.908834 0
M  V30 2595 C 236.074 0.773874 3.52198 0
M  V30 2596 O 235.178 -0.167842 4.12058 0
M  V30 2597 H 234.519 0.21723 0.627461 0
M  V30 2598 H 237.049 1.22725 1.63706 0
M  V30 2599 H 237.059 0.683386 4.02236 0
M  V30 2600 H 235.734 1.80261 3.74805 0
M  V30 2601 H 234.311 -0.0287509 3.72889 0
M  V30 2602 N 236.496 -1.42363 0.676048 0
M  V30 2603 C 237.743 -2.01522 0.19883 0
M  V30 2604 C 238.071 -1.53456 -1.19505 0
M  V30 2605 O 237.326 -0.727967 -1.81657 0
M  V30 2606 C 237.625 -3.56929 0.183431 0
M  V30 2607 C 237.291 -4.24431 1.52215 0
M  V30 2608 C 235.953 -4.42585 1.8887 0
M  V30 2609 C 238.305 -4.62459 2.40377 0
M  V30 2610 C 235.633 -4.96039 3.13309 0
M  V30 2611 C 237.985 -5.17294 3.64129 0
M  V30 2612 C 236.649 -5.33661 4.00951 0
M  V30 2613 H 235.919 -0.737419 0.0727571 0
M  V30 2614 H 238.566 -1.70531 0.871281 0
M  V30 2615 H 236.871 -3.87594 -0.572532 0
M  V30 2616 H 238.568 -4.00486 -0.203035 0
M  V30 2617 H 235.158 -4.10661 1.22701 0
M  V30 2618 H 239.342 -4.48105 2.13343 0
M  V30 2619 H 234.598 -5.06896 3.41857 0
M  V30 2620 H 238.772 -5.45704 4.32644 0
M  V30 2621 H 236.399 -5.74845 4.9745 0
M  V30 2622 N 237.974 -0.419461 -1.51915 0
M  V30 2623 C 239.39 -0.0708431 -1.59443 0
M  V30 2624 C 239.59 1.41796 -1.43164 0
M  V30 2625 O 238.646 2.18596 -1.26381 0
M  V30 2626 C 239.959 -0.574991 -2.95151 0
M  V30 2627 C 241.507 -0.533867 -3.08413 0
M  V30 2628 C 241.982 -1.01469 -4.46618 0
M  V30 2629 N 243.473 -0.971939 -4.52888 0
M  V30 2630 C 244.208 -1.31505 -5.58116 0
M  V30 2631 N 243.704 -1.73014 -6.70849 0
M  V30 2632 N 245.497 -1.23436 -5.48379 0
M  V30 2633 H 237.648 -1.38836 -1.60743 0
M  V30 2634 H 239.911 -0.570998 -0.756747 0
M  V30 2635 H 239.617 -1.61597 -3.12377 0
M  V30 2636 H 239.491 0.00979777 -3.77199 0
M  V30 2637 H 241.878 0.498086 -2.90866 0
M  V30 2638 H 241.959 -1.15484 -2.28248 0
M  V30 2639 H 241.603 -2.04502 -4.6491 0
M  V30 2640 H 241.533 -0.370433 -5.25295 0
M  V30 2641 H 244.024 -0.666893 -3.71969 0
M  V30 2642 H 244.337 -1.97479 -7.47143 0
M  V30 2643 H 242.682 -1.76926 -6.72103 0
M  V30 2644 H 245.873 -0.908869 -4.59192 0
M  V30 2645 H 246.046 -1.50506 -6.30279 0
M  V30 2646 N 239.452 1.56882 -0.150215 0
M  V30 2647 C 240.385 2.12712 0.826358 0
M  V30 2648 C 241.363 1.05154 1.24022 0
M  V30 2649 O 242.547 1.33004 1.33575 0
M  V30 2650 C 239.674 2.64945 2.11002 0
M  V30 2651 C 238.72 3.8468 1.84183 0
M  V30 2652 S 239.553 5.25502 1.02995 0
M  V30 2653 C 240.709 5.81125 2.32474 0
M  V30 2654 H 240.942 2.95214 0.351598 0
M  V30 2655 H 238.475 1.54267 0.0641211 0
M  V30 2656 H 240.433 2.95689 2.84742 0
M  V30 2657 H 239.094 1.82568 2.55593 0
M  V30 2658 H 238.287 4.19482 2.79375 0
M  V30 2659 H 237.889 3.54714 1.1855 0
M  V30 2660 H 240.181 5.92753 3.281 0
M  V30 2661 H 241.124 6.78625 2.02171 0
M  V30 2662 H 241.532 5.09392 2.43269 0
M  V30 2663 N 240.93 -0.123565 1.57115 0
M  V30 2664 C 242.176 -0.833386 1.84885 0
M  V30 2665 C 242.509 -1.79742 0.735292 0
M  V30 2666 O 241.784 -1.92764 -0.25925 0
M  V30 2667 C 242.067 -1.5873 3.23228 0
M  V30 2668 C 241.92 -0.643183 4.45178 0
M  V30 2669 C 243.239 -2.54453 3.59085 0
M  V30 2670 H 240.358 -0.301518 0.6725 0
M  V30 2671 H 243 -0.097778 1.89748 0
M  V30 2672 H 241.15 -2.21438 3.19214 0
M  V30 2673 H 242.822 -0.0253015 4.61293 0
M  V30 2674 H 241.065 0.0456139 4.33776 0
M  V30 2675 H 241.736 -1.20724 5.38637 0
M  V30 2676 H 244.212 -2.01853 3.63861 0
M  V30 2677 H 243.088 -3.04238 4.5687 0
M  V30 2678 H 243.349 -3.36906 2.86264 0
M  V30 2679 N 242.408 -1.52605 -0.393616 0
M  V30 2680 C 243.633 -1.71592 -1.16495 0
M  V30 2681 C 244.058 -0.43133 -1.83088 0
M  V30 2682 O 243.416 0.612523 -1.7064 0
M  V30 2683 C 243.464 -2.86318 -2.19213 0
M  V30 2684 O 242.568 -2.52969 -3.257 0
M  V30 2685 H 241.909 -0.570734 -0.33935 0
M  V30 2686 H 244.439 -1.99377 -0.459324 0
M  V30 2687 H 244.449 -3.1168 -2.63286 0
M  V30 2688 H 243.124 -3.79511 -1.7013 0
M  V30 2689 H 241.701 -2.38332 -2.86797 0
M  V30 2690 N 243.887 0.651787 -1.4349 0
M  V30 2691 C 244.797 1.79368 -1.5121 0
M  V30 2692 C 245.813 1.69361 -0.399093 0
M  V30 2693 O 246.989 1.90505 -0.653431 0
M  V30 2694 C 244.054 3.15653 -1.43401 0
M  V30 2695 C 243.115 3.37446 -2.65384 0
M  V30 2696 C 242.348 4.67229 -2.57939 0
M  V30 2697 O 242.571 5.46676 -1.62792 0
M  V30 2698 O 241.505 4.90773 -3.48462 0
M  V30 2699 H 245.331 1.7581 -2.47638 0
M  V30 2700 H 242.916 0.810447 -1.25507 0
M  V30 2701 H 244.798 3.96935 -1.41494 0
M  V30 2702 H 243.473 3.19798 -0.501085 0
M  V30 2703 H 242.38 2.55923 -2.72863 0
M  V30 2704 H 243.713 3.38148 -3.57654 0
M  V30 2705 N 245.365 1.30045 0.890287 0
M  V30 2706 C 246.611 1.19747 1.64415 0
M  V30 2707 C 246.966 -0.246591 1.90813 0
M  V30 2708 O 246.259 -1.174 1.51419 0
M  V30 2709 C 246.453 1.95409 2.99249 0
M  V30 2710 C 246.282 3.47025 2.86013 0
M  V30 2711 C 245.052 4.1638 2.86279 0
M  V30 2712 C 247.25 4.42353 2.62351 0
M  V30 2713 N 245.232 5.54293 2.63879 0
M  V30 2714 C 246.603 5.67792 2.49022 0
M  V30 2715 C 248.658 4.32009 2.47533 0
M  V30 2716 C 247.361 6.8406 2.22383 0
M  V30 2717 C 249.387 5.48038 2.22279 0
M  V30 2718 C 248.749 6.72455 2.09722 0
M  V30 2719 H 244.848 0.493223 0.60684 0
M  V30 2720 H 247.432 1.6399 1.04954 0
M  V30 2721 H 245.603 1.53565 3.56752 0
M  V30 2722 H 247.335 1.77298 3.63796 0
M  V30 2723 H 244.09 3.68164 2.97913 0
M  V30 2724 H 244.514 6.26852 2.55706 0
M  V30 2725 H 249.156 3.36503 2.55979 0
M  V30 2726 H 246.874 7.79612 2.12675 0
M  V30 2727 H 250.46 5.41939 2.11643 0
M  V30 2728 H 249.34 7.60722 1.90453 0
M  V30 2729 N 246.843 -1.10192 1.12674 0
M  V30 2730 C 247.776 -2.15847 0.740625 0
M  V30 2731 C 248.754 -1.60352 -0.269421 0
M  V30 2732 O 249.938 -1.87796 -0.16278 0
M  V30 2733 C 247.065 -3.38562 0.096641 0
M  V30 2734 C 246.111 -4.12758 1.07391 0
M  V30 2735 S 246.944 -4.67997 2.60267 0
M  V30 2736 C 248.1 -5.94021 1.97206 0
M  V30 2737 H 248.333 -2.48266 1.63558 0
M  V30 2738 H 245.866 -1.22019 0.946087 0
M  V30 2739 H 247.824 -4.09621 -0.268535 0
M  V30 2740 H 246.485 -3.04377 -0.775462 0
M  V30 2741 H 245.678 -5.00755 0.570997 0
M  V30 2742 H 245.28 -3.47523 1.38216 0
M  V30 2743 H 247.572 -6.64589 1.31634 0
M  V30 2744 H 248.515 -6.48979 2.83253 0
M  V30 2745 H 248.923 -5.46169 1.42686 0
M  V30 2746 N 248.321 -0.919034 -1.28029 0
M  V30 2747 C 249.567 -0.565221 -1.95389 0
M  V30 2748 C 249.922 0.882325 -1.70976 0
M  V30 2749 O 249.215 1.61988 -1.02325 0
M  V30 2750 C 249.409 -0.816855 -3.4794 0
M  V30 2751 C 249.238 -2.28731 -3.87185 0
M  V30 2752 C 248.008 -2.93841 -4.11079 0
M  V30 2753 C 250.206 -3.26415 -3.97439 0
M  V30 2754 N 248.188 -4.31129 -4.37037 0
M  V30 2755 C 249.559 -4.48884 -4.27672 0
M  V30 2756 C 251.614 -3.21742 -3.79982 0
M  V30 2757 C 250.317 -5.67268 -4.42266 0
M  V30 2758 C 252.343 -4.39431 -3.95796 0
M  V30 2759 C 251.705 -5.60675 -4.26407 0
M  V30 2760 H 247.804 -0.256797 -0.738633 0
M  V30 2761 H 250.388 -1.18386 -1.54573 0
M  V30 2762 H 248.559 -0.227445 -3.87733 0
M  V30 2763 H 250.291 -0.426542 -4.02446 0
M  V30 2764 H 247.046 -2.44547 -4.05578 0
M  V30 2765 H 247.47 -5.02127 -4.5409 0
M  V30 2766 H 252.112 -2.29079 -3.55363 0
M  V30 2767 H 249.83 -6.60406 -4.65714 0
M  V30 2768 H 253.416 -4.37323 -3.83719 0
M  V30 2769 H 252.296 -6.50223 -4.38383 0
M  V30 2770 N 249.799 1.42003 -0.683588 0
M  V30 2771 C 251.21 1.84501 -0.285736 0
M  V30 2772 C 251.561 1.57213 1.17382 0
M  V30 2773 O 250.686 1.03642 1.89966 0
M  V30 2774 C 251.281 3.34912 -0.511821 0
M  V30 2775 C 249.84 3.76025 -0.168005 0
M  V30 2776 C 248.987 2.6551 -0.799983 0
M  V30 2777 H 251.938 1.31724 -0.885119 0
M  V30 2778 H 251.959 3.79784 0.233292 0
M  V30 2779 H 251.471 3.54741 -1.57418 0
M  V30 2780 H 249.572 3.61801 0.890567 0
M  V30 2781 H 249.685 4.75141 -0.614661 0
M  V30 2782 H 248.049 2.53654 -0.230568 0
M  V30 2783 H 248.832 2.8816 -1.86597 0
M  V30 2784 N 251.277 0.427512 1.51691 0
M  V30 2785 C 252.207 -0.3796 2.30394 0
M  V30 2786 C 253.188 -1.02982 1.35384 0
M  V30 2787 O 254.373 -1.03534 1.643 0
M  V30 2788 C 251.503 -1.48649 3.1388 0
M  V30 2789 C 250.457 -0.960294 4.17088 0
M  V30 2790 C 249.783 -2.16219 4.89033 0
M  V30 2791 C 251.083 -0.00153679 5.223 0
M  V30 2792 H 252.777 0.277164 2.98114 0
M  V30 2793 H 250.323 0.134739 1.43368 0
M  V30 2794 H 252.276 -2.05826 3.67714 0
M  V30 2795 H 251 -2.1714 2.43962 0
M  V30 2796 H 249.659 -0.410806 3.64291 0
M  V30 2797 H 249.307 -2.83307 4.15628 0
M  V30 2798 H 249.007 -1.81654 5.58816 0
M  V30 2799 H 250.531 -2.73968 5.45687 0
M  V30 2800 H 251.945 -0.482687 5.71264 0
M  V30 2801 H 250.342 0.256199 5.99553 0
M  V30 2802 H 251.412 0.938174 4.75738 0
M  V30 2803 N 252.755 -1.56801 0.158532 0
M  V30 2804 C 253.985 -2.00568 -0.495583 0
M  V30 2805 C 254.393 -1.03774 -1.58201 0
M  V30 2806 O 253.736 -0.0285797 -1.83678 0
M  V30 2807 C 253.798 -3.40768 -1.14532 0
M  V30 2808 C 253.462 -4.56553 -0.202101 0
M  V30 2809 C 254.459 -5.16714 0.574675 0
M  V30 2810 C 252.144 -5.02197 -0.101648 0
M  V30 2811 C 254.138 -6.20939 1.43924 0
M  V30 2812 C 251.825 -6.06274 0.766508 0
M  V30 2813 C 252.823 -6.65515 1.53555 0
M  V30 2814 O 252.511 -7.67575 2.38922 0
M  V30 2815 H 252.243 -0.662893 -0.13247 0
M  V30 2816 H 254.797 -2.03829 0.253559 0
M  V30 2817 H 253.027 -3.34381 -1.94233 0
M  V30 2818 H 254.716 -3.6857 -1.70033 0
M  V30 2819 H 255.482 -4.82341 0.507167 0
M  V30 2820 H 251.361 -4.55807 -0.689994 0
M  V30 2821 H 254.905 -6.67107 2.03996 0
M  V30 2822 H 250.802 -6.40073 0.835266 0
M  V30 2823 H 251.57 -7.84844 2.32296 0
M  V30 2824 N 254.233 0.115231 -1.57178 0
M  V30 2825 C 255.163 1.1423 -2.03651 0
M  V30 2826 C 256.144 1.42967 -0.921655 0
M  V30 2827 O 257.329 1.53343 -1.19162 0
M  V30 2828 C 254.459 2.4675 -2.44401 0
M  V30 2829 C 253.413 2.32467 -3.59365 0
M  V30 2830 C 252.739 3.69984 -3.86026 0
M  V30 2831 C 254.039 1.78203 -4.90959 0
M  V30 2832 H 255.733 0.755749 -2.89705 0
M  V30 2833 H 253.279 0.362093 -1.39373 0
M  V30 2834 H 255.232 3.18854 -2.75517 0
M  V30 2835 H 253.956 2.87302 -1.55322 0
M  V30 2836 H 252.615 1.62811 -3.28463 0
M  V30 2837 H 252.263 4.08028 -2.94147 0
M  V30 2838 H 251.963 3.61279 -4.63412 0
M  V30 2839 H 253.487 4.43587 -4.19599 0
M  V30 2840 H 254.901 2.40128 -5.20587 0
M  V30 2841 H 253.298 1.8031 -5.72371 0
M  V30 2842 H 254.368 0.739876 -4.79222 0
M  V30 2843 N 255.711 1.52812 0.385517 0
M  V30 2844 C 256.957 1.68275 1.13188 0
M  V30 2845 C 257.29 0.423179 1.89533 0
M  V30 2846 O 256.565 -0.579113 1.85679 0
M  V30 2847 C 256.848 2.92001 2.1073 0
M  V30 2848 C 256.701 4.28067 1.38125 0
M  V30 2849 C 258.02 3.11283 3.11113 0
M  V30 2850 H 255.139 0.612352 0.410115 0
M  V30 2851 H 257.781 1.85415 0.414869 0
M  V30 2852 H 255.931 2.77519 2.71874 0
M  V30 2853 H 257.603 4.54324 0.799187 0
M  V30 2854 H 255.846 4.28388 0.683092 0
M  V30 2855 H 256.517 5.10733 2.09417 0
M  V30 2856 H 258.993 3.2482 2.6006 0
M  V30 2857 H 257.869 3.99325 3.76605 0
M  V30 2858 H 258.13 2.25656 3.80173 0
M  V30 2859 N 257.189 -0.644168 1.43834 0
M  V30 2860 C 258.119 -1.76814 1.52509 0
M  V30 2861 C 259.1 -1.65823 0.379052 0
M  V30 2862 O 260.285 -1.84781 0.597466 0
M  V30 2863 C 257.415 -3.15288 1.4564 0
M  V30 2864 C 256.369 -3.41053 2.58586 0
M  V30 2865 C 255.695 -4.79421 2.36769 0
M  V30 2866 C 256.995 -3.34902 4.00797 0
M  V30 2867 H 258.689 -1.69812 2.46586 0
M  V30 2868 H 256.235 -0.815542 1.1868 0
M  V30 2869 H 258.188 -3.93681 1.50311 0
M  V30 2870 H 256.912 -3.23043 0.480725 0
M  V30 2871 H 255.571 -2.65035 2.53282 0
M  V30 2872 H 255.219 -4.83863 1.37424 0
M  V30 2873 H 254.919 -4.9762 3.12487 0
M  V30 2874 H 256.443 -5.6006 2.43238 0
M  V30 2875 H 257.857 -4.03218 4.07539 0
M  V30 2876 H 256.254 -3.64637 4.76613 0
M  V30 2877 H 257.324 -2.32928 4.25291 0
M  V30 2878 N 258.668 -1.30515 -0.883378 0
M  V30 2879 C 259.598 -1.19607 -2.00541 0
M  V30 2880 C 260.579 -0.086346 -1.69881 0
M  V30 2881 O 261.764 -0.268654 -1.92333 0
M  V30 2882 C 258.894 -0.888758 -3.35736 0
M  V30 2883 C 257.848 -1.95659 -3.8066 0
M  V30 2884 C 257.174 -1.50224 -5.13164 0
M  V30 2885 C 258.474 -3.36788 -3.99213 0
M  V30 2886 H 260.168 -2.13476 -2.09925 0
M  V30 2887 H 257.714 -1.02775 -1.00863 0
M  V30 2888 H 259.667 -0.799094 -4.13754 0
M  V30 2889 H 258.391 0.0856125 -3.26488 0
M  V30 2890 H 257.05 -2.03591 -3.04871 0
M  V30 2891 H 256.698 -0.516092 -5.00345 0
M  V30 2892 H 256.398 -2.2165 -5.44192 0
M  V30 2893 H 257.922 -1.42639 -5.93706 0
M  V30 2894 H 259.336 -3.31605 -4.67665 0
M  V30 2895 H 257.733 -4.06314 -4.41621 0
M  V30 2896 H 258.803 -3.78561 -3.03017 0
M  V30 2897 N 260.146 1.09593 -1.13257 0
M  V30 2898 C 261.393 1.81734 -0.893257 0
M  V30 2899 C 261.721 1.8563 0.580656 0
M  V30 2900 O 260.976 1.31906 1.44566 0
M  V30 2901 C 261.275 3.27802 -1.42411 0
M  V30 2902 C 260.941 3.44041 -2.91456 0
M  V30 2903 C 259.603 3.48181 -3.3215 0
M  V30 2904 C 261.955 3.48719 -3.87356 0
M  V30 2905 C 259.283 3.54575 -4.67433 0
M  V30 2906 C 261.635 3.56648 -5.2248 0
M  V30 2907 C 260.299 3.59055 -5.62704 0
M  V30 2908 H 259.569 0.665011 -0.326866 0
M  V30 2909 H 262.216 1.2912 -1.41422 0
M  V30 2910 H 260.521 3.83042 -0.823795 0
M  V30 2911 H 262.218 3.82149 -1.21503 0
M  V30 2912 H 258.808 3.41502 -2.58987 0
M  V30 2913 H 262.992 3.44763 -3.57004 0
M  V30 2914 H 258.248 3.54725 -4.97976 0
M  V30 2915 H 262.422 3.59212 -5.96607 0
M  V30 2916 H 260.049 3.63763 -6.67518 0
M  V30 2917 N 261.624 0.925811 1.2754 0
M  V30 2918 C 262.587 0.428129 2.25166 0
M  V30 2919 C 263.587 -0.452261 1.54309 0
M  V30 2920 O 264.777 -0.253608 1.72344 0
M  V30 2921 C 261.909 -0.384749 3.38722 0
M  V30 2922 H 263.102 1.29066 2.70706 0
M  V30 2923 H 260.655 0.706323 1.3943 0
M  V30 2924 H 261.39 -1.26618 2.98561 0
M  V30 2925 H 261.175 0.246454 3.91325 0
M  V30 2926 H 262.665 -0.723389 4.11287 0
M  V30 2927 N 263.102 -1.41638 0.69111 0
M  V30 2928 C 264.348 -2.01598 0.220519 0
M  V30 2929 C 264.681 -1.54594 -1.17535 0
M  V30 2930 O 263.956 -0.755177 -1.79241 0
M  V30 2931 C 264.239 -3.59062 0.273243 0
M  V30 2932 C 264.092 -4.16203 1.70573 0
M  V30 2933 C 265.411 -4.38546 -0.369457 0
M  V30 2934 H 262.53 -0.732468 0.0816045 0
M  V30 2935 H 265.172 -1.68445 0.878986 0
M  V30 2936 H 263.322 -3.87435 -0.287411 0
M  V30 2937 H 264.994 -3.98722 2.31989 0
M  V30 2938 H 263.237 -3.71414 2.2413 0
M  V30 2939 H 263.908 -5.25358 1.69419 0
M  V30 2940 H 266.384 -4.1596 0.107977 0
M  V30 2941 H 265.26 -5.48069 -0.302002 0
M  V30 2942 H 265.521 -4.17662 -1.44951 0
M  V30 2943 N 264.58 -0.43555 -1.51462 0
M  V30 2944 C 265.49 0.383001 -2.31453 0
M  V30 2945 C 266.506 1.02931 -1.4029 0
M  V30 2946 O 267.682 1.02507 -1.73362 0
M  V30 2947 C 264.747 1.47043 -3.13973 0
M  V30 2948 C 263.808 0.844433 -4.20913 0
M  V30 2949 C 263.041 1.88004 -4.9949 0
M  V30 2950 O 263.264 3.10199 -4.78678 0
M  V30 2951 O 262.198 1.47157 -5.83634 0
M  V30 2952 H 266.024 -0.269964 -3.02498 0
M  V30 2953 H 263.609 -0.19813 -1.4808 0
M  V30 2954 H 265.491 2.10113 -3.65281 0
M  V30 2955 H 264.166 2.10751 -2.45695 0
M  V30 2956 H 263.073 0.175729 -3.73687 0
M  V30 2957 H 264.406 0.250869 -4.9156 0
M  V30 2958 N 266.058 1.56714 -0.166846 0
M  V30 2959 C 266.988 2.20754 0.760913 0
M  V30 2960 C 267.969 1.16178 1.24244 0
M  V30 2961 O 269.154 1.44592 1.29641 0
M  V30 2962 C 266.284 2.84478 1.99223 0
M  V30 2963 C 265.238 3.95053 1.64672 0
M  V30 2964 C 264.564 4.45805 2.95232 0
M  V30 2965 C 265.864 5.14865 0.878155 0
M  V30 2966 H 267.558 2.98537 0.22713 0
M  V30 2967 H 265.104 1.43596 0.107805 0
M  V30 2968 H 267.057 3.27951 2.64624 0
M  V30 2969 H 265.781 2.04056 2.55007 0
M  V30 2970 H 264.44 3.52228 1.01641 0
M  V30 2971 H 264.088 3.62181 3.49047 0
M  V30 2972 H 263.788 5.204 2.7287 0
M  V30 2973 H 265.312 4.91962 3.6167 0
M  V30 2974 H 266.726 5.55059 1.43466 0
M  V30 2975 H 265.123 5.95348 0.753738 0
M  V30 2976 H 266.193 4.84735 -0.126377 0
M  V30 2977 N 267.536 -0.106894 1.57237 0
M  V30 2978 C 268.486 -1.1366 1.9765 0
M  V30 2979 C 269.47 -1.36416 0.853203 0
M  V30 2980 O 270.662 -1.37305 1.11697 0
M  V30 2981 C 267.791 -2.46 2.39455 0
M  V30 2982 C 266.877 -2.26668 3.58445 0
M  V30 2983 N 267.268 -1.77176 4.73754 0
M  V30 2984 C 265.566 -2.57279 3.64312 0
M  V30 2985 C 266.267 -1.71836 5.5574 0
M  V30 2986 N 265.243 -2.16623 4.98573 0
M  V30 2987 H 269.045 -0.74669 2.84256 0
M  V30 2988 H 266.559 -0.314483 1.59326 0
M  V30 2989 H 268.556 -3.2049 2.6663 0
M  V30 2990 H 267.216 -2.85738 1.54219 0
M  V30 2991 H 268.227 -1.46545 4.96734 0
M  V30 2992 H 264.904 -3.00622 2.89711 0
M  V30 2993 H 266.294 -1.34723 6.58255 0
M  V30 2994 N 269.014 -1.53014 -0.377408 0
M  V30 2995 C 270.262 -1.6829 -1.11906 0
M  V30 2996 C 270.583 -0.431206 -1.90173 0
M  V30 2997 O 269.853 0.554595 -1.87886 0
M  V30 2998 H 268.433 -0.620371 -0.416112 0
M  V30 2999 H 271.095 -1.90167 -0.426893 0
M  V30 3000 H 270.191 -2.53862 -1.8155 0
M  V30 3001 N 270.492 0.636531 -1.44174 0
M  V30 3002 C 271.717 1.42847 -1.50364 0
M  V30 3003 C 272.142 1.87665 -0.127867 0
M  V30 3004 O 271.5 1.58408 0.88185 0
M  V30 3005 C 271.548 2.62854 -2.4686 0
M  V30 3006 O 270.652 3.62501 -1.9664 0
M  V30 3007 H 269.993 0.427642 -0.507955 0
M  V30 3008 H 272.523 0.777422 -1.89255 0
M  V30 3009 H 272.533 3.10465 -2.64718 0
M  V30 3010 H 271.208 2.29578 -3.46795 0
M  V30 3011 H 269.785 3.21735 -1.88523 0
M  V30 3012 N 271.97 1.30982 0.876444 0
M  V30 3013 C 273.216 1.20474 1.63138 0
M  V30 3014 C 273.549 -0.238096 1.92735 0
M  V30 3015 O 272.824 -1.1692 1.55435 0
M  V30 3016 C 273.107 2.04244 2.96574 0
M  V30 3017 C 272.96 3.56793 2.73896 0
M  V30 3018 C 274.279 1.88684 3.97601 0
M  V30 3019 H 271.398 0.439001 0.591985 0
M  V30 3020 H 274.04 1.60704 1.01361 0
M  V30 3021 H 272.19 1.70063 3.493 0
M  V30 3022 H 273.862 4.01077 2.27892 0
M  V30 3023 H 272.105 3.80548 2.08245 0
M  V30 3024 H 272.776 4.10706 3.68815 0
M  V30 3025 H 275.252 2.18584 3.54062 0
M  V30 3026 H 274.128 2.4961 4.88862 0
M  V30 3027 H 274.389 0.848343 4.33884 0
M  V30 3028 N 273.449 -1.08991 1.13837 0
M  V30 3029 C 274.697 -1.80899 0.901098 0
M  V30 3030 C 275.018 -1.86356 -0.574134 0
M  V30 3031 O 274.288 -1.35235 -1.41733 0
M  V30 3032 H 272.868 -0.669966 0.330386 0
M  V30 3033 H 275.53 -1.318 1.43578 0
M  V30 3034 H 274.626 -2.83929 1.29578 0
M  V30 3035 N 274.927 -0.932562 -1.27047 0
M  V30 3036 C 275.857 -0.452902 -2.29066 0
M  V30 3037 C 276.838 0.489338 -1.62909 0
M  V30 3038 O 278.023 0.393046 -1.90181 0
M  V30 3039 C 275.153 0.290698 -3.46081 0
M  V30 3040 C 274.107 -0.564168 -4.24265 0
M  V30 3041 C 273.433 0.308886 -5.33807 0
M  V30 3042 C 274.733 -1.83112 -4.89149 0
M  V30 3043 H 276.427 -1.30552 -2.69437 0
M  V30 3044 H 273.973 -0.629201 -1.29526 0
M  V30 3045 H 275.926 0.637233 -4.16554 0
M  V30 3046 H 274.65 1.17738 -3.0464 0
M  V30 3047 H 273.309 -0.893477 -3.55545 0
M  V30 3048 H 272.957 1.19467 -4.88607 0
M  V30 3049 H 272.657 -0.259633 -5.87026 0
M  V30 3050 H 274.181 0.650884 -6.07121 0
M  V30 3051 H 275.595 -1.55236 -5.51883 0
M  V30 3052 H 273.992 -2.34353 -5.52448 0
M  V30 3053 H 275.062 -2.54772 -4.12576 0
M  V30 3054 N 276.405 1.4127 -0.698611 0
M  V30 3055 C 277.635 2.05205 -0.239644 0
M  V30 3056 C 278.043 1.52684 1.11733 0
M  V30 3057 O 277.386 0.671222 1.70998 0
M  V30 3058 C 277.448 3.59289 -0.123126 0
M  V30 3059 C 277.112 4.34619 -1.41263 0
M  V30 3060 C 278.109 4.63701 -2.35111 0
M  V30 3061 C 275.794 4.73837 -1.66684 0
M  V30 3062 C 277.788 5.30966 -3.52639 0
M  V30 3063 C 275.475 5.40837 -2.84498 0
M  V30 3064 C 276.473 5.69329 -3.77298 0
M  V30 3065 O 276.161 6.34949 -4.93047 0
M  V30 3066 H 275.893 0.66723 -0.108537 0
M  V30 3067 H 278.447 1.81974 -0.952602 0
M  V30 3068 H 276.677 3.81272 0.645628 0
M  V30 3069 H 278.366 4.04797 0.299056 0
M  V30 3070 H 279.132 4.33882 -2.16729 0
M  V30 3071 H 275.011 4.51039 -0.953135 0
M  V30 3072 H 278.555 5.53121 -4.25091 0
M  V30 3073 H 274.452 5.70075 -3.02795 0
M  V30 3074 H 275.22 6.53445 -4.92902 0
M  V30 3075 N 277.883 0.443576 1.51229 0
M  V30 3076 C 279.299 0.0962001 1.5931 0
M  V30 3077 C 279.499 -1.39501 1.45402 0
M  V30 3078 O 278.555 -2.16557 1.29843 0
M  V30 3079 C 279.868 0.621875 2.94199 0
M  V30 3080 C 281.416 0.582865 3.07525 0
M  V30 3081 C 281.891 1.08562 4.44948 0
M  V30 3082 N 283.382 1.04387 4.51284 0
M  V30 3083 C 284.117 1.40368 5.55954 0
M  V30 3084 N 283.613 1.83664 6.68011 0
M  V30 3085 N 285.406 1.32145 5.46346 0
M  V30 3086 H 277.557 1.41376 1.58514 0
M  V30 3087 H 279.82 0.582965 0.747567 0
M  V30 3088 H 279.526 1.66546 3.09767 0
M  V30 3089 H 279.4 0.0502125 3.77167 0
M  V30 3090 H 281.787 -0.451749 2.91622 0
M  V30 3091 H 281.868 1.191 2.26382 0
M  V30 3092 H 281.512 2.11873 4.61598 0
M  V30 3093 H 281.442 0.453956 5.2464 0
M  V30 3094 H 283.933 0.725986 3.70861 0
M  V30 3095 H 284.246 2.0934 7.43906 0
M  V30 3096 H 282.591 1.87596 6.69203 0
M  V30 3097 H 285.782 0.981808 4.57688 0
M  V30 3098 H 285.955 1.60514 6.27805 0
M  V30 3099 N 279.361 -1.56624 0.175154 0
M  V30 3100 C 280.291 -2.21155 -0.749195 0
M  V30 3101 C 281.272 -1.16836 -1.23626 0
M  V30 3102 O 282.457 -1.45277 -1.28873 0
M  V30 3103 C 279.587 -2.8553 -1.97711 0
M  V30 3104 C 278.541 -3.95921 -1.62575 0
M  V30 3105 C 277.867 -4.47365 -2.92864 0
M  V30 3106 C 279.167 -5.15323 -0.850838 0
M  V30 3107 H 280.861 -2.98653 -0.211295 0
M  V30 3108 H 278.407 -1.43651 -0.100188 0
M  V30 3109 H 280.36 -3.2935 -2.62881 0
M  V30 3110 H 279.084 -2.05406 -2.53921 0
M  V30 3111 H 277.743 -3.52762 -0.997719 0
M  V30 3112 H 277.391 -3.64027 -3.47122 0
M  V30 3113 H 277.091 -5.21839 -2.70106 0
M  V30 3114 H 278.615 -4.93873 -3.59056 0
M  V30 3115 H 280.029 -5.55812 -1.40521 0
M  V30 3116 H 278.426 -5.95739 -0.722154 0
M  V30 3117 H 279.496 -4.84661 0.152082 0
M  V30 3118 N 280.839 0.0985539 -1.57292 0
M  V30 3119 C 281.802 1.10402 -2.00858 0
M  V30 3120 C 282.802 1.33146 -0.901593 0
M  V30 3121 O 283.992 1.29318 -1.16716 0
M  V30 3122 C 281.124 2.45394 -2.36632 0
M  V30 3123 H 282.317 0.729099 -2.90902 0
M  V30 3124 H 279.87 0.343495 -1.52479 0
M  V30 3125 H 280.605 2.87769 -1.49531 0
M  V30 3126 H 280.39 2.30235 -3.17387 0
M  V30 3127 H 281.88 3.17718 -2.71007 0
M  V30 3128 N 282.317 1.53212 0.369288 0
M  V30 3129 C 283.563 1.69466 1.11397 0
M  V30 3130 C 283.896 0.443257 1.89074 0
M  V30 3131 O 283.171 -0.559386 1.86282 0
M  V30 3132 C 283.454 2.9422 2.07621 0
M  V30 3133 C 283.307 4.29508 1.33577 0
M  V30 3134 C 284.626 3.14565 3.07794 0
M  V30 3135 H 281.745 0.616667 0.403597 0
M  V30 3136 H 284.387 1.85845 0.395179 0
M  V30 3137 H 282.537 2.80387 2.68916 0
M  V30 3138 H 284.209 4.55147 0.750955 0
M  V30 3139 H 282.452 4.29088 0.637618 0
M  V30 3140 H 283.123 5.12926 2.03989 0
M  V30 3141 H 285.599 3.2756 2.56601 0
M  V30 3142 H 284.475 4.03297 3.72348 0
M  V30 3143 H 284.736 2.29675 3.77759 0
M  V30 3144 N 283.795 -0.628877 1.44509 0
M  V30 3145 C 284.742 -1.74074 1.51549 0
M  V30 3146 C 285.712 -1.62084 0.363021 0
M  V30 3147 O 286.897 -1.81975 0.573567 0
M  V30 3148 C 284.037 -3.12328 1.46784 0
M  V30 3149 C 283.15 -3.35277 2.72422 0
M  V30 3150 C 282.285 -4.63515 2.59475 0
M  V30 3151 C 281.324 -4.7965 3.80266 0
M  V30 3152 N 280.461 -5.99168 3.65981 0
M  V30 3153 H 285.301 -1.67392 2.46544 0
M  V30 3154 H 282.838 -0.816527 1.22357 0
M  V30 3155 H 284.796 -3.92286 1.42012 0
M  V30 3156 H 283.426 -3.18018 0.553544 0
M  V30 3157 H 282.478 -2.49242 2.87372 0
M  V30 3158 H 283.79 -3.43078 3.62076 0
M  V30 3159 H 282.944 -5.51638 2.52548 0
M  V30 3160 H 281.683 -4.58076 1.67384 0
M  V30 3161 H 280.688 -3.89957 3.87574 0
M  V30 3162 H 281.913 -4.86902 4.73395 0
M  V30 3163 H 279.859 -5.94814 2.76644 0
M  V30 3164 H 279.776 -6.08035 4.49254 0
M  V30 3165 H 281.044 -6.89846 3.6295 0
M  V30 3166 N 285.273 -1.31445 -0.869486 0
M  V30 3167 C 286.519 -1.22347 -1.62489 0
M  V30 3168 C 286.874 0.216204 -1.91181 0
M  V30 3169 O 286.167 1.14977 -1.53268 0
M  V30 3170 C 286.361 -2.00145 -2.96102 0
M  V30 3171 C 286.19 -3.51531 -2.80456 0
M  V30 3172 C 284.96 -4.20882 -2.79618 0
M  V30 3173 C 287.158 -4.46471 -2.5528 0
M  V30 3174 N 285.14 -5.58421 -2.55027 0
M  V30 3175 C 286.511 -5.71682 -2.39957 0
M  V30 3176 C 288.566 -4.35892 -2.40629 0
M  V30 3177 C 287.269 -6.87511 -2.11472 0
M  V30 3178 C 289.295 -5.51505 -2.13532 0
M  V30 3179 C 288.657 -6.75707 -1.98998 0
M  V30 3180 H 284.756 -0.502815 -0.598917 0
M  V30 3181 H 287.34 -1.65639 -1.02332 0
M  V30 3182 H 285.511 -1.59221 -3.54264 0
M  V30 3183 H 287.243 -1.83063 -3.60929 0
M  V30 3184 H 283.998 -3.72857 -2.92018 0
M  V30 3185 H 284.422 -6.30841 -2.45701 0
M  V30 3186 H 289.064 -3.40533 -2.50593 0
M  V30 3187 H 286.782 -7.82897 -2.00245 0
M  V30 3188 H 290.368 -5.45238 -2.02995 0
M  V30 3189 H 289.248 -7.63655 -1.78326 0
M  V30 3190 N 286.751 1.08385 -1.14413 0
M  V30 3191 C 287.999 1.80419 -0.910679 0
M  V30 3192 C 288.32 1.86658 0.564243 0
M  V30 3193 O 287.59 1.35985 1.41014 0
M  V30 3194 H 286.17 0.668204 -0.333934 0
M  V30 3195 H 288.832 1.31037 -1.44275 0
M  V30 3196 H 287.928 2.83238 -1.31082 0
M  V30 3197 N 288.23 0.939286 1.26551 0
M  V30 3198 C 289.476 0.596234 1.94465 0
M  V30 3199 C 289.831 -0.855013 1.72358 0
M  V30 3200 O 289.124 -1.6034 1.04889 0
M  V30 3201 C 289.318 0.872106 3.46596 0
M  V30 3202 C 289.147 2.34862 3.83497 0
M  V30 3203 C 287.917 3.00344 4.06352 0
M  V30 3204 C 290.115 3.32697 3.92195 0
M  V30 3205 N 288.097 4.38027 4.30123 0
M  V30 3206 C 289.468 4.55631 4.20476 0
M  V30 3207 C 291.523 3.27747 3.74815 0
M  V30 3208 C 290.226 5.74233 4.33185 0
M  V30 3209 C 292.252 4.45672 3.88755 0
M  V30 3210 C 291.614 5.67388 4.17433 0
M  V30 3211 H 287.713 0.268515 0.734455 0
M  V30 3212 H 290.297 1.2083 1.5267 0
M  V30 3213 H 288.468 0.289102 3.87323 0
M  V30 3214 H 290.2 0.490513 4.01716 0
M  V30 3215 H 286.955 2.50969 4.01636 0
M  V30 3216 H 287.379 5.09288 4.46044 0
M  V30 3217 H 292.021 2.34703 3.51673 0
M  V30 3218 H 289.739 6.67731 4.55149 0
M  V30 3219 H 293.325 4.43372 3.76713 0
M  V30 3220 H 292.205 6.57115 4.27983 0
M  V30 3221 N 289.708 -1.40897 0.706093 0
M  V30 3222 C 290.955 -2.01054 0.241531 0
M  V30 3223 C 291.283 -1.55956 -1.16223 0
M  V30 3224 O 290.538 -0.766336 -1.80072 0
M  V30 3225 C 290.837 -3.5646 0.259099 0
M  V30 3226 C 290.503 -4.21106 1.61184 0
M  V30 3227 C 289.165 -4.38479 1.98216 0
M  V30 3228 C 291.517 -4.57256 2.50132 0
M  V30 3229 C 288.845 -4.89282 3.2376 0
M  V30 3230 C 291.197 -5.09454 3.7502 0
M  V30 3231 C 289.861 -5.25037 4.12181 0
M  V30 3232 H 289.131 -0.73571 0.0883825 0
M  V30 3233 H 291.778 -1.68645 0.907257 0
M  V30 3234 H 290.083 -3.88721 -0.490189 0
M  V30 3235 H 291.78 -4.00826 -0.11804 0
M  V30 3236 H 288.37 -4.07966 1.31384 0
M  V30 3237 H 292.554 -4.43479 2.228 0
M  V30 3238 H 287.81 -4.99531 3.52532 0
M  V30 3239 H 291.984 -5.36404 4.44121 0
M  V30 3240 H 289.611 -5.64164 5.09532 0
M  V30 3241 N 291.186 -0.45159 -1.50991 0
M  V30 3242 C 292.463 0.170707 -1.94854 0
M  V30 3243 C 292.843 1.58788 -1.39103 0
M  V30 3244 O 292.191 2.20913 -0.583921 0
M  V30 3245 C 292.401 0.133929 -3.48743 0
M  V30 3246 C 293.749 0.33248 -4.23296 0
M  V30 3247 O 294.773 0.211403 -3.55572 0
M  V30 3248 O 293.632 0.57486 -5.43468 0
M  V30 3249 H 290.726 0.122264 -0.817912 0
M  V30 3250 H 293.272 -0.510594 -1.61836 0
M  V30 3251 H 292.044 -0.856283 -3.81816 0
M  V30 3252 H 291.667 0.857529 -3.88242 0
M  V30 3253 N 292.664 1.56529 -0.183458 0
M  V30 3254 C 293.912 1.96855 0.457452 0
M  V30 3255 C 294.233 1.07104 1.62953 0
M  V30 3256 O 293.503 0.139887 1.954 0
M  V30 3257 H 292.083 0.72693 0.171992 0
M  V30 3258 H 294.745 1.93056 -0.267476 0
M  V30 3259 H 293.841 3.01423 0.809368 0
M  V30 3260 N 294.142 -0.090211 1.57342 0
M  V30 3261 C 295.052 -1.12735 2.05738 0
M  V30 3262 C 296.068 -1.43557 0.983231 0
M  V30 3263 O 297.244 -1.54101 1.29672 0
M  V30 3264 C 294.309 -2.42659 2.47624 0
M  V30 3265 C 293.37 -2.18975 3.69254 0
M  V30 3266 C 292.603 -3.42704 4.09133 0
M  V30 3267 O 292.826 -4.51127 3.49057 0
M  V30 3268 O 291.76 -3.32003 5.02053 0
M  V30 3269 H 295.586 -0.746279 2.94388 0
M  V30 3270 H 293.171 -0.303064 1.46294 0
M  V30 3271 H 295.053 -3.19155 2.7517 0
M  V30 3272 H 293.728 -2.80182 1.62109 0
M  V30 3273 H 292.635 -1.40244 3.46818 0
M  V30 3274 H 293.968 -1.86342 4.55563 0
M  V30 3275 N 295.62 -1.53406 -0.361157 0
M  V30 3276 C 296.848 -1.73717 -1.12383 0
M  V30 3277 C 297.263 -0.468161 -1.82904 0
M  V30 3278 O 296.62 0.559198 -1.73722 0
M  V30 3279 C 296.671 -2.90558 -2.15078 0
M  V30 3280 O 296.392 -4.12549 -1.47428 0
M  V30 3281 C 297.893 -3.22777 -3.03858 0
M  V30 3282 H 295.113 -0.580896 -0.335858 0
M  V30 3283 H 297.657 -2.00167 -0.418728 0
M  V30 3284 H 295.812 -2.66489 -2.8118 0
M  V30 3285 H 296.226 -4.78009 -2.15887 0
M  V30 3286 H 297.7 -4.07927 -3.71887 0
M  V30 3287 H 298.177 -2.38329 -3.68912 0
M  V30 3288 H 298.783 -3.48787 -2.43367 0
M  V30 3289 N 297.098 0.621204 -1.44841 0
M  V30 3290 C 298.509 1.20298 -1.42777 0
M  V30 3291 C 298.86 1.95639 -0.148259 0
M  V30 3292 O 297.985 2.02955 0.750892 0
M  V30 3293 C 298.58 2.1882 -2.58657 0
M  V30 3294 C 297.139 2.72403 -2.59756 0
M  V30 3295 C 296.286 1.4757 -2.34773 0
M  V30 3296 H 299.237 0.411297 -1.53278 0
M  V30 3297 H 299.258 3.01607 -2.31977 0
M  V30 3298 H 298.77 1.63957 -3.51766 0
M  V30 3299 H 296.871 3.31242 -1.70615 0
M  V30 3300 H 296.984 3.17765 -3.58556 0
M  V30 3301 H 295.348 1.76051 -1.8406 0
M  V30 3302 H 296.131 0.945954 -3.3001 0
M  V30 3303 N 298.576 1.31904 0.862503 0
M  V30 3304 C 299.853 1.12644 1.59908 0
M  V30 3305 C 300.233 -0.316104 2.0872 0
M  V30 3306 O 299.581 -1.31145 1.87118 0
M  V30 3307 C 299.791 2.1472 2.7513 0
M  V30 3308 C 301.139 2.47637 3.44907 0
M  V30 3309 O 302.163 2.13205 2.85346 0
M  V30 3310 O 301.022 3.06632 4.52371 0
M  V30 3311 H 298.116 0.43416 0.703871 0
M  V30 3312 H 300.662 1.43408 0.907314 0
M  V30 3313 H 299.434 3.1172 2.3653 0
M  V30 3314 H 299.057 1.84905 3.51989 0
M  V30 3315 N 300.054 -1.07777 1.14986 0
M  V30 3316 C 301.001 -2.14867 0.842672 0
M  V30 3317 C 301.971 -1.6486 -0.202552 0
M  V30 3318 O 303.156 -1.90668 -0.0710568 0
M  V30 3319 C 300.296 -3.43486 0.333363 0
M  V30 3320 C 299.409 -4.07306 1.43965 0
M  V30 3321 C 298.544 -5.23744 0.886914 0
M  V30 3322 C 297.583 -5.79517 1.97043 0
M  V30 3323 N 296.72 -6.87291 1.4344 0
M  V30 3324 H 301.56 -2.40485 1.75986 0
M  V30 3325 H 299.097 -1.1801 0.878179 0
M  V30 3326 H 301.055 -4.17195 0.0198163 0
M  V30 3327 H 299.685 -3.18133 -0.546916 0
M  V30 3328 H 298.737 -3.31293 1.86946 0
M  V30 3329 H 300.049 -4.44771 2.25788 0
M  V30 3330 H 299.203 -6.04419 0.525651 0
M  V30 3331 H 297.942 -4.87685 0.0377957 0
M  V30 3332 H 296.947 -4.97491 2.34057 0
M  V30 3333 H 298.172 -6.17632 2.82325 0
M  V30 3334 H 296.118 -6.5318 0.607567 0
M  V30 3335 H 296.035 -7.23617 2.18895 0
M  V30 3336 H 297.303 -7.71682 1.10124 0
M  V30 3337 N 301.532 -0.945985 -1.26051 0
M  V30 3338 C 302.76 -0.613025 -1.9761 0
M  V30 3339 C 303.175 0.813035 -1.70397 0
M  V30 3340 O 302.532 1.54274 -0.974979 0
M  V30 3341 C 302.583 -0.85159 -3.51326 0
M  V30 3342 O 302.304 -2.22157 -3.77595 0
M  V30 3343 C 303.805 -0.529831 -4.40122 0
M  V30 3344 H 301.025 -0.230593 -0.630133 0
M  V30 3345 H 303.569 -1.268 -1.60443 0
M  V30 3346 H 301.724 -0.243151 -3.86636 0
M  V30 3347 H 302.138 -2.2852 -4.721 0
M  V30 3348 H 303.612 -0.747348 -5.46917 0
M  V30 3349 H 304.089 0.535341 -4.35925 0
M  V30 3350 H 304.695 -1.11721 -4.10364 0
M  V30 3351 N 303.011 1.40521 -0.713556 0
M  V30 3352 C 304.427 1.54839 -0.386907 0
M  V30 3353 C 304.627 1.68532 1.1045 0
M  V30 3354 O 303.683 1.67377 1.89053 0
M  V30 3355 C 304.996 2.77792 -1.15118 0
M  V30 3356 C 306.544 2.91607 -1.13729 0
M  V30 3357 C 307.019 4.1747 -1.88368 0
M  V30 3358 N 308.51 4.24466 -1.85427 0
M  V30 3359 C 309.245 5.20755 -2.40004 0
M  V30 3360 N 308.741 6.22965 -3.03129 0
M  V30 3361 N 310.534 5.1282 -2.30158 0
M  V30 3362 H 302.685 1.29879 -1.68063 0
M  V30 3363 H 304.948 0.627896 -0.710247 0
M  V30 3364 H 304.654 2.73944 -2.20561 0
M  V30 3365 H 304.528 3.6984 -0.741477 0
M  V30 3366 H 306.915 2.94959 -0.0910608 0
M  V30 3367 H 306.996 2.00682 -1.5862 0
M  V30 3368 H 306.64 4.1488 -2.9298 0
M  V30 3369 H 306.57 5.074 -1.40898 0
M  V30 3370 H 309.061 3.51241 -1.3942 0
M  V30 3371 H 309.374 6.92859 -3.42295 0
M  V30 3372 H 307.719 6.23415 -3.07212 0
M  V30 3373 H 310.91 4.31899 -1.80501 0
M  V30 3374 H 311.083 5.87689 -2.72993 0
M  V30 3375 N 304.489 0.459591 1.5075 0
M  V30 3376 C 305.452 -0.329093 2.26825 0
M  V30 3377 C 306.452 -0.930481 1.31144 0
M  V30 3378 O 307.642 -0.801453 1.54669 0
M  V30 3379 C 304.774 -1.46768 3.07688 0
M  V30 3380 H 305.967 0.337924 2.9799 0
M  V30 3381 H 303.52 0.213336 1.54837 0
M  V30 3382 H 304.255 -2.17009 2.40993 0
M  V30 3383 H 304.04 -1.04238 3.77991 0
M  V30 3384 H 305.53 -2.02433 3.65254 0
M  V30 3385 N 305.967 -1.56429 0.191757 0
M  V30 3386 C 306.915 -2.20273 -0.747174 0
M  V30 3387 C 307.909 -1.17288 -1.22229 0
M  V30 3388 O 309.115 -1.35441 -1.18557 0
M  V30 3389 H 305.49 -0.705885 -0.259289 0
M  V30 3390 H 307.461 -2.97826 -0.184963 0
M  V30 3391 C 306.21 -2.87356 -1.95759 0
M  V30 3392 H 305.533 -3.66341 -1.60106 0
M  V30 3393 H 306.973 -3.3547 -2.59299 0
M  V30 3394 C 305.432 -1.88213 -2.79423 0
M  V30 3395 O 305.962 -1.38033 -3.7724 0
M  V30 3396 N 304.168 -1.56516 -2.44849 0
M  V30 3397 H 303.715 -1.97516 -1.65364 0
M  V30 3398 H 303.673 -0.904369 -3.01112 0
M  V30 3399 N 307.445 0.0818655 -1.57387 0
M  V30 3400 C 308.375 1.09885 -2.06028 0
M  V30 3401 C 309.356 1.4098 -0.951774 0
M  V30 3402 O 310.541 1.50781 -1.22387 0
M  V30 3403 C 307.671 2.4151 -2.4958 0
M  V30 3404 C 306.625 2.24792 -3.64215 0
M  V30 3405 C 305.951 3.61712 -3.93787 0
M  V30 3406 C 307.251 1.67749 -4.94629 0
M  V30 3407 H 308.945 0.694128 -2.91243 0
M  V30 3408 H 306.491 0.332448 -1.4011 0
M  V30 3409 H 308.444 3.12939 -2.82219 0
M  V30 3410 H 307.168 2.83943 -1.61381 0
M  V30 3411 H 305.827 1.55807 -3.31843 0
M  V30 3412 H 305.475 4.01697 -3.02735 0
M  V30 3413 H 305.175 3.51368 -4.70971 0
M  V30 3414 H 306.699 4.34587 -4.28913 0
M  V30 3415 H 308.113 2.29032 -5.25564 0
M  V30 3416 H 306.51 1.68128 -5.76067 0
M  V30 3417 H 307.58 0.638059 -4.80684 0
M  V30 3418 N 308.923 1.53595 0.353017 0
M  V30 3419 C 309.87 1.80919 1.43308 0
M  V30 3420 C 310.84 0.654288 1.5267 0
M  V30 3421 O 312.025 0.897759 1.6836 0
M  V30 3422 C 309.165 2.01605 2.80089 0
M  V30 3423 C 308.278 3.29321 2.79593 0
M  V30 3424 C 307.413 3.40125 4.0803 0
M  V30 3425 C 306.452 4.61826 4.01725 0
M  V30 3426 N 305.589 4.69716 5.21834 0
M  V30 3427 H 310.429 2.73074 1.19308 0
M  V30 3428 H 307.966 1.35263 0.578131 0
M  V30 3429 H 309.924 2.11586 3.59565 0
M  V30 3430 H 308.554 1.12772 3.0246 0
M  V30 3431 H 307.606 3.28229 1.92276 0
M  V30 3432 H 308.918 4.18884 2.70809 0
M  V30 3433 H 308.072 3.49488 4.95927 0
M  V30 3434 H 306.811 2.48601 4.19582 0
M  V30 3435 H 305.816 4.52552 3.12213 0
M  V30 3436 H 307.041 5.54705 3.91764 0
M  V30 3437 H 304.987 3.81097 5.33948 0
M  V30 3438 H 304.904 5.53202 5.1527 0
M  V30 3439 H 306.172 4.83376 6.11529 0
M  V30 3440 N 310.401 -0.613514 1.45168 0
M  V30 3441 C 311.348 -1.72456 1.53387 0
M  V30 3442 C 312.318 -1.6169 0.380191 0
M  V30 3443 O 313.503 -1.81356 0.592836 0
M  V30 3444 C 310.643 -3.10753 1.50088 0
M  V30 3445 C 309.756 -3.32368 2.75963 0
M  V30 3446 C 308.891 -4.60737 2.64376 0
M  V30 3447 C 307.93 -4.7559 3.85332 0
M  V30 3448 N 307.067 -5.95253 3.72315 0
M  V30 3449 H 311.907 -1.64768 2.48305 0
M  V30 3450 H 309.444 -0.803503 1.23216 0
M  V30 3451 H 311.402 -3.90758 1.46164 0
M  V30 3452 H 310.032 -3.17413 0.587243 0
M  V30 3453 H 309.084 -2.4618 2.89999 0
M  V30 3454 H 310.396 -3.39218 3.65695 0
M  V30 3455 H 309.55 -5.48928 2.58385 0
M  V30 3456 H 308.289 -4.56275 1.72233 0
M  V30 3457 H 307.294 -3.85824 3.91688 0
M  V30 3458 H 308.519 -4.81854 4.78533 0
M  V30 3459 H 306.465 -5.91847 2.82937 0
M  V30 3460 H 306.382 -6.03236 4.55677 0
M  V30 3461 H 307.65 -6.85958 3.70246 0
M  V30 3462 N 311.879 -1.3236 -0.855495 0
M  V30 3463 C 312.809 -1.23833 -1.97958 0
M  V30 3464 C 313.79 -0.122361 -1.69659 0
M  V30 3465 O 314.975 -0.30939 -1.9172 0
M  V30 3466 C 312.105 -0.959772 -3.33775 0
M  V30 3467 C 311.059 -2.03689 -3.76424 0
M  V30 3468 C 310.385 -1.61075 -5.09862 0
M  V30 3469 C 311.685 -3.4518 -3.9198 0
M  V30 3470 H 313.379 -2.1788 -2.0535 0
M  V30 3471 H 310.925 -1.04891 -0.986605 0
M  V30 3472 H 312.878 -0.886678 -4.11966 0
M  V30 3473 H 311.602 0.0163404 -3.26596 0
M  V30 3474 H 310.261 -2.10012 -3.00484 0
M  V30 3475 H 309.909 -0.622107 -4.99138 0
M  V30 3476 H 309.609 -2.33143 -5.39368 0
M  V30 3477 H 311.133 -1.55201 -5.90546 0
M  V30 3478 H 312.547 -3.4145 -4.60526 0
M  V30 3479 H 310.944 -4.1559 -4.32903 0
M  V30 3480 H 312.014 -3.84903 -2.94919 0
M  V30 3481 N 313.357 1.07166 -1.15556 0
M  V30 3482 C 314.304 2.14417 -0.854055 0
M  V30 3483 C 315.274 1.64965 0.193806 0
M  V30 3484 O 316.459 1.90703 0.0609443 0
M  V30 3485 C 313.599 3.43304 -0.351574 0
M  V30 3486 C 312.712 4.06537 -1.46123 0
M  V30 3487 C 311.847 5.23266 -0.914677 0
M  V30 3488 C 310.886 5.78464 -2.00114 0
M  V30 3489 N 310.023 6.86521 -1.47083 0
M  V30 3490 H 314.863 2.39548 -1.77259 0
M  V30 3491 H 312.4 1.17543 -0.884425 0
M  V30 3492 H 314.358 4.17179 -0.0419409 0
M  V30 3493 H 312.988 3.18419 0.530037 0
M  V30 3494 H 312.04 3.30297 -1.88701 0
M  V30 3495 H 313.352 4.43567 -2.28144 0
M  V30 3496 H 312.506 6.04131 -0.557698 0
M  V30 3497 H 311.245 4.87658 -0.0636583 0
M  V30 3498 H 310.25 4.96243 -2.36692 0
M  V30 3499 H 311.475 6.16126 -2.85597 0
M  V30 3500 H 309.421 6.52849 -0.642198 0
M  V30 3501 H 309.338 7.22446 -2.22729 0
M  V30 3502 H 310.606 7.71087 -1.14215 0
M  V30 3503 N 314.835 0.952656 1.25548 0
M  V30 3504 C 316.063 0.623496 1.97282 0
M  V30 3505 C 316.478 -0.803987 1.70826 0
M  V30 3506 O 315.835 -1.53755 0.983147 0
M  V30 3507 C 315.886 0.870209 3.5087 0
M  V30 3508 O 315.607 2.24156 3.76412 0
M  V30 3509 C 317.108 0.553164 4.39835 0
M  V30 3510 H 314.328 0.233931 0.628902 0
M  V30 3511 H 316.872 1.27649 1.59768 0
M  V30 3512 H 315.027 0.263652 3.86502 0
M  V30 3513 H 315.441 2.31021 4.70882 0
M  V30 3514 H 316.915 0.776342 5.46513 0
M  V30 3515 H 317.392 -0.512215 4.36203 0
M  V30 3516 H 317.998 1.13896 4.09766 0
M  V30 3517 N 316.313 -1.40141 0.720998 0
M  V30 3518 C 317.243 -2.33339 0.0867621 0
M  V30 3519 C 318.224 -1.53178 -0.739622 0
M  V30 3520 O 319.409 -1.81625 -0.687449 0
M  V30 3521 C 316.539 -3.37194 -0.831728 0
M  V30 3522 C 315.493 -4.27857 -0.110558 0
M  V30 3523 C 314.819 -5.22294 -1.14513 0
M  V30 3524 C 316.119 -5.11872 1.0385 0
M  V30 3525 H 317.813 -2.86626 0.865219 0
M  V30 3526 H 315.359 -1.37814 0.417516 0
M  V30 3527 H 317.312 -4.01335 -1.28485 0
M  V30 3528 H 316.036 -2.82314 -1.64214 0
M  V30 3529 H 314.695 -3.65176 0.322797 0
M  V30 3530 H 314.343 -4.63717 -1.94874 0
M  V30 3531 H 314.043 -5.83797 -0.667446 0
M  V30 3532 H 315.567 -5.89312 -1.59824 0
M  V30 3533 H 316.981 -5.69436 0.664482 0
M  V30 3534 H 315.378 -5.82445 1.4449 0
M  V30 3535 H 316.448 -4.4753 1.86668 0
M  V30 3536 N 317.792 -0.46758 -1.50504 0
M  V30 3537 C 318.725 0.374324 -2.25109 0
M  V30 3538 C 319.703 0.99921 -1.28275 0
M  V30 3539 O 320.887 1.03583 -1.57489 0
M  V30 3540 C 318.014 1.52419 -3.02467 0
M  V30 3541 C 317.06 1.01702 -4.14197 0
M  V30 3542 S 317.893 -0.0654477 -5.3546 0
M  V30 3543 C 319.049 1.08837 -6.16365 0
M  V30 3544 H 319.282 -0.258983 -2.9617 0
M  V30 3545 H 316.815 -0.252421 -1.52323 0
M  V30 3546 H 318.773 2.18322 -3.47628 0
M  V30 3547 H 317.434 2.129 -2.30938 0
M  V30 3548 H 316.627 1.87776 -4.67714 0
M  V30 3549 H 316.229 0.435757 -3.71453 0
M  V30 3550 H 318.521 2.00071 -6.47285 0
M  V30 3551 H 319.464 0.592538 -7.05616 0
M  V30 3552 H 319.872 1.34061 -5.4835 0
M  V30 3553 N 319.27 1.56325 -0.20005 0
M  V30 3554 C 320.495 2.02548 0.44597 0
M  V30 3555 C 320.92 1.07922 1.5406 0
M  V30 3556 O 320.278 0.0635775 1.81188 0
M  V30 3557 C 320.326 3.47175 0.974761 0
M  V30 3558 O 319.43 3.55671 2.08739 0
M  V30 3559 H 318.771 0.655862 0.103638 0
M  V30 3560 H 321.301 2.02201 -0.312381 0
M  V30 3561 H 321.311 3.87067 1.2901 0
M  V30 3562 H 319.986 4.15538 0.17347 0
M  V30 3563 H 318.563 3.27657 1.78032 0
M  V30 3564 N 320.748 -0.0735177 1.57428 0
M  V30 3565 C 321.711 -1.07192 2.02589 0
M  V30 3566 C 322.711 -1.31695 0.922661 0
M  V30 3567 O 323.901 -1.27445 1.18758 0
M  V30 3568 C 321.033 -2.41599 2.40506 0
M  V30 3569 H 322.226 -0.682727 2.92025 0
M  V30 3570 H 319.779 -0.319193 1.53006 0
M  V30 3571 H 320.514 -2.85354 1.5409 0
M  V30 3572 H 320.299 -2.25156 3.21009 0
M  V30 3573 H 321.789 -3.13367 2.76027 0
M  V30 3574 N 322.226 -1.5378 -0.344866 0
M  V30 3575 C 323.473 -1.70963 -1.08526 0
M  V30 3576 C 323.801 -0.472126 -1.88683 0
M  V30 3577 O 323.056 0.546116 -1.87926 0
M  V30 3578 C 323.355 -2.92407 -2.05506 0
M  V30 3579 C 323.021 -4.28066 -1.41671 0
M  V30 3580 C 321.683 -4.64951 -1.2399 0
M  V30 3581 C 324.035 -5.12344 -0.956726 0
M  V30 3582 C 321.363 -5.83733 -0.589277 0
M  V30 3583 C 323.715 -6.3179 -0.320015 0
M  V30 3584 C 322.379 -6.67372 -0.130881 0
M  V30 3585 H 321.649 -0.625598 -0.397124 0
M  V30 3586 H 324.296 -1.87995 -0.36469 0
M  V30 3587 H 322.601 -2.69973 -2.8394 0
M  V30 3588 H 324.298 -3.02895 -2.62784 0
M  V30 3589 H 320.888 -3.99034 -1.56429 0
M  V30 3590 H 325.072 -4.8438 -1.08118 0
M  V30 3591 H 320.328 -6.09877 -0.431344 0
M  V30 3592 H 324.502 -6.96386 0.0445072 0
M  V30 3593 H 322.129 -7.59273 0.375318 0
M  V30 3594 N 323.704 0.605807 -1.45491 0
M  V30 3595 C 324.634 1.72709 -1.57143 0
M  V30 3596 C 325.615 1.6476 -0.422884 0
M  V30 3597 O 326.8 1.83132 -0.646247 0
M  V30 3598 C 323.93 3.11316 -1.53948 0
M  V30 3599 C 322.884 3.34077 -2.67537 0
M  V30 3600 C 322.21 4.72975 -2.49397 0
M  V30 3601 C 323.51 3.24158 -4.09535 0
M  V30 3602 H 325.204 1.63214 -2.51001 0
M  V30 3603 H 322.75 0.78379 -1.208 0
M  V30 3604 H 324.703 3.89557 -1.60696 0
M  V30 3605 H 323.427 3.21655 -0.566205 0
M  V30 3606 H 322.086 2.58227 -2.6022 0
M  V30 3607 H 321.734 4.8005 -1.50205 0
M  V30 3608 H 321.434 4.8916 -3.25571 0
M  V30 3609 H 322.958 5.53414 -2.58002 0
M  V30 3610 H 324.372 3.92271 -4.18086 0
M  V30 3611 H 322.769 3.51872 -4.86113 0
M  V30 3612 H 323.839 2.2157 -4.31317 0
M  V30 3613 N 325.182 1.32811 0.848464 0
M  V30 3614 C 326.431 1.23075 1.59798 0
M  V30 3615 C 326.744 -0.204419 1.94529 0
M  V30 3616 O 327.95 -0.423701 2.68173 0
M  V30 3617 C 326.406 2.15594 2.88179 0
M  V30 3618 C 326.014 3.64228 2.60849 0
M  V30 3619 C 327.758 2.14709 3.66197 0
M  V30 3620 C 325.665 4.48689 3.85269 0
M  V30 3621 H 324.595 0.457091 0.599653 0
M  V30 3622 H 327.246 1.57813 0.936342 0
M  V30 3623 H 325.628 1.73778 3.55833 0
M  V30 3624 H 326.802 4.14424 2.01467 0
M  V30 3625 H 325.117 3.67306 1.96151 0
M  V30 3626 H 327.714 2.75046 4.58534 0
M  V30 3627 H 328.057 1.13966 4.00397 0
M  V30 3628 H 328.59 2.54837 3.05455 0
M  V30 3629 H 325.329 5.5027 3.56207 0
M  V30 3630 H 324.849 4.03241 4.44024 0
M  V30 3631 H 326.528 4.62006 4.52946 0
M  V30 3632 N 326.66 -1.06551 1.16123 0
M  V30 3633 C 327.906 -1.79567 0.94252 0
M  V30 3634 C 328.239 -1.86869 -0.528547 0
M  V30 3635 O 327.514 -1.35838 -1.39206 0
M  V30 3636 C 327.797 -3.24195 1.56747 0
M  V30 3637 C 327.65 -3.24989 3.10969 0
M  V30 3638 C 328.969 -4.21678 1.25998 0
M  V30 3639 H 326.088 -0.651883 0.343828 0
M  V30 3640 H 328.73 -1.2463 1.43413 0
M  V30 3641 H 326.88 -3.71107 1.14942 0
M  V30 3642 H 328.552 -2.86258 3.61737 0
M  V30 3643 H 326.795 -2.63716 3.44436 0
M  V30 3644 H 327.466 -4.27005 3.49815 0
M  V30 3645 H 329.942 -3.83196 1.62174 0
M  V30 3646 H 328.818 -5.21146 1.7233 0
M  V30 3647 H 329.079 -4.4174 0.178367 0
M  V30 3648 N 328.138 -0.959301 -1.25041 0
M  V30 3649 C 329.068 -0.501388 -2.28053 0
M  V30 3650 C 330.049 0.454673 -1.63911 0
M  V30 3651 O 331.234 0.352618 -1.90972 0
M  V30 3652 C 328.364 0.217224 -3.4662 0
M  V30 3653 C 327.318 -0.654034 -4.22973 0
M  V30 3654 C 326.644 0.195589 -5.34342 0
M  V30 3655 C 327.944 -1.93447 -4.85155 0
M  V30 3656 H 329.638 -1.36238 -2.66608 0
M  V30 3657 H 327.184 -0.656534 -1.28163 0
M  V30 3658 H 329.137 0.548732 -4.17812 0
M  V30 3659 H 327.861 1.1125 -3.07068 0
M  V30 3660 H 326.52 -0.968693 -3.5357 0
M  V30 3661 H 326.168 1.09076 -4.91031 0
M  V30 3662 H 325.868 -0.384091 -5.86343 0
M  V30 3663 H 327.392 0.521958 -6.08365 0
M  V30 3664 H 328.806 -1.66908 -5.48466 0
M  V30 3665 H 327.203 -2.46018 -5.47353 0
M  V30 3666 H 328.273 -2.63466 -4.07079 0
M  V30 3667 N 329.616 1.39756 -0.72842 0
M  V30 3668 C 330.864 2.00248 -0.272946 0
M  V30 3669 C 331.185 1.58077 1.14178 0
M  V30 3670 O 330.455 0.826014 1.77634 0
M  V30 3671 H 329.035 0.740554 -0.0979247 0
M  V30 3672 H 331.697 1.70903 -0.936912 0
M  V30 3673 H 330.793 3.10495 -0.316142 0
M  V30 3674 N 331.094 0.475555 1.50254 0
M  V30 3675 C 332.024 -0.30611 2.31485 0
M  V30 3676 C 333.005 -0.986228 1.38591 0
M  V30 3677 O 334.19 -0.982541 1.67511 0
M  V30 3678 C 331.32 -1.38588 3.1845 0
M  V30 3679 C 330.274 -0.827115 4.19932 0
M  V30 3680 C 329.6 -2.00551 4.95665 0
M  V30 3681 C 330.9 0.16463 5.2204 0
M  V30 3682 H 332.594 0.371866 2.97082 0
M  V30 3683 H 330.14 0.180282 1.42867 0
M  V30 3684 H 332.093 -1.94023 3.74076 0
M  V30 3685 H 330.817 -2.09269 2.50747 0
M  V30 3686 H 329.476 -0.294702 3.65414 0
M  V30 3687 H 329.124 -2.6994 4.2443 0
M  V30 3688 H 328.824 -1.63784 5.64313 0
M  V30 3689 H 330.348 -2.56468 5.54127 0
M  V30 3690 H 331.762 -0.300699 5.72511 0
M  V30 3691 H 330.159 0.446813 5.98434 0
M  V30 3692 H 331.229 1.08905 4.72512 0
M  V30 3693 N 332.573 -1.56217 0.208337 0
M  V30 3694 C 333.503 -2.22694 -0.702116 0
M  V30 3695 C 334.484 -1.19432 -1.2112 0
M  V30 3696 O 335.669 -1.47978 -1.25762 0
M  V30 3697 C 332.799 -2.8966 -1.9161 0
M  V30 3698 C 331.753 -3.9928 -1.5414 0
M  V30 3699 C 331.079 -4.53476 -2.83308 0
M  V30 3700 C 332.379 -5.17012 -0.741339 0
M  V30 3701 H 334.073 -2.99034 -0.147898 0
M  V30 3702 H 331.619 -1.43831 -0.0696951 0
M  V30 3703 H 333.572 -3.34852 -2.55836 0
M  V30 3704 H 332.296 -2.10746 -2.49507 0
M  V30 3705 H 330.955 -3.54799 -0.922668 0
M  V30 3706 H 330.603 -3.71308 -3.39322 0
M  V30 3707 H 330.303 -5.27451 -2.58976 0
M  V30 3708 H 331.827 -5.01378 -3.485 0
M  V30 3709 H 333.241 -5.58667 -1.28699 0
M  V30 3710 H 331.638 -5.97137 -0.595627 0
M  V30 3711 H 332.708 -4.8423 0.254851 0
M  V30 3712 N 334.051 0.0651679 -1.57465 0
M  V30 3713 C 335.279 0.775808 -1.91804 0
M  V30 3714 C 335.694 1.70782 -0.804916 0
M  V30 3715 O 335.051 1.81153 0.221311 0
M  V30 3716 C 335.102 1.56381 -3.25925 0
M  V30 3717 O 334.823 0.669248 -4.32958 0
M  V30 3718 C 336.324 2.37485 -3.7432 0
M  V30 3719 H 333.544 0.2202 -0.63384 0
M  V30 3720 H 336.088 0.0334587 -2.04473 0
M  V30 3721 H 334.243 2.25837 -3.14764 0
M  V30 3722 H 334.657 1.21801 -5.10162 0
M  V30 3723 H 336.131 2.88223 -4.70778 0
M  V30 3724 H 336.608 3.17307 -3.03666 0
M  V30 3725 H 337.214 1.73173 -3.88447 0
M  V30 3726 N 335.529 1.53961 0.336706 0
M  V30 3727 C 336.776 1.71536 1.07618 0
M  V30 3728 C 337.104 0.482125 1.8843 0
M  V30 3729 O 336.359 -0.536142 1.88213 0
M  V30 3730 C 336.658 2.93493 2.03953 0
M  V30 3731 C 336.324 4.28811 1.39399 0
M  V30 3732 C 334.986 4.65602 1.21523 0
M  V30 3733 C 337.338 5.12844 0.929541 0
M  V30 3734 C 334.666 5.84037 0.558312 0
M  V30 3735 C 337.018 6.31951 0.286505 0
M  V30 3736 C 335.682 6.67432 0.0954869 0
M  V30 3737 H 334.952 0.627696 0.393801 0
M  V30 3738 H 337.599 1.88186 0.354715 0
M  V30 3739 H 335.904 2.71475 2.82504 0
M  V30 3740 H 337.601 3.04285 2.61174 0
M  V30 3741 H 334.191 3.99858 1.54311 0
M  V30 3742 H 338.375 4.84947 1.05548 0
M  V30 3743 H 333.631 6.10097 0.398995 0
M  V30 3744 H 337.805 6.96352 -0.0814376 0
M  V30 3745 H 335.432 7.59063 -0.415579 0
M  V30 3746 N 337.007 -0.598083 1.45811 0
M  V30 3747 C 338.255 -1.35413 1.50026 0
M  V30 3748 C 338.576 -1.94444 0.147177 0
M  V30 3749 O 337.846 -1.77701 -0.824571 0
M  V30 3750 H 336.426 -0.502727 0.552517 0
M  V30 3751 H 339.088 -0.701606 1.81834 0
M  V30 3752 H 338.184 -2.16871 2.2444 0
M  V30 3753 N 338.485 -1.33259 -0.841409 0
M  V30 3754 C 339.448 -1.23221 -1.9326 0
M  V30 3755 C 340.448 -0.151895 -1.60081 0
M  V30 3756 O 341.638 -0.403246 -1.69468 0
M  V30 3757 C 338.77 -0.898123 -3.28856 0
M  V30 3758 H 339.963 -2.2021 -2.03587 0
M  V30 3759 H 337.516 -1.17281 -1.03319 0
M  V30 3760 H 338.251 0.0693841 -3.24226 0
M  V30 3761 H 338.036 -1.67934 -3.54317 0
M  V30 3762 H 339.526 -0.852563 -4.08805 0
M  V30 3763 N 339.963 1.05934 -1.16686 0
M  V30 3764 C 341.193 1.82226 -0.973515 0
M  V30 3765 C 341.601 1.8297 0.481532 0
M  V30 3766 O 340.944 1.25009 1.34604 0
M  V30 3767 C 341.006 3.29897 -1.42858 0
M  V30 3768 C 340.67 3.52849 -2.90425 0
M  V30 3769 C 341.667 3.45595 -3.88407 0
M  V30 3770 C 339.352 3.80053 -3.28428 0
M  V30 3771 C 341.346 3.65217 -5.22394 0
M  V30 3772 C 339.033 3.99325 -4.62583 0
M  V30 3773 C 340.031 3.91905 -5.59374 0
M  V30 3774 O 339.719 4.10647 -6.91104 0
M  V30 3775 H 339.451 0.581314 -0.345036 0
M  V30 3776 H 342.005 1.3453 -1.55212 0
M  V30 3777 H 340.235 3.78472 -0.793477 0
M  V30 3778 H 341.924 3.87692 -1.20207 0
M  V30 3779 H 342.69 3.24564 -3.60393 0
M  V30 3780 H 338.569 3.84936 -2.53664 0
M  V30 3781 H 342.113 3.59341 -5.9793 0
M  V30 3782 H 338.01 4.19846 -4.90306 0
M  V30 3783 H 338.778 4.27915 -6.97733 0
M  V30 3784 N 341.441 0.965919 1.2453 0
M  V30 3785 C 342.687 0.62776 1.92839 0
M  V30 3786 C 343.02 -0.834694 1.75347 0
M  V30 3787 O 342.295 -1.60031 1.10546 0
M  V30 3788 C 342.578 1.00109 3.45905 0
M  V30 3789 C 342.431 2.52011 3.72573 0
M  V30 3790 C 343.75 0.53435 4.36844 0
M  V30 3791 H 340.869 0.229537 0.700344 0
M  V30 3792 H 343.511 1.2046 1.46933 0
M  V30 3793 H 341.661 0.510238 3.85135 0
M  V30 3794 H 343.333 3.08559 3.42912 0
M  V30 3795 H 341.576 2.95287 3.17786 0
M  V30 3796 H 342.247 2.73183 4.79661 0
M  V30 3797 H 344.723 0.955565 4.04979 0
M  V30 3798 H 343.599 0.824152 5.42678 0
M  V30 3799 H 343.86 -0.565589 4.38467 0
M  V30 3800 N 342.919 -1.39368 0.735821 0
M  V30 3801 C 343.866 -2.30599 0.0963825 0
M  V30 3802 C 344.836 -1.49257 -0.728794 0
M  V30 3803 O 346.021 -1.77941 -0.688588 0
M  V30 3804 C 343.161 -3.35596 -0.804305 0
M  V30 3805 C 342.274 -4.31987 0.0335761 0
M  V30 3806 C 341.409 -5.24053 -0.868461 0
M  V30 3807 C 340.448 -6.12095 -0.0258776 0
M  V30 3808 N 339.585 -6.96514 -0.883893 0
M  V30 3809 H 344.425 -2.8471 0.880002 0
M  V30 3810 H 341.962 -1.40188 0.445619 0
M  V30 3811 H 343.92 -3.95062 -1.34096 0
M  V30 3812 H 342.55 -2.82938 -1.55389 0
M  V30 3813 H 341.602 -3.74133 0.68766 0
M  V30 3814 H 342.914 -4.94074 0.685036 0
M  V30 3815 H 342.068 -5.88549 -1.47293 0
M  V30 3816 H 340.807 -4.62289 -1.5537 0
M  V30 3817 H 339.812 -5.4661 0.591386 0
M  V30 3818 H 341.037 -6.75923 0.656156 0
M  V30 3819 H 338.983 -6.37318 -1.55441 0
M  V30 3820 H 338.9 -7.55448 -0.288931 0
M  V30 3821 H 340.168 -7.65439 -1.4739 0
M  V30 3822 N 344.397 -0.483516 -1.5 0
M  V30 3823 C 345.344 0.304164 -2.28787 0
M  V30 3824 C 346.314 0.976114 -1.34392 0
M  V30 3825 O 347.499 0.986156 -1.63339 0
M  V30 3826 C 344.639 1.37298 -3.16612 0
M  V30 3827 C 343.752 0.714561 -4.26049 0
M  V30 3828 C 342.887 1.76232 -5.01114 0
M  V30 3829 C 341.926 1.08483 -6.0241 0
M  V30 3830 N 341.063 2.076 -6.70706 0
M  V30 3831 H 345.903 -0.373981 -2.95644 0
M  V30 3832 H 343.44 -0.196275 -1.45785 0
M  V30 3833 H 345.398 2.00445 -3.65893 0
M  V30 3834 H 344.028 2.02012 -2.51776 0
M  V30 3835 H 343.08 -0.0297798 -3.80388 0
M  V30 3836 H 344.392 0.180383 -4.98474 0
M  V30 3837 H 343.546 2.46929 -5.54176 0
M  V30 3838 H 342.285 2.33033 -4.28424 0
M  V30 3839 H 341.29 0.363545 -5.48597 0
M  V30 3840 H 342.515 0.523551 -6.77079 0
M  V30 3841 H 340.461 2.63394 -6.00799 0
M  V30 3842 H 340.378 1.59201 -7.39047 0
M  V30 3843 H 341.646 2.77639 -7.2838 0
M  V30 3844 N 345.875 1.56104 -0.216619 0
M  V30 3845 C 347.123 1.97781 0.415593 0
M  V30 3846 C 347.444 1.10536 1.60645 0
M  V30 3847 O 346.714 0.181303 1.95059 0
M  V30 3848 H 345.294 0.730415 0.156534 0
M  V30 3849 H 347.956 1.92445 -0.308366 0
M  V30 3850 H 347.052 3.03072 0.74525 0
M  V30 3851 N 347.353 -0.0568162 1.57498 0
M  V30 3852 C 348.283 -1.06593 2.0775 0
M  V30 3853 C 349.264 -1.39448 0.974082 0
M  V30 3854 O 350.449 -1.48815 1.24771 0
M  V30 3855 C 347.579 -2.37509 2.5339 0
M  V30 3856 C 346.533 -2.1897 3.67745 0
M  V30 3857 C 345.859 -3.55402 3.99492 0
M  V30 3858 C 347.159 -1.59859 4.97235 0
M  V30 3859 H 348.853 -0.647706 2.9231 0
M  V30 3860 H 346.399 -0.310116 1.40621 0
M  V30 3861 H 348.352 -3.08409 2.87162 0
M  V30 3862 H 347.076 -2.8134 1.65878 0
M  V30 3863 H 345.735 -1.50508 3.3428 0
M  V30 3864 H 345.383 -3.9683 3.09088 0
M  V30 3865 H 345.083 -3.43831 4.76502 0
M  V30 3866 H 346.607 -4.27708 4.35773 0
M  V30 3867 H 348.021 -2.20642 5.29141 0
M  V30 3868 H 346.418 -1.58942 5.78669 0
M  V30 3869 H 347.488 -0.561506 4.81638 0
M  V30 3870 N 348.832 -1.54138 -0.328536 0
M  V30 3871 C 349.742 -1.86192 -1.42723 0
M  V30 3872 C 350.758 -0.753382 -1.56844 0
M  V30 3873 O 351.934 -1.04718 -1.72035 0
M  V30 3874 C 348.999 -2.07824 -2.77507 0
M  V30 3875 C 348.06 -3.31641 -2.72603 0
M  V30 3876 C 347.293 -3.52232 -4.00959 0
M  V30 3877 O 347.516 -2.7636 -4.9898 0
M  V30 3878 O 346.45 -4.45699 -4.0452 0
M  V30 3879 H 350.276 -2.79608 -1.18547 0
M  V30 3880 H 347.861 -1.3998 -0.522104 0
M  V30 3881 H 349.743 -2.23411 -3.57303 0
M  V30 3882 H 348.418 -1.17596 -3.01584 0
M  V30 3883 H 347.325 -3.21444 -1.91376 0
M  V30 3884 H 348.658 -4.2191 -2.53481 0
M  V30 3885 N 350.31 0.590341 -1.46126 0
M  V30 3886 C 351.242 1.71427 -1.52136 0
M  V30 3887 C 352.255 1.57542 -0.41042 0
M  V30 3888 O 353.444 1.65106 -0.678389 0
M  V30 3889 C 350.544 3.09605 -1.37834 0
M  V30 3890 C 349.717 3.49566 -2.62912 0
M  V30 3891 C 348.776 4.66773 -2.42918 0
M  V30 3892 O 347.802 4.73019 -3.1661 0
M  V30 3893 N 349.004 5.61161 -1.4859 0
M  V30 3894 H 351.769 1.66728 -2.49042 0
M  V30 3895 H 349.33 0.776113 -1.42085 0
M  V30 3896 H 351.322 3.85796 -1.22243 0
M  V30 3897 H 349.892 3.08714 -0.491393 0
M  V30 3898 H 349.112 2.63158 -2.93499 0
M  V30 3899 H 350.4 3.73028 -3.46017 0
M  V30 3900 H 349.798 5.58844 -0.87808 0
M  V30 3901 H 348.355 6.36814 -1.38965 0
M  V30 3902 N 351.788 1.33704 0.83433 0
M  V30 3903 C 353.016 1.28467 1.62185 0
M  V30 3904 C 353.431 -0.143526 1.88254 0
M  V30 3905 O 352.788 -1.08709 1.4659 0
M  V30 3906 C 352.839 2.06174 2.96942 0
M  V30 3907 O 352.56 3.43422 2.72016 0
M  V30 3908 C 354.061 2.08201 3.91366 0
M  V30 3909 H 351.281 0.4424 0.504503 0
M  V30 3910 H 353.825 1.76145 1.03891 0
M  V30 3911 H 351.98 1.62167 3.51825 0
M  V30 3912 H 352.394 3.83453 3.57861 0
M  V30 3913 H 353.868 2.67017 4.83121 0
M  V30 3914 H 354.345 1.07343 4.2588 0
M  V30 3915 H 354.951 2.52246 3.42421 0
M  V30 3916 N 353.266 -1.05314 1.17247 0
M  V30 3917 C 354.543 -1.75184 0.87005 0
M  V30 3918 C 354.923 -2.01481 -0.629965 0
M  V30 3919 O 354.271 -1.64988 -1.58086 0
M  V30 3920 C 354.481 -3.04594 1.70363 0
M  V30 3921 C 355.829 -3.78567 1.92281 0
M  V30 3922 O 356.853 -3.14461 1.67311 0
M  V30 3923 O 355.712 -4.93755 2.3424 0
M  V30 3924 H 352.806 -0.761729 0.322021 0
M  V30 3925 H 355.352 -1.11493 1.27935 0
M  V30 3926 H 354.124 -2.81201 2.72106 0
M  V30 3927 H 353.747 -3.76022 1.29202 0
M  V30 3928 N 354.744 -0.972509 -1.24016 0
M  V30 3929 C 356.155 -0.67517 -1.74064 0
M  V30 3930 C 356.506 0.808939 -1.78747 0
M  V30 3931 O 355.631 1.63286 -1.42009 0
M  V30 3932 C 356.226 -1.21889 -3.16115 0
M  V30 3933 C 354.785 -0.971358 -3.6365 0
M  V30 3934 C 353.932 -1.35134 -2.42145 0
M  V30 3935 H 356.883 -1.14727 -1.09651 0
M  V30 3936 H 356.904 -0.587489 -3.75937 0
M  V30 3937 H 356.416 -2.29906 -3.12674 0
M  V30 3938 H 354.517 0.0930686 -3.72484 0
M  V30 3939 H 354.63 -1.62039 -4.50866 0
M  V30 3940 H 352.994 -0.769751 -2.4279 0
M  V30 3941 H 353.777 -2.4411 -2.41381 0
M  V30 3942 N 356.222 1.38976 -0.743202 0
M  V30 3943 C 357.17 2.32394 -0.0978389 0
M  V30 3944 C 358.164 1.53486 0.716824 0
M  V30 3945 O 359.37 1.69092 0.617088 0
M  V30 3946 H 355.745 0.75189 -0.0128402 0
M  V30 3947 H 357.716 2.84441 -0.901981 0
M  V30 3948 C 356.465 3.38629 0.789036 0
M  V30 3949 H 355.788 3.99432 0.171559 0
M  V30 3950 H 357.228 4.06426 1.20807 0
M  V30 3951 C 355.687 2.76347 1.92702 0
M  V30 3952 O 356.217 2.64836 3.02034 0
M  V30 3953 N 354.423 2.34311 1.71891 0
M  V30 3954 H 353.97 2.43873 0.829675 0
M  V30 3955 H 353.928 1.9298 2.48205 0
M  V30 3956 N 357.7 0.491464 1.49741 0
M  V30 3957 C 358.949 -0.0582189 2.01616 0
M  V30 3958 C 359.262 -1.38927 1.3769 0
M  V30 3959 O 360.468 -2.02509 1.80838 0
M  V30 3960 C 358.924 -0.154235 3.59569 0
M  V30 3961 C 358.532 1.1696 4.32463 0
M  V30 3962 C 360.276 -0.65479 4.1942 0
M  V30 3963 C 358.183 1.03627 5.8225 0
M  V30 3964 H 357.113 -0.0255317 0.753568 0
M  V30 3965 H 359.764 0.629445 1.72367 0
M  V30 3966 H 358.146 -0.906138 3.85493 0
M  V30 3967 H 359.32 1.93405 4.18248 0
M  V30 3968 H 357.635 1.60285 3.84315 0
M  V30 3969 H 360.232 -0.771903 5.29099 0
M  V30 3970 H 360.575 -1.65127 3.8215 0
M  V30 3971 H 361.108 0.040304 3.9778 0
M  V30 3972 H 357.847 2.00672 6.24028 0
M  V30 3973 H 357.367 0.312546 5.98985 0
M  V30 3974 H 359.046 0.711114 6.4308 0
M  V30 3975 N 359.178 -1.55987 0.224894 0
M  V30 3976 C 360.455 -1.90232 -0.455083 0
M  V30 3977 C 360.835 -1.14269 -1.77499 0
M  V30 3978 O 360.183 -0.253079 -2.27094 0
M  V30 3979 C 360.393 -3.42993 -0.644758 0
M  V30 3980 C 361.741 -4.13821 -0.950669 0
M  V30 3981 O 362.765 -3.4861 -0.731423 0
M  V30 3982 O 361.624 -5.29128 -1.36695 0
M  V30 3983 H 358.718 -0.79108 -0.241084 0
M  V30 3984 H 361.264 -1.67581 0.267327 0
M  V30 3985 H 360.036 -3.90252 0.28613 0
M  V30 3986 H 359.659 -3.71434 -1.41853 0
M  V30 3987 N 360.656 0.0484629 -1.57525 0
M  V30 3988 C 361.886 0.754326 -1.92337 0
M  V30 3989 C 362.294 1.70443 -0.82132 0
M  V30 3990 O 361.637 1.82466 0.21254 0
M  V30 3991 C 361.699 1.58231 -3.22805 0
M  V30 3992 C 361.363 0.799074 -4.4996 0
M  V30 3993 C 362.36 0.1079 -5.19788 0
M  V30 3994 C 360.045 0.759345 -4.96527 0
M  V30 3995 C 362.039 -0.612516 -6.3445 0
M  V30 3996 C 359.726 0.0351713 -6.1109 0
M  V30 3997 C 360.724 -0.649537 -6.79904 0
M  V30 3998 O 360.412 -1.36199 -7.92278 0
M  V30 3999 H 360.144 0.218257 -0.639797 0
M  V30 4000 H 362.698 0.0159295 -2.05394 0
M  V30 4001 H 360.928 2.36406 -3.06021 0
M  V30 4002 H 362.617 2.16898 -3.43089 0
M  V30 4003 H 363.383 0.129748 -4.84826 0
M  V30 4004 H 359.262 1.28177 -4.42822 0
M  V30 4005 H 362.806 -1.14751 -6.88097 0
M  V30 4006 H 358.703 0.0113314 -6.45499 0
M  V30 4007 H 359.471 -1.27366 -8.0853 0
M  V30 4008 N 362.134 1.5431 0.320358 0
M  V30 4009 C 363.081 1.83918 1.39438 0
M  V30 4010 C 364.051 0.686525 1.51248 0
M  V30 4011 O 365.236 0.933269 1.66417 0
M  V30 4012 C 362.376 2.075 2.75749 0
M  V30 4013 C 361.489 3.35177 2.72544 0
M  V30 4014 C 360.624 3.48704 4.00723 0
M  V30 4015 C 359.663 4.70244 3.91838 0
M  V30 4016 N 358.8 4.80679 5.11754 0
M  V30 4017 H 363.64 2.75544 1.13489 0
M  V30 4018 H 361.177 1.36459 0.549309 0
M  V30 4019 H 363.135 2.19166 3.54996 0
M  V30 4020 H 361.765 1.19163 3 0
M  V30 4021 H 360.817 3.32233 1.85271 0
M  V30 4022 H 362.129 4.24534 2.61863 0
M  V30 4023 H 361.283 3.59928 4.88402 0
M  V30 4024 H 360.022 2.57445 4.14214 0
M  V30 4025 H 359.027 4.59072 3.02544 0
M  V30 4026 H 360.252 5.6289 3.7991 0
M  V30 4027 H 358.198 3.92337 5.25745 0
M  V30 4028 H 358.115 5.64007 5.0342 0
M  V30 4029 H 359.383 4.96239 6.01138 0
M  V30 4030 N 363.613 -0.582584 1.46437 0
M  V30 4031 C 364.843 -1.36484 1.55099 0
M  V30 4032 C 365.251 -1.88233 0.191056 0
M  V30 4033 O 364.594 -1.6429 -0.821858 0
M  V30 4034 C 364.656 -2.588 2.49525 0
M  V30 4035 C 364.32 -2.28517 3.95764 0
M  V30 4036 C 365.317 -1.87346 4.84972 0
M  V30 4037 C 363.002 -2.40658 4.40896 0
M  V30 4038 C 364.996 -1.5871 6.17325 0
M  V30 4039 C 362.683 -2.11635 5.73284 0
M  V30 4040 C 363.681 -1.70725 6.61318 0
M  V30 4041 O 363.369 -1.42057 7.91249 0
M  V30 4042 H 363.101 -0.423297 0.527063 0
M  V30 4043 H 365.655 -0.715188 1.92547 0
M  V30 4044 H 363.885 -3.26571 2.07095 0
M  V30 4045 H 365.574 -3.20868 2.48593 0
M  V30 4046 H 366.34 -1.77481 4.5136 0
M  V30 4047 H 362.219 -2.71463 3.72598 0
M  V30 4048 H 365.763 -1.26704 6.85997 0
M  V30 4049 H 361.66 -2.21124 6.06444 0
M  V30 4050 H 362.428 -1.55901 8.03515 0
M  V30 4051 N 365.091 -1.34144 -0.827227 0
M  V30 4052 C 366.338 -1.26258 -1.58319 0
M  V30 4053 C 366.666 0.168595 -1.93768 0
M  V30 4054 O 365.921 1.12877 -1.59866 0
M  V30 4055 C 366.22 -2.09464 -2.89585 0
M  V30 4056 C 365.886 -3.58521 -2.73448 0
M  V30 4057 C 364.548 -3.99155 -2.68754 0
M  V30 4058 C 366.9 -4.53189 -2.57428 0
M  V30 4059 C 364.228 -5.32656 -2.45957 0
M  V30 4060 C 366.58 -5.86864 -2.36163 0
M  V30 4061 C 365.244 -6.26667 -2.29879 0
M  V30 4062 H 364.514 -0.462013 -0.579332 0
M  V30 4063 H 367.161 -1.65845 -0.95748 0
M  V30 4064 H 365.466 -1.62692 -3.56425 0
M  V30 4065 H 367.163 -2.00712 -3.47154 0
M  V30 4066 H 363.753 -3.26264 -2.77939 0
M  V30 4067 H 367.937 -4.22696 -2.60081 0
M  V30 4068 H 363.193 -5.62519 -2.39546 0
M  V30 4069 H 367.367 -6.59813 -2.22754 0
M  V30 4070 H 364.994 -7.30049 -2.11975 0
M  V30 4071 N 366.569 1.04691 -1.17803 0
M  V30 4072 C 367.846 1.7472 -0.879328 0
M  V30 4073 C 368.226 2.01812 0.619271 0
M  V30 4074 O 367.574 1.65824 1.57209 0
M  V30 4075 C 367.784 3.03686 -1.71976 0
M  V30 4076 C 369.132 3.77542 -1.94286 0
M  V30 4077 O 370.156 3.13569 -1.68976 0
M  V30 4078 O 369.015 4.92506 -2.36855 0
M  V30 4079 H 366.109 0.760011 -0.326056 0
M  V30 4080 H 368.655 1.10813 -1.28525 0
M  V30 4081 H 367.427 2.79754 -2.73594 0
M  V30 4082 H 367.05 3.75332 -1.31194 0
M  V30 4083 N 368.047 0.979072 1.23499 0
M  V30 4084 C 369.277 0.664237 1.95631 0
M  V30 4085 C 369.685 -0.772653 1.72704 0
M  V30 4086 O 369.028 -1.53141 1.01457 0
M  V30 4087 C 369.09 0.873115 3.48736 0
M  V30 4088 C 368.754 2.29182 3.95379 0
M  V30 4089 C 369.751 3.2704 4.04155 0
M  V30 4090 C 367.436 2.62256 4.28401 0
M  V30 4091 C 369.43 4.56052 4.45304 0
M  V30 4092 C 367.117 3.91491 4.69231 0
M  V30 4093 C 368.115 4.88201 4.77649 0
M  V30 4094 O 367.803 6.15129 5.17563 0
M  V30 4095 H 367.535 0.245915 0.629684 0
M  V30 4096 H 370.089 1.3127 1.57979 0
M  V30 4097 H 368.319 0.167476 3.86337 0
M  V30 4098 H 370.008 0.555642 4.02079 0
M  V30 4099 H 370.774 3.02819 3.78848 0
M  V30 4100 H 366.653 1.87692 4.21061 0
M  V30 4101 H 370.197 5.31538 4.51789 0
M  V30 4102 H 366.094 4.15508 4.93987 0
M  V30 4103 H 366.862 6.18862 5.35679 0
M  V30 4104 N 369.525 -1.3858 0.750561 0
M  V30 4105 C 370.472 -2.30483 0.120835 0
M  V30 4106 C 371.442 -1.50022 -0.712923 0
M  V30 4107 O 372.627 -1.78662 -0.669676 0
M  V30 4108 C 369.767 -3.36431 -0.768666 0
M  V30 4109 C 368.88 -4.31927 0.0793922 0
M  V30 4110 C 368.015 -5.24944 -0.81283 0
M  V30 4111 C 367.054 -6.12088 0.0390447 0
M  V30 4112 N 366.191 -6.97412 -0.809969 0
M  V30 4113 H 371.031 -2.83761 0.91015 0
M  V30 4114 H 368.568 -1.39707 0.460463 0
M  V30 4115 H 370.526 -3.96462 -1.29898 0
M  V30 4116 H 369.156 -2.8457 -1.5238 0
M  V30 4117 H 368.208 -3.73382 0.727303 0
M  V30 4118 H 369.52 -4.93319 0.737401 0
M  V30 4119 H 368.674 -5.90078 -1.41042 0
M  V30 4120 H 367.413 -4.63911 -1.50458 0
M  V30 4121 H 366.418 -5.45952 0.649328 0
M  V30 4122 H 367.643 -6.75189 0.727809 0
M  V30 4123 H 365.589 -6.38931 -1.48672 0
M  V30 4124 H 365.506 -7.55712 -0.208789 0
M  V30 4125 H 366.774 -7.66959 -1.39263 0
M  V30 4126 N 371.003 -0.499398 -1.49478 0
M  V30 4127 C 372.419 -0.155261 -1.58843 0
M  V30 4128 C 372.619 1.34008 -1.50479 0
M  V30 4129 O 371.675 2.11589 -1.37791 0
M  V30 4130 C 372.988 -0.730636 -2.91689 0
M  V30 4131 C 374.536 -0.696599 -3.0515 0
M  V30 4132 C 375.011 -1.25001 -4.40612 0
M  V30 4133 N 376.502 -1.21064 -4.47099 0
M  V30 4134 C 377.237 -1.60905 -5.50361 0
M  V30 4135 N 376.733 -2.08331 -6.60735 0
M  V30 4136 N 378.526 -1.52331 -5.41065 0
M  V30 4137 H 370.677 -1.47162 -1.53158 0
M  V30 4138 H 372.94 -0.610309 -0.725415 0
M  V30 4139 H 372.646 -1.77928 -3.03372 0
M  V30 4140 H 372.52 -0.190161 -3.7672 0
M  V30 4141 H 374.907 0.343204 -2.93097 0
M  V30 4142 H 374.988 -1.2742 -2.21806 0
M  V30 4143 H 374.632 -2.28859 -4.53416 0
M  V30 4144 H 374.562 -0.64836 -5.22593 0
M  V30 4145 H 377.053 -0.863128 -3.67911 0
M  V30 4146 H 377.366 -2.36805 -7.35624 0
M  V30 4147 H 375.711 -2.12304 -6.6178 0
M  V30 4148 H 378.902 -1.151 -4.53729 0
M  V30 4149 H 379.075 -1.83704 -6.21415 0
M  V30 4150 N 372.481 1.55866 -0.233164 0
M  V30 4151 C 373.709 2.02998 0.399905 0
M  V30 4152 C 374.124 1.11274 1.52524 0
M  V30 4153 O 373.481 0.124528 1.82075 0
M  V30 4154 C 373.532 3.4958 0.920639 0
M  V30 4155 O 373.253 4.37808 -0.159834 0
M  V30 4156 C 374.754 4.12411 1.62578 0
M  V30 4157 H 371.974 0.664006 0.0966281 0
M  V30 4158 H 374.518 2.0143 -0.353013 0
M  V30 4159 H 372.673 3.51727 1.62379 0
M  V30 4160 H 373.087 5.23981 0.23337 0
M  V30 4161 H 374.561 5.16711 1.94201 0
M  V30 4162 H 375.038 3.5809 2.54299 0
M  V30 4163 H 375.644 4.14148 0.967553 0
M  V30 4164 N 373.959 -0.0401083 1.57549 0
M  V30 4165 C 374.909 -1.05175 2.02292 0
M  V30 4166 C 375.893 -1.32674 0.910294 0
M  V30 4167 O 377.085 -1.32444 1.17421 0
M  V30 4168 C 374.214 -2.35622 2.49674 0
M  V30 4169 C 373.3 -2.11261 3.67736 0
M  V30 4170 N 373.691 -1.56923 4.80842 0
M  V30 4171 C 371.989 -2.41596 3.74897 0
M  V30 4172 C 372.69 -1.48111 5.62528 0
M  V30 4173 N 371.666 -1.95282 5.07312 0
M  V30 4174 H 375.468 -0.625455 2.87168 0
M  V30 4175 H 372.982 -0.246624 1.60516 0
M  V30 4176 H 374.979 -3.08893 2.79983 0
M  V30 4177 H 373.639 -2.7894 1.662 0
M  V30 4178 H 374.65 -1.25345 5.02503 0
M  V30 4179 H 371.327 -2.88064 3.02201 0
M  V30 4180 H 372.717 -1.06683 6.63377 0
M  V30 4181 N 375.437 -1.54477 -0.31217 0
M  V30 4182 C 376.387 -1.81037 -1.38598 0
M  V30 4183 C 377.371 -0.666941 -1.46426 0
M  V30 4184 O 378.563 -0.927269 -1.50767 0
M  V30 4185 C 375.692 -2.05127 -2.75277 0
M  V30 4186 C 374.778 -3.25624 -2.71716 0
M  V30 4187 N 375.169 -4.46428 -2.37773 0
M  V30 4188 C 373.467 -3.27427 -3.02833 0
M  V30 4189 C 374.168 -5.28406 -2.43232 0
M  V30 4190 N 373.144 -4.6586 -2.80135 0
M  V30 4191 H 376.946 -2.7201 -1.11301 0
M  V30 4192 H 374.46 -1.53826 -0.520705 0
M  V30 4193 H 376.457 -2.22299 -3.52688 0
M  V30 4194 H 375.117 -1.15416 -3.03495 0
M  V30 4195 H 376.128 -4.73227 -2.1042 0
M  V30 4196 H 372.805 -2.47786 -3.36018 0
M  V30 4197 H 374.195 -6.34903 -2.19882 0
M  V30 4198 N 376.915 0.57481 -1.46744 0
M  V30 4199 C 378.331 0.898981 -1.31873 0
M  V30 4200 C 378.531 1.99313 -0.29605 0
M  V30 4201 O 377.587 2.50728 0.298621 0
M  V30 4202 C 378.9 1.30886 -2.7072 0
M  V30 4203 C 380.448 1.42127 -2.78871 0
M  V30 4204 C 380.923 1.86478 -4.18318 0
M  V30 4205 N 382.414 1.93658 -4.20774 0
M  V30 4206 C 383.149 2.29267 -5.2557 0
M  V30 4207 N 382.645 2.63612 -6.40688 0
M  V30 4208 N 384.438 2.29889 -5.1294 0
M  V30 4209 H 376.589 -0.147839 -2.11885 0
M  V30 4210 H 378.852 -0.00347013 -0.947994 0
M  V30 4211 H 378.558 0.578853 -3.46904 0
M  V30 4212 H 378.432 2.26874 -3.01343 0
M  V30 4213 H 380.819 2.14213 -2.0297 0
M  V30 4214 H 380.9 0.443705 -2.51922 0
M  V30 4215 H 380.544 1.14968 -4.94717 0
M  V30 4216 H 380.474 2.85207 -4.42679 0
M  V30 4217 H 382.965 1.69574 -3.37718 0
M  V30 4218 H 383.278 2.89759 -7.16421 0
M  V30 4219 H 381.623 2.61232 -6.44036 0
M  V30 4220 H 384.814 2.02485 -4.22039 0
M  V30 4221 H 384.987 2.57312 -5.94722 0
M  V30 4222 O 378.432 1.44602 0.719209 0
M  V30 4223 H 379.123 1.36947 1.36986 0
M  V30 END ATOM
M  V30 BEGIN BOND
M  V30 END BOND
M  V30 END CTAB
M  END
$$$$
