drugbank_target|P17405 Sphingomyelin phosphodiesterase (DB00381; DB00477; DB01151; DB14009)
 OpenBabel12092119443D

  0  0  0     0  0            999 V3000
M  V30 BEGIN CTAB
M  V30 COUNTS 9748 9918 0 0 0
M  V30 BEGIN ATOM
M  V30 1 H -0.908 1.98254 -0.117106 0
M  V30 2 N 0 1.576 0 0
M  V30 3 C 0.933 2.03868 1.02534 0
M  V30 4 C 1.911 0.928543 1.3348 0
M  V30 5 O 3.095 1.19667 1.45644 0
M  V30 6 C 0.222 2.43627 2.35294 0
M  V30 7 C -0.732 3.65373 2.2001 0
M  V30 8 S 0.101 5.13292 1.52614 0
M  V30 9 C 1.257 5.56322 2.86805 0
M  V30 10 H 1.49 2.90518 0.631377 0
M  V30 11 H -0.977 1.52953 0.210867 0
M  V30 12 H 0.981 2.67203 3.11629 0
M  V30 13 H -0.358 1.57376 2.7183 0
M  V30 14 H -1.165 3.90944 3.18086 0
M  V30 15 H -1.563 3.418 1.51819 0
M  V30 16 H 0.729 5.58782 3.83104 0
M  V30 17 H 1.672 6.56266 2.65933 0
M  V30 18 H 2.08 4.83886 2.90714 0
M  V30 19 N 1.4781 -0.272755 1.55222 0
M  V30 20 C 2.8891 -0.84378 1.66545 0
M  V30 21 C 3.2401 -1.87035 0.592641 0
M  V30 22 O 2.3651 -2.14761 -0.265818 0
M  V30 23 C 2.9601 -1.53723 3.01918 0
M  V30 24 C 1.5191 -2.05628 3.15268 0
M  V30 25 C 0.6661 -0.898424 2.62343 0
M  V30 26 H 3.6171 -0.0490998 1.58624 0
M  V30 27 H 3.6381 -2.40421 2.94921 0
M  V30 28 H 3.1501 -0.78983 3.79978 0
M  V30 29 H 1.2511 -2.83329 2.41983 0
M  V30 30 H 1.3641 -2.27142 4.21833 0
M  V30 31 H -0.2719 -1.29186 2.19506 0
M  V30 32 H 0.5111 -0.164528 3.42906 0
M  V30 33 N 2.9562 -1.48159 -0.537278 0
M  V30 34 C 4.3722 -1.34118 -0.865129 0
M  V30 35 C 4.5722 -0.346678 -1.98495 0
M  V30 36 O 3.6282 0.234715 -2.51407 0
M  V30 37 C 4.9412 -2.73963 -1.23954 0
M  V30 38 C 6.4892 -2.82397 -1.34984 0
M  V30 39 C 6.9642 -4.22928 -1.75772 0
M  V30 40 N 8.4552 -4.25566 -1.82887 0
M  V30 41 C 9.1902 -5.31235 -2.15817 0
M  V30 42 N 8.6862 -6.47189 -2.47222 0
M  V30 43 N 10.4792 -5.18624 -2.16761 0
M  V30 44 H 2.6302 -2.1144 0.201715 0
M  V30 45 H 4.8932 -0.947598 0.0275949 0
M  V30 46 H 4.5992 -3.48264 -0.490381 0
M  V30 47 H 4.4732 -3.0702 -2.19132 0
M  V30 48 H 6.8602 -2.08356 -2.08978 0
M  V30 49 H 6.9412 -2.5297 -0.379448 0
M  V30 50 H 6.5852 -4.97482 -1.02341 0
M  V30 51 H 6.5152 -4.49794 -2.73848 0
M  V30 52 H 9.0062 -3.41924 -1.60924 0
M  V30 53 H 9.3192 -7.23564 -2.71433 0
M  V30 54 H 7.6642 -6.50476 -2.44757 0
M  V30 55 H 10.8552 -4.27056 -1.91679 0
M  V30 56 H 11.0282 -6.01078 -2.42093 0
M  V30 57 N 4.4343 0.785586 -1.36625 0
M  V30 58 C 5.6643 1.5722 -1.34036 0
M  V30 59 C 6.0723 1.89033 0.0795062 0
M  V30 60 O 5.4153 1.50881 1.04789 0
M  V30 61 C 5.4773 2.91759 -2.10041 0
M  V30 62 C 5.1413 2.82654 -3.59104 0
M  V30 63 C 6.1383 2.54634 -4.53274 0
M  V30 64 C 3.8233 3.01111 -4.02042 0
M  V30 65 C 5.8173 2.45177 -5.88359 0
M  V30 66 C 3.5043 2.91276 -5.37216 0
M  V30 67 C 4.5023 2.63348 -6.30188 0
M  V30 68 O 4.1903 2.53514 -7.6288 0
M  V30 69 H 3.9223 0.494177 -0.461265 0
M  V30 70 H 6.4763 0.982632 -1.8037 0
M  V30 71 H 4.7063 3.52781 -1.58375 0
M  V30 72 H 6.3953 3.53059 -2.00261 0
M  V30 73 H 7.1613 2.40073 -4.21414 0
M  V30 74 H 3.0403 3.21854 -3.30047 0
M  V30 75 H 6.5843 2.23299 -6.60896 0
M  V30 76 H 2.4813 3.054 -5.68684 0
M  V30 77 H 3.2493 2.68967 -7.73045 0
M  V30 78 N 5.9124 1.20967 1.01018 0
M  V30 79 C 7.1604 1.02172 1.74371 0
M  V30 80 C 7.4814 -0.446414 1.89821 0
M  V30 81 O 6.7514 -1.32234 1.44537 0
M  V30 82 H 5.3314 0.375066 0.646014 0
M  V30 83 H 7.9934 1.52187 1.21758 0
M  V30 84 H 7.0894 1.48538 2.74487 0
M  V30 85 N 7.3905 -1.2043 1.01659 0
M  V30 86 C 8.3535 -2.21433 0.591616 0
M  V30 87 C 9.3535 -1.57203 -0.338226 0
M  V30 88 O 10.5435 -1.73737 -0.126918 0
M  V30 89 C 7.6755 -3.40628 -0.136058 0
M  V30 90 H 8.8685 -2.60545 1.48514 0
M  V30 91 H 6.4215 -1.33893 0.806379 0
M  V30 92 H 7.1565 -3.07019 -1.04449 0
M  V30 93 H 6.9415 -3.88475 0.531917 0
M  V30 94 H 8.4315 -4.15475 -0.420735 0
M  V30 95 N 8.8686 -0.792821 -1.36206 0
M  V30 96 C 10.0936 -0.377701 -2.03932 0
M  V30 97 C 10.5186 0.998947 -1.59382 0
M  V30 98 O 9.8766 1.64421 -0.763903 0
M  V30 99 C 9.9246 -0.453635 -3.57735 0
M  V30 100 O 9.0286 0.538151 -4.08874 0
M  V30 101 H 8.3696 -0.159855 -0.644471 0
M  V30 102 H 10.8996 -1.07488 -1.7409 0
M  V30 103 H 10.9096 -0.318464 -4.06755 0
M  V30 104 H 9.5846 -1.45784 -3.89512 0
M  V30 105 H 8.1616 0.364359 -3.71116 0
M  V30 106 N 10.3467 1.47872 -0.545128 0
M  V30 107 C 11.2767 2.32661 0.197793 0
M  V30 108 C 12.2577 1.43041 0.920504 0
M  V30 109 O 13.4427 1.71912 0.90333 0
M  V30 110 C 10.5727 3.24569 1.23582 0
M  V30 111 C 9.5267 4.23333 0.630323 0
M  V30 112 C 8.8527 5.0448 1.77211 0
M  V30 113 C 10.1527 5.20704 -0.407974 0
M  V30 114 H 11.8467 2.95024 -0.510045 0
M  V30 115 H 9.3927 1.4187 -0.246731 0
M  V30 116 H 11.3457 3.8272 1.76362 0
M  V30 117 H 10.0697 2.60236 1.97344 0
M  V30 118 H 8.7287 3.6639 0.123922 0
M  V30 119 H 8.3767 4.36561 2.49847 0
M  V30 120 H 8.0767 5.71339 1.37281 0
M  V30 121 H 9.6007 5.65487 2.3034 0
M  V30 122 H 11.0147 5.7329 0.033305 0
M  V30 123 H 9.4117 5.95699 -0.725486 0
M  V30 124 H 10.4817 4.66917 -1.30828 0
M  V30 125 N 11.8248 0.280983 1.55075 0
M  V30 126 C 13.2408 -0.0729964 1.59433 0
M  V30 127 C 13.4408 -1.5411 1.29817 0
M  V30 128 O 12.4968 -2.29086 1.06187 0
M  V30 129 C 13.8098 0.306921 2.9913 0
M  V30 130 C 15.3578 0.254023 3.11968 0
M  V30 131 C 15.8328 0.608467 4.5394 0
M  V30 132 N 17.3238 0.560241 4.59799 0
M  V30 133 C 18.0588 0.80722 5.6769 0
M  V30 134 N 17.5548 1.11912 6.83701 0
M  V30 135 N 19.3478 0.735623 5.57266 0
M  V30 136 H 11.4988 1.238 1.7259 0
M  V30 137 H 13.7618 0.500547 0.805082 0
M  V30 138 H 13.4678 1.32816 3.25657 0
M  V30 139 H 13.3418 -0.349363 3.75579 0
M  V30 140 H 15.7288 -0.75794 2.852 0
M  V30 141 H 15.8098 0.944649 2.37718 0
M  V30 142 H 15.4538 1.61814 4.81434 0
M  V30 143 H 15.3838 -0.104013 5.26497 0
M  V30 144 H 17.8748 0.329288 3.76463 0
M  V30 145 H 18.1878 1.29409 7.61888 0
M  V30 146 H 16.5328 1.15695 6.85303 0
M  V30 147 H 19.7238 0.491752 4.6551 0
M  V30 148 H 19.8968 0.931482 6.4127 0
M  V30 149 N 13.3029 -1.57598 0.00835791 0
M  V30 150 C 14.2349 -2.05811 -1.00868 0
M  V30 151 C 15.2479 -0.977579 -1.30182 0
M  V30 152 O 16.4369 -1.25421 -1.27011 0
M  V30 153 C 13.5369 -2.45016 -2.34137 0
M  V30 154 C 12.7099 -3.75903 -2.23643 0
M  V30 155 C 11.7689 -4.01884 -3.3967 0
M  V30 156 O 10.7949 -4.72433 -3.17483 0
M  V30 157 N 11.9969 -3.50432 -4.62793 0
M  V30 158 H 14.7619 -2.93684 -0.597458 0
M  V30 159 H 12.3229 -1.60909 -0.178852 0
M  V30 160 H 14.3149 -2.59506 -3.10546 0
M  V30 161 H 12.8849 -1.62618 -2.66972 0
M  V30 162 H 12.1049 -3.7141 -1.32091 0
M  V30 163 H 13.3929 -4.61695 -2.13812 0
M  V30 164 H 12.7909 -2.93317 -4.83716 0
M  V30 165 H 11.3479 -3.70236 -5.3644 0
M  V30 166 N 14.781 0.264519 -1.55364 0
M  V30 167 C 16.006 1.01726 -1.80739 0
M  V30 168 C 16.431 1.78836 -0.583044 0
M  V30 169 O 15.789 1.75167 0.467566 0
M  V30 170 C 15.837 1.94482 -3.03659 0
M  V30 171 O 14.941 3.03386 -2.7934 0
M  V30 172 H 14.282 0.290395 -0.597132 0
M  V30 173 H 16.812 0.290854 -2.02522 0
M  V30 174 H 16.822 2.36278 -3.32621 0
M  V30 175 H 15.497 1.37772 -3.92418 0
M  V30 176 H 14.074 2.65844 -2.61498 0
M  V30 177 N 16.2591 1.48442 0.529413 0
M  V30 178 C 17.4991 1.58086 1.29569 0
M  V30 179 C 17.8631 0.249302 1.90375 0
M  V30 180 O 19.0641 0.220738 2.67892 0
M  V30 181 C 17.3351 2.68793 2.35552 0
M  V30 182 S 18.8941 2.98207 3.21898 0
M  V30 183 H 15.7121 0.557922 0.440732 0
M  V30 184 H 18.3141 1.85966 0.603059 0
M  V30 185 H 17.0181 3.64102 1.89363 0
M  V30 186 H 16.5491 2.42817 3.09522 0
M  V30 187 H 18.5641 2.37548 4.35644 0
M  V30 188 N 17.7372 -0.778329 1.37039 0
M  V30 189 C 19.1482 -1.35421 1.28523 0
M  V30 190 C 19.4992 -1.96075 -0.0700901 0
M  V30 191 O 18.6242 -1.93352 -0.971801 0
M  V30 192 C 19.2192 -2.46211 2.32735 0
M  V30 193 C 17.7782 -2.99585 2.27873 0
M  V30 194 C 16.9252 -1.72748 2.16918 0
M  V30 195 H 19.8762 -0.5791 1.47757 0
M  V30 196 H 19.8972 -3.2552 1.9702 0
M  V30 197 H 19.4092 -2.02036 3.31365 0
M  V30 198 H 17.5102 -3.48152 1.32745 0
M  V30 199 H 17.6232 -3.55646 3.21018 0
M  V30 200 H 15.9872 -1.95416 1.63354 0
M  V30 201 H 16.7702 -1.30686 3.17452 0
M  V30 202 N 19.2153 -1.21501 -1.00376 0
M  V30 203 C 20.6313 -0.972629 -1.26539 0
M  V30 204 C 20.8313 0.340257 -1.98606 0
M  V30 205 O 19.8873 1.06561 -2.28913 0
M  V30 206 C 21.2003 -2.16404 -2.08781 0
M  V30 207 C 22.7483 -2.20643 -2.22004 0
M  V30 208 C 23.2233 -3.39306 -3.07629 0
M  V30 209 N 24.7143 -3.39401 -3.15217 0
M  V30 210 C 25.4493 -4.27867 -3.81729 0
M  V30 211 N 24.9453 -5.26533 -4.5026 0
M  V30 212 N 26.7383 -4.15672 -3.78382 0
M  V30 213 H 18.8893 -2.05929 -0.520281 0
M  V30 214 H 21.1523 -0.901803 -0.292328 0
M  V30 215 H 20.8583 -3.11554 -1.63178 0
M  V30 216 H 20.7323 -2.15567 -3.09533 0
M  V30 217 H 23.1193 -1.26048 -2.66825 0
M  V30 218 H 23.2003 -2.25523 -1.20718 0
M  V30 219 H 22.8443 -4.34195 -2.63509 0
M  V30 220 H 22.7743 -3.31665 -4.09031 0
M  V30 221 H 25.2653 -2.67997 -2.66432 0
M  V30 222 H 25.5783 -5.90337 -4.98721 0
M  V30 223 H 23.9233 -5.30457 -4.49044 0
M  V30 224 H 27.1143 -3.3785 -3.23998 0
M  V30 225 H 27.2873 -4.84825 -4.2994 0
M  V30 226 N 20.6934 1.19889 -1.02296 0
M  V30 227 C 21.9184 1.9393 -0.735237 0
M  V30 228 C 22.3434 1.74639 0.698782 0
M  V30 229 O 21.7014 1.04481 1.48167 0
M  V30 230 C 21.7494 3.43916 -1.08417 0
M  V30 231 O 20.8534 4.11917 -0.199446 0
M  V30 232 H 20.1944 0.605645 -0.272196 0
M  V30 233 H 22.7244 1.52137 -1.36804 0
M  V30 234 H 22.7344 3.9456 -1.03856 0
M  V30 235 H 21.4094 3.5728 -2.12894 0
M  V30 236 H 19.9864 3.71666 -0.303136 0
M  V30 237 N 22.1715 0.800033 1.35784 0
M  V30 238 C 23.4195 0.376597 1.9856 0
M  V30 239 C 23.7405 -1.05812 1.63795 0
M  V30 240 O 23.0105 -1.73103 0.917171 0
M  V30 241 H 21.5905 0.136261 0.734467 0
M  V30 242 H 24.2525 1.02442 1.65806 0
M  V30 243 H 23.3485 0.477002 3.08433 0
M  V30 244 N 23.6496 -1.47581 0.552962 0
M  V30 245 C 25.0656 -1.5818 0.212424 0
M  V30 246 C 25.2656 -1.55213 -1.28496 0
M  V30 247 O 24.3216 -1.45329 -2.06484 0
M  V30 248 C 25.6346 -2.88865 0.835318 0
M  V30 249 C 27.1826 -3.0244 0.806156 0
M  V30 250 C 27.6576 -4.35819 1.40804 0
M  V30 251 N 29.1486 -4.42444 1.37103 0
M  V30 252 C 29.8836 -5.44202 1.80641 0
M  V30 253 N 29.3796 -6.52795 2.32015 0
M  V30 254 N 31.1726 -5.35222 1.71738 0
M  V30 255 H 23.3236 -1.47753 1.52587 0
M  V30 256 H 25.5866 -0.702941 0.636064 0
M  V30 257 H 25.2926 -2.9676 1.88749 0
M  V30 258 H 25.1666 -3.7579 0.325848 0
M  V30 259 H 27.5536 -2.94144 -0.237317 0
M  V30 260 H 27.6346 -2.17068 1.35334 0
M  V30 261 H 27.2786 -4.44871 2.45056 0
M  V30 262 H 27.2086 -5.19916 0.836338 0
M  V30 263 H 29.6996 -3.6456 0.995202 0
M  V30 264 H 30.0126 -7.26609 2.63171 0
M  V30 265 H 28.3576 -6.53696 2.36023 0
M  V30 266 H 31.5486 -4.49284 1.31382 0
M  V30 267 H 31.7216 -6.14389 2.05987 0
M  V30 268 N 25.1277 -0.289203 -1.54924 0
M  V30 269 C 26.0377 0.601863 -2.26748 0
M  V30 270 C 27.0537 1.15834 -1.2984 0
M  V30 271 O 28.2297 1.18564 -1.62802 0
M  V30 272 C 25.2947 1.76299 -2.98529 0
M  V30 273 C 24.3557 1.24178 -4.10948 0
M  V30 274 C 23.5887 2.34757 -4.79296 0
M  V30 275 O 23.8117 3.54411 -4.46933 0
M  V30 276 O 22.7457 2.02115 -5.66951 0
M  V30 277 H 26.5717 0.0195879 -3.03694 0
M  V30 278 H 24.1567 -0.0560868 -1.49295 0
M  V30 279 H 26.0387 2.43973 -3.43592 0
M  V30 280 H 24.7137 2.33209 -2.24488 0
M  V30 281 H 23.6207 0.531104 -3.70311 0
M  V30 282 H 24.9537 0.718252 -4.86931 0
M  V30 283 N 26.6058 1.57591 -0.0167156 0
M  V30 284 C 27.5378 2.06343 0.997753 0
M  V30 285 C 28.5508 0.984469 1.29661 0
M  V30 286 O 29.7398 1.26093 1.26344 0
M  V30 287 C 26.8398 2.46255 2.32834 0
M  V30 288 C 26.0128 3.77083 2.21646 0
M  V30 289 C 25.0718 4.0368 3.37534 0
M  V30 290 O 24.0978 4.7411 3.14973 0
M  V30 291 N 25.2998 3.52881 4.60929 0
M  V30 292 H 28.0648 2.93997 0.581875 0
M  V30 293 H 25.6258 1.61002 0.170316 0
M  V30 294 H 27.6178 2.61149 3.09166 0
M  V30 295 H 26.1878 1.64032 2.66106 0
M  V30 296 H 25.4078 3.72106 1.30119 0
M  V30 297 H 26.6958 4.62822 2.11361 0
M  V30 298 H 26.0938 2.95878 4.82154 0
M  V30 299 H 24.6508 3.73076 5.34469 0
M  V30 300 N 28.0839 -0.256276 1.55502 0
M  V30 301 C 29.3319 -0.983672 1.76545 0
M  V30 302 C 29.6529 -1.86206 0.578982 0
M  V30 303 O 28.9229 -1.91656 -0.405577 0
M  V30 304 H 27.5029 -0.366191 0.651086 0
M  V30 305 H 30.1649 -0.276479 1.92929 0
M  V30 306 H 29.2609 -1.61087 2.67315 0
M  V30 307 N 29.562 -1.4872 -0.521534 0
M  V30 308 C 30.494 -1.59968 -1.64143 0
M  V30 309 C 31.507 -0.483463 -1.55456 0
M  V30 310 O 32.696 -0.75467 -1.61762 0
M  V30 311 C 29.796 -1.52127 -3.02838 0
M  V30 312 C 28.969 -2.78932 -3.36921 0
M  V30 313 C 28.028 -2.64428 -4.54933 0
M  V30 314 O 27.054 -3.38331 -4.57735 0
M  V30 315 N 28.256 -1.74606 -5.53618 0
M  V30 316 H 31.021 -2.56548 -1.54929 0
M  V30 317 H 28.582 -1.45551 -0.708988 0
M  V30 318 H 30.574 -1.40106 -3.79674 0
M  V30 319 H 29.144 -0.634868 -3.06085 0
M  V30 320 H 28.364 -3.05455 -2.4918 0
M  V30 321 H 29.652 -3.63041 -3.56481 0
M  V30 322 H 29.05 -1.13782 -5.54139 0
M  V30 323 H 27.607 -1.6852 -6.29638 0
M  V30 324 N 31.0401 0.771051 -1.3745 0
M  V30 325 C 32.3171 1.519 -1.23231 0
M  V30 326 C 32.6971 2.10383 0.173809 0
M  V30 327 O 32.0451 1.95583 1.18151 0
M  V30 328 C 32.2551 2.59933 -2.32886 0
M  V30 329 C 33.6031 3.27316 -2.70461 0
M  V30 330 O 34.6271 2.70228 -2.32068 0
M  V30 331 O 33.4861 4.30531 -3.36608 0
M  V30 332 H 30.5801 0.672803 -0.480901 0
M  V30 333 H 33.1261 0.807957 -1.49232 0
M  V30 334 H 31.8981 2.14842 -3.27045 0
M  V30 335 H 31.5211 3.38637 -2.08353 0
M  V30 336 N 32.5182 1.22032 0.997298 0
M  V30 337 C 33.7662 1.04016 1.73278 0
M  V30 338 C 34.0872 -0.426255 1.90284 0
M  V30 339 O 33.3572 -1.30694 1.45931 0
M  V30 340 H 31.9372 0.381897 0.642 0
M  V30 341 H 34.5992 1.5347 1.20137 0
M  V30 342 H 33.6952 1.51441 2.72896 0
M  V30 343 N 33.9963 -1.19345 1.0293 0
M  V30 344 C 35.2243 -1.92997 0.745644 0
M  V30 345 C 35.6393 -1.75519 -0.695589 0
M  V30 346 O 34.9963 -1.07737 -1.47306 0
M  V30 347 C 35.0473 -3.44741 1.08792 0
M  V30 348 O 34.7683 -3.61658 2.47256 0
M  V30 349 C 36.2693 -4.35515 0.827129 0
M  V30 350 H 33.4893 -0.613042 0.272801 0
M  V30 351 H 36.0333 -1.51473 1.3739 0
M  V30 352 H 34.1883 -3.84097 0.504832 0
M  V30 353 H 34.6023 -4.55514 2.60015 0
M  V30 354 H 36.0763 -5.40589 1.11658 0
M  V30 355 H 36.5533 -4.38552 -0.238436 0
M  V30 356 H 37.1593 -4.01841 1.39297 0
M  V30 357 N 35.4744 -0.807222 -1.35358 0
M  V30 358 C 36.4374 -0.223665 -2.28106 0
M  V30 359 C 37.4374 0.589354 -1.4961 0
M  V30 360 O 38.6274 0.407745 -1.69361 0
M  V30 361 C 35.7594 0.688149 -3.33882 0
M  V30 362 H 36.9524 -1.04169 -2.81227 0
M  V30 363 H 34.5054 -0.577921 -1.45223 0
M  V30 364 H 35.2404 1.52984 -2.85948 0
M  V30 365 H 35.0254 0.10687 -3.91954 0
M  V30 366 H 36.5154 1.09075 -4.03104 0
M  V30 367 N 36.9525 1.47285 -0.560781 0
M  V30 368 C 38.2005 2.02064 -0.0379868 0
M  V30 369 C 38.5215 1.43711 1.31803 0
M  V30 370 O 37.7915 0.61362 1.86042 0
M  V30 371 H 36.3715 0.746918 -0.0110531 0
M  V30 372 H 39.0335 1.80648 -0.731598 0
M  V30 373 H 38.1295 3.12064 0.0474463 0
M  V30 374 N 38.4306 0.297415 1.54768 0
M  V30 375 C 39.3936 -0.567375 2.22066 0
M  V30 376 C 40.3936 -1.06409 1.20556 0
M  V30 377 O 41.5836 -0.960691 1.45315 0
M  V30 378 C 38.7156 -1.78517 2.90421 0
M  V30 379 H 39.9086 0.0205534 2.99893 0
M  V30 380 H 37.4616 0.0482163 1.56226 0
M  V30 381 H 38.1966 -2.41303 2.16664 0
M  V30 382 H 37.9816 -1.43669 3.64831 0
M  V30 383 H 39.4716 -2.39964 3.41771 0
M  V30 384 N 39.9087 -1.5758 0.0250728 0
M  V30 385 C 41.3197 -1.79476 -0.514323 0
M  V30 386 C 41.6707 -0.934956 -1.72491 0
M  V30 387 O 40.7957 -0.144245 -2.15919 0
M  V30 388 C 41.3907 -3.25503 -0.939842 0
M  V30 389 C 39.9497 -3.48408 -1.42438 0
M  V30 390 C 39.0967 -2.74583 -0.387201 0
M  V30 391 H 42.0477 -1.567 0.25113 0
M  V30 392 H 42.0687 -3.34992 -1.80445 0
M  V30 393 H 41.5807 -3.88056 -0.0585628 0
M  V30 394 H 39.6817 -2.91103 -2.32572 0
M  V30 395 H 39.7947 -4.57119 -1.43455 0
M  V30 396 H 38.1587 -2.39942 -0.854409 0
M  V30 397 H 38.9417 -3.39849 0.485543 0
M  V30 398 N 41.3868 0.248026 -1.55636 0
M  V30 399 C 42.6348 0.974295 -1.77065 0
M  V30 400 C 42.9558 1.85897 -0.588849 0
M  V30 401 O 42.2258 1.91868 0.395407 0
M  V30 402 H 40.8058 0.362733 -0.653019 0
M  V30 403 H 43.4678 0.266244 -1.93073 0
M  V30 404 H 42.5638 1.59667 -2.68166 0
M  V30 405 N 42.8649 1.48995 0.513639 0
M  V30 406 C 43.7949 1.67636 1.62544 0
M  V30 407 C 44.7759 0.525087 1.61793 0
M  V30 408 O 45.9609 0.759502 1.78732 0
M  V30 409 C 43.0909 1.73114 3.01079 0
M  V30 410 C 42.0449 2.87905 3.16693 0
M  V30 411 C 41.3709 2.78486 4.56453 0
M  V30 412 C 42.6709 4.29005 2.97913 0
M  V30 413 H 44.3649 2.60716 1.47198 0
M  V30 414 H 41.9109 1.25465 0.706714 0
M  V30 415 H 43.8639 1.84742 3.78746 0
M  V30 416 H 42.5879 0.766241 3.17484 0
M  V30 417 H 41.2469 2.75859 2.41448 0
M  V30 418 H 40.8949 1.7993 4.69717 0
M  V30 419 H 40.5949 3.55523 4.67843 0
M  V30 420 H 42.1189 2.92104 5.36197 0
M  V30 421 H 43.5329 4.41798 3.65359 0
M  V30 422 H 41.9299 5.07166 3.20785 0
M  V30 423 H 42.9999 4.44329 1.94165 0
M  V30 424 N 44.343 -0.763751 1.37857 0
M  V30 425 C 45.273 -1.89103 1.36975 0
M  V30 426 C 46.254 -1.68439 0.237152 0
M  V30 427 O 47.439 -1.8918 0.438713 0
M  V30 428 C 44.569 -3.26496 1.18395 0
M  V30 429 C 43.523 -3.61741 2.28751 0
M  V30 430 C 42.849 -4.97762 1.95286 0
M  V30 431 C 44.149 -3.67665 3.70972 0
M  V30 432 H 45.843 -1.90099 2.31307 0
M  V30 433 H 43.389 -0.91319 1.11341 0
M  V30 434 H 45.342 -4.05003 1.16406 0
M  V30 435 H 44.066 -3.25955 0.205215 0
M  V30 436 H 42.725 -2.85547 2.29909 0
M  V30 437 H 42.373 -4.93769 0.959221 0
M  V30 438 H 42.073 -5.22313 2.69189 0
M  V30 439 H 43.597 -5.7866 1.94898 0
M  V30 440 H 45.011 -4.36307 3.719 0
M  V30 441 H 43.408 -4.03718 4.43995 0
M  V30 442 H 44.478 -2.68134 4.0402 0
M  V30 443 N 45.8211 -1.22559 -0.990812 0
M  V30 444 C 47.0671 -1.06303 -1.73411 0
M  V30 445 C 47.4221 0.397442 -1.8825 0
M  V30 446 O 46.7151 1.29062 -1.41611 0
M  V30 447 C 46.9091 -1.71011 -3.13831 0
M  V30 448 C 46.7381 -3.232 -3.12685 0
M  V30 449 C 45.5081 -3.92314 -3.18461 0
M  V30 450 C 47.7061 -4.20107 -2.96673 0
M  V30 451 N 45.6881 -5.31571 -3.07091 0
M  V30 452 C 47.0591 -5.46208 -2.93354 0
M  V30 453 C 49.1141 -4.10973 -2.8108 0
M  V30 454 C 47.8171 -6.64225 -2.76039 0
M  V30 455 C 49.8431 -5.28642 -2.65126 0
M  V30 456 C 49.2051 -6.53663 -2.62496 0
M  V30 457 H 45.3041 -0.443441 -0.644115 0
M  V30 458 H 47.8881 -1.55131 -1.17654 0
M  V30 459 H 46.0591 -1.2473 -3.67827 0
M  V30 460 H 47.7911 -1.47828 -3.76735 0
M  V30 461 H 44.5461 -3.43326 -3.26227 0
M  V30 462 H 44.9701 -6.0455 -3.0471 0
M  V30 463 H 49.6121 -3.15098 -2.8191 0
M  V30 464 H 47.3301 -7.60246 -2.73954 0
M  V30 465 H 50.9161 -5.23407 -2.54039 0
M  V30 466 H 49.7961 -7.43182 -2.50302 0
M  V30 467 N 47.2992 1.18797 -1.03562 0
M  V30 468 C 48.2322 2.2105 -0.56676 0
M  V30 469 C 49.2102 1.57704 0.395993 0
M  V30 470 O 50.3942 1.85908 0.311498 0
M  V30 471 C 47.5212 3.38259 0.172704 0
M  V30 472 C 46.5672 4.19987 -0.74252 0
M  V30 473 S 47.4002 4.87199 -2.22254 0
M  V30 474 C 48.5562 6.07813 -1.49379 0
M  V30 475 H 48.7892 2.60478 -1.43312 0
M  V30 476 H 46.3222 1.29151 -0.846133 0
M  V30 477 H 48.2802 4.06191 0.593191 0
M  V30 478 H 46.9412 2.97252 1.01488 0
M  V30 479 H 46.1342 5.03709 -0.171265 0
M  V30 480 H 45.7362 3.57408 -1.10163 0
M  V30 481 H 48.0282 6.72948 -0.784056 0
M  V30 482 H 48.9712 6.69435 -2.30786 0
M  V30 483 H 49.3792 5.55781 -0.988331 0
M  V30 484 N 48.7773 0.814389 1.34928 0
M  V30 485 C 50.0253 0.397636 1.9815 0
M  V30 486 C 50.3463 -1.04069 1.64908 0
M  V30 487 O 49.6163 -1.72121 0.93548 0
M  V30 488 H 48.1963 0.144043 0.732981 0
M  V30 489 H 50.8583 1.04195 1.6471 0
M  V30 490 H 49.9543 0.509688 3.0791 0
M  V30 491 N 50.2554 -1.46986 0.568584 0
M  V30 492 C 51.1854 -2.32946 -0.160753 0
M  V30 493 C 52.1664 -1.44487 -0.897631 0
M  V30 494 O 53.3514 -1.73327 -0.875867 0
M  V30 495 C 50.4814 -3.26494 -1.18403 0
M  V30 496 C 49.4354 -4.24282 -0.562895 0
M  V30 497 C 48.7614 -5.07236 -1.69163 0
M  V30 498 C 50.0614 -5.19989 0.490761 0
M  V30 499 H 51.7554 -2.94175 0.556916 0
M  V30 500 H 49.3014 -1.4146 0.26927 0
M  V30 501 H 51.2544 -3.85477 -1.70251 0
M  V30 502 H 49.9784 -2.63343 -1.93179 0
M  V30 503 H 48.6374 -3.66541 -0.0656164 0
M  V30 504 H 48.2854 -4.4048 -2.42871 0
M  V30 505 H 47.9854 -5.7345 -1.28174 0
M  V30 506 H 49.5094 -5.6908 -2.21314 0
M  V30 507 H 50.9234 -5.73271 0.0579047 0
M  V30 508 H 49.3204 -5.94469 0.820165 0
M  V30 509 H 50.3904 -4.64777 1.3824 0
M  V30 510 N 51.7335 -0.305618 -1.54608 0
M  V30 511 C 52.9795 0.302746 -2.00528 0
M  V30 512 C 53.3125 1.53184 -1.19367 0
M  V30 513 O 52.5875 1.92598 -0.271321 0
M  V30 514 C 52.8705 0.654756 -3.54097 0
M  V30 515 C 52.7235 -0.583793 -4.45995 0
M  V30 516 C 54.0425 1.47947 -4.14487 0
M  V30 517 H 51.1615 0.108564 -0.72896 0
M  V30 518 H 53.8035 -0.418634 -1.85331 0
M  V30 519 H 51.9535 1.26935 -3.67178 0
M  V30 520 H 53.6255 -1.22224 -4.44814 0
M  V30 521 H 51.8685 -1.21615 -4.16404 0
M  V30 522 H 52.5395 -0.293287 -5.5122 0
M  V30 523 H 55.0155 0.96013 -4.04871 0
M  V30 524 H 53.8915 1.69454 -5.22088 0
M  V30 525 H 54.1525 2.47011 -3.66658 0
M  V30 526 N 53.2116 1.57565 -0.0334293 0
M  V30 527 C 54.1416 2.13511 0.945265 0
M  V30 528 C 55.1226 1.05231 1.33643 0
M  V30 529 O 56.3076 1.33084 1.41429 0
M  V30 530 C 53.4376 2.6657 2.22616 0
M  V30 531 C 52.3916 3.79676 1.97561 0
M  V30 532 C 51.7176 4.1918 3.31952 0
M  V30 533 C 53.0176 5.0557 1.31135 0
M  V30 534 H 54.7116 2.95538 0.479325 0
M  V30 535 H 52.2576 1.42166 0.229115 0
M  V30 536 H 54.2106 3.04344 2.91466 0
M  V30 537 H 52.9346 1.8171 2.71384 0
M  V30 538 H 51.5936 3.42347 1.31127 0
M  V30 539 H 51.2416 3.31296 3.78487 0
M  V30 540 H 50.9416 4.95402 3.15992 0
M  V30 541 H 52.4656 4.59541 4.02063 0
M  V30 542 H 53.8796 5.40903 1.89992 0
M  V30 543 H 52.2766 5.86818 1.25559 0
M  V30 544 H 53.3466 4.84062 0.284894 0
M  V30 545 N 54.6897 -0.239769 1.55765 0
M  V30 546 C 55.6527 -1.28038 1.90103 0
M  V30 547 C 56.6527 -1.40723 0.778055 0
M  V30 548 O 57.8427 -1.39301 1.04599 0
M  V30 549 C 54.9747 -2.65702 2.13577 0
M  V30 550 H 56.1677 -0.988048 2.83157 0
M  V30 551 H 53.7207 -0.479382 1.48767 0
M  V30 552 H 54.4557 -3.00063 1.23015 0
M  V30 553 H 54.2407 -2.57875 2.95369 0
M  V30 554 H 55.7307 -3.40828 2.41301 0
M  V30 555 N 56.1678 -1.49265 -0.50573 0
M  V30 556 C 57.0978 -1.68495 -1.61653 0
M  V30 557 C 58.0788 -0.53366 -1.61512 0
M  V30 558 O 59.2638 -0.76897 -1.78327 0
M  V30 559 C 56.3938 -1.74709 -3.00157 0
M  V30 560 C 55.3478 -2.89581 -3.15162 0
M  V30 561 C 54.6738 -2.80903 -4.5497 0
M  V30 562 C 55.9738 -4.30578 -2.95634 0
M  V30 563 H 57.6678 -2.61493 -1.45814 0
M  V30 564 H 55.2138 -1.25838 -0.70005 0
M  V30 565 H 57.1668 -1.86748 -3.77761 0
M  V30 566 H 55.8908 -0.783067 -3.17074 0
M  V30 567 H 54.5498 -2.77136 -2.39982 0
M  V30 568 H 54.1978 -1.82419 -4.68756 0
M  V30 569 H 53.8978 -3.57999 -4.65951 0
M  V30 570 H 55.4218 -2.94944 -5.34641 0
M  V30 571 H 56.8358 -4.4373 -3.63011 0
M  V30 572 H 55.2328 -5.0886 -3.18091 0
M  V30 573 H 56.3028 -4.45352 -1.91806 0
M  V30 574 N 57.6459 0.756429 -1.3826 0
M  V30 575 C 58.6089 1.85176 -1.35065 0
M  V30 576 C 59.6089 1.58818 -0.251703 0
M  V30 577 O 60.7989 1.66615 -0.508433 0
M  V30 578 C 57.9309 3.22596 -1.10201 0
M  V30 579 H 59.1239 1.89417 -2.3251 0
M  V30 580 H 56.6769 0.95783 -1.23512 0
M  V30 581 H 57.4119 3.24025 -0.133504 0
M  V30 582 H 57.1969 3.43122 -1.89762 0
M  V30 583 H 58.6869 4.02673 -1.10654 0
M  V30 584 N 59.124 1.23083 0.984299 0
M  V30 585 C 60.054 1.03292 2.09411 0
M  V30 586 C 61.035 -0.048923 1.7003 0
M  V30 587 O 62.22 0.114967 1.93859 0
M  V30 588 C 59.35 0.619155 3.41736 0
M  V30 589 C 58.304 1.64791 3.95004 0
M  V30 590 C 57.63 1.0897 5.23478 0
M  V30 591 C 58.93 3.03999 4.24714 0
M  V30 592 H 60.624 1.96119 2.26225 0
M  V30 593 H 58.17 0.944344 1.08711 0
M  V30 594 H 60.123 0.467777 4.18796 0
M  V30 595 H 58.847 -0.344786 3.24775 0
M  V30 596 H 57.506 1.78721 3.20085 0
M  V30 597 H 57.154 0.11686 5.02864 0
M  V30 598 H 56.854 1.77704 5.60085 0
M  V30 599 H 58.378 0.950093 6.03163 0
M  V30 600 H 59.792 2.93393 4.92538 0
M  V30 601 H 58.189 3.69936 4.72512 0
M  V30 602 H 59.259 3.53285 3.32142 0
M  V30 603 N 60.6021 -1.18246 1.0419 0
M  V30 604 C 61.5651 -2.20128 0.638452 0
M  V30 605 C 62.5651 -1.57885 -0.304805 0
M  V30 606 O 63.7551 -1.73967 -0.0900369 0
M  V30 607 C 60.8871 -3.4084 -0.0637751 0
M  V30 608 H 62.0801 -2.57336 1.54007 0
M  V30 609 H 59.6331 -1.32152 0.834598 0
M  V30 610 H 60.3681 -3.09166 -0.979136 0
M  V30 611 H 60.1531 -3.8726 0.614198 0
M  V30 612 H 61.6431 -4.16274 -0.332512 0
M  V30 613 N 62.0802 -0.821533 -1.34494 0
M  V30 614 C 63.0102 -0.257138 -2.3208 0
M  V30 615 C 63.9912 0.625645 -1.58176 0
M  V30 616 O 65.1762 0.552811 -1.86166 0
M  V30 617 C 62.3062 0.582958 -3.42372 0
M  V30 618 C 61.2602 -0.202571 -4.2752 0
M  V30 619 C 60.5862 0.760179 -5.29269 0
M  V30 620 C 61.8862 -1.40998 -5.02908 0
M  V30 621 H 63.5802 -1.07247 -2.79532 0
M  V30 622 H 61.1262 -0.517163 -1.34393 0
M  V30 623 H 63.0792 0.987972 -4.09655 0
M  V30 624 H 61.8032 1.43133 -2.93565 0
M  V30 625 H 60.4622 -0.588936 -3.61838 0
M  V30 626 H 60.1102 1.60447 -4.76724 0
M  V30 627 H 59.8102 0.238809 -5.87115 0
M  V30 628 H 61.3342 1.16308 -5.9942 0
M  V30 629 H 62.7482 -1.07905 -5.63054 0
M  V30 630 H 61.1452 -1.86689 -5.70322 0
M  V30 631 H 62.2152 -2.1889 -4.32684 0
M  V30 632 N 63.5583 1.46682 -0.576371 0
M  V30 633 C 64.5213 2.28707 0.150239 0
M  V30 634 C 65.5213 1.38035 0.824794 0
M  V30 635 O 66.7113 1.60476 0.677719 0
M  V30 636 C 63.8433 3.18248 1.22192 0
M  V30 637 H 65.0363 2.94423 -0.570521 0
M  V30 638 H 62.5893 1.52688 -0.334078 0
M  V30 639 H 63.3243 2.57265 1.97447 0
M  V30 640 H 63.1093 3.85 0.742812 0
M  V30 641 H 64.5993 3.80001 1.73172 0
M  V30 642 N 65.0364 0.313813 1.54444 0
M  V30 643 C 65.9664 -0.549454 2.26943 0
M  V30 644 C 66.9474 -1.12741 1.27372 0
M  V30 645 O 68.1324 -1.15436 1.56167 0
M  V30 646 C 65.2624 -1.71523 3.01989 0
M  V30 647 C 64.2164 -1.26703 4.08816 0
M  V30 648 C 63.5424 -2.51898 4.71647 0
M  V30 649 C 64.8424 -0.388962 5.2085 0
M  V30 650 H 66.5364 0.0552661 2.99349 0
M  V30 651 H 64.0824 0.0280207 1.43973 0
M  V30 652 H 66.0354 -2.32535 3.51433 0
M  V30 653 H 64.7594 -2.34639 2.27183 0
M  V30 654 H 63.4184 -0.679896 3.6024 0
M  V30 655 H 63.0664 -3.13356 3.93468 0
M  V30 656 H 62.7664 -2.22605 5.43802 0
M  V30 657 H 64.2904 -3.1369 5.23861 0
M  V30 658 H 65.7044 -0.905107 5.6611 0
M  V30 659 H 64.1014 -0.18924 5.99802 0
M  V30 660 H 65.1714 0.582699 4.81386 0
M  V30 661 N 66.5145 -1.57545 0.0417849 0
M  V30 662 C 67.4775 -2.09885 -0.92093 0
M  V30 663 C 68.4775 -1.01648 -1.24596 0
M  V30 664 O 69.6675 -1.27759 -1.1842 0
M  V30 665 C 66.7995 -2.57527 -2.23367 0
M  V30 666 H 67.9925 -2.96236 -0.467382 0
M  V30 667 H 65.5455 -1.5493 -0.206467 0
M  V30 668 H 66.2805 -1.74542 -2.73323 0
M  V30 669 H 66.0655 -3.36613 -2.01083 0
M  V30 670 H 67.5555 -2.98201 -2.92346 0
M  V30 671 N 67.9926 0.231505 -1.5589 0
M  V30 672 C 68.9226 1.29022 -1.94617 0
M  V30 673 C 69.9036 1.4941 -0.813067 0
M  V30 674 O 71.0886 1.6176 -1.07459 0
M  V30 675 C 68.2186 2.64199 -2.25424 0
M  V30 676 C 67.1726 2.58484 -3.41131 0
M  V30 677 C 66.4986 3.97599 -3.57518 0
M  V30 678 C 67.7986 2.1413 -4.76388 0
M  V30 679 H 69.4926 0.968563 -2.83301 0
M  V30 680 H 67.0386 0.464479 -1.36303 0
M  V30 681 H 68.9916 3.38413 -2.51107 0
M  V30 682 H 67.7156 2.98032 -1.33583 0
M  V30 683 H 66.3746 1.86727 -3.15481 0
M  V30 684 H 66.0226 4.28723 -2.6307 0
M  V30 685 H 65.7226 3.94659 -4.35337 0
M  V30 686 H 67.2466 4.7349 -3.85538 0
M  V30 687 H 68.6606 2.78083 -5.01341 0
M  V30 688 H 67.0576 2.2227 -5.57419 0
M  V30 689 H 68.1276 1.09331 -4.72414 0
M  V30 690 N 69.4707 1.49531 0.497807 0
M  V30 691 C 70.6957 1.63159 1.28039 0
M  V30 692 C 71.1207 0.30418 1.85624 0
M  V30 693 O 70.4787 -0.728618 1.66015 0
M  V30 694 C 70.5267 2.70537 2.38416 0
M  V30 695 O 69.6307 2.29931 3.42353 0
M  V30 696 H 68.9717 0.546001 0.377861 0
M  V30 697 H 71.5017 1.9574 0.59558 0
M  V30 698 H 71.5117 2.92802 2.84132 0
M  V30 699 H 70.1867 3.6689 1.95869 0
M  V30 700 H 68.7637 2.18009 3.02533 0
M  V30 701 N 70.9488 -0.749086 1.3866 0
M  V30 702 C 72.2258 -1.4992 1.25632 0
M  V30 703 C 72.6058 -2.10633 -0.140317 0
M  V30 704 O 71.9538 -1.97437 -1.15025 0
M  V30 705 C 72.1638 -2.56195 2.36992 0
M  V30 706 C 73.5118 -3.22972 2.75634 0
M  V30 707 O 74.5358 -2.66502 2.36337 0
M  V30 708 O 73.3948 -4.25122 3.43415 0
M  V30 709 H 70.4888 -0.665067 0.491544 0
M  V30 710 H 73.0348 -0.784113 1.50498 0
M  V30 711 H 71.8068 -2.09612 3.30422 0
M  V30 712 H 71.4298 -3.35279 2.13714 0
M  V30 713 N 72.4269 -1.23603 -0.977757 0
M  V30 714 C 73.6519 -1.09735 -1.75991 0
M  V30 715 C 74.0769 0.346858 -1.84874 0
M  V30 716 O 73.4349 1.25093 -1.3123 0
M  V30 717 C 73.4829 -1.73051 -3.16363 0
M  V30 718 O 72.5869 -0.994452 -4.0023 0
M  V30 719 H 71.9279 -0.384476 -0.541364 0
M  V30 720 H 74.4579 -1.6371 -1.2272 0
M  V30 721 H 74.4679 -1.78398 -3.66931 0
M  V30 722 H 73.1429 -2.78137 -3.09213 0
M  V30 723 H 71.7199 -1.01812 -3.58732 0
M  V30 724 N 73.905 1.17692 -1.04816 0
M  V30 725 C 75.321 1.39863 -0.768794 0
M  V30 726 C 75.521 1.91118 0.638451 0
M  V30 727 O 74.577 2.10036 1.40146 0
M  V30 728 C 75.89 2.39274 -1.82122 0
M  V30 729 C 77.438 2.52987 -1.843 0
M  V30 730 C 77.913 3.55669 -2.88555 0
M  V30 731 N 79.404 3.63183 -2.87493 0
M  V30 732 C 80.139 4.42381 -3.64811 0
M  V30 733 N 79.635 5.25125 -4.51903 0
M  V30 734 N 81.428 4.37217 -3.53267 0
M  V30 735 H 73.579 0.82752 -1.95617 0
M  V30 736 H 75.842 0.426123 -0.846831 0
M  V30 737 H 75.548 2.08678 -2.83102 0
M  V30 738 H 75.422 3.38725 -1.65967 0
M  V30 739 H 77.809 2.82896 -0.839869 0
M  V30 740 H 77.89 1.53623 -2.04532 0
M  V30 741 H 77.534 3.26499 -3.89051 0
M  V30 742 H 77.464 4.54728 -2.65575 0
M  V30 743 H 79.955 3.04103 -2.24343 0
M  V30 744 H 80.268 5.82728 -5.07591 0
M  V30 745 H 78.613 5.24519 -4.55966 0
M  V30 746 H 81.804 3.71626 -2.84625 0
M  V30 747 H 81.977 4.98696 -4.13771 0
M  V30 748 N 75.3831 0.828654 1.34056 0
M  V30 749 C 76.6291 0.42008 1.98402 0
M  V30 750 C 76.9621 -1.01564 1.65525 0
M  V30 751 O 76.2371 -1.70834 0.929831 0
M  V30 752 C 76.5201 0.62927 3.54559 0
M  V30 753 C 76.3731 2.11152 3.97159 0
M  V30 754 C 77.6921 0.0688756 4.40046 0
M  V30 755 H 74.8111 0.154104 0.720709 0
M  V30 756 H 77.4531 1.04228 1.5886 0
M  V30 757 H 75.6031 0.0996418 3.88372 0
M  V30 758 H 77.2751 2.70522 3.73651 0
M  V30 759 H 75.5181 2.59985 3.47261 0
M  V30 760 H 76.1891 2.20868 5.05887 0
M  V30 761 H 78.6651 0.521458 4.1282 0
M  V30 762 H 77.5411 0.245006 5.48353 0
M  V30 763 H 77.8021 -1.0266 4.30015 0
M  V30 764 N 76.8612 -1.46375 0.584142 0
M  V30 765 C 77.7912 -2.33103 -0.136037 0
M  V30 766 C 78.7722 -1.45431 -0.882255 0
M  V30 767 O 79.9572 -1.74246 -0.857434 0
M  V30 768 C 77.0872 -3.27731 -1.14933 0
M  V30 769 C 76.0412 -4.24855 -0.517862 0
M  V30 770 C 75.3672 -5.09001 -1.63773 0
M  V30 771 C 76.6672 -5.19439 0.545886 0
M  V30 772 H 78.3612 -2.93568 0.588086 0
M  V30 773 H 75.9072 -1.41166 0.284259 0
M  V30 774 H 77.8602 -3.87261 -1.66153 0
M  V30 775 H 76.5842 -2.65377 -1.90375 0
M  V30 776 H 75.2432 -3.6659 -0.0267361 0
M  V30 777 H 74.8912 -4.43031 -2.38185 0
M  V30 778 H 74.5912 -5.74777 -1.22085 0
M  V30 779 H 76.1152 -5.71396 -2.15266 0
M  V30 780 H 77.5292 -5.73177 0.118704 0
M  V30 781 H 75.9262 -5.93566 0.88317 0
M  V30 782 H 76.9962 -4.63285 1.43162 0
M  V30 783 N 78.3393 -0.321999 -1.54275 0
M  V30 784 C 79.5853 0.274234 -2.01543 0
M  V30 785 C 79.9403 1.499 -1.20614 0
M  V30 786 O 79.2333 1.89546 -0.279804 0
M  V30 787 C 79.4273 0.661769 -3.5122 0
M  V30 788 C 79.2563 -0.523892 -4.46638 0
M  V30 789 C 78.0263 -1.02251 -4.94846 0
M  V30 790 C 80.2243 -1.37558 -4.95563 0
M  V30 791 N 78.2063 -2.17274 -5.74165 0
M  V30 792 C 79.5773 -2.37301 -5.7279 0
M  V30 793 C 81.6323 -1.40353 -4.77709 0
M  V30 794 C 80.3353 -3.3964 -6.34064 0
M  V30 795 C 82.3613 -2.41562 -5.39817 0
M  V30 796 C 81.7233 -3.40031 -6.16894 0
M  V30 797 H 77.8223 0.0642367 -0.779357 0
M  V30 798 H 80.4063 -0.456683 -1.89268 0
M  V30 799 H 78.5773 1.36182 -3.63743 0
M  V30 800 H 80.3093 1.23934 -3.85256 0
M  V30 801 H 77.0643 -0.594046 -4.6986 0
M  V30 802 H 77.4883 -2.75289 -6.18502 0
M  V30 803 H 82.1303 -0.655907 -4.17681 0
M  V30 804 H 79.8483 -4.15309 -6.93213 0
M  V30 805 H 83.4343 -2.44524 -5.2792 0
M  V30 806 H 82.3143 -4.17063 -6.64099 0
M  V30 807 N 79.8174 1.5752 -0.0501392 0
M  V30 808 C 80.7804 2.1037 0.909786 0
M  V30 809 C 81.7804 1.02308 1.24056 0
M  V30 810 O 82.9704 1.28385 1.17741 0
M  V30 811 C 80.1024 2.58708 2.21998 0
M  V30 812 H 81.2954 2.96479 0.451665 0
M  V30 813 H 78.8484 1.55038 0.198248 0
M  V30 814 H 79.5834 1.75989 2.72394 0
M  V30 815 H 79.3684 3.37675 1.99295 0
M  V30 816 H 80.8584 2.99747 2.9076 0
M  V30 817 N 81.2955 -0.223234 1.56011 0
M  V30 818 C 82.7065 -0.790368 1.69145 0
M  V30 819 C 83.0575 -1.85055 0.651845 0
M  V30 820 O 82.1825 -2.15498 -0.197359 0
M  V30 821 C 82.7775 -1.4404 3.06656 0
M  V30 822 C 81.3365 -1.95494 3.2165 0
M  V30 823 C 80.4835 -0.814506 2.65068 0
M  V30 824 H 83.4345 0.00139011 1.587 0
M  V30 825 H 83.4555 -2.30916 3.0242 0
M  V30 826 H 82.9675 -0.668543 3.82298 0
M  V30 827 H 81.0685 -2.75487 2.50874 0
M  V30 828 H 81.1815 -2.13607 4.28846 0
M  V30 829 H 79.5455 -1.22137 2.23505 0
M  V30 830 H 80.3285 -0.0553515 3.43255 0
M  V30 831 N 82.7736 -1.49793 -0.48987 0
M  V30 832 C 83.7366 -1.66752 -1.57246 0
M  V30 833 C 84.7366 -0.538867 -1.51502 0
M  V30 834 O 85.9266 -0.805545 -1.54456 0
M  V30 835 C 83.0586 -1.67528 -2.96896 0
M  V30 836 H 84.2516 -2.63321 -1.43534 0
M  V30 837 H 81.8046 -1.38992 -0.714914 0
M  V30 838 H 82.5396 -0.725837 -3.16073 0
M  V30 839 H 82.3246 -2.49504 -3.02473 0
M  V30 840 H 83.8146 -1.82667 -3.7553 0
M  V30 841 N 84.2517 0.741722 -1.39055 0
M  V30 842 C 85.1617 1.88621 -1.39496 0
M  V30 843 C 86.1777 1.71557 -0.290578 0
M  V30 844 O 87.3537 1.94275 -0.530954 0
M  V30 845 C 84.4187 3.24134 -1.23037 0
M  V30 846 C 83.4797 3.5364 -2.43387 0
M  V30 847 C 82.7127 4.82687 -2.27703 0
M  V30 848 O 82.9357 5.55922 -1.27696 0
M  V30 849 O 81.8697 5.1194 -3.16545 0
M  V30 850 H 85.6957 1.91203 -2.35956 0
M  V30 851 H 83.2807 0.888625 -1.20099 0
M  V30 852 H 85.1627 4.0513 -1.15964 0
M  V30 853 H 83.8377 3.22337 -0.296691 0
M  V30 854 H 82.7447 2.72758 -2.56035 0
M  V30 855 H 84.0777 3.60209 -3.35425 0
M  V30 856 N 85.7298 1.2412 0.971189 0
M  V30 857 C 86.6928 1.03156 2.04674 0
M  V30 858 C 87.6928 -0.00990322 1.60797 0
M  V30 859 O 88.8828 0.230729 1.72665 0
M  V30 860 C 86.0148 0.562765 3.36223 0
M  V30 861 H 87.2078 1.98614 2.24705 0
M  V30 862 H 84.7608 1.06293 1.14593 0
M  V30 863 H 85.4958 -0.395176 3.21883 0
M  V30 864 H 85.2808 1.31441 3.69413 0
M  V30 865 H 86.7708 0.437015 4.15307 0
M  V30 866 N 87.2079 -1.17134 1.05439 0
M  V30 867 C 88.1579 -2.1919 0.627675 0
M  V30 868 C 89.1419 -1.57328 -0.337147 0
M  V30 869 O 90.3339 -1.76329 -0.153976 0
M  V30 870 C 87.4629 -3.43299 0.00651435 0
M  V30 871 C 86.5489 -4.12255 0.995312 0
M  V30 872 N 86.9399 -4.56997 2.16765 0
M  V30 873 C 85.2379 -4.38316 0.824336 0
M  V30 874 C 85.9389 -5.10239 2.7934 0
M  V30 875 N 84.9149 -5.02595 2.07122 0
M  V30 876 H 88.7169 -2.5149 1.52086 0
M  V30 877 H 86.2309 -1.33491 0.924868 0
M  V30 878 H 88.2279 -4.15693 -0.316965 0
M  V30 879 H 86.8879 -3.1249 -0.882033 0
M  V30 880 H 87.8989 -4.51006 2.54587 0
M  V30 881 H 84.5759 -4.17498 -0.0129526 0
M  V30 882 H 85.9659 -5.54961 3.78772 0
M  V30 883 N 88.686 -0.835752 -1.33615 0
M  V30 884 C 90.097 -0.487099 -1.80234 0
M  V30 885 C 90.448 0.993627 -1.69179 0
M  V30 886 O 89.573 1.77403 -1.23924 0
M  V30 887 C 90.168 -0.877385 -3.27242 0
M  V30 888 C 88.727 -0.580915 -3.7189 0
M  V30 889 C 87.874 -1.0874 -2.5509 0
M  V30 890 H 90.825 -1.02474 -1.2118 0
M  V30 891 H 90.846 -0.186195 -3.80044 0
M  V30 892 H 90.358 -1.95512 -3.35256 0
M  V30 893 H 88.459 0.486881 -3.69405 0
M  V30 894 H 88.572 -1.13396 -4.65487 0
M  V30 895 H 86.936 -0.508392 -2.49575 0
M  V30 896 H 87.719 -2.17184 -2.65868 0
M  V30 897 N 90.1641 1.46063 -0.591896 0
M  V30 898 C 91.0941 2.33172 0.123673 0
M  V30 899 C 92.0751 1.45897 0.87453 0
M  V30 900 O 93.2601 1.74698 0.848181 0
M  V30 901 C 90.3901 3.28336 1.13194 0
M  V30 902 C 89.3441 4.25124 0.495324 0
M  V30 903 C 88.6701 5.09863 1.61071 0
M  V30 904 C 89.9701 5.19143 -0.573425 0
M  V30 905 H 91.6641 2.93252 -0.603646 0
M  V30 906 H 89.2101 1.41014 -0.291741 0
M  V30 907 H 91.1631 3.88137 1.64097 0
M  V30 908 H 89.8871 2.66383 1.88965 0
M  V30 909 H 88.5461 3.66599 0.00729452 0
M  V30 910 H 88.1941 4.44288 2.35832 0
M  V30 911 H 87.8941 5.75417 1.19035 0
M  V30 912 H 89.4181 5.72529 2.12233 0
M  V30 913 H 90.8321 5.73106 -0.1491 0
M  V30 914 H 89.2291 5.93089 -0.914636 0
M  V30 915 H 90.2991 4.62519 -1.45617 0
M  V30 916 N 91.6422 0.330177 1.54103 0
M  V30 917 C 92.8672 -0.274893 2.0557 0
M  V30 918 C 93.2922 -1.44487 1.20437 0
M  V30 919 O 92.6502 -1.80021 0.214991 0
M  V30 920 C 92.6982 -0.68079 3.54115 0
M  V30 921 O 91.8022 -1.7824 3.71893 0
M  V30 922 H 91.1432 -0.0483849 0.662235 0
M  V30 923 H 93.6732 0.480508 1.98878 0
M  V30 924 H 93.6832 -0.961635 3.96505 0
M  V30 925 H 92.3582 0.174903 4.15532 0
M  V30 926 H 90.9352 -1.49985 3.41407 0
M  V30 927 N 93.1203 -1.57491 0.0584922 0
M  V30 928 C 94.5313 -1.80526 -0.476138 0
M  V30 929 C 94.8823 -0.971334 -1.70469 0
M  V30 930 O 94.0073 -0.190012 -2.15564 0
M  V30 931 C 94.6023 -3.27424 -0.870587 0
M  V30 932 C 93.1613 -3.51351 -1.35015 0
M  V30 933 C 92.3083 -2.75343 -0.32887 0
M  V30 934 H 95.2593 -1.56133 0.284312 0
M  V30 935 H 95.2803 -3.38745 -1.73299 0
M  V30 936 H 94.7923 -3.88093 0.0237627 0
M  V30 937 H 92.8933 -2.95971 -2.26345 0
M  V30 938 H 93.0063 -4.60059 -1.33726 0
M  V30 939 H 91.3703 -2.417 -0.803321 0
M  V30 940 H 92.1533 -3.38743 0.557521 0
M  V30 941 N 94.5984 0.214957 -1.56127 0
M  V30 942 C 95.5304 1.29004 -1.89448 0
M  V30 943 C 96.5434 1.42716 -0.783326 0
M  V30 944 O 97.7324 1.43496 -1.06166 0
M  V30 945 C 94.8324 2.66482 -2.09381 0
M  V30 946 C 94.0054 2.74633 -3.40434 0
M  V30 947 C 93.0644 3.9317 -3.49719 0
M  V30 948 O 92.0904 3.812 -4.227 0
M  V30 949 N 93.2924 5.07765 -2.81346 0
M  V30 950 H 96.0574 1.00743 -2.82261 0
M  V30 951 H 93.6184 0.40497 -1.56753 0
M  V30 952 H 95.6104 3.44173 -2.12901 0
M  V30 953 H 94.1804 2.87314 -1.23163 0
M  V30 954 H 93.4004 1.83368 -3.48955 0
M  V30 955 H 94.6884 2.77054 -4.26754 0
M  V30 956 H 94.0864 5.20386 -2.21843 0
M  V30 957 H 92.6434 5.83474 -2.90519 0
M  V30 958 N 96.0765 1.50051 0.48192 0
M  V30 959 C 97.3245 1.60181 1.23234 0
M  V30 960 C 97.6455 0.299176 1.92691 0
M  V30 961 O 96.9155 -0.682708 1.83619 0
M  V30 962 H 95.4955 0.590232 0.457859 0
M  V30 963 H 98.1575 1.86775 0.556881 0
M  V30 964 H 97.2535 2.40753 1.98607 0
M  V30 965 N 97.5546 -0.734337 1.39446 0
M  V30 966 C 98.5046 -1.83949 1.34709 0
M  V30 967 C 99.4886 -1.59279 0.227851 0
M  V30 968 O 100.681 -1.70771 0.465438 0
M  V30 969 C 97.8096 -3.21884 1.19356 0
M  V30 970 C 96.8956 -3.52381 2.35984 0
M  V30 971 N 97.2866 -3.53811 3.61457 0
M  V30 972 C 95.5846 -3.82747 2.28956 0
M  V30 973 C 96.2856 -3.82122 4.38586 0
M  V30 974 N 95.2616 -3.9993 3.68181 0
M  V30 975 H 99.0636 -1.83361 2.29687 0
M  V30 976 H 96.5776 -0.932609 1.32952 0
M  V30 977 H 98.5746 -4.00998 1.14046 0
M  V30 978 H 97.2346 -3.23711 0.253295 0
M  V30 979 H 98.2456 -3.35107 3.94872 0
M  V30 980 H 94.9226 -3.92175 1.43194 0
M  V30 981 H 96.3126 -3.89691 5.47349 0
M  V30 982 N 99.0327 -1.24633 -0.964593 0
M  V30 983 C 100.444 -1.08045 -1.5226 0
M  V30 984 C 100.795 0.347116 -1.93105 0
M  V30 985 O 99.9197 1.23588 -1.77637 0
M  V30 986 C 100.515 -1.95514 -2.76695 0
M  V30 987 C 99.0737 -1.8314 -3.28841 0
M  V30 988 C 98.2207 -1.90262 -2.01732 0
M  V30 989 H 101.172 -1.38064 -0.782553 0
M  V30 990 H 101.193 -1.48925 -3.50145 0
M  V30 991 H 100.705 -2.99407 -2.46936 0
M  V30 992 H 98.8057 -0.82092 -3.63444 0
M  V30 993 H 98.9187 -2.67406 -3.97531 0
M  V30 994 H 97.2827 -1.34027 -2.16584 0
M  V30 995 H 98.0657 -2.9574 -1.74334 0
M  V30 996 N 100.511 1.16574 -1.06058 0
M  V30 997 C 101.474 2.19085 -0.673392 0
M  V30 998 C 102.474 1.5835 0.279648 0
M  V30 999 O 103.664 1.74088 0.0623488 0
M  V30 1000 C 100.796 3.40899 0.00954234 0
M  V30 1001 H 101.989 2.54853 -1.58081 0
M  V30 1002 H 99.5418 1.30808 -0.855516 0
M  V30 1003 H 100.277 3.10684 0.929826 0
M  V30 1004 H 100.062 3.86233 -0.67573 0
M  V30 1005 H 101.552 4.1675 0.266245 0
M  V30 1006 N 101.989 0.842826 1.3317 0
M  V30 1007 C 103.405 0.531128 1.50503 0
M  V30 1008 C 103.605 -0.940734 1.78192 0
M  V30 1009 O 102.661 -1.72436 1.84451 0
M  V30 1010 C 103.974 1.40789 2.65705 0
M  V30 1011 C 105.522 1.40708 2.79589 0
M  V30 1012 C 105.997 2.26878 3.97857 0
M  V30 1013 N 107.488 2.24609 4.05099 0
M  V30 1014 C 108.223 2.88019 4.95815 0
M  V30 1015 N 107.719 3.60496 5.9162 0
M  V30 1016 N 109.512 2.77469 4.88843 0
M  V30 1017 H 101.663 1.79557 1.1346 0
M  V30 1018 H 103.926 0.766267 0.558156 0
M  V30 1019 H 103.632 2.454 2.51936 0
M  V30 1020 H 103.506 1.08677 3.61205 0
M  V30 1021 H 105.893 0.368668 2.92788 0
M  V30 1022 H 105.974 1.76829 1.84838 0
M  V30 1023 H 105.618 3.3078 3.85418 0
M  V30 1024 H 105.548 1.88096 4.91861 0
M  V30 1025 H 108.039 1.71906 3.36536 0
M  V30 1026 H 108.352 4.06076 6.57512 0
M  V30 1027 H 106.697 3.64604 5.91683 0
M  V30 1028 H 109.888 2.20406 4.12963 0
M  V30 1029 H 110.061 3.2717 5.59342 0
M  V30 1030 N 103.467 -1.45747 0.599634 0
M  V30 1031 C 104.397 -2.33235 -0.111306 0
M  V30 1032 C 105.378 -1.46359 -0.866781 0
M  V30 1033 O 106.563 -1.75146 -0.838904 0
M  V30 1034 C 103.693 -3.28932 -1.11451 0
M  V30 1035 C 102.647 -4.25381 -0.472772 0
M  V30 1036 C 101.973 -5.1071 -1.58365 0
M  V30 1037 C 103.273 -5.18831 0.600948 0
M  V30 1038 H 104.967 -2.92927 0.61919 0
M  V30 1039 H 102.513 -1.40857 0.299215 0
M  V30 1040 H 104.466 -3.89002 -1.62036 0
M  V30 1041 H 103.19 -2.67381 -1.8755 0
M  V30 1042 H 101.849 -3.66598 0.0121472 0
M  V30 1043 H 101.497 -4.45533 -2.33473 0
M  V30 1044 H 101.197 -5.7604 -1.15982 0
M  V30 1045 H 102.721 -5.73647 -2.09194 0
M  V30 1046 H 104.135 -5.73019 0.179491 0
M  V30 1047 H 102.532 -5.92595 0.946076 0
M  V30 1048 H 103.602 -4.6174 1.48068 0
M  V30 1049 N 104.945 -0.338344 -1.53925 0
M  V30 1050 C 105.895 0.536712 -2.21593 0
M  V30 1051 C 106.879 1.07015 -1.20153 0
M  V30 1052 O 108.071 1.00471 -1.45721 0
M  V30 1053 C 105.2 1.68977 -2.98834 0
M  V30 1054 C 104.286 1.17052 -4.07627 0
M  V30 1055 N 104.677 0.372085 -5.0443 0
M  V30 1056 C 102.975 1.44789 -4.21844 0
M  V30 1057 C 103.676 0.0909171 -5.81629 0
M  V30 1058 N 102.652 0.681131 -5.39316 0
M  V30 1059 H 106.454 -0.0804298 -2.9379 0
M  V30 1060 H 103.968 -0.144943 -1.61752 0
M  V30 1061 H 105.965 2.32857 -3.45808 0
M  V30 1062 H 104.625 2.31024 -2.28162 0
M  V30 1063 H 105.636 0.0136217 -5.17898 0
M  V30 1064 H 102.313 2.07313 -3.62391 0
M  V30 1065 H 103.703 -0.552817 -6.69622 0
M  V30 1066 N 106.423 1.57458 -0.0668435 0
M  V30 1067 C 107.839 1.56947 0.289772 0
M  V30 1068 C 108.039 1.07584 1.70376 0
M  V30 1069 O 107.095 0.739486 2.41429 0
M  V30 1070 C 108.408 3.0052 0.103943 0
M  V30 1071 C 109.956 3.12517 0.173857 0
M  V30 1072 C 110.431 4.57997 0.0163682 0
M  V30 1073 N 111.922 4.63144 0.0721352 0
M  V30 1074 C 112.657 5.73394 -0.0253794 0
M  V30 1075 N 112.153 6.92576 -0.176133 0
M  V30 1076 N 113.946 5.62091 0.0313305 0
M  V30 1077 H 106.097 1.87863 -0.991027 0
M  V30 1078 H 108.36 0.86583 -0.38606 0
M  V30 1079 H 108.066 3.40729 -0.871572 0
M  V30 1080 H 107.94 3.67304 0.858366 0
M  V30 1081 H 110.327 2.72197 1.13985 0
M  V30 1082 H 110.408 2.48381 -0.611586 0
M  V30 1083 H 110.052 4.99005 -0.946374 0
M  V30 1084 H 109.982 5.20158 0.821153 0
M  V30 1085 H 112.473 3.77436 0.187263 0
M  V30 1086 H 112.786 7.72418 -0.242821 0
M  V30 1087 H 111.131 6.94678 -0.211429 0
M  V30 1088 H 114.322 4.67867 0.147773 0
M  V30 1089 H 114.495 6.47982 -0.048121 0
M  V30 1090 N 107.901 -0.206675 1.56239 0
M  V30 1091 C 109.15 -0.926964 1.79138 0
M  V30 1092 C 109.463 -1.84901 0.638043 0
M  V30 1093 O 110.669 -2.60906 0.751033 0
M  V30 1094 C 109.125 -1.6986 3.17294 0
M  V30 1095 C 108.733 -0.821956 4.40395 0
M  V30 1096 C 110.477 -2.40922 3.4951 0
M  V30 1097 C 108.384 -1.59179 5.69575 0
M  V30 1098 H 107.314 -0.349864 0.667915 0
M  V30 1099 H 109.965 -0.180487 1.8261 0
M  V30 1100 H 108.347 -2.48853 3.08039 0
M  V30 1101 H 109.521 -0.0715019 4.60745 0
M  V30 1102 H 107.836 -0.222741 4.15804 0
M  V30 1103 H 110.433 -2.99047 4.43255 0
M  V30 1104 H 110.776 -3.14542 2.72707 0
M  V30 1105 H 111.309 -1.68905 3.60161 0
M  V30 1106 H 108.048 -0.898589 6.49312 0
M  V30 1107 H 107.568 -2.31648 5.53262 0
M  V30 1108 H 109.247 -2.14862 6.10281 0
M  V30 1109 N 109.379 -1.50304 -0.473955 0
M  V30 1110 C 110.625 -1.61389 -1.22806 0
M  V30 1111 C 110.958 -0.311955 -1.91678 0
M  V30 1112 O 110.233 0.686384 -1.81986 0
M  V30 1113 C 110.516 -2.79219 -2.27396 0
M  V30 1114 C 110.369 -4.19286 -1.62848 0
M  V30 1115 C 111.688 -2.92614 -3.28732 0
M  V30 1116 H 108.807 -0.587399 -0.445119 0
M  V30 1117 H 111.449 -1.82681 -0.522265 0
M  V30 1118 H 109.599 -2.61195 -2.87592 0
M  V30 1119 H 111.271 -4.48892 -1.06271 0
M  V30 1120 H 109.514 -4.23677 -0.931693 0
M  V30 1121 H 110.185 -4.97655 -2.38838 0
M  V30 1122 H 112.661 -3.09105 -2.78556 0
M  V30 1123 H 111.537 -3.76688 -3.99246 0
M  V30 1124 H 111.798 -2.03107 -3.92683 0
M  V30 1125 N 110.857 0.726932 -1.39834 0
M  V30 1126 C 112.268 1.30558 -1.3346 0
M  V30 1127 C 112.619 1.962 -0.00273003 0
M  V30 1128 O 111.744 1.96826 0.899371 0
M  V30 1129 C 112.339 2.37404 -2.41713 0
M  V30 1130 C 110.898 2.90921 -2.38835 0
M  V30 1131 C 110.045 1.64578 -2.2318 0
M  V30 1132 H 112.996 0.523862 -1.49804 0
M  V30 1133 H 113.017 3.17984 -2.08966 0
M  V30 1134 H 112.529 1.89599 -3.38635 0
M  V30 1135 H 110.63 3.42985 -1.45575 0
M  V30 1136 H 110.743 3.43487 -3.33997 0
M  V30 1137 H 109.107 1.89219 -1.70494 0
M  V30 1138 H 109.89 1.18814 -3.22084 0
M  V30 1139 N 112.336 1.25143 0.95797 0
M  V30 1140 C 113.752 1.01892 1.22842 0
M  V30 1141 C 113.952 -0.266311 1.99732 0
M  V30 1142 O 113.008 -0.979913 2.3271 0
M  V30 1143 C 114.321 2.24004 2.00606 0
M  V30 1144 C 115.869 2.28731 2.13662 0
M  V30 1145 C 116.344 3.5049 2.94823 0
M  V30 1146 N 117.835 3.50866 3.02403 0
M  V30 1147 C 118.57 4.4174 3.65586 0
M  V30 1148 N 118.066 5.42882 4.30408 0
M  V30 1149 N 119.859 4.29429 3.62694 0
M  V30 1150 H 112.01 2.07718 0.443493 0
M  V30 1151 H 114.273 0.912031 0.258657 0
M  V30 1152 H 113.979 3.17395 1.51503 0
M  V30 1153 H 113.853 2.26907 3.01319 0
M  V30 1154 H 116.24 1.35865 2.61963 0
M  V30 1155 H 116.321 2.29848 1.12265 0
M  V30 1156 H 115.965 4.43676 2.47213 0
M  V30 1157 H 115.895 3.46617 3.96439 0
M  V30 1158 H 118.386 2.777 2.56302 0
M  V30 1159 H 118.699 6.0844 4.76467 0
M  V30 1160 H 117.044 5.46758 4.29047 0
M  V30 1161 H 120.235 3.49643 3.11236 0
M  V30 1162 H 120.408 5.00448 4.1165 0
M  V30 1163 N 113.814 -1.1601 1.06675 0
M  V30 1164 C 114.744 -2.22688 0.702307 0
M  V30 1165 C 115.725 -1.67306 -0.307032 0
M  V30 1166 O 116.91 -1.93352 -0.181305 0
M  V30 1167 C 114.04 -3.47178 0.092038 0
M  V30 1168 C 112.994 -4.15477 1.02777 0
M  V30 1169 C 112.32 -5.33963 0.28061 0
M  V30 1170 C 113.62 -4.66019 2.35846 0
M  V30 1171 H 115.314 -2.53429 1.59419 0
M  V30 1172 H 112.86 -1.21813 0.767961 0
M  V30 1173 H 114.813 -4.21037 -0.174814 0
M  V30 1174 H 113.537 -3.15749 -0.834877 0
M  V30 1175 H 112.196 -3.43549 1.27944 0
M  V30 1176 H 111.844 -4.98788 -0.649545 0
M  V30 1177 H 111.544 -5.806 0.904258 0
M  V30 1178 H 113.068 -6.10596 0.021396 0
M  V30 1179 H 114.482 -5.3144 2.15045 0
M  V30 1180 H 112.879 -5.23293 2.93743 0
M  V30 1181 H 113.949 -3.82023 2.98641 0
M  V30 1182 N 115.292 -0.849877 -1.32721 0
M  V30 1183 C 116.708 -0.539102 -1.50219 0
M  V30 1184 C 116.908 0.931271 -1.78689 0
M  V30 1185 O 115.964 1.71455 -1.85363 0
M  V30 1186 C 117.277 -1.42196 -2.64954 0
M  V30 1187 C 118.825 -1.42189 -2.78839 0
M  V30 1188 C 119.3 -2.28985 -3.96648 0
M  V30 1189 N 120.791 -2.26754 -4.03902 0
M  V30 1190 C 121.526 -2.90644 -4.94281 0
M  V30 1191 N 121.022 -3.63629 -5.897 0
M  V30 1192 N 122.815 -2.80057 -4.87365 0
M  V30 1193 H 114.966 -1.80156 -1.12506 0
M  V30 1194 H 117.229 -0.769217 -0.554085 0
M  V30 1195 H 116.935 -2.46733 -2.50631 0
M  V30 1196 H 116.809 -1.10591 -3.60624 0
M  V30 1197 H 119.196 -0.38419 -2.92588 0
M  V30 1198 H 119.277 -1.77807 -1.83898 0
M  V30 1199 H 118.921 -3.32819 -3.83658 0
M  V30 1200 H 118.851 -1.90702 -4.90857 0
M  V30 1201 H 121.342 -1.73688 -3.3562 0
M  V30 1202 H 121.655 -4.09558 -6.55349 0
M  V30 1203 H 120 -3.67737 -5.89741 0
M  V30 1204 H 123.191 -2.22593 -4.11789 0
M  V30 1205 H 123.364 -3.30132 -5.57599 0
M  V30 1206 N 116.77 1.45427 -0.607355 0
M  V30 1207 C 118.047 1.9557 -0.0344566 0
M  V30 1208 C 118.427 1.54979 1.43334 0
M  V30 1209 O 117.775 0.812241 2.13576 0
M  V30 1210 C 117.985 3.48226 -0.232321 0
M  V30 1211 C 119.333 4.2445 -0.113001 0
M  V30 1212 O 120.357 3.55829 -0.162431 0
M  V30 1213 O 119.216 5.465 0.00209442 0
M  V30 1214 H 116.31 0.826222 0.0358667 0
M  V30 1215 H 118.856 1.55594 -0.6774 0
M  V30 1216 H 117.628 3.70739 -1.25174 0
M  V30 1217 H 117.251 3.95092 0.445896 0
M  V30 1218 N 118.248 0.346503 1.53744 0
M  V30 1219 C 119.494 -0.249473 2.0126 0
M  V30 1220 C 119.827 -1.49965 1.23386 0
M  V30 1221 O 119.102 -1.91811 0.32229 0
M  V30 1222 C 119.385 -0.560643 3.55709 0
M  V30 1223 C 119.238 0.701836 4.44291 0
M  V30 1224 C 120.557 -1.36905 4.18264 0
M  V30 1225 H 117.676 -0.0891987 0.731582 0
M  V30 1226 H 120.318 0.467624 1.84156 0
M  V30 1227 H 118.468 -1.17156 3.70414 0
M  V30 1228 H 120.14 1.33974 4.41417 0
M  V30 1229 H 118.383 1.32612 4.13033 0
M  V30 1230 H 119.054 0.43933 5.50249 0
M  V30 1231 H 121.53 -0.852448 4.07275 0
M  V30 1232 H 120.406 -1.55553 5.26398 0
M  V30 1233 H 120.667 -2.37203 3.73078 0
M  V30 1234 N 119.726 -1.57421 0.075193 0
M  V30 1235 C 120.973 -1.93618 -0.593146 0
M  V30 1236 C 121.301 -0.955484 -1.69413 0
M  V30 1237 O 120.556 0.0283251 -1.9568 0
M  V30 1238 C 120.855 -3.36428 -1.20626 0
M  V30 1239 C 120.521 -4.50307 -0.231078 0
M  V30 1240 C 119.183 -4.81186 0.0371936 0
M  V30 1241 C 121.535 -5.19374 0.435888 0
M  V30 1242 C 118.863 -5.78466 0.979461 0
M  V30 1243 C 121.215 -6.17665 1.3665 0
M  V30 1244 C 119.879 -6.46958 1.6432 0
M  V30 1245 H 119.149 -0.708499 -0.217047 0
M  V30 1246 H 121.796 -1.90937 0.146793 0
M  V30 1247 H 120.101 -3.35592 -2.02201 0
M  V30 1248 H 121.798 -3.61727 -1.73073 0
M  V30 1249 H 118.388 -4.26227 -0.450357 0
M  V30 1250 H 122.572 -4.95711 0.241748 0
M  V30 1251 H 117.828 -5.99487 1.20106 0
M  V30 1252 H 122.002 -6.70284 1.88924 0
M  V30 1253 H 119.629 -7.2215 2.37494 0
M  V30 1254 N 121.204 0.198386 -1.56346 0
M  V30 1255 C 122.452 0.91747 -1.80075 0
M  V30 1256 C 122.773 1.83929 -0.647692 0
M  V30 1257 O 122.043 1.93029 0.334166 0
M  V30 1258 H 120.623 0.341774 -0.664228 0
M  V30 1259 H 123.285 0.204684 -1.93822 0
M  V30 1260 H 122.381 1.51055 -2.7311 0
M  V30 1261 N 122.682 1.50554 0.465978 0
M  V30 1262 C 123.928 1.63006 1.21658 0
M  V30 1263 C 124.283 0.328613 1.89573 0
M  V30 1264 O 123.576 -0.673813 1.79361 0
M  V30 1265 C 123.77 2.75152 2.28093 0
M  V30 1266 C 123.599 4.16075 1.7062 0
M  V30 1267 C 122.369 4.82408 1.50368 0
M  V30 1268 C 124.567 5.00145 1.1983 0
M  V30 1269 N 122.549 6.07532 0.881924 0
M  V30 1270 C 123.92 6.16035 0.700083 0
M  V30 1271 C 125.975 4.85882 1.08733 0
M  V30 1272 C 124.678 7.19228 0.101835 0
M  V30 1273 C 126.704 5.89257 0.503016 0
M  V30 1274 C 126.066 7.04398 0.0152005 0
M  V30 1275 H 122.165 0.650596 0.433877 0
M  V30 1276 H 124.749 1.8769 0.517746 0
M  V30 1277 H 122.92 2.52181 2.95397 0
M  V30 1278 H 124.652 2.76935 2.95109 0
M  V30 1279 H 121.407 4.39788 1.75737 0
M  V30 1280 H 121.831 6.7443 0.589312 0
M  V30 1281 H 126.473 3.97144 1.4504 0
M  V30 1282 H 124.191 8.07637 -0.273426 0
M  V30 1283 H 127.777 5.80286 0.419451 0
M  V30 1284 H 126.657 7.83021 -0.429856 0
M  V30 1285 N 124.16 -0.719506 1.40217 0
M  V30 1286 C 125.408 -1.47641 1.3801 0
M  V30 1287 C 125.729 -1.94992 -0.018145 0
M  V30 1288 O 124.999 -1.70073 -0.972207 0
M  V30 1289 H 123.579 -0.547744 0.507923 0
M  V30 1290 H 126.241 -0.853187 1.75233 0
M  V30 1291 H 125.337 -2.35112 2.05253 0
M  V30 1292 N 125.638 -1.25649 -0.95132 0
M  V30 1293 C 126.586 -1.06118 -2.06982 0
M  V30 1294 C 127.58 0.00889169 -1.69398 0
M  V30 1295 O 128.786 -0.146988 -1.79399 0
M  V30 1296 H 125.161 -0.326248 -0.677544 0
M  V30 1297 H 127.132 -2.00932 -2.2061 0
M  V30 1298 C 125.881 -0.700145 -3.40578 0
M  V30 1299 H 125.204 -1.51537 -3.69968 0
M  V30 1300 H 126.644 -0.603211 -4.19687 0
M  V30 1301 C 125.103 0.59403 -3.31622 0
M  V30 1302 O 125.633 1.63522 -3.66911 0
M  V30 1303 N 123.839 0.58089 -2.84735 0
M  V30 1304 H 123.386 -0.266783 -2.56215 0
M  V30 1305 H 123.344 1.44695 -2.79125 0
M  V30 1306 N 127.117 1.15442 -1.07289 0
M  V30 1307 C 128.047 2.22312 -0.714107 0
M  V30 1308 C 129.028 1.67467 0.298155 0
M  V30 1309 O 130.213 1.93445 0.171048 0
M  V30 1310 C 127.343 3.47124 -0.110448 0
M  V30 1311 C 126.297 4.14926 -1.04979 0
M  V30 1312 C 125.623 5.33807 -0.308924 0
M  V30 1313 C 126.923 4.64762 -2.38314 0
M  V30 1314 H 128.617 2.5258 -1.6076 0
M  V30 1315 H 126.163 1.21404 -0.77441 0
M  V30 1316 H 128.116 4.21124 0.152482 0
M  V30 1317 H 126.84 3.16187 0.81812 0
M  V30 1318 H 125.499 3.42866 -1.29764 0
M  V30 1319 H 125.147 4.99126 0.623084 0
M  V30 1320 H 124.847 5.80113 -0.935036 0
M  V30 1321 H 126.371 6.10576 -0.0537771 0
M  V30 1322 H 127.785 5.30292 -2.1786 0
M  V30 1323 H 126.182 5.21728 -2.96514 0
M  V30 1324 H 127.252 3.80434 -3.00663 0
M  V30 1325 N 128.595 0.856903 1.32268 0
M  V30 1326 C 129.823 0.475439 2.01363 0
M  V30 1327 C 130.238 -0.928486 1.64392 0
M  V30 1328 O 129.595 -1.60624 0.866387 0
M  V30 1329 C 129.646 0.607545 3.56358 0
M  V30 1330 O 129.367 1.95617 3.92002 0
M  V30 1331 C 130.868 0.225382 4.42727 0
M  V30 1332 H 128.088 0.186636 0.644521 0
M  V30 1333 H 130.632 1.15446 1.68797 0
M  V30 1334 H 128.787 -0.0237719 3.87393 0
M  V30 1335 H 129.201 1.95455 4.86721 0
M  V30 1336 H 130.675 0.368813 5.50767 0
M  V30 1337 H 131.152 -0.834369 4.31202 0
M  V30 1338 H 131.758 0.831864 4.17085 0
M  V30 1339 N 130.073 -1.45103 0.615059 0
M  V30 1340 C 131.313 -2.04069 0.116282 0
M  V30 1341 C 131.677 -1.4721 -1.2326 0
M  V30 1342 O 132.878 -1.97577 -1.82255 0
M  V30 1343 C 131.149 -3.57298 0.085482 0
M  V30 1344 S 132.708 -4.37394 -0.351015 0
M  V30 1345 H 129.526 -0.709006 0.0532183 0
M  V30 1346 H 132.128 -1.77709 0.81484 0
M  V30 1347 H 130.832 -3.9619 1.0706 0
M  V30 1348 H 130.363 -3.88244 -0.634835 0
M  V30 1349 H 132.378 -4.69734 -1.59889 0
M  V30 1350 N 131.551 -0.354651 -1.53558 0
M  V30 1351 C 132.962 0.126902 -1.86268 0
M  V30 1352 C 133.313 1.49075 -1.27558 0
M  V30 1353 O 132.438 2.08105 -0.5934 0
M  V30 1354 C 133.033 0.237046 -3.3797 0
M  V30 1355 C 131.592 0.662842 -3.70518 0
M  V30 1356 C 130.739 -0.196652 -2.76602 0
M  V30 1357 H 133.69 -0.573849 -1.47962 0
M  V30 1358 H 133.711 1.06259 -3.65362 0
M  V30 1359 H 133.223 -0.755725 -3.80671 0
M  V30 1360 H 131.324 1.66424 -3.33367 0
M  V30 1361 H 131.437 0.445034 -4.77029 0
M  V30 1362 H 129.801 0.332763 -2.52517 0
M  V30 1363 H 130.584 -1.18676 -3.22135 0
M  V30 1364 N 133.029 1.57378 -0.0835403 0
M  V30 1365 C 134.278 1.93106 0.582498 0
M  V30 1366 C 134.591 0.96651 1.70053 0
M  V30 1367 O 135.797 1.21705 2.42693 0
M  V30 1368 C 134.253 3.43076 1.08751 0
M  V30 1369 C 133.861 4.48 -0.000146404 0
M  V30 1370 C 135.605 3.87785 1.72694 0
M  V30 1371 C 133.512 5.89113 0.519568 0
M  V30 1372 H 132.442 0.720775 0.221358 0
M  V30 1373 H 135.093 1.82821 -0.157675 0
M  V30 1374 H 133.475 3.48474 1.88101 0
M  V30 1375 H 134.649 4.54233 -0.775199 0
M  V30 1376 H 132.964 4.1283 -0.54406 0
M  V30 1377 H 135.561 4.90604 2.1263 0
M  V30 1378 H 135.904 3.25796 2.59158 0
M  V30 1379 H 136.437 3.8504 0.999457 0
M  V30 1380 H 133.176 6.54775 -0.308186 0
M  V30 1381 H 132.696 5.86376 1.26188 0
M  V30 1382 H 134.375 6.39346 0.992237 0
M  V30 1383 N 134.507 -0.190092 1.56449 0
M  V30 1384 C 135.747 -0.916414 1.82705 0
M  V30 1385 C 136.111 -1.80235 0.661763 0
M  V30 1386 O 137.312 -2.56484 0.80433 0
M  V30 1387 C 135.583 -1.70691 3.14005 0
M  V30 1388 S 137.142 -2.48457 3.61683 0
M  V30 1389 H 133.96 -0.307281 0.64117 0
M  V30 1390 H 136.562 -0.179433 1.94675 0
M  V30 1391 H 135.266 -1.04677 3.96826 0
M  V30 1392 H 134.797 -2.48562 3.04927 0
M  V30 1393 H 136.812 -3.72756 3.27517 0
M  V30 1394 N 135.985 -1.50799 -0.457987 0
M  V30 1395 C 136.932 -1.70617 -1.5543 0
M  V30 1396 C 137.902 -0.547562 -1.56815 0
M  V30 1397 O 139.087 -0.779647 -1.74144 0
M  V30 1398 C 136.227 -1.81831 -2.93311 0
M  V30 1399 C 135.34 -3.09278 -3.01615 0
M  V30 1400 C 134.475 -3.11209 -4.30491 0
M  V30 1401 C 133.514 -4.33055 -4.32585 0
M  V30 1402 N 132.651 -4.32652 -5.52952 0
M  V30 1403 H 137.491 -2.64207 -1.37836 0
M  V30 1404 H 135.028 -1.30959 -0.669937 0
M  V30 1405 H 136.986 -1.86314 -3.73287 0
M  V30 1406 H 135.616 -0.916685 -3.0951 0
M  V30 1407 H 134.668 -3.14203 -2.1443 0
M  V30 1408 H 135.98 -3.99233 -2.99022 0
M  V30 1409 H 135.134 -3.14494 -5.18824 0
M  V30 1410 H 133.873 -2.19106 -4.35711 0
M  V30 1411 H 132.878 -4.29969 -3.42647 0
M  V30 1412 H 134.103 -5.264 -4.29046 0
M  V30 1413 H 132.049 -3.43409 -5.58933 0
M  V30 1414 H 131.966 -5.16392 -5.52155 0
M  V30 1415 H 133.234 -4.40101 -6.43375 0
M  V30 1416 N 137.463 0.71206 -1.40597 0
M  V30 1417 C 138.711 1.46907 -1.38791 0
M  V30 1418 C 139.032 1.94998 0.00780391 0
M  V30 1419 O 138.302 1.70587 0.963174 0
M  V30 1420 H 136.882 0.545043 -0.51082 0
M  V30 1421 H 139.544 0.843882 -1.75683 0
M  V30 1422 H 138.64 2.34021 -2.06496 0
M  V30 1423 N 138.941 1.26152 0.944643 0
M  V30 1424 C 139.871 1.09902 2.06019 0
M  V30 1425 C 140.852 0.00519538 1.70099 0
M  V30 1426 O 142.037 0.176583 1.93396 0
M  V30 1427 C 139.167 0.727562 3.39594 0
M  V30 1428 C 138.121 1.77274 3.89561 0
M  V30 1429 C 137.447 1.25569 5.19747 0
M  V30 1430 C 138.747 3.17357 4.14827 0
M  V30 1431 H 140.441 2.03217 2.19871 0
M  V30 1432 H 137.987 0.978452 1.05652 0
M  V30 1433 H 139.94 0.600777 4.17095 0
M  V30 1434 H 138.664 -0.241287 3.25707 0
M  V30 1435 H 137.323 1.88814 3.14237 0
M  V30 1436 H 136.971 0.276783 5.02238 0
M  V30 1437 H 136.671 1.95433 5.54148 0
M  V30 1438 H 138.195 1.1415 5.99835 0
M  V30 1439 H 139.609 3.08914 4.82954 0
M  V30 1440 H 138.006 3.84781 4.60504 0
M  V30 1441 H 139.076 3.63673 3.20734 0
M  V30 1442 N 140.419 -1.14872 1.07899 0
M  V30 1443 C 141.666 -1.85789 0.805532 0
M  V30 1444 C 141.994 -1.82649 -0.668561 0
M  V30 1445 O 141.249 -1.24858 -1.50695 0
M  V30 1446 C 141.548 -3.34223 1.26609 0
M  V30 1447 C 141.214 -3.57555 2.74709 0
M  V30 1448 C 139.876 -3.63631 3.1516 0
M  V30 1449 C 142.228 -3.66803 3.70277 0
M  V30 1450 C 139.556 -3.76473 4.49983 0
M  V30 1451 C 141.908 -3.8117 5.04869 0
M  V30 1452 C 140.572 -3.85494 5.44932 0
M  V30 1453 H 139.842 -0.679849 0.294765 0
M  V30 1454 H 142.489 -1.3572 1.35101 0
M  V30 1455 H 140.794 -3.86536 0.640103 0
M  V30 1456 H 142.491 -3.87511 1.03132 0
M  V30 1457 H 139.081 -3.5347 2.42398 0
M  V30 1458 H 143.265 -3.61404 3.40149 0
M  V30 1459 H 138.521 -3.7808 4.80484 0
M  V30 1460 H 142.695 -3.87268 5.78789 0
M  V30 1461 H 140.322 -3.95197 6.49403 0
M  V30 1462 N 141.898 -0.863906 -1.31812 0
M  V30 1463 C 143.126 -0.486111 -2.01108 0
M  V30 1464 C 143.541 0.919755 -1.64882 0
M  V30 1465 O 142.898 1.60162 -0.874893 0
M  V30 1466 C 142.949 -0.626435 -3.56031 0
M  V30 1467 O 142.67 -1.97693 -3.90959 0
M  V30 1468 C 144.171 -0.248857 -4.42601 0
M  V30 1469 H 141.391 -0.190052 -0.643523 0
M  V30 1470 H 143.935 -1.1634 -1.68182 0
M  V30 1471 H 142.09 0.00322717 -3.874 0
M  V30 1472 H 142.504 -1.98034 -4.85678 0
M  V30 1473 H 143.978 -0.398016 -5.50563 0
M  V30 1474 H 144.455 0.811489 -4.31638 0
M  V30 1475 H 145.061 -0.853971 -4.16638 0
M  V30 1476 N 143.376 1.44774 -0.622745 0
M  V30 1477 C 144.339 2.29069 0.0774015 0
M  V30 1478 C 145.339 1.4059 0.780461 0
M  V30 1479 O 146.529 1.62551 0.626322 0
M  V30 1480 C 143.661 3.21974 1.12006 0
M  V30 1481 H 144.854 2.92459 -0.663901 0
M  V30 1482 H 142.407 1.51548 -0.382486 0
M  V30 1483 H 143.142 2.63417 1.89162 0
M  V30 1484 H 142.927 3.87168 0.619951 0
M  V30 1485 H 144.417 3.85318 1.60995 0
M  V30 1486 N 144.854 0.36279 1.53368 0
M  V30 1487 C 146.103 -0.22888 2.00397 0
M  V30 1488 C 146.416 -1.50096 1.25421 0
M  V30 1489 O 147.622 -2.17106 1.63025 0
M  V30 1490 C 146.078 -0.458417 3.56969 0
M  V30 1491 C 145.686 0.798877 4.4082 0
M  V30 1492 C 147.43 -1.00789 4.12361 0
M  V30 1493 C 145.337 0.539078 5.88938 0
M  V30 1494 H 144.267 -0.089305 0.748693 0
M  V30 1495 H 146.918 0.481099 1.77081 0
M  V30 1496 H 145.3 -1.22959 3.76427 0
M  V30 1497 H 146.474 1.57262 4.33134 0
M  V30 1498 H 144.789 1.27137 3.96516 0
M  V30 1499 H 147.386 -1.21754 5.20653 0
M  V30 1500 H 147.729 -1.9692 3.66781 0
M  V30 1501 H 148.262 -0.296961 3.9669 0
M  V30 1502 H 145.001 1.47064 6.3879 0
M  V30 1503 H 144.521 -0.196222 5.99479 0
M  V30 1504 H 146.2 0.163542 6.46793 0
M  V30 1505 N 146.332 -1.57332 0.0918853 0
M  V30 1506 C 147.28 -2.15075 -0.885747 0
M  V30 1507 C 148.274 -1.09277 -1.29441 0
M  V30 1508 O 149.48 -1.27627 -1.26931 0
M  V30 1509 H 145.855 -0.687966 -0.303656 0
M  V30 1510 H 147.826 -2.96047 -0.373995 0
M  V30 1511 C 146.575 -2.74325 -2.13638 0
M  V30 1512 H 145.898 -3.55418 -1.8308 0
M  V30 1513 H 147.338 -3.183 -2.80109 0
M  V30 1514 C 145.797 -1.70062 -2.90827 0
M  V30 1515 O 146.327 -1.13763 -3.85254 0
M  V30 1516 N 144.533 -1.40628 -2.54307 0
M  V30 1517 H 144.08 -1.866 -1.7759 0
M  V30 1518 H 144.038 -0.711043 -3.06254 0
M  V30 1519 N 147.81 0.181792 -1.56548 0
M  V30 1520 C 148.74 1.22765 -1.98623 0
M  V30 1521 C 149.721 1.46747 -0.860189 0
M  V30 1522 O 150.906 1.58259 -1.12551 0
M  V30 1523 C 148.036 2.56894 -2.33715 0
M  V30 1524 C 146.99 2.475 -3.49182 0
M  V30 1525 C 146.316 3.86023 -3.69986 0
M  V30 1526 C 147.616 1.98866 -4.82959 0
M  V30 1527 H 149.31 0.877942 -2.86239 0
M  V30 1528 H 146.856 0.42088 -1.37712 0
M  V30 1529 H 148.809 3.30253 -2.61746 0
M  V30 1530 H 147.533 2.93632 -1.42997 0
M  V30 1531 H 146.192 1.76596 -3.21262 0
M  V30 1532 H 145.84 4.20136 -2.76576 0
M  V30 1533 H 145.54 3.80609 -4.47672 0
M  V30 1534 H 147.064 4.60984 -4.00407 0
M  V30 1535 H 148.478 2.61992 -5.09934 0
M  V30 1536 H 146.875 2.04424 -5.64208 0
M  V30 1537 H 147.945 0.942465 -4.75653 0
M  V30 1538 N 149.288 1.51039 0.449983 0
M  V30 1539 C 150.536 1.62759 1.19808 0
M  V30 1540 C 150.857 0.339981 1.92013 0
M  V30 1541 O 150.127 -0.643606 1.85026 0
M  V30 1542 H 148.707 0.599811 0.445237 0
M  V30 1543 H 151.369 1.87914 0.517138 0
M  V30 1544 H 150.465 2.44911 1.93455 0
M  V30 1545 N 150.766 -0.704594 1.40972 0
M  V30 1546 C 151.696 -1.83124 1.44872 0
M  V30 1547 C 152.677 -1.67281 0.30838 0
M  V30 1548 O 153.862 -1.87149 0.518556 0
M  V30 1549 C 150.992 -3.21181 1.32136 0
M  V30 1550 C 149.946 -3.51714 2.43888 0
M  V30 1551 C 149.272 -4.89032 2.16222 0
M  V30 1552 C 150.572 -3.516 3.86232 0
M  V30 1553 H 152.266 -1.80117 2.39161 0
M  V30 1554 H 149.812 -0.865145 1.15114 0
M  V30 1555 H 151.765 -3.99702 1.33479 0
M  V30 1556 H 150.489 -3.24791 0.343279 0
M  V30 1557 H 149.148 -2.75539 2.41813 0
M  V30 1558 H 148.796 -4.89256 1.16778 0
M  V30 1559 H 148.496 -5.10426 2.911 0
M  V30 1560 H 150.02 -5.69873 2.19265 0
M  V30 1561 H 151.434 -4.2014 3.9007 0
M  V30 1562 H 149.831 -3.84523 4.60719 0
M  V30 1563 H 150.901 -2.50757 4.15029 0
M  V30 1564 N 152.244 -1.26651 -0.937939 0
M  V30 1565 C 153.191 -1.0849 -2.03712 0
M  V30 1566 C 154.161 0.011033 -1.66096 0
M  V30 1567 O 155.346 -0.149353 -1.90215 0
M  V30 1568 C 152.486 -0.72735 -3.37348 0
M  V30 1569 C 151.599 -1.89986 -3.87981 0
M  V30 1570 C 150.734 -1.48513 -5.10017 0
M  V30 1571 C 149.773 -2.62575 -5.5292 0
M  V30 1572 N 148.91 -2.21762 -6.66158 0
M  V30 1573 H 153.75 -2.02551 -2.18579 0
M  V30 1574 H 151.287 -1.00844 -1.07093 0
M  V30 1575 H 153.245 -0.50092 -4.14182 0
M  V30 1576 H 151.875 0.176298 -3.22318 0
M  V30 1577 H 150.927 -2.23913 -3.07518 0
M  V30 1578 H 152.239 -2.75586 -4.15757 0
M  V30 1579 H 151.393 -1.21934 -5.94321 0
M  V30 1580 H 150.132 -0.60009 -4.83994 0
M  V30 1581 H 149.137 -2.8988 -4.67172 0
M  V30 1582 H 150.362 -3.51685 -5.80943 0
M  V30 1583 H 148.308 -1.35696 -6.41812 0
M  V30 1584 H 148.225 -3.00903 -6.93537 0
M  V30 1585 H 149.493 -1.98403 -7.53828 0
M  V30 1586 N 153.722 1.14298 -1.08507 0
M  V30 1587 C 154.669 2.19414 -0.715965 0
M  V30 1588 C 155.639 1.63399 0.298326 0
M  V30 1589 O 156.824 1.89929 0.182101 0
M  V30 1590 C 153.964 3.44845 -0.132534 0
M  V30 1591 C 153.077 4.15007 -1.19973 0
M  V30 1592 C 152.212 5.28024 -0.580048 0
M  V30 1593 C 151.251 5.9002 -1.62921 0
M  V30 1594 N 150.388 6.94485 -1.03125 0
M  V30 1595 H 155.228 2.50336 -1.61666 0
M  V30 1596 H 152.765 1.2293 -0.807882 0
M  V30 1597 H 154.723 4.16601 0.223454 0
M  V30 1598 H 153.353 3.14403 0.731467 0
M  V30 1599 H 152.405 3.41629 -1.67313 0
M  V30 1600 H 153.717 4.57178 -1.99473 0
M  V30 1601 H 152.871 6.06455 -0.172364 0
M  V30 1602 H 151.61 4.87076 0.246603 0
M  V30 1603 H 150.615 5.10291 -2.04654 0
M  V30 1604 H 151.84 6.33042 -2.45835 0
M  V30 1605 H 149.786 6.55612 -0.225711 0
M  V30 1606 H 149.703 7.35148 -1.76334 0
M  V30 1607 H 150.971 7.7679 -0.649458 0
M  V30 1608 N 155.201 0.870884 1.31352 0
M  V30 1609 C 156.111 0.330783 2.32256 0
M  V30 1610 C 157.127 -0.559767 1.6475 0
M  V30 1611 O 158.303 -0.456263 1.96164 0
M  V30 1612 C 155.368 -0.458137 3.4366 0
M  V30 1613 C 154.429 0.460482 4.26823 0
M  V30 1614 C 153.662 -0.290881 5.32907 0
M  V30 1615 O 153.885 -1.51885 5.49806 0
M  V30 1616 O 152.819 0.351732 6.00871 0
M  V30 1617 H 156.645 1.16718 2.80376 0
M  V30 1618 H 154.23 0.634285 1.35267 0
M  V30 1619 H 156.112 -0.905343 4.1156 0
M  V30 1620 H 154.787 -1.27106 2.97701 0
M  V30 1621 H 153.694 0.956207 3.61673 0
M  V30 1622 H 155.027 1.23903 4.7635 0
M  V30 1623 N 156.679 -1.44442 0.630414 0
M  V30 1624 C 158.09 -1.85434 0.217063 0
M  V30 1625 C 158.441 -1.52748 -1.23136 0
M  V30 1626 O 157.566 -0.965205 -1.93682 0
M  V30 1627 C 158.161 -3.36581 0.387168 0
M  V30 1628 C 156.72 -3.76389 0.0283297 0
M  V30 1629 C 155.867 -2.68296 0.700889 0
M  V30 1630 H 158.818 -1.34919 0.83562 0
M  V30 1631 H 158.839 -3.78657 -0.374086 0
M  V30 1632 H 158.351 -3.60339 1.44144 0
M  V30 1633 H 156.452 -3.58246 -1.02423 0
M  V30 1634 H 156.565 -4.77095 0.437892 0
M  V30 1635 H 154.929 -2.54335 0.136267 0
M  V30 1636 H 155.712 -2.94887 1.75774 0
M  V30 1637 N 158.157 -0.370918 -1.53173 0
M  V30 1638 C 159.105 0.488101 -2.27421 0
M  V30 1639 C 160.099 1.07884 -1.30604 0
M  V30 1640 O 161.305 1.02143 -1.48212 0
M  V30 1641 H 157.68 0.176134 -0.731082 0
M  V30 1642 H 159.651 -0.159815 -2.97972 0
M  V30 1643 C 158.4 1.61306 -3.08019 0
M  V30 1644 H 157.723 1.1678 -3.82364 0
M  V30 1645 H 159.163 2.18872 -3.63141 0
M  V30 1646 C 157.622 2.55848 -2.19188 0
M  V30 1647 O 158.152 3.58799 -1.80626 0
M  V30 1648 N 156.358 2.2516 -1.83715 0
M  V30 1649 H 155.905 1.41476 -2.15273 0
M  V30 1650 H 155.863 2.8867 -1.24567 0
M  V30 1651 N 159.635 1.57281 -0.100228 0
M  V30 1652 C 160.881 1.94826 0.563101 0
M  V30 1653 C 161.214 0.982475 1.67514 0
M  V30 1654 O 160.489 0.0164069 1.94493 0
M  V30 1655 C 160.772 3.42453 1.11346 0
M  V30 1656 C 160.625 4.498 0.00612081 0
M  V30 1657 C 161.944 3.91506 2.01024 0
M  V30 1658 H 159.063 0.708428 0.203221 0
M  V30 1659 H 161.705 1.8922 -0.171979 0
M  V30 1660 H 159.855 3.47361 1.7399 0
M  V30 1661 H 161.527 4.57 -0.628357 0
M  V30 1662 H 159.77 4.28756 -0.659581 0
M  V30 1663 H 160.441 5.50306 0.432109 0
M  V30 1664 H 162.917 3.88784 1.48278 0
M  V30 1665 H 161.793 4.95358 2.36457 0
M  V30 1666 H 162.054 3.31099 2.92961 0
M  V30 1667 N 161.113 -0.173488 1.56642 0
M  V30 1668 C 162.076 -1.19859 1.95362 0
M  V30 1669 C 163.076 -1.37296 0.83704 0
M  V30 1670 O 164.266 -1.34739 1.10413 0
M  V30 1671 C 161.398 -2.56405 2.24654 0
M  V30 1672 H 162.591 -0.867062 2.87092 0
M  V30 1673 H 160.144 -0.415853 1.50666 0
M  V30 1674 H 160.879 -2.94576 1.35631 0
M  V30 1675 H 160.664 -2.45115 3.06041 0
M  V30 1676 H 162.154 -3.30287 2.5554 0
M  V30 1677 N 162.591 -1.51276 -0.441967 0
M  V30 1678 C 164.007 -1.39349 -0.778083 0
M  V30 1679 C 164.207 -0.472212 -1.95889 0
M  V30 1680 O 163.263 0.0743551 -2.5239 0
M  V30 1681 C 164.576 -2.81292 -1.0628 0
M  V30 1682 C 166.124 -2.9041 -1.16751 0
M  V30 1683 C 166.599 -4.33251 -1.48519 0
M  V30 1684 N 168.09 -4.36336 -1.55453 0
M  V30 1685 C 168.825 -5.43885 -1.81596 0
M  V30 1686 N 168.321 -6.61601 -2.05562 0
M  V30 1687 N 170.114 -5.3136 -1.8334 0
M  V30 1688 H 162.265 -2.09729 0.335774 0
M  V30 1689 H 164.528 -0.943925 0.0878028 0
M  V30 1690 H 164.234 -3.50678 -0.267905 0
M  V30 1691 H 164.108 -3.20334 -1.99163 0
M  V30 1692 H 166.495 -2.21225 -1.95304 0
M  V30 1693 H 166.576 -2.54871 -0.217801 0
M  V30 1694 H 166.22 -5.02984 -0.704958 0
M  V30 1695 H 166.15 -4.66299 -2.44689 0
M  V30 1696 H 168.641 -3.51466 -1.38853 0
M  V30 1697 H 168.954 -7.39361 -2.24867 0
M  V30 1698 H 167.299 -6.64725 -2.02894 0
M  V30 1699 H 170.49 -4.38382 -1.64132 0
M  V30 1700 H 170.663 -6.15258 -2.03377 0
M  V30 1701 N 164.069 0.697108 -1.41344 0
M  V30 1702 C 165.315 1.4593 -1.40827 0
M  V30 1703 C 165.648 1.94193 -0.0167098 0
M  V30 1704 O 164.923 1.69425 0.955263 0
M  V30 1705 C 165.206 2.67229 -2.41373 0
M  V30 1706 C 165.059 2.24741 -3.8963 0
M  V30 1707 C 166.378 3.69423 -2.39196 0
M  V30 1708 H 163.497 0.529303 -0.512842 0
M  V30 1709 H 166.139 0.794112 -1.72609 0
M  V30 1710 H 164.289 3.23982 -2.14401 0
M  V30 1711 H 165.961 1.73327 -4.27499 0
M  V30 1712 H 164.204 1.56542 -4.0457 0
M  V30 1713 H 164.875 3.1177 -4.55525 0
M  V30 1714 H 167.351 3.2234 -2.63128 0
M  V30 1715 H 166.227 4.51907 -3.11563 0
M  V30 1716 H 166.488 4.19012 -1.41001 0
M  V30 1717 N 165.547 1.27147 0.931209 0
M  V30 1718 C 166.795 1.13055 1.6752 0
M  V30 1719 C 167.116 -0.324791 1.92276 0
M  V30 1720 O 166.386 -1.22775 1.52654 0
M  V30 1721 H 164.966 0.415391 0.620854 0
M  V30 1722 H 167.628 1.59623 1.11833 0
M  V30 1723 H 166.724 1.65694 2.64485 0
M  V30 1724 N 167.025 -1.13721 1.09112 0
M  V30 1725 C 168.25 -1.89314 0.847053 0
M  V30 1726 C 168.675 -1.78416 -0.595774 0
M  V30 1727 O 168.033 -1.12942 -1.41823 0
M  V30 1728 C 168.081 -3.3701 1.28284 0
M  V30 1729 O 167.185 -4.10054 0.439267 0
M  V30 1730 H 166.526 -0.588745 0.307044 0
M  V30 1731 H 169.056 -1.43902 1.45442 0
M  V30 1732 H 169.066 -3.87834 1.26683 0
M  V30 1733 H 167.741 -3.4426 2.33363 0
M  V30 1734 H 166.318 -3.69266 0.519312 0
M  V30 1735 N 168.503 -0.877838 -1.30888 0
M  V30 1736 C 169.749 -0.493426 -1.96706 0
M  V30 1737 C 170.082 0.953504 -1.6918 0
M  V30 1738 O 169.357 1.67266 -0.992594 0
M  V30 1739 C 169.64 -0.760429 -3.51979 0
M  V30 1740 C 169.493 -2.25747 -3.89048 0
M  V30 1741 C 170.812 -0.232148 -4.39487 0
M  V30 1742 H 167.931 -0.180746 -0.714493 0
M  V30 1743 H 170.573 -1.10052 -1.54882 0
M  V30 1744 H 168.723 -0.243715 -3.87735 0
M  V30 1745 H 170.395 -2.84204 -3.63354 0
M  V30 1746 H 168.638 -2.72694 -3.37373 0
M  V30 1747 H 169.309 -2.39491 -4.97341 0
M  V30 1748 H 171.785 -0.674314 -4.106 0
M  V30 1749 H 170.661 -0.448355 -5.47066 0
M  V30 1750 H 170.922 0.866297 -4.33529 0
M  V30 1751 N 169.982 1.44106 -0.638065 0
M  V30 1752 C 170.945 2.29138 0.0531013 0
M  V30 1753 C 171.945 1.41409 0.765506 0
M  V30 1754 O 173.135 1.63206 0.609046 0
M  V30 1755 C 170.267 3.23144 1.08584 0
M  V30 1756 H 171.46 2.91739 -0.694883 0
M  V30 1757 H 169.013 1.51134 -0.398538 0
M  V30 1758 H 169.748 2.65408 1.86357 0
M  V30 1759 H 169.533 3.87804 0.578852 0
M  V30 1760 H 171.023 3.87004 1.56899 0
M  V30 1761 N 171.46 0.379036 1.52974 0
M  V30 1762 C 172.709 -0.207612 2.00629 0
M  V30 1763 C 173.022 -1.48758 1.27006 0
M  V30 1764 O 174.228 -2.15365 1.65318 0
M  V30 1765 C 172.684 -0.42053 3.57435 0
M  V30 1766 C 172.292 0.845587 4.39948 0
M  V30 1767 C 174.036 -0.964102 4.13407 0
M  V30 1768 C 171.943 0.601513 5.88333 0
M  V30 1769 H 170.873 -0.0813591 0.749598 0
M  V30 1770 H 173.524 0.499853 1.76561 0
M  V30 1771 H 171.906 -1.18959 3.7771 0
M  V30 1772 H 173.08 1.61848 4.31442 0
M  V30 1773 H 171.395 1.31336 3.95145 0
M  V30 1774 H 173.992 -1.16225 5.21916 0
M  V30 1775 H 174.335 -1.93019 3.68849 0
M  V30 1776 H 174.868 -0.25487 3.96983 0
M  V30 1777 H 171.607 1.53831 6.37194 0
M  V30 1778 H 171.127 -0.132628 5.99653 0
M  V30 1779 H 172.806 0.232134 6.46583 0
M  V30 1780 N 172.938 -1.57226 0.108567 0
M  V30 1781 C 173.885 -2.14756 -0.845481 0
M  V30 1782 C 174.855 -1.06971 -1.27068 0
M  V30 1783 O 176.04 -1.34827 -1.35005 0
M  V30 1784 C 173.18 -2.74298 -2.09415 0
M  V30 1785 C 172.293 -3.96358 -1.71826 0
M  V30 1786 C 171.428 -4.44021 -2.9158 0
M  V30 1787 C 170.467 -5.58637 -2.50181 0
M  V30 1788 N 169.604 -6.01091 -3.62814 0
M  V30 1789 H 174.444 -2.95961 -0.348035 0
M  V30 1790 H 171.981 -1.46226 -0.160106 0
M  V30 1791 H 173.939 -3.06945 -2.82561 0
M  V30 1792 H 172.569 -1.95801 -2.56636 0
M  V30 1793 H 171.621 -3.69939 -0.885947 0
M  V30 1794 H 172.933 -4.79504 -1.37394 0
M  V30 1795 H 172.087 -4.78522 -3.72963 0
M  V30 1796 H 170.826 -3.59803 -3.29231 0
M  V30 1797 H 169.831 -5.23751 -1.67228 0
M  V30 1798 H 171.056 -6.44613 -2.13659 0
M  V30 1799 H 169.002 -5.19817 -4.00158 0
M  V30 1800 H 168.919 -6.79066 -3.32273 0
M  V30 1801 H 170.187 -6.40227 -4.44668 0
M  V30 1802 N 174.416 0.165178 -1.56732 0
M  V30 1803 C 175.346 1.20651 -1.99914 0
M  V30 1804 C 176.327 1.45827 -0.875705 0
M  V30 1805 O 177.512 1.57057 -1.14223 0
M  V30 1806 C 174.642 2.54401 -2.36427 0
M  V30 1807 C 173.596 2.43782 -3.51787 0
M  V30 1808 C 172.922 3.82078 -3.7406 0
M  V30 1809 C 174.222 1.93732 -4.85041 0
M  V30 1810 H 175.916 0.847534 -2.87154 0
M  V30 1811 H 173.462 0.40625 -1.38151 0
M  V30 1812 H 175.415 3.27458 -2.65234 0
M  V30 1813 H 174.139 2.92098 -1.46103 0
M  V30 1814 H 172.798 1.73178 -3.23117 0
M  V30 1815 H 172.446 4.17179 -2.81017 0
M  V30 1816 H 172.146 3.7584 -4.51684 0
M  V30 1817 H 173.67 4.56712 -4.05274 0
M  V30 1818 H 175.084 2.56569 -5.12684 0
M  V30 1819 H 173.481 1.98428 -5.66345 0
M  V30 1820 H 174.551 0.891962 -4.76626 0
M  V30 1821 N 175.894 1.51508 0.433938 0
M  V30 1822 C 177.134 1.66006 1.19253 0
M  V30 1823 C 177.498 0.369868 1.88404 0
M  V30 1824 O 178.699 0.39066 2.65946 0
M  V30 1825 C 176.97 2.83229 2.17981 0
M  V30 1826 S 178.529 3.18075 3.02281 0
M  V30 1827 H 175.347 0.584821 0.404358 0
M  V30 1828 H 177.949 1.89425 0.48357 0
M  V30 1829 H 176.653 3.75407 1.65824 0
M  V30 1830 H 176.184 2.6201 2.93453 0
M  V30 1831 H 178.199 2.64772 4.19655 0
M  V30 1832 N 177.372 -0.689602 1.41712 0
M  V30 1833 C 178.32 -1.82475 1.44242 0
M  V30 1834 C 179.314 -1.66354 0.319774 0
M  V30 1835 O 180.52 -1.73143 0.492089 0
M  V30 1836 H 176.895 -0.601416 0.451445 0
M  V30 1837 H 178.866 -1.77458 2.39899 0
M  V30 1838 C 177.615 -3.20535 1.3473 0
M  V30 1839 H 176.938 -3.33559 2.20405 0
M  V30 1840 H 178.378 -4.00023 1.40562 0
M  V30 1841 C 176.837 -3.36846 0.0603281 0
M  V30 1842 O 177.367 -3.91656 -0.892663 0
M  V30 1843 N 175.573 -2.90595 -0.0177039 0
M  V30 1844 H 175.12 -2.46178 0.758572 0
M  V30 1845 H 175.078 -3.01886 -0.878201 0
M  V30 1846 N 178.85 -1.27639 -0.924453 0
M  V30 1847 C 179.78 -1.13166 -2.04244 0
M  V30 1848 C 180.761 -0.032256 -1.70069 0
M  V30 1849 O 181.946 -0.207328 -1.9309 0
M  V30 1850 C 179.076 -0.781496 -3.38393 0
M  V30 1851 C 178.03 -1.83449 -3.86692 0
M  V30 1852 C 177.356 -1.33822 -5.17683 0
M  V30 1853 C 178.656 -3.23917 -4.09726 0
M  V30 1854 H 180.35 -2.06689 -2.1661 0
M  V30 1855 H 177.896 -0.995136 -1.04082 0
M  V30 1856 H 179.849 -0.667057 -4.16087 0
M  V30 1857 H 178.573 0.189439 -3.2605 0
M  V30 1858 H 177.232 -1.93789 -3.11193 0
M  V30 1859 H 176.88 -0.35665 -5.01734 0
M  V30 1860 H 176.58 -2.04224 -5.50968 0
M  V30 1861 H 178.104 -1.23679 -5.97943 0
M  V30 1862 H 179.518 -3.16559 -4.77978 0
M  V30 1863 H 177.915 -3.92059 -4.54324 0
M  V30 1864 H 178.985 -3.68729 -3.14908 0
M  V30 1865 N 180.328 1.1314 -1.09713 0
M  V30 1866 C 181.258 2.20748 -0.761102 0
M  V30 1867 C 182.239 1.68061 0.262566 0
M  V30 1868 O 183.424 1.93765 0.129977 0
M  V30 1869 C 180.554 3.46812 -0.184054 0
M  V30 1870 C 179.508 4.12606 -1.13757 0
M  V30 1871 C 178.834 5.33031 -0.422083 0
M  V30 1872 C 180.134 4.59603 -2.48118 0
M  V30 1873 H 181.828 2.49113 -1.66082 0
M  V30 1874 H 179.374 1.19734 -0.799987 0
M  V30 1875 H 181.327 4.21353 0.0631215 0
M  V30 1876 H 180.051 3.17851 0.750868 0
M  V30 1877 H 178.71 3.40036 -1.37007 0
M  V30 1878 H 178.358 5.00335 0.517072 0
M  V30 1879 H 178.058 5.77999 -1.05788 0
M  V30 1880 H 179.582 6.10325 -0.183277 0
M  V30 1881 H 180.996 5.25552 -2.29059 0
M  V30 1882 H 179.393 5.15321 -3.07514 0
M  V30 1883 H 180.463 3.73971 -3.08665 0
M  V30 1884 N 181.806 0.884767 1.30421 0
M  V30 1885 C 182.753 0.349642 2.28136 0
M  V30 1886 C 183.723 -0.560061 1.56373 0
M  V30 1887 O 184.908 -0.488524 1.8444 0
M  V30 1888 C 182.048 -0.42999 3.42411 0
M  V30 1889 C 181.161 0.508907 4.28992 0
M  V30 1890 C 180.296 -0.286301 5.30428 0
M  V30 1891 C 179.335 0.648079 6.08659 0
M  V30 1892 N 178.472 -0.111792 7.02011 0
M  V30 1893 H 183.312 1.18807 2.73293 0
M  V30 1894 H 180.849 0.597231 1.3443 0
M  V30 1895 H 182.807 -0.897923 4.07423 0
M  V30 1896 H 181.437 -1.23299 2.98324 0
M  V30 1897 H 180.489 1.09533 3.64289 0
M  V30 1898 H 181.801 1.22475 4.8353 0
M  V30 1899 H 180.955 -0.816098 6.01186 0
M  V30 1900 H 179.694 -1.03536 4.76583 0
M  V30 1901 H 178.699 1.18951 5.36778 0
M  V30 1902 H 179.924 1.39623 6.64592 0
M  V30 1903 H 177.87 -0.843395 6.50556 0
M  V30 1904 H 177.787 0.544429 7.54037 0
M  V30 1905 H 179.055 -0.622339 7.77012 0
M  V30 1906 N 183.284 -1.43765 0.645699 0
M  V30 1907 C 184.533 -2.01116 0.153412 0
M  V30 1908 C 184.846 -1.51493 -1.23731 0
M  V30 1909 O 186.052 -2.01067 -1.8244 0
M  V30 1910 C 184.508 -3.59206 0.223473 0
M  V30 1911 C 184.116 -4.17823 1.61642 0
M  V30 1912 C 185.86 -4.23972 -0.211597 0
M  V30 1913 C 183.767 -5.68183 1.64081 0
M  V30 1914 H 182.697 -0.752093 0.0535891 0
M  V30 1915 H 185.348 -1.6482 0.806633 0
M  V30 1916 H 183.73 -3.92867 -0.497118 0
M  V30 1917 H 184.904 -3.95674 2.36176 0
M  V30 1918 H 183.219 -3.65399 1.99681 0
M  V30 1919 H 185.816 -5.34275 -0.213112 0
M  V30 1920 H 186.159 -3.97352 -1.24165 0
M  V30 1921 H 186.692 -3.95166 0.456988 0
M  V30 1922 H 183.431 -5.99559 2.64971 0
M  V30 1923 H 182.951 -5.9241 0.938611 0
M  V30 1924 H 184.63 -6.32085 1.3812 0
M  V30 1925 N 184.763 -0.387143 -1.52771 0
M  V30 1926 C 185.726 0.436939 -2.24997 0
M  V30 1927 C 186.726 0.991991 -1.26555 0
M  V30 1928 O 187.916 0.874335 -1.50669 0
M  V30 1929 C 185.048 1.61281 -3.00335 0
M  V30 1930 H 186.241 -0.195365 -2.99263 0
M  V30 1931 H 183.794 -0.139218 -1.55679 0
M  V30 1932 H 184.529 2.2826 -2.30364 0
M  V30 1933 H 184.314 1.22154 -3.72587 0
M  V30 1934 H 185.804 2.19629 -3.5518 0
M  V30 1935 N 186.241 1.57166 -0.116904 0
M  V30 1936 C 187.652 1.82169 0.408809 0
M  V30 1937 C 188.003 1.03393 1.66746 0
M  V30 1938 O 187.128 0.269886 2.1471 0
M  V30 1939 C 187.723 3.30429 0.748466 0
M  V30 1940 C 186.282 3.5612 1.21882 0
M  V30 1941 C 185.429 2.76374 0.226452 0
M  V30 1942 H 188.38 1.5497 -0.342063 0
M  V30 1943 H 188.401 3.44943 1.60607 0
M  V30 1944 H 187.913 3.87737 -0.167784 0
M  V30 1945 H 186.014 3.04168 2.15204 0
M  V30 1946 H 186.127 4.64705 1.16559 0
M  V30 1947 H 184.491 2.44515 0.713063 0
M  V30 1948 H 185.274 3.3644 -0.682859 0
M  V30 1949 N 187.719 -0.156864 1.56817 0
M  V30 1950 C 189.13 -0.717916 1.72345 0
M  V30 1951 C 189.481 -1.82124 0.729747 0
M  V30 1952 O 188.606 -2.16141 -0.105781 0
M  V30 1953 C 189.201 -1.30904 3.12489 0
M  V30 1954 C 187.76 -1.81676 3.29653 0
M  V30 1955 C 186.907 -0.701349 2.68284 0
M  V30 1956 H 189.858 0.0686989 1.58551 0
M  V30 1957 H 189.879 -2.17882 3.11942 0
M  V30 1958 H 189.391 -0.505796 3.8479 0
M  V30 1959 H 187.492 -2.64598 2.62333 0
M  V30 1960 H 187.605 -1.95226 4.3752 0
M  V30 1961 H 185.969 -1.12548 2.28484 0
M  V30 1962 H 186.752 0.0902846 3.43181 0
M  V30 1963 N 189.197 -1.51736 -0.425897 0
M  V30 1964 C 190.16 -1.73271 -1.50032 0
M  V30 1965 C 191.16 -0.602639 -1.4908 0
M  V30 1966 O 192.35 -0.87033 -1.509 0
M  V30 1967 C 189.482 -1.79969 -2.89523 0
M  V30 1968 H 190.675 -2.69172 -1.32237 0
M  V30 1969 H 188.228 -1.41899 -0.65532 0
M  V30 1970 H 188.963 -0.859241 -3.1271 0
M  V30 1971 H 188.748 -2.62109 -2.91619 0
M  V30 1972 H 190.238 -1.9843 -3.67444 0
M  V30 1973 N 190.675 0.682077 -1.42076 0
M  V30 1974 C 191.921 1.44428 -1.42367 0
M  V30 1975 C 192.254 1.94164 -0.0373056 0
M  V30 1976 O 191.529 1.70429 0.937239 0
M  V30 1977 C 191.812 2.64654 -2.44194 0
M  V30 1978 C 191.665 2.20596 -3.91991 0
M  V30 1979 C 192.984 3.66865 -2.431 0
M  V30 1980 H 190.103 0.523834 -0.518428 0
M  V30 1981 H 192.745 0.77576 -1.73442 0
M  V30 1982 H 190.895 3.2169 -2.17826 0
M  V30 1983 H 192.567 1.68783 -4.29313 0
M  V30 1984 H 190.81 1.52242 -4.06208 0
M  V30 1985 H 191.481 3.06921 -4.58807 0
M  V30 1986 H 193.957 3.19531 -2.66532 0
M  V30 1987 H 192.833 4.48577 -3.16339 0
M  V30 1988 H 193.094 4.17493 -1.45437 0
M  V30 1989 N 192.153 1.28127 0.917671 0
M  V30 1990 C 193.393 1.163 1.68088 0
M  V30 1991 C 193.757 -0.284515 1.8988 0
M  V30 1992 O 194.958 -0.525413 2.63615 0
M  V30 1993 C 193.229 1.93546 3.00457 0
M  V30 1994 S 194.788 1.98048 3.91564 0
M  V30 1995 H 191.606 0.415005 0.577315 0
M  V30 1996 H 194.208 1.62173 1.09179 0
M  V30 1997 H 192.912 2.97888 2.82295 0
M  V30 1998 H 192.443 1.48207 3.64415 0
M  V30 1999 H 194.458 1.08415 4.84211 0
M  V30 2000 N 193.631 -1.12557 1.10312 0
M  V30 2001 C 194.563 -2.17971 0.708625 0
M  V30 2002 C 195.576 -1.60806 -0.254027 0
M  V30 2003 O 196.765 -1.78458 -0.0386891 0
M  V30 2004 C 193.865 -3.38891 0.0248198 0
M  V30 2005 C 193.038 -4.25548 1.01132 0
M  V30 2006 C 192.097 -5.24972 0.35924 0
M  V30 2007 O 191.123 -5.60174 1.00965 0
M  V30 2008 N 192.325 -5.73747 -0.882847 0
M  V30 2009 H 195.09 -2.52427 1.61557 0
M  V30 2010 H 192.651 -1.27967 0.991771 0
M  V30 2011 H 194.643 -4.02485 -0.422852 0
M  V30 2012 H 193.213 -3.02596 -0.784514 0
M  V30 2013 H 192.433 -3.58589 1.6373 0
M  V30 2014 H 193.721 -4.80294 1.67914 0
M  V30 2015 H 193.119 -5.4731 -1.43065 0
M  V30 2016 H 191.676 -6.39234 -1.27369 0
M  V30 2017 N 195.109 -0.891671 -1.2995 0
M  V30 2018 C 196.334 -0.527932 -2.00568 0
M  V30 2019 C 196.759 0.877969 -1.66353 0
M  V30 2020 O 196.117 1.58301 -0.883762 0
M  V30 2021 C 196.165 -0.717745 -3.53385 0
M  V30 2022 O 195.269 0.233376 -4.11739 0
M  V30 2023 H 194.61 -0.20722 -0.630837 0
M  V30 2024 H 197.14 -1.20105 -1.65638 0
M  V30 2025 H 197.15 -0.619307 -4.03272 0
M  V30 2026 H 195.825 -1.74276 -3.77625 0
M  V30 2027 H 194.402 0.0880706 -3.72796 0
M  V30 2028 N 196.587 1.43421 -0.653314 0
M  V30 2029 C 197.836 2.01032 -0.164076 0
M  V30 2030 C 198.149 1.52147 1.22926 0
M  V30 2031 O 199.355 2.02031 1.81371 0
M  V30 2032 C 197.811 3.59082 -0.24252 0
M  V30 2033 C 197.419 4.1696 -1.63855 0
M  V30 2034 C 199.163 4.24079 0.18911 0
M  V30 2035 C 197.07 5.67304 -1.67092 0
M  V30 2036 H 196 0.751798 -0.0575769 0
M  V30 2037 H 198.651 1.6439 -0.815362 0
M  V30 2038 H 197.033 3.93125 0.476276 0
M  V30 2039 H 198.207 3.94416 -2.38271 0
M  V30 2040 H 196.522 3.64335 -2.01616 0
M  V30 2041 H 199.119 5.34381 0.184775 0
M  V30 2042 H 199.462 3.98005 1.22056 0
M  V30 2043 H 199.995 3.94918 -0.477938 0
M  V30 2044 H 196.734 5.98145 -2.68146 0
M  V30 2045 H 196.254 5.91904 -0.970014 0
M  V30 2046 H 197.933 6.31344 -1.4147 0
M  V30 2047 N 198.065 0.39524 1.52563 0
M  V30 2048 C 199.311 -0.185318 2.01952 0
M  V30 2049 C 199.644 -1.45964 1.28095 0
M  V30 2050 O 198.919 -1.90689 0.38315 0
M  V30 2051 C 199.202 -0.447193 3.57312 0
M  V30 2052 C 199.055 0.842828 4.41833 0
M  V30 2053 C 200.374 -1.23529 4.22408 0
M  V30 2054 H 197.493 -0.0658788 0.73405 0
M  V30 2055 H 200.135 0.525975 1.82575 0
M  V30 2056 H 198.285 -1.05312 3.73954 0
M  V30 2057 H 199.957 1.4795 4.36931 0
M  V30 2058 H 198.2 1.45686 4.08605 0
M  V30 2059 H 198.871 0.614165 5.48573 0
M  V30 2060 H 201.347 -0.722445 4.0978 0
M  V30 2061 H 200.223 -1.38727 5.3108 0
M  V30 2062 H 200.484 -2.25213 3.80436 0
M  V30 2063 N 199.544 -1.57102 0.125237 0
M  V30 2064 C 200.494 -2.12202 -0.833936 0
M  V30 2065 C 201.478 -1.04433 -1.22403 0
M  V30 2066 O 202.67 -1.30655 -1.19408 0
M  V30 2067 C 199.799 -2.72994 -2.08157 0
M  V30 2068 C 198.885 -3.87852 -1.71556 0
M  V30 2069 N 199.276 -4.9464 -1.05662 0
M  V30 2070 C 197.574 -3.98153 -2.00973 0
M  V30 2071 C 198.275 -5.74953 -0.883376 0
M  V30 2072 N 197.251 -5.24985 -1.41036 0
M  V30 2073 H 201.053 -2.92141 -0.321035 0
M  V30 2074 H 198.567 -1.62217 -0.0770315 0
M  V30 2075 H 200.564 -3.10816 -2.77847 0
M  V30 2076 H 199.224 -1.9452 -2.59985 0
M  V30 2077 H 200.235 -5.12872 -0.719878 0
M  V30 2078 H 196.912 -3.30728 -2.54804 0
M  V30 2079 H 198.302 -6.70904 -0.365675 0
M  V30 2080 N 201.022 0.148545 -1.56898 0
M  V30 2081 C 201.952 1.18524 -2.01182 0
M  V30 2082 C 202.933 1.4489 -0.891123 0
M  V30 2083 O 204.118 1.55836 -1.15882 0
M  V30 2084 C 201.248 2.51879 -2.39112 0
M  V30 2085 C 200.202 2.40038 -3.54353 0
M  V30 2086 C 199.528 3.78089 -3.78091 0
M  V30 2087 C 200.828 1.88577 -4.87069 0
M  V30 2088 H 202.522 0.817029 -2.88036 0
M  V30 2089 H 200.068 0.391575 -1.38574 0
M  V30 2090 H 202.021 3.24627 -2.68692 0
M  V30 2091 H 200.745 2.90532 -1.49193 0
M  V30 2092 H 199.404 1.69742 -3.24936 0
M  V30 2093 H 199.052 4.14175 -2.85426 0
M  V30 2094 H 198.752 3.71028 -4.55645 0
M  V30 2095 H 200.276 4.52387 -4.10095 0
M  V30 2096 H 201.69 2.51117 -5.15377 0
M  V30 2097 H 200.087 1.9241 -5.68417 0
M  V30 2098 H 201.157 0.84136 -4.77545 0
M  V30 2099 N 202.5 1.5196 0.417844 0
M  V30 2100 C 203.747 1.65591 1.16559 0
M  V30 2101 C 204.075 0.381565 1.90721 0
M  V30 2102 O 203.33 -0.635156 1.85106 0
M  V30 2103 C 203.629 2.82269 2.19223 0
M  V30 2104 C 203.295 4.20819 1.61933 0
M  V30 2105 C 201.957 4.58506 1.46033 0
M  V30 2106 C 204.309 5.07196 1.20008 0
M  V30 2107 C 201.637 5.80257 0.867113 0
M  V30 2108 C 203.989 6.29544 0.621086 0
M  V30 2109 C 202.653 6.65987 0.449144 0
M  V30 2110 H 201.923 0.605939 0.42652 0
M  V30 2111 H 204.57 1.86041 0.45397 0
M  V30 2112 H 202.875 2.56118 2.96498 0
M  V30 2113 H 204.572 2.90012 2.76936 0
M  V30 2114 H 201.162 3.91116 1.7529 0
M  V30 2115 H 205.346 4.7867 1.31105 0
M  V30 2116 H 200.602 6.07124 0.721833 0
M  V30 2117 H 204.776 6.95805 0.287798 0
M  V30 2118 H 202.403 7.60199 -0.012632 0
M  V30 2119 N 203.978 -0.674533 1.42435 0
M  V30 2120 C 204.888 -1.81751 1.48337 0
M  V30 2121 C 205.904 -1.69975 0.372099 0
M  V30 2122 O 207.08 -1.91521 0.62304 0
M  V30 2123 C 204.145 -3.17895 1.38361 0
M  V30 2124 C 203.206 -3.41625 2.59982 0
M  V30 2125 C 202.439 -4.71274 2.50473 0
M  V30 2126 O 202.662 -5.49197 1.54075 0
M  V30 2127 O 201.596 -4.96254 3.4061 0
M  V30 2128 H 205.422 -1.79728 2.44809 0
M  V30 2129 H 203.007 -0.830312 1.24202 0
M  V30 2130 H 204.889 -3.99136 1.35161 0
M  V30 2131 H 203.564 -3.20555 0.450144 0
M  V30 2132 H 202.471 -2.60231 2.68757 0
M  V30 2133 H 203.804 -3.43796 3.52229 0
M  V30 2134 N 205.456 -1.28612 -0.910864 0
M  V30 2135 C 206.733 -1.06632 -1.63979 0
M  V30 2136 C 207.113 0.393351 -2.07403 0
M  V30 2137 O 206.461 1.37999 -1.82122 0
M  V30 2138 C 206.671 -2.0436 -2.8291 0
M  V30 2139 C 208.019 -2.34666 -3.5386 0
M  V30 2140 O 209.043 -2.02467 -2.93062 0
M  V30 2141 O 207.902 -2.89631 -4.63439 0
M  V30 2142 H 204.996 -0.407737 -0.7195 0
M  V30 2143 H 207.542 -1.39942 -0.959914 0
M  V30 2144 H 206.314 -3.02727 -2.47936 0
M  V30 2145 H 205.937 -1.71714 -3.58609 0
M  V30 2146 N 206.934 1.1197 -1.10907 0
M  V30 2147 C 208.211 1.79959 -0.766432 0
M  V30 2148 C 208.591 1.97466 0.746363 0
M  V30 2149 O 207.939 1.55491 1.67436 0
M  V30 2150 C 208.149 3.14009 -1.52314 0
M  V30 2151 C 209.497 3.89134 -1.69883 0
M  V30 2152 O 210.521 3.2368 -1.48692 0
M  V30 2153 O 209.38 5.06572 -2.05054 0
M  V30 2154 H 206.474 0.779208 -0.277062 0
M  V30 2155 H 209.02 1.18762 -1.21217 0
M  V30 2156 H 207.792 2.96587 -2.55249 0
M  V30 2157 H 207.415 3.82915 -1.07059 0
M  V30 2158 N 208.412 0.89855 1.29475 0
M  V30 2159 C 209.345 0.319981 2.25945 0
M  V30 2160 C 210.323 -0.567189 1.52387 0
M  V30 2161 O 211.507 -0.514254 1.8135 0
M  V30 2162 C 208.634 -0.544013 3.34303 0
M  V30 2163 C 207.68 0.275682 4.25608 0
M  V30 2164 S 208.513 1.67272 5.08704 0
M  V30 2165 C 209.669 0.815621 6.20563 0
M  V30 2166 H 209.902 1.13767 2.74671 0
M  V30 2167 H 207.435 0.69882 1.3768 0
M  V30 2168 H 209.393 -1.03673 3.97193 0
M  V30 2169 H 208.054 -1.33593 2.84274 0
M  V30 2170 H 207.247 -0.384263 5.02533 0
M  V30 2171 H 206.849 0.701496 3.67362 0
M  V30 2172 H 209.141 0.0385042 6.77489 0
M  V30 2173 H 210.084 1.55691 6.90772 0
M  V30 2174 H 210.492 0.370516 5.63283 0
M  V30 2175 N 209.89 -1.43072 0.660911 0
M  V30 2176 C 211.136 -2.0202 0.177708 0
M  V30 2177 C 211.469 -1.52066 -1.20787 0
M  V30 2178 O 210.744 -0.716987 -1.80802 0
M  V30 2179 C 211.027 -3.59561 0.197019 0
M  V30 2180 C 210.88 -4.19727 1.61706 0
M  V30 2181 C 212.199 -4.37664 -0.462396 0
M  V30 2182 H 209.318 -0.734034 0.0660494 0
M  V30 2183 H 211.96 -1.70272 0.843058 0
M  V30 2184 H 210.11 -3.86739 -0.369527 0
M  V30 2185 H 211.782 -4.03553 2.23479 0
M  V30 2186 H 210.025 -3.76084 2.16201 0
M  V30 2187 H 210.696 -5.28834 1.58237 0
M  V30 2188 H 213.172 -4.16095 0.0197215 0
M  V30 2189 H 212.048 -5.47305 -0.418188 0
M  V30 2190 H 212.309 -4.14493 -1.53778 0
M  V30 2191 N 211.368 -0.403325 -1.52352 0
M  V30 2192 C 212.278 0.432009 -2.30588 0
M  V30 2193 C 213.294 1.05884 -1.38075 0
M  V30 2194 O 214.47 1.06161 -1.71148 0
M  V30 2195 C 211.535 1.53669 -3.10784 0
M  V30 2196 C 210.596 0.933525 -4.19027 0
M  V30 2197 C 209.829 1.98557 -4.9539 0
M  V30 2198 O 210.052 3.20283 -4.71991 0
M  V30 2199 O 208.986 1.59504 -5.80381 0
M  V30 2200 H 212.812 -0.205739 -3.03002 0
M  V30 2201 H 210.397 -0.166675 -1.48467 0
M  V30 2202 H 212.279 2.17814 -3.60742 0
M  V30 2203 H 210.954 2.15915 -2.41169 0
M  V30 2204 H 209.861 0.254954 -3.7323 0
M  V30 2205 H 211.194 0.35508 -4.90918 0
M  V30 2206 N 212.846 1.57033 -0.133567 0
M  V30 2207 C 214.092 1.95976 0.521649 0
M  V30 2208 C 214.425 1.01779 1.65393 0
M  V30 2209 O 213.7 0.0576581 1.94415 0
M  V30 2210 C 213.983 3.44738 1.04057 0
M  V30 2211 C 213.836 4.49711 -0.0892897 0
M  V30 2212 C 215.155 3.95682 1.92675 0
M  V30 2213 H 212.274 0.712579 0.188149 0
M  V30 2214 H 214.916 1.88813 -0.212076 0
M  V30 2215 H 213.066 3.50973 1.66583 0
M  V30 2216 H 214.738 4.55565 -0.725152 0
M  V30 2217 H 212.981 4.27261 -0.750378 0
M  V30 2218 H 213.652 5.51099 0.315284 0
M  V30 2219 H 216.128 3.91841 1.39998 0
M  V30 2220 H 215.004 5.00262 2.25897 0
M  V30 2221 H 215.265 3.37239 2.85872 0
M  V30 2222 N 214.325 -0.140222 1.56975 0
M  V30 2223 C 215.571 -0.848084 1.84876 0
M  V30 2224 C 215.926 -1.78481 0.718481 0
M  V30 2225 O 215.219 -1.89497 -0.283093 0
M  V30 2226 C 215.413 -1.65386 3.16832 0
M  V30 2227 C 215.242 -0.79665 4.42587 0
M  V30 2228 C 214.012 -0.459648 5.03205 0
M  V30 2229 C 216.21 -0.12389 5.14151 0
M  V30 2230 N 214.192 0.410446 6.12526 0
M  V30 2231 C 215.563 0.606064 6.17031 0
M  V30 2232 C 217.618 -0.0452654 4.97879 0
M  V30 2233 C 216.321 1.40723 7.054 0
M  V30 2234 C 218.347 0.742658 5.86718 0
M  V30 2235 C 217.709 1.46087 6.89085 0
M  V30 2236 H 213.808 -0.287946 0.727056 0
M  V30 2237 H 216.392 -0.11304 1.94372 0
M  V30 2238 H 214.563 -2.36009 3.08471 0
M  V30 2239 H 216.295 -2.30541 3.32615 0
M  V30 2240 H 213.05 -0.797006 4.66846 0
M  V30 2241 H 213.474 0.836716 6.7181 0
M  V30 2242 H 218.116 -0.586184 4.18717 0
M  V30 2243 H 215.834 1.95938 7.83986 0
M  V30 2244 H 219.42 0.805574 5.76196 0
M  V30 2245 H 218.3 2.06077 7.56639 0
M  V30 2246 N 215.803 -1.52179 -0.40978 0
M  V30 2247 C 217.219 -1.40968 -0.74835 0
M  V30 2248 C 217.419 -0.513657 -1.94843 0
M  V30 2249 O 216.475 0.0208026 -2.52491 0
M  V30 2250 C 217.788 -2.83483 -1.0029 0
M  V30 2251 C 219.336 -2.92821 -1.10565 0
M  V30 2252 C 219.811 -4.36303 -1.39296 0
M  V30 2253 N 221.302 -4.39535 -1.46162 0
M  V30 2254 C 222.037 -5.47614 -1.70018 0
M  V30 2255 N 221.533 -6.65812 -1.91483 0
M  V30 2256 N 223.326 -5.35129 -1.72027 0
M  V30 2257 H 215.477 -2.0897 0.380186 0
M  V30 2258 H 217.74 -0.94185 0.107805 0
M  V30 2259 H 217.446 -3.51168 -0.193461 0
M  V30 2260 H 217.32 -3.24487 -1.92323 0
M  V30 2261 H 219.707 -2.25318 -1.90568 0
M  V30 2262 H 219.788 -2.55276 -0.16369 0
M  V30 2263 H 219.432 -5.04366 -0.598109 0
M  V30 2264 H 219.362 -4.71385 -2.34743 0
M  V30 2265 H 221.853 -3.54332 -1.31367 0
M  V30 2266 H 222.166 -7.43964 -2.09134 0
M  V30 2267 H 220.511 -6.68879 -1.88749 0
M  V30 2268 H 223.702 -4.41764 -1.54796 0
M  V30 2269 H 223.875 -6.19433 -1.9028 0
M  V30 2270 N 217.281 0.66697 -1.42791 0
M  V30 2271 C 218.697 0.981027 -1.25889 0
M  V30 2272 C 218.897 2.00793 -0.168695 0
M  V30 2273 O 217.953 2.48321 0.45747 0
M  V30 2274 C 219.266 1.47838 -2.61848 0
M  V30 2275 C 220.814 1.59575 -2.69267 0
M  V30 2276 C 221.289 2.12704 -4.05612 0
M  V30 2277 N 222.78 2.20026 -4.07606 0
M  V30 2278 C 223.515 2.62227 -5.09926 0
M  V30 2279 N 223.011 3.03824 -6.22626 0
M  V30 2280 N 224.804 2.62045 -4.97281 0
M  V30 2281 H 216.955 -0.0127891 -2.12396 0
M  V30 2282 H 219.218 0.0568258 -0.946295 0
M  V30 2283 H 218.924 0.798299 -3.4252 0
M  V30 2284 H 218.798 2.45579 -2.86305 0
M  V30 2285 H 221.185 2.26687 -1.88936 0
M  V30 2286 H 221.266 0.60302 -2.48591 0
M  V30 2287 H 220.91 1.46198 -4.86404 0
M  V30 2288 H 220.84 3.12782 -4.23645 0
M  V30 2289 H 223.331 1.90708 -3.2625 0
M  V30 2290 H 223.644 3.34734 -6.96544 0
M  V30 2291 H 221.989 3.01662 -6.26119 0
M  V30 2292 H 225.18 2.28916 -4.08308 0
M  V30 2293 H 225.353 2.94613 -5.77154 0
M  V30 2294 N 218.759 1.29093 0.90403 0
M  V30 2295 C 219.984 1.19809 1.69294 0
M  V30 2296 C 220.409 -0.238481 1.86582 0
M  V30 2297 O 219.767 -1.1723 1.383 0
M  V30 2298 C 219.815 1.91202 3.05736 0
M  V30 2299 O 218.919 1.22611 3.93752 0
M  V30 2300 H 218.26 0.415385 0.518027 0
M  V30 2301 H 220.79 1.70586 1.12967 0
M  V30 2302 H 220.8 1.99487 3.55906 0
M  V30 2303 H 219.475 2.95692 2.92471 0
M  V30 2304 H 218.052 1.22554 3.52186 0
M  V30 2305 N 220.237 -1.11381 1.11499 0
M  V30 2306 C 221.483 -1.83403 0.865512 0
M  V30 2307 C 221.816 -1.84459 -0.607329 0
M  V30 2308 O 221.091 -1.29811 -1.44842 0
M  V30 2309 C 221.374 -3.30552 1.42855 0
M  V30 2310 C 221.227 -3.37886 2.96906 0
M  V30 2311 C 222.546 -4.26643 1.08 0
M  V30 2312 H 219.665 -0.665879 0.31587 0
M  V30 2313 H 222.307 -1.30601 1.37998 0
M  V30 2314 H 220.457 -3.75648 0.990985 0
M  V30 2315 H 222.129 -3.01343 3.49271 0
M  V30 2316 H 220.372 -2.78088 3.32941 0
M  V30 2317 H 221.043 -4.41458 3.31389 0
M  V30 2318 H 223.519 -3.89729 1.45775 0
M  V30 2319 H 222.395 -5.27986 1.50072 0
M  V30 2320 H 222.656 -4.42099 -0.00915037 0
M  V30 2321 N 221.715 -0.905404 -1.28997 0
M  V30 2322 C 222.645 -0.404212 -2.29975 0
M  V30 2323 C 223.626 0.523784 -1.61835 0
M  V30 2324 O 224.811 0.433298 -1.89304 0
M  V30 2325 C 221.941 0.364042 -3.45387 0
M  V30 2326 C 220.895 -0.474048 -4.25367 0
M  V30 2327 C 220.221 0.422045 -5.33032 0
M  V30 2328 C 221.521 -1.72696 -4.92923 0
M  V30 2329 H 223.215 -1.24807 -2.72146 0
M  V30 2330 H 220.761 -0.601585 -1.30832 0
M  V30 2331 H 222.714 0.725447 -4.15109 0
M  V30 2332 H 221.438 1.24174 -3.02074 0
M  V30 2333 H 220.097 -0.81786 -3.57361 0
M  V30 2334 H 219.745 1.29804 -4.85963 0
M  V30 2335 H 219.445 -0.135057 -5.87445 0
M  V30 2336 H 220.969 0.779517 -6.05604 0
M  V30 2337 H 222.383 -1.43495 -5.55051 0
M  V30 2338 H 220.78 -2.22582 -5.57295 0
M  V30 2339 H 221.85 -2.45964 -4.17887 0
M  V30 2340 N 223.193 1.4272 -0.668489 0
M  V30 2341 C 224.418 2.06484 -0.194758 0
M  V30 2342 C 224.843 1.49862 1.13679 0
M  V30 2343 O 224.201 0.614582 1.70565 0
M  V30 2344 C 224.249 3.60353 -0.133546 0
M  V30 2345 O 223.353 4.02464 0.899806 0
M  V30 2346 H 222.694 0.656137 -0.10188 0
M  V30 2347 H 225.224 1.82964 -0.915722 0
M  V30 2348 H 225.234 4.07976 0.0447041 0
M  V30 2349 H 223.909 4.00938 -1.1055 0
M  V30 2350 H 222.486 3.66402 0.693109 0
M  V30 2351 N 224.671 0.411399 1.52136 0
M  V30 2352 C 226.082 -0.0576826 1.86611 0
M  V30 2353 C 226.433 -1.44238 1.33003 0
M  V30 2354 O 225.558 -2.05759 0.670228 0
M  V30 2355 C 226.153 -0.111448 3.38617 0
M  V30 2356 C 224.712 -0.52487 3.72723 0
M  V30 2357 C 223.859 0.299176 2.75681 0
M  V30 2358 H 226.81 0.628368 1.4573 0
M  V30 2359 H 226.831 -0.926252 3.69054 0
M  V30 2360 H 226.343 0.896488 3.77604 0
M  V30 2361 H 224.444 -1.53936 3.39315 0
M  V30 2362 H 224.557 -0.267681 4.78352 0
M  V30 2363 H 222.921 -0.238814 2.53578 0
M  V30 2364 H 223.704 1.3055 3.17508 0
M  V30 2365 N 226.149 -1.5696 0.141893 0
M  V30 2366 C 227.374 -2.00754 -0.520838 0
M  V30 2367 C 227.799 -1.0213 -1.57959 0
M  V30 2368 O 227.157 0.00371324 -1.813 0
M  V30 2369 C 227.205 -3.43318 -1.10294 0
M  V30 2370 O 226.309 -3.47679 -2.21795 0
M  V30 2371 H 225.65 -0.651564 -0.127908 0
M  V30 2372 H 228.18 -2.03221 0.23712 0
M  V30 2373 H 228.19 -3.82012 -1.43287 0
M  V30 2374 H 226.865 -4.14608 -0.327574 0
M  V30 2375 H 225.442 -3.20824 -1.9007 0
M  V30 2376 N 227.627 0.131896 -1.57047 0
M  V30 2377 C 228.537 1.1815 -2.02676 0
M  V30 2378 C 229.553 1.46113 -0.944824 0
M  V30 2379 O 230.729 1.57485 -1.25541 0
M  V30 2380 C 227.794 2.49139 -2.41103 0
M  V30 2381 C 226.855 2.28688 -3.63318 0
M  V30 2382 C 226.088 3.53431 -3.99903 0
M  V30 2383 O 226.311 4.60223 -3.36973 0
M  V30 2384 O 225.245 3.45198 -4.93074 0
M  V30 2385 H 229.071 0.824069 -2.92306 0
M  V30 2386 H 226.656 0.341745 -1.45439 0
M  V30 2387 H 228.538 3.26338 -2.66611 0
M  V30 2388 H 227.213 2.84382 -1.54624 0
M  V30 2389 H 226.12 1.4939 -3.42977 0
M  V30 2390 H 227.453 1.98355 -4.50462 0
M  V30 2391 N 229.106 1.52395 0.401703 0
M  V30 2392 C 230.069 1.75636 1.47257 0
M  V30 2393 C 231.069 0.62628 1.48103 0
M  V30 2394 O 232.259 0.894227 1.49497 0
M  V30 2395 C 229.391 1.84553 2.86624 0
M  V30 2396 H 230.584 2.71241 1.27938 0
M  V30 2397 H 228.137 1.42923 0.632662 0
M  V30 2398 H 228.872 0.908882 3.11303 0
M  V30 2399 H 228.657 2.66715 2.87412 0
M  V30 2400 H 230.147 2.04251 3.64241 0
M  V30 2401 N 230.584 -0.659388 1.43143 0
M  V30 2402 C 231.824 -1.43121 1.45931 0
M  V30 2403 C 232.188 -1.91838 0.0789298 0
M  V30 2404 O 233.389 -2.68794 -0.018491 0
M  V30 2405 C 231.66 -2.58534 2.46769 0
M  V30 2406 S 233.219 -3.47154 2.68384 0
M  V30 2407 H 230.037 -0.488624 0.516496 0
M  V30 2408 H 232.639 -0.766128 1.79863 0
M  V30 2409 H 231.343 -2.21007 3.45809 0
M  V30 2410 H 230.874 -3.29898 2.14315 0
M  V30 2411 H 232.889 -4.55051 1.97845 0
M  V30 2412 N 232.062 -1.29571 -0.897171 0
M  V30 2413 C 233.31 -1.17456 -1.64464 0
M  V30 2414 C 233.631 0.273698 -1.9307 0
M  V30 2415 O 232.901 1.18684 -1.55855 0
M  V30 2416 H 231.481 -0.431706 -0.609622 0
M  V30 2417 H 234.143 -1.62531 -1.07562 0
M  V30 2418 H 233.239 -1.72648 -2.59998 0
M  V30 2419 N 233.54 1.10788 -1.12088 0
M  V30 2420 C 234.47 2.19083 -0.807755 0
M  V30 2421 C 235.451 1.6858 0.226859 0
M  V30 2422 O 236.636 1.93997 0.0888475 0
M  V30 2423 C 233.766 3.46344 -0.257576 0
M  V30 2424 C 232.72 4.101 -1.22483 0
M  V30 2425 C 232.046 5.32016 -0.535052 0
M  V30 2426 C 233.346 4.54236 -2.57811 0
M  V30 2427 H 235.04 2.45534 -1.71328 0
M  V30 2428 H 232.586 1.1801 -0.825205 0
M  V30 2429 H 234.539 4.21392 -0.0262679 0
M  V30 2430 H 233.263 3.19373 0.683278 0
M  V30 2431 H 231.922 3.37054 -1.44189 0
M  V30 2432 H 231.57 5.01319 0.410827 0
M  V30 2433 H 231.27 5.75625 -1.18024 0
M  V30 2434 H 232.794 6.09799 -0.312695 0
M  V30 2435 H 234.208 5.20575 -2.40155 0
M  V30 2436 H 232.605 5.08682 -3.18375 0
M  V30 2437 H 233.675 3.6734 -3.16528 0
M  V30 2438 N 235.018 0.912232 1.28515 0
M  V30 2439 C 235.948 0.416403 2.29757 0
M  V30 2440 C 236.929 -0.515194 1.6211 0
M  V30 2441 O 238.114 -0.423253 1.89532 0
M  V30 2442 C 235.244 -0.34572 3.45575 0
M  V30 2443 C 234.198 0.496599 4.25109 0
M  V30 2444 C 233.524 -0.393771 5.33248 0
M  V30 2445 C 234.824 1.75307 4.92001 0
M  V30 2446 H 236.518 1.26249 2.7148 0
M  V30 2447 H 234.064 0.608515 1.30511 0
M  V30 2448 H 236.017 -0.703422 4.15488 0
M  V30 2449 H 234.741 -1.2257 3.02728 0
M  V30 2450 H 233.4 0.8368 3.56922 0
M  V30 2451 H 233.048 -1.27225 4.86644 0
M  V30 2452 H 232.748 0.166209 5.87365 0
M  V30 2453 H 234.272 -0.747389 6.06009 0
M  V30 2454 H 235.686 1.46437 5.54283 0
M  V30 2455 H 234.083 2.25534 5.56106 0
M  V30 2456 H 235.153 2.48176 4.16577 0
M  V30 2457 N 236.496 -1.42363 0.676048 0
M  V30 2458 C 237.426 -2.33497 0.0124832 0
M  V30 2459 C 238.407 -1.50748 -0.787981 0
M  V30 2460 O 239.592 -1.79346 -0.744884 0
M  V30 2461 C 236.722 -3.34377 -0.938582 0
M  V30 2462 C 235.676 -4.27289 -0.246622 0
M  V30 2463 C 235.002 -5.18386 -1.31071 0
M  V30 2464 C 236.302 -5.14916 0.875125 0
M  V30 2465 H 237.996 -2.89233 0.773593 0
M  V30 2466 H 235.542 -1.39073 0.37346 0
M  V30 2467 H 237.495 -3.97044 -1.41188 0
M  V30 2468 H 236.219 -2.76947 -1.73113 0
M  V30 2469 H 234.878 -3.66018 0.206456 0
M  V30 2470 H 234.526 -4.57282 -2.09528 0
M  V30 2471 H 234.226 -5.81378 -0.852839 0
M  V30 2472 H 235.75 -5.83929 -1.78492 0
M  V30 2473 H 237.164 -5.71262 0.482983 0
M  V30 2474 H 235.561 -5.86747 1.25887 0
M  V30 2475 H 236.631 -4.53242 1.72335 0
M  V30 2476 N 237.974 -0.419461 -1.51915 0
M  V30 2477 C 239.222 0.152637 -2.01523 0
M  V30 2478 C 239.543 1.44762 -1.30649 0
M  V30 2479 O 238.813 1.90997 -0.435535 0
M  V30 2480 H 237.393 0.0593966 -0.744635 0
M  V30 2481 H 240.055 -0.558073 -1.86739 0
M  V30 2482 H 239.151 0.341369 -3.10227 0
M  V30 2483 N 239.452 1.56882 -0.150215 0
M  V30 2484 C 240.677 2.01027 0.510184 0
M  V30 2485 C 241.102 1.02966 1.57415 0
M  V30 2486 O 240.46 0.00590158 1.81299 0
M  V30 2487 C 240.508 3.43899 1.08472 0
M  V30 2488 O 239.612 3.4885 2.19948 0
M  V30 2489 H 238.953 0.652233 0.124451 0
M  V30 2490 H 241.483 2.03093 -0.247894 0
M  V30 2491 H 241.493 3.82766 1.41259 0
M  V30 2492 H 240.168 4.14776 0.305582 0
M  V30 2493 H 238.745 3.21827 1.88366 0
M  V30 2494 N 240.93 -0.123565 1.57115 0
M  V30 2495 C 242.158 -0.846461 1.88793 0
M  V30 2496 C 242.573 -1.73652 0.740976 0
M  V30 2497 O 241.93 -1.80207 -0.288393 0
M  V30 2498 C 241.981 -1.6837 3.19897 0
M  V30 2499 O 241.702 -0.829477 4.30176 0
M  V30 2500 C 243.203 -2.51214 3.65248 0
M  V30 2501 H 240.423 -0.243573 0.625231 0
M  V30 2502 H 242.967 -0.109324 2.04208 0
M  V30 2503 H 241.122 -2.37364 3.06165 0
M  V30 2504 H 241.536 -1.40651 5.0529 0
M  V30 2505 H 243.01 -3.05497 4.59756 0
M  V30 2506 H 243.487 -3.28359 2.9168 0
M  V30 2507 H 244.093 -1.8747 3.81752 0
M  V30 2508 N 242.408 -1.52605 -0.393616 0
M  V30 2509 C 243.648 -1.6911 -1.1481 0
M  V30 2510 C 244.012 -0.41969 -1.87357 0
M  V30 2511 O 245.213 -0.461034 -2.64817 0
M  V30 2512 C 243.484 -2.88909 -2.10395 0
M  V30 2513 S 245.043 -3.25977 -2.93742 0
M  V30 2514 H 241.861 -0.595337 -0.38871 0
M  V30 2515 H 244.463 -1.90641 -0.433178 0
M  V30 2516 H 243.167 -3.79672 -1.55812 0
M  V30 2517 H 242.698 -2.69698 -2.86403 0
M  V30 2518 H 244.713 -2.75806 -4.12487 0
M  V30 2519 N 243.887 0.651787 -1.4349 0
M  V30 2520 C 245.135 1.40888 -1.44897 0
M  V30 2521 C 245.456 1.94856 -0.0749086 0
M  V30 2522 O 244.726 1.74518 0.889956 0
M  V30 2523 H 243.306 0.522887 -0.533478 0
M  V30 2524 H 245.968 0.768609 -1.79104 0
M  V30 2525 H 245.064 2.25052 -2.16236 0
M  V30 2526 N 245.365 1.30045 0.890287 0
M  V30 2527 C 246.315 1.12592 1.9826 0
M  V30 2528 C 247.299 0.0426021 1.60844 0
M  V30 2529 O 248.491 0.265346 1.75 0
M  V30 2530 C 245.62 0.814301 3.33503 0
M  V30 2531 C 244.706 1.93761 3.7725 0
M  V30 2532 N 245.097 3.18232 3.93143 0
M  V30 2533 C 243.395 1.83277 4.06602 0
M  V30 2534 C 244.096 3.9158 4.30163 0
M  V30 2535 N 243.072 3.19591 4.3973 0
M  V30 2536 H 246.874 2.07003 2.08631 0
M  V30 2537 H 244.388 1.21307 1.07974 0
M  V30 2538 H 246.385 0.67029 4.11476 0
M  V30 2539 H 245.045 -0.121797 3.24471 0
M  V30 2540 H 246.056 3.53581 3.78419 0
M  V30 2541 H 242.733 0.97001 4.06075 0
M  V30 2542 H 244.123 4.98744 4.50226 0
M  V30 2543 N 246.843 -1.10192 1.12674 0
M  V30 2544 C 248.089 -1.82658 0.894847 0
M  V30 2545 C 248.444 -1.83666 -0.573107 0
M  V30 2546 O 247.737 -1.28816 -1.41835 0
M  V30 2547 C 247.931 -3.28552 1.4067 0
M  V30 2548 C 247.76 -3.41756 2.92289 0
M  V30 2549 C 246.53 -3.54021 3.60551 0
M  V30 2550 C 248.728 -3.34949 3.90274 0
M  V30 2551 N 246.71 -3.55827 5.0026 0
M  V30 2552 C 248.081 -3.43531 5.16127 0
M  V30 2553 C 250.136 -3.18565 3.8265 0
M  V30 2554 C 248.839 -3.37416 6.3525 0
M  V30 2555 C 250.865 -3.13772 5.01299 0
M  V30 2556 C 250.227 -3.22938 6.26012 0
M  V30 2557 H 246.326 -0.683044 0.380756 0
M  V30 2558 H 248.91 -1.31752 1.43351 0
M  V30 2559 H 247.081 -3.77946 0.895055 0
M  V30 2560 H 248.813 -3.88991 1.11661 0
M  V30 2561 H 245.568 -3.57135 3.1105 0
M  V30 2562 H 245.992 -3.60335 5.73138 0
M  V30 2563 H 250.634 -3.10354 2.87124 0
M  V30 2564 H 248.352 -3.44391 7.3104 0
M  V30 2565 H 251.938 -3.02242 4.97133 0
M  V30 2566 H 250.818 -3.19235 7.16281 0
M  V30 2567 N 248.321 -0.919034 -1.28029 0
M  V30 2568 C 249.598 -0.473668 -1.89778 0
M  V30 2569 C 249.978 1.04783 -1.83259 0
M  V30 2570 O 249.326 1.8982 -1.27202 0
M  V30 2571 C 249.536 -1.00998 -3.34066 0
M  V30 2572 C 250.884 -1.06525 -4.1102 0
M  V30 2573 O 251.908 -0.958996 -3.43048 0
M  V30 2574 O 250.767 -1.22776 -5.3253 0
M  V30 2575 H 247.861 -0.15098 -0.813101 0
M  V30 2576 H 250.407 -1.01016 -1.36359 0
M  V30 2577 H 249.179 -2.05392 -3.33061 0
M  V30 2578 H 248.802 -0.454626 -3.94992 0
M  V30 2579 N 249.799 1.42003 -0.683588 0
M  V30 2580 C 251.048 2.00638 -0.206681 0
M  V30 2581 C 251.361 1.5472 1.19671 0
M  V30 2582 O 252.567 2.05833 1.77045 0
M  V30 2583 C 251.023 3.58487 -0.318632 0
M  V30 2584 C 250.631 4.1339 -1.72663 0
M  V30 2585 C 252.375 4.24384 0.0991141 0
M  V30 2586 C 250.282 5.63633 -1.79087 0
M  V30 2587 H 249.212 0.750408 -0.0735107 0
M  V30 2588 H 251.863 1.62624 -0.850048 0
M  V30 2589 H 250.245 3.94047 0.392781 0
M  V30 2590 H 251.419 3.89273 -2.46583 0
M  V30 2591 H 249.734 3.59976 -2.09299 0
M  V30 2592 H 252.331 5.34652 0.0713833 0
M  V30 2593 H 252.674 4.00505 1.13586 0
M  V30 2594 H 253.207 3.93816 -0.561599 0
M  V30 2595 H 249.946 5.92323 -2.80774 0
M  V30 2596 H 249.466 5.89714 -1.09535 0
M  V30 2597 H 251.145 6.28201 -1.5483 0
M  V30 2598 N 251.277 0.427512 1.51691 0
M  V30 2599 C 252.524 -0.142229 2.02 0
M  V30 2600 C 252.852 -1.43566 1.31221 0
M  V30 2601 O 252.107 -1.91298 0.412744 0
M  V30 2602 C 252.406 -0.418249 3.54944 0
M  V30 2603 C 252.072 0.788187 4.43958 0
M  V30 2604 C 250.734 1.11906 4.68007 0
M  V30 2605 C 253.086 1.59347 4.96244 0
M  V30 2606 C 250.414 2.25608 5.41588 0
M  V30 2607 C 252.766 2.7214 5.71072 0
M  V30 2608 C 251.43 3.05692 5.93387 0
M  V30 2609 H 250.7 -0.0520451 0.73917 0
M  V30 2610 H 253.347 0.572697 1.82736 0
M  V30 2611 H 251.652 -1.21496 3.72486 0
M  V30 2612 H 253.349 -0.872339 3.91397 0
M  V30 2613 H 249.939 0.520344 4.2543 0
M  V30 2614 H 254.123 1.35106 4.77556 0
M  V30 2615 H 249.379 2.51929 5.57083 0
M  V30 2616 H 253.553 3.34914 6.10578 0
M  V30 2617 H 251.18 3.9391 6.50184 0
M  V30 2618 N 252.755 -1.56801 0.158532 0
M  V30 2619 C 253.98 -2.01295 -0.499516 0
M  V30 2620 C 254.405 -1.03799 -1.56867 0
M  V30 2621 O 253.763 -0.0155162 -1.81293 0
M  V30 2622 C 253.811 -3.44469 -1.06647 0
M  V30 2623 O 252.915 -3.50012 -2.18095 0
M  V30 2624 H 252.256 -0.652884 -0.12099 0
M  V30 2625 H 254.786 -2.02958 0.258661 0
M  V30 2626 H 254.796 -3.8351 -1.39227 0
M  V30 2627 H 253.471 -4.14932 -0.283581 0
M  V30 2628 H 252.048 -3.22822 -1.86656 0
M  V30 2629 N 254.233 0.115231 -1.57178 0
M  V30 2630 C 255.458 0.840354 -1.89612 0
M  V30 2631 C 255.883 1.72464 -0.750845 0
M  V30 2632 O 255.241 1.78826 0.298478 0
M  V30 2633 C 255.289 1.64654 -3.20814 0
M  V30 2634 O 254.393 2.7538 -3.06985 0
M  V30 2635 H 253.734 0.232158 -0.622092 0
M  V30 2636 H 256.264 0.0964977 -2.04372 0
M  V30 2637 H 256.274 2.03499 -3.53627 0
M  V30 2638 H 254.949 0.997416 -4.03763 0
M  V30 2639 H 253.526 2.3971 -2.85646 0
M  V30 2640 N 255.711 1.52812 0.385517 0
M  V30 2641 C 256.957 1.69225 1.12847 0
M  V30 2642 C 257.312 0.42864 1.87564 0
M  V30 2643 O 256.605 -0.57779 1.8268 0
M  V30 2644 C 256.799 2.86856 2.13187 0
M  V30 2645 C 256.628 4.24535 1.48325 0
M  V30 2646 C 255.398 4.89701 1.24585 0
M  V30 2647 C 257.596 5.05794 0.931501 0
M  V30 2648 N 255.578 6.11353 0.558644 0
M  V30 2649 C 256.949 6.1888 0.372552 0
M  V30 2650 C 259.004 4.90963 0.828248 0
M  V30 2651 C 257.707 7.18757 -0.279556 0
M  V30 2652 C 259.733 5.91095 0.189956 0
M  V30 2653 C 259.095 7.03489 -0.358207 0
M  V30 2654 H 255.194 0.67268 0.39878 0
M  V30 2655 H 257.778 1.9017 0.417528 0
M  V30 2656 H 255.949 2.67484 2.81614 0
M  V30 2657 H 257.681 2.92188 2.80014 0
M  V30 2658 H 254.436 4.48485 1.52178 0
M  V30 2659 H 254.86 6.76606 0.230983 0
M  V30 2660 H 259.502 4.04274 1.23784 0
M  V30 2661 H 257.22 8.05052 -0.701152 0
M  V30 2662 H 260.806 5.81694 0.111264 0
M  V30 2663 H 259.686 7.79642 -0.844314 0
M  V30 2664 N 257.189 -0.644168 1.43834 0
M  V30 2665 C 258.137 -1.77793 1.49974 0
M  V30 2666 C 259.131 -1.65253 0.372536 0
M  V30 2667 O 260.337 -1.7149 0.546924 0
M  V30 2668 H 256.712 -0.58675 0.47035 0
M  V30 2669 H 258.683 -1.69736 2.45423 0
M  V30 2670 C 257.432 -3.16087 1.4486 0
M  V30 2671 H 256.755 -3.26378 2.30905 0
M  V30 2672 H 258.195 -3.95349 1.53217 0
M  V30 2673 C 256.654 -3.36484 0.167463 0
M  V30 2674 O 257.184 -3.94298 -0.767609 0
M  V30 2675 N 255.39 -2.90504 0.0747556 0
M  V30 2676 H 254.937 -2.4364 0.836507 0
M  V30 2677 H 254.895 -3.04527 -0.781714 0
M  V30 2678 N 258.668 -1.30515 -0.883378 0
M  V30 2679 C 259.917 -1.18795 -1.63005 0
M  V30 2680 C 260.23 0.255923 -1.93919 0
M  V30 2681 O 261.436 0.494654 -2.66956 0
M  V30 2682 C 259.892 -2.07878 -2.93794 0
M  V30 2683 C 259.5 -3.57184 -2.70414 0
M  V30 2684 C 261.244 -2.04924 -3.71761 0
M  V30 2685 C 259.151 -4.38317 -3.97029 0
M  V30 2686 H 258.081 -0.441031 -0.611562 0
M  V30 2687 H 260.732 -1.55275 -0.977854 0
M  V30 2688 H 259.114 -1.64283 -3.60315 0
M  V30 2689 H 260.288 -4.08937 -2.12384 0
M  V30 2690 H 258.603 -3.61976 -2.0582 0
M  V30 2691 H 261.2 -2.62792 -4.65665 0
M  V30 2692 H 261.543 -1.0331 -4.03277 0
M  V30 2693 H 262.076 -2.46649 -3.12104 0
M  V30 2694 H 258.815 -5.40632 -3.70671 0
M  V30 2695 H 258.335 -3.91326 -4.54559 0
M  V30 2696 H 260.014 -4.49834 -4.65036 0
M  V30 2697 N 260.146 1.09593 -1.13257 0
M  V30 2698 C 261.371 1.8604 -0.916732 0
M  V30 2699 C 261.796 1.80504 0.529146 0
M  V30 2700 O 261.154 1.18127 1.37534 0
M  V30 2701 C 261.202 3.32017 -1.40703 0
M  V30 2702 O 260.306 4.08141 -0.591153 0
M  V30 2703 H 259.647 0.576943 -0.328683 0
M  V30 2704 H 262.177 1.38405 -1.50682 0
M  V30 2705 H 262.187 3.82865 -1.4099 0
M  V30 2706 H 260.862 3.35361 -2.45979 0
M  V30 2707 H 259.439 3.67084 -0.656005 0
M  V30 2708 N 261.624 0.925811 1.2754 0
M  V30 2709 C 262.554 0.440748 2.29303 0
M  V30 2710 C 263.535 -0.497971 1.62648 0
M  V30 2711 O 264.72 -0.403126 1.8997 0
M  V30 2712 C 261.85 -0.309048 3.45922 0
M  V30 2713 C 260.804 0.54166 4.24559 0
M  V30 2714 C 260.13 -0.337191 5.33636 0
M  V30 2715 C 261.43 1.80516 4.90114 0
M  V30 2716 H 263.124 1.29121 2.70126 0
M  V30 2717 H 260.67 0.622323 1.29858 0
M  V30 2718 H 262.623 -0.659315 4.1621 0
M  V30 2719 H 261.347 -1.19352 3.04011 0
M  V30 2720 H 260.006 0.874609 3.56014 0
M  V30 2721 H 259.654 -1.22056 4.87966 0
M  V30 2722 H 259.354 0.228497 5.87156 0
M  V30 2723 H 260.878 -0.683072 6.06767 0
M  V30 2724 H 262.292 1.52307 5.52698 0
M  V30 2725 H 260.689 2.3142 5.53683 0
M  V30 2726 H 261.759 2.52581 4.13921 0
M  V30 2727 N 263.102 -1.41638 0.69111 0
M  V30 2728 C 264.513 -1.84346 0.295517 0
M  V30 2729 C 264.864 -1.57833 -1.16547 0
M  V30 2730 O 263.989 -1.04648 -1.89414 0
M  V30 2731 C 264.584 -3.34636 0.529575 0
M  V30 2732 C 263.143 -3.7593 0.187944 0
M  V30 2733 C 262.29 -2.65082 0.814052 0
M  V30 2734 H 265.241 -1.31253 0.892092 0
M  V30 2735 H 265.262 -3.79903 -0.213148 0
M  V30 2736 H 264.774 -3.53901 1.59297 0
M  V30 2737 H 262.875 -3.62268 -0.871367 0
M  V30 2738 H 262.988 -4.74808 0.63985 0
M  V30 2739 H 261.352 -2.53528 0.244017 0
M  V30 2740 H 262.135 -2.87167 1.88123 0
M  V30 2741 N 264.58 -0.43555 -1.51462 0
M  V30 2742 C 265.808 0.130242 -2.0649 0
M  V30 2743 C 266.223 1.36614 -1.30315 0
M  V30 2744 O 265.58 1.78869 -0.362223 0
M  V30 2745 C 265.631 0.454253 -3.58635 0
M  V30 2746 O 265.352 -0.73259 -4.31931 0
M  V30 2747 C 266.853 1.07091 -4.3017 0
M  V30 2748 H 264.073 0.00871669 -0.670943 0
M  V30 2749 H 266.617 -0.614117 -1.95061 0
M  V30 2750 H 264.772 1.14851 -3.69984 0
M  V30 2751 H 265.186 -0.455787 -5.22516 0
M  V30 2752 H 266.66 1.24764 -5.37716 0
M  V30 2753 H 267.137 2.05144 -3.88346 0
M  V30 2754 H 267.743 0.416089 -4.2326 0
M  V30 2755 N 266.058 1.56714 -0.166846 0
M  V30 2756 C 267.304 1.97039 0.479962 0
M  V30 2757 C 267.637 1.05264 1.63197 0
M  V30 2758 O 266.912 0.0988833 1.94248 0
M  V30 2759 C 267.195 3.46867 0.967212 0
M  V30 2760 C 267.048 4.49421 -0.18466 0
M  V30 2761 C 268.367 3.9968 1.84238 0
M  V30 2762 H 265.486 0.71641 0.172992 0
M  V30 2763 H 268.128 1.8832 -0.252079 0
M  V30 2764 H 266.278 3.54428 1.59101 0
M  V30 2765 H 267.95 4.53924 -0.821621 0
M  V30 2766 H 266.193 4.25573 -0.840837 0
M  V30 2767 H 266.864 5.51644 0.198317 0
M  V30 2768 H 269.34 3.94723 1.31655 0
M  V30 2769 H 268.216 5.04941 2.15234 0
M  V30 2770 H 268.477 3.43226 2.78654 0
M  V30 2771 N 267.536 -0.106894 1.57237 0
M  V30 2772 C 268.947 -0.662723 1.74542 0
M  V30 2773 C 269.298 -1.7971 0.787319 0
M  V30 2774 O 268.423 -2.16368 -0.0369636 0
M  V30 2775 C 269.018 -1.20896 3.16496 0
M  V30 2776 C 267.577 -1.71096 3.35266 0
M  V30 2777 C 266.724 -0.615642 2.7038 0
M  V30 2778 H 269.675 0.119106 1.58252 0
M  V30 2779 H 269.696 -2.07847 3.18716 0
M  V30 2780 H 269.208 -0.383122 3.86204 0
M  V30 2781 H 267.309 -2.56119 2.70618 0
M  V30 2782 H 267.422 -1.81208 4.43509 0
M  V30 2783 H 265.786 -1.05222 2.31949 0
M  V30 2784 H 266.569 0.199419 3.4272 0
M  V30 2785 N 269.014 -1.53014 -0.377408 0
M  V30 2786 C 269.961 -1.78616 -1.46168 0
M  V30 2787 C 270.931 -0.629917 -1.53692 0
M  V30 2788 O 272.116 -0.870861 -1.69766 0
M  V30 2789 C 269.256 -1.97123 -2.8326 0
M  V30 2790 C 268.369 -3.24831 -2.84796 0
M  V30 2791 C 267.504 -3.33591 -4.13389 0
M  V30 2792 C 266.543 -4.55377 -4.09021 0
M  V30 2793 N 265.68 -4.61355 -5.29241 0
M  V30 2794 H 270.52 -2.71142 -1.23637 0
M  V30 2795 H 268.057 -1.34326 -0.599577 0
M  V30 2796 H 270.015 -2.05839 -3.62886 0
M  V30 2797 H 268.645 -1.07946 -3.04216 0
M  V30 2798 H 267.697 -3.25128 -1.97474 0
M  V30 2799 H 269.009 -4.14523 -2.77439 0
M  V30 2800 H 268.163 -3.41554 -5.01424 0
M  V30 2801 H 266.902 -2.41894 -4.23484 0
M  V30 2802 H 265.907 -4.47527 -3.19373 0
M  V30 2803 H 267.132 -5.48402 -4.00539 0
M  V30 2804 H 265.078 -3.72554 -5.39944 0
M  V30 2805 H 264.995 -5.44935 -5.24006 0
M  V30 2806 H 266.263 -4.73586 -6.19141 0
M  V30 2807 N 270.492 0.636531 -1.44174 0
M  V30 2808 C 271.903 1.21806 -1.41493 0
M  V30 2809 C 272.254 1.95785 -0.1275 0
M  V30 2810 O 271.379 2.02147 0.772376 0
M  V30 2811 C 271.974 2.21551 -2.56321 0
M  V30 2812 C 270.533 2.75143 -2.56853 0
M  V30 2813 C 269.68 1.50052 -2.33195 0
M  V30 2814 H 272.631 0.427531 -1.52833 0
M  V30 2815 H 272.652 3.0405 -2.28765 0
M  V30 2816 H 272.164 1.67679 -3.50008 0
M  V30 2817 H 270.265 3.33033 -1.67093 0
M  V30 2818 H 270.378 3.2155 -3.55165 0
M  V30 2819 H 268.742 1.77993 -1.82183 0
M  V30 2820 H 269.525 0.980903 -3.28988 0
M  V30 2821 N 271.97 1.30982 0.876444 0
M  V30 2822 C 273.381 1.18277 1.44456 0
M  V30 2823 C 273.732 -0.213265 1.95037 0
M  V30 2824 O 272.857 -1.11057 1.85729 0
M  V30 2825 C 273.452 2.1411 2.62569 0
M  V30 2826 C 272.011 2.05358 3.15444 0
M  V30 2827 C 271.158 2.03706 1.88146 0
M  V30 2828 H 274.109 1.43127 0.685584 0
M  V30 2829 H 274.13 1.72692 3.39054 0
M  V30 2830 H 273.642 3.15706 2.25724 0
M  V30 2831 H 271.743 1.06934 3.56926 0
M  V30 2832 H 271.856 2.94156 3.78166 0
M  V30 2833 H 270.22 1.48629 2.06837 0
M  V30 2834 H 271.003 3.07047 1.53547 0
M  V30 2835 N 273.449 -1.08991 1.13837 0
M  V30 2836 C 274.86 -1.62746 0.914917 0
M  V30 2837 C 275.211 -1.88403 -0.547594 0
M  V30 2838 O 274.336 -1.63706 -1.41525 0
M  V30 2839 C 274.931 -2.95662 1.65437 0
M  V30 2840 C 273.49 -3.46225 1.47666 0
M  V30 2841 C 272.637 -2.20562 1.6807 0
M  V30 2842 H 275.588 -0.922946 1.29102 0
M  V30 2843 H 275.609 -3.63825 1.11407 0
M  V30 2844 H 275.121 -2.76956 2.71877 0
M  V30 2845 H 273.222 -3.70046 0.435478 0
M  V30 2846 H 273.335 -4.23368 2.24268 0
M  V30 2847 H 271.699 -2.29439 1.10589 0
M  V30 2848 H 272.482 -2.0437 2.7584 0
M  V30 2849 N 274.927 -0.932562 -1.27047 0
M  V30 2850 C 275.874 -0.434072 -2.26681 0
M  V30 2851 C 276.844 0.501639 -1.58344 0
M  V30 2852 O 278.029 0.419734 -1.86126 0
M  V30 2853 C 275.169 0.30261 -3.43771 0
M  V30 2854 C 274.282 -0.667774 -4.26808 0
M  V30 2855 C 273.417 0.0892393 -5.31125 0
M  V30 2856 C 272.456 -0.873532 -6.05835 0
M  V30 2857 N 271.593 -0.148832 -7.01942 0
M  V30 2858 H 276.433 -1.28868 -2.68695 0
M  V30 2859 H 273.97 -0.646713 -1.32121 0
M  V30 2860 H 275.928 0.746092 -4.10474 0
M  V30 2861 H 274.558 1.12142 -3.02695 0
M  V30 2862 H 273.61 -1.22978 -3.59973 0
M  V30 2863 H 274.922 -1.40337 -4.78651 0
M  V30 2864 H 274.076 0.592409 -6.03801 0
M  V30 2865 H 272.815 0.85777 -4.80097 0
M  V30 2866 H 271.82 -1.38791 -5.31994 0
M  V30 2867 H 273.045 -1.64193 -6.58952 0
M  V30 2868 H 270.991 0.601365 -6.53238 0
M  V30 2869 H 270.908 -0.82391 -7.51497 0
M  V30 2870 H 272.176 0.333527 -7.78786 0
M  V30 2871 N 276.405 1.4127 -0.698611 0
M  V30 2872 C 277.816 1.84187 -0.305289 0
M  V30 2873 C 278.167 1.58449 1.15708 0
M  V30 2874 O 277.292 1.05651 1.88856 0
M  V30 2875 C 277.887 3.3435 -0.547314 0
M  V30 2876 C 276.446 3.75826 -0.207878 0
M  V30 2877 C 275.593 2.64647 -0.828099 0
M  V30 2878 H 278.544 1.30778 -0.89904 0
M  V30 2879 H 278.565 3.8001 0.192998 0
M  V30 2880 H 278.077 3.53051 -1.61172 0
M  V30 2881 H 276.178 3.62725 0.852143 0
M  V30 2882 H 276.291 4.74462 -0.665021 0
M  V30 2883 H 274.655 2.53395 -0.257458 0
M  V30 2884 H 275.438 2.86165 -1.89643 0
M  V30 2885 N 277.883 0.443576 1.51229 0
M  V30 2886 C 279.294 -0.0180867 1.86691 0
M  V30 2887 C 279.645 -1.41384 1.36033 0
M  V30 2888 O 278.77 -2.04291 0.713722 0
M  V30 2889 C 279.365 -0.039597 3.38777 0
M  V30 2890 C 277.924 -0.445692 3.73752 0
M  V30 2891 C 277.071 0.357584 2.74985 0
M  V30 2892 H 280.022 0.659138 1.44364 0
M  V30 2893 H 280.043 -0.847761 3.70936 0
M  V30 2894 H 279.555 0.976382 3.75617 0
M  V30 2895 H 277.656 -1.46704 3.42503 0
M  V30 2896 H 277.769 -0.166155 4.78812 0
M  V30 2897 H 276.133 -0.184973 2.54027 0
M  V30 2898 H 276.916 1.37256 3.14668 0
M  V30 2899 N 279.361 -1.56624 0.175154 0
M  V30 2900 C 280.586 -2.01813 -0.478137 0
M  V30 2901 C 281.011 -1.05457 -1.55757 0
M  V30 2902 O 280.369 -0.0347439 -1.81267 0
M  V30 2903 C 280.417 -3.45581 -1.02987 0
M  V30 2904 O 279.521 -3.52305 -2.14371 0
M  V30 2905 H 278.862 -0.65413 -0.114059 0
M  V30 2906 H 281.392 -2.02673 0.280173 0
M  V30 2907 H 281.402 -3.84965 -1.35151 0
M  V30 2908 H 280.077 -4.1521 -0.239556 0
M  V30 2909 H 278.654 -3.24783 -1.83222 0
M  V30 2910 N 280.839 0.0985539 -1.57292 0
M  V30 2911 C 282.25 0.653457 -1.74891 0
M  V30 2912 C 282.601 1.7929 -0.796838 0
M  V30 2913 O 281.726 2.16385 0.0254886 0
M  V30 2914 C 282.321 1.19216 -3.17133 0
M  V30 2915 C 280.88 1.69316 -3.36168 0
M  V30 2916 C 280.027 0.601294 -2.70702 0
M  V30 2917 H 282.978 -0.127497 -1.58187 0
M  V30 2918 H 282.999 2.06154 -3.19814 0
M  V30 2919 H 282.511 0.362635 -3.86402 0
M  V30 2920 H 280.612 2.5468 -2.71972 0
M  V30 2921 H 280.725 1.78853 -4.44464 0
M  V30 2922 H 279.089 1.0399 -2.32504 0
M  V30 2923 H 279.872 -0.217592 -3.4261 0
M  V30 2924 N 282.317 1.53212 0.369288 0
M  V30 2925 C 283.728 1.60943 0.946276 0
M  V30 2926 C 284.079 0.47452 1.90375 0
M  V30 2927 O 283.204 -0.399597 2.12679 0
M  V30 2928 C 283.799 2.91715 1.72302 0
M  V30 2929 C 282.358 3.01792 2.24941 0
M  V30 2930 C 281.505 2.56211 1.06072 0
M  V30 2931 H 284.456 1.58007 0.148198 0
M  V30 2932 H 284.477 2.79309 2.58393 0
M  V30 2933 H 283.989 3.74295 1.0259 0
M  V30 2934 H 282.09 2.23791 2.97906 0
M  V30 2935 H 282.203 4.06803 2.53077 0
M  V30 2936 H 280.567 2.10998 1.4266 0
M  V30 2937 H 281.35 3.41206 0.378639 0
M  V30 2938 N 283.795 -0.628877 1.44509 0
M  V30 2939 C 284.758 -1.72263 1.51188 0
M  V30 2940 C 285.758 -1.55907 0.39367 0
M  V30 2941 O 286.948 -1.61361 0.656377 0
M  V30 2942 C 284.08 -3.11365 1.38798 0
M  V30 2943 H 285.273 -1.67714 2.4862 0
M  V30 2944 H 282.826 -0.842737 1.31634 0
M  V30 2945 H 283.561 -3.21507 0.424693 0
M  V30 2946 H 283.346 -3.24644 2.19884 0
M  V30 2947 H 284.836 -3.91075 1.46458 0
M  V30 2948 N 285.273 -1.31445 -0.869486 0
M  V30 2949 C 286.684 -1.19042 -1.43826 0
M  V30 2950 C 287.035 0.202919 -1.95148 0
M  V30 2951 O 286.16 1.10071 -1.86315 0
M  V30 2952 C 286.755 -2.15499 -2.6143 0
M  V30 2953 C 285.314 -2.07028 -3.14351 0
M  V30 2954 C 284.461 -2.04701 -1.87063 0
M  V30 2955 H 287.412 -1.43489 -0.677984 0
M  V30 2956 H 287.433 -1.74488 -3.38134 0
M  V30 2957 H 286.945 -3.16899 -2.24046 0
M  V30 2958 H 285.046 -1.08825 -3.56354 0
M  V30 2959 H 285.159 -2.96157 -3.766 0
M  V30 2960 H 283.523 -1.49724 -2.06046 0
M  V30 2961 H 284.306 -3.07857 -1.51917 0
M  V30 2962 N 286.751 1.08385 -1.14413 0
M  V30 2963 C 287.999 1.80419 -0.910679 0
M  V30 2964 C 288.32 1.86658 0.564243 0
M  V30 2965 O 287.59 1.35985 1.41014 0
M  V30 2966 H 286.17 0.668204 -0.333934 0
M  V30 2967 H 288.832 1.31037 -1.44275 0
M  V30 2968 H 287.928 2.83238 -1.31082 0
M  V30 2969 N 288.23 0.939286 1.26551 0
M  V30 2970 C 289.193 0.451987 2.24699 0
M  V30 2971 C 290.193 -0.435869 1.5478 0
M  V30 2972 O 291.383 -0.235314 1.72603 0
M  V30 2973 C 288.515 -0.348801 3.39111 0
M  V30 2974 H 289.708 1.3193 2.69322 0
M  V30 2975 H 287.261 0.721072 1.38673 0
M  V30 2976 H 287.996 -1.23444 2.99887 0
M  V30 2977 H 287.781 0.287945 3.91041 0
M  V30 2978 H 289.271 -0.679726 4.12031 0
M  V30 2979 N 289.708 -1.40897 0.706093 0
M  V30 2980 C 291.119 -1.84023 0.315052 0
M  V30 2981 C 291.47 -1.5906 -1.14866 0
M  V30 2982 O 290.595 -1.06651 -1.88293 0
M  V30 2983 C 291.19 -3.34055 0.565038 0
M  V30 2984 C 289.749 -3.7571 0.227806 0
M  V30 2985 C 288.896 -2.64204 0.842122 0
M  V30 2986 H 291.847 -1.303 0.905963 0
M  V30 2987 H 291.868 -3.80107 -0.172843 0
M  V30 2988 H 291.38 -3.52192 1.63042 0
M  V30 2989 H 289.481 -3.63172 -0.832895 0
M  V30 2990 H 289.594 -4.74103 0.690174 0
M  V30 2991 H 287.958 -2.53255 0.270893 0
M  V30 2992 H 288.741 -2.85155 1.91158 0
M  V30 2993 N 291.186 -0.45159 -1.50991 0
M  V30 2994 C 292.432 0.110237 -2.025 0
M  V30 2995 C 292.765 1.41109 -1.33424 0
M  V30 2996 O 292.04 1.89135 -0.453659 0
M  V30 2997 C 292.323 0.314271 -3.58726 0
M  V30 2998 C 292.176 -1.00623 -4.38401 0
M  V30 2999 C 293.495 1.07767 -4.26702 0
M  V30 3000 H 290.614 0.0385897 -0.735989 0
M  V30 3001 H 293.256 -0.593374 -1.80497 0
M  V30 3002 H 291.406 0.913601 -3.77605 0
M  V30 3003 H 293.078 -1.64064 -4.31139 0
M  V30 3004 H 291.321 -1.6075 -4.02917 0
M  V30 3005 H 291.992 -0.817341 -5.45915 0
M  V30 3006 H 294.468 0.56986 -4.12179 0
M  V30 3007 H 293.344 1.18921 -5.35863 0
M  V30 3008 H 293.605 2.10939 -3.88532 0
M  V30 3009 N 292.664 1.56529 -0.183458 0
M  V30 3010 C 293.889 2.02064 0.467428 0
M  V30 3011 C 294.314 1.06282 1.55196 0
M  V30 3012 O 293.672 0.0443565 1.81246 0
M  V30 3013 C 293.72 3.46122 1.01153 0
M  V30 3014 O 292.824 3.53437 2.12499 0
M  V30 3015 H 292.165 0.654726 0.110588 0
M  V30 3016 H 294.695 2.02521 -0.290917 0
M  V30 3017 H 294.705 3.85676 1.33108 0
M  V30 3018 H 293.38 4.15331 0.217533 0
M  V30 3019 H 291.957 3.2575 1.81497 0
M  V30 3020 N 294.142 -0.090211 1.57342 0
M  V30 3021 C 295.558 -0.444547 1.53284 0
M  V30 3022 C 295.758 -1.80238 0.900914 0
M  V30 3023 O 294.814 -2.4759 0.495513 0
M  V30 3024 C 296.127 -0.402543 2.97993 0
M  V30 3025 C 297.675 -0.48405 3.09234 0
M  V30 3026 C 298.15 -0.472144 4.5556 0
M  V30 3027 N 299.641 -0.532757 4.60126 0
M  V30 3028 C 300.376 -0.545462 5.708 0
M  V30 3029 N 299.872 -0.514082 6.9089 0
M  V30 3030 N 301.665 -0.59064 5.58988 0
M  V30 3031 H 293.816 0.799121 1.96794 0
M  V30 3032 H 296.079 0.297965 0.899956 0
M  V30 3033 H 295.785 0.528106 3.47712 0
M  V30 3034 H 295.659 -1.21969 3.56936 0
M  V30 3035 H 298.046 -1.40512 2.595 0
M  V30 3036 H 298.127 0.361328 2.53235 0
M  V30 3037 H 297.771 0.445 5.05947 0
M  V30 3038 H 297.701 -1.3348 5.09402 0
M  V30 3039 H 300.192 -0.562006 3.73698 0
M  V30 3040 H 300.505 -0.527195 7.71 0
M  V30 3041 H 298.85 -0.481054 6.93333 0
M  V30 3042 H 302.041 -0.61272 4.64073 0
M  V30 3043 H 302.214 -0.597073 6.45243 0
M  V30 3044 N 295.62 -1.53406 -0.361157 0
M  V30 3045 C 296.869 -1.69022 -1.10066 0
M  V30 3046 C 297.182 -0.450838 -1.90333 0
M  V30 3047 O 298.388 -0.487617 -2.67085 0
M  V30 3048 C 296.844 -2.98812 -2.00598 0
M  V30 3049 C 296.452 -4.30027 -1.25621 0
M  V30 3050 C 298.196 -3.23795 -2.74513 0
M  V30 3051 C 296.103 -5.50903 -2.1508 0
M  V30 3052 H 295.033 -0.629776 -0.414606 0
M  V30 3053 H 297.684 -1.79907 -0.361348 0
M  V30 3054 H 296.066 -2.8174 -2.78278 0
M  V30 3055 H 297.24 -4.57745 -0.529739 0
M  V30 3056 H 295.555 -4.11522 -0.635496 0
M  V30 3057 H 298.152 -4.11289 -3.41681 0
M  V30 3058 H 298.495 -2.40045 -3.40123 0
M  V30 3059 H 299.028 -3.41561 -2.03914 0
M  V30 3060 H 295.767 -6.37143 -1.54041 0
M  V30 3061 H 295.287 -5.27459 -2.85565 0
M  V30 3062 H 296.966 -5.85865 -2.74538 0
M  V30 3063 N 297.098 0.621204 -1.44841 0
M  V30 3064 C 298.028 1.74366 -1.55303 0
M  V30 3065 C 299.009 1.65199 -0.405385 0
M  V30 3066 O 300.194 1.83807 -0.626787 0
M  V30 3067 C 297.324 3.12931 -1.50637 0
M  V30 3068 C 296.278 3.36896 -2.63979 0
M  V30 3069 C 295.604 4.75594 -2.44366 0
M  V30 3070 C 296.904 3.28483 -4.06074 0
M  V30 3071 H 298.598 1.65867 -2.49256 0
M  V30 3072 H 296.144 0.796558 -1.19962 0
M  V30 3073 H 298.097 3.9124 -1.56555 0
M  V30 3074 H 296.821 3.22237 -0.532057 0
M  V30 3075 H 295.48 2.60972 -2.57467 0
M  V30 3076 H 295.128 4.81616 -1.45105 0
M  V30 3077 H 294.828 4.92586 -3.20364 0
M  V30 3078 H 296.352 5.5612 -2.52117 0
M  V30 3079 H 297.766 3.96684 -4.13902 0
M  V30 3080 H 296.163 3.57008 -4.82354 0
M  V30 3081 H 297.233 2.26133 -4.28943 0
M  V30 3082 N 298.576 1.31904 0.862503 0
M  V30 3083 C 299.823 1.22017 1.61611 0
M  V30 3084 C 300.151 -0.21991 1.93253 0
M  V30 3085 O 299.406 -1.17076 1.56817 0
M  V30 3086 C 299.705 2.01713 2.95037 0
M  V30 3087 C 299.371 3.51145 2.82857 0
M  V30 3088 C 298.033 3.91889 2.79243 0
M  V30 3089 C 300.385 4.46204 2.69353 0
M  V30 3090 C 297.713 5.25947 2.59993 0
M  V30 3091 C 300.065 5.80397 2.5164 0
M  V30 3092 C 298.729 6.20352 2.46413 0
M  V30 3093 H 297.999 0.44649 0.591378 0
M  V30 3094 H 300.646 1.63248 1.00111 0
M  V30 3095 H 298.951 1.53185 3.60613 0
M  V30 3096 H 300.648 1.91437 3.52353 0
M  V30 3097 H 297.238 3.1878 2.86491 0
M  V30 3098 H 301.422 4.15652 2.71196 0
M  V30 3099 H 296.678 5.5597 2.54376 0
M  V30 3100 H 300.852 6.53676 2.40169 0
M  V30 3101 H 298.479 7.24172 2.31256 0
M  V30 3102 N 300.054 -1.07777 1.14986 0
M  V30 3103 C 300.984 -2.16865 0.865557 0
M  V30 3104 C 301.965 -1.69123 -0.182083 0
M  V30 3105 O 303.15 -1.94164 -0.0373815 0
M  V30 3106 C 300.28 -3.45539 0.349313 0
M  V30 3107 C 299.234 -4.06708 1.33313 0
M  V30 3108 C 298.56 -5.30411 0.675918 0
M  V30 3109 C 299.86 -4.47241 2.69764 0
M  V30 3110 H 301.554 -2.40905 1.77778 0
M  V30 3111 H 299.1 -1.15781 0.856203 0
M  V30 3112 H 301.053 -4.21174 0.137983 0
M  V30 3113 H 299.777 -3.21072 -0.598362 0
M  V30 3114 H 298.436 -3.33112 1.53075 0
M  V30 3115 H 298.084 -5.02232 -0.277767 0
M  V30 3116 H 297.784 -5.72293 1.33244 0
M  V30 3117 H 299.308 -6.08755 0.474262 0
M  V30 3118 H 300.722 -5.14025 2.53873 0
M  V30 3119 H 299.119 -5.00062 3.3175 0
M  V30 3120 H 300.189 -3.58818 3.26156 0
M  V30 3121 N 301.532 -0.945985 -1.26051 0
M  V30 3122 C 302.76 -0.613025 -1.9761 0
M  V30 3123 C 303.175 0.813035 -1.70397 0
M  V30 3124 O 302.532 1.54274 -0.974979 0
M  V30 3125 C 302.583 -0.85159 -3.51326 0
M  V30 3126 O 302.304 -2.22157 -3.77595 0
M  V30 3127 C 303.805 -0.529831 -4.40122 0
M  V30 3128 H 301.025 -0.230593 -0.630133 0
M  V30 3129 H 303.569 -1.268 -1.60443 0
M  V30 3130 H 301.724 -0.243151 -3.86636 0
M  V30 3131 H 302.138 -2.2852 -4.721 0
M  V30 3132 H 303.612 -0.747348 -5.46917 0
M  V30 3133 H 304.089 0.535341 -4.35925 0
M  V30 3134 H 304.695 -1.11721 -4.10364 0
M  V30 3135 N 303.011 1.40521 -0.713556 0
M  V30 3136 C 304.288 1.94775 -0.17943 0
M  V30 3137 C 304.668 1.65184 1.31444 0
M  V30 3138 O 304.016 0.968429 2.06963 0
M  V30 3139 C 304.226 3.45543 -0.489986 0
M  V30 3140 C 305.574 4.22442 -0.427536 0
M  V30 3141 O 306.598 3.53644 -0.425929 0
M  V30 3142 O 305.457 5.4501 -0.403292 0
M  V30 3143 H 302.551 0.826606 -0.0255192 0
M  V30 3144 H 305.097 1.5014 -0.790949 0
M  V30 3145 H 303.869 3.60432 -1.5233 0
M  V30 3146 H 303.492 3.97311 0.151598 0
M  V30 3147 N 304.489 0.459591 1.5075 0
M  V30 3148 C 305.419 -0.330644 2.31147 0
M  V30 3149 C 306.4 -1.00087 1.37538 0
M  V30 3150 O 307.585 -1.00025 1.66459 0
M  V30 3151 C 304.715 -1.41958 3.16962 0
M  V30 3152 C 303.669 -0.871608 4.19031 0
M  V30 3153 C 302.995 -2.05797 4.9351 0
M  V30 3154 C 304.295 0.109251 5.22186 0
M  V30 3155 H 305.989 0.340336 2.97459 0
M  V30 3156 H 303.535 0.165119 1.4305 0
M  V30 3157 H 305.488 -1.9798 3.71997 0
M  V30 3158 H 304.212 -2.11917 2.48513 0
M  V30 3159 H 302.871 -0.333442 3.6508 0
M  V30 3160 H 302.519 -2.74427 4.21544 0
M  V30 3161 H 302.219 -1.6976 5.62544 0
M  V30 3162 H 303.743 -2.62331 5.51375 0
M  V30 3163 H 305.157 -0.361405 5.7216 0
M  V30 3164 H 303.554 0.383316 5.98875 0
M  V30 3165 H 304.624 1.03887 4.73641 0
M  V30 3166 N 305.967 -1.56429 0.191757 0
M  V30 3167 C 306.917 -2.15548 -0.743184 0
M  V30 3168 C 307.901 -1.09531 -1.17863 0
M  V30 3169 O 309.093 -1.35602 -1.13759 0
M  V30 3170 C 306.222 -2.81577 -1.96391 0
M  V30 3171 C 305.308 -3.9478 -1.54951 0
M  V30 3172 N 305.699 -4.98677 -0.845876 0
M  V30 3173 C 303.997 -4.06319 -1.83905 0
M  V30 3174 C 304.698 -5.78183 -0.638724 0
M  V30 3175 N 303.674 -5.30495 -1.18643 0
M  V30 3176 H 307.476 -2.9324 -0.196839 0
M  V30 3177 H 304.99 -1.62398 -0.0081603 0
M  V30 3178 H 306.987 -3.22321 -2.64415 0
M  V30 3179 H 305.647 -2.05371 -2.51501 0
M  V30 3180 H 306.658 -5.15464 -0.501704 0
M  V30 3181 H 303.335 -3.41238 -2.40548 0
M  V30 3182 H 304.725 -6.71851 -0.0807929 0
M  V30 3183 N 307.445 0.0818655 -1.57387 0
M  V30 3184 C 308.691 0.778884 -1.87896 0
M  V30 3185 C 309.046 1.75692 -0.784229 0
M  V30 3186 O 308.339 1.90417 0.212567 0
M  V30 3187 C 308.533 1.53513 -3.22752 0
M  V30 3188 C 308.362 0.631838 -4.45239 0
M  V30 3189 C 307.132 0.272571 -5.04564 0
M  V30 3190 C 309.33 -0.0670191 -5.14256 0
M  V30 3191 N 307.312 -0.637498 -6.10581 0
M  V30 3192 C 308.683 -0.834653 -6.14356 0
M  V30 3193 C 310.738 -0.139551 -4.97704 0
M  V30 3194 C 309.441 -1.66806 -6.99691 0
M  V30 3195 C 311.467 -0.959903 -5.83558 0
M  V30 3196 C 310.829 -1.71561 -6.83188 0
M  V30 3197 H 306.928 0.260764 -0.737242 0
M  V30 3198 H 309.512 0.0408227 -1.94657 0
M  V30 3199 H 307.683 2.24398 -3.17018 0
M  V30 3200 H 309.415 2.18038 -3.40942 0
M  V30 3201 H 306.17 0.62319 -4.69482 0
M  V30 3202 H 306.594 -1.08548 -6.68241 0
M  V30 3203 H 311.236 0.430376 -4.20604 0
M  V30 3204 H 308.954 -2.249 -7.76174 0
M  V30 3205 H 312.54 -1.01887 -5.72809 0
M  V30 3206 H 311.42 -2.34017 -7.48469 0
M  V30 3207 N 308.923 1.53595 0.353017 0
M  V30 3208 C 310.2 1.61002 1.11075 0
M  V30 3209 C 310.58 0.425356 2.0677 0
M  V30 3210 O 309.928 -0.583267 2.2093 0
M  V30 3211 C 310.138 2.96631 1.83877 0
M  V30 3212 C 311.486 3.51653 2.37961 0
M  V30 3213 O 312.51 2.98743 1.93987 0
M  V30 3214 O 311.369 4.44177 3.18386 0
M  V30 3215 H 308.463 0.650825 0.510251 0
M  V30 3216 H 311.009 1.6594 0.35527 0
M  V30 3217 H 309.781 3.74293 1.14108 0
M  V30 3218 H 309.404 2.95242 2.66304 0
M  V30 3219 N 310.401 -0.613514 1.45168 0
M  V30 3220 C 311.351 -1.71871 1.49815 0
M  V30 3221 C 312.335 -1.56774 0.362021 0
M  V30 3222 O 313.527 -1.66212 0.608493 0
M  V30 3223 C 310.656 -3.1061 1.46207 0
M  V30 3224 C 309.742 -3.31114 2.64999 0
M  V30 3225 N 310.133 -3.21904 3.90143 0
M  V30 3226 C 308.431 -3.61966 2.6057 0
M  V30 3227 C 309.132 -3.43577 4.69393 0
M  V30 3228 N 308.108 -3.67287 4.00751 0
M  V30 3229 H 311.91 -1.63235 2.444 0
M  V30 3230 H 309.424 -0.816577 1.40377 0
M  V30 3231 H 311.421 -3.8989 1.4762 0
M  V30 3232 H 310.081 -3.20399 0.52673 0
M  V30 3233 H 311.092 -3.00436 4.21852 0
M  V30 3234 H 307.769 -3.78629 1.75916 0
M  V30 3235 H 309.159 -3.41901 5.78406 0
M  V30 3236 N 311.879 -1.3236 -0.855495 0
M  V30 3237 C 313.156 -1.13491 -1.59309 0
M  V30 3238 C 313.536 0.30503 -2.08885 0
M  V30 3239 O 312.884 1.30151 -1.87811 0
M  V30 3240 C 313.094 -2.16176 -2.73987 0
M  V30 3241 C 314.442 -2.49463 -3.43589 0
M  V30 3242 O 315.466 -2.14715 -2.84211 0
M  V30 3243 O 314.325 -3.09027 -4.50738 0
M  V30 3244 H 311.419 -0.437887 -0.701559 0
M  V30 3245 H 313.965 -1.43887 -0.899696 0
M  V30 3246 H 312.737 -3.1297 -2.34873 0
M  V30 3247 H 312.36 -1.86769 -3.51003 0
M  V30 3248 N 313.357 1.07166 -1.15556 0
M  V30 3249 C 314.587 1.83248 -0.954133 0
M  V30 3250 C 314.995 1.82449 0.500911 0
M  V30 3251 O 314.338 1.23575 1.35923 0
M  V30 3252 C 314.4 3.31393 -1.39351 0
M  V30 3253 C 314.064 3.5591 -2.86666 0
M  V30 3254 C 315.061 3.49695 -3.8472 0
M  V30 3255 C 312.746 3.83515 -3.24379 0
M  V30 3256 C 314.74 3.70737 -5.18491 0
M  V30 3257 C 312.427 4.04209 -4.58321 0
M  V30 3258 C 313.425 3.97815 -5.55186 0
M  V30 3259 O 313.113 4.17954 -6.86709 0
M  V30 3260 H 312.845 0.584941 -0.338851 0
M  V30 3261 H 315.399 1.36169 -1.53777 0
M  V30 3262 H 313.629 3.79292 -0.75329 0
M  V30 3263 H 315.318 3.88945 -1.16089 0
M  V30 3264 H 316.084 3.28368 -3.56931 0
M  V30 3265 H 311.963 3.87605 -2.49567 0
M  V30 3266 H 315.507 3.65663 -5.94085 0
M  V30 3267 H 311.404 4.25023 -4.85825 0
M  V30 3268 H 312.172 4.35291 -6.93155 0
M  V30 3269 N 314.835 0.952656 1.25548 0
M  V30 3270 C 315.765 0.489287 2.28316 0
M  V30 3271 C 316.746 -0.463359 1.63667 0
M  V30 3272 O 317.931 -0.36274 1.90782 0
M  V30 3273 C 315.061 -0.235603 3.465 0
M  V30 3274 C 314.015 0.631593 4.23314 0
M  V30 3275 C 313.341 -0.223923 5.34231 0
M  V30 3276 C 314.641 1.90871 4.86174 0
M  V30 3277 H 316.335 1.34822 2.67326 0
M  V30 3278 H 313.881 0.649728 1.28509 0
M  V30 3279 H 315.834 -0.570882 4.17515 0
M  V30 3280 H 314.558 -1.12877 3.06474 0
M  V30 3281 H 313.217 0.949929 3.54079 0
M  V30 3282 H 312.865 -1.11678 4.90446 0
M  V30 3283 H 312.565 0.35299 5.86539 0
M  V30 3284 H 314.089 -0.554214 6.0808 0
M  V30 3285 H 315.503 1.63997 5.49343 0
M  V30 3286 H 313.9 2.43112 5.4865 0
M  V30 3287 H 314.97 2.61304 4.08471 0
M  V30 3288 N 316.313 -1.40141 0.720998 0
M  V30 3289 C 317.223 -2.34486 0.0731031 0
M  V30 3290 C 318.239 -1.57587 -0.737723 0
M  V30 3291 O 319.415 -1.89949 -0.669429 0
M  V30 3292 C 316.48 -3.36528 -0.833656 0
M  V30 3293 C 315.541 -4.29298 -0.0121673 0
M  V30 3294 C 314.774 -5.26466 -0.875742 0
M  V30 3295 O 314.997 -5.29745 -2.11485 0
M  V30 3296 O 313.931 -6.01092 -0.31185 0
M  V30 3297 H 317.757 -2.9152 0.851444 0
M  V30 3298 H 315.342 -1.41427 0.481527 0
M  V30 3299 H 317.224 -3.99093 -1.35289 0
M  V30 3300 H 315.899 -2.81899 -1.59105 0
M  V30 3301 H 314.806 -3.70001 0.552262 0
M  V30 3302 H 316.139 -4.87094 0.707129 0
M  V30 3303 N 317.792 -0.46758 -1.50504 0
M  V30 3304 C 319.04 0.0884469 -2.01906 0
M  V30 3305 C 319.361 1.40532 -1.35188 0
M  V30 3306 O 318.631 1.89515 -0.496079 0
M  V30 3307 H 317.211 0.0356765 -0.746148 0
M  V30 3308 H 319.873 -0.6172 -1.84869 0
M  V30 3309 H 318.969 0.2425 -3.11156 0
M  V30 3310 N 319.27 1.56325 -0.20005 0
M  V30 3311 C 320.498 2.02105 0.442874 0
M  V30 3312 C 320.913 1.08014 1.5485 0
M  V30 3313 O 320.27 0.0858797 1.82298 0
M  V30 3314 C 320.321 3.47549 0.994583 0
M  V30 3315 O 320.042 4.38049 -0.0669322 0
M  V30 3316 C 321.543 4.0887 1.7129 0
M  V30 3317 H 318.763 0.661807 0.110691 0
M  V30 3318 H 321.307 2.02134 -0.310207 0
M  V30 3319 H 319.462 3.48204 1.69803 0
M  V30 3320 H 319.876 5.23368 0.344462 0
M  V30 3321 H 321.35 5.12475 2.05118 0
M  V30 3322 H 321.827 3.52615 2.61838 0
M  V30 3323 H 322.433 4.12002 1.05518 0
M  V30 3324 N 320.748 -0.0735177 1.57428 0
M  V30 3325 C 322.025 -0.805903 1.78226 0
M  V30 3326 C 322.405 -1.95874 0.787189 0
M  V30 3327 O 321.753 -2.2779 -0.180029 0
M  V30 3328 C 321.963 -1.28045 3.24662 0
M  V30 3329 C 323.311 -1.71453 3.88444 0
M  V30 3330 O 324.335 -1.37616 3.28543 0
M  V30 3331 O 323.194 -2.34093 4.93825 0
M  V30 3332 H 320.288 -0.386041 0.73137 0
M  V30 3333 H 322.834 -0.0537269 1.69615 0
M  V30 3334 H 321.606 -0.455476 3.8864 0
M  V30 3335 H 321.229 -2.094 3.37991 0
M  V30 3336 N 322.226 -1.5378 -0.344866 0
M  V30 3337 C 323.637 -1.62428 -0.920552 0
M  V30 3338 C 323.988 -0.504747 -1.89596 0
M  V30 3339 O 323.113 0.365711 -2.13287 0
M  V30 3340 C 323.708 -2.94419 -1.67639 0
M  V30 3341 C 322.267 -3.05333 -2.20111 0
M  V30 3342 C 321.414 -2.57866 -1.01982 0
M  V30 3343 H 324.365 -1.58222 -0.123042 0
M  V30 3344 H 324.386 -2.83384 -2.53917 0
M  V30 3345 H 323.898 -3.7588 -0.966224 0
M  V30 3346 H 321.999 -2.28502 -2.94308 0
M  V30 3347 H 322.112 -4.10778 -2.46573 0
M  V30 3348 H 320.476 -2.13241 -1.39285 0
M  V30 3349 H 321.259 -3.41765 -0.324308 0
M  V30 3350 N 323.704 0.605807 -1.45491 0
M  V30 3351 C 324.981 1.36522 -1.40075 0
M  V30 3352 C 325.361 2.10976 -0.0722744 0
M  V30 3353 O 324.709 2.08007 0.945808 0
M  V30 3354 C 324.919 2.31056 -2.61561 0
M  V30 3355 C 326.267 2.93608 -3.06724 0
M  V30 3356 O 327.291 2.41376 -2.61946 0
M  V30 3357 O 326.15 3.88421 -3.84437 0
M  V30 3358 H 323.244 0.612248 -0.555951 0
M  V30 3359 H 325.79 0.628747 -1.57623 0
M  V30 3360 H 324.562 1.75311 -3.49831 0
M  V30 3361 H 324.185 3.12081 -2.46356 0
M  V30 3362 N 325.182 1.32811 0.848464 0
M  V30 3363 C 326.422 1.25046 1.61687 0
M  V30 3364 C 326.786 -0.183464 1.91121 0
M  V30 3365 O 327.987 -0.384937 2.66029 0
M  V30 3366 C 326.258 2.09201 2.89775 0
M  V30 3367 S 327.817 2.18526 3.80515 0
M  V30 3368 H 324.635 0.445023 0.554505 0
M  V30 3369 H 327.237 1.67733 1.00429 0
M  V30 3370 H 325.941 3.12433 2.66108 0
M  V30 3371 H 325.472 1.67315 3.56047 0
M  V30 3372 H 327.487 1.3393 4.77784 0
M  V30 3373 N 326.66 -1.06551 1.16123 0
M  V30 3374 C 327.623 -2.12132 0.867906 0
M  V30 3375 C 328.623 -1.60224 -0.135944 0
M  V30 3376 O 329.813 -1.73943 0.0946422 0
M  V30 3377 C 326.945 -3.396 0.297419 0
M  V30 3378 H 328.138 -2.39586 1.80385 0
M  V30 3379 H 325.691 -1.22574 0.969812 0
M  V30 3380 H 326.426 -3.17794 -0.64633 0
M  V30 3381 H 326.211 -3.78581 1.02073 0
M  V30 3382 H 327.701 -4.17455 0.110052 0
M  V30 3383 N 328.138 -0.959301 -1.25041 0
M  V30 3384 C 329.415 -0.533805 -1.88175 0
M  V30 3385 C 329.795 0.988994 -1.865 0
M  V30 3386 O 329.143 1.85677 -1.33177 0
M  V30 3387 C 329.353 -1.11575 -3.30684 0
M  V30 3388 C 330.701 -1.19548 -4.07423 0
M  V30 3389 O 331.725 -1.06765 -3.39823 0
M  V30 3390 O 330.584 -1.39656 -5.28354 0
M  V30 3391 H 327.678 -0.176772 -0.807887 0
M  V30 3392 H 330.224 -1.05303 -1.33076 0
M  V30 3393 H 328.996 -2.15884 -3.26358 0
M  V30 3394 H 328.619 -0.580059 -3.93346 0
M  V30 3395 N 329.616 1.39756 -0.72842 0
M  V30 3396 C 331.027 1.83498 -0.344289 0
M  V30 3397 C 331.378 1.60868 1.12321 0
M  V30 3398 O 330.503 1.09634 1.86573 0
M  V30 3399 C 331.098 3.33114 -0.618112 0
M  V30 3400 C 329.657 3.753 -0.287549 0
M  V30 3401 C 328.804 2.62831 -0.884048 0
M  V30 3402 H 331.755 1.28842 -0.926578 0
M  V30 3403 H 331.776 3.80334 0.112349 0
M  V30 3404 H 331.288 3.49553 -1.68625 0
M  V30 3405 H 329.389 3.64451 0.775012 0
M  V30 3406 H 329.502 4.72945 -0.765512 0
M  V30 3407 H 327.866 2.52792 -0.311149 0
M  V30 3408 H 328.649 2.82078 -1.95671 0
M  V30 3409 N 331.094 0.475555 1.50254 0
M  V30 3410 C 332.024 -0.30611 2.31485 0
M  V30 3411 C 333.005 -0.986228 1.38591 0
M  V30 3412 O 334.19 -0.982541 1.67511 0
M  V30 3413 C 331.32 -1.38588 3.1845 0
M  V30 3414 C 330.274 -0.827115 4.19932 0
M  V30 3415 C 329.6 -2.00551 4.95665 0
M  V30 3416 C 330.9 0.16463 5.2204 0
M  V30 3417 H 332.594 0.371866 2.97082 0
M  V30 3418 H 330.14 0.180282 1.42867 0
M  V30 3419 H 332.093 -1.94023 3.74076 0
M  V30 3420 H 330.817 -2.09269 2.50747 0
M  V30 3421 H 329.476 -0.294702 3.65414 0
M  V30 3422 H 329.124 -2.6994 4.2443 0
M  V30 3423 H 328.824 -1.63784 5.64313 0
M  V30 3424 H 330.348 -2.56468 5.54127 0
M  V30 3425 H 331.762 -0.300699 5.72511 0
M  V30 3426 H 330.159 0.446813 5.98434 0
M  V30 3427 H 331.229 1.08905 4.72512 0
M  V30 3428 N 332.573 -1.56217 0.208337 0
M  V30 3429 C 333.813 -1.99849 -0.428927 0
M  V30 3430 C 334.177 -1.09262 -1.57879 0
M  V30 3431 O 335.378 -1.42185 -2.28116 0
M  V30 3432 C 333.649 -3.46777 -0.864879 0
M  V30 3433 S 335.208 -4.12434 -1.49811 0
M  V30 3434 H 332.026 -0.697742 -0.136665 0
M  V30 3435 H 334.628 -1.92953 0.314519 0
M  V30 3436 H 333.332 -4.10396 -0.0181326 0
M  V30 3437 H 332.863 -3.57518 -1.64147 0
M  V30 3438 H 334.878 -4.10532 -2.78707 0
M  V30 3439 N 334.051 0.0651679 -1.57465 0
M  V30 3440 C 335.291 0.768329 -1.8941 0
M  V30 3441 C 335.655 1.74406 -0.802894 0
M  V30 3442 O 336.856 2.49281 -1.0056 0
M  V30 3443 C 335.127 1.45199 -3.26576 0
M  V30 3444 S 336.686 2.1893 -3.80283 0
M  V30 3445 H 333.504 0.255359 -0.663561 0
M  V30 3446 H 336.106 0.024167 -1.95485 0
M  V30 3447 H 334.81 0.728123 -4.03889 0
M  V30 3448 H 334.341 2.23545 -3.23715 0
M  V30 3449 H 336.356 3.45551 -3.56102 0
M  V30 3450 N 335.529 1.53961 0.336706 0
M  V30 3451 C 336.945 1.44378 0.680241 0
M  V30 3452 C 337.145 0.606034 1.9217 0
M  V30 3453 O 336.201 0.099688 2.52303 0
M  V30 3454 C 337.514 2.87945 0.8665 0
M  V30 3455 C 339.062 2.97763 0.964682 0
M  V30 3456 C 339.537 4.42453 1.18321 0
M  V30 3457 N 341.028 4.46008 1.25025 0
M  V30 3458 C 341.763 5.55102 1.43697 0
M  V30 3459 N 341.259 6.7419 1.59498 0
M  V30 3460 N 343.052 5.42727 1.463 0
M  V30 3461 H 335.203 2.06918 -0.479455 0
M  V30 3462 H 337.466 0.935634 -0.152619 0
M  V30 3463 H 337.172 3.51691 0.0256937 0
M  V30 3464 H 337.046 3.33293 1.76623 0
M  V30 3465 H 339.433 2.34153 1.796 0
M  V30 3466 H 339.514 2.55766 0.041708 0
M  V30 3467 H 339.158 5.06645 0.356788 0
M  V30 3468 H 339.088 4.82048 2.11985 0
M  V30 3469 H 341.579 3.60196 1.14312 0
M  V30 3470 H 341.892 7.53095 1.734 0
M  V30 3471 H 340.237 6.77123 1.56621 0
M  V30 3472 H 343.428 4.48647 1.33543 0
M  V30 3473 H 343.601 6.27806 1.6051 0
M  V30 3474 N 337.007 -0.598083 1.45811 0
M  V30 3475 C 338.423 -0.919847 1.30426 0
M  V30 3476 C 338.623 -1.99759 0.264303 0
M  V30 3477 O 337.679 -2.50221 -0.338472 0
M  V30 3478 C 338.992 -1.35176 2.68603 0
M  V30 3479 C 340.54 -1.46546 2.76574 0
M  V30 3480 C 341.015 -1.9311 4.15298 0
M  V30 3481 N 342.506 -2.00328 4.1764 0
M  V30 3482 C 343.241 -2.37599 5.21856 0
M  V30 3483 N 342.737 -2.73771 6.36413 0
M  V30 3484 N 344.53 -2.38021 5.09218 0
M  V30 3485 H 336.681 0.114111 2.12093 0
M  V30 3486 H 338.944 -0.0116121 0.947929 0
M  V30 3487 H 338.65 -0.633969 3.45939 0
M  V30 3488 H 338.524 -2.3164 2.97696 0
M  V30 3489 H 340.911 -2.17415 1.99537 0
M  V30 3490 H 340.992 -0.483727 2.51185 0
M  V30 3491 H 340.636 -1.22824 4.92825 0
M  V30 3492 H 340.566 -2.92213 4.38086 0
M  V30 3493 H 343.057 -1.74925 3.34977 0
M  V30 3494 H 343.37 -3.0112 7.11721 0
M  V30 3495 H 341.715 -2.71445 6.39799 0
M  V30 3496 H 344.906 -2.09174 4.18765 0
M  V30 3497 H 345.079 -2.66741 5.90554 0
M  V30 3498 N 338.485 -1.33259 -0.841409 0
M  V30 3499 C 339.733 -1.24326 -1.59334 0
M  V30 3500 C 340.054 0.191564 -1.94057 0
M  V30 3501 O 339.324 1.11967 -1.60749 0
M  V30 3502 H 337.904 -0.457174 -0.590763 0
M  V30 3503 H 340.566 -1.66947 -1.00571 0
M  V30 3504 H 339.662 -1.8352 -2.52442 0
M  V30 3505 N 339.963 1.05934 -1.16686 0
M  V30 3506 C 341.188 1.83029 -0.975455 0
M  V30 3507 C 341.613 1.82096 0.471452 0
M  V30 3508 O 340.971 1.22443 1.33706 0
M  V30 3509 C 341.019 3.27372 -1.51195 0
M  V30 3510 O 340.123 4.06054 -0.720701 0
M  V30 3511 H 339.464 0.566194 -0.346872 0
M  V30 3512 H 341.994 1.33541 -1.55009 0
M  V30 3513 H 342.004 3.78186 -1.53099 0
M  V30 3514 H 340.679 3.27366 -2.56523 0
M  V30 3515 H 339.256 3.64812 -0.772458 0
M  V30 3516 N 341.441 0.965919 1.2453 0
M  V30 3517 C 342.689 0.625593 1.92174 0
M  V30 3518 C 343.01 -0.841652 1.75901 0
M  V30 3519 O 342.28 -1.60061 1.12948 0
M  V30 3520 H 340.86 0.228388 0.71123 0
M  V30 3521 H 343.522 1.2266 1.51461 0
M  V30 3522 H 342.618 0.864653 2.99884 0
M  V30 3523 N 342.919 -1.39368 0.735821 0
M  V30 3524 C 343.849 -2.33234 0.111506 0
M  V30 3525 C 344.83 -1.53954 -0.723334 0
M  V30 3526 O 346.015 -1.82344 -0.668147 0
M  V30 3527 C 343.145 -3.38057 -0.795917 0
M  V30 3528 C 342.099 -4.2795 -0.065172 0
M  V30 3529 C 341.425 -5.23479 -1.08967 0
M  V30 3530 C 342.725 -5.10741 1.09273 0
M  V30 3531 H 344.419 -2.85692 0.895571 0
M  V30 3532 H 341.965 -1.37364 0.432109 0
M  V30 3533 H 343.918 -4.02675 -1.24221 0
M  V30 3534 H 342.642 -2.8404 -1.61211 0
M  V30 3535 H 341.301 -3.64813 0.361511 0
M  V30 3536 H 340.949 -4.65758 -1.89944 0
M  V30 3537 H 340.649 -5.84472 -0.605489 0
M  V30 3538 H 342.173 -5.90974 -1.53565 0
M  V30 3539 H 343.587 -5.68699 0.724841 0
M  V30 3540 H 341.984 -5.8088 1.50659 0
M  V30 3541 H 343.054 -4.45525 1.91404 0
M  V30 3542 N 344.397 -0.483516 -1.5 0
M  V30 3543 C 345.808 -0.0314176 -1.86674 0
M  V30 3544 C 346.159 1.37728 -1.39733 0
M  V30 3545 O 345.284 2.02327 -0.767635 0
M  V30 3546 C 345.879 -0.0502376 -3.38763 0
M  V30 3547 C 344.438 0.346442 -3.74802 0
M  V30 3548 C 343.585 -0.430366 -2.7394 0
M  V30 3549 H 346.536 -0.697182 -1.42566 0
M  V30 3550 H 346.557 0.749116 -3.73053 0
M  V30 3551 H 346.069 -1.07563 -3.72897 0
M  V30 3552 H 344.17 1.37572 -3.46273 0
M  V30 3553 H 344.283 0.0391486 -4.79084 0
M  V30 3554 H 342.647 0.117557 -2.54429 0
M  V30 3555 H 343.43 -1.4555 -3.10918 0
M  V30 3556 N 345.875 1.56104 -0.216619 0
M  V30 3557 C 347.286 1.844 0.292128 0
M  V30 3558 C 347.637 1.13788 1.59833 0
M  V30 3559 O 346.762 0.405888 2.12559 0
M  V30 3560 C 347.357 3.3452 0.53681 0
M  V30 3561 C 345.916 3.63151 0.989876 0
M  V30 3562 C 345.063 2.77255 0.0502302 0
M  V30 3563 H 348.014 1.52481 -0.439926 0
M  V30 3564 H 348.035 3.54459 1.38345 0
M  V30 3565 H 347.547 3.85885 -0.414031 0
M  V30 3566 H 345.648 3.17238 1.95425 0
M  V30 3567 H 345.761 4.71177 0.867698 0
M  V30 3568 H 344.125 2.48555 0.556117 0
M  V30 3569 H 344.908 3.31416 -0.89544 0
M  V30 3570 N 347.353 -0.0568162 1.57498 0
M  V30 3571 C 348.316 -1.05038 2.03715 0
M  V30 3572 C 349.316 -1.30709 0.936577 0
M  V30 3573 O 350.506 -1.26178 1.20103 0
M  V30 3574 C 347.638 -2.39034 2.43055 0
M  V30 3575 H 348.831 -0.651715 2.92733 0
M  V30 3576 H 346.384 -0.302947 1.53336 0
M  V30 3577 H 347.119 -2.83703 1.57108 0
M  V30 3578 H 346.904 -2.21739 3.2338 0
M  V30 3579 H 348.394 -3.10421 2.79336 0
M  V30 3580 N 348.832 -1.54138 -0.328536 0
M  V30 3581 C 350.057 -1.76378 -1.09112 0
M  V30 3582 C 350.482 -0.508596 -1.81094 0
M  V30 3583 O 349.84 0.539598 -1.73084 0
M  V30 3584 C 349.888 -2.95358 -2.06872 0
M  V30 3585 O 348.992 -2.66556 -3.14677 0
M  V30 3586 H 348.333 -0.584614 -0.314838 0
M  V30 3587 H 350.863 -2.01146 -0.374348 0
M  V30 3588 H 350.873 -3.22566 -2.4983 0
M  V30 3589 H 349.548 -3.86385 -1.5388 0
M  V30 3590 H 348.125 -2.50282 -2.7643 0
M  V30 3591 N 350.31 0.590341 -1.46126 0
M  V30 3592 C 351.726 0.912917 -1.30912 0
M  V30 3593 C 351.926 1.99616 -0.274893 0
M  V30 3594 O 350.982 2.50397 0.325197 0
M  V30 3595 C 352.295 1.3375 -2.69317 0
M  V30 3596 C 353.843 1.45077 -2.77348 0
M  V30 3597 C 354.318 1.90904 -4.16317 0
M  V30 3598 N 355.809 1.9811 -4.18696 0
M  V30 3599 C 356.544 2.34828 -5.23109 0
M  V30 3600 N 356.04 2.70393 -6.37856 0
M  V30 3601 N 357.833 2.35317 -5.10473 0
M  V30 3602 H 349.984 -0.125358 -2.1203 0
M  V30 3603 H 352.247 0.00658481 -0.947977 0
M  V30 3604 H 351.953 0.615614 -3.4627 0
M  V30 3605 H 351.827 2.30058 -2.9892 0
M  V30 3606 H 354.214 2.16353 -2.00687 0
M  V30 3607 H 354.295 0.4704 -2.51438 0
M  V30 3608 H 353.939 1.20209 -4.9347 0
M  V30 3609 H 353.869 2.89886 -4.39629 0
M  V30 3610 H 356.36 1.73146 -3.359 0
M  V30 3611 H 356.673 2.97341 -7.13308 0
M  V30 3612 H 355.018 2.68048 -6.41229 0
M  V30 3613 H 358.209 2.0695 -4.19868 0
M  V30 3614 H 358.382 2.63605 -5.9196 0
M  V30 3615 N 351.788 1.33704 0.83433 0
M  V30 3616 C 353.199 1.22813 1.4062 0
M  V30 3617 C 353.55 -0.151107 1.95617 0
M  V30 3618 O 352.675 -1.05092 1.89168 0
M  V30 3619 C 353.27 2.22355 2.55624 0
M  V30 3620 C 351.829 2.1529 3.08751 0
M  V30 3621 C 350.976 2.09589 1.8157 0
M  V30 3622 H 353.927 1.45236 0.639702 0
M  V30 3623 H 353.948 1.83391 3.33389 0
M  V30 3624 H 353.46 3.22728 2.15566 0
M  V30 3625 H 351.561 1.18235 3.53343 0
M  V30 3626 H 351.674 3.06038 3.68616 0
M  V30 3627 H 350.038 1.55134 2.02004 0
M  V30 3628 H 350.821 3.11777 1.43701 0
M  V30 3629 N 353.266 -1.05314 1.17247 0
M  V30 3630 C 354.514 -1.77941 0.958194 0
M  V30 3631 C 354.835 -1.88089 -0.514556 0
M  V30 3632 O 354.105 -1.39676 -1.37359 0
M  V30 3633 H 352.685 -0.659116 0.351533 0
M  V30 3634 H 355.347 -1.27166 1.47699 0
M  V30 3635 H 354.443 -2.79663 1.38546 0
M  V30 3636 N 354.744 -0.972509 -1.24016 0
M  V30 3637 C 355.707 -0.511403 -2.23422 0
M  V30 3638 C 356.707 0.394679 -1.55881 0
M  V30 3639 O 357.897 0.189469 -1.73167 0
M  V30 3640 C 355.029 0.258769 -3.39916 0
M  V30 3641 H 356.222 -1.39024 -2.6573 0
M  V30 3642 H 353.775 -0.757585 -1.36713 0
M  V30 3643 H 354.51 1.1545 -3.03054 0
M  V30 3644 H 354.295 -0.391522 -3.9014 0
M  V30 3645 H 355.785 0.570244 -4.13688 0
M  V30 3646 N 356.222 1.38976 -0.743202 0
M  V30 3647 C 357.47 1.99948 -0.29417 0
M  V30 3648 C 357.791 1.59279 1.12495 0
M  V30 3649 O 357.061 0.844808 1.76748 0
M  V30 3650 H 355.641 0.739473 -0.105774 0
M  V30 3651 H 358.303 1.699 -0.954986 0
M  V30 3652 H 357.399 3.10142 -0.349056 0
M  V30 3653 N 357.7 0.491464 1.49741 0
M  V30 3654 C 358.93 -0.0534375 2.06531 0
M  V30 3655 C 359.338 -1.32233 1.35318 0
M  V30 3656 O 358.681 -1.78781 0.422243 0
M  V30 3657 C 358.743 -0.387034 3.57411 0
M  V30 3658 C 358.407 0.782764 4.50246 0
M  V30 3659 C 359.404 1.67059 4.92329 0
M  V30 3660 C 357.089 0.978866 4.9267 0
M  V30 3661 C 359.083 2.73874 5.75562 0
M  V30 3662 C 356.77 2.05022 5.75682 0
M  V30 3663 C 357.768 2.92851 6.17031 0
M  V30 3664 O 357.456 3.98138 6.98385 0
M  V30 3665 H 357.188 0.0129324 0.675876 0
M  V30 3666 H 359.742 0.685238 1.93633 0
M  V30 3667 H 357.972 -1.17918 3.68283 0
M  V30 3668 H 359.661 -0.869419 3.96479 0
M  V30 3669 H 360.427 1.53086 4.60206 0
M  V30 3670 H 356.306 0.304646 4.59992 0
M  V30 3671 H 359.85 3.42458 6.07757 0
M  V30 3672 H 355.747 2.18993 6.07217 0
M  V30 3673 H 356.515 3.95374 7.16674 0
M  V30 3674 N 359.178 -1.55987 0.224894 0
M  V30 3675 C 360.424 -1.99433 -0.39973 0
M  V30 3676 C 360.779 -1.11004 -1.57149 0
M  V30 3677 O 360.072 -0.160725 -1.90925 0
M  V30 3678 C 360.266 -3.46394 -0.880106 0
M  V30 3679 C 360.095 -4.4904 0.243565 0
M  V30 3680 C 358.865 -5.00272 0.711056 0
M  V30 3681 C 361.063 -5.03195 1.06299 0
M  V30 3682 N 359.045 -5.86628 1.80944 0
M  V30 3683 C 360.416 -5.86508 2.01017 0
M  V30 3684 C 362.471 -4.8555 1.10205 0
M  V30 3685 C 361.174 -6.54062 2.99324 0
M  V30 3686 C 363.2 -5.53866 2.07332 0
M  V30 3687 C 362.562 -6.3695 3.00789 0
M  V30 3688 H 358.661 -0.773815 -0.112847 0
M  V30 3689 H 361.245 -1.91754 0.337432 0
M  V30 3690 H 359.416 -3.54515 -1.58662 0
M  V30 3691 H 361.148 -3.76752 -1.47783 0
M  V30 3692 H 357.903 -4.72655 0.29906 0
M  V30 3693 H 358.327 -6.34507 2.36073 0
M  V30 3694 H 362.969 -4.20966 0.39343 0
M  V30 3695 H 360.687 -7.17827 3.71147 0
M  V30 3696 H 364.273 -5.42178 2.11032 0
M  V30 3697 H 363.153 -6.8888 3.74718 0
M  V30 3698 N 360.656 0.0484629 -1.57525 0
M  V30 3699 C 361.904 0.741657 -1.88 0
M  V30 3700 C 362.225 1.76918 -0.820054 0
M  V30 3701 O 361.495 1.95335 0.148661 0
M  V30 3702 H 360.075 0.276908 -0.69378 0
M  V30 3703 H 362.737 0.019013 -1.94891 0
M  V30 3704 H 361.833 1.24336 -2.86264 0
M  V30 3705 N 362.134 1.5431 0.320358 0
M  V30 3706 C 363.044 1.86946 1.41734 0
M  V30 3707 C 364.06 0.761689 1.56443 0
M  V30 3708 O 365.236 1.05629 1.71477 0
M  V30 3709 C 362.301 2.09293 2.76401 0
M  V30 3710 C 361.362 3.33082 2.70841 0
M  V30 3711 C 360.595 3.54353 3.99086 0
M  V30 3712 O 360.818 2.79002 4.97508 0
M  V30 3713 O 359.752 4.47838 4.0215 0
M  V30 3714 H 363.578 2.80232 1.17062 0
M  V30 3715 H 361.163 1.40255 0.514673 0
M  V30 3716 H 363.045 2.25303 3.56113 0
M  V30 3717 H 361.72 1.19194 3.00956 0
M  V30 3718 H 360.627 3.22454 1.89668 0
M  V30 3719 H 361.96 4.23249 2.5124 0
M  V30 3720 N 363.613 -0.582584 1.46437 0
M  V30 3721 C 364.843 -1.36484 1.55099 0
M  V30 3722 C 365.251 -1.88233 0.191056 0
M  V30 3723 O 364.594 -1.6429 -0.821858 0
M  V30 3724 C 364.656 -2.588 2.49525 0
M  V30 3725 C 364.32 -2.28517 3.95764 0
M  V30 3726 C 365.317 -1.87346 4.84972 0
M  V30 3727 C 363.002 -2.40658 4.40896 0
M  V30 3728 C 364.996 -1.5871 6.17325 0
M  V30 3729 C 362.683 -2.11635 5.73284 0
M  V30 3730 C 363.681 -1.70725 6.61318 0
M  V30 3731 O 363.369 -1.42057 7.91249 0
M  V30 3732 H 363.101 -0.423297 0.527063 0
M  V30 3733 H 365.655 -0.715188 1.92547 0
M  V30 3734 H 363.885 -3.26571 2.07095 0
M  V30 3735 H 365.574 -3.20868 2.48593 0
M  V30 3736 H 366.34 -1.77481 4.5136 0
M  V30 3737 H 362.219 -2.71463 3.72598 0
M  V30 3738 H 365.763 -1.26704 6.85997 0
M  V30 3739 H 361.66 -2.21124 6.06444 0
M  V30 3740 H 362.428 -1.55901 8.03515 0
M  V30 3741 N 365.091 -1.34144 -0.827227 0
M  V30 3742 C 366.316 -1.29476 -1.62021 0
M  V30 3743 C 366.741 0.129292 -1.87655 0
M  V30 3744 O 366.099 1.08967 -1.449 0
M  V30 3745 C 366.147 -2.08702 -2.94068 0
M  V30 3746 O 365.251 -1.45359 -3.85933 0
M  V30 3747 H 364.592 -0.444881 -0.492927 0
M  V30 3748 H 367.122 -1.76882 -1.02829 0
M  V30 3749 H 367.132 -2.19898 -3.43669 0
M  V30 3750 H 365.807 -3.12241 -2.74734 0
M  V30 3751 H 364.384 -1.42879 -3.44442 0
M  V30 3752 N 366.569 1.04691 -1.17803 0
M  V30 3753 C 367.516 2.12557 -0.899343 0
M  V30 3754 C 368.486 1.65339 0.158771 0
M  V30 3755 O 369.671 1.90789 0.0204797 0
M  V30 3756 C 366.811 3.42481 -0.424315 0
M  V30 3757 C 365.924 4.03346 -1.54713 0
M  V30 3758 C 365.059 5.21208 -1.02546 0
M  V30 3759 C 364.098 5.74089 -2.12339 0
M  V30 3760 N 363.235 6.83247 -1.61612 0
M  V30 3761 H 368.075 2.35734 -1.823 0
M  V30 3762 H 365.612 1.1564 -0.909159 0
M  V30 3763 H 367.57 4.16996 -0.130421 0
M  V30 3764 H 366.2 3.19471 0.462377 0
M  V30 3765 H 365.252 3.2622 -1.95664 0
M  V30 3766 H 366.564 4.38628 -2.37501 0
M  V30 3767 H 365.718 6.02812 -0.685718 0
M  V30 3768 H 364.457 4.87414 -0.167084 0
M  V30 3769 H 363.462 4.91111 -2.47165 0
M  V30 3770 H 364.687 6.0993 -2.98601 0
M  V30 3771 H 362.633 6.5134 -0.780533 0
M  V30 3772 H 362.55 7.17559 -2.38003 0
M  V30 3773 H 363.818 7.68491 -1.30545 0
M  V30 3774 N 368.047 0.979072 1.23499 0
M  V30 3775 C 369.287 0.655228 1.93613 0
M  V30 3776 C 369.651 -0.796336 1.74707 0
M  V30 3777 O 370.852 -1.23094 2.38959 0
M  V30 3778 C 369.123 1.03337 3.42135 0
M  V30 3779 S 370.682 0.825793 4.3096 0
M  V30 3780 H 367.5 0.240004 0.669267 0
M  V30 3781 H 370.102 1.25843 1.49612 0
M  V30 3782 H 368.806 2.08646 3.53405 0
M  V30 3783 H 368.337 0.421397 3.91137 0
M  V30 3784 H 370.352 -0.290991 4.95346 0
M  V30 3785 N 369.525 -1.3858 0.750561 0
M  V30 3786 C 370.802 -1.94231 0.231009 0
M  V30 3787 C 371.182 -1.68611 -1.27018 0
M  V30 3788 O 370.53 -1.02296 -2.04323 0
M  V30 3789 C 370.74 -3.44123 0.581428 0
M  V30 3790 C 372.088 -4.2116 0.539389 0
M  V30 3791 O 373.112 -3.52391 0.519541 0
M  V30 3792 O 371.971 -5.43749 0.54765 0
M  V30 3793 H 369.065 -0.825639 0.0474263 0
M  V30 3794 H 371.611 -1.4799 0.830478 0
M  V30 3795 H 370.383 -3.56267 1.61833 0
M  V30 3796 H 370.006 -3.97573 -0.0462047 0
M  V30 3797 N 371.003 -0.499398 -1.49478 0
M  V30 3798 C 371.933 0.269244 -2.31943 0
M  V30 3799 C 372.914 0.964054 -1.40143 0
M  V30 3800 O 374.099 0.955767 -1.69052 0
M  V30 3801 C 371.229 1.33504 -3.20615 0
M  V30 3802 C 370.183 0.760202 -4.21195 0
M  V30 3803 C 369.509 1.9264 -4.98792 0
M  V30 3804 C 370.809 -0.247661 -5.21712 0
M  V30 3805 H 372.503 -0.419082 -2.96452 0
M  V30 3806 H 370.049 -0.202988 -1.42562 0
M  V30 3807 H 372.002 1.88048 -3.77115 0
M  V30 3808 H 370.726 2.05253 -2.54045 0
M  V30 3809 H 369.385 0.23653 -3.65836 0
M  V30 3810 H 369.033 2.63154 -4.28671 0
M  V30 3811 H 368.733 1.54785 -5.66847 0
M  V30 3812 H 370.257 2.4762 -5.58137 0
M  V30 3813 H 371.671 0.209579 -5.72917 0
M  V30 3814 H 370.068 -0.541962 -5.97648 0
M  V30 3815 H 371.138 -1.16409 -4.7072 0
M  V30 3816 N 372.481 1.55866 -0.233164 0
M  V30 3817 C 373.892 1.847 0.272554 0
M  V30 3818 C 374.243 1.15477 1.58617 0
M  V30 3819 O 373.368 0.42841 2.12117 0
M  V30 3820 C 373.963 3.35071 0.501299 0
M  V30 3821 C 372.522 3.6418 0.951304 0
M  V30 3822 C 371.669 2.77292 0.0208209 0
M  V30 3823 H 374.62 1.52005 -0.456074 0
M  V30 3824 H 374.641 3.55906 1.34577 0
M  V30 3825 H 374.153 3.85424 -0.454936 0
M  V30 3826 H 372.254 3.19293 1.92049 0
M  V30 3827 H 372.367 4.72071 0.817675 0
M  V30 3828 H 370.731 2.49131 0.529723 0
M  V30 3829 H 371.514 3.30448 -0.93054 0
M  V30 3830 N 373.959 -0.0401083 1.57549 0
M  V30 3831 C 374.889 -1.04384 2.08869 0
M  V30 3832 C 375.87 -1.38407 0.988817 0
M  V30 3833 O 377.055 -1.47483 1.26342 0
M  V30 3834 C 374.185 -2.34808 2.55895 0
M  V30 3835 C 373.139 -2.15057 3.70047 0
M  V30 3836 C 372.465 -3.51145 4.03239 0
M  V30 3837 C 373.765 -1.54576 4.98902 0
M  V30 3838 H 375.459 -0.616666 2.92981 0
M  V30 3839 H 373.005 -0.295184 1.40942 0
M  V30 3840 H 374.958 -3.05346 2.90417 0
M  V30 3841 H 373.682 -2.79565 1.68853 0
M  V30 3842 H 372.341 -1.46954 3.35857 0
M  V30 3843 H 371.989 -3.93529 3.13279 0
M  V30 3844 H 371.689 -3.38758 4.80122 0
M  V30 3845 H 373.213 -4.23062 4.40285 0
M  V30 3846 H 374.627 -2.15017 5.31451 0
M  V30 3847 H 373.024 -1.52796 5.80322 0
M  V30 3848 H 374.094 -0.51039 4.82206 0
M  V30 3849 N 375.437 -1.54477 -0.31217 0
M  V30 3850 C 376.853 -1.45442 -0.657185 0
M  V30 3851 C 377.053 -0.63653 -1.91182 0
M  V30 3852 O 376.109 -0.139815 -2.52113 0
M  V30 3853 C 377.422 -2.89287 -0.82058 0
M  V30 3854 C 378.97 -2.9926 -0.917188 0
M  V30 3855 C 379.445 -4.44279 -1.11267 0
M  V30 3856 N 380.936 -4.4794 -1.17914 0
M  V30 3857 C 381.671 -5.57318 -1.34848 0
M  V30 3858 N 381.167 -6.76642 -1.48752 0
M  V30 3859 N 382.96 -5.44986 -1.37647 0
M  V30 3860 H 375.111 -2.06129 0.512313 0
M  V30 3861 H 377.374 -0.933088 0.167485 0
M  V30 3862 H 377.08 -3.51687 0.0302604 0
M  V30 3863 H 376.954 -3.36061 -1.71298 0
M  V30 3864 H 379.341 -2.36981 -1.75852 0
M  V30 3865 H 379.422 -2.558 -0.00101257 0
M  V30 3866 H 379.066 -5.07149 -0.27614 0
M  V30 3867 H 378.996 -4.85359 -2.04289 0
M  V30 3868 H 381.487 -3.61969 -1.08567 0
M  V30 3869 H 381.8 -7.55758 -1.61397 0
M  V30 3870 H 380.145 -6.79529 -1.45828 0
M  V30 3871 H 383.336 -4.50715 -1.26388 0
M  V30 3872 H 383.509 -6.3028 -1.50501 0
M  V30 3873 N 376.915 0.57481 -1.46744 0
M  V30 3874 C 378.143 1.35856 -1.56047 0
M  V30 3875 C 378.558 1.87691 -0.204365 0
M  V30 3876 O 377.915 1.64049 0.79963 0
M  V30 3877 C 377.966 2.54066 -2.57163 0
M  V30 3878 O 377.687 2.04377 -3.87507 0
M  V30 3879 C 379.188 3.46514 -2.76483 0
M  V30 3880 H 376.408 0.414754 -0.527466 0
M  V30 3881 H 378.952 0.698035 -1.92218 0
M  V30 3882 H 377.107 3.16092 -2.23974 0
M  V30 3883 H 377.521 2.81419 -4.4261 0
M  V30 3884 H 378.995 4.25919 -3.51137 0
M  V30 3885 H 379.472 3.98951 -1.83671 0
M  V30 3886 H 380.078 2.90318 -3.10799 0
M  V30 3887 N 378.394 1.34581 0.820102 0
M  V30 3888 C 379.324 1.29038 1.94606 0
M  V30 3889 C 380.305 0.1673 1.69275 0
M  V30 3890 O 381.49 0.360112 1.90832 0
M  V30 3891 C 378.62 1.04793 3.31113 0
M  V30 3892 C 377.574 2.13597 3.70891 0
M  V30 3893 C 376.9 1.74537 5.05412 0
M  V30 3894 C 378.2 3.55451 3.8269 0
M  V30 3895 H 379.894 2.23248 1.99501 0
M  V30 3896 H 377.44 1.0747 0.958449 0
M  V30 3897 H 379.393 0.995592 4.0947 0
M  V30 3898 H 378.117 0.0702565 3.26524 0
M  V30 3899 H 376.776 2.17905 2.9481 0
M  V30 3900 H 376.424 0.754226 4.97313 0
M  V30 3901 H 376.124 2.47361 5.32997 0
M  V30 3902 H 377.648 1.70803 5.86224 0
M  V30 3903 H 379.062 3.5354 4.51312 0
M  V30 3904 H 377.459 4.26922 4.21732 0
M  V30 3905 H 378.529 3.92587 2.84611 0
M  V30 3906 N 379.872 -1.04064 1.18357 0
M  V30 3907 C 380.782 -2.15569 0.925596 0
M  V30 3908 C 381.798 -1.7365 -0.110295 0
M  V30 3909 O 382.974 -2.01273 0.0716218 0
M  V30 3910 C 380.039 -3.43704 0.454836 0
M  V30 3911 C 379.1 -4.00004 1.55869 0
M  V30 3912 C 378.333 -5.22023 1.1103 0
M  V30 3913 O 378.556 -5.70392 -0.0309756 0
M  V30 3914 O 377.49 -5.70856 1.90805 0
M  V30 3915 H 381.316 -2.40187 1.8586 0
M  V30 3916 H 378.901 -1.1402 0.965394 0
M  V30 3917 H 380.783 -4.20923 0.200382 0
M  V30 3918 H 379.458 -3.20559 -0.449876 0
M  V30 3919 H 378.365 -3.24172 1.86716 0
M  V30 3920 H 379.698 -4.2749 2.43953 0
M  V30 3921 N 381.35 -0.985608 -1.22978 0
M  V30 3922 C 382.575 -0.675254 -1.961 0
M  V30 3923 C 383 0.752154 -1.72407 0
M  V30 3924 O 382.358 1.5131 -0.998751 0
M  V30 3925 C 382.406 -0.977899 -3.47087 0
M  V30 3926 O 381.51 -0.072685 -4.12336 0
M  V30 3927 H 380.851 -0.253443 -0.613728 0
M  V30 3928 H 383.381 -1.32061 -1.56272 0
M  V30 3929 H 383.391 -0.916739 -3.97567 0
M  V30 3930 H 382.066 -2.01807 -3.63657 0
M  V30 3931 H 380.643 -0.188703 -3.72422 0
M  V30 3932 N 382.828 1.3818 -0.7579 0
M  V30 3933 C 383.758 2.33027 -0.148597 0
M  V30 3934 C 384.739 1.55085 0.69875 0
M  V30 3935 O 385.924 1.83384 0.639053 0
M  V30 3936 C 383.054 3.3928 0.742034 0
M  V30 3937 C 382.008 4.28 -0.00291946 0
M  V30 3938 C 381.334 5.25146 1.00625 0
M  V30 3939 C 382.634 5.08938 -1.17385 0
M  V30 3940 H 384.328 2.84231 -0.940909 0
M  V30 3941 H 381.874 1.36659 -0.453908 0
M  V30 3942 H 383.827 4.046 1.17799 0
M  V30 3943 H 382.551 2.86569 1.56671 0
M  V30 3944 H 381.21 3.64192 -0.419504 0
M  V30 3945 H 380.858 4.68721 1.8251 0
M  V30 3946 H 380.558 5.85361 0.512428 0
M  V30 3947 H 382.082 5.93342 1.44143 0
M  V30 3948 H 383.496 5.67474 -0.815224 0
M  V30 3949 H 381.893 5.7841 -1.59882 0
M  V30 3950 H 382.963 4.42424 -1.98468 0
M  V30 3951 N 384.306 0.507319 1.49211 0
M  V30 3952 C 385.236 -0.256939 2.32082 0
M  V30 3953 C 386.217 -0.956609 1.40652 0
M  V30 3954 O 387.402 -0.946788 1.69557 0
M  V30 3955 C 384.532 -1.31802 3.21318 0
M  V30 3956 C 383.486 -0.737855 4.21592 0
M  V30 3957 C 382.812 -1.89992 4.99807 0
M  V30 3958 C 384.112 0.275325 5.21574 0
M  V30 3959 H 385.806 0.434798 2.96226 0
M  V30 3960 H 383.352 0.210546 1.42452 0
M  V30 3961 H 385.305 -1.86045 3.78107 0
M  V30 3962 H 384.029 -2.03903 2.5513 0
M  V30 3963 H 382.688 -0.217126 3.65956 0
M  V30 3964 H 382.336 -2.60877 4.30061 0
M  V30 3965 H 382.036 -1.51777 5.6766 0
M  V30 3966 H 383.56 -2.44657 5.59442 0
M  V30 3967 H 384.974 -0.179193 5.7302 0
M  V30 3968 H 383.371 0.573649 5.97352 0
M  V30 3969 H 384.441 1.18903 4.70096 0
M  V30 3970 N 385.784 -1.5574 0.241426 0
M  V30 3971 C 387.009 -2.0366 -0.392111 0
M  V30 3972 C 387.434 -1.11969 -1.51144 0
M  V30 3973 O 386.792 -0.111594 -1.80956 0
M  V30 3974 C 386.84 -3.49638 -0.882371 0
M  V30 3975 O 385.944 -3.6108 -1.99235 0
M  V30 3976 H 385.285 -0.658379 -0.0862122 0
M  V30 3977 H 387.815 -2.01302 0.365881 0
M  V30 3978 H 387.825 -3.90351 -1.18702 0
M  V30 3979 H 386.5 -4.15852 -0.0632361 0
M  V30 3980 H 385.077 -3.32262 -1.69282 0
M  V30 3981 N 387.262 0.0317525 -1.57568 0
M  V30 3982 C 388.51 0.721676 -1.88776 0
M  V30 3983 C 388.831 1.76039 -0.838772 0
M  V30 3984 O 388.101 1.95482 0.127935 0
M  V30 3985 H 386.681 0.269534 -0.696678 0
M  V30 3986 H 389.343 -0.00165879 -1.949 0
M  V30 3987 H 388.439 1.21293 -2.87566 0
M  V30 3988 N 388.74 1.54641 0.303973 0
M  V30 3989 C 389.67 1.88386 1.3796 0
M  V30 3990 C 390.651 0.742485 1.5304 0
M  V30 3991 O 391.836 0.997959 1.66597 0
M  V30 3992 C 388.966 2.12854 2.74427 0
M  V30 3993 C 387.92 3.28702 2.74115 0
M  V30 3994 C 387.246 3.38582 4.13844 0
M  V30 3995 C 388.546 4.65881 2.3612 0
M  V30 3996 H 390.24 2.78474 1.09966 0
M  V30 3997 H 387.786 1.33988 0.527556 0
M  V30 3998 H 389.739 2.35047 3.49758 0
M  V30 3999 H 388.463 1.19535 3.03939 0
M  V30 4000 H 387.122 3.06428 2.0124 0
M  V30 4001 H 386.77 2.42784 4.40528 0
M  V30 4002 H 386.47 4.16453 4.14537 0
M  V30 4003 H 387.994 3.63031 4.90959 0
M  V30 4004 H 389.408 4.87823 3.01167 0
M  V30 4005 H 387.805 5.46444 2.48031 0
M  V30 4006 H 388.875 4.66799 1.3125 0
M  V30 4007 N 390.218 -0.567019 1.47046 0
M  V30 4008 C 391.466 -1.322 1.52864 0
M  V30 4009 C 391.787 -1.94088 0.188388 0
M  V30 4010 O 391.057 -1.7941 -0.786693 0
M  V30 4011 H 389.637 -0.490894 0.563056 0
M  V30 4012 H 392.299 -0.662879 1.83281 0
M  V30 4013 H 391.395 -2.12062 2.2899 0
M  V30 4014 N 391.696 -1.35014 -0.812953 0
M  V30 4015 C 393.107 -1.25035 -1.38648 0
M  V30 4016 C 393.458 0.119967 -1.95833 0
M  V30 4017 O 392.583 1.02069 -1.90816 0
M  V30 4018 C 393.178 -2.26394 -2.52054 0
M  V30 4019 C 391.737 -2.20175 -3.05287 0
M  V30 4020 C 390.884 -2.12451 -1.78213 0
M  V30 4021 H 393.835 -1.46235 -0.616516 0
M  V30 4022 H 393.856 -1.88672 -3.30429 0
M  V30 4023 H 393.368 -3.26116 -2.10404 0
M  V30 4024 H 391.469 -1.23841 -3.51417 0
M  V30 4025 H 391.582 -3.11863 -3.63701 0
M  V30 4026 H 389.946 -1.58328 -1.9951 0
M  V30 4027 H 390.729 -3.14024 -1.38723 0
M  V30 4028 N 393.175 1.03435 -1.18907 0
M  V30 4029 C 394.138 2.09756 -0.923844 0
M  V30 4030 C 395.138 1.60528 0.093416 0
M  V30 4031 O 396.328 1.73631 -0.140727 0
M  V30 4032 C 393.46 3.38692 -0.387354 0
M  V30 4033 H 394.653 2.34719 -1.86674 0
M  V30 4034 H 392.206 1.19959 -1.00197 0
M  V30 4035 H 392.941 3.19396 0.561845 0
M  V30 4036 H 392.726 3.75742 -1.12074 0
M  V30 4037 H 394.216 4.17016 -0.220694 0
M  V30 4038 N 394.653 0.992116 1.22453 0
M  V30 4039 C 395.901 0.666215 1.90804 0
M  V30 4040 C 396.222 -0.804152 1.77647 0
M  V30 4041 O 395.492 -1.57629 1.16318 0
M  V30 4042 H 394.072 0.243423 0.706225 0
M  V30 4043 H 396.734 1.25845 1.48825 0
M  V30 4044 H 395.83 0.928069 2.97982 0
M  V30 4045 N 396.131 -1.37776 0.765217 0
M  V30 4046 C 397.542 -1.82521 0.392819 0
M  V30 4047 C 397.893 -1.63789 -1.08017 0
M  V30 4048 O 397.018 -1.14542 -1.83601 0
M  V30 4049 C 397.613 -3.31358 0.706214 0
M  V30 4050 C 396.172 -3.74406 0.386952 0
M  V30 4051 C 395.319 -2.60394 0.953422 0
M  V30 4052 H 398.27 -1.2634 0.960412 0
M  V30 4053 H 398.291 -3.80498 -0.0114706 0
M  V30 4054 H 397.803 -3.44959 1.77833 0
M  V30 4055 H 395.904 -3.66377 -0.678112 0
M  V30 4056 H 396.017 -4.70749 0.890636 0
M  V30 4057 H 394.381 -2.51878 0.378064 0
M  V30 4058 H 395.164 -2.76791 2.03081 0
M  V30 4059 N 397.609 -0.515225 -1.4894 0
M  V30 4060 C 398.856 0.024215 -2.02486 0
M  V30 4061 C 399.184 1.35671 -1.39368 0
M  V30 4062 O 398.439 1.88566 -0.523574 0
M  V30 4063 C 398.738 0.210595 -3.56779 0
M  V30 4064 C 398.404 -1.04569 -4.38607 0
M  V30 4065 C 397.066 -1.39002 -4.60686 0
M  V30 4066 C 399.418 -1.88008 -4.86109 0
M  V30 4067 C 396.746 -2.568 -5.27514 0
M  V30 4068 C 399.098 -3.04972 -5.54234 0
M  V30 4069 C 397.762 -3.39768 -5.74555 0
M  V30 4070 H 397.032 0.00886088 -0.740947 0
M  V30 4071 H 399.679 -0.678263 -1.79086 0
M  V30 4072 H 397.984 0.99572 -3.78936 0
M  V30 4073 H 399.681 0.642659 -3.95817 0
M  V30 4074 H 396.271 -0.767497 -4.21672 0
M  V30 4075 H 400.455 -1.62719 -4.68867 0
M  V30 4076 H 395.711 -2.8398 -5.41447 0
M  V30 4077 H 399.885 -3.69943 -5.90013 0
M  V30 4078 H 397.512 -4.31148 -6.26112 0
M  V30 4079 N 399.087 1.5561 -0.249682 0
M  V30 4080 C 400.364 1.90932 0.424761 0
M  V30 4081 C 400.744 1.17078 1.75658 0
M  V30 4082 O 400.092 0.289176 2.26663 0
M  V30 4083 C 400.302 3.43975 0.590109 0
M  V30 4084 C 401.65 4.15281 0.884714 0
M  V30 4085 O 402.674 3.49729 0.67587 0
M  V30 4086 O 401.533 5.31236 1.28259 0
M  V30 4087 H 398.627 0.794815 0.228468 0
M  V30 4088 H 401.173 1.67135 -0.293954 0
M  V30 4089 H 399.945 3.89748 -0.34818 0
M  V30 4090 H 399.568 3.73644 1.35926 0
M  V30 4091 N 400.565 -0.0233959 1.57583 0
M  V30 4092 C 401.498 -1.05549 2.02323 0
M  V30 4093 C 402.476 -1.34843 0.908626 0
M  V30 4094 O 403.66 -1.47404 1.17491 0
M  V30 4095 C 400.787 -2.38885 2.40108 0
M  V30 4096 C 399.833 -2.2541 3.62067 0
M  V30 4097 S 400.666 -1.60217 5.1097 0
M  V30 4098 C 401.822 -2.95032 5.52003 0
M  V30 4099 H 402.055 -0.674435 2.89549 0
M  V30 4100 H 399.588 -0.23355 1.52623 0
M  V30 4101 H 401.546 -3.15562 2.62547 0
M  V30 4102 H 400.207 -2.74137 1.53323 0
M  V30 4103 H 399.4 -3.23854 3.86179 0
M  V30 4104 H 399.002 -1.56876 3.39508 0
M  V30 4105 H 401.294 -3.91357 5.53033 0
M  V30 4106 H 402.237 -2.75646 6.52246 0
M  V30 4107 H 402.645 -2.97865 4.79517 0
M  V30 4108 N 402.043 -1.548 -0.295768 0
M  V30 4109 C 403.289 -1.74588 -1.03184 0
M  V30 4110 C 403.622 -0.532962 -1.86744 0
M  V30 4111 O 402.897 0.469872 -1.88739 0
M  V30 4112 C 403.18 -3.03791 -1.93347 0
M  V30 4113 C 403.033 -4.35392 -1.12933 0
M  V30 4114 C 404.352 -3.28892 -2.92435 0
M  V30 4115 H 401.471 -0.635221 -0.373715 0
M  V30 4116 H 404.113 -1.87519 -0.30606 0
M  V30 4117 H 402.263 -2.92898 -2.55232 0
M  V30 4118 H 403.935 -4.58211 -0.532943 0
M  V30 4119 H 402.178 -4.31642 -0.432168 0
M  V30 4120 H 402.849 -5.22074 -1.79284 0
M  V30 4121 H 405.325 -3.39429 -2.4068 0
M  V30 4122 H 404.201 -4.20603 -3.52682 0
M  V30 4123 H 404.462 -2.47437 -3.6637 0
M  V30 4124 N 403.521 0.559213 -1.47345 0
M  V30 4125 C 404.751 1.33999 -1.57251 0
M  V30 4126 C 405.159 1.87905 -0.220978 0
M  V30 4127 O 404.502 1.65577 0.795617 0
M  V30 4128 C 404.564 2.54798 -2.53611 0
M  V30 4129 C 404.228 2.22192 -3.99349 0
M  V30 4130 C 405.225 1.79607 -4.87891 0
M  V30 4131 C 402.91 2.33613 -4.44669 0
M  V30 4132 C 404.904 1.48868 -6.19772 0
M  V30 4133 C 402.591 2.02487 -5.76578 0
M  V30 4134 C 403.589 1.60183 -6.63951 0
M  V30 4135 O 403.277 1.29451 -7.93409 0
M  V30 4136 H 403.009 0.414858 -0.533731 0
M  V30 4137 H 405.563 0.684465 -1.9366 0
M  V30 4138 H 403.793 3.23235 -2.12265 0
M  V30 4139 H 405.482 3.16873 -2.53666 0
M  V30 4140 H 406.248 1.70278 -4.54126 0
M  V30 4141 H 402.127 2.65501 -3.76869 0
M  V30 4142 H 405.671 1.15775 -6.87926 0
M  V30 4143 H 401.568 2.11448 -6.09885 0
M  V30 4144 H 402.336 1.43098 -8.05894 0
M  V30 4145 N 404.999 1.35443 0.805782 0
M  V30 4146 C 406.245 1.2996 1.56467 0
M  V30 4147 C 406.6 -0.124742 1.91995 0
M  V30 4148 O 405.893 -1.07533 1.58579 0
M  V30 4149 C 406.087 2.14045 2.86216 0
M  V30 4150 C 405.916 3.64512 2.63365 0
M  V30 4151 C 404.686 4.33744 2.59219 0
M  V30 4152 C 406.884 4.58142 2.33688 0
M  V30 4153 N 404.866 5.69953 2.28094 0
M  V30 4154 C 406.237 5.8248 2.12408 0
M  V30 4155 C 408.292 4.46877 2.19558 0
M  V30 4156 C 406.995 6.96818 1.78429 0
M  V30 4157 C 409.021 5.61065 1.86976 0
M  V30 4158 C 408.383 6.84431 1.66532 0
M  V30 4159 H 404.482 0.530817 0.574245 0
M  V30 4160 H 407.066 1.70333 0.943126 0
M  V30 4161 H 405.237 1.75942 3.46264 0
M  V30 4162 H 406.969 2.00075 3.51784 0
M  V30 4163 H 403.724 3.86365 2.73896 0
M  V30 4164 H 404.148 6.41845 2.15323 0
M  V30 4165 H 408.79 3.52102 2.34061 0
M  V30 4166 H 406.508 7.91559 1.62664 0
M  V30 4167 H 410.094 5.54302 1.7675 0
M  V30 4168 H 408.974 7.71294 1.41688 0
M  V30 4169 N 406.477 -1.02803 1.19454 0
M  V30 4170 C 407.705 -1.79841 1.02297 0
M  V30 4171 C 408.12 -1.83879 -0.428259 0
M  V30 4172 O 407.477 -1.28345 -1.29745 0
M  V30 4173 C 407.528 -3.24852 1.58598 0
M  V30 4174 O 407.249 -3.21097 2.98041 0
M  V30 4175 C 408.75 -4.18485 1.46236 0
M  V30 4176 H 405.97 -0.565936 0.360496 0
M  V30 4177 H 408.514 -1.2948 1.58288 0
M  V30 4178 H 406.669 -3.72401 1.06753 0
M  V30 4179 H 407.083 -4.12033 3.24545 0
M  V30 4180 H 408.557 -5.18121 1.90407 0
M  V30 4181 H 409.034 -4.37254 0.41301 0
M  V30 4182 H 409.64 -3.76811 1.97215 0
M  V30 4183 N 407.956 -0.998596 -1.21925 0
M  V30 4184 C 409.204 -0.676325 -1.90448 0
M  V30 4185 C 409.525 0.794719 -1.78071 0
M  V30 4186 O 408.795 1.5701 -1.17152 0
M  V30 4187 H 407.375 -0.247165 -0.704925 0
M  V30 4188 H 410.037 -1.26633 -1.48156 0
M  V30 4189 H 409.133 -0.943858 -2.97486 0
M  V30 4190 N 409.434 1.37368 -0.772513 0
M  V30 4191 C 410.711 1.93839 -0.26188 0
M  V30 4192 C 411.091 1.7061 1.24319 0
M  V30 4193 O 410.439 1.05534 2.02669 0
M  V30 4194 C 410.649 3.43154 -0.636102 0
M  V30 4195 C 411.997 4.20249 -0.606324 0
M  V30 4196 O 413.021 3.5152 -0.575538 0
M  V30 4197 O 411.88 5.42809 -0.634086 0
M  V30 4198 H 408.974 0.82478 -0.0605555 0
M  V30 4199 H 411.52 1.4665 -0.853917 0
M  V30 4200 H 410.292 3.53647 -1.6748 0
M  V30 4201 H 409.915 3.97596 -0.0170516 0
M  V30 4202 N 410.912 0.523116 1.48665 0
M  V30 4203 C 412.161 -0.01544 2.01694 0
M  V30 4204 C 412.474 -1.35975 1.40606 0
M  V30 4205 O 413.68 -1.98627 1.85093 0
M  V30 4206 C 412.136 -0.0779303 3.59816 0
M  V30 4207 C 411.744 1.26107 4.29885 0
M  V30 4208 C 413.488 -0.565678 4.20714 0
M  V30 4209 C 411.395 1.15954 5.79921 0
M  V30 4210 H 410.325 -0.00954163 0.75394 0
M  V30 4211 H 412.976 0.665865 1.70993 0
M  V30 4212 H 411.358 -0.824165 3.87329 0
M  V30 4213 H 412.532 2.02233 4.14051 0
M  V30 4214 H 410.847 1.68401 3.80828 0
M  V30 4215 H 413.444 -0.6595 5.30617 0
M  V30 4216 H 413.787 -1.56984 3.85567 0
M  V30 4217 H 414.32 0.12467 3.97605 0
M  V30 4218 H 411.059 2.13864 6.19631 0
M  V30 4219 H 410.579 0.439529 5.98187 0
M  V30 4220 H 412.258 0.847361 6.41427 0
M  V30 4221 N 412.39 -1.55475 0.257931 0
M  V30 4222 C 413.801 -1.8511 -0.243135 0
M  V30 4223 C 414.152 -1.17986 -1.5676 0
M  V30 4224 O 413.277 -0.462102 -2.11409 0
M  V30 4225 C 413.872 -3.35826 -0.447929 0
M  V30 4226 C 412.431 -3.65647 -0.893245 0
M  V30 4227 C 411.578 -2.7729 0.0232965 0
M  V30 4228 H 414.529 -1.51261 0.480199 0
M  V30 4229 H 414.55 -3.58002 -1.28898 0
M  V30 4230 H 414.062 -3.84652 0.516196 0
M  V30 4231 H 412.163 -3.22308 -1.86945 0
M  V30 4232 H 412.276 -4.73312 -0.742469 0
M  V30 4233 H 410.64 -2.49942 -0.490021 0
M  V30 4234 H 411.423 -3.28926 0.982994 0
M  V30 4235 N 413.868 0.0150385 -1.57593 0
M  V30 4236 C 414.831 0.995996 -2.06428 0
M  V30 4237 C 415.831 1.2818 -0.970903 0
M  V30 4238 O 417.021 1.22949 -1.23406 0
M  V30 4239 C 414.153 2.32506 -2.49307 0
M  V30 4240 H 415.346 0.573873 -2.94358 0
M  V30 4241 H 412.899 0.262186 -1.54085 0
M  V30 4242 H 413.634 2.79438 -1.64575 0
M  V30 4243 H 413.419 2.13087 -3.29145 0
M  V30 4244 H 414.909 3.02906 -2.87468 0
M  V30 4245 N 415.346 1.54954 0.287554 0
M  V30 4246 C 416.296 1.8322 1.357 0
M  V30 4247 C 417.28 0.690152 1.45347 0
M  V30 4248 O 418.472 0.951137 1.49273 0
M  V30 4249 C 415.601 2.09481 2.71979 0
M  V30 4250 C 414.687 3.29906 2.66502 0
M  V30 4251 N 415.078 4.50154 2.30641 0
M  V30 4252 C 413.376 3.32203 2.97585 0
M  V30 4253 C 414.077 5.32209 2.34794 0
M  V30 4254 N 413.053 4.70258 2.72688 0
M  V30 4255 H 416.855 2.73746 1.0696 0
M  V30 4256 H 414.369 1.54635 0.496167 0
M  V30 4257 H 416.366 2.27882 3.49107 0
M  V30 4258 H 415.026 1.2023 3.0162 0
M  V30 4259 H 416.037 4.76515 2.02865 0
M  V30 4260 H 412.714 2.53101 3.32034 0
M  V30 4261 H 414.104 6.38321 2.09753 0
M  V30 4262 N 416.824 -0.551391 1.4764 0
M  V30 4263 C 418.101 -1.31229 1.45046 0
M  V30 4264 C 418.481 -2.10563 0.150527 0
M  V30 4265 O 417.829 -2.11374 -0.867956 0
M  V30 4266 C 418.039 -2.21189 2.69956 0
M  V30 4267 C 419.387 -2.82021 3.1741 0
M  V30 4268 O 420.411 -2.31488 2.70724 0
M  V30 4269 O 419.27 -3.73885 3.98588 0
M  V30 4270 H 416.364 -0.591193 0.578291 0
M  V30 4271 H 418.91 -0.569813 1.59847 0
M  V30 4272 H 417.682 -1.62207 3.56096 0
M  V30 4273 H 417.305 -3.02722 2.57769 0
M  V30 4274 N 418.302 -1.35869 -0.798587 0
M  V30 4275 C 419.548 -1.2978 -1.55836 0
M  V30 4276 C 419.881 0.125322 -1.93795 0
M  V30 4277 O 419.156 1.07658 -1.61987 0
M  V30 4278 C 419.439 -2.21188 -2.84162 0
M  V30 4279 C 419.292 -3.72155 -2.52628 0
M  V30 4280 C 420.611 -2.11545 -3.85923 0
M  V30 4281 H 417.73 -0.472769 -0.565383 0
M  V30 4282 H 420.372 -1.66341 -0.918192 0
M  V30 4283 H 418.522 -1.90139 -3.38791 0
M  V30 4284 H 420.194 -4.13682 -2.04121 0
M  V30 4285 H 418.437 -3.92042 -1.85704 0
M  V30 4286 H 419.108 -4.31511 -3.44242 0
M  V30 4287 H 421.584 -2.38855 -3.40716 0
M  V30 4288 H 420.46 -2.77688 -4.73477 0
M  V30 4289 H 420.721 -1.09987 -4.282 0
M  V30 4290 N 419.78 1.02168 -1.19998 0
M  V30 4291 C 421.026 1.7606 -1.01855 0
M  V30 4292 C 421.381 1.87178 0.445222 0
M  V30 4293 O 420.674 1.3828 1.32624 0
M  V30 4294 C 420.868 3.18081 -1.62969 0
M  V30 4295 C 420.697 3.20809 -3.15137 0
M  V30 4296 C 419.467 3.28342 -3.84083 0
M  V30 4297 C 421.665 3.07268 -4.1242 0
M  V30 4298 N 419.647 3.2052 -5.23584 0
M  V30 4299 C 421.018 3.0716 -5.38566 0
M  V30 4300 C 423.073 2.91448 -4.03686 0
M  V30 4301 C 421.776 2.92853 -6.56985 0
M  V30 4302 C 423.802 2.78494 -5.21723 0
M  V30 4303 C 423.164 2.79046 -6.46771 0
M  V30 4304 H 419.263 0.655192 -0.426905 0
M  V30 4305 H 421.847 1.21564 -1.52087 0
M  V30 4306 H 420.018 3.70882 -1.15329 0
M  V30 4307 H 421.75 3.80375 -1.38192 0
M  V30 4308 H 418.505 3.34859 -3.34913 0
M  V30 4309 H 418.929 3.19997 -5.96599 0
M  V30 4310 H 423.571 2.89838 -3.07821 0
M  V30 4311 H 421.289 2.93213 -7.53028 0
M  V30 4312 H 424.875 2.67278 -5.16773 0
M  V30 4313 H 423.755 2.69134 -7.36571 0
M  V30 4314 N 421.258 1.00505 1.21394 0
M  V30 4315 C 422.208 0.536503 2.21598 0
M  V30 4316 C 423.192 -0.401914 1.55799 0
M  V30 4317 O 424.384 -0.226757 1.75541 0
M  V30 4318 C 421.513 -0.135446 3.43033 0
M  V30 4319 C 420.599 0.823992 4.16018 0
M  V30 4320 N 420.99 1.97683 4.6557 0
M  V30 4321 C 419.288 0.642387 4.4135 0
M  V30 4322 C 419.989 2.58003 5.21354 0
M  V30 4323 N 418.965 1.86162 5.1073 0
M  V30 4324 H 422.767 1.41557 2.57563 0
M  V30 4325 H 420.281 0.868878 1.37202 0
M  V30 4326 H 422.278 -0.488584 4.14027 0
M  V30 4327 H 420.938 -1.01049 3.08576 0
M  V30 4328 H 421.949 2.3572 4.61147 0
M  V30 4329 H 418.626 -0.185578 4.17087 0
M  V30 4330 H 420.016 3.555 5.70149 0
M  V30 4331 N 422.737 -1.36956 0.779787 0
M  V30 4332 C 423.669 -2.28833 0.129639 0
M  V30 4333 C 424.682 -1.4902 -0.655511 0
M  V30 4334 O 425.871 -1.71578 -0.492279 0
M  V30 4335 C 422.971 -3.2833 -0.839792 0
M  V30 4336 C 422.144 -4.3727 -0.10675 0
M  V30 4337 C 421.203 -5.16789 -0.990717 0
M  V30 4338 O 420.229 -5.67406 -0.451516 0
M  V30 4339 N 421.431 -5.32294 -2.3161 0
M  V30 4340 H 424.196 -2.85268 0.918803 0
M  V30 4341 H 421.757 -1.49019 0.632841 0
M  V30 4342 H 423.749 -3.78413 -1.43477 0
M  V30 4343 H 422.319 -2.72605 -1.52988 0
M  V30 4344 H 421.539 -3.88478 0.669216 0
M  V30 4345 H 422.827 -5.07229 0.399464 0
M  V30 4346 H 422.225 -4.92768 -2.77843 0
M  V30 4347 H 420.782 -5.85656 -2.86095 0
M  V30 4348 N 424.215 -0.530993 -1.48385 0
M  V30 4349 C 425.443 -0.00134122 -2.069 0
M  V30 4350 C 425.858 1.2805 -1.3874 0
M  V30 4351 O 425.215 1.76204 -0.475244 0
M  V30 4352 C 425.266 0.225256 -3.60798 0
M  V30 4353 O 424.987 -1.0058 -4.26398 0
M  V30 4354 C 426.488 0.795172 -4.3611 0
M  V30 4355 H 423.708 -0.0339704 -0.67014 0
M  V30 4356 H 426.252 -0.736926 -1.90761 0
M  V30 4357 H 424.407 0.910891 -3.76539 0
M  V30 4358 H 424.821 -0.787165 -5.1856 0
M  V30 4359 H 426.295 0.903143 -5.44562 0
M  V30 4360 H 426.772 1.80031 -4.00606 0
M  V30 4361 H 427.378 0.146069 -4.25049 0
M  V30 4362 N 425.693 1.55336 -0.266172 0
M  V30 4363 C 427.109 1.59356 0.0882065 0
M  V30 4364 C 427.309 1.2834 1.55342 0
M  V30 4365 O 426.365 1.03996 2.30089 0
M  V30 4366 C 427.678 2.99409 -0.278364 0
M  V30 4367 C 429.226 3.12196 -0.224243 0
M  V30 4368 C 429.701 4.545 -0.565123 0
M  V30 4369 N 431.192 4.60313 -0.51634 0
M  V30 4370 C 431.927 5.68434 -0.753013 0
M  V30 4371 N 431.423 6.84738 -1.05383 0
M  V30 4372 N 433.216 5.57942 -0.682414 0
M  V30 4373 H 425.367 1.73764 -1.22147 0
M  V30 4374 H 427.63 0.809822 -0.492841 0
M  V30 4375 H 427.336 3.2691 -1.29703 0
M  V30 4376 H 427.21 3.75228 0.385186 0
M  V30 4377 H 429.597 2.84464 0.78512 0
M  V30 4378 H 429.678 2.38609 -0.921922 0
M  V30 4379 H 429.322 4.82956 -1.57213 0
M  V30 4380 H 429.252 5.26374 0.154248 0
M  V30 4381 H 431.743 3.7676 -0.29335 0
M  V30 4382 H 432.056 7.63088 -1.22133 0
M  V30 4383 H 430.401 6.86375 -1.09151 0
M  V30 4384 H 433.592 4.65958 -0.44731 0
M  V30 4385 H 433.765 6.4213 -0.870248 0
M  V30 4386 N 427.171 -0.0066808 1.57599 0
M  V30 4387 C 428.103 -1.02827 2.04839 0
M  V30 4388 C 429.116 -1.31108 0.965113 0
M  V30 4389 O 430.305 -1.28202 1.24203 0
M  V30 4390 C 427.405 -2.36464 2.42771 0
M  V30 4391 C 426.578 -2.27219 3.73751 0
M  V30 4392 C 425.637 -3.43489 3.98625 0
M  V30 4393 O 424.663 -3.21976 4.69382 0
M  V30 4394 N 425.865 -4.66116 3.46 0
M  V30 4395 H 428.63 -0.625455 2.93101 0
M  V30 4396 H 426.191 -0.194198 1.60731 0
M  V30 4397 H 428.183 -3.13008 2.56531 0
M  V30 4398 H 426.753 -2.68512 1.60063 0
M  V30 4399 H 425.973 -1.35629 3.70133 0
M  V30 4400 H 427.261 -2.18208 4.59633 0
M  V30 4401 H 426.659 -4.86493 2.88688 0
M  V30 4402 H 425.216 -5.39949 3.65101 0
M  V30 4403 N 428.649 -1.55105 -0.279332 0
M  V30 4404 C 429.926 -1.66119 -1.03267 0
M  V30 4405 C 430.306 -0.523525 -2.04505 0
M  V30 4406 O 429.654 0.477194 -2.23462 0
M  V30 4407 C 429.864 -3.05067 -1.69515 0
M  V30 4408 C 431.212 -3.62606 -2.20912 0
M  V30 4409 O 432.236 -3.07659 -1.79512 0
M  V30 4410 O 431.095 -4.58861 -2.96831 0
M  V30 4411 H 428.189 -0.674429 -0.478618 0
M  V30 4412 H 430.735 -1.67446 -0.275694 0
M  V30 4413 H 429.507 -3.79311 -0.9612 0
M  V30 4414 H 429.13 -3.07611 -2.51915 0
M  V30 4415 N 430.127 0.543554 -1.4793 0
M  V30 4416 C 431.059 1.665 -1.57513 0
M  V30 4417 C 432.072 1.56156 -0.460333 0
M  V30 4418 O 433.261 1.62865 -0.730573 0
M  V30 4419 C 430.361 3.05063 -1.47614 0
M  V30 4420 C 429.534 3.41024 -2.739 0
M  V30 4421 C 428.593 4.58809 -2.57645 0
M  V30 4422 O 427.619 4.62707 -3.31498 0
M  V30 4423 N 428.821 5.56149 -1.66368 0
M  V30 4424 H 431.586 1.5872 -2.5422 0
M  V30 4425 H 429.147 0.730517 -1.44482 0
M  V30 4426 H 431.139 3.81712 -1.34455 0
M  V30 4427 H 429.709 3.06994 -0.589359 0
M  V30 4428 H 428.929 2.53687 -3.01723 0
M  V30 4429 H 430.217 3.61831 -3.57709 0
M  V30 4430 H 429.615 5.55767 -1.05543 0
M  V30 4431 H 428.172 6.32071 -1.59154 0
M  V30 4432 N 431.605 1.3629 0.791371 0
M  V30 4433 C 432.535 1.33137 1.91825 0
M  V30 4434 C 433.516 0.203168 1.68882 0
M  V30 4435 O 434.701 0.400509 1.90025 0
M  V30 4436 C 431.831 1.11793 3.28816 0
M  V30 4437 C 430.785 2.21417 3.66277 0
M  V30 4438 C 430.111 1.85218 5.01596 0
M  V30 4439 C 431.411 3.63489 3.75064 0
M  V30 4440 H 433.105 2.2743 1.9472 0
M  V30 4441 H 430.651 1.09479 0.935437 0
M  V30 4442 H 432.604 1.08222 4.07266 0
M  V30 4443 H 431.328 0.139501 3.26302 0
M  V30 4444 H 429.987 2.2411 2.90121 0
M  V30 4445 H 429.635 0.859544 4.95602 0
M  V30 4446 H 429.335 2.58611 5.27631 0
M  V30 4447 H 430.859 1.832 5.82469 0
M  V30 4448 H 432.273 3.63034 4.43711 0
M  V30 4449 H 430.67 4.35771 4.12582 0
M  V30 4450 H 431.74 3.98536 2.76219 0
M  V30 4451 N 433.083 -1.0153 1.20538 0
M  V30 4452 C 434.499 -1.27461 0.96051 0
M  V30 4453 C 434.699 -1.98273 -0.359193 0
M  V30 4454 O 433.755 -2.27886 -1.0874 0
M  V30 4455 C 435.068 -2.10837 2.14402 0
M  V30 4456 C 436.616 -2.24099 2.18515 0
M  V30 4457 C 437.091 -3.10852 3.36355 0
M  V30 4458 N 438.582 -3.18441 3.36377 0
M  V30 4459 C 439.317 -3.85795 4.24205 0
M  V30 4460 N 438.813 -4.55264 5.22213 0
M  V30 4461 N 440.606 -3.82331 4.12043 0
M  V30 4462 H 432.757 -0.539907 2.05423 0
M  V30 4463 H 435.02 -0.30092 0.898972 0
M  V30 4464 H 434.726 -1.66144 3.09983 0
M  V30 4465 H 434.6 -3.11576 2.12604 0
M  V30 4466 H 436.987 -2.68016 1.23497 0
M  V30 4467 H 437.068 -1.22865 2.24361 0
M  V30 4468 H 436.712 -2.6764 4.31661 0
M  V30 4469 H 436.642 -4.12177 3.27746 0
M  V30 4470 H 439.133 -2.68978 2.65442 0
M  V30 4471 H 439.446 -5.04331 5.85551 0
M  V30 4472 H 437.791 -4.54085 5.26148 0
M  V30 4473 H 440.982 -3.27207 3.34743 0
M  V30 4474 H 441.155 -4.34547 4.807 0
M  V30 4475 N 434.561 -1.01147 -1.20859 0
M  V30 4476 C 435.524 -0.582224 -2.21682 0
M  V30 4477 C 436.524 0.344887 -1.57058 0
M  V30 4478 O 437.714 0.134281 -1.73682 0
M  V30 4479 C 434.846 0.150496 -3.40568 0
M  V30 4480 H 436.039 -1.47408 -2.61172 0
M  V30 4481 H 433.592 -0.800695 -1.34233 0
M  V30 4482 H 434.327 1.0575 -3.06574 0
M  V30 4483 H 434.112 -0.515444 -3.88697 0
M  V30 4484 H 435.602 0.438344 -4.15293 0
M  V30 4485 N 436.039 1.36541 -0.78704 0
M  V30 4486 C 436.969 2.32659 -0.197992 0
M  V30 4487 C 437.95 1.56533 0.665697 0
M  V30 4488 O 439.135 1.84698 0.60001 0
M  V30 4489 C 436.265 3.40778 0.669901 0
M  V30 4490 C 435.219 4.27897 -0.0937039 0
M  V30 4491 C 434.545 5.27163 0.894629 0
M  V30 4492 C 435.845 5.06334 -1.28154 0
M  V30 4493 H 437.539 2.82171 -1.00099 0
M  V30 4494 H 435.085 1.35665 -0.482793 0
M  V30 4495 H 437.038 4.07008 1.09191 0
M  V30 4496 H 435.762 2.89827 1.50558 0
M  V30 4497 H 434.421 3.6322 -0.49666 0
M  V30 4498 H 434.069 4.72486 1.72527 0
M  V30 4499 H 433.769 5.86317 0.388149 0
M  V30 4500 H 435.293 5.96266 1.31525 0
M  V30 4501 H 436.707 5.65617 -0.93541 0
M  V30 4502 H 435.104 5.74888 -1.72115 0
M  V30 4503 H 436.174 4.38114 -2.07807 0
M  V30 4504 N 437.518 0.538854 1.48102 0
M  V30 4505 C 438.746 0.0123136 2.06896 0
M  V30 4506 C 439.161 -1.27312 1.39417 0
M  V30 4507 O 438.518 -1.75949 0.484582 0
M  V30 4508 C 438.569 -0.206118 3.60912 0
M  V30 4509 O 438.29 1.0284 4.25859 0
M  V30 4510 C 439.791 -0.772033 4.36526 0
M  V30 4511 H 437.011 0.0375239 0.66995 0
M  V30 4512 H 439.555 0.747032 1.90367 0
M  V30 4513 H 437.71 -0.89091 3.77017 0
M  V30 4514 H 438.124 0.814654 5.18135 0
M  V30 4515 H 439.598 -0.874251 5.45033 0
M  V30 4516 H 440.075 -1.77904 4.01555 0
M  V30 4517 H 440.681 -0.123526 4.25121 0
M  V30 4518 N 438.996 -1.55193 0.274407 0
M  V30 4519 C 440.224 -2.03987 -0.345943 0
M  V30 4520 C 440.639 -1.15279 -1.4952 0
M  V30 4521 O 439.996 -0.172759 -1.8168 0
M  V30 4522 C 440.047 -3.51898 -0.827631 0
M  V30 4523 O 439.768 -4.37231 0.275855 0
M  V30 4524 C 441.269 -4.16577 -1.51587 0
M  V30 4525 H 438.489 -0.666335 -0.0789892 0
M  V30 4526 H 441.033 -2.00423 0.406294 0
M  V30 4527 H 439.188 -3.55909 -1.52996 0
M  V30 4528 H 439.602 -5.24415 -0.0943638 0
M  V30 4529 H 441.076 -5.21678 -1.80433 0
M  V30 4530 H 441.553 -3.64707 -2.44716 0
M  V30 4531 H 442.159 -4.16568 -0.857409 0
M  V30 4532 N 440.474 -0.00167713 -1.576 0
M  V30 4533 C 441.72 0.683832 -1.90923 0
M  V30 4534 C 442.053 1.7333 -0.875799 0
M  V30 4535 O 441.328 1.94215 0.10525 0
M  V30 4536 C 441.611 1.32543 -3.3482 0
M  V30 4537 C 441.464 0.287387 -4.48881 0
M  V30 4538 C 442.783 2.25114 -3.78169 0
M  V30 4539 H 439.902 0.247125 -0.694333 0
M  V30 4540 H 442.544 -0.0533149 -1.89925 0
M  V30 4541 H 440.694 1.95372 -3.35801 0
M  V30 4542 H 442.366 -0.341346 -4.60035 0
M  V30 4543 H 440.609 -0.39017 -4.32042 0
M  V30 4544 H 441.28 0.775393 -5.46527 0
M  V30 4545 H 443.756 1.723 -3.7875 0
M  V30 4546 H 442.632 2.66971 -4.79602 0
M  V30 4547 H 442.893 3.13092 -3.12131 0
M  V30 4548 N 441.952 1.55251 0.271103 0
M  V30 4549 C 443.18 1.79974 1.02064 0
M  V30 4550 C 443.595 0.574003 1.79863 0
M  V30 4551 O 442.952 -0.456962 1.76686 0
M  V30 4552 C 443.003 3.02603 1.97772 0
M  V30 4553 O 442.724 4.20443 1.23124 0
M  V30 4554 C 444.225 3.39944 2.84522 0
M  V30 4555 H 441.445 0.599489 0.301419 0
M  V30 4556 H 443.989 2.02268 0.301313 0
M  V30 4557 H 442.144 2.8243 2.65165 0
M  V30 4558 H 442.558 4.89783 1.87651 0
M  V30 4559 H 444.032 4.28915 3.47471 0
M  V30 4560 H 444.509 2.59432 3.54389 0
M  V30 4561 H 445.115 3.62383 2.22618 0
M  V30 4562 N 443.43 -0.535701 1.48216 0
M  V30 4563 C 444.393 -1.623 1.61838 0
M  V30 4564 C 445.393 -1.53087 0.492024 0
M  V30 4565 O 446.583 -1.5686 0.757668 0
M  V30 4566 C 443.715 -3.01907 1.58319 0
M  V30 4567 H 444.908 -1.51564 2.58783 0
M  V30 4568 H 442.461 -0.757317 1.36727 0
M  V30 4569 H 443.196 -3.18155 0.628299 0
M  V30 4570 H 442.981 -3.10003 2.40085 0
M  V30 4571 H 444.471 -3.80969 1.71033 0
M  V30 4572 N 444.908 -1.36708 -0.784132 0
M  V30 4573 C 445.838 -1.34153 -1.91116 0
M  V30 4574 C 446.819 -0.212121 -1.68772 0
M  V30 4575 O 448.004 -0.410581 -1.8981 0
M  V30 4576 C 445.134 -1.13535 -3.28218 0
M  V30 4577 C 444.088 -2.23356 -3.65097 0
M  V30 4578 C 443.414 -1.87875 -5.00607 0
M  V30 4579 C 444.714 -3.65473 -3.73131 0
M  V30 4580 H 446.408 -2.28459 -1.93512 0
M  V30 4581 H 443.954 -1.09973 -0.929618 0
M  V30 4582 H 445.907 -1.10381 -4.06687 0
M  V30 4583 H 444.631 -0.156804 -3.26223 0
M  V30 4584 H 443.29 -2.25645 -2.88929 0
M  V30 4585 H 442.938 -0.885814 -4.95139 0
M  V30 4586 H 442.638 -2.61406 -5.26252 0
M  V30 4587 H 444.162 -1.86286 -5.81489 0
M  V30 4588 H 445.576 -3.65382 -4.41779 0
M  V30 4589 H 443.973 -4.37953 -4.10265 0
M  V30 4590 H 445.043 -3.99995 -2.74102 0
M  V30 4591 N 446.386 1.0089 -1.21074 0
M  V30 4592 C 447.632 1.74866 -1.02712 0
M  V30 4593 C 447.965 1.89178 0.438787 0
M  V30 4594 O 447.24 1.42325 1.32567 0
M  V30 4595 C 447.523 3.16347 -1.72036 0
M  V30 4596 C 447.376 3.09782 -3.26121 0
M  V30 4597 C 448.695 4.15187 -1.45973 0
M  V30 4598 H 445.814 0.634736 -0.374539 0
M  V30 4599 H 448.456 1.17646 -1.49196 0
M  V30 4600 H 446.606 3.65201 -1.32517 0
M  V30 4601 H 448.278 2.68673 -3.74983 0
M  V30 4602 H 446.521 2.46982 -3.56626 0
M  V30 4603 H 447.192 4.09829 -3.6979 0
M  V30 4604 H 449.668 3.75022 -1.80272 0
M  V30 4605 H 448.544 5.12331 -1.96999 0
M  V30 4606 H 448.805 4.40386 -0.388924 0
M  V30 4607 N 447.864 1.01787 1.20321 0
M  V30 4608 C 449.28 0.732951 1.41774 0
M  V30 4609 C 449.48 -0.686883 1.89431 0
M  V30 4610 O 448.536 -1.45446 2.06402 0
M  V30 4611 C 449.849 1.75973 2.43832 0
M  V30 4612 C 451.397 1.77802 2.57596 0
M  V30 4613 C 451.872 2.7941 3.62897 0
M  V30 4614 N 453.363 2.78157 3.70382 0
M  V30 4615 C 454.098 3.53434 4.51521 0
M  V30 4616 N 453.594 4.38392 5.36455 0
M  V30 4617 N 455.387 3.42026 4.46066 0
M  V30 4618 H 447.538 1.93447 0.877035 0
M  V30 4619 H 449.801 0.835712 0.447536 0
M  V30 4620 H 449.507 2.77699 2.15815 0
M  V30 4621 H 449.381 1.57292 3.4284 0
M  V30 4622 H 451.768 0.767602 2.84942 0
M  V30 4623 H 451.849 2.00557 1.58779 0
M  V30 4624 H 451.493 3.80616 3.36295 0
M  V30 4625 H 451.423 2.53916 4.61339 0
M  V30 4626 H 453.914 2.16531 3.09714 0
M  V30 4627 H 454.227 4.92596 5.95457 0
M  V30 4628 H 452.572 4.4247 5.35953 0
M  V30 4629 H 455.763 2.75075 3.78749 0
M  V30 4630 H 455.936 4.00946 5.09064 0
M  V30 4631 N 449.342 -1.36122 0.79427 0
M  V30 4632 C 450.289 -2.29982 0.194101 0
M  V30 4633 C 451.259 -1.52214 -0.664833 0
M  V30 4634 O 452.444 -1.80702 -0.612498 0
M  V30 4635 C 449.584 -3.38706 -0.661244 0
M  V30 4636 C 448.697 -4.31456 0.216766 0
M  V30 4637 C 447.832 -5.27265 -0.645411 0
M  V30 4638 C 446.871 -6.11653 0.233756 0
M  V30 4639 N 446.008 -6.99636 -0.587682 0
M  V30 4640 H 450.848 -2.80722 0.999965 0
M  V30 4641 H 448.385 -1.38172 0.504677 0
M  V30 4642 H 450.343 -4.00394 -1.17219 0
M  V30 4643 H 448.973 -2.89274 -1.43249 0
M  V30 4644 H 448.025 -3.7088 0.845724 0
M  V30 4645 H 449.337 -4.90724 0.893973 0
M  V30 4646 H 448.491 -5.94266 -1.22198 0
M  V30 4647 H 447.23 -4.68463 -1.35623 0
M  V30 4648 H 446.235 -5.4361 0.82269 0
M  V30 4649 H 447.46 -6.72531 0.942247 0
M  V30 4650 H 445.406 -6.43337 -1.2827 0
M  V30 4651 H 445.323 -7.55993 0.0317402 0
M  V30 4652 H 446.591 -7.71001 -1.14792 0
M  V30 4653 N 450.82 -0.546701 -1.47814 0
M  V30 4654 C 452.067 -0.0187407 -2.02491 0
M  V30 4655 C 452.395 1.32685 -1.42215 0
M  V30 4656 O 451.65 1.87413 -0.563454 0
M  V30 4657 C 451.949 0.134869 -3.57145 0
M  V30 4658 C 451.615 -1.13849 -4.3629 0
M  V30 4659 C 450.277 -1.48743 -4.57634 0
M  V30 4660 C 452.629 -1.98277 -4.82012 0
M  V30 4661 C 449.957 -2.67932 -5.21948 0
M  V30 4662 C 452.309 -3.16659 -5.4764 0
M  V30 4663 C 450.973 -3.51879 -5.67219 0
M  V30 4664 H 450.243 -0.0068577 -0.740968 0
M  V30 4665 H 452.89 -0.716097 -1.77607 0
M  V30 4666 H 451.195 0.915118 -3.80963 0
M  V30 4667 H 452.892 0.558556 -3.97091 0
M  V30 4668 H 449.482 -0.856767 -4.19949 0
M  V30 4669 H 453.666 -1.72628 -4.6531 0
M  V30 4670 H 448.922 -2.95401 -5.35302 0
M  V30 4671 H 453.096 -3.82374 -5.82033 0
M  V30 4672 H 450.723 -4.44331 -6.16825 0
M  V30 4673 N 452.299 1.55045 -0.282633 0
M  V30 4674 C 453.229 2.2579 0.595066 0
M  V30 4675 C 454.21 1.25074 1.15284 0
M  V30 4676 O 455.395 1.5381 1.18559 0
M  V30 4677 C 452.525 2.98472 1.77572 0
M  V30 4678 C 451.479 4.0618 1.34914 0
M  V30 4679 C 450.805 4.66477 2.6135 0
M  V30 4680 C 452.105 5.1996 0.493821 0
M  V30 4681 H 453.799 2.994 0.00505653 0
M  V30 4682 H 451.345 1.44 0.000992001 0
M  V30 4683 H 453.298 3.46677 2.39568 0
M  V30 4684 H 452.022 2.2241 2.39168 0
M  V30 4685 H 450.681 3.58797 0.752338 0
M  V30 4686 H 450.329 3.87074 3.2122 0
M  V30 4687 H 450.029 5.39207 2.33516 0
M  V30 4688 H 451.553 5.17435 3.24181 0
M  V30 4689 H 452.967 5.64172 1.01898 0
M  V30 4690 H 451.364 5.99299 0.310047 0
M  V30 4691 H 452.434 4.82462 -0.485593 0
M  V30 4692 N 453.777 0.010035 1.57597 0
M  V30 4693 C 455.025 -0.671371 1.90623 0
M  V30 4694 C 455.346 -1.73753 0.885151 0
M  V30 4695 O 454.616 -1.95752 -0.0760611 0
M  V30 4696 H 453.196 -0.250968 0.703579 0
M  V30 4697 H 455.858 0.0533325 1.94827 0
M  V30 4698 H 454.954 -1.13626 2.90681 0
M  V30 4699 N 455.255 -1.55392 -0.262866 0
M  V30 4700 C 456.666 -1.67079 -0.833158 0
M  V30 4701 C 457.017 -0.604539 -1.86654 0
M  V30 4702 O 456.142 0.252138 -2.14926 0
M  V30 4703 C 456.737 -3.02891 -1.51797 0
M  V30 4704 C 455.296 -3.16571 -2.03617 0
M  V30 4705 C 454.443 -2.62909 -0.881701 0
M  V30 4706 H 457.394 -1.58652 -0.0389986 0
M  V30 4707 H 457.415 -2.96445 -2.38538 0
M  V30 4708 H 456.927 -3.80473 -0.765619 0
M  V30 4709 H 455.028 -2.43782 -2.81782 0
M  V30 4710 H 455.141 -4.23271 -2.24452 0
M  V30 4711 H 453.505 -2.20324 -1.27786 0
M  V30 4712 H 454.288 -3.43003 -0.14269 0
M  V30 4713 N 456.733 0.527833 -1.48498 0
M  V30 4714 C 457.979 1.28545 -1.56857 0
M  V30 4715 C 458.312 1.92678 -0.242651 0
M  V30 4716 O 457.587 1.79394 0.751545 0
M  V30 4717 C 457.87 2.37314 -2.70839 0
M  V30 4718 C 457.723 1.77858 -4.13142 0
M  V30 4719 C 459.042 3.39068 -2.80573 0
M  V30 4720 H 456.161 0.466006 -0.570971 0
M  V30 4721 H 458.803 0.587784 -1.8068 0
M  V30 4722 H 456.953 2.96821 -2.50658 0
M  V30 4723 H 458.625 1.22385 -4.44769 0
M  V30 4724 H 456.868 1.08383 -4.20042 0
M  V30 4725 H 457.539 2.56624 -4.88721 0
M  V30 4726 H 460.015 2.89518 -2.98862 0
M  V30 4727 H 458.891 4.12566 -3.6205 0
M  V30 4728 H 459.152 3.9975 -1.88818 0
M  V30 4729 N 458.211 1.37122 0.776871 0
M  V30 4730 C 459.622 1.28667 1.35284 0
M  V30 4731 C 459.973 -0.0680035 1.96082 0
M  V30 4732 O 459.098 -0.969743 1.93455 0
M  V30 4733 C 459.693 2.32997 2.45963 0
M  V30 4734 C 458.252 2.28191 2.99342 0
M  V30 4735 C 457.399 2.17101 1.72517 0
M  V30 4736 H 460.35 1.47819 0.577527 0
M  V30 4737 H 460.371 1.97366 3.2531 0
M  V30 4738 H 459.883 3.3158 2.01684 0
M  V30 4739 H 457.984 1.33115 3.4801 0
M  V30 4740 H 458.097 3.21397 3.55304 0
M  V30 4741 H 456.461 1.63562 1.95242 0
M  V30 4742 H 457.244 3.17591 1.30348 0
M  V30 4743 N 459.689 -1.00246 1.21608 0
M  V30 4744 C 460.935 -1.74319 1.03638 0
M  V30 4745 C 461.268 -1.89408 -0.428749 0
M  V30 4746 O 460.543 -1.43026 -1.3181 0
M  V30 4747 C 460.826 -3.15431 1.73711 0
M  V30 4748 C 460.679 -3.08049 3.27759 0
M  V30 4749 C 461.998 -4.14407 1.48173 0
M  V30 4750 H 459.117 -0.632741 0.377899 0
M  V30 4751 H 461.759 -1.16853 1.49818 0
M  V30 4752 H 459.909 -3.64493 1.34452 0
M  V30 4753 H 461.581 -2.66681 3.76403 0
M  V30 4754 H 459.824 -2.45088 3.57931 0
M  V30 4755 H 460.495 -4.07862 3.71958 0
M  V30 4756 H 462.971 -3.74061 1.82258 0
M  V30 4757 H 461.847 -5.11279 1.99713 0
M  V30 4758 H 462.108 -4.40174 0.412273 0
M  V30 4759 N 461.167 -1.02423 -1.1978 0
M  V30 4760 C 462.397 -0.736387 -1.93031 0
M  V30 4761 C 462.805 0.708023 -1.75453 0
M  V30 4762 O 462.148 1.4927 -1.07071 0
M  V30 4763 C 462.21 -1.00194 -3.45255 0
M  V30 4764 C 461.874 -2.43698 -3.86601 0
M  V30 4765 C 462.871 -3.41814 -3.91738 0
M  V30 4766 C 460.556 -2.77975 -4.18372 0
M  V30 4767 C 462.55 -4.72265 -4.28071 0
M  V30 4768 C 460.237 -4.08636 -4.54378 0
M  V30 4769 C 461.235 -5.05592 -4.59201 0
M  V30 4770 O 460.923 -6.33914 -4.94376 0
M  V30 4771 H 460.655 -0.269116 -0.620123 0
M  V30 4772 H 463.209 -1.37043 -1.52998 0
M  V30 4773 H 461.439 -0.310747 -3.85449 0
M  V30 4774 H 463.128 -0.704488 -3.9974 0
M  V30 4775 H 463.894 -3.16671 -3.67348 0
M  V30 4776 H 459.773 -2.0319 -4.13805 0
M  V30 4777 H 463.317 -5.4794 -4.3175 0
M  V30 4778 H 459.214 -4.33556 -4.78226 0
M  V30 4779 H 459.982 -6.38317 -5.12341 0
M  V30 4780 N 462.645 1.35699 -0.801477 0
M  V30 4781 C 464.056 1.81415 -0.441073 0
M  V30 4782 C 464.407 1.66595 1.03636 0
M  V30 4783 O 463.532 1.19369 1.80499 0
M  V30 4784 C 464.127 3.29369 -0.793819 0
M  V30 4785 C 462.686 3.73248 -0.486083 0
M  V30 4786 C 461.833 2.57775 -1.02213 0
M  V30 4787 H 464.784 1.23749 -0.993572 0
M  V30 4788 H 464.805 3.80395 -0.0894158 0
M  V30 4789 H 464.317 3.40123 -1.86917 0
M  V30 4790 H 462.418 3.68046 0.580735 0
M  V30 4791 H 462.531 4.68222 -1.01513 0
M  V30 4792 H 460.895 2.50788 -0.444712 0
M  V30 4793 H 461.678 2.71309 -2.10348 0
M  V30 4794 N 464.123 0.554532 1.47522 0
M  V30 4795 C 465.086 -0.184174 2.28459 0
M  V30 4796 C 466.086 -0.845195 1.36796 0
M  V30 4797 O 467.276 -0.701467 1.59452 0
M  V30 4798 C 464.408 -1.26903 3.16399 0
M  V30 4799 H 465.601 0.526751 2.95238 0
M  V30 4800 H 463.154 0.311375 1.53167 0
M  V30 4801 H 463.889 -2.01244 2.54306 0
M  V30 4802 H 463.674 -0.799883 3.83854 0
M  V30 4803 H 465.164 -1.78794 3.77389 0
M  V30 4804 N 465.601 -1.54893 0.290851 0
M  V30 4805 C 466.847 -2.0023 -0.321867 0
M  V30 4806 C 467.18 -1.179 -1.54316 0
M  V30 4807 O 466.455 -0.25293 -1.92848 0
M  V30 4808 C 466.738 -3.53456 -0.688515 0
M  V30 4809 C 466.591 -4.46532 0.541209 0
M  V30 4810 C 467.91 -4.13057 -1.51895 0
M  V30 4811 H 465.029 -0.727891 -0.115515 0
M  V30 4812 H 467.671 -1.85722 0.400931 0
M  V30 4813 H 465.821 -3.6595 -1.30433 0
M  V30 4814 H 467.493 -4.4596 1.17973 0
M  V30 4815 H 465.736 -4.17545 1.17636 0
M  V30 4816 H 466.407 -5.51475 0.240675 0
M  V30 4817 H 468.883 -4.03937 -0.99872 0
M  V30 4818 H 467.759 -5.20448 -1.74429 0
M  V30 4819 H 468.02 -3.64284 -2.50498 0
M  V30 4820 N 467.08 -0.0183926 -1.57589 0
M  V30 4821 C 468.328 0.661253 -1.90976 0
M  V30 4822 C 468.649 1.73281 -0.894353 0
M  V30 4823 O 467.919 1.9579 0.0656788 0
M  V30 4824 H 466.499 0.247233 -0.704901 0
M  V30 4825 H 469.161 -0.0636639 -1.94796 0
M  V30 4826 H 468.257 1.12083 -2.9128 0
M  V30 4827 N 468.558 1.5553 0.254621 0
M  V30 4828 C 469.506 1.9048 1.33492 0
M  V30 4829 C 470.5 0.78304 1.50216 0
M  V30 4830 O 471.706 0.967582 1.51782 0
M  V30 4831 H 468.081 0.604846 0.44684 0
M  V30 4832 H 470.052 2.80688 1.01275 0
M  V30 4833 C 468.801 2.20928 2.68489 0
M  V30 4834 H 468.124 3.06742 2.56417 0
M  V30 4835 H 469.564 2.49291 3.42972 0
M  V30 4836 C 468.023 1.023 3.20993 0
M  V30 4837 O 468.553 0.267027 4.00811 0
M  V30 4838 N 466.759 0.815714 2.78917 0
M  V30 4839 H 466.306 1.43217 2.14119 0
M  V30 4840 H 466.264 0.0236532 3.14391 0
M  V30 4841 N 470.036 -0.519951 1.48776 0
M  V30 4842 C 470.986 -1.61995 1.60442 0
M  V30 4843 C 471.97 -1.54155 0.460991 0
M  V30 4844 O 473.162 -1.62006 0.712965 0
M  V30 4845 C 470.291 -3.00683 1.65664 0
M  V30 4846 C 469.377 -3.1359 2.8552 0
M  V30 4847 N 469.768 -2.96441 4.09825 0
M  V30 4848 C 468.066 -3.44662 2.83062 0
M  V30 4849 C 468.767 -3.1303 4.90293 0
M  V30 4850 N 467.743 -3.41058 4.23297 0
M  V30 4851 H 471.545 -1.47362 2.54287 0
M  V30 4852 H 469.059 -0.725649 1.45286 0
M  V30 4853 H 471.056 -3.79712 1.72117 0
M  V30 4854 H 469.716 -3.16401 0.729425 0
M  V30 4855 H 470.727 -2.72999 4.40104 0
M  V30 4856 H 467.404 -3.66675 1.9964 0
M  V30 4857 H 468.794 -3.04424 5.98979 0
M  V30 4858 N 471.514 -1.37532 -0.769588 0
M  V30 4859 C 472.424 -1.35668 -1.91393 0
M  V30 4860 C 473.44 -0.255954 -1.72107 0
M  V30 4861 O 474.616 -0.491704 -1.95305 0
M  V30 4862 C 471.681 -1.16481 -3.26547 0
M  V30 4863 C 470.742 -2.36212 -3.58472 0
M  V30 4864 C 469.975 -2.17932 -4.87177 0
M  V30 4865 O 470.198 -1.1647 -5.58382 0
M  V30 4866 O 469.132 -3.06167 -5.18214 0
M  V30 4867 H 472.958 -2.32055 -1.95918 0
M  V30 4868 H 470.543 -1.18284 -0.912641 0
M  V30 4869 H 472.425 -1.07778 -4.07384 0
M  V30 4870 H 471.1 -0.231687 -3.2287 0
M  V30 4871 H 470.007 -2.50488 -2.77861 0
M  V30 4872 H 471.34 -3.281 -3.66894 0
M  V30 4873 N 472.992 0.995999 -1.22138 0
M  V30 4874 C 474.217 1.77601 -1.0711 0
M  V30 4875 C 474.642 1.84339 0.374264 0
M  V30 4876 O 474 1.29359 1.27028 0
M  V30 4877 C 474.048 3.18897 -1.68336 0
M  V30 4878 O 473.152 4.01663 -0.934928 0
M  V30 4879 H 472.493 0.547011 -0.376397 0
M  V30 4880 H 475.023 1.25137 -1.6187 0
M  V30 4881 H 475.033 3.69539 -1.72931 0
M  V30 4882 H 473.708 3.13308 -2.73516 0
M  V30 4883 H 472.285 3.60204 -0.964751 0
M  V30 4884 N 474.47 1.03057 1.19235 0
M  V30 4885 C 475.698 0.747697 1.92917 0
M  V30 4886 C 476.113 -0.69372 1.75593 0
M  V30 4887 O 475.47 -1.47191 1.07894 0
M  V30 4888 C 475.521 1.09159 3.44625 0
M  V30 4889 O 475.242 2.47641 3.61394 0
M  V30 4890 C 476.743 0.831763 4.35427 0
M  V30 4891 H 473.963 0.273453 0.612751 0
M  V30 4892 H 476.507 1.37552 1.51327 0
M  V30 4893 H 474.662 0.508919 3.84043 0
M  V30 4894 H 475.076 2.60499 4.55237 0
M  V30 4895 H 476.55 1.12233 5.4047 0
M  V30 4896 H 477.027 -0.233769 4.38577 0
M  V30 4897 H 477.633 1.39725 4.01693 0
M  V30 4898 N 475.948 -1.35272 0.808662 0
M  V30 4899 C 477.359 -1.81179 0.450688 0
M  V30 4900 C 477.71 -1.67143 -1.02751 0
M  V30 4901 O 476.835 -1.20325 -1.79864 0
M  V30 4902 C 477.43 -3.28943 0.811275 0
M  V30 4903 C 475.989 -3.72985 0.505871 0
M  V30 4904 C 475.136 -2.57229 1.03578 0
M  V30 4905 H 478.087 -1.2322 1.00012 0
M  V30 4906 H 478.108 -3.80342 0.109588 0
M  V30 4907 H 477.62 -3.39127 1.88718 0
M  V30 4908 H 475.721 -3.68349 -0.561209 0
M  V30 4909 H 475.834 -4.67677 1.03995 0
M  V30 4910 H 474.198 -2.50548 0.458005 0
M  V30 4911 H 474.981 -2.7019 2.11784 0
M  V30 4912 N 477.426 -0.562348 -1.47226 0
M  V30 4913 C 478.672 -0.0402761 -2.0276 0
M  V30 4914 C 479.005 1.30823 -1.43523 0
M  V30 4915 O 478.28 1.85249 -0.592705 0
M  V30 4916 C 478.563 0.047311 -3.60069 0
M  V30 4917 C 478.416 -1.32865 -4.29729 0
M  V30 4918 C 479.735 0.758182 -4.3352 0
M  V30 4919 H 476.854 -0.0161105 -0.736824 0
M  V30 4920 H 479.496 -0.725628 -1.75598 0
M  V30 4921 H 477.646 0.630986 -3.83342 0
M  V30 4922 H 479.318 -1.95593 -4.17781 0
M  V30 4923 H 477.561 -1.90195 -3.89882 0
M  V30 4924 H 478.232 -1.22004 -5.38349 0
M  V30 4925 H 480.708 0.262546 -4.15271 0
M  V30 4926 H 479.584 0.78844 -5.43208 0
M  V30 4927 H 479.845 1.81537 -4.03109 0
M  V30 4928 N 478.904 1.54736 -0.299062 0
M  V30 4929 C 479.852 2.24897 0.593658 0
M  V30 4930 C 480.846 1.25429 1.13859 0
M  V30 4931 O 482.052 1.43286 1.08945 0
M  V30 4932 H 478.427 0.72207 0.210046 0
M  V30 4933 H 480.398 2.98393 -0.0206421 0
M  V30 4934 C 479.147 3.00159 1.75499 0
M  V30 4935 H 478.47 3.76501 1.34489 0
M  V30 4936 H 479.91 3.52535 2.35574 0
M  V30 4937 C 478.369 2.07015 2.65794 0
M  V30 4938 O 478.899 1.63692 3.66835 0
M  V30 4939 N 477.105 1.73012 2.33485 0
M  V30 4940 H 476.652 2.08439 1.51364 0
M  V30 4941 H 476.61 1.10965 2.94167 0
M  V30 4942 N 480.382 0.0267497 1.57577 0
M  V30 4943 C 481.607 -0.666227 1.96408 0
M  V30 4944 C 482.032 -1.65004 0.903071 0
M  V30 4945 O 481.39 -1.80787 -0.136263 0
M  V30 4946 C 481.438 -1.35101 3.34335 0
M  V30 4947 O 480.542 -2.46623 3.30531 0
M  V30 4948 H 479.883 -0.175206 0.640468 0
M  V30 4949 H 482.413 0.0878977 2.04411 0
M  V30 4950 H 482.423 -1.70834 3.70513 0
M  V30 4951 H 481.098 -0.629844 4.11103 0
M  V30 4952 H 479.675 -2.13019 3.06068 0
M  V30 4953 N 481.861 -1.55662 -0.24637 0
M  V30 4954 C 483.108 -1.77519 -0.974335 0
M  V30 4955 C 483.436 -0.591165 -1.85298 0
M  V30 4956 O 482.691 0.425497 -1.91018 0
M  V30 4957 C 482.99 -3.04885 -1.86494 0
M  V30 4958 C 482.656 -4.36209 -1.14161 0
M  V30 4959 C 481.318 -4.71896 -0.941701 0
M  V30 4960 C 483.67 -5.17391 -0.628957 0
M  V30 4961 C 480.998 -5.86299 -0.216852 0
M  V30 4962 C 483.35 -6.32546 0.0824273 0
M  V30 4963 C 482.014 -6.66853 0.293807 0
M  V30 4964 H 481.284 -0.649588 -0.356535 0
M  V30 4965 H 483.931 -1.89934 -0.244394 0
M  V30 4966 H 482.236 -2.87484 -2.66196 0
M  V30 4967 H 483.933 -3.18994 -2.42989 0
M  V30 4968 H 480.523 -4.08174 -1.30736 0
M  V30 4969 H 484.707 -4.90276 -0.770943 0
M  V30 4970 H 479.963 -6.11385 -0.0426124 0
M  V30 4971 H 484.137 -6.94693 0.487292 0
M  V30 4972 H 481.764 -7.55349 0.857428 0
M  V30 4973 N 483.339 0.512053 -1.4905 0
M  V30 4974 C 484.75 1.09376 -1.51307 0
M  V30 4975 C 485.101 1.94 -0.292971 0
M  V30 4976 O 484.226 2.07965 0.598277 0
M  V30 4977 C 484.821 1.99031 -2.74176 0
M  V30 4978 C 483.38 2.52385 -2.79247 0
M  V30 4979 C 482.527 1.29749 -2.45073 0
M  V30 4980 H 485.478 0.296467 -1.55906 0
M  V30 4981 H 485.499 2.83569 -2.53711 0
M  V30 4982 H 485.011 1.37412 -3.62959 0
M  V30 4983 H 483.112 3.17673 -1.94716 0
M  V30 4984 H 483.225 2.90293 -3.81139 0
M  V30 4985 H 481.589 1.61912 -1.96612 0
M  V30 4986 H 482.372 0.698555 -3.36118 0
M  V30 4987 N 484.817 1.37938 0.762283 0
M  V30 4988 C 486.228 1.30094 1.33912 0
M  V30 4989 C 486.579 -0.0472026 1.96143 0
M  V30 4990 O 485.704 -0.94917 1.94473 0
M  V30 4991 C 486.299 2.35592 2.43478 0
M  V30 4992 C 484.858 2.31353 2.96905 0
M  V30 4993 C 484.005 2.18919 1.70205 0
M  V30 4994 H 486.956 1.48423 0.561816 0
M  V30 4995 H 486.977 2.00806 3.23199 0
M  V30 4996 H 486.489 3.33701 1.98155 0
M  V30 4997 H 484.59 1.36799 3.46579 0
M  V30 4998 H 484.703 3.25147 3.51875 0
M  V30 4999 H 483.067 1.65624 1.93496 0
M  V30 5000 H 483.85 3.18956 1.26973 0
M  V30 5001 N 486.295 -0.989507 1.22664 0
M  V30 5002 C 487.706 -1.54406 1.04955 0
M  V30 5003 C 488.057 -1.92366 -0.385951 0
M  V30 5004 O 487.182 -1.75111 -1.27142 0
M  V30 5005 C 487.777 -2.80578 1.89899 0
M  V30 5006 C 486.336 -3.32464 1.76478 0
M  V30 5007 C 485.483 -2.05524 1.86159 0
M  V30 5008 H 488.434 -0.810211 1.3646 0
M  V30 5009 H 488.455 -3.53075 1.4184 0
M  V30 5010 H 487.967 -2.52918 2.94371 0
M  V30 5011 H 486.068 -3.65024 0.747528 0
M  V30 5012 H 486.181 -4.02838 2.59342 0
M  V30 5013 H 484.545 -2.19241 1.29636 0
M  V30 5014 H 485.328 -1.80258 2.92168 0
M  V30 5015 N 487.773 -1.03688 -1.18687 0
M  V30 5016 C 489.02 -0.73803 -1.88572 0
M  V30 5017 C 489.348 0.733973 -1.8012 0
M  V30 5018 O 488.603 1.55098 -1.19344 0
M  V30 5019 C 488.902 -1.14477 -3.3857 0
M  V30 5020 C 488.568 -2.61641 -3.67226 0
M  V30 5021 C 487.23 -3.01846 -3.74757 0
M  V30 5022 C 489.582 -3.56812 -3.79914 0
M  V30 5023 C 486.91 -4.36118 -3.92451 0
M  V30 5024 C 489.262 -4.90799 -3.99123 0
M  V30 5025 C 487.926 -5.3068 -4.04888 0
M  V30 5026 H 487.196 -0.270064 -0.690034 0
M  V30 5027 H 489.843 -1.3012 -1.40503 0
M  V30 5028 H 488.148 -0.500337 -3.88592 0
M  V30 5029 H 489.845 -0.89095 -3.90977 0
M  V30 5030 H 486.435 -2.29498 -3.61979 0
M  V30 5031 H 490.619 -3.26899 -3.73431 0
M  V30 5032 H 485.875 -4.66542 -3.95157 0
M  V30 5033 H 490.049 -5.64451 -4.07882 0
M  V30 5034 H 487.676 -6.34733 -4.18351 0
M  V30 5035 N 489.251 1.34841 -0.815825 0
M  V30 5036 C 490.5 1.97755 -0.396976 0
M  V30 5037 C 490.813 1.65422 1.04379 0
M  V30 5038 O 492.019 2.21771 1.5662 0
M  V30 5039 C 490.475 3.53818 -0.658869 0
M  V30 5040 C 490.083 3.95051 -2.11278 0
M  V30 5041 C 491.827 4.23397 -0.305834 0
M  V30 5042 C 489.734 5.43997 -2.31994 0
M  V30 5043 H 488.664 0.739985 -0.1447 0
M  V30 5044 H 491.315 1.53781 -1.00118 0
M  V30 5045 H 489.697 3.95997 0.0154112 0
M  V30 5046 H 490.871 3.63998 -2.82564 0
M  V30 5047 H 489.186 3.38388 -2.42657 0
M  V30 5048 H 491.783 5.32899 -0.43854 0
M  V30 5049 H 492.126 4.09508 0.748952 0
M  V30 5050 H 492.659 3.8667 -0.934403 0
M  V30 5051 H 489.398 5.62865 -3.35952 0
M  V30 5052 H 488.918 5.76589 -1.65244 0
M  V30 5053 H 490.597 6.10584 -2.14001 0
M  V30 5054 N 490.729 0.570148 1.46925 0
M  V30 5055 C 491.639 -0.173061 2.33961 0
M  V30 5056 C 492.655 -0.898825 1.48987 0
M  V30 5057 O 493.831 -0.864825 1.81887 0
M  V30 5058 C 490.896 -1.18177 3.25937 0
M  V30 5059 C 489.957 -0.462041 4.26806 0
M  V30 5060 C 489.19 -1.4227 5.14388 0
M  V30 5061 O 489.413 -2.65842 5.04662 0
M  V30 5062 O 488.347 -0.940127 5.94513 0
M  V30 5063 H 492.173 0.541216 2.98839 0
M  V30 5064 H 489.758 0.330647 1.45695 0
M  V30 5065 H 491.64 -1.76372 3.82715 0
M  V30 5066 H 490.315 -1.87774 2.63671 0
M  V30 5067 H 489.222 0.161429 3.73752 0
M  V30 5068 H 490.555 0.192719 4.91823 0
M  V30 5069 N 492.207 -1.54576 0.307264 0
M  V30 5070 C 493.455 -1.99867 -0.299574 0
M  V30 5071 C 493.776 -1.19714 -1.53927 0
M  V30 5072 O 493.046 -0.29472 -1.9367 0
M  V30 5073 H 491.626 -0.738299 -0.113683 0
M  V30 5074 H 494.288 -1.9032 0.420042 0
M  V30 5075 H 493.384 -3.06901 -0.567283 0
M  V30 5076 N 493.685 -0.035106 -1.57561 0
M  V30 5077 C 494.633 0.962707 -2.11742 0
M  V30 5078 C 495.627 1.33296 -1.0454 0
M  V30 5079 O 496.833 1.31449 -1.22968 0
M  V30 5080 H 493.208 0.32826 -0.676572 0
M  V30 5081 H 495.179 0.48048 -2.94506 0
M  V30 5082 C 493.928 2.23388 -2.66445 0
M  V30 5083 H 493.251 1.95774 -3.48587 0
M  V30 5084 H 494.691 2.91402 -3.07995 0
M  V30 5085 C 493.15 2.96769 -1.59467 0
M  V30 5086 O 493.68 3.89105 -0.998 0
M  V30 5087 N 491.886 2.59212 -1.31369 0
M  V30 5088 H 491.433 1.84202 -1.80076 0
M  V30 5089 H 491.391 3.08618 -0.600173 0
M  V30 5090 N 495.163 1.55791 0.238111 0
M  V30 5091 C 496.113 1.87444 1.29803 0
M  V30 5092 C 497.097 0.736043 1.43078 0
M  V30 5093 O 498.289 0.998146 1.46171 0
M  V30 5094 C 495.418 2.18028 2.65177 0
M  V30 5095 C 494.504 3.38217 2.55871 0
M  V30 5096 N 494.895 4.57264 2.16202 0
M  V30 5097 C 493.193 3.41502 2.86866 0
M  V30 5098 C 493.894 5.3941 2.17744 0
M  V30 5099 N 492.87 4.78695 2.57589 0
M  V30 5100 H 496.672 2.7701 0.981965 0
M  V30 5101 H 494.186 1.56135 0.44672 0
M  V30 5102 H 496.183 2.38873 3.4168 0
M  V30 5103 H 494.843 1.29765 2.97643 0
M  V30 5104 H 495.854 4.82727 1.87602 0
M  V30 5105 H 492.531 2.63536 3.23813 0
M  V30 5106 H 493.921 6.44671 1.89339 0
M  V30 5107 N 496.642 -0.504142 1.49319 0
M  V30 5108 C 497.867 -1.28729 1.62615 0
M  V30 5109 C 498.292 -1.85752 0.296309 0
M  V30 5110 O 497.65 -1.65704 -0.735649 0
M  V30 5111 C 497.698 -2.39561 2.69524 0
M  V30 5112 O 496.802 -3.43324 2.28478 0
M  V30 5113 H 496.143 -0.380172 0.544395 0
M  V30 5114 H 498.673 -0.603872 1.95485 0
M  V30 5115 H 498.683 -2.8537 2.91595 0
M  V30 5116 H 497.358 -1.97423 3.66056 0
M  V30 5117 H 495.935 -3.03455 2.16725 0
M  V30 5118 N 498.12 -1.38341 -0.754957 0
M  V30 5119 C 499.345 -1.37882 -1.5493 0
M  V30 5120 C 499.77 0.0296385 -1.88077 0
M  V30 5121 O 499.128 1.01133 -1.50472 0
M  V30 5122 C 499.176 -2.23996 -2.82592 0
M  V30 5123 O 498.28 -1.65612 -3.77686 0
M  V30 5124 H 497.621 -0.470384 -0.468652 0
M  V30 5125 H 500.151 -1.82084 -0.933082 0
M  V30 5126 H 500.161 -2.37806 -3.3153 0
M  V30 5127 H 498.836 -3.26365 -2.57796 0
M  V30 5128 H 497.413 -1.60936 -3.36384 0
M  V30 5129 N 499.598 0.982988 -1.23187 0
M  V30 5130 C 501.014 1.2487 -0.993967 0
M  V30 5131 C 501.214 1.99155 0.306498 0
M  V30 5132 O 500.27 2.30688 1.0266 0
M  V30 5133 C 501.583 2.05078 -2.19917 0
M  V30 5134 C 503.131 2.18227 -2.2438 0
M  V30 5135 C 503.606 3.01825 -3.44479 0
M  V30 5136 N 505.097 3.09411 -3.44702 0
M  V30 5137 C 505.832 3.74412 -4.34285 0
M  V30 5138 N 505.328 4.41259 -5.341 0
M  V30 5139 N 507.121 3.71273 -4.22035 0
M  V30 5140 H 499.272 0.485253 -2.06783 0
M  V30 5141 H 501.535 0.276979 -0.906635 0
M  V30 5142 H 501.241 1.57867 -3.14279 0
M  V30 5143 H 501.115 3.05829 -2.2079 0
M  V30 5144 H 503.502 2.64648 -1.30559 0
M  V30 5145 H 503.583 1.16873 -2.2754 0
M  V30 5146 H 503.227 2.56102 -4.38605 0
M  V30 5147 H 503.157 4.03342 -3.38559 0
M  V30 5148 H 505.648 2.61845 -2.7248 0
M  V30 5149 H 505.961 4.88629 -5.98717 0
M  V30 5150 H 504.306 4.39975 -5.38002 0
M  V30 5151 H 507.497 3.18217 -3.43301 0
M  V30 5152 H 507.67 4.21649 -4.92053 0
M  V30 5153 N 501.076 1.04316 1.18135 0
M  V30 5154 C 502.322 0.758899 1.88712 0
M  V30 5155 C 502.677 -0.705863 1.78984 0
M  V30 5156 O 501.97 -1.50874 1.18101 0
M  V30 5157 C 502.164 1.16271 3.37958 0
M  V30 5158 C 501.993 2.66518 3.62213 0
M  V30 5159 C 500.763 3.33702 3.79436 0
M  V30 5160 C 502.961 3.64739 3.62588 0
M  V30 5161 N 500.943 4.72904 3.91452 0
M  V30 5162 C 502.314 4.89627 3.80348 0
M  V30 5163 C 504.369 3.58333 3.4569 0
M  V30 5164 C 503.072 6.08879 3.8296 0
M  V30 5165 C 505.098 4.77016 3.49586 0
M  V30 5166 C 504.46 6.00724 3.67845 0
M  V30 5167 H 500.559 0.329795 0.709055 0
M  V30 5168 H 503.143 1.33334 1.4188 0
M  V30 5169 H 501.314 0.616319 3.83479 0
M  V30 5170 H 503.046 0.829205 3.96114 0
M  V30 5171 H 499.801 2.84105 3.78921 0
M  V30 5172 H 500.225 5.45258 4.01277 0
M  V30 5173 H 504.867 2.63663 3.30517 0
M  V30 5174 H 502.585 7.03903 3.96921 0
M  V30 5175 H 506.171 4.73703 3.37782 0
M  V30 5176 H 505.051 6.91022 3.70753 0
M  V30 5177 N 502.554 -1.34406 0.822964 0
M  V30 5178 C 503.484 -2.32052 0.259608 0
M  V30 5179 C 504.465 -1.58243 -0.623961 0
M  V30 5180 O 505.65 -1.86224 -0.55083 0
M  V30 5181 C 502.78 -3.42434 -0.579314 0
M  V30 5182 C 501.734 -4.27499 0.20712 0
M  V30 5183 C 501.06 -5.29349 -0.754547 0
M  V30 5184 C 502.36 -5.02758 1.41533 0
M  V30 5185 H 504.054 -2.79418 1.07545 0
M  V30 5186 H 501.6 -1.34338 0.518593 0
M  V30 5187 H 503.553 -4.0976 -0.983612 0
M  V30 5188 H 502.277 -2.93717 -1.4282 0
M  V30 5189 H 500.936 -3.61776 0.592787 0
M  V30 5190 H 500.584 -4.76895 -1.59939 0
M  V30 5191 H 500.284 -5.8714 -0.232561 0
M  V30 5192 H 501.808 -5.99544 -1.1567 0
M  V30 5193 H 503.222 -5.62938 1.08504 0
M  V30 5194 H 501.619 -5.70123 1.87296 0
M  V30 5195 H 502.689 -4.32451 2.1935 0
M  V30 5196 N 504.032 -0.577932 -1.46621 0
M  V30 5197 C 505.262 -0.0670668 -2.06491 0
M  V30 5198 C 505.67 1.24119 -1.42798 0
M  V30 5199 O 505.013 1.76016 -0.525759 0
M  V30 5200 C 505.075 0.177995 -3.59059 0
M  V30 5201 C 504.739 -1.04394 -4.44917 0
M  V30 5202 C 505.736 -1.95479 -4.81751 0
M  V30 5203 C 503.421 -1.26444 -4.86125 0
M  V30 5204 C 505.415 -3.06965 -5.58615 0
M  V30 5205 C 503.102 -2.38237 -5.62749 0
M  V30 5206 C 504.1 -3.28327 -5.98908 0
M  V30 5207 O 503.788 -4.38179 -6.73984 0
M  V30 5208 H 503.52 -0.0523159 -0.673973 0
M  V30 5209 H 506.074 -0.796966 -1.89308 0
M  V30 5210 H 504.304 0.962451 -3.74531 0
M  V30 5211 H 505.993 0.636782 -4.00874 0
M  V30 5212 H 506.759 -1.79657 -4.50498 0
M  V30 5213 H 502.638 -0.572316 -4.57434 0
M  V30 5214 H 506.182 -3.77309 -5.86757 0
M  V30 5215 H 502.079 -2.54023 -5.93416 0
M  V30 5216 H 502.847 -4.36486 -6.92403 0
M  V30 5217 N 505.51 1.54411 -0.315457 0
M  V30 5218 C 506.42 2.27737 0.56329 0
M  V30 5219 C 507.436 1.31787 1.13614 0
M  V30 5220 O 508.612 1.64791 1.15784 0
M  V30 5221 C 505.677 3.01478 1.71207 0
M  V30 5222 C 504.738 4.12997 1.17185 0
M  V30 5223 C 503.971 4.83212 2.26588 0
M  V30 5224 O 504.194 4.52884 3.46775 0
M  V30 5225 O 503.128 5.70299 1.92463 0
M  V30 5226 H 506.954 3.03683 -0.0319614 0
M  V30 5227 H 504.539 1.49178 -0.0814188 0
M  V30 5228 H 506.421 3.47683 2.38106 0
M  V30 5229 H 505.096 2.28414 2.29366 0
M  V30 5230 H 504.003 3.71159 0.468174 0
M  V30 5231 H 505.336 4.8808 0.635501 0
M  V30 5232 N 506.988 0.0434614 1.5754 0
M  V30 5233 C 507.951 -0.918696 2.09982 0
M  V30 5234 C 508.951 -1.24488 1.01781 0
M  V30 5235 O 510.141 -1.18284 1.27885 0
M  V30 5236 C 507.273 -2.23093 2.57764 0
M  V30 5237 H 508.466 -0.464229 2.96285 0
M  V30 5238 H 506.019 -0.204818 1.54952 0
M  V30 5239 H 506.754 -2.73137 1.74832 0
M  V30 5240 H 506.539 -2.00724 3.36827 0
M  V30 5241 H 508.029 -2.92028 2.98512 0
M  V30 5242 N 508.466 -1.55915 -0.229846 0
M  V30 5243 C 509.399 -1.86734 -1.3117 0
M  V30 5244 C 510.377 -0.723947 -1.45595 0
M  V30 5245 O 511.561 -0.971462 -1.61539 0
M  V30 5246 C 508.688 -2.06707 -2.68309 0
M  V30 5247 C 507.734 -3.2938 -2.70944 0
M  V30 5248 S 508.567 -4.85547 -2.25842 0
M  V30 5249 C 509.723 -5.08546 -3.64873 0
M  V30 5250 H 509.956 -2.78204 -1.04832 0
M  V30 5251 H 507.489 -1.48243 -0.431681 0
M  V30 5252 H 509.447 -2.18898 -3.47267 0
M  V30 5253 H 508.108 -1.16049 -2.91876 0
M  V30 5254 H 507.301 -3.40374 -3.71701 0
M  V30 5255 H 506.903 -3.16004 -2.00044 0
M  V30 5256 H 509.195 -4.96935 -4.60502 0
M  V30 5257 H 510.138 -6.10465 -3.58801 0
M  V30 5258 H 510.546 -4.36314 -3.58176 0
M  V30 5259 N 509.944 0.496216 -1.49584 0
M  V30 5260 C 510.907 1.57952 -1.66084 0
M  V30 5261 C 511.907 1.51729 -0.53244 0
M  V30 5262 O 513.097 1.54796 -0.79899 0
M  V30 5263 C 510.229 2.97604 -1.66268 0
M  V30 5264 H 511.422 1.44649 -2.6271 0
M  V30 5265 H 508.975 0.7208 -1.38687 0
M  V30 5266 H 509.71 3.16378 -0.712432 0
M  V30 5267 H 509.495 3.03528 -2.4822 0
M  V30 5268 H 510.985 3.76301 -1.81073 0
M  V30 5269 N 511.423 1.38739 0.74761 0
M  V30 5270 C 512.37 1.36449 1.86146 0
M  V30 5271 C 513.34 0.226098 1.64554 0
M  V30 5272 O 514.525 0.41926 1.86137 0
M  V30 5273 C 511.665 1.2013 3.23516 0
M  V30 5274 C 510.778 2.43407 3.56899 0
M  V30 5275 C 509.913 2.19773 4.83605 0
M  V30 5276 C 508.952 3.3879 5.09792 0
M  V30 5277 N 508.089 3.14553 6.27695 0
M  V30 5278 H 512.929 2.3167 1.87438 0
M  V30 5279 H 510.466 1.15094 0.916063 0
M  V30 5280 H 512.424 1.08683 4.02795 0
M  V30 5281 H 511.054 0.285453 3.21535 0
M  V30 5282 H 510.106 2.65504 2.72418 0
M  V30 5283 H 511.418 3.32094 3.72176 0
M  V30 5284 H 510.572 2.05496 5.70838 0
M  V30 5285 H 509.311 1.28461 4.70478 0
M  V30 5286 H 508.316 3.53579 4.21025 0
M  V30 5287 H 509.541 4.30986 5.24812 0
M  V30 5288 H 507.487 2.25893 6.1588 0
M  V30 5289 H 507.404 3.96791 6.435 0
M  V30 5290 H 508.672 3.03943 7.17801 0
M  V30 5291 N 512.901 -0.976442 1.23707 0
M  V30 5292 C 513.864 -2.0511 1.02287 0
M  V30 5293 C 514.864 -1.60791 -0.0167195 0
M  V30 5294 O 516.054 -1.72761 0.223408 0
M  V30 5295 C 513.186 -3.36458 0.548507 0
M  V30 5296 H 514.379 -2.25545 1.9766 0
M  V30 5297 H 511.932 -1.15042 1.05806 0
M  V30 5298 H 512.667 -3.21713 -0.408818 0
M  V30 5299 H 512.452 -3.69967 1.29874 0
M  V30 5300 H 513.942 -4.15489 0.419406 0
M  V30 5301 N 514.379 -1.04941 -1.1758 0
M  V30 5302 C 515.625 -0.768896 -1.88307 0
M  V30 5303 C 515.98 0.696361 -1.79356 0
M  V30 5304 O 515.273 1.50245 -1.18899 0
M  V30 5305 C 515.467 -1.18062 -3.37337 0
M  V30 5306 C 515.296 -2.68436 -3.60794 0
M  V30 5307 C 514.066 -3.35709 -3.77661 0
M  V30 5308 C 516.264 -3.66657 -3.60649 0
M  V30 5309 N 514.246 -4.74974 -3.88939 0
M  V30 5310 C 515.617 -4.91638 -3.77747 0
M  V30 5311 C 517.672 -3.60162 -3.43785 0
M  V30 5312 C 516.375 -6.10902 -3.79726 0
M  V30 5313 C 518.401 -4.78863 -3.47051 0
M  V30 5314 C 517.763 -6.02666 -3.64654 0
M  V30 5315 H 513.862 -0.33355 -0.707296 0
M  V30 5316 H 516.446 -1.34085 -1.41171 0
M  V30 5317 H 514.617 -0.636648 -3.83147 0
M  V30 5318 H 516.349 -0.8502 -3.95669 0
M  V30 5319 H 513.104 -2.8611 -3.77409 0
M  V30 5320 H 513.528 -5.47378 -3.98379 0
M  V30 5321 H 518.17 -2.65412 -3.29114 0
M  V30 5322 H 515.888 -7.05998 -3.93182 0
M  V30 5323 H 519.474 -4.75488 -3.35265 0
M  V30 5324 H 518.354 -6.92979 -3.67083 0
M  V30 5325 N 515.857 1.33968 -0.830081 0
M  V30 5326 C 516.767 2.33164 -0.259207 0
M  V30 5327 C 517.783 1.62951 0.610164 0
M  V30 5328 O 518.959 1.94668 0.516369 0
M  V30 5329 C 516.024 3.42088 0.563598 0
M  V30 5330 C 515.085 4.28037 -0.329014 0
M  V30 5331 C 514.318 5.3176 0.454616 0
M  V30 5332 O 514.541 5.44876 1.6872 0
M  V30 5333 O 513.475 6.01669 -0.166794 0
M  V30 5334 H 517.301 2.83832 -1.08041 0
M  V30 5335 H 514.886 1.37154 -0.59239 0
M  V30 5336 H 516.768 4.08581 1.03147 0
M  V30 5337 H 515.443 2.93651 1.36201 0
M  V30 5338 H 514.35 3.64443 -0.844538 0
M  V30 5339 H 515.683 4.79934 -1.09196 0
M  V30 5340 N 517.335 0.585699 1.46312 0
M  V30 5341 C 518.746 0.159938 1.86014 0
M  V30 5342 C 519.097 -1.27775 1.48889 0
M  V30 5343 O 518.222 -1.96559 0.90519 0
M  V30 5344 C 518.817 0.283485 3.37612 0
M  V30 5345 C 517.376 -0.0874256 3.76298 0
M  V30 5346 C 516.523 0.618055 2.70325 0
M  V30 5347 H 519.474 0.793737 1.37425 0
M  V30 5348 H 519.495 -0.490348 3.77327 0
M  V30 5349 H 519.007 1.32995 3.64601 0
M  V30 5350 H 517.108 -1.13391 3.54927 0
M  V30 5351 H 517.221 0.290975 4.78216 0
M  V30 5352 H 515.585 0.057993 2.54634 0
M  V30 5353 H 516.368 1.66623 3.00153 0
M  V30 5354 N 518.813 -1.54241 0.323641 0
M  V30 5355 C 520.059 -2.01572 -0.272089 0
M  V30 5356 C 520.414 -1.20774 -1.49771 0
M  V30 5357 O 519.707 -0.281821 -1.89516 0
M  V30 5358 C 519.901 -3.5129 -0.658031 0
M  V30 5359 C 519.73 -4.46582 0.528645 0
M  V30 5360 C 518.5 -4.94737 1.02777 0
M  V30 5361 C 520.698 -4.95416 1.38086 0
M  V30 5362 N 518.68 -5.73933 2.17885 0
M  V30 5363 C 520.051 -5.72537 2.3791 0
M  V30 5364 C 522.106 -4.77559 1.40861 0
M  V30 5365 C 520.809 -6.33702 3.40314 0
M  V30 5366 C 522.835 -5.39559 2.42136 0
M  V30 5367 C 522.197 -6.16532 3.40688 0
M  V30 5368 H 518.296 -0.779425 -0.0634072 0
M  V30 5369 H 520.88 -1.8922 0.458697 0
M  V30 5370 H 519.051 -3.63888 -1.35795 0
M  V30 5371 H 520.783 -3.85388 -1.23524 0
M  V30 5372 H 517.538 -4.69796 0.599046 0
M  V30 5373 H 517.962 -6.18209 2.75947 0
M  V30 5374 H 522.604 -4.17611 0.660352 0
M  V30 5375 H 520.322 -6.9277 4.16047 0
M  V30 5376 H 523.908 -5.27659 2.45086 0
M  V30 5377 H 522.788 -6.63655 4.1777 0
M  V30 5378 N 520.291 -0.0518155 -1.57515 0
M  V30 5379 C 521.221 0.920283 -2.146 0
M  V30 5380 C 522.202 1.32406 -1.06783 0
M  V30 5381 O 523.387 1.39866 -1.34726 0
M  V30 5382 C 520.517 2.1949 -2.6915 0
M  V30 5383 C 519.471 1.93116 -3.81956 0
M  V30 5384 C 518.797 3.27037 -4.23026 0
M  V30 5385 C 520.097 1.25225 -5.07066 0
M  V30 5386 H 521.791 0.444801 -2.96077 0
M  V30 5387 H 519.337 0.212508 -1.42423 0
M  V30 5388 H 521.29 2.87894 -3.07725 0
M  V30 5389 H 520.014 2.69244 -1.84865 0
M  V30 5390 H 518.673 1.27123 -3.43854 0
M  V30 5391 H 518.321 3.74595 -3.3569 0
M  V30 5392 H 518.021 3.10189 -4.99056 0
M  V30 5393 H 519.545 3.96673 -4.64202 0
M  V30 5394 H 520.959 1.83666 -5.43083 0
M  V30 5395 H 519.356 1.18702 -5.88243 0
M  V30 5396 H 520.426 0.228382 -4.84362 0
M  V30 5397 N 521.769 1.56035 0.221574 0
M  V30 5398 C 523.18 1.69229 0.788567 0
M  V30 5399 C 523.531 0.653814 1.84986 0
M  V30 5400 O 522.656 -0.195065 2.15519 0
M  V30 5401 C 523.251 3.06809 1.43713 0
M  V30 5402 C 521.81 3.21858 1.95152 0
M  V30 5403 C 520.957 2.65155 0.811685 0
M  V30 5404 H 523.908 1.587 -0.00307894 0
M  V30 5405 H 523.929 3.02666 2.30594 0
M  V30 5406 H 523.441 3.82369 0.664475 0
M  V30 5407 H 521.542 2.51167 2.7522 0
M  V30 5408 H 521.655 4.29073 2.1315 0
M  V30 5409 H 520.019 2.23635 1.21899 0
M  V30 5410 H 520.802 3.43261 0.0516987 0
M  V30 5411 N 523.247 -0.488276 1.49845 0
M  V30 5412 C 524.21 -1.57069 1.66919 0
M  V30 5413 C 525.21 -1.51445 0.540479 0
M  V30 5414 O 526.4 -1.5437 0.807188 0
M  V30 5415 C 523.532 -2.96718 1.67844 0
M  V30 5416 H 524.725 -1.43254 2.63474 0
M  V30 5417 H 522.278 -0.713435 1.39068 0
M  V30 5418 H 523.013 -3.15996 0.7292 0
M  V30 5419 H 522.798 -3.02208 2.49826 0
M  V30 5420 H 524.288 -3.75335 1.83066 0
M  V30 5421 N 524.725 -1.39134 -0.740242 0
M  V30 5422 C 525.635 -1.39697 -1.88473 0
M  V30 5423 C 526.651 -0.292403 -1.71526 0
M  V30 5424 O 527.827 -0.533021 -1.94219 0
M  V30 5425 C 524.892 -1.23382 -3.24003 0
M  V30 5426 C 523.953 -2.43763 -3.53381 0
M  V30 5427 C 523.186 -2.28216 -4.82445 0
M  V30 5428 O 523.409 -1.28288 -5.55786 0
M  V30 5429 O 522.343 -3.1709 -5.11603 0
M  V30 5430 H 526.169 -2.36159 -1.90952 0
M  V30 5431 H 523.754 -1.20194 -0.887346 0
M  V30 5432 H 525.636 -1.16395 -4.05006 0
M  V30 5433 H 524.311 -0.300121 -3.22306 0
M  V30 5434 H 523.218 -2.56325 -2.72485 0
M  V30 5435 H 524.551 -3.35808 -3.59852 0
M  V30 5436 N 526.204 0.969867 -1.24223 0
M  V30 5437 C 527.167 2.04564 -1.03373 0
M  V30 5438 C 528.167 1.60798 0.00819206 0
M  V30 5439 O 529.357 1.72641 -0.232567 0
M  V30 5440 C 526.489 3.36163 -0.566343 0
M  V30 5441 H 527.682 2.24494 -1.98853 0
M  V30 5442 H 525.235 1.1448 -1.06415 0
M  V30 5443 H 525.97 3.21925 0.391751 0
M  V30 5444 H 525.755 3.69273 -1.31834 0
M  V30 5445 H 527.245 4.1526 -0.441435 0
M  V30 5446 N 527.682 1.05563 1.17022 0
M  V30 5447 C 528.612 0.681026 2.23348 0
M  V30 5448 C 529.593 -0.322983 1.67005 0
M  V30 5449 O 530.778 -0.199746 1.9317 0
M  V30 5450 C 527.908 0.0589053 3.4725 0
M  V30 5451 C 526.862 0.988082 4.16438 0
M  V30 5452 C 526.188 0.229646 5.34207 0
M  V30 5453 C 527.488 2.31388 4.68249 0
M  V30 5454 H 529.182 1.56993 2.54938 0
M  V30 5455 H 526.728 0.756302 1.2254 0
M  V30 5456 H 528.681 -0.214982 4.20851 0
M  V30 5457 H 527.405 -0.864968 3.14938 0
M  V30 5458 H 526.064 1.24659 3.44754 0
M  V30 5459 H 525.712 -0.697111 4.98146 0
M  V30 5460 H 525.412 0.848815 5.81437 0
M  V30 5461 H 526.936 -0.0368694 6.10589 0
M  V30 5462 H 528.35 2.09964 5.33468 0
M  V30 5463 H 526.747 2.88736 5.26072 0
M  V30 5464 H 527.817 2.94982 3.84855 0
M  V30 5465 N 529.16 -1.33526 0.837174 0
M  V30 5466 C 530.576 -1.50727 0.524743 0
M  V30 5467 C 530.776 -1.77792 -0.948279 0
M  V30 5468 O 529.832 -1.83719 -1.73216 0
M  V30 5469 C 531.145 -2.66299 1.39661 0
M  V30 5470 C 532.693 -2.80183 1.39521 0
M  V30 5471 C 533.168 -3.98815 2.25189 0
M  V30 5472 N 534.659 -4.06047 2.2289 0
M  V30 5473 C 535.394 -4.97032 2.85915 0
M  V30 5474 N 534.89 -5.93143 3.57985 0
M  V30 5475 N 536.683 -4.90015 2.75394 0
M  V30 5476 H 528.834 -1.1422 1.79074 0
M  V30 5477 H 531.097 -0.561399 0.763894 0
M  V30 5478 H 530.803 -2.52974 2.4433 0
M  V30 5479 H 530.677 -3.61663 1.07145 0
M  V30 5480 H 533.064 -2.92942 0.356253 0
M  V30 5481 H 533.145 -1.85586 1.76044 0
M  V30 5482 H 532.789 -3.86817 3.29143 0
M  V30 5483 H 532.719 -4.92654 1.86009 0
M  V30 5484 H 535.21 -3.37262 1.70478 0
M  V30 5485 H 535.523 -6.59227 4.03286 0
M  V30 5486 H 533.868 -5.93223 3.62093 0
M  V30 5487 H 537.059 -4.13894 2.18654 0
M  V30 5488 H 537.232 -5.60724 3.24796 0
M  V30 5489 N 530.638 -0.59345 -1.46 0
M  V30 5490 C 531.866 -0.0890934 -2.06708 0
M  V30 5491 C 532.281 1.2205 -1.44046 0
M  V30 5492 O 531.638 1.74029 -0.549551 0
M  V30 5493 C 531.689 0.0720263 -3.61428 0
M  V30 5494 O 531.41 -1.18574 -4.21748 0
M  V30 5495 C 532.911 0.609487 -4.3909 0
M  V30 5496 H 530.131 -0.0623628 -0.668096 0
M  V30 5497 H 532.675 -0.817171 -1.87464 0
M  V30 5498 H 530.83 0.750369 -3.80063 0
M  V30 5499 H 531.244 -1.0064 -5.14754 0
M  V30 5500 H 532.718 0.671363 -5.47902 0
M  V30 5501 H 533.195 1.62878 -4.07882 0
M  V30 5502 H 533.801 -0.03434 -4.25286 0
M  V30 5503 N 532.116 1.54067 -0.331816 0
M  V30 5504 C 533.046 2.27569 0.522932 0
M  V30 5505 C 534.027 1.28679 1.11247 0
M  V30 5506 O 535.212 1.57504 1.13605 0
M  V30 5507 C 532.342 3.0397 1.67987 0
M  V30 5508 C 531.296 4.10267 1.21924 0
M  V30 5509 C 530.622 4.74555 2.46377 0
M  V30 5510 C 531.922 5.21268 0.32815 0
M  V30 5511 H 533.616 2.99264 -0.0901977 0
M  V30 5512 H 531.162 1.4393 -0.044821 0
M  V30 5513 H 533.115 3.54123 2.28418 0
M  V30 5514 H 531.839 2.29906 2.31971 0
M  V30 5515 H 530.498 3.61009 0.637809 0
M  V30 5516 H 530.146 3.97098 3.08743 0
M  V30 5517 H 529.846 5.46363 2.16243 0
M  V30 5518 H 531.37 5.27487 3.07555 0
M  V30 5519 H 532.784 5.67128 0.838978 0
M  V30 5520 H 531.181 5.99982 0.119228 0
M  V30 5521 H 532.251 4.80673 -0.638839 0
M  V30 5522 N 533.594 0.0601682 1.57485 0
M  V30 5523 C 535.01 -0.296422 1.56823 0
M  V30 5524 C 535.21 -1.70831 1.0686 0
M  V30 5525 O 534.266 -2.4174 0.729245 0
M  V30 5526 C 535.579 -0.116681 3.00474 0
M  V30 5527 C 537.127 -0.187103 3.1244 0
M  V30 5528 C 537.602 -0.035783 4.57986 0
M  V30 5529 N 539.093 -0.0917676 4.63109 0
M  V30 5530 C 539.828 0.00107251 5.734 0
M  V30 5531 N 539.324 0.146773 6.92645 0
M  V30 5532 N 541.117 -0.0551577 5.62073 0
M  V30 5533 H 533.268 0.983055 1.88281 0
M  V30 5534 H 535.531 0.382386 0.867459 0
M  V30 5535 H 535.237 0.85712 3.41096 0
M  V30 5536 H 535.111 -0.873929 3.66936 0
M  V30 5537 H 537.498 -1.15138 2.71712 0
M  V30 5538 H 537.579 0.601052 2.48638 0
M  V30 5539 H 537.223 0.925212 4.99402 0
M  V30 5540 H 537.153 -0.843196 5.19806 0
M  V30 5541 H 539.644 -0.203261 3.77353 0
M  V30 5542 H 539.957 0.210076 7.72514 0
M  V30 5543 H 538.302 0.181979 6.94762 0
M  V30 5544 H 541.493 -0.167605 4.678 0
M  V30 5545 H 541.666 0.020652 6.47997 0
M  V30 5546 N 535.072 -1.5615 -0.213296 0
M  V30 5547 C 536.321 -1.78743 -0.93455 0
M  V30 5548 C 536.634 -0.630199 -1.8517 0
M  V30 5549 O 537.84 -0.739966 -2.61222 0
M  V30 5550 C 536.296 -3.16571 -1.71203 0
M  V30 5551 C 535.904 -4.40043 -0.840617 0
M  V30 5552 C 537.648 -3.48485 -2.42401 0
M  V30 5553 C 535.555 -5.68895 -1.61592 0
M  V30 5554 H 534.485 -0.666426 -0.352692 0
M  V30 5555 H 537.136 -1.82532 -0.188227 0
M  V30 5556 H 535.518 -3.06981 -2.50157 0
M  V30 5557 H 536.692 -4.6071 -0.0910326 0
M  V30 5558 H 535.007 -4.15706 -0.240365 0
M  V30 5559 H 537.604 -4.41983 -3.00924 0
M  V30 5560 H 537.947 -2.71371 -3.15695 0
M  V30 5561 H 538.48 -3.59442 -1.7043 0
M  V30 5562 H 535.219 -6.48925 -0.926106 0
M  V30 5563 H 534.739 -5.52275 -2.33991 0
M  V30 5564 H 536.418 -6.09365 -2.17447 0
M  V30 5565 N 536.55 0.480323 -1.50102 0
M  V30 5566 C 537.798 1.23063 -1.60312 0
M  V30 5567 C 538.119 1.92659 -0.301226 0
M  V30 5568 O 537.389 1.83691 0.680753 0
M  V30 5569 H 535.969 0.457231 -0.590719 0
M  V30 5570 H 538.631 0.554893 -1.86834 0
M  V30 5571 H 537.727 1.9835 -2.40964 0
M  V30 5572 N 538.028 1.39524 0.732853 0
M  V30 5573 C 539.276 1.36594 1.48951 0
M  V30 5574 C 539.597 -0.0367507 1.94965 0
M  V30 5575 O 538.867 -0.988391 1.69138 0
M  V30 5576 H 537.447 0.502673 0.552566 0
M  V30 5577 H 540.109 1.74411 0.869869 0
M  V30 5578 H 539.205 2.03 2.3706 0
M  V30 5579 N 539.506 -0.963266 1.24736 0
M  V30 5580 C 540.753 -1.7068 1.0897 0
M  V30 5581 C 541.081 -1.90934 -0.370751 0
M  V30 5582 O 540.336 -1.47155 -1.29011 0
M  V30 5583 C 540.635 -3.09944 1.7796 0
M  V30 5584 C 540.301 -3.09518 3.27887 0
M  V30 5585 C 538.963 -3.09109 3.68789 0
M  V30 5586 C 541.315 -3.03509 4.23712 0
M  V30 5587 C 538.643 -3.00429 5.03944 0
M  V30 5588 C 540.995 -2.96371 5.5888 0
M  V30 5589 C 539.659 -2.94293 5.99123 0
M  V30 5590 H 538.929 -0.624564 0.398749 0
M  V30 5591 H 541.576 -1.12603 1.54896 0
M  V30 5592 H 539.881 -3.71513 1.2444 0
M  V30 5593 H 541.578 -3.66278 1.63222 0
M  V30 5594 H 538.168 -3.10603 2.95337 0
M  V30 5595 H 542.352 -3.0295 3.93109 0
M  V30 5596 H 537.608 -2.97183 5.34314 0
M  V30 5597 H 541.782 -2.90681 6.32833 0
M  V30 5598 H 539.409 -2.87322 7.03811 0
M  V30 5599 N 540.985 -1.06182 -1.16461 0
M  V30 5600 C 542.215 -0.797425 -1.9059 0
M  V30 5601 C 542.623 0.651845 -1.77616 0
M  V30 5602 O 541.966 1.45788 -1.11766 0
M  V30 5603 C 542.028 -1.11128 -3.41893 0
M  V30 5604 C 541.692 -2.55874 -3.78652 0
M  V30 5605 C 542.689 -3.54104 -3.80665 0
M  V30 5606 C 540.374 -2.91144 -4.09317 0
M  V30 5607 C 542.368 -4.85645 -4.12829 0
M  V30 5608 C 540.055 -4.22885 -4.41148 0
M  V30 5609 C 541.053 -5.19945 -4.42883 0
M  V30 5610 O 540.741 -6.49322 -4.73959 0
M  V30 5611 H 540.473 -0.288709 -0.611247 0
M  V30 5612 H 543.027 -1.41841 -1.4856 0
M  V30 5613 H 541.257 -0.433217 -3.84266 0
M  V30 5614 H 542.946 -0.831306 -3.97296 0
M  V30 5615 H 543.712 -3.28197 -3.57088 0
M  V30 5616 H 539.591 -2.16252 -4.07131 0
M  V30 5617 H 543.135 -5.61398 -4.14099 0
M  V30 5618 H 539.032 -4.48551 -4.6419 0
M  V30 5619 H 539.8 -6.54294 -4.91774 0
M  V30 5620 N 542.463 1.3308 -0.844243 0
M  V30 5621 C 543.426 2.27403 -0.286485 0
M  V30 5622 C 544.426 1.51179 0.547872 0
M  V30 5623 O 545.616 1.70421 0.360886 0
M  V30 5624 C 542.748 3.35653 0.595813 0
M  V30 5625 H 543.941 2.78248 -1.11885 0
M  V30 5626 H 541.494 1.43574 -0.617749 0
M  V30 5627 H 542.229 2.90058 1.4504 0
M  V30 5628 H 542.014 3.921 -0.00125994 0
M  V30 5629 H 543.504 4.05958 0.979168 0
M  V30 5630 N 543.941 0.601185 1.45683 0
M  V30 5631 C 544.871 -0.108824 2.33246 0
M  V30 5632 C 545.852 -0.865223 1.46451 0
M  V30 5633 O 547.037 -0.83704 1.75235 0
M  V30 5634 C 544.167 -1.11101 3.2905 0
M  V30 5635 C 543.121 -0.468244 4.25431 0
M  V30 5636 C 542.447 -1.57822 5.10878 0
M  V30 5637 C 543.747 0.606469 5.18767 0
M  V30 5638 H 545.441 0.622306 2.92861 0
M  V30 5639 H 542.987 0.300714 1.40825 0
M  V30 5640 H 544.94 -1.61622 3.89174 0
M  V30 5641 H 543.664 -1.87265 2.67581 0
M  V30 5642 H 542.323 0.0160484 3.66596 0
M  V30 5643 H 541.971 -2.32998 4.45781 0
M  V30 5644 H 541.671 -1.15369 5.76163 0
M  V30 5645 H 543.195 -2.08583 5.73869 0
M  V30 5646 H 544.609 0.185589 5.73 0
M  V30 5647 H 543.006 0.952381 5.92494 0
M  V30 5648 H 544.076 1.48559 4.61582 0
M  V30 5649 N 545.419 -1.53889 0.339982 0
M  V30 5650 C 546.644 -2.05741 -0.261798 0
M  V30 5651 C 547.069 -1.21354 -1.43718 0
M  V30 5652 O 546.427 -0.22645 -1.7988 0
M  V30 5653 C 546.475 -3.54542 -0.658228 0
M  V30 5654 O 545.579 -3.7302 -1.75869 0
M  V30 5655 H 544.92 -0.662529 -0.0441672 0
M  V30 5656 H 547.45 -1.98568 0.493161 0
M  V30 5657 H 547.46 -3.9711 -0.936368 0
M  V30 5658 H 546.135 -4.15412 0.201358 0
M  V30 5659 H 544.712 -3.42355 -1.47809 0
M  V30 5660 N 546.897 -0.0685191 -1.57451 0
M  V30 5661 C 548.308 0.464634 -1.80826 0
M  V30 5662 C 548.659 1.69847 -0.982169 0
M  V30 5663 O 547.784 2.15439 -0.203734 0
M  V30 5664 C 548.379 0.849721 -3.27971 0
M  V30 5665 C 546.938 1.32776 -3.52204 0
M  V30 5666 C 546.085 0.311332 -2.75547 0
M  V30 5667 H 549.036 -0.294248 -1.55948 0
M  V30 5668 H 549.057 1.71138 -3.39841 0
M  V30 5669 H 548.569 -0.0484736 -3.8807 0
M  V30 5670 H 546.67 2.24456 -2.97406 0
M  V30 5671 H 546.783 1.30794 -4.60901 0
M  V30 5672 H 545.147 0.787915 -2.42206 0
M  V30 5673 H 545.93 -0.579078 -3.38381 0
M  V30 5674 N 548.375 1.56261 0.205012 0
M  V30 5675 C 549.605 1.83874 0.942018 0
M  V30 5676 C 550.013 0.647595 1.77772 0
M  V30 5677 O 549.356 -0.393098 1.79445 0
M  V30 5678 C 549.418 3.05453 1.89575 0
M  V30 5679 C 549.082 4.39772 1.24296 0
M  V30 5680 C 550.079 5.16133 0.624724 0
M  V30 5681 C 547.764 4.86504 1.24978 0
M  V30 5682 C 549.758 6.37396 0.0220117 0
M  V30 5683 C 547.445 6.07705 0.643232 0
M  V30 5684 C 548.443 6.82993 0.0304164 0
M  V30 5685 O 548.131 8.019 -0.566654 0
M  V30 5686 H 547.863 0.614896 0.280854 0
M  V30 5687 H 550.417 2.04215 0.220285 0
M  V30 5688 H 548.647 2.80972 2.65691 0
M  V30 5689 H 550.336 3.19797 2.4997 0
M  V30 5690 H 551.102 4.81127 0.611666 0
M  V30 5691 H 546.981 4.27865 1.71616 0
M  V30 5692 H 550.525 6.96102 -0.456926 0
M  V30 5693 H 546.422 6.42181 0.653759 0
M  V30 5694 H 547.19 8.17192 -0.462588 0
M  V30 5695 N 549.853 -0.472356 1.50355 0
M  V30 5696 C 551.264 -1.05326 1.54154 0
M  V30 5697 C 551.615 -1.93155 0.344303 0
M  V30 5698 O 550.74 -2.09479 -0.542928 0
M  V30 5699 C 551.335 -1.91691 2.79356 0
M  V30 5700 C 549.894 -2.44892 2.8584 0
M  V30 5701 C 549.041 -1.23205 2.48426 0
M  V30 5702 H 551.992 -0.255027 1.56637 0
M  V30 5703 H 552.013 -2.76742 2.6114 0
M  V30 5704 H 551.525 -1.27741 3.66475 0
M  V30 5705 H 549.626 -3.12399 2.0307 0
M  V30 5706 H 549.739 -2.80086 3.88701 0
M  V30 5707 H 548.103 -1.56643 2.00836 0
M  V30 5708 H 548.886 -0.609194 3.37852 0
M  V30 5709 N 551.331 -1.39911 -0.725443 0
M  V30 5710 C 552.579 -1.37382 -1.48224 0
M  V30 5711 C 552.9 0.0264107 -1.94982 0
M  V30 5712 O 552.17 0.979408 -1.6966 0
M  V30 5713 H 550.75 -0.505596 -0.549892 0
M  V30 5714 H 553.412 -1.7487 -0.860608 0
M  V30 5715 H 552.508 -2.04254 -2.3598 0
M  V30 5716 N 552.809 0.956637 -1.25245 0
M  V30 5717 C 553.739 2.07058 -1.07931 0
M  V30 5718 C 554.72 1.70096 0.0110361 0
M  V30 5719 O 555.905 1.93555 -0.158121 0
M  V30 5720 C 553.035 3.40272 -0.695124 0
M  V30 5721 C 551.989 3.91235 -1.73549 0
M  V30 5722 C 551.315 5.20921 -1.20604 0
M  V30 5723 C 552.615 4.17837 -3.13385 0
M  V30 5724 H 554.309 2.218 -2.01109 0
M  V30 5725 H 551.855 1.06581 -0.968326 0
M  V30 5726 H 553.808 4.1765 -0.560949 0
M  V30 5727 H 552.532 3.25462 0.272355 0
M  V30 5728 H 551.191 3.16025 -1.85807 0
M  V30 5729 H 550.839 5.02479 -0.228846 0
M  V30 5730 H 550.539 5.55987 -1.90136 0
M  V30 5731 H 552.063 6.00897 -1.08421 0
M  V30 5732 H 553.477 4.8588 -3.04292 0
M  V30 5733 H 551.874 4.64154 -3.80369 0
M  V30 5734 H 552.944 3.2419 -3.60595 0
M  V30 5735 N 554.287 1.06798 1.15896 0
M  V30 5736 C 555.703 0.792423 1.38538 0
M  V30 5737 C 555.903 -0.60592 1.92174 0
M  V30 5738 O 554.959 -1.36561 2.12385 0
M  V30 5739 C 556.272 1.86157 2.36149 0
M  V30 5740 C 557.82 1.88567 2.49823 0
M  V30 5741 C 558.295 2.9455 3.5072 0
M  V30 5742 N 559.786 2.93616 3.58251 0
M  V30 5743 C 560.521 3.72267 4.36125 0
M  V30 5744 N 560.017 4.60751 5.17379 0
M  V30 5745 N 561.81 3.60637 4.31158 0
M  V30 5746 H 553.961 1.96993 0.794198 0
M  V30 5747 H 556.224 0.853942 0.411688 0
M  V30 5748 H 555.93 2.86603 2.03843 0
M  V30 5749 H 555.804 1.71692 3.3586 0
M  V30 5750 H 558.191 0.887765 2.8143 0
M  V30 5751 H 558.272 2.0711 1.5013 0
M  V30 5752 H 557.916 3.94537 3.19849 0
M  V30 5753 H 557.846 2.73255 4.50155 0
M  V30 5754 H 560.337 2.29472 3.00252 0
M  V30 5755 H 560.65 5.17408 5.74028 0
M  V30 5756 H 558.995 4.64803 5.16704 0
M  V30 5757 H 562.186 2.90892 3.66742 0
M  V30 5758 H 562.359 4.22176 4.91601 0
M  V30 5759 N 555.766 -1.3263 0.851289 0
M  V30 5760 C 556.696 -2.31449 0.308771 0
M  V30 5761 C 557.677 -1.59531 -0.590255 0
M  V30 5762 O 558.862 -1.87351 -0.511205 0
M  V30 5763 C 555.992 -3.43586 -0.506548 0
M  V30 5764 C 554.946 -4.26963 0.297753 0
M  V30 5765 C 554.272 -5.30831 -0.642094 0
M  V30 5766 C 555.572 -4.99643 1.52166 0
M  V30 5767 H 557.266 -2.77074 1.13447 0
M  V30 5768 H 554.812 -1.33207 0.546971 0
M  V30 5769 H 556.765 -4.11754 -0.896474 0
M  V30 5770 H 555.489 -2.96681 -1.36558 0
M  V30 5771 H 554.148 -3.60437 0.669391 0
M  V30 5772 H 553.796 -4.8018 -1.49788 0
M  V30 5773 H 553.496 -5.87501 -0.107968 0
M  V30 5774 H 555.02 -6.01862 -1.02927 0
M  V30 5775 H 556.434 -5.6051 1.20421 0
M  V30 5776 H 554.831 -5.66022 1.99347 0
M  V30 5777 H 555.901 -4.27701 2.28474 0
M  V30 5778 N 557.244 -0.608902 -1.45362 0
M  V30 5779 C 558.493 -0.10218 -2.01441 0
M  V30 5780 C 558.806 1.27546 -1.48295 0
M  V30 5781 O 560.012 1.87498 -1.96359 0
M  V30 5782 C 558.468 -0.131985 -3.59658 0
M  V30 5783 C 558.076 -1.50956 -4.21801 0
M  V30 5784 C 559.82 0.319427 -4.23296 0
M  V30 5785 C 557.727 -1.49568 -5.72174 0
M  V30 5786 H 556.657 -0.0344314 -0.753213 0
M  V30 5787 H 559.308 -0.764426 -1.6682 0
M  V30 5788 H 557.69 0.596939 -3.91475 0
M  V30 5789 H 558.864 -2.26029 -4.01556 0
M  V30 5790 H 557.179 -1.90318 -3.70362 0
M  V30 5791 H 559.776 0.349013 -5.3356 0
M  V30 5792 H 560.119 1.34237 -3.94064 0
M  V30 5793 H 560.652 -0.356273 -3.96201 0
M  V30 5794 H 557.391 -2.49626 -6.06108 0
M  V30 5795 H 556.911 -0.787542 -5.94607 0
M  V30 5796 H 558.59 -1.21989 -6.35396 0
M  V30 5797 N 558.722 1.53707 -0.348139 0
M  V30 5798 C 559.947 2.05877 0.250883 0
M  V30 5799 C 560.372 1.22115 1.43072 0
M  V30 5800 O 559.73 0.235986 1.79758 0
M  V30 5801 C 559.778 3.54886 0.639416 0
M  V30 5802 O 558.882 3.73948 1.73888 0
M  V30 5803 H 558.223 0.662754 0.040653 0
M  V30 5804 H 560.753 1.98303 -0.503685 0
M  V30 5805 H 560.763 3.97601 0.915295 0
M  V30 5806 H 559.438 4.153 -0.223386 0
M  V30 5807 H 558.015 3.43134 1.45991 0
M  V30 5808 N 560.2 0.0768682 1.57412 0
M  V30 5809 C 561.13 -0.886026 2.16037 0
M  V30 5810 C 562.111 -1.30691 1.08876 0
M  V30 5811 O 563.296 -1.37705 1.36934 0
M  V30 5812 C 560.426 -2.1518 2.72608 0
M  V30 5813 C 559.38 -1.87015 3.8498 0
M  V30 5814 C 558.706 -3.20266 4.28175 0
M  V30 5815 C 560.006 -1.17143 5.08994 0
M  V30 5816 H 561.7 -0.397642 2.96748 0
M  V30 5817 H 559.246 -0.189823 1.42743 0
M  V30 5818 H 561.199 -2.82962 3.12266 0
M  V30 5819 H 559.923 -2.66269 1.89125 0
M  V30 5820 H 558.582 -1.21636 3.45833 0
M  V30 5821 H 558.23 -3.69207 3.41607 0
M  V30 5822 H 557.93 -3.0221 5.03927 0
M  V30 5823 H 559.454 -3.89237 4.70454 0
M  V30 5824 H 560.868 -1.75003 5.45937 0
M  V30 5825 H 559.265 -1.09328 5.90057 0
M  V30 5826 H 560.335 -0.151295 4.84664 0
M  V30 5827 N 561.678 -1.56367 -0.196722 0
M  V30 5828 C 562.626 -1.95304 -1.2633 0
M  V30 5829 C 563.62 -0.838252 -1.47206 0
M  V30 5830 O 564.826 -1.02325 -1.48087 0
M  V30 5831 H 561.201 -0.621013 -0.424083 0
M  V30 5832 H 563.172 -2.84254 -0.907879 0
M  V30 5833 C 561.921 -2.3074 -2.60104 0
M  V30 5834 H 561.244 -3.16047 -2.44856 0
M  V30 5835 H 562.684 -2.61849 -3.33484 0
M  V30 5836 C 561.143 -1.14143 -3.16975 0
M  V30 5837 O 561.673 -0.415602 -3.99544 0
M  V30 5838 N 559.879 -0.91867 -2.75697 0
M  V30 5839 H 559.426 -1.51065 -2.08656 0
M  V30 5840 H 559.384 -0.140321 -3.14087 0
M  V30 5841 N 563.156 0.464375 -1.50603 0
M  V30 5842 C 564.089 1.58052 -1.64605 0
M  V30 5843 C 565.067 1.54914 -0.494016 0
M  V30 5844 O 566.251 1.74438 -0.714393 0
M  V30 5845 C 563.378 2.96634 -1.63481 0
M  V30 5846 C 562.424 3.17901 -2.84325 0
M  V30 5847 S 563.257 2.97083 -4.45536 0
M  V30 5848 C 564.413 4.37994 -4.47115 0
M  V30 5849 H 564.646 1.45937 -2.59017 0
M  V30 5850 H 562.179 0.652189 -1.39949 0
M  V30 5851 H 564.137 3.76527 -1.63517 0
M  V30 5852 H 562.798 3.06134 -0.702928 0
M  V30 5853 H 561.991 4.19158 -2.79862 0
M  V30 5854 H 561.593 2.45792 -2.81891 0
M  V30 5855 H 563.885 5.30743 -4.21091 0
M  V30 5856 H 564.828 4.47499 -5.48772 0
M  V30 5857 H 565.236 4.20386 -3.76743 0
M  V30 5858 N 564.634 1.40294 0.718013 0
M  V30 5859 C 565.582 1.40536 1.85344 0
M  V30 5860 C 566.576 0.286192 1.66965 0
M  V30 5861 O 567.782 0.457105 1.74099 0
M  V30 5862 H 564.157 0.439236 0.61039 0
M  V30 5863 H 566.128 2.36275 1.82255 0
M  V30 5864 C 564.877 1.28245 3.23185 0
M  V30 5865 H 564.2 2.1364 3.37932 0
M  V30 5866 H 565.64 1.32474 4.02774 0
M  V30 5867 C 564.099 -0.0075503 3.36899 0
M  V30 5868 O 564.629 -0.971391 3.89778 0
M  V30 5869 N 562.835 -0.0762479 2.905 0
M  V30 5870 H 562.382 0.708819 2.47656 0
M  V30 5871 H 562.34 -0.938846 3.00055 0
M  V30 5872 N 566.112 -0.949982 1.2575 0
M  V30 5873 C 567.359 -1.69515 1.10774 0
M  V30 5874 C 567.687 -1.91316 -0.350479 0
M  V30 5875 O 566.942 -1.48515 -1.27443 0
M  V30 5876 C 567.241 -3.08039 1.81237 0
M  V30 5877 C 566.907 -3.06023 3.31151 0
M  V30 5878 C 565.569 -3.0518 3.72047 0
M  V30 5879 C 567.921 -2.98998 4.26907 0
M  V30 5880 C 565.249 -2.95067 5.07102 0
M  V30 5881 C 567.601 -2.90426 5.61992 0
M  V30 5882 C 566.265 -2.87922 6.0221 0
M  V30 5883 H 565.535 -0.6203 0.405351 0
M  V30 5884 H 568.182 -1.10953 1.56082 0
M  V30 5885 H 566.487 -3.70172 1.28373 0
M  V30 5886 H 568.184 -3.64526 1.67098 0
M  V30 5887 H 564.774 -3.07453 2.98614 0
M  V30 5888 H 568.958 -2.98764 3.963 0
M  V30 5889 H 564.214 -2.915 5.37436 0
M  V30 5890 H 568.388 -2.83952 6.35881 0
M  V30 5891 H 566.015 -2.79841 7.06819 0
M  V30 5892 N 567.59 -1.07411 -1.15328 0
M  V30 5893 C 568.83 -0.807011 -1.87794 0
M  V30 5894 C 569.194 0.654987 -1.80482 0
M  V30 5895 O 570.395 1.03716 -2.47985 0
M  V30 5896 C 568.666 -1.30198 -3.32841 0
M  V30 5897 S 570.225 -1.16564 -4.23034 0
M  V30 5898 H 567.043 -0.292429 -0.648079 0
M  V30 5899 H 569.645 -1.37334 -1.39139 0
M  V30 5900 H 568.349 -2.3607 -3.35707 0
M  V30 5901 H 567.88 -0.730881 -3.86551 0
M  V30 5902 H 569.895 -0.103557 -4.96092 0
M  V30 5903 N 569.068 1.32177 -0.85831 0
M  V30 5904 C 570.293 2.01847 -0.476718 0
M  V30 5905 C 570.718 1.64065 0.920021 0
M  V30 5906 O 570.076 0.843189 1.60499 0
M  V30 5907 C 570.124 3.55097 -0.627578 0
M  V30 5908 O 569.228 4.11012 0.338086 0
M  V30 5909 H 568.569 0.635907 -0.191099 0
M  V30 5910 H 571.099 1.68641 -1.15851 0
M  V30 5911 H 571.109 4.04718 -0.516476 0
M  V30 5912 H 569.784 3.81938 -1.64609 0
M  V30 5913 H 568.361 3.72451 0.182917 0
M  V30 5914 N 570.547 0.616602 1.45037 0
M  V30 5915 C 571.963 0.280994 1.57107 0
M  V30 5916 C 572.163 -1.21627 1.60653 0
M  V30 5917 O 571.219 -1.9997 1.54169 0
M  V30 5918 C 572.532 0.960116 2.8496 0
M  V30 5919 C 574.08 0.936884 2.98649 0
M  V30 5920 C 574.555 1.59619 4.29285 0
M  V30 5921 N 576.046 1.5621 4.36065 0
M  V30 5922 C 576.781 2.04131 5.35834 0
M  V30 5923 N 576.277 2.60177 6.4209 0
M  V30 5924 N 578.07 1.94845 5.27249 0
M  V30 5925 H 570.221 1.58867 1.40979 0
M  V30 5926 H 572.484 0.666024 0.674623 0
M  V30 5927 H 572.19 2.01473 2.88273 0
M  V30 5928 H 572.064 0.488921 3.74018 0
M  V30 5929 H 574.451 -0.109209 2.94898 0
M  V30 5930 H 574.532 1.44643 2.10979 0
M  V30 5931 H 574.176 2.64166 4.33796 0
M  V30 5932 H 574.106 1.06159 5.15789 0
M  V30 5933 H 576.597 1.15276 3.59889 0
M  V30 5934 H 576.91 2.94513 7.1448 0
M  V30 5935 H 575.255 2.64221 6.42816 0
M  V30 5936 H 578.446 1.50792 4.43147 0
M  V30 5937 H 578.619 2.32504 6.04852 0
M  V30 5938 N 572.025 -1.5352 0.356285 0
M  V30 5939 C 572.935 -2.29151 -0.502712 0
M  V30 5940 C 573.951 -1.34753 -1.1008 0
M  V30 5941 O 575.127 -1.67803 -1.11374 0
M  V30 5942 C 572.192 -3.05911 -1.63154 0
M  V30 5943 C 571.253 -4.15958 -1.06194 0
M  V30 5944 C 570.486 -4.8905 -2.13696 0
M  V30 5945 O 570.709 -4.61919 -3.34645 0
M  V30 5946 O 569.643 -5.75202 -1.77275 0
M  V30 5947 H 573.469 -3.03492 0.112466 0
M  V30 5948 H 571.054 -1.4891 0.120942 0
M  V30 5949 H 572.936 -3.53874 -2.28804 0
M  V30 5950 H 571.611 -2.34415 -2.23229 0
M  V30 5951 H 570.518 -3.7227 -0.369603 0
M  V30 5952 H 571.851 -4.89593 -0.505872 0
M  V30 5953 N 573.503 -0.0852151 -1.57369 0
M  V30 5954 C 574.451 0.894856 -2.14698 0
M  V30 5955 C 575.445 1.29903 -1.08727 0
M  V30 5956 O 576.651 1.27471 -1.27088 0
M  V30 5957 H 573.026 0.306569 -0.686673 0
M  V30 5958 H 574.997 0.386542 -2.95886 0
M  V30 5959 C 573.746 2.14798 -2.73417 0
M  V30 5960 H 573.069 1.84585 -3.54638 0
M  V30 5961 H 574.509 2.81456 -3.1711 0
M  V30 5962 C 572.968 2.91546 -1.68828 0
M  V30 5963 O 573.498 3.85733 -1.12129 0
M  V30 5964 N 571.704 2.54901 -1.39549 0
M  V30 5965 H 571.251 1.7838 -1.85845 0
M  V30 5966 H 571.209 3.06553 -0.698054 0
M  V30 5967 N 574.981 1.5647 0.188427 0
M  V30 5968 C 576.228 1.81013 0.907779 0
M  V30 5969 C 576.556 0.65953 1.82977 0
M  V30 5970 O 575.811 -0.354308 1.92466 0
M  V30 5971 C 576.11 3.11596 1.7505 0
M  V30 5972 C 575.776 4.40145 0.978922 0
M  V30 5973 C 574.438 4.75066 0.765912 0
M  V30 5974 C 576.79 5.19369 0.436498 0
M  V30 5975 C 574.118 5.867 -0.00089868 0
M  V30 5976 C 576.47 6.31805 -0.317136 0
M  V30 5977 C 575.134 6.65303 -0.541103 0
M  V30 5978 H 574.404 0.662373 0.33218 0
M  V30 5979 H 577.051 1.9071 0.173732 0
M  V30 5980 H 575.356 2.97165 2.55343 0
M  V30 5981 H 577.053 3.27793 2.30983 0
M  V30 5982 H 573.643 4.12745 1.15497 0
M  V30 5983 H 577.827 4.92799 0.588449 0
M  V30 5984 H 573.083 6.11122 -0.184329 0
M  V30 5985 H 577.257 6.92406 -0.744788 0
M  V30 5986 H 574.884 7.51646 -1.13718 0
M  V30 5987 N 576.459 -0.456382 1.50847 0
M  V30 5988 C 577.705 -1.20618 1.63777 0
M  V30 5989 C 578.06 -1.8936 0.340677 0
M  V30 5990 O 577.353 -1.79786 -0.662378 0
M  V30 5991 C 577.547 -2.26336 2.76599 0
M  V30 5992 C 577.376 -1.67968 4.17153 0
M  V30 5993 C 576.146 -1.47293 4.83356 0
M  V30 5994 C 578.344 -1.16643 5.00898 0
M  V30 5995 N 576.326 -0.843222 6.08081 0
M  V30 5996 C 577.697 -0.660843 6.16468 0
M  V30 5997 C 579.752 -1.05637 4.86565 0
M  V30 5998 C 578.455 -0.0560365 7.19278 0
M  V30 5999 C 580.481 -0.465485 5.89565 0
M  V30 6000 C 579.843 0.0296516 7.04394 0
M  V30 6001 H 575.942 -0.429725 0.653345 0
M  V30 6002 H 578.526 -0.505784 1.88016 0
M  V30 6003 H 576.697 -2.93785 2.54056 0
M  V30 6004 H 578.429 -2.9334 2.78808 0
M  V30 6005 H 575.184 -1.72934 4.40898 0
M  V30 6006 H 575.608 -0.546357 6.74792 0
M  V30 6007 H 580.25 -1.42508 3.98059 0
M  V30 6008 H 577.968 0.324845 8.07447 0
M  V30 6009 H 581.554 -0.382493 5.80541 0
M  V30 6010 H 580.434 0.479705 7.82731 0
M  V30 6011 N 577.937 -1.40673 -0.710563 0
M  V30 6012 C 578.867 -1.44095 -1.83736 0
M  V30 6013 C 579.848 -0.301286 -1.67411 0
M  V30 6014 O 581.033 -0.510618 -1.87367 0
M  V30 6015 C 578.163 -1.30773 -3.21738 0
M  V30 6016 C 577.117 -2.42395 -3.52745 0
M  V30 6017 C 576.443 -2.14147 -4.89944 0
M  V30 6018 C 577.743 -3.84738 -3.53234 0
M  V30 6019 H 579.437 -2.38396 -1.81129 0
M  V30 6020 H 576.983 -1.14746 -0.870017 0
M  V30 6021 H 578.936 -1.31783 -4.00264 0
M  V30 6022 H 577.66 -0.329507 -3.24934 0
M  V30 6023 H 576.319 -2.40643 -2.76562 0
M  V30 6024 H 575.967 -1.14703 -4.89747 0
M  V30 6025 H 575.667 -2.88934 -5.11655 0
M  V30 6026 H 577.191 -2.16848 -5.70797 0
M  V30 6027 H 578.605 -3.88286 -4.2179 0
M  V30 6028 H 577.002 -4.59085 -3.86473 0
M  V30 6029 H 578.072 -4.13962 -2.52514 0
M  V30 6030 N 579.415 0.9433 -1.26252 0
M  V30 6031 C 580.345 2.05902 -1.10122 0
M  V30 6032 C 581.326 1.70099 -0.00700552 0
M  V30 6033 O 582.511 1.93377 -0.178641 0
M  V30 6034 C 579.641 3.39516 -0.731175 0
M  V30 6035 C 578.595 3.89372 -1.77688 0
M  V30 6036 C 577.921 5.19613 -1.26122 0
M  V30 6037 C 579.221 4.14489 -3.17799 0
M  V30 6038 H 580.915 2.19655 -2.03451 0
M  V30 6039 H 578.461 1.05548 -0.979576 0
M  V30 6040 H 580.414 4.17031 -0.605215 0
M  V30 6041 H 579.138 3.25733 0.23782 0
M  V30 6042 H 577.797 3.14036 -1.89148 0
M  V30 6043 H 577.445 5.02208 -0.282128 0
M  V30 6044 H 577.145 5.53939 -1.96023 0
M  V30 6045 H 578.669 5.99713 -1.14789 0
M  V30 6046 H 580.083 4.82625 -3.09428 0
M  V30 6047 H 578.48 4.60094 -3.85271 0
M  V30 6048 H 579.55 3.20347 -3.64014 0
M  V30 6049 N 580.893 1.08022 1.14757 0
M  V30 6050 C 582.142 0.802468 1.8505 0
M  V30 6051 C 582.455 -0.674061 1.83619 0
M  V30 6052 O 583.661 -1.06683 2.49662 0
M  V30 6053 C 582.117 1.38551 3.32162 0
M  V30 6054 C 581.725 2.89354 3.42021 0
M  V30 6055 C 583.469 1.18608 4.07594 0
M  V30 6056 C 581.376 3.40815 4.83321 0
M  V30 6057 H 580.306 0.296518 0.693248 0
M  V30 6058 H 582.957 1.30114 1.29393 0
M  V30 6059 H 581.339 0.814556 3.87532 0
M  V30 6060 H 582.513 3.52552 2.96722 0
M  V30 6061 H 580.828 3.08165 2.80041 0
M  V30 6062 H 583.425 1.54525 5.11885 0
M  V30 6063 H 583.768 0.125599 4.1611 0
M  V30 6064 H 584.301 1.72375 3.58513 0
M  V30 6065 H 581.04 4.46418 4.79991 0
M  V30 6066 H 580.56 2.82374 5.29174 0
M  V30 6067 H 582.239 3.37171 5.522 0
M  V30 6068 N 582.371 -1.3172 0.865308 0
M  V30 6069 C 583.319 -2.30569 0.306674 0
M  V30 6070 C 584.313 -1.59317 -0.575724 0
M  V30 6071 O 585.519 -1.73961 -0.462343 0
M  V30 6072 H 581.894 -0.747681 0.0804834 0
M  V30 6073 H 583.865 -2.75165 1.15441 0
M  V30 6074 C 582.614 -3.44358 -0.480952 0
M  V30 6075 H 581.937 -3.99354 0.18876 0
M  V30 6076 H 583.377 -4.15652 -0.837241 0
M  V30 6077 C 581.836 -2.92574 -1.67039 0
M  V30 6078 O 582.366 -2.90954 -2.76964 0
M  V30 6079 N 580.572 -2.48835 -1.50097 0
M  V30 6080 H 580.119 -2.50353 -0.606738 0
M  V30 6081 H 580.077 -2.14543 -2.29823 0
M  V30 6082 N 583.85 -0.624285 -1.44708 0
M  V30 6083 C 585.075 -0.131171 -2.06985 0
M  V30 6084 C 585.5 1.18234 -1.46295 0
M  V30 6085 O 584.858 1.72375 -0.561842 0
M  V30 6086 C 584.906 -0.0226724 -3.60593 0
M  V30 6087 O 584.01 1.02314 -3.99507 0
M  V30 6088 H 583.351 -0.0816556 -0.65896 0
M  V30 6089 H 585.88 -0.859027 -1.85693 0
M  V30 6090 H 585.891 0.170138 -4.07645 0
M  V30 6091 H 584.566 -0.981685 -4.04148 0
M  V30 6092 H 583.143 0.805452 -3.64097 0
M  V30 6093 N 585.328 1.53329 -0.364422 0
M  V30 6094 C 586.556 2.05657 0.226424 0
M  V30 6095 C 586.971 1.23801 1.42544 0
M  V30 6096 O 586.328 0.27839 1.80364 0
M  V30 6097 C 586.379 3.56125 0.621056 0
M  V30 6098 O 586.1 4.34879 -0.530304 0
M  V30 6099 C 587.601 4.24706 1.27041 0
M  V30 6100 H 584.821 0.669806 0.0400056 0
M  V30 6101 H 587.365 1.97714 -0.522456 0
M  V30 6102 H 585.52 3.64223 1.31985 0
M  V30 6103 H 585.934 5.24073 -0.211546 0
M  V30 6104 H 587.408 5.3131 1.49711 0
M  V30 6105 H 587.885 3.78354 2.23036 0
M  V30 6106 H 588.491 4.20858 0.613079 0
M  V30 6107 N 586.806 0.0935595 1.57322 0
M  V30 6108 C 588.083 -0.612692 1.85756 0
M  V30 6109 C 588.463 -1.86439 0.99013 0
M  V30 6110 O 587.811 -2.28416 0.0621362 0
M  V30 6111 C 588.021 -0.929547 3.36393 0
M  V30 6112 C 589.369 -1.29366 4.04413 0
M  V30 6113 O 590.393 -1.02061 3.41265 0
M  V30 6114 O 589.252 -1.80498 5.15832 0
M  V30 6115 H 586.346 -0.306444 0.768128 0
M  V30 6116 H 588.892 0.126141 1.69231 0
M  V30 6117 H 587.664 -0.0414766 3.91278 0
M  V30 6118 H 587.287 -1.72441 3.5826 0
M  V30 6119 N 588.284 -1.56567 -0.180126 0
M  V30 6120 C 589.695 -1.7126 -0.743422 0
M  V30 6121 C 590.046 -0.70263 -1.83187 0
M  V30 6122 O 589.171 0.137856 -2.1596 0
M  V30 6123 C 589.766 -3.10512 -1.35528 0
M  V30 6124 C 588.325 -3.26919 -1.8655 0
M  V30 6125 C 587.472 -2.67213 -0.741099 0
M  V30 6126 H 590.423 -1.58636 0.0451543 0
M  V30 6127 H 590.444 -3.08673 -2.22489 0
M  V30 6128 H 589.956 -3.83997 -0.562862 0
M  V30 6129 H 588.057 -2.58376 -2.68464 0
M  V30 6130 H 588.17 -4.34574 -2.01699 0
M  V30 6131 H 586.534 -2.26788 -1.15927 0
M  V30 6132 H 587.317 -3.43277 0.0393291 0
M  V30 6133 N 589.762 0.448376 -1.51087 0
M  V30 6134 C 590.725 1.52588 -1.71025 0
M  V30 6135 C 591.725 1.49958 -0.580442 0
M  V30 6136 O 592.915 1.52176 -0.847833 0
M  V30 6137 C 590.047 2.92163 -1.75652 0
M  V30 6138 H 591.24 1.36218 -2.67179 0
M  V30 6139 H 588.793 0.676313 -1.4091 0
M  V30 6140 H 589.528 3.13951 -0.812724 0
M  V30 6141 H 589.313 2.95478 -2.57751 0
M  V30 6142 H 590.803 3.70349 -1.92953 0
M  V30 6143 N 591.24 1.41047 0.703093 0
M  V30 6144 C 592.488 1.39723 1.4602 0
M  V30 6145 C 592.809 0.00461257 1.94999 0
M  V30 6146 O 592.079 -0.952292 1.71196 0
M  V30 6147 H 590.659 0.514281 0.541779 0
M  V30 6148 H 593.321 1.76217 0.832678 0
M  V30 6149 H 592.417 2.07982 2.32701 0
M  V30 6150 N 592.718 -0.936591 1.26751 0
M  V30 6151 C 593.65 -2.03991 1.045 0
M  V30 6152 C 594.663 -1.628 0.00394261 0
M  V30 6153 O 595.852 -1.76817 0.244526 0
M  V30 6154 C 592.952 -3.34218 0.561403 0
M  V30 6155 C 592.125 -4.04151 1.67274 0
M  V30 6156 C 591.184 -5.12651 1.1864 0
M  V30 6157 O 590.21 -5.37104 1.88437 0
M  V30 6158 N 591.412 -5.80488 0.037278 0
M  V30 6159 H 594.177 -2.23644 1.99508 0
M  V30 6160 H 591.738 -1.10638 1.18198 0
M  V30 6161 H 593.73 -4.04101 0.220136 0
M  V30 6162 H 592.3 -3.11203 -0.295211 0
M  V30 6163 H 591.52 -3.28121 2.18472 0
M  V30 6164 H 592.808 -4.47626 2.41885 0
M  V30 6165 H 592.206 -5.63064 -0.545494 0
M  V30 6166 H 590.763 -6.5134 -0.244877 0
M  V30 6167 N 594.196 -1.08629 -1.14182 0
M  V30 6168 C 595.126 -0.740003 -2.21464 0
M  V30 6169 C 596.107 0.278591 -1.67803 0
M  V30 6170 O 597.292 0.148461 -1.93632 0
M  V30 6171 C 594.422 -0.150952 -3.46972 0
M  V30 6172 C 593.376 -1.09815 -4.13672 0
M  V30 6173 C 592.702 -0.3712 -5.3341 0
M  V30 6174 C 594.002 -2.43722 -4.61949 0
M  V30 6175 H 595.696 -1.63697 -2.50686 0
M  V30 6176 H 593.242 -0.788526 -1.20492 0
M  V30 6177 H 595.195 0.103325 -4.21273 0
M  V30 6178 H 593.919 0.781164 -3.1712 0
M  V30 6179 H 592.578 -1.33756 -3.41328 0
M  V30 6180 H 592.226 0.564792 -4.99819 0
M  V30 6181 H 591.926 -1.00267 -5.78982 0
M  V30 6182 H 593.45 -0.12503 -6.10472 0
M  V30 6183 H 594.864 -2.24034 -5.27714 0
M  V30 6184 H 593.261 -3.02582 -5.18232 0
M  V30 6185 H 594.331 -3.05082 -3.76899 0
M  V30 6186 N 595.674 1.31259 -0.872281 0
M  V30 6187 C 596.606 2.27396 -0.28697 0
M  V30 6188 C 597.619 1.53181 0.551297 0
M  V30 6189 O 598.808 1.74561 0.372914 0
M  V30 6190 C 595.908 3.33335 0.611617 0
M  V30 6191 C 595.081 4.36966 -0.194729 0
M  V30 6192 C 594.14 5.22387 0.632358 0
M  V30 6193 O 593.166 5.69169 0.0595691 0
M  V30 6194 N 594.368 5.46985 1.94391 0
M  V30 6195 H 597.133 2.78261 -1.11314 0
M  V30 6196 H 594.694 1.44306 -0.733994 0
M  V30 6197 H 596.686 3.87398 1.17068 0
M  V30 6198 H 595.256 2.82496 1.33846 0
M  V30 6199 H 594.476 3.82945 -0.935241 0
M  V30 6200 H 595.764 5.03273 -0.747935 0
M  V30 6201 H 595.162 5.10737 2.43237 0
M  V30 6202 H 593.719 6.03973 2.45071 0
M  V30 6203 N 597.152 0.631951 1.44375 0
M  V30 6204 C 598.398 0.145491 2.02879 0
M  V30 6205 C 598.753 -1.21936 1.48827 0
M  V30 6206 O 598.046 -1.7976 0.663085 0
M  V30 6207 C 598.24 0.0735861 3.57324 0
M  V30 6208 C 598.069 1.42992 4.2636 0
M  V30 6209 C 596.839 2.01691 4.63302 0
M  V30 6210 C 599.037 2.36393 4.56752 0
M  V30 6211 N 597.019 3.30551 5.17309 0
M  V30 6212 C 598.39 3.49869 5.11851 0
M  V30 6213 C 600.445 2.35462 4.38705 0
M  V30 6214 C 599.148 4.6261 5.50803 0
M  V30 6215 C 601.174 3.47268 4.78706 0
M  V30 6216 C 600.536 4.59467 5.33919 0
M  V30 6217 H 596.635 0.0971781 0.775938 0
M  V30 6218 H 599.219 0.835624 1.75856 0
M  V30 6219 H 597.39 -0.585829 3.83957 0
M  V30 6220 H 599.122 -0.421777 4.02496 0
M  V30 6221 H 595.877 1.54627 4.47647 0
M  V30 6222 H 596.301 3.96435 5.48788 0
M  V30 6223 H 600.943 1.49966 3.9531 0
M  V30 6224 H 598.661 5.48813 5.93152 0
M  V30 6225 H 602.247 3.47724 4.66454 0
M  V30 6226 H 601.127 5.44551 5.64299 0
M  V30 6227 N 598.631 -1.53133 0.372548 0
M  V30 6228 C 599.561 -2.28876 -0.462412 0
M  V30 6229 C 600.542 -1.31583 -1.07796 0
M  V30 6230 O 601.727 -1.60461 -1.09389 0
M  V30 6231 C 598.857 -3.08317 -1.59868 0
M  V30 6232 C 597.811 -4.13355 -1.11003 0
M  V30 6233 C 597.137 -4.8092 -2.33708 0
M  V30 6234 C 598.437 -5.21955 -0.18983 0
M  V30 6235 H 600.131 -2.9892 0.169511 0
M  V30 6236 H 597.677 -1.43761 0.0829658 0
M  V30 6237 H 599.63 -3.60055 -2.18949 0
M  V30 6238 H 598.354 -2.35976 -2.25794 0
M  V30 6239 H 597.013 -3.62573 -0.541869 0
M  V30 6240 H 596.661 -4.05144 -2.98106 0
M  V30 6241 H 596.361 -5.51904 -2.01682 0
M  V30 6242 H 597.885 -5.35455 -2.93462 0
M  V30 6243 H 599.299 -5.69153 -0.688319 0
M  V30 6244 H 597.696 -6.00087 0.0398887 0
M  V30 6245 H 598.766 -4.78811 0.766057 0
M  V30 6246 N 600.109 -0.101901 -1.5727 0
M  V30 6247 C 601.355 0.561027 -1.94885 0
M  V30 6248 C 601.688 1.6741 -0.984258 0
M  V30 6249 O 600.963 1.94491 -0.0184767 0
M  V30 6250 C 601.246 1.10982 -3.42571 0
M  V30 6251 C 601.099 0.00133418 -4.498 0
M  V30 6252 C 602.418 2.00608 -3.9172 0
M  V30 6253 H 599.537 0.202467 -0.708644 0
M  V30 6254 H 602.179 -0.173992 -1.89202 0
M  V30 6255 H 600.329 1.73621 -3.47546 0
M  V30 6256 H 602.001 -0.63322 -4.56933 0
M  V30 6257 H 600.244 -0.664143 -4.28686 0
M  V30 6258 H 600.915 0.426253 -5.50352 0
M  V30 6259 H 603.391 1.47864 -3.88941 0
M  V30 6260 H 602.267 2.3593 -4.95609 0
M  V30 6261 H 602.528 2.92608 -3.3141 0
M  V30 6262 N 601.587 1.56661 0.17182 0
M  V30 6263 C 602.835 1.81606 0.886774 0
M  V30 6264 C 603.156 0.678818 1.82803 0
M  V30 6265 O 602.426 -0.301354 1.93568 0
M  V30 6266 H 601.006 0.669934 0.330451 0
M  V30 6267 H 603.668 1.94142 0.171757 0
M  V30 6268 H 602.764 2.75634 1.46398 0
M  V30 6269 N 603.065 -0.440357 1.51323 0
M  V30 6270 C 603.975 -1.55955 1.75258 0
M  V30 6271 C 604.991 -1.61933 0.636687 0
M  V30 6272 O 606.167 -1.79231 0.918593 0
M  V30 6273 C 603.232 -2.9196 1.86977 0
M  V30 6274 C 602.293 -2.96122 3.10822 0
M  V30 6275 C 601.526 -4.2564 3.21973 0
M  V30 6276 O 601.749 -5.17851 2.39137 0
M  V30 6277 O 600.683 -4.36025 4.14929 0
M  V30 6278 H 604.509 -1.38673 2.70191 0
M  V30 6279 H 602.094 -0.623055 1.35788 0
M  V30 6280 H 603.976 -3.72682 1.96688 0
M  V30 6281 H 602.651 -3.09375 0.952307 0
M  V30 6282 H 601.558 -2.14366 3.06591 0
M  V30 6283 H 602.891 -2.83651 4.02247 0
M  V30 6284 N 604.543 -1.41418 -0.695603 0
M  V30 6285 C 605.473 -1.46035 -1.82197 0
M  V30 6286 C 606.454 -0.319025 -1.67082 0
M  V30 6287 O 607.639 -0.530462 -1.86815 0
M  V30 6288 C 604.769 -1.34179 -3.20333 0
M  V30 6289 C 603.723 -2.46123 -3.50154 0
M  V30 6290 C 603.049 -2.19332 -4.87645 0
M  V30 6291 C 604.349 -3.88463 -3.49133 0
M  V30 6292 H 606.043 -2.40303 -1.78591 0
M  V30 6293 H 603.589 -1.15663 -0.857797 0
M  V30 6294 H 605.542 -1.36021 -3.98844 0
M  V30 6295 H 604.266 -0.363952 -3.24566 0
M  V30 6296 H 602.925 -2.43563 -2.73994 0
M  V30 6297 H 602.573 -1.19891 -4.88503 0
M  V30 6298 H 602.273 -2.94344 -5.08562 0
M  V30 6299 H 603.797 -2.22889 -5.68465 0
M  V30 6300 H 605.211 -3.92738 -4.17648 0
M  V30 6301 H 603.608 -4.63158 -3.81582 0
M  V30 6302 H 604.678 -4.16617 -2.48109 0
M  V30 6303 N 606.021 0.929856 -1.27246 0
M  V30 6304 C 606.953 2.03434 -1.0558 0
M  V30 6305 C 607.966 1.62795 -0.0125762 0
M  V30 6306 O 609.155 1.76685 -0.2539 0
M  V30 6307 C 606.255 3.33915 -0.57912 0
M  V30 6308 C 605.428 4.03259 -1.69415 0
M  V30 6309 C 604.487 5.12014 -1.21357 0
M  V30 6310 O 603.513 5.36097 -1.91282 0
M  V30 6311 N 604.715 5.8046 -0.0680622 0
M  V30 6312 H 607.48 2.22583 -2.00691 0
M  V30 6313 H 605.041 1.1001 -1.18783 0
M  V30 6314 H 607.033 4.03978 -0.241563 0
M  V30 6315 H 605.603 3.11355 0.278703 0
M  V30 6316 H 604.823 3.26958 -2.20209 0
M  V30 6317 H 606.111 4.46337 -2.44255 0
M  V30 6318 H 605.509 5.63345 0.515626 0
M  V30 6319 H 604.066 6.51461 0.210332 0
M  V30 6320 N 607.499 1.09233 1.13605 0
M  V30 6321 C 608.462 0.733553 2.17144 0
M  V30 6322 C 609.462 -0.235873 1.59061 0
M  V30 6323 O 610.652 -0.0143167 1.74194 0
M  V30 6324 C 607.784 0.084471 3.40795 0
M  V30 6325 H 608.977 1.65049 2.50397 0
M  V30 6326 H 606.53 0.891264 1.28399 0
M  V30 6327 H 607.265 -0.843795 3.1313 0
M  V30 6328 H 607.05 0.781985 3.84223 0
M  V30 6329 H 608.54 -0.151216 4.17326 0
M  V30 6330 N 608.977 -1.30795 0.87923 0
M  V30 6331 C 609.94 -2.26563 0.346676 0
M  V30 6332 C 610.94 -1.52578 -0.507597 0
M  V30 6333 O 612.13 -1.71318 -0.315575 0
M  V30 6334 C 609.262 -3.37115 -0.506611 0
M  V30 6335 H 610.455 -2.75183 1.19223 0
M  V30 6336 H 608.008 -1.41886 0.655598 0
M  V30 6337 H 608.743 -2.93802 -1.37299 0
M  V30 6338 H 608.528 -3.91959 0.105218 0
M  V30 6339 H 610.018 -4.08412 -0.871192 0
M  V30 6340 N 610.455 -0.639598 -1.44038 0
M  V30 6341 C 611.365 0.0612377 -2.3452 0
M  V30 6342 C 612.381 0.826717 -1.53106 0
M  V30 6343 O 613.557 0.777059 -1.85806 0
M  V30 6344 C 610.622 1.02492 -3.31204 0
M  V30 6345 C 609.683 0.25788 -4.28525 0
M  V30 6346 C 608.916 1.17566 -5.2059 0
M  V30 6347 O 609.139 2.41461 -5.16771 0
M  V30 6348 O 608.073 0.655407 -5.98321 0
M  V30 6349 H 611.899 -0.68318 -2.95916 0
M  V30 6350 H 609.484 -0.399784 -1.43952 0
M  V30 6351 H 611.366 1.57911 -3.90694 0
M  V30 6352 H 610.041 1.7498 -2.7233 0
M  V30 6353 H 608.948 -0.339566 -3.72556 0
M  V30 6354 H 610.281 -0.427154 -4.90343 0
M  V30 6355 N 611.933 1.52934 -0.380664 0
M  V30 6356 C 613.21 1.93845 0.261417 0
M  V30 6357 C 613.59 1.31544 1.65104 0
M  V30 6358 O 612.938 0.480234 2.23397 0
M  V30 6359 C 613.148 3.47739 0.296466 0
M  V30 6360 C 614.496 4.21284 0.529578 0
M  V30 6361 O 615.52 3.54199 0.377041 0
M  V30 6362 O 614.379 5.40195 0.827753 0
M  V30 6363 H 611.473 0.811318 0.160285 0
M  V30 6364 H 614.019 1.64042 -0.434544 0
M  V30 6365 H 612.791 3.85395 -0.67724 0
M  V30 6366 H 612.414 3.8382 1.0377 0
M  V30 6367 N 613.412 0.11024 1.57214 0
M  V30 6368 C 614.828 -0.24638 1.57687 0
M  V30 6369 C 615.028 -1.67344 1.12241 0
M  V30 6370 O 614.084 -2.39298 0.805783 0
M  V30 6371 C 615.397 -0.0210288 3.00693 0
M  V30 6372 C 616.945 -0.0876077 3.12877 0
M  V30 6373 C 617.42 0.10994 4.57868 0
M  V30 6374 N 618.911 0.0556135 4.63167 0
M  V30 6375 C 619.646 0.183495 5.73106 0
M  V30 6376 N 619.142 0.367058 6.91827 0
M  V30 6377 N 620.935 0.123689 5.61964 0
M  V30 6378 H 613.086 1.04246 1.85058 0
M  V30 6379 H 615.349 0.40979 0.854854 0
M  V30 6380 H 615.055 0.965203 3.38196 0
M  V30 6381 H 614.929 -0.756748 3.69531 0
M  V30 6382 H 617.316 -1.06436 2.75237 0
M  V30 6383 H 617.397 0.67985 2.466 0
M  V30 6384 H 617.041 1.08362 4.96206 0
M  V30 6385 H 616.971 -0.677397 5.22225 0
M  V30 6386 H 619.462 -0.0831062 3.77809 0
M  V30 6387 H 619.775 0.455739 7.71455 0
M  V30 6388 H 618.12 0.40292 6.93831 0
M  V30 6389 H 621.311 -0.0186928 4.68096 0
M  V30 6390 H 621.484 0.226797 6.47603 0
M  V30 6391 N 614.89 -1.56749 -0.16351 0
M  V30 6392 C 616.138 -1.82074 -0.87713 0
M  V30 6393 C 616.459 -0.688503 -1.82441 0
M  V30 6394 O 615.729 0.291085 -1.93725 0
M  V30 6395 H 614.309 -0.671677 -0.326893 0
M  V30 6396 H 616.971 -1.9423 -0.161459 0
M  V30 6397 H 616.067 -2.76407 -1.44934 0
M  V30 6398 N 616.368 0.432326 -1.51554 0
M  V30 6399 C 617.645 1.19288 -1.55015 0
M  V30 6400 C 618.025 2.08701 -0.317375 0
M  V30 6401 O 617.373 2.17602 0.697243 0
M  V30 6402 C 617.583 1.99037 -2.86679 0
M  V30 6403 C 618.931 2.55907 -3.38817 0
M  V30 6404 O 619.955 2.09243 -2.88263 0
M  V30 6405 O 618.814 3.41029 -4.27038 0
M  V30 6406 H 615.908 0.543369 -0.623441 0
M  V30 6407 H 618.454 0.440988 -1.6387 0
M  V30 6408 H 617.226 1.33397 -3.6786 0
M  V30 6409 H 616.849 2.81281 -2.8101 0
M  V30 6410 N 617.846 1.41785 0.688094 0
M  V30 6411 C 618.793 1.44221 1.80191 0
M  V30 6412 C 619.763 0.295688 1.63447 0
M  V30 6413 O 620.948 0.49783 1.84191 0
M  V30 6414 C 618.088 1.33743 3.1813 0
M  V30 6415 C 617.201 2.58325 3.46254 0
M  V30 6416 C 616.336 2.40086 4.73848 0
M  V30 6417 C 615.375 3.60107 4.94964 0
M  V30 6418 N 614.512 3.40892 6.13789 0
M  V30 6419 H 619.352 2.39411 1.77444 0
M  V30 6420 H 616.889 1.18876 0.866423 0
M  V30 6421 H 618.847 1.25669 3.97823 0
M  V30 6422 H 617.477 0.42157 3.20035 0
M  V30 6423 H 616.529 2.7682 2.60912 0
M  V30 6424 H 617.841 3.4758 3.57756 0
M  V30 6425 H 616.995 2.29522 5.61609 0
M  V30 6426 H 615.734 1.483 4.64606 0
M  V30 6427 H 614.739 3.71118 4.05649 0
M  V30 6428 H 615.964 4.52857 5.06061 0
M  V30 6429 H 613.91 2.51812 6.05745 0
M  V30 6430 H 613.827 4.23727 6.26092 0
M  V30 6431 H 615.095 3.34114 7.04264 0
M  V30 6432 N 619.324 -0.923095 1.27737 0
M  V30 6433 C 620.57 -1.67375 1.14514 0
M  V30 6434 C 620.903 -1.91751 -0.307424 0
M  V30 6435 O 620.178 -1.51119 -1.22447 0
M  V30 6436 C 620.461 -3.03745 1.9342 0
M  V30 6437 C 620.314 -2.86581 3.46686 0
M  V30 6438 C 621.633 -4.04144 1.74228 0
M  V30 6439 H 618.752 -0.607427 0.417374 0
M  V30 6440 H 621.394 -1.07089 1.56946 0
M  V30 6441 H 619.544 -3.55204 1.5736 0
M  V30 6442 H 621.216 -2.42203 3.92601 0
M  V30 6443 H 619.459 -2.21829 3.72793 0
M  V30 6444 H 620.13 -3.83381 3.97143 0
M  V30 6445 H 622.606 -3.61712 2.05678 0
M  V30 6446 H 621.482 -4.97543 2.31824 0
M  V30 6447 H 621.743 -4.36661 0.691373 0
M  V30 6448 N 620.802 -1.09834 -1.13024 0
M  V30 6449 C 621.752 -0.710899 -2.16634 0
M  V30 6450 C 622.736 0.276836 -1.58501 0
M  V30 6451 O 623.928 0.0865457 -1.76788 0
M  V30 6452 C 621.057 -0.137574 -3.43024 0
M  V30 6453 C 620.143 -1.15198 -4.08155 0
M  V30 6454 N 620.534 -2.34054 -4.48388 0
M  V30 6455 C 618.832 -0.991074 -4.34849 0
M  V30 6456 C 619.533 -2.98616 -4.99203 0
M  V30 6457 N 618.509 -2.26159 -4.94321 0
M  V30 6458 H 622.311 -1.61576 -2.455 0
M  V30 6459 H 619.825 -0.975158 -1.29863 0
M  V30 6460 H 621.822 0.158031 -4.166 0
M  V30 6461 H 620.482 0.762088 -3.1563 0
M  V30 6462 H 621.493 -2.7162 -4.40957 0
M  V30 6463 H 618.17 -0.146448 -4.17243 0
M  V30 6464 H 619.56 -3.99683 -5.40096 0
M  V30 6465 N 622.28 1.30327 -0.886154 0
M  V30 6466 C 623.529 1.95373 -0.501243 0
M  V30 6467 C 623.842 1.70722 0.954634 0
M  V30 6468 O 625.048 2.29761 1.44644 0
M  V30 6469 C 623.504 3.49828 -0.845493 0
M  V30 6470 C 623.112 3.83296 -2.31922 0
M  V30 6471 C 624.856 4.2118 -0.529838 0
M  V30 6472 C 622.763 5.30935 -2.60504 0
M  V30 6473 H 621.693 0.731274 -0.183722 0
M  V30 6474 H 624.344 1.48258 -1.08129 0
M  V30 6475 H 622.726 3.95522 -0.19452 0
M  V30 6476 H 623.9 3.48508 -3.01461 0
M  V30 6477 H 622.215 3.2505 -2.60253 0
M  V30 6478 H 624.812 5.29825 -0.720401 0
M  V30 6479 H 625.155 4.12902 0.530828 0
M  V30 6480 H 625.688 3.81173 -1.13806 0
M  V30 6481 H 622.427 5.44265 -3.65316 0
M  V30 6482 H 621.947 5.67019 -1.95575 0
M  V30 6483 H 623.626 5.98381 -2.46066 0
M  V30 6484 N 623.758 0.647228 1.43697 0
M  V30 6485 C 625.007 0.155552 2.01099 0
M  V30 6486 C 625.32 -1.23569 1.51624 0
M  V30 6487 O 626.526 -1.82226 2.01261 0
M  V30 6488 C 624.982 0.227296 3.59182 0
M  V30 6489 C 624.59 1.62086 4.17651 0
M  V30 6490 C 626.334 -0.207085 4.23995 0
M  V30 6491 C 624.241 1.64685 5.68008 0
M  V30 6492 H 623.171 0.0543895 0.752036 0
M  V30 6493 H 625.822 0.808386 1.64734 0
M  V30 6494 H 624.204 -0.492937 3.9292 0
M  V30 6495 H 625.378 2.36597 3.95422 0
M  V30 6496 H 623.693 2.0007 3.65186 0
M  V30 6497 H 626.29 -0.207426 5.34298 0
M  V30 6498 H 626.633 -1.23742 3.97484 0
M  V30 6499 H 627.166 0.461193 3.95118 0
M  V30 6500 H 623.905 2.65608 5.99277 0
M  V30 6501 H 623.425 0.944914 5.9231 0
M  V30 6502 H 625.104 1.38792 6.31938 0
M  V30 6503 N 625.236 -1.5273 0.388769 0
M  V30 6504 C 626.484 -2.01174 -0.193208 0
M  V30 6505 C 626.805 -1.27705 -1.47365 0
M  V30 6506 O 626.075 -0.396966 -1.91836 0
M  V30 6507 H 624.655 -0.743287 -0.0743871 0
M  V30 6508 H 627.317 -1.87826 0.520336 0
M  V30 6509 H 626.413 -3.09477 -0.403803 0
M  V30 6510 N 626.714 -0.118576 -1.57153 0
M  V30 6511 C 627.664 0.842924 -2.11846 0
M  V30 6512 C 628.648 1.22845 -1.03914 0
M  V30 6513 O 629.84 1.19961 -1.30148 0
M  V30 6514 C 626.969 2.09312 -2.72109 0
M  V30 6515 C 626.055 1.73198 -3.87122 0
M  V30 6516 N 626.446 1.07758 -4.94188 0
M  V30 6517 C 624.744 2.02659 -3.97298 0
M  V30 6518 C 625.445 0.907741 -5.74574 0
M  V30 6519 N 624.421 1.4326 -5.24383 0
M  V30 6520 H 628.223 0.333416 -2.92003 0
M  V30 6521 H 625.737 0.0839073 -1.62183 0
M  V30 6522 H 627.734 2.79162 -3.09635 0
M  V30 6523 H 626.394 2.60807 -1.93416 0
M  V30 6524 H 627.405 0.741613 -5.12563 0
M  V30 6525 H 624.082 2.56204 -3.29645 0
M  V30 6526 H 625.472 0.394112 -6.70743 0
M  V30 6527 N 628.193 1.56834 0.155195 0
M  V30 6528 C 629.442 1.82088 0.867567 0
M  V30 6529 C 629.755 0.69849 1.82703 0
M  V30 6530 O 630.961 0.836407 2.58295 0
M  V30 6531 C 629.417 3.22707 1.59336 0
M  V30 6532 C 629.025 4.42859 0.676719 0
M  V30 6533 C 630.769 3.57242 2.293 0
M  V30 6534 C 628.676 5.74501 1.40367 0
M  V30 6535 H 627.606 0.679057 0.327715 0
M  V30 6536 H 630.257 1.83105 0.120351 0
M  V30 6537 H 628.639 3.16054 2.38591 0
M  V30 6538 H 629.813 4.60731 -0.0800196 0
M  V30 6539 H 628.128 4.16311 0.0859129 0
M  V30 6540 H 630.725 4.52847 2.84312 0
M  V30 6541 H 631.068 2.82901 3.05406 0
M  V30 6542 H 631.601 3.6552 1.56972 0
M  V30 6543 H 628.34 6.51915 0.684623 0
M  V30 6544 H 627.86 5.60579 2.13332 0
M  V30 6545 H 629.539 6.17016 1.94681 0
M  V30 6546 N 629.671 -0.424282 1.51781 0
M  V30 6547 C 631.082 -1.00368 1.57427 0
M  V30 6548 C 631.433 -1.91962 0.40558 0
M  V30 6549 O 630.558 -2.111 -0.47601 0
M  V30 6550 C 631.153 -1.82707 2.85313 0
M  V30 6551 C 629.712 -2.35675 2.93487 0
M  V30 6552 C 628.859 -1.1524 2.5222 0
M  V30 6553 H 631.81 -0.205064 1.5737 0
M  V30 6554 H 631.831 -2.68294 2.69812 0
M  V30 6555 H 631.343 -1.16017 3.70353 0
M  V30 6556 H 629.444 -3.05781 2.12906 0
M  V30 6557 H 629.557 -2.67578 3.97415 0
M  V30 6558 H 627.921 -1.50174 2.05718 0
M  V30 6559 H 628.704 -0.5014 3.39619 0
M  V30 6560 N 631.149 -1.42148 -0.680565 0
M  V30 6561 C 632.56 -1.3768 -1.26099 0
M  V30 6562 C 632.911 -0.0672348 -1.96085 0
M  V30 6563 O 632.036 0.834172 -1.99676 0
M  V30 6564 C 632.631 -2.49387 -2.29328 0
M  V30 6565 C 631.19 -2.4827 -2.82911 0
M  V30 6566 C 630.337 -2.2847 -1.57152 0
M  V30 6567 H 633.288 -1.51446 -0.474326 0
M  V30 6568 H 633.309 -2.19307 -3.10941 0
M  V30 6569 H 632.821 -3.44686 -1.78363 0
M  V30 6570 H 630.922 -1.56773 -3.38013 0
M  V30 6571 H 631.035 -3.45109 -3.3232 0
M  V30 6572 H 629.399 -1.76623 -1.83511 0
M  V30 6573 H 630.182 -3.25816 -1.0816 0
M  V30 6574 N 632.627 0.916307 -1.28225 0
M  V30 6575 C 633.875 1.6619 -1.15002 0
M  V30 6576 C 634.196 1.92642 0.302329 0
M  V30 6577 O 633.466 1.54076 1.20985 0
M  V30 6578 H 632.046 0.615964 -0.422608 0
M  V30 6579 H 634.708 1.09963 -1.60917 0
M  V30 6580 H 633.804 2.62533 -1.68769 0
M  V30 6581 N 634.105 1.10431 1.1244 0
M  V30 6582 C 635.055 0.722378 2.16254 0
M  V30 6583 C 636.039 -0.268427 1.58645 0
M  V30 6584 O 637.231 -0.077169 1.76832 0
M  V30 6585 C 634.36 0.155763 3.42946 0
M  V30 6586 C 633.446 1.17361 4.07538 0
M  V30 6587 N 633.837 2.36429 4.47141 0
M  V30 6588 C 632.135 1.01412 4.34317 0
M  V30 6589 C 632.836 3.01259 4.97612 0
M  V30 6590 N 631.812 2.28777 4.93115 0
M  V30 6591 H 635.614 1.62876 2.4464 0
M  V30 6592 H 633.128 0.982031 1.29344 0
M  V30 6593 H 635.125 -0.135936 4.16678 0
M  V30 6594 H 633.785 -0.745339 3.1603 0
M  V30 6595 H 634.796 2.73954 4.39511 0
M  V30 6596 H 631.473 0.168574 4.1716 0
M  V30 6597 H 632.863 4.02541 5.37968 0
M  V30 6598 N 635.583 -1.29855 0.893053 0
M  V30 6599 C 636.823 -1.97612 0.522399 0
M  V30 6600 C 637.187 -1.68903 -0.913 0
M  V30 6601 O 638.388 -2.30059 -1.39019 0
M  V30 6602 C 636.659 -3.48356 0.79893 0
M  V30 6603 S 638.218 -4.35568 0.531588 0
M  V30 6604 H 635.036 -0.684005 0.194058 0
M  V30 6605 H 637.638 -1.57803 1.15406 0
M  V30 6606 H 636.342 -3.66743 1.84196 0
M  V30 6607 H 635.873 -3.93094 0.155133 0
M  V30 6608 H 637.888 -4.92232 -0.626295 0
M  V30 6609 N 637.061 -0.65484 -1.43351 0
M  V30 6610 C 637.991 0.0221809 -2.33489 0
M  V30 6611 C 638.972 0.810272 -1.49561 0
M  V30 6612 O 640.157 0.771426 -1.78221 0
M  V30 6613 C 637.287 0.988117 -3.32947 0
M  V30 6614 C 636.241 0.310026 -4.26876 0
M  V30 6615 C 635.567 1.38752 -5.16384 0
M  V30 6616 C 636.867 -0.798589 -5.16159 0
M  V30 6617 H 638.561 -0.730571 -2.9035 0
M  V30 6618 H 636.107 -0.352773 -1.39612 0
M  V30 6619 H 638.06 1.47067 -3.94904 0
M  V30 6620 H 636.784 1.77205 -2.74346 0
M  V30 6621 H 635.443 -0.152097 -3.66284 0
M  V30 6622 H 635.091 2.16293 -4.54121 0
M  V30 6623 H 634.791 0.939051 -5.80048 0
M  V30 6624 H 636.315 1.87141 -5.81215 0
M  V30 6625 H 637.729 -0.398126 -5.71916 0
M  V30 6626 H 636.126 -1.17163 -5.88552 0
M  V30 6627 H 637.196 -1.65588 -4.55751 0
M  V30 6628 N 638.539 1.52521 -0.396863 0
M  V30 6629 C 639.486 2.26671 0.434624 0
M  V30 6630 C 640.456 1.28584 1.05144 0
M  V30 6631 O 641.641 1.57426 1.07804 0
M  V30 6632 C 638.781 3.08234 1.55196 0
M  V30 6633 C 637.894 4.21261 0.957262 0
M  V30 6634 C 637.029 4.90205 2.04627 0
M  V30 6635 C 636.068 5.95213 1.42787 0
M  V30 6636 N 635.205 6.57723 2.45651 0
M  V30 6637 H 640.045 2.973 -0.204139 0
M  V30 6638 H 637.582 1.46669 -0.112505 0
M  V30 6639 H 639.54 3.53819 2.2106 0
M  V30 6640 H 638.17 2.398 2.16092 0
M  V30 6641 H 637.222 3.79935 0.188005 0
M  V30 6642 H 638.534 4.96624 0.465416 0
M  V30 6643 H 637.688 5.39133 2.78246 0
M  V30 6644 H 636.427 4.14383 2.57174 0
M  V30 6645 H 635.432 5.45616 0.676968 0
M  V30 6646 H 636.657 6.72972 0.910255 0
M  V30 6647 H 634.603 5.84737 2.97353 0
M  V30 6648 H 634.52 7.28723 2.01243 0
M  V30 6649 H 635.788 7.11293 3.18876 0
M  V30 6650 N 640.017 0.126909 1.57088 0
M  V30 6651 C 641.242 -0.53997 2.00248 0
M  V30 6652 C 641.667 -1.58927 1.00618 0
M  V30 6653 O 641.025 -1.81288 -0.0210131 0
M  V30 6654 C 641.073 -1.13565 3.4225 0
M  V30 6655 O 640.177 -2.25103 3.45547 0
M  V30 6656 H 639.518 -0.13412 0.650314 0
M  V30 6657 H 642.048 0.217718 2.03438 0
M  V30 6658 H 642.058 -1.46925 3.80627 0
M  V30 6659 H 640.733 -0.367122 4.14277 0
M  V30 6660 H 639.31 -1.93123 3.18995 0
M  V30 6661 N 641.495 -1.56914 -0.146875 0
M  V30 6662 C 642.741 -1.84515 -0.855914 0
M  V30 6663 C 643.096 -0.710909 -1.78784 0
M  V30 6664 O 642.389 0.291123 -1.89375 0
M  V30 6665 C 642.583 -3.16128 -1.66727 0
M  V30 6666 C 642.412 -4.42246 -0.815405 0
M  V30 6667 C 641.182 -5.03006 -0.480976 0
M  V30 6668 C 643.38 -5.14094 -0.145684 0
M  V30 6669 N 641.362 -6.12695 0.384476 0
M  V30 6670 C 642.733 -6.17282 0.579902 0
M  V30 6671 C 644.788 -4.97856 -0.0663705 0
M  V30 6672 C 643.491 -7.0599 1.37731 0
M  V30 6673 C 645.517 -5.87028 0.71778 0
M  V30 6674 C 644.879 -6.89698 1.43165 0
M  V30 6675 H 640.978 -0.725829 -0.291026 0
M  V30 6676 H 643.562 -1.94322 -0.121279 0
M  V30 6677 H 641.733 -3.07468 -2.37315 0
M  V30 6678 H 643.465 -3.31635 -2.31949 0
M  V30 6679 H 640.22 -4.66504 -0.816789 0
M  V30 6680 H 640.644 -6.72158 0.80823 0
M  V30 6681 H 645.286 -4.18465 -0.603929 0
M  V30 6682 H 643.004 -7.84809 1.92613 0
M  V30 6683 H 646.59 -5.76532 0.781141 0
M  V30 6684 H 645.47 -7.57505 2.02868 0
M  V30 6685 N 642.974 0.416227 -1.52004 0
M  V30 6686 C 644.199 1.19029 -1.69843 0
M  V30 6687 C 644.624 1.83708 -0.404103 0
M  V30 6688 O 643.982 1.69711 0.637787 0
M  V30 6689 C 644.03 2.23439 -2.83032 0
M  V30 6690 O 643.134 3.29419 -2.48106 0
M  V30 6691 H 642.475 0.347785 -0.565634 0
M  V30 6692 H 645.005 0.488871 -1.98674 0
M  V30 6693 H 645.015 2.67884 -3.07737 0
M  V30 6694 H 643.69 1.75745 -3.76944 0
M  V30 6695 H 642.267 2.90303 -2.34048 0
M  V30 6696 N 644.452 1.42507 0.673017 0
M  V30 6697 C 645.698 1.44282 1.43367 0
M  V30 6698 C 646.053 0.0588239 1.9231 0
M  V30 6699 O 645.346 -0.919288 1.68106 0
M  V30 6700 C 645.54 2.40351 2.64511 0
M  V30 6701 C 645.369 3.87955 2.27423 0
M  V30 6702 C 644.139 4.56476 2.16697 0
M  V30 6703 C 646.337 4.7833 1.88957 0
M  V30 6704 N 644.319 5.89099 1.72731 0
M  V30 6705 C 645.69 6.00073 1.55923 0
M  V30 6706 C 647.745 4.65769 1.75965 0
M  V30 6707 C 646.448 7.10652 1.112 0
M  V30 6708 C 648.474 5.76332 1.32647 0
M  V30 6709 C 647.836 6.97188 1.00538 0
M  V30 6710 H 643.935 0.583134 0.521036 0
M  V30 6711 H 646.519 1.78547 0.776481 0
M  V30 6712 H 644.69 2.08145 3.27918 0
M  V30 6713 H 646.422 2.32694 3.31113 0
M  V30 6714 H 643.177 4.10712 2.35823 0
M  V30 6715 H 643.601 6.59446 1.53166 0
M  V30 6716 H 648.243 3.72808 1.99435 0
M  V30 6717 H 645.961 8.0346 0.864768 0
M  V30 6718 H 649.547 5.68625 1.23112 0
M  V30 6719 H 648.427 7.81287 0.675283 0
M  V30 6720 N 645.93 -0.909495 1.28709 0
M  V30 6721 C 646.878 -2.03381 1.12866 0
M  V30 6722 C 647.872 -1.69335 0.0468074 0
M  V30 6723 O 649.078 -1.78819 0.205891 0
M  V30 6724 H 645.453 -0.666452 0.348348 0
M  V30 6725 H 647.424 -2.13885 2.08077 0
M  V30 6726 C 646.173 -3.38092 0.811742 0
M  V30 6727 H 645.496 -3.64786 1.63619 0
M  V30 6728 H 646.936 -4.17477 0.740869 0
M  V30 6729 C 645.395 -3.33395 -0.484679 0
M  V30 6730 O 645.925 -3.72089 -1.5137 0
M  V30 6731 N 644.131 -2.86491 -0.486961 0
M  V30 6732 H 643.678 -2.55199 0.350877 0
M  V30 6733 H 643.636 -2.83731 -1.3544 0
M  V30 6734 N 647.408 -1.11026 -1.11852 0
M  V30 6735 C 648.638 -0.877544 -1.87037 0
M  V30 6736 C 649.046 0.575925 -1.80221 0
M  V30 6737 O 648.389 1.40916 -1.17849 0
M  V30 6738 C 648.451 -1.25529 -3.36872 0
M  V30 6739 C 648.115 -2.71704 -3.67459 0
M  V30 6740 C 649.112 -3.69931 -3.65304 0
M  V30 6741 C 646.797 -3.08243 -3.966 0
M  V30 6742 C 648.791 -5.02717 -3.9186 0
M  V30 6743 C 646.478 -4.41215 -4.22815 0
M  V30 6744 C 647.476 -5.38262 -4.20432 0
M  V30 6745 O 647.164 -6.68839 -4.45992 0
M  V30 6746 H 646.896 -0.314374 -0.598452 0
M  V30 6747 H 649.45 -1.48015 -1.42411 0
M  V30 6748 H 647.68 -0.595808 -3.82082 0
M  V30 6749 H 649.369 -0.999064 -3.93413 0
M  V30 6750 H 650.135 -3.43047 -3.42846 0
M  V30 6751 H 646.014 -2.33326 -3.97593 0
M  V30 6752 H 649.558 -5.78456 -3.89916 0
M  V30 6753 H 645.455 -4.67835 -4.44748 0
M  V30 6754 H 646.223 -6.74563 -4.63581 0
M  V30 6755 N 648.886 1.2938 -0.899927 0
M  V30 6756 C 650.116 1.99402 -0.540601 0
M  V30 6757 C 650.524 1.67534 0.87914 0
M  V30 6758 O 649.867 0.916821 1.59186 0
M  V30 6759 C 649.929 3.53514 -0.653326 0
M  V30 6760 C 649.593 4.08937 -2.04009 0
M  V30 6761 C 650.59 4.23815 -3.01126 0
M  V30 6762 C 648.275 4.43962 -2.34953 0
M  V30 6763 C 650.269 4.72951 -4.27313 0
M  V30 6764 C 647.956 4.92795 -3.61382 0
M  V30 6765 C 648.954 5.07244 -4.57376 0
M  V30 6766 O 648.642 5.55017 -5.8156 0
M  V30 6767 H 648.374 0.64383 -0.206057 0
M  V30 6768 H 650.928 1.65878 -1.21134 0
M  V30 6769 H 649.158 3.86628 0.0744449 0
M  V30 6770 H 650.847 4.04767 -0.303118 0
M  V30 6771 H 651.613 3.97043 -2.78535 0
M  V30 6772 H 647.492 4.31974 -1.60994 0
M  V30 6773 H 651.036 4.84144 -5.02245 0
M  V30 6774 H 646.933 5.19004 -3.83804 0
M  V30 6775 H 647.701 5.73331 -5.84153 0
M  V30 6776 N 650.364 0.662433 1.43002 0
M  V30 6777 C 651.78 0.330835 1.56133 0
M  V30 6778 C 651.98 -1.16454 1.64441 0
M  V30 6779 O 651.036 -1.94964 1.60453 0
M  V30 6780 C 652.349 1.05029 2.81761 0
M  V30 6781 C 653.897 1.03142 2.95518 0
M  V30 6782 C 654.372 1.73196 4.2399 0
M  V30 6783 N 655.863 1.70004 4.30875 0
M  V30 6784 C 656.598 2.21074 5.29069 0
M  V30 6785 N 656.094 2.80473 6.33488 0
M  V30 6786 N 657.887 2.1152 5.20784 0
M  V30 6787 H 650.038 1.63272 1.35853 0
M  V30 6788 H 652.301 0.687149 0.653092 0
M  V30 6789 H 652.007 2.10542 2.81718 0
M  V30 6790 H 651.881 0.607664 3.72273 0
M  V30 6791 H 654.268 -0.0153339 2.95096 0
M  V30 6792 H 654.349 1.51282 2.0627 0
M  V30 6793 H 653.993 2.77833 4.25172 0
M  V30 6794 H 653.923 1.22515 5.1215 0
M  V30 6795 H 656.414 1.26667 3.56039 0
M  V30 6796 H 656.727 3.17094 7.04749 0
M  V30 6797 H 655.072 2.84538 6.34085 0
M  V30 6798 H 658.263 1.64814 4.38126 0
M  V30 6799 H 658.436 2.51629 5.97149 0
M  V30 6800 N 651.842 -1.52309 0.404946 0
M  V30 6801 C 653.091 -2.00952 -0.173529 0
M  V30 6802 C 653.404 -1.29512 -1.46581 0
M  V30 6803 O 654.61 -1.6895 -2.12528 0
M  V30 6804 C 653.066 -3.58097 -0.359801 0
M  V30 6805 C 652.674 -4.38449 0.920138 0
M  V30 6806 C 654.418 -4.14984 -0.893794 0
M  V30 6807 C 652.325 -5.87227 0.701285 0
M  V30 6808 H 651.255 -0.750871 -0.0686244 0
M  V30 6809 H 653.906 -1.75687 0.529749 0
M  V30 6810 H 652.288 -3.79675 -1.12531 0
M  V30 6811 H 653.462 -4.28633 1.69147 0
M  V30 6812 H 651.777 -3.92859 1.38024 0
M  V30 6813 H 654.374 -5.23813 -1.0735 0
M  V30 6814 H 654.717 -3.72072 -1.8673 0
M  V30 6815 H 655.25 -3.97358 -0.187453 0
M  V30 6816 H 651.989 -6.34491 1.64624 0
M  V30 6817 H 651.509 -5.99792 -0.0308288 0
M  V30 6818 H 653.188 -6.46096 0.341846 0
M  V30 6819 N 653.32 -0.135238 -1.57019 0
M  V30 6820 C 654.566 0.519563 -1.96032 0
M  V30 6821 C 654.899 1.65284 -1.01955 0
M  V30 6822 O 654.174 1.94408 -0.059727 0
M  V30 6823 C 654.457 1.0369 -3.44848 0
M  V30 6824 C 654.31 -0.0940754 -4.49702 0
M  V30 6825 C 655.629 1.92254 -3.95887 0
M  V30 6826 H 652.748 0.18739 -0.712779 0
M  V30 6827 H 655.39 -0.214086 -1.8879 0
M  V30 6828 H 653.54 1.66209 -3.5115 0
M  V30 6829 H 655.212 -0.73 -4.55487 0
M  V30 6830 H 653.455 -0.754924 -4.27181 0
M  V30 6831 H 654.126 0.309419 -5.51132 0
M  V30 6832 H 656.602 1.39581 -3.9199 0
M  V30 6833 H 655.478 2.25364 -5.00502 0
M  V30 6834 H 655.739 2.85513 -3.37543 0
M  V30 6835 N 654.798 1.5699 0.138552 0
M  V30 6836 C 655.761 1.97984 1.15478 0
M  V30 6837 C 656.761 0.867416 1.35398 0
M  V30 6838 O 657.951 1.13387 1.32246 0
M  V30 6839 C 655.083 2.3031 2.51337 0
M  V30 6840 H 656.276 2.88953 0.802896 0
M  V30 6841 H 653.829 1.51555 0.382189 0
M  V30 6842 H 654.564 1.42159 2.91481 0
M  V30 6843 H 654.349 3.11425 2.38237 0
M  V30 6844 H 655.839 2.62834 3.24512 0
M  V30 6845 N 656.276 -0.40816 1.52223 0
M  V30 6846 C 657.692 -0.74685 1.41047 0
M  V30 6847 C 657.892 -1.94788 0.51573 0
M  V30 6848 O 656.948 -2.52494 -0.0181156 0
M  V30 6849 C 658.261 -0.999878 2.83589 0
M  V30 6850 C 659.809 -1.10253 2.92939 0
M  V30 6851 C 660.284 -1.38832 4.36451 0
M  V30 6852 N 661.775 -1.45694 4.3969 0
M  V30 6853 C 662.51 -1.69435 5.47795 0
M  V30 6854 N 662.006 -1.90774 6.66016 0
M  V30 6855 N 663.799 -1.71458 5.35312 0
M  V30 6856 H 655.95 0.382409 2.08929 0
M  V30 6857 H 658.213 0.108807 0.941735 0
M  V30 6858 H 657.919 -0.189723 3.51188 0
M  V30 6859 H 657.793 -1.91978 3.24691 0
M  V30 6860 H 660.18 -1.90328 2.2552 0
M  V30 6861 H 660.261 -0.160973 2.55293 0
M  V30 6862 H 659.905 -0.592741 5.04429 0
M  V30 6863 H 659.835 -2.34241 4.71634 0
M  V30 6864 H 662.326 -1.3099 3.54472 0
M  V30 6865 H 662.639 -2.08342 7.44186 0
M  V30 6866 H 660.984 -1.88037 6.69079 0
M  V30 6867 H 664.175 -1.54326 4.41929 0
M  V30 6868 H 664.348 -1.89621 6.19635 0
M  V30 6869 N 657.755 -1.42862 -0.66545 0
M  V30 6870 C 658.985 -1.47032 -1.45138 0
M  V30 6871 C 659.393 -0.0829977 -1.89018 0
M  V30 6872 O 658.736 0.914551 -1.59316 0
M  V30 6873 C 658.798 -2.34302 -2.72659 0
M  V30 6874 C 658.462 -3.82034 -2.50796 0
M  V30 6875 C 659.459 -4.73453 -2.14799 0
M  V30 6876 C 657.144 -4.26397 -2.655 0
M  V30 6877 C 659.138 -6.07228 -1.93785 0
M  V30 6878 C 656.825 -5.6023 -2.44103 0
M  V30 6879 C 657.823 -6.50462 -2.08299 0
M  V30 6880 O 657.511 -7.8182 -1.87116 0
M  V30 6881 H 657.243 -0.501969 -0.452772 0
M  V30 6882 H 659.797 -1.88137 -0.82423 0
M  V30 6883 H 658.027 -1.88063 -3.37889 0
M  V30 6884 H 659.716 -2.29818 -3.34572 0
M  V30 6885 H 660.482 -4.4046 -2.03026 0
M  V30 6886 H 656.361 -3.56448 -2.92345 0
M  V30 6887 H 659.905 -6.7762 -1.65763 0
M  V30 6888 H 655.802 -5.92793 -2.55475 0
M  V30 6889 H 656.57 -7.93274 -2.01639 0
M  V30 6890 N 659.233 0.902656 -1.29189 0
M  V30 6891 C 660.143 2.03946 -1.15944 0
M  V30 6892 C 661.159 1.738 -0.0833803 0
M  V30 6893 O 662.335 1.9923 -0.29487 0
M  V30 6894 C 659.4 3.36519 -0.834006 0
M  V30 6895 C 658.461 3.80203 -1.9936 0
M  V30 6896 C 657.694 5.06449 -1.68359 0
M  V30 6897 O 657.917 5.67202 -0.603141 0
M  V30 6898 O 656.851 5.46114 -2.53067 0
M  V30 6899 H 660.677 2.18043 -2.11403 0
M  V30 6900 H 658.262 1.02584 -1.08613 0
M  V30 6901 H 660.144 4.16089 -0.666949 0
M  V30 6902 H 658.819 3.23573 0.0908245 0
M  V30 6903 H 657.726 3.01413 -2.21588 0
M  V30 6904 H 659.059 3.97729 -2.89952 0
M  V30 6905 N 660.711 1.11618 1.11262 0
M  V30 6906 C 661.659 0.771291 2.1944 0
M  V30 6907 C 662.653 -0.238073 1.67719 0
M  V30 6908 O 663.859 -0.0971628 1.79738 0
M  V30 6909 H 660.234 0.231548 0.715465 0
M  V30 6910 H 662.205 1.69226 2.45775 0
M  V30 6911 C 660.954 0.232765 3.4692 0
M  V30 6912 H 660.277 1.00072 3.87073 0
M  V30 6913 H 661.717 0.0296561 4.2399 0
M  V30 6914 C 660.176 -1.03738 3.20531 0
M  V30 6915 O 660.706 -2.11675 3.41404 0
M  V30 6916 N 658.912 -0.960906 2.74253 0
M  V30 6917 H 658.459 -0.0824323 2.57468 0
M  V30 6918 H 658.417 -1.8114 2.56974 0
M  V30 6919 N 662.189 -1.289 0.906776 0
M  V30 6920 C 663.417 -1.99401 0.551969 0
M  V30 6921 C 663.832 -1.67816 -0.865048 0
M  V30 6922 O 663.189 -0.927078 -1.57199 0
M  V30 6923 C 663.24 -3.53779 0.743152 0
M  V30 6924 O 662.961 -3.84248 2.1044 0
M  V30 6925 C 664.462 -4.41543 0.39424 0
M  V30 6926 H 661.682 -0.636926 0.211106 0
M  V30 6927 H 664.226 -1.64266 1.21807 0
M  V30 6928 H 662.381 -3.87201 0.124143 0
M  V30 6929 H 662.795 -4.78904 2.13895 0
M  V30 6930 H 664.269 -5.48957 0.578814 0
M  V30 6931 H 664.746 -4.34073 -0.669137 0
M  V30 6932 H 665.352 -4.13605 0.990491 0
M  V30 6933 N 663.667 -0.670007 -1.42649 0
M  V30 6934 C 664.597 -0.00258501 -2.335 0
M  V30 6935 C 665.578 0.794364 -1.50412 0
M  V30 6936 O 666.763 0.75248 -1.79029 0
M  V30 6937 C 663.893 0.952748 -3.33976 0
M  V30 6938 C 662.847 0.264733 -4.2718 0
M  V30 6939 C 662.173 1.33267 -5.17826 0
M  V30 6940 C 663.473 -0.853289 -5.15283 0
M  V30 6941 H 665.167 -0.761326 -2.89559 0
M  V30 6942 H 662.713 -0.367561 -1.3923 0
M  V30 6943 H 664.666 1.4287 -3.96442 0
M  V30 6944 H 663.39 1.74285 -2.7621 0
M  V30 6945 H 662.049 -0.190938 -3.66102 0
M  V30 6946 H 661.697 2.11464 -4.5639 0
M  V30 6947 H 661.397 0.877476 -5.81011 0
M  V30 6948 H 662.921 1.80965 -5.83167 0
M  V30 6949 H 664.335 -0.458763 -5.71462 0
M  V30 6950 H 662.732 -1.23398 -5.87276 0
M  V30 6951 H 663.802 -1.70412 -4.53969 0
M  V30 6952 N 665.145 1.52092 -0.413018 0
M  V30 6953 C 666.108 2.25706 0.398687 0
M  V30 6954 C 667.108 1.28221 0.970368 0
M  V30 6955 O 668.298 1.52131 0.848635 0
M  V30 6956 C 665.43 3.03029 1.5616 0
M  V30 6957 H 666.623 2.98888 -0.246131 0
M  V30 6958 H 664.176 1.5542 -0.165622 0
M  V30 6959 H 664.911 2.34205 2.24317 0
M  V30 6960 H 664.696 3.74606 1.15812 0
M  V30 6961 H 666.186 3.58857 2.13569 0
M  V30 6962 N 666.623 0.143563 1.56945 0
M  V30 6963 C 667.586 -0.783295 2.154 0
M  V30 6964 C 668.586 -1.17763 1.09492 0
M  V30 6965 O 669.776 -1.09912 1.35148 0
M  V30 6966 C 666.908 -2.06248 2.7143 0
M  V30 6967 H 668.101 -0.274863 2.98638 0
M  V30 6968 H 665.654 -0.105859 1.55941 0
M  V30 6969 H 666.389 -2.61466 1.91849 0
M  V30 6970 H 666.174 -1.78897 3.4891 0
M  V30 6971 H 667.664 -2.72453 3.16479 0
M  V30 6972 N 668.101 -1.57061 -0.130224 0
M  V30 6973 C 669.033 -1.96147 -1.18571 0
M  V30 6974 C 670.046 -0.859347 -1.38272 0
M  V30 6975 O 671.235 -1.13769 -1.37545 0
M  V30 6976 C 668.335 -2.23484 -2.54771 0
M  V30 6977 C 667.508 -3.54786 -2.55824 0
M  V30 6978 C 666.567 -3.70467 -3.73686 0
M  V30 6979 O 665.593 -4.42693 -3.57787 0
M  V30 6980 N 666.795 -3.08389 -4.91809 0
M  V30 6981 H 669.56 -2.87295 -0.853333 0
M  V30 6982 H 667.121 -1.58714 -0.319621 0
M  V30 6983 H 669.113 -2.312 -3.32158 0
M  V30 6984 H 667.683 -1.38518 -2.80235 0
M  V30 6985 H 666.903 -3.5836 -1.64232 0
M  V30 6986 H 668.191 -4.4111 -2.53573 0
M  V30 6987 H 667.589 -2.49656 -5.0763 0
M  V30 6988 H 666.146 -3.21642 -5.66912 0
M  V30 6989 N 669.579 0.400081 -1.52437 0
M  V30 6990 C 670.826 1.14619 -1.6694 0
M  V30 6991 C 671.154 1.90262 -0.403797 0
M  V30 6992 O 670.409 1.85835 0.61351 0
M  V30 6993 C 670.708 2.15914 -2.84808 0
M  V30 6994 C 670.374 1.57011 -4.2268 0
M  V30 6995 C 669.036 1.40672 -4.60179 0
M  V30 6996 C 671.388 1.14081 -5.08562 0
M  V30 6997 C 668.716 0.799335 -5.81229 0
M  V30 6998 C 671.068 0.547573 -6.30226 0
M  V30 6999 C 669.732 0.371389 -6.66466 0
M  V30 7000 H 669.002 0.419419 -0.610875 0
M  V30 7001 H 671.649 0.432227 -1.86558 0
M  V30 7002 H 669.954 2.93488 -2.59561 0
M  V30 7003 H 671.651 2.73533 -2.93225 0
M  V30 7004 H 668.241 1.70713 -3.93135 0
M  V30 7005 H 672.425 1.2551 -4.80168 0
M  V30 7006 H 667.681 0.65093 -6.07925 0
M  V30 7007 H 671.855 0.206575 -6.96094 0
M  V30 7008 H 669.482 -0.10135 -7.60132 0
M  V30 7009 N 671.057 1.43213 0.657864 0
M  V30 7010 C 672.304 1.44584 1.41781 0
M  V30 7011 C 672.632 0.0684208 1.9438 0
M  V30 7012 O 671.887 -0.925872 1.72413 0
M  V30 7013 C 672.186 2.43143 2.61947 0
M  V30 7014 C 671.852 3.89128 2.27794 0
M  V30 7015 C 670.514 4.28889 2.18191 0
M  V30 7016 C 672.866 4.81144 2.00375 0
M  V30 7017 C 670.194 5.58625 1.79319 0
M  V30 7018 C 672.546 6.11239 1.63003 0
M  V30 7019 C 671.21 6.49981 1.51922 0
M  V30 7020 H 670.48 0.529069 0.518813 0
M  V30 7021 H 673.127 1.76263 0.748577 0
M  V30 7022 H 671.432 2.04851 3.33981 0
M  V30 7023 H 673.129 2.4146 3.20153 0
M  V30 7024 H 669.719 3.57657 2.36176 0
M  V30 7025 H 673.903 4.512 2.06718 0
M  V30 7026 H 669.159 5.87486 1.69323 0
M  V30 7027 H 673.333 6.82014 1.40817 0
M  V30 7028 H 670.96 7.50416 1.21572 0
M  V30 7029 N 672.536 -0.895792 1.29666 0
M  V30 7030 C 673.784 -1.64339 1.17631 0
M  V30 7031 C 674.105 -1.93099 -0.271643 0
M  V30 7032 O 673.375 -1.55981 -1.18518 0
M  V30 7033 H 671.955 -0.609162 0.432354 0
M  V30 7034 H 674.617 -1.07389 1.62646 0
M  V30 7035 H 673.713 -2.59815 1.72924 0
M  V30 7036 N 674.014 -1.12206 -1.10668 0
M  V30 7037 C 674.964 -0.75669 -2.15077 0
M  V30 7038 C 675.948 0.243154 -1.59052 0
M  V30 7039 O 677.14 0.0490268 -1.76932 0
M  V30 7040 C 674.269 -0.210303 -3.42655 0
M  V30 7041 C 673.355 -1.23829 -4.05619 0
M  V30 7042 N 673.746 -2.43513 -4.43323 0
M  V30 7043 C 672.044 -1.08309 -4.32649 0
M  V30 7044 C 672.745 -3.09138 -4.92756 0
M  V30 7045 N 671.721 -2.36593 -4.89413 0
M  V30 7046 H 675.523 -1.66747 -2.42018 0
M  V30 7047 H 673.037 -1.00248 -1.27765 0
M  V30 7048 H 675.034 0.0696287 -4.16842 0
M  V30 7049 H 673.694 0.694967 -3.17176 0
M  V30 7050 H 674.705 -2.80912 -4.35097 0
M  V30 7051 H 671.382 -0.234919 -4.16839 0
M  V30 7052 H 672.772 -4.11049 -5.31496 0
M  V30 7053 N 675.492 1.28418 -0.913599 0
M  V30 7054 C 676.72 1.99106 -0.562536 0
M  V30 7055 C 677.135 1.68273 0.856137 0
M  V30 7056 O 676.492 0.935401 1.56705 0
M  V30 7057 C 676.543 3.5338 -0.761903 0
M  V30 7058 O 676.264 3.83127 -2.12475 0
M  V30 7059 C 677.765 4.41328 -0.417651 0
M  V30 7060 H 674.985 0.635798 -0.214481 0
M  V30 7061 H 677.529 1.63618 -1.22676 0
M  V30 7062 H 675.684 3.8713 -0.144676 0
M  V30 7063 H 676.098 4.77763 -2.16431 0
M  V30 7064 H 677.572 5.48642 -0.607919 0
M  V30 7065 H 678.049 4.34422 0.646108 0
M  V30 7066 H 678.655 4.13074 -1.01241 0
M  V30 7067 N 676.97 0.677563 1.42291 0
M  V30 7068 C 677.92 -0.0218641 2.2799 0
M  V30 7069 C 678.904 -0.770816 1.41235 0
M  V30 7070 O 680.096 -0.649273 1.64662 0
M  V30 7071 C 677.225 -0.970449 3.29298 0
M  V30 7072 C 676.311 -0.218695 4.23536 0
M  V30 7073 N 676.702 0.777908 4.99782 0
M  V30 7074 C 675 -0.456748 4.43655 0
M  V30 7075 C 675.701 1.22632 5.68627 0
M  V30 7076 N 674.677 0.55573 5.40752 0
M  V30 7077 H 678.479 0.742516 2.84366 0
M  V30 7078 H 675.993 0.506862 1.54288 0
M  V30 7079 H 677.99 -1.48652 3.89497 0
M  V30 7080 H 676.65 -1.73463 2.74483 0
M  V30 7081 H 677.661 1.15754 5.04798 0
M  V30 7082 H 674.338 -1.20021 3.99877 0
M  V30 7083 H 675.728 2.05231 6.39789 0
M  V30 7084 N 678.448 -1.51871 0.421078 0
M  V30 7085 C 679.694 -2.02237 -0.151014 0
M  V30 7086 C 680.027 -1.30554 -1.43768 0
M  V30 7087 O 679.302 -0.41546 -1.90011 0
M  V30 7088 C 679.585 -3.5802 -0.386482 0
M  V30 7089 C 679.438 -4.40339 0.9177 0
M  V30 7090 C 680.757 -4.24444 -1.16342 0
M  V30 7091 H 677.876 -0.735062 -0.0534102 0
M  V30 7092 H 680.518 -1.81656 0.556888 0
M  V30 7093 H 678.668 -3.75688 -0.989494 0
M  V30 7094 H 680.34 -4.34357 1.55344 0
M  V30 7095 H 678.583 -4.06073 1.526 0
M  V30 7096 H 679.254 -5.47451 0.707187 0
M  V30 7097 H 681.73 -4.10948 -0.652788 0
M  V30 7098 H 680.606 -5.33358 -1.29693 0
M  V30 7099 H 680.867 -3.84204 -2.18724 0
M  V30 7100 N 679.926 -0.151884 -1.56866 0
M  V30 7101 C 681.203 0.543328 -1.87902 0
M  V30 7102 C 681.583 1.82636 -1.05864 0
M  V30 7103 O 680.931 2.28028 -0.146868 0
M  V30 7104 C 681.141 0.804056 -3.39611 0
M  V30 7105 C 682.489 1.14267 -4.08935 0
M  V30 7106 O 683.513 0.893248 -3.44818 0
M  V30 7107 O 682.372 1.61229 -5.22176 0
M  V30 7108 H 679.466 0.277724 -0.778973 0
M  V30 7109 H 682.012 -0.188862 -1.68646 0
M  V30 7110 H 680.784 -0.103772 -3.91162 0
M  V30 7111 H 680.407 1.59025 -3.64413 0
M  V30 7112 N 681.404 1.57128 0.121893 0
M  V30 7113 C 682.314 2.03425 1.16857 0
M  V30 7114 C 683.33 0.954108 1.45509 0
M  V30 7115 O 684.506 1.26541 1.56682 0
M  V30 7116 C 681.571 2.42685 2.47599 0
M  V30 7117 C 680.632 3.64767 2.2637 0
M  V30 7118 C 679.865 4.02145 3.50878 0
M  V30 7119 O 680.088 3.39897 4.58068 0
M  V30 7120 O 679.022 4.95262 3.42051 0
M  V30 7121 H 682.848 2.92825 0.80544 0
M  V30 7122 H 680.433 1.45654 0.332477 0
M  V30 7123 H 682.315 2.68684 3.24634 0
M  V30 7124 H 680.99 1.56432 2.83392 0
M  V30 7125 H 679.897 3.43922 1.47203 0
M  V30 7126 H 681.23 4.51716 1.95482 0
M  V30 7127 N 682.882 -0.391992 1.52647 0
M  V30 7128 C 684.129 -1.13732 1.67545 0
M  V30 7129 C 684.457 -1.90045 0.413881 0
M  V30 7130 O 683.712 -1.86157 -0.603646 0
M  V30 7131 C 684.011 -2.14401 2.85949 0
M  V30 7132 C 683.677 -1.54767 4.23507 0
M  V30 7133 C 682.339 -1.38229 4.60919 0
M  V30 7134 C 684.691 -1.11382 5.0916 0
M  V30 7135 C 682.019 -0.7685 5.81645 0
M  V30 7136 C 684.371 -0.514143 6.30507 0
M  V30 7137 C 683.035 -0.33604 6.66654 0
M  V30 7138 H 682.305 -0.416174 0.613091 0
M  V30 7139 H 684.952 -0.422327 1.86785 0
M  V30 7140 H 683.257 -2.92108 2.61114 0
M  V30 7141 H 684.954 -2.71974 2.94671 0
M  V30 7142 H 681.544 -1.68626 3.94035 0
M  V30 7143 H 685.728 -1.22962 4.80826 0
M  V30 7144 H 680.984 -0.618681 6.08262 0
M  V30 7145 H 685.158 -0.169657 6.96193 0
M  V30 7146 H 682.785 0.14166 7.60068 0
M  V30 7147 N 684.36 -1.4356 -0.65026 0
M  V30 7148 C 685.27 -1.514 -1.79207 0
M  V30 7149 C 686.286 -0.400895 -1.69319 0
M  V30 7150 O 687.462 -0.655458 -1.90436 0
M  V30 7151 C 684.527 -1.43737 -3.155 0
M  V30 7152 C 683.588 -2.65743 -3.37163 0
M  V30 7153 C 682.821 -2.58436 -4.66954 0
M  V30 7154 O 683.044 -1.63374 -5.46503 0
M  V30 7155 O 681.978 -3.48984 -4.90402 0
M  V30 7156 H 685.804 -2.47825 -1.75547 0
M  V30 7157 H 683.389 -1.25594 -0.809111 0
M  V30 7158 H 685.271 -1.41916 -3.96784 0
M  V30 7159 H 683.946 -0.504488 -3.19745 0
M  V30 7160 H 682.853 -2.73136 -2.55632 0
M  V30 7161 H 684.186 -3.58014 -3.37768 0
M  V30 7162 N 685.838 0.888903 -1.30139 0
M  V30 7163 C 687.084 1.6428 -1.18912 0
M  V30 7164 C 687.417 1.92499 0.256477 0
M  V30 7165 O 686.692 1.54312 1.18397 0
M  V30 7166 C 686.975 2.9851 -2.01405 0
M  V30 7167 C 686.828 2.77288 -3.54163 0
M  V30 7168 C 688.147 3.99383 -1.84882 0
M  V30 7169 H 685.266 0.596148 -0.433333 0
M  V30 7170 H 687.908 1.0289 -1.5973 0
M  V30 7171 H 686.058 3.50907 -1.66722 0
M  V30 7172 H 687.73 2.31709 -3.98884 0
M  V30 7173 H 685.973 2.11867 -3.78543 0
M  V30 7174 H 686.644 3.72717 -4.07168 0
M  V30 7175 H 689.12 3.56132 -2.15196 0
M  V30 7176 H 687.996 4.91222 -2.44934 0
M  V30 7177 H 688.257 4.34674 -0.806902 0
M  V30 7178 N 687.317 1.12792 1.10072 0
M  V30 7179 C 688.564 0.885545 1.82111 0
M  V30 7180 C 688.892 -0.588519 1.85383 0
M  V30 7181 O 688.147 -1.45124 1.31292 0
M  V30 7182 C 688.446 1.4102 3.28403 0
M  V30 7183 C 688.112 2.89995 3.45273 0
M  V30 7184 C 686.774 3.30671 3.49585 0
M  V30 7185 C 689.126 3.85874 3.50358 0
M  V30 7186 C 686.454 4.65925 3.56553 0
M  V30 7187 C 688.806 5.20963 3.58859 0
M  V30 7188 C 687.47 5.61177 3.61437 0
M  V30 7189 H 686.74 0.324044 0.666391 0
M  V30 7190 H 689.387 1.40874 1.29718 0
M  V30 7191 H 687.692 0.807551 3.83387 0
M  V30 7192 H 689.389 1.19882 3.82661 0
M  V30 7193 H 685.979 2.57537 3.42597 0
M  V30 7194 H 690.163 3.5554 3.46273 0
M  V30 7195 H 685.419 4.96468 3.56833 0
M  V30 7196 H 689.593 5.95079 3.61738 0
M  V30 7197 H 687.22 6.6597 3.66589 0
M  V30 7198 N 688.795 -1.27931 0.920396 0
M  V30 7199 C 690.025 -1.98516 0.572256 0
M  V30 7200 C 690.433 -1.68912 -0.852375 0
M  V30 7201 O 689.776 -0.94203 -1.57707 0
M  V30 7202 C 689.838 -3.5243 0.709485 0
M  V30 7203 C 689.502 -4.0564 2.10489 0
M  V30 7204 C 690.499 -4.1897 3.07831 0
M  V30 7205 C 688.184 -4.40168 2.41986 0
M  V30 7206 C 690.178 -4.66093 4.34783 0
M  V30 7207 C 687.865 -4.86983 3.69176 0
M  V30 7208 C 688.863 -4.99903 4.65388 0
M  V30 7209 O 688.551 -5.45694 5.90316 0
M  V30 7210 H 688.283 -0.64047 0.216274 0
M  V30 7211 H 690.837 -1.6393 1.23758 0
M  V30 7212 H 689.067 -3.86698 -0.0129263 0
M  V30 7213 H 690.756 -4.04233 0.367474 0
M  V30 7214 H 691.522 -3.92562 2.84816 0
M  V30 7215 H 687.401 -4.29358 1.67846 0
M  V30 7216 H 690.945 -4.76092 5.09884 0
M  V30 7217 H 686.842 -5.12832 3.92012 0
M  V30 7218 H 687.61 -5.63965 5.932 0
M  V30 7219 N 690.273 -0.685099 -1.4193 0
M  V30 7220 C 691.55 -0.140152 -1.95097 0
M  V30 7221 C 691.93 1.34745 -1.62502 0
M  V30 7222 O 691.278 2.08872 -0.926534 0
M  V30 7223 C 691.488 -0.420268 -3.4646 0
M  V30 7224 C 692.836 -0.342338 -4.23218 0
M  V30 7225 O 693.86 -0.354592 -3.54431 0
M  V30 7226 O 692.719 -0.293404 -5.45712 0
M  V30 7227 H 689.813 -0.00885998 -0.826953 0
M  V30 7228 H 692.359 -0.760539 -1.51703 0
M  V30 7229 H 691.131 -1.45037 -3.63428 0
M  V30 7230 H 690.754 0.231616 -3.96925 0
M  V30 7231 N 691.751 1.51645 -0.429126 0
M  V30 7232 C 692.661 2.31288 0.392809 0
M  V30 7233 C 693.677 1.39852 1.03525 0
M  V30 7234 O 694.853 1.72926 1.03241 0
M  V30 7235 C 691.918 3.13347 1.48372 0
M  V30 7236 C 690.979 4.20551 0.862268 0
M  V30 7237 C 690.212 4.98688 1.9012 0
M  V30 7238 O 690.435 4.77359 3.12225 0
M  V30 7239 O 689.369 5.83005 1.4963 0
M  V30 7240 H 693.195 3.02609 -0.257138 0
M  V30 7241 H 690.78 1.48163 -0.191851 0
M  V30 7242 H 692.662 3.64387 2.1166 0
M  V30 7243 H 691.337 2.44799 2.1179 0
M  V30 7244 H 690.244 3.73609 0.191568 0
M  V30 7245 H 691.577 4.91449 0.271704 0
M  V30 7246 N 693.229 0.160201 1.56784 0
M  V30 7247 C 694.139 -0.787167 2.21 0
M  V30 7248 C 695.155 -1.26167 1.19825 0
M  V30 7249 O 696.331 -1.31611 1.52448 0
M  V30 7250 C 693.396 -2.00364 2.8294 0
M  V30 7251 C 692.457 -1.5771 3.99282 0
M  V30 7252 C 691.69 -2.73558 4.58259 0
M  V30 7253 O 691.913 -3.90129 4.16119 0
M  V30 7254 O 690.847 -2.48271 5.48311 0
M  V30 7255 H 694.673 -0.270462 3.02493 0
M  V30 7256 H 692.258 -0.0674666 1.49248 0
M  V30 7257 H 694.14 -2.71529 3.22257 0
M  V30 7258 H 692.815 -2.50961 2.04451 0
M  V30 7259 H 691.722 -0.835274 3.64656 0
M  V30 7260 H 693.055 -1.11815 4.79331 0
M  V30 7261 N 694.707 -1.5719 -0.113559 0
M  V30 7262 C 695.935 -1.89328 -0.834422 0
M  V30 7263 C 696.35 -0.752018 -1.73177 0
M  V30 7264 O 695.707 0.276912 -1.80387 0
M  V30 7265 C 695.758 -3.20962 -1.66329 0
M  V30 7266 O 695.479 -4.30695 -0.802069 0
M  V30 7267 C 696.98 -3.6684 -2.48884 0
M  V30 7268 H 694.2 -0.626769 -0.239587 0
M  V30 7269 H 696.744 -2.04273 -0.0963195 0
M  V30 7270 H 694.899 -3.0767 -2.35409 0
M  V30 7271 H 695.313 -5.06175 -1.37431 0
M  V30 7272 H 696.787 -4.61692 -3.02563 0
M  V30 7273 H 697.264 -2.93765 -3.26495 0
M  V30 7274 H 697.87 -3.82938 -1.85036 0
M  V30 7275 N 696.185 0.383891 -1.52853 0
M  V30 7276 C 697.115 1.47559 -1.80965 0
M  V30 7277 C 698.096 1.5669 -0.661986 0
M  V30 7278 O 699.281 1.71556 -0.910072 0
M  V30 7279 C 696.411 2.85114 -1.98312 0
M  V30 7280 C 695.365 2.9082 -3.14019 0
M  V30 7281 C 694.691 4.30873 -3.16627 0
M  V30 7282 C 695.991 2.60001 -4.52986 0
M  V30 7283 H 697.685 1.24283 -2.72386 0
M  V30 7284 H 695.231 0.596445 -1.31067 0
M  V30 7285 H 697.184 3.61496 -2.16561 0
M  V30 7286 H 695.908 3.09738 -1.03585 0
M  V30 7287 H 694.567 2.16886 -2.9556 0
M  V30 7288 H 694.215 4.52545 -2.19573 0
M  V30 7289 H 693.915 4.3561 -3.94357 0
M  V30 7290 H 695.439 5.09154 -3.37038 0
M  V30 7291 H 696.853 3.261 -4.71521 0
M  V30 7292 H 695.25 2.76081 -5.32822 0
M  V30 7293 H 696.32 1.5532 -4.59351 0
M  V30 7294 N 697.663 1.43903 0.642637 0
M  V30 7295 C 698.888 1.49758 1.43483 0
M  V30 7296 C 699.313 0.119911 1.87717 0
M  V30 7297 O 698.671 -0.888558 1.58033 0
M  V30 7298 C 698.719 2.45744 2.63898 0
M  V30 7299 O 697.823 1.95101 3.63331 0
M  V30 7300 H 697.164 0.506138 0.429791 0
M  V30 7301 H 699.694 1.88923 0.785438 0
M  V30 7302 H 699.704 2.63399 3.11584 0
M  V30 7303 H 698.379 3.45818 2.31046 0
M  V30 7304 H 696.956 1.87158 3.22531 0
M  V30 7305 N 699.141 -0.881989 1.30609 0
M  V30 7306 C 700.557 -1.16576 1.09005 0
M  V30 7307 C 700.757 -2.00961 -0.14727 0
M  V30 7308 O 699.813 -2.38117 -0.840036 0
M  V30 7309 C 701.126 -1.86954 2.35518 0
M  V30 7310 C 702.674 -1.99706 2.41011 0
M  V30 7311 C 703.149 -2.73497 3.67374 0
M  V30 7312 N 704.64 -2.8104 3.68199 0
M  V30 7313 C 705.375 -3.38718 4.62664 0
M  V30 7314 N 704.871 -3.97421 5.67475 0
M  V30 7315 N 706.664 -3.36561 4.50203 0
M  V30 7316 H 698.815 -0.319398 2.09985 0
M  V30 7317 H 701.078 -0.204058 0.925778 0
M  V30 7318 H 700.784 -1.32393 3.2583 0
M  V30 7319 H 700.658 -2.87317 2.44395 0
M  V30 7320 H 703.045 -2.53436 1.51176 0
M  V30 7321 H 703.126 -0.984218 2.36108 0
M  V30 7322 H 702.77 -2.20438 4.57569 0
M  V30 7323 H 702.7 -3.75163 3.6954 0
M  V30 7324 H 705.191 -2.39365 2.92426 0
M  V30 7325 H 705.504 -4.39507 6.35652 0
M  V30 7326 H 703.849 -3.95832 5.71264 0
M  V30 7327 H 707.04 -2.8993 3.67503 0
M  V30 7328 H 707.213 -3.81215 5.24003 0
M  V30 7329 N 700.619 -1.13374 -1.09472 0
M  V30 7330 C 702.03 -0.90801 -1.63132 0
M  V30 7331 C 702.381 0.555576 -1.8817 0
M  V30 7332 O 701.506 1.42218 -1.63104 0
M  V30 7333 C 702.101 -1.64182 -2.96361 0
M  V30 7334 C 700.66 -1.46197 -3.46848 0
M  V30 7335 C 699.807 -1.67134 -2.21273 0
M  V30 7336 H 702.758 -1.2871 -0.928411 0
M  V30 7337 H 702.779 -1.09863 -3.64294 0
M  V30 7338 H 702.291 -2.707 -2.78106 0
M  V30 7339 H 700.392 -0.419788 -3.70228 0
M  V30 7340 H 700.505 -2.22472 -4.24315 0
M  V30 7341 H 698.869 -1.09616 -2.29905 0
M  V30 7342 H 699.652 -2.74971 -2.05538 0
M  V30 7343 N 702.098 1.27442 -0.927168 0
M  V30 7344 C 703.028 2.29256 -0.443188 0
M  V30 7345 C 704.009 1.62701 0.49624 0
M  V30 7346 O 705.194 1.90013 0.401105 0
M  V30 7347 C 702.324 3.45955 0.305366 0
M  V30 7348 C 701.278 4.24501 -0.546178 0
M  V30 7349 C 700.604 5.33671 0.331512 0
M  V30 7350 C 701.904 4.89921 -1.81037 0
M  V30 7351 H 703.598 2.69988 -1.29409 0
M  V30 7352 H 701.144 1.29792 -0.623705 0
M  V30 7353 H 703.097 4.1628 0.654885 0
M  V30 7354 H 701.821 3.04138 1.19029 0
M  V30 7355 H 700.48 3.55921 -0.878398 0
M  V30 7356 H 700.128 4.88096 1.21537 0
M  V30 7357 H 699.828 5.87131 -0.234746 0
M  V30 7358 H 701.352 6.0684 0.676614 0
M  V30 7359 H 702.766 5.52536 -1.52895 0
M  V30 7360 H 701.163 5.53436 -2.32009 0
M  V30 7361 H 702.233 4.13652 -2.53021 0
M  V30 7362 N 703.576 0.692616 1.41565 0
M  V30 7363 C 704.539 0.0344174 2.29174 0
M  V30 7364 C 705.539 -0.710961 1.44229 0
M  V30 7365 O 706.729 -0.546293 1.65412 0
M  V30 7366 C 703.861 -0.961682 3.27054 0
M  V30 7367 H 705.054 0.805755 2.88873 0
M  V30 7368 H 702.607 0.455947 1.49502 0
M  V30 7369 H 703.342 -1.76089 2.72329 0
M  V30 7370 H 703.127 -0.430375 3.89731 0
M  V30 7371 H 704.617 -1.4201 3.92712 0
M  V30 7372 N 705.054 -1.51416 0.437162 0
M  V30 7373 C 706.3 -2.02386 -0.129555 0
M  V30 7374 C 706.633 -1.32071 -1.42376 0
M  V30 7375 O 705.908 -0.43559 -1.8956 0
M  V30 7376 C 706.191 -3.5841 -0.348487 0
M  V30 7377 C 706.044 -4.39341 0.964352 0
M  V30 7378 C 707.363 -4.25654 -1.11834 0
M  V30 7379 H 704.482 -0.735587 -0.0456109 0
M  V30 7380 H 707.124 -1.81055 0.576124 0
M  V30 7381 H 705.274 -3.76716 -0.949592 0
M  V30 7382 H 706.946 -4.32685 1.59942 0
M  V30 7383 H 705.189 -4.04432 1.56898 0
M  V30 7384 H 705.86 -5.4667 0.765212 0
M  V30 7385 H 708.336 -4.11617 -0.609165 0
M  V30 7386 H 707.212 -5.34704 -1.24029 0
M  V30 7387 H 707.473 -3.86502 -2.14636 0
M  V30 7388 N 706.532 -0.168513 -1.56696 0
M  V30 7389 C 707.495 0.748928 -2.16619 0
M  V30 7390 C 708.495 1.16007 -1.11351 0
M  V30 7391 O 709.685 1.07748 -1.3688 0
M  V30 7392 C 706.817 2.01904 -2.74677 0
M  V30 7393 H 708.01 0.227317 -2.99037 0
M  V30 7394 H 705.563 0.0810372 -1.5609 0
M  V30 7395 H 706.298 2.58381 -1.95985 0
M  V30 7396 H 706.083 1.73323 -3.51712 0
M  V30 7397 H 707.573 2.67383 -3.20774 0
M  V30 7398 N 708.01 1.57248 0.105221 0
M  V30 7399 C 709.257 1.8557 0.810552 0
M  V30 7400 C 709.585 0.755595 1.79223 0
M  V30 7401 O 708.84 -0.251788 1.94073 0
M  V30 7402 C 709.139 3.20437 1.58287 0
M  V30 7403 C 708.805 4.44716 0.744235 0
M  V30 7404 C 707.467 4.78458 0.513013 0
M  V30 7405 C 709.819 5.20953 0.160578 0
M  V30 7406 C 707.147 5.8587 -0.311894 0
M  V30 7407 C 709.499 6.29235 -0.651596 0
M  V30 7408 C 708.163 6.615 -0.893005 0
M  V30 7409 H 707.433 0.67905 0.296602 0
M  V30 7410 H 710.08 1.91363 0.0723968 0
M  V30 7411 H 708.385 3.10283 2.39232 0
M  V30 7412 H 710.082 3.39576 2.13282 0
M  V30 7413 H 706.672 4.18287 0.934555 0
M  V30 7414 H 710.856 4.95226 0.3264 0
M  V30 7415 H 706.112 6.09286 -0.508012 0
M  V30 7416 H 710.286 6.87484 -1.11077 0
M  V30 7417 H 707.913 7.44562 -1.53401 0
M  V30 7418 N 709.488 -0.375779 1.53054 0
M  V30 7419 C 710.418 -1.46598 1.81745 0
M  V30 7420 C 711.399 -1.56337 0.670286 0
M  V30 7421 O 712.584 -1.71071 0.919158 0
M  V30 7422 C 709.714 -2.84058 1.99821 0
M  V30 7423 C 708.668 -2.8915 3.15557 0
M  V30 7424 C 707.994 -4.29187 3.18908 0
M  V30 7425 C 709.294 -2.57595 4.54359 0
M  V30 7426 H 710.988 -1.22837 2.73041 0
M  V30 7427 H 708.534 -0.589485 1.31381 0
M  V30 7428 H 710.487 -3.60342 2.18475 0
M  V30 7429 H 709.211 -3.09184 1.05226 0
M  V30 7430 H 707.87 -2.15316 2.96706 0
M  V30 7431 H 707.518 -4.51374 2.2197 0
M  V30 7432 H 707.218 -4.33512 3.96662 0
M  V30 7433 H 708.742 -5.07359 3.39734 0
M  V30 7434 H 710.156 -3.23595 4.73243 0
M  V30 7435 H 708.553 -2.73252 5.34279 0
M  V30 7436 H 709.623 -1.52882 4.60169 0
M  V30 7437 N 710.966 -1.44241 -0.634997 0
M  V30 7438 C 711.929 -1.50457 -1.72903 0
M  V30 7439 C 712.929 -0.387058 -1.56072 0
M  V30 7440 O 714.119 -0.649531 -1.61638 0
M  V30 7441 C 711.251 -1.37477 -3.1195 0
M  V30 7442 H 712.444 -2.47907 -1.68767 0
M  V30 7443 H 709.997 -1.31276 -0.84831 0
M  V30 7444 H 710.732 -0.41106 -3.21684 0
M  V30 7445 H 710.517 -2.18506 -3.25573 0
M  V30 7446 H 712.007 -1.44799 -3.91692 0
M  V30 7447 N 712.444 0.87505 -1.31075 0
M  V30 7448 C 713.855 1.4433 -1.18431 0
M  V30 7449 C 714.206 1.9506 0.211189 0
M  V30 7450 O 713.331 1.85847 1.10859 0
M  V30 7451 C 713.926 2.62341 -2.14389 0
M  V30 7452 C 712.485 3.15225 -2.05694 0
M  V30 7453 C 711.632 1.87929 -2.03907 0
M  V30 7454 H 714.583 0.684061 -1.432 0
M  V30 7455 H 714.604 3.3887 -1.73053 0
M  V30 7456 H 714.116 2.25388 -3.15946 0
M  V30 7457 H 712.217 3.56812 -1.07314 0
M  V30 7458 H 712.33 3.77853 -2.94558 0
M  V30 7459 H 710.694 2.06679 -1.48849 0
M  V30 7460 H 711.477 1.53221 -3.07211 0
M  V30 7461 N 713.922 1.13953 1.08869 0
M  V30 7462 C 715.147 0.928559 1.85452 0
M  V30 7463 C 715.572 -0.517642 1.80837 0
M  V30 7464 O 714.93 -1.36779 1.19001 0
M  V30 7465 C 714.978 1.42814 3.31114 0
M  V30 7466 O 714.082 0.617129 4.07756 0
M  V30 7467 H 713.423 0.33235 0.574839 0
M  V30 7468 H 715.953 1.5156 1.37443 0
M  V30 7469 H 715.963 1.43425 3.8196 0
M  V30 7470 H 714.638 2.48109 3.33788 0
M  V30 7471 H 713.215 0.679365 3.66659 0
M  V30 7472 N 715.4 -1.26948 0.933913 0
M  V30 7473 C 716.363 -2.24889 0.442457 0
M  V30 7474 C 717.363 -1.54594 -0.442426 0
M  V30 7475 O 718.553 -1.72502 -0.242629 0
M  V30 7476 C 715.685 -3.3896 -0.363173 0
M  V30 7477 H 716.878 -2.69879 1.30787 0
M  V30 7478 H 714.431 -1.38978 0.715187 0
M  V30 7479 H 715.166 -2.99361 -1.24714 0
M  V30 7480 H 714.951 -3.9116 0.271366 0
M  V30 7481 H 716.441 -4.11739 -0.697186 0
M  V30 7482 N 716.879 -0.700114 -1.41195 0
M  V30 7483 C 718.107 -0.242179 -2.05478 0
M  V30 7484 C 718.522 1.11029 -1.52702 0
M  V30 7485 O 717.879 1.69473 -0.677127 0
M  V30 7486 C 717.93 -0.196271 -3.60967 0
M  V30 7487 O 717.651 -1.49532 -4.11791 0
M  V30 7488 C 719.152 0.282102 -4.42401 0
M  V30 7489 H 716.372 -0.111749 -0.661629 0
M  V30 7490 H 718.916 -0.953975 -1.80885 0
M  V30 7491 H 717.071 0.46638 -3.84582 0
M  V30 7492 H 717.485 -1.38545 -5.05871 0
M  V30 7493 H 718.959 0.263093 -5.51373 0
M  V30 7494 H 719.436 1.32174 -4.1884 0
M  V30 7495 H 720.042 -0.349712 -4.2386 0
M  V30 7496 N 718.357 1.51182 -0.445186 0
M  V30 7497 C 719.585 2.06568 0.117091 0
M  V30 7498 C 720 1.31182 1.35781 0
M  V30 7499 O 719.357 0.373605 1.78635 0
M  V30 7500 C 719.408 3.58917 0.431408 0
M  V30 7501 O 719.129 4.31456 -0.760078 0
M  V30 7502 C 720.63 4.30843 1.0435 0
M  V30 7503 H 717.85 0.670985 0.00444436 0
M  V30 7504 H 720.394 1.94666 -0.626525 0
M  V30 7505 H 718.549 3.70708 1.12493 0
M  V30 7506 H 718.963 5.22215 -0.489048 0
M  V30 7507 H 720.437 5.38499 1.21337 0
M  V30 7508 H 720.914 3.89644 2.02667 0
M  V30 7509 H 721.52 4.23516 0.38913 0
M  V30 7510 N 719.835 0.176821 1.56605 0
M  V30 7511 C 721.065 -0.472142 2.01133 0
M  V30 7512 C 721.473 -1.56979 1.05614 0
M  V30 7513 O 720.816 -1.83632 0.0500137 0
M  V30 7514 C 720.878 -1.10547 3.42081 0
M  V30 7515 C 720.542 -0.148806 4.56758 0
M  V30 7516 C 721.539 0.634939 5.16008 0
M  V30 7517 C 719.224 -0.0430325 5.02282 0
M  V30 7518 C 721.218 1.5116 6.19217 0
M  V30 7519 C 718.905 0.83721 6.05338 0
M  V30 7520 C 719.903 1.61311 6.63677 0
M  V30 7521 O 719.591 2.47863 7.64735 0
M  V30 7522 H 719.323 -0.124725 0.664394 0
M  V30 7523 H 721.877 0.277329 2.03519 0
M  V30 7524 H 720.107 -1.90318 3.36625 0
M  V30 7525 H 721.796 -1.6572 3.70529 0
M  V30 7526 H 722.562 0.563424 4.81716 0
M  V30 7527 H 718.441 -0.636753 4.56581 0
M  V30 7528 H 721.985 2.11767 6.64681 0
M  V30 7529 H 717.882 0.909908 6.39055 0
M  V30 7530 H 718.65 2.4144 7.8208 0
M  V30 7531 N 721.313 -1.57302 -0.09688 0
M  V30 7532 C 722.562 -1.85183 -0.799388 0
M  V30 7533 C 722.875 -0.765818 -1.79985 0
M  V30 7534 O 724.081 -0.931696 -2.55013 0
M  V30 7535 C 722.537 -3.28399 -1.47249 0
M  V30 7536 C 722.145 -4.45066 -0.511888 0
M  V30 7537 C 723.889 -3.65506 -2.15883 0
M  V30 7538 C 721.796 -5.79315 -1.18948 0
M  V30 7539 H 720.726 -0.690752 -0.302287 0
M  V30 7540 H 723.377 -1.83425 -0.0523104 0
M  V30 7541 H 721.759 -3.24692 -2.26697 0
M  V30 7542 H 722.933 -4.60116 0.250962 0
M  V30 7543 H 721.248 -4.16343 0.0686576 0
M  V30 7544 H 723.845 -4.63087 -2.67309 0
M  V30 7545 H 724.188 -2.94041 -2.94696 0
M  V30 7546 H 724.721 -3.71094 -1.43298 0
M  V30 7547 H 721.46 -6.54007 -0.442198 0
M  V30 7548 H 720.98 -5.68111 -1.9238 0
M  V30 7549 H 722.659 -6.23816 -1.71646 0
M  V30 7550 N 722.791 0.367657 -1.53252 0
M  V30 7551 C 724.039 1.10832 -1.68999 0
M  V30 7552 C 724.36 1.89894 -0.443306 0
M  V30 7553 O 723.63 1.88235 0.54262 0
M  V30 7554 H 722.21 0.412153 -0.623008 0
M  V30 7555 H 724.872 0.414775 -1.90435 0
M  V30 7556 H 723.968 1.7993 -2.55013 0
M  V30 7557 N 724.269 1.44576 0.627338 0
M  V30 7558 C 725.199 1.54562 1.75022 0
M  V30 7559 C 726.18 0.398378 1.65369 0
M  V30 7560 O 727.365 0.61899 1.84071 0
M  V30 7561 C 724.495 1.49309 3.13567 0
M  V30 7562 C 723.449 2.62549 3.38012 0
M  V30 7563 C 722.775 2.42348 4.76625 0
M  V30 7564 C 724.075 4.04678 3.30202 0
M  V30 7565 H 725.769 2.4855 1.66922 0
M  V30 7566 H 723.315 1.19624 0.801636 0
M  V30 7567 H 725.268 1.54895 3.919 0
M  V30 7568 H 723.992 0.518392 3.2246 0
M  V30 7569 H 722.651 2.56358 2.62061 0
M  V30 7570 H 722.299 1.43062 4.82226 0
M  V30 7571 H 721.999 3.18273 4.93939 0
M  V30 7572 H 723.523 2.49758 5.57183 0
M  V30 7573 H 724.937 4.12217 3.98435 0
M  V30 7574 H 723.334 4.80836 3.5905 0
M  V30 7575 H 724.404 4.2798 2.27949 0
M  V30 7576 N 725.747 -0.868086 1.31537 0
M  V30 7577 C 726.695 -1.99688 1.1928 0
M  V30 7578 C 727.689 -1.69101 0.100656 0
M  V30 7579 O 728.895 -1.78073 0.262677 0
M  V30 7580 H 725.27 -0.655032 0.369374 0
M  V30 7581 H 727.241 -2.07157 2.14776 0
M  V30 7582 C 725.99 -3.35338 0.918892 0
M  V30 7583 H 725.313 -3.59396 1.75142 0
M  V30 7584 H 726.753 -4.14909 0.873311 0
M  V30 7585 C 725.212 -3.34769 -0.378366 0
M  V30 7586 O 725.742 -3.76716 -1.39456 0
M  V30 7587 N 723.948 -2.87895 -0.39557 0
M  V30 7588 H 723.495 -2.53954 0.431889 0
M  V30 7589 H 723.453 -2.87897 -1.26344 0
M  V30 7590 N 727.225 -1.14528 -1.08264 0
M  V30 7591 C 728.636 -0.925261 -1.6216 0
M  V30 7592 C 728.987 0.535587 -1.88748 0
M  V30 7593 O 728.112 1.4048 -1.64604 0
M  V30 7594 C 728.707 -1.67316 -2.94603 0
M  V30 7595 C 727.266 -1.49868 -3.45278 0
M  V30 7596 C 726.413 -1.69471 -2.19487 0
M  V30 7597 H 729.364 -1.29687 -0.914707 0
M  V30 7598 H 729.385 -1.13721 -3.63109 0
M  V30 7599 H 728.897 -2.73635 -2.75219 0
M  V30 7600 H 726.998 -0.459032 -3.69762 0
M  V30 7601 H 727.111 -2.2696 -4.21931 0
M  V30 7602 H 725.475 -1.12048 -2.2873 0
M  V30 7603 H 726.258 -2.77136 -2.0261 0
M  V30 7604 N 728.703 1.26451 -0.940633 0
M  V30 7605 C 729.951 1.93395 -0.586748 0
M  V30 7606 C 730.272 1.7417 0.876921 0
M  V30 7607 O 729.542 1.097 1.62304 0
M  V30 7608 H 728.122 0.715687 -0.214012 0
M  V30 7609 H 730.784 1.53902 -1.19584 0
M  V30 7610 H 729.88 3.01565 -0.804059 0
M  V30 7611 N 730.181 0.707592 1.40822 0
M  V30 7612 C 731.411 0.252706 2.05049 0
M  V30 7613 C 731.819 -1.10758 1.53393 0
M  V30 7614 O 731.162 -1.70567 0.682097 0
M  V30 7615 C 731.224 0.146001 3.59203 0
M  V30 7616 C 730.888 1.44027 4.33711 0
M  V30 7617 C 731.885 2.38058 4.62195 0
M  V30 7618 C 729.57 1.69698 4.72766 0
M  V30 7619 C 731.564 3.56013 5.28709 0
M  V30 7620 C 729.251 2.87936 5.39014 0
M  V30 7621 C 730.249 3.80915 5.66915 0
M  V30 7622 O 729.937 4.9708 6.31796 0
M  V30 7623 H 729.669 0.112784 0.666525 0
M  V30 7624 H 732.223 0.96417 1.81364 0
M  V30 7625 H 730.453 -0.621338 3.81676 0
M  V30 7626 H 732.142 -0.273275 4.04979 0
M  V30 7627 H 732.908 2.19487 4.32493 0
M  V30 7628 H 728.787 0.981835 4.50423 0
M  V30 7629 H 732.331 4.28604 5.50404 0
M  V30 7630 H 728.228 3.06419 5.68135 0
M  V30 7631 H 728.996 4.97053 6.50293 0
M  V30 7632 N 731.66 -1.50943 0.453197 0
M  V30 7633 C 733.076 -1.59245 0.106342 0
M  V30 7634 C 733.276 -1.46287 -1.38572 0
M  V30 7635 O 732.332 -1.31219 -2.15726 0
M  V30 7636 C 733.645 -2.93797 0.640595 0
M  V30 7637 C 735.193 -3.07148 0.602435 0
M  V30 7638 C 735.668 -4.44247 1.11393 0
M  V30 7639 N 737.159 -4.50611 1.07258 0
M  V30 7640 C 737.894 -5.55049 1.43905 0
M  V30 7641 N 737.39 -6.66828 1.87914 0
M  V30 7642 N 739.183 -5.45494 1.35621 0
M  V30 7643 H 731.334 -1.5761 1.42382 0
M  V30 7644 H 733.597 -0.74384 0.587713 0
M  V30 7645 H 733.303 -3.087 1.68515 0
M  V30 7646 H 733.177 -3.77127 0.0742272 0
M  V30 7647 H 735.564 -2.91903 -0.433171 0
M  V30 7648 H 735.645 -2.25619 1.20539 0
M  V30 7649 H 735.289 -4.60239 2.14808 0
M  V30 7650 H 735.219 -5.2434 0.487353 0
M  V30 7651 H 737.71 -3.70391 0.749585 0
M  V30 7652 H 738.023 -7.42558 2.14072 0
M  V30 7653 H 736.368 -6.67995 1.91853 0
M  V30 7654 H 739.559 -4.57053 1.01093 0
M  V30 7655 H 739.732 -6.2677 1.64508 0
M  V30 7656 N 733.138 -0.185124 -1.56509 0
M  V30 7657 C 734.384 0.456934 -1.97585 0
M  V30 7658 C 734.717 1.61957 -1.07161 0
M  V30 7659 O 733.992 1.9412 -0.121546 0
M  V30 7660 C 734.275 0.926666 -3.47973 0
M  V30 7661 C 734.128 -0.237097 -4.49175 0
M  V30 7662 C 735.447 1.79561 -4.01803 0
M  V30 7663 H 732.566 0.164619 -0.71838 0
M  V30 7664 H 735.208 -0.274039 -1.88013 0
M  V30 7665 H 733.358 1.54954 -3.56261 0
M  V30 7666 H 735.03 -0.87454 -4.52934 0
M  V30 7667 H 733.273 -0.890446 -4.24563 0
M  V30 7668 H 733.944 0.133924 -5.51838 0
M  V30 7669 H 736.42 1.27039 -3.96232 0
M  V30 7670 H 735.296 2.09327 -5.07418 0
M  V30 7671 H 735.557 2.74629 -3.46455 0
M  V30 7672 N 734.616 1.57351 0.0885366 0
M  V30 7673 C 735.846 1.90355 0.80303 0
M  V30 7674 C 736.254 0.777678 1.72478 0
M  V30 7675 O 735.597 -0.258908 1.81866 0
M  V30 7676 C 735.659 3.18674 1.66395 0
M  V30 7677 C 735.323 4.4778 0.913327 0
M  V30 7678 C 736.32 5.19345 0.240148 0
M  V30 7679 C 734.005 4.94434 0.885462 0
M  V30 7680 C 735.999 6.35803 -0.450854 0
M  V30 7681 C 733.686 6.10802 0.190679 0
M  V30 7682 C 734.684 6.81337 -0.476295 0
M  V30 7683 O 734.372 7.95488 -1.15992 0
M  V30 7684 H 734.104 0.634035 0.234469 0
M  V30 7685 H 736.658 2.05287 0.0681959 0
M  V30 7686 H 734.888 2.99906 2.44117 0
M  V30 7687 H 736.577 3.37458 2.2556 0
M  V30 7688 H 737.343 4.84339 0.253092 0
M  V30 7689 H 733.222 4.39417 1.39406 0
M  V30 7690 H 736.766 6.90795 -0.972019 0
M  V30 7691 H 732.663 6.45261 0.175603 0
M  V30 7692 H 733.431 8.11509 -1.06749 0
M  V30 7693 N 736.094 -0.359525 1.53444 0
M  V30 7694 C 737.026 -1.46098 1.76602 0
M  V30 7695 C 738.039 -1.49395 0.646912 0
M  V30 7696 O 739.228 -1.52765 0.923307 0
M  V30 7697 C 736.328 -2.84836 1.83635 0
M  V30 7698 C 735.501 -3.05164 3.13358 0
M  V30 7699 C 734.56 -4.24051 3.11556 0
M  V30 7700 O 733.586 -4.18935 3.85334 0
M  V30 7701 N 734.788 -5.31775 2.328 0
M  V30 7702 H 737.553 -1.2661 2.71643 0
M  V30 7703 H 735.114 -0.549294 1.52297 0
M  V30 7704 H 737.106 -3.62516 1.799 0
M  V30 7705 H 735.676 -2.97542 0.958509 0
M  V30 7706 H 734.896 -2.15091 3.30348 0
M  V30 7707 H 736.184 -3.15619 3.99076 0
M  V30 7708 H 735.582 -5.38796 1.7238 0
M  V30 7709 H 734.139 -6.0801 2.34877 0
M  V30 7710 N 737.572 -1.44907 -0.619662 0
M  V30 7711 C 738.821 -1.47569 -1.37501 0
M  V30 7712 C 739.134 -0.116707 -1.95252 0
M  V30 7713 O 740.34 -0.020909 -2.71492 0
M  V30 7714 C 738.796 -2.59851 -2.49009 0
M  V30 7715 C 738.404 -4.02008 -1.97722 0
M  V30 7716 C 740.148 -2.71746 -3.2612 0
M  V30 7717 C 738.055 -5.05693 -3.0664 0
M  V30 7718 H 736.985 -0.549068 -0.51676 0
M  V30 7719 H 739.636 -1.71009 -0.665437 0
M  V30 7720 H 738.018 -2.29671 -3.22594 0
M  V30 7721 H 739.192 -4.41809 -1.30925 0
M  V30 7722 H 737.507 -3.94456 -1.33392 0
M  V30 7723 H 740.104 -3.46382 -4.07337 0
M  V30 7724 H 740.447 -1.77959 -3.76346 0
M  V30 7725 H 740.98 -3.01392 -2.5963 0
M  V30 7726 H 737.719 -6.01148 -2.61345 0
M  V30 7727 H 737.239 -4.70473 -3.72042 0
M  V30 7728 H 738.918 -5.29906 -3.71226 0
M  V30 7729 N 739.05 0.861098 -1.31996 0
M  V30 7730 C 740.327 1.59788 -1.12814 0
M  V30 7731 C 740.707 2.08753 0.313882 0
M  V30 7732 O 740.055 1.87258 1.30946 0
M  V30 7733 C 740.265 2.74901 -2.15012 0
M  V30 7734 C 741.613 3.44643 -2.48004 0
M  V30 7735 O 742.637 2.85119 -2.13508 0
M  V30 7736 O 741.496 4.52044 -3.07113 0
M  V30 7737 H 738.59 0.703408 -0.434909 0
M  V30 7738 H 741.136 0.905788 -1.43505 0
M  V30 7739 H 739.908 2.36198 -3.11971 0
M  V30 7740 H 739.531 3.51792 -1.85279 0
M  V30 7741 N 740.528 1.15101 1.07655 0
M  V30 7742 C 741.776 0.922149 1.79836 0
M  V30 7743 C 742.097 -0.552346 1.87014 0
M  V30 7744 O 741.367 -1.40145 1.3688 0
M  V30 7745 H 739.947 0.338182 0.666064 0
M  V30 7746 H 742.609 1.45107 1.30115 0
M  V30 7747 H 741.705 1.32883 2.82398 0
M  V30 7748 N 742.006 -1.2595 0.947325 0
M  V30 7749 C 742.954 -2.28152 0.452687 0
M  V30 7750 C 743.948 -1.62655 -0.473239 0
M  V30 7751 O 745.154 -1.76549 -0.350774 0
M  V30 7752 H 741.529 -0.741049 0.12787 0
M  V30 7753 H 743.5 -2.67267 1.32707 0
M  V30 7754 C 742.249 -3.46719 -0.26098 0
M  V30 7755 H 741.572 -3.97345 0.442352 0
M  V30 7756 H 743.012 -4.20135 -0.571208 0
M  V30 7757 C 741.471 -3.02605 -1.48094 0
M  V30 7758 O 742.001 -3.07979 -2.57899 0
M  V30 7759 N 740.207 -2.57877 -1.33969 0
M  V30 7760 H 739.754 -2.53704 -0.446295 0
M  V30 7761 H 739.712 -2.28725 -2.15713 0
M  V30 7762 N 743.484 -0.715051 -1.40445 0
M  V30 7763 C 744.714 -0.263576 -2.04912 0
M  V30 7764 C 745.122 1.09943 -1.53978 0
M  V30 7765 O 744.465 1.70203 -0.691133 0
M  V30 7766 C 744.527 -0.165048 -3.59121 0
M  V30 7767 C 744.191 -1.46325 -4.32941 0
M  V30 7768 C 745.188 -2.40506 -4.60926 0
M  V30 7769 C 742.873 -1.72203 -4.7186 0
M  V30 7770 C 744.867 -3.58812 -5.26814 0
M  V30 7771 C 742.554 -2.9079 -5.3748 0
M  V30 7772 C 743.552 -3.83917 -5.64887 0
M  V30 7773 O 743.24 -5.00424 -6.29151 0
M  V30 7774 H 742.972 -0.116317 -0.665918 0
M  V30 7775 H 745.526 -0.973774 -1.8085 0
M  V30 7776 H 743.756 0.601088 -3.82 0
M  V30 7777 H 745.445 0.251794 -4.05118 0
M  V30 7778 H 746.211 -2.21778 -4.31323 0
M  V30 7779 H 742.09 -1.00571 -4.49896 0
M  V30 7780 H 745.634 -4.31517 -5.48123 0
M  V30 7781 H 741.531 -3.09428 -5.66502 0
M  V30 7782 H 742.299 -5.00494 -6.47648 0
M  V30 7783 N 744.962 1.50701 -0.461195 0
M  V30 7784 C 746.187 2.07171 0.0974773 0
M  V30 7785 C 746.612 1.32391 1.3362 0
M  V30 7786 O 745.97 0.368676 1.77512 0
M  V30 7787 C 746.018 3.58651 0.374409 0
M  V30 7788 O 745.122 3.85816 1.4567 0
M  V30 7789 H 744.463 0.663944 -0.00862047 0
M  V30 7790 H 746.993 1.94021 -0.649394 0
M  V30 7791 H 747.003 4.03295 0.617843 0
M  V30 7792 H 745.678 4.12498 -0.530829 0
M  V30 7793 H 744.255 3.53018 1.20136 0
M  V30 7794 N 746.441 0.193421 1.56409 0
M  V30 7795 C 747.689 -0.444908 1.97142 0
M  V30 7796 C 748.01 -1.62268 1.08139 0
M  V30 7797 O 747.28 -1.95307 0.152326 0
M  V30 7798 H 745.86 -0.16736 0.728011 0
M  V30 7799 H 748.522 0.279763 1.92882 0
M  V30 7800 H 747.618 -0.790159 3.01932 0
M  V30 7801 N 747.919 -1.57396 -0.0801906 0
M  V30 7802 C 749.144 -1.91437 -0.797909 0
M  V30 7803 C 749.569 -0.789075 -1.70749 0
M  V30 7804 O 748.927 0.25857 -1.79447 0
M  V30 7805 C 748.975 -3.24402 -1.57467 0
M  V30 7806 O 748.079 -3.13043 -2.68473 0
M  V30 7807 H 747.42 -0.627109 -0.218243 0
M  V30 7808 H 749.95 -2.04537 -0.050949 0
M  V30 7809 H 749.96 -3.58072 -1.95571 0
M  V30 7810 H 748.635 -4.05884 -0.907229 0
M  V30 7811 H 747.212 -2.90915 -2.33287 0
M  V30 7812 N 749.397 0.351382 -1.53633 0
M  V30 7813 C 750.622 1.11718 -1.74739 0
M  V30 7814 C 751.047 1.81829 -0.481657 0
M  V30 7815 O 750.405 1.72264 0.565233 0
M  V30 7816 C 750.453 2.11234 -2.92254 0
M  V30 7817 O 749.557 3.186 -2.61855 0
M  V30 7818 H 748.898 0.323482 -0.579875 0
M  V30 7819 H 751.428 0.404167 -2.00568 0
M  V30 7820 H 751.438 2.54591 -3.18822 0
M  V30 7821 H 750.113 1.59599 -3.84058 0
M  V30 7822 H 748.69 2.80115 -2.4615 0
M  V30 7823 N 750.875 1.45233 0.611969 0
M  V30 7824 C 751.825 1.49997 1.71711 0
M  V30 7825 C 752.809 0.363689 1.56736 0
M  V30 7826 O 754.001 0.610261 1.66147 0
M  V30 7827 C 751.13 1.46537 3.10454 0
M  V30 7828 C 750.216 2.65351 3.30831 0
M  V30 7829 N 750.607 3.90485 3.21489 0
M  V30 7830 C 748.905 2.60955 3.61688 0
M  V30 7831 C 749.606 4.69758 3.43078 0
M  V30 7832 N 748.582 4.01141 3.66861 0
M  V30 7833 H 752.384 2.44574 1.62975 0
M  V30 7834 H 749.898 1.40464 0.815082 0
M  V30 7835 H 751.895 1.48035 3.89732 0
M  V30 7836 H 750.555 0.530139 3.20343 0
M  V30 7837 H 751.566 4.22171 2.99987 0
M  V30 7838 H 748.243 1.76319 3.78441 0
M  V30 7839 H 749.633 5.7877 3.41285 0
M  V30 7840 N 752.353 -0.854086 1.3245 0
M  V30 7841 C 753.599 -1.61069 1.23225 0
M  V30 7842 C 753.932 -1.93111 -0.205349 0
M  V30 7843 O 753.207 -1.57397 -1.14265 0
M  V30 7844 C 753.49 -2.93065 2.09249 0
M  V30 7845 C 753.343 -2.67801 3.6139 0
M  V30 7846 C 754.662 -3.94341 1.95406 0
M  V30 7847 H 751.781 -0.584449 0.448986 0
M  V30 7848 H 754.423 -0.986189 1.62402 0
M  V30 7849 H 752.573 -3.46364 1.75967 0
M  V30 7850 H 754.245 -2.21052 4.04887 0
M  V30 7851 H 752.488 -2.01756 3.84027 0
M  V30 7852 H 753.159 -3.6179 4.16907 0
M  V30 7853 H 755.635 -3.50301 2.24562 0
M  V30 7854 H 754.511 -4.84555 2.57872 0
M  V30 7855 H 754.772 -4.32382 0.921865 0
M  V30 7856 N 753.831 -1.1567 -1.07043 0
M  V30 7857 C 755.077 -0.9349 -1.79965 0
M  V30 7858 C 755.41 0.536464 -1.86643 0
M  V30 7859 O 754.685 1.39781 -1.35247 0
M  V30 7860 C 754.968 -1.55371 -3.24857 0
M  V30 7861 C 754.821 -3.09589 -3.26305 0
M  V30 7862 C 756.14 -1.24209 -4.22209 0
M  V30 7863 H 753.259 -0.341061 -0.653335 0
M  V30 7864 H 755.901 -1.42883 -1.25237 0
M  V30 7865 H 754.051 -1.13368 -3.71591 0
M  V30 7866 H 755.723 -3.60521 -2.87789 0
M  V30 7867 H 753.966 -3.43315 -2.65174 0
M  V30 7868 H 754.637 -3.48002 -4.28484 0
M  V30 7869 H 757.113 -1.60548 -3.8388 0
M  V30 7870 H 755.989 -1.70119 -5.21872 0
M  V30 7871 H 756.25 -0.15964 -4.41812 0
M  V30 7872 N 755.309 1.25446 -0.953992 0
M  V30 7873 C 756.239 2.28264 -0.491717 0
M  V30 7874 C 757.22 1.63717 0.461617 0
M  V30 7875 O 758.405 1.90821 0.36071 0
M  V30 7876 C 755.535 3.46525 0.231915 0
M  V30 7877 C 754.489 4.23247 -0.636098 0
M  V30 7878 C 753.815 5.34254 0.218238 0
M  V30 7879 C 755.115 4.85971 -1.91389 0
M  V30 7880 H 756.809 2.67183 -1.35106 0
M  V30 7881 H 754.355 1.2844 -0.651095 0
M  V30 7882 H 756.308 4.17576 0.566439 0
M  V30 7883 H 755.032 3.06594 1.12551 0
M  V30 7884 H 753.691 3.53978 -0.953696 0
M  V30 7885 H 753.339 4.90564 1.11156 0
M  V30 7886 H 753.039 5.86501 -0.359232 0
M  V30 7887 H 754.563 6.08138 0.547743 0
M  V30 7888 H 755.977 5.49168 -1.64581 0
M  V30 7889 H 754.374 5.48391 -2.43696 0
M  V30 7890 H 755.444 4.08192 -2.61738 0
M  V30 7891 N 756.787 0.722489 1.40064 0
M  V30 7892 C 758.064 0.191829 1.94657 0
M  V30 7893 C 758.444 -1.30389 1.66018 0
M  V30 7894 O 757.792 -2.06342 0.981588 0
M  V30 7895 C 758.002 0.511978 3.45224 0
M  V30 7896 C 759.35 0.454426 4.22161 0
M  V30 7897 O 760.374 0.448438 3.53366 0
M  V30 7898 O 759.233 0.437986 5.44742 0
M  V30 7899 H 756.327 0.0307821 0.826427 0
M  V30 7900 H 758.873 0.800493 1.49634 0
M  V30 7901 H 757.645 1.54622 3.59455 0
M  V30 7902 H 757.268 -0.126296 3.97399 0
M  V30 7903 N 758.265 -1.50454 0.469181 0
M  V30 7904 C 759.215 -2.25381 -0.344582 0
M  V30 7905 C 760.199 -1.28892 -0.963098 0
M  V30 7906 O 761.391 -1.53805 -0.875964 0
M  V30 7907 C 758.52 -3.12232 -1.4271 0
M  V30 7908 C 757.606 -4.16168 -0.816411 0
M  V30 7909 N 757.997 -5.05762 0.0621424 0
M  V30 7910 C 756.295 -4.32712 -1.08056 0
M  V30 7911 C 756.996 -5.80264 0.408519 0
M  V30 7912 N 755.972 -5.43171 -0.215827 0
M  V30 7913 H 759.774 -2.92016 0.332237 0
M  V30 7914 H 757.288 -1.59911 0.283209 0
M  V30 7915 H 759.285 -3.64514 -2.02324 0
M  V30 7916 H 757.945 -2.47145 -2.10593 0
M  V30 7917 H 758.956 -5.16105 0.430841 0
M  V30 7918 H 755.633 -3.78844 -1.75452 0
M  V30 7919 H 757.023 -6.62408 1.12539 0
M  V30 7920 N 759.743 -0.201713 -1.56304 0
M  V30 7921 C 760.653 0.728296 -2.23009 0
M  V30 7922 C 761.669 1.22945 -1.23128 0
M  V30 7923 O 762.845 1.27523 -1.55884 0
M  V30 7924 C 759.91 1.92792 -2.88153 0
M  V30 7925 C 758.971 1.47068 -4.03323 0
M  V30 7926 C 758.204 2.61312 -4.65351 0
M  V30 7927 O 758.427 3.7896 -4.26317 0
M  V30 7928 O 757.361 2.33646 -5.54701 0
M  V30 7929 H 761.187 0.190166 -3.03104 0
M  V30 7930 H 758.772 0.0278725 -1.49374 0
M  V30 7931 H 760.654 2.6289 -3.29343 0
M  V30 7932 H 759.329 2.45452 -2.11033 0
M  V30 7933 H 758.236 0.738299 -3.66742 0
M  V30 7934 H 759.569 0.990666 -4.82127 0
M  V30 7935 N 761.222 1.57436 0.0718424 0
M  V30 7936 C 762.45 1.91474 0.783932 0
M  V30 7937 C 762.865 0.797669 1.71122 0
M  V30 7938 O 762.222 -0.228989 1.81058 0
M  V30 7939 C 762.273 3.25259 1.57761 0
M  V30 7940 O 761.994 4.3267 0.687596 0
M  V30 7941 C 763.495 3.7331 2.3907 0
M  V30 7942 H 760.715 0.632901 0.222885 0
M  V30 7943 H 763.259 2.04457 0.0421262 0
M  V30 7944 H 761.414 3.13804 2.27169 0
M  V30 7945 H 761.828 5.09641 1.23962 0
M  V30 7946 H 763.302 4.69551 2.90216 0
M  V30 7947 H 763.779 3.02318 3.18591 0
M  V30 7948 H 764.385 3.8771 1.74818 0
M  V30 7949 N 762.7 -0.34323 1.53817 0
M  V30 7950 C 763.93 -1.10188 1.74763 0
M  V30 7951 C 764.338 -1.82829 0.486856 0
M  V30 7952 O 763.681 -1.75236 -0.551198 0
M  V30 7953 C 763.743 -2.16 2.87375 0
M  V30 7954 C 763.407 -1.62931 4.26969 0
M  V30 7955 C 764.404 -1.08147 5.08528 0
M  V30 7956 C 762.089 -1.67769 4.73454 0
M  V30 7957 C 764.083 -0.589039 6.34672 0
M  V30 7958 C 761.77 -1.18138 5.99572 0
M  V30 7959 C 762.768 -0.637979 6.80014 0
M  V30 7960 O 762.456 -0.149073 8.03762 0
M  V30 7961 H 762.188 -0.33445 0.587469 0
M  V30 7962 H 764.742 -0.401109 2.01445 0
M  V30 7963 H 762.972 -2.89637 2.56218 0
M  V30 7964 H 764.661 -2.77432 2.96287 0
M  V30 7965 H 765.427 -1.03732 4.73777 0
M  V30 7966 H 761.306 -2.09004 4.10899 0
M  V30 7967 H 764.85 -0.164233 6.97407 0
M  V30 7968 H 760.747 -1.22254 6.33817 0
M  V30 7969 H 761.515 -0.266332 8.18067 0
M  V30 7970 N 764.178 -1.45556 -0.604258 0
M  V30 7971 C 765.427 -1.49019 -1.35928 0
M  V30 7972 C 765.74 -0.137409 -1.95117 0
M  V30 7973 O 766.946 -0.0497032 -2.71455 0
M  V30 7974 C 765.402 -2.62477 -2.46239 0
M  V30 7975 C 765.01 -4.04082 -1.93447 0
M  V30 7976 C 766.754 -2.7519 -3.23219 0
M  V30 7977 C 764.661 -5.08917 -3.0126 0
M  V30 7978 H 763.591 -0.554518 -0.510907 0
M  V30 7979 H 766.242 -1.71705 -0.647262 0
M  V30 7980 H 764.624 -2.3308 -3.2014 0
M  V30 7981 H 765.798 -4.43173 -1.26232 0
M  V30 7982 H 764.113 -3.95849 -1.29201 0
M  V30 7983 H 766.71 -3.50683 -4.0364 0
M  V30 7984 H 767.053 -1.81941 -3.74437 0
M  V30 7985 H 767.586 -3.04129 -2.56418 0
M  V30 7986 H 764.325 -6.03886 -2.54955 0
M  V30 7987 H 763.845 -4.74393 -3.67031 0
M  V30 7988 H 765.524 -5.33814 -3.65584 0
M  V30 7989 N 765.656 0.84705 -1.32902 0
M  V30 7990 C 766.586 1.97166 -1.25091 0
M  V30 7991 C 767.567 1.69578 -0.133161 0
M  V30 7992 O 768.752 1.91519 -0.321591 0
M  V30 7993 C 765.882 3.33157 -0.981006 0
M  V30 7994 C 764.836 3.75119 -2.06082 0
M  V30 7995 C 764.162 5.08826 -1.64318 0
M  V30 7996 C 765.462 3.89774 -3.47669 0
M  V30 7997 H 767.156 2.03958 -2.19184 0
M  V30 7998 H 764.702 0.979907 -1.05517 0
M  V30 7999 H 766.655 4.11393 -0.912891 0
M  V30 8000 H 765.379 3.266 -0.00445559 0
M  V30 8001 H 764.038 2.9914 -2.11921 0
M  V30 8002 H 763.686 4.98732 -0.653876 0
M  V30 8003 H 763.386 5.37873 -2.36572 0
M  V30 8004 H 764.91 5.89546 -1.58958 0
M  V30 8005 H 766.324 4.58343 -3.44376 0
M  V30 8006 H 764.721 4.30248 -4.18338 0
M  V30 8007 H 765.791 2.92463 -3.86773 0
M  V30 8008 N 767.134 1.16236 1.06428 0
M  V30 8009 C 768.082 0.863669 2.15971 0
M  V30 8010 C 769.076 -0.166723 1.68578 0
M  V30 8011 O 770.282 -0.0208425 1.79988 0
M  V30 8012 H 766.657 0.261684 0.705 0
M  V30 8013 H 768.628 1.79498 2.38376 0
M  V30 8014 C 767.377 0.379697 3.45621 0
M  V30 8015 H 766.7 1.16399 3.82481 0
M  V30 8016 H 768.14 0.209458 4.23482 0
M  V30 8017 C 766.599 -0.900499 3.24642 0
M  V30 8018 O 767.129 -1.97004 3.50074 0
M  V30 8019 N 765.335 -0.843721 2.78082 0
M  V30 8020 H 764.882 0.0268429 2.57586 0
M  V30 8021 H 764.84 -1.70078 2.64425 0
M  V30 8022 N 768.612 -1.24939 0.960631 0
M  V30 8023 C 769.542 -2.28 0.503815 0
M  V30 8024 C 770.523 -1.63959 -0.452928 0
M  V30 8025 O 771.708 -1.91009 -0.350585 0
M  V30 8026 C 768.838 -3.46643 -0.213535 0
M  V30 8027 C 767.792 -4.22903 0.658535 0
M  V30 8028 C 767.118 -5.34363 -0.189902 0
M  V30 8029 C 768.418 -4.84949 1.93963 0
M  V30 8030 H 770.112 -2.66462 1.36521 0
M  V30 8031 H 767.658 -1.28093 0.657897 0
M  V30 8032 H 769.611 -4.1787 -0.544286 0
M  V30 8033 H 768.335 -3.07187 -1.10923 0
M  V30 8034 H 766.994 -3.53467 0.972455 0
M  V30 8035 H 766.642 -4.91147 -1.08553 0
M  V30 8036 H 766.342 -5.86302 0.390331 0
M  V30 8037 H 767.866 -6.0842 -0.515484 0
M  V30 8038 H 769.28 -5.48288 1.67491 0
M  V30 8039 H 767.677 -5.47091 2.46601 0
M  V30 8040 H 768.747 -4.06799 2.639 0
M  V30 8041 N 770.09 -0.729906 -1.39679 0
M  V30 8042 C 771.318 -0.285709 -2.04918 0
M  V30 8043 C 771.733 1.07765 -1.55023 0
M  V30 8044 O 771.09 1.67999 -0.712923 0
M  V30 8045 C 771.141 -0.272793 -3.60469 0
M  V30 8046 O 770.862 -1.58233 -4.08527 0
M  V30 8047 C 772.363 0.188199 -4.429 0
M  V30 8048 H 769.583 -0.125758 -0.65911 0
M  V30 8049 H 772.127 -0.992129 -1.78821 0
M  V30 8050 H 770.282 0.384699 -3.85485 0
M  V30 8051 H 770.696 -1.49245 -5.02818 0
M  V30 8052 H 772.17 0.14608 -5.51807 0
M  V30 8053 H 772.647 1.2326 -4.21549 0
M  V30 8054 H 773.253 -0.439541 -4.23023 0
M  V30 8055 N 771.568 1.50203 -0.477153 0
M  V30 8056 C 772.5 2.26508 0.350239 0
M  V30 8057 C 773.513 1.32081 0.95176 0
M  V30 8058 O 774.702 1.57546 0.839139 0
M  V30 8059 C 771.802 3.0361 1.50579 0
M  V30 8060 C 770.975 4.25438 1.01595 0
M  V30 8061 C 770.034 4.84783 2.04626 0
M  V30 8062 O 769.06 5.45528 1.62442 0
M  V30 8063 N 770.262 4.72318 3.37485 0
M  V30 8064 H 773.027 2.98155 -0.30394 0
M  V30 8065 H 770.588 1.58938 -0.308289 0
M  V30 8066 H 772.58 3.4019 2.1921 0
M  V30 8067 H 771.15 2.34724 2.06455 0
M  V30 8068 H 770.37 3.93894 0.155316 0
M  V30 8069 H 771.658 5.04413 0.666694 0
M  V30 8070 H 771.056 4.24022 3.74462 0
M  V30 8071 H 769.613 5.13149 4.01897 0
M  V30 8072 N 773.046 0.209999 1.56195 0
M  V30 8073 C 774.009 -0.691232 2.18528 0
M  V30 8074 C 775.009 -1.13013 1.14388 0
M  V30 8075 O 776.199 -1.04081 1.39688 0
M  V30 8076 C 773.331 -1.94551 2.79934 0
M  V30 8077 H 774.524 -0.147953 2.99535 0
M  V30 8078 H 772.077 -0.0396243 1.5625 0
M  V30 8079 H 772.812 -2.53094 2.02766 0
M  V30 8080 H 772.597 -1.63938 3.56184 0
M  V30 8081 H 774.087 -2.58785 3.2775 0
M  V30 8082 N 774.524 -1.57472 -0.0634922 0
M  V30 8083 C 775.472 -2.05307 -1.09323 0
M  V30 8084 C 776.466 -0.959995 -1.39572 0
M  V30 8085 O 777.672 -1.14507 -1.38882 0
M  V30 8086 H 774.047 -0.65472 -0.369927 0
M  V30 8087 H 776.018 -2.90925 -0.663707 0
M  V30 8088 C 774.767 -2.51954 -2.39613 0
M  V30 8089 H 774.09 -3.35662 -2.1719 0
M  V30 8090 H 775.53 -2.89169 -3.10092 0
M  V30 8091 C 773.989 -1.40596 -3.06161 0
M  V30 8092 O 774.519 -0.752722 -3.94585 0
M  V30 8093 N 772.725 -1.14902 -2.66919 0
M  V30 8094 H 772.272 -1.68205 -1.95102 0
M  V30 8095 H 772.23 -0.406006 -3.11767 0
M  V30 8096 N 776.003 0.335068 -1.53997 0
M  V30 8097 C 777.252 1.07182 -1.70865 0
M  V30 8098 C 777.565 1.89541 -0.483078 0
M  V30 8099 O 778.771 2.66219 -0.532879 0
M  V30 8100 C 777.227 1.95497 -3.02174 0
M  V30 8101 C 776.835 1.18304 -4.32097 0
M  V30 8102 C 778.579 2.68978 -3.28407 0
M  V30 8103 C 776.486 2.05699 -5.54474 0
M  V30 8104 H 775.416 0.403857 -0.636722 0
M  V30 8105 H 778.067 0.33076 -1.80494 0
M  V30 8106 H 776.449 2.73456 -2.86423 0
M  V30 8107 H 777.623 0.451969 -4.58578 0
M  V30 8108 H 775.938 0.565556 -4.12541 0
M  V30 8109 H 778.535 3.34651 -4.17029 0
M  V30 8110 H 778.878 3.36 -2.45784 0
M  V30 8111 H 779.411 1.98087 -3.44973 0
M  V30 8112 H 776.15 1.43204 -6.39666 0
M  V30 8113 H 775.67 2.76572 -5.32229 0
M  V30 8114 H 777.349 2.64554 -5.90441 0
M  V30 8115 N 777.481 1.45874 0.596531 0
M  V30 8116 C 778.892 1.44798 1.17857 0
M  V30 8117 C 779.243 0.181443 1.95359 0
M  V30 8118 O 778.368 -0.716336 2.042 0
M  V30 8119 C 778.963 2.62333 2.14398 0
M  V30 8120 C 777.522 2.64342 2.67955 0
M  V30 8121 C 776.669 2.37244 1.43564 0
M  V30 8122 H 779.62 1.53954 0.385222 0
M  V30 8123 H 779.641 2.37063 2.97626 0
M  V30 8124 H 779.153 3.54499 1.57963 0
M  V30 8125 H 777.254 1.76213 3.28298 0
M  V30 8126 H 777.367 3.63897 3.11634 0
M  V30 8127 H 775.731 1.87022 1.72901 0
M  V30 8128 H 776.514 3.31568 0.889805 0
M  V30 8129 N 778.959 -0.83999 1.33349 0
M  V30 8130 C 780.207 -1.59202 1.24496 0
M  V30 8131 C 780.528 -1.94077 -0.189499 0
M  V30 8132 O 779.798 -1.60868 -1.11796 0
M  V30 8133 H 778.378 -0.590276 0.457802 0
M  V30 8134 H 781.04 -1.00394 1.67054 0
M  V30 8135 H 780.136 -2.52247 1.83788 0
M  V30 8136 N 780.437 -1.16799 -1.0581 0
M  V30 8137 C 781.4 -0.881396 -2.11575 0
M  V30 8138 C 782.4 0.12574 -1.60308 0
M  V30 8139 O 783.59 -0.105716 -1.73879 0
M  V30 8140 C 780.722 -0.319037 -3.39404 0
M  V30 8141 H 781.915 -1.81907 -2.38432 0
M  V30 8142 H 779.468 -0.977597 -1.21954 0
M  V30 8143 H 780.203 0.626082 -3.18199 0
M  V30 8144 H 779.988 -1.04481 -3.77923 0
M  V30 8145 H 781.478 -0.13663 -4.17376 0
M  V30 8146 N 781.915 1.24427 -0.967243 0
M  V30 8147 C 783.164 1.91789 -0.624478 0
M  V30 8148 C 783.477 1.76448 0.844129 0
M  V30 8149 O 784.683 2.38495 1.2974 0
M  V30 8150 C 783.139 3.43743 -1.06626 0
M  V30 8151 C 782.747 3.67771 -2.55829 0
M  V30 8152 C 784.491 4.16958 -0.79662 0
M  V30 8153 C 782.398 5.13293 -2.93742 0
M  V30 8154 H 781.328 0.71811 -0.229856 0
M  V30 8155 H 783.979 1.41081 -1.17339 0
M  V30 8156 H 782.361 3.93484 -0.445663 0
M  V30 8157 H 783.535 3.28631 -3.23015 0
M  V30 8158 H 781.85 3.07841 -2.80398 0
M  V30 8159 H 784.447 5.24171 -1.05589 0
M  V30 8160 H 784.79 4.15442 0.267163 0
M  V30 8161 H 785.323 3.73164 -1.37816 0
M  V30 8162 H 782.062 5.19931 -3.9919 0
M  V30 8163 H 781.582 5.53433 -2.3124 0
M  V30 8164 H 783.261 5.81521 -2.83623 0
M  V30 8165 N 783.393 0.737304 1.3929 0
M  V30 8166 C 784.804 0.355966 1.83275 0
M  V30 8167 C 785.155 -1.11295 1.6158 0
M  V30 8168 O 784.28 -1.85871 1.10819 0
M  V30 8169 C 784.875 0.63931 3.32713 0
M  V30 8170 C 783.434 0.31144 3.75109 0
M  V30 8171 C 782.581 0.900765 2.62262 0
M  V30 8172 H 785.532 0.934763 1.28249 0
M  V30 8173 H 785.553 -0.0881293 3.80398 0
M  V30 8174 H 785.065 1.70847 3.48472 0
M  V30 8175 H 783.166 -0.751791 3.64937 0
M  V30 8176 H 783.279 0.795611 4.72448 0
M  V30 8177 H 781.643 0.327239 2.52589 0
M  V30 8178 H 782.426 1.97463 2.80826 0
M  V30 8179 N 784.871 -1.49948 0.485112 0
M  V30 8180 C 785.821 -2.25734 -0.320658 0
M  V30 8181 C 786.805 -1.29907 -0.949373 0
M  V30 8182 O 787.997 -1.54725 -0.859601 0
M  V30 8183 C 785.126 -3.13728 -1.39391 0
M  V30 8184 C 784.212 -4.1701 -0.772225 0
M  V30 8185 N 784.603 -5.05667 0.115782 0
M  V30 8186 C 782.901 -4.33834 -1.03461 0
M  V30 8187 C 783.602 -5.79798 0.47004 0
M  V30 8188 N 782.578 -5.4337 -0.158204 0
M  V30 8189 H 786.38 -2.91647 0.36319 0
M  V30 8190 H 783.894 -1.59602 0.300154 0
M  V30 8191 H 785.891 -3.66639 -1.98447 0
M  V30 8192 H 784.551 -2.49365 -2.0796 0
M  V30 8193 H 785.562 -5.15619 0.485557 0
M  V30 8194 H 782.239 -3.80684 -1.71424 0
M  V30 8195 H 783.629 -6.61177 1.19558 0
M  V30 8196 N 786.349 -0.21828 -1.56081 0
M  V30 8197 C 787.595 0.408181 -1.99262 0
M  V30 8198 C 787.95 1.57618 -1.10337 0
M  V30 8199 O 787.243 1.90991 -0.15263 0
M  V30 8200 C 787.437 0.894782 -3.46018 0
M  V30 8201 C 787.266 -0.224528 -4.49139 0
M  V30 8202 C 786.036 -0.689843 -5.00569 0
M  V30 8203 C 788.234 -1.04165 -5.03641 0
M  V30 8204 N 786.216 -1.78455 -5.8739 0
M  V30 8205 C 787.587 -1.98529 -5.87355 0
M  V30 8206 C 789.642 -1.08146 -4.86013 0
M  V30 8207 C 788.345 -2.96549 -6.55325 0
M  V30 8208 C 790.371 -2.04982 -5.5474 0
M  V30 8209 C 789.733 -2.98086 -6.38219 0
M  V30 8210 H 785.832 0.116127 -0.77333 0
M  V30 8211 H 788.416 -0.3293 -1.91895 0
M  V30 8212 H 786.587 1.60163 -3.53839 0
M  V30 8213 H 788.319 1.49379 -3.76122 0
M  V30 8214 H 785.074 -0.279021 -4.72777 0
M  V30 8215 H 785.498 -2.33381 -6.35502 0
M  V30 8216 H 790.14 -0.375581 -4.21129 0
M  V30 8217 H 787.858 -3.68101 -7.19394 0
M  V30 8218 H 791.444 -2.08732 -5.43067 0
M  V30 8219 H 790.324 -3.71794 -6.90463 0
M  V30 8220 N 787.827 1.57504 0.0551401 0
M  V30 8221 C 788.759 2.0158 1.09078 0
M  V30 8222 C 789.772 0.92434 1.34014 0
M  V30 8223 O 790.961 1.20202 1.31961 0
M  V30 8224 C 788.061 2.35385 2.43818 0
M  V30 8225 C 787.234 3.66588 2.38605 0
M  V30 8226 C 786.293 3.87874 3.55585 0
M  V30 8227 O 785.319 4.59259 3.36258 0
M  V30 8228 N 786.521 3.31503 4.76536 0
M  V30 8229 H 789.286 2.91039 0.71529 0
M  V30 8230 H 786.847 1.60058 0.243532 0
M  V30 8231 H 788.839 2.46784 3.20749 0
M  V30 8232 H 787.409 1.51731 2.73307 0
M  V30 8233 H 786.629 3.65787 1.46947 0
M  V30 8234 H 787.917 4.52706 2.32239 0
M  V30 8235 H 787.315 2.73592 4.9514 0
M  V30 8236 H 785.872 3.48324 5.50921 0
M  V30 8237 N 789.305 -0.326896 1.54172 0
M  V30 8238 C 790.235 -1.40741 1.86317 0
M  V30 8239 C 791.216 -1.54125 0.719684 0
M  V30 8240 O 792.401 -1.6806 0.973117 0
M  V30 8241 C 789.531 -2.77557 2.08757 0
M  V30 8242 C 788.485 -2.78965 3.24596 0
M  V30 8243 C 787.811 -4.18824 3.32401 0
M  V30 8244 C 789.111 -2.4301 4.62324 0
M  V30 8245 H 790.805 -1.14088 2.76811 0
M  V30 8246 H 788.351 -0.547389 1.3319 0
M  V30 8247 H 790.304 -3.53209 2.29829 0
M  V30 8248 H 789.028 -3.0568 1.15009 0
M  V30 8249 H 787.687 -2.05767 3.03406 0
M  V30 8250 H 787.335 -4.44083 2.36218 0
M  V30 8251 H 787.035 -4.20673 4.10253 0
M  V30 8252 H 788.559 -4.96294 3.55703 0
M  V30 8253 H 789.973 -3.08375 4.83299 0
M  V30 8254 H 788.37 -2.56116 5.42701 0
M  V30 8255 H 789.44 -1.38165 4.64799 0
M  V30 8256 N 790.784 -1.46188 -0.588786 0
M  V30 8257 C 791.714 -1.59148 -1.70863 0
M  V30 8258 C 792.695 -0.442083 -1.64255 0
M  V30 8259 O 793.88 -0.667575 -1.82365 0
M  V30 8260 C 791.01 -1.5757 -3.09498 0
M  V30 8261 C 789.964 -2.71418 -3.30932 0
M  V30 8262 C 789.29 -2.549 -4.70032 0
M  V30 8263 C 790.59 -4.1329 -3.19356 0
M  V30 8264 H 792.284 -2.52889 -1.60274 0
M  V30 8265 H 789.83 -1.21707 -0.769638 0
M  V30 8266 H 791.783 -1.65231 -3.87655 0
M  V30 8267 H 790.507 -0.603705 -3.20972 0
M  V30 8268 H 789.166 -2.63216 -2.55172 0
M  V30 8269 H 788.814 -1.55797 -4.78264 0
M  V30 8270 H 788.514 -3.31257 -4.85327 0
M  V30 8271 H 790.038 -2.64443 -5.50366 0
M  V30 8272 H 791.452 -4.22636 -3.87365 0
M  V30 8273 H 789.849 -4.90187 -3.46175 0
M  V30 8274 H 790.919 -4.33874 -2.16522 0
M  V30 8275 N 792.262 0.832906 -1.33792 0
M  V30 8276 C 793.492 1.61813 -1.28453 0
M  V30 8277 C 793.9 1.88639 0.145595 0
M  V30 8278 O 793.243 1.47122 1.10004 0
M  V30 8279 C 793.305 2.98929 -1.99704 0
M  V30 8280 C 792.969 2.95045 -3.48995 0
M  V30 8281 C 793.966 2.70337 -4.44088 0
M  V30 8282 C 791.651 3.14993 -3.91261 0
M  V30 8283 C 793.645 2.65612 -5.79421 0
M  V30 8284 C 791.332 3.09893 -5.26697 0
M  V30 8285 C 792.33 2.85235 -6.20588 0
M  V30 8286 O 792.018 2.8005 -7.53543 0
M  V30 8287 H 791.75 0.510013 -0.443693 0
M  V30 8288 H 794.304 1.04514 -1.76822 0
M  V30 8289 H 792.534 3.58106 -1.45935 0
M  V30 8290 H 794.223 3.59849 -1.87786 0
M  V30 8291 H 794.989 2.54671 -4.12756 0
M  V30 8292 H 790.868 3.33204 -3.18584 0
M  V30 8293 H 794.412 2.46285 -6.52679 0
M  V30 8294 H 790.309 3.2511 -5.5765 0
M  V30 8295 H 791.077 2.95849 -7.63162 0
M  V30 8296 N 793.74 1.17359 1.05189 0
M  V30 8297 C 795.156 0.920861 1.30355 0
M  V30 8298 C 795.356 -0.419993 1.97074 0
M  V30 8299 O 794.412 -1.15696 2.24434 0
M  V30 8300 C 795.725 2.07818 2.1733 0
M  V30 8301 C 797.273 2.1152 2.30712 0
M  V30 8302 C 797.748 3.26637 3.21048 0
M  V30 8303 N 799.239 3.26426 3.28634 0
M  V30 8304 C 799.974 4.12141 3.98657 0
M  V30 8305 N 799.47 5.07966 4.71107 0
M  V30 8306 N 801.263 4.00091 3.94821 0
M  V30 8307 H 793.414 2.03666 0.602821 0
M  V30 8308 H 795.677 0.889294 0.328421 0
M  V30 8309 H 795.383 3.04727 1.75597 0
M  V30 8310 H 795.257 2.02922 3.17966 0
M  V30 8311 H 797.644 1.15196 2.71687 0
M  V30 8312 H 797.725 2.20477 1.29706 0
M  V30 8313 H 797.369 4.23227 2.80788 0
M  V30 8314 H 797.299 3.14917 4.2206 0
M  V30 8315 H 799.79 2.57045 2.77013 0
M  V30 8316 H 800.103 5.69766 5.22099 0
M  V30 8317 H 798.448 5.11936 4.7005 0
M  V30 8318 H 801.639 3.24523 3.37346 0
M  V30 8319 H 801.812 4.6711 4.49123 0
M  V30 8320 N 795.218 -1.23913 0.973828 0
M  V30 8321 C 796.181 -2.23367 0.51378 0
M  V30 8322 C 797.181 -1.55923 -0.39302 0
M  V30 8323 O 798.371 -1.73187 -0.187626 0
M  V30 8324 C 795.503 -3.39944 -0.255152 0
M  V30 8325 H 796.696 -2.65581 1.39307 0
M  V30 8326 H 794.249 -1.36632 0.759039 0
M  V30 8327 H 794.984 -3.03177 -1.15127 0
M  V30 8328 H 794.769 -3.90098 0.395673 0
M  V30 8329 H 796.259 -4.13749 -0.565842 0
M  V30 8330 N 796.696 -0.74468 -1.38897 0
M  V30 8331 C 798.112 -0.421302 -1.53939 0
M  V30 8332 C 798.312 1.06668 -1.70951 0
M  V30 8333 O 797.368 1.85278 -1.71547 0
M  V30 8334 C 798.681 -1.21278 -2.75159 0
M  V30 8335 C 800.229 -1.20196 -2.89001 0
M  V30 8336 C 800.704 -1.97621 -4.13171 0
M  V30 8337 N 802.195 -1.94836 -4.2023 0
M  V30 8338 C 802.93 -2.51545 -5.15279 0
M  V30 8339 N 802.426 -3.1693 -6.16058 0
M  V30 8340 N 804.219 -2.41524 -5.07565 0
M  V30 8341 H 796.37 -1.70914 -1.26103 0
M  V30 8342 H 798.633 -0.724058 -0.611919 0
M  V30 8343 H 798.339 -2.26609 -2.68963 0
M  V30 8344 H 798.213 -0.823677 -3.68097 0
M  V30 8345 H 800.6 -0.156742 -2.94683 0
M  V30 8346 H 800.681 -1.63051 -1.97099 0
M  V30 8347 H 800.325 -3.02149 -4.0825 0
M  V30 8348 H 800.255 -1.52166 -5.04136 0
M  V30 8349 H 802.746 -1.4721 -3.48048 0
M  V30 8350 H 803.059 -3.57644 -6.85062 0
M  V30 8351 H 801.404 -3.21023 -6.16417 0
M  V30 8352 H 804.595 -1.90077 -4.27771 0
M  V30 8353 H 804.768 -2.86016 -5.81462 0
M  V30 8354 N 798.174 1.49689 -0.493057 0
M  V30 8355 C 799.084 2.32746 0.294358 0
M  V30 8356 C 800.1 1.44117 0.975003 0
M  V30 8357 O 801.276 1.77149 0.958138 0
M  V30 8358 C 798.341 3.19358 1.34949 0
M  V30 8359 C 797.402 4.2383 0.683122 0
M  V30 8360 C 796.635 5.06303 1.68798 0
M  V30 8361 O 796.858 4.90172 2.91698 0
M  V30 8362 O 795.792 5.88826 1.24768 0
M  V30 8363 H 799.618 3.01247 -0.385254 0
M  V30 8364 H 797.203 1.47216 -0.254519 0
M  V30 8365 H 799.085 3.73037 1.96014 0
M  V30 8366 H 797.76 2.53561 2.01217 0
M  V30 8367 H 796.667 3.74086 0.0329351 0
M  V30 8368 H 798 4.9216 0.0630192 0
M  V30 8369 N 799.652 0.226554 1.55963 0
M  V30 8370 C 800.88 -0.408507 2.02827 0
M  V30 8371 C 801.295 -1.52994 1.10627 0
M  V30 8372 O 800.652 -1.82126 0.116809 0
M  V30 8373 C 800.703 -0.93545 3.49187 0
M  V30 8374 O 800.424 0.141273 4.37872 0
M  V30 8375 C 801.925 -1.64325 4.11719 0
M  V30 8376 H 799.145 -0.099442 0.66359 0
M  V30 8377 H 801.689 0.344471 2.01578 0
M  V30 8378 H 799.844 -1.63868 3.51036 0
M  V30 8379 H 800.258 -0.25558 5.23877 0
M  V30 8380 H 801.732 -1.9639 5.15883 0
M  V30 8381 H 802.209 -2.55815 3.57009 0
M  V30 8382 H 802.815 -0.9851 4.13734 0
M  V30 8383 N 801.13 -1.57531 -0.0467866 0
M  V30 8384 C 802.36 -1.92417 -0.752279 0
M  V30 8385 C 802.768 -0.823134 -1.70356 0
M  V30 8386 O 802.111 0.210598 -1.82489 0
M  V30 8387 C 802.173 -3.22974 -1.57887 0
M  V30 8388 C 801.837 -4.50045 -0.794285 0
M  V30 8389 C 802.834 -5.19799 -0.102368 0
M  V30 8390 C 800.519 -4.96608 -0.754061 0
M  V30 8391 C 802.513 -6.34385 0.619267 0
M  V30 8392 C 800.2 -6.11093 -0.0286682 0
M  V30 8393 C 801.198 -6.79835 0.656772 0
M  V30 8394 O 800.886 -7.92133 1.37042 0
M  V30 8395 H 800.618 -0.640029 -0.217576 0
M  V30 8396 H 803.172 -2.05395 -0.0137438 0
M  V30 8397 H 801.402 -3.06273 -2.3608 0
M  V30 8398 H 803.091 -3.43319 -2.16533 0
M  V30 8399 H 803.857 -4.8484 -0.124589 0
M  V30 8400 H 799.736 -4.42958 -1.27706 0
M  V30 8401 H 803.28 -6.87975 1.15483 0
M  V30 8402 H 799.177 -6.455 -0.00446214 0
M  V30 8403 H 799.945 -8.08394 1.28227 0
M  V30 8404 N 802.608 0.318715 -1.54344 0
M  V30 8405 C 803.856 1.054 -1.72439 0
M  V30 8406 C 804.177 1.88388 -0.503495 0
M  V30 8407 O 803.447 1.89866 0.48246 0
M  V30 8408 H 802.027 0.392124 -0.635805 0
M  V30 8409 H 804.689 0.35398 -1.91659 0
M  V30 8410 H 803.785 1.71726 -2.60608 0
M  V30 8411 N 804.086 1.46499 0.581025 0
M  V30 8412 C 805.016 1.60052 1.70017 0
M  V30 8413 C 805.997 0.450788 1.64018 0
M  V30 8414 O 807.182 0.677237 1.82009 0
M  V30 8415 C 804.312 1.5921 3.08658 0
M  V30 8416 C 803.266 2.73169 3.29488 0
M  V30 8417 C 802.592 2.57389 4.68674 0
M  V30 8418 C 803.892 4.14978 3.1716 0
M  V30 8419 H 805.586 2.53735 1.5893 0
M  V30 8420 H 803.132 1.22113 0.763173 0
M  V30 8421 H 805.085 1.67285 3.86773 0
M  V30 8422 H 803.809 0.620718 3.20647 0
M  V30 8423 H 802.468 2.64566 2.53773 0
M  V30 8424 H 802.116 1.58331 4.77431 0
M  V30 8425 H 801.816 3.33826 4.83564 0
M  V30 8426 H 803.34 2.67358 5.48956 0
M  V30 8427 H 804.754 4.24684 3.85119 0
M  V30 8428 H 803.151 4.92016 3.4357 0
M  V30 8429 H 804.221 4.35016 2.14218 0
M  V30 8430 N 805.565 -0.825799 1.34232 0
M  V30 8431 C 806.976 -1.39835 1.23706 0
M  V30 8432 C 807.327 -1.95709 -0.138649 0
M  V30 8433 O 806.452 -1.89833 -1.03886 0
M  V30 8434 C 807.047 -2.54203 2.23978 0
M  V30 8435 C 805.606 -3.07374 2.17251 0
M  V30 8436 C 804.753 -1.80232 2.10741 0
M  V30 8437 H 807.704 -0.630442 1.4564 0
M  V30 8438 H 807.725 -3.32214 1.8551 0
M  V30 8439 H 807.237 -2.13506 3.24094 0
M  V30 8440 H 805.338 -3.52583 1.20483 0
M  V30 8441 H 805.451 -3.6666 3.08379 0
M  V30 8442 H 803.815 -2.01012 1.56417 0
M  V30 8443 H 804.598 -1.41713 3.12686 0
M  V30 8444 N 807.043 -1.17915 -1.04565 0
M  V30 8445 C 807.991 -0.897919 -2.1457 0
M  V30 8446 C 808.985 0.139883 -1.68821 0
M  V30 8447 O 810.191 -0.00779463 -1.79998 0
M  V30 8448 H 806.566 -0.272867 -0.700748 0
M  V30 8449 H 808.537 -1.83268 -2.3549 0
M  V30 8450 C 807.286 -0.434634 -3.44973 0
M  V30 8451 H 806.609 -1.22469 -3.8058 0
M  V30 8452 H 808.049 -0.276804 -4.23095 0
M  V30 8453 C 806.508 0.848738 -3.26034 0
M  V30 8454 O 807.038 1.9141 -3.53164 0
M  V30 8455 N 805.244 0.799373 -2.79389 0
M  V30 8456 H 804.791 -0.0678192 -2.57511 0
M  V30 8457 H 804.749 1.6585 -2.67098 0
M  V30 8458 N 808.521 1.23394 -0.980386 0
M  V30 8459 C 809.749 1.95844 -0.667286 0
M  V30 8460 C 810.164 1.72574 0.765735 0
M  V30 8461 O 809.521 1.01715 1.51526 0
M  V30 8462 C 809.572 3.48844 -0.948151 0
M  V30 8463 O 809.293 3.71325 -2.32485 0
M  V30 8464 C 810.794 4.38494 -0.651002 0
M  V30 8465 H 808.014 0.623535 -0.247882 0
M  V30 8466 H 810.558 1.56885 -1.31176 0
M  V30 8467 H 808.713 3.85819 -0.349681 0
M  V30 8468 H 809.127 4.65619 -2.41452 0
M  V30 8469 H 810.601 5.44648 -0.897887 0
M  V30 8470 H 811.078 4.37236 0.414922 0
M  V30 8471 H 811.684 4.07127 -1.22995 0
M  V30 8472 N 809.999 0.752036 1.385 0
M  V30 8473 C 810.929 0.138718 2.33088 0
M  V30 8474 C 811.91 -0.705318 1.54788 0
M  V30 8475 O 813.095 -0.646821 1.83112 0
M  V30 8476 C 810.225 -0.75641 3.38963 0
M  V30 8477 C 809.179 -0.0152239 4.27997 0
M  V30 8478 C 808.505 -1.0285 5.24715 0
M  V30 8479 C 809.805 1.15226 5.09431 0
M  V30 8480 H 811.499 0.928852 2.84627 0
M  V30 8481 H 809.045 0.448111 1.3685 0
M  V30 8482 H 810.998 -1.19513 4.04097 0
M  V30 8483 H 809.722 -1.57885 2.85902 0
M  V30 8484 H 808.381 0.404061 3.64366 0
M  V30 8485 H 808.029 -1.84496 4.67943 0
M  V30 8486 H 807.729 -0.537238 5.85139 0
M  V30 8487 H 809.253 -1.46657 5.92726 0
M  V30 8488 H 810.667 0.791161 5.67815 0
M  V30 8489 H 809.064 1.57428 5.79082 0
M  V30 8490 H 810.134 1.9659 4.43261 0
M  V30 8491 N 811.477 -1.49425 0.500989 0
M  V30 8492 C 812.888 -1.86624 0.0532011 0
M  V30 8493 C 813.239 -1.41331 -1.36088 0
M  V30 8494 O 812.364 -0.791195 -2.01418 0
M  V30 8495 C 812.959 -3.38681 0.0897693 0
M  V30 8496 C 811.518 -3.75181 -0.302677 0
M  V30 8497 C 810.665 -2.73419 0.462307 0
M  V30 8498 H 813.616 -1.41743 0.713773 0
M  V30 8499 H 813.637 -3.73902 -0.705528 0
M  V30 8500 H 813.149 -3.71616 1.11907 0
M  V30 8501 H 811.25 -3.47855 -1.33521 0
M  V30 8502 H 811.363 -4.79097 0.0167653 0
M  V30 8503 H 809.727 -2.54548 -0.0878557 0
M  V30 8504 H 810.51 -3.09198 1.49169 0
M  V30 8505 N 812.955 -0.234822 -1.55841 0
M  V30 8506 C 814.183 0.397745 -2.03041 0
M  V30 8507 C 814.598 1.52405 -1.11437 0
M  V30 8508 O 813.955 1.82061 -0.126466 0
M  V30 8509 C 814.006 0.916919 -3.49678 0
M  V30 8510 O 813.727 -0.164493 -4.37791 0
M  V30 8511 C 815.228 1.62139 -4.12584 0
M  V30 8512 H 812.448 0.0959214 -0.664108 0
M  V30 8513 H 814.992 -0.355156 -2.01392 0
M  V30 8514 H 813.147 1.62004 -3.519 0
M  V30 8515 H 813.561 0.227794 -5.24005 0
M  V30 8516 H 815.035 1.93651 -5.16917 0
M  V30 8517 H 815.512 2.53918 -3.58361 0
M  V30 8518 H 816.118 0.963145 -4.14251 0
M  V30 8519 N 814.433 1.57553 0.0384317 0
M  V30 8520 C 815.396 2.04927 1.02653 0
M  V30 8521 C 816.396 0.951768 1.29607 0
M  V30 8522 O 817.586 1.21568 1.24768 0
M  V30 8523 C 814.718 2.45828 2.36181 0
M  V30 8524 H 815.911 2.93474 0.617508 0
M  V30 8525 H 813.464 1.53679 0.285031 0
M  V30 8526 H 814.199 1.60408 2.8185 0
M  V30 8527 H 813.984 3.25945 2.1795 0
M  V30 8528 H 815.474 2.82939 3.0714 0
M  V30 8529 N 815.911 -0.310526 1.54511 0
M  V30 8530 C 817.157 -1.04459 1.74528 0
M  V30 8531 C 817.512 -1.85251 0.519613 0
M  V30 8532 O 816.805 -1.85281 -0.488001 0
M  V30 8533 C 816.999 -1.98942 2.96912 0
M  V30 8534 C 816.828 -1.27442 4.31264 0
M  V30 8535 C 815.598 -1.00552 4.95194 0
M  V30 8536 C 817.796 -0.683695 5.09735 0
M  V30 8537 N 815.778 -0.259797 6.1335 0
M  V30 8538 C 817.149 -0.0702549 6.1996 0
M  V30 8539 C 819.204 -0.587799 4.94418 0
M  V30 8540 C 817.907 0.629791 7.16538 0
M  V30 8541 C 819.933 0.0985719 5.91318 0
M  V30 8542 C 819.295 0.700902 7.00904 0
M  V30 8543 H 815.394 -0.365496 0.69133 0
M  V30 8544 H 817.978 -0.324277 1.91981 0
M  V30 8545 H 816.149 -2.68233 2.80902 0
M  V30 8546 H 817.881 -2.6543 3.05498 0
M  V30 8547 H 814.636 -1.30123 4.55374 0
M  V30 8548 H 815.06 0.099301 6.76927 0
M  V30 8549 H 819.702 -1.03919 4.0983 0
M  V30 8550 H 817.42 1.09298 8.00674 0
M  V30 8551 H 821.006 0.172585 5.81544 0
M  V30 8552 H 819.886 1.22357 7.74596 0
M  V30 8553 N 817.389 -1.46805 -0.573248 0
M  V30 8554 C 818.339 -1.54497 -1.67674 0
M  V30 8555 C 819.323 -0.405117 -1.55716 0
M  V30 8556 O 820.515 -0.654097 -1.64471 0
M  V30 8557 C 817.644 -1.54717 -3.0646 0
M  V30 8558 C 816.73 -2.7403 -3.2368 0
M  V30 8559 N 817.121 -3.98871 -3.11023 0
M  V30 8560 C 815.419 -2.70453 -3.54642 0
M  V30 8561 C 816.12 -4.78689 -3.30502 0
M  V30 8562 N 815.096 -4.10727 -3.56096 0
M  V30 8563 H 818.898 -2.48809 -1.56433 0
M  V30 8564 H 816.412 -1.42576 -0.777554 0
M  V30 8565 H 818.409 -1.58316 -3.8567 0
M  V30 8566 H 817.069 -0.614886 -3.18825 0
M  V30 8567 H 818.08 -4.29976 -2.88688 0
M  V30 8568 H 814.757 -1.86291 -3.73633 0
M  V30 8569 H 816.147 -5.87615 -3.2582 0
M  V30 8570 N 818.867 0.818669 -1.34668 0
M  V30 8571 C 819.815 1.95123 -1.26609 0
M  V30 8572 C 820.809 1.68611 -0.163348 0
M  V30 8573 O 822.015 1.76975 -0.328586 0
M  V30 8574 H 818.39 0.640871 -0.393431 0
M  V30 8575 H 820.361 1.99043 -2.22316 0
M  V30 8576 C 819.11 3.31697 -1.04272 0
M  V30 8577 H 818.433 3.52648 -1.8836 0
M  V30 8578 H 819.873 4.11382 -1.0267 0
M  V30 8579 C 818.332 3.35942 0.253858 0
M  V30 8580 O 818.862 3.81632 1.25378 0
M  V30 8581 N 817.068 2.89165 0.288447 0
M  V30 8582 H 816.615 2.52176 -0.525845 0
M  V30 8583 H 816.573 2.92387 1.15572 0
M  V30 8584 N 820.346 1.18468 1.03938 0
M  V30 8585 C 821.276 0.936389 2.13902 0
M  V30 8586 C 822.257 -0.126381 1.6963 0
M  V30 8587 O 823.442 0.0264757 1.94182 0
M  V30 8588 C 820.572 0.462729 3.44204 0
M  V30 8589 C 819.526 1.46613 4.02105 0
M  V30 8590 C 818.852 0.84994 5.27902 0
M  V30 8591 C 820.152 2.84323 4.3813 0
M  V30 8592 H 821.846 1.85602 2.3493 0
M  V30 8593 H 819.392 0.893806 1.12903 0
M  V30 8594 H 821.345 0.276382 4.20493 0
M  V30 8595 H 820.069 -0.492477 3.22866 0
M  V30 8596 H 818.728 1.63944 3.27899 0
M  V30 8597 H 818.376 -0.112493 5.02874 0
M  V30 8598 H 818.076 1.51988 5.67603 0
M  V30 8599 H 819.6 0.674152 6.06867 0
M  V30 8600 H 821.014 2.70636 5.054 0
M  V30 8601 H 819.411 3.48012 4.88884 0
M  V30 8602 H 820.481 3.37776 3.47901 0
M  V30 8603 N 821.824 -1.22873 0.986916 0
M  V30 8604 C 823.07 -1.91746 0.660401 0
M  V30 8605 C 823.403 -1.76738 -0.804812 0
M  V30 8606 O 822.678 -1.13246 -1.58131 0
M  V30 8607 C 822.961 -3.44156 1.05966 0
M  V30 8608 C 822.814 -3.68242 2.58298 0
M  V30 8609 C 824.133 -4.35874 0.60842 0
M  V30 8610 H 821.252 -0.696347 0.241391 0
M  V30 8611 H 823.894 -1.44867 1.22937 0
M  V30 8612 H 822.044 -3.84213 0.575534 0
M  V30 8613 H 823.716 -3.37626 3.14335 0
M  V30 8614 H 821.959 -3.12728 3.00638 0
M  V30 8615 H 822.63 -4.74956 2.81285 0
M  V30 8616 H 825.106 -4.03299 1.02417 0
M  V30 8617 H 823.982 -5.41201 0.916142 0
M  V30 8618 H 824.243 -4.39364 -0.491086 0
M  V30 8619 N 823.302 -0.75937 -1.38099 0
M  V30 8620 C 824.532 -0.328634 -2.0397 0
M  V30 8621 C 824.94 1.04989 -1.57398 0
M  V30 8622 O 824.283 1.67918 -0.744932 0
M  V30 8623 C 824.345 -0.279216 -3.58414 0
M  V30 8624 C 824.009 -1.60025 -4.28067 0
M  V30 8625 C 825.006 -2.55048 -4.53041 0
M  V30 8626 C 822.691 -1.87128 -4.66142 0
M  V30 8627 C 824.685 -3.7539 -5.15132 0
M  V30 8628 C 822.372 -3.07742 -5.27956 0
M  V30 8629 C 823.37 -4.01694 -5.52387 0
M  V30 8630 O 823.058 -5.20186 -6.12912 0
M  V30 8631 H 822.79 -0.137443 -0.66188 0
M  V30 8632 H 825.344 -1.03082 -1.77661 0
M  V30 8633 H 823.574 0.479254 -3.83719 0
M  V30 8634 H 825.263 0.122781 -4.05714 0
M  V30 8635 H 826.029 -2.35387 -4.24049 0
M  V30 8636 H 821.908 -1.14833 -4.46469 0
M  V30 8637 H 825.452 -4.48737 -5.34117 0
M  V30 8638 H 821.349 -3.27294 -5.56371 0
M  V30 8639 H 822.117 -5.20846 -6.31397 0
M  V30 8640 N 824.78 1.49157 -0.508906 0
M  V30 8641 C 826.196 1.58741 -0.165372 0
M  V30 8642 C 826.396 1.5133 1.33047 0
M  V30 8643 O 825.452 1.39135 2.10707 0
M  V30 8644 C 826.765 2.91217 -0.749194 0
M  V30 8645 C 828.313 3.047 -0.716015 0
M  V30 8646 C 828.788 4.39807 -1.27804 0
M  V30 8647 N 830.279 4.46319 -1.23908 0
M  V30 8648 C 831.014 5.49325 -1.64406 0
M  V30 8649 N 830.51 6.59395 -2.12534 0
M  V30 8650 N 832.303 5.40084 -1.55773 0
M  V30 8651 H 824.454 1.52217 -1.48134 0
M  V30 8652 H 826.717 0.721514 -0.614915 0
M  V30 8653 H 826.423 3.02233 -1.79856 0
M  V30 8654 H 826.297 3.76592 -0.214144 0
M  V30 8655 H 828.684 2.9331 0.324535 0
M  V30 8656 H 828.765 2.2099 -1.2883 0
M  V30 8657 H 828.409 4.5195 -2.31741 0
M  V30 8658 H 828.339 5.2217 -0.681623 0
M  V30 8659 H 830.83 3.67354 -0.886537 0
M  V30 8660 H 831.143 7.34102 -2.41485 0
M  V30 8661 H 829.488 6.60414 -2.16513 0
M  V30 8662 H 832.679 4.52986 -1.17987 0
M  V30 8663 H 832.852 6.20233 -1.87657 0
M  V30 8664 N 826.258 0.243083 1.55714 0
M  V30 8665 C 827.191 -0.698623 2.17243 0
M  V30 8666 C 828.169 -1.1756 1.12331 0
M  V30 8667 O 829.353 -1.25444 1.40699 0
M  V30 8668 C 826.48 -1.94901 2.77004 0
M  V30 8669 C 825.526 -1.61022 3.94936 0
M  V30 8670 S 826.359 -0.716173 5.30689 0
M  V30 8671 C 827.515 -1.97565 5.93901 0
M  V30 8672 H 827.748 -0.175724 2.9678 0
M  V30 8673 H 825.281 0.0275727 1.54375 0
M  V30 8674 H 827.239 -2.66687 3.12071 0
M  V30 8675 H 825.9 -2.44304 1.9742 0
M  V30 8676 H 825.093 -2.5398 4.35328 0
M  V30 8677 H 824.695 -0.972829 3.61126 0
M  V30 8678 H 826.987 -2.92333 6.11186 0
M  V30 8679 H 827.93 -1.61528 6.8943 0
M  V30 8680 H 828.338 -2.126 5.22935 0
M  V30 8681 N 827.736 -1.57571 -0.0300757 0
M  V30 8682 C 829.152 -1.54869 -0.385703 0
M  V30 8683 C 829.352 -0.969068 -1.76667 0
M  V30 8684 O 828.408 -0.589676 -2.45518 0
M  V30 8685 C 829.721 -2.99313 -0.288482 0
M  V30 8686 C 831.269 -3.10857 -0.365638 0
M  V30 8687 C 831.744 -4.5703 -0.297878 0
M  V30 8688 N 833.235 -4.61825 -0.356703 0
M  V30 8689 C 833.97 -5.72466 -0.327146 0
M  V30 8690 N 833.466 -6.92349 -0.249941 0
M  V30 8691 N 835.259 -5.60836 -0.376801 0
M  V30 8692 H 827.41 -1.936 0.87367 0
M  V30 8693 H 829.673 -0.887924 0.332106 0
M  V30 8694 H 829.379 -3.45443 0.66047 0
M  V30 8695 H 829.253 -3.61332 -1.08253 0
M  V30 8696 H 831.64 -2.64676 -1.30502 0
M  V30 8697 H 831.721 -2.51671 0.457744 0
M  V30 8698 H 831.365 -5.03879 0.637835 0
M  V30 8699 H 831.295 -5.14127 -1.13935 0
M  V30 8700 H 833.786 -3.75571 -0.418926 0
M  V30 8701 H 834.099 -7.7245 -0.23246 0
M  V30 8702 H 832.444 -6.94664 -0.216004 0
M  V30 8703 H 835.635 -4.66073 -0.435101 0
M  V30 8704 H 835.808 -6.47052 -0.350298 0
M  V30 8705 N 829.214 0.302327 -1.54673 0
M  V30 8706 C 830.462 1.03565 -1.73547 0
M  V30 8707 C 830.783 1.87843 -0.523448 0
M  V30 8708 O 830.053 1.90367 0.462295 0
M  V30 8709 H 828.633 0.385358 -0.639928 0
M  V30 8710 H 831.295 0.333632 -1.92023 0
M  V30 8711 H 830.391 1.68952 -2.62415 0
M  V30 8712 N 830.692 1.47107 0.565454 0
M  V30 8713 C 831.969 1.43787 1.32607 0
M  V30 8714 C 832.349 0.130428 2.10697 0
M  V30 8715 O 831.697 -0.888086 2.10536 0
M  V30 8716 C 831.907 2.67833 2.23755 0
M  V30 8717 C 833.255 3.14704 2.85037 0
M  V30 8718 O 834.279 2.68503 2.34061 0
M  V30 8719 O 833.138 3.95002 3.77671 0
M  V30 8720 H 830.232 0.572623 0.596684 0
M  V30 8721 H 832.778 1.59296 0.58504 0
M  V30 8722 H 831.55 3.54532 1.65597 0
M  V30 8723 H 831.173 2.54869 3.05168 0
M  V30 8724 N 832.17 -0.811516 1.35101 0
M  V30 8725 C 833.103 -1.92872 1.21966 0
M  V30 8726 C 834.081 -1.62236 0.108667 0
M  V30 8727 O 835.265 -1.8647 0.275875 0
M  V30 8728 C 832.392 -3.27152 0.876886 0
M  V30 8729 C 831.438 -3.7674 1.99924 0
M  V30 8730 S 832.271 -3.95132 3.61429 0
M  V30 8731 C 833.427 -5.32322 3.29218 0
M  V30 8732 H 833.66 -2.03718 2.16532 0
M  V30 8733 H 831.193 -0.968352 1.20259 0
M  V30 8734 H 833.151 -4.04729 0.685917 0
M  V30 8735 H 831.812 -3.14059 -0.0506289 0
M  V30 8736 H 831.005 -4.73981 1.71343 0
M  V30 8737 H 830.607 -3.06145 2.14829 0
M  V30 8738 H 832.899 -6.1614 2.8174 0
M  V30 8739 H 833.842 -5.65893 4.25641 0
M  V30 8740 H 834.25 -4.98374 2.65111 0
M  V30 8741 N 833.648 -1.19017 -1.03309 0
M  V30 8742 C 834.58 -0.881847 -2.11556 0
M  V30 8743 C 835.593 0.123711 -1.62329 0
M  V30 8744 O 836.782 -0.105141 -1.7819 0
M  V30 8745 C 833.882 -0.297634 -3.37591 0
M  V30 8746 C 833.055 -1.35072 -4.16022 0
M  V30 8747 C 832.114 -0.780812 -5.20375 0
M  V30 8748 O 831.14 -1.45745 -5.50224 0
M  V30 8749 N 832.342 0.417964 -5.78993 0
M  V30 8750 H 835.107 -1.81359 -2.38598 0
M  V30 8751 H 832.668 -1.0916 -1.19565 0
M  V30 8752 H 834.66 0.097374 -4.04583 0
M  V30 8753 H 833.23 0.538299 -3.0793 0
M  V30 8754 H 832.45 -1.92074 -3.4424 0
M  V30 8755 H 833.738 -2.06044 -4.65213 0
M  V30 8756 H 833.136 0.985281 -5.57054 0
M  V30 8757 H 831.693 0.754802 -6.47415 0
M  V30 8758 N 835.127 1.22348 -0.993418 0
M  V30 8759 C 836.057 2.26584 -0.564088 0
M  V30 8760 C 837.038 1.65102 0.409298 0
M  V30 8761 O 838.223 1.91872 0.299819 0
M  V30 8762 C 835.353 3.47087 0.121554 0
M  V30 8763 C 834.307 4.21009 -0.770429 0
M  V30 8764 C 833.633 5.34678 0.0481586 0
M  V30 8765 C 834.933 4.79636 -2.06752 0
M  V30 8766 H 836.627 2.62749 -1.43538 0
M  V30 8767 H 834.173 1.26303 -0.691628 0
M  V30 8768 H 836.126 4.19166 0.433303 0
M  V30 8769 H 834.85 3.1002 1.0274 0
M  V30 8770 H 833.509 3.50764 -1.06583 0
M  V30 8771 H 833.157 4.93852 0.954933 0
M  V30 8772 H 832.857 5.85061 -0.545641 0
M  V30 8773 H 834.381 6.09573 0.353991 0
M  V30 8774 H 835.795 5.43654 -1.81969 0
M  V30 8775 H 834.192 5.4036 -2.61019 0
M  V30 8776 H 835.262 3.99659 -2.74592 0
M  V30 8777 N 836.605 0.766683 1.37694 0
M  V30 8778 C 837.852 0.328714 1.99814 0
M  V30 8779 C 838.18 -1.09333 1.60862 0
M  V30 8780 O 837.435 -1.7657 0.8439 0
M  V30 8781 C 837.734 0.413831 3.54996 0
M  V30 8782 C 837.4 1.7934 4.137 0
M  V30 8783 C 836.062 2.17092 4.29447 0
M  V30 8784 C 838.414 2.69776 4.45949 0
M  V30 8785 C 835.742 3.44726 4.74743 0
M  V30 8786 C 838.094 3.96814 4.92667 0
M  V30 8787 C 836.758 4.34618 5.0662 0
M  V30 8788 H 836.028 0.120285 0.731172 0
M  V30 8789 H 838.675 0.97972 1.64541 0
M  V30 8790 H 836.98 -0.320723 3.90485 0
M  V30 8791 H 838.677 0.0563369 4.0096 0
M  V30 8792 H 835.267 1.48997 4.01868 0
M  V30 8793 H 839.451 2.41871 4.33373 0
M  V30 8794 H 834.707 3.73917 4.83731 0
M  V30 8795 H 838.881 4.67022 5.16588 0
M  V30 8796 H 836.508 5.33578 5.41478 0
M  V30 8797 N 838.083 -1.48885 0.516809 0
M  V30 8798 C 839.015 -2.27357 -0.290061 0
M  V30 8799 C 840.028 -1.34558 -0.916406 0
M  V30 8800 O 841.217 -1.59715 -0.797073 0
M  V30 8801 C 838.317 -3.07496 -1.42476 0
M  V30 8802 C 837.49 -4.27982 -0.902793 0
M  V30 8803 C 836.549 -4.90038 -1.91701 0
M  V30 8804 O 835.575 -5.49643 -1.47922 0
M  V30 8805 N 836.777 -4.811 -3.24843 0
M  V30 8806 H 839.542 -2.97244 0.382884 0
M  V30 8807 H 837.103 -1.58064 0.35032 0
M  V30 8808 H 839.095 -3.45882 -2.10113 0
M  V30 8809 H 837.665 -2.40115 -2.00159 0
M  V30 8810 H 836.885 -3.94167 -0.0508272 0
M  V30 8811 H 838.173 -5.06003 -0.532723 0
M  V30 8812 H 837.571 -4.33801 -3.63088 0
M  V30 8813 H 836.128 -5.23625 -3.8815 0
M  V30 8814 N 839.561 -0.251338 -1.55583 0
M  V30 8815 C 840.789 0.376187 -2.03451 0
M  V30 8816 C 841.204 1.51215 -1.13047 0
M  V30 8817 O 840.561 1.81917 -0.145769 0
M  V30 8818 C 840.612 0.879779 -3.50631 0
M  V30 8819 O 840.333 -0.210917 -4.37592 0
M  V30 8820 C 841.834 1.57754 -4.14281 0
M  V30 8821 H 839.054 0.0888722 -0.665089 0
M  V30 8822 H 841.598 -0.376497 -2.01004 0
M  V30 8823 H 839.753 1.58263 -3.53598 0
M  V30 8824 H 840.167 0.172203 -5.24217 0
M  V30 8825 H 841.641 1.88158 -5.18942 0
M  V30 8826 H 842.118 2.50103 -3.61034 0
M  V30 8827 H 842.724 0.919154 -4.15249 0
M  V30 8828 N 841.039 1.57585 0.0217189 0
M  V30 8829 C 842.286 1.89606 0.711045 0
M  V30 8830 C 842.614 0.849535 1.74966 0
M  V30 8831 O 841.869 -0.14856 1.95135 0
M  V30 8832 C 842.168 3.28377 1.41079 0
M  V30 8833 C 841.834 4.48035 0.507454 0
M  V30 8834 C 840.496 4.80504 0.258672 0
M  V30 8835 C 842.848 5.21071 -0.115793 0
M  V30 8836 C 840.176 5.83393 -0.622013 0
M  V30 8837 C 842.528 6.24897 -0.984224 0
M  V30 8838 C 841.192 6.55836 -1.2424 0
M  V30 8839 H 840.462 0.693817 0.26019 0
M  V30 8840 H 843.109 1.91478 -0.0291424 0
M  V30 8841 H 841.414 3.22528 2.22448 0
M  V30 8842 H 843.111 3.50404 1.94982 0
M  V30 8843 H 839.701 4.22653 0.711516 0
M  V30 8844 H 843.885 4.96259 0.0634327 0
M  V30 8845 H 839.141 6.05736 -0.830267 0
M  V30 8846 H 843.315 6.8063 -1.47363 0
M  V30 8847 H 840.942 7.35383 -1.92653 0
M  V30 8848 N 842.517 -0.29412 1.54831 0
M  V30 8849 C 843.763 -1.02602 1.75626 0
M  V30 8850 C 844.118 -1.84689 0.539232 0
M  V30 8851 O 843.411 -1.85788 -0.468322 0
M  V30 8852 C 843.605 -1.95782 2.99006 0
M  V30 8853 C 843.434 -1.22861 4.32591 0
M  V30 8854 C 842.204 -0.95294 4.96233 0
M  V30 8855 C 844.402 -0.629592 5.10432 0
M  V30 8856 N 842.384 -0.194728 6.13591 0
M  V30 8857 C 843.755 -0.00449586 6.2 0
M  V30 8858 C 845.81 -0.535327 4.95014 0
M  V30 8859 C 844.513 0.705754 7.15829 0
M  V30 8860 C 846.539 0.161284 5.9118 0
M  V30 8861 C 845.901 0.775203 7.00121 0
M  V30 8862 H 842 -0.358143 0.695167 0
M  V30 8863 H 844.584 -0.303896 1.92314 0
M  V30 8864 H 842.755 -2.65238 2.83731 0
M  V30 8865 H 844.487 -2.62175 3.08296 0
M  V30 8866 H 841.242 -1.25285 4.56728 0
M  V30 8867 H 841.666 0.171093 6.76784 0
M  V30 8868 H 846.308 -0.995662 4.10909 0
M  V30 8869 H 844.026 1.17784 7.9947 0
M  V30 8870 H 847.612 0.234256 5.81328 0
M  V30 8871 H 846.492 1.30566 7.73254 0
M  V30 8872 N 843.995 -1.47404 -0.557645 0
M  V30 8873 C 845.242 -1.54007 -1.31484 0
M  V30 8874 C 845.57 -0.202162 -1.93447 0
M  V30 8875 O 844.825 0.804901 -1.78381 0
M  V30 8876 C 845.124 -2.6061 -2.44575 0
M  V30 8877 C 844.79 -4.03896 -2.00446 0
M  V30 8878 C 843.452 -4.42901 -1.88127 0
M  V30 8879 C 845.804 -4.93804 -1.66754 0
M  V30 8880 C 843.132 -5.6965 -1.40411 0
M  V30 8881 C 845.484 -6.21016 -1.20509 0
M  V30 8882 C 844.148 -6.58903 -1.06786 0
M  V30 8883 H 843.418 -0.563552 -0.481134 0
M  V30 8884 H 846.065 -1.81001 -0.625375 0
M  V30 8885 H 844.37 -2.27371 -3.19076 0
M  V30 8886 H 846.067 -2.62941 -3.02759 0
M  V30 8887 H 842.657 -3.73077 -2.10977 0
M  V30 8888 H 846.841 -4.64369 -1.75144 0
M  V30 8889 H 842.097 -5.97755 -1.2845 0
M  V30 8890 H 846.271 -6.90095 -0.935001 0
M  V30 8891 H 843.898 -7.57008 -0.695891 0
M  V30 8892 N 845.473 0.80434 -1.35529 0
M  V30 8893 C 846.403 1.93086 -1.31301 0
M  V30 8894 C 847.384 1.69068 -0.187044 0
M  V30 8895 O 848.569 1.90399 -0.382359 0
M  V30 8896 C 845.699 3.29867 -1.0865 0
M  V30 8897 C 844.653 3.68373 -2.17911 0
M  V30 8898 C 843.979 5.0334 -1.80423 0
M  V30 8899 C 845.279 3.78516 -3.59893 0
M  V30 8900 H 846.973 1.96882 -2.25561 0
M  V30 8901 H 844.519 0.945841 -1.08581 0
M  V30 8902 H 846.472 4.08281 -1.04331 0
M  V30 8903 H 845.196 3.2642 -0.108359 0
M  V30 8904 H 843.855 2.92247 -2.21331 0
M  V30 8905 H 843.503 4.96399 -0.812213 0
M  V30 8906 H 843.203 5.30074 -2.53565 0
M  V30 8907 H 844.727 5.84191 -1.77633 0
M  V30 8908 H 846.141 4.47155 -3.58783 0
M  V30 8909 H 844.538 4.16721 -4.31814 0
M  V30 8910 H 845.608 2.8001 -3.95882 0
M  V30 8911 N 846.951 1.19563 1.02676 0
M  V30 8912 C 848.181 1.0234 1.79472 0
M  V30 8913 C 848.589 -0.430891 1.84228 0
M  V30 8914 O 847.932 -1.31106 1.28674 0
M  V30 8915 C 847.994 1.51901 3.25832 0
M  V30 8916 C 847.658 3.00045 3.44706 0
M  V30 8917 C 848.655 3.9779 3.34752 0
M  V30 8918 C 846.34 3.38784 3.70851 0
M  V30 8919 C 848.334 5.32267 3.50672 0
M  V30 8920 C 846.021 4.73419 3.86416 0
M  V30 8921 C 847.019 5.69969 3.7633 0
M  V30 8922 O 846.707 7.02165 3.91432 0
M  V30 8923 H 846.439 0.360936 0.571578 0
M  V30 8924 H 848.993 1.58863 1.30198 0
M  V30 8925 H 847.223 0.897546 3.7614 0
M  V30 8926 H 848.912 1.30853 3.84229 0
M  V30 8927 H 849.678 3.69207 3.14502 0
M  V30 8928 H 845.557 2.64183 3.77794 0
M  V30 8929 H 849.101 6.07612 3.42715 0
M  V30 8930 H 844.998 5.01697 4.06165 0
M  V30 8931 H 845.766 7.09268 4.08511 0
M  V30 8932 N 848.429 -1.21819 0.999893 0
M  V30 8933 C 849.379 -2.21823 0.527104 0
M  V30 8934 C 850.363 -1.55628 -0.408515 0
M  V30 8935 O 851.555 -1.75444 -0.234196 0
M  V30 8936 C 848.684 -3.42972 -0.149986 0
M  V30 8937 C 847.77 -4.16364 0.806349 0
M  V30 8938 N 848.161 -4.66403 1.95708 0
M  V30 8939 C 846.459 -4.41618 0.623672 0
M  V30 8940 C 847.16 -5.22443 2.5579 0
M  V30 8941 N 846.136 -5.11514 1.83995 0
M  V30 8942 H 849.938 -2.58161 1.40464 0
M  V30 8943 H 847.452 -1.37569 0.863054 0
M  V30 8944 H 849.449 -4.13816 -0.50613 0
M  V30 8945 H 848.109 -3.08145 -1.02357 0
M  V30 8946 H 849.12 -4.62142 2.33763 0
M  V30 8947 H 845.797 -4.17005 -0.203257 0
M  V30 8948 H 847.187 -5.7165 3.5308 0
M  V30 8949 N 849.908 -0.773975 -1.37286 0
M  V30 8950 C 850.855 -0.159938 -2.30245 0
M  V30 8951 C 851.825 0.687356 -1.51211 0
M  V30 8952 O 853.01 0.639255 -1.79773 0
M  V30 8953 C 850.15 0.711452 -3.37687 0
M  V30 8954 C 849.263 -0.152692 -4.3173 0
M  V30 8955 C 848.398 0.723613 -5.26248 0
M  V30 8956 C 847.437 -0.14293 -6.11933 0
M  V30 8957 N 846.574 0.691479 -6.98687 0
M  V30 8958 H 851.414 -0.958182 -2.82175 0
M  V30 8959 H 848.951 -0.48411 -1.38906 0
M  V30 8960 H 850.909 1.2315 -3.9861 0
M  V30 8961 H 849.539 1.47528 -2.87116 0
M  V30 8962 H 848.591 -0.790574 -3.72094 0
M  V30 8963 H 849.903 -0.821027 -4.91997 0
M  V30 8964 H 849.057 1.31006 -5.92387 0
M  V30 8965 H 847.796 1.42562 -4.66398 0
M  V30 8966 H 846.801 -0.7419 -5.44771 0
M  V30 8967 H 848.026 -0.842305 -6.73856 0
M  V30 8968 H 845.972 1.37806 -6.41362 0
M  V30 8969 H 845.889 0.0804911 -7.55957 0
M  V30 8970 H 847.157 1.26225 -7.69212 0
M  V30 8971 N 851.386 1.48609 -0.524698 0
M  V30 8972 C 852.634 2.02097 0.0112991 0
M  V30 8973 C 852.955 1.40455 1.35268 0
M  V30 8974 O 852.225 0.56807 1.87483 0
M  V30 8975 H 850.805 0.746966 0.00716426 0
M  V30 8976 H 853.467 1.82378 -0.687329 0
M  V30 8977 H 852.563 3.11855 0.123531 0
M  V30 8978 N 852.864 0.259585 1.55447 0
M  V30 8979 C 853.814 -0.648769 2.18575 0
M  V30 8980 C 854.798 -1.1299 1.14552 0
M  V30 8981 O 855.99 -1.07756 1.4042 0
M  V30 8982 C 853.119 -1.83963 2.89849 0
M  V30 8983 C 852.205 -1.37641 4.01143 0
M  V30 8984 N 852.596 -0.628269 5.01883 0
M  V30 8985 C 850.894 -1.66066 4.1393 0
M  V30 8986 C 851.595 -0.386746 5.80413 0
M  V30 8987 N 850.571 -0.954665 5.35151 0
M  V30 8988 H 854.373 -0.0691616 2.93819 0
M  V30 8989 H 851.887 0.0624525 1.6228 0
M  V30 8990 H 853.884 -2.50151 3.33512 0
M  V30 8991 H 852.544 -2.42334 2.16112 0
M  V30 8992 H 853.555 -0.277123 5.17158 0
M  V30 8993 H 850.232 -2.25484 3.51373 0
M  V30 8994 H 851.622 0.211382 6.71567 0
M  V30 8995 N 854.342 -1.57594 -0.0133615 0
M  V30 8996 C 855.753 -1.78168 -0.557937 0
M  V30 8997 C 856.104 -0.892616 -1.74719 0
M  V30 8998 O 855.229 -0.0915491 -2.16206 0
M  V30 8999 C 855.824 -3.23115 -1.01894 0
M  V30 9000 C 854.383 -3.44831 -1.50892 0
M  V30 9001 C 853.53 -2.73558 -0.454044 0
M  V30 9002 H 856.481 -1.57266 0.212843 0
M  V30 9003 H 856.502 -3.30493 -1.8856 0
M  V30 9004 H 856.014 -3.87798 -0.153175 0
M  V30 9005 H 854.115 -2.85345 -2.39602 0
M  V30 9006 H 854.228 -4.53485 -1.54559 0
M  V30 9007 H 852.592 -2.37787 -0.912666 0
M  V30 9008 H 853.375 -3.40932 0.402524 0
M  V30 9009 N 855.82 0.285905 -1.54985 0
M  V30 9010 C 857.231 0.857869 -1.65824 0
M  V30 9011 C 857.582 1.87531 -0.576763 0
M  V30 9012 O 856.707 2.14528 0.284016 0
M  V30 9013 C 857.302 1.56277 -3.00604 0
M  V30 9014 C 855.861 2.08294 -3.13513 0
M  V30 9015 C 855.008 0.920633 -2.61571 0
M  V30 9016 H 857.959 0.0625463 -1.58577 0
M  V30 9017 H 857.98 2.42912 -2.92872 0
M  V30 9018 H 857.492 0.822017 -3.79295 0
M  V30 9019 H 855.593 2.8537 -2.39572 0
M  V30 9020 H 855.706 2.3071 -4.19892 0
M  V30 9021 H 854.07 1.31043 -2.18403 0
M  V30 9022 H 854.853 0.193594 -3.42754 0
M  V30 9023 N 857.298 1.47698 0.54982 0
M  V30 9024 C 858.523 1.58579 1.33669 0
M  V30 9025 C 858.948 0.239049 1.86575 0
M  V30 9026 O 858.306 -0.786256 1.63364 0
M  V30 9027 C 858.354 2.62029 2.47736 0
M  V30 9028 O 857.458 2.17813 3.50188 0
M  V30 9029 H 856.799 0.532447 0.396732 0
M  V30 9030 H 859.329 1.93536 0.6637 0
M  V30 9031 H 859.339 2.82682 2.94202 0
M  V30 9032 H 858.014 3.59812 2.08586 0
M  V30 9033 H 856.591 2.07291 3.09976 0
M  V30 9034 N 858.776 -0.797141 1.35954 0
M  V30 9035 C 859.686 -1.94088 1.31784 0
M  V30 9036 C 860.702 -1.72588 0.221227 0
M  V30 9037 O 861.878 -1.96256 0.452255 0
M  V30 9038 C 858.943 -3.28828 1.09878 0
M  V30 9039 C 858.004 -3.63158 2.28942 0
M  V30 9040 C 857.237 -4.91469 2.08072 0
M  V30 9041 O 857.46 -5.60616 1.05196 0
M  V30 9042 O 856.394 -5.24277 2.95664 0
M  V30 9043 H 860.22 -2.00554 2.28061 0
M  V30 9044 H 857.805 -0.936288 1.16422 0
M  V30 9045 H 859.687 -4.09473 0.995485 0
M  V30 9046 H 858.362 -3.23271 0.16659 0
M  V30 9047 H 857.269 -2.82851 2.44839 0
M  V30 9048 H 858.602 -3.7343 3.20641 0
M  V30 9049 N 860.254 -1.20106 -1.0204 0
M  V30 9050 C 861.665 -1.00992 -1.57027 0
M  V30 9051 C 862.016 0.434782 -1.91322 0
M  V30 9052 O 861.141 1.31557 -1.71819 0
M  V30 9053 C 861.736 -1.82697 -2.85319 0
M  V30 9054 C 860.295 -1.67959 -3.36848 0
M  V30 9055 C 859.442 -1.80868 -2.10195 0
M  V30 9056 H 862.393 -1.34354 -0.844676 0
M  V30 9057 H 862.414 -1.32809 -3.5657 0
M  V30 9058 H 861.926 -2.87839 -2.60328 0
M  V30 9059 H 860.027 -0.654389 -3.66809 0
M  V30 9060 H 860.14 -2.49006 -4.09308 0
M  V30 9061 H 858.504 -1.24015 -2.22469 0
M  V30 9062 H 859.287 -2.87486 -1.87635 0
M  V30 9063 N 861.732 1.21287 -1.00634 0
M  V30 9064 C 862.972 1.92106 -0.698194 0
M  V30 9065 C 863.336 1.76437 0.757222 0
M  V30 9066 O 864.537 2.41641 1.17741 0
M  V30 9067 C 862.808 3.39748 -1.10932 0
M  V30 9068 S 864.367 4.29013 -0.921586 0
M  V30 9069 H 861.185 0.663755 -0.254853 0
M  V30 9070 H 863.787 1.46772 -1.29145 0
M  V30 9071 H 862.491 3.48669 -2.16467 0
M  V30 9072 H 862.022 3.90101 -0.508419 0
M  V30 9073 H 864.037 4.95871 0.180578 0
M  V30 9074 N 863.21 0.781244 1.36873 0
M  V30 9075 C 864.458 0.349198 1.9906 0
M  V30 9076 C 864.779 -1.0806 1.62321 0
M  V30 9077 O 864.049 -1.74351 0.893229 0
M  V30 9078 H 862.629 0.126126 0.736275 0
M  V30 9079 H 865.291 1.00148 1.67202 0
M  V30 9080 H 864.387 0.434451 3.09061 0
M  V30 9081 N 864.689 -1.48329 0.532571 0
M  V30 9082 C 865.917 -2.069 0.00354299 0
M  V30 9083 C 866.332 -1.38876 -1.27902 0
M  V30 9084 O 865.689 -0.477119 -1.76153 0
M  V30 9085 C 865.74 -3.60821 -0.221416 0
M  V30 9086 O 865.461 -4.26291 1.01034 0
M  V30 9087 C 866.962 -4.36194 -0.790531 0
M  V30 9088 H 864.182 -0.670103 0.0346836 0
M  V30 9089 H 866.726 -1.90682 0.738955 0
M  V30 9090 H 864.881 -3.76636 -0.906884 0
M  V30 9091 H 865.295 -5.18475 0.792683 0
M  V30 9092 H 866.769 -5.44657 -0.897347 0
M  V30 9093 H 867.246 -4.00798 -1.79605 0
M  V30 9094 H 867.852 -4.25064 -0.141546 0
M  V30 9095 N 866.167 -0.267825 -1.55308 0
M  V30 9096 C 867.578 0.231344 -1.85261 0
M  V30 9097 C 867.929 1.56006 -1.18982 0
M  V30 9098 O 867.054 2.1111 -0.475554 0
M  V30 9099 C 867.649 0.426537 -3.36104 0
M  V30 9100 C 866.208 0.869945 -3.66209 0
M  V30 9101 C 865.355 -0.0409522 -2.7727 0
M  V30 9102 H 868.306 -0.489821 -1.50952 0
M  V30 9103 H 868.327 1.26616 -3.58816 0
M  V30 9104 H 867.839 -0.540678 -3.84315 0
M  V30 9105 H 865.94 1.84889 -3.23492 0
M  V30 9106 H 866.053 0.712316 -4.73775 0
M  V30 9107 H 864.417 0.474097 -2.50249 0
M  V30 9108 H 865.2 -1.00392 -3.28293 0
M  V30 9109 N 867.645 1.57599 0.00500368 0
M  V30 9110 C 868.885 1.92205 0.695456 0
M  V30 9111 C 869.249 0.868894 1.71214 0
M  V30 9112 O 870.45 1.10004 2.4526 0
M  V30 9113 C 868.721 3.31882 1.32625 0
M  V30 9114 S 870.28 3.88364 2.04252 0
M  V30 9115 H 867.098 0.672826 0.22984 0
M  V30 9116 H 869.7 1.95435 -0.0504824 0
M  V30 9117 H 868.404 4.06375 0.573396 0
M  V30 9118 H 867.935 3.32013 2.11023 0
M  V30 9119 H 869.95 3.69035 3.31704 0
M  V30 9120 N 869.123 -0.277682 1.55134 0
M  V30 9121 C 870.539 -0.624625 1.46869 0
M  V30 9122 C 870.739 -1.89717 0.678958 0
M  V30 9123 O 869.795 -2.51739 0.195939 0
M  V30 9124 C 871.108 -0.755937 2.91043 0
M  V30 9125 C 872.656 -0.850299 3.01229 0
M  V30 9126 C 873.131 -1.01343 4.46647 0
M  V30 9127 N 874.622 -1.07906 4.50456 0
M  V30 9128 C 875.357 -1.224 5.60184 0
M  V30 9129 N 874.853 -1.33642 6.79788 0
M  V30 9130 N 876.646 -1.25473 5.47917 0
M  V30 9131 H 868.797 0.558102 2.04937 0
M  V30 9132 H 871.06 0.188228 0.929125 0
M  V30 9133 H 870.766 0.108593 3.51532 0
M  V30 9134 H 870.64 -1.6377 3.39793 0
M  V30 9135 H 873.027 -1.7053 2.40839 0
M  V30 9136 H 873.108 0.0559681 2.55739 0
M  V30 9137 H 872.752 -0.163102 5.07638 0
M  V30 9138 H 872.682 -1.93427 4.89789 0
M  V30 9139 H 875.173 -1.00477 3.64298 0
M  V30 9140 H 875.486 -1.44522 7.59166 0
M  V30 9141 H 873.831 -1.30655 6.82608 0
M  V30 9142 H 877.022 -1.16317 4.53418 0
M  V30 9143 H 877.195 -1.36424 6.33476 0
M  V30 9144 N 870.601 -1.47988 -0.541979 0
M  V30 9145 C 871.531 -1.64503 -1.65713 0
M  V30 9146 C 872.512 -0.494116 -1.62765 0
M  V30 9147 O 873.697 -0.725256 -1.80149 0
M  V30 9148 C 870.827 -1.67337 -3.04328 0
M  V30 9149 C 869.781 -2.81809 -3.2213 0
M  V30 9150 C 869.107 -2.69724 -4.61685 0
M  V30 9151 C 870.407 -4.23241 -3.06046 0
M  V30 9152 H 872.101 -2.5786 -1.52147 0
M  V30 9153 H 869.647 -1.24094 -0.730529 0
M  V30 9154 H 871.6 -1.77481 -3.82202 0
M  V30 9155 H 870.324 -0.705514 -3.18889 0
M  V30 9156 H 868.983 -2.71201 -2.46669 0
M  V30 9157 H 868.631 -1.70934 -4.73065 0
M  V30 9158 H 868.331 -3.4653 -4.74543 0
M  V30 9159 H 869.855 -2.81818 -5.41674 0
M  V30 9160 H 871.269 -4.34746 -3.73723 0
M  V30 9161 H 869.666 -5.00952 -3.30405 0
M  V30 9162 H 870.736 -4.40543 -2.02609 0
M  V30 9163 N 872.079 0.78992 -1.36375 0
M  V30 9164 C 873.042 1.88414 -1.30509 0
M  V30 9165 C 874.042 1.59384 -0.2129 0
M  V30 9166 O 875.232 1.67805 -0.467651 0
M  V30 9167 C 872.364 3.25188 -1.02302 0
M  V30 9168 H 873.557 1.95031 -2.27822 0
M  V30 9169 H 871.11 0.987664 -1.2114 0
M  V30 9170 H 871.845 3.24254 -0.0544486 0
M  V30 9171 H 871.63 3.47647 -1.81338 0
M  V30 9172 H 873.12 4.05252 -1.00801 0
M  V30 9173 N 873.557 1.20646 1.01402 0
M  V30 9174 C 874.785 1.04389 1.78635 0
M  V30 9175 C 875.2 -0.406771 1.84366 0
M  V30 9176 O 874.557 -1.28239 1.2985 0
M  V30 9177 C 874.608 1.62378 3.22979 0
M  V30 9178 O 874.329 3.01768 3.17597 0
M  V30 9179 C 875.83 1.5111 4.1675 0
M  V30 9180 H 873.05 0.367077 0.56169 0
M  V30 9181 H 875.594 1.59789 1.27624 0
M  V30 9182 H 873.749 1.11092 3.7113 0
M  V30 9183 H 874.163 3.29331 4.08217 0
M  V30 9184 H 875.637 1.96441 5.15863 0
M  V30 9185 H 876.114 0.464011 4.36742 0
M  V30 9186 H 876.72 2.01599 3.74483 0
M  V30 9187 N 875.035 -1.20752 1.01276 0
M  V30 9188 C 875.965 -2.25658 0.600064 0
M  V30 9189 C 876.946 -1.65733 -0.38298 0
M  V30 9190 O 878.131 -1.92324 -0.269256 0
M  V30 9191 C 875.261 -3.47237 -0.0663197 0
M  V30 9192 C 874.215 -4.1973 0.83731 0
M  V30 9193 C 873.541 -5.34687 0.0369102 0
M  V30 9194 C 874.841 -4.76286 2.14357 0
M  V30 9195 H 876.535 -2.60432 1.477 0
M  V30 9196 H 874.081 -1.25187 0.711634 0
M  V30 9197 H 876.034 -4.19803 -0.366563 0
M  V30 9198 H 874.758 -3.11615 -0.977944 0
M  V30 9199 H 873.417 -3.49024 1.1215 0
M  V30 9200 H 873.065 -4.95309 -0.876244 0
M  V30 9201 H 872.765 -5.84119 0.63865 0
M  V30 9202 H 874.289 -6.10059 -0.256968 0
M  V30 9203 H 875.703 -5.40691 1.90595 0
M  V30 9204 H 874.1 -5.36139 2.69583 0
M  V30 9205 H 875.17 -3.9524 2.80916 0
M  V30 9206 N 876.513 -0.788492 -1.36457 0
M  V30 9207 C 877.753 -0.365855 -2.01099 0
M  V30 9208 C 878.117 1.04262 -1.61225 0
M  V30 9209 O 879.318 1.56628 -2.18451 0
M  V30 9210 C 877.589 -0.523344 -3.53548 0
M  V30 9211 S 879.148 -0.188448 -4.38395 0
M  V30 9212 H 875.966 -0.139832 -0.697114 0
M  V30 9213 H 878.568 -1.02678 -1.66365 0
M  V30 9214 H 877.272 -1.54874 -3.80055 0
M  V30 9215 H 876.803 0.153547 -3.931 0
M  V30 9216 H 878.818 1.0103 -4.85806 0
M  V30 9217 N 877.991 1.48044 -0.54043 0
M  V30 9218 C 878.954 2.28273 0.205966 0
M  V30 9219 C 879.954 1.35983 0.858209 0
M  V30 9220 O 881.144 1.58776 0.716651 0
M  V30 9221 C 878.276 3.15174 1.29917 0
M  V30 9222 H 879.469 2.95727 -0.498555 0
M  V30 9223 H 877.022 1.53457 -0.296745 0
M  V30 9224 H 877.757 2.52374 2.03661 0
M  V30 9225 H 877.542 3.83074 0.836475 0
M  V30 9226 H 879.032 3.75666 1.82387 0
M  V30 9227 N 879.47 0.276058 1.55163 0
M  V30 9228 C 880.402 -0.644254 2.19959 0
M  V30 9229 C 881.415 -1.11675 1.18459 0
M  V30 9230 O 882.604 -1.0385 1.45181 0
M  V30 9231 C 879.704 -1.89093 2.81242 0
M  V30 9232 C 878.877 -1.56509 4.08441 0
M  V30 9233 C 877.936 -2.66433 4.53762 0
M  V30 9234 O 876.962 -2.32579 5.19515 0
M  V30 9235 N 878.164 -3.96509 4.23982 0
M  V30 9236 H 880.929 -0.0896808 2.99566 0
M  V30 9237 H 878.49 0.0971981 1.61608 0
M  V30 9238 H 880.482 -2.61929 3.08505 0
M  V30 9239 H 879.052 -2.35453 2.05622 0
M  V30 9240 H 878.272 -0.670522 3.88455 0
M  V30 9241 H 879.56 -1.32242 4.91314 0
M  V30 9242 H 878.958 -4.26834 3.71254 0
M  V30 9243 H 877.515 -4.6572 4.56014 0
M  V30 9244 N 880.948 -1.576 0.00335426 0
M  V30 9245 C 881.878 -2.11668 -0.985839 0
M  V30 9246 C 882.859 -1.02661 -1.35627 0
M  V30 9247 O 884.044 -1.30361 -1.43943 0
M  V30 9248 C 881.174 -2.62273 -2.27662 0
M  V30 9249 C 880.128 -3.75837 -2.0477 0
M  V30 9250 C 879.454 -4.12769 -3.39891 0
M  V30 9251 C 880.754 -5.02975 -1.40759 0
M  V30 9252 H 882.448 -2.9457 -0.535637 0
M  V30 9253 H 879.994 -1.41702 -0.256204 0
M  V30 9254 H 881.947 -2.98727 -2.97221 0
M  V30 9255 H 880.671 -1.76498 -2.74802 0
M  V30 9256 H 879.33 -3.39782 -1.37636 0
M  V30 9257 H 878.978 -3.24013 -3.8474 0
M  V30 9258 H 878.678 -4.89281 -3.25389 0
M  V30 9259 H 880.202 -4.51784 -4.1076 0
M  V30 9260 H 881.616 -5.37179 -2.00279 0
M  V30 9261 H 880.013 -5.84315 -1.36734 0
M  V30 9262 H 881.083 -4.83431 -0.377218 0
M  V30 9263 N 882.426 0.269451 -1.5528 0
M  V30 9264 C 883.651 1.02299 -1.80415 0
M  V30 9265 C 884.076 1.7902 -0.577363 0
M  V30 9266 O 883.434 1.75018 0.473125 0
M  V30 9267 C 883.482 1.95445 -3.0304 0
M  V30 9268 O 882.586 3.04271 -2.78375 0
M  V30 9269 H 881.927 0.292289 -0.596207 0
M  V30 9270 H 884.457 0.297282 -2.02429 0
M  V30 9271 H 884.467 2.37333 -3.31869 0
M  V30 9272 H 883.142 1.39017 -3.91978 0
M  V30 9273 H 881.719 2.66673 -2.60653 0
M  V30 9274 N 883.904 1.48273 0.534124 0
M  V30 9275 C 884.867 1.6201 1.62127 0
M  V30 9276 C 885.867 0.493653 1.53035 0
M  V30 9277 O 887.057 0.759337 1.56779 0
M  V30 9278 C 884.189 1.5864 3.01739 0
M  V30 9279 H 885.382 2.58944 1.51288 0
M  V30 9280 H 882.935 1.36808 0.755861 0
M  V30 9281 H 883.67 0.631685 3.18088 0
M  V30 9282 H 883.455 2.40415 3.09747 0
M  V30 9283 H 884.945 1.71438 3.80787 0
M  V30 9284 N 885.382 -0.782676 1.36792 0
M  V30 9285 C 886.798 -1.08169 1.17352 0
M  V30 9286 C 886.998 -2.015 0.0022037 0
M  V30 9287 O 886.054 -2.43692 -0.661093 0
M  V30 9288 C 887.367 -1.68969 2.48737 0
M  V30 9289 C 888.915 -1.81278 2.55161 0
M  V30 9290 C 889.39 -2.45492 3.86649 0
M  V30 9291 N 890.881 -2.52954 3.88032 0
M  V30 9292 C 891.616 -3.03465 4.86515 0
M  V30 9293 N 891.112 -3.54232 5.95392 0
M  V30 9294 N 892.905 -3.02239 4.73928 0
M  V30 9295 H 885.056 -0.162757 2.11775 0
M  V30 9296 H 887.319 -0.134823 0.938364 0
M  V30 9297 H 887.025 -1.07859 3.34753 0
M  V30 9298 H 886.899 -2.68397 2.65034 0
M  V30 9299 H 889.286 -2.41524 1.69559 0
M  V30 9300 H 889.367 -0.806367 2.42758 0
M  V30 9301 H 889.011 -1.85889 4.7266 0
M  V30 9302 H 888.941 -3.46718 3.96351 0
M  V30 9303 H 891.432 -2.17014 3.09376 0
M  V30 9304 H 891.745 -3.91145 6.66503 0
M  V30 9305 H 890.09 -3.52366 5.99052 0
M  V30 9306 H 893.281 -2.61871 3.87996 0
M  V30 9307 H 893.454 -3.41295 5.50837 0
M  V30 9308 N 886.86 -1.21182 -1.00761 0
M  V30 9309 C 887.823 -0.970339 -2.07646 0
M  V30 9310 C 888.823 0.0576345 -1.60697 0
M  V30 9311 O 890.013 -0.179369 -1.73274 0
M  V30 9312 C 887.145 -0.462703 -3.37745 0
M  V30 9313 H 888.338 -1.91856 -2.30502 0
M  V30 9314 H 885.891 -1.02844 -1.17698 0
M  V30 9315 H 886.626 0.490559 -3.20568 0
M  V30 9316 H 886.411 -1.20416 -3.73152 0
M  V30 9317 H 887.901 -0.313531 -4.16421 0
M  V30 9318 N 888.338 1.20213 -1.01915 0
M  V30 9319 C 889.615 1.85348 -0.62495 0
M  V30 9320 C 889.995 1.91101 0.896854 0
M  V30 9321 O 889.343 1.42075 1.78961 0
M  V30 9322 C 889.553 3.24849 -1.27571 0
M  V30 9323 C 890.901 4.01107 -1.39277 0
M  V30 9324 O 891.925 3.34211 -1.23212 0
M  V30 9325 O 890.784 5.20914 -1.6526 0
M  V30 9326 H 887.878 0.798303 -0.215965 0
M  V30 9327 H 890.424 1.27782 -1.11669 0
M  V30 9328 H 889.196 3.1544 -2.31545 0
M  V30 9329 H 888.819 3.90049 -0.77122 0
M  V30 9330 N 889.816 0.795718 1.36037 0
M  V30 9331 C 891.041 0.38204 2.03851 0
M  V30 9332 C 891.466 -0.995553 1.59594 0
M  V30 9333 O 890.824 -1.64258 0.767401 0
M  V30 9334 C 890.872 0.461248 3.57638 0
M  V30 9335 O 889.976 -0.529448 4.08987 0
M  V30 9336 H 889.317 0.161227 0.644129 0
M  V30 9337 H 891.847 1.07858 1.73861 0
M  V30 9338 H 891.857 0.32712 4.06687 0
M  V30 9339 H 890.532 1.46613 3.89201 0
M  V30 9340 H 889.109 -0.35646 3.71192 0
M  V30 9341 N 891.294 -1.47756 0.548274 0
M  V30 9342 C 892.705 -1.8636 0.112547 0
M  V30 9343 C 893.056 -1.45589 -1.31523 0
M  V30 9344 O 892.181 -0.854874 -1.98799 0
M  V30 9345 C 892.776 -3.38224 0.197473 0
M  V30 9346 C 891.335 -3.75954 -0.183163 0
M  V30 9347 C 890.482 -2.7181 0.549059 0
M  V30 9348 H 893.433 -1.394 0.758506 0
M  V30 9349 H 893.454 -3.75957 -0.586217 0
M  V30 9350 H 892.966 -3.67868 1.23673 0
M  V30 9351 H 891.067 -3.51926 -1.22387 0
M  V30 9352 H 891.18 -4.78801 0.169178 0
M  V30 9353 H 889.544 -2.54699 -0.00682862 0
M  V30 9354 H 890.327 -3.04296 1.5893 0
M  V30 9355 N 892.772 -0.284283 -1.55015 0
M  V30 9356 C 893.735 0.586182 -2.21577 0
M  V30 9357 C 894.735 1.07427 -1.1965 0
M  V30 9358 O 895.925 0.972977 -1.44495 0
M  V30 9359 C 893.057 1.80973 -2.88897 0
M  V30 9360 H 894.25 0.00487253 -2.999 0
M  V30 9361 H 891.803 -0.0349696 -1.56261 0
M  V30 9362 H 892.538 2.43131 -2.14611 0
M  V30 9363 H 892.323 1.46757 -3.636 0
M  V30 9364 H 893.813 2.42853 -3.39724 0
M  V30 9365 N 894.251 1.57596 -0.0117121 0
M  V30 9366 C 895.181 2.12188 0.9746 0
M  V30 9367 C 896.162 1.03379 1.35081 0
M  V30 9368 O 897.347 1.31123 1.4325 0
M  V30 9369 C 894.477 2.63477 2.26268 0
M  V30 9370 C 893.431 3.76917 2.02774 0
M  V30 9371 C 892.757 4.14566 3.37697 0
M  V30 9372 C 894.057 5.03715 1.38089 0
M  V30 9373 H 895.751 2.9485 0.520007 0
M  V30 9374 H 893.297 1.41836 0.248685 0
M  V30 9375 H 895.25 3.00299 2.95633 0
M  V30 9376 H 893.974 1.77953 2.73862 0
M  V30 9377 H 892.633 3.40507 1.35832 0
M  V30 9378 H 892.281 3.26048 3.83016 0
M  V30 9379 H 891.981 4.91 3.22789 0
M  V30 9380 H 893.505 4.53956 4.08358 0
M  V30 9381 H 894.919 5.38233 1.97428 0
M  V30 9382 H 893.316 5.85032 1.33634 0
M  V30 9383 H 894.386 4.83624 0.351575 0
M  V30 9384 N 895.729 -0.261212 1.5542 0
M  V30 9385 C 896.969 -0.998748 1.78338 0
M  V30 9386 C 897.333 -1.83064 0.578914 0
M  V30 9387 O 898.534 -2.59884 0.686575 0
M  V30 9388 C 896.805 -1.84828 3.05898 0
M  V30 9389 S 898.364 -2.64686 3.49981 0
M  V30 9390 H 895.182 -0.33619 0.626496 0
M  V30 9391 H 897.784 -0.26799 1.93655 0
M  V30 9392 H 896.488 -1.22658 3.91642 0
M  V30 9393 H 896.019 -2.62203 2.9328 0
M  V30 9394 H 898.034 -3.87299 3.10184 0
M  V30 9395 N 897.207 -1.48554 -0.526253 0
M  V30 9396 C 898.623 -1.34757 -0.855138 0
M  V30 9397 C 898.823 -0.36142 -1.98232 0
M  V30 9398 O 897.879 0.216026 -2.51574 0
M  V30 9399 C 899.192 -2.74877 -1.21915 0
M  V30 9400 C 900.74 -2.83393 -1.32882 0
M  V30 9401 C 901.215 -4.24223 -1.72624 0
M  V30 9402 N 902.706 -4.26913 -1.7972 0
M  V30 9403 C 903.441 -5.32824 -2.11863 0
M  V30 9404 N 902.937 -6.49008 -2.42405 0
M  V30 9405 N 904.73 -5.20221 -2.12901 0
M  V30 9406 H 896.881 -2.11284 0.217422 0
M  V30 9407 H 899.144 -0.947367 0.0346362 0
M  V30 9408 H 898.85 -3.48619 -0.464486 0
M  V30 9409 H 898.724 -3.0864 -2.16844 0
M  V30 9410 H 901.111 -2.09904 -2.07424 0
M  V30 9411 H 901.192 -2.53245 -0.360638 0
M  V30 9412 H 900.836 -4.98229 -0.986411 0
M  V30 9413 H 900.766 -4.51817 -2.70498 0
M  V30 9414 H 903.257 -3.4311 -1.58379 0
M  V30 9415 H 903.57 -7.25561 -2.66048 0
M  V30 9416 H 901.915 -6.52277 -2.39917 0
M  V30 9417 H 905.106 -4.28469 -1.885 0
M  V30 9418 H 905.279 -6.02861 -2.37619 0
M  V30 9419 N 898.685 0.775411 -1.37205 0
M  V30 9420 C 899.635 1.87867 -1.29189 0
M  V30 9421 C 900.619 1.59885 -0.180466 0
M  V30 9422 O 901.811 1.72077 -0.414536 0
M  V30 9423 C 898.94 3.25285 -1.09748 0
M  V30 9424 C 898.026 3.59231 -2.25419 0
M  V30 9425 N 898.417 3.64386 -3.50795 0
M  V30 9426 C 896.715 3.89375 -2.17492 0
M  V30 9427 C 897.416 3.94974 -4.27048 0
M  V30 9428 N 896.392 4.10684 -3.56146 0
M  V30 9429 H 900.194 1.90099 -2.24142 0
M  V30 9430 H 897.708 0.971667 -1.30125 0
M  V30 9431 H 899.705 4.04207 -1.02091 0
M  V30 9432 H 898.365 3.2432 -0.157083 0
M  V30 9433 H 899.376 3.46682 -3.8475 0
M  V30 9434 H 896.053 3.96254 -1.31489 0
M  V30 9435 H 897.443 4.05768 -5.35539 0
M  V30 9436 N 900.163 1.21714 1.00117 0
M  V30 9437 C 901.093 1.00397 2.10815 0
M  V30 9438 C 902.074 -0.0723502 1.69946 0
M  V30 9439 O 903.259 0.0882398 1.93999 0
M  V30 9440 C 900.389 0.572001 3.42557 0
M  V30 9441 C 899.343 1.59331 3.97237 0
M  V30 9442 C 898.669 1.01746 5.2493 0
M  V30 9443 C 899.969 2.98117 4.28863 0
M  V30 9444 H 901.663 1.92983 2.28906 0
M  V30 9445 H 899.209 0.929273 1.10002 0
M  V30 9446 H 901.162 0.410018 4.19401 0
M  V30 9447 H 899.886 -0.38951 3.24269 0
M  V30 9448 H 898.545 1.74293 3.22518 0
M  V30 9449 H 898.193 0.0475491 5.02978 0
M  V30 9450 H 897.893 1.69969 5.62481 0
M  V30 9451 H 899.417 0.866881 6.04415 0
M  V30 9452 H 900.831 2.86578 4.96534 0
M  V30 9453 H 899.228 3.63389 4.77565 0
M  V30 9454 H 900.298 3.48674 3.36979 0
M  V30 9455 N 901.641 -1.19671 1.02551 0
M  V30 9456 C 902.574 -2.21522 0.547998 0
M  V30 9457 C 903.552 -1.57363 -0.409349 0
M  V30 9458 O 904.736 -1.85638 -0.327248 0
M  V30 9459 C 901.863 -3.38101 -0.201375 0
M  V30 9460 C 900.909 -4.20601 0.706886 0
M  V30 9461 S 901.742 -4.89066 2.18116 0
M  V30 9462 C 902.898 -6.09058 1.4422 0
M  V30 9463 H 903.131 -2.61684 1.41099 0
M  V30 9464 H 900.664 -1.29864 0.835153 0
M  V30 9465 H 902.622 -4.05674 -0.627607 0
M  V30 9466 H 901.283 -2.96381 -1.04005 0
M  V30 9467 H 900.476 -5.03836 0.128554 0
M  V30 9468 H 900.078 -3.58329 1.07129 0
M  V30 9469 H 902.37 -6.73588 0.726975 0
M  V30 9470 H 903.313 -6.71368 2.25102 0
M  V30 9471 H 903.721 -5.56599 0.941176 0
M  V30 9472 N 903.119 -0.802921 -1.35613 0
M  V30 9473 C 904.53 -0.443004 -1.81368 0
M  V30 9474 C 904.881 1.03459 -1.66706 0
M  V30 9475 O 904.006 1.80372 -1.19561 0
M  V30 9476 C 904.601 -0.797324 -3.29284 0
M  V30 9477 C 903.16 -0.490055 -3.73196 0
M  V30 9478 C 902.307 -1.02487 -2.57666 0
M  V30 9479 H 905.258 -0.994888 -1.23643 0
M  V30 9480 H 905.279 -0.0934638 -3.80385 0
M  V30 9481 H 904.791 -1.87278 -3.39924 0
M  V30 9482 H 902.892 0.576818 -3.68108 0
M  V30 9483 H 903.005 -1.02012 -4.68114 0
M  V30 9484 H 901.369 -0.44738 -2.5074 0
M  V30 9485 H 902.152 -2.10636 -2.71085 0
M  V30 9486 N 904.597 1.47463 -0.556102 0
M  V30 9487 C 905.874 1.9557 0.0339892 0
M  V30 9488 C 906.254 1.49869 1.48669 0
M  V30 9489 O 905.602 0.737019 2.16288 0
M  V30 9490 C 905.812 3.48826 -0.110343 0
M  V30 9491 C 907.16 4.24585 0.0355716 0
M  V30 9492 O 908.184 3.5618 -0.0378356 0
M  V30 9493 O 907.043 5.46158 0.193299 0
M  V30 9494 H 904.137 0.824461 0.0647521 0
M  V30 9495 H 906.683 1.57868 -0.622547 0
M  V30 9496 H 905.455 3.74891 -1.12126 0
M  V30 9497 H 905.078 3.9329 0.583855 0
M  V30 9498 N 906.075 0.2925 1.54862 0
M  V30 9499 C 907.323 -0.318633 1.99572 0
M  V30 9500 C 907.644 -1.55062 1.1824 0
M  V30 9501 O 906.914 -1.93943 0.276226 0
M  V30 9502 H 905.494 -0.120722 0.737181 0
M  V30 9503 H 908.156 0.401862 1.90712 0
M  V30 9504 H 907.252 -0.596542 3.06346 0
M  V30 9505 N 907.553 -1.57587 0.0200696 0
M  V30 9506 C 908.778 -1.96124 -0.674547 0
M  V30 9507 C 909.203 -0.896068 -1.65385 0
M  V30 9508 O 908.561 0.143925 -1.80728 0
M  V30 9509 C 908.609 -3.3376 -1.36517 0
M  V30 9510 O 907.713 -3.29483 -2.48022 0
M  V30 9511 H 907.054 -0.639719 -0.177919 0
M  V30 9512 H 909.584 -2.04447 0.0792317 0
M  V30 9513 H 909.594 -3.69785 -1.72403 0
M  V30 9514 H 908.269 -4.10832 -0.647265 0
M  V30 9515 H 906.846 -3.05162 -2.14314 0
M  V30 9516 N 909.032 0.252966 -1.55557 0
M  V30 9517 C 909.962 1.31691 -1.9282 0
M  V30 9518 C 910.943 1.50516 -0.7924 0
M  V30 9519 O 912.128 1.63225 -1.05219 0
M  V30 9520 C 909.258 2.67281 -2.21762 0
M  V30 9521 C 908.212 2.6316 -3.37536 0
M  V30 9522 C 907.538 4.02488 -3.52005 0
M  V30 9523 C 908.838 2.20675 -4.73392 0
M  V30 9524 H 910.532 1.00751 -2.81939 0
M  V30 9525 H 908.078 0.483219 -1.3565 0
M  V30 9526 H 910.031 3.41842 -2.46419 0
M  V30 9527 H 908.755 2.99845 -1.29463 0
M  V30 9528 H 907.414 1.91057 -3.12878 0
M  V30 9529 H 907.062 4.32307 -2.57137 0
M  V30 9530 H 906.762 4.00621 -4.29857 0
M  V30 9531 H 908.286 4.78758 -3.78977 0
M  V30 9532 H 909.7 2.84965 -4.97461 0
M  V30 9533 H 908.097 2.29931 -5.54303 0
M  V30 9534 H 909.167 1.15831 -4.70862 0
M  V30 9535 N 910.51 1.48831 0.518367 0
M  V30 9536 C 911.921 1.50842 1.10016 0
M  V30 9537 C 912.272 0.284744 1.94123 0
M  V30 9538 O 911.397 -0.607088 2.0771 0
M  V30 9539 C 911.992 2.73329 2.00191 0
M  V30 9540 C 910.551 2.78175 2.53566 0
M  V30 9541 C 909.698 2.4452 1.30786 0
M  V30 9542 H 912.649 1.55779 0.303073 0
M  V30 9543 H 912.67 2.52506 2.84642 0
M  V30 9544 H 912.182 3.62374 1.3895 0
M  V30 9545 H 910.283 1.93368 3.18496 0
M  V30 9546 H 910.396 3.79905 2.91906 0
M  V30 9547 H 908.76 1.95924 1.62744 0
M  V30 9548 H 909.543 3.35819 0.712797 0
M  V30 9549 N 911.988 -0.768124 1.37614 0
M  V30 9550 C 912.898 -1.91249 1.35871 0
M  V30 9551 C 913.914 -1.7208 0.257786 0
M  V30 9552 O 915.09 -1.95253 0.493782 0
M  V30 9553 C 912.155 -3.26423 1.16829 0
M  V30 9554 C 911.216 -3.5822 2.36594 0
M  V30 9555 C 910.449 -4.86945 2.1845 0
M  V30 9556 O 910.672 -5.58258 1.17064 0
M  V30 9557 O 909.606 -5.17888 3.06718 0
M  V30 9558 H 913.432 -1.95671 2.32264 0
M  V30 9559 H 911.017 -0.911382 1.18382 0
M  V30 9560 H 912.899 -4.07269 1.08212 0
M  V30 9561 H 911.574 -3.22845 0.235123 0
M  V30 9562 H 910.481 -2.77594 2.50783 0
M  V30 9563 H 911.814 -3.66545 3.2849 0
M  V30 9564 N 913.466 -1.22244 -0.994698 0
M  V30 9565 C 914.429 -0.992308 -2.06606 0
M  V30 9566 C 915.429 0.0405872 -1.60749 0
M  V30 9567 O 916.619 -0.197737 -1.73074 0
M  V30 9568 C 913.751 -0.498499 -3.37236 0
M  V30 9569 H 914.944 -1.9429 -2.28455 0
M  V30 9570 H 912.497 -1.04087 -1.166 0
M  V30 9571 H 913.232 0.456531 -3.21071 0
M  V30 9572 H 913.017 -1.24367 -3.71854 0
M  V30 9573 H 914.507 -0.35768 -4.16065 0
M  V30 9574 N 914.944 1.19125 -1.03184 0
M  V30 9575 C 915.876 2.21914 -0.573294 0
M  V30 9576 C 916.889 1.5894 0.352397 0
M  V30 9577 O 918.078 1.77883 0.148318 0
M  V30 9578 C 915.178 3.38403 0.18355 0
M  V30 9579 C 914.351 4.3096 -0.747817 0
M  V30 9580 C 913.41 5.26188 -0.0358489 0
M  V30 9581 O 912.436 5.65321 -0.663388 0
M  V30 9582 N 913.638 5.67235 1.23387 0
M  V30 9583 H 916.403 2.61881 -1.45734 0
M  V30 9584 H 913.964 1.33821 -0.911231 0
M  V30 9585 H 915.956 3.99124 0.669468 0
M  V30 9586 H 914.526 2.97201 0.969043 0
M  V30 9587 H 913.746 3.67976 -1.41377 0
M  V30 9588 H 915.034 4.89708 -1.38071 0
M  V30 9589 H 914.432 5.37481 1.76439 0
M  V30 9590 H 912.989 6.30196 1.66423 0
M  V30 9591 N 916.422 0.810101 1.35185 0
M  V30 9592 C 917.647 0.40364 2.03434 0
M  V30 9593 C 918.072 -0.97857 1.60641 0
M  V30 9594 O 917.43 -1.63435 0.784779 0
M  V30 9595 C 917.478 0.499154 3.57129 0
M  V30 9596 O 916.582 -0.486039 4.09526 0
M  V30 9597 H 915.923 0.168049 0.642383 0
M  V30 9598 H 918.453 1.09696 1.72708 0
M  V30 9599 H 918.463 0.370236 4.06317 0
M  V30 9600 H 917.138 1.50733 3.87624 0
M  V30 9601 H 915.715 -0.31707 3.7155 0
M  V30 9602 N 917.9 -1.47166 0.563914 0
M  V30 9603 C 918.83 -2.32894 -0.168148 0
M  V30 9604 C 919.811 -1.44202 -0.902214 0
M  V30 9605 O 920.996 -1.73048 -0.881365 0
M  V30 9606 C 918.126 -3.26116 -1.19439 0
M  V30 9607 C 917.08 -4.24101 -0.576363 0
M  V30 9608 C 916.406 -5.06696 -1.70772 0
M  V30 9609 C 917.706 -5.20142 0.47425 0
M  V30 9610 H 919.4 -2.9435 0.547573 0
M  V30 9611 H 916.946 -1.41545 0.264778 0
M  V30 9612 H 918.899 -3.84935 -1.71474 0
M  V30 9613 H 917.623 -2.62728 -1.94014 0
M  V30 9614 H 916.282 -3.66519 -0.0772534 0
M  V30 9615 H 915.93 -4.39707 -2.44268 0
M  V30 9616 H 915.63 -5.7304 -1.29994 0
M  V30 9617 H 917.154 -5.68375 -2.2312 0
M  V30 9618 H 918.568 -5.73286 0.0397035 0
M  V30 9619 H 916.965 -5.94726 0.801287 0
M  V30 9620 H 918.035 -4.65214 1.36764 0
M  V30 9621 N 919.378 -0.300708 -1.54705 0
M  V30 9622 C 920.624 0.301982 -2.01146 0
M  V30 9623 C 920.979 1.51548 -1.18537 0
M  V30 9624 O 920.272 1.89914 -0.253656 0
M  V30 9625 C 920.466 0.710108 -3.50275 0
M  V30 9626 C 920.295 -0.462291 -4.47318 0
M  V30 9627 C 919.065 -0.954214 -4.96208 0
M  V30 9628 C 921.263 -1.30716 -4.97411 0
M  V30 9629 N 919.245 -2.09341 -5.77105 0
M  V30 9630 C 920.616 -2.29384 -5.76006 0
M  V30 9631 C 922.671 -1.33756 -4.79597 0
M  V30 9632 C 921.374 -3.30869 -6.38685 0
M  V30 9633 C 923.4 -2.34099 -5.43094 0
M  V30 9634 C 922.762 -3.31498 -6.21521 0
M  V30 9635 H 918.861 0.0749709 -0.778398 0
M  V30 9636 H 921.445 -0.430557 -1.8988 0
M  V30 9637 H 919.616 1.41182 -3.61832 0
M  V30 9638 H 921.348 1.29231 -3.83512 0
M  V30 9639 H 918.103 -0.529238 -4.70634 0
M  V30 9640 H 918.527 -2.66739 -6.22237 0
M  V30 9641 H 923.169 -0.598284 -4.18546 0
M  V30 9642 H 920.887 -4.05717 -6.9887 0
M  V30 9643 H 924.473 -2.37225 -5.31239 0
M  V30 9644 H 923.353 -4.07872 -6.69784 0
M  V30 9645 N 920.856 1.57574 -0.0284266 0
M  V30 9646 C 922.267 1.79585 0.510502 0
M  V30 9647 C 922.618 0.938625 1.72291 0
M  V30 9648 O 921.743 0.14884 2.15888 0
M  V30 9649 C 922.338 3.25703 0.932912 0
M  V30 9650 C 920.897 3.48711 1.41696 0
M  V30 9651 C 920.044 2.74665 0.381356 0
M  V30 9652 H 922.995 1.56647 -0.254464 0
M  V30 9653 H 923.016 3.35376 1.79731 0
M  V30 9654 H 922.528 3.88067 0.0503036 0
M  V30 9655 H 920.629 2.91597 2.31952 0
M  V30 9656 H 920.742 4.57423 1.42481 0
M  V30 9657 H 919.106 2.40123 0.8493 0
M  V30 9658 H 919.889 3.39745 -0.492775 0
M  V30 9659 N 922.334 -0.244713 1.55689 0
M  V30 9660 C 923.75 -0.593331 1.48161 0
M  V30 9661 C 923.95 -1.88234 0.719047 0
M  V30 9662 O 923.006 -2.51266 0.249292 0
M  V30 9663 C 924.319 -0.694032 2.92581 0
M  V30 9664 C 925.867 -0.786213 3.02965 0
M  V30 9665 C 926.342 -0.918457 4.48696 0
M  V30 9666 N 927.833 -0.983272 4.52643 0
M  V30 9667 C 928.568 -1.1049 5.62654 0
M  V30 9668 N 928.064 -1.19193 6.8247 0
M  V30 9669 N 929.857 -1.13823 5.50455 0
M  V30 9670 H 922.008 0.601446 2.03707 0
M  V30 9671 H 924.271 0.207894 0.924924 0
M  V30 9672 H 923.977 0.183133 3.51223 0
M  V30 9673 H 923.851 -1.56525 3.4319 0
M  V30 9674 H 926.238 -1.65383 2.44402 0
M  V30 9675 H 926.319 0.110202 2.55563 0
M  V30 9676 H 925.963 -0.0553881 5.0787 0
M  V30 9677 H 925.893 -1.82994 4.93782 0
M  V30 9678 H 928.384 -0.927269 3.66347 0
M  V30 9679 H 928.697 -1.28387 7.62061 0
M  V30 9680 H 927.042 -1.16147 6.85226 0
M  V30 9681 H 930.233 -1.06673 4.55783 0
M  V30 9682 H 930.406 -1.22957 6.36228 0
M  V30 9683 N 923.813 -1.49104 -0.510467 0
M  V30 9684 C 925.224 -1.51423 -1.09215 0
M  V30 9685 C 925.575 -0.295035 -1.93969 0
M  V30 9686 O 924.7 0.596064 -2.08029 0
M  V30 9687 C 925.295 -2.74387 -1.98739 0
M  V30 9688 C 923.854 -2.79515 -2.52088 0
M  V30 9689 C 923.001 -2.4521 -1.29488 0
M  V30 9690 H 925.952 -1.55938 -0.294807 0
M  V30 9691 H 925.973 -2.54012 -2.83298 0
M  V30 9692 H 925.485 -3.63105 -1.37026 0
M  V30 9693 H 923.586 -1.95054 -3.17466 0
M  V30 9694 H 923.699 -3.81447 -2.89887 0
M  V30 9695 H 922.063 -1.96785 -1.61703 0
M  V30 9696 H 922.846 -3.36192 -0.694978 0
M  V30 9697 N 925.291 0.760815 -1.38019 0
M  V30 9698 C 926.221 1.88811 -1.37377 0
M  V30 9699 C 927.202 1.68388 -0.240737 0
M  V30 9700 O 928.387 1.89086 -0.442739 0
M  V30 9701 C 925.517 3.26244 -1.1909 0
M  V30 9702 C 924.471 3.61254 -2.29521 0
M  V30 9703 C 923.797 4.97346 -1.96345 0
M  V30 9704 C 925.097 3.66874 -3.71753 0
M  V30 9705 H 926.791 1.89606 -2.31711 0
M  V30 9706 H 924.337 0.910818 -1.11535 0
M  V30 9707 H 926.29 4.04755 -1.17267 0
M  V30 9708 H 925.014 3.2591 -0.212152 0
M  V30 9709 H 923.673 2.85057 -2.30517 0
M  V30 9710 H 923.321 4.93564 -0.969728 0
M  V30 9711 H 923.021 5.21739 -2.703 0
M  V30 9712 H 924.545 5.78244 -1.96129 0
M  V30 9713 H 925.959 4.35514 -3.72828 0
M  V30 9714 H 924.356 4.02772 -4.44853 0
M  V30 9715 H 925.426 2.67273 -4.0459 0
M  V30 9716 N 926.769 1.22769 0.988202 0
M  V30 9717 C 928.016 1.05509 1.72841 0
M  V30 9718 C 928.344 -0.409145 1.90148 0
M  V30 9719 O 927.599 -1.3195 1.44526 0
M  V30 9720 C 927.898 1.71679 3.13466 0
M  V30 9721 C 927.564 3.21584 3.16061 0
M  V30 9722 C 926.226 3.62486 3.16476 0
M  V30 9723 C 928.578 4.17511 3.11984 0
M  V30 9724 C 925.906 4.97789 3.10521 0
M  V30 9725 C 928.258 5.52796 3.0757 0
M  V30 9726 C 926.922 5.93072 3.06304 0
M  V30 9727 H 926.192 0.386085 0.632471 0
M  V30 9728 H 928.839 1.52596 1.157 0
M  V30 9729 H 927.144 1.1693 3.73945 0
M  V30 9730 H 928.841 1.55809 3.69492 0
M  V30 9731 H 925.431 2.89019 3.1649 0
M  V30 9732 H 929.615 3.86926 3.10809 0
M  V30 9733 H 924.871 5.28218 3.07888 0
M  V30 9734 H 929.045 6.26848 3.03372 0
M  V30 9735 H 926.672 6.97879 3.01444 0
M  V30 9736 N 928.247 -1.18576 1.03814 0
M  V30 9737 C 929.487 -1.90187 0.748882 0
M  V30 9738 C 929.851 -1.78383 -0.710177 0
M  V30 9739 O 931.052 -2.44678 -1.11293 0
M  V30 9740 C 929.323 -3.36688 1.19901 0
M  V30 9741 S 930.882 -4.26419 1.03501 0
M  V30 9742 H 927.7 -0.656765 0.272362 0
M  V30 9743 H 930.302 -1.43296 1.32991 0
M  V30 9744 H 929.006 -3.42808 2.25635 0
M  V30 9745 H 928.537 -3.88616 0.611669 0
M  V30 9746 H 930.552 -4.96176 -0.0490431 0
M  V30 9747 O 929.764 -0.952659 -1.3041 0
M  V30 9748 H 930.455 -0.5852 -1.84649 0
M  V30 END ATOM
M  V30 BEGIN BOND
M  V30 END BOND
M  V30 END CTAB
M  END
$$$$
